drugbank_target|P09960 Leukotriene A-4 hydrolase (DB01197; DB02062; DB02352; DB03366; DB03424; DB05177; DB06828; DB06851; DB06917; DB07094; DB07099; DB07102; DB07104; DB07196; DB07237; DB07258; DB07259; DB07260; DB07292; DB08040; DB08466; DB11781)
 OpenBabel12092119583D

  0  0  0     0  0            999 V3000
M  V30 BEGIN CTAB
M  V30 COUNTS 9731 9856 0 0 0
M  V30 BEGIN ATOM
M  V30 1 H -0.908 1.98254 -0.117106 0
M  V30 2 N 0 1.576 0 0
M  V30 3 C 0.933 2.03868 1.02534 0
M  V30 4 C 1.911 0.928543 1.3348 0
M  V30 5 O 3.095 1.19667 1.45644 0
M  V30 6 C 0.222 2.43627 2.35294 0
M  V30 7 C -0.732 3.65373 2.2001 0
M  V30 8 S 0.101 5.13292 1.52614 0
M  V30 9 C 1.257 5.56322 2.86805 0
M  V30 10 H 1.49 2.90518 0.631377 0
M  V30 11 H -0.977 1.52953 0.210867 0
M  V30 12 H 0.981 2.67203 3.11629 0
M  V30 13 H -0.358 1.57376 2.7183 0
M  V30 14 H -1.165 3.90944 3.18086 0
M  V30 15 H -1.563 3.418 1.51819 0
M  V30 16 H 0.729 5.58782 3.83104 0
M  V30 17 H 1.672 6.56266 2.65933 0
M  V30 18 H 2.08 4.83886 2.90714 0
M  V30 19 N 1.4781 -0.272755 1.55222 0
M  V30 20 C 2.8891 -0.84378 1.66545 0
M  V30 21 C 3.2401 -1.87035 0.592641 0
M  V30 22 O 2.3651 -2.14761 -0.265818 0
M  V30 23 C 2.9601 -1.53723 3.01918 0
M  V30 24 C 1.5191 -2.05628 3.15268 0
M  V30 25 C 0.6661 -0.898424 2.62343 0
M  V30 26 H 3.6171 -0.0490998 1.58624 0
M  V30 27 H 3.6381 -2.40421 2.94921 0
M  V30 28 H 3.1501 -0.78983 3.79978 0
M  V30 29 H 1.2511 -2.83329 2.41983 0
M  V30 30 H 1.3641 -2.27142 4.21833 0
M  V30 31 H -0.2719 -1.29186 2.19506 0
M  V30 32 H 0.5111 -0.164528 3.42906 0
M  V30 33 N 2.9562 -1.48159 -0.537278 0
M  V30 34 C 3.8662 -1.64807 -1.6696 0
M  V30 35 C 4.8822 -0.530651 -1.65711 0
M  V30 36 O 6.0582 -0.800784 -1.84796 0
M  V30 37 C 3.1232 -1.67708 -3.03438 0
M  V30 38 C 2.1842 -2.91025 -3.156 0
M  V30 39 C 1.4172 -2.93778 -4.45567 0
M  V30 40 O 1.6402 -2.05153 -5.3223 0
M  V30 41 O 0.5742 -3.85868 -4.61941 0
M  V30 42 H 4.4002 -2.6066 -1.55853 0
M  V30 43 H 1.9852 -1.31475 -0.709549 0
M  V30 44 H 3.8672 -1.7218 -3.84619 0
M  V30 45 H 2.5422 -0.750278 -3.14885 0
M  V30 46 H 1.4492 -2.92089 -2.33741 0
M  V30 47 H 2.7822 -3.83065 -3.09066 0
M  V30 48 N 4.4343 0.785586 -1.36625 0
M  V30 49 C 5.6833 1.53883 -1.30396 0
M  V30 50 C 5.9963 1.95271 0.113452 0
M  V30 51 O 7.2023 2.69858 0.298142 0
M  V30 52 C 5.6583 2.77808 -2.28802 0
M  V30 53 C 5.2663 2.43574 -3.75999 0
M  V30 54 C 7.0103 3.55783 -2.31558 0
M  V30 55 C 4.9173 3.63919 -4.66173 0
M  V30 56 H 3.8473 0.577678 -0.484566 0
M  V30 57 H 6.4983 0.861705 -1.62009 0
M  V30 58 H 4.8803 3.47339 -1.90188 0
M  V30 59 H 6.0543 1.81916 -4.23371 0
M  V30 60 H 4.3693 1.78803 -3.76056 0
M  V30 61 H 6.9663 4.45205 -2.96137 0
M  V30 62 H 7.3093 3.94644 -1.3252 0
M  V30 63 H 7.8423 2.93235 -2.68809 0
M  V30 64 H 4.5813 3.3015 -5.66287 0
M  V30 65 H 4.1013 4.2473 -4.23515 0
M  V30 66 H 5.7803 4.30901 -4.82632 0
M  V30 67 N 5.9124 1.20967 1.01018 0
M  V30 68 C 7.1584 1.02526 1.74975 0
M  V30 69 C 7.4914 -0.4408 1.89131 0
M  V30 70 O 6.7664 -1.32718 1.42184 0
M  V30 71 C 7.0494 1.71699 3.1653 0
M  V30 72 C 6.9024 3.25791 3.10129 0
M  V30 73 C 8.2214 1.45531 4.15342 0
M  V30 74 H 5.3404 0.373863 0.635134 0
M  V30 75 H 7.9824 1.49071 1.17805 0
M  V30 76 H 6.1324 1.32128 3.65341 0
M  V30 77 H 7.8044 3.74697 2.69072 0
M  V30 78 H 6.0474 3.56363 2.47362 0
M  V30 79 H 6.7184 3.69353 4.10222 0
M  V30 80 H 9.1944 1.79872 3.75213 0
M  V30 81 H 8.0704 1.96453 5.1254 0
M  V30 82 H 8.3314 0.384237 4.40427 0
M  V30 83 N 7.3905 -1.2043 1.01659 0
M  V30 84 C 8.6675 -1.8548 0.621004 0
M  V30 85 C 9.0475 -1.9091 -0.900919 0
M  V30 86 O 8.3955 -1.41694 -1.79263 0
M  V30 87 C 8.6055 -3.25119 1.2688 0
M  V30 88 C 9.9535 -4.01403 1.38423 0
M  V30 89 O 10.9775 -3.34473 1.22501 0
M  V30 90 O 9.8365 -5.21265 1.64151 0
M  V30 91 H 6.9305 -0.798761 0.214266 0
M  V30 92 H 9.4765 -1.28019 1.11396 0
M  V30 93 H 8.2485 -3.15932 2.30873 0
M  V30 94 H 7.8715 -3.90212 0.762917 0
M  V30 95 N 8.8686 -0.792821 -1.36206 0
M  V30 96 C 10.0966 -0.378825 -2.03402 0
M  V30 97 C 10.5116 1.00586 -1.59774 0
M  V30 98 O 9.8686 1.64574 -0.788764 0
M  V30 99 C 9.9196 -0.43683 -3.58851 0
M  V30 100 O 9.6406 -1.76691 -4.00889 0
M  V30 101 C 11.1416 -0.0138943 -4.43298 0
M  V30 102 H 8.3616 -0.155673 -0.652692 0
M  V30 103 H 10.9056 -1.07261 -1.74113 0
M  V30 104 H 9.0606 0.208575 -3.86838 0
M  V30 105 H 9.4746 -1.72011 -4.95492 0
M  V30 106 H 10.9486 -0.105615 -5.51899 0
M  V30 107 H 11.4256 1.03915 -4.2673 0
M  V30 108 H 12.0316 -0.63192 -4.20579 0
M  V30 109 N 10.3467 1.47872 -0.545128 0
M  V30 110 C 11.5867 2.04391 -0.0187854 0
M  V30 111 C 11.9507 1.41162 1.30144 0
M  V30 112 O 13.1517 1.88656 1.91474 0
M  V30 113 C 11.4227 3.57299 0.0850867 0
M  V30 114 S 12.9817 4.35221 0.559302 0
M  V30 115 H 9.7997 0.710737 -0.0193301 0
M  V30 116 H 12.4017 1.81395 -0.729125 0
M  V30 117 H 11.1057 4.00847 -0.880351 0
M  V30 118 H 10.6367 3.84773 0.819348 0
M  V30 119 H 12.6517 4.61571 1.82118 0
M  V30 120 N 11.8248 0.280983 1.55075 0
M  V30 121 C 13.0498 -0.340154 2.04592 0
M  V30 122 C 13.4748 -1.48246 1.15779 0
M  V30 123 O 12.8328 -1.80614 0.15761 0
M  V30 124 C 12.8808 -0.793104 3.5177 0
M  V30 125 O 11.9848 -1.89981 3.66034 0
M  V30 126 H 11.3258 -0.0694289 0.66036 0
M  V30 127 H 13.8558 0.416993 2.00306 0
M  V30 128 H 13.8658 -1.08729 3.93245 0
M  V30 129 H 12.5408 0.0426163 4.15878 0
M  V30 130 H 11.1178 -1.60771 3.36463 0
M  V30 131 N 13.3029 -1.57598 0.00835791 0
M  V30 132 C 14.2329 -2.1198 -0.979113 0
M  V30 133 C 15.2139 -1.03091 -1.35301 0
M  V30 134 O 16.3989 -1.30818 -1.43528 0
M  V30 135 C 13.5289 -2.62995 -2.26828 0
M  V30 136 C 12.4829 -3.76485 -2.03576 0
M  V30 137 C 11.8089 -4.13846 -3.38579 0
M  V30 138 C 13.1089 -5.0342 -1.39161 0
M  V30 139 H 14.8029 -2.94738 -0.526281 0
M  V30 140 H 12.3489 -1.41783 -0.251704 0
M  V30 141 H 14.3019 -2.99669 -2.96271 0
M  V30 142 H 13.0259 -1.7737 -2.7424 0
M  V30 143 H 11.6849 -3.40217 -1.36557 0
M  V30 144 H 11.3329 -3.25232 -3.83709 0
M  V30 145 H 11.0329 -4.90312 -3.23834 0
M  V30 146 H 12.5569 -4.53086 -4.09323 0
M  V30 147 H 13.9709 -5.37812 -1.98573 0
M  V30 148 H 12.3679 -5.84746 -1.34878 0
M  V30 149 H 13.4379 -4.83548 -0.361868 0
M  V30 150 N 14.781 0.264519 -1.55364 0
M  V30 151 C 15.744 1.31046 -1.88042 0
M  V30 152 C 16.744 1.41943 -0.755569 0
M  V30 153 O 17.934 1.40947 -1.02369 0
M  V30 154 C 15.066 2.69067 -2.09323 0
M  V30 155 H 16.259 1.03297 -2.81549 0
M  V30 156 H 13.812 0.502989 -1.47986 0
M  V30 157 H 14.547 3.01982 -1.18226 0
M  V30 158 H 14.332 2.62542 -2.91229 0
M  V30 159 H 15.822 3.44623 -2.35848 0
M  V30 160 N 16.2591 1.48442 0.529413 0
M  V30 161 C 17.4841 1.60406 1.31471 0
M  V30 162 C 17.9091 0.264738 1.86228 0
M  V30 163 O 17.2671 -0.763668 1.64432 0
M  V30 164 C 17.3151 2.65419 2.44101 0
M  V30 165 O 16.4191 2.22618 3.47153 0
M  V30 166 H 15.7601 0.537863 0.389357 0
M  V30 167 H 18.2901 1.94432 0.636965 0
M  V30 168 H 18.3001 2.86709 2.90279 0
M  V30 169 H 16.9751 3.62652 2.03608 0
M  V30 170 H 15.5521 2.11543 3.0709 0
M  V30 171 N 17.7372 -0.778329 1.37039 0
M  V30 172 C 19.1482 -1.35421 1.28523 0
M  V30 173 C 19.4992 -1.96075 -0.0700901 0
M  V30 174 O 18.6242 -1.93352 -0.971801 0
M  V30 175 C 19.2192 -2.46211 2.32735 0
M  V30 176 C 17.7782 -2.99585 2.27873 0
M  V30 177 C 16.9252 -1.72748 2.16918 0
M  V30 178 H 19.8762 -0.5791 1.47757 0
M  V30 179 H 19.8972 -3.2552 1.9702 0
M  V30 180 H 19.4092 -2.02036 3.31365 0
M  V30 181 H 17.5102 -3.48152 1.32745 0
M  V30 182 H 17.6232 -3.55646 3.21018 0
M  V30 183 H 15.9872 -1.95416 1.63354 0
M  V30 184 H 16.7702 -1.30686 3.17452 0
M  V30 185 N 19.2153 -1.21501 -1.00376 0
M  V30 186 C 20.1783 -0.976927 -2.07337 0
M  V30 187 C 21.1783 0.0525322 -1.60714 0
M  V30 188 O 22.3683 -0.184869 -1.73216 0
M  V30 189 C 19.5003 -0.473423 -3.37597 0
M  V30 190 H 20.6933 -1.92587 -2.29892 0
M  V30 191 H 18.2463 -1.03217 -1.17371 0
M  V30 192 H 18.9813 0.480379 -3.20722 0
M  V30 193 H 18.7663 -1.216 -3.72768 0
M  V30 194 H 20.2563 -0.32675 -4.1632 0
M  V30 195 N 20.6934 1.19889 -1.02296 0
M  V30 196 C 21.9184 1.9393 -0.735237 0
M  V30 197 C 22.3434 1.74639 0.698782 0
M  V30 198 O 21.7014 1.04481 1.48167 0
M  V30 199 C 21.7494 3.43916 -1.08417 0
M  V30 200 O 20.8534 4.11917 -0.199446 0
M  V30 201 H 20.1944 0.605645 -0.272196 0
M  V30 202 H 22.7244 1.52137 -1.36804 0
M  V30 203 H 22.7344 3.9456 -1.03856 0
M  V30 204 H 21.4094 3.5728 -2.12894 0
M  V30 205 H 19.9864 3.71666 -0.303136 0
M  V30 206 N 22.1715 0.800033 1.35784 0
M  V30 207 C 23.4175 0.377901 1.99248 0
M  V30 208 C 23.7505 -1.05052 1.63333 0
M  V30 209 O 23.0255 -1.72768 0.893385 0
M  V30 210 C 23.3085 0.553922 3.55814 0
M  V30 211 C 23.1615 2.0268 4.01548 0
M  V30 212 C 24.4805 -0.0244802 4.40093 0
M  V30 213 H 21.5995 0.138782 0.723815 0
M  V30 214 H 24.2415 1.00835 1.61035 0
M  V30 215 H 22.3915 0.0172398 3.88496 0
M  V30 216 H 24.0635 2.62536 3.79305 0
M  V30 217 H 22.3065 2.5256 3.52698 0
M  V30 218 H 22.9775 2.10087 5.10458 0
M  V30 219 H 25.4535 0.433775 4.13833 0
M  V30 220 H 24.3295 0.128637 5.48749 0
M  V30 221 H 24.5905 -1.11758 4.27741 0
M  V30 222 N 23.6496 -1.47581 0.552962 0
M  V30 223 C 24.8896 -2.04379 0.0296245 0
M  V30 224 C 25.2536 -1.4185 -1.29393 0
M  V30 225 O 26.4546 -1.89669 -1.90471 0
M  V30 226 C 24.7256 -3.57339 -0.0661371 0
M  V30 227 S 26.2846 -4.35511 -0.536213 0
M  V30 228 H 23.1026 -0.710625 0.0230991 0
M  V30 229 H 25.7046 -1.81005 0.738734 0
M  V30 230 H 24.4086 -4.00374 0.901596 0
M  V30 231 H 23.9396 -3.85202 -0.798931 0
M  V30 232 H 25.9546 -4.6253 -1.79668 0
M  V30 233 N 25.1277 -0.289203 -1.54924 0
M  V30 234 C 26.5437 0.0645403 -1.59469 0
M  V30 235 C 26.7437 1.53419 -1.30632 0
M  V30 236 O 25.7997 2.2852 -1.074 0
M  V30 237 C 27.1127 -0.32278 -2.98963 0
M  V30 238 C 28.6607 -0.270564 -3.11828 0
M  V30 239 C 29.1357 -0.632532 -4.53611 0
M  V30 240 N 30.6267 -0.584617 -4.59496 0
M  V30 241 C 31.3617 -0.837314 -5.67254 0
M  V30 242 N 30.8577 -1.15536 -6.83098 0
M  V30 243 N 32.6507 -0.765166 -5.56868 0
M  V30 244 H 24.8017 -1.24714 -1.71931 0
M  V30 245 H 27.0647 -0.504809 -0.802416 0
M  V30 246 H 26.7707 -1.34541 -3.24948 0
M  V30 247 H 26.6447 0.32944 -3.75759 0
M  V30 248 H 29.0317 0.742805 -2.85598 0
M  V30 249 H 29.1127 -0.957242 -2.37214 0
M  V30 250 H 28.7567 -1.64365 -4.80569 0
M  V30 251 H 28.6867 0.07609 -5.26545 0
M  V30 252 H 31.1777 -0.349248 -3.76283 0
M  V30 253 H 31.4907 -1.33447 -7.61191 0
M  V30 254 H 29.8357 -1.19328 -6.84679 0
M  V30 255 H 33.0267 -0.516432 -4.65243 0
M  V30 256 H 33.1997 -0.965477 -6.40767 0
M  V30 257 N 26.6058 1.57591 -0.0167156 0
M  V30 258 C 27.8338 1.95575 0.675128 0
M  V30 259 C 28.2488 0.892542 1.6637 0
M  V30 260 O 27.6058 -0.126912 1.82058 0
M  V30 261 C 27.6568 3.33608 1.39239 0
M  V30 262 O 27.3778 4.3585 0.443444 0
M  V30 263 C 28.8788 3.86151 2.17721 0
M  V30 264 H 26.0988 0.644423 0.186978 0
M  V30 265 H 28.6428 2.0437 -0.0728 0
M  V30 266 H 26.7978 3.2607 2.09182 0
M  V30 267 H 27.2118 5.158 0.951358 0
M  V30 268 H 28.6858 4.85114 2.63379 0
M  V30 269 H 29.1628 3.19738 3.01105 0
M  V30 270 H 29.7688 3.96918 1.52761 0
M  V30 271 N 28.0839 -0.256276 1.55502 0
M  V30 272 C 29.0309 -1.31714 1.89526 0
M  V30 273 C 30.0009 -1.4828 0.748479 0
M  V30 274 O 31.1859 -1.62416 1.00128 0
M  V30 275 C 28.3259 -2.66933 2.18725 0
M  V30 276 C 27.4389 -2.58452 3.4616 0
M  V30 277 C 26.5739 -3.85961 3.64976 0
M  V30 278 C 25.6129 -3.72059 4.86044 0
M  V30 279 N 24.7499 -4.9144 5.01429 0
M  V30 280 H 29.5899 -1.01998 2.80001 0
M  V30 281 H 27.1269 -0.492413 1.38613 0
M  V30 282 H 29.0849 -3.4563 2.33657 0
M  V30 283 H 27.7149 -2.94816 1.31466 0
M  V30 284 H 26.7669 -1.71374 3.3961 0
M  V30 285 H 28.0789 -2.44085 4.34999 0
M  V30 286 H 27.2329 -4.73101 3.79816 0
M  V30 287 H 25.9719 -4.03215 2.74353 0
M  V30 288 H 24.9769 -2.83302 4.7119 0
M  V30 289 H 26.2019 -3.56309 5.78118 0
M  V30 290 H 24.1479 -5.09072 4.13741 0
M  V30 291 H 24.0649 -4.79668 5.84341 0
M  V30 292 H 25.3329 -5.80104 5.20672 0
M  V30 293 N 29.562 -1.4872 -0.521534 0
M  V30 294 C 30.512 -1.60269 -1.62166 0
M  V30 295 C 31.496 -0.45935 -1.54204 0
M  V30 296 O 32.688 -0.711241 -1.62081 0
M  V30 297 C 29.817 -1.65344 -3.00859 0
M  V30 298 C 28.903 -2.85187 -3.13894 0
M  V30 299 N 29.294 -4.09509 -2.96877 0
M  V30 300 C 27.592 -2.82695 -3.44963 0
M  V30 301 C 28.293 -4.89959 -3.13552 0
M  V30 302 N 27.269 -4.22934 -3.41508 0
M  V30 303 H 31.071 -2.5413 -1.47632 0
M  V30 304 H 28.585 -1.45209 -0.727194 0
M  V30 305 H 30.582 -1.71713 -3.79895 0
M  V30 306 H 29.242 -0.726058 -3.16478 0
M  V30 307 H 30.253 -4.39814 -2.73467 0
M  V30 308 H 26.93 -1.99249 -3.66887 0
M  V30 309 H 28.32 -5.98654 -3.05061 0
M  V30 310 N 31.0401 0.771051 -1.3745 0
M  V30 311 C 31.9701 1.89827 -1.3597 0
M  V30 312 C 32.9511 1.68562 -0.228216 0
M  V30 313 O 34.1361 1.8941 -0.428675 0
M  V30 314 C 31.2661 3.2712 -1.16662 0
M  V30 315 C 30.2201 3.6295 -2.2683 0
M  V30 316 C 29.5461 4.98791 -1.92644 0
M  V30 317 C 30.8461 3.69627 -3.69017 0
M  V30 318 H 32.5401 1.91323 -2.30295 0
M  V30 319 H 30.0861 0.919082 -1.10855 0
M  V30 320 H 32.0391 4.05615 -1.14256 0
M  V30 321 H 30.7631 3.26059 -0.187926 0
M  V30 322 H 29.4221 2.86763 -2.28392 0
M  V30 323 H 29.0701 4.94271 -0.933021 0
M  V30 324 H 28.7701 5.23733 -2.66416 0
M  V30 325 H 30.2941 5.79685 -1.91826 0
M  V30 326 H 31.7081 4.38273 -3.69581 0
M  V30 327 H 30.1051 4.06067 -4.41848 0
M  V30 328 H 31.1751 2.70273 -4.02592 0
M  V30 329 N 32.5182 1.22032 0.997298 0
M  V30 330 C 33.4682 0.953838 2.07089 0
M  V30 331 C 34.4522 -0.0938669 1.60626 0
M  V30 332 O 35.6442 0.116078 1.76619 0
M  V30 333 C 32.7732 0.528726 3.39204 0
M  V30 334 C 31.8592 1.61092 3.92314 0
M  V30 335 N 32.2502 2.83768 4.18699 0
M  V30 336 C 30.5482 1.48158 4.20672 0
M  V30 337 C 31.2492 3.53715 4.61802 0
M  V30 338 N 30.2252 2.81174 4.65233 0
M  V30 339 H 34.0272 1.88577 2.25424 0
M  V30 340 H 31.5412 1.11719 1.17867 0
M  V30 341 H 33.5382 0.31915 4.15677 0
M  V30 342 H 32.1982 -0.39635 3.22272 0
M  V30 343 H 33.2092 3.20238 4.07023 0
M  V30 344 H 29.8862 0.622369 4.12835 0
M  V30 345 H 31.2762 4.58793 4.90875 0
M  V30 346 N 33.9963 -1.19345 1.0293 0
M  V30 347 C 34.9263 -2.2481 0.631105 0
M  V30 348 C 35.9073 -1.66245 -0.360104 0
M  V30 349 O 37.0923 -1.92677 -0.242726 0
M  V30 350 C 34.2223 -3.47295 -0.0184607 0
M  V30 351 C 33.1763 -4.18536 0.895073 0
M  V30 352 C 32.5023 -5.34586 0.110592 0
M  V30 353 C 33.8023 -4.73287 2.209 0
M  V30 354 H 35.4963 -2.58372 1.51275 0
M  V30 355 H 33.0423 -1.24194 0.728818 0
M  V30 356 H 34.9953 -4.20268 -0.308675 0
M  V30 357 H 33.7193 -3.12933 -0.934907 0
M  V30 358 H 32.3783 -3.47446 1.16949 0
M  V30 359 H 32.0263 -4.96469 -0.807902 0
M  V30 360 H 31.7263 -5.83183 0.719087 0
M  V30 361 H 33.2503 -6.10355 -0.172871 0
M  V30 362 H 34.6643 -5.38013 1.98028 0
M  V30 363 H 33.0613 -5.32373 2.76946 0
M  V30 364 H 34.1313 -3.91331 2.86336 0
M  V30 365 N 35.4744 -0.807222 -1.35358 0
M  V30 366 C 36.8904 -0.491038 -1.51858 0
M  V30 367 C 37.0904 0.987648 -1.75635 0
M  V30 368 O 36.1464 1.77265 -1.79815 0
M  V30 369 C 37.4594 -1.33695 -2.69344 0
M  V30 370 C 39.0074 -1.33246 -2.83222 0
M  V30 371 C 39.4824 -2.1625 -4.03733 0
M  V30 372 N 40.9734 -2.1379 -4.10911 0
M  V30 373 C 41.7084 -2.74772 -5.03277 0
M  V30 374 N 41.2044 -3.44684 -6.0097 0
M  V30 375 N 42.9974 -2.6441 -4.96028 0
M  V30 376 H 35.1484 -1.76485 -1.18181 0
M  V30 377 H 37.4114 -0.751199 -0.578276 0
M  V30 378 H 37.1174 -2.38634 -2.58354 0
M  V30 379 H 36.9914 -0.990618 -3.6396 0
M  V30 380 H 39.3784 -0.290911 -2.93663 0
M  V30 381 H 39.4594 -1.71866 -1.89461 0
M  V30 382 H 39.1034 -3.20445 -3.94052 0
M  V30 383 H 39.0334 -1.74989 -4.96675 0
M  V30 384 H 41.5244 -1.62923 -3.40976 0
M  V30 385 H 41.8374 -3.88501 -6.68047 0
M  V30 386 H 40.1824 -3.48788 -6.01142 0
M  V30 387 H 43.3734 -2.0938 -4.18662 0
M  V30 388 H 43.5464 -3.12225 -5.6782 0
M  V30 389 N 36.9525 1.47285 -0.560781 0
M  V30 390 C 38.1925 2.0436 -0.0404627 0
M  V30 391 C 38.5565 1.42534 1.28639 0
M  V30 392 O 39.7575 1.90677 1.89462 0
M  V30 393 C 38.0285 3.57369 0.0471856 0
M  V30 394 S 39.5875 4.3579 0.513109 0
M  V30 395 H 36.4055 0.710492 -0.0268674 0
M  V30 396 H 39.0075 1.80611 -0.748323 0
M  V30 397 H 37.7115 3.9989 -0.922817 0
M  V30 398 H 37.2425 3.8562 0.778491 0
M  V30 399 H 39.2575 4.63476 1.77212 0
M  V30 400 N 38.4306 0.297415 1.54768 0
M  V30 401 C 39.6556 -0.318435 2.04941 0
M  V30 402 C 40.0806 -1.4701 1.17345 0
M  V30 403 O 39.4386 -1.80436 0.176758 0
M  V30 404 C 39.4866 -0.755749 3.52592 0
M  V30 405 O 38.5906 -1.86088 3.68028 0
M  V30 406 H 37.9316 -0.062421 0.661059 0
M  V30 407 H 40.4616 0.438215 1.99852 0
M  V30 408 H 40.4716 -1.04552 3.94376 0
M  V30 409 H 39.1466 0.0867233 4.1581 0
M  V30 410 H 37.7236 -1.57193 3.38149 0
M  V30 411 N 39.9087 -1.5758 0.0250728 0
M  V30 412 C 41.1547 -1.91917 -0.655413 0
M  V30 413 C 41.4877 -0.901433 -1.72011 0
M  V30 414 O 40.7627 0.0764069 -1.9435 0
M  V30 415 C 41.0457 -3.36751 -1.27558 0
M  V30 416 C 40.8987 -4.49258 -0.220719 0
M  V30 417 C 42.2177 -3.81469 -2.19475 0
M  V30 418 H 39.3367 -0.697925 -0.23679 0
M  V30 419 H 41.9787 -1.89825 0.0815036 0
M  V30 420 H 40.1287 -3.38664 -1.90365 0
M  V30 421 H 41.8007 -4.59478 0.409601 0
M  V30 422 H 40.0437 -4.31415 0.454264 0
M  V30 423 H 40.7147 -5.47618 -0.694175 0
M  V30 424 H 43.1907 -3.81266 -1.66659 0
M  V30 425 H 42.0667 -4.83512 -2.59822 0
M  V30 426 H 42.3277 -3.16744 -3.08424 0
M  V30 427 N 41.3868 0.248026 -1.55636 0
M  V30 428 C 42.6638 0.998988 -1.68165 0
M  V30 429 C 43.0438 2.03409 -0.564621 0
M  V30 430 O 42.3918 2.24378 0.432076 0
M  V30 431 C 42.6018 1.63334 -3.0842 0
M  V30 432 C 43.9498 2.13562 -3.66983 0
M  V30 433 O 44.9738 1.73277 -3.11213 0
M  V30 434 O 43.8328 2.87526 -4.64749 0
M  V30 435 H 40.9268 0.464933 -0.683935 0
M  V30 436 H 43.4728 0.241902 -1.67967 0
M  V30 437 H 42.2448 0.884583 -3.8117 0
M  V30 438 H 41.8678 2.45666 -3.12624 0
M  V30 439 N 42.8649 1.48995 0.513639 0
M  V30 440 C 44.1119 1.57843 1.26854 0
M  V30 441 C 44.4399 0.259501 1.92761 0
M  V30 442 O 43.6949 -0.75159 1.80692 0
M  V30 443 C 43.9939 2.67756 2.36731 0
M  V30 444 C 43.6599 4.09669 1.88368 0
M  V30 445 C 42.3219 4.48291 1.74896 0
M  V30 446 C 44.6739 4.98537 1.52021 0
M  V30 447 C 42.0019 5.73568 1.23438 0
M  V30 448 C 44.3539 6.24319 1.0202 0
M  V30 449 C 43.0179 6.61783 0.871778 0
M  V30 450 H 42.2879 0.577587 0.464192 0
M  V30 451 H 44.9349 1.82778 0.571366 0
M  V30 452 H 43.2399 2.36743 3.12185 0
M  V30 453 H 44.9369 2.71813 2.9482 0
M  V30 454 H 41.5269 3.79176 1.99808 0
M  V30 455 H 45.7109 4.69363 1.61281 0
M  V30 456 H 40.9669 6.01304 1.10648 0
M  V30 457 H 45.1409 6.92566 0.729722 0
M  V30 458 H 42.7679 7.5874 0.470852 0
M  V30 459 N 44.343 -0.763751 1.37857 0
M  V30 460 C 45.571 -1.55293 1.36718 0
M  V30 461 C 45.986 -1.88745 -0.0455434 0
M  V30 462 O 45.343 -1.52039 -1.00947 0
M  V30 463 C 45.394 -2.85831 2.2132 0
M  V30 464 O 45.115 -2.5381 3.57089 0
M  V30 465 C 46.616 -3.80023 2.28249 0
M  V30 466 H 43.836 -0.480841 0.468009 0
M  V30 467 H 46.38 -0.946009 1.81303 0
M  V30 468 H 44.535 -3.42926 1.80223 0
M  V30 469 H 44.949 -3.37459 4.01524 0
M  V30 470 H 46.423 -4.68599 2.91752 0
M  V30 471 H 46.9 -4.1973 1.2932 0
M  V30 472 H 47.506 -3.28855 2.69693 0
M  V30 473 N 45.8211 -1.22559 -0.990812 0
M  V30 474 C 47.2371 -0.985996 -1.255 0
M  V30 475 C 47.4371 0.319173 -1.98956 0
M  V30 476 O 46.4931 1.04127 -2.3003 0
M  V30 477 C 47.8061 -2.18607 -2.06474 0
M  V30 478 C 49.3541 -2.22985 -2.19651 0
M  V30 479 C 49.8291 -3.4255 -3.04012 0
M  V30 480 N 51.3201 -3.42725 -3.11599 0
M  V30 481 C 52.0551 -4.31892 -3.7717 0
M  V30 482 N 51.5511 -5.31279 -4.44651 0
M  V30 483 N 53.3441 -4.19662 -3.73952 0
M  V30 484 H 45.4951 -2.06469 -0.49841 0
M  V30 485 H 47.7581 -0.904853 -0.282747 0
M  V30 486 H 47.4641 -3.13267 -1.59865 0
M  V30 487 H 47.3381 -2.18838 -3.07229 0
M  V30 488 H 49.7251 -1.28871 -2.65474 0
M  V30 489 H 49.8061 -2.26791 -1.18319 0
M  V30 490 H 49.4501 -4.36965 -2.58889 0
M  V30 491 H 49.3801 -3.35984 -4.0549 0
M  V30 492 H 51.8711 -2.70807 -2.63575 0
M  V30 493 H 52.1841 -5.95593 -4.92431 0
M  V30 494 H 50.5291 -5.3519 -4.43392 0
M  V30 495 H 53.7201 -3.41268 -3.20396 0
M  V30 496 H 53.8931 -4.89358 -4.24774 0
M  V30 497 N 47.2992 1.18797 -1.03562 0
M  V30 498 C 48.7152 1.40671 -0.753917 0
M  V30 499 C 48.9152 1.9043 0.658686 0
M  V30 500 O 47.9712 2.08538 1.42366 0
M  V30 501 C 49.2842 2.41192 -1.79574 0
M  V30 502 C 50.8322 2.54928 -1.81606 0
M  V30 503 C 51.3072 3.58709 -2.84766 0
M  V30 504 N 52.7982 3.66212 -2.83625 0
M  V30 505 C 53.5332 4.46225 -3.60098 0
M  V30 506 N 53.0292 5.29888 -4.46308 0
M  V30 507 N 54.8222 4.40939 -3.4861 0
M  V30 508 H 46.9732 0.848221 -1.94728 0
M  V30 509 H 49.2362 0.435081 -0.842264 0
M  V30 510 H 48.9422 2.11669 -2.80872 0
M  V30 511 H 48.8162 3.40467 -1.62365 0
M  V30 512 H 51.2032 2.83771 -0.809817 0
M  V30 513 H 51.2842 1.55784 -2.02891 0
M  V30 514 H 50.9282 3.30607 -3.85566 0
M  V30 515 H 50.8582 4.57519 -2.60737 0
M  V30 516 H 53.3492 3.06466 -2.21105 0
M  V30 517 H 53.6622 5.88078 -5.01382 0
M  V30 518 H 52.0072 5.29326 -4.50377 0
M  V30 519 H 55.1982 3.74624 -2.80668 0
M  V30 520 H 55.3712 5.03056 -4.08459 0
M  V30 521 N 48.7773 0.814389 1.34928 0
M  V30 522 C 50.0053 0.411136 2.02774 0
M  V30 523 C 50.4203 -0.980316 1.61354 0
M  V30 524 O 49.7773 -1.63299 0.814847 0
M  V30 525 C 49.8283 0.493865 3.58111 0
M  V30 526 O 49.5493 1.83047 3.98027 0
M  V30 527 C 51.0503 0.0844174 4.4322 0
M  V30 528 H 48.2703 0.166037 0.650133 0
M  V30 529 H 50.8143 1.10018 1.72384 0
M  V30 530 H 48.9693 -0.147006 3.87121 0
M  V30 531 H 49.3833 1.79872 4.92693 0
M  V30 532 H 50.8573 0.193404 5.51661 0
M  V30 533 H 51.3343 -0.97113 4.28329 0
M  V30 534 H 51.9403 0.69875 4.19521 0
M  V30 535 N 50.2554 -1.46986 0.568584 0
M  V30 536 C 51.1854 -2.32946 -0.160753 0
M  V30 537 C 52.1664 -1.44487 -0.897631 0
M  V30 538 O 53.3514 -1.73327 -0.875867 0
M  V30 539 C 50.4814 -3.26494 -1.18403 0
M  V30 540 C 49.4354 -4.24282 -0.562895 0
M  V30 541 C 48.7614 -5.07236 -1.69163 0
M  V30 542 C 50.0614 -5.19989 0.490761 0
M  V30 543 H 51.7554 -2.94175 0.556916 0
M  V30 544 H 49.3014 -1.4146 0.26927 0
M  V30 545 H 51.2544 -3.85477 -1.70251 0
M  V30 546 H 49.9784 -2.63343 -1.93179 0
M  V30 547 H 48.6374 -3.66541 -0.0656164 0
M  V30 548 H 48.2854 -4.4048 -2.42871 0
M  V30 549 H 47.9854 -5.7345 -1.28174 0
M  V30 550 H 49.5094 -5.6908 -2.21314 0
M  V30 551 H 50.9234 -5.73271 0.0579047 0
M  V30 552 H 49.3204 -5.94469 0.820165 0
M  V30 553 H 50.3904 -4.64777 1.3824 0
M  V30 554 N 51.7335 -0.305618 -1.54608 0
M  V30 555 C 52.9615 0.304775 -2.04643 0
M  V30 556 C 53.3765 1.47167 -1.18268 0
M  V30 557 O 52.7335 1.81296 -0.209328 0
M  V30 558 C 52.7845 0.756564 -3.53495 0
M  V30 559 O 52.5055 -0.36389 -4.36586 0
M  V30 560 C 54.0065 1.43163 -4.19546 0
M  V30 561 H 51.2265 0.0655481 -0.667791 0
M  V30 562 H 53.7705 -0.446592 -1.99564 0
M  V30 563 H 51.9255 1.45794 -3.58919 0
M  V30 564 H 52.3395 -0.0113121 -5.24499 0
M  V30 565 H 53.8135 1.69886 -5.25207 0
M  V30 566 H 54.2905 2.37318 -3.69563 0
M  V30 567 H 54.8965 0.773307 -4.18211 0
M  V30 568 N 53.2116 1.57565 -0.0334293 0
M  V30 569 C 54.4596 1.91598 0.642999 0
M  V30 570 C 54.7806 0.910847 1.7242 0
M  V30 571 O 54.0506 -0.0469931 1.95844 0
M  V30 572 H 52.6306 0.707228 0.240496 0
M  V30 573 H 55.2926 1.94726 -0.0822488 0
M  V30 574 H 54.3886 2.92336 1.09298 0
M  V30 575 N 54.6897 -0.239769 1.55765 0
M  V30 576 C 55.9177 -0.98417 1.81994 0
M  V30 577 C 56.3327 -1.7867 0.610124 0
M  V30 578 O 55.6897 -1.77571 -0.421271 0
M  V30 579 C 55.7407 -1.91635 3.06526 0
M  V30 580 O 55.4617 -1.14629 4.22838 0
M  V30 581 C 56.9627 -2.77616 3.45607 0
M  V30 582 H 54.1827 -0.28928 0.605441 0
M  V30 583 H 56.7267 -0.260499 2.02834 0
M  V30 584 H 54.8817 -2.5942 2.87715 0
M  V30 585 H 55.2957 -1.77745 4.93464 0
M  V30 586 H 56.7697 -3.38759 4.35828 0
M  V30 587 H 57.2467 -3.4909 2.6652 0
M  V30 588 H 57.8527 -2.15271 3.66795 0
M  V30 589 N 56.1678 -1.49265 -0.50573 0
M  V30 590 C 57.1308 -1.65075 -1.59006 0
M  V30 591 C 58.1308 -0.522768 -1.52065 0
M  V30 592 O 59.3208 -0.789117 -1.55302 0
M  V30 593 C 56.4528 -1.64369 -2.98656 0
M  V30 594 H 57.6458 -2.61784 -1.46319 0
M  V30 595 H 55.1988 -1.38226 -0.729616 0
M  V30 596 H 55.9338 -0.692272 -3.16825 0
M  V30 597 H 55.7188 -2.46282 -3.05103 0
M  V30 598 H 57.2088 -1.78674 -3.77446 0
M  V30 599 N 57.6459 0.756429 -1.3826 0
M  V30 600 C 58.6089 1.85176 -1.35065 0
M  V30 601 C 59.6089 1.58818 -0.251703 0
M  V30 602 O 60.7989 1.66615 -0.508433 0
M  V30 603 C 57.9309 3.22596 -1.10201 0
M  V30 604 H 59.1239 1.89417 -2.3251 0
M  V30 605 H 56.6769 0.95783 -1.23512 0
M  V30 606 H 57.4119 3.24025 -0.133504 0
M  V30 607 H 57.1969 3.43122 -1.89762 0
M  V30 608 H 58.6869 4.02673 -1.10654 0
M  V30 609 N 59.124 1.23083 0.984299 0
M  V30 610 C 60.054 1.03292 2.09411 0
M  V30 611 C 61.035 -0.048923 1.7003 0
M  V30 612 O 62.22 0.114967 1.93859 0
M  V30 613 C 59.35 0.619155 3.41736 0
M  V30 614 C 58.304 1.64791 3.95004 0
M  V30 615 C 57.63 1.0897 5.23478 0
M  V30 616 C 58.93 3.03999 4.24714 0
M  V30 617 H 60.624 1.96119 2.26225 0
M  V30 618 H 58.17 0.944344 1.08711 0
M  V30 619 H 60.123 0.467777 4.18796 0
M  V30 620 H 58.847 -0.344786 3.24775 0
M  V30 621 H 57.506 1.78721 3.20085 0
M  V30 622 H 57.154 0.11686 5.02864 0
M  V30 623 H 56.854 1.77704 5.60085 0
M  V30 624 H 58.378 0.950093 6.03163 0
M  V30 625 H 59.792 2.93393 4.92538 0
M  V30 626 H 58.189 3.69936 4.72512 0
M  V30 627 H 59.259 3.53285 3.32142 0
M  V30 628 N 60.6021 -1.18246 1.0419 0
M  V30 629 C 61.8301 -1.92195 0.766072 0
M  V30 630 C 62.2451 -1.76247 -0.676933 0
M  V30 631 O 61.6021 -1.09293 -1.46155 0
M  V30 632 C 61.6531 -3.43568 1.12442 0
M  V30 633 O 61.3741 -3.59015 2.51078 0
M  V30 634 C 62.8751 -4.34613 0.873275 0
M  V30 635 H 60.0951 -0.610114 0.279288 0
M  V30 636 H 62.6391 -1.50007 1.38989 0
M  V30 637 H 60.7941 -3.8354 0.545542 0
M  V30 638 H 61.2081 -4.5273 2.64831 0
M  V30 639 H 62.6821 -5.39374 1.17385 0
M  V30 640 H 63.1591 -4.38781 -0.191909 0
M  V30 641 H 63.7651 -4.00341 1.43551 0
M  V30 642 N 62.0802 -0.821533 -1.34494 0
M  V30 643 C 63.3262 -0.409552 -1.98622 0
M  V30 644 C 63.6592 1.0244 -1.64984 0
M  V30 645 O 62.9342 1.71325 -0.920758 0
M  V30 646 C 63.2172 -0.610458 -3.54888 0
M  V30 647 C 63.0702 -2.09043 -3.98273 0
M  V30 648 C 64.3892 -0.0455379 -4.40076 0
M  V30 649 H 61.5082 -0.15028 -0.721516 0
M  V30 650 H 64.1502 -1.03384 -1.59411 0
M  V30 651 H 62.3002 -0.079044 -3.8842 0
M  V30 652 H 63.9722 -2.68537 -3.75081 0
M  V30 653 H 62.2152 -2.58139 -3.48635 0
M  V30 654 H 62.8862 -2.18182 -5.07051 0
M  V30 655 H 65.3622 -0.499557 -4.1309 0
M  V30 656 H 64.2382 -0.215922 -5.48475 0
M  V30 657 H 64.4992 1.04939 -4.29465 0
M  V30 658 N 63.5583 1.46682 -0.576371 0
M  V30 659 C 64.4903 2.28341 0.198231 0
M  V30 660 C 65.5033 1.38141 0.861453 0
M  V30 661 O 66.6923 1.62797 0.732082 0
M  V30 662 C 63.7923 3.12986 1.29972 0
M  V30 663 C 62.9653 4.31271 0.729639 0
M  V30 664 C 62.0243 4.97363 1.71803 0
M  V30 665 O 61.0503 5.55156 1.25658 0
M  V30 666 N 62.2523 4.93796 3.05198 0
M  V30 667 H 65.0173 2.9546 -0.502324 0
M  V30 668 H 62.5783 1.56525 -0.413715 0
M  V30 669 H 64.5703 3.54066 1.96008 0
M  V30 670 H 63.1403 2.47984 1.90323 0
M  V30 671 H 62.3603 3.94052 -0.108012 0
M  V30 672 H 63.6483 5.07739 0.328438 0
M  V30 673 H 63.0463 4.48077 3.45317 0
M  V30 674 H 61.6033 5.38837 3.6674 0
M  V30 675 N 65.0364 0.313813 1.54444 0
M  V30 676 C 66.2614 -0.296681 2.05267 0
M  V30 677 C 66.6864 -1.45757 1.18897 0
M  V30 678 O 66.0444 -1.80239 0.195886 0
M  V30 679 C 66.0924 -0.71831 3.53373 0
M  V30 680 O 65.1964 -1.82175 3.69981 0
M  V30 681 H 64.5374 -0.0554061 0.661684 0
M  V30 682 H 67.0674 0.459387 1.99376 0
M  V30 683 H 67.0774 -1.00364 3.95463 0
M  V30 684 H 65.7524 0.130821 4.15694 0
M  V30 685 H 64.3294 -1.53598 3.39797 0
M  V30 686 N 66.5145 -1.57545 0.0417849 0
M  V30 687 C 67.4465 -2.07904 -0.964799 0
M  V30 688 C 68.4595 -1.00497 -1.28079 0
M  V30 689 O 69.6485 -1.28087 -1.24322 0
M  V30 690 C 66.7485 -2.49928 -2.28887 0
M  V30 691 C 65.9215 -3.80562 -2.15619 0
M  V30 692 C 64.9805 -4.08999 -3.31069 0
M  V30 693 O 64.0065 -4.79061 -3.0739 0
M  V30 694 N 65.2085 -3.6017 -4.55256 0
M  V30 695 H 67.9735 -2.94886 -0.535029 0
M  V30 696 H 65.5345 -1.61252 -0.144681 0
M  V30 697 H 67.5265 -2.66034 -3.04972 0
M  V30 698 H 66.0965 -1.68245 -2.63463 0
M  V30 699 H 65.3165 -3.74129 -1.24183 0
M  V30 700 H 66.6045 -4.66126 -2.03971 0
M  V30 701 H 66.0025 -3.03512 -4.77386 0
M  V30 702 H 64.5595 -3.81532 -5.28466 0
M  V30 703 N 67.9926 0.231505 -1.5589 0
M  V30 704 C 68.9026 1.308 -1.94752 0
M  V30 705 C 69.9186 1.51826 -0.849989 0
M  V30 706 O 71.0946 1.6515 -1.15271 0
M  V30 707 C 68.1596 2.63968 -2.24771 0
M  V30 708 C 67.2206 2.51331 -3.48039 0
M  V30 709 C 66.4536 3.78148 -3.76616 0
M  V30 710 O 66.6766 4.80722 -3.07022 0
M  V30 711 O 65.6106 3.75857 -4.70123 0
M  V30 712 H 69.4366 1.0083 -2.86474 0
M  V30 713 H 67.0216 0.433547 -1.42971 0
M  V30 714 H 68.9036 3.42633 -2.45318 0
M  V30 715 H 67.5786 2.9364 -1.36225 0
M  V30 716 H 66.4856 1.709 -3.32782 0
M  V30 717 H 67.8186 2.26601 -4.36936 0
M  V30 718 N 69.4707 1.49531 0.497807 0
M  V30 719 C 70.7477 1.49682 1.25915 0
M  V30 720 C 71.1277 0.226339 2.09883 0
M  V30 721 O 70.4757 -0.791189 2.14365 0
M  V30 722 C 70.6857 2.77755 2.11313 0
M  V30 723 C 72.0337 3.27371 2.70395 0
M  V30 724 O 73.0577 2.78894 2.21578 0
M  V30 725 O 71.9167 4.11808 3.59272 0
M  V30 726 H 69.0107 0.599228 0.56996 0
M  V30 727 H 71.5567 1.61798 0.511816 0
M  V30 728 H 70.3287 3.61713 1.49264 0
M  V30 729 H 69.9517 2.68515 2.93233 0
M  V30 730 N 70.9488 -0.749086 1.3866 0
M  V30 731 C 71.8968 -1.88428 1.36373 0
M  V30 732 C 72.8908 -1.67561 0.248929 0
M  V30 733 O 74.0968 -1.75074 0.41821 0
M  V30 734 H 70.4718 -0.620023 0.42553 0
M  V30 735 H 72.4428 -1.87473 2.32156 0
M  V30 736 C 71.1918 -3.25961 1.21014 0
M  V30 737 H 70.5148 -3.42607 2.06059 0
M  V30 738 H 71.9548 -4.05625 1.23469 0
M  V30 739 C 70.4138 -3.36799 -0.0825941 0
M  V30 740 O 70.9438 -3.87517 -1.05797 0
M  V30 741 N 69.1498 -2.90258 -0.140939 0
M  V30 742 H 68.6968 -2.49174 0.653477 0
M  V30 743 H 68.6548 -2.97889 -1.00545 0
M  V30 744 N 72.4269 -1.23603 -0.977757 0
M  V30 745 C 73.3569 -1.04401 -2.0886 0
M  V30 746 C 74.3379 0.0399052 -1.70053 0
M  V30 747 O 75.5229 -0.125246 -1.93796 0
M  V30 748 C 72.6529 -0.637269 -3.41403 0
M  V30 749 C 71.6069 -1.66883 -3.94124 0
M  V30 750 C 70.9329 -1.11745 -5.22893 0
M  V30 751 C 72.2329 -3.06247 -4.23096 0
M  V30 752 H 73.9269 -1.97316 -2.25182 0
M  V30 753 H 71.4729 -0.950096 -1.08209 0
M  V30 754 H 73.4259 -0.48998 -4.18542 0
M  V30 755 H 72.1499 0.327557 -3.24953 0
M  V30 756 H 70.8089 -1.80416 -3.19133 0
M  V30 757 H 70.4569 -0.143527 -5.02795 0
M  V30 758 H 70.1569 -1.80672 -5.59134 0
M  V30 759 H 71.6809 -0.982067 -6.02651 0
M  V30 760 H 73.0949 -2.96001 -4.90975 0
M  V30 761 H 71.4919 -3.72436 -4.70544 0
M  V30 762 H 72.5619 -3.55041 -3.30263 0
M  V30 763 N 73.905 1.17692 -1.04816 0
M  V30 764 C 75.321 1.39863 -0.768794 0
M  V30 765 C 75.521 1.91118 0.638451 0
M  V30 766 O 74.577 2.10036 1.40146 0
M  V30 767 C 75.89 2.39274 -1.82122 0
M  V30 768 C 77.438 2.52987 -1.843 0
M  V30 769 C 77.913 3.55669 -2.88555 0
M  V30 770 N 79.404 3.63183 -2.87493 0
M  V30 771 C 80.139 4.42381 -3.64811 0
M  V30 772 N 79.635 5.25125 -4.51903 0
M  V30 773 N 81.428 4.37217 -3.53267 0
M  V30 774 H 73.579 0.82752 -1.95617 0
M  V30 775 H 75.842 0.426123 -0.846831 0
M  V30 776 H 75.548 2.08678 -2.83102 0
M  V30 777 H 75.422 3.38725 -1.65967 0
M  V30 778 H 77.809 2.82896 -0.839869 0
M  V30 779 H 77.89 1.53623 -2.04532 0
M  V30 780 H 77.534 3.26499 -3.89051 0
M  V30 781 H 77.464 4.54728 -2.65575 0
M  V30 782 H 79.955 3.04103 -2.24343 0
M  V30 783 H 80.268 5.82728 -5.07591 0
M  V30 784 H 78.613 5.24519 -4.55966 0
M  V30 785 H 81.804 3.71626 -2.84625 0
M  V30 786 H 81.977 4.98696 -4.13771 0
M  V30 787 N 75.3831 0.828654 1.34056 0
M  V30 788 C 76.6081 0.431637 2.02859 0
M  V30 789 C 77.0331 -0.956339 1.61975 0
M  V30 790 O 76.3911 -1.62338 0.807228 0
M  V30 791 C 76.4391 0.548323 3.56407 0
M  V30 792 O 75.5431 -0.429556 4.10157 0
M  V30 793 H 74.8841 0.176886 0.640006 0
M  V30 794 H 77.4141 1.12066 1.71179 0
M  V30 795 H 77.4241 0.426196 4.05768 0
M  V30 796 H 76.0991 1.5606 3.8551 0
M  V30 797 H 74.6761 -0.265836 3.71951 0
M  V30 798 N 76.8612 -1.46375 0.584142 0
M  V30 799 C 77.7912 -2.33103 -0.136037 0
M  V30 800 C 78.7722 -1.45431 -0.882255 0
M  V30 801 O 79.9572 -1.74246 -0.857434 0
M  V30 802 C 77.0872 -3.27731 -1.14933 0
M  V30 803 C 76.0412 -4.24855 -0.517862 0
M  V30 804 C 75.3672 -5.09001 -1.63773 0
M  V30 805 C 76.6672 -5.19439 0.545886 0
M  V30 806 H 78.3612 -2.93568 0.588086 0
M  V30 807 H 75.9072 -1.41166 0.284259 0
M  V30 808 H 77.8602 -3.87261 -1.66153 0
M  V30 809 H 76.5842 -2.65377 -1.90375 0
M  V30 810 H 75.2432 -3.6659 -0.0267361 0
M  V30 811 H 74.8912 -4.43031 -2.38185 0
M  V30 812 H 74.5912 -5.74777 -1.22085 0
M  V30 813 H 76.1152 -5.71396 -2.15266 0
M  V30 814 H 77.5292 -5.73177 0.118704 0
M  V30 815 H 75.9262 -5.93566 0.88317 0
M  V30 816 H 76.9962 -4.63285 1.43162 0
M  V30 817 N 78.3393 -0.321999 -1.54275 0
M  V30 818 C 79.5853 0.281461 -2.00837 0
M  V30 819 C 79.9183 1.51909 -1.20985 0
M  V30 820 O 79.1933 1.923 -0.291733 0
M  V30 821 C 79.4763 0.617162 -3.54772 0
M  V30 822 C 79.3293 -0.631064 -4.45351 0
M  V30 823 C 80.6483 1.43542 -4.16033 0
M  V30 824 H 77.7673 0.100826 -0.730071 0
M  V30 825 H 80.4093 -0.438268 -1.84876 0
M  V30 826 H 78.5593 1.23034 -3.68504 0
M  V30 827 H 80.2313 -1.26934 -4.43492 0
M  V30 828 H 78.4743 -1.26025 -4.15091 0
M  V30 829 H 79.1453 -0.351735 -5.50878 0
M  V30 830 H 81.6213 0.917134 -4.05867 0
M  V30 831 H 80.4973 1.63907 -5.23856 0
M  V30 832 H 80.7583 2.43108 -3.69257 0
M  V30 833 N 79.8174 1.5752 -0.0501392 0
M  V30 834 C 80.7474 2.14502 0.922566 0
M  V30 835 C 81.7284 1.06642 1.3252 0
M  V30 836 O 82.9134 1.34577 1.4001 0
M  V30 837 C 80.0434 2.68916 2.19776 0
M  V30 838 C 78.9974 3.8175 1.93523 0
M  V30 839 C 78.3234 4.22677 3.27487 0
M  V30 840 C 79.6234 5.06932 1.25765 0
M  V30 841 H 81.3174 2.9603 0.447952 0
M  V30 842 H 78.8634 1.42401 0.214024 0
M  V30 843 H 80.8164 3.07419 2.88222 0
M  V30 844 H 79.5404 1.84578 2.69441 0
M  V30 845 H 78.1994 3.43718 1.27489 0
M  V30 846 H 77.8474 3.35291 3.74952 0
M  V30 847 H 77.5474 4.98725 3.1072 0
M  V30 848 H 79.0714 4.63779 3.97166 0
M  V30 849 H 80.4854 5.42888 1.84244 0
M  V30 850 H 78.8824 5.88116 1.19328 0
M  V30 851 H 79.9524 4.84337 0.233536 0
M  V30 852 N 81.2955 -0.223234 1.56011 0
M  V30 853 C 82.5725 -0.972108 1.69733 0
M  V30 854 C 82.9525 -2.02485 0.59691 0
M  V30 855 O 82.3005 -2.25037 -0.396324 0
M  V30 856 C 82.5105 -1.58407 3.10979 0
M  V30 857 C 83.8585 -2.07696 3.70334 0
M  V30 858 O 84.8825 -1.68304 3.1393 0
M  V30 859 O 83.7415 -2.80096 4.69264 0
M  V30 860 H 80.8355 -0.453993 0.691245 0
M  V30 861 H 83.3815 -0.215149 1.68331 0
M  V30 862 H 82.1535 -0.823831 3.82529 0
M  V30 863 H 81.7765 -2.40661 3.16493 0
M  V30 864 N 82.7736 -1.49793 -0.48987 0
M  V30 865 C 84.0016 -1.63568 -1.26701 0
M  V30 866 C 84.4166 -0.311465 -1.86213 0
M  V30 867 O 83.7736 0.704416 -1.68357 0
M  V30 868 C 83.8246 -2.71284 -2.38929 0
M  V30 869 O 83.5456 -3.9857 -1.81861 0
M  V30 870 C 85.0466 -2.95864 -3.3012 0
M  V30 871 H 82.2666 -0.550342 -0.383881 0
M  V30 872 H 84.8106 -1.95898 -0.586864 0
M  V30 873 H 82.9656 -2.417 -3.02753 0
M  V30 874 H 83.3796 -4.57993 -2.55622 0
M  V30 875 H 84.8536 -3.74941 -4.05121 0
M  V30 876 H 85.3306 -2.06206 -3.87783 0
M  V30 877 H 85.9366 -3.26907 -2.72051 0
M  V30 878 N 84.2517 0.741722 -1.39055 0
M  V30 879 C 85.1987 1.85566 -1.37237 0
M  V30 880 C 86.1687 1.64457 -0.233072 0
M  V30 881 O 87.3537 1.85957 -0.427147 0
M  V30 882 C 84.4937 3.23004 -1.215 0
M  V30 883 C 83.6067 3.55864 -2.44918 0
M  V30 884 C 82.7417 4.82669 -2.21821 0
M  V30 885 C 81.7807 5.08351 -3.40948 0
M  V30 886 N 80.9177 6.26356 -3.17211 0
M  V30 887 H 85.7577 1.86455 -2.32462 0
M  V30 888 H 83.2947 0.911176 -1.15482 0
M  V30 889 H 85.2527 4.02331 -1.10389 0
M  V30 890 H 83.8827 3.21411 -0.29908 0
M  V30 891 H 82.9347 2.7129 -2.66657 0
M  V30 892 H 84.2467 3.70765 -3.33668 0
M  V30 893 H 83.4007 5.69962 -2.07914 0
M  V30 894 H 82.1397 4.69929 -1.30454 0
M  V30 895 H 81.1447 4.19522 -3.55361 0
M  V30 896 H 82.3697 5.22981 -4.33207 0
M  V30 897 H 80.3157 6.14917 -2.28502 0
M  V30 898 H 80.2327 6.41813 -3.99515 0
M  V30 899 H 81.5007 7.16506 -3.06984 0
M  V30 900 N 85.7298 1.2412 0.971189 0
M  V30 901 C 87.0068 0.986867 1.6888 0
M  V30 902 C 87.3868 -0.491857 2.0529 0
M  V30 903 O 86.7348 -1.46531 1.75331 0
M  V30 904 C 86.9448 1.9063 2.92338 0
M  V30 905 C 88.2928 2.17515 3.64654 0
M  V30 906 O 89.3168 1.88254 3.02388 0
M  V30 907 O 88.1758 2.6719 4.7673 0
M  V30 908 H 85.2698 0.372944 0.738134 0
M  V30 909 H 87.8158 1.35203 1.02559 0
M  V30 910 H 86.5878 2.90552 2.62097 0
M  V30 911 H 86.2108 1.54408 3.66393 0
M  V30 912 N 87.2079 -1.17134 1.05439 0
M  V30 913 C 88.1379 -2.2342 0.678649 0
M  V30 914 C 89.1189 -1.66971 -0.32476 0
M  V30 915 O 90.3039 -1.93149 -0.201802 0
M  V30 916 C 87.4339 -3.47256 0.0552099 0
M  V30 917 C 86.3879 -4.16543 0.98365 0
M  V30 918 C 85.7139 -5.34231 0.223961 0
M  V30 919 C 87.0139 -4.68495 2.3089 0
M  V30 920 H 88.7079 -2.55105 1.56722 0
M  V30 921 H 86.2539 -1.2262 0.754998 0
M  V30 922 H 88.2069 -4.20828 -0.21946 0
M  V30 923 H 86.9309 -3.14846 -0.868319 0
M  V30 924 H 85.5899 -3.44887 1.24293 0
M  V30 925 H 85.2379 -4.98071 -0.702412 0
M  V30 926 H 84.9379 -5.81527 0.842627 0
M  V30 927 H 86.4619 -6.10585 -0.0433671 0
M  V30 928 H 87.8759 -5.33691 2.09396 0
M  V30 929 H 86.2729 -5.26379 2.88176 0
M  V30 930 H 87.3429 -3.85169 2.94572 0
M  V30 931 N 88.686 -0.835752 -1.33615 0
M  V30 932 C 89.914 -0.443344 -2.02094 0
M  V30 933 C 90.329 0.954522 -1.62894 0
M  V30 934 O 89.686 1.61982 -0.840723 0
M  V30 935 C 89.737 -0.550775 -3.5728 0
M  V30 936 O 89.458 -1.89356 -3.95065 0
M  V30 937 C 90.959 -0.154919 -4.43029 0
M  V30 938 H 88.179 -0.176359 -0.647409 0
M  V30 939 H 90.723 -1.12746 -1.70612 0
M  V30 940 H 88.878 0.0853997 -3.87306 0
M  V30 941 H 89.292 -1.87687 -4.89769 0
M  V30 942 H 90.766 -0.281144 -5.51284 0
M  V30 943 H 91.243 0.902863 -4.2982 0
M  V30 944 H 91.849 -0.765404 -4.18356 0
M  V30 945 N 90.1641 1.46063 -0.591896 0
M  V30 946 C 91.4131 2.01547 -0.0786637 0
M  V30 947 C 91.7261 1.46796 1.29268 0
M  V30 948 O 92.9321 1.94157 1.89777 0
M  V30 949 C 91.3881 3.59787 -0.0900024 0
M  V30 950 C 90.9961 4.23534 -1.46023 0
M  V30 951 C 92.7401 4.22895 0.368806 0
M  V30 952 C 90.6471 5.73881 -1.4288 0
M  V30 953 H 89.5771 0.753564 -0.0256388 0
M  V30 954 H 92.2281 1.677 -0.744905 0
M  V30 955 H 90.6101 3.90752 0.642586 0
M  V30 956 H 91.7841 4.04167 -2.21328 0
M  V30 957 H 90.0991 3.72558 -1.85982 0
M  V30 958 H 92.6961 5.33116 0.411258 0
M  V30 959 H 93.0391 3.9247 1.38827 0
M  V30 960 H 93.5721 3.9659 -0.31001 0
M  V30 961 H 90.3111 6.0898 -2.42536 0
M  V30 962 H 89.8311 5.95486 -0.718095 0
M  V30 963 H 91.5101 6.36776 -1.14565 0
M  V30 964 N 91.6422 0.330177 1.54103 0
M  V30 965 C 92.5522 -0.541534 2.28264 0
M  V30 966 C 93.5682 -1.12351 1.32866 0
M  V30 967 O 94.7442 -1.14206 1.65888 0
M  V30 968 C 91.8092 -1.68322 3.03098 0
M  V30 969 C 90.8702 -1.13238 4.14096 0
M  V30 970 C 90.1032 -2.21966 4.85352 0
M  V30 971 O 90.3262 -3.42437 4.56172 0
M  V30 972 O 89.2602 -1.87013 5.7211 0
M  V30 973 H 93.0862 0.060938 3.03639 0
M  V30 974 H 90.6712 0.09565 1.49093 0
M  V30 975 H 92.5532 -2.34777 3.49939 0
M  V30 976 H 91.2282 -2.27176 2.30593 0
M  V30 977 H 90.1352 -0.432736 3.71589 0
M  V30 978 H 91.4682 -0.588898 4.88664 0
M  V30 979 N 93.1203 -1.57491 0.0584922 0
M  V30 980 C 94.0673 -2.11958 -0.913376 0
M  V30 981 C 95.0373 -1.02875 -1.30407 0
M  V30 982 O 96.2223 -1.30464 -1.39226 0
M  V30 983 C 93.3623 -2.67497 -2.18035 0
M  V30 984 C 92.4753 -3.90691 -1.84349 0
M  V30 985 C 91.6103 -4.3452 -3.05559 0
M  V30 986 C 90.6493 -5.50395 -2.67827 0
M  V30 987 N 89.7863 -5.89244 -3.81754 0
M  V30 988 H 94.6263 -2.94704 -0.442017 0
M  V30 989 H 92.1633 -1.45643 -0.206545 0
M  V30 990 H 94.1213 -2.978 -2.92183 0
M  V30 991 H 92.7513 -1.87537 -2.62735 0
M  V30 992 H 91.8033 -3.66934 -1.00319 0
M  V30 993 H 93.1153 -4.7489 -1.5258 0
M  V30 994 H 92.2693 -4.66414 -3.87998 0
M  V30 995 H 91.0083 -3.49147 -3.40511 0
M  V30 996 H 90.0133 -5.18165 -1.83806 0
M  V30 997 H 91.2383 -6.3749 -2.34059 0
M  V30 998 H 89.1843 -5.06823 -4.16493 0
M  V30 999 H 89.1013 -6.68151 -3.53708 0
M  V30 1000 H 90.3693 -6.25756 -4.64811 0
M  V30 1001 N 94.5984 0.214957 -1.56127 0
M  V30 1002 C 95.8444 0.939762 -1.79712 0
M  V30 1003 C 96.1774 1.83723 -0.629247 0
M  V30 1004 O 95.4524 1.90925 0.371197 0
M  V30 1005 C 95.7354 1.77306 -3.13424 0
M  V30 1006 C 95.5884 0.90164 -4.40671 0
M  V30 1007 C 96.9074 2.74956 -3.43638 0
M  V30 1008 H 94.0264 0.340214 -0.653776 0
M  V30 1009 H 96.6684 0.20824 -1.88855 0
M  V30 1010 H 94.8184 2.39673 -3.0576 0
M  V30 1011 H 96.4904 0.294206 -4.60361 0
M  V30 1012 H 94.7334 0.207368 -4.33304 0
M  V30 1013 H 95.4044 1.51923 -5.30682 0
M  V30 1014 H 97.8804 2.22724 -3.51473 0
M  V30 1015 H 96.7564 3.30358 -4.38355 0
M  V30 1016 H 97.0174 3.53023 -2.66134 0
M  V30 1017 N 96.0765 1.50051 0.48192 0
M  V30 1018 C 97.3225 1.60736 1.2366 0
M  V30 1019 C 97.6555 0.301786 1.91841 0
M  V30 1020 O 96.9305 -0.696025 1.8162 0
M  V30 1021 C 97.2135 2.78009 2.28874 0
M  V30 1022 C 97.0665 4.18416 1.65069 0
M  V30 1023 C 98.3855 2.90867 3.30279 0
M  V30 1024 H 95.5045 0.585031 0.448228 0
M  V30 1025 H 98.1465 1.82402 0.531946 0
M  V30 1026 H 96.2965 2.59667 2.88973 0
M  V30 1027 H 97.9685 4.48322 1.0865 0
M  V30 1028 H 96.2115 4.23177 0.954148 0
M  V30 1029 H 96.8825 4.96381 2.41474 0
M  V30 1030 H 99.3585 3.07623 2.80191 0
M  V30 1031 H 98.2345 3.74566 4.01238 0
M  V30 1032 H 98.4955 2.01021 3.93755 0
M  V30 1033 N 97.5546 -0.734337 1.39446 0
M  V30 1034 C 98.8036 -1.48937 1.36017 0
M  V30 1035 C 99.1166 -1.95557 -0.0409005 0
M  V30 1036 O 100.323 -2.70779 -0.19778 0
M  V30 1037 C 98.7786 -2.69125 2.38955 0
M  V30 1038 C 98.3866 -2.29452 3.8478 0
M  V30 1039 C 100.131 -3.46944 2.44603 0
M  V30 1040 C 98.0376 -3.46366 4.79358 0
M  V30 1041 H 96.9676 -0.559296 0.505672 0
M  V30 1042 H 99.6186 -0.800983 1.65095 0
M  V30 1043 H 98.0006 -3.40041 2.02948 0
M  V30 1044 H 99.1746 -1.66077 4.29831 0
M  V30 1045 H 97.4896 -1.64723 3.82433 0
M  V30 1046 H 100.087 -4.33907 3.12456 0
M  V30 1047 H 100.43 -3.89454 1.47076 0
M  V30 1048 H 100.963 -2.83056 2.79507 0
M  V30 1049 H 97.7016 -3.08905 5.78151 0
M  V30 1050 H 97.2216 -4.08719 4.38986 0
M  V30 1051 H 98.9006 -4.12691 4.98292 0
M  V30 1052 N 99.0327 -1.24633 -0.964593 0
M  V30 1053 C 99.9807 -1.03917 -2.08096 0
M  V30 1054 C 100.975 0.0268581 -1.69379 0
M  V30 1055 O 102.181 -0.127952 -1.79545 0
M  V30 1056 H 98.5557 -0.319044 -0.680966 0
M  V30 1057 H 100.527 -1.98581 -2.22729 0
M  V30 1058 C 99.2757 -0.663983 -3.41301 0
M  V30 1059 H 98.5987 -1.47605 -3.71555 0
M  V30 1060 H 100.039 -0.558663 -4.20303 0
M  V30 1061 C 98.4977 0.629169 -3.30973 0
M  V30 1062 O 99.0277 1.67404 -3.65156 0
M  V30 1063 N 97.2337 0.611057 -2.84103 0
M  V30 1064 H 96.7807 -0.239593 -2.56483 0
M  V30 1065 H 96.7387 1.47647 -2.77575 0
M  V30 1066 N 100.511 1.16574 -1.06058 0
M  V30 1067 C 101.759 1.86677 -0.77434 0
M  V30 1068 C 102.08 1.81959 0.701147 0
M  V30 1069 O 101.35 1.2515 1.50713 0
M  V30 1070 H 99.9298 0.691134 -0.283449 0
M  V30 1071 H 102.592 1.41378 -1.34158 0
M  V30 1072 H 101.688 2.92181 -1.09711 0
M  V30 1073 N 101.989 0.842826 1.3317 0
M  V30 1074 C 102.921 0.236245 2.27979 0
M  V30 1075 C 103.934 -0.585282 1.51915 0
M  V30 1076 O 105.123 -0.411705 1.73687 0
M  V30 1077 C 102.223 -0.685717 3.3189 0
M  V30 1078 C 101.396 0.0973448 4.37292 0
M  V30 1079 C 100.455 -0.748565 5.20848 0
M  V30 1080 O 99.4809 -0.186339 5.68895 0
M  V30 1081 N 100.683 -2.06527 5.42519 0
M  V30 1082 H 103.448 1.05088 2.80672 0
M  V30 1083 H 101.009 0.701667 1.45905 0
M  V30 1084 H 103.001 -1.25669 3.84694 0
M  V30 1085 H 101.571 -1.40105 2.79445 0
M  V30 1086 H 100.791 0.849706 3.84933 0
M  V30 1087 H 102.079 0.635643 5.04814 0
M  V30 1088 H 101.477 -2.54554 5.05192 0
M  V30 1089 H 100.034 -2.58464 5.98364 0
M  V30 1090 N 103.467 -1.45747 0.599634 0
M  V30 1091 C 104.377 -2.34262 -0.125888 0
M  V30 1092 C 105.393 -1.50768 -0.868625 0
M  V30 1093 O 106.569 -1.83592 -0.828003 0
M  V30 1094 C 103.634 -3.28252 -1.11587 0
M  V30 1095 C 102.695 -4.27651 -0.375956 0
M  V30 1096 C 101.928 -5.1715 -1.31877 0
M  V30 1097 O 102.151 -5.09916 -2.55621 0
M  V30 1098 O 101.085 -5.96286 -0.820157 0
M  V30 1099 H 104.911 -2.97688 0.601315 0
M  V30 1100 H 102.496 -1.44999 0.359934 0
M  V30 1101 H 104.378 -3.86191 -1.68626 0
M  V30 1102 H 103.053 -2.67401 -1.82424 0
M  V30 1103 H 101.96 -3.7335 0.236698 0
M  V30 1104 H 103.293 -4.91334 0.29177 0
M  V30 1105 N 104.945 -0.338344 -1.53925 0
M  V30 1106 C 106.191 0.260143 -2.01125 0
M  V30 1107 C 106.524 1.50617 -1.22589 0
M  V30 1108 O 105.799 1.91979 -0.312113 0
M  V30 1109 C 106.082 0.579499 -3.55407 0
M  V30 1110 C 105.935 -0.678264 -4.44657 0
M  V30 1111 C 107.254 1.39122 -4.17532 0
M  V30 1112 H 104.373 0.0930772 -0.731099 0
M  V30 1113 H 107.015 -0.457852 -1.84401 0
M  V30 1114 H 105.165 1.19118 -3.69788 0
M  V30 1115 H 106.837 -1.31631 -4.42121 0
M  V30 1116 H 105.08 -1.3042 -4.13731 0
M  V30 1117 H 105.751 -0.410143 -5.50474 0
M  V30 1118 H 108.227 0.874035 -4.06817 0
M  V30 1119 H 107.103 1.58342 -5.25565 0
M  V30 1120 H 107.364 2.39178 -3.71815 0
M  V30 1121 N 106.423 1.57458 -0.0668435 0
M  V30 1122 C 107.37 2.12439 0.902122 0
M  V30 1123 C 108.34 1.03565 1.2986 0
M  V30 1124 O 109.525 1.312 1.38532 0
M  V30 1125 C 106.665 2.6865 2.16614 0
M  V30 1126 C 105.778 3.91663 1.82274 0
M  V30 1127 C 104.913 4.36134 3.0325 0
M  V30 1128 C 103.952 5.51808 2.64904 0
M  V30 1129 N 103.089 5.9126 3.78624 0
M  V30 1130 H 107.929 2.94934 0.426382 0
M  V30 1131 H 105.466 1.4575 0.198819 0
M  V30 1132 H 107.424 2.99346 2.90599 0
M  V30 1133 H 106.054 1.88928 2.61737 0
M  V30 1134 H 105.106 3.6746 0.983719 0
M  V30 1135 H 106.418 4.75693 1.50059 0
M  V30 1136 H 105.572 4.68465 3.85519 0
M  V30 1137 H 104.311 3.50948 3.38655 0
M  V30 1138 H 103.316 5.19133 1.81055 0
M  V30 1139 H 104.541 6.38722 2.30675 0
M  V30 1140 H 102.487 5.09024 4.138 0
M  V30 1141 H 102.404 6.70018 3.5016 0
M  V30 1142 H 103.672 6.28212 4.61486 0
M  V30 1143 N 107.901 -0.206675 1.56239 0
M  V30 1144 C 109.131 -0.943975 1.83773 0
M  V30 1145 C 109.539 -1.77841 0.645703 0
M  V30 1146 O 108.882 -1.79403 -0.395008 0
M  V30 1147 C 108.944 -1.899 3.05251 0
M  V30 1148 C 108.608 -1.24764 4.39639 0
M  V30 1149 C 109.605 -0.630216 5.16066 0
M  V30 1150 C 107.29 -1.25496 4.8637 0
M  V30 1151 C 109.284 -0.0287946 6.37393 0
M  V30 1152 C 106.971 -0.649698 6.07637 0
M  V30 1153 C 107.969 -0.0376845 6.8299 0
M  V30 1154 O 107.657 0.55812 8.0196 0
M  V30 1155 H 107.389 -0.281508 0.614597 0
M  V30 1156 H 109.943 -0.222458 2.04192 0
M  V30 1157 H 108.173 -2.6599 2.80689 0
M  V30 1158 H 109.862 -2.5031 3.1953 0
M  V30 1159 H 110.628 -0.616785 4.81062 0
M  V30 1160 H 106.507 -1.72072 4.27683 0
M  V30 1161 H 110.051 0.449518 6.9615 0
M  V30 1162 H 105.948 -0.660592 6.42111 0
M  V30 1163 H 106.716 0.453891 8.17241 0
M  V30 1164 N 109.379 -1.50304 -0.473955 0
M  V30 1165 C 110.342 -1.6841 -1.55469 0
M  V30 1166 C 111.342 -0.554905 -1.50922 0
M  V30 1167 O 112.532 -0.821882 -1.53593 0
M  V30 1168 C 109.664 -1.70667 -2.95102 0
M  V30 1169 H 110.857 -2.64828 -1.40733 0
M  V30 1170 H 108.41 -1.39742 -0.700132 0
M  V30 1171 H 109.145 -0.75932 -3.15285 0
M  V30 1172 H 108.93 -2.52698 -2.9981 0
M  V30 1173 H 110.42 -1.8664 -3.73571 0
M  V30 1174 N 110.857 0.726932 -1.39834 0
M  V30 1175 C 111.787 1.85405 -1.41941 0
M  V30 1176 C 112.768 1.67751 -0.281728 0
M  V30 1177 O 113.953 1.8795 -0.488717 0
M  V30 1178 C 111.083 3.23243 -1.2701 0
M  V30 1179 C 110.037 3.55549 -2.38262 0
M  V30 1180 C 109.363 4.9241 -2.08415 0
M  V30 1181 C 110.663 3.577 -3.80589 0
M  V30 1182 H 112.357 1.83899 -2.36266 0
M  V30 1183 H 109.903 0.883349 -1.13723 0
M  V30 1184 H 111.856 4.01775 -1.27103 0
M  V30 1185 H 110.58 3.25296 -0.291564 0
M  V30 1186 H 109.239 2.79351 -2.37399 0
M  V30 1187 H 108.887 4.91052 -1.0898 0
M  V30 1188 H 108.587 5.14992 -2.82943 0
M  V30 1189 H 110.111 5.73289 -2.10171 0
M  V30 1190 H 111.525 4.26293 -3.83337 0
M  V30 1191 H 109.922 3.91804 -4.54543 0
M  V30 1192 H 110.992 2.57328 -4.10987 0
M  V30 1193 N 112.336 1.25143 0.95797 0
M  V30 1194 C 113.584 1.09476 1.69881 0
M  V30 1195 C 113.905 -0.365502 1.91544 0
M  V30 1196 O 113.175 -1.25985 1.50015 0
M  V30 1197 H 111.755 0.402128 0.629525 0
M  V30 1198 H 114.417 1.57214 1.15194 0
M  V30 1199 H 113.513 1.60046 2.6794 0
M  V30 1200 N 113.814 -1.1601 1.06675 0
M  V30 1201 C 114.724 -2.24156 0.692179 0
M  V30 1202 C 115.74 -1.71507 -0.293513 0
M  V30 1203 O 116.916 -2.009 -0.141861 0
M  V30 1204 C 113.981 -3.46587 0.0884131 0
M  V30 1205 C 113.042 -4.14257 1.12646 0
M  V30 1206 C 112.275 -5.30844 0.551416 0
M  V30 1207 O 112.498 -5.66858 -0.634656 0
M  V30 1208 O 111.432 -5.87848 1.29298 0
M  V30 1209 H 115.258 -2.58513 1.59388 0
M  V30 1210 H 112.843 -1.23599 0.83926 0
M  V30 1211 H 114.725 -4.20679 -0.246361 0
M  V30 1212 H 113.4 -3.13994 -0.786712 0
M  V30 1213 H 112.307 -3.42118 1.51348 0
M  V30 1214 H 113.64 -4.50914 1.97325 0
M  V30 1215 N 115.292 -0.849877 -1.32721 0
M  V30 1216 C 116.708 -0.539102 -1.50219 0
M  V30 1217 C 116.908 0.931271 -1.78689 0
M  V30 1218 O 115.964 1.71455 -1.85363 0
M  V30 1219 C 117.277 -1.42196 -2.64954 0
M  V30 1220 C 118.825 -1.42189 -2.78839 0
M  V30 1221 C 119.3 -2.28985 -3.96648 0
M  V30 1222 N 120.791 -2.26754 -4.03902 0
M  V30 1223 C 121.526 -2.90644 -4.94281 0
M  V30 1224 N 121.022 -3.63629 -5.897 0
M  V30 1225 N 122.815 -2.80057 -4.87365 0
M  V30 1226 H 114.966 -1.80156 -1.12506 0
M  V30 1227 H 117.229 -0.769217 -0.554085 0
M  V30 1228 H 116.935 -2.46733 -2.50631 0
M  V30 1229 H 116.809 -1.10591 -3.60624 0
M  V30 1230 H 119.196 -0.38419 -2.92588 0
M  V30 1231 H 119.277 -1.77807 -1.83898 0
M  V30 1232 H 118.921 -3.32819 -3.83658 0
M  V30 1233 H 118.851 -1.90702 -4.90857 0
M  V30 1234 H 121.342 -1.73688 -3.3562 0
M  V30 1235 H 121.655 -4.09558 -6.55349 0
M  V30 1236 H 120 -3.67737 -5.89741 0
M  V30 1237 H 123.191 -2.22593 -4.11789 0
M  V30 1238 H 123.364 -3.30132 -5.57599 0
M  V30 1239 N 116.77 1.45427 -0.607355 0
M  V30 1240 C 117.702 2.2871 0.149752 0
M  V30 1241 C 118.715 1.39937 0.831958 0
M  V30 1242 O 119.904 1.64313 0.697385 0
M  V30 1243 C 117.004 3.15673 1.23304 0
M  V30 1244 C 116.177 4.32722 0.637996 0
M  V30 1245 C 115.236 5.00895 1.61215 0
M  V30 1246 O 114.262 5.57697 1.13854 0
M  V30 1247 N 115.464 5.00159 2.94655 0
M  V30 1248 H 118.229 2.94328 -0.564882 0
M  V30 1249 H 115.79 1.55612 -0.446823 0
M  V30 1250 H 117.782 3.58144 1.88454 0
M  V30 1251 H 116.352 2.51965 1.8502 0
M  V30 1252 H 115.572 3.93734 -0.191572 0
M  V30 1253 H 116.86 5.08321 0.220665 0
M  V30 1254 H 116.258 4.553 3.35735 0
M  V30 1255 H 114.815 5.46495 3.55228 0
M  V30 1256 N 118.248 0.346503 1.53744 0
M  V30 1257 C 119.473 -0.253074 2.0585 0
M  V30 1258 C 119.898 -1.43202 1.21962 0
M  V30 1259 O 119.256 -1.79783 0.234073 0
M  V30 1260 C 119.304 -0.643193 3.54817 0
M  V30 1261 O 118.408 -1.74286 3.73762 0
M  V30 1262 H 117.749 -0.0413583 0.662711 0
M  V30 1263 H 120.279 0.501574 1.98357 0
M  V30 1264 H 120.289 -0.919526 3.97503 0
M  V30 1265 H 118.964 0.218966 4.15323 0
M  V30 1266 H 117.541 -1.46356 3.42979 0
M  V30 1267 N 119.726 -1.57421 0.075193 0
M  V30 1268 C 120.956 -1.97659 -0.601203 0
M  V30 1269 C 121.364 -0.952427 -1.63479 0
M  V30 1270 O 120.707 0.0688241 -1.83571 0
M  V30 1271 C 120.769 -3.34218 -1.32434 0
M  V30 1272 C 120.433 -4.5484 -0.443826 0
M  V30 1273 C 121.43 -5.19034 0.299969 0
M  V30 1274 C 119.115 -5.00952 -0.367709 0
M  V30 1275 C 121.109 -6.27695 1.10807 0
M  V30 1276 C 118.796 -6.09484 0.444058 0
M  V30 1277 C 119.794 -6.72719 1.18061 0
M  V30 1278 O 119.482 -7.79161 1.97898 0
M  V30 1279 H 119.214 -0.65494 -0.167422 0
M  V30 1280 H 121.768 -2.04886 0.145157 0
M  V30 1281 H 119.998 -3.23615 -2.11685 0
M  V30 1282 H 121.687 -3.59038 -1.89331 0
M  V30 1283 H 122.453 -4.84351 0.250776 0
M  V30 1284 H 118.332 -4.51509 -0.930638 0
M  V30 1285 H 121.876 -6.76982 1.68347 0
M  V30 1286 H 117.773 -6.43601 0.494803 0
M  V30 1287 H 118.541 -7.96055 1.90367 0
M  V30 1288 N 121.204 0.198386 -1.56346 0
M  V30 1289 C 122.151 1.24589 -1.94284 0
M  V30 1290 C 123.121 1.454 -0.802997 0
M  V30 1291 O 124.306 1.58588 -1.06087 0
M  V30 1292 C 121.446 2.58631 -2.28482 0
M  V30 1293 C 120.559 2.45426 -3.55514 0
M  V30 1294 C 119.694 3.7215 -3.79049 0
M  V30 1295 C 118.733 3.53763 -4.99518 0
M  V30 1296 N 117.87 4.72491 -5.19323 0
M  V30 1297 H 122.71 0.915356 -2.83593 0
M  V30 1298 H 120.247 0.440629 -1.40346 0
M  V30 1299 H 122.205 3.3672 -2.46324 0
M  V30 1300 H 120.835 2.89734 -1.42317 0
M  V30 1301 H 119.887 1.58652 -3.45737 0
M  V30 1302 H 121.199 2.27772 -4.43758 0
M  V30 1303 H 120.353 4.58679 -3.97113 0
M  V30 1304 H 119.092 3.92754 -2.89129 0
M  V30 1305 H 118.097 2.65619 -4.8138 0
M  V30 1306 H 119.322 3.34607 -5.90944 0
M  V30 1307 H 117.268 4.93365 -4.3235 0
M  V30 1308 H 117.185 4.5765 -6.01741 0
M  V30 1309 H 118.453 5.6038 -5.41843 0
M  V30 1310 N 122.682 1.50554 0.465978 0
M  V30 1311 C 123.93 1.61479 1.21528 0
M  V30 1312 C 124.251 0.319596 1.92363 0
M  V30 1313 O 123.521 -0.663194 1.84333 0
M  V30 1314 H 122.101 0.595055 0.451573 0
M  V30 1315 H 124.763 1.87355 0.53704 0
M  V30 1316 H 123.859 2.42846 1.96042 0
M  V30 1317 N 124.16 -0.719506 1.40217 0
M  V30 1318 C 125.385 -1.51371 1.4178 0
M  V30 1319 C 125.81 -1.88091 0.0182355 0
M  V30 1320 O 125.168 -1.52997 -0.972707 0
M  V30 1321 C 125.216 -2.768 2.31115 0
M  V30 1322 O 124.32 -3.73349 1.7517 0
M  V30 1323 H 123.661 -0.456529 0.482159 0
M  V30 1324 H 126.191 -0.88644 1.844 0
M  V30 1325 H 126.201 -3.25371 2.46167 0
M  V30 1326 H 124.876 -2.49407 3.3282 0
M  V30 1327 H 123.453 -3.32179 1.69444 0
M  V30 1328 N 125.638 -1.25649 -0.95132 0
M  V30 1329 C 127.049 -1.09654 -1.51106 0
M  V30 1330 C 127.4 0.326615 -1.93462 0
M  V30 1331 O 126.525 1.21697 -1.78938 0
M  V30 1332 C 127.12 -1.98437 -2.74605 0
M  V30 1333 C 125.679 -1.86618 -3.2688 0
M  V30 1334 C 124.826 -1.9239 -1.99703 0
M  V30 1335 H 127.777 -1.38887 -0.767865 0
M  V30 1336 H 127.798 -1.5263 -3.48546 0
M  V30 1337 H 127.31 -3.02009 -2.43746 0
M  V30 1338 H 125.411 -0.859421 -3.62553 0
M  V30 1339 H 125.524 -2.71607 -3.94673 0
M  V30 1340 H 123.888 -1.36317 -2.15151 0
M  V30 1341 H 124.671 -2.97573 -1.71188 0
M  V30 1342 N 127.117 1.15442 -1.07289 0
M  V30 1343 C 128.05 2.19135 -0.636798 0
M  V30 1344 C 129.028 1.58884 0.34562 0
M  V30 1345 O 130.212 1.86805 0.252195 0
M  V30 1346 C 127.339 3.38638 0.0650014 0
M  V30 1347 C 126.385 4.17412 -0.87576 0
M  V30 1348 S 127.218 4.79882 -2.37642 0
M  V30 1349 C 128.374 6.02753 -1.6864 0
M  V30 1350 H 128.607 2.55787 -1.51526 0
M  V30 1351 H 126.14 1.26394 -0.886793 0
M  V30 1352 H 128.098 4.07873 0.463664 0
M  V30 1353 H 126.759 3.00331 0.919801 0
M  V30 1354 H 125.952 5.02909 -0.33143 0
M  V30 1355 H 125.554 3.53722 -1.21478 0
M  V30 1356 H 127.846 6.70113 -0.997753 0
M  V30 1357 H 128.789 6.61754 -2.51967 0
M  V30 1358 H 129.197 5.52355 -1.16465 0
M  V30 1359 N 128.595 0.856903 1.32268 0
M  V30 1360 C 129.505 0.306131 2.32594 0
M  V30 1361 C 130.521 -0.577209 1.64147 0
M  V30 1362 O 131.697 -0.477043 1.95669 0
M  V30 1363 C 128.762 -0.494561 3.43154 0
M  V30 1364 C 127.823 0.415186 4.27288 0
M  V30 1365 C 127.056 -0.347387 5.32568 0
M  V30 1366 O 127.279 -1.57708 5.48165 0
M  V30 1367 O 126.213 0.287982 6.01211 0
M  V30 1368 H 130.039 1.13737 2.81598 0
M  V30 1369 H 127.624 0.619902 1.35932 0
M  V30 1370 H 129.506 -0.948944 4.10576 0
M  V30 1371 H 128.181 -1.30257 2.96336 0
M  V30 1372 H 127.088 0.917793 3.62667 0
M  V30 1373 H 128.421 1.18844 4.77637 0
M  V30 1374 N 130.073 -1.45103 0.615059 0
M  V30 1375 C 131.322 -2.01396 0.110718 0
M  V30 1376 C 131.635 -1.48834 -1.26916 0
M  V30 1377 O 132.841 -1.97152 -1.86664 0
M  V30 1378 C 131.297 -3.59599 0.14723 0
M  V30 1379 C 130.905 -4.21158 1.52743 0
M  V30 1380 C 132.649 -4.23428 -0.30148 0
M  V30 1381 C 130.556 -5.71535 1.51992 0
M  V30 1382 H 129.486 -0.753061 0.0376241 0
M  V30 1383 H 132.137 -1.66494 0.77149 0
M  V30 1384 H 130.519 -3.91724 -0.580339 0
M  V30 1385 H 131.693 -4.00594 2.2773 0
M  V30 1386 H 130.008 -3.69552 1.91886 0
M  V30 1387 H 132.605 -5.33703 -0.326392 0
M  V30 1388 H 132.948 -3.94629 -1.32565 0
M  V30 1389 H 133.481 -3.96047 0.373065 0
M  V30 1390 H 130.22 -6.05044 2.52193 0
M  V30 1391 H 129.74 -5.94268 0.81274 0
M  V30 1392 H 131.419 -6.34873 1.24681 0
M  V30 1393 N 131.551 -0.354651 -1.53558 0
M  V30 1394 C 132.776 0.242153 -2.05981 0
M  V30 1395 C 133.201 1.42553 -1.2272 0
M  V30 1396 O 132.559 1.79656 -0.243604 0
M  V30 1397 C 132.607 0.624367 -3.55154 0
M  V30 1398 O 131.711 1.72301 -3.74681 0
M  V30 1399 H 131.052 0.0378432 -0.662921 0
M  V30 1400 H 133.582 -0.512087 -1.98088 0
M  V30 1401 H 133.592 0.898433 -3.97985 0
M  V30 1402 H 132.267 -0.240989 -4.15201 0
M  V30 1403 H 130.844 1.44535 -3.4375 0
M  V30 1404 N 133.029 1.57378 -0.0835403 0
M  V30 1405 C 133.959 2.1641 0.87686 0
M  V30 1406 C 134.94 1.09429 1.30228 0
M  V30 1407 O 136.125 1.37516 1.37124 0
M  V30 1408 C 133.255 2.73517 2.14022 0
M  V30 1409 C 132.209 3.85769 1.85381 0
M  V30 1410 C 131.535 4.29529 3.18448 0
M  V30 1411 C 132.835 5.09486 1.14984 0
M  V30 1412 H 134.529 2.96914 0.385059 0
M  V30 1413 H 132.075 1.42823 0.18377 0
M  V30 1414 H 134.028 3.13463 2.81636 0
M  V30 1415 H 132.752 1.90252 2.65465 0
M  V30 1416 H 131.411 3.46345 1.20169 0
M  V30 1417 H 131.059 3.43169 3.67755 0
M  V30 1418 H 130.759 5.05204 3.00071 0
M  V30 1419 H 132.283 4.72099 3.8724 0
M  V30 1420 H 133.697 5.46674 1.72687 0
M  V30 1421 H 132.094 5.90515 1.06826 0
M  V30 1422 H 133.164 4.84724 0.130749 0
M  V30 1423 N 134.507 -0.190092 1.56449 0
M  V30 1424 C 135.918 -0.754312 1.70784 0
M  V30 1425 C 136.269 -1.83631 0.690951 0
M  V30 1426 O 135.394 -2.15868 -0.151604 0
M  V30 1427 C 135.989 -1.37503 3.09642 0
M  V30 1428 C 134.548 -1.88628 3.25725 0
M  V30 1429 C 133.695 -0.758098 2.66736 0
M  V30 1430 H 136.646 0.0350524 1.58661 0
M  V30 1431 H 136.667 -2.2445 3.0725 0
M  V30 1432 H 136.179 -0.587302 3.83631 0
M  V30 1433 H 134.28 -2.70103 2.56661 0
M  V30 1434 H 134.393 -2.04462 4.3328 0
M  V30 1435 H 132.757 -1.17369 2.26046 0
M  V30 1436 H 133.54 0.0174705 3.43296 0
M  V30 1437 N 135.985 -1.50799 -0.457987 0
M  V30 1438 C 137.234 -1.6168 -1.20593 0
M  V30 1439 C 137.547 -0.32888 -1.92815 0
M  V30 1440 O 138.753 -0.316773 -2.69646 0
M  V30 1441 C 137.209 -2.8545 -2.19195 0
M  V30 1442 C 136.817 -4.21168 -1.52715 0
M  V30 1443 C 138.561 -3.05681 -2.94549 0
M  V30 1444 C 136.468 -5.3611 -2.4968 0
M  V30 1445 H 135.398 -0.602134 -0.453818 0
M  V30 1446 H 138.049 -1.77245 -0.475031 0
M  V30 1447 H 136.431 -2.63472 -2.95632 0
M  V30 1448 H 137.605 -4.53449 -0.819775 0
M  V30 1449 H 135.92 -4.06648 -0.895922 0
M  V30 1450 H 138.517 -3.88727 -3.67145 0
M  V30 1451 H 138.86 -2.17929 -3.54701 0
M  V30 1452 H 139.393 -3.27901 -2.25223 0
M  V30 1453 H 136.132 -6.26057 -1.94249 0
M  V30 1454 H 135.652 -5.0823 -3.18532 0
M  V30 1455 H 137.331 -5.6722 -3.11241 0
M  V30 1456 N 137.463 0.71206 -1.40597 0
M  V30 1457 C 138.426 1.80785 -1.40888 0
M  V30 1458 C 139.426 1.57937 -0.302103 0
M  V30 1459 O 140.616 1.64913 -0.561182 0
M  V30 1460 C 137.748 3.18927 -1.20409 0
M  V30 1461 H 138.941 1.81924 -2.38419 0
M  V30 1462 H 136.494 0.91805 -1.26497 0
M  V30 1463 H 137.229 3.23436 -0.236522 0
M  V30 1464 H 137.014 3.36911 -2.00582 0
M  V30 1465 H 138.504 3.98949 -1.23408 0
M  V30 1466 N 138.941 1.26152 0.944643 0
M  V30 1467 C 139.871 1.09902 2.06019 0
M  V30 1468 C 140.852 0.00519538 1.70099 0
M  V30 1469 O 142.037 0.176583 1.93396 0
M  V30 1470 C 139.167 0.727562 3.39594 0
M  V30 1471 C 138.121 1.77274 3.89561 0
M  V30 1472 C 137.447 1.25569 5.19747 0
M  V30 1473 C 138.747 3.17357 4.14827 0
M  V30 1474 H 140.441 2.03217 2.19871 0
M  V30 1475 H 137.987 0.978452 1.05652 0
M  V30 1476 H 139.94 0.600777 4.17095 0
M  V30 1477 H 138.664 -0.241287 3.25707 0
M  V30 1478 H 137.323 1.88814 3.14237 0
M  V30 1479 H 136.971 0.276783 5.02238 0
M  V30 1480 H 136.671 1.95433 5.54148 0
M  V30 1481 H 138.195 1.1415 5.99835 0
M  V30 1482 H 139.609 3.08914 4.82954 0
M  V30 1483 H 138.006 3.84781 4.60504 0
M  V30 1484 H 139.076 3.63673 3.20734 0
M  V30 1485 N 140.419 -1.14872 1.07899 0
M  V30 1486 C 141.644 -1.90202 0.826926 0
M  V30 1487 C 142.069 -1.77774 -0.614664 0
M  V30 1488 O 141.427 -1.11431 -1.43013 0
M  V30 1489 C 141.475 -3.38352 1.24702 0
M  V30 1490 O 140.579 -4.10497 0.39575 0
M  V30 1491 H 139.92 -0.591968 0.300782 0
M  V30 1492 H 142.45 -1.45437 1.43907 0
M  V30 1493 H 142.46 -3.89156 1.22563 0
M  V30 1494 H 141.135 -3.46715 2.29698 0
M  V30 1495 H 139.712 -3.69796 0.480117 0
M  V30 1496 N 141.898 -0.863906 -1.31812 0
M  V30 1497 C 142.845 -0.313303 -2.28664 0
M  V30 1498 C 143.815 0.584868 -1.55462 0
M  V30 1499 O 145 0.517805 -1.83639 0
M  V30 1500 C 142.14 0.48441 -3.41683 0
M  V30 1501 C 141.253 -0.440594 -4.29747 0
M  V30 1502 C 140.388 0.370652 -5.29905 0
M  V30 1503 C 139.427 -0.551164 -6.09613 0
M  V30 1504 N 138.564 0.223462 -7.01744 0
M  V30 1505 H 143.404 -1.14444 -2.75148 0
M  V30 1506 H 140.941 -0.575769 -1.35364 0
M  V30 1507 H 142.899 0.962627 -4.05943 0
M  V30 1508 H 141.529 1.28029 -2.96325 0
M  V30 1509 H 140.581 -1.03724 -3.65986 0
M  V30 1510 H 141.893 -1.14767 -4.85417 0
M  V30 1511 H 141.047 0.911638 -5.99812 0
M  V30 1512 H 139.786 1.11105 -4.74876 0
M  V30 1513 H 138.791 -1.10396 -5.38603 0
M  V30 1514 H 140.016 -1.29032 -6.66729 0
M  V30 1515 H 137.962 0.946787 -6.49132 0
M  V30 1516 H 137.879 -0.424399 -7.54808 0
M  V30 1517 H 139.147 0.745876 -7.75923 0
M  V30 1518 N 143.376 1.44774 -0.622745 0
M  V30 1519 C 144.324 2.32387 0.0994683 0
M  V30 1520 C 145.318 1.46859 0.844326 0
M  V30 1521 O 146.524 1.63254 0.758174 0
M  V30 1522 H 142.899 0.750273 0.0509291 0
M  V30 1523 H 144.87 2.91062 -0.65767 0
M  V30 1524 C 143.619 3.30723 1.07319 0
M  V30 1525 H 142.942 3.96541 0.509462 0
M  V30 1526 H 144.382 3.94725 1.54817 0
M  V30 1527 C 142.841 2.59021 2.15429 0
M  V30 1528 O 143.371 2.38286 3.23393 0
M  V30 1529 N 141.577 2.189 1.91131 0
M  V30 1530 H 141.124 2.35964 1.03337 0
M  V30 1531 H 141.082 1.71251 2.63668 0
M  V30 1532 N 144.854 0.36279 1.53368 0
M  V30 1533 C 145.786 -0.519668 2.23231 0
M  V30 1534 C 146.799 -1.04844 1.24546 0
M  V30 1535 O 147.988 -0.955296 1.50786 0
M  V30 1536 C 145.088 -1.72995 2.9142 0
M  V30 1537 C 144.261 -1.33316 4.16588 0
M  V30 1538 C 143.32 -2.40521 4.68013 0
M  V30 1539 O 142.346 -2.03027 5.3176 0
M  V30 1540 N 143.548 -3.72065 4.45587 0
M  V30 1541 H 146.313 0.078751 2.99597 0
M  V30 1542 H 143.874 0.187833 1.60807 0
M  V30 1543 H 145.866 -2.44184 3.22733 0
M  V30 1544 H 144.436 -2.2353 2.18525 0
M  V30 1545 H 143.656 -0.451236 3.91609 0
M  V30 1546 H 144.944 -1.04432 4.97967 0
M  V30 1547 H 144.342 -4.05304 3.94646 0
M  V30 1548 H 142.899 -4.39366 4.81457 0
M  V30 1549 N 146.332 -1.57332 0.0918853 0
M  V30 1550 C 147.242 -2.17368 -0.882505 0
M  V30 1551 C 148.258 -1.14226 -1.31257 0
M  V30 1552 O 149.434 -1.46582 -1.38115 0
M  V30 1553 C 146.499 -2.73962 -2.12476 0
M  V30 1554 C 145.56 -3.92048 -1.7492 0
M  V30 1555 C 144.793 -4.45933 -2.93223 0
M  V30 1556 O 145.016 -3.98764 -4.07852 0
M  V30 1557 O 143.95 -5.36999 -2.71875 0
M  V30 1558 H 147.776 -3.01031 -0.40172 0
M  V30 1559 H 145.361 -1.48813 -0.132291 0
M  V30 1560 H 147.243 -3.10147 -2.85283 0
M  V30 1561 H 145.918 -1.93347 -2.59613 0
M  V30 1562 H 144.825 -3.6068 -0.993025 0
M  V30 1563 H 146.158 -4.74017 -1.32548 0
M  V30 1564 N 147.81 0.181792 -1.56548 0
M  V30 1565 C 149.059 0.898348 -1.8059 0
M  V30 1566 C 149.372 1.83862 -0.667379 0
M  V30 1567 O 150.578 2.59678 -0.792446 0
M  V30 1568 C 149.034 1.64791 -3.19956 0
M  V30 1569 C 148.642 0.751789 -4.41647 0
M  V30 1570 C 150.386 2.35331 -3.53298 0
M  V30 1571 C 148.293 1.50098 -5.72035 0
M  V30 1572 H 147.223 0.339194 -0.673397 0
M  V30 1573 H 149.874 0.151413 -1.82874 0
M  V30 1574 H 148.256 2.43921 -3.11959 0
M  V30 1575 H 149.43 -0.0018076 -4.608 0
M  V30 1576 H 147.745 0.156562 -4.16106 0
M  V30 1577 H 150.342 2.91958 -4.47956 0
M  V30 1578 H 150.685 3.10164 -2.77676 0
M  V30 1579 H 151.218 1.63154 -3.62803 0
M  V30 1580 H 147.957 0.795175 -6.50659 0
M  V30 1581 H 147.477 2.22817 -5.56878 0
M  V30 1582 H 149.156 2.05125 -6.13622 0
M  V30 1583 N 149.288 1.51039 0.449983 0
M  V30 1584 C 150.534 1.63322 1.20223 0
M  V30 1585 C 150.867 0.34241 1.91158 0
M  V30 1586 O 150.142 -0.657344 1.83055 0
M  V30 1587 C 150.425 2.82801 2.22925 0
M  V30 1588 C 150.278 4.21823 1.56157 0
M  V30 1589 C 151.597 2.97807 3.24035 0
M  V30 1590 H 148.716 0.594407 0.435718 0
M  V30 1591 H 151.358 1.83489 0.493136 0
M  V30 1592 H 149.508 2.65738 2.834 0
M  V30 1593 H 151.18 4.50526 0.991162 0
M  V30 1594 H 149.423 4.25105 0.864172 0
M  V30 1595 H 150.094 5.01391 2.30891 0
M  V30 1596 H 152.57 3.13497 2.73603 0
M  V30 1597 H 151.446 3.82992 3.93202 0
M  V30 1598 H 151.707 2.09328 3.89402 0
M  V30 1599 N 150.766 -0.704594 1.40972 0
M  V30 1600 C 152.015 -1.46018 1.39146 0
M  V30 1601 C 152.328 -1.956 0.000589254 0
M  V30 1602 O 153.534 -2.71137 -0.1403 0
M  V30 1603 C 151.99 -2.63996 2.4461 0
M  V30 1604 C 151.598 -2.21238 3.89561 0
M  V30 1605 C 153.342 -3.41677 2.51907 0
M  V30 1606 C 151.249 -3.3612 4.86598 0
M  V30 1607 H 150.179 -0.548444 0.517422 0
M  V30 1608 H 152.83 -0.765784 1.66757 0
M  V30 1609 H 151.212 -3.3566 2.10115 0
M  V30 1610 H 152.386 -1.56923 4.33257 0
M  V30 1611 H 150.701 -1.56574 3.85841 0
M  V30 1612 H 153.298 -4.27182 3.2159 0
M  V30 1613 H 153.641 -3.86247 1.55303 0
M  V30 1614 H 154.174 -2.77064 2.85448 0
M  V30 1615 H 150.913 -2.96572 5.84573 0
M  V30 1616 H 150.433 -3.99315 4.47557 0
M  V30 1617 H 152.112 -4.02029 5.06934 0
M  V30 1618 N 152.244 -1.26651 -0.937939 0
M  V30 1619 C 153.154 -1.10276 -2.07066 0
M  V30 1620 C 154.17 -0.0354197 -1.73964 0
M  V30 1621 O 155.346 -0.239816 -1.99967 0
M  V30 1622 C 152.411 -0.740887 -3.38691 0
M  V30 1623 C 151.472 -1.88799 -3.85556 0
M  V30 1624 C 150.705 -1.54329 -5.10899 0
M  V30 1625 O 150.928 -0.446494 -5.6865 0
M  V30 1626 O 149.862 -2.37911 -5.52885 0
M  V30 1627 H 153.688 -2.05309 -2.23789 0
M  V30 1628 H 151.273 -1.05743 -1.0554 0
M  V30 1629 H 153.155 -0.55195 -4.1777 0
M  V30 1630 H 151.83 0.180022 -3.23199 0
M  V30 1631 H 150.737 -2.13191 -3.07409 0
M  V30 1632 H 152.07 -2.78874 -4.05574 0
M  V30 1633 N 153.722 1.14298 -1.08507 0
M  V30 1634 C 154.971 1.84708 -0.810305 0
M  V30 1635 C 155.284 1.83903 0.666271 0
M  V30 1636 O 156.49 2.50112 1.05624 0
M  V30 1637 C 154.946 3.31572 -1.39957 0
M  V30 1638 C 154.554 3.40791 -2.90801 0
M  V30 1639 C 156.298 4.07087 -1.20334 0
M  V30 1640 C 154.205 4.81872 -3.4286 0
M  V30 1641 H 153.135 0.691985 -0.299454 0
M  V30 1642 H 155.786 1.28841 -1.30661 0
M  V30 1643 H 154.168 3.87183 -0.830976 0
M  V30 1644 H 155.342 2.95225 -3.53806 0
M  V30 1645 H 153.657 2.78732 -3.0935 0
M  V30 1646 H 156.254 5.11225 -1.56693 0
M  V30 1647 H 156.597 4.16054 -0.143237 0
M  V30 1648 H 157.13 3.57779 -1.73893 0
M  V30 1649 H 153.869 4.78094 -4.48449 0
M  V30 1650 H 153.389 5.27972 -2.84615 0
M  V30 1651 H 155.068 5.50765 -3.39509 0
M  V30 1652 N 155.201 0.870884 1.31352 0
M  V30 1653 C 156.426 0.495957 2.01383 0
M  V30 1654 C 156.851 -0.904324 1.64935 0
M  V30 1655 O 156.209 -1.59687 0.858466 0
M  V30 1656 C 156.257 0.661433 3.54482 0
M  V30 1657 O 155.361 -0.298851 4.11316 0
M  V30 1658 H 154.702 0.197158 0.634054 0
M  V30 1659 H 157.232 1.17455 1.67527 0
M  V30 1660 H 157.242 0.555072 4.04207 0
M  V30 1661 H 155.917 1.68246 3.8035 0
M  V30 1662 H 154.494 -0.147368 3.72609 0
M  V30 1663 N 156.679 -1.44442 0.630414 0
M  V30 1664 C 157.926 -2.02052 0.134617 0
M  V30 1665 C 158.254 -1.49576 -1.24327 0
M  V30 1666 O 157.509 -0.669806 -1.83881 0
M  V30 1667 C 157.808 -3.57332 0.0697835 0
M  V30 1668 C 157.474 -4.29058 1.38635 0
M  V30 1669 C 156.136 -4.4837 1.74694 0
M  V30 1670 C 158.488 -4.69872 2.25543 0
M  V30 1671 C 155.816 -5.05756 2.97369 0
M  V30 1672 C 158.168 -5.28616 3.47487 0
M  V30 1673 C 156.832 -5.46147 3.8377 0
M  V30 1674 H 156.102 -0.739361 0.0492598 0
M  V30 1675 H 158.749 -1.73217 0.816586 0
M  V30 1676 H 157.054 -3.85577 -0.695553 0
M  V30 1677 H 158.751 -3.99637 -0.330344 0
M  V30 1678 H 155.341 -4.14357 1.09574 0
M  V30 1679 H 159.525 -4.54666 1.98979 0
M  V30 1680 H 154.781 -5.17515 3.25558 0
M  V30 1681 H 158.955 -5.59192 4.15063 0
M  V30 1682 H 156.582 -5.9038 4.7891 0
M  V30 1683 N 158.157 -0.370918 -1.53173 0
M  V30 1684 C 159.067 0.480823 -2.2962 0
M  V30 1685 C 160.083 1.08789 -1.35798 0
M  V30 1686 O 161.259 1.09768 -1.68858 0
M  V30 1687 C 158.324 1.60227 -3.07454 0
M  V30 1688 C 157.385 1.0222 -4.16953 0
M  V30 1689 C 156.618 2.0902 -4.91066 0
M  V30 1690 O 156.841 3.30222 -4.65091 0
M  V30 1691 O 155.775 1.71778 -5.76867 0
M  V30 1692 H 159.601 -0.141421 -3.03371 0
M  V30 1693 H 157.186 -0.135146 -1.48787 0
M  V30 1694 H 159.068 2.25417 -3.56041 0
M  V30 1695 H 157.743 2.20982 -2.36535 0
M  V30 1696 H 156.65 0.334064 -3.72605 0
M  V30 1697 H 157.983 0.459131 -4.90054 0
M  V30 1698 N 159.635 1.57281 -0.100228 0
M  V30 1699 C 160.863 1.98879 0.570509 0
M  V30 1700 C 161.278 0.979476 1.61405 0
M  V30 1701 O 160.635 -0.0302288 1.82475 0
M  V30 1702 C 160.686 3.4052 1.2136 0
M  V30 1703 O 160.407 4.37588 0.211786 0
M  V30 1704 C 161.908 3.97149 1.96945 0
M  V30 1705 H 159.128 0.653428 0.152555 0
M  V30 1706 H 161.672 2.03697 -0.18103 0
M  V30 1707 H 159.827 3.367 1.91603 0
M  V30 1708 H 160.241 5.20118 0.676607 0
M  V30 1709 H 161.715 4.98393 2.37294 0
M  V30 1710 H 162.192 3.3525 2.83733 0
M  V30 1711 H 162.798 4.04458 1.31506 0
M  V30 1712 N 161.113 -0.173488 1.56642 0
M  V30 1713 C 162.338 -0.910149 1.86363 0
M  V30 1714 C 162.763 -1.75132 0.686318 0
M  V30 1715 O 162.121 -1.77595 -0.364643 0
M  V30 1716 C 162.169 -1.76447 3.14482 0
M  V30 1717 O 161.273 -2.86584 2.96553 0
M  V30 1718 H 160.614 -0.255086 0.613047 0
M  V30 1719 H 163.144 -0.172283 2.03873 0
M  V30 1720 H 163.154 -2.16483 3.45831 0
M  V30 1721 H 161.829 -1.14658 3.99783 0
M  V30 1722 H 160.406 -2.50146 2.76553 0
M  V30 1723 N 162.591 -1.51276 -0.441967 0
M  V30 1724 C 164.002 -1.56244 -1.02199 0
M  V30 1725 C 164.353 -0.383149 -1.92422 0
M  V30 1726 O 163.478 0.500613 -2.1053 0
M  V30 1727 C 164.073 -2.83162 -1.86024 0
M  V30 1728 C 162.632 -2.90716 -2.39084 0
M  V30 1729 C 161.779 -2.50858 -1.18175 0
M  V30 1730 H 164.73 -1.5712 -0.223416 0
M  V30 1731 H 164.751 -2.66663 -2.71425 0
M  V30 1732 H 164.263 -3.68974 -1.20331 0
M  V30 1733 H 162.364 -2.09323 -3.08244 0
M  V30 1734 H 162.477 -3.94266 -2.72198 0
M  V30 1735 H 160.841 -2.03951 -1.52565 0
M  V30 1736 H 161.624 -3.3901 -0.541001 0
M  V30 1737 N 164.069 0.697108 -1.41344 0
M  V30 1738 C 165.016 1.81106 -1.43071 0
M  V30 1739 C 165.986 1.63632 -0.285275 0
M  V30 1740 O 167.171 1.84504 -0.486091 0
M  V30 1741 C 164.311 3.18975 -1.31715 0
M  V30 1742 C 163.424 3.47892 -2.56115 0
M  V30 1743 C 162.559 4.75367 -2.37064 0
M  V30 1744 C 161.598 4.97247 -3.56948 0
M  V30 1745 N 160.735 6.15947 -3.36977 0
M  V30 1746 H 165.575 1.78965 -2.38276 0
M  V30 1747 H 163.112 0.873975 -1.18322 0
M  V30 1748 H 165.07 3.98615 -1.23133 0
M  V30 1749 H 163.7 3.20297 -0.401183 0
M  V30 1750 H 162.752 2.62669 -2.75153 0
M  V30 1751 H 164.064 3.59962 -3.45295 0
M  V30 1752 H 163.218 5.63059 -2.25941 0
M  V30 1753 H 161.957 4.65541 -1.45338 0
M  V30 1754 H 160.962 4.08004 -3.68527 0
M  V30 1755 H 162.187 5.08934 -4.49626 0
M  V30 1756 H 160.133 6.07336 -2.47949 0
M  V30 1757 H 160.05 6.28777 -4.19732 0
M  V30 1758 H 161.318 7.06377 -3.29623 0
M  V30 1759 N 165.547 1.27147 0.931209 0
M  V30 1760 C 166.772 1.16191 1.71797 0
M  V30 1761 C 167.197 -0.278004 1.86034 0
M  V30 1762 O 166.555 -1.20137 1.35782 0
M  V30 1763 C 166.603 1.84673 3.09723 0
M  V30 1764 O 165.707 1.14231 3.96264 0
M  V30 1765 H 165.048 0.404303 0.526721 0
M  V30 1766 H 167.578 1.68152 1.1656 0
M  V30 1767 H 167.588 1.91893 3.60057 0
M  V30 1768 H 166.263 2.89421 2.98677 0
M  V30 1769 H 164.84 1.15056 3.54706 0
M  V30 1770 N 167.025 -1.13721 1.09112 0
M  V30 1771 C 168.25 -1.89314 0.847053 0
M  V30 1772 C 168.675 -1.78416 -0.595774 0
M  V30 1773 O 168.033 -1.12942 -1.41823 0
M  V30 1774 C 168.081 -3.3701 1.28284 0
M  V30 1775 O 167.185 -4.10054 0.439267 0
M  V30 1776 H 166.526 -0.588745 0.307044 0
M  V30 1777 H 169.056 -1.43902 1.45442 0
M  V30 1778 H 169.066 -3.87834 1.26683 0
M  V30 1779 H 167.741 -3.4426 2.33363 0
M  V30 1780 H 166.318 -3.69266 0.519312 0
M  V30 1781 N 168.503 -0.877838 -1.30888 0
M  V30 1782 C 169.466 -0.344265 -2.266 0
M  V30 1783 C 170.466 0.50922 -1.52524 0
M  V30 1784 O 171.656 0.317398 -1.71284 0
M  V30 1785 C 168.788 0.510198 -3.37061 0
M  V30 1786 H 169.981 -1.1893 -2.7531 0
M  V30 1787 H 167.534 -0.654088 -1.41956 0
M  V30 1788 H 168.269 1.37612 -2.93655 0
M  V30 1789 H 168.054 -0.101047 -3.9197 0
M  V30 1790 H 169.544 0.875537 -4.08319 0
M  V30 1791 N 169.982 1.44106 -0.638065 0
M  V30 1792 C 170.912 2.33448 0.0494287 0
M  V30 1793 C 171.893 1.48606 0.827672 0
M  V30 1794 O 173.078 1.77308 0.792173 0
M  V30 1795 C 170.208 3.31771 1.02691 0
M  V30 1796 C 169.162 4.26485 0.359823 0
M  V30 1797 C 168.488 5.14729 1.44769 0
M  V30 1798 C 169.788 5.17056 -0.738296 0
M  V30 1799 H 171.482 2.91183 -0.696636 0
M  V30 1800 H 169.028 1.40014 -0.336456 0
M  V30 1801 H 170.981 3.93161 1.51666 0
M  V30 1802 H 169.705 2.7226 1.80395 0
M  V30 1803 H 168.364 3.66437 -0.10934 0
M  V30 1804 H 168.012 4.51566 2.21578 0
M  V30 1805 H 167.712 5.78913 1.00668 0
M  V30 1806 H 169.236 5.78991 1.93911 0
M  V30 1807 H 170.65 5.72342 -0.331354 0
M  V30 1808 H 169.047 5.89879 -1.10286 0
M  V30 1809 H 170.117 4.57652 -1.60258 0
M  V30 1810 N 171.46 0.379036 1.52974 0
M  V30 1811 C 172.392 -0.495963 2.2377 0
M  V30 1812 C 173.405 -1.03517 1.25651 0
M  V30 1813 O 174.594 -0.939249 1.51791 0
M  V30 1814 C 171.694 -1.69894 2.93239 0
M  V30 1815 C 170.867 -1.2889 4.17979 0
M  V30 1816 C 169.926 -2.35543 4.70538 0
M  V30 1817 O 168.952 -1.97375 5.33883 0
M  V30 1818 N 170.154 -3.67318 4.49508 0
M  V30 1819 H 172.919 0.110523 2.99496 0
M  V30 1820 H 170.48 0.204878 1.60598 0
M  V30 1821 H 172.472 -2.40747 3.25304 0
M  V30 1822 H 171.042 -2.212 2.20883 0
M  V30 1823 H 170.262 -0.409676 3.92065 0
M  V30 1824 H 171.55 -0.991443 4.99047 0
M  V30 1825 H 170.948 -4.01095 3.98923 0
M  V30 1826 H 169.505 -4.34235 4.8609 0
M  V30 1827 N 172.938 -1.57226 0.108567 0
M  V30 1828 C 174.184 -1.95919 -0.546564 0
M  V30 1829 C 174.539 -0.990417 -1.6495 0
M  V30 1830 O 173.832 -0.0186593 -1.91591 0
M  V30 1831 C 174.026 -3.38911 -1.13463 0
M  V30 1832 C 173.855 -4.4961 -0.0901926 0
M  V30 1833 C 172.625 -5.04168 0.338008 0
M  V30 1834 C 174.823 -5.09693 0.686808 0
M  V30 1835 N 172.805 -5.98434 1.36931 0
M  V30 1836 C 174.176 -5.99804 1.56958 0
M  V30 1837 C 176.231 -4.92388 0.738846 0
M  V30 1838 C 174.934 -6.74463 2.49983 0
M  V30 1839 C 176.96 -5.67719 1.65676 0
M  V30 1840 C 176.322 -6.57507 2.52713 0
M  V30 1841 H 172.421 -0.763312 -0.169936 0
M  V30 1842 H 175.005 -1.93728 0.194264 0
M  V30 1843 H 173.176 -3.41769 -1.84522 0
M  V30 1844 H 174.908 -3.64752 -1.75322 0
M  V30 1845 H 171.663 -4.73571 -0.0523673 0
M  V30 1846 H 172.087 -6.5027 1.88356 0
M  V30 1847 H 176.729 -4.22724 0.080084 0
M  V30 1848 H 174.447 -7.4338 3.16878 0
M  V30 1849 H 178.033 -5.56338 1.70233 0
M  V30 1850 H 176.913 -7.14778 3.22586 0
M  V30 1851 N 174.416 0.165178 -1.56732 0
M  V30 1852 C 175.346 1.20651 -1.99914 0
M  V30 1853 C 176.327 1.45827 -0.875705 0
M  V30 1854 O 177.512 1.57057 -1.14223 0
M  V30 1855 C 174.642 2.54401 -2.36427 0
M  V30 1856 C 173.596 2.43782 -3.51787 0
M  V30 1857 C 172.922 3.82078 -3.7406 0
M  V30 1858 C 174.222 1.93732 -4.85041 0
M  V30 1859 H 175.916 0.847534 -2.87154 0
M  V30 1860 H 173.462 0.40625 -1.38151 0
M  V30 1861 H 175.415 3.27458 -2.65234 0
M  V30 1862 H 174.139 2.92098 -1.46103 0
M  V30 1863 H 172.798 1.73178 -3.23117 0
M  V30 1864 H 172.446 4.17179 -2.81017 0
M  V30 1865 H 172.146 3.7584 -4.51684 0
M  V30 1866 H 173.67 4.56712 -4.05274 0
M  V30 1867 H 175.084 2.56569 -5.12684 0
M  V30 1868 H 173.481 1.98428 -5.66345 0
M  V30 1869 H 174.551 0.891962 -4.76626 0
M  V30 1870 N 175.894 1.51508 0.433938 0
M  V30 1871 C 177.122 1.68157 1.20543 0
M  V30 1872 C 177.537 0.380362 1.84929 0
M  V30 1873 O 176.894 -0.641446 1.70856 0
M  V30 1874 C 176.945 2.79965 2.28696 0
M  V30 1875 O 176.666 4.05045 1.66943 0
M  V30 1876 C 178.167 3.07912 3.18912 0
M  V30 1877 H 175.387 0.56421 0.363191 0
M  V30 1878 H 177.931 1.97941 0.513754 0
M  V30 1879 H 176.086 2.5277 2.93574 0
M  V30 1880 H 176.5 4.67165 2.38448 0
M  V30 1881 H 177.974 3.89719 3.90926 0
M  V30 1882 H 178.451 2.20456 3.79863 0
M  V30 1883 H 179.057 3.36779 2.59731 0
M  V30 1884 N 177.372 -0.689602 1.41712 0
M  V30 1885 C 178.783 -1.26973 1.36875 0
M  V30 1886 C 179.134 -1.96124 0.054748 0
M  V30 1887 O 178.259 -1.99141 -0.84687 0
M  V30 1888 C 178.854 -2.30912 2.47922 0
M  V30 1889 C 177.413 -2.84486 2.46464 0
M  V30 1890 C 176.56 -1.58603 2.27465 0
M  V30 1891 H 179.511 -0.48396 1.51141 0
M  V30 1892 H 179.532 -3.12331 2.17323 0
M  V30 1893 H 179.044 -1.80554 3.43543 0
M  V30 1894 H 177.145 -3.39005 1.54617 0
M  V30 1895 H 177.258 -3.34511 3.42986 0
M  V30 1896 H 175.622 -1.84632 1.75451 0
M  V30 1897 H 176.405 -1.10233 3.25121 0
M  V30 1898 N 178.85 -1.27639 -0.924453 0
M  V30 1899 C 179.76 -1.12466 -2.05885 0
M  V30 1900 C 180.776 -0.053869 -1.73917 0
M  V30 1901 O 181.952 -0.261012 -1.99702 0
M  V30 1902 C 179.017 -0.776768 -3.37886 0
M  V30 1903 C 178.078 -1.92878 -3.83532 0
M  V30 1904 C 177.311 -1.59739 -5.09234 0
M  V30 1905 O 177.534 -0.506782 -5.68144 0
M  V30 1906 O 176.468 -2.43761 -5.50331 0
M  V30 1907 H 180.294 -2.07671 -2.21599 0
M  V30 1908 H 177.879 -1.06857 -1.04413 0
M  V30 1909 H 179.761 -0.596229 -4.17161 0
M  V30 1910 H 178.436 0.145732 -3.23372 0
M  V30 1911 H 177.343 -2.1644 -3.0513 0
M  V30 1912 H 178.676 -2.8316 -4.02593 0
M  V30 1913 N 180.328 1.1314 -1.09713 0
M  V30 1914 C 181.26 2.18343 -0.697056 0
M  V30 1915 C 182.273 1.60669 0.262551 0
M  V30 1916 O 183.462 1.78435 0.0481527 0
M  V30 1917 C 180.562 3.38899 -0.00684728 0
M  V30 1918 C 179.735 4.26078 -0.988741 0
M  V30 1919 C 178.794 5.25155 -0.331394 0
M  V30 1920 O 177.82 5.60701 -0.979926 0
M  V30 1921 N 179.022 5.73271 0.913261 0
M  V30 1922 H 181.787 2.5328 -1.60216 0
M  V30 1923 H 179.348 1.28491 -0.984971 0
M  V30 1924 H 181.34 4.02255 0.444191 0
M  V30 1925 H 179.91 3.02175 0.800551 0
M  V30 1926 H 179.13 3.59453 -1.61826 0
M  V30 1927 H 180.418 4.81178 -1.65364 0
M  V30 1928 H 179.816 5.46544 1.45966 0
M  V30 1929 H 178.373 6.3855 1.30757 0
M  V30 1930 N 181.806 0.884767 1.30421 0
M  V30 1931 C 183.034 0.518044 2.0031 0
M  V30 1932 C 183.449 -0.893408 1.66324 0
M  V30 1933 O 182.806 -1.5875 0.900262 0
M  V30 1934 C 182.857 0.682997 3.54989 0
M  V30 1935 O 182.578 2.03888 3.87764 0
M  V30 1936 C 184.079 0.31924 4.42149 0
M  V30 1937 H 181.299 0.200265 0.640418 0
M  V30 1938 H 183.843 1.19001 1.6631 0
M  V30 1939 H 181.998 0.0584052 3.87356 0
M  V30 1940 H 182.412 2.05735 4.82466 0
M  V30 1941 H 183.886 0.485555 5.4986 0
M  V30 1942 H 184.363 -0.742717 4.32875 0
M  V30 1943 H 184.969 0.920147 4.15227 0
M  V30 1944 N 183.284 -1.43765 0.645699 0
M  V30 1945 C 184.509 -2.06767 0.161883 0
M  V30 1946 C 184.934 -1.48034 -1.16049 0
M  V30 1947 O 184.292 -0.587369 -1.71522 0
M  V30 1948 C 184.34 -3.60519 0.0762003 0
M  V30 1949 O 183.444 -4.00982 -0.963721 0
M  V30 1950 H 182.785 -0.657675 0.091429 0
M  V30 1951 H 185.315 -1.84397 0.886499 0
M  V30 1952 H 185.325 -4.07853 -0.109604 0
M  V30 1953 H 184 -4.02646 1.04157 0
M  V30 1954 H 182.577 -3.65253 -0.751312 0
M  V30 1955 N 184.763 -0.387143 -1.52771 0
M  V30 1956 C 186.011 0.195349 -2.01154 0
M  V30 1957 C 186.332 1.475 -1.27549 0
M  V30 1958 O 185.602 1.91878 -0.394924 0
M  V30 1959 H 184.182 0.075178 -0.743207 0
M  V30 1960 H 186.844 -0.518337 -1.87881 0
M  V30 1961 H 185.94 0.407096 -3.09434 0
M  V30 1962 N 186.241 1.57166 -0.116904 0
M  V30 1963 C 187.188 2.15202 0.83408 0
M  V30 1964 C 188.158 1.07644 1.26499 0
M  V30 1965 O 189.343 1.35541 1.34288 0
M  V30 1966 C 186.483 2.75405 2.07957 0
M  V30 1967 C 185.596 3.97264 1.69721 0
M  V30 1968 C 184.731 4.45561 2.89221 0
M  V30 1969 C 183.77 5.59956 2.47215 0
M  V30 1970 N 182.907 6.03006 3.59622 0
M  V30 1971 H 187.747 2.96141 0.332335 0
M  V30 1972 H 185.284 1.46309 0.152349 0
M  V30 1973 H 187.242 3.08439 2.80929 0
M  V30 1974 H 185.872 1.97159 2.55594 0
M  V30 1975 H 184.924 3.70404 0.866316 0
M  V30 1976 H 186.236 4.80226 1.34849 0
M  V30 1977 H 185.39 4.80493 3.7042 0
M  V30 1978 H 184.129 3.61544 3.27318 0
M  V30 1979 H 183.134 5.2463 1.64448 0
M  V30 1980 H 184.359 6.45738 2.10238 0
M  V30 1981 H 182.305 5.21931 3.97396 0
M  V30 1982 H 182.222 6.80819 3.28667 0
M  V30 1983 H 183.49 6.42576 4.41267 0
M  V30 1984 N 187.719 -0.156864 1.56817 0
M  V30 1985 C 188.629 -1.2136 2.00771 0
M  V30 1986 C 189.645 -1.47598 0.921459 0
M  V30 1987 O 190.821 -1.59462 1.2302 0
M  V30 1988 C 187.886 -2.52943 2.37109 0
M  V30 1989 C 186.947 -2.34439 3.59634 0
M  V30 1990 C 186.18 -3.59748 3.94229 0
M  V30 1991 O 186.403 -4.65526 3.29609 0
M  V30 1992 O 185.337 -3.52998 4.8752 0
M  V30 1993 H 189.163 -0.870468 2.90958 0
M  V30 1994 H 186.748 -0.36484 1.44877 0
M  V30 1995 H 188.63 -3.30538 2.61386 0
M  V30 1996 H 187.305 -2.86806 1.5008 0
M  V30 1997 H 186.212 -1.54828 3.40557 0
M  V30 1998 H 187.545 -2.05496 4.4725 0
M  V30 1999 N 189.197 -1.51736 -0.425897 0
M  V30 2000 C 190.147 -1.70258 -1.51645 0
M  V30 2001 C 191.131 -0.556488 -1.5097 0
M  V30 2002 O 192.323 -0.812879 -1.5723 0
M  V30 2003 C 189.452 -1.84143 -2.89735 0
M  V30 2004 C 188.538 -3.04572 -2.95122 0
M  V30 2005 N 188.929 -4.2756 -2.70233 0
M  V30 2006 C 187.227 -3.04061 -3.26286 0
M  V30 2007 C 187.928 -5.08908 -2.81757 0
M  V30 2008 N 186.904 -4.43797 -3.13919 0
M  V30 2009 H 190.706 -2.63004 -1.31172 0
M  V30 2010 H 188.22 -1.4954 -0.633375 0
M  V30 2011 H 190.217 -1.95525 -3.68206 0
M  V30 2012 H 188.877 -0.925857 -3.1122 0
M  V30 2013 H 189.888 -4.56315 -2.44943 0
M  V30 2014 H 186.565 -2.22179 -3.53473 0
M  V30 2015 H 187.955 -6.16843 -2.66372 0
M  V30 2016 N 190.675 0.682077 -1.42076 0
M  V30 2017 C 192.086 1.26246 -1.37546 0
M  V30 2018 C 192.437 1.96092 -0.0651481 0
M  V30 2019 O 191.562 1.99587 0.836297 0
M  V30 2020 C 192.157 2.29594 -2.49143 0
M  V30 2021 C 190.716 2.83175 -2.47969 0
M  V30 2022 C 189.863 1.57395 -2.28303 0
M  V30 2023 H 192.814 0.475937 -1.51395 0
M  V30 2024 H 192.835 3.11175 -2.18976 0
M  V30 2025 H 192.347 1.78729 -3.44496 0
M  V30 2026 H 190.448 3.3818 -1.56413 0
M  V30 2027 H 190.561 3.32687 -3.44755 0
M  V30 2028 H 188.925 1.83699 -1.76428 0
M  V30 2029 H 189.708 1.08507 -3.25701 0
M  V30 2030 N 192.153 1.28127 0.917671 0
M  V30 2031 C 193.383 1.17722 1.6978 0
M  V30 2032 C 193.791 -0.267261 1.87303 0
M  V30 2033 O 193.134 -1.19286 1.39702 0
M  V30 2034 C 193.196 1.79958 3.11216 0
M  V30 2035 C 192.86 3.29187 3.16993 0
M  V30 2036 C 193.857 4.25679 2.98485 0
M  V30 2037 C 191.542 3.70075 3.39632 0
M  V30 2038 C 193.536 5.61035 3.02521 0
M  V30 2039 C 191.223 5.05557 3.433 0
M  V30 2040 C 192.221 6.00847 3.24764 0
M  V30 2041 O 191.909 7.33859 3.28187 0
M  V30 2042 H 191.641 0.409788 0.537634 0
M  V30 2043 H 194.195 1.69694 1.15728 0
M  V30 2044 H 192.425 1.22475 3.66793 0
M  V30 2045 H 194.114 1.64125 3.71238 0
M  V30 2046 H 194.88 3.95426 2.80826 0
M  V30 2047 H 190.759 2.96373 3.53106 0
M  V30 2048 H 194.303 6.35388 2.87971 0
M  V30 2049 H 190.2 5.35462 3.60486 0
M  V30 2050 H 190.968 7.42436 3.44575 0
M  V30 2051 N 193.631 -1.12557 1.10312 0
M  V30 2052 C 194.561 -2.20341 0.772798 0
M  V30 2053 C 195.542 -1.68198 -0.25365 0
M  V30 2054 O 196.727 -1.93831 -0.119699 0
M  V30 2055 C 193.857 -3.46709 0.202443 0
M  V30 2056 C 192.811 -4.11996 1.15943 0
M  V30 2057 C 192.137 -5.328 0.450345 0
M  V30 2058 C 193.437 -4.5828 2.50552 0
M  V30 2059 H 195.131 -2.48229 1.674 0
M  V30 2060 H 192.677 -1.19308 0.806326 0
M  V30 2061 H 194.63 -4.2138 -0.0407752 0
M  V30 2062 H 193.354 -3.18245 -0.734001 0
M  V30 2063 H 192.013 -3.39305 1.38808 0
M  V30 2064 H 191.661 -5.00602 -0.490531 0
M  V30 2065 H 191.361 -5.7743 1.08851 0
M  V30 2066 H 192.885 -6.10219 0.215642 0
M  V30 2067 H 194.299 -5.2433 2.31843 0
M  V30 2068 H 192.696 -5.13683 3.10242 0
M  V30 2069 H 193.766 -3.72329 3.10643 0
M  V30 2070 N 195.109 -0.891671 -1.2995 0
M  V30 2071 C 196.356 -0.513501 -1.95881 0
M  V30 2072 C 196.684 0.938655 -1.70351 0
M  V30 2073 O 195.939 1.67936 -1.00478 0
M  V30 2074 C 196.238 -0.742868 -3.49594 0
M  V30 2075 C 195.904 -2.17114 -3.95186 0
M  V30 2076 C 194.566 -2.56169 -4.07346 0
M  V30 2077 C 196.918 -3.10162 -4.18866 0
M  V30 2078 C 194.246 -3.87469 -4.4055 0
M  V30 2079 C 196.598 -4.41001 -4.53542 0
M  V30 2080 C 195.262 -4.79941 -4.63911 0
M  V30 2081 H 194.532 -0.187903 -0.71678 0
M  V30 2082 H 197.179 -1.1288 -1.54694 0
M  V30 2083 H 195.484 -0.044586 -3.91775 0
M  V30 2084 H 197.181 -0.429767 -3.9869 0
M  V30 2085 H 193.771 -1.85801 -3.86233 0
M  V30 2086 H 197.955 -2.81206 -4.08946 0
M  V30 2087 H 193.211 -4.17371 -4.46779 0
M  V30 2088 H 197.385 -5.13133 -4.70815 0
M  V30 2089 H 195.012 -5.81719 -4.89395 0
M  V30 2090 N 196.587 1.43421 -0.653314 0
M  V30 2091 C 197.812 2.06678 -0.172846 0
M  V30 2092 C 198.237 1.48648 1.15262 0
M  V30 2093 O 197.595 0.596457 1.71208 0
M  V30 2094 C 197.643 3.60474 -0.0953184 0
M  V30 2095 O 196.747 4.01487 0.942442 0
M  V30 2096 H 196.088 0.657181 -0.0949155 0
M  V30 2097 H 198.618 1.83925 -0.896265 0
M  V30 2098 H 198.628 4.07905 0.0879728 0
M  V30 2099 H 197.303 4.02088 -1.06291 0
M  V30 2100 H 195.88 3.65646 0.731932 0
M  V30 2101 N 198.065 0.39524 1.52563 0
M  V30 2102 C 198.997 -0.472201 2.24283 0
M  V30 2103 C 200.01 -1.02178 1.26742 0
M  V30 2104 O 201.199 -0.923097 1.52778 0
M  V30 2105 C 198.299 -1.66775 2.95024 0
M  V30 2106 C 197.472 -1.2445 4.19322 0
M  V30 2107 C 196.531 -2.30539 4.7301 0
M  V30 2108 O 195.557 -1.91702 5.35947 0
M  V30 2109 N 196.759 -3.6253 4.53379 0
M  V30 2110 H 199.524 0.142282 2.99362 0
M  V30 2111 H 197.085 0.2219 1.60372 0
M  V30 2112 H 199.077 -2.37283 3.27839 0
M  V30 2113 H 197.647 -2.18845 2.23217 0
M  V30 2114 H 196.867 -0.368069 3.92478 0
M  V30 2115 H 198.155 -0.938457 5.0007 0
M  V30 2116 H 197.553 -3.96841 4.03154 0
M  V30 2117 H 196.11 -4.29055 4.90668 0
M  V30 2118 N 199.544 -1.57102 0.125237 0
M  V30 2119 C 200.784 -1.97294 -0.534259 0
M  V30 2120 C 201.148 -1.0074 -1.63449 0
M  V30 2121 O 202.349 -1.29893 -2.35332 0
M  V30 2122 C 200.62 -3.41705 -1.04748 0
M  V30 2123 S 202.179 -4.03913 -1.71463 0
M  V30 2124 H 198.997 -0.689517 -0.173458 0
M  V30 2125 H 201.599 -1.94349 0.211797 0
M  V30 2126 H 200.303 -4.09723 -0.235649 0
M  V30 2127 H 199.834 -3.48315 -1.82867 0
M  V30 2128 H 201.849 -3.95182 -3.00077 0
M  V30 2129 N 201.022 0.148545 -1.56898 0
M  V30 2130 C 201.954 1.20852 -1.9475 0
M  V30 2131 C 202.967 1.39265 -0.843152 0
M  V30 2132 O 204.156 1.38864 -1.12156 0
M  V30 2133 C 201.256 2.57362 -2.20495 0
M  V30 2134 C 200.429 2.59947 -3.51776 0
M  V30 2135 C 199.488 3.77984 -3.6608 0
M  V30 2136 O 198.514 3.62929 -4.38487 0
M  V30 2137 N 199.716 4.95375 -3.02629 0
M  V30 2138 H 202.481 0.886804 -2.86279 0
M  V30 2139 H 200.042 0.338121 -1.5833 0
M  V30 2140 H 202.034 3.34833 -2.27307 0
M  V30 2141 H 200.604 2.81832 -1.35238 0
M  V30 2142 H 199.824 1.68403 -3.56419 0
M  V30 2143 H 201.112 2.58704 -4.38121 0
M  V30 2144 H 200.51 5.10509 -2.43715 0
M  V30 2145 H 199.067 5.70627 -3.15004 0
M  V30 2146 N 202.5 1.5196 0.417844 0
M  V30 2147 C 203.463 1.74065 1.49111 0
M  V30 2148 C 204.463 0.610537 1.48758 0
M  V30 2149 O 205.653 0.87832 1.50437 0
M  V30 2150 C 202.785 1.81502 2.88565 0
M  V30 2151 H 203.978 2.69869 1.30807 0
M  V30 2152 H 201.531 1.42244 0.647785 0
M  V30 2153 H 202.266 0.875813 3.1225 0
M  V30 2154 H 202.051 2.63651 2.90225 0
M  V30 2155 H 203.541 2.00376 3.66387 0
M  V30 2156 N 203.978 -0.674533 1.42435 0
M  V30 2157 C 205.227 -1.43034 1.42212 0
M  V30 2158 C 205.54 -1.95555 0.0420788 0
M  V30 2159 O 206.746 -2.71374 -0.0827558 0
M  V30 2160 C 205.202 -2.58748 2.50155 0
M  V30 2161 C 204.81 -2.12925 3.94166 0
M  V30 2162 C 206.554 -3.36257 2.59098 0
M  V30 2163 C 204.461 -3.25723 4.93618 0
M  V30 2164 H 203.391 -0.537345 0.528939 0
M  V30 2165 H 206.042 -0.73024 1.68344 0
M  V30 2166 H 204.424 -3.31128 2.17188 0
M  V30 2167 H 205.598 -1.47697 4.36488 0
M  V30 2168 H 203.913 -1.48354 3.89076 0
M  V30 2169 H 206.51 -4.20264 3.30578 0
M  V30 2170 H 206.853 -3.82866 1.63461 0
M  V30 2171 H 207.386 -2.70947 2.9126 0
M  V30 2172 H 204.125 -2.84105 5.90732 0
M  V30 2173 H 203.645 -3.89732 4.55926 0
M  V30 2174 H 205.324 -3.91186 5.15347 0
M  V30 2175 N 205.456 -1.28612 -0.910864 0
M  V30 2176 C 206.406 -1.09423 -2.00026 0
M  V30 2177 C 207.39 -0.0170079 -1.60891 0
M  V30 2178 O 208.582 -0.237472 -1.754 0
M  V30 2179 C 205.711 -0.76114 -3.34756 0
M  V30 2180 C 204.797 -1.87735 -3.80285 0
M  V30 2181 N 205.188 -3.11938 -3.98156 0
M  V30 2182 C 203.486 -1.76786 -4.09467 0
M  V30 2183 C 204.187 -3.84687 -4.36338 0
M  V30 2184 N 203.163 -3.12555 -4.44759 0
M  V30 2185 H 206.965 -2.03658 -2.11898 0
M  V30 2186 H 204.479 -1.19573 -1.09891 0
M  V30 2187 H 206.476 -0.604743 -4.12491 0
M  V30 2188 H 205.136 0.173403 -3.24237 0
M  V30 2189 H 206.147 -3.47516 -3.83996 0
M  V30 2190 H 202.824 -0.905284 -4.07567 0
M  V30 2191 H 204.214 -4.91518 -4.58104 0
M  V30 2192 N 206.934 1.1197 -1.10907 0
M  V30 2193 C 208.174 1.85224 -0.864378 0
M  V30 2194 C 208.538 1.82411 0.599178 0
M  V30 2195 O 209.739 2.51057 0.960416 0
M  V30 2196 C 208.01 3.2868 -1.40371 0
M  V30 2197 S 209.569 4.1925 -1.29518 0
M  V30 2198 H 206.387 0.63878 -0.312219 0
M  V30 2199 H 208.989 1.3485 -1.41548 0
M  V30 2200 H 207.693 3.28289 -2.46281 0
M  V30 2201 H 207.224 3.84121 -0.849402 0
M  V30 2202 H 209.239 4.95539 -0.256059 0
M  V30 2203 N 208.412 0.89855 1.29475 0
M  V30 2204 C 209.828 0.594483 1.48115 0
M  V30 2205 C 210.028 -0.86431 1.82022 0
M  V30 2206 O 209.084 -1.64457 1.91599 0
M  V30 2207 C 210.397 1.51932 2.59494 0
M  V30 2208 C 211.945 1.5244 2.7337 0
M  V30 2209 C 212.42 2.43548 3.87877 0
M  V30 2210 N 213.911 2.41589 3.95208 0
M  V30 2211 C 214.646 3.08789 4.83153 0
M  V30 2212 N 214.142 3.85265 5.75798 0
M  V30 2213 N 215.935 2.97952 4.76635 0
M  V30 2214 H 208.086 1.84207 1.05742 0
M  V30 2215 H 210.349 0.789251 0.525154 0
M  V30 2216 H 210.055 2.55865 2.41301 0
M  V30 2217 H 209.929 1.23899 3.56271 0
M  V30 2218 H 212.316 0.492518 2.90961 0
M  V30 2219 H 212.397 1.8451 1.77172 0
M  V30 2220 H 212.041 3.46829 3.71041 0
M  V30 2221 H 211.971 2.08788 4.83441 0
M  V30 2222 H 214.462 1.86025 3.28943 0
M  V30 2223 H 214.775 4.33598 6.39697 0
M  V30 2224 H 213.12 3.89371 5.75687 0
M  V30 2225 H 216.311 2.37723 4.03244 0
M  V30 2226 H 216.484 3.50599 5.44962 0
M  V30 2227 N 209.89 -1.43072 0.660911 0
M  V30 2228 C 210.853 -2.29194 -0.0166406 0
M  V30 2229 C 211.853 -1.42609 -0.742912 0
M  V30 2230 O 213.043 -1.64155 -0.583004 0
M  V30 2231 C 210.175 -3.24831 -1.0343 0
M  V30 2232 H 211.368 -2.90596 0.741208 0
M  V30 2233 H 208.921 -1.5048 0.422532 0
M  V30 2234 H 209.656 -2.68339 -1.82111 0
M  V30 2235 H 209.441 -3.88676 -0.517082 0
M  V30 2236 H 210.931 -3.89451 -1.50723 0
M  V30 2237 N 211.368 -0.403325 -1.52352 0
M  V30 2238 C 212.617 0.175668 -2.00934 0
M  V30 2239 C 212.93 1.46718 -1.29356 0
M  V30 2240 O 214.136 2.12708 -1.68724 0
M  V30 2241 C 212.592 0.363612 -3.58058 0
M  V30 2242 C 212.2 -0.915472 -4.38547 0
M  V30 2243 C 213.944 0.89821 -4.14888 0
M  V30 2244 C 211.851 -0.695035 -5.87302 0
M  V30 2245 H 210.781 0.0694234 -0.750797 0
M  V30 2246 H 213.432 -0.527879 -1.75743 0
M  V30 2247 H 211.814 1.12935 -3.79555 0
M  V30 2248 H 212.988 -1.68691 -4.28812 0
M  V30 2249 H 211.303 -1.37606 -3.93006 0
M  V30 2250 H 213.9 1.07907 -5.23699 0
M  V30 2251 H 214.243 1.87126 -3.71873 0
M  V30 2252 H 214.776 0.191681 -3.97338 0
M  V30 2253 H 211.515 -1.63948 -6.34666 0
M  V30 2254 H 211.035 0.0372116 -5.99788 0
M  V30 2255 H 212.714 -0.33497 -6.46132 0
M  V30 2256 N 212.846 1.57033 -0.133567 0
M  V30 2257 C 213.776 2.1909 0.807567 0
M  V30 2258 C 214.757 1.13517 1.26681 0
M  V30 2259 O 215.942 1.41809 1.32679 0
M  V30 2260 C 213.072 2.80188 2.05212 0
M  V30 2261 C 212.026 3.91471 1.73015 0
M  V30 2262 C 211.352 4.39443 3.04622 0
M  V30 2263 C 212.652 5.12886 0.987168 0
M  V30 2264 H 214.346 2.97988 0.290403 0
M  V30 2265 H 211.892 1.43335 0.138239 0
M  V30 2266 H 213.845 3.22264 2.71521 0
M  V30 2267 H 212.569 1.98601 2.59278 0
M  V30 2268 H 211.228 3.49993 1.0909 0
M  V30 2269 H 210.876 3.54695 3.56651 0
M  V30 2270 H 210.576 5.14495 2.83847 0
M  V30 2271 H 212.1 4.8418 3.72024 0
M  V30 2272 H 213.514 5.51891 1.55208 0
M  V30 2273 H 211.911 5.93615 0.87985 0
M  V30 2274 H 212.981 4.84894 -0.0235286 0
M  V30 2275 N 214.325 -0.140222 1.56975 0
M  V30 2276 C 215.736 -0.699596 1.73097 0
M  V30 2277 C 216.087 -1.8134 0.749022 0
M  V30 2278 O 215.212 -2.16241 -0.0828503 0
M  V30 2279 C 215.807 -1.27582 3.1386 0
M  V30 2280 C 214.366 -1.78169 3.31561 0
M  V30 2281 C 213.513 -0.672855 2.69013 0
M  V30 2282 H 216.464 0.0855115 1.58469 0
M  V30 2283 H 216.485 -2.14561 3.14235 0
M  V30 2284 H 215.997 -0.464955 3.85305 0
M  V30 2285 H 214.098 -2.61801 2.65124 0
M  V30 2286 H 214.211 -1.90574 4.39566 0
M  V30 2287 H 212.575 -1.10118 2.29665 0
M  V30 2288 H 213.358 0.126679 3.43066 0
M  V30 2289 N 215.803 -1.52179 -0.40978 0
M  V30 2290 C 217.043 -1.67882 -1.16597 0
M  V30 2291 C 217.407 -0.399795 -1.87791 0
M  V30 2292 O 218.608 -0.43292 -2.65291 0
M  V30 2293 C 216.879 -2.86662 -2.13448 0
M  V30 2294 S 218.438 -3.22843 -2.97183 0
M  V30 2295 H 215.256 -0.59118 -0.395002 0
M  V30 2296 H 217.858 -1.9017 -0.453373 0
M  V30 2297 H 216.562 -3.77998 -1.59831 0
M  V30 2298 H 216.093 -2.66645 -2.89247 0
M  V30 2299 H 218.108 -2.71415 -4.15389 0
M  V30 2300 N 217.281 0.66697 -1.42791 0
M  V30 2301 C 218.213 1.7925 -1.42836 0
M  V30 2302 C 219.226 1.59496 -0.326333 0
M  V30 2303 O 220.415 1.6847 -0.589916 0
M  V30 2304 C 217.515 3.16476 -1.21229 0
M  V30 2305 C 216.688 3.63011 -2.44013 0
M  V30 2306 C 215.747 4.78993 -2.17834 0
M  V30 2307 O 214.773 4.89137 -2.91091 0
M  V30 2308 N 215.975 5.68248 -1.18635 0
M  V30 2309 H 218.74 1.79695 -2.39854 0
M  V30 2310 H 216.301 0.850338 -1.37771 0
M  V30 2311 H 218.293 3.91734 -1.01621 0
M  V30 2312 H 216.863 3.10884 -0.32706 0
M  V30 2313 H 216.083 2.78346 -2.79137 0
M  V30 2314 H 217.371 3.90845 -3.25757 0
M  V30 2315 H 216.769 5.62712 -0.580615 0
M  V30 2316 H 215.326 6.43285 -1.05013 0
M  V30 2317 N 218.759 1.29093 0.90403 0
M  V30 2318 C 220.036 1.075 1.63411 0
M  V30 2319 C 220.416 -0.382346 2.07609 0
M  V30 2320 O 219.764 -1.37031 1.82851 0
M  V30 2321 C 219.974 2.05858 2.81822 0
M  V30 2322 C 221.322 2.36539 3.52611 0
M  V30 2323 O 222.346 2.04019 2.91984 0
M  V30 2324 O 221.205 2.92085 4.61897 0
M  V30 2325 H 218.299 0.411547 0.717327 0
M  V30 2326 H 220.845 1.40449 0.952479 0
M  V30 2327 H 219.617 3.04037 2.46327 0
M  V30 2328 H 219.24 1.73613 3.57693 0
M  V30 2329 N 220.237 -1.11381 1.11499 0
M  V30 2330 C 221.465 -1.86934 0.88675 0
M  V30 2331 C 221.88 -1.80195 -0.563476 0
M  V30 2332 O 221.237 -1.18367 -1.38908 0
M  V30 2333 C 221.288 -3.35722 1.34064 0
M  V30 2334 O 221.009 -3.4232 2.73401 0
M  V30 2335 C 222.51 -4.2818 1.14791 0
M  V30 2336 H 219.73 -0.591117 0.317523 0
M  V30 2337 H 222.274 -1.40865 1.48248 0
M  V30 2338 H 220.429 -3.79294 0.788355 0
M  V30 2339 H 220.843 -4.34971 2.93087 0
M  V30 2340 H 222.317 -5.30817 1.5145 0
M  V30 2341 H 222.794 -4.39113 0.0875279 0
M  V30 2342 H 223.4 -3.90402 1.68721 0
M  V30 2343 N 221.715 -0.905404 -1.28997 0
M  V30 2344 C 223.126 -0.581953 -1.77398 0
M  V30 2345 C 223.477 0.902552 -1.74208 0
M  V30 2346 O 222.602 1.70584 -1.33154 0
M  V30 2347 C 223.197 -1.04961 -3.22131 0
M  V30 2348 C 221.756 -0.777229 -3.68288 0
M  V30 2349 C 220.903 -1.22109 -2.48967 0
M  V30 2350 H 223.854 -1.08754 -1.15578 0
M  V30 2351 H 223.875 -0.387387 -3.78523 0
M  V30 2352 H 223.387 -2.13008 -3.24421 0
M  V30 2353 H 221.488 0.290383 -3.71467 0
M  V30 2354 H 221.601 -1.37911 -4.58822 0
M  V30 2355 H 219.965 -0.639971 -2.46529 0
M  V30 2356 H 220.748 -2.30972 -2.53982 0
M  V30 2357 N 223.193 1.4272 -0.668489 0
M  V30 2358 C 224.418 2.06484 -0.194758 0
M  V30 2359 C 224.843 1.49862 1.13679 0
M  V30 2360 O 224.201 0.614582 1.70565 0
M  V30 2361 C 224.249 3.60353 -0.133546 0
M  V30 2362 O 223.353 4.02464 0.899806 0
M  V30 2363 H 222.694 0.656137 -0.10188 0
M  V30 2364 H 225.224 1.82964 -0.915722 0
M  V30 2365 H 225.234 4.07976 0.0447041 0
M  V30 2366 H 223.909 4.00938 -1.1055 0
M  V30 2367 H 222.486 3.66402 0.693109 0
M  V30 2368 N 224.671 0.411399 1.52136 0
M  V30 2369 C 225.917 -0.163888 2.02137 0
M  V30 2370 C 226.25 -1.44597 1.29636 0
M  V30 2371 O 225.525 -1.90272 0.403353 0
M  V30 2372 C 225.808 -0.40927 3.57767 0
M  V30 2373 C 225.661 0.889643 4.40914 0
M  V30 2374 C 226.98 -1.19042 4.23694 0
M  V30 2375 H 224.099 -0.0580896 0.734707 0
M  V30 2376 H 226.741 0.54531 1.82007 0
M  V30 2377 H 224.891 -1.0134 3.7505 0
M  V30 2378 H 226.563 1.52575 4.35337 0
M  V30 2379 H 224.806 1.50011 4.07037 0
M  V30 2380 H 225.477 0.672314 5.4789 0
M  V30 2381 H 227.953 -0.678942 4.10524 0
M  V30 2382 H 226.829 -1.33086 5.32522 0
M  V30 2383 H 227.09 -2.21166 3.82803 0
M  V30 2384 N 226.149 -1.5696 0.141893 0
M  V30 2385 C 227.096 -2.16501 -0.799737 0
M  V30 2386 C 228.066 -1.09643 -1.24771 0
M  V30 2387 O 229.251 -1.3766 -1.32115 0
M  V30 2388 C 226.391 -2.78679 -2.03549 0
M  V30 2389 C 225.504 -3.99914 -1.6338 0
M  V30 2390 C 224.639 -4.50106 -2.82096 0
M  V30 2391 C 223.678 -5.63819 -2.38275 0
M  V30 2392 N 222.815 -6.08651 -3.49983 0
M  V30 2393 H 227.655 -2.96632 -0.285179 0
M  V30 2394 H 225.192 -1.46533 -0.129053 0
M  V30 2395 H 227.15 -3.1287 -2.75986 0
M  V30 2396 H 225.78 -2.012 -2.52425 0
M  V30 2397 H 224.832 -3.71735 -0.807279 0
M  V30 2398 H 226.144 -4.82311 -1.27192 0
M  V30 2399 H 225.298 -4.86325 -3.62729 0
M  V30 2400 H 224.037 -3.66706 -3.21525 0
M  V30 2401 H 223.042 -5.2718 -1.56081 0
M  V30 2402 H 224.267 -6.49 -1.99938 0
M  V30 2403 H 222.213 -5.28188 -3.89042 0
M  V30 2404 H 222.13 -6.85961 -3.17794 0
M  V30 2405 H 223.398 -6.49515 -4.30988 0
M  V30 2406 N 227.627 0.131896 -1.57047 0
M  V30 2407 C 228.557 1.16384 -2.02428 0
M  V30 2408 C 229.538 1.43936 -0.90644 0
M  V30 2409 O 230.723 1.54599 -1.17528 0
M  V30 2410 C 227.853 2.49328 -2.4177 0
M  V30 2411 C 226.807 2.36266 -3.56879 0
M  V30 2412 C 226.133 3.74057 -3.8208 0
M  V30 2413 C 227.433 1.834 -4.89042 0
M  V30 2414 H 229.127 0.786433 -2.88887 0
M  V30 2415 H 226.673 0.376855 -1.38981 0
M  V30 2416 H 228.626 3.21759 -2.7212 0
M  V30 2417 H 227.35 2.88934 -1.52266 0
M  V30 2418 H 226.009 1.66286 -3.26718 0
M  V30 2419 H 225.657 4.11125 -2.89803 0
M  V30 2420 H 225.357 3.66174 -4.59554 0
M  V30 2421 H 226.881 4.48012 -4.1487 0
M  V30 2422 H 228.295 2.45636 -5.18011 0
M  V30 2423 H 226.692 1.8637 -5.70426 0
M  V30 2424 H 227.762 0.790662 -4.7841 0
M  V30 2425 N 229.106 1.52395 0.401703 0
M  V30 2426 C 230.334 1.70676 1.16949 0
M  V30 2427 C 230.749 0.419503 1.8408 0
M  V30 2428 O 230.106 -0.605061 1.72178 0
M  V30 2429 C 230.157 2.84753 2.22706 0
M  V30 2430 O 229.878 4.08495 1.58314 0
M  V30 2431 C 231.379 3.14608 3.12309 0
M  V30 2432 H 228.599 0.571787 0.351142 0
M  V30 2433 H 231.143 1.98987 0.471652 0
M  V30 2434 H 229.298 2.58941 2.88147 0
M  V30 2435 H 229.712 4.72117 2.28485 0
M  V30 2436 H 231.186 3.97923 3.82572 0
M  V30 2437 H 231.663 2.28464 3.75101 0
M  V30 2438 H 232.269 3.42212 2.52529 0
M  V30 2439 N 230.584 -0.659388 1.43143 0
M  V30 2440 C 231.814 -1.44513 1.47646 0
M  V30 2441 C 232.222 -1.88981 0.0910095 0
M  V30 2442 O 231.565 -1.59702 -0.907789 0
M  V30 2443 C 231.627 -2.71663 2.35456 0
M  V30 2444 C 231.291 -2.49175 3.83094 0
M  V30 2445 C 232.288 -2.1279 4.74359 0
M  V30 2446 C 229.973 -2.63691 4.27519 0
M  V30 2447 C 231.967 -1.9121 6.08044 0
M  V30 2448 C 229.654 -2.41726 5.61259 0
M  V30 2449 C 230.652 -2.0554 6.51339 0
M  V30 2450 O 230.34 -1.838 7.82606 0
M  V30 2451 H 230.072 -0.45064 0.503884 0
M  V30 2452 H 232.626 -0.816248 1.88485 0
M  V30 2453 H 230.856 -3.37089 1.89493 0
M  V30 2454 H 232.545 -3.33595 2.31235 0
M  V30 2455 H 233.311 -2.01157 4.41317 0
M  V30 2456 H 229.19 -2.90832 3.57684 0
M  V30 2457 H 232.734 -1.62889 6.78316 0
M  V30 2458 H 228.631 -2.52959 5.9387 0
M  V30 2459 H 229.399 -1.98275 7.94122 0
M  V30 2460 N 232.062 -1.29571 -0.897171 0
M  V30 2461 C 233.29 -1.20583 -1.68129 0
M  V30 2462 C 233.705 0.233181 -1.87354 0
M  V30 2463 O 233.062 1.15579 -1.41236 0
M  V30 2464 C 233.113 -1.91772 -3.06441 0
M  V30 2465 O 232.834 -3.30053 -2.88091 0
M  V30 2466 C 234.335 -1.89291 -4.00854 0
M  V30 2467 H 231.555 -0.417826 -0.525036 0
M  V30 2468 H 234.099 -1.70987 -1.12177 0
M  V30 2469 H 232.254 -1.45196 -3.59161 0
M  V30 2470 H 232.668 -3.65942 -3.75748 0
M  V30 2471 H 234.142 -2.43662 -4.95311 0
M  V30 2472 H 234.619 -0.869014 -4.30517 0
M  V30 2473 H 235.225 -2.35622 -3.54066 0
M  V30 2474 N 233.54 1.10788 -1.12088 0
M  V30 2475 C 234.503 2.15207 -0.788577 0
M  V30 2476 C 235.503 1.59609 0.195317 0
M  V30 2477 O 236.693 1.74174 -0.0300193 0
M  V30 2478 C 233.825 3.4047 -0.171174 0
M  V30 2479 H 235.018 2.46116 -1.71368 0
M  V30 2480 H 232.571 1.26089 -0.923652 0
M  V30 2481 H 233.306 3.15176 0.763832 0
M  V30 2482 H 233.091 3.82109 -0.879514 0
M  V30 2483 H 234.581 4.17576 0.04496 0
M  V30 2484 N 235.018 0.912232 1.28515 0
M  V30 2485 C 235.928 0.404506 2.31086 0
M  V30 2486 C 236.944 -0.50707 1.66448 0
M  V30 2487 O 238.12 -0.393624 1.97516 0
M  V30 2488 C 235.185 -0.348572 3.44943 0
M  V30 2489 C 234.246 0.59604 4.25142 0
M  V30 2490 C 233.479 -0.121194 5.33562 0
M  V30 2491 O 233.702 -1.34317 5.5436 0
M  V30 2492 O 232.636 0.542716 5.99448 0
M  V30 2493 H 236.462 1.25579 2.76521 0
M  V30 2494 H 234.047 0.676998 1.33181 0
M  V30 2495 H 235.929 -0.77395 4.14232 0
M  V30 2496 H 234.604 -1.17571 3.01594 0
M  V30 2497 H 233.511 1.07079 3.58448 0
M  V30 2498 H 234.844 1.38995 4.72167 0
M  V30 2499 N 236.496 -1.42363 0.676048 0
M  V30 2500 C 237.742 -2.0182 0.199125 0
M  V30 2501 C 238.075 -1.53339 -1.19168 0
M  V30 2502 O 237.35 -0.736124 -1.80032 0
M  V30 2503 C 237.633 -3.59331 0.235144 0
M  V30 2504 C 237.486 -4.17989 1.66149 0
M  V30 2505 C 238.805 -4.3813 -0.41595 0
M  V30 2506 H 235.924 -0.733293 0.0738311 0
M  V30 2507 H 238.566 -1.69368 0.86107 0
M  V30 2508 H 236.716 -3.87109 -0.328487 0
M  V30 2509 H 238.388 -4.0116 2.27747 0
M  V30 2510 H 236.631 -3.7377 2.20178 0
M  V30 2511 H 237.302 -5.27126 1.63837 0
M  V30 2512 H 239.778 -4.16051 0.0638529 0
M  V30 2513 H 238.654 -5.47717 -0.360115 0
M  V30 2514 H 238.915 -4.16101 -1.49373 0
M  V30 2515 N 237.974 -0.419461 -1.51915 0
M  V30 2516 C 239.199 0.154572 -2.06823 0
M  V30 2517 C 239.624 1.3722 -1.28656 0
M  V30 2518 O 238.982 1.78461 -0.319583 0
M  V30 2519 C 239.03 0.473172 -3.57482 0
M  V30 2520 O 238.134 1.56255 -3.81652 0
M  V30 2521 H 237.475 0.0096924 -0.663929 0
M  V30 2522 H 240.005 -0.595642 -1.95738 0
M  V30 2523 H 240.015 0.728825 -4.01438 0
M  V30 2524 H 238.69 -0.416873 -4.13805 0
M  V30 2525 H 237.267 1.29825 -3.49571 0
M  V30 2526 N 239.452 1.56882 -0.150215 0
M  V30 2527 C 240.698 1.96518 0.500834 0
M  V30 2528 C 241.031 1.03527 1.64304 0
M  V30 2529 O 240.306 0.0782751 1.94342 0
M  V30 2530 C 240.589 3.45822 1.00395 0
M  V30 2531 C 240.442 4.49591 -0.136983 0
M  V30 2532 C 241.761 3.97704 1.88467 0
M  V30 2533 H 238.88 0.714535 0.18058 0
M  V30 2534 H 241.522 1.88577 -0.232091 0
M  V30 2535 H 239.672 3.5272 1.62851 0
M  V30 2536 H 241.344 4.5477 -0.77343 0
M  V30 2537 H 239.587 4.26441 -0.795652 0
M  V30 2538 H 240.258 5.51402 0.256815 0
M  V30 2539 H 242.734 3.93304 1.35834 0
M  V30 2540 H 241.61 5.0263 2.20578 0
M  V30 2541 H 241.871 3.40252 2.82279 0
M  V30 2542 N 240.93 -0.123565 1.57115 0
M  V30 2543 C 242.341 -0.681198 1.73829 0
M  V30 2544 C 242.692 -1.80535 0.768214 0
M  V30 2545 O 241.817 -2.16317 -0.0599103 0
M  V30 2546 C 242.412 -1.24246 3.15196 0
M  V30 2547 C 240.971 -1.74643 3.33432 0
M  V30 2548 C 240.118 -0.644284 2.69711 0
M  V30 2549 H 243.069 0.102315 1.5837 0
M  V30 2550 H 243.09 -2.11216 3.16493 0
M  V30 2551 H 242.602 -0.424062 3.85776 0
M  V30 2552 H 240.703 -2.58974 2.67886 0
M  V30 2553 H 240.816 -1.85902 4.41562 0
M  V30 2554 H 239.18 -1.07676 2.3082 0
M  V30 2555 H 239.963 0.163058 3.42913 0
M  V30 2556 N 242.408 -1.52605 -0.393616 0
M  V30 2557 C 243.355 -1.77055 -1.48054 0
M  V30 2558 C 244.325 -0.61358 -1.54352 0
M  V30 2559 O 245.51 -0.852806 -1.70681 0
M  V30 2560 C 242.65 -1.94108 -2.85335 0
M  V30 2561 C 241.763 -3.21792 -2.88226 0
M  V30 2562 C 240.898 -3.29188 -4.16904 0
M  V30 2563 C 239.937 -4.51013 -4.13828 0
M  V30 2564 N 239.074 -4.55716 -5.34105 0
M  V30 2565 H 243.914 -2.69815 -1.26506 0
M  V30 2566 H 241.451 -1.33683 -0.61379 0
M  V30 2567 H 243.409 -2.01979 -3.65049 0
M  V30 2568 H 242.039 -1.04713 -3.05344 0
M  V30 2569 H 241.091 -3.23015 -2.00911 0
M  V30 2570 H 242.403 -4.11557 -2.8182 0
M  V30 2571 H 241.557 -3.36216 -5.05018 0
M  V30 2572 H 240.296 -2.37389 -4.26026 0
M  V30 2573 H 239.301 -4.44115 -3.24102 0
M  V30 2574 H 240.526 -5.44123 -4.06333 0
M  V30 2575 H 238.472 -3.66807 -5.43865 0
M  V30 2576 H 238.389 -5.39346 -5.29756 0
M  V30 2577 H 239.657 -4.66993 -6.2413 0
M  V30 2578 N 243.887 0.651787 -1.4349 0
M  V30 2579 C 244.797 1.79368 -1.5121 0
M  V30 2580 C 245.813 1.69361 -0.399093 0
M  V30 2581 O 246.989 1.90505 -0.653431 0
M  V30 2582 C 244.054 3.15653 -1.43401 0
M  V30 2583 C 243.115 3.37446 -2.65384 0
M  V30 2584 C 242.348 4.67229 -2.57939 0
M  V30 2585 O 242.571 5.46676 -1.62792 0
M  V30 2586 O 241.505 4.90773 -3.48462 0
M  V30 2587 H 245.331 1.7581 -2.47638 0
M  V30 2588 H 242.916 0.810447 -1.25507 0
M  V30 2589 H 244.798 3.96935 -1.41494 0
M  V30 2590 H 243.473 3.19798 -0.501085 0
M  V30 2591 H 242.38 2.55923 -2.72863 0
M  V30 2592 H 243.713 3.38148 -3.57654 0
M  V30 2593 N 245.365 1.30045 0.890287 0
M  V30 2594 C 246.295 1.18541 2.01172 0
M  V30 2595 C 247.276 0.0773356 1.69924 0
M  V30 2596 O 248.461 0.25845 1.92473 0
M  V30 2597 C 245.591 0.870941 3.36202 0
M  V30 2598 C 244.545 1.93637 3.81692 0
M  V30 2599 C 243.871 1.475 5.13953 0
M  V30 2600 C 245.171 3.34666 4.00994 0
M  V30 2601 H 246.865 2.12359 2.11054 0
M  V30 2602 H 244.411 1.02238 1.01407 0
M  V30 2603 H 246.364 0.777141 4.14172 0
M  V30 2604 H 245.088 -0.102926 3.26438 0
M  V30 2605 H 243.747 2.01972 3.05946 0
M  V30 2606 H 243.395 0.489551 5.00612 0
M  V30 2607 H 243.095 2.1876 5.4536 0
M  V30 2608 H 244.619 1.39489 5.94454 0
M  V30 2609 H 246.033 3.2912 4.69417 0
M  V30 2610 H 244.43 4.03966 4.43769 0
M  V30 2611 H 245.5 3.76949 3.05021 0
M  V30 2612 N 246.843 -1.10192 1.12674 0
M  V30 2613 C 248.089 -1.82475 0.884915 0
M  V30 2614 C 248.422 -1.85093 -0.58773 0
M  V30 2615 O 247.697 -1.3134 -1.43457 0
M  V30 2616 C 247.98 -3.29018 1.46353 0
M  V30 2617 C 247.833 -3.34718 3.00473 0
M  V30 2618 C 249.152 -4.25473 1.12519 0
M  V30 2619 H 246.271 -0.662492 0.322915 0
M  V30 2620 H 248.913 -1.2913 1.39375 0
M  V30 2621 H 247.063 -3.74576 1.03077 0
M  V30 2622 H 248.735 -2.97622 3.52447 0
M  V30 2623 H 246.978 -2.74541 3.35872 0
M  V30 2624 H 247.649 -4.37918 3.36053 0
M  V30 2625 H 250.125 -3.88161 1.499 0
M  V30 2626 H 249.001 -5.26365 1.55663 0
M  V30 2627 H 249.262 -4.42084 0.0377407 0
M  V30 2628 N 248.321 -0.919034 -1.28029 0
M  V30 2629 C 249.284 -0.416182 -2.2539 0
M  V30 2630 C 250.284 0.460438 -1.54067 0
M  V30 2631 O 251.474 0.262744 -1.72207 0
M  V30 2632 C 248.606 0.402707 -3.38513 0
M  V30 2633 H 249.799 -1.27629 -2.71387 0
M  V30 2634 H 247.352 -0.698919 -1.39803 0
M  V30 2635 H 248.087 1.282 -2.97885 0
M  V30 2636 H 247.872 -0.225698 -3.9145 0
M  V30 2637 H 249.362 0.745191 -4.10897 0
M  V30 2638 N 249.799 1.42003 -0.683588 0
M  V30 2639 C 250.729 2.33487 -0.024866 0
M  V30 2640 C 251.71 1.51163 0.779975 0
M  V30 2641 O 252.895 1.79739 0.735362 0
M  V30 2642 C 250.025 3.3487 0.920836 0
M  V30 2643 C 248.979 4.27414 0.223958 0
M  V30 2644 C 248.305 5.19074 1.2832 0
M  V30 2645 C 249.605 5.14445 -0.90242 0
M  V30 2646 H 251.299 2.88819 -0.788921 0
M  V30 2647 H 248.845 1.38873 -0.38083 0
M  V30 2648 H 250.798 3.97787 1.39081 0
M  V30 2649 H 249.522 2.77861 1.71642 0
M  V30 2650 H 248.181 3.65904 -0.225864 0
M  V30 2651 H 247.829 4.58387 2.071 0
M  V30 2652 H 247.529 5.81822 0.821995 0
M  V30 2653 H 249.053 5.84867 1.75392 0
M  V30 2654 H 250.467 5.70998 -0.513272 0
M  V30 2655 H 248.864 5.86072 -1.28997 0
M  V30 2656 H 249.934 4.52322 -1.74737 0
M  V30 2657 N 251.277 0.427512 1.51691 0
M  V30 2658 C 252.21 -0.433876 2.24037 0
M  V30 2659 C 253.188 -1.03287 1.25581 0
M  V30 2660 O 254.372 -1.07722 1.54688 0
M  V30 2661 C 251.499 -1.60385 2.98319 0
M  V30 2662 C 250.545 -1.12648 4.11355 0
M  V30 2663 S 251.378 -0.076543 5.35445 0
M  V30 2664 C 252.534 -1.25141 6.13262 0
M  V30 2665 H 252.767 0.180367 2.96752 0
M  V30 2666 H 250.3 0.211946 1.52938 0
M  V30 2667 H 252.258 -2.27462 3.41718 0
M  V30 2668 H 250.919 -2.18948 2.25213 0
M  V30 2669 H 250.112 -2.0011 4.62571 0
M  V30 2670 H 249.714 -0.534088 3.70167 0
M  V30 2671 H 252.006 -2.17162 6.41753 0
M  V30 2672 H 252.949 -0.779411 7.03797 0
M  V30 2673 H 253.357 -1.48553 5.44603 0
M  V30 2674 N 252.755 -1.56801 0.158532 0
M  V30 2675 C 253.98 -2.01295 -0.499516 0
M  V30 2676 C 254.405 -1.03799 -1.56867 0
M  V30 2677 O 253.763 -0.0155162 -1.81293 0
M  V30 2678 C 253.811 -3.44469 -1.06647 0
M  V30 2679 O 252.915 -3.50012 -2.18095 0
M  V30 2680 H 252.256 -0.652884 -0.12099 0
M  V30 2681 H 254.786 -2.02958 0.258661 0
M  V30 2682 H 254.796 -3.8351 -1.39227 0
M  V30 2683 H 253.471 -4.14932 -0.283581 0
M  V30 2684 H 252.048 -3.22822 -1.86656 0
M  V30 2685 N 254.233 0.115231 -1.57178 0
M  V30 2686 C 255.196 1.12526 -1.99676 0
M  V30 2687 C 256.196 1.34095 -0.88742 0
M  V30 2688 O 257.386 1.30548 -1.15337 0
M  V30 2689 C 254.518 2.4789 -2.34015 0
M  V30 2690 H 255.711 0.759912 -2.90113 0
M  V30 2691 H 253.264 0.359648 -1.52106 0
M  V30 2692 H 253.999 2.89339 -1.4647 0
M  V30 2693 H 253.784 2.33588 -3.14927 0
M  V30 2694 H 255.274 3.20575 -2.67622 0
M  V30 2695 N 255.711 1.52812 0.385517 0
M  V30 2696 C 256.96 1.67249 1.12741 0
M  V30 2697 C 257.273 0.4205 1.91027 0
M  V30 2698 O 258.479 0.445064 2.67827 0
M  V30 2699 C 256.935 2.95583 2.05326 0
M  V30 2700 C 256.543 4.27974 1.32447 0
M  V30 2701 C 258.287 3.19386 2.7963 0
M  V30 2702 C 256.194 5.47412 2.23818 0
M  V30 2703 H 255.124 0.6231 0.424573 0
M  V30 2704 H 257.775 1.79309 0.389924 0
M  V30 2705 H 256.157 2.77277 2.82725 0
M  V30 2706 H 257.331 4.56844 0.602495 0
M  V30 2707 H 255.646 4.10459 0.700885 0
M  V30 2708 H 258.243 4.05801 3.48181 0
M  V30 2709 H 258.586 2.34604 3.43899 0
M  V30 2710 H 259.119 3.38274 2.09322 0
M  V30 2711 H 255.858 6.34612 1.64157 0
M  V30 2712 H 255.378 5.22849 2.93921 0
M  V30 2713 H 257.057 5.81423 2.83824 0
M  V30 2714 N 257.189 -0.644168 1.43834 0
M  V30 2715 C 258.605 -0.960875 1.27434 0
M  V30 2716 C 258.805 -2.00499 0.200618 0
M  V30 2717 O 257.861 -2.49018 -0.417906 0
M  V30 2718 C 259.174 -1.43653 2.64167 0
M  V30 2719 C 260.722 -1.55271 2.71772 0
M  V30 2720 C 261.197 -2.06224 4.08944 0
M  V30 2721 N 262.688 -2.13513 4.11055 0
M  V30 2722 C 263.423 -2.54081 5.14033 0
M  V30 2723 N 262.919 -2.9388 6.27381 0
M  V30 2724 N 264.712 -2.54101 5.01387 0
M  V30 2725 H 256.863 0.0465779 2.12349 0
M  V30 2726 H 259.126 -0.0417638 0.94708 0
M  V30 2727 H 258.832 -0.743706 3.43747 0
M  V30 2728 H 258.706 -2.40993 2.90176 0
M  V30 2729 H 261.093 -2.23653 1.92519 0
M  V30 2730 H 261.174 -0.563395 2.49519 0
M  V30 2731 H 260.818 -1.38441 4.88668 0
M  V30 2732 H 260.748 -3.06003 4.28567 0
M  V30 2733 H 263.239 -1.85493 3.29242 0
M  V30 2734 H 263.552 -3.2361 7.01781 0
M  V30 2735 H 261.897 -2.91663 6.30839 0
M  V30 2736 H 265.088 -2.22391 4.11898 0
M  V30 2737 H 265.261 -2.85394 5.81768 0
M  V30 2738 N 258.668 -1.30515 -0.883378 0
M  V30 2739 C 259.945 -1.10086 -1.6168 0
M  V30 2740 C 260.325 0.349269 -2.08191 0
M  V30 2741 O 259.673 1.34105 -1.85008 0
M  V30 2742 C 259.883 -2.10315 -2.78511 0
M  V30 2743 C 261.231 -2.42119 -3.48803 0
M  V30 2744 O 262.255 -2.08638 -2.88702 0
M  V30 2745 O 261.114 -2.99396 -4.57192 0
M  V30 2746 H 258.208 -0.422907 -0.710689 0
M  V30 2747 H 260.754 -1.41947 -0.930015 0
M  V30 2748 H 259.526 -3.07917 -2.41459 0
M  V30 2749 H 259.149 -1.79282 -3.54886 0
M  V30 2750 N 260.146 1.09593 -1.13257 0
M  V30 2751 C 261.394 1.81375 -0.891492 0
M  V30 2752 C 261.715 1.86049 0.584009 0
M  V30 2753 O 260.985 1.34481 1.42449 0
M  V30 2754 H 259.565 0.671708 -0.326828 0
M  V30 2755 H 262.227 1.3256 -1.42877 0
M  V30 2756 H 261.323 2.84612 -1.28071 0
M  V30 2757 N 261.624 0.925811 1.2754 0
M  V30 2758 C 262.534 0.428993 2.30644 0
M  V30 2759 C 263.55 -0.489387 1.66976 0
M  V30 2760 O 264.726 -0.372653 1.97922 0
M  V30 2761 C 261.791 -0.311967 3.45294 0
M  V30 2762 C 260.852 0.641098 4.24486 0
M  V30 2763 C 260.085 -0.0645955 5.33661 0
M  V30 2764 O 260.308 -1.28429 5.55754 0
M  V30 2765 O 259.242 0.606265 5.98839 0
M  V30 2766 H 263.068 1.28504 2.75173 0
M  V30 2767 H 260.653 0.691086 1.32455 0
M  V30 2768 H 262.535 -0.729972 4.15029 0
M  V30 2769 H 261.21 -1.14365 3.02824 0
M  V30 2770 H 260.117 1.10874 3.57292 0
M  V30 2771 H 261.45 1.43995 4.70666 0
M  V30 2772 N 263.102 -1.41638 0.69111 0
M  V30 2773 C 264.33 -2.05628 0.22909 0
M  V30 2774 C 264.745 -1.51992 -1.11999 0
M  V30 2775 O 264.102 -0.666322 -1.69901 0
M  V30 2776 C 264.153 -3.61084 0.173283 0
M  V30 2777 O 263.874 -4.12735 1.46907 0
M  V30 2778 C 265.375 -4.42213 -0.310266 0
M  V30 2779 H 262.595 -0.662327 0.107534 0
M  V30 2780 H 265.139 -1.81489 0.942438 0
M  V30 2781 H 263.294 -3.84278 -0.490858 0
M  V30 2782 H 263.708 -5.06743 1.35322 0
M  V30 2783 H 265.182 -5.51194 -0.298196 0
M  V30 2784 H 265.659 -4.1799 -1.34838 0
M  V30 2785 H 266.265 -4.24074 0.322716 0
M  V30 2786 N 264.58 -0.43555 -1.51462 0
M  V30 2787 C 265.991 0.0279871 -1.86679 0
M  V30 2788 C 266.342 1.42104 -1.35281 0
M  V30 2789 O 265.467 2.04667 -0.702878 0
M  V30 2790 C 266.062 0.0575626 -3.38751 0
M  V30 2791 C 264.621 0.465507 -3.7351 0
M  V30 2792 C 263.768 -0.342996 -2.75171 0
M  V30 2793 H 266.719 -0.651473 -1.44712 0
M  V30 2794 H 266.74 0.867421 -3.70481 0
M  V30 2795 H 266.252 -0.956448 -3.7613 0
M  V30 2796 H 264.353 1.48519 -3.41721 0
M  V30 2797 H 264.466 0.191546 -4.78717 0
M  V30 2798 H 262.83 0.198442 -2.53926 0
M  V30 2799 H 263.613 -1.35585 -3.15391 0
M  V30 2800 N 266.058 1.56714 -0.166846 0
M  V30 2801 C 267.335 1.88412 0.525373 0
M  V30 2802 C 267.715 1.07602 1.81618 0
M  V30 2803 O 267.063 0.168621 2.27877 0
M  V30 2804 C 267.273 3.40363 0.771613 0
M  V30 2805 C 268.621 4.10007 1.1036 0
M  V30 2806 O 269.645 3.45655 0.860304 0
M  V30 2807 O 268.504 5.2369 1.56239 0
M  V30 2808 H 265.598 0.781587 0.270278 0
M  V30 2809 H 268.144 1.68458 -0.204946 0
M  V30 2810 H 266.916 3.91046 -0.141093 0
M  V30 2811 H 266.539 3.65914 1.55541 0
M  V30 2812 N 267.536 -0.106894 1.57237 0
M  V30 2813 C 268.947 -0.662723 1.74542 0
M  V30 2814 C 269.298 -1.7971 0.787319 0
M  V30 2815 O 268.423 -2.16368 -0.0369636 0
M  V30 2816 C 269.018 -1.20896 3.16496 0
M  V30 2817 C 267.577 -1.71096 3.35266 0
M  V30 2818 C 266.724 -0.615642 2.7038 0
M  V30 2819 H 269.675 0.119106 1.58252 0
M  V30 2820 H 269.696 -2.07847 3.18716 0
M  V30 2821 H 269.208 -0.383122 3.86204 0
M  V30 2822 H 267.309 -2.56119 2.70618 0
M  V30 2823 H 267.422 -1.81208 4.43509 0
M  V30 2824 H 265.786 -1.05222 2.31949 0
M  V30 2825 H 266.569 0.199419 3.4272 0
M  V30 2826 N 269.014 -1.53014 -0.377408 0
M  V30 2827 C 269.924 -1.81557 -1.48574 0
M  V30 2828 C 270.94 -0.703102 -1.59162 0
M  V30 2829 O 272.116 -0.99192 -1.75279 0
M  V30 2830 C 269.181 -1.9889 -2.83978 0
M  V30 2831 C 268.242 -3.22801 -2.83016 0
M  V30 2832 C 267.475 -3.39298 -4.11962 0
M  V30 2833 O 267.698 -2.60345 -5.0752 0
M  V30 2834 O 266.632 -4.32604 -4.18494 0
M  V30 2835 H 270.458 -2.75695 -1.27382 0
M  V30 2836 H 268.043 -1.38248 -0.566373 0
M  V30 2837 H 269.925 -2.11931 -3.6423 0
M  V30 2838 H 268.6 -1.07942 -3.05172 0
M  V30 2839 H 267.507 -3.15193 -2.01505 0
M  V30 2840 H 268.84 -4.13632 -2.66775 0
M  V30 2841 N 270.492 0.636531 -1.44174 0
M  V30 2842 C 271.769 1.39463 -1.37148 0
M  V30 2843 C 272.149 2.11082 -0.027507 0
M  V30 2844 O 271.497 2.05954 0.989716 0
M  V30 2845 C 271.707 2.36552 -2.56601 0
M  V30 2846 C 273.055 3.00048 -3.00427 0
M  V30 2847 O 274.079 2.46878 -2.56767 0
M  V30 2848 O 272.938 3.96488 -3.76111 0
M  V30 2849 H 270.032 0.623903 -0.542839 0
M  V30 2850 H 272.578 0.662039 -1.56253 0
M  V30 2851 H 271.35 1.82692 -3.46034 0
M  V30 2852 H 270.973 3.17236 -2.39681 0
M  V30 2853 N 271.97 1.30982 0.876444 0
M  V30 2854 C 273.381 1.18277 1.44456 0
M  V30 2855 C 273.732 -0.213265 1.95037 0
M  V30 2856 O 272.857 -1.11057 1.85729 0
M  V30 2857 C 273.452 2.1411 2.62569 0
M  V30 2858 C 272.011 2.05358 3.15444 0
M  V30 2859 C 271.158 2.03706 1.88146 0
M  V30 2860 H 274.109 1.43127 0.685584 0
M  V30 2861 H 274.13 1.72692 3.39054 0
M  V30 2862 H 273.642 3.15706 2.25724 0
M  V30 2863 H 271.743 1.06934 3.56926 0
M  V30 2864 H 271.856 2.94156 3.78166 0
M  V30 2865 H 270.22 1.48629 2.06837 0
M  V30 2866 H 271.003 3.07047 1.53547 0
M  V30 2867 N 273.449 -1.08991 1.13837 0
M  V30 2868 C 274.674 -1.85551 0.926585 0
M  V30 2869 C 275.099 -1.80782 -0.519566 0
M  V30 2870 O 274.457 -1.18855 -1.36906 0
M  V30 2871 C 274.505 -3.31266 1.42462 0
M  V30 2872 O 273.609 -4.07822 0.612789 0
M  V30 2873 H 272.95 -0.575192 0.331738 0
M  V30 2874 H 275.48 -1.37604 1.51414 0
M  V30 2875 H 275.49 -3.82112 1.43019 0
M  V30 2876 H 274.165 -3.34052 2.47754 0
M  V30 2877 H 272.742 -3.66731 0.675463 0
M  V30 2878 N 274.927 -0.932562 -1.27047 0
M  V30 2879 C 276.343 -0.633544 -1.46487 0
M  V30 2880 C 276.543 0.815746 -1.84249 0
M  V30 2881 O 275.599 1.59319 -1.95892 0
M  V30 2882 C 276.912 -1.58758 -2.55375 0
M  V30 2883 C 278.46 -1.59634 -2.69232 0
M  V30 2884 C 278.935 -2.53747 -3.81283 0
M  V30 2885 N 280.426 -2.51982 -3.88664 0
M  V30 2886 C 281.161 -3.21491 -4.74796 0
M  V30 2887 N 280.657 -4.00395 -5.65381 0
M  V30 2888 N 282.45 -3.10485 -4.68568 0
M  V30 2889 H 274.601 -1.86946 -1.00821 0
M  V30 2890 H 276.864 -0.802897 -0.504044 0
M  V30 2891 H 276.57 -2.62172 -2.34432 0
M  V30 2892 H 276.444 -1.33301 -3.52861 0
M  V30 2893 H 278.831 -0.569488 -2.89553 0
M  V30 2894 H 278.912 -1.89142 -1.72218 0
M  V30 2895 H 278.556 -3.56545 -3.61715 0
M  V30 2896 H 278.486 -2.21532 -4.77735 0
M  V30 2897 H 280.977 -1.94681 -3.23895 0
M  V30 2898 H 281.29 -4.50406 -6.27976 0
M  V30 2899 H 279.635 -4.04498 -5.65161 0
M  V30 2900 H 282.826 -2.48331 -3.96799 0
M  V30 2901 H 282.999 -3.64925 -5.35475 0
M  V30 2902 N 276.405 1.4127 -0.698611 0
M  V30 2903 C 277.352 2.30773 -0.0352094 0
M  V30 2904 C 278.322 1.47273 0.768111 0
M  V30 2905 O 279.507 1.76053 0.735524 0
M  V30 2906 C 276.647 3.33346 0.893 0
M  V30 2907 C 275.76 4.31924 0.0809695 0
M  V30 2908 C 274.895 5.21566 1.0071 0
M  V30 2909 C 273.934 6.11811 0.188155 0
M  V30 2910 N 273.071 6.93926 1.06825 0
M  V30 2911 H 277.911 2.86943 -0.804207 0
M  V30 2912 H 275.448 1.4132 -0.408294 0
M  V30 2913 H 277.406 3.91368 1.44523 0
M  V30 2914 H 276.036 2.78719 1.62836 0
M  V30 2915 H 275.088 3.75825 -0.588224 0
M  V30 2916 H 276.4 4.95716 -0.553801 0
M  V30 2917 H 275.554 5.84437 1.62845 0
M  V30 2918 H 274.293 4.58008 1.67572 0
M  V30 2919 H 273.298 5.47986 -0.446254 0
M  V30 2920 H 274.523 6.77425 -0.476716 0
M  V30 2921 H 272.469 6.32973 1.72283 0
M  V30 2922 H 272.386 7.54416 0.489123 0
M  V30 2923 H 273.654 7.61262 1.67632 0
M  V30 2924 N 277.883 0.443576 1.51229 0
M  V30 2925 C 279.132 -0.122332 2.01329 0
M  V30 2926 C 279.445 -1.43237 1.33201 0
M  V30 2927 O 280.651 -2.0816 1.74304 0
M  V30 2928 C 279.107 -0.268551 3.58897 0
M  V30 2929 C 278.715 1.03142 4.35965 0
M  V30 2930 C 280.459 -0.787894 4.17124 0
M  V30 2931 C 278.366 0.850504 5.85252 0
M  V30 2932 H 277.296 -0.0494929 0.752374 0
M  V30 2933 H 279.947 0.574289 1.74282 0
M  V30 2934 H 278.329 -1.02832 3.82415 0
M  V30 2935 H 279.503 1.80001 4.24189 0
M  V30 2936 H 277.818 1.47977 3.89219 0
M  V30 2937 H 280.415 -0.939841 5.26375 0
M  V30 2938 H 280.758 -1.77201 3.76703 0
M  V30 2939 H 281.291 -0.0862669 3.97706 0
M  V30 2940 H 278.03 1.80718 6.30096 0
M  V30 2941 H 277.55 0.121825 5.99676 0
M  V30 2942 H 279.229 0.506163 6.45017 0
M  V30 2943 N 279.361 -1.56624 0.175154 0
M  V30 2944 C 280.591 -2.01082 -0.474283 0
M  V30 2945 C 280.999 -1.05447 -1.57091 0
M  V30 2946 O 280.342 -0.0480595 -1.83637 0
M  V30 2947 C 280.404 -3.41963 -1.10911 0
M  V30 2948 C 280.068 -4.56742 -0.153666 0
M  V30 2949 C 281.065 -5.16076 0.629448 0
M  V30 2950 C 278.75 -5.02277 -0.0483776 0
M  V30 2951 C 280.744 -6.19377 1.50501 0
M  V30 2952 C 278.431 -6.05427 0.830768 0
M  V30 2953 C 279.429 -6.63849 1.60605 0
M  V30 2954 O 279.117 -7.64998 2.47049 0
M  V30 2955 H 278.849 -0.664261 -0.125432 0
M  V30 2956 H 281.403 -2.03549 0.275163 0
M  V30 2957 H 279.633 -3.36422 -1.90676 0
M  V30 2958 H 281.322 -3.70352 -1.66114 0
M  V30 2959 H 282.088 -4.81776 0.558297 0
M  V30 2960 H 277.967 -4.56513 -0.641611 0
M  V30 2961 H 281.511 -6.64906 2.1106 0
M  V30 2962 H 277.408 -6.39151 0.903107 0
M  V30 2963 H 278.176 -7.82336 2.40607 0
M  V30 2964 N 280.839 0.0985539 -1.57292 0
M  V30 2965 C 281.786 1.11981 -2.01814 0
M  V30 2966 C 282.756 1.39999 -0.89384 0
M  V30 2967 O 283.941 1.5152 -1.15958 0
M  V30 2968 C 281.081 2.43577 -2.44467 0
M  V30 2969 C 280.194 2.2232 -3.70402 0
M  V30 2970 C 279.329 3.4729 -4.01949 0
M  V30 2971 C 278.368 3.2128 -5.21005 0
M  V30 2972 N 277.505 4.38507 -5.48321 0
M  V30 2973 H 282.345 0.733149 -2.88841 0
M  V30 2974 H 279.882 0.350482 -1.42864 0
M  V30 2975 H 281.84 3.20373 -2.6724 0
M  V30 2976 H 280.47 2.80097 -1.60455 0
M  V30 2977 H 279.522 1.36343 -3.55126 0
M  V30 2978 H 280.834 1.99089 -4.57345 0
M  V30 2979 H 279.988 4.32495 -4.25479 0
M  V30 2980 H 278.727 3.73572 -3.13521 0
M  V30 2981 H 277.732 2.34468 -4.97298 0
M  V30 2982 H 278.957 2.96348 -6.11028 0
M  V30 2983 H 276.903 4.64871 -4.62851 0
M  V30 2984 H 276.82 4.18455 -6.29628 0
M  V30 2985 H 278.088 5.24787 -5.76385 0
M  V30 2986 N 282.317 1.53212 0.369288 0
M  V30 2987 C 283.564 1.69215 1.11232 0
M  V30 2988 C 283.892 0.442048 1.8941 0
M  V30 2989 O 283.147 -0.575944 1.87033 0
M  V30 2990 C 283.446 2.89101 2.10132 0
M  V30 2991 C 283.112 4.25758 1.48463 0
M  V30 2992 C 281.774 4.6292 1.31372 0
M  V30 2993 C 284.126 5.10757 1.03811 0
M  V30 2994 C 281.454 5.82722 0.68207 0
M  V30 2995 C 283.806 6.31201 0.420487 0
M  V30 2996 C 282.47 6.67079 0.237038 0
M  V30 2997 H 281.74 0.619201 0.407027 0
M  V30 2998 H 284.387 1.87391 0.394552 0
M  V30 2999 H 282.692 2.65421 2.88199 0
M  V30 3000 H 284.389 2.98676 2.6757 0
M  V30 3001 H 280.979 3.96494 1.62758 0
M  V30 3002 H 285.163 4.82599 1.1581 0
M  V30 3003 H 280.419 6.09113 0.528316 0
M  V30 3004 H 284.593 6.96368 0.0662874 0
M  V30 3005 H 282.22 7.59774 -0.254477 0
M  V30 3006 N 283.795 -0.628877 1.44509 0
M  V30 3007 C 285.044 -1.38437 1.4669 0
M  V30 3008 C 285.357 -1.95322 0.104272 0
M  V30 3009 O 286.563 -2.715 0.00362163 0
M  V30 3010 C 285.019 -2.50659 2.5826 0
M  V30 3011 C 284.627 -2.00277 4.0074 0
M  V30 3012 C 286.371 -3.27844 2.69664 0
M  V30 3013 C 284.278 -3.09854 5.0373 0
M  V30 3014 H 283.208 -0.520245 0.545766 0
M  V30 3015 H 285.859 -0.676313 1.70582 0
M  V30 3016 H 284.241 -3.2405 2.27612 0
M  V30 3017 H 285.415 -1.33736 4.40966 0
M  V30 3018 H 283.73 -1.35901 3.93599 0
M  V30 3019 H 286.327 -4.09534 3.43781 0
M  V30 3020 H 286.67 -3.77471 1.75559 0
M  V30 3021 H 287.203 -2.61543 2.99733 0
M  V30 3022 H 283.942 -2.65168 5.99472 0
M  V30 3023 H 283.462 -3.7503 4.68095 0
M  V30 3024 H 285.141 -3.74592 5.27532 0
M  V30 3025 N 285.273 -1.31445 -0.869486 0
M  V30 3026 C 286.205 -1.14955 -1.98287 0
M  V30 3027 C 287.218 -0.0885037 -1.62559 0
M  V30 3028 O 288.407 -0.336044 -1.75308 0
M  V30 3029 C 285.507 -0.734255 -3.3085 0
M  V30 3030 C 284.68 -1.88042 -3.94917 0
M  V30 3031 C 283.739 -1.4511 -5.05796 0
M  V30 3032 O 282.765 -2.16082 -5.2659 0
M  V30 3033 N 283.967 -0.338763 -5.79511 0
M  V30 3034 H 286.732 -2.10856 -2.12979 0
M  V30 3035 H 284.293 -1.23786 -1.04349 0
M  V30 3036 H 286.285 -0.42975 -4.02412 0
M  V30 3037 H 284.855 0.133158 -3.12316 0
M  V30 3038 H 284.075 -2.35222 -3.1633 0
M  V30 3039 H 285.363 -2.6481 -4.34457 0
M  V30 3040 H 284.761 0.252274 -5.65137 0
M  V30 3041 H 283.318 -0.0937925 -6.51733 0
M  V30 3042 N 286.751 1.08385 -1.14413 0
M  V30 3043 C 287.698 2.15311 -0.831265 0
M  V30 3044 C 288.668 1.64751 0.211292 0
M  V30 3045 O 289.853 1.90627 0.0811674 0
M  V30 3046 C 286.993 3.43658 -0.315143 0
M  V30 3047 C 286.106 4.08064 -1.41802 0
M  V30 3048 C 285.241 5.24207 -0.859126 0
M  V30 3049 C 284.28 5.80554 -1.93967 0
M  V30 3050 N 283.417 6.88042 -1.39793 0
M  V30 3051 H 288.257 2.41415 -1.74708 0
M  V30 3052 H 285.794 1.18474 -0.871909 0
M  V30 3053 H 287.752 4.172 0.00230884 0
M  V30 3054 H 286.382 3.17839 0.56378 0
M  V30 3055 H 285.434 3.3228 -1.85187 0
M  V30 3056 H 286.746 4.45962 -2.23427 0
M  V30 3057 H 285.9 6.04689 -0.49359 0
M  V30 3058 H 284.639 4.87699 -0.011932 0
M  V30 3059 H 283.644 4.98725 -2.31415 0
M  V30 3060 H 284.869 6.19121 -2.79046 0
M  V30 3061 H 282.815 6.53493 -0.572919 0
M  V30 3062 H 282.732 7.24767 -2.15054 0
M  V30 3063 H 284 7.72255 -1.0603 0
M  V30 3064 N 288.23 0.939286 1.26551 0
M  V30 3065 C 289.476 0.586715 1.94128 0
M  V30 3066 C 289.809 -0.8717 1.73537 0
M  V30 3067 O 289.084 -1.62339 1.07127 0
M  V30 3068 C 289.367 0.927497 3.4795 0
M  V30 3069 C 289.22 2.44052 3.77834 0
M  V30 3070 C 290.539 0.441569 4.37879 0
M  V30 3071 H 287.658 0.21463 0.705055 0
M  V30 3072 H 290.3 1.17316 1.49455 0
M  V30 3073 H 288.45 0.428431 3.8613 0
M  V30 3074 H 290.122 3.01216 3.4938 0
M  V30 3075 H 288.365 2.8848 3.23978 0
M  V30 3076 H 289.036 2.62947 4.85348 0
M  V30 3077 H 291.512 0.869448 4.06915 0
M  V30 3078 H 290.388 0.708856 5.44304 0
M  V30 3079 H 290.649 -0.658467 4.37169 0
M  V30 3080 N 289.708 -1.40897 0.706093 0
M  V30 3081 C 291.119 -1.84023 0.315052 0
M  V30 3082 C 291.47 -1.5906 -1.14866 0
M  V30 3083 O 290.595 -1.06651 -1.88293 0
M  V30 3084 C 291.19 -3.34055 0.565038 0
M  V30 3085 C 289.749 -3.7571 0.227806 0
M  V30 3086 C 288.896 -2.64204 0.842122 0
M  V30 3087 H 291.847 -1.303 0.905963 0
M  V30 3088 H 291.868 -3.80107 -0.172843 0
M  V30 3089 H 291.38 -3.52192 1.63042 0
M  V30 3090 H 289.481 -3.63172 -0.832895 0
M  V30 3091 H 289.594 -4.74103 0.690174 0
M  V30 3092 H 287.958 -2.53255 0.270893 0
M  V30 3093 H 288.741 -2.85155 1.91158 0
M  V30 3094 N 291.186 -0.45159 -1.50991 0
M  V30 3095 C 292.435 0.111653 -2.01391 0
M  V30 3096 C 292.748 1.42529 -1.33959 0
M  V30 3097 O 293.954 2.07232 -1.75405 0
M  V30 3098 C 292.41 0.249514 -3.59034 0
M  V30 3099 C 292.018 -1.05453 -4.35412 0
M  V30 3100 C 293.762 0.765762 -4.17536 0
M  V30 3101 C 291.669 -0.881529 -5.84793 0
M  V30 3102 H 290.599 0.0455022 -0.752626 0
M  V30 3103 H 293.25 -0.583524 -1.73975 0
M  V30 3104 H 291.632 1.00803 -3.82955 0
M  V30 3105 H 292.806 -1.82248 -4.23229 0
M  V30 3106 H 291.121 -1.50039 -3.88429 0
M  V30 3107 H 293.718 0.911913 -5.26866 0
M  V30 3108 H 294.061 1.75201 -3.77638 0
M  V30 3109 H 294.594 0.0651744 -3.97747 0
M  V30 3110 H 291.333 -1.84057 -6.29129 0
M  V30 3111 H 290.853 -0.153625 -5.99603 0
M  V30 3112 H 292.532 -0.540363 -6.4474 0
M  V30 3113 N 292.664 1.56529 -0.183458 0
M  V30 3114 C 294.075 1.83739 0.331177 0
M  V30 3115 C 294.426 1.10373 1.62211 0
M  V30 3116 O 293.551 0.36071 2.13373 0
M  V30 3117 C 294.146 3.33306 0.607646 0
M  V30 3118 C 292.705 3.60969 1.06668 0
M  V30 3119 C 291.852 2.77086 0.109029 0
M  V30 3120 H 294.803 1.53379 -0.407484 0
M  V30 3121 H 294.824 3.51444 1.45832 0
M  V30 3122 H 294.336 3.86677 -0.332086 0
M  V30 3123 H 292.437 3.13021 2.0211 0
M  V30 3124 H 292.55 4.69231 0.967447 0
M  V30 3125 H 290.914 2.47319 0.608714 0
M  V30 3126 H 291.697 3.33241 -0.82494 0
M  V30 3127 N 294.142 -0.090211 1.57342 0
M  V30 3128 C 295.382 -0.798365 1.88163 0
M  V30 3129 C 295.746 -1.75662 0.775046 0
M  V30 3130 O 296.947 -2.50849 0.965816 0
M  V30 3131 C 295.218 -1.50376 3.24225 0
M  V30 3132 S 296.777 -2.24952 3.76752 0
M  V30 3133 H 293.595 -0.265883 0.659414 0
M  V30 3134 H 296.197 -0.055264 1.95422 0
M  V30 3135 H 294.901 -0.792286 4.0268 0
M  V30 3136 H 294.432 -2.28666 3.20118 0
M  V30 3137 H 296.447 -3.51173 3.5056 0
M  V30 3138 N 295.62 -1.53406 -0.361157 0
M  V30 3139 C 296.85 -1.73465 -1.1222 0
M  V30 3140 C 297.258 -0.465486 -1.83384 0
M  V30 3141 O 296.601 0.571611 -1.7458 0
M  V30 3142 C 296.663 -2.84834 -2.19339 0
M  V30 3143 C 296.327 -4.25038 -1.67903 0
M  V30 3144 C 297.324 -5.07231 -1.14074 0
M  V30 3145 C 295.009 -4.71464 -1.73282 0
M  V30 3146 C 297.003 -6.33942 -0.663068 0
M  V30 3147 C 294.69 -5.98153 -1.25127 0
M  V30 3148 C 295.688 -6.79223 -0.717296 0
M  V30 3149 O 295.376 -8.03533 -0.242865 0
M  V30 3150 H 295.108 -0.583526 -0.341283 0
M  V30 3151 H 297.662 -2.00964 -0.424591 0
M  V30 3152 H 295.892 -2.5282 -2.92607 0
M  V30 3153 H 297.581 -2.9303 -2.80871 0
M  V30 3154 H 298.347 -4.72534 -1.09254 0
M  V30 3155 H 294.226 -4.08432 -2.13786 0
M  V30 3156 H 297.77 -6.97167 -0.245612 0
M  V30 3157 H 293.667 -6.32347 -1.29642 0
M  V30 3158 H 294.435 -8.177 -0.361786 0
M  V30 3159 N 297.098 0.621204 -1.44841 0
M  V30 3160 C 298.028 1.74366 -1.55303 0
M  V30 3161 C 299.009 1.65199 -0.405385 0
M  V30 3162 O 300.194 1.83807 -0.626787 0
M  V30 3163 C 297.324 3.12931 -1.50637 0
M  V30 3164 C 296.278 3.36896 -2.63979 0
M  V30 3165 C 295.604 4.75594 -2.44366 0
M  V30 3166 C 296.904 3.28483 -4.06074 0
M  V30 3167 H 298.598 1.65867 -2.49256 0
M  V30 3168 H 296.144 0.796558 -1.19962 0
M  V30 3169 H 298.097 3.9124 -1.56555 0
M  V30 3170 H 296.821 3.22237 -0.532057 0
M  V30 3171 H 295.48 2.60972 -2.57467 0
M  V30 3172 H 295.128 4.81616 -1.45105 0
M  V30 3173 H 294.828 4.92586 -3.20364 0
M  V30 3174 H 296.352 5.5612 -2.52117 0
M  V30 3175 H 297.766 3.96684 -4.13902 0
M  V30 3176 H 296.163 3.57008 -4.82354 0
M  V30 3177 H 297.233 2.26133 -4.28943 0
M  V30 3178 N 298.576 1.31904 0.862503 0
M  V30 3179 C 299.825 1.21373 1.61094 0
M  V30 3180 C 300.138 -0.22504 1.94301 0
M  V30 3181 O 301.344 -0.452121 2.67709 0
M  V30 3182 C 299.8 2.12525 2.9045 0
M  V30 3183 C 299.408 3.61441 2.64697 0
M  V30 3184 C 301.152 2.10813 3.68454 0
M  V30 3185 C 299.059 4.44578 3.90006 0
M  V30 3186 H 297.989 0.450705 0.604468 0
M  V30 3187 H 300.64 1.56811 0.953027 0
M  V30 3188 H 299.022 1.69994 3.57656 0
M  V30 3189 H 300.196 4.12264 2.05851 0
M  V30 3190 H 298.511 3.65205 2.00036 0
M  V30 3191 H 301.108 2.70167 4.61426 0
M  V30 3192 H 301.451 1.09713 4.01583 0
M  V30 3193 H 301.984 2.51583 3.08141 0
M  V30 3194 H 298.723 5.46461 3.62023 0
M  V30 3195 H 298.243 3.98508 4.48276 0
M  V30 3196 H 299.922 4.57176 4.5782 0
M  V30 3197 N 300.054 -1.07777 1.14986 0
M  V30 3198 C 301.017 -2.13041 0.845358 0
M  V30 3199 C 302.017 -1.60071 -0.152931 0
M  V30 3200 O 303.207 -1.74033 0.0761879 0
M  V30 3201 C 300.339 -3.39896 0.261383 0
M  V30 3202 H 301.532 -2.41485 1.77834 0
M  V30 3203 H 299.085 -1.23595 0.956757 0
M  V30 3204 H 299.82 -3.17091 -0.68 0
M  V30 3205 H 299.605 -3.79642 0.980514 0
M  V30 3206 H 301.095 -4.17548 0.0657687 0
M  V30 3207 N 301.532 -0.945985 -1.26051 0
M  V30 3208 C 302.462 -0.477172 -2.28572 0
M  V30 3209 C 303.443 0.472032 -1.63419 0
M  V30 3210 O 304.628 0.372853 -1.90587 0
M  V30 3211 C 301.758 0.253975 -3.4637 0
M  V30 3212 C 300.712 -0.609135 -4.23643 0
M  V30 3213 C 300.038 0.252252 -5.34105 0
M  V30 3214 C 301.338 -1.8829 -4.8718 0
M  V30 3215 H 303.032 -1.33402 -2.68038 0
M  V30 3216 H 300.578 -0.642904 -1.28852 0
M  V30 3217 H 302.531 0.593016 -4.17207 0
M  V30 3218 H 301.255 1.145 -3.05871 0
M  V30 3219 H 299.914 -0.931138 -3.54578 0
M  V30 3220 H 299.562 1.14278 -4.89846 0
M  V30 3221 H 299.262 -0.32188 -5.86718 0
M  V30 3222 H 300.786 0.586454 -6.07777 0
M  V30 3223 H 302.2 -1.61081 -5.50205 0
M  V30 3224 H 300.597 -2.40199 -5.49931 0
M  V30 3225 H 301.667 -2.59134 -4.09851 0
M  V30 3226 N 303.011 1.40521 -0.713556 0
M  V30 3227 C 304.257 2.01221 -0.252564 0
M  V30 3228 C 304.59 1.56444 1.1506 0
M  V30 3229 O 303.865 0.783597 1.78017 0
M  V30 3230 C 304.148 3.58582 -0.330332 0
M  V30 3231 C 304.001 4.13437 -1.77173 0
M  V30 3232 C 305.32 4.39079 0.299641 0
M  V30 3233 H 302.439 0.731077 -0.0932471 0
M  V30 3234 H 305.081 1.67026 -0.905673 0
M  V30 3235 H 303.231 3.87844 0.225737 0
M  V30 3236 H 304.903 3.9498 -2.38303 0
M  V30 3237 H 303.146 3.67801 -2.3001 0
M  V30 3238 H 303.817 5.22597 -1.77755 0
M  V30 3239 H 306.293 4.15735 -0.174139 0
M  V30 3240 H 305.169 5.4848 0.214771 0
M  V30 3241 H 305.43 4.19915 1.38288 0
M  V30 3242 N 304.489 0.459591 1.5075 0
M  V30 3243 C 305.735 -0.0994966 2.02556 0
M  V30 3244 C 306.068 -1.40399 1.3417 0
M  V30 3245 O 305.343 -1.88892 0.463683 0
M  V30 3246 C 305.626 -0.295242 3.58888 0
M  V30 3247 C 305.479 1.02947 4.37861 0
M  V30 3248 C 306.798 -1.05502 4.27267 0
M  V30 3249 H 303.917 -0.034686 0.736183 0
M  V30 3250 H 306.559 0.602938 1.8018 0
M  V30 3251 H 304.709 -0.893563 3.78084 0
M  V30 3252 H 306.381 1.66348 4.30263 0
M  V30 3253 H 304.624 1.62885 4.02058 0
M  V30 3254 H 305.295 0.846281 5.45474 0
M  V30 3255 H 307.771 -0.547993 4.12476 0
M  V30 3256 H 306.647 -1.16077 5.36486 0
M  V30 3257 H 306.908 -2.08875 3.89645 0
M  V30 3258 N 305.967 -1.56429 0.191757 0
M  V30 3259 C 307.215 -1.97095 -0.447006 0
M  V30 3260 C 307.536 -1.07967 -1.62383 0
M  V30 3261 O 306.806 -0.150248 -1.95323 0
M  V30 3262 H 305.386 -0.727832 -0.168135 0
M  V30 3263 H 308.048 -1.92911 0.27771 0
M  V30 3264 H 307.144 -3.01848 -0.793371 0
M  V30 3265 N 307.445 0.0818655 -1.57387 0
M  V30 3266 C 308.408 1.08265 -2.02018 0
M  V30 3267 C 309.408 1.32183 -0.915664 0
M  V30 3268 O 310.598 1.28073 -1.18081 0
M  V30 3269 C 307.73 2.42871 -2.39221 0
M  V30 3270 H 308.923 0.698204 -2.91659 0
M  V30 3271 H 306.476 0.327303 -1.52835 0
M  V30 3272 H 307.211 2.86167 -1.52575 0
M  V30 3273 H 306.996 2.26855 -3.19811 0
M  V30 3274 H 308.486 3.14826 -2.74362 0
M  V30 3275 N 308.923 1.53595 0.353017 0
M  V30 3276 C 309.853 1.83902 1.43883 0
M  V30 3277 C 310.834 0.693421 1.55324 0
M  V30 3278 O 312.019 0.944452 1.69687 0
M  V30 3279 C 309.149 2.04016 2.8106 0
M  V30 3280 C 308.103 3.19814 2.84434 0
M  V30 3281 C 307.429 3.25244 4.24406 0
M  V30 3282 C 308.729 4.58133 2.50822 0
M  V30 3283 H 310.423 2.74835 1.1877 0
M  V30 3284 H 307.969 1.32242 0.569917 0
M  V30 3285 H 309.922 2.238 3.57059 0
M  V30 3286 H 308.646 1.09804 3.07588 0
M  V30 3287 H 307.305 2.9987 2.10887 0
M  V30 3288 H 306.953 2.28646 4.48029 0
M  V30 3289 H 306.653 4.03054 4.27576 0
M  V30 3290 H 308.177 3.47228 5.0226 0
M  V30 3291 H 309.591 4.77995 3.16534 0
M  V30 3292 H 307.988 5.38276 2.6529 0
M  V30 3293 H 309.058 4.62387 1.46034 0
M  V30 3294 N 310.401 -0.613514 1.45168 0
M  V30 3295 C 311.311 -1.75296 1.55912 0
M  V30 3296 C 312.327 -1.68244 0.443856 0
M  V30 3297 O 313.503 -1.88706 0.70371 0
M  V30 3298 C 310.568 -3.1174 1.5172 0
M  V30 3299 C 309.629 -3.30291 2.74238 0
M  V30 3300 C 308.862 -4.60226 2.70236 0
M  V30 3301 O 309.085 -5.42168 1.77229 0
M  V30 3302 O 308.019 -4.81361 3.61352 0
M  V30 3303 H 311.845 -1.69183 2.52212 0
M  V30 3304 H 309.43 -0.776886 1.27612 0
M  V30 3305 H 311.312 -3.93044 1.51968 0
M  V30 3306 H 309.987 -3.18357 0.585697 0
M  V30 3307 H 308.894 -2.48598 2.79553 0
M  V30 3308 H 310.227 -3.28547 3.66494 0
M  V30 3309 N 311.879 -1.3236 -0.855495 0
M  V30 3310 C 313.104 -1.2601 -1.64731 0
M  V30 3311 C 313.529 0.169068 -1.87339 0
M  V30 3312 O 312.887 1.12016 -1.42556 0
M  V30 3313 C 312.935 -2.02417 -2.98429 0
M  V30 3314 O 312.039 -1.3714 -3.8893 0
M  V30 3315 H 311.38 -0.434325 -0.502253 0
M  V30 3316 H 313.91 -1.74661 -1.06558 0
M  V30 3317 H 313.92 -2.12559 -3.48257 0
M  V30 3318 H 312.595 -3.06343 -2.81295 0
M  V30 3319 H 311.172 -1.3554 -3.47395 0
M  V30 3320 N 313.357 1.07166 -1.15556 0
M  V30 3321 C 314.773 1.31899 -0.898603 0
M  V30 3322 C 314.973 1.96333 0.453383 0
M  V30 3323 O 314.029 2.22438 1.19489 0
M  V30 3324 C 315.342 2.20826 -2.04099 0
M  V30 3325 C 316.89 2.34269 -2.07574 0
M  V30 3326 C 317.365 3.26546 -3.21141 0
M  V30 3327 N 318.856 3.34127 -3.20801 0
M  V30 3328 C 319.591 4.05595 -4.05315 0
M  V30 3329 N 319.087 4.79661 -4.99897 0
M  V30 3330 N 320.88 4.01555 -3.93332 0
M  V30 3331 H 313.031 0.637302 -2.02613 0
M  V30 3332 H 315.294 0.343468 -0.883591 0
M  V30 3333 H 315 1.80744 -3.01703 0
M  V30 3334 H 314.874 3.21364 -1.97496 0
M  V30 3335 H 317.261 2.73603 -1.10568 0
M  V30 3336 H 317.342 1.33429 -2.18244 0
M  V30 3337 H 316.986 2.87931 -4.184 0
M  V30 3338 H 316.916 4.27345 -3.07708 0
M  V30 3339 H 319.407 2.81336 -2.52306 0
M  V30 3340 H 319.72 5.31694 -5.60822 0
M  V30 3341 H 318.065 4.78671 -5.03884 0
M  V30 3342 H 321.256 3.42806 -3.18751 0
M  V30 3343 H 321.429 4.56987 -4.5942 0
M  V30 3344 N 314.835 0.952656 1.25548 0
M  V30 3345 C 315.767 0.428609 2.25157 0
M  V30 3346 C 316.78 -0.454428 1.56329 0
M  V30 3347 O 317.969 -0.263023 1.76552 0
M  V30 3348 C 315.069 -0.401972 3.36508 0
M  V30 3349 C 314.242 0.467601 4.34893 0
M  V30 3350 C 313.301 -0.30445 5.25319 0
M  V30 3351 O 312.327 0.296473 5.68427 0
M  V30 3352 N 313.529 -1.59805 5.5807 0
M  V30 3353 H 316.294 1.28497 2.70756 0
M  V30 3354 H 313.855 0.822798 1.39433 0
M  V30 3355 H 315.847 -0.926134 3.9396 0
M  V30 3356 H 314.417 -1.15918 2.90313 0
M  V30 3357 H 313.637 1.17288 3.76347 0
M  V30 3358 H 314.925 1.06119 4.97611 0
M  V30 3359 H 314.323 -2.10823 5.24948 0
M  V30 3360 H 312.88 -2.06822 6.18116 0
M  V30 3361 N 316.313 -1.40141 0.720998 0
M  V30 3362 C 317.562 -2.0002 0.259804 0
M  V30 3363 C 317.875 -1.57839 -1.15526 0
M  V30 3364 O 319.081 -2.10455 -1.71525 0
M  V30 3365 C 317.537 -3.57516 0.413566 0
M  V30 3366 C 317.145 -4.08667 1.83562 0
M  V30 3367 C 318.889 -4.24498 0.0134387 0
M  V30 3368 C 316.796 -5.58686 1.93968 0
M  V30 3369 H 315.726 -0.748195 0.0933806 0
M  V30 3370 H 318.377 -1.60313 0.892866 0
M  V30 3371 H 316.759 -3.9495 -0.288169 0
M  V30 3372 H 317.933 -3.82598 2.56817 0
M  V30 3373 H 316.248 -3.543 2.1877 0
M  V30 3374 H 318.845 -5.34654 0.0703954 0
M  V30 3375 H 319.188 -4.03375 -1.02927 0
M  V30 3376 H 319.721 -3.92188 0.665815 0
M  V30 3377 H 316.46 -5.8467 2.96379 0
M  V30 3378 H 315.98 -5.86602 1.25131 0
M  V30 3379 H 317.659 -6.23875 1.71431 0
M  V30 3380 N 317.792 -0.46758 -1.50504 0
M  V30 3381 C 319.04 0.0884469 -2.01906 0
M  V30 3382 C 319.361 1.40532 -1.35188 0
M  V30 3383 O 318.631 1.89515 -0.496079 0
M  V30 3384 H 317.211 0.0356765 -0.746148 0
M  V30 3385 H 319.873 -0.6172 -1.84869 0
M  V30 3386 H 318.969 0.2425 -3.11156 0
M  V30 3387 N 319.27 1.56325 -0.20005 0
M  V30 3388 C 320.681 1.8408 0.31167 0
M  V30 3389 C 321.032 1.12087 1.61031 0
M  V30 3390 O 320.157 0.38332 2.12978 0
M  V30 3391 C 320.752 3.33932 0.57226 0
M  V30 3392 C 319.311 3.6208 1.02834 0
M  V30 3393 C 318.458 2.77186 0.079634 0
M  V30 3394 H 321.409 1.52939 -0.423729 0
M  V30 3395 H 321.43 3.52971 1.42096 0
M  V30 3396 H 320.942 3.86303 -0.37308 0
M  V30 3397 H 319.043 3.15147 1.98778 0
M  V30 3398 H 319.156 4.7023 0.917624 0
M  V30 3399 H 317.52 2.47951 0.582448 0
M  V30 3400 H 318.303 3.32347 -0.860238 0
M  V30 3401 N 320.748 -0.0735177 1.57428 0
M  V30 3402 C 322.164 -0.428264 1.53747 0
M  V30 3403 C 322.364 -1.79272 0.91998 0
M  V30 3404 O 321.42 -2.47051 0.521745 0
M  V30 3405 C 322.733 -0.370914 2.98404 0
M  V30 3406 C 324.281 -0.451224 3.0973 0
M  V30 3407 C 324.756 -0.4238 4.56035 0
M  V30 3408 N 326.247 -0.483925 4.60665 0
M  V30 3409 C 326.982 -0.484891 5.71346 0
M  V30 3410 N 326.478 -0.440775 6.91396 0
M  V30 3411 N 328.271 -0.531319 5.59583 0
M  V30 3412 H 320.422 0.819949 1.95935 0
M  V30 3413 H 322.685 0.307493 0.896745 0
M  V30 3414 H 322.391 0.564956 3.47133 0
M  V30 3415 H 322.265 -1.18176 3.5821 0
M  V30 3416 H 324.652 -1.37752 2.60976 0
M  V30 3417 H 324.733 0.388167 2.52838 0
M  V30 3418 H 324.377 0.498638 5.05446 0
M  V30 3419 H 324.307 -1.2807 5.10789 0
M  V30 3420 H 326.798 -0.522338 3.74273 0
M  V30 3421 H 327.111 -0.44539 7.71515 0
M  V30 3422 H 325.456 -0.40749 6.93804 0
M  V30 3423 H 328.647 -0.563464 4.64696 0
M  V30 3424 H 328.82 -0.528603 6.4584 0
M  V30 3425 N 322.226 -1.5378 -0.344866 0
M  V30 3426 C 323.454 -1.74899 -1.10534 0
M  V30 3427 C 323.869 -0.487534 -1.82397 0
M  V30 3428 O 323.226 0.540741 -1.74305 0
M  V30 3429 C 323.277 -2.92822 -2.11984 0
M  V30 3430 O 322.998 -4.14089 -1.43044 0
M  V30 3431 C 324.499 -3.25982 -3.00417 0
M  V30 3432 H 321.719 -0.584426 -0.329678 0
M  V30 3433 H 324.263 -2.006 -0.397474 0
M  V30 3434 H 322.418 -2.69457 -2.78338 0
M  V30 3435 H 322.832 -4.80272 -2.10805 0
M  V30 3436 H 324.306 -4.11848 -3.67539 0
M  V30 3437 H 324.783 -2.42228 -3.66363 0
M  V30 3438 H 325.389 -3.51349 -2.39654 0
M  V30 3439 N 323.704 0.605807 -1.45491 0
M  V30 3440 C 324.634 1.72709 -1.57143 0
M  V30 3441 C 325.615 1.6476 -0.422884 0
M  V30 3442 O 326.8 1.83132 -0.646247 0
M  V30 3443 C 323.93 3.11316 -1.53948 0
M  V30 3444 C 322.884 3.34077 -2.67537 0
M  V30 3445 C 322.21 4.72975 -2.49397 0
M  V30 3446 C 323.51 3.24158 -4.09535 0
M  V30 3447 H 325.204 1.63214 -2.51001 0
M  V30 3448 H 322.75 0.78379 -1.208 0
M  V30 3449 H 324.703 3.89557 -1.60696 0
M  V30 3450 H 323.427 3.21655 -0.566205 0
M  V30 3451 H 322.086 2.58227 -2.6022 0
M  V30 3452 H 321.734 4.8005 -1.50205 0
M  V30 3453 H 321.434 4.8916 -3.25571 0
M  V30 3454 H 322.958 5.53414 -2.58002 0
M  V30 3455 H 324.372 3.92271 -4.18086 0
M  V30 3456 H 322.769 3.51872 -4.86113 0
M  V30 3457 H 323.839 2.2157 -4.31317 0
M  V30 3458 N 325.182 1.32811 0.848464 0
M  V30 3459 C 326.428 1.23907 1.60546 0
M  V30 3460 C 326.761 -0.197161 1.93197 0
M  V30 3461 O 326.036 -1.13596 1.5788 0
M  V30 3462 C 326.319 2.10489 2.92175 0
M  V30 3463 C 326.172 3.62522 2.66266 0
M  V30 3464 C 327.491 1.97075 3.93509 0
M  V30 3465 H 324.61 0.451459 0.58254 0
M  V30 3466 H 327.252 1.62818 0.979296 0
M  V30 3467 H 325.402 1.77434 3.45614 0
M  V30 3468 H 327.074 4.05821 2.19334 0
M  V30 3469 H 325.317 3.84879 2.00126 0
M  V30 3470 H 325.988 4.18437 3.6002 0
M  V30 3471 H 328.464 2.26045 3.49346 0
M  V30 3472 H 327.34 2.59923 4.83457 0
M  V30 3473 H 327.601 0.940186 4.31987 0
M  V30 3474 N 326.66 -1.06551 1.16123 0
M  V30 3475 C 327.906 -1.79719 0.952505 0
M  V30 3476 C 328.261 -1.85396 -0.514385 0
M  V30 3477 O 327.554 -1.33263 -1.37665 0
M  V30 3478 C 327.748 -3.23911 1.51052 0
M  V30 3479 C 327.577 -3.32284 3.03013 0
M  V30 3480 C 326.347 -3.42371 3.71632 0
M  V30 3481 C 328.545 -3.22363 4.00732 0
M  V30 3482 N 326.527 -3.39732 5.11327 0
M  V30 3483 C 327.898 -3.26937 5.26794 0
M  V30 3484 C 329.953 -3.0623 3.92591 0
M  V30 3485 C 328.656 -3.17035 6.45663 0
M  V30 3486 C 330.682 -2.97665 5.11028 0
M  V30 3487 C 330.044 -3.02858 6.35969 0
M  V30 3488 H 326.143 -0.670585 0.402293 0
M  V30 3489 H 328.727 -1.27125 1.4747 0
M  V30 3490 H 326.898 -3.74907 1.01484 0
M  V30 3491 H 328.63 -3.85242 1.2398 0
M  V30 3492 H 325.385 -3.47058 3.22254 0
M  V30 3493 H 325.809 -3.41919 5.84312 0
M  V30 3494 H 330.451 -3.01063 2.96852 0
M  V30 3495 H 328.169 -3.2096 7.41627 0
M  V30 3496 H 331.755 -2.86273 5.06497 0
M  V30 3497 H 330.635 -2.96286 7.26075 0
M  V30 3498 N 328.138 -0.959301 -1.25041 0
M  V30 3499 C 329.363 -0.633507 -1.97488 0
M  V30 3500 C 329.788 0.788555 -1.70773 0
M  V30 3501 O 329.146 1.53394 -0.966431 0
M  V30 3502 C 329.194 -0.904057 -3.49083 0
M  V30 3503 O 328.298 0.0147939 -4.12397 0
M  V30 3504 H 327.639 -0.240368 -0.618966 0
M  V30 3505 H 330.169 -1.28717 -1.59038 0
M  V30 3506 H 330.179 -0.832203 -3.99423 0
M  V30 3507 H 328.854 -1.94048 -3.67856 0
M  V30 3508 H 327.431 -0.109664 -3.72739 0
M  V30 3509 N 329.616 1.39756 -0.72842 0
M  V30 3510 C 330.526 2.34444 -0.0855374 0
M  V30 3511 C 331.542 1.57976 0.729356 0
M  V30 3512 O 332.718 1.90301 0.659346 0
M  V30 3513 C 329.783 3.36965 0.815798 0
M  V30 3514 C 328.844 4.29299 -0.0105996 0
M  V30 3515 C 328.077 5.26923 0.84781 0
M  V30 3516 O 328.3 5.30859 2.08673 0
M  V30 3517 O 327.234 6.01249 0.279969 0
M  V30 3518 H 331.06 2.91065 -0.866892 0
M  V30 3519 H 328.645 1.4117 -0.48902 0
M  V30 3520 H 330.527 3.99804 1.33171 0
M  V30 3521 H 329.202 2.82739 1.57608 0
M  V30 3522 H 328.109 3.69703 -0.571877 0
M  V30 3523 H 329.442 4.86712 -0.73295 0
M  V30 3524 N 331.094 0.475555 1.50254 0
M  V30 3525 C 332.041 -0.316293 2.28622 0
M  V30 3526 C 333.011 -0.983227 1.33873 0
M  V30 3527 O 334.196 -0.994805 1.62814 0
M  V30 3528 C 331.336 -1.38975 3.1588 0
M  V30 3529 C 330.449 -0.737146 4.25664 0
M  V30 3530 C 329.584 -1.78887 5.00173 0
M  V30 3531 C 328.623 -1.11676 6.01826 0
M  V30 3532 N 327.76 -2.11154 6.69596 0
M  V30 3533 H 332.6 0.358297 2.95838 0
M  V30 3534 H 330.137 0.188541 1.45887 0
M  V30 3535 H 332.095 -2.02383 3.64825 0
M  V30 3536 H 330.725 -2.03344 2.50701 0
M  V30 3537 H 329.777 0.0096065 3.80399 0
M  V30 3538 H 331.089 -0.206816 4.98371 0
M  V30 3539 H 330.243 -2.49865 5.52859 0
M  V30 3540 H 328.982 -2.35302 4.27182 0
M  V30 3541 H 327.987 -0.392633 5.48396 0
M  V30 3542 H 329.212 -0.55945 6.76792 0
M  V30 3543 H 327.158 -2.66577 5.99394 0
M  V30 3544 H 327.075 -1.63118 7.38193 0
M  V30 3545 H 328.343 -2.81497 7.26897 0
M  V30 3546 N 332.573 -1.56217 0.208337 0
M  V30 3547 C 333.483 -2.23316 -0.718836 0
M  V30 3548 C 334.499 -1.23648 -1.22422 0
M  V30 3549 O 335.675 -1.56423 -1.26861 0
M  V30 3550 C 332.74 -2.88968 -1.91568 0
M  V30 3551 C 331.801 -4.03943 -1.45357 0
M  V30 3552 C 331.034 -4.66455 -2.59337 0
M  V30 3553 O 331.257 -4.27919 -3.77149 0
M  V30 3554 O 330.191 -5.55686 -2.31293 0
M  V30 3555 H 334.017 -3.03182 -0.177315 0
M  V30 3556 H 331.602 -1.49384 -0.0215402 0
M  V30 3557 H 333.484 -3.30455 -2.61491 0
M  V30 3558 H 332.159 -2.12071 -2.44556 0
M  V30 3559 H 331.066 -3.67052 -0.722746 0
M  V30 3560 H 332.399 -4.82543 -0.970219 0
M  V30 3561 N 334.051 0.0651679 -1.57465 0
M  V30 3562 C 334.983 1.10359 -2.00882 0
M  V30 3563 C 335.996 1.346 -0.915788 0
M  V30 3564 O 337.185 1.32723 -1.1936 0
M  V30 3565 C 334.285 2.45312 -2.33828 0
M  V30 3566 C 333.458 2.40934 -3.65061 0
M  V30 3567 C 332.517 3.58047 -3.85602 0
M  V30 3568 O 331.543 3.39175 -4.57109 0
M  V30 3569 N 332.745 4.78637 -3.28462 0
M  V30 3570 H 335.51 0.733807 -2.90578 0
M  V30 3571 H 333.071 0.253719 -1.599 0
M  V30 3572 H 335.063 3.22314 -2.44737 0
M  V30 3573 H 333.633 2.74267 -1.49988 0
M  V30 3574 H 332.853 1.49273 -3.64844 0
M  V30 3575 H 334.141 2.35117 -4.51218 0
M  V30 3576 H 333.539 4.96872 -2.70433 0
M  V30 3577 H 332.096 5.53127 -3.44809 0
M  V30 3578 N 335.529 1.53961 0.336706 0
M  V30 3579 C 336.775 1.7179 1.07777 0
M  V30 3580 C 337.108 0.483263 1.88091 0
M  V30 3581 O 336.383 -0.519747 1.87427 0
M  V30 3582 C 336.666 2.98558 2.01334 0
M  V30 3583 C 336.519 4.32245 1.24437 0
M  V30 3584 C 337.838 3.21023 3.01052 0
M  V30 3585 H 334.957 0.625089 0.390426 0
M  V30 3586 H 337.599 1.86641 0.35567 0
M  V30 3587 H 335.749 2.86028 2.62908 0
M  V30 3588 H 337.421 4.56637 0.654243 0
M  V30 3589 H 335.664 4.30344 0.546458 0
M  V30 3590 H 336.335 5.17137 1.93063 0
M  V30 3591 H 338.811 3.32929 2.49595 0
M  V30 3592 H 337.687 4.11104 3.6371 0
M  V30 3593 H 337.948 2.37637 3.72802 0
M  V30 3594 N 337.007 -0.598083 1.45811 0
M  V30 3595 C 337.917 -1.73632 1.57763 0
M  V30 3596 C 338.933 -1.67763 0.461676 0
M  V30 3597 O 340.109 -1.87949 0.723685 0
M  V30 3598 C 337.174 -3.10114 1.55018 0
M  V30 3599 C 336.235 -3.27364 2.77726 0
M  V30 3600 C 335.468 -4.57334 2.75102 0
M  V30 3601 O 335.691 -5.40258 1.8297 0
M  V30 3602 O 334.625 -4.77502 3.66437 0
M  V30 3603 H 338.451 -1.66498 2.53992 0
M  V30 3604 H 336.036 -0.763308 1.28429 0
M  V30 3605 H 337.918 -3.9141 1.56129 0
M  V30 3606 H 336.593 -3.17718 0.619431 0
M  V30 3607 H 335.5 -2.45619 2.82174 0
M  V30 3608 H 336.833 -3.24641 3.69958 0
M  V30 3609 N 338.485 -1.33259 -0.841409 0
M  V30 3610 C 339.432 -1.23302 -1.95103 0
M  V30 3611 C 340.402 -0.112204 -1.65721 0
M  V30 3612 O 341.587 -0.290038 -1.88583 0
M  V30 3613 C 338.727 -0.975583 -3.31023 0
M  V30 3614 C 337.84 -2.18243 -3.72819 0
M  V30 3615 C 336.975 -1.85936 -4.97595 0
M  V30 3616 C 336.014 -3.02866 -5.3192 0
M  V30 3617 N 335.151 -2.70565 -6.47873 0
M  V30 3618 H 339.991 -2.18207 -2.02952 0
M  V30 3619 H 337.528 -1.0851 -0.993173 0
M  V30 3620 H 339.486 -0.80677 -4.09325 0
M  V30 3621 H 338.116 -0.0632755 -3.22738 0
M  V30 3622 H 337.168 -2.46107 -2.90061 0
M  V30 3623 H 338.48 -3.05666 -3.94169 0
M  V30 3624 H 337.634 -1.65684 -5.83638 0
M  V30 3625 H 336.373 -0.957452 -4.78209 0
M  V30 3626 H 335.378 -3.23736 -4.44382 0
M  V30 3627 H 336.603 -3.93809 -5.53255 0
M  V30 3628 H 334.549 -1.8293 -6.29978 0
M  V30 3629 H 334.466 -3.51519 -6.69306 0
M  V30 3630 H 335.734 -2.53774 -7.37034 0
M  V30 3631 N 339.963 1.05934 -1.16686 0
M  V30 3632 C 341.188 1.83029 -0.975455 0
M  V30 3633 C 341.613 1.82096 0.471452 0
M  V30 3634 O 340.971 1.22443 1.33706 0
M  V30 3635 C 341.019 3.27372 -1.51195 0
M  V30 3636 O 340.123 4.06054 -0.720701 0
M  V30 3637 H 339.464 0.566194 -0.346872 0
M  V30 3638 H 341.994 1.33541 -1.55009 0
M  V30 3639 H 342.004 3.78186 -1.53099 0
M  V30 3640 H 340.679 3.27366 -2.56523 0
M  V30 3641 H 339.256 3.64812 -0.772458 0
M  V30 3642 N 341.441 0.965919 1.2453 0
M  V30 3643 C 342.404 0.499547 2.2369 0
M  V30 3644 C 343.404 -0.40294 1.5567 0
M  V30 3645 O 344.594 -0.19865 1.73064 0
M  V30 3646 C 341.726 -0.276792 3.39774 0
M  V30 3647 H 342.919 1.37613 2.66463 0
M  V30 3648 H 340.472 0.750324 1.37112 0
M  V30 3649 H 341.207 -1.17055 3.02438 0
M  V30 3650 H 340.992 0.370826 3.90343 0
M  V30 3651 H 342.482 -0.592175 4.1338 0
M  V30 3652 N 342.919 -1.39368 0.735821 0
M  V30 3653 C 344.149 -2.04498 0.293967 0
M  V30 3654 C 344.557 -1.55593 -1.07645 0
M  V30 3655 O 343.9 -0.716324 -1.69158 0
M  V30 3656 C 343.962 -3.58836 0.218342 0
M  V30 3657 C 343.626 -4.30721 1.52736 0
M  V30 3658 C 344.623 -4.57305 2.47322 0
M  V30 3659 C 342.308 -4.69251 1.79189 0
M  V30 3660 C 344.302 -5.21429 3.66593 0
M  V30 3661 C 341.989 -5.33104 2.98737 0
M  V30 3662 C 342.987 -5.59125 3.9226 0
M  V30 3663 O 342.675 -6.21653 5.09708 0
M  V30 3664 H 342.407 -0.664118 0.126189 0
M  V30 3665 H 344.961 -1.79385 1.00051 0
M  V30 3666 H 343.191 -3.8285 -0.544314 0
M  V30 3667 H 344.88 -4.05447 -0.191626 0
M  V30 3668 H 345.646 -4.27983 2.28156 0
M  V30 3669 H 341.525 -4.48354 1.07239 0
M  V30 3670 H 345.069 -5.41656 4.39607 0
M  V30 3671 H 340.966 -5.61846 3.17803 0
M  V30 3672 H 341.734 -6.40146 5.10054 0
M  V30 3673 N 344.397 -0.483516 -1.5 0
M  V30 3674 C 345.307 0.309172 -2.32554 0
M  V30 3675 C 346.323 0.984159 -1.43493 0
M  V30 3676 O 347.499 0.969399 -1.76535 0
M  V30 3677 C 344.564 1.36979 -3.18493 0
M  V30 3678 C 343.625 0.710095 -4.23387 0
M  V30 3679 C 342.858 1.72018 -5.05218 0
M  V30 3680 O 343.081 2.94813 -4.88305 0
M  V30 3681 O 342.015 1.28515 -5.8802 0
M  V30 3682 H 345.841 -0.366064 -3.01486 0
M  V30 3683 H 343.426 -0.24514 -1.47375 0
M  V30 3684 H 345.308 1.98385 -3.71781 0
M  V30 3685 H 343.983 2.02828 -2.52275 0
M  V30 3686 H 342.89 0.0567539 -3.74057 0
M  V30 3687 H 344.223 0.0943557 -4.9211 0
M  V30 3688 N 345.875 1.56104 -0.216619 0
M  V30 3689 C 347.122 1.98172 0.416416 0
M  V30 3690 C 347.45 1.10413 1.60122 0
M  V30 3691 O 346.705 0.147967 1.9514 0
M  V30 3692 C 347.004 3.45923 0.898464 0
M  V30 3693 C 346.67 4.50559 -0.175288 0
M  V30 3694 C 345.332 4.78897 -0.470271 0
M  V30 3695 C 347.684 5.1334 -0.901728 0
M  V30 3696 C 345.012 5.67299 -1.4963 0
M  V30 3697 C 347.364 6.02853 -1.91705 0
M  V30 3698 C 346.028 6.29537 -2.21901 0
M  V30 3699 H 345.298 0.725164 0.152377 0
M  V30 3700 H 347.945 1.88839 -0.318103 0
M  V30 3701 H 346.25 3.52434 1.71165 0
M  V30 3702 H 347.947 3.75841 1.39803 0
M  V30 3703 H 344.537 4.28551 0.0647806 0
M  V30 3704 H 348.721 4.91521 -0.687072 0
M  V30 3705 H 343.977 5.86239 -1.73592 0
M  V30 3706 H 348.151 6.50552 -2.48505 0
M  V30 3707 H 345.778 6.97835 -3.01548 0
M  V30 3708 N 347.353 -0.0568162 1.57498 0
M  V30 3709 C 348.578 -0.769402 1.92601 0
M  V30 3710 C 349.003 -1.69559 0.814336 0
M  V30 3711 O 348.361 -1.79811 -0.231903 0
M  V30 3712 C 348.409 -1.52634 3.26704 0
M  V30 3713 O 347.513 -2.63797 3.16994 0
M  V30 3714 H 346.854 -0.208909 0.63028 0
M  V30 3715 H 349.384 -0.0205798 2.0459 0
M  V30 3716 H 349.394 -1.90234 3.60936 0
M  V30 3717 H 348.069 -0.846875 4.07186 0
M  V30 3718 H 346.646 -2.28943 2.94346 0
M  V30 3719 N 348.832 -1.54138 -0.328536 0
M  V30 3720 C 349.742 -1.86192 -1.42723 0
M  V30 3721 C 350.758 -0.753382 -1.56844 0
M  V30 3722 O 351.934 -1.04718 -1.72035 0
M  V30 3723 C 348.999 -2.07824 -2.77507 0
M  V30 3724 C 348.06 -3.31641 -2.72603 0
M  V30 3725 C 347.293 -3.52232 -4.00959 0
M  V30 3726 O 347.516 -2.7636 -4.9898 0
M  V30 3727 O 346.45 -4.45699 -4.0452 0
M  V30 3728 H 350.276 -2.79608 -1.18547 0
M  V30 3729 H 347.861 -1.3998 -0.522104 0
M  V30 3730 H 349.743 -2.23411 -3.57303 0
M  V30 3731 H 348.418 -1.17596 -3.01584 0
M  V30 3732 H 347.325 -3.21444 -1.91376 0
M  V30 3733 H 348.658 -4.2191 -2.53481 0
M  V30 3734 N 350.31 0.590341 -1.46126 0
M  V30 3735 C 351.538 1.37504 -1.54597 0
M  V30 3736 C 351.953 1.87897 -0.184447 0
M  V30 3737 O 351.31 1.63192 0.816984 0
M  V30 3738 C 351.361 2.56779 -2.54454 0
M  V30 3739 O 351.082 2.08476 -3.85317 0
M  V30 3740 C 352.583 3.49427 -2.72792 0
M  V30 3741 H 349.803 0.420325 -0.523037 0
M  V30 3742 H 352.347 0.718383 -1.91467 0
M  V30 3743 H 350.502 3.1845 -2.20609 0
M  V30 3744 H 350.916 2.86097 -4.396 0
M  V30 3745 H 352.39 4.29619 -3.466 0
M  V30 3746 H 352.867 4.00876 -1.79429 0
M  V30 3747 H 353.473 2.93598 -3.07702 0
M  V30 3748 N 351.788 1.33704 0.83433 0
M  V30 3749 C 352.698 1.26382 1.97648 0
M  V30 3750 C 353.714 0.173548 1.73132 0
M  V30 3751 O 354.89 0.397962 1.97429 0
M  V30 3752 C 351.955 1.00769 3.31733 0
M  V30 3753 C 351.016 2.1884 3.69334 0
M  V30 3754 C 350.249 1.9444 4.9702 0
M  V30 3755 O 350.472 0.896961 5.63303 0
M  V30 3756 O 349.406 2.81093 5.32231 0
M  V30 3757 H 353.232 2.22444 2.06767 0
M  V30 3758 H 350.817 1.13795 0.968037 0
M  V30 3759 H 352.699 0.882186 4.12062 0
M  V30 3760 H 351.374 0.0773783 3.23608 0
M  V30 3761 H 350.281 2.36946 2.89495 0
M  V30 3762 H 351.614 3.10221 3.82131 0
M  V30 3763 N 353.266 -1.05314 1.17247 0
M  V30 3764 C 354.491 -1.82509 0.985148 0
M  V30 3765 C 354.916 -1.82343 -0.461788 0
M  V30 3766 O 354.274 -1.23151 -1.33055 0
M  V30 3767 C 354.322 -3.26566 1.52929 0
M  V30 3768 O 353.426 -4.05666 0.742225 0
M  V30 3769 H 352.767 -0.564347 0.349869 0
M  V30 3770 H 355.297 -1.32718 1.55715 0
M  V30 3771 H 355.307 -3.77369 1.55103 0
M  V30 3772 H 353.982 -3.26001 2.58256 0
M  V30 3773 H 352.559 -3.64397 0.791794 0
M  V30 3774 N 354.744 -0.972509 -1.24016 0
M  V30 3775 C 355.677 -0.45117 -2.23696 0
M  V30 3776 C 356.655 0.477378 -1.55434 0
M  V30 3777 O 357.839 0.407647 -1.84039 0
M  V30 3778 C 354.966 0.34818 -3.36906 0
M  V30 3779 C 354.012 -0.523355 -4.23277 0
M  V30 3780 S 354.845 -1.96647 -4.98087 0
M  V30 3781 C 356.001 -1.17604 -6.14752 0
M  V30 3782 H 356.234 -1.29588 -2.67571 0
M  V30 3783 H 353.767 -0.777903 -1.33372 0
M  V30 3784 H 355.725 0.803387 -4.02562 0
M  V30 3785 H 354.386 1.16792 -2.91579 0
M  V30 3786 H 353.579 0.0906181 -5.03919 0
M  V30 3787 H 353.181 -0.914485 -3.62647 0
M  V30 3788 H 355.473 -0.433434 -6.76112 0
M  V30 3789 H 356.416 -1.95701 -6.8052 0
M  V30 3790 H 356.824 -0.698295 -5.60164 0
M  V30 3791 N 356.222 1.38976 -0.743202 0
M  V30 3792 C 357.152 2.33171 -0.123873 0
M  V30 3793 C 358.133 1.54336 0.71516 0
M  V30 3794 O 359.318 1.82696 0.658467 0
M  V30 3795 C 356.448 3.38474 0.777978 0
M  V30 3796 C 355.402 4.27979 0.0424758 0
M  V30 3797 C 354.728 5.2405 1.06189 0
M  V30 3798 C 356.028 5.10155 -1.1198 0
M  V30 3799 H 357.722 2.85213 -0.910709 0
M  V30 3800 H 355.268 1.37133 -0.439388 0
M  V30 3801 H 357.221 4.03328 1.22084 0
M  V30 3802 H 355.945 2.84891 1.59702 0
M  V30 3803 H 354.604 3.64616 -0.380853 0
M  V30 3804 H 354.252 4.66758 1.87472 0
M  V30 3805 H 353.952 5.84785 0.574485 0
M  V30 3806 H 355.476 5.9178 1.50428 0
M  V30 3807 H 356.89 5.68307 -0.75499 0
M  V30 3808 H 355.287 5.80073 -1.53738 0
M  V30 3809 H 356.357 4.44504 -1.93764 0
M  V30 3810 N 357.7 0.491464 1.49741 0
M  V30 3811 C 358.647 -0.292027 2.28945 0
M  V30 3812 C 359.617 -0.968973 1.34908 0
M  V30 3813 O 360.802 -0.97748 1.6386 0
M  V30 3814 C 357.942 -1.35617 3.17336 0
M  V30 3815 C 357.055 -0.691957 4.26422 0
M  V30 3816 C 356.19 -1.73572 5.02042 0
M  V30 3817 C 355.229 -1.05286 6.02977 0
M  V30 3818 N 354.366 -2.0404 6.71798 0
M  V30 3819 H 359.206 0.389654 2.95442 0
M  V30 3820 H 356.743 0.204003 1.45679 0
M  V30 3821 H 358.701 -1.98502 3.66951 0
M  V30 3822 H 357.331 -2.00674 2.52844 0
M  V30 3823 H 356.383 0.0499523 3.80367 0
M  V30 3824 H 357.695 -0.153946 4.98562 0
M  V30 3825 H 356.849 -2.43987 5.55478 0
M  V30 3826 H 355.588 -2.30757 4.29654 0
M  V30 3827 H 354.593 -0.334446 5.48782 0
M  V30 3828 H 355.818 -0.487636 6.77347 0
M  V30 3829 H 353.764 -2.60205 6.02187 0
M  V30 3830 H 353.681 -1.55279 7.39881 0
M  V30 3831 H 354.949 -2.73772 7.29842 0
M  V30 3832 N 359.178 -1.55987 0.224894 0
M  V30 3833 C 360.427 -1.97566 -0.406273 0
M  V30 3834 C 360.74 -1.11569 -1.6066 0
M  V30 3835 O 361.946 -1.43062 -2.3075 0
M  V30 3836 C 360.402 -3.51474 -0.774207 0
M  V30 3837 C 360.01 -4.46179 0.403496 0
M  V30 3838 C 361.754 -4.01758 -1.37079 0
M  V30 3839 C 359.661 -5.91399 0.0129412 0
M  V30 3840 H 358.591 -0.737777 -0.155565 0
M  V30 3841 H 361.242 -1.80659 0.321635 0
M  V30 3842 H 359.624 -3.63994 -1.55963 0
M  V30 3843 H 360.798 -4.45409 1.18101 0
M  V30 3844 H 359.113 -4.06255 0.913536 0
M  V30 3845 H 361.71 -5.07756 -1.67596 0
M  V30 3846 H 362.053 -3.47805 -2.28773 0
M  V30 3847 H 362.586 -3.92475 -0.648733 0
M  V30 3848 H 359.325 -6.49341 0.896451 0
M  V30 3849 H 358.845 -5.95356 -0.728821 0
M  V30 3850 H 360.524 -6.45683 -0.412582 0
M  V30 3851 N 360.656 0.0484629 -1.57525 0
M  V30 3852 C 361.619 1.03956 -2.04269 0
M  V30 3853 C 362.619 1.30211 -0.943496 0
M  V30 3854 O 363.809 1.25539 -1.20771 0
M  V30 3855 C 360.941 2.37742 -2.44319 0
M  V30 3856 H 362.134 0.636182 -2.93075 0
M  V30 3857 H 359.687 0.294811 -1.53494 0
M  V30 3858 H 360.422 2.82866 -1.5861 0
M  V30 3859 H 360.207 2.20021 -3.24551 0
M  V30 3860 H 361.697 3.08936 -2.80978 0
M  V30 3861 N 362.134 1.5431 0.320358 0
M  V30 3862 C 363.044 1.86946 1.41734 0
M  V30 3863 C 364.06 0.761689 1.56443 0
M  V30 3864 O 365.236 1.05629 1.71477 0
M  V30 3865 C 362.301 2.09293 2.76401 0
M  V30 3866 C 361.362 3.33082 2.70841 0
M  V30 3867 C 360.595 3.54353 3.99086 0
M  V30 3868 O 360.818 2.79002 4.97508 0
M  V30 3869 O 359.752 4.47838 4.0215 0
M  V30 3870 H 363.578 2.80232 1.17062 0
M  V30 3871 H 361.163 1.40255 0.514673 0
M  V30 3872 H 363.045 2.25303 3.56113 0
M  V30 3873 H 361.72 1.19194 3.00956 0
M  V30 3874 H 360.627 3.22454 1.89668 0
M  V30 3875 H 361.96 4.23249 2.5124 0
M  V30 3876 N 363.613 -0.582584 1.46437 0
M  V30 3877 C 364.89 -1.34276 1.4223 0
M  V30 3878 C 365.27 -2.10835 0.10583 0
M  V30 3879 O 364.618 -2.09485 -0.912596 0
M  V30 3880 C 364.828 -2.26865 2.65204 0
M  V30 3881 C 366.176 -2.88691 3.11356 0
M  V30 3882 O 367.2 -2.37178 2.65753 0
M  V30 3883 O 366.059 -3.82255 3.90568 0
M  V30 3884 H 363.153 -0.603326 0.565621 0
M  V30 3885 H 365.699 -0.603591 1.58603 0
M  V30 3886 H 364.471 -1.69724 3.52576 0
M  V30 3887 H 364.094 -3.08122 2.5129 0
M  V30 3888 N 365.091 -1.34144 -0.827227 0
M  V30 3889 C 366.021 -1.28005 -1.95287 0
M  V30 3890 C 367.002 -0.158321 -1.69362 0
M  V30 3891 O 368.187 -0.349987 -1.9102 0
M  V30 3892 C 365.317 -1.03036 -3.31664 0
M  V30 3893 C 364.271 -2.11628 -3.72019 0
M  V30 3894 C 363.597 -1.71854 -5.0633 0
M  V30 3895 C 364.897 -3.53417 -3.8457 0
M  V30 3896 H 366.591 -2.22187 -2.00682 0
M  V30 3897 H 364.137 -1.0696 -0.964135 0
M  V30 3898 H 366.09 -0.973863 -4.09993 0
M  V30 3899 H 364.814 -0.0529391 -3.26557 0
M  V30 3900 H 363.473 -2.16339 -2.95961 0
M  V30 3901 H 363.121 -0.727841 -4.97706 0
M  V30 3902 H 362.821 -2.44531 -5.34302 0
M  V30 3903 H 364.345 -1.67692 -5.87122 0
M  V30 3904 H 365.759 -3.51142 -4.5318 0
M  V30 3905 H 364.156 -4.24679 -4.2399 0
M  V30 3906 H 365.226 -3.91072 -2.86689 0
M  V30 3907 N 366.569 1.04691 -1.17803 0
M  V30 3908 C 367.817 1.7743 -0.967617 0
M  V30 3909 C 368.138 1.88359 0.504574 0
M  V30 3910 O 367.408 1.40402 1.36617 0
M  V30 3911 H 365.988 0.657242 -0.355024 0
M  V30 3912 H 368.65 1.2638 -1.48371 0
M  V30 3913 H 367.746 2.78924 -1.40027 0
M  V30 3914 N 368.047 0.979072 1.23499 0
M  V30 3915 C 369.295 0.645941 1.91499 0
M  V30 3916 C 369.616 -0.822948 1.76784 0
M  V30 3917 O 368.886 -1.58854 1.14639 0
M  V30 3918 H 367.466 0.235919 0.708767 0
M  V30 3919 H 370.128 1.2426 1.50152 0
M  V30 3920 H 369.224 0.896411 2.9895 0
M  V30 3921 N 369.525 -1.3858 0.750561 0
M  V30 3922 C 370.936 -1.82927 0.373438 0
M  V30 3923 C 371.287 -1.62634 -1.09748 0
M  V30 3924 O 370.412 -1.12588 -1.84805 0
M  V30 3925 C 371.007 -3.32088 0.671029 0
M  V30 3926 C 369.566 -3.74795 0.34722 0
M  V30 3927 C 368.713 -2.61391 0.92575 0
M  V30 3928 H 371.664 -1.27351 0.946958 0
M  V30 3929 H 371.685 -3.80465 -0.0518269 0
M  V30 3930 H 371.197 -3.46826 1.74164 0
M  V30 3931 H 369.298 -3.65638 -0.716933 0
M  V30 3932 H 369.411 -4.71667 0.840656 0
M  V30 3933 H 367.775 -2.52265 0.351327 0
M  V30 3934 H 368.558 -2.78929 2.00133 0
M  V30 3935 N 371.003 -0.499398 -1.49478 0
M  V30 3936 C 372.233 0.0424839 -2.06556 0
M  V30 3937 C 372.641 1.31514 -1.36018 0
M  V30 3938 O 371.984 1.78555 -0.431718 0
M  V30 3939 C 372.046 0.368074 -3.57611 0
M  V30 3940 C 371.71 -0.806631 -4.49825 0
M  V30 3941 C 372.707 -1.69667 -4.91436 0
M  V30 3942 C 370.392 -1.00498 -4.92144 0
M  V30 3943 C 372.386 -2.76923 -5.74101 0
M  V30 3944 C 370.073 -2.08072 -5.74586 0
M  V30 3945 C 371.071 -2.96119 -6.15469 0
M  V30 3946 O 370.759 -4.01836 -6.96264 0
M  V30 3947 H 370.491 -0.0165165 -0.675798 0
M  V30 3948 H 373.045 -0.695497 -1.93267 0
M  V30 3949 H 371.275 1.15963 -3.68903 0
M  V30 3950 H 372.964 0.848381 -3.96935 0
M  V30 3951 H 373.73 -1.55524 -4.59388 0
M  V30 3952 H 369.609 -0.329036 -4.59824 0
M  V30 3953 H 373.153 -3.45676 -6.05932 0
M  V30 3954 H 369.05 -2.22211 -6.06047 0
M  V30 3955 H 369.818 -3.9917 -7.14567 0
M  V30 3956 N 372.481 1.55866 -0.233164 0
M  V30 3957 C 373.727 1.98897 0.395959 0
M  V30 3958 C 374.06 1.12091 1.58585 0
M  V30 3959 O 373.335 0.181182 1.93654 0
M  V30 3960 C 373.618 3.50658 0.819224 0
M  V30 3961 C 373.471 4.48233 -0.375109 0
M  V30 3962 C 374.79 4.07135 1.67121 0
M  V30 3963 H 371.909 0.723102 0.142451 0
M  V30 3964 H 374.551 1.87082 -0.331725 0
M  V30 3965 H 372.701 3.60857 1.43925 0
M  V30 3966 H 374.373 4.50031 -1.01341 0
M  V30 3967 H 372.616 4.21624 -1.02058 0
M  V30 3968 H 373.287 5.51988 -0.0358328 0
M  V30 3969 H 375.763 3.99952 1.14795 0
M  V30 3970 H 374.639 5.13615 1.93625 0
M  V30 3971 H 374.9 3.54736 2.63846 0
M  V30 3972 N 373.959 -0.0401083 1.57549 0
M  V30 3973 C 375.205 -0.728793 1.89895 0
M  V30 3974 C 375.56 -1.73551 0.830535 0
M  V30 3975 O 374.853 -1.90914 -0.162007 0
M  V30 3976 C 375.047 -1.44902 3.26708 0
M  V30 3977 C 374.876 -0.513568 4.46758 0
M  V30 3978 C 373.646 -0.138698 5.0511 0
M  V30 3979 C 375.844 0.203341 5.13898 0
M  V30 3980 N 373.826 0.799159 6.08676 0
M  V30 3981 C 375.197 0.997246 6.11927 0
M  V30 3982 C 377.252 0.271459 4.97159 0
M  V30 3983 C 375.955 1.85299 6.95023 0
M  V30 3984 C 377.981 1.11429 5.80808 0
M  V30 3985 C 377.343 1.89615 6.78399 0
M  V30 3986 H 373.442 -0.241125 0.743897 0
M  V30 3987 H 376.026 0.0108016 1.94697 0
M  V30 3988 H 374.197 -2.15914 3.22856 0
M  V30 3989 H 375.929 -2.08921 3.46603 0
M  V30 3990 H 372.684 -0.498496 4.70969 0
M  V30 3991 H 373.108 1.26227 6.65128 0
M  V30 3992 H 377.75 -0.318709 4.21597 0
M  V30 3993 H 375.468 2.454 7.69938 0
M  V30 3994 H 379.054 1.17038 5.69906 0
M  V30 3995 H 377.934 2.53779 7.42001 0
M  V30 3996 N 375.437 -1.54477 -0.31217 0
M  V30 3997 C 376.685 -1.72884 -1.04668 0
M  V30 3998 C 377.006 -0.511477 -1.88173 0
M  V30 3999 O 376.276 0.474407 -1.90069 0
M  V30 4000 H 374.856 -0.637461 -0.389425 0
M  V30 4001 H 377.518 -1.91807 -0.345852 0
M  V30 4002 H 376.614 -2.61334 -1.70619 0
M  V30 4003 N 376.915 0.57481 -1.46744 0
M  V30 4004 C 377.847 1.69804 -1.53946 0
M  V30 4005 C 378.86 1.57098 -0.427106 0
M  V30 4006 O 380.049 1.64378 -0.695863 0
M  V30 4007 C 377.149 3.08125 -1.4111 0
M  V30 4008 C 376.322 3.46757 -2.66605 0
M  V30 4009 C 375.381 4.6417 -2.47855 0
M  V30 4010 O 374.407 4.69634 -3.21609 0
M  V30 4011 N 375.609 5.59553 -1.54534 0
M  V30 4012 H 378.374 1.64077 -2.50796 0
M  V30 4013 H 375.935 0.761 -1.429 0
M  V30 4014 H 377.927 3.84478 -1.26328 0
M  V30 4015 H 376.497 3.08175 -0.524109 0
M  V30 4016 H 375.717 2.6003 -2.96274 0
M  V30 4017 H 377.005 3.69337 -3.49954 0
M  V30 4018 H 376.403 5.57881 -0.937304 0
M  V30 4019 H 374.96 6.35304 -1.45711 0
M  V30 4020 N 378.394 1.34581 0.820102 0
M  V30 4021 C 379.624 1.29991 1.6058 0
M  V30 4022 C 380.032 -0.127588 1.88769 0
M  V30 4023 O 379.375 -1.08595 1.48165 0
M  V30 4024 C 379.437 2.02548 2.9701 0
M  V30 4025 C 379.101 3.51794 2.91701 0
M  V30 4026 C 380.098 4.46647 2.66087 0
M  V30 4027 C 377.783 3.94249 3.11245 0
M  V30 4028 C 379.777 5.81929 2.60071 0
M  V30 4029 C 377.464 5.2963 3.04853 0
M  V30 4030 C 378.462 6.23282 2.793 0
M  V30 4031 O 378.15 7.56181 2.72847 0
M  V30 4032 H 377.882 0.448539 0.505756 0
M  V30 4033 H 380.436 1.77811 1.02822 0
M  V30 4034 H 378.666 1.49345 3.56697 0
M  V30 4035 H 380.355 1.91211 3.58041 0
M  V30 4036 H 381.121 4.15168 2.5072 0
M  V30 4037 H 377 3.21749 3.30149 0
M  V30 4038 H 380.544 6.54999 2.40046 0
M  V30 4039 H 376.441 5.60727 3.19774 0
M  V30 4040 H 377.209 7.6595 2.88553 0
M  V30 4041 N 379.872 -1.04064 1.18357 0
M  V30 4042 C 381.149 -1.74252 0.888581 0
M  V30 4043 C 381.529 -2.02138 -0.60856 0
M  V30 4044 O 380.877 -1.66656 -1.56327 0
M  V30 4045 C 381.087 -3.0277 1.73584 0
M  V30 4046 C 382.435 -3.76506 1.96286 0
M  V30 4047 O 383.459 -3.12668 1.70637 0
M  V30 4048 O 382.318 -4.91243 2.39464 0
M  V30 4049 H 379.412 -0.758271 0.330082 0
M  V30 4050 H 381.958 -1.1013 1.2911 0
M  V30 4051 H 380.73 -2.78299 2.75073 0
M  V30 4052 H 380.353 -3.74631 1.33183 0
M  V30 4053 N 381.35 -0.985608 -1.22978 0
M  V30 4054 C 382.28 -0.549649 -2.26939 0
M  V30 4055 C 383.261 0.419803 -1.64838 0
M  V30 4056 O 384.446 0.31203 -1.91677 0
M  V30 4057 C 381.576 0.143652 -3.47003 0
M  V30 4058 C 380.53 -0.743606 -4.21491 0
M  V30 4059 C 379.856 0.0822027 -5.34637 0
M  V30 4060 C 381.156 -2.03694 -4.80943 0
M  V30 4061 H 382.85 -1.41862 -2.63658 0
M  V30 4062 H 380.396 -0.683571 -1.26741 0
M  V30 4063 H 382.349 0.459985 -4.18882 0
M  V30 4064 H 381.073 1.04711 -3.09359 0
M  V30 4065 H 379.732 -1.04347 -3.51436 0
M  V30 4066 H 379.38 0.986359 -4.93234 0
M  V30 4067 H 379.08 -0.508377 -5.85397 0
M  V30 4068 H 380.604 0.392797 -6.09335 0
M  V30 4069 H 382.018 -1.78504 -5.44802 0
M  V30 4070 H 380.415 -2.57573 -5.42011 0
M  V30 4071 H 381.485 -2.72042 -4.01399 0
M  V30 4072 N 382.828 1.3818 -0.7579 0
M  V30 4073 C 383.758 2.33027 -0.148597 0
M  V30 4074 C 384.739 1.55085 0.69875 0
M  V30 4075 O 385.924 1.83384 0.639053 0
M  V30 4076 C 383.054 3.3928 0.742034 0
M  V30 4077 C 382.008 4.28 -0.00291946 0
M  V30 4078 C 381.334 5.25146 1.00625 0
M  V30 4079 C 382.634 5.08938 -1.17385 0
M  V30 4080 H 384.328 2.84231 -0.940909 0
M  V30 4081 H 381.874 1.36659 -0.453908 0
M  V30 4082 H 383.827 4.046 1.17799 0
M  V30 4083 H 382.551 2.86569 1.56671 0
M  V30 4084 H 381.21 3.64192 -0.419504 0
M  V30 4085 H 380.858 4.68721 1.8251 0
M  V30 4086 H 380.558 5.85361 0.512428 0
M  V30 4087 H 382.082 5.93342 1.44143 0
M  V30 4088 H 383.496 5.67474 -0.815224 0
M  V30 4089 H 381.893 5.7841 -1.59882 0
M  V30 4090 H 382.963 4.42424 -1.98468 0
M  V30 4091 N 384.306 0.507319 1.49211 0
M  V30 4092 C 385.552 -0.0350047 2.0277 0
M  V30 4093 C 385.885 -1.3606 1.38569 0
M  V30 4094 O 385.16 -1.87321 0.523542 0
M  V30 4095 C 385.443 -0.180916 3.59645 0
M  V30 4096 C 385.296 1.16825 4.34364 0
M  V30 4097 C 386.615 -0.918558 4.30407 0
M  V30 4098 H 383.734 -0.0112473 0.736914 0
M  V30 4099 H 386.376 0.659956 1.7817 0
M  V30 4100 H 384.526 -0.772826 3.80736 0
M  V30 4101 H 386.198 1.79952 4.24753 0
M  V30 4102 H 384.441 1.75594 3.96673 0
M  V30 4103 H 385.112 1.01939 5.42506 0
M  V30 4104 H 387.588 -0.41649 4.1401 0
M  V30 4105 H 386.464 -0.989505 5.39907 0
M  V30 4106 H 386.725 -1.96373 3.96093 0
M  V30 4107 N 385.784 -1.5574 0.241426 0
M  V30 4108 C 386.714 -2.24133 -0.654722 0
M  V30 4109 C 387.695 -1.21974 -1.1856 0
M  V30 4110 O 388.88 -1.50612 -1.22595 0
M  V30 4111 C 386.01 -2.93659 -1.85423 0
M  V30 4112 C 384.964 -4.0246 -1.45636 0
M  V30 4113 C 384.29 -4.59383 -2.73626 0
M  V30 4114 C 385.59 -5.18468 -0.631506 0
M  V30 4115 H 387.284 -2.99281 -0.0844353 0
M  V30 4116 H 384.83 -1.43947 -0.0391707 0
M  V30 4117 H 386.783 -3.40203 -2.48676 0
M  V30 4118 H 385.507 -2.15991 -2.44981 0
M  V30 4119 H 384.166 -3.56676 -0.847202 0
M  V30 4120 H 383.814 -3.78422 -3.3137 0
M  V30 4121 H 383.514 -5.32826 -2.4773 0
M  V30 4122 H 385.038 -5.08658 -3.37786 0
M  V30 4123 H 386.452 -5.61272 -1.1682 0
M  V30 4124 H 384.849 -5.98266 -0.468831 0
M  V30 4125 H 385.919 -4.8358 0.357506 0
M  V30 4126 N 387.262 0.0317525 -1.57568 0
M  V30 4127 C 388.673 0.578692 -1.77505 0
M  V30 4128 C 389.024 1.75749 -0.872164 0
M  V30 4129 O 388.149 2.16298 -0.0663106 0
M  V30 4130 C 388.744 1.05658 -3.21904 0
M  V30 4131 C 387.303 1.54906 -3.43047 0
M  V30 4132 C 386.45 0.485939 -2.73009 0
M  V30 4133 H 389.401 -0.194475 -1.57504 0
M  V30 4134 H 389.422 1.92404 -3.28269 0
M  V30 4135 H 388.934 0.198422 -3.87592 0
M  V30 4136 H 387.035 2.42915 -2.82529 0
M  V30 4137 H 387.148 1.59841 -4.5165 0
M  V30 4138 H 385.512 0.940354 -2.36705 0
M  V30 4139 H 386.295 -0.362709 -3.41379 0
M  V30 4140 N 388.74 1.54641 0.303973 0
M  V30 4141 C 390.151 1.64811 0.877163 0
M  V30 4142 C 390.502 0.554838 1.88191 0
M  V30 4143 O 389.627 -0.309033 2.14182 0
M  V30 4144 C 390.222 2.9876 1.59775 0
M  V30 4145 C 388.781 3.11061 2.11938 0
M  V30 4146 C 387.928 2.60479 0.951097 0
M  V30 4147 H 390.879 1.58493 0.0810486 0
M  V30 4148 H 390.9 2.90017 2.46314 0
M  V30 4149 H 390.412 3.7831 0.866226 0
M  V30 4150 H 388.513 2.36225 2.88146 0
M  V30 4151 H 388.626 4.17171 2.35595 0
M  V30 4152 H 386.99 2.16859 1.33583 0
M  V30 4153 H 387.773 3.42504 0.233581 0
M  V30 4154 N 390.218 -0.567019 1.47046 0
M  V30 4155 C 391.443 -1.3551 1.57009 0
M  V30 4156 C 391.868 -1.86841 0.217259 0
M  V30 4157 O 391.226 -1.62435 -0.805268 0
M  V30 4158 C 391.274 -2.50777 2.5912 0
M  V30 4159 O 390.378 -3.52706 2.13711 0
M  V30 4160 H 389.719 -0.402919 0.52778 0
M  V30 4161 H 392.249 -0.686241 1.92748 0
M  V30 4162 H 392.259 -2.97481 2.79229 0
M  V30 4163 H 390.934 -2.12771 3.57353 0
M  V30 4164 H 389.511 -3.12374 2.03659 0
M  V30 4165 N 391.696 -1.35014 -0.812953 0
M  V30 4166 C 392.943 -1.27931 -1.56971 0
M  V30 4167 C 393.271 0.148034 -1.93936 0
M  V30 4168 O 392.526 1.11175 -1.61054 0
M  V30 4169 C 392.825 -2.12524 -2.87347 0
M  V30 4170 C 392.491 -3.61401 -2.6963 0
M  V30 4171 C 391.153 -4.01983 -2.64506 0
M  V30 4172 C 393.505 -4.55894 -2.52607 0
M  V30 4173 C 390.833 -5.35235 -2.40293 0
M  V30 4174 C 393.185 -5.89336 -2.29925 0
M  V30 4175 C 391.849 -6.2907 -2.23219 0
M  V30 4176 H 391.119 -0.468131 -0.574399 0
M  V30 4177 H 393.766 -1.66851 -0.939836 0
M  V30 4178 H 392.071 -1.66463 -3.54679 0
M  V30 4179 H 393.768 -2.04383 -3.45005 0
M  V30 4180 H 390.358 -3.29193 -2.74463 0
M  V30 4181 H 394.542 -4.25431 -2.55583 0
M  V30 4182 H 389.798 -5.65028 -2.33566 0
M  V30 4183 H 393.972 -6.62139 -2.15743 0
M  V30 4184 H 391.599 -7.32256 -2.04219 0
M  V30 4185 N 393.175 1.03435 -1.18907 0
M  V30 4186 C 394.586 1.58195 -0.991523 0
M  V30 4187 C 394.937 1.90801 0.457081 0
M  V30 4188 O 394.062 1.70272 1.33553 0
M  V30 4189 C 394.657 2.87432 -1.79355 0
M  V30 4190 C 393.216 3.38785 -1.64017 0
M  V30 4191 C 392.363 2.12292 -1.78402 0
M  V30 4192 H 395.314 0.860299 -1.33359 0
M  V30 4193 H 395.335 3.58096 -1.28638 0
M  V30 4194 H 394.847 2.63669 -2.84781 0
M  V30 4195 H 392.948 3.67547 -0.611536 0
M  V30 4196 H 393.061 4.12186 -2.44212 0
M  V30 4197 H 391.425 2.23901 -1.2141 0
M  V30 4198 H 392.208 1.90977 -2.85277 0
M  V30 4199 N 394.653 0.992116 1.22453 0
M  V30 4200 C 395.883 0.684949 1.94915 0
M  V30 4201 C 396.291 -0.754292 1.73514 0
M  V30 4202 O 395.634 -1.52056 1.03076 0
M  V30 4203 C 395.696 0.910054 3.47791 0
M  V30 4204 C 395.36 2.33363 3.92926 0
M  V30 4205 C 396.357 3.31308 4.00663 0
M  V30 4206 C 394.042 2.66785 4.25595 0
M  V30 4207 C 396.036 4.6075 4.40441 0
M  V30 4208 C 393.723 3.96446 4.65053 0
M  V30 4209 C 394.721 4.9324 4.72444 0
M  V30 4210 O 394.409 6.20584 5.1101 0
M  V30 4211 H 394.141 0.25258 0.62704 0
M  V30 4212 H 396.695 1.32939 1.56577 0
M  V30 4213 H 394.925 0.208443 3.86138 0
M  V30 4214 H 396.614 0.598257 4.01467 0
M  V30 4215 H 397.38 3.0682 3.75615 0
M  V30 4216 H 393.259 1.92148 4.19047 0
M  V30 4217 H 396.803 5.363 4.46126 0
M  V30 4218 H 392.7 4.20724 4.89552 0
M  V30 4219 H 393.468 6.24509 5.29085 0
M  V30 4220 N 396.131 -1.37776 0.765217 0
M  V30 4221 C 397.379 -1.99454 0.325943 0
M  V30 4222 C 397.7 -1.61049 -1.09947 0
M  V30 4223 O 396.97 -0.872821 -1.75381 0
M  V30 4224 H 395.55 -0.737697 0.117525 0
M  V30 4225 H 398.212 -1.68359 0.981895 0
M  V30 4226 H 397.308 -3.09547 0.398353 0
M  V30 4227 N 397.609 -0.515225 -1.4894 0
M  V30 4228 C 398.857 0.0241671 -2.02086 0
M  V30 4229 C 399.178 1.3616 -1.3959 0
M  V30 4230 O 398.448 1.87841 -0.556121 0
M  V30 4231 H 397.028 0.0119203 -0.746905 0
M  V30 4232 H 399.69 -0.675702 -1.82812 0
M  V30 4233 H 398.786 0.143385 -3.1177 0
M  V30 4234 N 399.087 1.5561 -0.249682 0
M  V30 4235 C 400.02 2.17537 0.689408 0
M  V30 4236 C 400.998 1.12829 1.17083 0
M  V30 4237 O 402.182 1.41229 1.24846 0
M  V30 4238 C 399.309 2.77828 1.93725 0
M  V30 4239 C 398.355 3.95615 1.59346 0
M  V30 4240 S 399.188 5.30988 0.69367 0
M  V30 4241 C 400.344 5.94734 1.95046 0
M  V30 4242 H 400.577 2.96852 0.163142 0
M  V30 4243 H 398.11 1.54362 -0.0341166 0
M  V30 4244 H 400.068 3.13199 2.65361 0
M  V30 4245 H 398.729 1.98454 2.43465 0
M  V30 4246 H 397.922 4.364 2.52132 0
M  V30 4247 H 397.524 3.61535 0.957512 0
M  V30 4248 H 399.816 6.12419 2.89739 0
M  V30 4249 H 400.759 6.90109 1.58604 0
M  V30 4250 H 401.167 5.23832 2.10381 0
M  V30 4251 N 400.565 -0.0233959 1.57583 0
M  V30 4252 C 401.475 -1.03907 2.10334 0
M  V30 4253 C 402.491 -1.39257 1.04323 0
M  V30 4254 O 403.667 -1.48462 1.36091 0
M  V30 4255 C 400.732 -2.31938 2.57693 0
M  V30 4256 C 399.793 -2.03117 3.78209 0
M  V30 4257 C 399.026 -3.25043 4.233 0
M  V30 4258 O 399.249 -4.35916 3.67876 0
M  V30 4259 O 398.183 -3.10411 5.15683 0
M  V30 4260 H 402.009 -0.620748 2.97288 0
M  V30 4261 H 399.594 -0.240743 1.47448 0
M  V30 4262 H 401.476 -3.07196 2.88458 0
M  V30 4263 H 400.151 -2.73055 1.73847 0
M  V30 4264 H 399.058 -1.25408 3.52454 0
M  V30 4265 H 400.391 -1.66852 4.63056 0
M  V30 4266 N 402.043 -1.548 -0.295768 0
M  V30 4267 C 402.991 -1.86874 -1.38495 0
M  V30 4268 C 403.985 -0.742938 -1.52239 0
M  V30 4269 O 405.191 -0.926999 -1.54294 0
M  V30 4270 H 401.566 -0.592786 -0.462719 0
M  V30 4271 H 403.537 -2.77904 -1.08682 0
M  V30 4272 C 402.286 -2.13732 -2.74252 0
M  V30 4273 H 401.609 -2.99835 -2.64459 0
M  V30 4274 H 403.049 -2.4011 -3.49461 0
M  V30 4275 C 401.508 -0.937539 -3.23592 0
M  V30 4276 O 402.038 -0.160665 -4.01379 0
M  V30 4277 N 400.244 -0.741478 -2.80981 0
M  V30 4278 H 399.791 -1.37489 -2.1784 0
M  V30 4279 H 399.749 0.0597103 -3.14343 0
M  V30 4280 N 403.521 0.559213 -1.47345 0
M  V30 4281 C 404.932 1.14134 -1.47751 0
M  V30 4282 C 405.283 1.94834 -0.231103 0
M  V30 4283 O 404.408 2.05957 0.664137 0
M  V30 4284 C 405.003 2.07653 -2.67705 0
M  V30 4285 C 403.562 2.61141 -2.71076 0
M  V30 4286 C 402.709 1.3748 -2.40821 0
M  V30 4287 H 405.66 0.345917 -1.54884 0
M  V30 4288 H 405.681 2.91497 -2.44561 0
M  V30 4289 H 405.193 1.4889 -3.58404 0
M  V30 4290 H 403.294 3.23707 -1.84511 0
M  V30 4291 H 403.407 3.02272 -3.7171 0
M  V30 4292 H 401.771 1.68086 -1.91362 0
M  V30 4293 H 402.554 0.805135 -3.33725 0
M  V30 4294 N 404.999 1.35443 0.805782 0
M  V30 4295 C 406.239 1.30127 1.57627 0
M  V30 4296 C 406.603 -0.122567 1.91608 0
M  V30 4297 O 407.804 -0.300107 2.67119 0
M  V30 4298 C 406.075 2.18314 2.82973 0
M  V30 4299 S 407.634 2.30521 3.7337 0
M  V30 4300 H 404.452 0.462439 0.540066 0
M  V30 4301 H 407.054 1.70843 0.95042 0
M  V30 4302 H 405.758 3.20741 2.56034 0
M  V30 4303 H 405.289 1.78558 3.50543 0
M  V30 4304 H 407.304 1.49062 4.73281 0
M  V30 4305 N 406.477 -1.02803 1.19454 0
M  V30 4306 C 407.407 -2.12999 0.956758 0
M  V30 4307 C 408.388 -1.69743 -0.110188 0
M  V30 4308 O 409.573 -1.94148 0.0450038 0
M  V30 4309 C 406.703 -3.43746 0.495553 0
M  V30 4310 C 405.657 -4.00688 1.50443 0
M  V30 4311 C 404.983 -5.27067 0.900275 0
M  V30 4312 C 406.283 -4.35397 2.8849 0
M  V30 4313 H 407.977 -2.33148 1.87836 0
M  V30 4314 H 405.523 -1.12045 0.904539 0
M  V30 4315 H 407.476 -4.2021 0.316493 0
M  V30 4316 H 406.2 -3.23321 -0.461646 0
M  V30 4317 H 404.859 -3.2632 1.67065 0
M  V30 4318 H 404.507 -5.02959 -0.064503 0
M  V30 4319 H 404.207 -5.66127 1.57397 0
M  V30 4320 H 405.731 -6.06196 0.73203 0
M  V30 4321 H 407.145 -5.02795 2.75446 0
M  V30 4322 H 405.542 -4.85541 3.52661 0
M  V30 4323 H 406.612 -3.44662 3.41081 0
M  V30 4324 N 407.956 -0.998596 -1.21925 0
M  V30 4325 C 409.184 -0.696286 -1.94832 0
M  V30 4326 C 409.599 0.740032 -1.73692 0
M  V30 4327 O 408.956 1.5 -1.03953 0
M  V30 4328 C 409.007 -0.999833 -3.47398 0
M  V30 4329 O 408.728 -2.37972 -3.67833 0
M  V30 4330 C 410.229 -0.716025 -4.37479 0
M  V30 4331 H 407.449 -0.257111 -0.619786 0
M  V30 4332 H 409.993 -1.33491 -1.54921 0
M  V30 4333 H 408.148 -0.406918 -3.85257 0
M  V30 4334 H 408.562 -2.48338 -4.61983 0
M  V30 4335 H 410.036 -0.978642 -5.43256 0
M  V30 4336 H 410.513 0.349968 -4.37803 0
M  V30 4337 H 411.119 -1.29025 -4.05256 0
M  V30 4338 N 409.434 1.37368 -0.772513 0
M  V30 4339 C 410.681 1.99673 -0.337182 0
M  V30 4340 C 411.009 1.61324 1.0865 0
M  V30 4341 O 410.264 0.851377 1.7621 0
M  V30 4342 C 410.563 3.54817 -0.428876 0
M  V30 4343 C 410.229 4.12936 -1.81092 0
M  V30 4344 C 408.891 4.28523 -2.1891 0
M  V30 4345 C 411.243 4.44801 -2.71664 0
M  V30 4346 C 408.571 4.73277 -3.46735 0
M  V30 4347 C 410.923 4.90981 -3.98899 0
M  V30 4348 C 409.587 5.04773 -4.36761 0
M  V30 4349 H 408.857 0.730656 -0.123384 0
M  V30 4350 H 411.504 1.64124 -0.986686 0
M  V30 4351 H 409.809 3.90618 0.304167 0
M  V30 4352 H 411.506 4.00933 -0.0733334 0
M  V30 4353 H 408.096 4.01233 -1.50699 0
M  V30 4354 H 412.28 4.32344 -2.43706 0
M  V30 4355 H 407.536 4.82142 -3.75964 0
M  V30 4356 H 411.71 5.14603 -4.69208 0
M  V30 4357 H 409.337 5.39211 -5.35868 0
M  V30 4358 N 410.912 0.523116 1.48665 0
M  V30 4359 C 412.158 -0.0134963 2.02796 0
M  V30 4360 C 412.491 -1.34582 1.40004 0
M  V30 4361 O 411.766 -1.86756 0.543381 0
M  V30 4362 C 412.049 -0.14276 3.59817 0
M  V30 4363 C 411.902 1.21425 4.331 0
M  V30 4364 C 413.221 -0.872856 4.31357 0
M  V30 4365 H 410.34 -0.00343074 0.736992 0
M  V30 4366 H 412.982 0.678816 1.7746 0
M  V30 4367 H 411.132 -0.732401 3.81534 0
M  V30 4368 H 412.804 1.84447 4.2282 0
M  V30 4369 H 411.047 1.79791 3.94788 0
M  V30 4370 H 411.718 1.07687 5.41394 0
M  V30 4371 H 414.194 -0.372555 4.14429 0
M  V30 4372 H 413.07 -0.932185 5.40927 0
M  V30 4373 H 413.331 -1.92161 3.98154 0
M  V30 4374 N 412.39 -1.55475 0.257931 0
M  V30 4375 C 413.618 -2.03609 -0.367559 0
M  V30 4376 C 414.033 -1.13687 -1.50734 0
M  V30 4377 O 413.39 -0.153479 -1.81853 0
M  V30 4378 C 413.441 -3.51001 -0.864908 0
M  V30 4379 O 413.162 -4.37499 0.229465 0
M  V30 4380 C 414.663 -4.14946 -1.55997 0
M  V30 4381 H 411.883 -0.665459 -0.0860521 0
M  V30 4382 H 414.427 -2.00843 0.385014 0
M  V30 4383 H 412.582 -3.54266 -1.56762 0
M  V30 4384 H 412.996 -5.24286 -0.14998 0
M  V30 4385 H 414.47 -5.19735 -1.85956 0
M  V30 4386 H 414.947 -3.6209 -2.4857 0
M  V30 4387 H 415.553 -4.15635 -0.901543 0
M  V30 4388 N 413.868 0.0150385 -1.57593 0
M  V30 4389 C 415.279 0.559832 -1.78109 0
M  V30 4390 C 415.63 1.74814 -0.890756 0
M  V30 4391 O 414.755 2.16216 -0.0892482 0
M  V30 4392 C 415.35 1.02238 -3.23006 0
M  V30 4393 C 413.909 1.51258 -3.44671 0
M  V30 4394 C 413.056 0.456955 -2.73509 0
M  V30 4395 H 416.007 -0.211169 -1.57289 0
M  V30 4396 H 416.028 1.88912 -3.30292 0
M  V30 4397 H 415.54 0.157302 -3.87781 0
M  V30 4398 H 413.641 2.39905 -2.8509 0
M  V30 4399 H 413.754 1.55042 -4.5332 0
M  V30 4400 H 412.118 0.915196 -2.37689 0
M  V30 4401 H 412.901 -0.398896 -3.40975 0
M  V30 4402 N 415.346 1.54954 0.287554 0
M  V30 4403 C 416.574 1.78881 1.03967 0
M  V30 4404 C 416.989 0.554894 1.80462 0
M  V30 4405 O 416.346 -0.475676 1.76192 0
M  V30 4406 C 416.397 3.00488 2.0097 0
M  V30 4407 O 416.118 4.19113 1.27577 0
M  V30 4408 C 417.619 3.36907 2.88112 0
M  V30 4409 H 414.839 0.596259 0.307761 0
M  V30 4410 H 417.383 2.01937 0.322749 0
M  V30 4411 H 415.538 2.79601 2.68145 0
M  V30 4412 H 415.952 4.87765 1.92835 0
M  V30 4413 H 417.426 4.25205 3.52001 0
M  V30 4414 H 417.903 2.55659 3.57121 0
M  V30 4415 H 418.509 3.60001 2.26449 0
M  V30 4416 N 416.824 -0.551391 1.4764 0
M  V30 4417 C 417.754 -1.66757 1.63445 0
M  V30 4418 C 418.735 -1.63077 0.483742 0
M  V30 4419 O 419.92 -1.80607 0.71377 0
M  V30 4420 C 417.05 -3.05387 1.65396 0
M  V30 4421 C 416.004 -3.23918 2.79752 0
M  V30 4422 C 415.33 -4.63393 2.66779 0
M  V30 4423 C 416.63 -3.08735 4.21284 0
M  V30 4424 H 418.324 -1.53786 2.56886 0
M  V30 4425 H 415.87 -0.738415 1.23626 0
M  V30 4426 H 417.823 -3.83325 1.75043 0
M  V30 4427 H 416.547 -3.19332 0.685195 0
M  V30 4428 H 415.206 -2.48391 2.69625 0
M  V30 4429 H 414.854 -4.74144 1.67918 0
M  V30 4430 H 414.554 -4.7674 3.43501 0
M  V30 4431 H 416.078 -5.43458 2.78364 0
M  V30 4432 H 417.492 -3.76484 4.32357 0
M  V30 4433 H 415.889 -3.33588 4.98838 0
M  V30 4434 H 416.959 -2.0541 4.39243 0
M  V30 4435 N 418.302 -1.35869 -0.798587 0
M  V30 4436 C 419.232 -1.32118 -1.92528 0
M  V30 4437 C 420.213 -0.194209 -1.68988 0
M  V30 4438 O 421.398 -0.390426 -1.90235 0
M  V30 4439 C 418.528 -1.10047 -3.29404 0
M  V30 4440 C 417.482 -2.19471 -3.67446 0
M  V30 4441 C 416.808 -1.82555 -5.02571 0
M  V30 4442 C 418.108 -3.61495 -3.76987 0
M  V30 4443 H 419.802 -2.26394 -1.95924 0
M  V30 4444 H 417.348 -1.08981 -0.94123 0
M  V30 4445 H 419.301 -1.06061 -4.07835 0
M  V30 4446 H 418.025 -0.122195 -3.26371 0
M  V30 4447 H 416.684 -2.22568 -2.91306 0
M  V30 4448 H 416.332 -0.833249 -4.9605 0
M  V30 4449 H 416.032 -2.5581 -5.28995 0
M  V30 4450 H 417.556 -1.80108 -5.83432 0
M  V30 4451 H 418.97 -3.60676 -4.4563 0
M  V30 4452 H 417.367 -4.33577 -4.14887 0
M  V30 4453 H 418.437 -3.97065 -2.78329 0
M  V30 4454 N 419.78 1.02168 -1.19998 0
M  V30 4455 C 420.743 2.08765 -0.94604 0
M  V30 4456 C 421.743 1.60618 0.0763846 0
M  V30 4457 O 422.933 1.73472 -0.159135 0
M  V30 4458 C 420.065 3.38262 -0.423255 0
M  V30 4459 H 421.258 2.32726 -1.89153 0
M  V30 4460 H 418.811 1.1889 -1.01464 0
M  V30 4461 H 419.546 3.19974 0.527938 0
M  V30 4462 H 419.331 3.74532 -1.16053 0
M  V30 4463 H 420.821 4.16759 -0.264911 0
M  V30 4464 N 421.258 1.00505 1.21394 0
M  V30 4465 C 422.506 0.686415 1.90086 0
M  V30 4466 C 422.827 -0.785264 1.7849 0
M  V30 4467 O 422.097 -1.56387 1.17983 0
M  V30 4468 H 420.677 0.2509 0.703604 0
M  V30 4469 H 423.339 1.27417 1.47482 0
M  V30 4470 H 422.435 0.959621 2.96981 0
M  V30 4471 N 422.737 -1.36956 0.779787 0
M  V30 4472 C 424.014 -1.93697 0.272156 0
M  V30 4473 C 424.394 -1.71267 -1.23413 0
M  V30 4474 O 423.742 -1.06607 -2.02107 0
M  V30 4475 C 423.952 -3.42812 0.654291 0
M  V30 4476 C 425.3 -4.19921 0.628602 0
M  V30 4477 O 426.324 -3.51209 0.594172 0
M  V30 4478 O 425.183 -5.42465 0.662864 0
M  V30 4479 H 422.277 -0.824447 0.0649286 0
M  V30 4480 H 424.823 -1.46196 0.861682 0
M  V30 4481 H 423.595 -3.52754 1.69353 0
M  V30 4482 H 423.218 -3.97582 0.0381369 0
M  V30 4483 N 424.215 -0.530993 -1.48385 0
M  V30 4484 C 425.162 0.231223 -2.29639 0
M  V30 4485 C 426.132 0.932864 -1.37429 0
M  V30 4486 O 427.317 0.933692 -1.66394 0
M  V30 4487 C 424.457 1.27155 -3.2082 0
M  V30 4488 C 423.57 0.578655 -4.28107 0
M  V30 4489 C 422.705 1.602 -5.06467 0
M  V30 4490 C 421.744 0.892625 -6.05556 0
M  V30 4491 N 420.881 1.86157 -6.76971 0
M  V30 4492 H 425.721 -0.467848 -2.94305 0
M  V30 4493 H 423.258 -0.242556 -1.45086 0
M  V30 4494 H 425.216 1.88703 -3.72085 0
M  V30 4495 H 423.846 1.939 -2.58075 0
M  V30 4496 H 422.898 -0.150782 -3.80101 0
M  V30 4497 H 424.21 0.0217065 -4.98795 0
M  V30 4498 H 423.364 2.29173 -5.61751 0
M  V30 4499 H 422.103 2.19285 -4.35621 0
M  V30 4500 H 421.108 0.188829 -5.49476 0
M  V30 4501 H 422.333 0.307878 -6.78402 0
M  V30 4502 H 420.279 2.44147 -6.08875 0
M  V30 4503 H 420.196 1.35608 -7.43738 0
M  V30 4504 H 421.464 2.54325 -7.36844 0
M  V30 4505 N 425.693 1.55336 -0.266172 0
M  V30 4506 C 426.918 2.04258 0.359661 0
M  V30 4507 C 427.343 1.14359 1.49344 0
M  V30 4508 O 426.701 0.140369 1.80756 0
M  V30 4509 C 426.749 3.50997 0.826635 0
M  V30 4510 O 425.853 3.64204 1.93466 0
M  V30 4511 H 425.194 0.659668 0.075727 0
M  V30 4512 H 427.724 2.00694 -0.39786 0
M  V30 4513 H 427.734 3.9219 1.12477 0
M  V30 4514 H 426.409 4.159 -0.00293032 0
M  V30 4515 H 424.986 3.34913 1.63974 0
M  V30 4516 N 427.171 -0.0066808 1.57599 0
M  V30 4517 C 428.101 -0.999296 2.11036 0
M  V30 4518 C 429.082 -1.36278 1.01795 0
M  V30 4519 O 430.267 -1.4477 1.29442 0
M  V30 4520 C 427.397 -2.29328 2.60818 0
M  V30 4521 C 426.351 -2.07159 3.74525 0
M  V30 4522 C 425.677 -3.42512 4.10596 0
M  V30 4523 C 426.977 -1.43959 5.02069 0
M  V30 4524 H 428.671 -0.554382 2.94223 0
M  V30 4525 H 426.217 -0.265221 1.41536 0
M  V30 4526 H 428.17 -2.99117 2.96828 0
M  V30 4527 H 426.894 -2.7592 1.74745 0
M  V30 4528 H 425.553 -1.39797 3.38899 0
M  V30 4529 H 425.201 -3.86795 3.21556 0
M  V30 4530 H 424.901 -3.28498 4.87199 0
M  V30 4531 H 426.425 -4.13628 4.4916 0
M  V30 4532 H 427.839 -2.03696 5.35893 0
M  V30 4533 H 426.236 -1.40452 5.83432 0
M  V30 4534 H 427.306 -0.407992 4.83181 0
M  V30 4535 N 428.649 -1.55105 -0.279332 0
M  V30 4536 C 429.874 -1.7976 -1.03446 0
M  V30 4537 C 430.299 -0.565952 -1.79384 0
M  V30 4538 O 429.657 0.484259 -1.74713 0
M  V30 4539 C 429.705 -3.0179 -1.97371 0
M  V30 4540 O 428.809 -2.76432 -3.06038 0
M  V30 4541 H 428.15 -0.594334 -0.29608 0
M  V30 4542 H 430.68 -2.02235 -0.310165 0
M  V30 4543 H 430.69 -3.30351 -2.39441 0
M  V30 4544 H 429.365 -3.91085 -1.4151 0
M  V30 4545 H 427.942 -2.58949 -2.68328 0
M  V30 4546 N 430.127 0.543554 -1.4793 0
M  V30 4547 C 431.075 1.67039 -1.61866 0
M  V30 4548 C 432.069 1.62294 -0.48549 0
M  V30 4549 O 433.275 1.67315 -0.66376 0
M  V30 4550 H 429.65 0.552954 -0.509652 0
M  V30 4551 H 431.621 1.52426 -2.56533 0
M  V30 4552 C 430.37 3.05357 -1.6629 0
M  V30 4553 H 429.693 3.09696 -2.5284 0
M  V30 4554 H 431.133 3.83855 -1.80088 0
M  V30 4555 C 429.592 3.34531 -0.398861 0
M  V30 4556 O 430.122 3.98649 0.494162 0
M  V30 4557 N 428.328 2.89299 -0.2747 0
M  V30 4558 H 427.875 2.37298 -1.00236 0
M  V30 4559 H 427.833 3.09188 0.570075 0
M  V30 4560 N 431.605 1.3629 0.791371 0
M  V30 4561 C 432.851 1.30605 1.55146 0
M  V30 4562 C 433.184 -0.115042 1.93859 0
M  V30 4563 O 432.459 -1.06798 1.62556 0
M  V30 4564 C 432.742 2.22692 2.82985 0
M  V30 4565 C 432.595 3.73489 2.50651 0
M  V30 4566 C 433.914 2.13588 3.84796 0
M  V30 4567 H 431.033 0.475761 0.562868 0
M  V30 4568 H 433.675 1.66825 0.909358 0
M  V30 4569 H 431.825 1.91933 3.37778 0
M  V30 4570 H 433.497 4.14758 2.01924 0
M  V30 4571 H 431.74 3.93021 1.83622 0
M  V30 4572 H 432.411 4.3333 3.41949 0
M  V30 4573 H 434.887 2.40659 3.39445 0
M  V30 4574 H 433.763 2.80195 4.71998 0
M  V30 4575 H 434.024 1.12256 4.27611 0
M  V30 4576 N 433.083 -1.0153 1.20538 0
M  V30 4577 C 434.332 -1.74558 1.01057 0
M  V30 4578 C 434.645 -1.90168 -0.457756 0
M  V30 4579 O 435.851 -2.60301 -0.771722 0
M  V30 4580 C 434.307 -3.13963 1.75941 0
M  V30 4581 C 433.915 -3.06361 3.26875 0
M  V30 4582 C 435.659 -3.91191 1.64832 0
M  V30 4583 C 433.566 -4.40782 3.94291 0
M  V30 4584 H 432.496 -0.654417 0.374505 0
M  V30 4585 H 435.147 -1.13521 1.44171 0
M  V30 4586 H 433.529 -3.75549 1.25614 0
M  V30 4587 H 434.703 -2.54074 3.84425 0
M  V30 4588 H 433.018 -2.42625 3.38411 0
M  V30 4589 H 435.615 -4.90644 2.12539 0
M  V30 4590 H 435.958 -4.11884 0.604745 0
M  V30 4591 H 436.491 -3.36236 2.12579 0
M  V30 4592 H 433.23 -4.25292 4.98805 0
M  V30 4593 H 432.75 -4.9307 3.41529 0
M  V30 4594 H 434.429 -5.09621 3.98617 0
M  V30 4595 N 434.561 -1.01147 -1.20859 0
M  V30 4596 C 435.524 -0.582224 -2.21682 0
M  V30 4597 C 436.524 0.344887 -1.57058 0
M  V30 4598 O 437.714 0.134281 -1.73682 0
M  V30 4599 C 434.846 0.150496 -3.40568 0
M  V30 4600 H 436.039 -1.47408 -2.61172 0
M  V30 4601 H 433.592 -0.800695 -1.34233 0
M  V30 4602 H 434.327 1.0575 -3.06574 0
M  V30 4603 H 434.112 -0.515444 -3.88697 0
M  V30 4604 H 435.602 0.438344 -4.15293 0
M  V30 4605 N 436.039 1.36541 -0.78704 0
M  V30 4606 C 436.989 2.27459 -0.156957 0
M  V30 4607 C 437.973 1.46843 0.657709 0
M  V30 4608 O 439.165 1.69245 0.518173 0
M  V30 4609 C 436.294 3.35893 0.709278 0
M  V30 4610 C 435.38 4.23947 -0.114049 0
M  V30 4611 N 435.771 4.92145 -1.16736 0
M  V30 4612 C 434.069 4.4587 0.107497 0
M  V30 4613 C 434.77 5.57261 -1.66837 0
M  V30 4614 N 433.746 5.3473 -0.977992 0
M  V30 4615 H 437.548 2.77669 -0.963185 0
M  V30 4616 H 435.062 1.49839 -0.62627 0
M  V30 4617 H 437.059 3.99953 1.17656 0
M  V30 4618 H 435.719 2.87238 1.51408 0
M  V30 4619 H 436.73 4.94169 -1.54976 0
M  V30 4620 H 433.407 4.08056 0.882994 0
M  V30 4621 H 434.797 6.21728 -2.54762 0
M  V30 4622 N 437.518 0.538854 1.48102 0
M  V30 4623 C 438.428 -0.222648 2.33541 0
M  V30 4624 C 439.444 -0.930225 1.47047 0
M  V30 4625 O 440.62 -0.903211 1.80011 0
M  V30 4626 C 437.685 -1.25064 3.23357 0
M  V30 4627 C 436.746 -0.552469 4.2573 0
M  V30 4628 C 435.979 -1.53149 5.11254 0
M  V30 4629 O 436.202 -2.76487 4.9891 0
M  V30 4630 O 435.136 -1.06602 5.92385 0
M  V30 4631 H 438.962 0.477707 2.99919 0
M  V30 4632 H 436.547 0.299669 1.46364 0
M  V30 4633 H 438.429 -1.8445 3.78888 0
M  V30 4634 H 437.104 -1.93325 2.59629 0
M  V30 4635 H 436.011 0.082114 3.7401 0
M  V30 4636 H 437.344 0.0883526 4.92121 0
M  V30 4637 N 438.996 -1.55193 0.274407 0
M  V30 4638 C 440.245 -1.98758 -0.343213 0
M  V30 4639 C 440.558 -1.16624 -1.5703 0
M  V30 4640 O 441.764 -1.5033 -2.26082 0
M  V30 4641 C 440.22 -3.53759 -0.661996 0
M  V30 4642 C 439.828 -4.4467 0.54524 0
M  V30 4643 C 441.572 -4.05916 -1.24228 0
M  V30 4644 C 439.479 -5.91058 0.201084 0
M  V30 4645 H 438.409 -0.742353 -0.132014 0
M  V30 4646 H 441.06 -1.79545 0.378948 0
M  V30 4647 H 439.442 -3.68772 -1.44304 0
M  V30 4648 H 440.616 -4.41426 1.32212 0
M  V30 4649 H 438.931 -4.03143 1.04232 0
M  V30 4650 H 441.528 -5.12831 -1.51357 0
M  V30 4651 H 441.871 -3.54908 -2.17592 0
M  V30 4652 H 442.404 -3.9434 -0.523542 0
M  V30 4653 H 439.143 -6.46161 1.10258 0
M  V30 4654 H 438.663 -5.97373 -0.539045 0
M  V30 4655 H 440.342 -6.46669 -0.206954 0
M  V30 4656 N 440.474 -0.00167713 -1.576 0
M  V30 4657 C 441.699 0.69739 -1.95323 0
M  V30 4658 C 442.124 1.6642 -0.876706 0
M  V30 4659 O 441.482 1.80548 0.165007 0
M  V30 4660 C 441.53 1.40403 -3.32144 0
M  V30 4661 O 440.634 2.5185 -3.26566 0
M  V30 4662 H 439.975 0.185373 -0.637599 0
M  V30 4663 H 442.505 -0.0553665 -2.04525 0
M  V30 4664 H 442.515 1.76707 -3.67748 0
M  V30 4665 H 441.19 0.695167 -4.10049 0
M  V30 4666 H 439.767 2.17861 -3.0264 0
M  V30 4667 N 441.952 1.55251 0.271103 0
M  V30 4668 C 442.902 1.84649 1.33749 0
M  V30 4669 C 443.886 0.705529 1.44607 0
M  V30 4670 O 445.078 0.966916 1.48256 0
M  V30 4671 C 442.207 2.12354 2.69742 0
M  V30 4672 C 441.293 3.32714 2.62988 0
M  V30 4673 N 441.684 4.52575 2.25853 0
M  V30 4674 C 439.982 3.35341 2.94045 0
M  V30 4675 C 440.683 5.34669 2.29136 0
M  V30 4676 N 439.659 4.73123 2.67685 0
M  V30 4677 H 443.461 2.74865 1.0405 0
M  V30 4678 H 440.975 1.55152 0.479738 0
M  V30 4679 H 442.972 2.31572 3.4667 0
M  V30 4680 H 441.632 1.23422 3.00328 0
M  V30 4681 H 442.643 4.78639 1.978 0
M  V30 4682 H 439.32 2.56608 3.2933 0
M  V30 4683 H 440.71 6.40509 2.02971 0
M  V30 4684 N 443.43 -0.535701 1.48216 0
M  V30 4685 C 444.655 -1.32149 1.59848 0
M  V30 4686 C 445.08 -1.86338 0.256842 0
M  V30 4687 O 444.438 -1.64107 -0.770632 0
M  V30 4688 C 444.486 -2.45224 2.64381 0
M  V30 4689 O 443.59 -3.48093 2.21144 0
M  V30 4690 H 442.931 -0.391634 0.536208 0
M  V30 4691 H 445.461 -0.645202 1.94161 0
M  V30 4692 H 445.471 -2.91491 2.85476 0
M  V30 4693 H 444.146 -2.05143 3.61786 0
M  V30 4694 H 442.723 -3.07984 2.10239 0
M  V30 4695 N 444.908 -1.36708 -0.784132 0
M  V30 4696 C 446.154 -1.32433 -1.54379 0
M  V30 4697 C 446.509 0.0941816 -1.92169 0
M  V30 4698 O 445.802 1.04997 -1.60269 0
M  V30 4699 C 445.996 -2.18571 -2.82774 0
M  V30 4700 C 445.825 -3.68656 -2.57533 0
M  V30 4701 C 444.595 -4.37813 -2.52286 0
M  V30 4702 C 446.793 -4.61802 -2.2637 0
M  V30 4703 N 444.775 -5.7351 -2.18997 0
M  V30 4704 C 446.146 -5.85785 -2.03115 0
M  V30 4705 C 448.201 -4.50313 -2.12421 0
M  V30 4706 C 446.904 -6.99569 -1.67321 0
M  V30 4707 C 448.93 -5.63969 -1.78026 0
M  V30 4708 C 448.292 -6.86994 -1.55622 0
M  V30 4709 H 444.391 -0.539886 -0.565727 0
M  V30 4710 H 446.975 -1.71812 -0.915908 0
M  V30 4711 H 445.146 -1.81429 -3.43421 0
M  V30 4712 H 446.878 -2.05646 -3.48557 0
M  V30 4713 H 443.633 -3.90674 -2.67714 0
M  V30 4714 H 444.057 -6.45189 -2.05084 0
M  V30 4715 H 448.699 -3.55781 -2.28429 0
M  V30 4716 H 446.417 -7.94047 -1.5005 0
M  V30 4717 H 450.003 -5.57044 -1.67909 0
M  V30 4718 H 448.883 -7.7345 -1.294 0
M  V30 4719 N 446.386 1.0089 -1.21074 0
M  V30 4720 C 447.614 1.78191 -1.05145 0
M  V30 4721 C 448.029 1.84537 0.398952 0
M  V30 4722 O 447.386 1.30393 1.27687 0
M  V30 4723 C 447.437 3.22288 -1.63746 0
M  V30 4724 O 447.158 3.16315 -3.03111 0
M  V30 4725 C 448.659 4.16106 -1.52875 0
M  V30 4726 H 445.879 0.560129 -0.369454 0
M  V30 4727 H 448.423 1.26945 -1.60328 0
M  V30 4728 H 446.578 3.70655 -1.12664 0
M  V30 4729 H 446.992 4.06817 -3.31059 0
M  V30 4730 H 448.466 5.15026 -1.98626 0
M  V30 4731 H 448.943 4.36541 -0.482521 0
M  V30 4732 H 449.549 3.73625 -2.03185 0
M  V30 4733 N 447.864 1.01787 1.20321 0
M  V30 4734 C 449.112 0.706538 1.89347 0
M  V30 4735 C 449.433 -0.766289 1.79313 0
M  V30 4736 O 448.703 -1.55126 1.19635 0
M  V30 4737 H 447.283 0.258348 0.700903 0
M  V30 4738 H 449.945 1.28974 1.46122 0
M  V30 4739 H 449.041 0.991066 2.95946 0
M  V30 4740 N 449.342 -1.36122 0.79427 0
M  V30 4741 C 450.29 -2.31871 0.184023 0
M  V30 4742 C 451.284 -1.56041 -0.659365 0
M  V30 4743 O 452.49 -1.71266 -0.553906 0
M  V30 4744 H 448.865 -0.750896 0.0407373 0
M  V30 4745 H 450.836 -2.80898 1.00693 0
M  V30 4746 C 449.585 -3.41324 -0.662813 0
M  V30 4747 H 448.908 -3.99793 -0.0231944 0
M  V30 4748 H 450.348 -4.10629 -1.05639 0
M  V30 4749 C 448.807 -2.83308 -1.82313 0
M  V30 4750 O 449.337 -2.75863 -2.91997 0
M  V30 4751 N 447.543 -2.40529 -1.63077 0
M  V30 4752 H 447.09 -2.46785 -0.738591 0
M  V30 4753 H 447.048 -2.02059 -2.40872 0
M  V30 4754 N 450.82 -0.546701 -1.47814 0
M  V30 4755 C 451.75 0.195317 -2.32682 0
M  V30 4756 C 452.731 0.918981 -1.43139 0
M  V30 4757 O 453.916 0.901501 -1.72008 0
M  V30 4758 C 451.046 1.23237 -3.247 0
M  V30 4759 C 450 0.625818 -4.234 0
M  V30 4760 C 449.326 1.76674 -5.04669 0
M  V30 4761 C 450.626 -0.413515 -5.2066 0
M  V30 4762 H 452.32 -0.513184 -2.94969 0
M  V30 4763 H 449.866 -0.248241 -1.41844 0
M  V30 4764 H 451.819 1.75955 -3.82907 0
M  V30 4765 H 450.543 1.97067 -2.60446 0
M  V30 4766 H 449.202 0.120023 -3.66403 0
M  V30 4767 H 448.85 2.49383 -4.36826 0
M  V30 4768 H 448.55 1.36673 -5.71484 0
M  V30 4769 H 450.074 2.29738 -5.65732 0
M  V30 4770 H 451.488 0.0272042 -5.73294 0
M  V30 4771 H 449.885 -0.731825 -5.95621 0
M  V30 4772 H 450.955 -1.31325 -4.66778 0
M  V30 4773 N 452.299 1.55045 -0.282633 0
M  V30 4774 C 453.545 2.00056 0.332481 0
M  V30 4775 C 453.878 1.1708 1.54939 0
M  V30 4776 O 453.153 0.2427 1.9298 0
M  V30 4777 C 453.436 3.53086 0.70725 0
M  V30 4778 C 453.289 4.46813 -0.517521 0
M  V30 4779 C 454.608 4.12245 1.54084 0
M  V30 4780 H 451.727 0.727268 0.119373 0
M  V30 4781 H 454.369 1.85932 -0.391076 0
M  V30 4782 H 452.519 3.65253 1.32372 0
M  V30 4783 H 454.191 4.46579 -1.15607 0
M  V30 4784 H 452.434 4.18163 -1.1542 0
M  V30 4785 H 453.105 5.51595 -0.211426 0
M  V30 4786 H 455.581 4.03401 1.02013 0
M  V30 4787 H 454.457 5.19515 1.77186 0
M  V30 4788 H 454.718 3.62951 2.52427 0
M  V30 4789 N 453.777 0.010035 1.57597 0
M  V30 4790 C 455.005 -0.683413 1.95287 0
M  V30 4791 C 455.42 -1.66747 0.885481 0
M  V30 4792 O 454.777 -1.82003 -0.134629 0
M  V30 4793 C 454.828 -1.40652 3.33015 0
M  V30 4794 O 454.549 -0.461916 4.35658 0
M  V30 4795 C 456.05 -2.19356 3.85225 0
M  V30 4796 H 453.27 -0.189708 0.643624 0
M  V30 4797 H 455.814 0.0641359 2.04399 0
M  V30 4798 H 453.969 -2.10562 3.2518 0
M  V30 4799 H 454.383 -0.973215 5.15392 0
M  V30 4800 H 455.857 -2.65433 4.83993 0
M  V30 4801 H 456.334 -3.02457 3.18459 0
M  V30 4802 H 456.94 -1.54442 3.96267 0
M  V30 4803 N 455.255 -1.55392 -0.262866 0
M  V30 4804 C 456.203 -1.8977 -1.345 0
M  V30 4805 C 457.197 -0.775063 -1.50629 0
M  V30 4806 O 458.403 -0.959519 -1.52293 0
M  V30 4807 H 454.778 -0.602467 -0.450041 0
M  V30 4808 H 456.749 -2.80147 -1.02762 0
M  V30 4809 C 455.498 -2.19501 -2.69657 0
M  V30 4810 H 454.821 -3.05378 -2.5804 0
M  V30 4811 H 456.261 -2.47469 -3.44289 0
M  V30 4812 C 454.72 -1.00597 -3.21531 0
M  V30 4813 O 455.25 -0.245768 -4.00947 0
M  V30 4814 N 453.456 -0.800911 -2.79345 0
M  V30 4815 H 453.003 -1.42079 -2.14875 0
M  V30 4816 H 452.961 -0.00697996 -3.14399 0
M  V30 4817 N 456.733 0.527833 -1.48498 0
M  V30 4818 C 457.68 1.6322 -1.6318 0
M  V30 4819 C 458.65 1.59199 -0.473815 0
M  V30 4820 O 459.835 1.77591 -0.697563 0
M  V30 4821 C 456.975 3.01474 -1.67951 0
M  V30 4822 C 456.088 3.15713 -2.94871 0
M  V30 4823 C 455.223 4.44539 -2.90789 0
M  V30 4824 C 454.262 4.52315 -4.12404 0
M  V30 4825 N 453.399 5.72533 -4.06387 0
M  V30 4826 H 458.239 1.50011 -2.57489 0
M  V30 4827 H 455.776 0.730298 -1.27691 0
M  V30 4828 H 457.734 3.81572 -1.68698 0
M  V30 4829 H 456.364 3.1345 -0.771306 0
M  V30 4830 H 455.416 2.28854 -3.03859 0
M  V30 4831 H 456.728 3.1732 -3.8485 0
M  V30 4832 H 455.882 5.3293 -2.89949 0
M  V30 4833 H 454.621 4.45457 -1.98542 0
M  V30 4834 H 453.626 3.62331 -4.13517 0
M  V30 4835 H 454.851 4.53134 -5.05812 0
M  V30 4836 H 452.797 5.74344 -3.16962 0
M  V30 4837 H 452.714 5.75643 -4.90073 0
M  V30 4838 H 453.982 6.63204 -4.0961 0
M  V30 4839 N 458.211 1.37122 0.776871 0
M  V30 4840 C 459.439 1.3523 1.5659 0
M  V30 4841 C 459.854 -0.0635518 1.88693 0
M  V30 4842 O 459.211 -1.02394 1.51069 0
M  V30 4843 C 459.262 2.18583 2.8793 0
M  V30 4844 O 458.983 3.5465 2.57206 0
M  V30 4845 C 460.484 2.24612 3.82183 0
M  V30 4846 H 457.704 0.4634 0.485285 0
M  V30 4847 H 460.248 1.80392 0.963266 0
M  V30 4848 H 458.403 1.76943 3.4463 0
M  V30 4849 H 458.817 3.98286 3.41275 0
M  V30 4850 H 460.291 2.87267 4.71361 0
M  V30 4851 H 460.768 1.25309 4.20944 0
M  V30 4852 H 461.374 2.66543 3.31414 0
M  V30 4853 N 459.689 -1.00246 1.21608 0
M  V30 4854 C 460.935 -1.74417 1.04643 0
M  V30 4855 C 461.29 -1.87862 -0.415387 0
M  V30 4856 O 460.583 -1.40373 -1.30407 0
M  V30 4857 C 460.777 -3.15448 1.68009 0
M  V30 4858 C 460.606 -3.15755 3.20201 0
M  V30 4859 C 459.376 -3.2219 3.89258 0
M  V30 4860 C 461.574 -3.00668 4.17257 0
M  V30 4861 N 459.556 -3.1215 5.28617 0
M  V30 4862 C 460.927 -2.98553 5.43384 0
M  V30 4863 C 462.982 -2.84989 4.08272 0
M  V30 4864 C 461.685 -2.82364 6.61561 0
M  V30 4865 C 463.711 -2.70158 5.26088 0
M  V30 4866 C 463.073 -2.68721 6.51128 0
M  V30 4867 H 459.172 -0.648317 0.437274 0
M  V30 4868 H 461.756 -1.19129 1.54001 0
M  V30 4869 H 459.927 -3.69001 1.21215 0
M  V30 4870 H 461.659 -3.78128 1.44226 0
M  V30 4871 H 458.414 -3.29488 3.40198 0
M  V30 4872 H 458.838 -3.10465 6.01615 0
M  V30 4873 H 463.48 -2.84904 3.12393 0
M  V30 4874 H 461.198 -2.81196 7.57598 0
M  V30 4875 H 464.784 -2.59022 5.20959 0
M  V30 4876 H 463.664 -2.57382 7.40759 0
M  V30 4877 N 461.167 -1.02423 -1.1978 0
M  V30 4878 C 462.444 -0.632802 -1.85081 0
M  V30 4879 C 462.824 0.888745 -1.9148 0
M  V30 4880 O 462.172 1.78357 -1.42832 0
M  V30 4881 C 462.382 -1.28947 -3.24305 0
M  V30 4882 C 463.73 -1.40976 -4.00513 0
M  V30 4883 O 464.754 -1.24628 -3.33686 0
M  V30 4884 O 463.613 -1.67467 -5.20209 0
M  V30 4885 H 460.707 -0.219348 -0.79738 0
M  V30 4886 H 463.253 -1.12209 -1.27307 0
M  V30 4887 H 462.025 -2.3288 -3.14456 0
M  V30 4888 H 461.648 -0.787748 -3.89718 0
M  V30 4889 N 462.645 1.35699 -0.801477 0
M  V30 4890 C 463.595 2.2728 -0.181073 0
M  V30 4891 C 464.579 1.47533 0.642098 0
M  V30 4892 O 465.771 1.69785 0.500193 0
M  V30 4893 C 462.9 3.36626 0.673612 0
M  V30 4894 C 461.986 4.23802 -0.159008 0
M  V30 4895 N 462.377 4.90879 -1.2195 0
M  V30 4896 C 460.675 4.45959 0.0602005 0
M  V30 4897 C 461.376 5.5546 -1.72738 0
M  V30 4898 N 460.352 5.33663 -1.03465 0
M  V30 4899 H 464.154 2.76632 -0.992582 0
M  V30 4900 H 461.668 1.49166 -0.642127 0
M  V30 4901 H 463.665 4.01179 1.13408 0
M  V30 4902 H 462.325 2.88828 1.48353 0
M  V30 4903 H 463.336 4.92497 -1.60209 0
M  V30 4904 H 460.013 4.08969 0.839664 0
M  V30 4905 H 461.403 6.18991 -2.61342 0
M  V30 4906 N 464.123 0.554532 1.47522 0
M  V30 4907 C 465.37 0.029479 2.02479 0
M  V30 4908 C 465.698 -1.31929 1.42916 0
M  V30 4909 O 464.953 -1.87112 0.573385 0
M  V30 4910 C 465.252 -0.115927 3.57212 0
M  V30 4911 C 464.918 1.16161 4.3568 0
M  V30 4912 C 463.58 1.51168 4.56839 0
M  V30 4913 C 465.932 2.0083 4.80954 0
M  V30 4914 C 463.26 2.70696 5.2052 0
M  V30 4915 C 465.612 3.19559 5.45953 0
M  V30 4916 C 464.276 3.54882 5.65345 0
M  V30 4917 H 463.546 0.0107871 0.740921 0
M  V30 4918 H 466.193 0.725506 1.77225 0
M  V30 4919 H 464.498 -0.894902 3.81443 0
M  V30 4920 H 466.195 -0.53749 3.97381 0
M  V30 4921 H 462.785 0.879026 4.19489 0
M  V30 4922 H 466.969 1.75093 4.64388 0
M  V30 4923 H 462.225 2.98236 5.33728 0
M  V30 4924 H 466.399 3.85456 5.79997 0
M  V30 4925 H 464.026 4.47596 6.1446 0
M  V30 4926 N 465.601 -1.54893 0.290851 0
M  V30 4927 C 466.847 -2.00949 -0.314784 0
M  V30 4928 C 467.202 -1.1757 -1.52299 0
M  V30 4929 O 466.495 -0.241558 -1.90071 0
M  V30 4930 C 466.689 -3.49815 -0.732397 0
M  V30 4931 C 466.518 -4.47603 0.433799 0
M  V30 4932 C 465.288 -4.96806 0.922599 0
M  V30 4933 C 467.486 -4.98233 1.27546 0
M  V30 4934 N 465.468 -5.78426 2.05662 0
M  V30 4935 C 466.839 -5.77455 2.25712 0
M  V30 4936 C 468.894 -4.80439 1.307 0
M  V30 4937 C 467.597 -6.40778 3.26796 0
M  V30 4938 C 469.623 -5.44574 2.30637 0
M  V30 4939 C 468.985 -6.23619 3.27533 0
M  V30 4940 H 465.084 -0.777905 -0.0799257 0
M  V30 4941 H 467.668 -1.9015 0.418458 0
M  V30 4942 H 465.839 -3.60925 -1.43483 0
M  V30 4943 H 467.571 -3.82681 -1.31671 0
M  V30 4944 H 464.326 -4.70961 0.49926 0
M  V30 4945 H 464.75 -6.23923 2.62772 0
M  V30 4946 H 469.392 -4.18918 0.571622 0
M  V30 4947 H 467.11 -7.01439 4.01258 0
M  V30 4948 H 470.696 -5.32739 2.33838 0
M  V30 4949 H 469.576 -6.72367 4.03599 0
M  V30 4950 N 467.08 -0.0183926 -1.57589 0
M  V30 4951 C 468.01 0.965596 -2.12599 0
M  V30 4952 C 468.991 1.34641 -1.0395 0
M  V30 4953 O 470.176 1.42693 -1.31729 0
M  V30 4954 C 467.306 2.25149 -2.64434 0
M  V30 4955 C 466.26 2.01175 -3.77773 0
M  V30 4956 C 465.586 3.35937 -4.15994 0
M  V30 4957 C 466.886 1.35953 -5.04296 0
M  V30 4958 H 468.58 0.507504 -2.95067 0
M  V30 4959 H 466.126 0.242671 -1.41941 0
M  V30 4960 H 468.079 2.94357 -3.01549 0
M  V30 4961 H 466.803 2.73105 -1.79112 0
M  V30 4962 H 465.462 1.34388 -3.4108 0
M  V30 4963 H 465.11 3.81631 -3.27669 0
M  V30 4964 H 464.81 3.20705 -4.92364 0
M  V30 4965 H 466.334 4.0643 -4.55683 0
M  V30 4966 H 467.748 1.95144 -5.39065 0
M  V30 4967 H 466.145 1.31152 -5.85593 0
M  V30 4968 H 467.215 0.331071 -4.83768 0
M  V30 4969 N 468.558 1.5553 0.254621 0
M  V30 4970 C 469.506 1.9048 1.33492 0
M  V30 4971 C 470.5 0.78304 1.50216 0
M  V30 4972 O 471.706 0.967582 1.51782 0
M  V30 4973 H 468.081 0.604846 0.44684 0
M  V30 4974 H 470.052 2.80688 1.01275 0
M  V30 4975 C 468.801 2.20928 2.68489 0
M  V30 4976 H 468.124 3.06742 2.56417 0
M  V30 4977 H 469.564 2.49291 3.42972 0
M  V30 4978 C 468.023 1.023 3.20993 0
M  V30 4979 O 468.553 0.267027 4.00811 0
M  V30 4980 N 466.759 0.815714 2.78917 0
M  V30 4981 H 466.306 1.43217 2.14119 0
M  V30 4982 H 466.264 0.0236532 3.14391 0
M  V30 4983 N 470.036 -0.519951 1.48776 0
M  V30 4984 C 470.946 -1.65025 1.66745 0
M  V30 4985 C 471.962 -1.6508 0.549954 0
M  V30 4986 O 473.138 -1.83848 0.822295 0
M  V30 4987 C 470.203 -3.0146 1.71238 0
M  V30 4988 C 469.264 -3.12182 2.94688 0
M  V30 4989 C 468.497 -4.42109 2.98958 0
M  V30 4990 O 468.72 -5.29799 2.1135 0
M  V30 4991 O 467.654 -4.57406 3.91233 0
M  V30 4992 H 471.48 -1.52801 2.62461 0
M  V30 4993 H 469.065 -0.694157 1.32294 0
M  V30 4994 H 470.947 -3.82584 1.76657 0
M  V30 4995 H 469.622 -3.13988 0.786975 0
M  V30 4996 H 468.529 -2.30316 2.94797 0
M  V30 4997 H 469.862 -3.04574 3.86646 0
M  V30 4998 N 471.514 -1.37532 -0.769588 0
M  V30 4999 C 472.762 -1.32597 -1.5252 0
M  V30 5000 C 473.083 0.0884294 -1.94799 0
M  V30 5001 O 472.353 1.03289 -1.66458 0
M  V30 5002 H 470.933 -0.487846 -0.565699 0
M  V30 5003 H 473.595 -1.72044 -0.915806 0
M  V30 5004 H 472.691 -1.96643 -2.42359 0
M  V30 5005 N 472.992 0.995999 -1.22138 0
M  V30 5006 C 473.942 2.06988 -0.956042 0
M  V30 5007 C 474.926 1.60636 0.0921576 0
M  V30 5008 O 476.118 1.76607 -0.117958 0
M  V30 5009 C 473.247 3.39148 -0.532335 0
M  V30 5010 C 472.333 3.92142 -1.61509 0
M  V30 5011 N 472.724 4.18397 -2.84214 0
M  V30 5012 C 471.022 4.20514 -1.48606 0
M  V30 5013 C 471.723 4.61425 -3.54206 0
M  V30 5014 N 470.699 4.64934 -2.81669 0
M  V30 5015 H 474.501 2.25223 -1.88816 0
M  V30 5016 H 472.015 1.17748 -1.11845 0
M  V30 5017 H 474.012 4.15642 -0.323574 0
M  V30 5018 H 472.672 3.22314 0.392921 0
M  V30 5019 H 473.683 4.06682 -3.20671 0
M  V30 5020 H 470.36 4.12769 -0.626762 0
M  V30 5021 H 471.75 4.90387 -4.59315 0
M  V30 5022 N 474.47 1.03057 1.19235 0
M  V30 5023 C 475.698 0.747697 1.92917 0
M  V30 5024 C 476.113 -0.69372 1.75593 0
M  V30 5025 O 475.47 -1.47191 1.07894 0
M  V30 5026 C 475.521 1.09159 3.44625 0
M  V30 5027 O 475.242 2.47641 3.61394 0
M  V30 5028 C 476.743 0.831763 4.35427 0
M  V30 5029 H 473.963 0.273453 0.612751 0
M  V30 5030 H 476.507 1.37552 1.51327 0
M  V30 5031 H 474.662 0.508919 3.84043 0
M  V30 5032 H 475.076 2.60499 4.55237 0
M  V30 5033 H 476.55 1.12233 5.4047 0
M  V30 5034 H 477.027 -0.233769 4.38577 0
M  V30 5035 H 477.633 1.39725 4.01693 0
M  V30 5036 N 475.948 -1.35272 0.808662 0
M  V30 5037 C 477.194 -1.99003 0.390581 0
M  V30 5038 C 477.527 -1.63999 -1.0401 0
M  V30 5039 O 476.802 -0.904368 -1.72196 0
M  V30 5040 C 477.085 -3.55454 0.576566 0
M  V30 5041 C 476.938 -4.00249 2.05233 0
M  V30 5042 C 478.257 -4.401 0.00354277 0
M  V30 5043 H 475.376 -0.722917 0.143388 0
M  V30 5044 H 478.018 -1.6039 1.01858 0
M  V30 5045 H 476.168 -3.88477 0.0419766 0
M  V30 5046 H 477.84 -3.77626 2.64946 0
M  V30 5047 H 476.083 -3.51082 2.54801 0
M  V30 5048 H 476.754 -5.0911 2.13333 0
M  V30 5049 H 479.23 -4.13548 0.460117 0
M  V30 5050 H 478.106 -5.48656 0.163575 0
M  V30 5051 H 478.367 -4.28444 -1.09032 0
M  V30 5052 N 477.426 -0.562348 -1.47226 0
M  V30 5053 C 478.656 -0.0451619 -2.06551 0
M  V30 5054 C 479.064 1.25626 -1.41473 0
M  V30 5055 O 478.407 1.76563 -0.507061 0
M  V30 5056 C 478.469 0.216068 -3.5885 0
M  V30 5057 C 478.133 -0.996691 -4.45999 0
M  V30 5058 C 479.13 -1.90358 -4.83797 0
M  V30 5059 C 476.815 -1.21281 -4.87438 0
M  V30 5060 C 478.809 -3.01023 -5.6184 0
M  V30 5061 C 476.496 -2.32255 -5.65244 0
M  V30 5062 C 477.494 -3.21956 -6.02356 0
M  V30 5063 O 477.182 -4.31005 -6.78594 0
M  V30 5064 H 476.914 -0.0451646 -0.67449 0
M  V30 5065 H 479.468 -0.776842 -1.90143 0
M  V30 5066 H 477.698 1.00212 -3.7349 0
M  V30 5067 H 479.387 0.679264 -4.00176 0
M  V30 5068 H 480.153 -1.74868 -4.52378 0
M  V30 5069 H 476.032 -0.523767 -4.58015 0
M  V30 5070 H 479.576 -3.71064 -5.90726 0
M  V30 5071 H 475.473 -2.47715 -5.96077 0
M  V30 5072 H 476.241 -4.29118 -6.96994 0
M  V30 5073 N 478.904 1.54736 -0.299062 0
M  V30 5074 C 479.834 2.26409 0.571085 0
M  V30 5075 C 480.815 1.2629 1.13951 0
M  V30 5076 O 482 1.55059 1.16921 0
M  V30 5077 C 479.13 3.00338 1.74396 0
M  V30 5078 C 478.084 4.07588 1.30599 0
M  V30 5079 C 477.41 4.69222 2.56387 0
M  V30 5080 C 478.71 5.20455 0.438645 0
M  V30 5081 H 480.404 2.99388 -0.0266991 0
M  V30 5082 H 477.95 1.43993 -0.0142812 0
M  V30 5083 H 479.903 3.49198 2.35878 0
M  V30 5084 H 478.627 2.24934 2.36796 0
M  V30 5085 H 477.286 3.59575 0.71424 0
M  V30 5086 H 476.934 3.9046 3.17097 0
M  V30 5087 H 476.634 5.41653 2.27784 0
M  V30 5088 H 478.158 5.20844 3.18675 0
M  V30 5089 H 479.572 5.65221 0.959085 0
M  V30 5090 H 477.969 5.99594 0.246466 0
M  V30 5091 H 479.039 4.8192 -0.536738 0
M  V30 5092 N 480.382 0.0267497 1.57577 0
M  V30 5093 C 481.292 -0.971633 2.13533 0
M  V30 5094 C 482.308 -1.35868 1.08701 0
M  V30 5095 O 483.484 -1.44058 1.40746 0
M  V30 5096 C 480.549 -2.23622 2.64941 0
M  V30 5097 C 479.61 -1.90982 3.8448 0
M  V30 5098 C 478.843 -3.11411 4.33427 0
M  V30 5099 O 479.066 -4.23992 3.81558 0
M  V30 5100 O 478 -2.93848 5.25297 0
M  V30 5101 H 481.826 -0.525853 2.99113 0
M  V30 5102 H 479.411 -0.193712 1.48139 0
M  V30 5103 H 481.293 -2.97864 2.98086 0
M  V30 5104 H 479.968 -2.67386 1.82446 0
M  V30 5105 H 478.875 -1.14132 3.56265 0
M  V30 5106 H 480.208 -1.52036 4.6813 0
M  V30 5107 N 481.861 -1.55662 -0.24637 0
M  V30 5108 C 483.277 -1.48098 -0.594907 0
M  V30 5109 C 483.477 -0.717044 -1.8831 0
M  V30 5110 O 482.533 -0.246618 -2.51293 0
M  V30 5111 C 483.846 -2.92507 -0.697146 0
M  V30 5112 C 485.394 -3.02881 -0.789436 0
M  V30 5113 C 485.869 -4.48598 -0.923232 0
M  V30 5114 N 487.36 -4.52538 -0.988088 0
M  V30 5115 C 488.095 -5.62536 -1.11089 0
M  V30 5116 N 487.591 -6.82342 -1.19919 0
M  V30 5117 N 489.384 -5.50334 -1.14408 0
M  V30 5118 H 481.535 -2.0377 0.599278 0
M  V30 5119 H 483.798 -0.925145 0.20691 0
M  V30 5120 H 483.504 -3.51242 0.179396 0
M  V30 5121 H 483.378 -3.43024 -1.5689 0
M  V30 5122 H 485.765 -2.44226 -1.65643 0
M  V30 5123 H 485.846 -2.55574 0.107482 0
M  V30 5124 H 485.49 -5.07864 -0.0607927 0
M  V30 5125 H 485.42 -4.93587 -1.8352 0
M  V30 5126 H 487.911 -3.66248 -0.931167 0
M  V30 5127 H 488.224 -7.61924 -1.29197 0
M  V30 5128 H 486.569 -6.85102 -1.16876 0
M  V30 5129 H 489.76 -4.5567 -1.07158 0
M  V30 5130 H 489.933 -6.36096 -1.23634 0
M  V30 5131 N 483.339 0.512053 -1.4905 0
M  V30 5132 C 484.289 1.61142 -1.61298 0
M  V30 5133 C 485.273 1.53908 -0.46916 0
M  V30 5134 O 486.465 1.61625 -0.721547 0
M  V30 5135 C 483.594 2.998 -1.67256 0
M  V30 5136 C 482.68 3.12072 -2.87179 0
M  V30 5137 N 483.071 2.94263 -4.11391 0
M  V30 5138 C 481.369 3.43156 -2.84886 0
M  V30 5139 C 482.07 3.10426 -4.91946 0
M  V30 5140 N 481.046 3.38808 -4.251 0
M  V30 5141 H 484.848 1.46011 -2.55065 0
M  V30 5142 H 482.362 0.717934 -1.45669 0
M  V30 5143 H 484.359 3.78794 -1.74128 0
M  V30 5144 H 483.019 3.1601 -0.746195 0
M  V30 5145 H 484.03 2.70661 -4.41546 0
M  V30 5146 H 480.707 3.65611 -2.01581 0
M  V30 5147 H 482.097 3.01243 -6.00585 0
M  V30 5148 N 484.817 1.37938 0.762283 0
M  V30 5149 C 486.066 1.32989 1.51647 0
M  V30 5150 C 486.379 -0.0802922 1.95435 0
M  V30 5151 O 487.585 -0.252295 2.70325 0
M  V30 5152 C 486.041 2.33485 2.73885 0
M  V30 5153 C 485.649 3.80079 2.37157 0
M  V30 5154 C 487.393 2.37563 3.51801 0
M  V30 5155 C 485.3 4.72283 3.55954 0
M  V30 5156 H 484.23 0.494301 0.56937 0
M  V30 5157 H 486.881 1.63448 0.834083 0
M  V30 5158 H 485.263 1.96056 3.44061 0
M  V30 5159 H 486.437 4.26398 1.74704 0
M  V30 5160 H 484.752 3.79037 1.72395 0
M  V30 5161 H 487.349 3.0365 4.40114 0
M  V30 5162 H 487.692 1.39199 3.92338 0
M  V30 5163 H 488.225 2.73747 2.8863 0
M  V30 5164 H 484.964 5.7181 3.2049 0
M  V30 5165 H 484.484 4.30663 4.1748 0
M  V30 5166 H 486.163 4.89876 4.22647 0
M  V30 5167 N 486.295 -0.989507 1.22664 0
M  V30 5168 C 487.535 -1.7447 1.06488 0
M  V30 5169 C 487.899 -1.8794 -0.392737 0
M  V30 5170 O 489.1 -2.60175 -0.675446 0
M  V30 5171 C 487.371 -3.11043 1.76031 0
M  V30 5172 S 488.93 -4.02258 1.7531 0
M  V30 5173 H 485.748 -0.600123 0.381278 0
M  V30 5174 H 488.35 -1.18283 1.55658 0
M  V30 5175 H 487.054 -2.98884 2.81241 0
M  V30 5176 H 486.585 -3.72301 1.27105 0
M  V30 5177 H 488.6 -4.89623 0.805208 0
M  V30 5178 N 487.773 -1.03688 -1.18687 0
M  V30 5179 C 489.021 -0.736572 -1.88199 0
M  V30 5180 C 489.342 0.737665 -1.80509 0
M  V30 5181 O 488.612 1.53204 -1.22088 0
M  V30 5182 H 487.192 -0.269466 -0.696704 0
M  V30 5183 H 489.854 -1.31282 -1.44052 0
M  V30 5184 H 488.95 -1.03802 -2.94332 0
M  V30 5185 N 489.251 1.34841 -0.815825 0
M  V30 5186 C 490.667 1.51543 -0.500697 0
M  V30 5187 C 490.867 1.76261 0.976444 0
M  V30 5188 O 489.923 1.8094 1.76117 0
M  V30 5189 C 491.236 2.68487 -1.35407 0
M  V30 5190 C 492.784 2.82368 -1.35046 0
M  V30 5191 C 493.259 4.02347 -2.18816 0
M  V30 5192 N 494.75 4.09542 -2.16402 0
M  V30 5193 C 495.485 5.01517 -2.77971 0
M  V30 5194 N 494.981 5.98763 -3.48503 0
M  V30 5195 N 496.774 4.94334 -2.67563 0
M  V30 5196 H 488.925 1.17055 -1.77234 0
M  V30 5197 H 491.188 0.573481 -0.754866 0
M  V30 5198 H 490.894 2.56829 -2.40274 0
M  V30 5199 H 490.768 3.63321 -1.01377 0
M  V30 5200 H 493.155 2.93471 -0.309604 0
M  V30 5201 H 493.236 1.88363 -1.73069 0
M  V30 5202 H 492.88 3.92004 -3.22948 0
M  V30 5203 H 492.81 4.95551 -1.78148 0
M  V30 5204 H 495.301 3.39932 -1.65091 0
M  V30 5205 H 495.614 6.6556 -3.92747 0
M  V30 5206 H 493.959 5.98909 -3.52609 0
M  V30 5207 H 497.15 4.1732 -2.12041 0
M  V30 5208 H 497.323 5.6582 -3.15834 0
M  V30 5209 N 490.729 0.570148 1.46925 0
M  V30 5210 C 491.659 -0.158274 2.32963 0
M  V30 5211 C 492.64 -0.896093 1.44583 0
M  V30 5212 O 493.825 -0.874022 1.7342 0
M  V30 5213 C 490.955 -1.18055 3.26619 0
M  V30 5214 C 489.909 -0.558379 4.24342 0
M  V30 5215 C 489.235 -1.68623 5.07415 0
M  V30 5216 C 490.535 0.496295 5.19937 0
M  V30 5217 H 492.229 0.560046 2.94115 0
M  V30 5218 H 489.775 0.270775 1.41431 0
M  V30 5219 H 491.728 -1.69841 3.85658 0
M  V30 5220 H 490.452 -1.92899 2.63548 0
M  V30 5221 H 489.111 -0.0617157 3.66548 0
M  V30 5222 H 488.759 -2.42402 4.40738 0
M  V30 5223 H 488.459 -1.27564 5.73586 0
M  V30 5224 H 489.983 -2.20709 5.69315 0
M  V30 5225 H 491.397 0.0640052 5.73264 0
M  V30 5226 H 489.794 0.82649 5.94381 0
M  V30 5227 H 490.864 1.38735 4.6463 0
M  V30 5228 N 492.207 -1.54576 0.307264 0
M  V30 5229 C 493.454 -2.00263 -0.300167 0
M  V30 5230 C 493.782 -1.19561 -1.53413 0
M  V30 5231 O 493.037 -0.261487 -1.93945 0
M  V30 5232 C 493.336 -3.50572 -0.695253 0
M  V30 5233 C 493.002 -4.48771 0.437679 0
M  V30 5234 C 491.664 -4.7534 0.748681 0
M  V30 5235 C 494.016 -5.0721 1.19949 0
M  V30 5236 C 491.344 -5.5761 1.8245 0
M  V30 5237 C 493.696 -5.90651 2.26527 0
M  V30 5238 C 492.36 -6.15528 2.58227 0
M  V30 5239 H 491.63 -0.732814 -0.109839 0
M  V30 5240 H 494.277 -1.86664 0.427661 0
M  V30 5241 H 492.582 -3.61814 -1.50326 0
M  V30 5242 H 494.279 -3.83352 -1.17653 0
M  V30 5243 H 490.869 -4.282 0.185187 0
M  V30 5244 H 495.053 -4.86679 0.972474 0
M  V30 5245 H 490.309 -5.75121 2.07476 0
M  V30 5246 H 494.483 -6.34957 2.86011 0
M  V30 5247 H 492.11 -6.79066 3.4172 0
M  V30 5248 N 493.685 -0.035106 -1.57561 0
M  V30 5249 C 494.933 0.64096 -1.91667 0
M  V30 5250 C 495.254 1.72323 -0.912681 0
M  V30 5251 O 494.524 1.95849 0.0449089 0
M  V30 5252 H 493.104 0.239743 -0.707483 0
M  V30 5253 H 495.766 -0.084321 -1.94718 0
M  V30 5254 H 494.862 1.08987 -2.92452 0
M  V30 5255 N 495.163 1.55791 0.238111 0
M  V30 5256 C 496.073 1.94196 1.31625 0
M  V30 5257 C 497.089 0.843545 1.52185 0
M  V30 5258 O 498.265 1.1457 1.65637 0
M  V30 5259 C 495.33 2.2365 2.64918 0
M  V30 5260 C 494.391 3.46971 2.52804 0
M  V30 5261 C 493.624 3.7501 3.79741 0
M  V30 5262 O 493.847 3.04982 4.82019 0
M  V30 5263 O 492.781 4.68525 3.77846 0
M  V30 5264 H 496.607 2.86044 1.02043 0
M  V30 5265 H 494.192 1.42786 0.439603 0
M  V30 5266 H 496.074 2.43863 3.4367 0
M  V30 5267 H 494.749 1.34979 2.94215 0
M  V30 5268 H 493.656 3.32055 1.72309 0
M  V30 5269 H 494.989 4.35971 2.28451 0
M  V30 5270 N 496.642 -0.504142 1.49319 0
M  V30 5271 C 497.589 -1.60603 1.65756 0
M  V30 5272 C 498.559 -1.58425 0.499082 0
M  V30 5273 O 499.744 -1.76459 0.725728 0
M  V30 5274 C 496.884 -2.98764 1.72726 0
M  V30 5275 C 495.997 -3.10982 2.99857 0
M  V30 5276 C 495.132 -4.39857 2.97824 0
M  V30 5277 C 494.171 -4.45697 4.19548 0
M  V30 5278 N 493.308 -5.65995 4.15444 0
M  V30 5279 H 498.148 -1.45895 2.59843 0
M  V30 5280 H 495.685 -0.709891 1.28837 0
M  V30 5281 H 497.643 -3.78839 1.74747 0
M  V30 5282 H 496.273 -3.12183 0.821075 0
M  V30 5283 H 495.325 -2.23991 3.07461 0
M  V30 5284 H 496.637 -3.11157 3.89849 0
M  V30 5285 H 495.791 -5.2825 2.98391 0
M  V30 5286 H 494.53 -4.42242 2.05604 0
M  V30 5287 H 493.535 -3.55707 4.19229 0
M  V30 5288 H 494.76 -4.4503 5.12957 0
M  V30 5289 H 492.706 -5.69229 3.26059 0
M  V30 5290 H 492.623 -5.67773 4.99169 0
M  V30 5291 H 493.891 -6.56604 4.20109 0
M  V30 5292 N 498.12 -1.38341 -0.754957 0
M  V30 5293 C 499.367 -1.34473 -1.51404 0
M  V30 5294 C 499.695 0.0656458 -1.94389 0
M  V30 5295 O 498.95 1.04244 -1.65625 0
M  V30 5296 C 499.249 -2.2452 -2.78075 0
M  V30 5297 C 498.915 -3.72512 -2.54059 0
M  V30 5298 C 497.577 -4.1284 -2.47218 0
M  V30 5299 C 499.929 -4.66197 -2.33044 0
M  V30 5300 C 497.257 -5.44945 -2.17376 0
M  V30 5301 C 499.609 -5.98558 -2.04723 0
M  V30 5302 C 498.273 -6.37972 -1.96337 0
M  V30 5303 H 497.543 -0.492072 -0.554027 0
M  V30 5304 H 500.19 -1.70687 -0.868223 0
M  V30 5305 H 498.495 -1.81357 -3.473 0
M  V30 5306 H 500.192 -2.18832 -3.36026 0
M  V30 5307 H 496.782 -3.40538 -2.60253 0
M  V30 5308 H 500.966 -4.35888 -2.37309 0
M  V30 5309 H 496.222 -5.74426 -2.09391 0
M  V30 5310 H 500.396 -6.70693 -1.87465 0
M  V30 5311 H 498.023 -7.40258 -1.72978 0
M  V30 5312 N 499.598 0.982988 -1.23187 0
M  V30 5313 C 501.014 1.2487 -0.993967 0
M  V30 5314 C 501.214 1.99155 0.306498 0
M  V30 5315 O 500.27 2.30688 1.0266 0
M  V30 5316 C 501.583 2.05078 -2.19917 0
M  V30 5317 C 503.131 2.18227 -2.2438 0
M  V30 5318 C 503.606 3.01825 -3.44479 0
M  V30 5319 N 505.097 3.09411 -3.44702 0
M  V30 5320 C 505.832 3.74412 -4.34285 0
M  V30 5321 N 505.328 4.41259 -5.341 0
M  V30 5322 N 507.121 3.71273 -4.22035 0
M  V30 5323 H 499.272 0.485253 -2.06783 0
M  V30 5324 H 501.535 0.276979 -0.906635 0
M  V30 5325 H 501.241 1.57867 -3.14279 0
M  V30 5326 H 501.115 3.05829 -2.2079 0
M  V30 5327 H 503.502 2.64648 -1.30559 0
M  V30 5328 H 503.583 1.16873 -2.2754 0
M  V30 5329 H 503.227 2.56102 -4.38605 0
M  V30 5330 H 503.157 4.03342 -3.38559 0
M  V30 5331 H 505.648 2.61845 -2.7248 0
M  V30 5332 H 505.961 4.88629 -5.98717 0
M  V30 5333 H 504.306 4.39975 -5.38002 0
M  V30 5334 H 507.497 3.18217 -3.43301 0
M  V30 5335 H 507.67 4.21649 -4.92053 0
M  V30 5336 N 501.076 1.04316 1.18135 0
M  V30 5337 C 502.026 0.606731 2.19779 0
M  V30 5338 C 503.01 -0.352144 1.56999 0
M  V30 5339 O 504.202 -0.170795 1.76174 0
M  V30 5340 C 501.331 -0.0262443 3.4329 0
M  V30 5341 C 500.417 0.955928 4.13186 0
M  V30 5342 N 500.808 2.12395 4.59045 0
M  V30 5343 C 499.106 0.782473 4.39082 0
M  V30 5344 C 499.807 2.74458 5.12882 0
M  V30 5345 N 498.783 2.02316 5.04548 0
M  V30 5346 H 502.585 1.49679 2.5293 0
M  V30 5347 H 500.099 0.912088 1.34368 0
M  V30 5348 H 502.096 -0.356617 4.15372 0
M  V30 5349 H 500.756 -0.911811 3.11635 0
M  V30 5350 H 501.767 2.50272 4.53414 0
M  V30 5351 H 498.444 -0.0527906 4.17467 0
M  V30 5352 H 499.834 3.73459 5.5855 0
M  V30 5353 N 502.554 -1.34406 0.822964 0
M  V30 5354 C 503.801 -1.98284 0.411057 0
M  V30 5355 C 504.129 -1.65245 -1.02588 0
M  V30 5356 O 503.384 -0.91619 -1.72929 0
M  V30 5357 C 503.683 -3.52981 0.560268 0
M  V30 5358 C 503.349 -4.05931 1.96293 0
M  V30 5359 C 502.011 -4.20103 2.34664 0
M  V30 5360 C 504.363 -4.34412 2.87985 0
M  V30 5361 C 501.691 -4.60082 3.64062 0
M  V30 5362 C 504.043 -4.75838 4.16847 0
M  V30 5363 C 502.707 -4.88215 4.55195 0
M  V30 5364 H 501.977 -0.725573 0.150416 0
M  V30 5365 H 504.624 -1.60349 1.04692 0
M  V30 5366 H 502.929 -3.91477 -0.158982 0
M  V30 5367 H 504.626 -4.00385 0.222087 0
M  V30 5368 H 501.216 -3.95363 1.65487 0
M  V30 5369 H 505.4 -4.23001 2.59584 0
M  V30 5370 H 500.656 -4.67856 3.93599 0
M  V30 5371 H 504.83 -4.96834 4.87984 0
M  V30 5372 H 502.457 -5.18952 5.55512 0
M  V30 5373 N 504.032 -0.577932 -1.46621 0
M  V30 5374 C 504.98 0.170882 -2.31971 0
M  V30 5375 C 505.974 0.889086 -1.44193 0
M  V30 5376 O 507.18 0.808017 -1.60845 0
M  V30 5377 H 503.555 0.0739763 -0.748353 0
M  V30 5378 H 505.526 -0.567856 -2.92947 0
M  V30 5379 C 504.275 1.17438 -3.27267 0
M  V30 5380 H 503.598 0.63116 -3.94787 0
M  V30 5381 H 505.038 1.66882 -3.89778 0
M  V30 5382 C 503.497 2.23292 -2.52274 0
M  V30 5383 O 504.027 3.30567 -2.28229 0
M  V30 5384 N 502.233 1.97772 -2.12919 0
M  V30 5385 H 501.78 1.10545 -2.32675 0
M  V30 5386 H 501.738 2.68809 -1.63062 0
M  V30 5387 N 505.51 1.54411 -0.315457 0
M  V30 5388 C 506.473 2.22713 0.54142 0
M  V30 5389 C 507.473 1.2179 1.04995 0
M  V30 5390 O 508.663 1.46426 0.943667 0
M  V30 5391 C 505.795 2.92485 1.75116 0
M  V30 5392 H 506.988 2.99849 -0.0555508 0
M  V30 5393 H 504.541 1.56159 -0.0664453 0
M  V30 5394 H 505.276 2.19466 2.38758 0
M  V30 5395 H 505.061 3.66483 1.39401 0
M  V30 5396 H 506.551 3.44548 2.35959 0
M  V30 5397 N 506.988 0.0434614 1.5754 0
M  V30 5398 C 507.918 -0.931651 2.14109 0
M  V30 5399 C 508.899 -1.32971 1.06079 0
M  V30 5400 O 510.084 -1.40579 1.33982 0
M  V30 5401 C 507.214 -2.20914 2.67982 0
M  V30 5402 C 506.168 -1.95139 3.80926 0
M  V30 5403 C 505.494 -3.29276 4.21285 0
M  V30 5404 C 506.794 -1.27913 5.06395 0
M  V30 5405 H 508.488 -0.460497 2.95837 0
M  V30 5406 H 506.034 -0.220058 1.42309 0
M  V30 5407 H 507.987 -2.89522 3.06194 0
M  V30 5408 H 506.711 -2.70221 1.83434 0
M  V30 5409 H 505.37 -1.28945 3.43175 0
M  V30 5410 H 505.018 -3.76369 3.33699 0
M  V30 5411 H 504.718 -3.12831 4.97404 0
M  V30 5412 H 506.242 -3.99129 4.62091 0
M  V30 5413 H 507.656 -1.86544 5.42102 0
M  V30 5414 H 506.053 -1.2182 5.87605 0
M  V30 5415 H 507.123 -0.254066 4.84234 0
M  V30 5416 N 508.466 -1.55915 -0.229846 0
M  V30 5417 C 509.714 -1.7819 -0.953565 0
M  V30 5418 C 510.035 -0.610504 -1.85197 0
M  V30 5419 O 509.305 0.372988 -1.92316 0
M  V30 5420 H 507.885 -0.657208 -0.355087 0
M  V30 5421 H 510.547 -1.9337 -0.243693 0
M  V30 5422 H 509.643 -2.70011 -1.56527 0
M  V30 5423 N 509.944 0.496216 -1.49584 0
M  V30 5424 C 511.192 1.24756 -1.58998 0
M  V30 5425 C 511.513 1.92968 -0.280775 0
M  V30 5426 O 510.783 1.82959 0.700198 0
M  V30 5427 H 509.363 0.463471 -0.585836 0
M  V30 5428 H 512.025 0.574678 -1.86235 0
M  V30 5429 H 511.121 2.00895 -2.38847 0
M  V30 5430 N 511.423 1.38739 0.74761 0
M  V30 5431 C 512.669 1.3648 1.50814 0
M  V30 5432 C 513.024 -0.0431982 1.92351 0
M  V30 5433 O 512.317 -1.0071 1.62997 0
M  V30 5434 C 512.511 2.25992 2.7688 0
M  V30 5435 C 512.34 3.75354 2.47668 0
M  V30 5436 C 511.11 4.44348 2.40589 0
M  V30 5437 C 513.308 4.67642 2.14046 0
M  V30 5438 N 511.29 5.79114 2.03715 0
M  V30 5439 C 512.661 5.90965 1.87512 0
M  V30 5440 C 514.716 4.55787 2.00407 0
M  V30 5441 C 513.419 7.03759 1.48714 0
M  V30 5442 C 515.445 5.68491 1.63011 0
M  V30 5443 C 514.807 6.90879 1.37353 0
M  V30 5444 H 510.906 0.554695 0.551214 0
M  V30 5445 H 513.49 1.7418 0.870033 0
M  V30 5446 H 511.661 1.9047 3.3849 0
M  V30 5447 H 513.393 2.14815 3.42982 0
M  V30 5448 H 510.148 3.97634 2.57262 0
M  V30 5449 H 510.572 6.504 1.87906 0
M  V30 5450 H 515.214 3.61712 2.18916 0
M  V30 5451 H 512.932 7.97746 1.28945 0
M  V30 5452 H 516.518 5.613 1.53081 0
M  V30 5453 H 515.398 7.76609 1.08848 0
M  V30 5454 N 512.901 -0.976442 1.23707 0
M  V30 5455 C 514.149 -1.71487 1.06942 0
M  V30 5456 C 514.47 -1.9098 -0.393897 0
M  V30 5457 O 513.74 -1.48128 -1.28198 0
M  V30 5458 H 512.32 -0.635425 0.392739 0
M  V30 5459 H 514.982 -1.17515 1.55487 0
M  V30 5460 H 514.078 -2.70286 1.56051 0
M  V30 5461 N 514.379 -1.04941 -1.1758 0
M  V30 5462 C 515.289 -0.658826 -2.25159 0
M  V30 5463 C 516.305 0.318941 -1.71052 0
M  V30 5464 O 517.481 0.171669 -2.00667 0
M  V30 5465 C 514.546 -0.0369522 -3.4668 0
M  V30 5466 C 513.607 -1.06484 -4.15884 0
M  V30 5467 C 512.84 -0.472551 -5.31604 0
M  V30 5468 O 513.063 0.718736 -5.65854 0
M  V30 5469 O 511.997 -1.20557 -5.89703 0
M  V30 5470 H 515.823 -1.55533 -2.60851 0
M  V30 5471 H 513.408 -0.820819 -1.24832 0
M  V30 5472 H 515.29 0.308784 -4.20267 0
M  V30 5473 H 513.965 0.833238 -3.12792 0
M  V30 5474 H 512.872 -1.46253 -3.44327 0
M  V30 5475 H 514.205 -1.9061 -4.53794 0
M  V30 5476 N 515.857 1.33968 -0.830081 0
M  V30 5477 C 516.787 2.31911 -0.271911 0
M  V30 5478 C 517.768 1.58571 0.61556 0
M  V30 5479 O 518.953 1.86514 0.540946 0
M  V30 5480 C 516.083 3.42737 0.561146 0
M  V30 5481 C 515.037 4.27383 -0.229789 0
M  V30 5482 C 514.363 5.29742 0.726463 0
M  V30 5483 C 515.663 5.02 -1.44197 0
M  V30 5484 H 517.357 2.78844 -1.09025 0
M  V30 5485 H 514.903 1.34061 -0.52571 0
M  V30 5486 H 516.856 4.10276 0.961867 0
M  V30 5487 H 515.58 2.94471 1.41261 0
M  V30 5488 H 514.239 3.61456 -0.611964 0
M  V30 5489 H 513.887 4.77736 1.57408 0
M  V30 5490 H 513.587 5.87255 0.20142 0
M  V30 5491 H 515.111 6.00149 1.12489 0
M  V30 5492 H 516.525 5.62355 -1.11488 0
M  V30 5493 H 514.922 5.69122 -1.90317 0
M  V30 5494 H 515.992 4.31281 -2.2164 0
M  V30 5495 N 517.335 0.585699 1.46312 0
M  V30 5496 C 518.267 -0.183687 2.28463 0
M  V30 5497 C 519.28 -0.85264 1.38686 0
M  V30 5498 O 520.469 -0.721701 1.6326 0
M  V30 5499 C 517.569 -1.27977 3.13808 0
M  V30 5500 C 516.742 -0.702164 4.31727 0
M  V30 5501 C 515.801 -1.68633 4.98447 0
M  V30 5502 O 514.827 -1.22121 5.55945 0
M  V30 5503 N 516.029 -3.02047 4.95729 0
M  V30 5504 H 518.794 0.521127 2.95134 0
M  V30 5505 H 516.355 0.423673 1.56258 0
M  V30 5506 H 518.347 -1.9375 3.55307 0
M  V30 5507 H 516.917 -1.8874 2.4919 0
M  V30 5508 H 516.137 0.1331 3.93975 0
M  V30 5509 H 517.425 -0.296101 5.07938 0
M  V30 5510 H 516.823 -3.42457 4.50266 0
M  V30 5511 H 515.38 -3.63301 5.41161 0
M  V30 5512 N 518.813 -1.54241 0.323641 0
M  V30 5513 C 519.761 -2.25813 -0.557804 0
M  V30 5514 C 520.755 -1.27225 -1.11849 0
M  V30 5515 O 521.961 -1.45001 -1.06652 0
M  V30 5516 H 518.336 -0.72532 -0.198532 0
M  V30 5517 H 520.307 -2.98322 0.0681112 0
M  V30 5518 C 519.056 -3.02913 -1.70701 0
M  V30 5519 H 518.379 -3.78593 -1.28482 0
M  V30 5520 H 519.819 -3.56238 -2.29935 0
M  V30 5521 C 518.278 -2.11217 -2.62467 0
M  V30 5522 O 518.808 -1.69508 -3.64184 0
M  V30 5523 N 517.014 -1.76704 -2.30703 0
M  V30 5524 H 516.561 -2.1082 -1.48029 0
M  V30 5525 H 516.519 -1.15631 -2.92364 0
M  V30 5526 N 520.291 -0.0518155 -1.57515 0
M  V30 5527 C 521.516 0.634896 -1.97443 0
M  V30 5528 C 521.941 1.63546 -0.929207 0
M  V30 5529 O 521.299 1.80981 0.107484 0
M  V30 5530 C 521.347 1.29765 -3.36442 0
M  V30 5531 O 520.451 2.41333 -3.34413 0
M  V30 5532 H 519.792 0.164994 -0.643174 0
M  V30 5533 H 522.322 -0.120407 -2.04245 0
M  V30 5534 H 522.332 1.64918 -3.73184 0
M  V30 5535 H 521.007 0.564361 -4.12053 0
M  V30 5536 H 519.584 2.08122 -3.09418 0
M  V30 5537 N 521.769 1.56035 0.221574 0
M  V30 5538 C 523.015 1.79312 0.947372 0
M  V30 5539 C 523.348 0.621453 1.83988 0
M  V30 5540 O 522.623 -0.379287 1.90766 0
M  V30 5541 C 522.906 3.1267 1.78633 0
M  V30 5542 C 522.759 4.40284 0.920312 0
M  V30 5543 C 524.078 3.4247 2.7641 0
M  V30 5544 H 521.197 0.652328 0.342982 0
M  V30 5545 H 523.839 1.88765 0.216244 0
M  V30 5546 H 521.989 3.04741 2.40967 0
M  V30 5547 H 523.661 4.60232 0.313718 0
M  V30 5548 H 521.904 4.33212 0.225734 0
M  V30 5549 H 522.575 5.30033 1.54171 0
M  V30 5550 H 525.051 3.50526 2.24211 0
M  V30 5551 H 523.927 4.3695 3.32213 0
M  V30 5552 H 524.188 2.64635 3.54148 0
M  V30 5553 N 523.247 -0.488276 1.49845 0
M  V30 5554 C 524.194 -1.58836 1.67451 0
M  V30 5555 C 525.164 -1.57886 0.515857 0
M  V30 5556 O 526.349 -1.75679 0.744403 0
M  V30 5557 C 523.489 -2.96915 1.75885 0
M  V30 5558 C 522.602 -3.07784 3.03138 0
M  V30 5559 C 521.737 -4.36673 3.02473 0
M  V30 5560 C 520.776 -4.41222 4.24252 0
M  V30 5561 N 519.913 -5.61557 4.21424 0
M  V30 5562 H 524.753 -1.43131 2.61376 0
M  V30 5563 H 522.29 -0.696186 1.29583 0
M  V30 5564 H 524.248 -3.76965 1.78755 0
M  V30 5565 H 522.878 -3.11295 0.85414 0
M  V30 5566 H 521.93 -2.20717 3.09819 0
M  V30 5567 H 523.242 -3.07005 3.93128 0
M  V30 5568 H 522.396 -5.25055 3.03977 0
M  V30 5569 H 521.135 -4.40037 2.10283 0
M  V30 5570 H 520.14 -3.5124 4.22978 0
M  V30 5571 H 521.365 -4.39564 5.17649 0
M  V30 5572 H 519.311 -5.65738 3.32078 0
M  V30 5573 H 519.228 -5.62447 5.05163 0
M  V30 5574 H 520.496 -6.52111 4.2705 0
M  V30 5575 N 524.725 -1.39134 -0.740242 0
M  V30 5576 C 525.953 -1.39334 -1.5295 0
M  V30 5577 C 526.368 0.0135008 -1.88795 0
M  V30 5578 O 525.725 0.983524 -1.5373 0
M  V30 5579 C 525.776 -2.2614 -2.82034 0
M  V30 5580 O 525.497 -3.61345 -2.47712 0
M  V30 5581 C 526.998 -2.34666 -3.76094 0
M  V30 5582 H 524.218 -0.476103 -0.472828 0
M  V30 5583 H 526.762 -1.82883 -0.9151 0
M  V30 5584 H 524.917 -1.86018 -3.39818 0
M  V30 5585 H 525.331 -4.07194 -3.30595 0
M  V30 5586 H 526.805 -2.99663 -4.63579 0
M  V30 5587 H 527.282 -1.36426 -4.17474 0
M  V30 5588 H 527.888 -2.75236 -3.2423 0
M  V30 5589 N 526.204 0.969867 -1.24223 0
M  V30 5590 C 527.451 1.71256 -1.08063 0
M  V30 5591 C 527.779 1.90734 0.380872 0
M  V30 5592 O 527.034 1.46469 1.29789 0
M  V30 5593 C 527.333 3.10883 -1.76314 0
M  V30 5594 C 526.999 3.11252 -3.26241 0
M  V30 5595 C 525.661 3.1106 -3.67144 0
M  V30 5596 C 528.013 3.05751 -4.22097 0
M  V30 5597 C 525.341 3.03097 -5.02344 0
M  V30 5598 C 527.693 2.9933 -5.57301 0
M  V30 5599 C 526.357 2.97466 -5.97554 0
M  V30 5600 H 525.627 0.62667 -0.395431 0
M  V30 5601 H 528.274 1.13422 -1.54297 0
M  V30 5602 H 526.579 3.72168 -1.22468 0
M  V30 5603 H 528.276 3.67138 -1.61277 0
M  V30 5604 H 524.866 3.12165 -2.93685 0
M  V30 5605 H 529.05 3.05031 -3.91497 0
M  V30 5606 H 524.306 3.00013 -5.32731 0
M  V30 5607 H 528.48 2.94033 -6.31283 0
M  V30 5608 H 526.107 2.91051 -7.02277 0
M  V30 5609 N 527.682 1.05563 1.17022 0
M  V30 5610 C 528.93 0.76642 1.87004 0
M  V30 5611 C 529.251 -0.708854 1.8166 0
M  V30 5612 O 528.521 -1.51242 1.2451 0
M  V30 5613 H 527.101 0.280516 0.692329 0
M  V30 5614 H 529.763 1.33557 1.41945 0
M  V30 5615 H 528.859 1.08472 2.92644 0
M  V30 5616 N 529.16 -1.33526 0.837174 0
M  V30 5617 C 530.07 -2.33023 0.271568 0
M  V30 5618 C 531.086 -1.63272 -0.601514 0
M  V30 5619 O 532.262 -1.94939 -0.506038 0
M  V30 5620 C 529.327 -3.42382 -0.545448 0
M  V30 5621 C 528.388 -4.27857 0.351709 0
M  V30 5622 C 527.621 -5.31994 -0.426409 0
M  V30 5623 O 527.844 -5.45763 -1.65828 0
M  V30 5624 O 526.778 -6.01572 0.1987 0
M  V30 5625 H 530.604 -2.83256 1.09545 0
M  V30 5626 H 528.189 -1.36837 0.599655 0
M  V30 5627 H 530.071 -4.09122 -1.00979 0
M  V30 5628 H 528.746 -2.94369 -1.34641 0
M  V30 5629 H 527.653 -3.6399 0.863853 0
M  V30 5630 H 528.986 -4.79349 1.1174 0
M  V30 5631 N 530.638 -0.59345 -1.46 0
M  V30 5632 C 531.866 -0.0890934 -2.06708 0
M  V30 5633 C 532.281 1.2205 -1.44046 0
M  V30 5634 O 531.638 1.74029 -0.549551 0
M  V30 5635 C 531.689 0.0720263 -3.61428 0
M  V30 5636 O 531.41 -1.18574 -4.21748 0
M  V30 5637 C 532.911 0.609487 -4.3909 0
M  V30 5638 H 530.131 -0.0623628 -0.668096 0
M  V30 5639 H 532.675 -0.817171 -1.87464 0
M  V30 5640 H 530.83 0.750369 -3.80063 0
M  V30 5641 H 531.244 -1.0064 -5.14754 0
M  V30 5642 H 532.718 0.671363 -5.47902 0
M  V30 5643 H 533.195 1.62878 -4.07882 0
M  V30 5644 H 533.801 -0.03434 -4.25286 0
M  V30 5645 N 532.116 1.54067 -0.331816 0
M  V30 5646 C 533.066 2.21363 0.546101 0
M  V30 5647 C 534.05 1.19698 1.07523 0
M  V30 5648 O 535.242 1.45293 1.01088 0
M  V30 5649 C 532.371 2.98115 1.70242 0
M  V30 5650 C 531.457 4.07127 1.18779 0
M  V30 5651 N 531.848 5.04267 0.393465 0
M  V30 5652 C 530.146 4.21226 1.46576 0
M  V30 5653 C 530.847 5.81585 0.115572 0
M  V30 5654 N 529.823 5.39022 0.703987 0
M  V30 5655 H 533.625 2.93821 -0.0679751 0
M  V30 5656 H 531.139 1.61812 -0.138085 0
M  V30 5657 H 533.136 3.44818 2.34321 0
M  V30 5658 H 531.796 2.27181 2.31989 0
M  V30 5659 H 532.807 5.17888 0.0355757 0
M  V30 5660 H 529.484 3.61509 2.08848 0
M  V30 5661 H 530.874 6.6985 -0.524426 0
M  V30 5662 N 533.594 0.0601682 1.57485 0
M  V30 5663 C 535.005 -0.474217 1.80577 0
M  V30 5664 C 535.356 -1.70365 0.973147 0
M  V30 5665 O 534.481 -2.15544 0.192306 0
M  V30 5666 C 535.076 -0.867102 3.27516 0
M  V30 5667 C 533.635 -1.34642 3.51495 0
M  V30 5668 C 532.782 -0.32594 2.75378 0
M  V30 5669 H 535.733 0.285973 1.56102 0
M  V30 5670 H 535.754 -1.72938 3.38929 0
M  V30 5671 H 535.266 0.0278927 3.8809 0
M  V30 5672 H 533.367 -2.2603 2.96212 0
M  V30 5673 H 533.48 -1.33237 4.60201 0
M  V30 5674 H 531.844 -0.800749 2.41785 0
M  V30 5675 H 532.627 0.561125 3.38683 0
M  V30 5676 N 535.072 -1.5615 -0.213296 0
M  V30 5677 C 536.319 -1.79546 -0.936462 0
M  V30 5678 C 536.647 -0.630337 -1.84003 0
M  V30 5679 O 535.902 0.384883 -1.91878 0
M  V30 5680 C 536.201 -3.08772 -1.79985 0
M  V30 5681 C 535.867 -4.38532 -1.04882 0
M  V30 5682 C 534.529 -4.73787 -0.841393 0
M  V30 5683 C 536.881 -5.18609 -0.51907 0
M  V30 5684 C 534.209 -5.86627 -0.0924403 0
M  V30 5685 C 536.561 -6.32229 0.216581 0
M  V30 5686 C 535.225 -6.6608 0.435191 0
M  V30 5687 H 534.495 -0.657004 -0.342676 0
M  V30 5688 H 537.142 -1.9041 -0.204051 0
M  V30 5689 H 535.447 -2.93065 -2.60038 0
M  V30 5690 H 537.144 -3.24077 -2.36168 0
M  V30 5691 H 533.734 -4.10855 -1.22048 0
M  V30 5692 H 537.918 -4.91801 -0.666775 0
M  V30 5693 H 533.174 -6.11338 0.087081 0
M  V30 5694 H 537.348 -6.93503 0.634538 0
M  V30 5695 H 534.975 -7.5336 1.01746 0
M  V30 5696 N 536.55 0.480323 -1.50102 0
M  V30 5697 C 537.778 1.25657 -1.64371 0
M  V30 5698 C 538.193 1.86011 -0.323316 0
M  V30 5699 O 537.55 1.68803 0.693682 0
M  V30 5700 C 537.601 2.37197 -2.728 0
M  V30 5701 O 537.322 1.7932 -3.9972 0
M  V30 5702 C 538.823 3.2823 -2.9796 0
M  V30 5703 H 536.043 0.380369 -0.552775 0
M  V30 5704 H 538.587 0.574379 -1.96268 0
M  V30 5705 H 536.742 3.01208 -2.43623 0
M  V30 5706 H 537.156 2.52701 -4.59611 0
M  V30 5707 H 538.63 4.02725 -3.77513 0
M  V30 5708 H 539.107 3.86462 -2.08671 0
M  V30 5709 H 539.713 2.69964 -3.28633 0
M  V30 5710 N 538.028 1.39524 0.732853 0
M  V30 5711 C 538.975 1.38416 1.84688 0
M  V30 5712 C 539.945 0.243539 1.64305 0
M  V30 5713 O 541.13 0.438979 1.85681 0
M  V30 5714 C 538.27 1.23555 3.22224 0
M  V30 5715 C 537.383 2.47179 3.54298 0
M  V30 5716 C 536.518 2.2489 4.81246 0
M  V30 5717 C 535.557 3.44178 5.0617 0
M  V30 5718 N 534.694 3.21192 6.24323 0
M  V30 5719 H 539.534 2.33645 1.84971 0
M  V30 5720 H 537.071 1.16059 0.903804 0
M  V30 5721 H 539.029 1.12949 4.0162 0
M  V30 5722 H 537.659 0.31954 3.21215 0
M  V30 5723 H 536.711 2.68379 2.69587 0
M  V30 5724 H 538.023 3.36022 3.68633 0
M  V30 5725 H 537.177 2.11538 5.68627 0
M  V30 5726 H 535.916 1.33443 4.69089 0
M  V30 5727 H 534.921 3.58025 4.17251 0
M  V30 5728 H 536.146 4.36528 5.20212 0
M  V30 5729 H 534.092 2.32413 6.1345 0
M  V30 5730 H 534.009 4.03594 6.39256 0
M  V30 5731 H 535.277 3.1154 7.14537 0
M  V30 5732 N 539.506 -0.963266 1.24736 0
M  V30 5733 C 540.436 -2.07628 1.06832 0
M  V30 5734 C 541.417 -1.70088 -0.0200566 0
M  V30 5735 O 542.602 -1.93636 0.147854 0
M  V30 5736 C 539.732 -3.40636 0.677069 0
M  V30 5737 C 538.686 -3.9215 1.71471 0
M  V30 5738 C 538.012 -5.21553 1.1784 0
M  V30 5739 C 539.312 -4.19493 3.11164 0
M  V30 5740 H 541.006 -2.22864 1.9993 0
M  V30 5741 H 538.552 -1.07093 0.96266 0
M  V30 5742 H 540.505 -4.17941 0.538792 0
M  V30 5743 H 539.229 -3.25313 -0.289612 0
M  V30 5744 H 537.888 -3.17005 1.84128 0
M  V30 5745 H 537.536 -5.02593 0.202195 0
M  V30 5746 H 537.236 -5.56988 1.87185 0
M  V30 5747 H 538.76 -6.01463 1.05233 0
M  V30 5748 H 540.174 -4.87487 3.01711 0
M  V30 5749 H 538.571 -4.66165 3.77902 0
M  V30 5750 H 539.641 -3.26097 3.58871 0
M  V30 5751 N 540.985 -1.06182 -1.16461 0
M  V30 5752 C 542.231 -0.779015 -1.87241 0
M  V30 5753 C 542.564 0.692715 -1.81425 0
M  V30 5754 O 541.839 1.5074 -1.22913 0
M  V30 5755 C 542.122 -1.2728 -3.36856 0
M  V30 5756 C 541.975 -2.80821 -3.51368 0
M  V30 5757 C 543.294 -0.879799 -4.31216 0
M  V30 5758 H 540.413 -0.284464 -0.679889 0
M  V30 5759 H 543.055 -1.31755 -1.36896 0
M  V30 5760 H 541.205 -0.814673 -3.79862 0
M  V30 5761 H 542.877 -3.34833 -3.17308 0
M  V30 5762 H 541.12 -3.19606 -2.93316 0
M  V30 5763 H 541.791 -3.10435 -4.56436 0
M  V30 5764 H 544.267 -1.27436 -3.96105 0
M  V30 5765 H 543.143 -1.25278 -5.34412 0
M  V30 5766 H 543.404 0.215372 -4.41575 0
M  V30 5767 N 542.463 1.3308 -0.844243 0
M  V30 5768 C 543.709 1.97898 -0.443206 0
M  V30 5769 C 544.042 1.66699 0.99625 0
M  V30 5770 O 543.317 0.949704 1.69738 0
M  V30 5771 C 543.6 3.53801 -0.670606 0
M  V30 5772 C 543.453 3.94667 -2.15772 0
M  V30 5773 C 544.772 4.39936 -0.120226 0
M  V30 5774 H 541.891 0.718861 -0.162504 0
M  V30 5775 H 544.533 1.57633 -1.06075 0
M  V30 5776 H 542.683 3.88229 -0.14496 0
M  V30 5777 H 544.355 3.70469 -2.74865 0
M  V30 5778 H 542.598 3.44203 -2.6402 0
M  V30 5779 H 543.269 5.03275 -2.26757 0
M  V30 5780 H 545.745 4.12183 -0.5696 0
M  V30 5781 H 544.621 5.4803 -0.308984 0
M  V30 5782 H 544.882 4.31184 0.976347 0
M  V30 5783 N 543.941 0.601185 1.45683 0
M  V30 5784 C 545.218 0.0261659 1.95582 0
M  V30 5785 C 545.598 -1.4399 1.5437 0
M  V30 5786 O 544.946 -2.13919 0.80318 0
M  V30 5787 C 545.156 0.217557 3.48321 0
M  V30 5788 C 546.504 0.0950076 4.24494 0
M  V30 5789 O 547.528 0.147345 3.55895 0
M  V30 5790 O 546.387 -0.025261 5.46494 0
M  V30 5791 H 543.481 -0.0393688 0.826062 0
M  V30 5792 H 546.027 0.670798 1.55879 0
M  V30 5793 H 544.799 1.23601 3.71266 0
M  V30 5794 H 544.422 -0.46264 3.94899 0
M  V30 5795 N 545.419 -1.53889 0.339982 0
M  V30 5796 C 546.349 -2.27843 -0.510856 0
M  V30 5797 C 547.33 -1.29267 -1.10563 0
M  V30 5798 O 548.515 -1.58104 -1.12768 0
M  V30 5799 C 545.645 -3.04857 -1.66372 0
M  V30 5800 C 544.599 -4.10907 -1.19746 0
M  V30 5801 C 543.925 -4.75855 -2.43857 0
M  V30 5802 C 545.225 -5.21435 -0.300501 0
M  V30 5803 H 546.919 -2.99212 0.106067 0
M  V30 5804 H 544.465 -1.43904 0.0524533 0
M  V30 5805 H 546.418 -3.5533 -2.26537 0
M  V30 5806 H 545.142 -2.31133 -2.30749 0
M  V30 5807 H 543.801 -3.61342 -0.618654 0
M  V30 5808 H 543.449 -3.9873 -3.06633 0
M  V30 5809 H 543.149 -5.47502 -2.13343 0
M  V30 5810 H 544.673 -5.2911 -3.04754 0
M  V30 5811 H 546.087 -5.67565 -0.80889 0
M  V30 5812 H 544.484 -6.00036 -0.0874076 0
M  V30 5813 H 545.554 -4.80328 0.664321 0
M  V30 5814 N 546.897 -0.0685191 -1.57451 0
M  V30 5815 C 548.125 0.610462 -1.97689 0
M  V30 5816 C 548.54 1.63346 -0.946758 0
M  V30 5817 O 547.897 1.82377 0.0669868 0
M  V30 5818 C 547.948 1.28196 -3.38006 0
M  V30 5819 O 547.669 0.299906 -4.37072 0
M  V30 5820 C 549.17 2.04907 -3.931 0
M  V30 5821 H 546.39 0.165689 -0.650222 0
M  V30 5822 H 548.934 -0.139953 -2.04021 0
M  V30 5823 H 547.089 1.98348 -3.32771 0
M  V30 5824 H 547.503 0.78126 -5.18649 0
M  V30 5825 H 548.977 2.47287 -4.93511 0
M  V30 5826 H 549.454 2.9043 -3.29465 0
M  V30 5827 H 550.06 1.39629 -4.01726 0
M  V30 5828 N 548.375 1.56261 0.205012 0
M  V30 5829 C 549.652 1.70856 0.952233 0
M  V30 5830 C 550.032 0.620501 2.01775 0
M  V30 5831 O 549.38 -0.370035 2.25484 0
M  V30 5832 C 549.59 3.12807 1.54767 0
M  V30 5833 C 550.938 3.72733 2.0336 0
M  V30 5834 O 551.962 3.15873 1.64629 0
M  V30 5835 O 550.821 4.72501 2.746 0
M  V30 5836 H 547.915 0.696496 0.445895 0
M  V30 5837 H 550.461 1.6857 0.195489 0
M  V30 5838 H 549.233 3.83465 0.779132 0
M  V30 5839 H 548.856 3.1928 2.36951 0
M  V30 5840 N 549.853 -0.472356 1.50355 0
M  V30 5841 C 551.102 -1.2213 1.60522 0
M  V30 5842 C 551.415 -1.9312 0.310466 0
M  V30 5843 O 552.621 -2.69936 0.291029 0
M  V30 5844 C 551.077 -2.21909 2.83345 0
M  V30 5845 C 550.685 -1.56727 4.19691 0
M  V30 5846 C 552.429 -2.97453 3.02856 0
M  V30 5847 C 550.336 -2.54785 5.33703 0
M  V30 5848 H 549.266 -0.459543 0.597776 0
M  V30 5849 H 551.917 -0.491922 1.76783 0
M  V30 5850 H 550.299 -2.98133 2.60639 0
M  V30 5851 H 551.473 -0.863007 4.52646 0
M  V30 5852 H 549.788 -0.934685 4.05774 0
M  V30 5853 H 552.385 -3.70838 3.85205 0
M  V30 5854 H 552.728 -3.56764 2.14534 0
M  V30 5855 H 553.261 -2.28342 3.25737 0
M  V30 5856 H 550 -2.00214 6.24175 0
M  V30 5857 H 549.52 -3.23367 5.05167 0
M  V30 5858 H 551.199 -3.16639 5.64224 0
M  V30 5859 N 551.331 -1.39911 -0.725443 0
M  V30 5860 C 552.608 -1.28158 -1.47766 0
M  V30 5861 C 552.988 0.104545 -2.10841 0
M  V30 5862 O 552.336 1.11657 -1.99361 0
M  V30 5863 C 552.546 -2.41306 -2.52135 0
M  V30 5864 C 553.894 -2.81076 -3.18247 0
M  V30 5865 O 554.918 -2.40827 -2.62452 0
M  V30 5866 O 553.777 -3.50581 -4.19231 0
M  V30 5867 H 550.871 -0.502761 -0.656628 0
M  V30 5868 H 553.417 -1.51808 -0.758456 0
M  V30 5869 H 552.189 -3.33932 -2.03974 0
M  V30 5870 H 551.812 -2.19374 -3.31603 0
M  V30 5871 N 552.809 0.956637 -1.25245 0
M  V30 5872 C 554.22 1.51569 -1.09012 0
M  V30 5873 C 554.571 1.93322 0.334813 0
M  V30 5874 O 553.696 1.78421 1.22454 0
M  V30 5875 C 554.291 2.75444 -1.97271 0
M  V30 5876 C 552.85 3.27669 -1.8523 0
M  V30 5877 C 551.997 2.00517 -1.91542 0
M  V30 5878 H 554.948 0.773746 -1.3856 0
M  V30 5879 H 554.969 3.4919 -1.51151 0
M  V30 5880 H 554.481 2.45024 -3.00973 0
M  V30 5881 H 552.582 3.62914 -0.844045 0
M  V30 5882 H 552.695 3.9582 -2.69932 0
M  V30 5883 H 551.059 2.15727 -1.35404 0
M  V30 5884 H 551.842 1.72448 -2.96844 0
M  V30 5885 N 554.287 1.06798 1.15896 0
M  V30 5886 C 555.564 0.701057 1.82605 0
M  V30 5887 C 555.944 -0.817066 1.94646 0
M  V30 5888 O 555.292 -1.72933 1.49353 0
M  V30 5889 C 555.502 1.40895 3.19296 0
M  V30 5890 C 556.85 1.55744 3.95005 0
M  V30 5891 O 557.874 1.36927 3.28831 0
M  V30 5892 O 556.733 1.86658 5.13635 0
M  V30 5893 H 553.827 0.248791 0.78869 0
M  V30 5894 H 556.373 1.16857 1.23055 0
M  V30 5895 H 555.145 2.4439 3.05596 0
M  V30 5896 H 554.768 0.931847 3.86526 0
M  V30 5897 N 555.766 -1.3263 0.851289 0
M  V30 5898 C 557.012 -1.9766 0.453694 0
M  V30 5899 C 557.345 -1.67225 -0.987396 0
M  V30 5900 O 556.62 -0.958693 -1.69232 0
M  V30 5901 C 556.903 -3.5344 0.68936 0
M  V30 5902 C 556.756 -3.93517 2.17862 0
M  V30 5903 C 558.075 -4.39866 0.143555 0
M  V30 5904 H 555.194 -0.717989 0.166314 0
M  V30 5905 H 557.836 -1.57068 1.06909 0
M  V30 5906 H 555.986 -3.88147 0.165546 0
M  V30 5907 H 557.658 -3.69006 2.76826 0
M  V30 5908 H 555.901 -3.42798 2.65841 0
M  V30 5909 H 556.572 -5.02065 2.29422 0
M  V30 5910 H 559.048 -4.11875 0.591451 0
M  V30 5911 H 557.924 -5.47858 0.338043 0
M  V30 5912 H 558.185 -4.31696 -0.953466 0
M  V30 5913 N 557.244 -0.608902 -1.45362 0
M  V30 5914 C 558.207 0.0992563 -2.28985 0
M  V30 5915 C 559.207 0.793841 -1.39838 0
M  V30 5916 O 560.397 0.641804 -1.61946 0
M  V30 5917 C 557.529 1.15073 -3.20891 0
M  V30 5918 H 558.722 -0.635964 -2.93079 0
M  V30 5919 H 556.275 -0.368007 -1.51906 0
M  V30 5920 H 557.01 1.91667 -2.616 0
M  V30 5921 H 556.795 0.656867 -3.86559 0
M  V30 5922 H 558.285 1.64665 -3.83765 0
M  V30 5923 N 558.722 1.53707 -0.348139 0
M  V30 5924 C 559.952 2.05108 0.247864 0
M  V30 5925 C 560.36 1.22252 1.44399 0
M  V30 5926 O 559.703 0.251853 1.81965 0
M  V30 5927 C 559.765 3.52171 0.722187 0
M  V30 5928 C 559.429 4.5562 -0.354902 0
M  V30 5929 C 560.426 5.05883 -1.19911 0
M  V30 5930 C 558.111 4.99703 -0.510145 0
M  V30 5931 C 560.105 5.98814 -2.18406 0
M  V30 5932 C 557.792 5.92443 -1.49848 0
M  V30 5933 C 558.79 6.41887 -2.33389 0
M  V30 5934 O 558.478 7.32802 -3.3054 0
M  V30 5935 H 558.21 0.674086 0.0508296 0
M  V30 5936 H 560.764 1.99229 -0.49968 0
M  V30 5937 H 558.994 3.55529 1.52105 0
M  V30 5938 H 560.683 3.8652 1.23925 0
M  V30 5939 H 561.449 4.72586 -1.09028 0
M  V30 5940 H 557.328 4.60816 0.130274 0
M  V30 5941 H 560.872 6.3733 -2.83649 0
M  V30 5942 H 556.769 6.25155 -1.60786 0
M  V30 5943 H 557.537 7.50749 -3.26064 0
M  V30 5944 N 560.2 0.0768682 1.57412 0
M  V30 5945 C 561.425 -0.603404 1.98428 0
M  V30 5946 C 561.85 -1.62047 0.955108 0
M  V30 5947 O 561.208 -1.81129 -0.0786778 0
M  V30 5948 C 561.256 -1.24396 3.38464 0
M  V30 5949 O 560.36 -2.35982 3.3821 0
M  V30 5950 H 559.701 -0.154741 0.645718 0
M  V30 5951 H 562.231 0.152885 2.04028 0
M  V30 5952 H 562.241 -1.5896 3.7576 0
M  V30 5953 H 560.916 -0.498735 4.12899 0
M  V30 5954 H 559.493 -2.03173 3.1269 0
M  V30 5955 N 561.678 -1.56367 -0.196722 0
M  V30 5956 C 562.903 -1.84991 -0.937714 0
M  V30 5957 C 563.328 -0.660244 -1.76132 0
M  V30 5958 O 562.686 0.390967 -1.77034 0
M  V30 5959 C 562.734 -3.11828 -1.81096 0
M  V30 5960 O 561.838 -2.92266 -2.90955 0
M  V30 5961 H 561.179 -0.609193 -0.264159 0
M  V30 5962 H 563.709 -2.03595 -0.202529 0
M  V30 5963 H 563.719 -3.42579 -2.21594 0
M  V30 5964 H 562.394 -3.98037 -1.2058 0
M  V30 5965 H 560.971 -2.72809 -2.54224 0
M  V30 5966 N 563.156 0.464375 -1.50603 0
M  V30 5967 C 564.402 1.21776 -1.62168 0
M  V30 5968 C 564.735 1.91476 -0.324154 0
M  V30 5969 O 564.01 1.8242 0.674782 0
M  V30 5970 C 564.293 2.25614 -2.80661 0
M  V30 5971 C 564.146 1.60175 -4.20314 0
M  V30 5972 C 565.465 3.26862 -2.94702 0
M  V30 5973 H 562.584 0.44137 -0.590222 0
M  V30 5974 H 565.226 0.510623 -1.8301 0
M  V30 5975 H 563.376 2.85923 -2.63021 0
M  V30 5976 H 565.048 1.03411 -4.4956 0
M  V30 5977 H 563.291 0.904697 -4.24261 0
M  V30 5978 H 563.962 2.35665 -4.99165 0
M  V30 5979 H 566.438 2.76582 -3.10872 0
M  V30 5980 H 565.314 3.96839 -3.79223 0
M  V30 5981 H 565.575 3.91382 -2.05603 0
M  V30 5982 N 564.634 1.40294 0.718013 0
M  V30 5983 C 566.045 1.34289 1.29705 0
M  V30 5984 C 566.396 0.0152228 1.96194 0
M  V30 5985 O 565.521 -0.88682 1.97394 0
M  V30 5986 C 566.116 2.43219 2.3586 0
M  V30 5987 C 564.675 2.40682 2.89394 0
M  V30 5988 C 563.822 2.24223 1.63154 0
M  V30 5989 H 566.773 1.50135 0.514312 0
M  V30 5990 H 566.794 2.10986 3.16647 0
M  V30 5991 H 566.306 3.39836 1.87439 0
M  V30 5992 H 564.407 1.47756 3.42051 0
M  V30 5993 H 564.52 3.36177 3.41353 0
M  V30 5994 H 562.884 1.71696 1.88129 0
M  V30 5995 H 563.667 3.22834 1.16761 0
M  V30 5996 N 566.112 -0.949982 1.2575 0
M  V30 5997 C 567.342 -1.72721 1.13363 0
M  V30 5998 C 567.75 -1.86562 -0.314842 0
M  V30 5999 O 567.093 -1.36621 -1.22803 0
M  V30 6000 C 567.155 -3.15695 1.7198 0
M  V30 6001 C 566.819 -3.25268 3.21014 0
M  V30 6002 C 567.816 -3.09222 4.17945 0
M  V30 6003 C 565.501 -3.4894 3.61312 0
M  V30 6004 C 567.495 -3.16701 5.53154 0
M  V30 6005 C 565.182 -3.56055 4.96657 0
M  V30 6006 C 566.18 -3.3995 5.92387 0
M  V30 6007 O 565.868 -3.46757 7.25269 0
M  V30 6008 H 565.6 -0.547888 0.395973 0
M  V30 6009 H 568.154 -1.20009 1.66694 0
M  V30 6010 H 566.384 -3.69791 1.13101 0
M  V30 6011 H 568.073 -3.75295 1.54624 0
M  V30 6012 H 568.839 -2.90798 3.88151 0
M  V30 6013 H 564.718 -3.60534 2.87291 0
M  V30 6014 H 568.262 -3.04048 6.27854 0
M  V30 6015 H 564.159 -3.73997 5.26115 0
M  V30 6016 H 564.927 -3.63358 7.33426 0
M  V30 6017 N 567.59 -1.07411 -1.15328 0
M  V30 6018 C 568.5 -0.706438 -2.23711 0
M  V30 6019 C 569.516 0.282586 -1.7169 0
M  V30 6020 O 570.692 0.129066 -2.00986 0
M  V30 6021 C 567.757 -0.11048 -3.46524 0
M  V30 6022 C 566.818 -1.15282 -4.13532 0
M  V30 6023 C 566.051 -0.585205 -5.30482 0
M  V30 6024 O 566.274 0.598549 -5.67251 0
M  V30 6025 O 565.208 -1.33039 -5.87013 0
M  V30 6026 H 569.034 -1.61031 -2.57493 0
M  V30 6027 H 566.619 -0.847113 -1.23062 0
M  V30 6028 H 568.501 0.21957 -4.20828 0
M  V30 6029 H 567.176 0.766703 -3.14489 0
M  V30 6030 H 566.083 -1.53523 -3.41147 0
M  V30 6031 H 567.416 -2.00192 -4.49649 0
M  V30 6032 N 569.068 1.32177 -0.85831 0
M  V30 6033 C 570.015 2.28794 -0.303607 0
M  V30 6034 C 570.985 1.55213 0.591453 0
M  V30 6035 O 572.17 1.83418 0.525585 0
M  V30 6036 C 569.31 3.41475 0.49889 0
M  V30 6037 C 568.423 4.2993 -0.422373 0
M  V30 6038 C 567.558 5.29743 0.393111 0
M  V30 6039 C 566.597 6.09842 -0.525317 0
M  V30 6040 N 565.734 7.01643 0.253208 0
M  V30 6041 H 570.574 2.75631 -1.13276 0
M  V30 6042 H 568.111 1.35606 -0.570026 0
M  V30 6043 H 570.069 4.05531 0.979826 0
M  V30 6044 H 568.699 2.95779 1.29284 0
M  V30 6045 H 567.751 3.66422 -1.02171 0
M  V30 6046 H 569.063 4.85899 -1.12709 0
M  V30 6047 H 568.217 5.9942 0.937056 0
M  V30 6048 H 566.956 4.744 1.13117 0
M  V30 6049 H 565.961 5.39066 -1.08112 0
M  V30 6050 H 567.186 6.6727 -1.26205 0
M  V30 6051 H 565.132 6.48725 0.974295 0
M  V30 6052 H 565.049 7.54981 -0.392398 0
M  V30 6053 H 566.317 7.756 0.778761 0
M  V30 6054 N 570.547 0.616602 1.45037 0
M  V30 6055 C 571.795 0.115103 2.01772 0
M  V30 6056 C 572.116 -1.2622 1.48639 0
M  V30 6057 O 571.386 -1.83563 0.684199 0
M  V30 6058 H 569.966 0.0395607 0.745952 0
M  V30 6059 H 572.628 0.800032 1.77723 0
M  V30 6060 H 571.724 0.0717274 3.12018 0
M  V30 6061 N 572.025 -1.5352 0.356285 0
M  V30 6062 C 573.272 -2.01117 -0.236303 0
M  V30 6063 C 573.6 -1.24381 -1.49531 0
M  V30 6064 O 572.855 -0.323057 -1.93015 0
M  V30 6065 C 573.154 -3.52607 -0.583369 0
M  V30 6066 C 572.82 -4.47151 0.58023 0
M  V30 6067 C 571.482 -4.72718 0.899528 0
M  V30 6068 C 573.834 -5.03137 1.36024 0
M  V30 6069 C 571.162 -5.51523 2.00098 0
M  V30 6070 C 573.514 -5.83145 2.45204 0
M  V30 6071 C 572.178 -6.07001 2.77679 0
M  V30 6072 H 571.448 -0.735938 -0.0864695 0
M  V30 6073 H 574.095 -1.85209 0.48683 0
M  V30 6074 H 572.4 -3.66413 -1.38739 0
M  V30 6075 H 574.097 -3.86901 -1.05397 0
M  V30 6076 H 570.687 -4.27394 0.321322 0
M  V30 6077 H 574.871 -4.83339 1.12682 0
M  V30 6078 H 570.127 -5.68229 2.25668 0
M  V30 6079 H 574.301 -6.25537 3.06067 0
M  V30 6080 H 571.928 -6.67851 3.63151 0
M  V30 6081 N 573.503 -0.0852151 -1.57369 0
M  V30 6082 C 574.466 0.8627 -2.12344 0
M  V30 6083 C 575.466 1.21746 -1.05046 0
M  V30 6084 O 576.656 1.14852 -1.30976 0
M  V30 6085 C 573.788 2.1618 -2.63589 0
M  V30 6086 H 574.981 0.385511 -2.97412 0
M  V30 6087 H 572.534 0.163663 -1.55441 0
M  V30 6088 H 573.269 2.68406 -1.82013 0
M  V30 6089 H 573.054 1.91723 -3.4203 0
M  V30 6090 H 574.544 2.84011 -3.06149 0
M  V30 6091 N 574.981 1.5647 0.188427 0
M  V30 6092 C 575.911 1.98101 1.23606 0
M  V30 6093 C 576.892 0.853961 1.47111 0
M  V30 6094 O 578.077 1.11879 1.58735 0
M  V30 6095 C 575.207 2.32624 2.57882 0
M  V30 6096 C 574.161 3.48129 2.48978 0
M  V30 6097 C 573.487 3.68347 3.87588 0
M  V30 6098 C 574.787 4.82112 2.00911 0
M  V30 6099 H 576.481 2.85864 0.890068 0
M  V30 6100 H 574.027 1.37532 0.426714 0
M  V30 6101 H 575.98 2.60343 3.3136 0
M  V30 6102 H 574.704 1.41751 2.94235 0
M  V30 6103 H 573.363 3.20511 1.77956 0
M  V30 6104 H 573.011 2.74793 4.21305 0
M  V30 6105 H 572.711 4.46055 3.82503 0
M  V30 6106 H 574.235 3.98449 4.62678 0
M  V30 6107 H 575.649 5.08819 2.64151 0
M  V30 6108 H 574.046 5.63337 2.06814 0
M  V30 6109 H 575.116 4.75249 0.96262 0
M  V30 6110 N 576.459 -0.456382 1.50847 0
M  V30 6111 C 577.389 -1.56025 1.73719 0
M  V30 6112 C 578.37 -1.5967 0.586473 0
M  V30 6113 O 579.555 -1.75702 0.827185 0
M  V30 6114 C 576.685 -2.94251 1.84483 0
M  V30 6115 C 575.639 -3.05471 2.99786 0
M  V30 6116 C 574.965 -4.45489 2.95709 0
M  V30 6117 C 576.265 -2.81318 4.40065 0
M  V30 6118 H 577.959 -1.37138 2.66146 0
M  V30 6119 H 575.505 -0.658299 1.28072 0
M  V30 6120 H 577.458 -3.71417 1.99067 0
M  V30 6121 H 576.182 -3.14328 0.886891 0
M  V30 6122 H 574.841 -2.30741 2.84876 0
M  V30 6123 H 574.489 -4.62505 1.97732 0
M  V30 6124 H 574.189 -4.53929 3.73125 0
M  V30 6125 H 575.713 -5.24655 3.12362 0
M  V30 6126 H 577.127 -3.48226 4.55425 0
M  V30 6127 H 575.524 -3.01188 5.19043 0
M  V30 6128 H 576.594 -1.7706 4.51418 0
M  V30 6129 N 577.937 -1.40673 -0.710563 0
M  V30 6130 C 579.184 -1.39222 -1.47049 0
M  V30 6131 C 579.512 0.0037691 -1.945 0
M  V30 6132 O 578.767 0.989224 -1.68857 0
M  V30 6133 C 579.066 -2.33253 -2.70791 0
M  V30 6134 C 578.732 -3.80406 -2.42079 0
M  V30 6135 C 577.394 -4.20496 -2.33959 0
M  V30 6136 C 579.746 -4.73375 -2.18094 0
M  V30 6137 C 577.074 -5.51584 -1.99929 0
M  V30 6138 C 579.426 -6.04768 -1.85576 0
M  V30 6139 C 578.09 -6.43895 -1.75941 0
M  V30 6140 H 577.36 -0.509449 -0.538092 0
M  V30 6141 H 580.007 -1.73363 -0.81348 0
M  V30 6142 H 578.312 -1.92314 -3.41354 0
M  V30 6143 H 580.009 -2.29412 -3.28894 0
M  V30 6144 H 576.599 -3.48645 -2.49288 0
M  V30 6145 H 580.783 -4.43217 -2.23321 0
M  V30 6146 H 576.039 -5.80797 -1.91011 0
M  V30 6147 H 580.213 -6.76318 -1.66033 0
M  V30 6148 H 577.84 -7.45387 -1.4934 0
M  V30 6149 N 579.415 0.9433 -1.26252 0
M  V30 6150 C 580.645 1.72117 -1.14277 0
M  V30 6151 C 581.053 1.86726 0.304944 0
M  V30 6152 O 580.396 1.3727 1.22076 0
M  V30 6153 C 580.458 3.14778 -1.73651 0
M  V30 6154 C 580.122 3.23561 -3.22734 0
M  V30 6155 C 581.119 3.07001 -4.19579 0
M  V30 6156 C 578.804 3.47019 -3.63157 0
M  V30 6157 C 580.798 3.13763 -5.54826 0
M  V30 6158 C 578.485 3.53416 -4.98538 0
M  V30 6159 C 579.483 3.36804 -5.94182 0
M  V30 6160 O 579.171 3.42906 -7.27098 0
M  V30 6161 H 578.903 0.545781 -0.398873 0
M  V30 6162 H 581.457 1.19123 -1.67328 0
M  V30 6163 H 579.687 3.69186 -1.1506 0
M  V30 6164 H 581.376 3.74469 -1.56613 0
M  V30 6165 H 582.142 2.88736 -3.89688 0
M  V30 6166 H 578.021 3.59006 -2.89199 0
M  V30 6167 H 581.565 3.00714 -6.29458 0
M  V30 6168 H 577.462 3.71201 -5.28091 0
M  V30 6169 H 578.23 3.59463 -7.35342 0
M  V30 6170 N 580.893 1.08022 1.14757 0
M  V30 6171 C 581.823 0.728248 2.21853 0
M  V30 6172 C 582.804 -0.287486 1.67653 0
M  V30 6173 O 583.989 -0.158727 1.9355 0
M  V30 6174 C 581.119 0.132549 3.47047 0
M  V30 6175 C 580.073 1.07619 4.14249 0
M  V30 6176 C 579.399 0.342907 5.33599 0
M  V30 6177 C 580.699 2.41268 4.63235 0
M  V30 6178 H 582.393 1.62365 2.51551 0
M  V30 6179 H 579.939 0.782125 1.20908 0
M  V30 6180 H 581.892 -0.125665 4.21213 0
M  V30 6181 H 580.616 -0.797971 3.16702 0
M  V30 6182 H 579.275 1.31944 3.42033 0
M  V30 6183 H 578.923 -0.59129 4.99513 0
M  V30 6184 H 578.623 0.971955 5.79506 0
M  V30 6185 H 580.147 0.0926538 6.1053 0
M  V30 6186 H 581.561 2.21232 5.28894 0
M  V30 6187 H 579.958 2.9983 5.19829 0
M  V30 6188 H 581.028 3.03079 3.78512 0
M  V30 6189 N 582.371 -1.3172 0.865308 0
M  V30 6190 C 583.281 -2.32394 0.320935 0
M  V30 6191 C 584.297 -1.64511 -0.566746 0
M  V30 6192 O 585.473 -1.95969 -0.464575 0
M  V30 6193 C 582.538 -3.43462 -0.472701 0
M  V30 6194 C 581.599 -4.27015 0.442385 0
M  V30 6195 C 580.832 -5.32779 -0.313469 0
M  V30 6196 O 581.055 -5.49158 -1.54214 0
M  V30 6197 O 579.989 -6.01015 0.326257 0
M  V30 6198 H 583.815 -2.80868 1.15528 0
M  V30 6199 H 581.4 -1.35535 0.628545 0
M  V30 6200 H 583.282 -4.11172 -0.922781 0
M  V30 6201 H 581.957 -2.97159 -1.28367 0
M  V30 6202 H 580.864 -3.62075 0.940866 0
M  V30 6203 H 582.197 -4.76871 1.21882 0
M  V30 6204 N 583.85 -0.624285 -1.44708 0
M  V30 6205 C 584.782 0.12305 -2.28869 0
M  V30 6206 C 585.795 0.81557 -1.40898 0
M  V30 6207 O 586.984 0.678162 -1.65116 0
M  V30 6208 C 584.084 1.19612 -3.1709 0
M  V30 6209 C 583.257 0.587452 -4.33437 0
M  V30 6210 C 582.316 1.55358 -5.02743 0
M  V30 6211 O 581.341 1.07338 -5.58988 0
M  V30 6212 N 582.543 2.88798 -5.03563 0
M  V30 6213 H 585.308 -0.599193 -2.93649 0
M  V30 6214 H 582.87 -0.464954 -1.5508 0
M  V30 6215 H 584.861 1.84261 -3.60319 0
M  V30 6216 H 583.432 1.82067 -2.54107 0
M  V30 6217 H 582.652 -0.237509 -3.93484 0
M  V30 6218 H 583.94 0.161326 -5.08544 0
M  V30 6219 H 583.338 3.30399 -4.59188 0
M  V30 6220 H 581.894 3.48826 -5.50603 0
M  V30 6221 N 585.328 1.53329 -0.364422 0
M  V30 6222 C 586.258 2.28627 0.474543 0
M  V30 6223 C 587.239 1.31009 1.08492 0
M  V30 6224 O 588.424 1.59878 1.10239 0
M  V30 6225 C 585.554 3.07465 1.61501 0
M  V30 6226 C 584.508 4.1276 1.13194 0
M  V30 6227 C 583.834 4.79674 2.36255 0
M  V30 6228 C 585.134 5.21847 0.217507 0
M  V30 6229 H 586.828 2.99005 -0.153656 0
M  V30 6230 H 584.374 1.43803 -0.0753406 0
M  V30 6231 H 586.327 3.58889 2.20855 0
M  V30 6232 H 585.051 2.34775 2.27042 0
M  V30 6233 H 583.71 3.62281 0.56109 0
M  V30 6234 H 583.358 4.03557 3.00251 0
M  V30 6235 H 583.058 5.50827 2.04606 0
M  V30 6236 H 584.582 5.33892 2.96297 0
M  V30 6237 H 585.996 5.6878 0.718493 0
M  V30 6238 H 584.393 6.00099 -0.00806408 0
M  V30 6239 H 585.463 4.7921 -0.740653 0
M  V30 6240 N 586.806 0.0935595 1.57322 0
M  V30 6241 C 587.736 -0.863062 2.16964 0
M  V30 6242 C 588.717 -1.29528 1.10256 0
M  V30 6243 O 589.902 -1.36245 1.38387 0
M  V30 6244 C 587.032 -2.12276 2.74875 0
M  V30 6245 C 585.986 -1.82921 3.86942 0
M  V30 6246 C 585.312 -3.15707 4.31548 0
M  V30 6247 C 586.612 -1.11737 5.10208 0
M  V30 6248 H 588.306 -0.366145 2.97153 0
M  V30 6249 H 585.852 -0.174673 1.42937 0
M  V30 6250 H 587.805 -2.79634 3.1525 0
M  V30 6251 H 586.529 -2.64248 1.91938 0
M  V30 6252 H 585.188 -1.17961 3.47103 0
M  V30 6253 H 584.836 -3.65563 3.45504 0
M  V30 6254 H 584.536 -2.96849 5.07104 0
M  V30 6255 H 586.06 -3.84226 4.74555 0
M  V30 6256 H 587.474 -1.69203 5.47762 0
M  V30 6257 H 585.871 -1.03064 5.91183 0
M  V30 6258 H 586.941 -0.0998818 4.84797 0
M  V30 6259 N 588.284 -1.56567 -0.180126 0
M  V30 6260 C 589.532 -1.81133 -0.896392 0
M  V30 6261 C 589.853 -0.669114 -1.83161 0
M  V30 6262 O 589.123 0.311616 -1.93406 0
M  V30 6263 H 587.703 -0.668172 -0.333999 0
M  V30 6264 H 590.365 -1.94048 -0.182051 0
M  V30 6265 H 589.461 -2.74854 -1.47857 0
M  V30 6266 N 589.762 0.448376 -1.51087 0
M  V30 6267 C 591.01 1.19635 -1.62886 0
M  V30 6268 C 591.331 1.91977 -0.342024 0
M  V30 6269 O 590.601 1.85094 0.641636 0
M  V30 6270 H 589.181 0.444598 -0.600285 0
M  V30 6271 H 591.843 0.515138 -1.87969 0
M  V30 6272 H 590.939 1.93194 -2.45117 0
M  V30 6273 N 591.24 1.41047 0.703093 0
M  V30 6274 C 592.651 1.35657 1.28274 0
M  V30 6275 C 593.002 0.0360309 1.96167 0
M  V30 6276 O 592.127 -0.865833 1.98324 0
M  V30 6277 C 592.722 2.45707 2.33267 0
M  V30 6278 C 591.281 2.43738 2.86825 0
M  V30 6279 C 590.428 2.25941 1.60767 0
M  V30 6280 H 593.379 1.50672 0.49836 0
M  V30 6281 H 593.4 2.14333 3.14391 0
M  V30 6282 H 592.912 3.41805 1.83824 0
M  V30 6283 H 591.013 1.51375 3.40465 0
M  V30 6284 H 591.126 3.39779 3.37768 0
M  V30 6285 H 589.49 1.73681 1.86298 0
M  V30 6286 H 590.273 3.24054 1.1333 0
M  V30 6287 N 592.718 -0.936591 1.26751 0
M  V30 6288 C 593.628 -2.06949 1.10496 0
M  V30 6289 C 594.644 -1.7396 0.037271 0
M  V30 6290 O 595.82 -1.99941 0.241944 0
M  V30 6291 C 592.885 -3.38612 0.744491 0
M  V30 6292 C 591.946 -3.85355 1.89209 0
M  V30 6293 C 591.179 -5.10735 1.54873 0
M  V30 6294 O 591.402 -5.68602 0.452546 0
M  V30 6295 O 590.336 -5.52632 2.38499 0
M  V30 6296 H 594.162 -2.23571 2.05547 0
M  V30 6297 H 591.747 -1.05428 1.05855 0
M  V30 6298 H 593.629 -4.17711 0.556396 0
M  V30 6299 H 592.304 -3.23218 -0.176582 0
M  V30 6300 H 591.211 -3.07182 2.13518 0
M  V30 6301 H 592.544 -4.05277 2.79305 0
M  V30 6302 N 594.196 -1.08629 -1.14182 0
M  V30 6303 C 595.445 -0.812271 -1.84621 0
M  V30 6304 C 595.758 0.664313 -1.83973 0
M  V30 6305 O 596.964 1.05357 -2.50224 0
M  V30 6306 C 595.42 -1.4031 -3.31423 0
M  V30 6307 C 595.028 -2.91164 -3.40481 0
M  V30 6308 C 596.772 -1.20767 -4.06959 0
M  V30 6309 C 594.679 -3.43373 -4.81507 0
M  V30 6310 H 593.609 -0.30019 -0.691666 0
M  V30 6311 H 596.26 -1.30798 -1.28701 0
M  V30 6312 H 594.642 -0.835096 -3.87094 0
M  V30 6313 H 595.816 -3.5412 -2.94848 0
M  V30 6314 H 594.131 -3.09646 -2.78403 0
M  V30 6315 H 596.728 -1.57237 -5.11058 0
M  V30 6316 H 597.071 -0.147664 -4.16038 0
M  V30 6317 H 597.604 -1.74274 -3.57594 0
M  V30 6318 H 594.343 -4.48958 -4.77616 0
M  V30 6319 H 593.863 -2.85176 -5.27669 0
M  V30 6320 H 595.542 -3.40095 -5.50404 0
M  V30 6321 N 595.674 1.31259 -0.872281 0
M  V30 6322 C 596.921 1.96622 -0.484365 0
M  V30 6323 C 597.249 1.68939 0.963841 0
M  V30 6324 O 596.504 0.97974 1.6941 0
M  V30 6325 C 596.803 3.50659 -0.690889 0
M  V30 6326 C 596.469 3.98366 -2.11224 0
M  V30 6327 C 595.131 4.11104 -2.50094 0
M  V30 6328 C 597.483 4.23425 -3.0391 0
M  V30 6329 C 594.811 4.46254 -3.80887 0
M  V30 6330 C 597.163 4.60039 -4.3422 0
M  V30 6331 C 595.827 4.70984 -4.73001 0
M  V30 6332 H 595.097 0.71949 -0.177242 0
M  V30 6333 H 597.744 1.56353 -1.10571 0
M  V30 6334 H 596.049 3.91798 0.0135782 0
M  V30 6335 H 597.746 3.99284 -0.370534 0
M  V30 6336 H 594.336 3.88949 -1.80047 0
M  V30 6337 H 598.52 4.13075 -2.75104 0
M  V30 6338 H 593.776 4.52926 -4.10692 0
M  V30 6339 H 597.95 4.78381 -5.06088 0
M  V30 6340 H 595.577 4.97977 -5.7439 0
M  V30 6341 N 597.152 0.631951 1.44375 0
M  V30 6342 C 598.082 -0.0593243 2.33425 0
M  V30 6343 C 599.063 -0.833964 1.48253 0
M  V30 6344 O 600.248 -0.799682 1.76971 0
M  V30 6345 C 597.378 -1.04096 3.31333 0
M  V30 6346 C 596.332 -0.377899 4.26328 0
M  V30 6347 C 595.658 -1.4695 5.14111 0
M  V30 6348 C 596.958 0.716371 5.17364 0
M  V30 6349 H 598.652 0.684287 2.91475 0
M  V30 6350 H 596.198 0.330518 1.40156 0
M  V30 6351 H 598.151 -1.53331 3.92514 0
M  V30 6352 H 596.875 -1.81547 2.71493 0
M  V30 6353 H 595.534 0.0938054 3.6648 0
M  V30 6354 H 595.182 -2.2349 4.50623 0
M  V30 6355 H 594.882 -1.03121 5.78481 0
M  V30 6356 H 596.406 -1.96363 5.78164 0
M  V30 6357 H 597.82 0.307089 5.72477 0
M  V30 6358 H 596.217 1.07784 5.90341 0
M  V30 6359 H 597.287 1.58316 4.58327 0
M  V30 6360 N 598.631 -1.53133 0.372548 0
M  V30 6361 C 599.879 -2.00958 -0.214534 0
M  V30 6362 C 600.2 -1.26135 -1.48711 0
M  V30 6363 O 599.47 -0.376597 -1.92246 0
M  V30 6364 H 598.05 -0.742456 -0.0822664 0
M  V30 6365 H 600.712 -1.88367 0.500385 0
M  V30 6366 H 599.808 -3.09031 -0.436605 0
M  V30 6367 N 600.109 -0.101901 -1.5727 0
M  V30 6368 C 601.356 0.560197 -1.94597 0
M  V30 6369 C 601.684 1.67767 -0.984101 0
M  V30 6370 O 600.939 1.95699 -0.00489193 0
M  V30 6371 C 601.238 1.14898 -3.38427 0
M  V30 6372 C 600.904 0.154613 -4.50635 0
M  V30 6373 C 599.566 -0.118861 -4.81053 0
M  V30 6374 C 601.918 -0.523979 -5.18559 0
M  V30 6375 C 599.246 -1.0775 -5.76721 0
M  V30 6376 C 601.598 -1.47114 -6.15256 0
M  V30 6377 C 600.262 -1.75278 -6.44076 0
M  V30 6378 H 599.532 0.204991 -0.712081 0
M  V30 6379 H 602.179 -0.17918 -1.9066 0
M  V30 6380 H 600.484 1.96476 -3.38976 0
M  V30 6381 H 602.181 1.66909 -3.64613 0
M  V30 6382 H 598.771 0.377948 -4.2693 0
M  V30 6383 H 602.955 -0.325851 -4.95229 0
M  V30 6384 H 598.211 -1.30263 -5.97362 0
M  V30 6385 H 602.385 -2.00274 -6.66981 0
M  V30 6386 H 600.012 -2.49717 -7.18015 0
M  V30 6387 N 601.587 1.56661 0.17182 0
M  V30 6388 C 602.517 1.99401 1.21498 0
M  V30 6389 C 603.498 0.869516 1.46197 0
M  V30 6390 O 604.683 1.13556 1.57539 0
M  V30 6391 C 601.813 2.35346 2.55401 0
M  V30 6392 C 600.767 3.5075 2.45272 0
M  V30 6393 C 600.093 3.72437 3.8366 0
M  V30 6394 C 601.393 4.84216 1.95787 0
M  V30 6395 H 603.087 2.86792 0.859699 0
M  V30 6396 H 600.633 1.37977 0.412103 0
M  V30 6397 H 602.586 2.63843 3.2858 0
M  V30 6398 H 601.31 1.44864 2.92715 0
M  V30 6399 H 599.969 3.2238 1.74547 0
M  V30 6400 H 599.617 2.79246 4.18367 0
M  V30 6401 H 599.317 4.50087 3.77751 0
M  V30 6402 H 600.841 4.03334 4.58426 0
M  V30 6403 H 602.255 5.11592 2.5874 0
M  V30 6404 H 600.652 5.65498 2.00827 0
M  V30 6405 H 601.722 4.76243 0.912159 0
M  V30 6406 N 603.065 -0.440357 1.51323 0
M  V30 6407 C 604.012 -1.53429 1.72419 0
M  V30 6408 C 604.982 -1.56165 0.565826 0
M  V30 6409 O 606.167 -1.73222 0.799917 0
M  V30 6410 C 603.307 -2.91169 1.85242 0
M  V30 6411 C 602.42 -2.97985 3.12777 0
M  V30 6412 C 601.555 -4.26829 3.16212 0
M  V30 6413 C 600.594 -4.27501 4.38074 0
M  V30 6414 N 599.731 -5.47866 4.39076 0
M  V30 6415 H 604.571 -1.34743 2.65797 0
M  V30 6416 H 602.108 -0.654608 1.31732 0
M  V30 6417 H 604.066 -3.71087 1.90658 0
M  V30 6418 H 602.696 -3.0842 0.952744 0
M  V30 6419 H 601.748 -2.10749 3.16685 0
M  V30 6420 H 603.06 -2.94342 4.02696 0
M  V30 6421 H 602.214 -5.15118 3.20527 0
M  V30 6422 H 600.953 -4.33124 2.24176 0
M  V30 6423 H 599.958 -3.37606 4.33938 0
M  V30 6424 H 601.183 -4.22873 5.31371 0
M  V30 6425 H 599.129 -5.54887 3.49909 0
M  V30 6426 H 599.046 -5.46091 5.22801 0
M  V30 6427 H 600.314 -6.38195 4.4758 0
M  V30 6428 N 604.543 -1.41418 -0.695603 0
M  V30 6429 C 605.506 -1.42988 -1.79129 0
M  V30 6430 C 606.506 -0.320514 -1.57573 0
M  V30 6431 O 607.696 -0.58039 -1.64247 0
M  V30 6432 C 604.828 -1.24122 -3.175 0
M  V30 6433 H 606.021 -2.40526 -1.7913 0
M  V30 6434 H 603.574 -1.2756 -0.903225 0
M  V30 6435 H 604.309 -0.274253 -3.23138 0
M  V30 6436 H 604.094 -2.045 -3.34547 0
M  V30 6437 H 605.584 -1.28056 -3.97481 0
M  V30 6438 N 606.021 0.929856 -1.27246 0
M  V30 6439 C 607.251 1.70895 -1.16096 0
M  V30 6440 C 607.659 1.87039 0.285122 0
M  V30 6441 O 607.002 1.38557 1.20614 0
M  V30 6442 C 607.064 3.12919 -1.7698 0
M  V30 6443 C 606.728 3.2012 -3.26148 0
M  V30 6444 C 607.725 3.02533 -4.22812 0
M  V30 6445 C 605.41 3.43148 -3.66817 0
M  V30 6446 C 607.404 3.07861 -5.58122 0
M  V30 6447 C 605.091 3.48109 -5.02258 0
M  V30 6448 C 606.089 3.30483 -5.97721 0
M  V30 6449 O 605.777 3.35175 -7.30694 0
M  V30 6450 H 605.509 0.54152 -0.404639 0
M  V30 6451 H 608.063 1.17342 -1.68582 0
M  V30 6452 H 606.293 3.67945 -1.18969 0
M  V30 6453 H 607.982 3.72787 -1.60576 0
M  V30 6454 H 608.748 2.84586 -3.92728 0
M  V30 6455 H 604.627 3.55918 -2.9299 0
M  V30 6456 H 608.171 2.94021 -6.32612 0
M  V30 6457 H 604.068 3.65579 -5.31998 0
M  V30 6458 H 604.836 3.51644 -7.39114 0
M  V30 6459 N 607.499 1.09233 1.13605 0
M  V30 6460 C 608.745 0.828385 1.8511 0
M  V30 6461 C 609.078 -0.64437 1.83198 0
M  V30 6462 O 608.353 -1.47428 1.26867 0
M  V30 6463 C 608.636 1.36167 3.33363 0
M  V30 6464 C 608.489 2.90038 3.438 0
M  V30 6465 C 609.808 0.993819 4.28732 0
M  V30 6466 H 606.927 0.30239 0.672108 0
M  V30 6467 H 609.569 1.35339 1.33355 0
M  V30 6468 H 607.719 0.9151 3.77569 0
M  V30 6469 H 609.391 3.43128 3.08319 0
M  V30 6470 H 607.634 3.27271 2.84739 0
M  V30 6471 H 608.305 3.22428 4.48045 0
M  V30 6472 H 610.781 1.37893 3.92587 0
M  V30 6473 H 609.657 1.39403 5.30903 0
M  V30 6474 H 609.918 -0.0982206 4.41991 0
M  V30 6475 N 608.977 -1.30795 0.87923 0
M  V30 6476 C 609.887 -2.32041 0.345565 0
M  V30 6477 C 610.903 -1.65103 -0.549265 0
M  V30 6478 O 612.079 -1.9645 -0.443763 0
M  V30 6479 C 609.144 -3.43944 -0.436245 0
M  V30 6480 C 608.205 -4.26521 0.48765 0
M  V30 6481 C 607.438 -5.33081 -0.256943 0
M  V30 6482 O 607.661 -5.50762 -1.48381 0
M  V30 6483 O 606.595 -6.00635 0.389985 0
M  V30 6484 H 610.421 -2.79627 1.18501 0
M  V30 6485 H 608.006 -1.3486 0.642885 0
M  V30 6486 H 609.888 -4.12128 -0.879119 0
M  V30 6487 H 608.563 -2.98504 -1.25208 0
M  V30 6488 H 607.47 -3.61057 0.979216 0
M  V30 6489 H 608.803 -4.75551 1.26933 0
M  V30 6490 N 610.455 -0.639598 -1.44038 0
M  V30 6491 C 611.402 0.0602458 -2.30721 0
M  V30 6492 C 612.372 0.828352 -1.43971 0
M  V30 6493 O 613.557 0.807693 -1.72861 0
M  V30 6494 C 610.697 1.03008 -3.29368 0
M  V30 6495 C 609.81 0.259502 -4.3122 0
M  V30 6496 C 608.945 1.22191 -5.16955 0
M  V30 6497 C 607.984 0.440978 -6.10509 0
M  V30 6498 N 607.121 1.35428 -6.88915 0
M  V30 6499 H 611.961 -0.684867 -2.90023 0
M  V30 6500 H 609.498 -0.349509 -1.42888 0
M  V30 6501 H 611.456 1.60583 -3.85057 0
M  V30 6502 H 610.086 1.74222 -2.71747 0
M  V30 6503 H 609.138 -0.432317 -3.77935 0
M  V30 6504 H 610.45 -0.348347 -4.97582 0
M  V30 6505 H 609.604 1.86873 -5.77203 0
M  V30 6506 H 608.343 1.86367 -4.50687 0
M  V30 6507 H 607.348 -0.219279 -5.49363 0
M  V30 6508 H 608.573 -0.196192 -6.78817 0
M  V30 6509 H 606.519 1.9831 -6.25307 0
M  V30 6510 H 606.436 0.800657 -7.51748 0
M  V30 6511 H 607.704 1.98967 -7.53679 0
M  V30 6512 N 611.933 1.52934 -0.380664 0
M  V30 6513 C 613.18 2.01467 0.204278 0
M  V30 6514 C 613.508 1.26744 1.47533 0
M  V30 6515 O 612.763 0.353723 1.92477 0
M  V30 6516 C 613.062 3.5349 0.527199 0
M  V30 6517 C 612.728 4.46171 -0.651295 0
M  V30 6518 C 611.39 4.71227 -0.974619 0
M  V30 6519 C 613.742 5.00909 -1.44012 0
M  V30 6520 C 611.07 5.4827 -2.08847 0
M  V30 6521 C 613.422 5.7917 -2.5445 0
M  V30 6522 C 612.086 6.02507 -2.87301 0
M  V30 6523 H 611.356 0.73722 0.0747504 0
M  V30 6524 H 614.003 1.84411 -0.516234 0
M  V30 6525 H 612.308 3.68574 1.32892 0
M  V30 6526 H 614.005 3.88529 0.992283 0
M  V30 6527 H 610.595 4.26829 -0.389276 0
M  V30 6528 H 614.779 4.81485 -1.20357 0
M  V30 6529 H 610.035 5.64567 -2.34679 0
M  V30 6530 H 614.209 6.20588 -3.1598 0
M  V30 6531 H 611.836 6.61989 -3.7373 0
M  V30 6532 N 613.412 0.11024 1.57214 0
M  V30 6533 C 614.637 -0.561179 1.99664 0
M  V30 6534 C 615.062 -1.59985 0.989266 0
M  V30 6535 O 614.42 -1.81255 -0.0402399 0
M  V30 6536 C 614.468 -1.17189 3.41027 0
M  V30 6537 O 613.572 -2.28755 3.4314 0
M  V30 6538 H 612.913 -0.14101 0.648855 0
M  V30 6539 H 615.443 0.196128 2.03658 0
M  V30 6540 H 615.453 -1.50954 3.79047 0
M  V30 6541 H 614.128 -0.411041 4.13864 0
M  V30 6542 H 612.705 -1.96495 3.16929 0
M  V30 6543 N 614.89 -1.56749 -0.16351 0
M  V30 6544 C 616.12 -1.86307 -0.892936 0
M  V30 6545 C 616.528 -0.6945 -1.75992 0
M  V30 6546 O 615.871 0.345384 -1.80424 0
M  V30 6547 C 615.933 -3.10372 -1.81409 0
M  V30 6548 C 615.597 -4.42913 -1.12593 0
M  V30 6549 C 616.594 -5.17608 -0.487661 0
M  V30 6550 C 614.279 -4.89646 -1.12035 0
M  V30 6551 C 616.273 -6.3723 0.14699 0
M  V30 6552 C 613.96 -6.09197 -0.481883 0
M  V30 6553 C 614.958 -6.82834 0.150678 0
M  V30 6554 O 614.646 -8.00116 0.779065 0
M  V30 6555 H 614.378 -0.622126 -0.264452 0
M  V30 6556 H 616.932 -2.04728 -0.166063 0
M  V30 6557 H 615.162 -2.87917 -2.58148 0
M  V30 6558 H 616.851 -3.26312 -2.41403 0
M  V30 6559 H 617.617 -4.8258 -0.483888 0
M  V30 6560 H 613.496 -4.32265 -1.60212 0
M  V30 6561 H 617.04 -6.94646 0.641325 0
M  V30 6562 H 612.937 -6.43688 -0.483266 0
M  V30 6563 H 613.705 -8.15678 0.679089 0
M  V30 6564 N 616.368 0.432326 -1.51554 0
M  V30 6565 C 617.315 1.52512 -1.7323 0
M  V30 6566 C 618.285 1.55863 -0.5741 0
M  V30 6567 O 619.47 1.72796 -0.809093 0
M  V30 6568 C 616.61 2.90183 -1.86783 0
M  V30 6569 C 615.723 2.96322 -3.14352 0
M  V30 6570 C 614.858 4.25147 -3.18471 0
M  V30 6571 C 613.897 4.25172 -4.40335 0
M  V30 6572 N 613.034 5.45529 -4.41975 0
M  V30 6573 H 617.874 1.33332 -2.66508 0
M  V30 6574 H 615.411 0.647613 -1.32077 0
M  V30 6575 H 617.369 3.70071 -1.92623 0
M  V30 6576 H 615.999 3.0791 -0.969087 0
M  V30 6577 H 615.051 2.09066 -3.17798 0
M  V30 6578 H 616.363 2.92203 -4.04251 0
M  V30 6579 H 615.517 5.13411 -3.23255 0
M  V30 6580 H 614.256 4.31929 -2.2647 0
M  V30 6581 H 613.261 3.353 -4.35723 0
M  V30 6582 H 614.486 4.20049 -5.33606 0
M  V30 6583 H 612.432 5.53024 -3.52847 0
M  V30 6584 H 612.349 5.43311 -5.25689 0
M  V30 6585 H 613.617 6.35812 -4.50958 0
M  V30 6586 N 617.846 1.41785 0.688094 0
M  V30 6587 C 619.071 1.45117 1.48175 0
M  V30 6588 C 619.496 0.060129 1.88004 0
M  V30 6589 O 618.854 -0.938385 1.55126 0
M  V30 6590 C 618.902 2.37224 2.71583 0
M  V30 6591 O 618.006 1.83443 3.69354 0
M  V30 6592 H 617.347 0.492208 0.445676 0
M  V30 6593 H 619.877 1.86329 0.845145 0
M  V30 6594 H 619.887 2.53353 3.19806 0
M  V30 6595 H 618.562 3.38293 2.41931 0
M  V30 6596 H 617.139 1.76802 3.28322 0
M  V30 6597 N 619.324 -0.923095 1.27737 0
M  V30 6598 C 620.573 -1.66581 1.13727 0
M  V30 6599 C 620.886 -1.9304 -0.315433 0
M  V30 6600 O 622.092 -2.65309 -0.57651 0
M  V30 6601 C 620.548 -3.00047 1.98745 0
M  V30 6602 C 620.156 -2.8127 3.48699 0
M  V30 6603 C 621.9 -3.77887 1.93395 0
M  V30 6604 C 619.807 -4.1032 4.25901 0
M  V30 6605 H 618.737 -0.624834 0.422017 0
M  V30 6606 H 621.388 -1.02514 1.52194 0
M  V30 6607 H 619.77 -3.65197 1.53125 0
M  V30 6608 H 620.944 -2.24859 4.02213 0
M  V30 6609 H 619.259 -2.16854 3.55476 0
M  V30 6610 H 621.856 -4.73526 2.48348 0
M  V30 6611 H 622.199 -4.06264 0.908605 0
M  V30 6612 H 622.732 -3.19541 2.36935 0
M  V30 6613 H 619.471 -3.8712 5.28978 0
M  V30 6614 H 618.991 -4.66377 3.77163 0
M  V30 6615 H 620.67 -4.78648 4.35321 0
M  V30 6616 N 620.802 -1.09834 -1.13024 0
M  V30 6617 C 622.03 -0.858902 -1.8823 0
M  V30 6618 C 622.445 0.590164 -1.79339 0
M  V30 6619 O 621.802 1.4065 -1.16292 0
M  V30 6620 C 621.853 -1.29066 -3.37675 0
M  V30 6621 O 621.574 -2.6829 -3.46341 0
M  V30 6622 C 623.075 -1.08421 -4.29837 0
M  V30 6623 H 620.295 -0.308713 -0.595766 0
M  V30 6624 H 622.839 -1.4614 -1.4305 0
M  V30 6625 H 620.994 -0.731961 -3.80422 0
M  V30 6626 H 621.408 -2.86598 -4.39274 0
M  V30 6627 H 622.882 -1.43553 -5.33007 0
M  V30 6628 H 623.359 -0.0223315 -4.39194 0
M  V30 6629 H 623.965 -1.62907 -3.92863 0
M  V30 6630 N 622.28 1.30327 -0.886154 0
M  V30 6631 C 623.508 2.00254 -0.520176 0
M  V30 6632 C 623.923 1.66419 0.891637 0
M  V30 6633 O 623.28 0.901951 1.58654 0
M  V30 6634 C 623.331 3.54916 -0.686775 0
M  V30 6635 O 623.052 3.87547 -2.04301 0
M  V30 6636 C 624.553 4.42115 -0.323945 0
M  V30 6637 H 621.773 0.640204 -0.200947 0
M  V30 6638 H 624.317 1.66183 -1.19178 0
M  V30 6639 H 622.472 3.8735 -0.0625273 0
M  V30 6640 H 622.886 4.82247 -2.06249 0
M  V30 6641 H 624.36 5.49808 -0.491407 0
M  V30 6642 H 624.837 4.32953 0.73811 0
M  V30 6643 H 625.443 4.15129 -0.924565 0
M  V30 6644 N 623.758 0.647228 1.43697 0
M  V30 6645 C 625.035 0.0883758 1.954 0
M  V30 6646 C 625.415 -1.39006 1.58873 0
M  V30 6647 O 624.763 -2.11255 0.87083 0
M  V30 6648 C 624.973 0.328263 3.47453 0
M  V30 6649 C 626.321 0.230009 4.23977 0
M  V30 6650 O 627.345 0.260496 3.55246 0
M  V30 6651 O 626.204 0.148615 5.46298 0
M  V30 6652 H 623.298 -0.0130683 0.826897 0
M  V30 6653 H 625.844 0.72005 1.53666 0
M  V30 6654 H 624.616 1.3535 3.67146 0
M  V30 6655 H 624.239 -0.336772 3.96171 0
M  V30 6656 N 625.236 -1.5273 0.388769 0
M  V30 6657 C 626.513 -1.93981 -0.251133 0
M  V30 6658 C 626.893 -1.32418 -1.64404 0
M  V30 6659 O 626.241 -0.492074 -2.23139 0
M  V30 6660 C 626.451 -3.47891 -0.27802 0
M  V30 6661 C 627.799 -4.21559 -0.507229 0
M  V30 6662 O 628.823 -3.54394 -0.358252 0
M  V30 6663 O 627.682 -5.40626 -0.799094 0
M  V30 6664 H 624.776 -0.812157 -0.15598 0
M  V30 6665 H 627.322 -1.63809 0.443237 0
M  V30 6666 H 626.094 -3.8503 0.697669 0
M  V30 6667 H 625.717 -3.84364 -1.01733 0
M  V30 6668 N 626.714 -0.118576 -1.57153 0
M  V30 6669 C 627.96 0.534078 -1.96263 0
M  V30 6670 C 628.315 1.64316 -1.0009 0
M  V30 6671 O 627.608 1.91575 -0.0308582 0
M  V30 6672 C 627.802 1.11303 -3.39627 0
M  V30 6673 C 627.631 0.0615624 -4.49658 0
M  V30 6674 C 626.401 -0.370103 -5.03943 0
M  V30 6675 C 628.599 -0.719249 -5.09246 0
M  V30 6676 N 626.581 -1.40738 -5.9755 0
M  V30 6677 C 627.952 -1.60774 -5.98792 0
M  V30 6678 C 630.007 -0.770183 -4.91907 0
M  V30 6679 C 628.71 -2.54272 -6.72858 0
M  V30 6680 C 630.736 -1.69288 -5.66653 0
M  V30 6681 C 630.098 -2.56894 -6.55885 0
M  V30 6682 H 626.197 0.165072 -0.764379 0
M  V30 6683 H 628.781 -0.206596 -1.93601 0
M  V30 6684 H 626.952 1.82342 -3.42937 0
M  V30 6685 H 628.684 1.72996 -3.65861 0
M  V30 6686 H 625.439 0.0222121 -4.73595 0
M  V30 6687 H 625.863 -1.92493 -6.49057 0
M  V30 6688 H 630.505 -0.106999 -4.22665 0
M  V30 6689 H 628.223 -3.21605 -7.41347 0
M  V30 6690 H 631.809 -1.73772 -5.55243 0
M  V30 6691 H 630.689 -3.27131 -7.1271 0
M  V30 6692 N 628.193 1.56834 0.155195 0
M  V30 6693 C 629.14 1.97646 1.19184 0
M  V30 6694 C 630.11 0.842788 1.4313 0
M  V30 6695 O 631.295 1.1042 1.55602 0
M  V30 6696 C 628.435 2.35527 2.52232 0
M  V30 6697 C 627.548 3.62147 2.35529 0
M  V30 6698 C 626.683 3.89167 3.61555 0
M  V30 6699 C 625.722 5.09084 3.39853 0
M  V30 6700 N 624.859 5.32156 4.5799 0
M  V30 6701 H 629.699 2.8601 0.836802 0
M  V30 6702 H 627.236 1.41507 0.401758 0
M  V30 6703 H 629.194 2.55516 3.29799 0
M  V30 6704 H 627.824 1.50253 2.85699 0
M  V30 6705 H 626.876 3.4998 1.49057 0
M  V30 6706 H 628.188 4.49871 2.15448 0
M  V30 6707 H 627.342 4.09611 4.47553 0
M  V30 6708 H 626.081 2.9985 3.84632 0
M  V30 6709 H 625.086 4.88522 2.52243 0
M  V30 6710 H 626.311 5.99947 3.18183 0
M  V30 6711 H 624.257 4.45791 4.81255 0
M  V30 6712 H 624.174 6.14133 4.40882 0
M  V30 6713 H 625.442 5.57091 5.45225 0
M  V30 6714 N 629.671 -0.424282 1.51781 0
M  V30 6715 C 630.948 -1.18464 1.55646 0
M  V30 6716 C 631.328 -2.08529 0.328438 0
M  V30 6717 O 630.676 -2.17969 -0.685693 0
M  V30 6718 C 630.886 -1.97514 2.87731 0
M  V30 6719 C 632.234 -2.54106 3.40169 0
M  V30 6720 O 633.258 -2.07711 2.89369 0
M  V30 6721 O 632.117 -3.38759 4.28841 0
M  V30 6722 H 629.211 -0.540055 0.626314 0
M  V30 6723 H 631.757 -0.432291 1.64102 0
M  V30 6724 H 630.529 -1.31444 3.68562 0
M  V30 6725 H 630.152 -2.79787 2.82498 0
M  V30 6726 N 631.149 -1.42148 -0.680565 0
M  V30 6727 C 632.396 -1.4231 -1.44063 0
M  V30 6728 C 632.724 -0.037488 -1.94464 0
M  V30 6729 O 631.979 0.953184 -1.70918 0
M  V30 6730 C 632.278 -2.38945 -2.65782 0
M  V30 6731 C 631.944 -3.85455 -2.33956 0
M  V30 6732 C 630.606 -4.25364 -2.24987 0
M  V30 6733 C 632.958 -4.77895 -2.08004 0
M  V30 6734 C 630.286 -5.55701 -1.88184 0
M  V30 6735 C 632.638 -6.08568 -1.72706 0
M  V30 6736 C 631.302 -6.47482 -1.62244 0
M  V30 6737 H 630.572 -0.520748 -0.527164 0
M  V30 6738 H 633.219 -1.7505 -0.776524 0
M  V30 6739 H 631.524 -1.99511 -3.37198 0
M  V30 6740 H 633.221 -2.36336 -3.23954 0
M  V30 6741 H 629.811 -3.53855 -2.41836 0
M  V30 6742 H 633.995 -4.47854 -2.1387 0
M  V30 6743 H 629.251 -5.84718 -1.78648 0
M  V30 6744 H 633.425 -6.79688 -1.5165 0
M  V30 6745 H 631.052 -7.48387 -1.33496 0
M  V30 6746 N 632.627 0.916307 -1.28225 0
M  V30 6747 C 633.557 2.0352 -1.14464 0
M  V30 6748 C 634.538 1.70045 -0.0430844 0
M  V30 6749 O 635.723 1.92954 -0.219619 0
M  V30 6750 C 632.853 3.37889 -0.803027 0
M  V30 6751 C 631.807 3.85516 -1.85908 0
M  V30 6752 C 631.133 5.1682 -1.37116 0
M  V30 6753 C 632.433 4.07655 -3.26519 0
M  V30 6754 H 634.127 2.1529 -2.08064 0
M  V30 6755 H 631.673 1.03446 -1.00174 0
M  V30 6756 H 633.626 4.15654 -0.693537 0
M  V30 6757 H 632.35 3.26164 0.168674 0
M  V30 6758 H 631.009 3.09953 -1.95767 0
M  V30 6759 H 630.657 5.01497 -0.38859 0
M  V30 6760 H 630.357 5.49657 -2.07728 0
M  V30 6761 H 631.881 5.97143 -1.27484 0
M  V30 6762 H 633.295 4.75953 -3.19596 0
M  V30 6763 H 631.692 4.51818 -3.94943 0
M  V30 6764 H 632.762 3.12553 -3.70727 0
M  V30 6765 N 634.105 1.10431 1.1244 0
M  V30 6766 C 635.335 0.867612 1.87499 0
M  V30 6767 C 635.743 -0.585475 1.79913 0
M  V30 6768 O 635.086 -1.41539 1.171 0
M  V30 6769 C 635.148 1.2374 3.37533 0
M  V30 6770 C 634.812 2.69751 3.68895 0
M  V30 6771 C 635.809 3.67988 3.67261 0
M  V30 6772 C 633.494 3.06135 3.98229 0
M  V30 6773 C 635.488 5.00632 3.9452 0
M  V30 6774 C 633.175 4.38967 4.25149 0
M  V30 6775 C 634.173 5.36025 4.23281 0
M  V30 6776 O 633.861 6.66465 4.49533 0
M  V30 6777 H 633.593 0.311196 0.600111 0
M  V30 6778 H 636.147 1.47257 1.43194 0
M  V30 6779 H 634.377 0.575537 3.82393 0
M  V30 6780 H 636.066 0.978187 3.93937 0
M  V30 6781 H 636.832 3.41224 3.44661 0
M  V30 6782 H 632.711 2.31214 3.98825 0
M  V30 6783 H 636.255 5.7638 3.92978 0
M  V30 6784 H 632.152 4.6547 4.47223 0
M  V30 6785 H 632.92 6.72095 4.67152 0
M  V30 6786 N 635.583 -1.29855 0.893053 0
M  V30 6787 C 636.808 -2.00512 0.530066 0
M  V30 6788 C 637.233 -1.66446 -0.876199 0
M  V30 6789 O 636.591 -0.885446 -1.58207 0
M  V30 6790 C 636.639 -3.53308 0.721505 0
M  V30 6791 O 635.743 -4.11764 -0.228994 0
M  V30 6792 H 635.084 -0.630617 0.207891 0
M  V30 6793 H 637.614 -1.6551 1.20282 0
M  V30 6794 H 637.624 -4.03206 0.623599 0
M  V30 6795 H 636.299 -3.77439 1.74678 0
M  V30 6796 H 634.876 -3.72805 -0.0841034 0
M  V30 6797 N 637.061 -0.65484 -1.43351 0
M  V30 6798 C 638.291 -0.176429 -2.05845 0
M  V30 6799 C 638.699 1.16375 -1.49176 0
M  V30 6800 O 638.042 1.72981 -0.618322 0
M  V30 6801 C 638.104 -0.0125844 -3.59498 0
M  V30 6802 C 637.768 -1.27831 -4.38758 0
M  V30 6803 C 638.765 -2.2074 -4.70712 0
M  V30 6804 C 636.45 -1.52035 -4.78739 0
M  V30 6805 C 638.444 -3.36145 -5.41558 0
M  V30 6806 C 636.131 -2.67732 -5.49329 0
M  V30 6807 C 637.129 -3.59612 -5.80662 0
M  V30 6808 O 636.817 -4.73289 -6.4981 0
M  V30 6809 H 636.549 -0.0879682 -0.670252 0
M  V30 6810 H 639.103 -0.896193 -1.84818 0
M  V30 6811 H 637.333 0.762567 -3.79107 0
M  V30 6812 H 639.022 0.423392 -4.03686 0
M  V30 6813 H 639.788 -2.03284 -4.40341 0
M  V30 6814 H 635.667 -0.813987 -4.53757 0
M  V30 6815 H 639.211 -4.07881 -5.65932 0
M  V30 6816 H 635.108 -2.85122 -5.79116 0
M  V30 6817 H 635.876 -4.72575 -6.68293 0
M  V30 6818 N 638.539 1.52521 -0.396863 0
M  V30 6819 C 639.786 2.01672 0.182898 0
M  V30 6820 C 640.114 1.28302 1.46181 0
M  V30 6821 O 639.369 0.374118 1.92091 0
M  V30 6822 C 639.668 3.5403 0.489677 0
M  V30 6823 C 639.334 4.45456 -0.698581 0
M  V30 6824 C 637.996 4.70166 -1.02454 0
M  V30 6825 C 640.348 4.99354 -1.49316 0
M  V30 6826 C 637.676 5.46024 -2.1465 0
M  V30 6827 C 640.028 5.76439 -2.60579 0
M  V30 6828 C 638.692 5.99426 -2.93675 0
M  V30 6829 H 637.962 0.737971 0.066927 0
M  V30 6830 H 640.609 1.83853 -0.535764 0
M  V30 6831 H 638.914 3.69963 1.28976 0
M  V30 6832 H 640.611 3.8956 0.951018 0
M  V30 6833 H 637.201 4.26392 -0.434525 0
M  V30 6834 H 641.385 4.80182 -1.25457 0
M  V30 6835 H 636.641 5.62046 -2.40654 0
M  V30 6836 H 640.815 6.17202 -3.22544 0
M  V30 6837 H 638.442 6.57988 -3.80731 0
M  V30 6838 N 640.017 0.126909 1.57088 0
M  V30 6839 C 640.964 -0.82036 2.15728 0
M  V30 6840 C 641.934 -1.25811 1.08447 0
M  V30 6841 O 643.119 -1.33422 1.36393 0
M  V30 6842 C 640.259 -2.06199 2.76724 0
M  V30 6843 C 639.372 -1.67188 3.98337 0
M  V30 6844 C 638.507 -2.86378 4.47393 0
M  V30 6845 C 637.546 -2.43644 5.61519 0
M  V30 6846 N 636.683 -3.55775 6.05284 0
M  V30 6847 H 641.523 -0.313472 2.96347 0
M  V30 6848 H 639.06 -0.14303 1.46403 0
M  V30 6849 H 641.018 -2.78959 3.10222 0
M  V30 6850 H 639.648 -2.54333 1.98782 0
M  V30 6851 H 638.7 -0.842714 3.70948 0
M  V30 6852 H 640.012 -1.31789 4.81075 0
M  V30 6853 H 639.166 -3.67353 4.82842 0
M  V30 6854 H 637.905 -3.25009 3.63621 0
M  V30 6855 H 636.91 -1.61104 5.25667 0
M  V30 6856 H 638.135 -2.06122 6.47063 0
M  V30 6857 H 636.081 -3.94065 5.24451 0
M  V30 6858 H 635.998 -3.24325 6.82898 0
M  V30 6859 H 637.266 -4.37166 6.45373 0
M  V30 6860 N 641.495 -1.56914 -0.146875 0
M  V30 6861 C 642.772 -1.74273 -0.888165 0
M  V30 6862 C 643.152 -0.69496 -1.99333 0
M  V30 6863 O 642.5 0.286093 -2.26702 0
M  V30 6864 C 642.71 -3.18336 -1.43051 0
M  V30 6865 C 644.058 -3.80024 -1.89387 0
M  V30 6866 O 645.082 -3.21765 -1.52792 0
M  V30 6867 O 643.941 -4.82367 -2.56874 0
M  V30 6868 H 641.035 -0.712565 -0.419738 0
M  V30 6869 H 643.581 -1.6918 -0.132791 0
M  V30 6870 H 642.353 -3.86092 -0.636274 0
M  V30 6871 H 641.976 -3.27854 -2.24938 0
M  V30 6872 N 642.974 0.416227 -1.52004 0
M  V30 6873 C 643.921 1.50666 -1.74838 0
M  V30 6874 C 644.891 1.55245 -0.590599 0
M  V30 6875 O 646.076 1.71928 -0.827374 0
M  V30 6876 C 643.216 2.88185 -1.89851 0
M  V30 6877 C 642.329 2.92971 -3.17478 0
M  V30 6878 C 641.464 4.21745 -3.22962 0
M  V30 6879 C 640.503 4.20478 -4.4482 0
M  V30 6880 N 639.64 5.40811 -4.47736 0
M  V30 6881 H 644.48 1.30498 -2.67907 0
M  V30 6882 H 642.017 0.633568 -1.32757 0
M  V30 6883 H 643.975 3.68007 -1.96537 0
M  V30 6884 H 642.605 3.06865 -1.00169 0
M  V30 6885 H 641.657 2.05684 -3.19997 0
M  V30 6886 H 642.969 2.87899 -4.07328 0
M  V30 6887 H 642.123 5.09954 -3.28682 0
M  V30 6888 H 640.862 4.29503 -2.31038 0
M  V30 6889 H 639.867 3.30659 -4.39254 0
M  V30 6890 H 641.092 4.14366 -5.38031 0
M  V30 6891 H 639.038 5.4925 -3.58692 0
M  V30 6892 H 638.955 5.37705 -5.31422 0
M  V30 6893 H 640.223 6.30993 -4.57676 0
M  V30 6894 N 644.452 1.42507 0.673017 0
M  V30 6895 C 645.698 1.43284 1.43519 0
M  V30 6896 C 646.031 0.049668 1.94136 0
M  V30 6897 O 645.306 -0.926369 1.71022 0
M  V30 6898 C 645.589 2.45874 2.63093 0
M  V30 6899 C 645.442 3.93388 2.18096 0
M  V30 6900 C 646.761 2.45431 3.6531 0
M  V30 6901 H 643.88 0.521752 0.520522 0
M  V30 6902 H 646.522 1.73932 0.764701 0
M  V30 6903 H 644.672 2.19869 3.20296 0
M  V30 6904 H 646.344 4.30379 1.66046 0
M  V30 6905 H 644.587 4.07169 1.49652 0
M  V30 6906 H 645.258 4.60752 3.03993 0
M  V30 6907 H 647.734 2.68561 3.17827 0
M  V30 6908 H 646.61 3.19189 4.46553 0
M  V30 6909 H 646.871 1.48092 4.16559 0
M  V30 6910 N 645.93 -0.909495 1.28709 0
M  V30 6911 C 647.207 -1.63865 1.06806 0
M  V30 6912 C 647.587 -2.07445 -0.391143 0
M  V30 6913 O 646.935 -1.82269 -1.37805 0
M  V30 6914 C 647.145 -2.82692 2.04661 0
M  V30 6915 C 648.493 -3.5361 2.35042 0
M  V30 6916 O 649.517 -2.92847 2.02779 0
M  V30 6917 O 648.376 -4.63131 2.90124 0
M  V30 6918 H 645.47 -0.719065 0.408502 0
M  V30 6919 H 648.016 -0.958424 1.40044 0
M  V30 6920 H 646.788 -2.47614 3.0299 0
M  V30 6921 H 646.411 -3.58426 1.72095 0
M  V30 6922 N 647.408 -1.11026 -1.11852 0
M  V30 6923 C 648.654 -0.857729 -1.83768 0
M  V30 6924 C 648.987 0.615143 -1.842 0
M  V30 6925 O 648.262 1.45391 -1.29196 0
M  V30 6926 C 648.545 -1.41453 -3.31154 0
M  V30 6927 C 648.398 -2.95471 -3.39142 0
M  V30 6928 C 649.717 -1.0619 -4.27097 0
M  V30 6929 H 646.836 -0.313044 -0.667212 0
M  V30 6930 H 649.478 -1.37443 -1.31185 0
M  V30 6931 H 647.628 -0.975052 -3.76065 0
M  V30 6932 H 649.3 -3.4799 -3.02821 0
M  V30 6933 H 647.543 -3.31759 -2.79497 0
M  V30 6934 H 648.214 -3.29515 -4.42859 0
M  V30 6935 H 650.69 -1.44122 -3.90344 0
M  V30 6936 H 649.566 -1.47832 -5.28618 0
M  V30 6937 H 649.827 0.0278912 -4.42091 0
M  V30 6938 N 648.886 1.2938 -0.899927 0
M  V30 6939 C 649.816 2.30144 -0.39446 0
M  V30 6940 C 650.797 1.61611 0.530639 0
M  V30 6941 O 651.982 1.89119 0.441319 0
M  V30 6942 C 649.112 3.45229 0.37868 0
M  V30 6943 C 648.066 4.25564 -0.456012 0
M  V30 6944 C 647.392 5.32848 0.444637 0
M  V30 6945 C 648.692 4.93651 -1.70605 0
M  V30 6946 H 650.386 2.72673 -1.23653 0
M  V30 6947 H 647.932 1.31086 -0.596034 0
M  V30 6948 H 649.885 4.14797 0.743037 0
M  V30 6949 H 648.609 3.01545 1.25453 0
M  V30 6950 H 647.268 3.57704 -0.802704 0
M  V30 6951 H 646.916 4.85408 1.31863 0
M  V30 6952 H 646.616 5.87497 -0.110154 0
M  V30 6953 H 648.14 6.05268 0.805182 0
M  V30 6954 H 649.554 5.55655 -1.41141 0
M  V30 6955 H 647.951 5.58233 -2.20217 0
M  V30 6956 H 649.021 4.18926 -2.4419 0
M  V30 6957 N 650.364 0.662433 1.43002 0
M  V30 6958 C 651.312 -0.035345 2.32573 0
M  V30 6959 C 652.306 -0.803505 1.49131 0
M  V30 6960 O 653.512 -0.712865 1.65282 0
M  V30 6961 H 649.887 -0.0302194 0.751393 0
M  V30 6962 H 651.858 0.737686 2.89138 0
M  V30 6963 C 650.607 -0.981575 3.33557 0
M  V30 6964 H 649.93 -0.399914 3.97795 0
M  V30 6965 H 651.37 -1.43873 3.98844 0
M  V30 6966 C 649.829 -2.08204 2.64863 0
M  V30 6967 O 650.359 -3.16698 2.47113 0
M  V30 6968 N 648.565 -1.85022 2.24088 0
M  V30 6969 H 648.112 -0.967909 2.38724 0
M  V30 6970 H 648.07 -2.58845 1.78457 0
M  V30 6971 N 651.842 -1.52309 0.404946 0
M  V30 6972 C 652.774 -2.24579 -0.45791 0
M  V30 6973 C 653.787 -1.2739 -1.01369 0
M  V30 6974 O 654.976 -1.53363 -0.91335 0
M  V30 6975 C 652.076 -2.9608 -1.64893 0
M  V30 6976 C 651.249 -4.20106 -1.21777 0
M  V30 6977 C 650.308 -4.74468 -2.27523 0
M  V30 6978 O 649.334 -5.37157 -1.88285 0
M  V30 6979 N 650.536 -4.55678 -3.59635 0
M  V30 6980 H 653.301 -2.99265 0.161341 0
M  V30 6981 H 650.862 -1.60228 0.232107 0
M  V30 6982 H 652.854 -3.29344 -2.35191 0
M  V30 6983 H 651.424 -2.24606 -2.17419 0
M  V30 6984 H 650.644 -3.92704 -0.343071 0
M  V30 6985 H 651.932 -5.00658 -0.906596 0
M  V30 6986 H 651.33 -4.05673 -3.94266 0
M  V30 6987 H 649.887 -4.9339 -4.25922 0
M  V30 6988 N 653.32 -0.135238 -1.57019 0
M  V30 6989 C 654.566 0.519563 -1.96032 0
M  V30 6990 C 654.899 1.65284 -1.01955 0
M  V30 6991 O 654.174 1.94408 -0.059727 0
M  V30 6992 C 654.457 1.0369 -3.44848 0
M  V30 6993 C 654.31 -0.0940754 -4.49702 0
M  V30 6994 C 655.629 1.92254 -3.95887 0
M  V30 6995 H 652.748 0.18739 -0.712779 0
M  V30 6996 H 655.39 -0.214086 -1.8879 0
M  V30 6997 H 653.54 1.66209 -3.5115 0
M  V30 6998 H 655.212 -0.73 -4.55487 0
M  V30 6999 H 653.455 -0.754924 -4.27181 0
M  V30 7000 H 654.126 0.309419 -5.51132 0
M  V30 7001 H 656.602 1.39581 -3.9199 0
M  V30 7002 H 655.478 2.25364 -5.00502 0
M  V30 7003 H 655.739 2.85513 -3.37543 0
M  V30 7004 N 654.798 1.5699 0.138552 0
M  V30 7005 C 656.075 1.74741 0.87891 0
M  V30 7006 C 656.455 0.705522 1.98961 0
M  V30 7007 O 655.803 -0.274066 2.2685 0
M  V30 7008 C 656.013 3.1909 1.4136 0
M  V30 7009 C 657.361 3.81023 1.87368 0
M  V30 7010 O 658.385 3.22571 1.51084 0
M  V30 7011 O 657.244 4.83722 2.54312 0
M  V30 7012 H 654.338 0.714781 0.415953 0
M  V30 7013 H 656.884 1.69248 0.123817 0
M  V30 7014 H 655.656 3.86424 0.61579 0
M  V30 7015 H 655.279 3.29043 2.23196 0
M  V30 7016 N 656.276 -0.40816 1.52223 0
M  V30 7017 C 657.522 -1.15347 1.67531 0
M  V30 7018 C 657.877 -1.8818 0.400748 0
M  V30 7019 O 657.17 -1.81803 -0.604845 0
M  V30 7020 C 657.364 -2.17422 2.83659 0
M  V30 7021 C 657.193 -1.54611 4.22286 0
M  V30 7022 C 655.963 -1.31841 4.87797 0
M  V30 7023 C 658.161 -1.00648 5.04355 0
M  V30 7024 N 656.143 -0.649338 6.10456 0
M  V30 7025 C 657.514 -0.464384 6.18258 0
M  V30 7026 C 659.569 -0.901041 4.89679 0
M  V30 7027 C 658.272 0.172825 7.19092 0
M  V30 7028 C 660.298 -0.277684 5.90748 0
M  V30 7029 C 659.66 0.253734 7.03943 0
M  V30 7030 H 655.759 -0.408722 0.666686 0
M  V30 7031 H 658.343 -0.445713 1.8953 0
M  V30 7032 H 656.514 -2.85554 2.63274 0
M  V30 7033 H 658.246 -2.84321 2.87999 0
M  V30 7034 H 655.001 -1.58819 4.46176 0
M  V30 7035 H 655.425 -0.3314 6.76188 0
M  V30 7036 H 660.067 -1.29772 4.02392 0
M  V30 7037 H 657.785 0.581564 8.06005 0
M  V30 7038 H 661.371 -0.197605 5.81464 0
M  V30 7039 H 660.251 0.728482 7.80809 0
M  V30 7040 N 657.755 -1.42862 -0.66545 0
M  V30 7041 C 658.703 -1.47319 -1.8 0
M  V30 7042 C 659.697 -0.347963 -1.65788 0
M  V30 7043 O 660.903 -0.521406 -1.72283 0
M  V30 7044 H 657.278 -0.461588 -0.593667 0
M  V30 7045 H 659.249 -2.42876 -1.7336 0
M  V30 7046 C 657.998 -1.40152 -3.18203 0
M  V30 7047 H 657.321 -2.26035 -3.2977 0
M  V30 7048 H 658.761 -1.47331 -3.9758 0
M  V30 7049 C 657.22 -0.117493 -3.36695 0
M  V30 7050 O 657.75 0.826058 -3.93115 0
M  V30 7051 N 655.956 -0.0316218 -2.90583 0
M  V30 7052 H 655.503 -0.800247 -2.44855 0
M  V30 7053 H 655.461 0.826835 -3.03333 0
M  V30 7054 N 659.233 0.902656 -1.29189 0
M  V30 7055 C 660.196 1.98797 -1.14071 0
M  V30 7056 C 661.196 1.60615 -0.0770549 0
M  V30 7057 O 662.386 1.71165 -0.323753 0
M  V30 7058 C 659.518 3.32688 -0.743739 0
M  V30 7059 H 660.711 2.13637 -2.10473 0
M  V30 7060 H 658.264 1.08678 -1.12334 0
M  V30 7061 H 658.999 3.23549 0.220554 0
M  V30 7062 H 658.784 3.61765 -1.51223 0
M  V30 7063 H 660.274 4.12337 -0.660935 0
M  V30 7064 N 660.711 1.11618 1.11262 0
M  V30 7065 C 661.957 0.877377 1.83504 0
M  V30 7066 C 662.312 -0.590606 1.83111 0
M  V30 7067 O 661.605 -1.43057 1.27456 0
M  V30 7068 C 661.799 1.37529 3.2988 0
M  V30 7069 C 661.628 2.89014 3.4453 0
M  V30 7070 C 660.398 3.57157 3.57445 0
M  V30 7071 C 662.596 3.8706 3.38658 0
M  V30 7072 N 660.578 4.96842 3.60585 0
M  V30 7073 C 661.949 5.12825 3.4844 0
M  V30 7074 C 664.004 3.79593 3.22201 0
M  V30 7075 C 662.707 6.32002 3.43462 0
M  V30 7076 C 664.733 4.98282 3.18542 0
M  V30 7077 C 664.095 6.22901 3.28897 0
M  V30 7078 H 660.194 0.37422 0.686646 0
M  V30 7079 H 662.778 1.42087 1.33114 0
M  V30 7080 H 660.949 0.85895 3.78783 0
M  V30 7081 H 662.681 1.07944 3.90039 0
M  V30 7082 H 659.436 3.07628 3.60086 0
M  V30 7083 H 659.86 5.69674 3.65788 0
M  V30 7084 H 664.502 2.84149 3.1308 0
M  V30 7085 H 662.22 7.27721 3.51352 0
M  V30 7086 H 665.806 4.94226 3.06972 0
M  V30 7087 H 664.686 7.13202 3.26056 0
M  V30 7088 N 662.189 -1.289 0.906776 0
M  V30 7089 C 663.119 -2.29932 0.406659 0
M  V30 7090 C 664.1 -1.6189 -0.522061 0
M  V30 7091 O 665.285 -1.8935 -0.431283 0
M  V30 7092 C 662.415 -3.45425 -0.360366 0
M  V30 7093 C 661.369 -4.25316 0.478574 0
M  V30 7094 C 660.695 -5.33076 -0.416373 0
M  V30 7095 C 661.995 -4.92739 1.7322 0
M  V30 7096 H 663.689 -2.72013 1.25097 0
M  V30 7097 H 661.235 -1.30768 0.602977 0
M  V30 7098 H 663.188 -4.15186 -0.721029 0
M  V30 7099 H 661.912 -3.02206 -1.23852 0
M  V30 7100 H 660.571 -3.57273 0.821662 0
M  V30 7101 H 660.219 -4.86101 -1.29287 0
M  V30 7102 H 659.919 -5.8743 0.141309 0
M  V30 7103 H 661.443 -6.05686 -0.773072 0
M  V30 7104 H 662.857 -5.54898 1.44086 0
M  V30 7105 H 661.254 -5.57057 2.23175 0
M  V30 7106 H 662.324 -4.17625 2.46408 0
M  V30 7107 N 663.667 -0.670007 -1.42649 0
M  V30 7108 C 664.897 -0.198252 -2.05647 0
M  V30 7109 C 665.305 1.14786 -1.50402 0
M  V30 7110 O 664.648 1.72316 -0.636634 0
M  V30 7111 C 664.71 -0.0507132 -3.59464 0
M  V30 7112 C 664.374 -1.32478 -4.37377 0
M  V30 7113 C 665.371 -2.2572 -4.68344 0
M  V30 7114 C 663.056 -1.57104 -4.77099 0
M  V30 7115 C 665.05 -3.4187 -5.37963 0
M  V30 7116 C 662.737 -2.73543 -5.46459 0
M  V30 7117 C 663.735 -3.65751 -5.76815 0
M  V30 7118 O 663.423 -4.80154 -6.44753 0
M  V30 7119 H 663.155 -0.0950721 -0.669281 0
M  V30 7120 H 665.709 -0.915745 -1.83857 0
M  V30 7121 H 663.939 0.722314 -3.79894 0
M  V30 7122 H 665.628 0.380552 -4.04112 0
M  V30 7123 H 666.394 -2.07943 -4.38161 0
M  V30 7124 H 662.273 -0.862069 -4.52868 0
M  V30 7125 H 665.817 -4.13861 -5.61574 0
M  V30 7126 H 661.714 -2.91248 -5.7606 0
M  V30 7127 H 662.482 -4.79637 -6.63243 0
M  V30 7128 N 665.145 1.52092 -0.413018 0
M  V30 7129 C 666.37 2.06756 0.163338 0
M  V30 7130 C 666.795 1.28073 1.37764 0
M  V30 7131 O 666.153 0.312015 1.78595 0
M  V30 7132 C 666.201 3.57278 0.488322 0
M  V30 7133 O 665.305 3.80986 1.57871 0
M  V30 7134 H 664.646 0.663882 0.0125068 0
M  V30 7135 H 667.176 1.95988 -0.587339 0
M  V30 7136 H 667.186 4.01125 0.745836 0
M  V30 7137 H 665.861 4.13978 -0.399327 0
M  V30 7138 H 664.438 3.49017 1.31306 0
M  V30 7139 N 666.623 0.143563 1.56945 0
M  V30 7140 C 668.034 -0.37783 1.82837 0
M  V30 7141 C 668.385 -1.64967 1.06209 0
M  V30 7142 O 667.51 -2.14221 0.306291 0
M  V30 7143 C 668.105 -0.692274 3.31652 0
M  V30 7144 C 666.664 -1.1582 3.58138 0
M  V30 7145 C 665.811 -0.17951 2.76718 0
M  V30 7146 H 668.762 0.368317 1.54367 0
M  V30 7147 H 668.783 -1.54729 3.47619 0
M  V30 7148 H 668.295 0.233572 3.87397 0
M  V30 7149 H 666.396 -2.10011 3.07776 0
M  V30 7150 H 666.509 -1.08655 4.66616 0
M  V30 7151 H 664.873 -0.671458 2.4569 0
M  V30 7152 H 665.656 0.739865 3.35233 0
M  V30 7153 N 668.101 -1.57061 -0.130224 0
M  V30 7154 C 669.349 -1.83893 -0.838313 0
M  V30 7155 C 669.67 -0.727046 -1.80939 0
M  V30 7156 O 668.94 0.249927 -1.94299 0
M  V30 7157 H 667.52 -0.67846 -0.312573 0
M  V30 7158 H 670.182 -1.94529 -0.120224 0
M  V30 7159 H 669.278 -2.79419 -1.39038 0
M  V30 7160 N 669.579 0.400081 -1.52437 0
M  V30 7161 C 670.509 1.4947 -1.7939 0
M  V30 7162 C 671.49 1.57383 -0.645329 0
M  V30 7163 O 672.675 1.72511 -0.891826 0
M  V30 7164 C 669.805 2.87201 -1.95276 0
M  V30 7165 C 668.759 2.94134 -3.10917 0
M  V30 7166 C 668.085 4.34207 -3.1204 0
M  V30 7167 C 669.385 2.64791 -4.50203 0
M  V30 7168 H 671.079 1.27165 -2.71052 0
M  V30 7169 H 668.625 0.610312 -1.30427 0
M  V30 7170 H 670.578 3.63772 -2.12715 0
M  V30 7171 H 669.302 3.10819 -1.00294 0
M  V30 7172 H 667.961 2.20009 -2.93243 0
M  V30 7173 H 667.609 4.54848 -2.14761 0
M  V30 7174 H 667.309 4.39768 -3.89715 0
M  V30 7175 H 668.833 5.127 -3.31619 0
M  V30 7176 H 670.247 3.31083 -4.68035 0
M  V30 7177 H 668.644 2.81717 -5.29864 0
M  V30 7178 H 669.714 1.60184 -4.57678 0
M  V30 7179 N 671.057 1.43213 0.657864 0
M  V30 7180 C 672.468 1.39669 1.23893 0
M  V30 7181 C 672.819 0.0984217 1.95953 0
M  V30 7182 O 671.944 -0.8023 2.00978 0
M  V30 7183 C 672.539 2.53004 2.25332 0
M  V30 7184 C 671.098 2.5274 2.78926 0
M  V30 7185 C 670.245 2.30941 1.53497 0
M  V30 7186 H 673.196 1.52181 0.450172 0
M  V30 7187 H 673.217 2.24226 3.07413 0
M  V30 7188 H 672.729 3.4748 1.72856 0
M  V30 7189 H 670.83 1.6213 3.35477 0
M  V30 7190 H 670.943 3.50352 3.26787 0
M  V30 7191 H 669.307 1.7952 1.80678 0
M  V30 7192 H 670.09 3.27496 1.02963 0
M  V30 7193 N 672.536 -0.895792 1.29666 0
M  V30 7194 C 673.947 -1.46195 1.1612 0
M  V30 7195 C 674.298 -1.94699 -0.242195 0
M  V30 7196 O 673.423 -1.8406 -1.13802 0
M  V30 7197 C 674.018 -2.65718 2.10189 0
M  V30 7198 C 672.577 -3.18458 2.00653 0
M  V30 7199 C 671.724 -1.91149 2.00891 0
M  V30 7200 H 674.675 -0.706756 1.42094 0
M  V30 7201 H 674.696 -3.4158 1.6764 0
M  V30 7202 H 674.208 -2.30386 3.12321 0
M  V30 7203 H 672.309 -3.58474 1.01623 0
M  V30 7204 H 672.422 -3.82491 2.88509 0
M  V30 7205 H 670.786 -2.09021 1.45542 0
M  V30 7206 H 671.569 -1.58089 3.04734 0
M  V30 7207 N 674.014 -1.12206 -1.10668 0
M  V30 7208 C 675.263 -0.870595 -1.81944 0
M  V30 7209 C 675.576 0.605447 -1.85994 0
M  V30 7210 O 676.782 0.973433 -2.53449 0
M  V30 7211 C 675.238 -1.50783 -3.26791 0
M  V30 7212 C 674.846 -3.01849 -3.31046 0
M  V30 7213 C 676.59 -1.33653 -4.02911 0
M  V30 7214 C 674.497 -3.58518 -4.70339 0
M  V30 7215 H 673.427 -0.322043 -0.681765 0
M  V30 7216 H 676.078 -1.34827 -1.24475 0
M  V30 7217 H 674.46 -0.957825 -3.84242 0
M  V30 7218 H 675.634 -3.63321 -2.83433 0
M  V30 7219 H 673.949 -3.18346 -2.68411 0
M  V30 7220 H 676.546 -1.73416 -5.05797 0
M  V30 7221 H 676.889 -0.279949 -4.15358 0
M  V30 7222 H 677.422 -1.85562 -3.51868 0
M  V30 7223 H 674.161 -4.63925 -4.63091 0
M  V30 7224 H 673.681 -3.01819 -5.18329 0
M  V30 7225 H 675.36 -3.57434 -5.39305 0
M  V30 7226 N 675.492 1.28418 -0.913599 0
M  V30 7227 C 676.439 2.27301 -0.400373 0
M  V30 7228 C 677.409 1.57582 0.52509 0
M  V30 7229 O 678.594 1.85482 0.447318 0
M  V30 7230 C 675.734 3.43284 0.35361 0
M  V30 7231 C 674.847 4.27752 -0.604341 0
M  V30 7232 C 673.982 5.30934 0.168075 0
M  V30 7233 C 673.021 6.07065 -0.783499 0
M  V30 7234 N 672.158 7.02086 -0.0446112 0
M  V30 7235 H 676.998 2.70579 -1.24865 0
M  V30 7236 H 674.535 1.33067 -0.627028 0
M  V30 7237 H 676.493 4.09322 0.806945 0
M  V30 7238 H 675.123 3.00997 1.16623 0
M  V30 7239 H 674.175 3.61759 -1.17621 0
M  V30 7240 H 675.487 4.80682 -1.33216 0
M  V30 7241 H 674.641 6.02855 0.681979 0
M  V30 7242 H 673.38 4.78771 0.928947 0
M  V30 7243 H 672.385 5.33995 -1.30878 0
M  V30 7244 H 673.61 6.61317 -1.54392 0
M  V30 7245 H 671.556 6.52273 0.698272 0
M  V30 7246 H 671.473 7.52637 -0.712258 0
M  V30 7247 H 672.741 7.78205 0.449102 0
M  V30 7248 N 676.97 0.677563 1.42291 0
M  V30 7249 C 678.381 0.277912 1.8462 0
M  V30 7250 C 678.732 -1.18048 1.56714 0
M  V30 7251 O 677.857 -1.90404 1.02836 0
M  V30 7252 C 678.452 0.497619 3.35126 0
M  V30 7253 C 677.011 0.152063 3.76093 0
M  V30 7254 C 676.158 0.78872 2.65847 0
M  V30 7255 H 679.109 0.879527 1.32098 0
M  V30 7256 H 679.13 -0.24939 3.79682 0
M  V30 7257 H 678.642 1.55913 3.55405 0
M  V30 7258 H 676.743 -0.905896 3.6142 0
M  V30 7259 H 676.856 0.594514 4.75397 0
M  V30 7260 H 675.22 0.219813 2.5375 0
M  V30 7261 H 676.003 1.85374 2.88949 0
M  V30 7262 N 678.448 -1.51871 0.421078 0
M  V30 7263 C 679.396 -2.28903 -0.413066 0
M  V30 7264 C 680.39 -1.3408 -1.03532 0
M  V30 7265 O 681.596 -1.5149 -0.972146 0
M  V30 7266 H 677.971 -0.736478 -0.152003 0
M  V30 7267 H 679.942 -2.97285 0.257695 0
M  V30 7268 C 678.691 -3.13156 -1.51091 0
M  V30 7269 H 678.014 -3.85997 -1.04145 0
M  V30 7270 H 679.454 -3.7014 -2.06814 0
M  V30 7271 C 677.913 -2.27482 -2.48503 0
M  V30 7272 O 678.443 -1.92325 -3.52667 0
M  V30 7273 N 676.649 -1.91019 -2.18998 0
M  V30 7274 H 676.196 -2.19808 -1.34322 0
M  V30 7275 H 676.154 -1.3399 -2.84419 0
M  V30 7276 N 679.926 -0.151884 -1.56866 0
M  V30 7277 C 681.156 0.504081 -2.00356 0
M  V30 7278 C 681.564 1.58639 -1.03103 0
M  V30 7279 O 680.907 1.83688 -0.0207931 0
M  V30 7280 C 680.969 1.15975 -3.40279 0
M  V30 7281 C 680.633 0.221453 -4.56463 0
M  V30 7282 C 681.63 -0.552766 -5.16953 0
M  V30 7283 C 679.315 0.122936 -5.0215 0
M  V30 7284 C 681.309 -1.4129 -6.21543 0
M  V30 7285 C 678.996 -0.740801 -6.06593 0
M  V30 7286 C 679.994 -1.50732 -6.6616 0
M  V30 7287 O 679.682 -2.35666 -7.68581 0
M  V30 7288 H 679.414 0.135279 -0.662326 0
M  V30 7289 H 681.968 -0.244916 -2.03935 0
M  V30 7290 H 680.198 1.95649 -3.33554 0
M  V30 7291 H 681.887 1.71594 -3.67846 0
M  V30 7292 H 682.653 -0.486716 -4.82552 0
M  V30 7293 H 678.532 0.70931 -4.5551 0
M  V30 7294 H 682.076 -2.01166 -6.67966 0
M  V30 7295 H 677.973 -0.808125 -6.40421 0
M  V30 7296 H 678.741 -2.28967 -7.85822 0
M  V30 7297 N 681.404 1.57128 0.121893 0
M  V30 7298 C 682.681 1.75664 0.860327 0
M  V30 7299 C 683.061 0.726585 1.98202 0
M  V30 7300 O 682.409 -0.24999 2.27128 0
M  V30 7301 C 682.619 3.20571 1.37968 0
M  V30 7302 C 683.967 3.82988 1.83317 0
M  V30 7303 O 684.991 3.24156 1.47654 0
M  V30 7304 O 683.85 4.86393 2.49168 0
M  V30 7305 H 680.944 0.719153 0.408348 0
M  V30 7306 H 683.49 1.6937 0.105859 0
M  V30 7307 H 682.262 3.87056 0.57477 0
M  V30 7308 H 681.885 3.31392 2.19694 0
M  V30 7309 N 682.882 -0.391992 1.52647 0
M  V30 7310 C 683.815 -1.50019 1.71958 0
M  V30 7311 C 684.793 -1.5238 0.567365 0
M  V30 7312 O 685.977 -1.70831 0.796806 0
M  V30 7313 C 683.104 -2.88496 1.77447 0
M  V30 7314 C 682.15 -3.03974 2.99169 0
M  V30 7315 S 682.983 -2.75487 4.59203 0
M  V30 7316 C 684.139 -4.16163 4.67503 0
M  V30 7317 H 684.372 -1.33413 2.65685 0
M  V30 7318 H 681.905 -0.584674 1.42902 0
M  V30 7319 H 683.863 -3.68296 1.81296 0
M  V30 7320 H 682.524 -3.02431 0.848188 0
M  V30 7321 H 681.717 -4.05328 2.99542 0
M  V30 7322 H 681.319 -2.32062 2.93297 0
M  V30 7323 H 683.611 -5.10048 4.45934 0
M  V30 7324 H 684.554 -4.20806 5.69498 0
M  V30 7325 H 684.962 -4.01933 3.96371 0
M  V30 7326 N 684.36 -1.4356 -0.65026 0
M  V30 7327 C 685.588 -1.48779 -1.43779 0
M  V30 7328 C 686.003 -0.106593 -1.88499 0
M  V30 7329 O 685.36 0.883766 -1.59674 0
M  V30 7330 C 685.411 -2.43618 -2.67081 0
M  V30 7331 O 685.132 -3.76367 -2.24231 0
M  V30 7332 C 686.633 -2.5811 -3.60409 0
M  V30 7333 H 683.853 -0.50521 -0.441593 0
M  V30 7334 H 686.397 -1.88332 -0.796941 0
M  V30 7335 H 684.552 -2.07253 -3.273 0
M  V30 7336 H 684.966 -4.27394 -3.0403 0
M  V30 7337 H 686.44 -3.28539 -4.43583 0
M  V30 7338 H 686.917 -1.627 -4.07953 0
M  V30 7339 H 687.523 -2.95298 -3.0607 0
M  V30 7340 N 685.838 0.888903 -1.30139 0
M  V30 7341 C 686.768 2.01046 -1.18755 0
M  V30 7342 C 687.749 1.69916 -0.0791438 0
M  V30 7343 O 688.934 1.92445 -0.260498 0
M  V30 7344 C 686.064 3.36109 -0.874518 0
M  V30 7345 C 685.018 3.81486 -1.94043 0
M  V30 7346 C 684.344 5.13796 -1.48047 0
M  V30 7347 C 685.644 4.00637 -3.35093 0
M  V30 7348 H 687.338 2.10828 -2.12584 0
M  V30 7349 H 684.884 1.01298 -1.02346 0
M  V30 7350 H 686.837 4.14089 -0.781548 0
M  V30 7351 H 685.561 3.26449 0.0994519 0
M  V30 7352 H 684.22 3.05731 -2.02297 0
M  V30 7353 H 683.868 5.0056 -0.494878 0
M  V30 7354 H 683.568 5.45127 -2.19341 0
M  V30 7355 H 685.092 5.94305 -1.40121 0
M  V30 7356 H 686.506 4.69067 -3.2962 0
M  V30 7357 H 684.903 4.43339 -4.04438 0
M  V30 7358 H 685.973 3.0462 -3.77273 0
M  V30 7359 N 687.317 1.12792 1.10072 0
M  V30 7360 C 688.545 0.908506 1.85886 0
M  V30 7361 C 688.96 -0.542408 1.80841 0
M  V30 7362 O 688.317 -1.37517 1.1998 0
M  V30 7363 C 688.368 1.37973 3.34134 0
M  V30 7364 O 688.089 2.77378 3.39106 0
M  V30 7365 C 689.59 1.1978 4.26811 0
M  V30 7366 H 686.81 0.3244 0.587372 0
M  V30 7367 H 689.354 1.49882 1.39125 0
M  V30 7368 H 687.509 0.832566 3.78348 0
M  V30 7369 H 687.923 2.98144 4.31521 0
M  V30 7370 H 689.397 1.57635 5.29014 0
M  V30 7371 H 689.874 0.138768 4.38981 0
M  V30 7372 H 690.48 1.73266 3.88406 0
M  V30 7373 N 688.795 -1.27931 0.920396 0
M  V30 7374 C 689.743 -2.29061 0.404191 0
M  V30 7375 C 690.737 -1.61615 -0.507634 0
M  V30 7376 O 691.943 -1.75765 -0.388144 0
M  V30 7377 H 688.318 -0.743594 0.112123 0
M  V30 7378 H 690.289 -2.70021 1.27008 0
M  V30 7379 C 689.038 -3.46088 -0.334466 0
M  V30 7380 H 688.361 -3.98194 0.35797 0
M  V30 7381 H 689.801 -4.18829 -0.660196 0
M  V30 7382 C 688.26 -2.99396 -1.54479 0
M  V30 7383 O 688.79 -3.02439 -2.64374 0
M  V30 7384 N 686.996 -2.54978 -1.39408 0
M  V30 7385 H 686.543 -2.52701 -0.500009 0
M  V30 7386 H 686.501 -2.24098 -2.20516 0
M  V30 7387 N 690.273 -0.685099 -1.4193 0
M  V30 7388 C 691.236 -0.0222632 -2.29189 0
M  V30 7389 C 692.236 0.7186 -1.4385 0
M  V30 7390 O 693.426 0.555058 -1.6512 0
M  V30 7391 C 690.558 0.979013 -3.2654 0
M  V30 7392 H 691.751 -0.790424 -2.89296 0
M  V30 7393 H 689.304 -0.448012 -1.49742 0
M  V30 7394 H 690.039 1.77531 -2.71392 0
M  V30 7395 H 689.824 0.451037 -3.89497 0
M  V30 7396 H 691.314 1.44091 -3.91954 0
M  V30 7397 N 691.751 1.51645 -0.429126 0
M  V30 7398 C 692.991 2.03924 0.139354 0
M  V30 7399 C 693.355 1.30673 1.40672 0
M  V30 7400 O 694.556 1.73282 2.05491 0
M  V30 7401 C 692.827 3.5557 0.361179 0
M  V30 7402 S 694.386 4.29591 0.894241 0
M  V30 7403 H 691.204 0.710103 0.0356986 0
M  V30 7404 H 693.806 1.86491 -0.586644 0
M  V30 7405 H 692.51 4.06455 -0.567686 0
M  V30 7406 H 692.041 3.77283 1.11449 0
M  V30 7407 H 694.056 4.46102 2.17272 0
M  V30 7408 N 693.229 0.160201 1.56784 0
M  V30 7409 C 694.478 -0.487619 1.95717 0
M  V30 7410 C 694.791 -1.65136 1.0483 0
M  V30 7411 O 695.997 -2.36468 1.33398 0
M  V30 7412 C 694.453 -0.91888 3.47972 0
M  V30 7413 C 694.061 0.218655 4.47466 0
M  V30 7414 C 695.805 -1.53575 3.95746 0
M  V30 7415 C 693.712 -0.231614 5.90946 0
M  V30 7416 H 692.642 -0.185939 0.730714 0
M  V30 7417 H 695.293 0.246657 1.81835 0
M  V30 7418 H 693.675 -1.70881 3.57234 0
M  V30 7419 H 694.849 0.995825 4.49911 0
M  V30 7420 H 693.164 0.744767 4.09685 0
M  V30 7421 H 695.761 -1.88448 5.00391 0
M  V30 7422 H 696.104 -2.42959 3.38048 0
M  V30 7423 H 696.637 -0.810467 3.89456 0
M  V30 7424 H 693.376 0.62718 6.52493 0
M  V30 7425 H 692.896 -0.974379 5.91833 0
M  V30 7426 H 694.575 -0.67922 6.43425 0
M  V30 7427 N 694.707 -1.5719 -0.113559 0
M  V30 7428 C 695.67 -1.99796 -1.12314 0
M  V30 7429 C 696.67 -0.888847 -1.34001 0
M  V30 7430 O 697.86 -1.15476 -1.30426 0
M  V30 7431 C 694.992 -2.34279 -2.47641 0
M  V30 7432 H 696.185 -2.90193 -0.756825 0
M  V30 7433 H 693.738 -1.52144 -0.358029 0
M  V30 7434 H 694.473 -1.46778 -2.89183 0
M  V30 7435 H 694.258 -3.15175 -2.33253 0
M  V30 7436 H 695.748 -2.67963 -3.2029 0
M  V30 7437 N 696.185 0.383891 -1.52853 0
M  V30 7438 C 697.115 1.47559 -1.80965 0
M  V30 7439 C 698.096 1.5669 -0.661986 0
M  V30 7440 O 699.281 1.71556 -0.910072 0
M  V30 7441 C 696.411 2.85114 -1.98312 0
M  V30 7442 C 695.365 2.9082 -3.14019 0
M  V30 7443 C 694.691 4.30873 -3.16627 0
M  V30 7444 C 695.991 2.60001 -4.52986 0
M  V30 7445 H 697.685 1.24283 -2.72386 0
M  V30 7446 H 695.231 0.596445 -1.31067 0
M  V30 7447 H 697.184 3.61496 -2.16561 0
M  V30 7448 H 695.908 3.09738 -1.03585 0
M  V30 7449 H 694.567 2.16886 -2.9556 0
M  V30 7450 H 694.215 4.52545 -2.19573 0
M  V30 7451 H 693.915 4.3561 -3.94357 0
M  V30 7452 H 695.439 5.09154 -3.37038 0
M  V30 7453 H 696.853 3.261 -4.71521 0
M  V30 7454 H 695.25 2.76081 -5.32822 0
M  V30 7455 H 696.32 1.5532 -4.59351 0
M  V30 7456 N 697.663 1.43903 0.642637 0
M  V30 7457 C 698.888 1.49758 1.43483 0
M  V30 7458 C 699.313 0.119911 1.87717 0
M  V30 7459 O 698.671 -0.888558 1.58033 0
M  V30 7460 C 698.719 2.45744 2.63898 0
M  V30 7461 O 697.823 1.95101 3.63331 0
M  V30 7462 H 697.164 0.506138 0.429791 0
M  V30 7463 H 699.694 1.88923 0.785438 0
M  V30 7464 H 699.704 2.63399 3.11584 0
M  V30 7465 H 698.379 3.45818 2.31046 0
M  V30 7466 H 696.956 1.87158 3.22531 0
M  V30 7467 N 699.141 -0.881989 1.30609 0
M  V30 7468 C 700.073 -1.99375 1.13058 0
M  V30 7469 C 701.086 -1.62636 0.0729879 0
M  V30 7470 O 702.275 -1.75621 0.319301 0
M  V30 7471 C 699.375 -3.31536 0.702651 0
M  V30 7472 C 698.548 -3.96693 1.84265 0
M  V30 7473 C 697.607 -5.07158 1.40277 0
M  V30 7474 O 696.633 -5.28628 2.11048 0
M  V30 7475 N 697.835 -5.79808 0.283449 0
M  V30 7476 H 700.6 -2.14981 2.08814 0
M  V30 7477 H 698.161 -1.05526 1.22784 0
M  V30 7478 H 700.153 -4.02804 0.391331 0
M  V30 7479 H 698.723 -3.12175 -0.162954 0
M  V30 7480 H 697.943 -3.1856 2.32192 0
M  V30 7481 H 699.231 -4.36964 2.60653 0
M  V30 7482 H 698.629 -5.64871 -0.306189 0
M  V30 7483 H 697.186 -6.51792 0.0315985 0
M  V30 7484 N 700.619 -1.13374 -1.09472 0
M  V30 7485 C 702.035 -0.871846 -1.33682 0
M  V30 7486 C 702.235 0.492847 -1.9538 0
M  V30 7487 O 701.291 1.23946 -2.19985 0
M  V30 7488 C 702.604 -1.99608 -2.24893 0
M  V30 7489 C 704.152 -2.02812 -2.38404 0
M  V30 7490 C 704.627 -3.14497 -3.3295 0
M  V30 7491 N 706.118 -3.14004 -3.40523 0
M  V30 7492 C 706.853 -3.97061 -4.13679 0
M  V30 7493 N 706.349 -4.90131 -4.89636 0
M  V30 7494 N 708.142 -3.85162 -4.09398 0
M  V30 7495 H 700.293 -2.01288 -0.677995 0
M  V30 7496 H 702.556 -0.876492 -0.361201 0
M  V30 7497 H 702.262 -2.98 -1.86786 0
M  V30 7498 H 702.136 -1.90981 -3.25278 0
M  V30 7499 H 704.523 -1.05034 -2.75775 0
M  V30 7500 H 704.604 -2.15511 -1.37799 0
M  V30 7501 H 704.248 -4.12514 -2.96302 0
M  V30 7502 H 704.178 -2.99035 -4.33458 0
M  V30 7503 H 706.669 -2.46587 -2.86362 0
M  V30 7504 H 706.982 -5.49996 -5.42885 0
M  V30 7505 H 705.327 -4.94138 -4.88726 0
M  V30 7506 H 708.518 -3.11779 -3.49158 0
M  V30 7507 H 708.691 -4.5012 -4.6615 0
M  V30 7508 N 702.098 1.27442 -0.927168 0
M  V30 7509 C 703.344 1.95025 -0.577651 0
M  V30 7510 C 703.699 1.71534 0.871421 0
M  V30 7511 O 702.992 1.03354 1.61333 0
M  V30 7512 C 703.186 3.47413 -0.838994 0
M  V30 7513 C 703.015 3.85721 -2.31192 0
M  V30 7514 C 701.785 4.09199 -2.96452 0
M  V30 7515 C 703.983 3.95352 -3.28939 0
M  V30 7516 N 701.965 4.34283 -4.33903 0
M  V30 7517 C 703.336 4.24805 -4.51598 0
M  V30 7518 C 705.391 3.77926 -3.24155 0
M  V30 7519 C 704.094 4.38645 -5.70073 0
M  V30 7520 C 706.12 3.9299 -4.41942 0
M  V30 7521 C 705.482 4.22829 -5.63379 0
M  V30 7522 H 701.581 0.736983 -0.261495 0
M  V30 7523 H 704.165 1.53816 -1.19368 0
M  V30 7524 H 702.336 3.87581 -0.252129 0
M  V30 7525 H 704.068 4.02166 -0.452158 0
M  V30 7526 H 700.823 4.04013 -2.47125 0
M  V30 7527 H 701.247 4.50883 -5.05008 0
M  V30 7528 H 705.889 3.53897 -2.31337 0
M  V30 7529 H 703.607 4.615 -6.63358 0
M  V30 7530 H 707.193 3.80926 -4.39757 0
M  V30 7531 H 706.073 4.34234 -6.53001 0
M  V30 7532 N 703.576 0.692616 1.41565 0
M  V30 7533 C 704.825 0.219452 2.00503 0
M  V30 7534 C 705.138 -1.18683 1.55479 0
M  V30 7535 O 706.344 -1.75731 2.06956 0
M  V30 7536 C 704.8 0.341451 3.58277 0
M  V30 7537 C 704.408 1.75291 4.12283 0
M  V30 7538 C 706.152 -0.0720899 4.24439 0
M  V30 7539 C 704.059 1.82673 5.62481 0
M  V30 7540 H 702.989 0.0782874 0.749925 0
M  V30 7541 H 705.64 0.860386 1.62079 0
M  V30 7542 H 704.022 -0.367683 3.94289 0
M  V30 7543 H 705.196 2.49057 3.87695 0
M  V30 7544 H 703.511 2.11587 3.58636 0
M  V30 7545 H 706.108 -0.0373385 5.34687 0
M  V30 7546 H 706.451 -1.11034 4.0122 0
M  V30 7547 H 706.984 0.586663 3.9345 0
M  V30 7548 H 703.723 2.84539 5.90523 0
M  V30 7549 H 703.243 1.13288 5.89004 0
M  V30 7550 H 704.922 1.58827 6.27203 0
M  V30 7551 N 705.054 -1.51416 0.437162 0
M  V30 7552 C 706.282 -2.06503 -0.128045 0
M  V30 7553 C 706.697 -1.30461 -1.36475 0
M  V30 7554 O 706.054 -0.364127 -1.78831 0
M  V30 7555 C 706.105 -3.58683 -0.450437 0
M  V30 7556 O 705.826 -4.31853 0.737186 0
M  V30 7557 C 707.327 -4.30284 -1.06633 0
M  V30 7558 H 704.547 -0.670952 -0.00800269 0
M  V30 7559 H 707.091 -1.94996 0.616193 0
M  V30 7560 H 705.246 -3.70106 -1.14457 0
M  V30 7561 H 705.66 -5.22467 0.461347 0
M  V30 7562 H 707.134 -5.37848 -1.24191 0
M  V30 7563 H 707.611 -3.88564 -2.0473 0
M  V30 7564 H 708.217 -4.23304 -0.411585 0
M  V30 7565 N 706.532 -0.168513 -1.56696 0
M  V30 7566 C 707.495 0.748928 -2.16619 0
M  V30 7567 C 708.495 1.16007 -1.11351 0
M  V30 7568 O 709.685 1.07748 -1.3688 0
M  V30 7569 C 706.817 2.01904 -2.74677 0
M  V30 7570 H 708.01 0.227317 -2.99037 0
M  V30 7571 H 705.563 0.0810372 -1.5609 0
M  V30 7572 H 706.298 2.58381 -1.95985 0
M  V30 7573 H 706.083 1.73323 -3.51712 0
M  V30 7574 H 707.573 2.67383 -3.20774 0
M  V30 7575 N 708.01 1.57248 0.105221 0
M  V30 7576 C 708.957 2.01338 1.12835 0
M  V30 7577 C 709.927 0.887897 1.40377 0
M  V30 7578 O 711.112 1.15315 1.5201 0
M  V30 7579 C 708.252 2.43432 2.44611 0
M  V30 7580 C 707.365 3.69457 2.23888 0
M  V30 7581 C 706.5 4.00473 3.48991 0
M  V30 7582 C 705.539 5.19638 3.23485 0
M  V30 7583 N 704.676 5.46457 4.40828 0
M  V30 7584 H 709.516 2.88527 0.745386 0
M  V30 7585 H 707.053 1.42714 0.356535 0
M  V30 7586 H 709.011 2.65879 3.21503 0
M  V30 7587 H 707.641 1.59266 2.80774 0
M  V30 7588 H 706.693 3.54545 1.37847 0
M  V30 7589 H 708.005 4.56497 2.01026 0
M  V30 7590 H 707.159 4.23642 4.34295 0
M  V30 7591 H 705.898 3.11935 3.74897 0
M  V30 7592 H 704.903 4.96299 2.36574 0
M  V30 7593 H 706.128 6.09766 2.98935 0
M  V30 7594 H 704.074 4.60876 4.66829 0
M  V30 7595 H 703.991 6.27849 4.2112 0
M  V30 7596 H 705.259 5.74155 5.27225 0
M  V30 7597 N 709.488 -0.375779 1.53054 0
M  V30 7598 C 710.398 -1.48381 1.81715 0
M  V30 7599 C 711.414 -1.59087 0.704795 0
M  V30 7600 O 712.59 -1.75174 0.993785 0
M  V30 7601 C 709.655 -2.83767 1.99192 0
M  V30 7602 C 708.716 -2.82673 3.23102 0
M  V30 7603 C 707.949 -4.11601 3.39736 0
M  V30 7604 O 708.172 -5.07243 2.60885 0
M  V30 7605 O 707.106 -4.18034 4.33049 0
M  V30 7606 H 710.932 -1.27089 2.7583 0
M  V30 7607 H 708.517 -0.564902 1.38308 0
M  V30 7608 H 710.399 -3.64004 2.12318 0
M  V30 7609 H 709.074 -3.05057 1.08267 0
M  V30 7610 H 707.981 -2.0117 3.15407 0
M  V30 7611 H 709.314 -2.66335 4.13916 0
M  V30 7612 N 710.966 -1.44241 -0.634997 0
M  V30 7613 C 712.243 -1.37296 -1.39317 0
M  V30 7614 C 712.623 -0.0297532 -2.11079 0
M  V30 7615 O 711.971 0.987524 -2.06059 0
M  V30 7616 C 712.181 -2.56853 -2.36279 0
M  V30 7617 C 713.529 -3.00747 -2.99728 0
M  V30 7618 O 714.553 -2.5703 -2.46605 0
M  V30 7619 O 713.412 -3.76533 -3.96087 0
M  V30 7620 H 710.506 -0.543503 -0.623325 0
M  V30 7621 H 713.052 -1.56324 -0.660376 0
M  V30 7622 H 711.824 -3.46228 -1.82324 0
M  V30 7623 H 711.447 -2.40019 -3.16981 0
M  V30 7624 N 712.444 0.87505 -1.31075 0
M  V30 7625 C 713.721 1.60976 -1.11113 0
M  V30 7626 C 714.101 2.08409 0.336006 0
M  V30 7627 O 713.449 1.85858 1.32924 0
M  V30 7628 C 713.659 2.77166 -2.12085 0
M  V30 7629 C 715.007 3.47254 -2.44335 0
M  V30 7630 O 716.031 2.87367 -2.10472 0
M  V30 7631 O 714.89 4.55276 -3.02301 0
M  V30 7632 H 711.984 0.707982 -0.427424 0
M  V30 7633 H 714.53 0.920957 -1.42536 0
M  V30 7634 H 713.302 2.39494 -3.09449 0
M  V30 7635 H 712.925 3.53737 -1.81538 0
M  V30 7636 N 713.922 1.13953 1.08869 0
M  V30 7637 C 714.852 0.844824 2.17681 0
M  V30 7638 C 715.833 -0.198213 1.68941 0
M  V30 7639 O 717.018 -0.0559073 1.9412 0
M  V30 7640 C 714.148 0.316325 3.45856 0
M  V30 7641 C 713.102 1.29426 4.07962 0
M  V30 7642 C 712.428 0.625275 5.31031 0
M  V30 7643 C 713.728 2.65484 4.49795 0
M  V30 7644 H 715.422 1.75471 2.42591 0
M  V30 7645 H 712.968 0.845116 1.16592 0
M  V30 7646 H 714.921 0.0977876 4.21287 0
M  V30 7647 H 713.645 -0.628972 3.20486 0
M  V30 7648 H 712.304 1.49889 3.34558 0
M  V30 7649 H 711.952 -0.325678 5.01945 0
M  V30 7650 H 711.652 1.27777 5.73539 0
M  V30 7651 H 713.176 0.416152 6.0918 0
M  V30 7652 H 714.59 2.48957 5.16424 0
M  V30 7653 H 712.987 3.26963 5.03205 0
M  V30 7654 H 714.057 3.22717 3.61914 0
M  V30 7655 N 715.4 -1.26948 0.933913 0
M  V30 7656 C 716.348 -2.2862 0.428463 0
M  V30 7657 C 717.342 -1.62144 -0.490464 0
M  V30 7658 O 718.548 -1.76167 -0.36948 0
M  V30 7659 H 714.923 -0.742363 0.120003 0
M  V30 7660 H 716.894 -2.68659 1.29865 0
M  V30 7661 C 715.643 -3.46423 -0.29774 0
M  V30 7662 H 714.966 -3.97792 0.400183 0
M  V30 7663 H 716.406 -4.19505 -0.615736 0
M  V30 7664 C 714.865 -3.01017 -1.51295 0
M  V30 7665 O 715.395 -3.05226 -2.61151 0
M  V30 7666 N 713.601 -2.56442 -1.36696 0
M  V30 7667 H 713.148 -2.53217 -0.473178 0
M  V30 7668 H 713.106 -2.26424 -2.18127 0
M  V30 7669 N 716.879 -0.700114 -1.41195 0
M  V30 7670 C 718.104 -0.240704 -2.05998 0
M  V30 7671 C 718.529 1.10313 -1.52357 0
M  V30 7672 O 717.887 1.69154 -0.652424 0
M  V30 7673 C 717.935 -0.213783 -3.59966 0
M  V30 7674 O 717.039 0.809933 -4.04368 0
M  V30 7675 H 716.38 -0.116471 -0.653705 0
M  V30 7676 H 718.91 -0.956251 -1.80878 0
M  V30 7677 H 718.92 -0.0461852 -4.07974 0
M  V30 7678 H 717.595 -1.19454 -3.98376 0
M  V30 7679 H 716.172 0.611319 -3.67855 0
M  V30 7680 N 718.357 1.51182 -0.445186 0
M  V30 7681 C 719.604 2.02152 0.118645 0
M  V30 7682 C 719.932 1.32888 1.42025 0
M  V30 7683 O 719.187 0.435041 1.90803 0
M  V30 7684 C 719.486 3.55408 0.376797 0
M  V30 7685 C 719.152 4.43008 -0.839945 0
M  V30 7686 C 717.814 4.66669 -1.17361 0
M  V30 7687 C 720.166 4.9435 -1.65127 0
M  V30 7688 C 717.494 5.38919 -2.31913 0
M  V30 7689 C 719.846 5.67857 -2.78786 0
M  V30 7690 C 718.51 5.89779 -3.12597 0
M  V30 7691 H 717.78 0.739727 0.0434152 0
M  V30 7692 H 720.427 1.82055 -0.593984 0
M  V30 7693 H 718.732 3.73879 1.1714 0
M  V30 7694 H 720.429 3.92388 0.826602 0
M  V30 7695 H 717.019 4.24793 -0.569958 0
M  V30 7696 H 721.203 4.75947 -1.4067 0
M  V30 7697 H 716.459 5.54105 -2.58413 0
M  V30 7698 H 720.633 6.06628 -3.42017 0
M  V30 7699 H 718.26 6.45542 -4.01471 0
M  V30 7700 N 719.835 0.176821 1.56605 0
M  V30 7701 C 720.783 -0.768159 2.1955 0
M  V30 7702 C 721.777 -1.23343 1.16116 0
M  V30 7703 O 722.983 -1.19844 1.34303 0
M  V30 7704 H 719.358 -0.266013 0.703378 0
M  V30 7705 H 721.329 -0.213374 2.97636 0
M  V30 7706 C 720.078 -1.98492 2.85475 0
M  V30 7707 H 719.401 -1.63595 3.64797 0
M  V30 7708 H 720.841 -2.62489 3.3298 0
M  V30 7709 C 719.3 -2.81207 1.85538 0
M  V30 7710 O 719.83 -3.7854 1.34427 0
M  V30 7711 N 718.036 -2.46331 1.54173 0
M  V30 7712 H 717.583 -1.67241 1.95929 0
M  V30 7713 H 717.541 -3.01961 0.875595 0
M  V30 7714 N 721.313 -1.57302 -0.09688 0
M  V30 7715 C 722.276 -2.00976 -1.10188 0
M  V30 7716 C 723.276 -0.903009 -1.3305 0
M  V30 7717 O 724.466 -1.16853 -1.29194 0
M  V30 7718 C 721.598 -2.36893 -2.45142 0
M  V30 7719 H 722.791 -2.9098 -0.726003 0
M  V30 7720 H 720.344 -1.52515 -0.341872 0
M  V30 7721 H 721.079 -1.49837 -2.8761 0
M  V30 7722 H 720.864 -3.17632 -2.29897 0
M  V30 7723 H 722.354 -2.71345 -3.1743 0
M  V30 7724 N 722.791 0.367657 -1.53252 0
M  V30 7725 C 724.019 1.13119 -1.73239 0
M  V30 7726 C 724.434 1.831 -0.460404 0
M  V30 7727 O 723.791 1.73483 0.566557 0
M  V30 7728 C 723.842 2.16308 -2.89643 0
M  V30 7729 O 723.563 1.49175 -4.1192 0
M  V30 7730 C 725.064 3.05224 -3.21486 0
M  V30 7731 H 722.284 0.338318 -0.579467 0
M  V30 7732 H 724.828 0.42721 -1.99988 0
M  V30 7733 H 722.983 2.82307 -2.65295 0
M  V30 7734 H 723.397 2.17912 -4.7709 0
M  V30 7735 H 724.871 3.73613 -4.06346 0
M  V30 7736 H 725.348 3.69919 -2.36763 0
M  V30 7737 H 725.954 2.44843 -3.47753 0
M  V30 7738 N 724.269 1.44576 0.627338 0
M  V30 7739 C 725.546 1.38033 1.38586 0
M  V30 7740 C 725.926 0.0409468 2.1106 0
M  V30 7741 O 725.274 -0.976582 2.0658 0
M  V30 7742 C 725.484 2.58102 2.34913 0
M  V30 7743 C 726.832 3.02332 2.98129 0
M  V30 7744 O 727.856 2.58334 2.45238 0
M  V30 7745 O 726.715 3.78628 3.94085 0
M  V30 7746 H 723.809 0.546801 0.620434 0
M  V30 7747 H 726.355 1.56672 0.652077 0
M  V30 7748 H 725.127 3.4719 1.80485 0
M  V30 7749 H 724.75 2.41696 3.15703 0
M  V30 7750 N 725.747 -0.868086 1.31537 0
M  V30 7751 C 726.677 -1.99131 1.21939 0
M  V30 7752 C 727.658 -1.69768 0.106166 0
M  V30 7753 O 728.843 -1.92006 0.291081 0
M  V30 7754 C 725.973 -3.34676 0.927879 0
M  V30 7755 C 724.927 -3.7835 2.00088 0
M  V30 7756 C 724.253 -5.11375 1.56203 0
M  V30 7757 C 725.553 -3.95256 3.41424 0
M  V30 7758 H 727.247 -2.07419 2.15911 0
M  V30 7759 H 724.793 -0.996569 1.03945 0
M  V30 7760 H 726.746 -4.12793 0.847327 0
M  V30 7761 H 725.47 -3.26565 -0.0475042 0
M  V30 7762 H 724.129 -3.02474 2.07135 0
M  V30 7763 H 723.777 -4.99709 0.57445 0
M  V30 7764 H 723.477 -5.41568 2.27985 0
M  V30 7765 H 725.001 -5.92001 1.49558 0
M  V30 7766 H 726.415 -4.63764 3.3704 0
M  V30 7767 H 724.812 -4.36849 4.1144 0
M  V30 7768 H 725.882 -2.98579 3.82072 0
M  V30 7769 N 727.225 -1.14528 -1.08264 0
M  V30 7770 C 728.172 -0.833556 -2.15222 0
M  V30 7771 C 729.142 0.209539 -1.64773 0
M  V30 7772 O 730.327 0.0791388 -1.90636 0
M  V30 7773 C 727.467 -0.318799 -3.43624 0
M  V30 7774 C 726.58 -1.42237 -4.07913 0
M  V30 7775 C 725.715 -0.864704 -5.24115 0
M  V30 7776 C 724.754 -1.94585 -5.80347 0
M  V30 7777 N 723.891 -1.40525 -6.87893 0
M  V30 7778 H 728.731 -1.74965 -2.41228 0
M  V30 7779 H 726.268 -0.873169 -1.18381 0
M  V30 7780 H 728.226 -0.00213088 -4.172 0
M  V30 7781 H 726.856 0.560397 -3.17898 0
M  V30 7782 H 725.908 -1.8554 -3.32083 0
M  V30 7783 H 727.22 -2.23901 -4.45724 0
M  V30 7784 H 726.374 -0.500025 -6.04636 0
M  V30 7785 H 725.113 -0.0171219 -4.87697 0
M  V30 7786 H 724.118 -2.31946 -4.98479 0
M  V30 7787 H 725.343 -2.79704 -6.18823 0
M  V30 7788 H 723.289 -0.579873 -6.53432 0
M  V30 7789 H 723.206 -2.15825 -7.24538 0
M  V30 7790 H 724.474 -1.06852 -7.72142 0
M  V30 7791 N 728.703 1.26451 -0.940633 0
M  V30 7792 C 729.98 1.88947 -0.505811 0
M  V30 7793 C 730.36 1.85011 1.01657 0
M  V30 7794 O 729.708 1.30406 1.87634 0
M  V30 7795 C 729.918 3.32304 -1.06654 0
M  V30 7796 C 731.266 4.09153 -1.13486 0
M  V30 7797 O 732.29 3.41371 -1.01708 0
M  V30 7798 O 731.149 5.30369 -1.31797 0
M  V30 7799 H 728.243 0.810422 -0.164759 0
M  V30 7800 H 730.789 1.34625 -1.03316 0
M  V30 7801 H 729.561 3.29527 -2.11015 0
M  V30 7802 H 729.184 3.94164 -0.521603 0
M  V30 7803 N 730.181 0.707592 1.40822 0
M  V30 7804 C 731.111 0.0644925 2.33411 0
M  V30 7805 C 732.092 -0.754205 1.52466 0
M  V30 7806 O 733.277 -0.704749 1.80961 0
M  V30 7807 C 730.407 -0.863865 3.36385 0
M  V30 7808 C 729.361 -0.15138 4.27732 0
M  V30 7809 C 728.687 -1.19491 5.21177 0
M  V30 7810 C 729.987 0.989607 5.12839 0
M  V30 7811 H 731.681 0.837829 2.87438 0
M  V30 7812 H 729.227 0.404346 1.38207 0
M  V30 7813 H 731.18 -1.32309 4.0009 0
M  V30 7814 H 729.904 -1.66901 2.80734 0
M  V30 7815 H 728.563 0.287937 3.65467 0
M  V30 7816 H 728.211 -1.9929 4.61836 0
M  V30 7817 H 727.911 -0.723123 5.83134 0
M  V30 7818 H 729.435 -1.6544 5.8776 0
M  V30 7819 H 730.849 0.610114 5.70044 0
M  V30 7820 H 729.246 1.38926 5.83798 0
M  V30 7821 H 730.316 1.82389 4.49291 0
M  V30 7822 N 731.66 -1.50943 0.453197 0
M  V30 7823 C 732.885 -2.07116 -0.108463 0
M  V30 7824 C 733.31 -1.31681 -1.3432 0
M  V30 7825 O 732.668 -0.359256 -1.77705 0
M  V30 7826 C 732.716 -3.58447 -0.393424 0
M  V30 7827 O 731.82 -3.85038 -1.47714 0
M  V30 7828 H 731.161 -0.66398 0.0050993 0
M  V30 7829 H 733.691 -1.94362 0.639095 0
M  V30 7830 H 733.701 -4.02961 -0.639222 0
M  V30 7831 H 732.376 -4.12774 0.508946 0
M  V30 7832 H 730.953 -3.52376 -1.22006 0
M  V30 7833 N 733.138 -0.185124 -1.56509 0
M  V30 7834 C 734.363 0.465278 -2.02114 0
M  V30 7835 C 734.788 1.55083 -1.06447 0
M  V30 7836 O 734.146 1.81241 -0.0462852 0
M  V30 7837 C 734.194 1.00784 -3.46229 0
M  V30 7838 O 733.298 2.12123 -3.53663 0
M  V30 7839 H 732.639 0.109891 -0.654843 0
M  V30 7840 H 735.169 -0.293072 -2.0249 0
M  V30 7841 H 735.179 1.32697 -3.85818 0
M  V30 7842 H 733.854 0.213113 -4.15354 0
M  V30 7843 H 732.431 1.8115 -3.25943 0
M  V30 7844 N 734.616 1.57351 0.0885366 0
M  V30 7845 C 735.566 1.98963 1.11346 0
M  V30 7846 C 736.55 0.869065 1.35411 0
M  V30 7847 O 737.742 1.13292 1.35992 0
M  V30 7848 C 734.871 2.4231 2.43189 0
M  V30 7849 C 733.957 3.61065 2.22469 0
M  V30 7850 N 734.348 4.75789 1.71635 0
M  V30 7851 C 732.646 3.6729 2.5301 0
M  V30 7852 C 733.347 5.57708 1.65339 0
M  V30 7853 N 732.323 5.01067 2.1079 0
M  V30 7854 H 736.125 2.85109 0.713465 0
M  V30 7855 H 733.639 1.59682 0.295868 0
M  V30 7856 H 735.636 2.70352 3.17357 0
M  V30 7857 H 734.296 1.57544 2.83919 0
M  V30 7858 H 735.307 4.98411 1.40738 0
M  V30 7859 H 731.984 2.932 2.9722 0
M  V30 7860 H 733.374 6.59782 1.27031 0
M  V30 7861 N 736.094 -0.359525 1.53444 0
M  V30 7862 C 737.026 -1.46098 1.76602 0
M  V30 7863 C 738.039 -1.49395 0.646912 0
M  V30 7864 O 739.228 -1.52765 0.923307 0
M  V30 7865 C 736.328 -2.84836 1.83635 0
M  V30 7866 C 735.501 -3.05164 3.13358 0
M  V30 7867 C 734.56 -4.24051 3.11556 0
M  V30 7868 O 733.586 -4.18935 3.85334 0
M  V30 7869 N 734.788 -5.31775 2.328 0
M  V30 7870 H 737.553 -1.2661 2.71643 0
M  V30 7871 H 735.114 -0.549294 1.52297 0
M  V30 7872 H 737.106 -3.62516 1.799 0
M  V30 7873 H 735.676 -2.97542 0.958509 0
M  V30 7874 H 734.896 -2.15091 3.30348 0
M  V30 7875 H 736.184 -3.15619 3.99076 0
M  V30 7876 H 735.582 -5.38796 1.7238 0
M  V30 7877 H 734.139 -6.0801 2.34877 0
M  V30 7878 N 737.572 -1.44907 -0.619662 0
M  V30 7879 C 738.502 -1.55488 -1.742 0
M  V30 7880 C 739.483 -0.407143 -1.65156 0
M  V30 7881 O 740.668 -0.628743 -1.8374 0
M  V30 7882 C 737.798 -1.5097 -3.1277 0
M  V30 7883 C 736.752 -2.64337 -3.36615 0
M  V30 7884 C 736.078 -2.44872 -4.75333 0
M  V30 7885 C 737.378 -4.06423 -3.28051 0
M  V30 7886 H 739.072 -2.49432 -1.65602 0
M  V30 7887 H 736.618 -1.20047 -0.795281 0
M  V30 7888 H 738.571 -1.56971 -3.91073 0
M  V30 7889 H 737.295 -0.535486 -3.2218 0
M  V30 7890 H 735.954 -2.57744 -2.60698 0
M  V30 7891 H 735.602 -1.45617 -4.81461 0
M  V30 7892 H 735.302 -3.20888 -4.92244 0
M  V30 7893 H 736.826 -2.52709 -5.55851 0
M  V30 7894 H 738.24 -4.14324 -3.96243 0
M  V30 7895 H 736.637 -4.82733 -3.56495 0
M  V30 7896 H 737.707 -4.29183 -2.25676 0
M  V30 7897 N 739.05 0.861098 -1.31996 0
M  V30 7898 C 739.998 1.99052 -1.20337 0
M  V30 7899 C 740.992 1.69045 -0.109623 0
M  V30 7900 O 742.198 1.77931 -0.272117 0
M  V30 7901 H 738.573 0.653064 -0.372843 0
M  V30 7902 H 740.544 2.06015 -2.15872 0
M  V30 7903 C 739.293 3.34846 -0.936663 0
M  V30 7904 H 738.616 3.58462 -1.77045 0
M  V30 7905 H 740.056 4.1444 -0.895302 0
M  V30 7906 C 738.515 3.34965 0.360607 0
M  V30 7907 O 739.045 3.7745 1.37456 0
M  V30 7908 N 737.251 2.88101 0.380296 0
M  V30 7909 H 736.798 2.53721 -0.445351 0
M  V30 7910 H 736.756 2.88563 1.24816 0
M  V30 7911 N 740.528 1.15101 1.07655 0
M  V30 7912 C 741.438 0.858869 2.18313 0
M  V30 7913 C 742.454 -0.163641 1.73229 0
M  V30 7914 O 743.63 0.00969541 2.01398 0
M  V30 7915 C 740.695 0.34893 3.4494 0
M  V30 7916 C 739.756 1.43495 4.04608 0
M  V30 7917 C 738.989 0.949253 5.2519 0
M  V30 7918 O 739.212 -0.20636 5.70027 0
M  V30 7919 O 738.146 1.73161 5.76454 0
M  V30 7920 H 741.972 1.78386 2.45788 0
M  V30 7921 H 739.557 0.929876 1.16934 0
M  V30 7922 H 741.439 0.070851 4.2134 0
M  V30 7923 H 740.114 -0.548237 3.19024 0
M  V30 7924 H 739.021 1.7666 3.29761 0
M  V30 7925 H 740.354 2.30692 4.3479 0
M  V30 7926 N 742.006 -1.2595 0.947325 0
M  V30 7927 C 743.253 -1.93463 0.598178 0
M  V30 7928 C 743.581 -1.74271 -0.863705 0
M  V30 7929 O 742.836 -1.07684 -1.63409 0
M  V30 7930 C 743.135 -3.46034 0.894158 0
M  V30 7931 C 742.801 -3.85373 2.3409 0
M  V30 7932 C 741.463 -3.95823 2.73637 0
M  V30 7933 C 743.815 -4.04986 3.2808 0
M  V30 7934 C 741.143 -4.23288 4.06257 0
M  V30 7935 C 743.495 -4.3394 4.60303 0
M  V30 7936 C 742.159 -4.42606 4.99656 0
M  V30 7937 H 741.429 -0.707933 0.218889 0
M  V30 7938 H 744.076 -1.4964 1.19499 0
M  V30 7939 H 742.381 -3.9121 0.214874 0
M  V30 7940 H 744.078 -3.96445 0.602698 0
M  V30 7941 H 740.668 -3.7779 2.02417 0
M  V30 7942 H 744.852 -3.96333 2.9872 0
M  V30 7943 H 740.108 -4.28211 4.36401 0
M  V30 7944 H 744.282 -4.48061 5.33118 0
M  V30 7945 H 741.909 -4.63641 6.02446 0
M  V30 7946 N 743.484 -0.715051 -1.40445 0
M  V30 7947 C 744.414 -0.0768699 -2.33373 0
M  V30 7948 C 745.395 0.746109 -1.52863 0
M  V30 7949 O 746.58 0.695142 -1.81332 0
M  V30 7950 C 743.71 0.846014 -3.36838 0
M  V30 7951 C 742.664 0.128694 -4.27806 0
M  V30 7952 C 741.99 1.16726 -5.21804 0
M  V30 7953 C 743.29 -1.01679 -5.12307 0
M  V30 7954 H 744.984 -0.853061 -2.8699 0
M  V30 7955 H 742.53 -0.41167 -1.3799 0
M  V30 7956 H 744.483 1.30185 -4.00786 0
M  V30 7957 H 743.207 1.6541 -2.81615 0
M  V30 7958 H 741.866 -0.307314 -3.6531 0
M  V30 7959 H 741.514 1.96838 -4.62887 0
M  V30 7960 H 741.214 0.692188 -5.83509 0
M  V30 7961 H 742.738 1.62321 -5.88629 0
M  V30 7962 H 744.152 -0.640337 -5.69713 0
M  V30 7963 H 742.549 -1.4202 -5.83053 0
M  V30 7964 H 743.619 -1.84769 -4.48317 0
M  V30 7965 N 744.962 1.50701 -0.461195 0
M  V30 7966 C 745.925 2.2686 0.326679 0
M  V30 7967 C 746.925 1.31243 0.929085 0
M  V30 7968 O 748.115 1.54754 0.799807 0
M  V30 7969 C 745.247 3.07844 1.46441 0
M  V30 7970 H 746.44 2.97954 -0.341095 0
M  V30 7971 H 743.993 1.54814 -0.214984 0
M  V30 7972 H 744.728 2.41223 2.16753 0
M  V30 7973 H 744.513 3.78101 1.03836 0
M  V30 7974 H 746.003 3.65469 2.02044 0
M  V30 7975 N 746.441 0.193421 1.56409 0
M  V30 7976 C 747.373 -0.759944 2.16235 0
M  V30 7977 C 748.386 -1.17797 1.12373 0
M  V30 7978 O 749.575 -1.11399 1.39472 0
M  V30 7979 C 746.675 -2.03735 2.70823 0
M  V30 7980 C 745.848 -1.77939 3.9957 0
M  V30 7981 C 744.907 -2.90111 4.39001 0
M  V30 7982 O 743.933 -2.59791 5.06456 0
M  V30 7983 N 745.135 -4.18426 4.02368 0
M  V30 7984 H 747.9 -0.248348 2.98669 0
M  V30 7985 H 745.461 0.0113966 1.61896 0
M  V30 7986 H 747.453 -2.77914 2.94187 0
M  V30 7987 H 746.023 -2.46022 1.92852 0
M  V30 7988 H 745.243 -0.875491 3.84355 0
M  V30 7989 H 746.531 -1.58099 4.83614 0
M  V30 7990 H 745.929 -4.45913 3.48106 0
M  V30 7991 H 744.486 -4.89237 4.30686 0
M  V30 7992 N 747.919 -1.57396 -0.0801906 0
M  V30 7993 C 749.147 -1.91055 -0.794075 0
M  V30 7994 C 749.562 -0.788583 -1.71542 0
M  V30 7995 O 748.919 0.238587 -1.80934 0
M  V30 7996 C 748.97 -3.24418 -1.59484 0
M  V30 7997 O 748.691 -4.323 -0.710532 0
M  V30 7998 C 750.192 -3.72037 -2.41046 0
M  V30 7999 H 747.412 -0.63171 -0.226238 0
M  V30 8000 H 749.956 -2.04431 -0.0529685 0
M  V30 8001 H 748.111 -3.12595 -2.2883 0
M  V30 8002 H 748.525 -5.08976 -1.26663 0
M  V30 8003 H 749.999 -4.68006 -2.92702 0
M  V30 8004 H 750.476 -3.00624 -3.2019 0
M  V30 8005 H 751.082 -3.86777 -1.76871 0
M  V30 8006 N 749.397 0.351382 -1.53633 0
M  V30 8007 C 750.327 1.43688 -1.84055 0
M  V30 8008 C 751.308 1.55251 -0.695073 0
M  V30 8009 O 752.493 1.69587 -0.946257 0
M  V30 8010 C 749.623 2.80843 -2.04315 0
M  V30 8011 C 748.577 2.84094 -3.20117 0
M  V30 8012 C 747.903 4.2406 -3.25696 0
M  V30 8013 C 749.203 2.50334 -4.58399 0
M  V30 8014 H 750.897 1.18478 -2.74961 0
M  V30 8015 H 748.443 0.568509 -1.32303 0
M  V30 8016 H 750.396 3.56821 -2.2418 0
M  V30 8017 H 749.12 3.07471 -1.10132 0
M  V30 8018 H 747.779 2.10568 -3.00094 0
M  V30 8019 H 747.427 4.47785 -2.29123 0
M  V30 8020 H 747.127 4.27147 -4.03509 0
M  V30 8021 H 748.651 5.0189 -3.47762 0
M  V30 8022 H 750.065 3.16025 -4.78332 0
M  V30 8023 H 748.462 2.64717 -5.38558 0
M  V30 8024 H 749.532 1.45542 -4.62543 0
M  V30 8025 N 750.875 1.45233 0.611969 0
M  V30 8026 C 751.807 1.49575 1.73666 0
M  V30 8027 C 752.82 0.386987 1.58134 0
M  V30 8028 O 754.009 0.653804 1.66095 0
M  V30 8029 C 751.109 1.33223 3.11617 0
M  V30 8030 C 750.282 2.57694 3.5343 0
M  V30 8031 C 749.341 2.35962 4.70328 0
M  V30 8032 O 748.367 3.09553 4.77667 0
M  V30 8033 N 749.569 1.40243 5.63305 0
M  V30 8034 H 752.334 2.46539 1.70407 0
M  V30 8035 H 749.895 1.40917 0.79712 0
M  V30 8036 H 751.887 1.16502 3.87569 0
M  V30 8037 H 750.457 0.44551 3.09409 0
M  V30 8038 H 749.677 2.8956 2.67486 0
M  V30 8039 H 750.965 3.40441 3.78124 0
M  V30 8040 H 750.363 0.795023 5.60086 0
M  V30 8041 H 748.92 1.29496 6.38807 0
M  V30 8042 N 752.353 -0.854086 1.3245 0
M  V30 8043 C 753.769 -1.14238 1.11453 0
M  V30 8044 C 753.969 -2.01228 -0.10461 0
M  V30 8045 O 753.025 -2.39845 -0.789339 0
M  V30 8046 C 754.338 -1.81916 2.39431 0
M  V30 8047 C 755.886 -1.94549 2.45193 0
M  V30 8048 C 756.361 -2.65642 3.73093 0
M  V30 8049 N 757.852 -2.73167 3.74078 0
M  V30 8050 C 758.587 -3.28828 4.69744 0
M  V30 8051 N 758.083 -3.85295 5.75778 0
M  V30 8052 N 759.876 -3.26936 4.57241 0
M  V30 8053 H 752.027 -0.274786 2.10615 0
M  V30 8054 H 754.29 -0.184375 0.929898 0
M  V30 8055 H 753.996 -1.25452 3.28565 0
M  V30 8056 H 753.87 -2.82068 2.50434 0
M  V30 8057 H 756.257 -2.50172 1.56518 0
M  V30 8058 H 756.338 -0.933914 2.38142 0
M  V30 8059 H 755.982 -2.10683 4.62142 0
M  V30 8060 H 755.912 -3.6724 3.77415 0
M  V30 8061 H 758.403 -2.33108 2.97438 0
M  V30 8062 H 758.716 -4.25925 6.44832 0
M  V30 8063 H 757.061 -3.83625 5.79531 0
M  V30 8064 H 760.252 -2.8207 3.7357 0
M  V30 8065 H 760.425 -3.70014 5.31971 0
M  V30 8066 N 753.831 -1.1567 -1.07043 0
M  V30 8067 C 754.794 -0.858906 -2.12498 0
M  V30 8068 C 755.794 0.142735 -1.60165 0
M  V30 8069 O 756.984 -0.0872678 -1.73981 0
M  V30 8070 C 754.116 -0.283021 -3.39723 0
M  V30 8071 H 755.309 -1.79368 -2.40348 0
M  V30 8072 H 752.862 -0.964608 -1.22984 0
M  V30 8073 H 753.597 0.659796 -3.17517 0
M  V30 8074 H 753.382 -1.00467 -3.7901 0
M  V30 8075 H 754.872 -0.0923543 -4.17498 0
M  V30 8076 N 755.309 1.25446 -0.953992 0
M  V30 8077 C 756.72 1.75047 -0.649255 0
M  V30 8078 C 757.071 1.77527 0.835385 0
M  V30 8079 O 756.196 1.39569 1.65377 0
M  V30 8080 C 756.791 3.17889 -1.17183 0
M  V30 8081 C 755.35 3.65052 -0.917267 0
M  V30 8082 C 754.497 2.44124 -1.31525 0
M  V30 8083 H 757.448 1.11342 -1.13087 0
M  V30 8084 H 757.469 3.76768 -0.531616 0
M  V30 8085 H 756.981 3.16052 -2.25239 0
M  V30 8086 H 755.082 3.72305 0.148354 0
M  V30 8087 H 755.195 4.53222 -1.55328 0
M  V30 8088 H 753.559 2.43906 -0.733624 0
M  V30 8089 H 754.342 2.44979 -2.405 0
M  V30 8090 N 756.787 0.722489 1.40064 0
M  V30 8091 C 757.717 0.0892452 2.33329 0
M  V30 8092 C 758.698 -0.737992 1.53257 0
M  V30 8093 O 759.883 -0.685516 1.81698 0
M  V30 8094 C 757.013 -0.828139 3.37282 0
M  V30 8095 C 755.967 -0.106005 4.27869 0
M  V30 8096 C 755.293 -1.13957 5.22415 0
M  V30 8097 C 756.593 1.04395 5.11761 0
M  V30 8098 H 758.287 0.868269 2.86534 0
M  V30 8099 H 755.833 0.418982 1.3777 0
M  V30 8100 H 757.786 -1.28058 4.01471 0
M  V30 8101 H 756.51 -1.63914 2.82489 0
M  V30 8102 H 755.169 0.326683 3.65142 0
M  V30 8103 H 754.817 -1.9438 4.63924 0
M  V30 8104 H 754.517 -0.661233 5.83868 0
M  V30 8105 H 756.041 -1.59197 5.89482 0
M  V30 8106 H 757.455 0.670541 5.69365 0
M  V30 8107 H 755.852 1.4511 5.82291 0
M  V30 8108 H 756.922 1.87144 4.47331 0
M  V30 8109 N 758.265 -1.50454 0.469181 0
M  V30 8110 C 759.676 -1.86695 0.0136034 0
M  V30 8111 C 760.027 -1.38413 -1.39055 0
M  V30 8112 O 759.152 -0.748294 -2.03051 0
M  V30 8113 C 759.747 -3.38795 0.0179098 0
M  V30 8114 C 758.306 -3.74455 -0.382191 0
M  V30 8115 C 757.453 -2.74338 0.404207 0
M  V30 8116 H 760.404 -1.43225 0.683547 0
M  V30 8117 H 760.425 -3.72321 -0.78468 0
M  V30 8118 H 759.937 -3.73906 1.04 0
M  V30 8119 H 758.038 -3.44944 -1.4087 0
M  V30 8120 H 758.151 -4.79025 -0.084862 0
M  V30 8121 H 756.515 -2.54305 -0.141829 0
M  V30 8122 H 757.298 -3.12293 1.42577 0
M  V30 8123 N 759.743 -0.201713 -1.56304 0
M  V30 8124 C 760.673 0.71155 -2.22394 0
M  V30 8125 C 761.654 1.21625 -1.18917 0
M  V30 8126 O 762.839 1.26388 -1.47444 0
M  V30 8127 C 759.969 1.92837 -2.88845 0
M  V30 8128 C 758.923 1.55831 -3.98623 0
M  V30 8129 C 758.249 2.85228 -4.52271 0
M  V30 8130 C 759.549 0.763249 -5.16693 0
M  V30 8131 H 761.243 0.160573 -2.98969 0
M  V30 8132 H 758.789 0.0757916 -1.438 0
M  V30 8133 H 760.742 2.57253 -3.33764 0
M  V30 8134 H 759.466 2.50398 -2.09686 0
M  V30 8135 H 758.125 0.9377 -3.54405 0
M  V30 8136 H 757.773 3.40893 -3.69866 0
M  V30 8137 H 757.473 2.6121 -5.26349 0
M  V30 8138 H 758.997 3.50622 -4.99897 0
M  V30 8139 H 760.411 1.31066 -5.58117 0
M  V30 8140 H 758.808 0.620935 -5.96879 0
M  V30 8141 H 759.878 -0.234322 -4.84334 0
M  V30 8142 N 761.222 1.57436 0.0718424 0
M  V30 8143 C 762.47 1.86878 0.769484 0
M  V30 8144 C 762.791 0.7937 1.78116 0
M  V30 8145 O 762.061 -0.177642 1.95093 0
M  V30 8146 H 760.641 0.689593 0.287177 0
M  V30 8147 H 763.303 1.94841 0.0479427 0
M  V30 8148 H 762.399 2.84387 1.28572 0
M  V30 8149 N 762.7 -0.34323 1.53817 0
M  V30 8150 C 763.65 -1.42217 1.78208 0
M  V30 8151 C 764.634 -1.4774 0.637304 0
M  V30 8152 O 765.826 -1.52605 0.896705 0
M  V30 8153 C 762.955 -2.79354 1.9954 0
M  V30 8154 C 762.041 -2.78222 3.20084 0
M  V30 8155 N 762.432 -2.46719 4.41547 0
M  V30 8156 C 760.73 -3.09368 3.21259 0
M  V30 8157 C 761.431 -2.53828 5.23399 0
M  V30 8158 N 760.407 -2.89464 4.60121 0
M  V30 8159 H 764.209 -1.16759 2.69712 0
M  V30 8160 H 761.723 -0.551592 1.52746 0
M  V30 8161 H 763.72 -3.57095 2.15148 0
M  V30 8162 H 762.38 -3.05759 1.09278 0
M  V30 8163 H 763.391 -2.19912 4.68891 0
M  V30 8164 H 760.068 -3.40942 2.40966 0
M  V30 8165 H 761.458 -2.32629 6.30344 0
M  V30 8166 N 764.178 -1.45556 -0.604258 0
M  V30 8167 C 765.427 -1.49019 -1.35928 0
M  V30 8168 C 765.74 -0.137409 -1.95117 0
M  V30 8169 O 766.946 -0.0497032 -2.71455 0
M  V30 8170 C 765.402 -2.62477 -2.46239 0
M  V30 8171 C 765.01 -4.04082 -1.93447 0
M  V30 8172 C 766.754 -2.7519 -3.23219 0
M  V30 8173 C 764.661 -5.08917 -3.0126 0
M  V30 8174 H 763.591 -0.554518 -0.510907 0
M  V30 8175 H 766.242 -1.71705 -0.647262 0
M  V30 8176 H 764.624 -2.3308 -3.2014 0
M  V30 8177 H 765.798 -4.43173 -1.26232 0
M  V30 8178 H 764.113 -3.95849 -1.29201 0
M  V30 8179 H 766.71 -3.50683 -4.0364 0
M  V30 8180 H 767.053 -1.81941 -3.74437 0
M  V30 8181 H 767.586 -3.04129 -2.56418 0
M  V30 8182 H 764.325 -6.03886 -2.54955 0
M  V30 8183 H 763.845 -4.74393 -3.67031 0
M  V30 8184 H 765.524 -5.33814 -3.65584 0
M  V30 8185 N 765.656 0.84705 -1.32902 0
M  V30 8186 C 766.603 1.95624 -1.22473 0
M  V30 8187 C 767.573 1.65767 -0.105178 0
M  V30 8188 O 768.758 1.88704 -0.282042 0
M  V30 8189 C 765.898 3.31434 -0.961542 0
M  V30 8190 C 765.011 3.73741 -2.1666 0
M  V30 8191 C 764.146 4.98379 -1.83825 0
M  V30 8192 C 763.185 5.33199 -3.00609 0
M  V30 8193 N 762.322 6.49014 -2.67816 0
M  V30 8194 H 767.162 2.03875 -2.17345 0
M  V30 8195 H 764.699 0.997764 -1.08088 0
M  V30 8196 H 766.657 4.09663 -0.789411 0
M  V30 8197 H 765.287 3.22762 -0.0495938 0
M  V30 8198 H 764.339 2.91102 -2.44875 0
M  V30 8199 H 765.651 3.95462 -3.03993 0
M  V30 8200 H 764.805 5.84336 -1.63208 0
M  V30 8201 H 763.544 4.78611 -0.937172 0
M  V30 8202 H 762.549 4.4575 -3.21849 0
M  V30 8203 H 763.774 5.5492 -3.9146 0
M  V30 8204 H 761.72 6.30748 -1.80258 0
M  V30 8205 H 761.637 6.7079 -3.48679 0
M  V30 8206 H 762.905 7.38103 -2.50647 0
M  V30 8207 N 767.134 1.16236 1.06428 0
M  V30 8208 C 768.55 0.906983 1.31324 0
M  V30 8209 C 768.75 -0.440872 1.96618 0
M  V30 8210 O 767.806 -1.1807 2.23194 0
M  V30 8211 C 769.119 2.05501 2.19522 0
M  V30 8212 C 770.667 2.09061 2.32943 0
M  V30 8213 C 771.142 3.23214 3.24495 0
M  V30 8214 N 772.633 3.22922 3.32078 0
M  V30 8215 C 773.368 4.07889 4.03006 0
M  V30 8216 N 772.864 5.02941 4.76469 0
M  V30 8217 N 774.657 3.95881 3.99043 0
M  V30 8218 H 766.808 2.03015 0.624388 0
M  V30 8219 H 769.071 0.88576 0.337835 0
M  V30 8220 H 768.777 3.02847 1.78819 0
M  V30 8221 H 768.651 1.99538 3.201 0
M  V30 8222 H 771.038 1.12308 2.72893 0
M  V30 8223 H 771.119 2.19089 1.32037 0
M  V30 8224 H 770.763 4.20225 2.85261 0
M  V30 8225 H 770.693 3.10423 4.25377 0
M  V30 8226 H 773.184 2.54093 2.79724 0
M  V30 8227 H 773.497 5.64196 5.28112 0
M  V30 8228 H 771.842 5.06922 4.75453 0
M  V30 8229 H 775.033 3.20927 3.40769 0
M  V30 8230 H 775.206 4.62321 4.54052 0
M  V30 8231 N 768.612 -1.24939 0.960631 0
M  V30 8232 C 769.545 -2.24116 0.429804 0
M  V30 8233 C 770.523 -1.54972 -0.492188 0
M  V30 8234 O 771.707 -1.83642 -0.42519 0
M  V30 8235 C 768.834 -3.36558 -0.380312 0
M  V30 8236 C 767.88 -4.23757 0.482941 0
M  V30 8237 S 768.713 -4.9994 1.91885 0
M  V30 8238 C 769.869 -6.15846 1.11732 0
M  V30 8239 H 770.102 -2.68795 1.27029 0
M  V30 8240 H 767.635 -1.34108 0.765141 0
M  V30 8241 H 769.593 -4.01777 -0.841764 0
M  V30 8242 H 768.254 -2.90451 -1.19569 0
M  V30 8243 H 767.447 -5.03809 -0.138699 0
M  V30 8244 H 767.049 -3.63504 0.879839 0
M  V30 8245 H 769.341 -6.76495 0.368898 0
M  V30 8246 H 770.284 -6.82356 1.89198 0
M  V30 8247 H 770.692 -5.60805 0.644812 0
M  V30 8248 N 770.09 -0.729906 -1.39679 0
M  V30 8249 C 771.022 -0.0470588 -2.29152 0
M  V30 8250 C 772.035 0.708808 -1.4656 0
M  V30 8251 O 773.224 0.553815 -1.69691 0
M  V30 8252 C 770.324 0.957612 -3.25089 0
M  V30 8253 C 769.497 0.264321 -4.36601 0
M  V30 8254 C 768.556 1.17638 -5.12882 0
M  V30 8255 O 767.582 0.655777 -5.6541 0
M  V30 8256 N 768.784 2.50649 -5.23598 0
M  V30 8257 H 771.549 -0.815364 -2.88395 0
M  V30 8258 H 769.11 -0.578707 -1.51204 0
M  V30 8259 H 771.102 1.57026 -3.72995 0
M  V30 8260 H 769.672 1.62716 -2.66912 0
M  V30 8261 H 768.892 -0.528732 -3.90638 0
M  V30 8262 H 770.18 -0.216344 -5.0834 0
M  V30 8263 H 769.578 2.95427 -4.82431 0
M  V30 8264 H 768.135 3.07022 -5.74961 0
M  V30 8265 N 771.568 1.50203 -0.477153 0
M  V30 8266 C 772.478 2.32421 0.319027 0
M  V30 8267 C 773.494 1.43075 0.990233 0
M  V30 8268 O 774.67 1.76123 0.976873 0
M  V30 8269 C 771.735 3.17909 1.38328 0
M  V30 8270 C 770.796 4.23082 0.728036 0
M  V30 8271 C 770.029 5.04484 1.74158 0
M  V30 8272 O 770.252 4.8705 2.96881 0
M  V30 8273 O 769.186 5.8747 1.31006 0
M  V30 8274 H 773.012 3.01638 -0.353281 0
M  V30 8275 H 770.597 1.47478 -0.238891 0
M  V30 8276 H 772.479 3.70937 1.9996 0
M  V30 8277 H 771.154 2.51413 2.03895 0
M  V30 8278 H 770.061 3.7403 0.07261 0
M  V30 8279 H 771.394 4.92065 0.115216 0
M  V30 8280 N 773.046 0.209999 1.56195 0
M  V30 8281 C 774.292 -0.425442 1.98287 0
M  V30 8282 C 774.625 -1.60232 1.09724 0
M  V30 8283 O 773.9 -1.93902 0.152414 0
M  V30 8284 C 774.183 -0.871189 3.49403 0
M  V30 8285 C 774.036 0.308527 4.48741 0
M  V30 8286 C 775.355 -1.73146 4.04609 0
M  V30 8287 H 772.474 -0.153169 0.720908 0
M  V30 8288 H 775.116 0.303916 1.87554 0
M  V30 8289 H 773.266 -1.49266 3.58681 0
M  V30 8290 H 774.938 0.946487 4.51486 0
M  V30 8291 H 773.181 0.957878 4.23092 0
M  V30 8292 H 773.852 -0.0461143 5.51981 0
M  V30 8293 H 776.328 -1.2072 3.98203 0
M  V30 8294 H 775.204 -2.01228 5.10684 0
M  V30 8295 H 775.465 -2.69083 3.5078 0
M  V30 8296 N 774.524 -1.57472 -0.0634922 0
M  V30 8297 C 775.754 -1.91608 -0.772645 0
M  V30 8298 C 776.162 -0.805019 -1.71219 0
M  V30 8299 O 775.505 0.229941 -1.82255 0
M  V30 8300 C 775.567 -3.21281 -1.61304 0
M  V30 8301 C 775.231 -4.49177 -0.841973 0
M  V30 8302 C 776.228 -5.19661 -0.157494 0
M  V30 8303 C 773.913 -4.9578 -0.80669 0
M  V30 8304 C 775.907 -6.35006 0.551948 0
M  V30 8305 C 773.594 -6.11028 -0.0934812 0
M  V30 8306 C 774.592 -6.80493 0.58463 0
M  V30 8307 O 774.28 -7.93542 1.28633 0
M  V30 8308 H 774.012 -0.637685 -0.224352 0
M  V30 8309 H 776.566 -2.05369 -0.0355279 0
M  V30 8310 H 774.796 -3.03752 -2.39315 0
M  V30 8311 H 776.485 -3.41003 -2.20162 0
M  V30 8312 H 777.251 -4.84681 -0.176006 0
M  V30 8313 H 773.13 -4.41579 -1.32397 0
M  V30 8314 H 776.674 -6.89161 1.0818 0
M  V30 8315 H 772.571 -6.45459 -0.0729258 0
M  V30 8316 H 773.339 -8.09708 1.19646 0
M  V30 8317 N 776.003 0.335068 -1.53997 0
M  V30 8318 C 776.951 1.43206 -1.83289 0
M  V30 8319 C 777.945 1.54081 -0.703953 0
M  V30 8320 O 779.151 1.56603 -0.887432 0
M  V30 8321 H 775.526 0.477655 -0.580818 0
M  V30 8322 H 777.497 1.15719 -2.75049 0
M  V30 8323 C 776.246 2.79602 -2.06683 0
M  V30 8324 H 775.569 2.72004 -2.93008 0
M  V30 8325 H 777.009 3.55459 -2.31139 0
M  V30 8326 C 775.468 3.25873 -0.854883 0
M  V30 8327 O 775.998 4.01657 -0.0584648 0
M  V30 8328 N 774.204 2.82777 -0.669729 0
M  V30 8329 H 773.751 2.21269 -1.31901 0
M  V30 8330 H 773.709 3.1409 0.13969 0
M  V30 8331 N 777.481 1.45874 0.596531 0
M  V30 8332 C 778.728 1.50467 1.35521 0
M  V30 8333 C 779.056 0.150802 1.93915 0
M  V30 8334 O 778.311 -0.851913 1.76184 0
M  V30 8335 C 778.61 2.54034 2.51399 0
M  V30 8336 C 778.276 3.9844 2.11085 0
M  V30 8337 C 776.938 4.37758 1.99804 0
M  V30 8338 C 779.29 4.89209 1.79788 0
M  V30 8339 C 776.618 5.65727 1.55465 0
M  V30 8340 C 778.97 6.17602 1.36931 0
M  V30 8341 C 777.634 6.5584 1.24218 0
M  V30 8342 H 776.904 0.550597 0.495907 0
M  V30 8343 H 779.551 1.79279 0.673145 0
M  V30 8344 H 777.856 2.18832 3.24992 0
M  V30 8345 H 779.553 2.54822 3.09624 0
M  V30 8346 H 776.143 3.67353 2.20794 0
M  V30 8347 H 780.327 4.59562 1.87395 0
M  V30 8348 H 775.583 5.94139 1.44253 0
M  V30 8349 H 779.757 6.87373 1.11764 0
M  V30 8350 H 777.384 7.54897 0.896353 0
M  V30 8351 N 778.959 -0.83999 1.33349 0
M  V30 8352 C 779.907 -1.97113 1.23488 0
M  V30 8353 C 780.901 -1.68849 0.136503 0
M  V30 8354 O 782.107 -1.77476 0.300389 0
M  V30 8355 H 778.482 -0.647049 0.383185 0
M  V30 8356 H 780.453 -2.02554 2.19122 0
M  V30 8357 C 779.202 -3.33314 0.989815 0
M  V30 8358 H 778.525 -3.556 1.82726 0
M  V30 8359 H 779.965 -4.12963 0.961123 0
M  V30 8360 C 778.424 -3.35496 -0.307272 0
M  V30 8361 O 778.954 -3.79589 -1.31434 0
M  V30 8362 N 777.16 -2.88669 -0.334414 0
M  V30 8363 H 776.707 -2.5298 0.485659 0
M  V30 8364 H 776.665 -2.90512 -1.20209 0
M  V30 8365 N 780.437 -1.16799 -1.0581 0
M  V30 8366 C 781.4 -0.881396 -2.11575 0
M  V30 8367 C 782.4 0.12574 -1.60308 0
M  V30 8368 O 783.59 -0.105716 -1.73879 0
M  V30 8369 C 780.722 -0.319037 -3.39404 0
M  V30 8370 H 781.915 -1.81907 -2.38432 0
M  V30 8371 H 779.468 -0.977597 -1.21954 0
M  V30 8372 H 780.203 0.626082 -3.18199 0
M  V30 8373 H 779.988 -1.04481 -3.77923 0
M  V30 8374 H 781.478 -0.13663 -4.17376 0
M  V30 8375 N 781.915 1.24427 -0.967243 0
M  V30 8376 C 783.164 1.91789 -0.624478 0
M  V30 8377 C 783.477 1.76448 0.844129 0
M  V30 8378 O 784.683 2.38495 1.2974 0
M  V30 8379 C 783.139 3.43743 -1.06626 0
M  V30 8380 C 782.747 3.67771 -2.55829 0
M  V30 8381 C 784.491 4.16958 -0.79662 0
M  V30 8382 C 782.398 5.13293 -2.93742 0
M  V30 8383 H 781.328 0.71811 -0.229856 0
M  V30 8384 H 783.979 1.41081 -1.17339 0
M  V30 8385 H 782.361 3.93484 -0.445663 0
M  V30 8386 H 783.535 3.28631 -3.23015 0
M  V30 8387 H 781.85 3.07841 -2.80398 0
M  V30 8388 H 784.447 5.24171 -1.05589 0
M  V30 8389 H 784.79 4.15442 0.267163 0
M  V30 8390 H 785.323 3.73164 -1.37816 0
M  V30 8391 H 782.062 5.19931 -3.9919 0
M  V30 8392 H 781.582 5.53433 -2.3124 0
M  V30 8393 H 783.261 5.81521 -2.83623 0
M  V30 8394 N 783.393 0.737304 1.3929 0
M  V30 8395 C 784.341 0.0879867 2.32434 0
M  V30 8396 C 785.335 -0.723324 1.53181 0
M  V30 8397 O 786.541 -0.624251 1.68829 0
M  V30 8398 H 782.916 0.00965277 0.751938 0
M  V30 8399 H 784.887 0.889915 2.84821 0
M  V30 8400 C 783.636 -0.803384 3.38291 0
M  V30 8401 H 782.959 -0.18849 3.99355 0
M  V30 8402 H 784.399 -1.22528 4.0591 0
M  V30 8403 C 782.858 -1.93872 2.75527 0
M  V30 8404 O 783.388 -3.03154 2.63553 0
M  V30 8405 N 781.594 -1.72883 2.3358 0
M  V30 8406 H 781.141 -0.840005 2.43519 0
M  V30 8407 H 781.099 -2.49021 1.91927 0
M  V30 8408 N 784.871 -1.49948 0.485112 0
M  V30 8409 C 785.819 -2.30449 -0.315609 0
M  V30 8410 C 786.813 -1.38351 -0.977516 0
M  V30 8411 O 788.019 -1.55477 -0.907019 0
M  V30 8412 H 784.394 -0.742262 -0.120629 0
M  V30 8413 H 786.365 -2.95925 0.383552 0
M  V30 8414 C 785.114 -3.19283 -1.37673 0
M  V30 8415 H 784.437 -3.90067 -0.876801 0
M  V30 8416 H 785.877 -3.78579 -1.90929 0
M  V30 8417 C 784.336 -2.37817 -2.38631 0
M  V30 8418 O 784.866 -2.0711 -3.44192 0
M  V30 8419 N 783.072 -2.00135 -2.107 0
M  V30 8420 H 782.619 -2.25307 -1.24878 0
M  V30 8421 H 782.577 -1.45933 -2.7848 0
M  V30 8422 N 786.349 -0.21828 -1.56081 0
M  V30 8423 C 787.574 0.422302 -2.03055 0
M  V30 8424 C 787.999 1.5279 -1.09713 0
M  V30 8425 O 787.357 1.81102 -0.0847187 0
M  V30 8426 C 787.405 0.934177 -3.48289 0
M  V30 8427 O 786.509 2.04574 -3.58083 0
M  V30 8428 H 785.85 0.0959764 -0.657027 0
M  V30 8429 H 788.38 -0.335958 -2.01823 0
M  V30 8430 H 788.39 1.24484 -3.88546 0
M  V30 8431 H 787.065 0.124963 -4.15712 0
M  V30 8432 H 785.642 1.74196 -3.29712 0
M  V30 8433 N 787.827 1.57504 0.0551401 0
M  V30 8434 C 788.737 2.08198 1.08124 0
M  V30 8435 C 789.753 1.01496 1.41331 0
M  V30 8436 O 790.929 1.33073 1.51174 0
M  V30 8437 C 787.994 2.52968 2.37083 0
M  V30 8438 C 787.055 3.7404 2.10696 0
M  V30 8439 C 786.288 4.16665 3.33505 0
M  V30 8440 O 786.511 3.59019 4.4324 0
M  V30 8441 O 785.445 5.09324 3.20737 0
M  V30 8442 H 789.271 2.95977 0.680518 0
M  V30 8443 H 786.856 1.46933 0.270401 0
M  V30 8444 H 788.738 2.82211 3.12946 0
M  V30 8445 H 787.413 1.6831 2.76502 0
M  V30 8446 H 786.32 3.49855 1.32484 0
M  V30 8447 H 787.653 4.59601 1.76148 0
M  V30 8448 N 789.305 -0.326896 1.54172 0
M  V30 8449 C 790.554 -1.06274 1.71431 0
M  V30 8450 C 790.867 -1.89282 0.493123 0
M  V30 8451 O 792.073 -2.65933 0.54699 0
M  V30 8452 C 790.529 -1.93892 3.03206 0
M  V30 8453 C 790.137 -1.16011 4.32719 0
M  V30 8454 C 791.881 -2.67232 3.29829 0
M  V30 8455 C 789.788 -2.02755 5.55558 0
M  V30 8456 H 788.718 -0.400475 0.638855 0
M  V30 8457 H 791.369 -0.321184 1.80667 0
M  V30 8458 H 789.751 -2.71933 2.87869 0
M  V30 8459 H 790.925 -0.427643 4.58811 0
M  V30 8460 H 789.24 -0.54367 4.12836 0
M  V30 8461 H 791.837 -3.32434 4.18798 0
M  V30 8462 H 792.18 -3.34692 2.47562 0
M  V30 8463 H 792.713 -1.96255 3.46018 0
M  V30 8464 H 789.452 -1.3981 6.40417 0
M  V30 8465 H 788.972 -2.73745 5.33689 0
M  V30 8466 H 790.651 -2.61419 5.91835 0
M  V30 8467 N 790.784 -1.46188 -0.588786 0
M  V30 8468 C 792.2 -1.31009 -0.911524 0
M  V30 8469 C 792.4 -0.277017 -1.99587 0
M  V30 8470 O 791.456 0.322532 -2.50432 0
M  V30 8471 C 792.769 -2.69459 -1.33463 0
M  V30 8472 C 794.317 -2.77502 -1.44782 0
M  V30 8473 C 794.792 -4.1652 -1.90461 0
M  V30 8474 N 796.283 -4.18907 -1.97665 0
M  V30 8475 C 797.018 -5.23359 -2.34271 0
M  V30 8476 N 796.514 -6.38143 -2.69714 0
M  V30 8477 N 798.307 -5.10723 -2.34774 0
M  V30 8478 H 790.458 -2.12016 0.127614 0
M  V30 8479 H 792.721 -0.947984 -0.00557599 0
M  V30 8480 H 792.427 -3.46336 -0.611929 0
M  V30 8481 H 792.301 -2.99165 -2.2974 0
M  V30 8482 H 794.688 -2.00917 -2.1614 0
M  V30 8483 H 794.769 -2.51488 -0.467724 0
M  V30 8484 H 794.413 -4.93597 -1.19684 0
M  V30 8485 H 794.343 -4.39937 -2.89418 0
M  V30 8486 H 796.834 -3.36084 -1.72789 0
M  V30 8487 H 797.147 -7.13624 -2.96582 0
M  V30 8488 H 795.492 -6.41514 -2.67366 0
M  V30 8489 H 798.683 -4.20088 -2.06503 0
M  V30 8490 H 798.856 -5.9224 -2.62975 0
M  V30 8491 N 792.262 0.832906 -1.33792 0
M  V30 8492 C 793.509 1.58853 -1.25586 0
M  V30 8493 C 793.837 1.93695 0.176807 0
M  V30 8494 O 793.092 1.59386 1.13554 0
M  V30 8495 C 793.391 2.9047 -2.08235 0
M  V30 8496 C 793.057 2.74965 -3.57358 0
M  V30 8497 C 791.719 2.70444 -3.98012 0
M  V30 8498 C 794.071 2.59347 -4.52093 0
M  V30 8499 C 791.399 2.48212 -5.31608 0
M  V30 8500 C 793.751 2.38649 -5.85858 0
M  V30 8501 C 792.415 2.32533 -6.25687 0
M  V30 8502 H 791.685 0.581285 -0.459553 0
M  V30 8503 H 794.332 0.964501 -1.65438 0
M  V30 8504 H 792.637 3.57111 -1.6118 0
M  V30 8505 H 794.334 3.48001 -1.99239 0
M  V30 8506 H 790.924 2.79319 -3.25083 0
M  V30 8507 H 795.108 2.6187 -4.2159 0
M  V30 8508 H 790.364 2.41929 -5.61498 0
M  V30 8509 H 794.538 2.25549 -6.58863 0
M  V30 8510 H 792.165 2.15067 -7.29143 0
M  V30 8511 N 793.74 1.17359 1.05189 0
M  V30 8512 C 795.156 0.920861 1.30355 0
M  V30 8513 C 795.356 -0.419993 1.97074 0
M  V30 8514 O 794.412 -1.15696 2.24434 0
M  V30 8515 C 795.725 2.07818 2.1733 0
M  V30 8516 C 797.273 2.1152 2.30712 0
M  V30 8517 C 797.748 3.26637 3.21048 0
M  V30 8518 N 799.239 3.26426 3.28634 0
M  V30 8519 C 799.974 4.12141 3.98657 0
M  V30 8520 N 799.47 5.07966 4.71107 0
M  V30 8521 N 801.263 4.00091 3.94821 0
M  V30 8522 H 793.414 2.03666 0.602821 0
M  V30 8523 H 795.677 0.889294 0.328421 0
M  V30 8524 H 795.383 3.04727 1.75597 0
M  V30 8525 H 795.257 2.02922 3.17966 0
M  V30 8526 H 797.644 1.15196 2.71687 0
M  V30 8527 H 797.725 2.20477 1.29706 0
M  V30 8528 H 797.369 4.23227 2.80788 0
M  V30 8529 H 797.299 3.14917 4.2206 0
M  V30 8530 H 799.79 2.57045 2.77013 0
M  V30 8531 H 800.103 5.69766 5.22099 0
M  V30 8532 H 798.448 5.11936 4.7005 0
M  V30 8533 H 801.639 3.24523 3.37346 0
M  V30 8534 H 801.812 4.6711 4.49123 0
M  V30 8535 N 795.218 -1.23913 0.973828 0
M  V30 8536 C 796.464 -1.92747 0.649635 0
M  V30 8537 C 796.819 -1.7465 -0.807157 0
M  V30 8538 O 796.112 -1.09271 -1.57386 0
M  V30 8539 C 796.306 -3.4406 0.967356 0
M  V30 8540 C 796.135 -3.76874 2.45348 0
M  V30 8541 C 794.905 -3.97915 3.11435 0
M  V30 8542 C 797.103 -3.82871 3.43386 0
M  V30 8543 N 795.085 -4.1788 4.49722 0
M  V30 8544 C 796.456 -4.07751 4.67053 0
M  V30 8545 C 798.511 -3.65634 3.37958 0
M  V30 8546 C 797.214 -4.17185 5.8596 0
M  V30 8547 C 799.24 -3.76317 4.56223 0
M  V30 8548 C 798.602 -4.01628 5.78683 0
M  V30 8549 H 794.701 -0.72677 0.288667 0
M  V30 8550 H 797.285 -1.4928 1.24994 0
M  V30 8551 H 795.456 -3.86378 0.395804 0
M  V30 8552 H 797.188 -4.00211 0.601108 0
M  V30 8553 H 793.943 -3.94562 2.61949 0
M  V30 8554 H 794.367 -4.31829 5.21395 0
M  V30 8555 H 799.009 -3.45067 2.44312 0
M  V30 8556 H 796.727 -4.36562 6.80029 0
M  V30 8557 H 800.313 -3.64343 4.53592 0
M  V30 8558 H 799.193 -4.09699 6.68667 0
M  V30 8559 N 796.696 -0.74468 -1.38897 0
M  V30 8560 C 797.626 -0.126355 -2.33158 0
M  V30 8561 C 798.607 0.713517 -1.54412 0
M  V30 8562 O 799.792 0.656523 -1.82766 0
M  V30 8563 C 796.922 0.774375 -3.38557 0
M  V30 8564 C 795.876 0.0379214 -4.27983 0
M  V30 8565 C 795.202 1.05631 -5.24162 0
M  V30 8566 C 796.502 -1.12523 -5.10035 0
M  V30 8567 H 798.196 -0.913744 -2.85116 0
M  V30 8568 H 795.742 -0.440847 -1.37086 0
M  V30 8569 H 797.695 1.21655 -4.03458 0
M  V30 8570 H 796.419 1.59399 -2.85061 0
M  V30 8571 H 795.078 -0.384733 -3.64576 0
M  V30 8572 H 794.726 1.86975 -4.66958 0
M  V30 8573 H 794.426 0.568261 -5.84846 0
M  V30 8574 H 795.95 1.49799 -5.9194 0
M  V30 8575 H 797.364 -0.761037 -5.68226 0
M  V30 8576 H 795.761 -1.54355 -5.79909 0
M  V30 8577 H 796.831 -1.94237 -4.44297 0
M  V30 8578 N 798.174 1.49689 -0.493057 0
M  V30 8579 C 799.59 1.58907 -0.148526 0
M  V30 8580 C 799.79 1.4991 1.34645 0
M  V30 8581 O 798.846 1.36893 2.12171 0
M  V30 8582 C 800.159 2.91996 -0.718265 0
M  V30 8583 C 801.707 3.05443 -0.683658 0
M  V30 8584 C 802.182 4.41138 -1.23132 0
M  V30 8585 N 803.673 4.47608 -1.19167 0
M  V30 8586 C 804.408 5.51038 -1.5857 0
M  V30 8587 N 803.904 6.61612 -2.05528 0
M  V30 8588 N 805.697 5.41706 -1.50036 0
M  V30 8589 H 797.848 1.5378 -1.46511 0
M  V30 8590 H 800.111 0.727996 -0.607228 0
M  V30 8591 H 799.817 3.04123 -1.7664 0
M  V30 8592 H 799.691 3.76798 -0.17419 0
M  V30 8593 H 802.078 2.92949 0.355626 0
M  V30 8594 H 802.159 2.22344 -1.26479 0
M  V30 8595 H 801.803 4.54382 -2.26935 0
M  V30 8596 H 801.733 5.22864 -0.626201 0
M  V30 8597 H 804.224 3.68274 -0.847524 0
M  V30 8598 H 804.537 7.36622 -2.33685 0
M  V30 8599 H 802.882 6.62674 -2.09497 0
M  V30 8600 H 806.073 4.54212 -1.13176 0
M  V30 8601 H 806.246 6.22188 -1.81068 0
M  V30 8602 N 799.652 0.226554 1.55963 0
M  V30 8603 C 800.582 -0.676079 2.23498 0
M  V30 8604 C 801.563 -1.19718 1.20837 0
M  V30 8605 O 802.748 -1.24027 1.49436 0
M  V30 8606 C 799.878 -1.88217 2.91876 0
M  V30 8607 C 798.832 -1.4947 4.01052 0
M  V30 8608 C 798.158 -2.77997 4.56751 0
M  V30 8609 C 799.458 -0.680951 5.17842 0
M  V30 8610 H 801.152 -0.112989 2.99187 0
M  V30 8611 H 798.698 -0.0529046 1.43903 0
M  V30 8612 H 800.651 -2.51911 3.37815 0
M  V30 8613 H 799.375 -2.47031 2.13643 0
M  V30 8614 H 798.034 -0.881199 3.55852 0
M  V30 8615 H 797.682 -3.34966 3.75243 0
M  V30 8616 H 797.382 -2.52803 5.30438 0
M  V30 8617 H 798.906 -3.42625 5.05411 0
M  V30 8618 H 800.32 -1.22171 5.60131 0
M  V30 8619 H 798.717 -0.525898 5.97791 0
M  V30 8620 H 799.787 0.311346 4.83899 0
M  V30 8621 N 801.13 -1.57531 -0.0467866 0
M  V30 8622 C 802.37 -1.90294 -0.746171 0
M  V30 8623 C 802.734 -0.823194 -1.73458 0
M  V30 8624 O 803.935 -1.03463 -2.48091 0
M  V30 8625 C 802.206 -3.28249 -1.41378 0
M  V30 8626 S 803.765 -3.82812 -2.14477 0
M  V30 8627 H 800.583 -0.666496 -0.247598 0
M  V30 8628 H 803.185 -1.955 -0.00135143 0
M  V30 8629 H 801.889 -4.04712 -0.680937 0
M  V30 8630 H 801.42 -3.26302 -2.19751 0
M  V30 8631 H 803.435 -3.60111 -3.41372 0
M  V30 8632 N 802.608 0.318715 -1.54344 0
M  V30 8633 C 803.857 1.05363 -1.71993 0
M  V30 8634 C 804.17 1.89018 -0.503155 0
M  V30 8635 O 805.376 2.65639 -0.561085 0
M  V30 8636 C 803.832 1.92281 -3.0423 0
M  V30 8637 C 803.44 1.13715 -4.33328 0
M  V30 8638 C 805.184 2.65479 -3.31242 0
M  V30 8639 C 803.091 1.99806 -5.56625 0
M  V30 8640 H 802.021 0.397081 -0.64097 0
M  V30 8641 H 804.672 0.311598 -1.80835 0
M  V30 8642 H 803.054 2.70402 -2.89307 0
M  V30 8643 H 804.228 0.403305 -4.59032 0
M  V30 8644 H 802.543 0.521769 -4.13118 0
M  V30 8645 H 805.14 3.30209 -4.20555 0
M  V30 8646 H 805.483 3.33374 -2.49334 0
M  V30 8647 H 806.016 1.94417 -3.47054 0
M  V30 8648 H 802.755 1.36411 -6.41149 0
M  V30 8649 H 802.275 2.70911 -5.35133 0
M  V30 8650 H 803.954 2.58277 -5.93213 0
M  V30 8651 N 804.086 1.46499 0.581025 0
M  V30 8652 C 805.018 1.53225 1.70455 0
M  V30 8653 C 806.031 0.420443 1.57277 0
M  V30 8654 O 807.22 0.688888 1.64671 0
M  V30 8655 C 804.32 1.39803 3.08721 0
M  V30 8656 C 803.493 2.65132 3.47884 0
M  V30 8657 C 802.552 2.45886 4.65217 0
M  V30 8658 O 801.578 3.19615 4.70993 0
M  V30 8659 N 802.78 1.5216 5.60203 0
M  V30 8660 H 805.545 2.50098 1.65139 0
M  V30 8661 H 803.106 1.42576 0.76705 0
M  V30 8662 H 805.098 1.24697 3.8501 0
M  V30 8663 H 803.668 0.51104 3.08394 0
M  V30 8664 H 802.888 2.95169 2.61284 0
M  V30 8665 H 804.176 3.48385 3.70817 0
M  V30 8666 H 803.574 0.913646 5.58273 0
M  V30 8667 H 802.131 1.43017 6.35916 0
M  V30 8668 N 805.565 -0.825799 1.34232 0
M  V30 8669 C 806.79 -1.61883 1.29648 0
M  V30 8670 C 807.215 -1.87669 -0.127295 0
M  V30 8671 O 806.573 -1.45016 -1.08813 0
M  V30 8672 C 806.621 -2.93846 2.09014 0
M  V30 8673 O 805.725 -3.85778 1.4577 0
M  V30 8674 H 805.066 -0.492454 0.445405 0
M  V30 8675 H 807.596 -1.02641 1.76992 0
M  V30 8676 H 807.606 -3.43435 2.20264 0
M  V30 8677 H 806.281 -2.74401 3.12533 0
M  V30 8678 H 804.858 -3.4429 1.43245 0
M  V30 8679 N 807.043 -1.17915 -1.04565 0
M  V30 8680 C 807.99 -0.901605 -2.12461 0
M  V30 8681 C 808.96 0.157011 -1.65356 0
M  V30 8682 O 810.145 0.0184494 -1.90791 0
M  V30 8683 C 807.285 -0.42796 -3.42436 0
M  V30 8684 C 806.398 -1.55142 -4.03181 0
M  V30 8685 C 805.533 -1.03101 -5.21098 0
M  V30 8686 C 804.572 -2.1295 -5.73863 0
M  V30 8687 N 803.709 -1.62339 -6.83074 0
M  V30 8688 H 808.549 -1.82551 -2.3554 0
M  V30 8689 H 806.086 -0.910389 -1.15544 0
M  V30 8690 H 808.044 -0.134859 -4.16982 0
M  V30 8691 H 806.674 0.458977 -3.1952 0
M  V30 8692 H 805.726 -1.96011 -3.26012 0
M  V30 8693 H 807.038 -2.37968 -4.38375 0
M  V30 8694 H 806.192 -0.692132 -6.02739 0
M  V30 8695 H 804.931 -0.17227 -4.87396 0
M  V30 8696 H 803.936 -2.47687 -4.90847 0
M  V30 8697 H 805.161 -2.9925 -6.09611 0
M  V30 8698 H 803.107 -0.787464 -6.51256 0
M  V30 8699 H 803.024 -2.38767 -7.17305 0
M  V30 8700 H 804.292 -1.31363 -7.68351 0
M  V30 8701 N 808.521 1.23394 -0.980386 0
M  V30 8702 C 809.767 1.924 -0.659848 0
M  V30 8703 C 810.122 1.75076 0.797883 0
M  V30 8704 O 809.415 1.10104 1.56805 0
M  V30 8705 C 809.609 3.43542 -0.985588 0
M  V30 8706 C 809.438 3.75568 -2.47343 0
M  V30 8707 C 808.208 3.96257 -3.13541 0
M  V30 8708 C 810.406 3.81045 -3.45412 0
M  V30 8709 N 808.388 4.15489 -4.51932 0
M  V30 8710 C 809.759 4.05269 -4.69209 0
M  V30 8711 C 811.814 3.63837 -3.39893 0
M  V30 8712 C 810.517 4.14071 -5.88164 0
M  V30 8713 C 812.543 3.73892 -4.58212 0
M  V30 8714 C 811.905 3.98553 -5.80805 0
M  V30 8715 H 808.004 0.725229 -0.292518 0
M  V30 8716 H 810.588 1.48615 -1.25784 0
M  V30 8717 H 808.759 3.86163 -0.416289 0
M  V30 8718 H 810.491 3.99887 -0.622324 0
M  V30 8719 H 807.246 3.93168 -2.64038 0
M  V30 8720 H 807.67 4.29058 -5.23677 0
M  V30 8721 H 812.312 3.43767 -2.46139 0
M  V30 8722 H 810.03 4.32949 -6.82335 0
M  V30 8723 H 813.616 3.61932 -4.55518 0
M  V30 8724 H 812.496 4.06148 -6.70831 0
M  V30 8725 N 809.999 0.752036 1.385 0
M  V30 8726 C 810.909 0.125318 2.34265 0
M  V30 8727 C 811.925 -0.702437 1.59191 0
M  V30 8728 O 813.101 -0.626951 1.91393 0
M  V30 8729 C 810.166 -0.758486 3.38301 0
M  V30 8730 C 809.227 0.0834636 4.29219 0
M  V30 8731 C 808.46 -0.758252 5.28286 0
M  V30 8732 O 808.683 -1.99632 5.34325 0
M  V30 8733 O 807.617 -0.177878 6.01637 0
M  V30 8734 H 811.443 0.91617 2.89551 0
M  V30 8735 H 809.028 0.512911 1.4032 0
M  V30 8736 H 810.91 -1.26365 4.02007 0
M  V30 8737 H 809.585 -1.52786 2.85374 0
M  V30 8738 H 808.492 0.634545 3.68679 0
M  V30 8739 H 809.825 0.815455 4.85398 0
M  V30 8740 N 811.477 -1.49425 0.500989 0
M  V30 8741 C 812.754 -1.9531 -0.106551 0
M  V30 8742 C 813.134 -1.44248 -1.54129 0
M  V30 8743 O 812.482 -0.656237 -2.18874 0
M  V30 8744 C 812.692 -3.48995 -0.0191972 0
M  V30 8745 C 814.04 -4.24161 -0.193129 0
M  V30 8746 O 815.064 -3.56075 -0.0943843 0
M  V30 8747 O 813.923 -5.45064 -0.395869 0
M  V30 8748 H 811.017 -0.82149 -0.0953068 0
M  V30 8749 H 813.563 -1.6007 0.563526 0
M  V30 8750 H 812.335 -3.78794 0.981353 0
M  V30 8751 H 811.958 -3.90852 -0.72942 0
M  V30 8752 N 812.955 -0.234822 -1.55841 0
M  V30 8753 C 813.918 0.656378 -2.196 0
M  V30 8754 C 814.918 1.11179 -1.16171 0
M  V30 8755 O 816.108 1.01845 -1.41326 0
M  V30 8756 C 813.24 1.90072 -2.82993 0
M  V30 8757 H 814.433 0.100281 -2.99732 0
M  V30 8758 H 811.986 0.0147613 -1.56293 0
M  V30 8759 H 812.721 2.49836 -2.06767 0
M  V30 8760 H 812.506 1.5825 -3.58747 0
M  V30 8761 H 813.996 2.53538 -3.31826 0
M  V30 8762 N 814.433 1.57553 0.0384317 0
M  V30 8763 C 815.682 1.88022 0.730108 0
M  V30 8764 C 815.995 0.83209 1.77019 0
M  V30 8765 O 817.201 1.0257 2.51379 0
M  V30 8766 C 815.657 3.33637 1.3496 0
M  V30 8767 C 815.265 4.46659 0.346352 0
M  V30 8768 C 817.009 3.73266 2.02169 0
M  V30 8769 C 814.916 5.8333 0.973652 0
M  V30 8770 H 813.846 0.701496 0.276442 0
M  V30 8771 H 816.497 1.83493 -0.0158028 0
M  V30 8772 H 814.879 3.32882 2.1449 0
M  V30 8773 H 816.053 4.58868 -0.421558 0
M  V30 8774 H 814.368 4.15802 -0.223133 0
M  V30 8775 H 816.965 4.72689 2.49938 0
M  V30 8776 H 817.308 3.04776 2.8358 0
M  V30 8777 H 817.841 3.76156 1.29427 0
M  V30 8778 H 814.58 6.55197 0.199163 0
M  V30 8779 H 814.1 5.7486 1.71162 0
M  V30 8780 H 815.779 6.29757 1.48376 0
M  V30 8781 N 815.911 -0.310526 1.54511 0
M  V30 8782 C 817.322 -0.884142 1.64438 0
M  V30 8783 C 817.673 -1.88425 0.546855 0
M  V30 8784 O 816.798 -2.14049 -0.31811 0
M  V30 8785 C 817.393 -1.6104 2.9808 0
M  V30 8786 C 815.952 -2.13255 3.1016 0
M  V30 8787 C 815.099 -0.96213 2.60074 0
M  V30 8788 H 818.05 -0.0877666 1.58457 0
M  V30 8789 H 818.071 -2.47541 2.8897 0
M  V30 8790 H 817.583 -0.882255 3.77939 0
M  V30 8791 H 815.684 -2.89145 2.35002 0
M  V30 8792 H 815.797 -2.37361 4.16169 0
M  V30 8793 H 814.161 -1.34501 2.16291 0
M  V30 8794 H 814.944 -0.248098 3.42402 0
M  V30 8795 N 817.389 -1.46805 -0.573248 0
M  V30 8796 C 818.319 -1.60951 -1.69165 0
M  V30 8797 C 819.3 -0.45948 -1.63777 0
M  V30 8798 O 820.485 -0.68688 -1.81647 0
M  V30 8799 C 817.615 -1.60844 -3.07809 0
M  V30 8800 C 816.569 -2.74913 -3.28035 0
M  V30 8801 C 815.895 -2.59871 -4.67302 0
M  V30 8802 C 817.195 -4.16654 -3.14955 0
M  V30 8803 H 818.889 -2.54574 -1.57582 0
M  V30 8804 H 816.435 -1.22516 -0.756686 0
M  V30 8805 H 818.388 -1.69334 -3.85881 0
M  V30 8806 H 817.112 -0.637714 -3.20314 0
M  V30 8807 H 815.771 -2.65908 -2.52366 0
M  V30 8808 H 815.419 -1.60861 -4.76585 0
M  V30 8809 H 815.119 -3.36386 -4.81786 0
M  V30 8810 H 816.643 -2.70265 -5.4753 0
M  V30 8811 H 818.057 -4.26721 -3.82861 0
M  V30 8812 H 816.454 -4.93831 -3.40956 0
M  V30 8813 H 817.524 -4.36146 -2.11908 0
M  V30 8814 N 818.867 0.818669 -1.34668 0
M  V30 8815 C 819.83 1.9114 -1.26483 0
M  V30 8816 C 820.83 1.598 -0.179044 0
M  V30 8817 O 822.02 1.6876 -0.431952 0
M  V30 8818 C 819.152 3.27285 -0.95381 0
M  V30 8819 H 820.345 1.9982 -2.23634 0
M  V30 8820 H 817.898 1.01314 -1.19018 0
M  V30 8821 H 818.633 3.24297 0.0143428 0
M  V30 8822 H 818.418 3.51416 -1.73924 0
M  V30 8823 H 819.908 4.07299 -0.921827 0
M  V30 8824 N 820.346 1.18468 1.03938 0
M  V30 8825 C 821.276 0.936389 2.13902 0
M  V30 8826 C 822.257 -0.126381 1.6963 0
M  V30 8827 O 823.442 0.0264757 1.94182 0
M  V30 8828 C 820.572 0.462729 3.44204 0
M  V30 8829 C 819.526 1.46613 4.02105 0
M  V30 8830 C 818.852 0.84994 5.27902 0
M  V30 8831 C 820.152 2.84323 4.3813 0
M  V30 8832 H 821.846 1.85602 2.3493 0
M  V30 8833 H 819.392 0.893806 1.12903 0
M  V30 8834 H 821.345 0.276382 4.20493 0
M  V30 8835 H 820.069 -0.492477 3.22866 0
M  V30 8836 H 818.728 1.63944 3.27899 0
M  V30 8837 H 818.376 -0.112493 5.02874 0
M  V30 8838 H 818.076 1.51988 5.67603 0
M  V30 8839 H 819.6 0.674152 6.06867 0
M  V30 8840 H 821.014 2.70636 5.054 0
M  V30 8841 H 819.411 3.48012 4.88884 0
M  V30 8842 H 820.481 3.37776 3.47901 0
M  V30 8843 N 821.824 -1.22873 0.986916 0
M  V30 8844 C 822.771 -2.2458 0.532215 0
M  V30 8845 C 823.741 -1.60375 -0.432322 0
M  V30 8846 O 824.926 -1.87775 -0.338416 0
M  V30 8847 C 822.066 -3.44761 -0.152864 0
M  V30 8848 C 821.179 -4.23501 0.852704 0
M  V30 8849 C 820.314 -5.31011 0.14176 0
M  V30 8850 C 819.353 -6.01464 1.1361 0
M  V30 8851 N 818.49 -7.00631 0.453871 0
M  V30 8852 H 823.33 -2.62838 1.40428 0
M  V30 8853 H 820.867 -1.29185 0.703543 0
M  V30 8854 H 822.825 -4.1333 -0.566926 0
M  V30 8855 H 821.455 -3.07284 -0.988756 0
M  V30 8856 H 820.507 -3.54286 1.38512 0
M  V30 8857 H 821.819 -4.72097 1.61014 0
M  V30 8858 H 820.973 -6.05805 -0.329337 0
M  V30 8859 H 819.712 -4.83373 -0.648229 0
M  V30 8860 H 818.717 -5.25456 1.61789 0
M  V30 8861 H 819.942 -6.5119 1.92686 0
M  V30 8862 H 817.888 -6.55235 -0.316791 0
M  V30 8863 H 817.805 -7.47204 1.14986 0
M  V30 8864 H 819.073 -7.795 0.00537823 0
M  V30 8865 N 823.302 -0.75937 -1.38099 0
M  V30 8866 C 824.235 -0.0838362 -2.28046 0
M  V30 8867 C 825.213 0.722229 -1.4568 0
M  V30 8868 O 826.397 0.699629 -1.75036 0
M  V30 8869 C 823.524 0.887916 -3.26854 0
M  V30 8870 C 822.57 0.167374 -4.26171 0
M  V30 8871 S 823.403 -1.13592 -5.23314 0
M  V30 8872 C 824.559 -0.167385 -6.25676 0
M  V30 8873 H 824.792 -0.846564 -2.84992 0
M  V30 8874 H 822.325 -0.552206 -1.44188 0
M  V30 8875 H 824.283 1.44322 -3.84293 0
M  V30 8876 H 822.944 1.62366 -2.68879 0
M  V30 8877 H 822.137 0.903567 -4.95834 0
M  V30 8878 H 821.739 -0.316572 -3.72658 0
M  V30 8879 H 824.031 0.664598 -6.74232 0
M  V30 8880 H 824.974 -0.831836 -7.03197 0
M  V30 8881 H 825.382 0.21589 -5.64087 0
M  V30 8882 N 824.78 1.49157 -0.508906 0
M  V30 8883 C 825.743 2.27784 0.25434 0
M  V30 8884 C 826.743 1.34132 0.88686 0
M  V30 8885 O 827.933 1.5722 0.750168 0
M  V30 8886 C 825.065 3.12347 1.36573 0
M  V30 8887 H 826.258 2.96718 -0.435714 0
M  V30 8888 H 823.811 1.54052 -0.264128 0
M  V30 8889 H 824.546 2.47997 2.08969 0
M  V30 8890 H 824.331 3.81213 0.917543 0
M  V30 8891 H 825.821 3.71712 1.90315 0
M  V30 8892 N 826.258 0.243083 1.55714 0
M  V30 8893 C 827.486 -0.386971 2.03249 0
M  V30 8894 C 827.901 -1.51812 1.12243 0
M  V30 8895 O 827.258 -1.81992 0.136119 0
M  V30 8896 C 827.309 -0.898361 3.5016 0
M  V30 8897 O 827.03 0.187708 4.37698 0
M  V30 8898 C 828.531 -1.59949 4.13438 0
M  V30 8899 H 825.751 -0.0923981 0.664608 0
M  V30 8900 H 828.295 0.365832 2.01201 0
M  V30 8901 H 826.45 -1.60136 3.52754 0
M  V30 8902 H 826.864 -0.200001 5.24119 0
M  V30 8903 H 828.338 -1.90907 5.17937 0
M  V30 8904 H 828.815 -2.52014 3.59702 0
M  V30 8905 H 829.421 -0.941163 4.14756 0
M  V30 8906 N 827.736 -1.57571 -0.0300757 0
M  V30 8907 C 828.646 -2.09892 -1.04798 0
M  V30 8908 C 829.662 -1.03732 -1.39698 0
M  V30 8909 O 830.838 -1.35461 -1.49038 0
M  V30 8910 C 827.903 -2.56707 -2.33028 0
M  V30 8911 C 826.964 -3.77345 -2.04718 0
M  V30 8912 C 826.197 -4.21918 -3.26834 0
M  V30 8913 O 826.42 -3.66025 -4.37472 0
M  V30 8914 O 825.354 -5.14362 -3.12594 0
M  V30 8915 H 829.18 -2.97023 -0.633344 0
M  V30 8916 H 826.765 -1.47344 -0.246991 0
M  V30 8917 H 828.647 -2.87154 -3.08417 0
M  V30 8918 H 827.322 -1.72688 -2.73789 0
M  V30 8919 H 826.229 -3.51919 -1.26901 0
M  V30 8920 H 827.562 -4.62345 -1.68813 0
M  V30 8921 N 829.214 0.302327 -1.54673 0
M  V30 8922 C 830.146 1.39443 -1.81902 0
M  V30 8923 C 831.159 1.46891 -0.701914 0
M  V30 8924 O 832.348 1.49233 -0.979369 0
M  V30 8925 C 829.448 2.77824 -1.9408 0
M  V30 8926 C 828.621 2.93324 -3.24468 0
M  V30 8927 C 827.68 4.12196 -3.27079 0
M  V30 8928 O 826.706 4.04344 -4.00617 0
M  V30 8929 N 827.908 5.22768 -2.52376 0
M  V30 8930 H 830.673 1.1644 -2.76155 0
M  V30 8931 H 828.234 0.492392 -1.54231 0
M  V30 8932 H 830.226 3.5559 -1.9323 0
M  V30 8933 H 828.796 2.9378 -1.06828 0
M  V30 8934 H 828.016 2.02682 -3.38103 0
M  V30 8935 H 829.304 3.0059 -4.10516 0
M  V30 8936 H 828.702 5.32027 -1.92259 0
M  V30 8937 H 827.259 5.98874 -2.57281 0
M  V30 8938 N 830.692 1.47107 0.565454 0
M  V30 8939 C 831.94 1.53005 1.32038 0
M  V30 8940 C 832.261 0.190453 1.94068 0
M  V30 8941 O 831.531 -0.784783 1.79494 0
M  V30 8942 H 830.111 0.563578 0.490294 0
M  V30 8943 H 832.773 1.83351 0.660928 0
M  V30 8944 H 831.869 2.29215 2.11818 0
M  V30 8945 N 832.17 -0.811516 1.35101 0
M  V30 8946 C 833.586 -1.10634 1.15031 0
M  V30 8947 C 833.786 -2.01459 -0.0405379 0
M  V30 8948 O 832.842 -2.42235 -0.712635 0
M  V30 8949 C 834.155 -1.74207 2.45097 0
M  V30 8950 C 835.703 -1.8665 2.51258 0
M  V30 8951 C 836.178 -2.53638 3.81355 0
M  V30 8952 N 837.669 -2.61128 3.82579 0
M  V30 8953 C 838.404 -3.13717 4.79968 0
M  V30 8954 N 837.9 -3.66782 5.87744 0
M  V30 8955 N 839.693 -3.12224 4.67411 0
M  V30 8956 H 831.844 -0.207641 2.11383 0
M  V30 8957 H 834.107 -0.154697 0.935293 0
M  V30 8958 H 833.813 -1.14936 3.32389 0
M  V30 8959 H 833.687 -2.73958 2.59281 0
M  V30 8960 H 836.074 -2.45066 1.64398 0
M  V30 8961 H 836.155 -0.857678 2.40993 0
M  V30 8962 H 835.799 -1.95873 4.68611 0
M  V30 8963 H 835.729 -3.55047 3.88907 0
M  V30 8964 H 838.22 -2.23527 3.04703 0
M  V30 8965 H 838.533 -4.05194 6.58056 0
M  V30 8966 H 836.878 -3.64994 5.91443 0
M  V30 8967 H 840.069 -2.70042 3.82354 0
M  V30 8968 H 840.242 -3.52903 5.43474 0
M  V30 8969 N 833.648 -1.19017 -1.03309 0
M  V30 8970 C 834.581 -0.867457 -2.1107 0
M  V30 8971 C 835.559 0.173752 -1.61669 0
M  V30 8972 O 836.743 0.0510077 -1.88431 0
M  V30 8973 C 833.87 -0.297459 -3.37391 0
M  V30 8974 C 832.916 -1.31706 -4.05655 0
M  V30 8975 S 833.749 -2.87591 -4.51721 0
M  V30 8976 C 834.905 -2.32122 -5.81266 0
M  V30 8977 H 835.138 -1.78008 -2.38119 0
M  V30 8978 H 832.671 -1.01686 -1.16187 0
M  V30 8979 H 834.629 0.0248889 -4.10492 0
M  V30 8980 H 833.29 0.5934 -3.08444 0
M  V30 8981 H 832.483 -0.867264 -4.96482 0
M  V30 8982 H 832.085 -1.58603 -3.38705 0
M  V30 8983 H 834.377 -1.70855 -6.55603 0
M  V30 8984 H 835.32 -3.2128 -6.31019 0
M  V30 8985 H 835.728 -1.74858 -5.36736 0
M  V30 8986 N 835.127 1.22348 -0.993418 0
M  V30 8987 C 836.074 2.24294 -0.544118 0
M  V30 8988 C 837.044 1.60602 0.42381 0
M  V30 8989 O 838.229 1.87952 0.328453 0
M  V30 8990 C 835.369 3.44837 0.134578 0
M  V30 8991 C 834.482 4.23043 -0.875151 0
M  V30 8992 C 833.617 5.30928 -0.169919 0
M  V30 8993 C 832.656 6.00853 -1.16798 0
M  V30 8994 N 831.793 7.00381 -0.491021 0
M  V30 8995 H 836.633 2.6209 -1.4182 0
M  V30 8996 H 834.17 1.2881 -0.710384 0
M  V30 8997 H 836.128 4.13625 0.544998 0
M  V30 8998 H 834.758 3.07804 0.972446 0
M  V30 8999 H 833.81 3.53546 -1.40389 0
M  V30 9000 H 835.122 4.71237 -1.63516 0
M  V30 9001 H 834.276 6.05972 0.297205 0
M  V30 9002 H 833.015 4.8371 0.622586 0
M  V30 9003 H 832.02 5.24591 -1.64573 0
M  V30 9004 H 833.245 6.50159 -1.96137 0
M  V30 9005 H 831.191 6.55393 0.282037 0
M  V30 9006 H 831.108 7.46584 -1.18947 0
M  V30 9007 H 832.376 7.79486 -0.0467169 0
M  V30 9008 N 836.605 0.766683 1.37694 0
M  V30 9009 C 837.852 0.328714 1.99814 0
M  V30 9010 C 838.18 -1.09333 1.60862 0
M  V30 9011 O 837.435 -1.7657 0.8439 0
M  V30 9012 C 837.734 0.413831 3.54996 0
M  V30 9013 C 837.4 1.7934 4.137 0
M  V30 9014 C 836.062 2.17092 4.29447 0
M  V30 9015 C 838.414 2.69776 4.45949 0
M  V30 9016 C 835.742 3.44726 4.74743 0
M  V30 9017 C 838.094 3.96814 4.92667 0
M  V30 9018 C 836.758 4.34618 5.0662 0
M  V30 9019 H 836.028 0.120285 0.731172 0
M  V30 9020 H 838.675 0.97972 1.64541 0
M  V30 9021 H 836.98 -0.320723 3.90485 0
M  V30 9022 H 838.677 0.0563369 4.0096 0
M  V30 9023 H 835.267 1.48997 4.01868 0
M  V30 9024 H 839.451 2.41871 4.33373 0
M  V30 9025 H 834.707 3.73917 4.83731 0
M  V30 9026 H 838.881 4.67022 5.16588 0
M  V30 9027 H 836.508 5.33578 5.41478 0
M  V30 9028 N 838.083 -1.48885 0.516809 0
M  V30 9029 C 839.311 -2.06892 -0.0184017 0
M  V30 9030 C 839.726 -1.37511 -1.29368 0
M  V30 9031 O 839.083 -0.458409 -1.76649 0
M  V30 9032 C 839.134 -3.60566 -0.259673 0
M  V30 9033 O 838.855 -4.27338 0.965065 0
M  V30 9034 C 840.356 -4.35331 -0.836751 0
M  V30 9035 H 837.576 -0.670433 0.0275743 0
M  V30 9036 H 840.12 -1.91455 0.718689 0
M  V30 9037 H 838.275 -3.75653 -0.94678 0
M  V30 9038 H 838.689 -5.19287 0.737647 0
M  V30 9039 H 840.163 -5.43675 -0.955065 0
M  V30 9040 H 840.64 -3.9887 -1.83845 0
M  V30 9041 H 841.246 -4.2489 -0.186622 0
M  V30 9042 N 839.561 -0.251338 -1.55583 0
M  V30 9043 C 840.977 0.103409 -1.59265 0
M  V30 9044 C 841.177 1.56559 -1.26852 0
M  V30 9045 O 840.233 2.31071 -1.01796 0
M  V30 9046 C 841.546 -0.249781 -2.99661 0
M  V30 9047 C 843.094 -0.194442 -3.12395 0
M  V30 9048 C 843.569 -0.521728 -4.55019 0
M  V30 9049 N 845.06 -0.472393 -4.60785 0
M  V30 9050 C 845.795 -0.698737 -5.69127 0
M  V30 9051 N 845.291 -0.988443 -6.85713 0
M  V30 9052 N 847.084 -0.629143 -5.58568 0
M  V30 9053 H 839.235 -1.20484 -1.74921 0
M  V30 9054 H 841.498 -0.485092 -0.814488 0
M  V30 9055 H 841.204 -1.26577 -3.28133 0
M  V30 9056 H 841.078 0.420973 -3.74844 0
M  V30 9057 H 843.465 0.812229 -2.83702 0
M  V30 9058 H 843.546 -0.899111 -2.39478 0
M  V30 9059 H 843.19 -1.52597 -4.84434 0
M  V30 9060 H 843.12 0.204468 -5.26203 0
M  V30 9061 H 845.611 -0.257386 -3.77022 0
M  V30 9062 H 845.924 -1.14846 -7.64219 0
M  V30 9063 H 844.269 -1.02596 -6.87386 0
M  V30 9064 H 847.46 -0.402826 -4.66364 0
M  V30 9065 H 847.633 -0.808935 -6.42931 0
M  V30 9066 N 841.039 1.57585 0.0217189 0
M  V30 9067 C 842.45 1.7787 0.567377 0
M  V30 9068 C 842.801 0.883337 1.7519 0
M  V30 9069 O 841.926 0.0800819 2.16252 0
M  V30 9070 C 842.521 3.2257 1.03606 0
M  V30 9071 C 841.08 3.44026 1.52718 0
M  V30 9072 C 840.227 2.73313 0.468545 0
M  V30 9073 H 843.178 1.57377 -0.2045 0
M  V30 9074 H 843.199 3.29488 1.9031 0
M  V30 9075 H 842.711 3.87711 0.173739 0
M  V30 9076 H 840.812 2.8407 2.41111 0
M  V30 9077 H 840.925 4.52659 1.56962 0
M  V30 9078 H 839.289 2.37299 0.925263 0
M  V30 9079 H 840.072 3.41141 -0.384438 0
M  V30 9080 N 842.517 -0.29412 1.54831 0
M  V30 9081 C 843.447 -1.36757 1.89261 0
M  V30 9082 C 844.428 -1.52564 0.752214 0
M  V30 9083 O 845.613 -1.65958 1.00855 0
M  V30 9084 C 842.743 -2.73066 2.14597 0
M  V30 9085 C 841.697 -2.72017 3.3044 0
M  V30 9086 C 841.023 -4.11679 3.4121 0
M  V30 9087 C 842.323 -2.33149 4.67375 0
M  V30 9088 H 844.017 -1.08191 2.79169 0
M  V30 9089 H 841.563 -0.519014 1.34321 0
M  V30 9090 H 843.516 -3.48255 2.37269 0
M  V30 9091 H 842.24 -3.03172 1.21467 0
M  V30 9092 H 840.899 -1.99285 3.07703 0
M  V30 9093 H 840.547 -4.38973 2.45584 0
M  V30 9094 H 840.247 -4.11877 4.19084 0
M  V30 9095 H 841.771 -4.88637 3.6615 0
M  V30 9096 H 843.185 -2.98054 4.89731 0
M  V30 9097 H 841.582 -2.44546 5.48012 0
M  V30 9098 H 842.652 -1.28275 4.67626 0
M  V30 9099 N 843.995 -1.47404 -0.557645 0
M  V30 9100 C 845.242 -1.54007 -1.31484 0
M  V30 9101 C 845.57 -0.202162 -1.93447 0
M  V30 9102 O 844.825 0.804901 -1.78381 0
M  V30 9103 C 845.124 -2.6061 -2.44575 0
M  V30 9104 C 844.79 -4.03896 -2.00446 0
M  V30 9105 C 843.452 -4.42901 -1.88127 0
M  V30 9106 C 845.804 -4.93804 -1.66754 0
M  V30 9107 C 843.132 -5.6965 -1.40411 0
M  V30 9108 C 845.484 -6.21016 -1.20509 0
M  V30 9109 C 844.148 -6.58903 -1.06786 0
M  V30 9110 H 843.418 -0.563552 -0.481134 0
M  V30 9111 H 846.065 -1.81001 -0.625375 0
M  V30 9112 H 844.37 -2.27371 -3.19076 0
M  V30 9113 H 846.067 -2.62941 -3.02759 0
M  V30 9114 H 842.657 -3.73077 -2.10977 0
M  V30 9115 H 846.841 -4.64369 -1.75144 0
M  V30 9116 H 842.097 -5.97755 -1.2845 0
M  V30 9117 H 846.271 -6.90095 -0.935001 0
M  V30 9118 H 843.898 -7.57008 -0.695891 0
M  V30 9119 N 845.473 0.80434 -1.35529 0
M  V30 9120 C 846.42 1.91629 -1.28635 0
M  V30 9121 C 847.39 1.65348 -0.157862 0
M  V30 9122 O 848.575 1.87711 -0.341934 0
M  V30 9123 C 845.715 3.28207 -1.0665 0
M  V30 9124 C 844.828 3.66659 -2.28441 0
M  V30 9125 C 843.963 4.92279 -1.99588 0
M  V30 9126 C 843.002 5.23365 -3.1742 0
M  V30 9127 N 842.139 6.40165 -2.88328 0
M  V30 9128 H 846.979 1.96858 -2.23721 0
M  V30 9129 H 844.516 0.962871 -1.11208 0
M  V30 9130 H 846.474 4.06945 -0.919343 0
M  V30 9131 H 845.104 3.22441 -0.152253 0
M  V30 9132 H 844.156 2.83164 -2.54013 0
M  V30 9133 H 845.468 3.8559 -3.1642 0
M  V30 9134 H 844.622 5.78847 -1.81715 0
M  V30 9135 H 843.361 4.75387 -1.08896 0
M  V30 9136 H 842.366 4.35285 -3.35867 0
M  V30 9137 H 843.591 5.42185 -4.08916 0
M  V30 9138 H 841.537 6.24694 -2.00233 0
M  V30 9139 H 841.454 6.59357 -3.69843 0
M  V30 9140 H 842.722 7.29755 -2.74002 0
M  V30 9141 N 846.951 1.19563 1.02676 0
M  V30 9142 C 848.228 0.908857 1.73203 0
M  V30 9143 C 848.608 -0.584928 2.02834 0
M  V30 9144 O 847.956 -1.54372 1.68469 0
M  V30 9145 C 848.166 1.77105 3.00724 0
M  V30 9146 C 849.514 2.00667 3.7419 0
M  V30 9147 O 850.538 1.74274 3.10656 0
M  V30 9148 O 849.397 2.4518 4.88415 0
M  V30 9149 H 846.491 0.338909 0.754367 0
M  V30 9150 H 849.037 1.30387 1.08616 0
M  V30 9151 H 847.809 2.78303 2.7507 0
M  V30 9152 H 847.432 1.37546 3.73051 0
M  V30 9153 N 848.429 -1.21819 0.999893 0
M  V30 9154 C 849.359 -2.26282 0.576096 0
M  V30 9155 C 850.34 -1.65317 -0.400537 0
M  V30 9156 O 851.525 -1.92028 -0.28964 0
M  V30 9157 C 848.655 -3.47147 -0.103145 0
M  V30 9158 C 847.609 -4.20594 0.792745 0
M  V30 9159 C 846.935 -5.34696 -0.0198026 0
M  V30 9160 C 848.235 -4.78533 2.09293 0
M  V30 9161 H 849.929 -2.61984 1.4493 0
M  V30 9162 H 847.475 -1.25935 0.698316 0
M  V30 9163 H 849.428 -4.1939 -0.411068 0
M  V30 9164 H 848.152 -3.1056 -1.01094 0
M  V30 9165 H 846.811 -3.50194 1.08442 0
M  V30 9166 H 846.459 -4.94352 -0.928729 0
M  V30 9167 H 846.159 -5.84764 0.576661 0
M  V30 9168 H 847.683 -6.09752 -0.321659 0
M  V30 9169 H 849.097 -5.42682 1.8485 0
M  V30 9170 H 847.494 -5.38968 2.63881 0
M  V30 9171 H 848.564 -3.98197 2.76708 0
M  V30 9172 N 849.908 -0.773975 -1.37286 0
M  V30 9173 C 850.871 -0.167974 -2.28584 0
M  V30 9174 C 851.871 0.625662 -1.48129 0
M  V30 9175 O 853.061 0.448924 -1.68316 0
M  V30 9176 C 850.193 0.769364 -3.32105 0
M  V30 9177 H 851.386 -0.972806 -2.83684 0
M  V30 9178 H 848.939 -0.542335 -1.46589 0
M  V30 9179 H 849.674 1.59912 -2.82132 0
M  V30 9180 H 849.459 0.202419 -3.91577 0
M  V30 9181 H 850.949 1.18872 -4.00324 0
M  V30 9182 N 851.386 1.48609 -0.524698 0
M  V30 9183 C 852.349 2.28041 0.230166 0
M  V30 9184 C 853.349 1.35065 0.872584 0
M  V30 9185 O 854.539 1.58007 0.73345 0
M  V30 9186 C 851.671 3.13778 1.33252 0
M  V30 9187 H 852.864 2.96239 -0.467161 0
M  V30 9188 H 850.417 1.53763 -0.280452 0
M  V30 9189 H 851.152 2.502 2.06327 0
M  V30 9190 H 850.937 3.82165 0.877058 0
M  V30 9191 H 852.427 3.7371 1.86362 0
M  V30 9192 N 852.864 0.259585 1.55447 0
M  V30 9193 C 854.111 -0.361607 1.99245 0
M  V30 9194 C 854.439 -1.57017 1.14787 0
M  V30 9195 O 853.694 -1.94658 0.201724 0
M  V30 9196 C 853.993 -0.802727 3.48269 0
M  V30 9197 C 853.659 0.299472 4.49904 0
M  V30 9198 C 852.321 0.602157 4.77418 0
M  V30 9199 C 854.673 1.04295 5.10658 0
M  V30 9200 C 852.001 1.65217 5.62957 0
M  V30 9201 C 854.353 2.08257 5.97337 0
M  V30 9202 C 853.017 2.39177 6.23178 0
M  V30 9203 H 852.287 -0.132322 0.72909 0
M  V30 9204 H 854.934 0.370059 1.8789 0
M  V30 9205 H 853.239 -1.61381 3.5702 0
M  V30 9206 H 854.936 -1.29385 3.79553 0
M  V30 9207 H 851.526 0.0534256 4.28567 0
M  V30 9208 H 855.71 0.822358 4.89439 0
M  V30 9209 H 850.966 1.89692 5.81229 0
M  V30 9210 H 855.14 2.6635 6.43452 0
M  V30 9211 H 852.767 3.20677 6.89253 0
M  V30 9212 N 854.342 -1.57594 -0.0133615 0
M  V30 9213 C 855.619 -1.81173 -0.737273 0
M  V30 9214 C 855.999 -0.861395 -1.92726 0
M  V30 9215 O 855.347 0.0929324 -2.28311 0
M  V30 9216 C 855.557 -3.29314 -1.15557 0
M  V30 9217 C 856.905 -3.94707 -1.56498 0
M  V30 9218 O 857.929 -3.33557 -1.24973 0
M  V30 9219 O 856.788 -5.02402 -2.15069 0
M  V30 9220 H 853.882 -0.745575 -0.357837 0
M  V30 9221 H 856.428 -1.69696 0.0110674 0
M  V30 9222 H 855.2 -3.90096 -0.30677 0
M  V30 9223 H 854.823 -3.45739 -1.96343 0
M  V30 9224 N 855.82 0.285905 -1.54985 0
M  V30 9225 C 856.767 1.35306 -1.86978 0
M  V30 9226 C 857.737 1.49682 -0.720046 0
M  V30 9227 O 858.922 1.64297 -0.970107 0
M  V30 9228 C 856.062 2.71059 -2.13591 0
M  V30 9229 C 855.175 2.6501 -3.41165 0
M  V30 9230 C 854.31 3.92856 -3.57544 0
M  V30 9231 C 853.349 3.81266 -4.78855 0
M  V30 9232 N 852.486 5.00919 -4.9196 0
M  V30 9233 H 857.326 1.07323 -2.78003 0
M  V30 9234 H 854.863 0.518776 -1.37649 0
M  V30 9235 H 856.821 3.50026 -2.27019 0
M  V30 9236 H 855.451 2.97271 -1.25816 0
M  V30 9237 H 854.503 1.77824 -3.36278 0
M  V30 9238 H 855.815 2.52342 -4.30262 0
M  V30 9239 H 854.969 4.80263 -3.70718 0
M  V30 9240 H 853.708 4.08377 -2.66608 0
M  V30 9241 H 852.713 2.92243 -4.65698 0
M  V30 9242 H 853.938 3.67277 -5.71213 0
M  V30 9243 H 851.884 5.16875 -4.03951 0
M  V30 9244 H 851.801 4.90732 -5.75081 0
M  V30 9245 H 853.069 5.89935 -5.09507 0
M  V30 9246 N 857.298 1.47698 0.54982 0
M  V30 9247 C 858.523 1.58579 1.33669 0
M  V30 9248 C 858.948 0.239049 1.86575 0
M  V30 9249 O 858.306 -0.786256 1.63364 0
M  V30 9250 C 858.354 2.62029 2.47736 0
M  V30 9251 O 857.458 2.17813 3.50188 0
M  V30 9252 H 856.799 0.532447 0.396732 0
M  V30 9253 H 859.329 1.93536 0.6637 0
M  V30 9254 H 859.339 2.82682 2.94202 0
M  V30 9255 H 858.014 3.59812 2.08586 0
M  V30 9256 H 856.591 2.07291 3.09976 0
M  V30 9257 N 858.776 -0.797141 1.35954 0
M  V30 9258 C 859.726 -1.89899 1.26184 0
M  V30 9259 C 860.71 -1.60152 0.155007 0
M  V30 9260 O 861.902 -1.72715 0.387108 0
M  V30 9261 C 859.031 -3.2699 1.04559 0
M  V30 9262 C 858.117 -3.62772 2.19675 0
M  V30 9263 N 858.508 -3.6992 3.44953 0
M  V30 9264 C 856.806 -3.92786 2.1127 0
M  V30 9265 C 857.507 -4.01718 4.20711 0
M  V30 9266 N 856.483 -4.16298 3.49567 0
M  V30 9267 H 860.285 -1.9364 2.2109 0
M  V30 9268 H 857.799 -0.992246 1.28562 0
M  V30 9269 H 859.796 -4.0578 0.956474 0
M  V30 9270 H 858.456 -3.24529 0.105467 0
M  V30 9271 H 859.467 -3.52759 3.79185 0
M  V30 9272 H 856.144 -3.98295 1.25168 0
M  V30 9273 H 857.534 -4.14237 5.29016 0
M  V30 9274 N 860.254 -1.20106 -1.0204 0
M  V30 9275 C 861.531 -0.918029 -1.72718 0
M  V30 9276 C 861.911 0.574163 -2.03142 0
M  V30 9277 O 861.259 1.53476 -1.69285 0
M  V30 9278 C 861.469 -1.78698 -2.9978 0
M  V30 9279 C 862.817 -2.02648 -3.7312 0
M  V30 9280 O 863.841 -1.75919 -3.09727 0
M  V30 9281 O 862.7 -2.47767 -4.87107 0
M  V30 9282 H 859.794 -0.342904 -0.752559 0
M  V30 9283 H 862.34 -1.30961 -1.07923 0
M  V30 9284 H 861.112 -2.79757 -2.7359 0
M  V30 9285 H 860.735 -1.39522 -3.72316 0
M  V30 9286 N 861.732 1.21287 -1.00634 0
M  V30 9287 C 862.664 2.2308 -0.526094 0
M  V30 9288 C 863.677 1.58157 0.386031 0
M  V30 9289 O 864.866 1.77528 0.186016 0
M  V30 9290 C 861.966 3.37937 0.255289 0
M  V30 9291 C 861.139 4.32449 -0.656236 0
M  V30 9292 C 860.198 5.26145 0.0757714 0
M  V30 9293 O 859.224 5.66601 -0.543325 0
M  V30 9294 N 860.426 5.6449 1.35391 0
M  V30 9295 H 863.191 2.64913 -1.40147 0
M  V30 9296 H 860.752 1.35724 -0.882641 0
M  V30 9297 H 862.744 3.97614 0.753977 0
M  V30 9298 H 861.314 2.95078 1.03187 0
M  V30 9299 H 860.534 3.70892 -1.3354 0
M  V30 9300 H 861.822 4.92526 -1.27653 0
M  V30 9301 H 861.22 5.33617 1.878 0
M  V30 9302 H 859.777 6.26524 1.79753 0
M  V30 9303 N 863.21 0.781244 1.36873 0
M  V30 9304 C 864.173 0.180094 2.28491 0
M  V30 9305 C 865.173 -0.617798 1.48458 0
M  V30 9306 O 866.363 -0.439991 1.68552 0
M  V30 9307 C 863.495 -0.751741 3.32508 0
M  V30 9308 H 864.688 0.987837 2.83164 0
M  V30 9309 H 862.241 0.550102 1.463 0
M  V30 9310 H 862.976 -1.58413 2.82977 0
M  V30 9311 H 862.761 -0.181649 3.91679 0
M  V30 9312 H 864.251 -1.16748 4.00949 0
M  V30 9313 N 864.689 -1.48329 0.532571 0
M  V30 9314 C 865.935 -2.028 -0.000583219 0
M  V30 9315 C 866.268 -1.40858 -1.33688 0
M  V30 9316 O 865.543 -0.555261 -1.86406 0
M  V30 9317 C 865.826 -3.59901 -0.119846 0
M  V30 9318 C 865.679 -4.32318 1.2418 0
M  V30 9319 C 866.998 -4.31904 -0.845372 0
M  V30 9320 H 864.117 -0.736999 0.00126205 0
M  V30 9321 H 866.759 -1.77024 0.690102 0
M  V30 9322 H 864.909 -3.81993 -0.708092 0
M  V30 9323 H 866.581 -4.21637 1.87136 0
M  V30 9324 H 864.824 -3.93635 1.82301 0
M  V30 9325 H 865.495 -5.40697 1.11132 0
M  V30 9326 H 867.971 -4.14658 -0.346159 0
M  V30 9327 H 866.847 -5.41509 -0.897723 0
M  V30 9328 H 867.108 -3.99369 -1.89622 0
M  V30 9329 N 866.167 -0.267825 -1.55308 0
M  V30 9330 C 867.583 0.0865107 -1.59365 0
M  V30 9331 C 867.783 1.55205 -1.28505 0
M  V30 9332 O 866.839 2.29978 -1.04241 0
M  V30 9333 C 868.152 -0.28155 -2.99379 0
M  V30 9334 C 869.7 -0.227565 -3.12172 0
M  V30 9335 C 870.175 -0.569959 -4.5444 0
M  V30 9336 N 871.666 -0.521238 -4.60258 0
M  V30 9337 C 872.401 -0.759061 -5.68354 0
M  V30 9338 N 871.897 -1.06112 -6.84626 0
M  V30 9339 N 873.69 -0.688351 -5.57869 0
M  V30 9340 H 865.841 -1.22332 -1.73633 0
M  V30 9341 H 868.104 -0.493703 -0.809297 0
M  V30 9342 H 867.81 -1.3005 -3.26772 0
M  V30 9343 H 867.684 0.381192 -3.75269 0
M  V30 9344 H 870.071 0.782093 -2.84548 0
M  V30 9345 H 870.152 -0.924461 -2.38511 0
M  V30 9346 H 869.796 -1.57727 -4.82788 0
M  V30 9347 H 869.726 0.148646 -5.2639 0
M  V30 9348 H 872.217 -0.297359 -3.76728 0
M  V30 9349 H 872.53 -1.22945 -7.62958 0
M  V30 9350 H 870.875 -1.09881 -6.86259 0
M  V30 9351 H 874.066 -0.452268 -4.6591 0
M  V30 9352 H 874.239 -0.877081 -6.42037 0
M  V30 9353 N 867.645 1.57599 0.00500368 0
M  V30 9354 C 868.873 1.94626 0.702016 0
M  V30 9355 C 869.288 0.86953 1.67585 0
M  V30 9356 O 868.645 -0.15199 1.81866 0
M  V30 9357 C 868.696 3.31658 1.43824 0
M  V30 9358 O 868.417 4.35197 0.503467 0
M  V30 9359 C 869.918 3.83114 2.23021 0
M  V30 9360 H 867.138 0.641785 0.195841 0
M  V30 9361 H 869.682 2.04451 -0.0446287 0
M  V30 9362 H 867.837 3.23156 2.13655 0
M  V30 9363 H 868.251 5.1444 1.02235 0
M  V30 9364 H 869.725 4.81438 2.7004 0
M  V30 9365 H 870.202 3.15559 3.05482 0
M  V30 9366 H 870.808 3.94775 1.58216 0
M  V30 9367 N 869.123 -0.277682 1.55134 0
M  V30 9368 C 870.353 -1.02677 1.79279 0
M  V30 9369 C 870.761 -1.80599 0.563962 0
M  V30 9370 O 870.104 -1.77416 -0.476378 0
M  V30 9371 C 870.166 -2.03617 2.96277 0
M  V30 9372 C 869.83 -1.44676 4.33495 0
M  V30 9373 C 870.827 -0.864811 5.12657 0
M  V30 9374 C 868.512 -1.47537 4.80144 0
M  V30 9375 C 870.506 -0.319322 6.366 0
M  V30 9376 C 868.193 -0.926016 6.04043 0
M  V30 9377 C 869.191 -0.348988 6.82108 0
M  V30 9378 O 868.879 0.191964 8.03671 0
M  V30 9379 H 868.611 -0.309232 0.601125 0
M  V30 9380 H 871.165 -0.315308 2.02965 0
M  V30 9381 H 869.395 -2.78509 2.68272 0
M  V30 9382 H 871.084 -2.64616 3.07788 0
M  V30 9383 H 871.85 -0.835438 4.7775 0
M  V30 9384 H 867.729 -1.91389 4.19394 0
M  V30 9385 H 871.273 0.131709 6.97476 0
M  V30 9386 H 867.17 -0.952613 6.38432 0
M  V30 9387 H 867.938 0.0808779 8.1846 0
M  V30 9388 N 870.601 -1.47988 -0.541979 0
M  V30 9389 C 871.533 -1.5769 -1.66332 0
M  V30 9390 C 872.546 -0.461994 -1.56107 0
M  V30 9391 O 873.735 -0.732306 -1.62787 0
M  V30 9392 C 870.835 -1.47939 -3.04905 0
M  V30 9393 C 870.008 -2.74263 -3.40733 0
M  V30 9394 C 869.067 -2.58133 -4.58534 0
M  V30 9395 O 868.093 -3.31991 -4.62354 0
M  V30 9396 N 869.295 -1.6696 -5.55972 0
M  V30 9397 H 872.06 -2.54389 -1.5845 0
M  V30 9398 H 869.621 -1.4456 -0.728979 0
M  V30 9399 H 871.613 -1.34861 -3.81569 0
M  V30 9400 H 870.183 -0.592626 -3.06931 0
M  V30 9401 H 869.403 -3.01992 -2.53366 0
M  V30 9402 H 870.691 -3.58094 -3.6145 0
M  V30 9403 H 870.089 -1.06134 -5.55655 0
M  V30 9404 H 868.646 -1.59826 -6.31901 0
M  V30 9405 N 872.079 0.78992 -1.36375 0
M  V30 9406 C 872.989 1.93386 -1.32812 0
M  V30 9407 C 874.005 1.72468 -0.230377 0
M  V30 9408 O 875.181 1.96014 -0.462657 0
M  V30 9409 C 872.246 3.2824 -1.11621 0
M  V30 9410 C 871.307 3.61939 -2.30865 0
M  V30 9411 C 870.54 4.90359 -2.10675 0
M  V30 9412 O 870.763 5.6005 -1.08168 0
M  V30 9413 O 869.697 5.22702 -2.9844 0
M  V30 9414 H 873.523 1.99342 -2.29121 0
M  V30 9415 H 871.108 0.9301 -1.16917 0
M  V30 9416 H 872.99 4.08939 -1.01719 0
M  V30 9417 H 871.665 3.23178 -0.183732 0
M  V30 9418 H 870.572 2.81549 -2.46335 0
M  V30 9419 H 871.905 3.71725 -3.22617 0
M  V30 9420 N 873.557 1.20646 1.01402 0
M  V30 9421 C 874.507 0.925209 2.08384 0
M  V30 9422 C 875.491 -0.115994 1.60481 0
M  V30 9423 O 876.683 0.0917276 1.76762 0
M  V30 9424 C 873.812 0.48193 3.399 0
M  V30 9425 C 872.898 1.5567 3.94497 0
M  V30 9426 N 873.289 2.77971 4.2257 0
M  V30 9427 C 871.587 1.42347 4.22674 0
M  V30 9428 C 872.288 3.47317 4.66632 0
M  V30 9429 N 871.264 2.74736 4.69064 0
M  V30 9430 H 875.066 1.85452 2.28002 0
M  V30 9431 H 872.58 1.10084 1.19395 0
M  V30 9432 H 874.577 0.261835 4.16077 0
M  V30 9433 H 873.237 -0.440725 3.21695 0
M  V30 9434 H 874.248 3.14598 4.11398 0
M  V30 9435 H 870.925 0.565417 4.13654 0
M  V30 9436 H 872.315 4.51985 4.97151 0
M  V30 9437 N 875.035 -1.20752 1.01276 0
M  V30 9438 C 875.982 -2.234 0.579732 0
M  V30 9439 C 876.952 -1.61256 -0.398206 0
M  V30 9440 O 878.137 -1.8845 -0.29851 0
M  V30 9441 C 875.277 -3.45008 -0.0797006 0
M  V30 9442 C 874.39 -4.21597 0.942343 0
M  V30 9443 C 873.525 -5.30591 0.254364 0
M  V30 9444 C 872.564 -5.98919 1.26343 0
M  V30 9445 N 871.701 -6.99511 0.602384 0
M  V30 9446 H 876.541 -2.59801 1.45971 0
M  V30 9447 H 874.078 -1.27663 0.730787 0
M  V30 9448 H 876.036 -4.1444 -0.479125 0
M  V30 9449 H 874.666 -3.09312 -0.923354 0
M  V30 9450 H 873.718 -3.51268 1.45996 0
M  V30 9451 H 875.03 -4.68576 1.70992 0
M  V30 9452 H 874.184 -6.06368 -0.200763 0
M  V30 9453 H 872.923 -4.84639 -0.545553 0
M  V30 9454 H 871.928 -5.21906 1.72898 0
M  V30 9455 H 873.153 -6.46957 2.06456 0
M  V30 9456 H 871.099 -6.55759 -0.177734 0
M  V30 9457 H 871.016 -7.44597 1.30809 0
M  V30 9458 H 872.284 -7.79313 0.17072 0
M  V30 9459 N 876.513 -0.788492 -1.36457 0
M  V30 9460 C 877.476 -0.192209 -2.28393 0
M  V30 9461 C 878.476 0.609916 -1.48784 0
M  V30 9462 O 879.666 0.431046 -1.68783 0
M  V30 9463 C 876.798 0.734096 -3.32902 0
M  V30 9464 H 877.991 -1.00284 -2.82636 0
M  V30 9465 H 875.544 -0.557852 -1.46006 0
M  V30 9466 H 876.279 1.5691 -2.83813 0
M  V30 9467 H 876.064 0.160875 -3.9177 0
M  V30 9468 H 877.554 1.1462 -4.01562 0
M  V30 9469 N 877.991 1.48044 -0.54043 0
M  V30 9470 C 879.216 2.07396 -0.0124765 0
M  V30 9471 C 879.641 1.39288 1.26414 0
M  V30 9472 O 878.999 0.462252 1.75308 0
M  V30 9473 C 879.047 3.60131 0.18377 0
M  V30 9474 O 878.151 3.92995 1.25014 0
M  V30 9475 H 877.492 0.662554 -0.0438026 0
M  V30 9476 H 880.022 1.90306 -0.751327 0
M  V30 9477 H 880.032 4.06003 0.403197 0
M  V30 9478 H 878.707 4.09105 -0.74874 0
M  V30 9479 H 877.284 3.5889 1.01254 0
M  V30 9480 N 879.47 0.276058 1.55163 0
M  V30 9481 C 880.403 -0.652386 2.18676 0
M  V30 9482 C 881.381 -1.15151 1.148 0
M  V30 9483 O 882.565 -1.22431 1.43328 0
M  V30 9484 C 879.692 -1.88982 2.81076 0
M  V30 9485 C 878.738 -1.52609 3.98262 0
M  V30 9486 S 879.571 -0.603445 5.32089 0
M  V30 9487 C 880.727 -1.84923 5.97958 0
M  V30 9488 H 880.96 -0.112733 2.97086 0
M  V30 9489 H 878.493 0.0603118 1.54282 0
M  V30 9490 H 880.451 -2.60007 3.17658 0
M  V30 9491 H 879.112 -2.40061 2.02557 0
M  V30 9492 H 878.305 -2.44689 4.40617 0
M  V30 9493 H 877.907 -0.89601 3.63108 0
M  V30 9494 H 880.199 -2.79303 6.17249 0
M  V30 9495 H 881.142 -1.46868 6.92702 0
M  V30 9496 H 881.55 -2.0146 5.27327 0
M  V30 9497 N 880.948 -1.576 0.00335426 0
M  V30 9498 C 881.898 -2.05116 -0.995562 0
M  V30 9499 C 882.882 -0.946535 -1.30113 0
M  V30 9500 O 884.074 -1.21028 -1.29156 0
M  V30 9501 C 881.203 -2.56077 -2.28648 0
M  V30 9502 C 880.289 -3.73422 -2.0104 0
M  V30 9503 N 880.68 -4.84986 -1.43603 0
M  V30 9504 C 878.978 -3.81416 -2.31166 0
M  V30 9505 C 879.679 -5.66399 -1.32542 0
M  V30 9506 N 878.655 -5.12505 -1.81218 0
M  V30 9507 H 882.457 -2.88783 -0.546025 0
M  V30 9508 H 879.971 -1.61135 -0.202265 0
M  V30 9509 H 881.968 -2.88395 -3.01055 0
M  V30 9510 H 880.628 -1.73829 -2.74251 0
M  V30 9511 H 881.639 -5.05768 -1.11439 0
M  V30 9512 H 878.316 -3.1003 -2.7962 0
M  V30 9513 H 879.706 -6.66066 -0.88348 0
M  V30 9514 N 882.426 0.269451 -1.5528 0
M  V30 9515 C 883.837 0.840233 -1.66724 0
M  V30 9516 C 884.188 1.86909 -0.596621 0
M  V30 9517 O 883.313 2.14817 0.261246 0
M  V30 9518 C 883.908 1.5308 -3.02245 0
M  V30 9519 C 882.467 2.04957 -3.15705 0
M  V30 9520 C 881.614 0.892838 -2.62533 0
M  V30 9521 H 884.565 0.0457236 -1.58634 0
M  V30 9522 H 884.586 2.39792 -2.95432 0
M  V30 9523 H 884.098 0.781741 -3.80145 0
M  V30 9524 H 882.199 2.82813 -2.42585 0
M  V30 9525 H 882.312 2.26244 -4.22316 0
M  V30 9526 H 880.676 1.28719 -2.19781 0
M  V30 9527 H 881.459 0.157229 -3.4294 0
M  V30 9528 N 883.904 1.48273 0.534124 0
M  V30 9529 C 885.15 1.56311 1.29208 0
M  V30 9530 C 885.483 0.234481 1.92779 0
M  V30 9531 O 884.758 -0.759143 1.79073 0
M  V30 9532 C 885.041 2.69831 2.3846 0
M  V30 9533 C 884.894 4.12385 1.79608 0
M  V30 9534 C 886.213 2.79133 3.40254 0
M  V30 9535 H 883.332 0.56899 0.468422 0
M  V30 9536 H 885.974 1.80429 0.595438 0
M  V30 9537 H 884.124 2.49397 2.97881 0
M  V30 9538 H 885.796 4.44246 1.24269 0
M  V30 9539 H 884.039 4.19579 1.10162 0
M  V30 9540 H 884.71 4.87629 2.58693 0
M  V30 9541 H 887.186 2.97632 2.90783 0
M  V30 9542 H 886.062 3.60298 4.14097 0
M  V30 9543 H 886.323 1.87122 4.00547 0
M  V30 9544 N 885.382 -0.782676 1.36792 0
M  V30 9545 C 886.61 -1.57162 1.34565 0
M  V30 9546 C 887.025 -1.88664 -0.0715501 0
M  V30 9547 O 886.382 -1.50633 -1.03033 0
M  V30 9548 C 886.433 -2.88854 2.1736 0
M  V30 9549 O 886.154 -2.58707 3.53557 0
M  V30 9550 C 887.655 -3.83132 2.2299 0
M  V30 9551 H 884.875 -0.487245 0.461338 0
M  V30 9552 H 887.419 -0.970905 1.79982 0
M  V30 9553 H 885.574 -3.45377 1.7548 0
M  V30 9554 H 885.988 -3.42961 3.96835 0
M  V30 9555 H 887.462 -4.72575 2.85266 0
M  V30 9556 H 887.939 -4.21472 1.23524 0
M  V30 9557 H 888.545 -3.32541 2.65135 0
M  V30 9558 N 886.86 -1.21182 -1.00761 0
M  V30 9559 C 887.823 -0.970339 -2.07646 0
M  V30 9560 C 888.823 0.0576345 -1.60697 0
M  V30 9561 O 890.013 -0.179369 -1.73274 0
M  V30 9562 C 887.145 -0.462703 -3.37745 0
M  V30 9563 H 888.338 -1.91856 -2.30502 0
M  V30 9564 H 885.891 -1.02844 -1.17698 0
M  V30 9565 H 886.626 0.490559 -3.20568 0
M  V30 9566 H 886.411 -1.20416 -3.73152 0
M  V30 9567 H 887.901 -0.313531 -4.16421 0
M  V30 9568 N 888.338 1.20213 -1.01915 0
M  V30 9569 C 889.271 2.2181 -0.536243 0
M  V30 9570 C 890.249 1.57144 0.417689 0
M  V30 9571 O 891.433 1.85461 0.337088 0
M  V30 9572 C 888.56 3.37989 0.219303 0
M  V30 9573 C 887.606 4.2097 -0.684571 0
M  V30 9574 S 888.439 4.90216 -2.15519 0
M  V30 9575 C 889.595 6.09814 -1.40988 0
M  V30 9576 H 889.828 2.62429 -1.39709 0
M  V30 9577 H 887.361 1.30305 -0.828254 0
M  V30 9578 H 889.319 4.05335 0.649112 0
M  V30 9579 H 887.98 2.95825 1.05575 0
M  V30 9580 H 887.173 5.03897 -0.101833 0
M  V30 9581 H 886.775 3.58892 -1.05227 0
M  V30 9582 H 889.067 6.73964 -0.691243 0
M  V30 9583 H 890.01 6.72552 -2.21539 0
M  V30 9584 H 890.418 5.5709 -0.911645 0
M  V30 9585 N 889.816 0.795718 1.36037 0
M  V30 9586 C 890.746 0.212803 2.32528 0
M  V30 9587 C 891.727 -0.655716 1.56953 0
M  V30 9588 O 892.912 -0.588238 1.85077 0
M  V30 9589 C 890.042 -0.648189 3.41198 0
M  V30 9590 C 888.996 0.120948 4.27829 0
M  V30 9591 C 888.322 -0.861044 5.27722 0
M  V30 9592 C 889.622 1.31375 5.05508 0
M  V30 9593 H 891.316 1.01893 2.81528 0
M  V30 9594 H 888.862 0.491422 1.35355 0
M  V30 9595 H 890.815 -1.06597 4.07695 0
M  V30 9596 H 889.539 -1.48709 2.9078 0
M  V30 9597 H 888.198 0.519777 3.62897 0
M  V30 9598 H 887.846 -1.69515 4.73575 0
M  V30 9599 H 887.546 -0.350808 5.86552 0
M  V30 9600 H 889.07 -1.27726 5.97092 0
M  V30 9601 H 890.484 0.971406 5.6501 0
M  V30 9602 H 888.881 1.75772 5.73781 0
M  V30 9603 H 889.951 2.10593 4.36782 0
M  V30 9604 N 891.294 -1.47756 0.548274 0
M  V30 9605 C 892.54 -2.02789 0.0209265 0
M  V30 9606 C 892.873 -1.42268 -1.32187 0
M  V30 9607 O 892.148 -0.575001 -1.85806 0
M  V30 9608 C 892.431 -3.60007 -0.0816674 0
M  V30 9609 C 892.284 -4.30977 1.28759 0
M  V30 9610 C 893.603 -4.32777 -0.799515 0
M  V30 9611 H 890.722 -0.736944 0.00907884 0
M  V30 9612 H 893.364 -1.76282 0.708839 0
M  V30 9613 H 891.514 -3.82722 -0.667537 0
M  V30 9614 H 893.186 -4.19629 1.91597 0
M  V30 9615 H 891.429 -3.9168 1.86466 0
M  V30 9616 H 892.1 -5.39488 1.16861 0
M  V30 9617 H 894.576 -4.15001 -0.30216 0
M  V30 9618 H 893.452 -5.42431 -0.840239 0
M  V30 9619 H 893.713 -4.01358 -1.85375 0
M  V30 9620 N 892.772 -0.284283 -1.55015 0
M  V30 9621 C 894.02 0.329212 -1.99401 0
M  V30 9622 C 894.341 1.55687 -1.17416 0
M  V30 9623 O 893.611 1.94087 -0.265937 0
M  V30 9624 H 892.191 0.12463 -0.73653 0
M  V30 9625 H 894.853 -0.391743 -1.90922 0
M  V30 9626 H 893.949 0.61278 -3.06025 0
M  V30 9627 N 894.251 1.57596 -0.0117121 0
M  V30 9628 C 895.198 2.09153 0.975897 0
M  V30 9629 C 896.168 0.989579 1.33404 0
M  V30 9630 O 897.353 1.26273 1.43038 0
M  V30 9631 C 894.493 2.60906 2.2588 0
M  V30 9632 C 893.606 3.85046 1.95866 0
M  V30 9633 C 892.741 4.25257 3.18323 0
M  V30 9634 C 891.78 5.42202 2.84049 0
M  V30 9635 N 890.917 5.77651 3.99079 0
M  V30 9636 H 895.757 2.93261 0.52931 0
M  V30 9637 H 893.294 1.44965 0.249691 0
M  V30 9638 H 895.252 2.88995 3.00895 0
M  V30 9639 H 893.882 1.79654 2.68187 0
M  V30 9640 H 892.934 3.63794 1.11168 0
M  V30 9641 H 894.246 4.70151 1.66611 0
M  V30 9642 H 893.4 4.5469 4.01674 0
M  V30 9643 H 892.139 3.38884 3.50726 0
M  V30 9644 H 891.144 5.1248 1.99107 0
M  V30 9645 H 892.369 6.3026 2.52881 0
M  V30 9646 H 890.315 4.94235 4.31356 0
M  V30 9647 H 890.232 6.57356 3.73388 0
M  V30 9648 H 891.5 6.11681 4.83183 0
M  V30 9649 N 895.729 -0.261212 1.5542 0
M  V30 9650 C 897.006 -1.01321 1.67312 0
M  V30 9651 C 897.386 -2.0388 0.547356 0
M  V30 9652 O 896.734 -2.24003 -0.451083 0
M  V30 9653 C 896.944 -1.65943 3.07024 0
M  V30 9654 C 898.292 -2.16666 3.65159 0
M  V30 9655 O 899.316 -1.75909 3.09733 0
M  V30 9656 O 898.175 -2.91455 4.62294 0
M  V30 9657 H 895.269 -0.470714 0.679968 0
M  V30 9658 H 897.815 -0.256133 1.67756 0
M  V30 9659 H 896.587 -0.916868 3.80407 0
M  V30 9660 H 896.21 -2.48308 3.1053 0
M  V30 9661 N 897.207 -1.48554 -0.526253 0
M  V30 9662 C 898.137 -1.66252 -1.63959 0
M  V30 9663 C 899.118 -0.511351 -1.62232 0
M  V30 9664 O 900.303 -0.744322 -1.7937 0
M  V30 9665 C 897.433 -1.70556 -3.02536 0
M  V30 9666 C 896.387 -2.8521 -3.19123 0
M  V30 9667 C 895.713 -2.74606 -4.58798 0
M  V30 9668 C 897.013 -4.26463 -3.0154 0
M  V30 9669 H 898.707 -2.59459 -1.49404 0
M  V30 9670 H 896.253 -1.24862 -0.717326 0
M  V30 9671 H 898.206 -1.81524 -3.80298 0
M  V30 9672 H 896.93 -0.739297 -3.18123 0
M  V30 9673 H 895.589 -2.73802 -2.43779 0
M  V30 9674 H 895.237 -1.75941 -4.71226 0
M  V30 9675 H 894.937 -3.51544 -4.70841 0
M  V30 9676 H 896.461 -2.87548 -5.38655 0
M  V30 9677 H 897.875 -4.38685 -3.69091 0
M  V30 9678 H 896.272 -5.04428 -3.25073 0
M  V30 9679 H 897.342 -4.42667 -1.97925 0
M  V30 9680 N 898.685 0.775411 -1.37205 0
M  V30 9681 C 899.632 1.88857 -1.32671 0
M  V30 9682 C 900.602 1.64976 -0.192899 0
M  V30 9683 O 901.787 1.86944 -0.381673 0
M  V30 9684 C 898.927 3.25871 -1.13588 0
M  V30 9685 C 898.04 3.61731 -2.36167 0
M  V30 9686 C 897.175 4.87934 -2.09985 0
M  V30 9687 C 896.214 5.16514 -3.2845 0
M  V30 9688 N 895.351 6.33905 -3.01842 0
M  V30 9689 H 900.191 1.92068 -2.27846 0
M  V30 9690 H 897.728 0.939066 -1.13225 0
M  V30 9691 H 899.686 4.04903 -1.00546 0
M  V30 9692 H 898.316 3.22045 -0.220613 0
M  V30 9693 H 897.368 2.77712 -2.59962 0
M  V30 9694 H 898.68 3.78792 -3.24528 0
M  V30 9695 H 897.834 5.74863 -1.93953 0
M  V30 9696 H 896.573 4.7297 -1.18956 0
M  V30 9697 H 895.578 4.28063 -3.45025 0
M  V30 9698 H 896.803 5.33389 -4.20325 0
M  V30 9699 H 894.749 6.20306 -2.13439 0
M  V30 9700 H 894.666 6.51364 -3.83746 0
M  V30 9701 H 895.934 7.23779 -2.8942 0
M  V30 9702 N 900.163 1.21714 1.00117 0
M  V30 9703 C 901.409 1.03823 1.74208 0
M  V30 9704 C 901.742 -0.426733 1.89454 0
M  V30 9705 O 901.017 -1.31658 1.43166 0
M  V30 9706 C 901.3 1.74047 3.15246 0
M  V30 9707 C 901.153 3.28087 3.077 0
M  V30 9708 C 902.472 1.48614 4.14249 0
M  V30 9709 H 899.591 0.378573 0.632338 0
M  V30 9710 H 902.233 1.49942 1.16694 0
M  V30 9711 H 900.383 1.3484 3.64349 0
M  V30 9712 H 902.055 3.76686 2.6628 0
M  V30 9713 H 900.298 3.58191 2.44707 0
M  V30 9714 H 900.969 3.72392 4.07466 0
M  V30 9715 H 903.445 1.82656 3.73866 0
M  V30 9716 H 902.321 2.00257 5.11066 0
M  V30 9717 H 902.582 0.416957 4.40129 0
M  V30 9718 N 901.641 -1.19671 1.02551 0
M  V30 9719 C 902.918 -1.85014 0.634771 0
M  V30 9720 C 903.298 -1.91574 -0.886706 0
M  V30 9721 O 902.646 -1.43022 -1.78205 0
M  V30 9722 C 902.856 -3.24167 1.29292 0
M  V30 9723 C 904.204 -4.00363 1.41402 0
M  V30 9724 O 905.228 -3.33553 1.24983 0
M  V30 9725 O 904.087 -5.2003 1.6802 0
M  V30 9726 H 901.181 -0.797147 0.220196 0
M  V30 9727 H 903.727 -1.27188 1.12345 0
M  V30 9728 H 902.499 -3.14208 2.33215 0
M  V30 9729 H 902.122 -3.89634 0.791895 0
M  V30 9730 O 903.158 -0.938774 -1.31413 0
M  V30 9731 H 903.849 -0.565583 -1.85259 0
M  V30 END ATOM
M  V30 BEGIN BOND
M  V30 END BOND
M  V30 END CTAB
M  END
$$$$
