drugbank_target|Q9NWM0 Spermine oxidase (DB00127; DB04188)
 OpenBabel12092119343D

  0  0  0     0  0            999 V3000
M  V30 BEGIN CTAB
M  V30 COUNTS 8540 8647 0 0 0
M  V30 BEGIN ATOM
M  V30 1 H -0.908 1.98254 -0.117106 0
M  V30 2 N 0 1.576 0 0
M  V30 3 C 0.933 2.03868 1.02534 0
M  V30 4 C 1.911 0.928543 1.3348 0
M  V30 5 O 3.095 1.19667 1.45644 0
M  V30 6 C 0.222 2.43627 2.35294 0
M  V30 7 C -0.732 3.65373 2.2001 0
M  V30 8 S 0.101 5.13292 1.52614 0
M  V30 9 C 1.257 5.56322 2.86805 0
M  V30 10 H 1.49 2.90518 0.631377 0
M  V30 11 H -0.977 1.52953 0.210867 0
M  V30 12 H 0.981 2.67203 3.11629 0
M  V30 13 H -0.358 1.57376 2.7183 0
M  V30 14 H -1.165 3.90944 3.18086 0
M  V30 15 H -1.563 3.418 1.51819 0
M  V30 16 H 0.729 5.58782 3.83104 0
M  V30 17 H 1.672 6.56266 2.65933 0
M  V30 18 H 2.08 4.83886 2.90714 0
M  V30 19 N 1.4781 -0.272755 1.55222 0
M  V30 20 C 2.4101 -1.35946 1.8453 0
M  V30 21 C 3.4231 -1.45525 0.729818 0
M  V30 22 O 4.6121 -1.47337 1.00767 0
M  V30 23 C 1.7121 -2.74069 1.99347 0
M  V30 24 C 0.8851 -2.87079 3.30007 0
M  V30 25 C -0.0559 -4.05879 3.34886 0
M  V30 26 O -1.0299 -3.96626 4.08261 0
M  V30 27 N 0.1721 -5.17857 2.62307 0
M  V30 28 H 2.9371 -1.11149 2.78327 0
M  V30 29 H 0.4981 -0.462869 1.55142 0
M  V30 30 H 2.4901 -3.51838 1.99981 0
M  V30 31 H 1.0601 -2.91688 1.12415 0
M  V30 32 H 0.2801 -1.96193 3.41909 0
M  V30 33 H 1.5681 -2.92701 4.16177 0
M  V30 34 H 0.9661 -5.28261 2.02377 0
M  V30 35 H -0.4769 -5.93855 2.68663 0
M  V30 36 N 2.9562 -1.48159 -0.537278 0
M  V30 37 C 4.1812 -1.59707 -1.32319 0
M  V30 38 C 4.6062 -0.254859 -1.86365 0
M  V30 39 O 3.9642 0.772378 -1.64024 0
M  V30 40 C 4.0122 -2.6412 -2.45505 0
M  V30 41 O 3.1162 -2.20774 -3.48328 0
M  V30 42 H 2.4572 -0.535791 -0.392204 0
M  V30 43 H 4.9872 -1.94092 -0.647268 0
M  V30 44 H 4.9972 -2.85166 -2.91795 0
M  V30 45 H 3.6722 -3.61567 -2.05528 0
M  V30 46 H 2.2492 -2.09911 -3.08207 0
M  V30 47 N 4.4343 0.785586 -1.36625 0
M  V30 48 C 5.6743 1.55678 -1.32453 0
M  V30 49 C 6.0383 1.91769 0.0941089 0
M  V30 50 O 7.2393 2.67536 0.26042 0
M  V30 51 C 5.5103 2.79701 -2.22491 0
M  V30 52 S 7.0693 3.69907 -2.36038 0
M  V30 53 H 3.8873 0.533141 -0.470405 0
M  V30 54 H 6.4893 0.924953 -1.72235 0
M  V30 55 H 5.1933 2.51244 -3.24507 0
M  V30 56 H 4.7243 3.47854 -1.83742 0
M  V30 57 H 6.7393 4.71016 -1.56072 0
M  V30 58 N 5.9124 1.20967 1.01018 0
M  V30 59 C 6.8224 0.980157 2.13143 0
M  V30 60 C 7.8384 -0.0660665 1.73875 0
M  V30 61 O 9.0144 0.122821 2.01025 0
M  V30 62 C 6.0794 0.54216 3.42435 0
M  V30 63 C 5.1404 1.65999 3.95908 0
M  V30 64 C 4.3734 1.2428 5.19028 0
M  V30 65 O 4.5964 0.114196 5.70286 0
M  V30 66 O 3.5304 2.05271 5.65816 0
M  V30 67 H 7.3564 1.91913 2.35379 0
M  V30 68 H 4.9414 0.994099 1.11526 0
M  V30 69 H 6.8234 0.30744 4.20277 0
M  V30 70 H 5.4984 -0.36815 3.216 0
M  V30 71 H 4.4054 1.94906 3.19316 0
M  V30 72 H 5.7384 2.54753 4.21143 0
M  V30 73 N 7.3905 -1.2043 1.01659 0
M  V30 74 C 8.6155 -1.94318 0.724942 0
M  V30 75 C 9.0405 -1.74266 -0.708034 0
M  V30 76 O 8.3985 -1.03694 -1.48719 0
M  V30 77 C 8.4465 -3.44486 1.06591 0
M  V30 78 O 7.5505 -4.12017 0.177599 0
M  V30 79 H 6.8915 -0.60708 0.26898 0
M  V30 80 H 9.4215 -1.52861 1.35995 0
M  V30 81 H 9.4315 -3.95106 1.01762 0
M  V30 82 H 8.1065 -3.58404 2.10997 0
M  V30 83 H 6.6835 -3.71821 0.283421 0
M  V30 84 N 8.8686 -0.792821 -1.36206 0
M  V30 85 C 10.0936 -0.377701 -2.03932 0
M  V30 86 C 10.5186 0.998947 -1.59382 0
M  V30 87 O 9.8766 1.64421 -0.763903 0
M  V30 88 C 9.9246 -0.453635 -3.57735 0
M  V30 89 O 9.0286 0.538151 -4.08874 0
M  V30 90 H 8.3696 -0.159855 -0.644471 0
M  V30 91 H 10.8996 -1.07488 -1.7409 0
M  V30 92 H 10.9096 -0.318464 -4.06755 0
M  V30 93 H 9.5846 -1.45784 -3.89512 0
M  V30 94 H 8.1616 0.364359 -3.71116 0
M  V30 95 N 10.3467 1.47872 -0.545128 0
M  V30 96 C 11.5947 2.02093 -0.016553 0
M  V30 97 C 11.9157 1.42305 1.3332 0
M  V30 98 O 11.1857 0.593853 1.86682 0
M  V30 99 H 9.7657 0.746993 -0.00313038 0
M  V30 100 H 12.4277 1.81414 -0.712397 0
M  V30 101 H 11.5237 3.11996 0.0805422 0
M  V30 102 N 11.8248 0.280983 1.55075 0
M  V30 103 C 13.1018 -0.386207 1.91749 0
M  V30 104 C 13.4818 -1.73264 1.20594 0
M  V30 105 O 12.8298 -2.26034 0.334784 0
M  V30 106 C 13.0398 -0.520687 3.45094 0
M  V30 107 C 14.3878 -0.800865 4.16979 0
M  V30 108 O 15.4118 -0.605271 3.5102 0
M  V30 109 O 14.2708 -1.1753 5.33712 0
M  V30 110 H 11.3648 -0.212408 0.799257 0
M  V30 111 H 13.9108 0.327568 1.66509 0
M  V30 112 H 12.6828 0.426633 3.88967 0
M  V30 113 H 12.3058 -1.2837 3.76307 0
M  V30 114 N 13.3029 -1.57598 0.00835791 0
M  V30 115 C 14.5279 -1.95617 -0.689103 0
M  V30 116 C 14.9529 -0.883753 -1.66046 0
M  V30 117 O 14.3109 0.157352 -1.80616 0
M  V30 118 C 14.3589 -3.32736 -1.38994 0
M  V30 119 O 13.4629 -3.27631 -2.50463 0
M  V30 120 H 12.8039 -0.638379 -0.182668 0
M  V30 121 H 15.3339 -2.045 0.064036 0
M  V30 122 H 15.3439 -3.68494 -1.75147 0
M  V30 123 H 14.0189 -4.1034 -0.677778 0
M  V30 124 H 12.5959 -3.03561 -2.16576 0
M  V30 125 N 14.781 0.264519 -1.55364 0
M  V30 126 C 15.744 1.31046 -1.88042 0
M  V30 127 C 16.744 1.41943 -0.755569 0
M  V30 128 O 17.934 1.40947 -1.02369 0
M  V30 129 C 15.066 2.69067 -2.09323 0
M  V30 130 H 16.259 1.03297 -2.81549 0
M  V30 131 H 13.812 0.502989 -1.47986 0
M  V30 132 H 14.547 3.01982 -1.18226 0
M  V30 133 H 14.332 2.62542 -2.91229 0
M  V30 134 H 15.822 3.44623 -2.35848 0
M  V30 135 N 16.2591 1.48442 0.529413 0
M  V30 136 C 17.5361 1.46978 1.29062 0
M  V30 137 C 17.9161 0.181769 2.10316 0
M  V30 138 O 17.2641 -0.836481 2.12639 0
M  V30 139 C 17.4741 2.7321 2.17157 0
M  V30 140 C 18.8221 3.21562 2.77278 0
M  V30 141 O 19.8461 2.74131 2.27444 0
M  V30 142 O 18.7051 4.04094 3.67927 0
M  V30 143 H 15.7991 0.587003 0.582543 0
M  V30 144 H 18.3451 1.60676 0.546021 0
M  V30 145 H 17.1171 3.58465 1.56903 0
M  V30 146 H 16.7401 2.62235 2.98862 0
M  V30 147 N 17.7372 -0.778329 1.37039 0
M  V30 148 C 19.0142 -1.52551 1.22424 0
M  V30 149 C 19.3942 -2.10288 -0.184964 0
M  V30 150 O 18.7422 -1.94953 -1.19187 0
M  V30 151 C 18.9522 -2.61164 2.31504 0
M  V30 152 C 20.3002 -3.28746 2.68721 0
M  V30 153 O 21.3242 -2.71455 2.30631 0
M  V30 154 O 20.1832 -4.3231 3.3432 0
M  V30 155 H 17.2772 -0.675343 0.477326 0
M  V30 156 H 19.8232 -0.815859 1.48801 0
M  V30 157 H 18.5952 -2.16574 3.25901 0
M  V30 158 H 18.2182 -3.39737 2.06554 0
M  V30 159 N 19.2153 -1.21501 -1.00376 0
M  V30 160 C 20.6263 -1.03146 -1.55621 0
M  V30 161 C 20.9773 0.408375 -1.91903 0
M  V30 162 O 20.1023 1.29177 -1.73616 0
M  V30 163 C 20.6973 -1.86612 -2.82775 0
M  V30 164 C 19.2563 -1.72586 -3.34501 0
M  V30 165 C 18.4033 -1.83747 -2.07683 0
M  V30 166 H 21.3543 -1.35505 -0.826081 0
M  V30 167 H 21.3753 -1.3771 -3.54706 0
M  V30 168 H 20.8873 -2.91399 -2.56336 0
M  V30 169 H 18.9883 -0.704877 -3.65872 0
M  V30 170 H 19.1013 -2.54623 -4.05837 0
M  V30 171 H 17.4653 -1.27069 -2.20739 0
M  V30 172 H 18.2483 -2.90044 -1.83655 0
M  V30 173 N 20.6934 1.19889 -1.02296 0
M  V30 174 C 21.6234 2.25141 -0.619174 0
M  V30 175 C 22.6044 1.66051 0.368915 0
M  V30 176 O 23.7894 1.92546 0.252941 0
M  V30 177 C 20.9194 3.4728 0.0368783 0
M  V30 178 C 19.8734 4.19005 -0.872865 0
M  V30 179 C 19.1994 5.34637 -0.0822402 0
M  V30 180 C 20.4994 4.74452 -2.18387 0
M  V30 181 H 22.1934 2.59171 -1.49903 0
M  V30 182 H 19.7394 1.24579 -0.722222 0
M  V30 183 H 21.6924 4.20098 0.330958 0
M  V30 184 H 20.4164 3.12433 0.95149 0
M  V30 185 H 19.0754 3.48061 -1.15105 0
M  V30 186 H 18.7234 4.96034 0.83422 0
M  V30 187 H 18.4234 5.83557 -0.688149 0
M  V30 188 H 19.9474 6.10255 0.205238 0
M  V30 189 H 21.3614 5.39055 -1.95172 0
M  V30 190 H 19.7584 5.33834 -2.74119 0
M  V30 191 H 20.8284 3.92844 -2.84257 0
M  V30 192 N 22.1715 0.800033 1.35784 0
M  V30 193 C 23.3965 0.388511 2.03729 0
M  V30 194 C 23.8215 -0.990481 1.5991 0
M  V30 195 O 23.1795 -1.64013 0.772612 0
M  V30 196 C 23.2275 0.4726 3.5749 0
M  V30 197 O 22.3315 -0.51646 4.09153 0
M  V30 198 H 21.6725 0.163271 0.643614 0
M  V30 199 H 24.2025 1.0841 1.73518 0
M  V30 200 H 24.2125 0.34003 4.06581 0
M  V30 201 H 22.8875 1.47848 3.88734 0
M  V30 202 H 21.4645 -0.344673 3.71304 0
M  V30 203 N 23.6496 -1.47581 0.552962 0
M  V30 204 C 25.0656 -1.5818 0.212424 0
M  V30 205 C 25.2656 -1.55213 -1.28496 0
M  V30 206 O 24.3216 -1.45329 -2.06484 0
M  V30 207 C 25.6346 -2.88865 0.835318 0
M  V30 208 C 27.1826 -3.0244 0.806156 0
M  V30 209 C 27.6576 -4.35819 1.40804 0
M  V30 210 N 29.1486 -4.42444 1.37103 0
M  V30 211 C 29.8836 -5.44202 1.80641 0
M  V30 212 N 29.3796 -6.52795 2.32015 0
M  V30 213 N 31.1726 -5.35222 1.71738 0
M  V30 214 H 23.3236 -1.47753 1.52587 0
M  V30 215 H 25.5866 -0.702941 0.636064 0
M  V30 216 H 25.2926 -2.9676 1.88749 0
M  V30 217 H 25.1666 -3.7579 0.325848 0
M  V30 218 H 27.5536 -2.94144 -0.237317 0
M  V30 219 H 27.6346 -2.17068 1.35334 0
M  V30 220 H 27.2786 -4.44871 2.45056 0
M  V30 221 H 27.2086 -5.19916 0.836338 0
M  V30 222 H 29.6996 -3.6456 0.995202 0
M  V30 223 H 30.0126 -7.26609 2.63171 0
M  V30 224 H 28.3576 -6.53696 2.36023 0
M  V30 225 H 31.5486 -4.49284 1.31382 0
M  V30 226 H 31.7216 -6.14389 2.05987 0
M  V30 227 N 25.1277 -0.289203 -1.54924 0
M  V30 228 C 26.3757 0.322879 -1.99504 0
M  V30 229 C 26.6967 1.55313 -1.1791 0
M  V30 230 O 25.9667 1.94001 -0.272097 0
M  V30 231 H 24.5467 0.122291 -0.736922 0
M  V30 232 H 27.2087 -0.397802 -1.90797 0
M  V30 233 H 26.3047 0.603061 -3.06218 0
M  V30 234 N 26.6058 1.57591 -0.0167156 0
M  V30 235 C 27.5358 2.12496 0.967858 0
M  V30 236 C 28.5168 1.03807 1.34752 0
M  V30 237 O 29.7018 1.31577 1.42833 0
M  V30 238 C 26.8318 2.64194 2.25431 0
M  V30 239 C 25.7858 3.77559 2.01576 0
M  V30 240 C 25.1118 4.15636 3.36379 0
M  V30 241 C 26.4118 5.04151 1.36489 0
M  V30 242 H 28.1058 2.95013 0.510643 0
M  V30 243 H 25.6518 1.41915 0.244181 0
M  V30 244 H 27.6048 3.01236 2.94678 0
M  V30 245 H 26.3288 1.78821 2.73296 0
M  V30 246 H 24.9878 3.40937 1.34751 0
M  V30 247 H 24.6358 3.27263 3.81979 0
M  V30 248 H 24.3358 4.92022 3.21229 0
M  V30 249 H 25.8598 4.5525 4.06915 0
M  V30 250 H 27.2738 5.38857 1.95718 0
M  V30 251 H 25.6708 5.85453 1.31776 0
M  V30 252 H 26.7408 4.83733 0.336219 0
M  V30 253 N 28.0839 -0.256276 1.55502 0
M  V30 254 C 29.4999 -0.604325 1.47716 0
M  V30 255 C 29.6999 -1.88763 0.705039 0
M  V30 256 O 28.7559 -2.51445 0.230613 0
M  V30 257 C 30.0689 -0.715756 2.92057 0
M  V30 258 C 31.6169 -0.808706 3.02372 0
M  V30 259 C 32.0919 -0.951777 4.48001 0
M  V30 260 N 33.5829 -1.01688 4.519 0
M  V30 261 C 34.3179 -1.14668 5.61817 0
M  V30 262 N 33.8139 -1.24261 6.81565 0
M  V30 263 N 35.6069 -1.1791 5.49594 0
M  V30 264 H 27.7579 0.586291 2.04148 0
M  V30 265 H 30.0209 0.201015 0.926443 0
M  V30 266 H 29.7269 0.157027 3.51349 0
M  V30 267 H 29.6009 -1.59071 3.42018 0
M  V30 268 H 31.9879 -1.67195 2.43166 0
M  V30 269 H 32.0689 0.0912063 2.55637 0
M  V30 270 H 31.7129 -0.0931291 5.07815 0
M  V30 271 H 31.6429 -1.86659 4.92408 0
M  V30 272 H 34.1339 -0.954468 3.65648 0
M  V30 273 H 34.4469 -1.34046 7.61086 0
M  V30 274 H 32.7919 -1.21236 6.84344 0
M  V30 275 H 35.9829 -1.10057 4.54978 0
M  V30 276 H 36.1559 -1.27681 6.35296 0
M  V30 277 N 29.562 -1.4872 -0.521534 0
M  V30 278 C 30.978 -1.35028 -0.850855 0
M  V30 279 C 31.178 -0.367712 -1.98116 0
M  V30 280 O 30.234 0.208037 -2.51642 0
M  V30 281 C 31.547 -2.75263 -1.21041 0
M  V30 282 C 33.095 -2.83813 -1.31981 0
M  V30 283 C 33.57 -4.24769 -1.71276 0
M  V30 284 N 35.061 -4.27482 -1.78363 0
M  V30 285 C 35.796 -5.33494 -2.1017 0
M  V30 286 N 35.292 -6.49775 -2.40343 0
M  V30 287 N 37.085 -5.20894 -2.11248 0
M  V30 288 H 29.236 -2.11214 0.22413 0
M  V30 289 H 31.499 -0.947252 0.0376439 0
M  V30 290 H 31.205 -3.48765 -0.453415 0
M  V30 291 H 31.079 -3.09327 -2.15863 0
M  V30 292 H 33.466 -2.10561 -2.06756 0
M  V30 293 H 33.547 -2.53358 -0.352596 0
M  V30 294 H 33.191 -4.9854 -0.970588 0
M  V30 295 H 33.121 -4.52673 -2.69062 0
M  V30 296 H 35.612 -3.43611 -1.57288 0
M  V30 297 H 35.925 -7.26402 -2.63743 0
M  V30 298 H 34.27 -6.53035 -2.37844 0
M  V30 299 H 37.461 -4.29065 -1.87139 0
M  V30 300 H 37.634 -6.03612 -2.35704 0
M  V30 301 N 31.0401 0.771051 -1.3745 0
M  V30 302 C 32.4561 1.07171 -1.18265 0
M  V30 303 C 32.6561 2.01491 -0.019287 0
M  V30 304 O 31.7121 2.44244 0.640408 0
M  V30 305 C 33.0251 1.66854 -2.50161 0
M  V30 306 C 34.5731 1.79109 -2.56689 0
M  V30 307 C 35.0481 2.42205 -3.88717 0
M  V30 308 N 36.5391 2.49655 -3.90162 0
M  V30 309 C 37.2741 2.9933 -4.8907 0
M  V30 310 N 36.7701 3.49172 -5.98374 0
M  V30 311 N 38.5631 2.9821 -4.76474 0
M  V30 312 H 30.7141 0.144796 -2.11906 0
M  V30 313 H 32.9771 0.126863 -0.939473 0
M  V30 314 H 32.6831 1.05017 -3.35655 0
M  V30 315 H 32.5571 2.6614 -2.673 0
M  V30 316 H 34.9441 2.40077 -1.71601 0
M  V30 317 H 35.0251 0.785757 -2.43433 0
M  V30 318 H 34.6691 1.81875 -4.74219 0
M  V30 319 H 34.5991 3.43345 -3.99276 0
M  V30 320 H 37.0901 2.14383 -3.11205 0
M  V30 321 H 37.4031 3.8548 -6.69795 0
M  V30 322 H 35.7481 3.47275 -6.02018 0
M  V30 323 H 38.9391 2.58572 -3.90203 0
M  V30 324 H 39.1121 3.36613 -5.53711 0
M  V30 325 N 32.5182 1.22032 0.997298 0
M  V30 326 C 33.7662 1.04016 1.73278 0
M  V30 327 C 34.0872 -0.426255 1.90284 0
M  V30 328 O 33.3572 -1.30694 1.45931 0
M  V30 329 H 31.9372 0.381897 0.642 0
M  V30 330 H 34.5992 1.5347 1.20137 0
M  V30 331 H 33.6952 1.51441 2.72896 0
M  V30 332 N 33.9963 -1.19345 1.0293 0
M  V30 333 C 34.9283 -2.22036 0.56857 0
M  V30 334 C 35.9413 -1.58865 -0.355779 0
M  V30 335 O 37.1303 -1.77851 -0.152103 0
M  V30 336 C 34.2303 -3.38363 -0.190752 0
M  V30 337 C 33.4033 -4.31118 0.738643 0
M  V30 338 C 32.4623 -5.26194 0.0246497 0
M  V30 339 O 31.4883 -5.65461 0.651354 0
M  V30 340 N 32.6903 -5.66971 -1.24594 0
M  V30 341 H 35.4553 -2.6219 1.45177 0
M  V30 342 H 33.0163 -1.34015 0.908381 0
M  V30 343 H 35.0083 -3.98981 -0.677961 0
M  V30 344 H 33.5783 -2.96994 -0.975366 0
M  V30 345 H 32.7983 -3.68276 1.40593 0
M  V30 346 H 34.0863 -4.90001 1.37029 0
M  V30 347 H 33.4843 -5.37104 -1.77583 0
M  V30 348 H 32.0413 -6.2984 -1.67764 0
M  V30 349 N 35.4744 -0.807222 -1.35358 0
M  V30 350 C 36.8854 -0.44876 -1.81226 0
M  V30 351 C 37.2364 1.02929 -1.67033 0
M  V30 352 O 36.3614 1.79991 -1.20133 0
M  V30 353 C 36.9564 -0.807774 -3.2903 0
M  V30 354 C 35.5154 -0.501901 -3.73039 0
M  V30 355 C 34.6624 -1.03304 -2.57339 0
M  V30 356 H 37.6134 -0.998808 -1.23327 0
M  V30 357 H 37.6344 -0.10554 -3.80354 0
M  V30 358 H 37.1464 -1.88357 -3.39328 0
M  V30 359 H 35.2474 0.565128 -3.68289 0
M  V30 360 H 35.3604 -1.03497 -4.67787 0
M  V30 361 H 33.7244 -0.455339 -2.50597 0
M  V30 362 H 34.5074 -2.11496 -2.70415 0
M  V30 363 N 36.9525 1.47285 -0.560781 0
M  V30 364 C 38.3685 1.58065 -0.22081 0
M  V30 365 C 38.5685 1.55892 1.27671 0
M  V30 366 O 37.6245 1.46422 2.0571 0
M  V30 367 C 38.9375 2.88418 -0.850625 0
M  V30 368 C 40.4855 3.02009 -0.822184 0
M  V30 369 C 40.9605 4.35066 -1.43113 0
M  V30 370 N 42.4515 4.41711 -1.39448 0
M  V30 371 C 43.1865 5.43237 -1.83525 0
M  V30 372 N 42.6825 6.51555 -2.35474 0
M  V30 373 N 44.4755 5.34304 -1.74574 0
M  V30 374 H 36.6265 1.46941 -1.53369 0
M  V30 375 H 38.8895 0.699558 -0.639783 0
M  V30 376 H 38.5955 2.95755 -1.9032 0
M  V30 377 H 38.4695 3.75612 -0.345773 0
M  V30 378 H 40.8565 2.94266 0.221714 0
M  V30 379 H 40.9375 2.16347 -1.36483 0
M  V30 380 H 40.5815 4.43565 -2.47412 0
M  V30 381 H 40.5115 5.19465 -0.863899 0
M  V30 382 H 43.0025 3.64027 -1.01452 0
M  V30 383 H 43.3155 7.25203 -2.67021 0
M  V30 384 H 41.6605 6.52435 -2.39487 0
M  V30 385 H 44.8515 4.48581 -1.33763 0
M  V30 386 H 45.0245 6.13288 -2.09242 0
M  V30 387 N 38.4306 0.297415 1.54768 0
M  V30 388 C 39.6766 -0.313376 2.00364 0
M  V30 389 C 40.0096 -1.53815 1.18553 0
M  V30 390 O 39.2846 -1.92739 0.261103 0
M  V30 391 C 39.5676 -0.673525 3.53745 0
M  V30 392 C 39.4206 0.560133 4.46299 0
M  V30 393 C 40.7396 -1.50143 4.13697 0
M  V30 394 H 37.8586 -0.112428 0.728374 0
M  V30 395 H 40.5006 0.4088 1.8555 0
M  V30 396 H 38.6506 -1.28881 3.665 0
M  V30 397 H 40.3226 1.19863 4.45455 0
M  V30 398 H 38.5656 1.19405 4.17043 0
M  V30 399 H 39.2366 0.26405 5.51368 0
M  V30 400 H 41.7126 -0.981588 4.04356 0
M  V30 401 H 40.5886 -1.72221 5.21182 0
M  V30 402 H 40.8496 -2.48952 3.65343 0
M  V30 403 N 39.9087 -1.5758 0.0250728 0
M  V30 404 C 41.1547 -1.91917 -0.655413 0
M  V30 405 C 41.4877 -0.901433 -1.72011 0
M  V30 406 O 40.7627 0.0764069 -1.9435 0
M  V30 407 C 41.0457 -3.36751 -1.27558 0
M  V30 408 C 40.8987 -4.49258 -0.220719 0
M  V30 409 C 42.2177 -3.81469 -2.19475 0
M  V30 410 H 39.3367 -0.697925 -0.23679 0
M  V30 411 H 41.9787 -1.89825 0.0815036 0
M  V30 412 H 40.1287 -3.38664 -1.90365 0
M  V30 413 H 41.8007 -4.59478 0.409601 0
M  V30 414 H 40.0437 -4.31415 0.454264 0
M  V30 415 H 40.7147 -5.47618 -0.694175 0
M  V30 416 H 43.1907 -3.81266 -1.66659 0
M  V30 417 H 42.0667 -4.83512 -2.59822 0
M  V30 418 H 42.3277 -3.16744 -3.08424 0
M  V30 419 N 41.3868 0.248026 -1.55636 0
M  V30 420 C 42.6328 0.97767 -1.77678 0
M  V30 421 C 42.9658 1.85016 -0.590135 0
M  V30 422 O 42.2408 1.90095 0.411611 0
M  V30 423 C 42.5238 1.83914 -3.09593 0
M  V30 424 C 42.3768 0.99491 -4.38659 0
M  V30 425 C 43.6958 2.82183 -3.37729 0
M  V30 426 H 40.8148 0.354005 -0.646413 0
M  V30 427 H 43.4568 0.248253 -1.88371 0
M  V30 428 H 41.6068 2.46104 -3.00608 0
M  V30 429 H 43.2788 0.391789 -4.59633 0
M  V30 430 H 41.5218 0.299231 -4.32767 0
M  V30 431 H 42.1928 1.63145 -5.2734 0
M  V30 432 H 44.6688 2.30129 -3.4667 0
M  V30 433 H 43.5448 3.39582 -4.31249 0
M  V30 434 H 43.8058 3.58588 -2.58586 0
M  V30 435 N 42.8649 1.48995 0.513639 0
M  V30 436 C 44.1139 1.57093 1.2651 0
M  V30 437 C 44.4269 0.257091 1.93903 0
M  V30 438 O 45.6329 0.216478 2.70636 0
M  V30 439 C 44.0889 2.77118 2.29638 0
M  V30 440 C 43.6969 4.15209 1.68241 0
M  V30 441 C 45.4409 2.94538 3.05692 0
M  V30 442 C 43.3479 5.26474 2.69406 0
M  V30 443 H 42.2779 0.584876 0.475854 0
M  V30 444 H 44.9289 1.7536 0.540487 0
M  V30 445 H 43.3109 2.52319 3.05207 0
M  V30 446 H 44.4849 4.50094 0.987505 0
M  V30 447 H 42.7999 4.03042 1.04623 0
M  V30 448 H 45.3969 3.74832 3.8132 0
M  V30 449 H 45.7399 2.04614 3.62545 0
M  V30 450 H 46.2729 3.19316 2.37238 0
M  V30 451 H 43.0119 6.18417 2.17351 0
M  V30 452 H 42.5319 4.96058 3.37175 0
M  V30 453 H 44.2109 5.55277 3.32078 0
M  V30 454 N 44.343 -0.763751 1.37857 0
M  V30 455 C 45.591 -1.51957 1.33243 0
M  V30 456 C 45.912 -1.94835 -0.0801709 0
M  V30 457 O 45.182 -1.66894 -1.02582 0
M  V30 458 H 43.762 -0.563626 0.49024 0
M  V30 459 H 46.424 -0.908504 1.7243 0
M  V30 460 H 45.52 -2.41523 1.97669 0
M  V30 461 N 45.8211 -1.22559 -0.990812 0
M  V30 462 C 46.7841 -0.998863 -2.0629 0
M  V30 463 C 47.7841 0.0354834 -1.60761 0
M  V30 464 O 48.9741 -0.203231 -1.7301 0
M  V30 465 C 46.1061 -0.509203 -3.37076 0
M  V30 466 H 47.2991 -1.95014 -2.27837 0
M  V30 467 H 44.8521 -1.04456 -1.16269 0
M  V30 468 H 45.5871 0.446335 -3.21214 0
M  V30 469 H 45.3721 -1.25547 -3.71457 0
M  V30 470 H 46.8621 -0.370888 -4.1595 0
M  V30 471 N 47.2992 1.18797 -1.03562 0
M  V30 472 C 48.5472 1.88278 -0.734569 0
M  V30 473 C 48.8682 1.8043 0.739586 0
M  V30 474 O 48.1382 1.21925 1.53333 0
M  V30 475 H 46.7182 0.696991 -0.268725 0
M  V30 476 H 49.3802 1.44192 -1.31129 0
M  V30 477 H 48.4762 2.94443 -1.03489 0
M  V30 478 N 48.7773 0.814389 1.34928 0
M  V30 479 C 49.7073 0.244827 2.32213 0
M  V30 480 C 50.6883 -0.634024 1.57842 0
M  V30 481 O 51.8733 -0.562676 1.8587 0
M  V30 482 C 49.0033 -0.601106 3.42058 0
M  V30 483 C 47.9573 0.179896 4.27622 0
M  V30 484 C 47.2833 -0.788237 5.28858 0
M  V30 485 C 48.5833 1.38329 5.03649 0
M  V30 486 H 50.2773 1.05763 2.80097 0
M  V30 487 H 47.8233 0.510029 1.34665 0
M  V30 488 H 49.7763 -1.00968 4.09125 0
M  V30 489 H 48.5003 -1.44688 2.92802 0
M  V30 490 H 47.1593 0.569739 3.62146 0
M  V30 491 H 46.8073 -1.62973 4.75866 0
M  V30 492 H 46.5073 -0.269942 5.8698 0
M  V30 493 H 48.0313 -1.19485 5.98795 0
M  V30 494 H 49.4453 1.04918 5.63618 0
M  V30 495 H 47.8423 1.83662 5.71304 0
M  V30 496 H 48.9123 2.16592 4.33839 0
M  V30 497 N 50.2554 -1.46986 0.568584 0
M  V30 498 C 51.2184 -2.28624 -0.162366 0
M  V30 499 C 52.2184 -1.37596 -0.832103 0
M  V30 500 O 53.4084 -1.60115 -0.68622 0
M  V30 501 C 50.5404 -3.17596 -1.23878 0
M  V30 502 H 51.7334 -2.94722 0.554899 0
M  V30 503 H 49.2864 -1.52863 0.325976 0
M  V30 504 H 50.0214 -2.56214 -1.98808 0
M  V30 505 H 49.8064 -3.846 -0.763219 0
M  V30 506 H 51.2964 -3.79078 -1.75185 0
M  V30 507 N 51.7335 -0.305618 -1.54608 0
M  V30 508 C 52.9815 0.301701 -1.99835 0
M  V30 509 C 53.3025 1.54054 -1.19551 0
M  V30 510 O 52.5725 1.93702 -0.292658 0
M  V30 511 H 51.1525 0.114468 -0.738178 0
M  V30 512 H 53.8145 -0.418016 -1.90364 0
M  V30 513 H 52.9105 0.570548 -3.06841 0
M  V30 514 N 53.2116 1.57565 -0.0334293 0
M  V30 515 C 54.1416 2.13511 0.945265 0
M  V30 516 C 55.1226 1.05231 1.33643 0
M  V30 517 O 56.3076 1.33084 1.41429 0
M  V30 518 C 53.4376 2.6657 2.22616 0
M  V30 519 C 52.3916 3.79676 1.97561 0
M  V30 520 C 51.7176 4.1918 3.31952 0
M  V30 521 C 53.0176 5.0557 1.31135 0
M  V30 522 H 54.7116 2.95538 0.479325 0
M  V30 523 H 52.2576 1.42166 0.229115 0
M  V30 524 H 54.2106 3.04344 2.91466 0
M  V30 525 H 52.9346 1.8171 2.71384 0
M  V30 526 H 51.5936 3.42347 1.31127 0
M  V30 527 H 51.2416 3.31296 3.78487 0
M  V30 528 H 50.9416 4.95402 3.15992 0
M  V30 529 H 52.4656 4.59541 4.02063 0
M  V30 530 H 53.8796 5.40903 1.89992 0
M  V30 531 H 52.2766 5.86818 1.25559 0
M  V30 532 H 53.3466 4.84062 0.284894 0
M  V30 533 N 54.6897 -0.239769 1.55765 0
M  V30 534 C 55.6527 -1.28038 1.90103 0
M  V30 535 C 56.6527 -1.40723 0.778055 0
M  V30 536 O 57.8427 -1.39301 1.04599 0
M  V30 537 C 54.9747 -2.65702 2.13577 0
M  V30 538 H 56.1677 -0.988048 2.83157 0
M  V30 539 H 53.7207 -0.479382 1.48767 0
M  V30 540 H 54.4557 -3.00063 1.23015 0
M  V30 541 H 54.2407 -2.57875 2.95369 0
M  V30 542 H 55.7307 -3.40828 2.41301 0
M  V30 543 N 56.1678 -1.49265 -0.50573 0
M  V30 544 C 57.1308 -1.65075 -1.59006 0
M  V30 545 C 58.1308 -0.522768 -1.52065 0
M  V30 546 O 59.3208 -0.789117 -1.55302 0
M  V30 547 C 56.4528 -1.64369 -2.98656 0
M  V30 548 H 57.6458 -2.61784 -1.46319 0
M  V30 549 H 55.1988 -1.38226 -0.729616 0
M  V30 550 H 55.9338 -0.692272 -3.16825 0
M  V30 551 H 55.7188 -2.46282 -3.05103 0
M  V30 552 H 57.2088 -1.78674 -3.77446 0
M  V30 553 N 57.6459 0.756429 -1.3826 0
M  V30 554 C 58.6089 1.85176 -1.35065 0
M  V30 555 C 59.6089 1.58818 -0.251703 0
M  V30 556 O 60.7989 1.66615 -0.508433 0
M  V30 557 C 57.9309 3.22596 -1.10201 0
M  V30 558 H 59.1239 1.89417 -2.3251 0
M  V30 559 H 56.6769 0.95783 -1.23512 0
M  V30 560 H 57.4119 3.24025 -0.133504 0
M  V30 561 H 57.1969 3.43122 -1.89762 0
M  V30 562 H 58.6869 4.02673 -1.10654 0
M  V30 563 N 59.124 1.23083 0.984299 0
M  V30 564 C 60.071 1.00854 2.07598 0
M  V30 565 C 61.041 -0.0726709 1.65941 0
M  V30 566 O 62.226 0.0786535 1.90638 0
M  V30 567 C 59.366 0.601645 3.39815 0
M  V30 568 C 58.479 1.75456 3.94765 0
M  V30 569 C 57.614 1.29482 5.15177 0
M  V30 570 C 56.653 2.41873 5.62284 0
M  V30 571 N 55.79 1.96885 6.73929 0
M  V30 572 H 60.63 1.943 2.25946 0
M  V30 573 H 58.167 0.968001 1.10762 0
M  V30 574 H 60.125 0.346854 4.15756 0
M  V30 575 H 58.755 -0.295803 3.21442 0
M  V30 576 H 57.807 2.12346 3.15616 0
M  V30 577 H 59.119 2.59965 4.25699 0
M  V30 578 H 58.273 0.997923 5.98437 0
M  V30 579 H 57.012 0.420046 4.85888 0
M  V30 580 H 56.017 2.72342 4.77608 0
M  V30 581 H 57.242 3.29881 5.93595 0
M  V30 582 H 55.188 1.11782 6.46406 0
M  V30 583 H 55.105 2.74956 7.04227 0
M  V30 584 H 56.373 1.70289 7.60672 0
M  V30 585 N 60.6021 -1.18246 1.0419 0
M  V30 586 C 61.5651 -2.20128 0.638452 0
M  V30 587 C 62.5651 -1.57885 -0.304805 0
M  V30 588 O 63.7551 -1.73967 -0.0900369 0
M  V30 589 C 60.8871 -3.4084 -0.0637751 0
M  V30 590 H 62.0801 -2.57336 1.54007 0
M  V30 591 H 59.6331 -1.32152 0.834598 0
M  V30 592 H 60.3681 -3.09166 -0.979136 0
M  V30 593 H 60.1531 -3.8726 0.614198 0
M  V30 594 H 61.6431 -4.16274 -0.332512 0
M  V30 595 N 62.0802 -0.821533 -1.34494 0
M  V30 596 C 63.0102 -0.257138 -2.3208 0
M  V30 597 C 63.9912 0.625645 -1.58176 0
M  V30 598 O 65.1762 0.552811 -1.86166 0
M  V30 599 C 62.3062 0.582958 -3.42372 0
M  V30 600 C 61.2602 -0.202571 -4.2752 0
M  V30 601 C 60.5862 0.760179 -5.29269 0
M  V30 602 C 61.8862 -1.40998 -5.02908 0
M  V30 603 H 63.5802 -1.07247 -2.79532 0
M  V30 604 H 61.1262 -0.517163 -1.34393 0
M  V30 605 H 63.0792 0.987972 -4.09655 0
M  V30 606 H 61.8032 1.43133 -2.93565 0
M  V30 607 H 60.4622 -0.588936 -3.61838 0
M  V30 608 H 60.1102 1.60447 -4.76724 0
M  V30 609 H 59.8102 0.238809 -5.87115 0
M  V30 610 H 61.3342 1.16308 -5.9942 0
M  V30 611 H 62.7482 -1.07905 -5.63054 0
M  V30 612 H 61.1452 -1.86689 -5.70322 0
M  V30 613 H 62.2152 -2.1889 -4.32684 0
M  V30 614 N 63.5583 1.46682 -0.576371 0
M  V30 615 C 64.4883 2.33028 0.148397 0
M  V30 616 C 65.4693 1.44961 0.889956 0
M  V30 617 O 66.6543 1.73789 0.866662 0
M  V30 618 C 63.7843 3.27117 1.1667 0
M  V30 619 C 62.7383 4.24575 0.540386 0
M  V30 620 C 62.0643 5.08126 1.6647 0
M  V30 621 C 63.3643 5.19722 -0.518331 0
M  V30 622 H 65.0583 2.93875 -0.572509 0
M  V30 623 H 62.6043 1.41315 -0.276768 0
M  V30 624 H 64.5573 3.86374 1.68204 0
M  V30 625 H 63.2813 2.64364 1.9178 0
M  V30 626 H 61.9403 3.66571 0.0461769 0
M  V30 627 H 61.5883 4.41762 2.40531 0
M  V30 628 H 61.2883 5.74122 1.25131 0
M  V30 629 H 62.8123 5.70246 2.18293 0
M  V30 630 H 64.2263 5.73232 -0.0883058 0
M  V30 631 H 62.6233 5.94026 -0.851679 0
M  V30 632 H 63.6933 4.64037 -1.40703 0
M  V30 633 N 65.0364 0.313813 1.54444 0
M  V30 634 C 65.9464 -0.565714 2.27677 0
M  V30 635 C 66.9624 -1.13754 1.31666 0
M  V30 636 O 68.1384 -1.15959 1.64668 0
M  V30 637 C 65.2034 -1.71528 3.01296 0
M  V30 638 C 64.2644 -1.17624 4.12872 0
M  V30 639 C 63.4974 -2.27102 4.8297 0
M  V30 640 O 63.7204 -3.47256 4.52514 0
M  V30 641 O 62.6544 -1.9307 5.70094 0
M  V30 642 H 66.4804 0.0287296 3.03686 0
M  V30 643 H 64.0654 0.0798312 1.49187 0
M  V30 644 H 65.9474 -2.38476 3.4743 0
M  V30 645 H 64.6224 -2.29608 2.2817 0
M  V30 646 H 63.5294 -0.472124 3.71109 0
M  V30 647 H 64.8624 -0.640695 4.88012 0
M  V30 648 N 66.5145 -1.57545 0.0417849 0
M  V30 649 C 67.4465 -2.07904 -0.964799 0
M  V30 650 C 68.4595 -1.00497 -1.28079 0
M  V30 651 O 69.6485 -1.28087 -1.24322 0
M  V30 652 C 66.7485 -2.49928 -2.28887 0
M  V30 653 C 65.9215 -3.80562 -2.15619 0
M  V30 654 C 64.9805 -4.08999 -3.31069 0
M  V30 655 O 64.0065 -4.79061 -3.0739 0
M  V30 656 N 65.2085 -3.6017 -4.55256 0
M  V30 657 H 67.9735 -2.94886 -0.535029 0
M  V30 658 H 65.5345 -1.61252 -0.144681 0
M  V30 659 H 67.5265 -2.66034 -3.04972 0
M  V30 660 H 66.0965 -1.68245 -2.63463 0
M  V30 661 H 65.3165 -3.74129 -1.24183 0
M  V30 662 H 66.6045 -4.66126 -2.03971 0
M  V30 663 H 66.0025 -3.03512 -4.77386 0
M  V30 664 H 64.5595 -3.81532 -5.28466 0
M  V30 665 N 67.9926 0.231505 -1.5589 0
M  V30 666 C 69.2406 0.955461 -1.78088 0
M  V30 667 C 69.5616 1.85262 -0.608533 0
M  V30 668 O 68.8316 1.92277 0.375035 0
M  V30 669 H 67.4116 0.355787 -0.656829 0
M  V30 670 H 70.0736 0.245751 -1.93344 0
M  V30 671 H 69.1696 1.56814 -2.69844 0
M  V30 672 N 69.4707 1.49531 0.497807 0
M  V30 673 C 70.7177 1.59179 1.25173 0
M  V30 674 C 71.0457 0.279932 1.92475 0
M  V30 675 O 70.3007 -0.732383 1.81479 0
M  V30 676 C 70.5997 2.70252 2.33878 0
M  V30 677 C 70.2657 4.11644 1.84012 0
M  V30 678 C 68.9277 4.50121 1.70132 0
M  V30 679 C 71.2797 5.00121 1.46725 0
M  V30 680 C 68.6077 5.74845 1.17348 0
M  V30 681 C 70.9597 6.25366 0.95392 0
M  V30 682 C 69.6237 6.6267 0.801538 0
M  V30 683 H 68.8937 0.582478 0.45804 0
M  V30 684 H 71.5407 1.83373 0.551948 0
M  V30 685 H 69.8457 2.40041 3.09657 0
M  V30 686 H 71.5427 2.74925 2.9192 0
M  V30 687 H 68.1327 3.81274 1.95775 0
M  V30 688 H 72.3167 4.71048 1.56294 0
M  V30 689 H 67.5727 6.02444 1.04264 0
M  V30 690 H 71.7467 6.93301 0.656225 0
M  V30 691 H 69.3737 7.59197 0.390351 0
M  V30 692 N 70.9488 -0.749086 1.3866 0
M  V30 693 C 72.1768 -1.53834 1.38358 0
M  V30 694 C 72.5918 -1.88783 -0.0255219 0
M  V30 695 O 71.9488 -1.53101 -0.993292 0
M  V30 696 C 71.9998 -2.83468 2.2434 0
M  V30 697 O 71.7208 -2.50008 3.5976 0
M  V30 698 C 73.2218 -3.7758 2.32267 0
M  V30 699 H 70.4418 -0.47585 0.473083 0
M  V30 700 H 72.9858 -0.926726 1.82297 0
M  V30 701 H 71.1408 -3.40995 1.83851 0
M  V30 702 H 71.5548 -3.33182 4.05081 0
M  V30 703 H 73.0288 -4.65478 2.96706 0
M  V30 704 H 73.5058 -4.18334 1.33765 0
M  V30 705 H 74.1118 -3.25976 2.73166 0
M  V30 706 N 72.4269 -1.23603 -0.977757 0
M  V30 707 C 73.7039 -0.977897 -1.69401 0
M  V30 708 C 74.0839 0.502738 -2.05026 0
M  V30 709 O 73.4319 1.47459 -1.74551 0
M  V30 710 C 73.6419 -1.89077 -2.93345 0
M  V30 711 C 74.9899 -2.15579 -3.65802 0
M  V30 712 O 76.0139 -1.86648 -3.03383 0
M  V30 713 O 74.8729 -2.64658 -4.78141 0
M  V30 714 H 71.9669 -0.369025 -0.740101 0
M  V30 715 H 74.5129 -1.34657 -1.03274 0
M  V30 716 H 73.2849 -2.89158 -2.63634 0
M  V30 717 H 72.9079 -1.52463 -3.67207 0
M  V30 718 N 73.905 1.17692 -1.04816 0
M  V30 719 C 75.151 1.88137 -0.75711 0
M  V30 720 C 75.484 1.80604 0.713841 0
M  V30 721 O 74.759 1.21146 1.52164 0
M  V30 722 C 75.042 3.38318 -1.2334 0
M  V30 723 C 74.895 3.54622 -2.76701 0
M  V30 724 C 76.214 4.32214 -0.829415 0
M  V30 725 H 73.333 0.683163 -0.27651 0
M  V30 726 H 75.975 1.38424 -1.30149 0
M  V30 727 H 74.125 3.80787 -0.770286 0
M  V30 728 H 75.797 3.21194 -3.31107 0
M  V30 729 H 74.04 2.97026 -3.16161 0
M  V30 730 H 74.711 4.60028 -3.05088 0
M  V30 731 H 77.187 3.97565 -1.22805 0
M  V30 732 H 76.063 5.35838 -1.19033 0
M  V30 733 H 76.324 4.41294 0.266891 0
M  V30 734 N 75.3831 0.828654 1.34056 0
M  V30 735 C 76.6111 0.43262 2.02326 0
M  V30 736 C 77.0261 -0.963147 1.62385 0
M  V30 737 O 76.3831 -1.62425 0.832121 0
M  V30 738 C 76.4341 0.53182 3.57567 0
M  V30 739 O 76.1551 1.87258 3.96063 0
M  V30 740 C 77.6561 0.131422 4.43105 0
M  V30 741 H 74.8761 0.172923 0.648335 0
M  V30 742 H 77.4201 1.1184 1.71208 0
M  V30 743 H 75.5751 -0.105938 3.87255 0
M  V30 744 H 75.9891 1.85087 4.90758 0
M  V30 745 H 77.4631 0.251904 5.51425 0
M  V30 746 H 77.9401 -0.925645 4.29335 0
M  V30 747 H 78.5461 0.743207 4.18756 0
M  V30 748 N 76.8612 -1.46375 0.584142 0
M  V30 749 C 78.1072 -2.02678 0.0703716 0
M  V30 750 C 78.4402 -1.4545 -1.28678 0
M  V30 751 O 77.7152 -0.62014 -1.84349 0
M  V30 752 C 77.9982 -3.60099 0.00614674 0
M  V30 753 C 77.8512 -4.27709 1.3923 0
M  V30 754 C 79.1702 -4.34598 -0.693742 0
M  V30 755 H 76.2892 -0.736504 0.027047 0
M  V30 756 H 78.9312 -1.74501 0.751615 0
M  V30 757 H 77.0812 -3.84236 -0.574009 0
M  V30 758 H 78.7532 -4.14832 2.01773 0
M  V30 759 H 76.9962 -3.87016 1.95962 0
M  V30 760 H 77.6672 -5.36478 1.29982 0
M  V30 761 H 80.1432 -4.15615 -0.200869 0
M  V30 762 H 79.0192 -5.44318 -0.707714 0
M  V30 763 H 79.2802 -4.05759 -1.75533 0
M  V30 764 N 78.3393 -0.321999 -1.54275 0
M  V30 765 C 79.2693 0.537411 -2.27231 0
M  V30 766 C 80.2503 1.12064 -1.27968 0
M  V30 767 O 81.4353 1.14606 -1.56777 0
M  V30 768 C 78.5653 1.69919 -3.02894 0
M  V30 769 C 77.5193 1.24534 -4.09482 0
M  V30 770 C 76.8453 2.49394 -4.72977 0
M  V30 771 C 78.1453 0.361335 -5.21049 0
M  V30 772 H 79.8393 -0.0711406 -2.99315 0
M  V30 773 H 77.3853 -0.0356555 -1.43956 0
M  V30 774 H 79.3383 2.30668 -3.52662 0
M  V30 775 H 78.0623 2.33431 -2.28424 0
M  V30 776 H 76.7213 0.660782 -3.60596 0
M  V30 777 H 76.3693 3.11265 -3.95124 0
M  V30 778 H 76.0693 2.19718 -5.44975 0
M  V30 779 H 77.5933 3.10908 -5.25517 0
M  V30 780 H 79.0073 0.875072 -5.66582 0
M  V30 781 H 77.4043 0.157428 -5.99893 0
M  V30 782 H 78.4743 -0.60822 -4.8107 0
M  V30 783 N 79.8174 1.5752 -0.0501392 0
M  V30 784 C 80.7274 2.14952 0.939827 0
M  V30 785 C 81.7434 1.10706 1.34239 0
M  V30 786 O 82.9194 1.42869 1.41952 0
M  V30 787 C 79.9844 2.68232 2.19665 0
M  V30 788 C 79.0454 3.87272 1.85253 0
M  V30 789 C 78.2784 4.38002 3.04943 0
M  V30 790 O 78.5014 3.87811 4.18281 0
M  V30 791 O 77.4354 5.29602 2.86017 0
M  V30 792 H 81.2614 2.9986 0.481392 0
M  V30 793 H 78.8464 1.4841 0.171699 0
M  V30 794 H 80.7284 3.02475 2.93406 0
M  V30 795 H 79.4034 1.86395 2.64648 0
M  V30 796 H 78.3104 3.5792 1.0883 0
M  V30 797 H 79.6434 4.70336 1.4507 0
M  V30 798 N 81.2955 -0.223234 1.56011 0
M  V30 799 C 82.2585 -1.26014 1.9145 0
M  V30 800 C 83.2585 -1.3989 0.792937 0
M  V30 801 O 84.4485 -1.38184 1.0607 0
M  V30 802 C 81.5805 -2.63422 2.16383 0
M  V30 803 H 82.7735 -0.95796 2.84189 0
M  V30 804 H 80.3265 -0.463576 1.49267 0
M  V30 805 H 81.0615 -2.98741 1.2619 0
M  V30 806 H 80.8465 -2.54728 2.98088 0
M  V30 807 H 82.3365 -3.38249 2.44903 0
M  V30 808 N 82.7736 -1.49793 -0.48987 0
M  V30 809 C 83.9986 -1.63836 -1.27172 0
M  V30 810 C 84.4236 -0.31402 -1.8546 0
M  V30 811 O 83.7816 0.719803 -1.66399 0
M  V30 812 C 83.8296 -2.71797 -2.36978 0
M  V30 813 O 82.9336 -2.31744 -3.41128 0
M  V30 814 H 82.2746 -0.547997 -0.37496 0
M  V30 815 H 84.8046 -1.96053 -0.585191 0
M  V30 816 H 84.8146 -2.94305 -2.82575 0
M  V30 817 H 83.4896 -3.67923 -1.93921 0
M  V30 818 H 82.0666 -2.1961 -3.01373 0
M  V30 819 N 84.2517 0.741722 -1.39055 0
M  V30 820 C 85.4767 1.53607 -1.39354 0
M  V30 821 C 85.9017 1.88096 0.0116905 0
M  V30 822 O 85.2597 1.5143 0.996924 0
M  V30 823 C 85.3077 2.80441 -2.26682 0
M  V30 824 O 84.4117 3.76088 -1.69208 0
M  V30 825 H 83.7527 0.464142 -0.474835 0
M  V30 826 H 86.2827 0.915665 -1.82967 0
M  V30 827 H 86.2927 3.29246 -2.40959 0
M  V30 828 H 84.9677 2.5467 -3.2881 0
M  V30 829 H 83.5447 3.34833 -1.64138 0
M  V30 830 N 85.7298 1.2412 0.971189 0
M  V30 831 C 86.6798 0.997551 2.05019 0
M  V30 832 C 87.6638 -0.0597747 1.60789 0
M  V30 833 O 88.8558 0.153516 1.76333 0
M  V30 834 C 85.9848 0.600557 3.38006 0
M  V30 835 C 85.0708 1.69377 3.88809 0
M  V30 836 N 85.4618 2.92586 4.12586 0
M  V30 837 C 83.7598 1.57048 4.17435 0
M  V30 838 C 84.4608 3.63431 4.54195 0
M  V30 839 N 83.4368 2.90979 4.59165 0
M  V30 840 H 87.2388 1.93316 2.21374 0
M  V30 841 H 84.7528 1.14194 1.1547 0
M  V30 842 H 86.7498 0.40725 4.14906 0
M  V30 843 H 85.4098 -0.327903 3.2304 0
M  V30 844 H 86.4208 3.288 4.00139 0
M  V30 845 H 83.0978 0.709798 4.11422 0
M  V30 846 H 84.4878 4.69102 4.81033 0
M  V30 847 N 87.2079 -1.17134 1.05439 0
M  V30 848 C 88.4569 -1.86791 0.761049 0
M  V30 849 C 88.7699 -1.82072 -0.714795 0
M  V30 850 O 89.9759 -2.47223 -1.12218 0
M  V30 851 C 88.4319 -3.35166 1.31117 0
M  V30 852 C 88.0399 -3.48381 2.81664 0
M  V30 853 C 89.7839 -4.10134 1.09499 0
M  V30 854 C 87.6909 -4.90793 3.29964 0
M  V30 855 H 86.6209 -0.699681 0.281002 0
M  V30 856 H 89.2719 -1.3226 1.27199 0
M  V30 857 H 87.6539 -3.8925 0.72803 0
M  V30 858 H 88.8279 -3.04502 3.45855 0
M  V30 859 H 87.1429 -2.86836 3.01851 0
M  V30 860 H 89.7399 -5.152 1.43084 0
M  V30 861 H 90.0829 -4.16287 0.0328772 0
M  V30 862 H 90.6159 -3.62264 1.64346 0
M  V30 863 H 87.3549 -4.89816 4.35616 0
M  V30 864 H 86.8749 -5.35333 2.70516 0
M  V30 865 H 88.5539 -5.59573 3.24787 0
M  V30 866 N 88.686 -0.835752 -1.33615 0
M  V30 867 C 89.934 -0.429109 -1.97492 0
M  V30 868 C 90.255 1.01433 -1.66543 0
M  V30 869 O 89.525 1.70611 -0.962744 0
M  V30 870 H 88.105 -0.155686 -0.730596 0
M  V30 871 H 90.767 -1.06802 -1.63031 0
M  V30 872 H 89.863 -0.55861 -3.0706 0
M  V30 873 N 90.1641 1.46063 -0.591896 0
M  V30 874 C 91.4121 2.01938 -0.0808391 0
M  V30 875 C 91.7331 1.46475 1.28725 0
M  V30 876 O 91.0031 0.652944 1.84698 0
M  V30 877 H 89.5831 0.746516 -0.0268938 0
M  V30 878 H 92.2451 1.79055 -0.769752 0
M  V30 879 H 91.3411 3.12094 -0.0187578 0
M  V30 880 N 91.6422 0.330177 1.54103 0
M  V30 881 C 93.0582 -0.0222371 1.59585 0
M  V30 882 C 93.2582 -1.49902 1.34654 0
M  V30 883 O 92.3142 -2.25592 1.13421 0
M  V30 884 C 93.6272 0.401932 2.98002 0
M  V30 885 C 95.1752 0.353145 3.11001 0
M  V30 886 C 95.6502 0.752576 4.51775 0
M  V30 887 N 97.1412 0.706239 4.57784 0
M  V30 888 C 97.8762 0.987417 5.64834 0
M  V30 889 N 97.3722 1.33607 6.79795 0
M  V30 890 N 99.1652 0.91254 5.54643 0
M  V30 891 H 91.3162 1.29228 1.68564 0
M  V30 892 H 93.5792 0.525906 0.78875 0
M  V30 893 H 93.2852 1.4311 3.21267 0
M  V30 894 H 93.1592 -0.229699 3.765 0
M  V30 895 H 95.5462 -0.666822 2.87467 0
M  V30 896 H 95.6272 1.0198 2.34593 0
M  V30 897 H 95.2712 1.77049 4.76042 0
M  V30 898 H 95.2012 0.0635409 5.26562 0
M  V30 899 H 97.6922 0.44889 3.75224 0
M  V30 900 H 98.0052 1.53582 7.57385 0
M  V30 901 H 96.3502 1.37439 6.81275 0
M  V30 902 H 99.5412 0.639601 4.6371 0
M  V30 903 H 99.7142 1.13503 6.37982 0
M  V30 904 N 93.1203 -1.57491 0.0584922 0
M  V30 905 C 94.3663 -1.93264 -0.614558 0
M  V30 906 C 94.6993 -0.937717 -1.7006 0
M  V30 907 O 93.9743 0.0351652 -1.94468 0
M  V30 908 C 94.2573 -3.3938 -1.20386 0
M  V30 909 C 94.1103 -4.49625 -0.125375 0
M  V30 910 C 95.4293 -3.86039 -2.11334 0
M  V30 911 H 92.5483 -0.702791 -0.221933 0
M  V30 912 H 95.1903 -1.8961 0.12175 0
M  V30 913 H 93.3403 -3.42626 -1.83139 0
M  V30 914 H 95.0123 -4.58506 0.506971 0
M  V30 915 H 93.2553 -4.30354 0.545672 0
M  V30 916 H 93.9263 -5.48967 -0.577861 0
M  V30 917 H 96.4023 -3.84716 -1.58534 0
M  V30 918 H 95.2783 -4.88914 -2.49507 0
M  V30 919 H 95.5393 -3.23215 -3.01636 0
M  V30 920 N 94.5984 0.214957 -1.56127 0
M  V30 921 C 95.5304 1.29004 -1.89448 0
M  V30 922 C 96.5434 1.42716 -0.783326 0
M  V30 923 O 97.7324 1.43496 -1.06166 0
M  V30 924 C 94.8324 2.66482 -2.09381 0
M  V30 925 C 94.0054 2.74633 -3.40434 0
M  V30 926 C 93.0644 3.9317 -3.49719 0
M  V30 927 O 92.0904 3.812 -4.227 0
M  V30 928 N 93.2924 5.07765 -2.81346 0
M  V30 929 H 96.0574 1.00743 -2.82261 0
M  V30 930 H 93.6184 0.40497 -1.56753 0
M  V30 931 H 95.6104 3.44173 -2.12901 0
M  V30 932 H 94.1804 2.87314 -1.23163 0
M  V30 933 H 93.4004 1.83368 -3.48955 0
M  V30 934 H 94.6884 2.77054 -4.26754 0
M  V30 935 H 94.0864 5.20386 -2.21843 0
M  V30 936 H 92.6434 5.83474 -2.90519 0
M  V30 937 N 96.0765 1.50051 0.48192 0
M  V30 938 C 97.3015 1.64508 1.26301 0
M  V30 939 C 97.7265 0.323851 1.85291 0
M  V30 940 O 97.0845 -0.710969 1.66778 0
M  V30 941 C 97.1325 2.7305 2.35533 0
M  V30 942 O 96.2365 2.3355 3.39895 0
M  V30 943 H 95.5775 0.549978 0.372048 0
M  V30 944 H 98.1075 1.9636 0.574786 0
M  V30 945 H 98.1175 2.95799 2.8101 0
M  V30 946 H 96.7925 3.68946 1.91967 0
M  V30 947 H 95.3695 2.21205 3.00204 0
M  V30 948 N 97.5546 -0.734337 1.39446 0
M  V30 949 C 98.8006 -1.49613 1.36908 0
M  V30 950 C 99.1336 -1.94169 -0.0347829 0
M  V30 951 O 98.4086 -1.66833 -0.999847 0
M  V30 952 C 98.6916 -2.73534 2.34203 0
M  V30 953 C 98.5446 -2.34993 3.83534 0
M  V30 954 C 99.8636 -3.75635 2.29317 0
M  V30 955 H 96.9826 -0.542714 0.498629 0
M  V30 956 H 99.6246 -0.839597 1.70443 0
M  V30 957 H 97.7746 -3.29553 2.05736 0
M  V30 958 H 99.4466 -1.84601 4.22753 0
M  V30 959 H 97.6896 -1.67213 4.00278 0
M  V30 960 H 98.3606 -3.23738 4.47099 0
M  V30 961 H 100.837 -3.29203 2.54489 0
M  V30 962 H 99.7126 -4.60008 2.99472 0
M  V30 963 H 99.9736 -4.22603 1.29842 0
M  V30 964 N 99.0327 -1.24633 -0.964593 0
M  V30 965 C 99.9797 -1.04144 -2.05968 0
M  V30 966 C 100.95 0.046262 -1.66036 0
M  V30 967 O 102.135 -0.108972 -1.90489 0
M  V30 968 C 99.2747 -0.65563 -3.38815 0
M  V30 969 C 98.3877 -1.81714 -3.91923 0
M  V30 970 C 97.5227 -1.37662 -5.13052 0
M  V30 971 C 96.5617 -2.50788 -5.58365 0
M  V30 972 N 95.6987 -2.07582 -6.70712 0
M  V30 973 H 100.539 -1.9787 -2.22827 0
M  V30 974 H 98.0757 -0.9855 -1.09208 0
M  V30 975 H 100.034 -0.412954 -4.15151 0
M  V30 976 H 98.6637 0.244627 -3.21872 0
M  V30 977 H 97.7157 -2.1734 -3.12198 0
M  V30 978 H 99.0277 -2.66705 -4.21509 0
M  V30 979 H 98.1817 -1.093 -5.96773 0
M  V30 980 H 96.9207 -0.497293 -4.85158 0
M  V30 981 H 95.9257 -2.79906 -4.73215 0
M  V30 982 H 97.1507 -3.39283 -5.88272 0
M  V30 983 H 95.0967 -1.22051 -6.44546 0
M  V30 984 H 95.0137 -2.86125 -6.99763 0
M  V30 985 H 96.2817 -1.82369 -7.57867 0
M  V30 986 N 100.511 1.16574 -1.06058 0
M  V30 987 C 101.441 2.23057 -0.690488 0
M  V30 988 C 102.422 1.67141 0.315901 0
M  V30 989 O 103.607 1.93253 0.191556 0
M  V30 990 C 100.737 3.47222 -0.073625 0
M  V30 991 C 99.6908 4.16016 -1.00573 0
M  V30 992 C 99.0168 5.34104 -0.252289 0
M  V30 993 C 100.317 4.67264 -2.33371 0
M  V30 994 H 102.011 2.54271 -1.58072 0
M  V30 995 H 99.5568 1.22218 -0.76149 0
M  V30 996 H 101.51 4.20939 0.19714 0
M  V30 997 H 100.234 3.15302 0.85161 0
M  V30 998 H 98.8928 3.44223 -1.2612 0
M  V30 999 H 98.5408 4.98437 0.675988 0
M  V30 1000 H 98.2408 5.81072 -0.873455 0
M  V30 1001 H 99.7648 6.10599 0.0109857 0
M  V30 1002 H 101.179 5.32573 -2.12223 0
M  V30 1003 H 99.5758 5.24843 -2.90963 0
M  V30 1004 H 100.646 3.83602 -2.96611 0
M  V30 1005 N 101.989 0.842826 1.3317 0
M  V30 1006 C 103.237 0.439577 1.97262 0
M  V30 1007 C 103.558 -1.00548 1.67078 0
M  V30 1008 O 102.828 -1.70098 0.971779 0
M  V30 1009 H 101.408 0.159558 0.72976 0
M  V30 1010 H 104.07 1.07665 1.62463 0
M  V30 1011 H 103.166 0.574886 3.0676 0
M  V30 1012 N 103.467 -1.45747 0.599634 0
M  V30 1013 C 104.417 -2.27538 -0.145107 0
M  V30 1014 C 105.401 -1.3686 -0.846055 0
M  V30 1015 O 106.593 -1.6091 -0.737357 0
M  V30 1016 C 103.722 -3.23569 -1.14708 0
M  V30 1017 C 102.808 -4.21734 -0.447383 0
M  V30 1018 N 103.199 -5.03257 0.506535 0
M  V30 1019 C 101.497 -4.40536 -0.695966 0
M  V30 1020 C 102.198 -5.74426 0.917068 0
M  V30 1021 N 101.174 -5.42966 0.26253 0
M  V30 1022 H 104.976 -2.87965 0.587672 0
M  V30 1023 H 102.49 -1.56803 0.422697 0
M  V30 1024 H 104.487 -3.8089 -1.69495 0
M  V30 1025 H 103.147 -2.64702 -1.8805 0
M  V30 1026 H 104.158 -5.10319 0.882899 0
M  V30 1027 H 100.835 -3.92802 -1.41467 0
M  V30 1028 H 102.225 -6.4995 1.70338 0
M  V30 1029 N 104.945 -0.338344 -1.53925 0
M  V30 1030 C 105.908 0.508299 -2.23493 0
M  V30 1031 C 106.908 1.03175 -1.23335 0
M  V30 1032 O 108.098 0.921826 -1.47811 0
M  V30 1033 C 105.23 1.70754 -2.95052 0
M  V30 1034 H 106.423 -0.100058 -2.99733 0
M  V30 1035 H 103.976 -0.0896198 -1.56043 0
M  V30 1036 H 104.711 2.35474 -2.22986 0
M  V30 1037 H 104.496 1.33946 -3.68512 0
M  V30 1038 H 105.986 2.30818 -3.48013 0
M  V30 1039 N 106.423 1.57458 -0.0668435 0
M  V30 1040 C 107.651 1.97624 0.612565 0
M  V30 1041 C 108.066 0.94502 1.63447 0
M  V30 1042 O 107.423 -0.0689276 1.8237 0
M  V30 1043 C 107.474 3.37869 1.28555 0
M  V30 1044 O 107.195 4.3704 0.304557 0
M  V30 1045 C 108.696 3.92882 2.05325 0
M  V30 1046 H 105.916 0.650045 0.166381 0
M  V30 1047 H 108.46 2.04035 -0.137782 0
M  V30 1048 H 106.615 3.3256 1.98702 0
M  V30 1049 H 107.029 5.18565 0.786779 0
M  V30 1050 H 108.503 4.93247 2.47812 0
M  V30 1051 H 108.98 3.29156 2.9078 0
M  V30 1052 H 109.586 4.01577 1.40056 0
M  V30 1053 N 107.901 -0.206675 1.56239 0
M  V30 1054 C 109.148 -0.928842 1.79941 0
M  V30 1055 C 109.476 -1.83734 0.638131 0
M  V30 1056 O 108.731 -1.92039 -0.376746 0
M  V30 1057 C 109.03 -1.78675 3.09532 0
M  V30 1058 C 108.696 -1.03022 4.38973 0
M  V30 1059 C 107.358 -0.821302 4.74139 0
M  V30 1060 C 109.71 -0.497081 5.18824 0
M  V30 1061 C 107.038 -0.0675719 5.86661 0
M  V30 1062 C 109.39 0.24338 6.32132 0
M  V30 1063 C 108.054 0.463422 6.65889 0
M  V30 1064 H 107.324 -0.339887 0.658451 0
M  V30 1065 H 109.971 -0.195977 1.90495 0
M  V30 1066 H 108.276 -2.58794 2.94165 0
M  V30 1067 H 109.973 -2.34792 3.25075 0
M  V30 1068 H 106.563 -1.20306 4.11369 0
M  V30 1069 H 110.747 -0.645921 4.92079 0
M  V30 1070 H 106.003 0.112995 6.11296 0
M  V30 1071 H 110.177 0.66393 6.93228 0
M  V30 1072 H 107.804 1.04938 7.52922 0
M  V30 1073 N 109.379 -1.50304 -0.473955 0
M  V30 1074 C 110.289 -1.7174 -1.5982 0
M  V30 1075 C 111.305 -0.600457 -1.63311 0
M  V30 1076 O 112.481 -0.878441 -1.81233 0
M  V30 1077 C 109.546 -1.80427 -2.96052 0
M  V30 1078 C 108.607 -3.04148 -3.02972 0
M  V30 1079 C 107.84 -3.12411 -4.32706 0
M  V30 1080 O 108.063 -2.27542 -5.23049 0
M  V30 1081 O 106.997 -4.05113 -4.45159 0
M  V30 1082 H 110.823 -2.67035 -1.44657 0
M  V30 1083 H 108.408 -1.34366 -0.653148 0
M  V30 1084 H 110.29 -1.88338 -3.7697 0
M  V30 1085 H 108.965 -0.883156 -3.11419 0
M  V30 1086 H 107.872 -3.0174 -2.21142 0
M  V30 1087 H 109.205 -3.95829 -2.92541 0
M  V30 1088 N 110.857 0.726932 -1.39834 0
M  V30 1089 C 111.787 1.85405 -1.41941 0
M  V30 1090 C 112.768 1.67751 -0.281728 0
M  V30 1091 O 113.953 1.8795 -0.488717 0
M  V30 1092 C 111.083 3.23243 -1.2701 0
M  V30 1093 C 110.037 3.55549 -2.38262 0
M  V30 1094 C 109.363 4.9241 -2.08415 0
M  V30 1095 C 110.663 3.577 -3.80589 0
M  V30 1096 H 112.357 1.83899 -2.36266 0
M  V30 1097 H 109.903 0.883349 -1.13723 0
M  V30 1098 H 111.856 4.01775 -1.27103 0
M  V30 1099 H 110.58 3.25296 -0.291564 0
M  V30 1100 H 109.239 2.79351 -2.37399 0
M  V30 1101 H 108.887 4.91052 -1.0898 0
M  V30 1102 H 108.587 5.14992 -2.82943 0
M  V30 1103 H 110.111 5.73289 -2.10171 0
M  V30 1104 H 111.525 4.26293 -3.83337 0
M  V30 1105 H 109.922 3.91804 -4.54543 0
M  V30 1106 H 110.992 2.57328 -4.10987 0
M  V30 1107 N 112.336 1.25143 0.95797 0
M  V30 1108 C 113.584 1.09476 1.69881 0
M  V30 1109 C 113.905 -0.365502 1.91544 0
M  V30 1110 O 113.175 -1.25985 1.50015 0
M  V30 1111 H 111.755 0.402128 0.629525 0
M  V30 1112 H 114.417 1.57214 1.15194 0
M  V30 1113 H 113.513 1.60046 2.6794 0
M  V30 1114 N 113.814 -1.1601 1.06675 0
M  V30 1115 C 114.777 -2.18724 0.685001 0
M  V30 1116 C 115.777 -1.58496 -0.271246 0
M  V30 1117 O 116.967 -1.74119 -0.0531156 0
M  V30 1118 C 114.099 -3.40899 0.00853648 0
M  V30 1119 H 115.292 -2.54011 1.59431 0
M  V30 1120 H 112.845 -1.30352 0.862441 0
M  V30 1121 H 113.58 -3.11173 -0.913337 0
M  V30 1122 H 113.365 -3.8587 0.696204 0
M  V30 1123 H 114.855 -4.16886 -0.24414 0
M  V30 1124 N 115.292 -0.849877 -1.32721 0
M  V30 1125 C 116.52 -0.464754 -2.01613 0
M  V30 1126 C 116.935 0.937191 -1.63897 0
M  V30 1127 O 116.292 1.61081 -0.857856 0
M  V30 1128 C 116.343 -0.588638 -3.56675 0
M  V30 1129 O 116.064 -1.93535 -3.93034 0
M  V30 1130 C 117.565 -0.2019 -4.4284 0
M  V30 1131 H 114.785 -0.183215 -0.645502 0
M  V30 1132 H 117.329 -1.1455 -1.69407 0
M  V30 1133 H 115.484 0.0443159 -3.87375 0
M  V30 1134 H 115.898 -1.92871 -4.87751 0
M  V30 1135 H 117.372 -0.339599 -5.50954 0
M  V30 1136 H 117.849 0.857224 -4.30753 0
M  V30 1137 H 118.455 -0.809733 -4.17521 0
M  V30 1138 N 116.77 1.45427 -0.607355 0
M  V30 1139 C 118.016 2.03097 -0.111035 0
M  V30 1140 C 118.371 1.46735 1.24445 0
M  V30 1141 O 117.664 0.632478 1.8086 0
M  V30 1142 C 117.858 3.57398 -0.0129263 0
M  V30 1143 C 117.687 4.28726 -1.35735 0
M  V30 1144 C 116.457 4.66659 -1.93798 0
M  V30 1145 C 118.655 4.60699 -2.28607 0
M  V30 1146 N 116.637 5.22845 -3.21723 0
M  V30 1147 C 118.008 5.17716 -3.41131 0
M  V30 1148 C 120.063 4.42638 -2.27982 0
M  V30 1149 C 118.766 5.58576 -4.53194 0
M  V30 1150 C 120.792 4.84531 -3.39093 0
M  V30 1151 C 120.154 5.4164 -4.50339 0
M  V30 1152 H 116.253 0.777476 -0.083994 0
M  V30 1153 H 118.837 1.77249 -0.805655 0
M  V30 1154 H 117.008 3.82907 0.650914 0
M  V30 1155 H 118.74 4.01722 0.490033 0
M  V30 1156 H 115.495 4.50207 -1.47007 0
M  V30 1157 H 115.919 5.55438 -3.87063 0
M  V30 1158 H 120.561 3.97798 -1.43235 0
M  V30 1159 H 118.279 6.02382 -5.38667 0
M  V30 1160 H 121.865 4.72289 -3.39757 0
M  V30 1161 H 120.745 5.73461 -5.34895 0
M  V30 1162 N 118.248 0.346503 1.53744 0
M  V30 1163 C 119.497 -0.250122 2.00143 0
M  V30 1164 C 119.81 -1.51418 1.23822 0
M  V30 1165 O 121.016 -2.18823 1.60713 0
M  V30 1166 C 119.472 -0.496252 3.56462 0
M  V30 1167 C 119.08 0.752077 4.41642 0
M  V30 1168 C 120.824 -1.05157 4.11269 0
M  V30 1169 C 118.731 0.476583 5.89477 0
M  V30 1170 H 117.661 -0.0972409 0.747703 0
M  V30 1171 H 120.312 0.46229 1.77581 0
M  V30 1172 H 118.694 -1.26944 3.75102 0
M  V30 1173 H 119.868 1.5266 4.34778 0
M  V30 1174 H 118.183 1.22925 3.97842 0
M  V30 1175 H 120.78 -1.27269 5.19333 0
M  V30 1176 H 121.123 -2.00799 3.64672 0
M  V30 1177 H 121.656 -0.339019 3.96353 0
M  V30 1178 H 118.395 1.4028 6.40314 0
M  V30 1179 H 117.915 -0.259794 5.99237 0
M  V30 1180 H 119.594 0.0949315 6.4693 0
M  V30 1181 N 119.726 -1.57421 0.075193 0
M  V30 1182 C 120.676 -2.09441 -0.901025 0
M  V30 1183 C 121.66 -1.00486 -1.25663 0
M  V30 1184 O 122.852 -1.2679 -1.23504 0
M  V30 1185 C 119.981 -2.66233 -2.16737 0
M  V30 1186 C 119.067 -3.82198 -1.83808 0
M  V30 1187 N 119.458 -4.91028 -1.21345 0
M  V30 1188 C 117.756 -3.91558 -2.13538 0
M  V30 1189 C 118.457 -5.71852 -1.06585 0
M  V30 1190 N 117.433 -5.20233 -1.57667 0
M  V30 1191 H 121.235 -2.90972 -0.413815 0
M  V30 1192 H 118.749 -1.6189 -0.128601 0
M  V30 1193 H 120.746 -3.01819 -2.87595 0
M  V30 1194 H 119.406 -1.8615 -2.66042 0
M  V30 1195 H 120.417 -5.10323 -0.88268 0
M  V30 1196 H 117.094 -3.22454 -2.65197 0
M  V30 1197 H 118.484 -6.69401 -0.578933 0
M  V30 1198 N 121.204 0.198386 -1.56346 0
M  V30 1199 C 122.452 0.91747 -1.80075 0
M  V30 1200 C 122.773 1.83929 -0.647692 0
M  V30 1201 O 122.043 1.93029 0.334166 0
M  V30 1202 H 120.623 0.341774 -0.664228 0
M  V30 1203 H 123.285 0.204684 -1.93822 0
M  V30 1204 H 122.381 1.51055 -2.7311 0
M  V30 1205 N 122.682 1.50554 0.465978 0
M  V30 1206 C 123.907 1.65838 1.24549 0
M  V30 1207 C 124.332 0.343486 1.84937 0
M  V30 1208 O 123.69 -0.69324 1.67523 0
M  V30 1209 C 123.738 2.75533 2.32624 0
M  V30 1210 O 122.842 2.37142 3.37398 0
M  V30 1211 H 122.183 0.553893 0.366194 0
M  V30 1212 H 124.713 1.96959 0.553927 0
M  V30 1213 H 124.723 2.98763 2.77857 0
M  V30 1214 H 123.398 3.70962 1.88043 0
M  V30 1215 H 121.975 2.24377 2.97841 0
M  V30 1216 N 124.16 -0.719506 1.40217 0
M  V30 1217 C 125.11 -1.8251 1.36653 0
M  V30 1218 C 126.094 -1.59028 0.244732 0
M  V30 1219 O 127.286 -1.70268 0.483524 0
M  V30 1220 C 124.415 -3.20599 1.22763 0
M  V30 1221 C 123.501 -3.49858 2.39708 0
M  V30 1222 N 123.892 -3.49957 3.6519 0
M  V30 1223 C 122.19 -3.80297 2.33002 0
M  V30 1224 C 122.891 -3.77449 4.42614 0
M  V30 1225 N 121.867 -3.96002 3.72402 0
M  V30 1226 H 125.669 -1.80914 2.31619 0
M  V30 1227 H 123.183 -0.918455 1.33933 0
M  V30 1228 H 125.18 -3.99766 1.18292 0
M  V30 1229 H 123.84 -3.23424 0.287614 0
M  V30 1230 H 124.851 -3.309 3.98404 0
M  V30 1231 H 121.528 -3.90635 1.47346 0
M  V30 1232 H 122.918 -3.83863 5.51451 0
M  V30 1233 N 125.638 -1.25649 -0.95132 0
M  V30 1234 C 126.886 -1.10375 -1.69298 0
M  V30 1235 C 127.207 0.355339 -1.91735 0
M  V30 1236 O 126.477 1.25188 -1.50681 0
M  V30 1237 H 125.057 -0.405461 -0.627384 0
M  V30 1238 H 127.719 -1.57823 -1.14358 0
M  V30 1239 H 126.815 -1.61465 -2.67087 0
M  V30 1240 N 127.117 1.15442 -1.07289 0
M  V30 1241 C 128.065 2.22225 -0.686952 0
M  V30 1242 C 129.059 1.66688 0.30193 0
M  V30 1243 O 130.265 1.79236 0.165712 0
M  V30 1244 H 126.64 0.723783 -0.204064 0
M  V30 1245 H 128.611 2.52056 -1.5972 0
M  V30 1246 C 127.36 3.47556 -0.100149 0
M  V30 1247 H 126.683 3.90612 -0.852211 0
M  V30 1248 H 128.123 4.23794 0.132235 0
M  V30 1249 C 126.582 3.16337 1.159 0
M  V30 1250 O 127.112 3.33074 2.24555 0
M  V30 1251 N 125.318 2.70385 1.06491 0
M  V30 1252 H 124.865 2.56966 0.180668 0
M  V30 1253 H 124.823 2.49871 1.90819 0
M  V30 1254 N 128.595 0.856903 1.32268 0
M  V30 1255 C 130.006 0.515711 1.79436 0
M  V30 1256 C 130.357 -0.966586 1.70738 0
M  V30 1257 O 129.482 -1.75409 1.26731 0
M  V30 1258 C 130.077 0.929335 3.25805 0
M  V30 1259 C 128.636 0.640006 3.70919 0
M  V30 1260 C 127.783 1.12784 2.53328 0
M  V30 1261 H 130.734 1.04389 1.19535 0
M  V30 1262 H 130.755 0.246633 3.797 0
M  V30 1263 H 130.267 2.00821 3.32103 0
M  V30 1264 H 128.368 -0.428051 3.70133 0
M  V30 1265 H 128.481 1.20788 4.63624 0
M  V30 1266 H 126.845 0.548033 2.48734 0
M  V30 1267 H 127.628 2.21387 2.62379 0
M  V30 1268 N 130.073 -1.45103 0.615059 0
M  V30 1269 C 131.322 -2.01396 0.110718 0
M  V30 1270 C 131.635 -1.48834 -1.26916 0
M  V30 1271 O 132.841 -1.97152 -1.86664 0
M  V30 1272 C 131.297 -3.59599 0.14723 0
M  V30 1273 C 130.905 -4.21158 1.52743 0
M  V30 1274 C 132.649 -4.23428 -0.30148 0
M  V30 1275 C 130.556 -5.71535 1.51992 0
M  V30 1276 H 129.486 -0.753061 0.0376241 0
M  V30 1277 H 132.137 -1.66494 0.77149 0
M  V30 1278 H 130.519 -3.91724 -0.580339 0
M  V30 1279 H 131.693 -4.00594 2.2773 0
M  V30 1280 H 130.008 -3.69552 1.91886 0
M  V30 1281 H 132.605 -5.33703 -0.326392 0
M  V30 1282 H 132.948 -3.94629 -1.32565 0
M  V30 1283 H 133.481 -3.96047 0.373065 0
M  V30 1284 H 130.22 -6.05044 2.52193 0
M  V30 1285 H 129.74 -5.94268 0.81274 0
M  V30 1286 H 131.419 -6.34873 1.24681 0
M  V30 1287 N 131.551 -0.354651 -1.53558 0
M  V30 1288 C 132.781 0.239167 -2.05211 0
M  V30 1289 C 133.189 1.43879 -1.22863 0
M  V30 1290 O 132.532 1.81857 -0.259565 0
M  V30 1291 C 132.594 0.707251 -3.52474 0
M  V30 1292 C 132.258 -0.374212 -4.55465 0
M  V30 1293 C 133.255 -1.22054 -5.0537 0
M  V30 1294 C 130.94 -0.531323 -4.99482 0
M  V30 1295 C 132.934 -2.20942 -5.97882 0
M  V30 1296 C 130.621 -1.52358 -5.91802 0
M  V30 1297 C 131.619 -2.36108 -6.40892 0
M  V30 1298 O 131.307 -3.33643 -7.31394 0
M  V30 1299 H 131.039 0.0479716 -0.674296 0
M  V30 1300 H 133.593 -0.508121 -1.99016 0
M  V30 1301 H 131.823 1.50596 -3.56171 0
M  V30 1302 H 133.512 1.22285 -3.87042 0
M  V30 1303 H 134.278 -1.1103 -4.7212 0
M  V30 1304 H 130.157 0.110738 -4.60867 0
M  V30 1305 H 133.701 -2.86348 -6.36121 0
M  V30 1306 H 129.598 -1.63434 -6.24467 0
M  V30 1307 H 130.366 -3.29244 -7.4936 0
M  V30 1308 N 133.029 1.57378 -0.0835403 0
M  V30 1309 C 133.979 2.09916 0.889905 0
M  V30 1310 C 134.963 1.01151 1.25129 0
M  V30 1311 O 136.155 1.27443 1.2283 0
M  V30 1312 C 133.284 2.67379 2.15322 0
M  V30 1313 C 132.37 3.83167 1.81779 0
M  V30 1314 N 132.761 4.91665 1.18739 0
M  V30 1315 C 131.059 3.92685 2.11459 0
M  V30 1316 C 131.76 5.72409 1.0355 0
M  V30 1317 N 130.736 5.21062 1.54906 0
M  V30 1318 H 134.538 2.91188 0.398378 0
M  V30 1319 H 132.052 1.61956 0.120013 0
M  V30 1320 H 134.049 3.0334 2.8599 0
M  V30 1321 H 132.709 1.87558 2.65051 0
M  V30 1322 H 133.72 5.10784 0.855604 0
M  V30 1323 H 130.397 3.23856 2.63483 0
M  V30 1324 H 131.787 6.69699 0.543425 0
M  V30 1325 N 134.507 -0.190092 1.56449 0
M  V30 1326 C 135.437 -1.23816 1.97969 0
M  V30 1327 C 136.418 -1.47201 0.852395 0
M  V30 1328 O 137.603 -1.58854 1.1171 0
M  V30 1329 C 134.733 -2.5813 2.3235 0
M  V30 1330 C 133.687 -2.49348 3.47864 0
M  V30 1331 C 133.013 -3.8798 3.67934 0
M  V30 1332 C 134.313 -2.01424 4.81898 0
M  V30 1333 H 136.007 -0.89311 2.85769 0
M  V30 1334 H 133.553 -0.428177 1.37487 0
M  V30 1335 H 135.506 -3.31637 2.59991 0
M  V30 1336 H 134.23 -2.94386 1.41438 0
M  V30 1337 H 132.889 -1.78297 3.20321 0
M  V30 1338 H 132.537 -4.21597 2.74344 0
M  V30 1339 H 132.237 -3.82978 4.45648 0
M  V30 1340 H 133.761 -4.63101 3.97957 0
M  V30 1341 H 135.175 -2.64693 5.08538 0
M  V30 1342 H 133.572 -2.07413 5.63116 0
M  V30 1343 H 134.642 -0.967677 4.75146 0
M  V30 1344 N 135.985 -1.50799 -0.457987 0
M  V30 1345 C 136.948 -1.7005 -1.53674 0
M  V30 1346 C 137.948 -0.570881 -1.50325 0
M  V30 1347 O 139.138 -0.838126 -1.52712 0
M  V30 1348 C 136.27 -1.73788 -2.93276 0
M  V30 1349 H 137.463 -2.66306 -1.37917 0
M  V30 1350 H 135.016 -1.40477 -0.685271 0
M  V30 1351 H 135.751 -0.792717 -3.14462 0
M  V30 1352 H 135.536 -2.55864 -2.97113 0
M  V30 1353 H 137.026 -1.90591 -3.71571 0
M  V30 1354 N 137.463 0.71206 -1.40597 0
M  V30 1355 C 138.373 1.8562 -1.43466 0
M  V30 1356 C 139.389 1.70902 -0.326902 0
M  V30 1357 O 140.565 1.93105 -0.572043 0
M  V30 1358 C 137.63 3.21451 -1.29884 0
M  V30 1359 C 136.691 3.48398 -2.50833 0
M  V30 1360 C 135.924 4.77749 -2.3789 0
M  V30 1361 O 136.147 5.53089 -1.39459 0
M  V30 1362 O 135.081 5.05111 -3.27333 0
M  V30 1363 H 138.907 1.86155 -2.39958 0
M  V30 1364 H 136.492 0.86295 -1.21957 0
M  V30 1365 H 138.374 4.02579 -1.24531 0
M  V30 1366 H 137.049 3.21636 -0.364997 0
M  V30 1367 H 135.956 2.67265 -2.61763 0
M  V30 1368 H 137.289 3.53014 -3.4299 0
M  V30 1369 N 138.941 1.26152 0.944643 0
M  V30 1370 C 139.904 1.07474 2.0244 0
M  V30 1371 C 140.904 0.0242064 1.60782 0
M  V30 1372 O 142.094 0.267302 1.72137 0
M  V30 1373 C 139.226 0.633956 3.34953 0
M  V30 1374 H 140.419 2.03336 2.20442 0
M  V30 1375 H 137.972 1.087 1.12312 0
M  V30 1376 H 138.707 -0.326811 3.22649 0
M  V30 1377 H 138.492 1.39247 3.66542 0
M  V30 1378 H 139.982 0.52501 4.14287 0
M  V30 1379 N 140.419 -1.14872 1.07899 0
M  V30 1380 C 141.367 -2.21857 0.698727 0
M  V30 1381 C 142.361 -1.66845 -0.293086 0
M  V30 1382 O 143.567 -1.79321 -0.156204 0
M  V30 1383 H 139.942 -0.722691 0.207899 0
M  V30 1384 H 141.913 -2.51205 1.61054 0
M  V30 1385 C 140.662 -3.47498 0.11858 0
M  V30 1386 H 139.985 -3.90154 0.872914 0
M  V30 1387 H 141.425 -4.23858 -0.109759 0
M  V30 1388 C 139.884 -3.16947 -1.1422 0
M  V30 1389 O 140.414 -3.3426 -2.22785 0
M  V30 1390 N 138.62 -2.70946 -1.05055 0
M  V30 1391 H 138.167 -2.57058 -0.167038 0
M  V30 1392 H 138.125 -2.50879 -1.89491 0
M  V30 1393 N 141.898 -0.863906 -1.31812 0
M  V30 1394 C 143.146 -0.470904 -1.96537 0
M  V30 1395 C 143.467 0.978771 -1.68657 0
M  V30 1396 O 142.737 1.6853 -0.998717 0
M  V30 1397 H 141.317 -0.171148 -0.72713 0
M  V30 1398 H 143.979 -1.10236 -1.60729 0
M  V30 1399 H 143.075 -0.623616 -3.05806 0
M  V30 1400 N 143.376 1.44774 -0.622745 0
M  V30 1401 C 144.306 2.33382 0.0741861 0
M  V30 1402 C 145.287 1.47719 0.843387 0
M  V30 1403 O 146.472 1.76458 0.810934 0
M  V30 1404 C 143.602 3.30663 1.06204 0
M  V30 1405 C 142.556 4.26079 0.405037 0
M  V30 1406 C 141.882 5.13165 1.5022 0
M  V30 1407 C 143.182 5.1781 -0.683414 0
M  V30 1408 H 144.876 2.91905 -0.665713 0
M  V30 1409 H 142.422 1.40363 -0.321587 0
M  V30 1410 H 144.375 3.9153 1.55827 0
M  V30 1411 H 143.099 2.70331 1.83272 0
M  V30 1412 H 141.758 3.66532 -0.0704683 0
M  V30 1413 H 141.406 4.49191 2.26355 0
M  V30 1414 H 141.106 5.77812 1.06803 0
M  V30 1415 H 142.63 5.76902 2.00041 0
M  V30 1416 H 144.044 5.72661 -0.270631 0
M  V30 1417 H 142.441 5.91015 -1.04023 0
M  V30 1418 H 143.511 4.59326 -1.55395 0
M  V30 1419 N 144.854 0.36279 1.53368 0
M  V30 1420 C 145.784 -0.476976 2.28576 0
M  V30 1421 C 146.765 -1.08631 1.30894 0
M  V30 1422 O 147.95 -1.10409 1.59761 0
M  V30 1423 C 145.08 -1.61828 3.07293 0
M  V30 1424 C 144.034 -1.13633 4.1264 0
M  V30 1425 C 143.36 -2.36766 4.79423 0
M  V30 1426 C 144.66 -0.223061 5.21823 0
M  V30 1427 H 146.354 0.150474 2.99022 0
M  V30 1428 H 143.9 0.0738103 1.43811 0
M  V30 1429 H 145.853 -2.21237 3.58653 0
M  V30 1430 H 144.577 -2.27292 2.34533 0
M  V30 1431 H 143.236 -0.564945 3.62221 0
M  V30 1432 H 142.884 -3.0068 4.03238 0
M  V30 1433 H 142.584 -2.05192 5.50609 0
M  V30 1434 H 144.108 -2.96865 5.33576 0
M  V30 1435 H 145.522 -0.724545 5.68703 0
M  V30 1436 H 143.919 0.001678 6.001 0
M  V30 1437 H 144.989 0.735553 4.79289 0
M  V30 1438 N 146.332 -1.57332 0.0918853 0
M  V30 1439 C 147.242 -2.17368 -0.882505 0
M  V30 1440 C 148.258 -1.14226 -1.31257 0
M  V30 1441 O 149.434 -1.46582 -1.38115 0
M  V30 1442 C 146.499 -2.73962 -2.12476 0
M  V30 1443 C 145.56 -3.92048 -1.7492 0
M  V30 1444 C 144.793 -4.45933 -2.93223 0
M  V30 1445 O 145.016 -3.98764 -4.07852 0
M  V30 1446 O 143.95 -5.36999 -2.71875 0
M  V30 1447 H 147.776 -3.01031 -0.40172 0
M  V30 1448 H 145.361 -1.48813 -0.132291 0
M  V30 1449 H 147.243 -3.10147 -2.85283 0
M  V30 1450 H 145.918 -1.93347 -2.59613 0
M  V30 1451 H 144.825 -3.6068 -0.993025 0
M  V30 1452 H 146.158 -4.74017 -1.32548 0
M  V30 1453 N 147.81 0.181792 -1.56548 0
M  V30 1454 C 148.72 1.24538 -1.98815 0
M  V30 1455 C 149.736 1.49045 -0.897861 0
M  V30 1456 O 150.912 1.61399 -1.20467 0
M  V30 1457 C 147.977 2.56683 -2.33055 0
M  V30 1458 C 147.038 2.40131 -3.55859 0
M  V30 1459 C 146.271 3.65975 -3.88456 0
M  V30 1460 O 146.494 4.70711 -3.22161 0
M  V30 1461 O 145.428 3.6071 -4.81842 0
M  V30 1462 H 149.254 0.916647 -2.89536 0
M  V30 1463 H 146.839 0.387842 -1.44278 0
M  V30 1464 H 148.721 3.34655 -2.56094 0
M  V30 1465 H 147.396 2.89157 -1.45498 0
M  V30 1466 H 146.303 1.60226 -3.38051 0
M  V30 1467 H 147.636 2.12585 -4.43924 0
M  V30 1468 N 149.288 1.51039 0.449983 0
M  V30 1469 C 150.516 1.66869 1.2232 0
M  V30 1470 C 150.931 0.360727 1.85322 0
M  V30 1471 O 150.288 -0.659531 1.70166 0
M  V30 1472 C 150.339 2.77524 2.31652 0
M  V30 1473 O 150.06 4.03252 1.7123 0
M  V30 1474 C 151.561 3.04512 3.2216 0
M  V30 1475 H 148.781 0.560326 0.369155 0
M  V30 1476 H 151.325 1.97385 0.534719 0
M  V30 1477 H 149.48 2.49642 2.96239 0
M  V30 1478 H 149.894 4.64609 2.43389 0
M  V30 1479 H 151.368 3.85551 3.95038 0
M  V30 1480 H 151.845 2.16415 3.8218 0
M  V30 1481 H 152.451 3.34005 2.63288 0
M  V30 1482 N 150.766 -0.704594 1.40972 0
M  V30 1483 C 151.994 -1.49354 1.43182 0
M  V30 1484 C 152.409 -1.88768 0.0345508 0
M  V30 1485 O 151.766 -1.56184 -0.944081 0
M  V30 1486 C 151.817 -2.76187 2.33244 0
M  V30 1487 O 151.538 -2.38436 3.67532 0
M  V30 1488 C 153.039 -3.7 2.44162 0
M  V30 1489 H 150.259 -0.460559 0.487982 0
M  V30 1490 H 152.803 -0.868261 1.85153 0
M  V30 1491 H 150.958 -3.34974 1.94606 0
M  V30 1492 H 151.372 -3.20126 4.15475 0
M  V30 1493 H 152.846 -4.55803 3.11364 0
M  V30 1494 H 153.323 -4.13867 1.47006 0
M  V30 1495 H 153.929 -3.17121 2.83398 0
M  V30 1496 N 152.244 -1.26651 -0.937939 0
M  V30 1497 C 153.521 -1.0313 -1.66204 0
M  V30 1498 C 153.901 0.437256 -2.06522 0
M  V30 1499 O 153.249 1.41831 -1.79154 0
M  V30 1500 C 153.459 -1.98314 -2.87181 0
M  V30 1501 C 154.807 -2.27107 -3.58758 0
M  V30 1502 O 155.831 -1.96205 -2.97291 0
M  V30 1503 O 154.69 -2.79736 -4.69479 0
M  V30 1504 H 151.784 -0.392384 -0.727986 0
M  V30 1505 H 154.33 -1.37874 -0.989382 0
M  V30 1506 H 153.102 -2.97399 -2.54302 0
M  V30 1507 H 152.725 -1.64068 -3.6217 0
M  V30 1508 N 153.722 1.14298 -1.08507 0
M  V30 1509 C 154.97 1.84993 -0.813763 0
M  V30 1510 C 155.291 1.83405 0.662393 0
M  V30 1511 O 154.561 1.28319 1.48024 0
M  V30 1512 H 153.141 0.684966 -0.298045 0
M  V30 1513 H 155.803 1.385 -1.37126 0
M  V30 1514 H 154.899 2.89788 -1.15884 0
M  V30 1515 N 155.201 0.870884 1.31352 0
M  V30 1516 C 156.111 0.330783 2.32256 0
M  V30 1517 C 157.127 -0.559767 1.6475 0
M  V30 1518 O 158.303 -0.456263 1.96164 0
M  V30 1519 C 155.368 -0.458137 3.4366 0
M  V30 1520 C 154.429 0.460482 4.26823 0
M  V30 1521 C 153.662 -0.290881 5.32907 0
M  V30 1522 O 153.885 -1.51885 5.49806 0
M  V30 1523 O 152.819 0.351732 6.00871 0
M  V30 1524 H 156.645 1.16718 2.80376 0
M  V30 1525 H 154.23 0.634285 1.35267 0
M  V30 1526 H 156.112 -0.905343 4.1156 0
M  V30 1527 H 154.787 -1.27106 2.97701 0
M  V30 1528 H 153.694 0.956207 3.61673 0
M  V30 1529 H 155.027 1.23903 4.7635 0
M  V30 1530 N 156.679 -1.44442 0.630414 0
M  V30 1531 C 158.095 -1.56832 0.295973 0
M  V30 1532 C 158.295 -1.61806 -1.20088 0
M  V30 1533 O 157.351 -1.5607 -1.9849 0
M  V30 1534 C 158.664 -2.84031 0.987264 0
M  V30 1535 C 160.212 -2.97742 0.96534 0
M  V30 1536 C 160.687 -4.27743 1.63708 0
M  V30 1537 N 162.178 -4.34555 1.60364 0
M  V30 1538 C 162.913 -5.33862 2.09234 0
M  V30 1539 N 162.409 -6.39578 2.66292 0
M  V30 1540 N 164.202 -5.25366 1.99867 0
M  V30 1541 H 156.353 -1.39457 1.60205 0
M  V30 1542 H 158.616 -0.668237 0.672431 0
M  V30 1543 H 158.322 -2.86338 2.04215 0
M  V30 1544 H 158.196 -3.73534 0.524588 0
M  V30 1545 H 160.583 -2.94989 -0.0810639 0
M  V30 1546 H 160.664 -2.09589 1.4665 0
M  V30 1547 H 160.308 -4.31255 2.68293 0
M  V30 1548 H 160.238 -5.14752 1.11076 0
M  V30 1549 H 162.729 -3.58772 1.18705 0
M  V30 1550 H 163.042 -7.11637 3.01317 0
M  V30 1551 H 161.387 -6.40265 2.70343 0
M  V30 1552 H 164.578 -4.41688 1.55013 0
M  V30 1553 H 164.751 -6.02606 2.38265 0
M  V30 1554 N 158.157 -0.370918 -1.53173 0
M  V30 1555 C 159.382 0.220293 -2.06227 0
M  V30 1556 C 159.807 1.41243 -1.24225 0
M  V30 1557 O 159.165 1.79387 -0.262645 0
M  V30 1558 C 159.213 0.586663 -3.55796 0
M  V30 1559 O 158.317 1.68317 -3.76488 0
M  V30 1560 H 157.658 0.0308099 -0.663285 0
M  V30 1561 H 160.188 -0.533068 -1.97534 0
M  V30 1562 H 160.198 0.85617 -3.98916 0
M  V30 1563 H 158.873 -0.285013 -4.14922 0
M  V30 1564 H 157.45 1.40881 -3.45264 0
M  V30 1565 N 159.635 1.57281 -0.100228 0
M  V30 1566 C 160.881 1.94826 0.563101 0
M  V30 1567 C 161.214 0.982475 1.67514 0
M  V30 1568 O 160.489 0.0164069 1.94493 0
M  V30 1569 C 160.772 3.42453 1.11346 0
M  V30 1570 C 160.625 4.498 0.00612081 0
M  V30 1571 C 161.944 3.91506 2.01024 0
M  V30 1572 H 159.063 0.708428 0.203221 0
M  V30 1573 H 161.705 1.8922 -0.171979 0
M  V30 1574 H 159.855 3.47361 1.7399 0
M  V30 1575 H 161.527 4.57 -0.628357 0
M  V30 1576 H 159.77 4.28756 -0.659581 0
M  V30 1577 H 160.441 5.50306 0.432109 0
M  V30 1578 H 162.917 3.88784 1.48278 0
M  V30 1579 H 161.793 4.95358 2.36457 0
M  V30 1580 H 162.054 3.31099 2.92961 0
M  V30 1581 N 161.113 -0.173488 1.56642 0
M  V30 1582 C 162.361 -0.888706 1.81512 0
M  V30 1583 C 162.682 -1.82875 0.676872 0
M  V30 1584 O 161.952 -1.93536 -0.303414 0
M  V30 1585 H 160.532 -0.331164 0.669582 0
M  V30 1586 H 163.194 -0.173823 1.94123 0
M  V30 1587 H 162.29 -1.46691 2.75478 0
M  V30 1588 N 162.591 -1.51276 -0.441967 0
M  V30 1589 C 164.007 -1.39349 -0.778083 0
M  V30 1590 C 164.207 -0.472212 -1.95889 0
M  V30 1591 O 163.263 0.0743551 -2.5239 0
M  V30 1592 C 164.576 -2.81292 -1.0628 0
M  V30 1593 C 166.124 -2.9041 -1.16751 0
M  V30 1594 C 166.599 -4.33251 -1.48519 0
M  V30 1595 N 168.09 -4.36336 -1.55453 0
M  V30 1596 C 168.825 -5.43885 -1.81596 0
M  V30 1597 N 168.321 -6.61601 -2.05562 0
M  V30 1598 N 170.114 -5.3136 -1.8334 0
M  V30 1599 H 162.265 -2.09729 0.335774 0
M  V30 1600 H 164.528 -0.943925 0.0878028 0
M  V30 1601 H 164.234 -3.50678 -0.267905 0
M  V30 1602 H 164.108 -3.20334 -1.99163 0
M  V30 1603 H 166.495 -2.21225 -1.95304 0
M  V30 1604 H 166.576 -2.54871 -0.217801 0
M  V30 1605 H 166.22 -5.02984 -0.704958 0
M  V30 1606 H 166.15 -4.66299 -2.44689 0
M  V30 1607 H 168.641 -3.51466 -1.38853 0
M  V30 1608 H 168.954 -7.39361 -2.24867 0
M  V30 1609 H 167.299 -6.64725 -2.02894 0
M  V30 1610 H 170.49 -4.38382 -1.64132 0
M  V30 1611 H 170.663 -6.15258 -2.03377 0
M  V30 1612 N 164.069 0.697108 -1.41344 0
M  V30 1613 C 165.318 1.45279 -1.39918 0
M  V30 1614 C 165.631 1.95597 -0.0109624 0
M  V30 1615 O 166.837 2.71208 0.125919 0
M  V30 1616 C 165.293 2.62695 -2.46007 0
M  V30 1617 C 164.901 2.19169 -3.90729 0
M  V30 1618 C 166.645 3.40336 -2.53715 0
M  V30 1619 C 164.552 3.33535 -4.88373 0
M  V30 1620 H 163.482 0.545692 -0.520323 0
M  V30 1621 H 166.133 0.756929 -1.67161 0
M  V30 1622 H 164.515 3.34541 -2.11892 0
M  V30 1623 H 165.689 1.54623 -4.34083 0
M  V30 1624 H 164.004 1.54525 -3.86666 0
M  V30 1625 H 166.601 4.2547 -3.2385 0
M  V30 1626 H 166.944 3.85418 -1.5735 0
M  V30 1627 H 167.477 2.75546 -2.86913 0
M  V30 1628 H 164.216 2.93468 -5.86137 0
M  V30 1629 H 163.736 3.96936 -4.49668 0
M  V30 1630 H 165.415 3.99335 -5.09059 0
M  V30 1631 N 165.547 1.27147 0.931209 0
M  V30 1632 C 166.772 1.16191 1.71797 0
M  V30 1633 C 167.197 -0.278004 1.86034 0
M  V30 1634 O 166.555 -1.20137 1.35782 0
M  V30 1635 C 166.603 1.84673 3.09723 0
M  V30 1636 O 165.707 1.14231 3.96264 0
M  V30 1637 H 165.048 0.404303 0.526721 0
M  V30 1638 H 167.578 1.68152 1.1656 0
M  V30 1639 H 167.588 1.91893 3.60057 0
M  V30 1640 H 166.263 2.89421 2.98677 0
M  V30 1641 H 164.84 1.15056 3.54706 0
M  V30 1642 N 167.025 -1.13721 1.09112 0
M  V30 1643 C 167.955 -2.21148 0.749385 0
M  V30 1644 C 168.936 -1.6792 -0.271475 0
M  V30 1645 O 170.121 -1.93693 -0.140251 0
M  V30 1646 C 167.251 -3.46905 0.165659 0
M  V30 1647 C 166.205 -4.13203 1.11567 0
M  V30 1648 C 165.531 -5.33248 0.393809 0
M  V30 1649 C 166.831 -4.60912 2.45678 0
M  V30 1650 H 168.525 -2.4999 1.64758 0
M  V30 1651 H 166.071 -1.20156 0.793626 0
M  V30 1652 H 168.024 -4.21313 -0.085466 0
M  V30 1653 H 166.748 -3.17449 -0.767714 0
M  V30 1654 H 165.407 -3.40758 1.35202 0
M  V30 1655 H 165.055 -5.00054 -0.543599 0
M  V30 1656 H 164.755 -5.78552 1.02721 0
M  V30 1657 H 166.279 -6.10413 0.150908 0
M  V30 1658 H 167.693 -5.26759 2.26269 0
M  V30 1659 H 166.09 -5.16944 3.04776 0
M  V30 1660 H 167.16 -3.75603 3.06677 0
M  V30 1661 N 168.503 -0.877838 -1.30888 0
M  V30 1662 C 169.733 -0.506678 -2.00291 0
M  V30 1663 C 170.141 0.907449 -1.66018 0
M  V30 1664 O 169.484 1.60719 -0.88967 0
M  V30 1665 C 169.546 -0.59323 -3.54572 0
M  V30 1666 C 169.21 -1.97038 -4.12341 0
M  V30 1667 C 170.207 -2.93889 -4.28865 0
M  V30 1668 C 167.892 -2.27383 -4.47886 0
M  V30 1669 C 169.886 -4.19224 -4.80136 0
M  V30 1670 C 167.573 -3.52965 -4.98857 0
M  V30 1671 C 168.571 -4.48701 -5.14934 0
M  V30 1672 O 168.259 -5.72056 -5.64808 0
M  V30 1673 H 167.991 -0.1951 -0.647234 0
M  V30 1674 H 170.545 -1.18301 -1.6791 0
M  V30 1675 H 168.775 0.140057 -3.86446 0
M  V30 1676 H 170.464 -0.234372 -4.05223 0
M  V30 1677 H 171.23 -2.71756 -4.01714 0
M  V30 1678 H 167.109 -1.53639 -4.34645 0
M  V30 1679 H 170.653 -4.93956 -4.92599 0
M  V30 1680 H 166.55 -3.74939 -5.25443 0
M  V30 1681 H 167.318 -5.74337 -5.83163 0
M  V30 1682 N 169.982 1.44106 -0.638065 0
M  V30 1683 C 171.207 2.0685 -0.150916 0
M  V30 1684 C 171.632 1.47417 1.16833 0
M  V30 1685 O 170.99 0.578264 1.71831 0
M  V30 1686 C 171.038 3.60555 -0.05708 0
M  V30 1687 O 170.142 4.00465 0.984972 0
M  V30 1688 H 169.483 0.658151 -0.0879399 0
M  V30 1689 H 172.013 1.84865 -0.876707 0
M  V30 1690 H 172.023 4.07789 0.131232 0
M  V30 1691 H 170.698 4.03193 -1.02021 0
M  V30 1692 H 169.275 3.64849 0.770672 0
M  V30 1693 N 171.46 0.379036 1.52974 0
M  V30 1694 C 172.407 -0.461048 2.26148 0
M  V30 1695 C 173.377 -1.06637 1.27349 0
M  V30 1696 O 174.562 -1.09633 1.56157 0
M  V30 1697 C 171.702 -1.58782 3.06402 0
M  V30 1698 C 170.815 -1.00636 4.20115 0
M  V30 1699 C 169.95 -2.10334 4.87784 0
M  V30 1700 C 168.989 -1.49724 5.93506 0
M  V30 1701 N 168.126 -2.5331 6.54812 0
M  V30 1702 H 172.966 0.169429 2.97518 0
M  V30 1703 H 170.503 0.0953806 1.4679 0
M  V30 1704 H 172.461 -2.25174 3.51215 0
M  V30 1705 H 171.091 -2.18876 2.37261 0
M  V30 1706 H 170.143 -0.232332 3.7969 0
M  V30 1707 H 171.455 -0.523343 4.96047 0
M  V30 1708 H 170.609 -2.84519 5.35849 0
M  V30 1709 H 169.348 -2.61992 4.11353 0
M  V30 1710 H 168.353 -0.740598 5.44789 0
M  V30 1711 H 169.578 -0.988732 6.71864 0
M  V30 1712 H 167.524 -3.04156 5.81227 0
M  V30 1713 H 167.441 -2.09734 7.26325 0
M  V30 1714 H 168.709 -3.27155 7.07524 0
M  V30 1715 N 172.938 -1.57226 0.108567 0
M  V30 1716 C 173.886 -2.16002 -0.862885 0
M  V30 1717 C 174.88 -1.10644 -1.28274 0
M  V30 1718 O 176.086 -1.28966 -1.2557 0
M  V30 1719 H 172.461 -0.691148 -0.296342 0
M  V30 1720 H 174.432 -2.96427 -0.342575 0
M  V30 1721 C 173.181 -2.76576 -2.10716 0
M  V30 1722 H 172.504 -3.5734 -1.793 0
M  V30 1723 H 173.944 -3.21253 -2.76717 0
M  V30 1724 C 172.403 -1.73137 -2.89007 0
M  V30 1725 O 172.933 -1.17842 -3.84026 0
M  V30 1726 N 171.139 -1.43317 -2.52801 0
M  V30 1727 H 170.686 -1.88473 -1.75601 0
M  V30 1728 H 170.644 -0.743485 -3.05483 0
M  V30 1729 N 174.416 0.165178 -1.56732 0
M  V30 1730 C 175.664 0.879068 -1.8198 0
M  V30 1731 C 175.985 1.82514 -0.686561 0
M  V30 1732 O 175.255 1.93694 0.293146 0
M  V30 1733 H 173.835 0.327608 -0.671329 0
M  V30 1734 H 176.497 0.163526 -1.94213 0
M  V30 1735 H 175.593 1.45228 -2.76252 0
M  V30 1736 N 175.894 1.51508 0.433938 0
M  V30 1737 C 177.14 1.64588 1.18484 0
M  V30 1738 C 177.473 0.362666 1.90784 0
M  V30 1739 O 176.748 -0.637892 1.83742 0
M  V30 1740 C 177.031 2.85149 2.19913 0
M  V30 1741 C 176.884 4.23456 1.51674 0
M  V30 1742 C 178.203 3.01227 3.20858 0
M  V30 1743 H 175.322 0.598994 0.429389 0
M  V30 1744 H 177.964 1.84002 0.473647 0
M  V30 1745 H 176.114 2.68729 2.80566 0
M  V30 1746 H 177.786 4.51552 0.943322 0
M  V30 1747 H 176.029 4.25998 0.819035 0
M  V30 1748 H 176.7 5.03812 2.2556 0
M  V30 1749 H 179.176 3.16382 2.70263 0
M  V30 1750 H 178.052 3.87141 3.89118 0
M  V30 1751 H 178.313 2.13447 3.8716 0
M  V30 1752 N 177.372 -0.689602 1.41712 0
M  V30 1753 C 178.335 -1.78521 1.43746 0
M  V30 1754 C 179.335 -1.57436 0.327191 0
M  V30 1755 O 180.525 -1.64 0.587348 0
M  V30 1756 C 177.657 -3.16971 1.25467 0
M  V30 1757 H 178.85 -1.78108 2.41283 0
M  V30 1758 H 176.403 -0.89781 1.27942 0
M  V30 1759 H 177.138 -3.23019 0.287948 0
M  V30 1760 H 176.923 -3.33678 2.05917 0
M  V30 1761 H 178.413 -3.96935 1.2974 0
M  V30 1762 N 178.85 -1.27639 -0.924453 0
M  V30 1763 C 180.09 -1.15407 -1.68703 0
M  V30 1764 C 180.454 0.294581 -1.89727 0
M  V30 1765 O 181.655 0.539385 -2.63333 0
M  V30 1766 C 179.926 -1.9195 -3.0148 0
M  V30 1767 S 181.485 -1.95969 -3.92609 0
M  V30 1768 H 178.303 -0.411937 -0.579507 0
M  V30 1769 H 180.905 -1.61592 -1.10038 0
M  V30 1770 H 179.609 -2.96387 -2.83871 0
M  V30 1771 H 179.14 -1.46272 -3.65196 0
M  V30 1772 H 181.155 -1.05846 -4.84779 0
M  V30 1773 N 180.328 1.1314 -1.09713 0
M  V30 1774 C 181.558 1.88048 -0.855656 0
M  V30 1775 C 181.966 1.79537 0.596919 0
M  V30 1776 O 181.309 1.16196 1.42282 0
M  V30 1777 C 181.371 3.38314 -1.21589 0
M  V30 1778 C 181.035 3.70605 -2.67397 0
M  V30 1779 C 182.032 3.69596 -3.65643 0
M  V30 1780 C 179.717 4.0017 -3.03593 0
M  V30 1781 C 181.711 3.977 -4.9811 0
M  V30 1782 C 179.398 4.27935 -4.36251 0
M  V30 1783 C 180.396 4.26685 -5.33318 0
M  V30 1784 O 180.084 4.53767 -6.63589 0
M  V30 1785 H 179.816 0.60208 -0.307368 0
M  V30 1786 H 182.37 1.44128 -1.46343 0
M  V30 1787 H 180.6 3.82752 -0.551177 0
M  V30 1788 H 182.289 3.94552 -0.953083 0
M  V30 1789 H 183.055 3.46826 -3.39023 0
M  V30 1790 H 178.934 4.00289 -2.2867 0
M  V30 1791 H 182.478 3.9664 -5.73866 0
M  V30 1792 H 178.375 4.50178 -4.62613 0
M  V30 1793 H 179.143 4.71422 -6.69107 0
M  V30 1794 N 181.806 0.884767 1.30421 0
M  V30 1795 C 182.736 0.367574 2.30589 0
M  V30 1796 C 183.717 -0.549464 1.60981 0
M  V30 1797 O 184.902 -0.46336 1.88591 0
M  V30 1798 C 182.032 -0.418944 3.44764 0
M  V30 1799 C 180.986 0.406316 4.26067 0
M  V30 1800 C 180.312 -0.506793 5.32293 0
M  V30 1801 C 181.612 1.64832 4.95608 0
M  V30 1802 H 183.306 1.20462 2.74097 0
M  V30 1803 H 180.852 0.580695 1.31772 0
M  V30 1804 H 182.805 -0.791395 4.13902 0
M  V30 1805 H 181.529 -1.28964 3.0006 0
M  V30 1806 H 180.188 0.760903 3.58617 0
M  V30 1807 H 179.836 -1.37519 4.83836 0
M  V30 1808 H 179.536 0.0415828 5.87585 0
M  V30 1809 H 181.06 -0.875764 6.04287 0
M  V30 1810 H 182.474 1.34646 5.57264 0
M  V30 1811 H 180.871 2.13688 5.60765 0
M  V30 1812 H 181.941 2.39284 4.21748 0
M  V30 1813 N 183.284 -1.43765 0.645699 0
M  V30 1814 C 184.512 -2.06253 0.163556 0
M  V30 1815 C 184.927 -1.48352 -1.16778 0
M  V30 1816 O 184.284 -0.611932 -1.71935 0
M  V30 1817 C 184.335 -3.61453 0.0583186 0
M  V30 1818 O 184.056 -4.172 1.33702 0
M  V30 1819 C 185.557 -4.41002 -0.450795 0
M  V30 1820 H 182.777 -0.665413 0.0864077 0
M  V30 1821 H 185.321 -1.84396 0.884222 0
M  V30 1822 H 183.476 -3.82522 -0.612865 0
M  V30 1823 H 183.89 -5.10791 1.19131 0
M  V30 1824 H 185.364 -5.49966 -0.473403 0
M  V30 1825 H 185.841 -4.13488 -1.48068 0
M  V30 1826 H 186.447 -4.24886 0.187637 0
M  V30 1827 N 184.763 -0.387143 -1.52771 0
M  V30 1828 C 185.711 0.463953 -2.27926 0
M  V30 1829 C 186.705 1.06493 -1.31741 0
M  V30 1830 O 187.911 1.00565 -1.49287 0
M  V30 1831 H 184.286 0.16837 -0.732909 0
M  V30 1832 H 186.257 -0.19141 -2.97785 0
M  V30 1833 C 185.006 1.5803 -3.09713 0
M  V30 1834 H 184.329 1.12718 -3.83581 0
M  V30 1835 H 185.769 2.15008 -3.65442 0
M  V30 1836 C 184.228 2.53509 -2.2189 0
M  V30 1837 O 184.758 3.56863 -1.84422 0
M  V30 1838 N 182.964 2.23199 -1.86093 0
M  V30 1839 H 182.511 1.39185 -2.16761 0
M  V30 1840 H 182.469 2.87333 -1.27621 0
M  V30 1841 N 186.241 1.57166 -0.116904 0
M  V30 1842 C 187.191 2.11756 0.845178 0
M  V30 1843 C 188.175 1.03783 1.22955 0
M  V30 1844 O 189.367 1.3002 1.20099 0
M  V30 1845 C 186.496 2.71886 2.09602 0
M  V30 1846 C 185.582 3.86937 1.7361 0
M  V30 1847 N 185.973 4.94073 1.08284 0
M  V30 1848 C 184.271 3.97082 2.03082 0
M  V30 1849 C 184.972 5.74477 0.913855 0
M  V30 1850 N 183.948 5.2423 1.43818 0
M  V30 1851 H 187.75 2.91967 0.336523 0
M  V30 1852 H 185.264 1.62174 0.0856332 0
M  V30 1853 H 187.261 3.09338 2.79492 0
M  V30 1854 H 185.921 1.93138 2.61013 0
M  V30 1855 H 186.932 5.12483 0.747067 0
M  V30 1856 H 183.609 3.29372 2.56554 0
M  V30 1857 H 184.999 6.70701 0.40125 0
M  V30 1858 N 187.719 -0.156864 1.56817 0
M  V30 1859 C 188.967 -0.869404 1.82444 0
M  V30 1860 C 189.288 -1.82147 0.69623 0
M  V30 1861 O 188.558 -1.93847 -0.28287 0
M  V30 1862 H 187.138 -0.324043 0.673056 0
M  V30 1863 H 189.8 -0.153224 1.94297 0
M  V30 1864 H 188.896 -1.43761 2.77019 0
M  V30 1865 N 189.197 -1.51736 -0.425897 0
M  V30 1866 C 190.613 -1.40166 -0.76326 0
M  V30 1867 C 190.813 -0.492962 -1.95377 0
M  V30 1868 O 189.869 0.0475815 -2.52455 0
M  V30 1869 C 191.182 -2.82403 -1.03291 0
M  V30 1870 C 192.73 -2.91632 -1.13665 0
M  V30 1871 C 193.205 -4.34801 -1.43916 0
M  V30 1872 N 194.696 -4.3796 -1.50816 0
M  V30 1873 C 195.431 -5.4578 -1.75817 0
M  V30 1874 N 194.927 -6.63744 -1.98534 0
M  V30 1875 N 196.72 -5.33274 -1.77694 0
M  V30 1876 H 188.871 -2.09361 0.358 0
M  V30 1877 H 191.134 -0.942941 0.0978094 0
M  V30 1878 H 190.84 -3.50943 -0.230696 0
M  V30 1879 H 190.714 -3.22428 -1.95754 0
M  V30 1880 H 193.101 -2.23284 -1.92947 0
M  V30 1881 H 193.182 -2.55088 -0.190756 0
M  V30 1882 H 192.826 -5.03703 -0.65157 0
M  V30 1883 H 192.756 -4.68868 -2.39729 0
M  V30 1884 H 195.247 -3.52919 -1.35118 0
M  V30 1885 H 195.56 -7.41704 -2.17013 0
M  V30 1886 H 193.905 -6.66839 -1.95832 0
M  V30 1887 H 197.096 -4.40098 -1.59473 0
M  V30 1888 H 197.269 -6.1738 -1.9684 0
M  V30 1889 N 190.675 0.682077 -1.42076 0
M  V30 1890 C 192.091 0.994324 -1.24841 0
M  V30 1891 C 192.291 2.0096 -0.147389 0
M  V30 1892 O 191.347 2.47822 0.483782 0
M  V30 1893 C 192.66 1.50607 -2.60265 0
M  V30 1894 C 194.208 1.62421 -2.6756 0
M  V30 1895 C 194.683 2.16994 -4.03333 0
M  V30 1896 N 196.174 2.24337 -4.0525 0
M  V30 1897 C 196.909 2.67621 -5.07116 0
M  V30 1898 N 196.405 3.1041 -6.19368 0
M  V30 1899 N 198.198 2.67305 -4.94474 0
M  V30 1900 H 190.349 0.00973908 -2.12398 0
M  V30 1901 H 192.612 0.0668593 -0.945639 0
M  V30 1902 H 192.318 0.834583 -3.41654 0
M  V30 1903 H 192.192 2.48602 -2.83684 0
M  V30 1904 H 194.579 2.28678 -1.86521 0
M  V30 1905 H 194.66 0.629352 -2.47937 0
M  V30 1906 H 194.304 1.51349 -4.84826 0
M  V30 1907 H 194.234 3.17258 -4.20304 0
M  V30 1908 H 196.725 1.94158 -3.24209 0
M  V30 1909 H 197.038 3.42103 -6.92954 0
M  V30 1910 H 195.383 3.08286 -6.22884 0
M  V30 1911 H 198.574 2.33233 -4.05857 0
M  V30 1912 H 198.747 3.00718 -5.73997 0
M  V30 1913 N 192.153 1.28127 0.917671 0
M  V30 1914 C 193.402 1.14432 1.66097 0
M  V30 1915 C 193.715 -0.307247 1.93172 0
M  V30 1916 O 194.921 -0.565259 2.65551 0
M  V30 1917 C 193.377 2.00015 2.99202 0
M  V30 1918 C 192.985 3.49889 2.79789 0
M  V30 1919 C 194.729 1.94996 3.77064 0
M  V30 1920 C 192.636 4.27636 4.08511 0
M  V30 1921 H 191.566 0.424662 0.62304 0
M  V30 1922 H 194.217 1.52628 1.01868 0
M  V30 1923 H 192.599 1.54672 3.64544 0
M  V30 1924 H 193.773 4.03162 2.23152 0
M  V30 1925 H 192.088 3.56392 2.15345 0
M  V30 1926 H 194.685 2.50354 4.72469 0
M  V30 1927 H 195.028 0.925819 4.05875 0
M  V30 1928 H 195.561 2.38287 3.18534 0
M  V30 1929 H 192.3 5.30615 3.84874 0
M  V30 1930 H 191.82 3.79137 4.64774 0
M  V30 1931 H 193.499 4.37346 4.76799 0
M  V30 1932 N 193.631 -1.12557 1.10312 0
M  V30 1933 C 195.042 -1.65574 0.862678 0
M  V30 1934 C 195.393 -1.86566 -0.607256 0
M  V30 1935 O 194.518 -1.59121 -1.46662 0
M  V30 1936 C 195.113 -3.00776 1.55947 0
M  V30 1937 C 193.672 -3.50748 1.36576 0
M  V30 1938 C 192.819 -2.25797 1.60968 0
M  V30 1939 H 195.77 -0.963552 1.26101 0
M  V30 1940 H 195.791 -3.67185 0.997753 0
M  V30 1941 H 195.303 -2.85465 2.62928 0
M  V30 1942 H 193.404 -3.71245 0.317531 0
M  V30 1943 H 193.517 -4.30289 2.10686 0
M  V30 1944 H 191.881 -2.32841 1.03234 0
M  V30 1945 H 192.664 -2.13043 2.69198 0
M  V30 1946 N 195.109 -0.891671 -1.2995 0
M  V30 1947 C 196.056 -0.361736 -2.27948 0
M  V30 1948 C 197.026 0.551761 -1.56668 0
M  V30 1949 O 198.211 0.478736 -1.84696 0
M  V30 1950 C 195.351 0.411825 -3.42634 0
M  V30 1951 C 194.464 -0.531651 -4.28716 0
M  V30 1952 C 193.599 0.258167 -5.30572 0
M  V30 1953 C 192.638 -0.680349 -6.08307 0
M  V30 1954 N 191.775 0.0745613 -7.0206 0
M  V30 1955 H 196.615 -1.20254 -2.72659 0
M  V30 1956 H 194.152 -0.604352 -1.34112 0
M  V30 1957 H 196.11 0.876304 -4.07893 0
M  V30 1958 H 194.74 1.21715 -2.98974 0
M  V30 1959 H 193.792 -1.11463 -3.63703 0
M  V30 1960 H 195.104 -1.25038 -4.82874 0
M  V30 1961 H 194.258 0.784204 -6.0161 0
M  V30 1962 H 192.997 1.01008 -4.77126 0
M  V30 1963 H 192.002 -1.21796 -5.3614 0
M  V30 1964 H 193.227 -1.43145 -6.63842 0
M  V30 1965 H 191.173 0.808883 -6.50994 0
M  V30 1966 H 191.09 -0.584409 -7.53738 0
M  V30 1967 H 192.358 0.581123 -7.77331 0
M  V30 1968 N 196.587 1.43421 -0.653314 0
M  V30 1969 C 197.864 1.95361 -0.0966581 0
M  V30 1970 C 198.244 1.59461 1.38331 0
M  V30 1971 O 197.592 0.879777 2.10884 0
M  V30 1972 C 197.802 3.47311 -0.342988 0
M  V30 1973 C 199.15 4.23875 -0.24798 0
M  V30 1974 O 200.174 3.55133 -0.275553 0
M  V30 1975 O 199.033 5.4623 -0.171771 0
M  V30 1976 H 196.127 0.826945 0.00956291 0
M  V30 1977 H 198.673 1.5336 -0.726558 0
M  V30 1978 H 197.445 3.66569 -1.36906 0
M  V30 1979 H 197.068 3.9631 0.319975 0
M  V30 1980 N 198.065 0.39524 1.52563 0
M  V30 1981 C 199.311 -0.185318 2.01952 0
M  V30 1982 C 199.644 -1.45964 1.28095 0
M  V30 1983 O 198.919 -1.90689 0.38315 0
M  V30 1984 C 199.202 -0.447193 3.57312 0
M  V30 1985 C 199.055 0.842828 4.41833 0
M  V30 1986 C 200.374 -1.23529 4.22408 0
M  V30 1987 H 197.493 -0.0658788 0.73405 0
M  V30 1988 H 200.135 0.525975 1.82575 0
M  V30 1989 H 198.285 -1.05312 3.73954 0
M  V30 1990 H 199.957 1.4795 4.36931 0
M  V30 1991 H 198.2 1.45686 4.08605 0
M  V30 1992 H 198.871 0.614165 5.48573 0
M  V30 1993 H 201.347 -0.722445 4.0978 0
M  V30 1994 H 200.223 -1.38727 5.3108 0
M  V30 1995 H 200.484 -2.25213 3.80436 0
M  V30 1996 N 199.544 -1.57102 0.125237 0
M  V30 1997 C 200.79 -1.95697 -0.532035 0
M  V30 1998 C 201.123 -1.009 -1.6593 0
M  V30 1999 O 200.398 -0.047347 -1.94442 0
M  V30 2000 C 200.681 -3.44181 -1.05884 0
M  V30 2001 C 200.534 -4.49752 0.0654392 0
M  V30 2002 C 201.853 -3.94655 -1.9477 0
M  V30 2003 H 198.972 -0.711571 -0.191925 0
M  V30 2004 H 201.614 -1.88923 0.20206 0
M  V30 2005 H 199.764 -3.50085 -1.68442 0
M  V30 2006 H 201.436 -4.55943 0.700982 0
M  V30 2007 H 199.679 -4.27653 0.727709 0
M  V30 2008 H 200.35 -5.50924 -0.344505 0
M  V30 2009 H 202.826 -3.91094 -1.42074 0
M  V30 2010 H 201.702 -4.99057 -2.28546 0
M  V30 2011 H 201.963 -3.35718 -2.87656 0
M  V30 2012 N 201.022 0.148545 -1.56898 0
M  V30 2013 C 201.932 1.20293 -2.01412 0
M  V30 2014 C 202.948 1.47107 -0.929273 0
M  V30 2015 O 204.124 1.58807 -1.23863 0
M  V30 2016 C 201.189 2.51682 -2.38447 0
M  V30 2017 C 200.25 2.32529 -3.60872 0
M  V30 2018 C 199.483 3.57653 -3.96132 0
M  V30 2019 O 199.706 4.63771 -3.32073 0
M  V30 2020 O 198.64 3.50408 -4.89385 0
M  V30 2021 H 202.466 0.855025 -2.91416 0
M  V30 2022 H 200.051 0.357151 -1.45068 0
M  V30 2023 H 201.933 3.29147 -2.63135 0
M  V30 2024 H 200.608 2.86006 -1.51599 0
M  V30 2025 H 199.515 1.53019 -3.41373 0
M  V30 2026 H 200.848 2.03121 -4.48333 0
M  V30 2027 N 202.5 1.5196 0.417844 0
M  V30 2028 C 203.41 1.77554 1.53336 0
M  V30 2029 C 204.426 0.660655 1.6097 0
M  V30 2030 O 205.602 0.945099 1.77848 0
M  V30 2031 C 202.667 1.91291 2.89152 0
M  V30 2032 C 201.728 3.15183 2.91475 0
M  V30 2033 C 200.961 3.28256 4.20813 0
M  V30 2034 O 201.184 2.46798 5.14244 0
M  V30 2035 O 200.118 4.21356 4.29817 0
M  V30 2036 H 203.944 2.7222 1.34647 0
M  V30 2037 H 201.529 1.36698 0.602828 0
M  V30 2038 H 203.411 2.02199 3.69721 0
M  V30 2039 H 202.086 0.998129 3.07927 0
M  V30 2040 H 200.993 3.09739 2.09791 0
M  V30 2041 H 202.326 4.06414 2.77648 0
M  V30 2042 N 203.978 -0.674533 1.42435 0
M  V30 2043 C 205.225 -1.43459 1.42919 0
M  V30 2044 C 205.553 -1.94446 0.0457312 0
M  V30 2045 O 204.808 -1.7132 -0.94593 0
M  V30 2046 C 205.107 -2.64767 2.40069 0
M  V30 2047 C 204.773 -2.3232 3.86443 0
M  V30 2048 C 203.435 -2.23182 4.26314 0
M  V30 2049 C 205.787 -2.05977 4.78773 0
M  V30 2050 C 203.115 -1.85827 5.56494 0
M  V30 2051 C 205.467 -1.70125 6.09295 0
M  V30 2052 C 204.131 -1.59498 6.48164 0
M  V30 2053 H 203.401 -0.524952 0.522978 0
M  V30 2054 H 206.048 -0.769097 1.75377 0
M  V30 2055 H 204.353 -3.36349 2.00939 0
M  V30 2056 H 206.05 -3.22949 2.37707 0
M  V30 2057 H 202.64 -2.40334 3.54877 0
M  V30 2058 H 206.824 -2.11969 4.48757 0
M  V30 2059 H 202.08 -1.76168 5.8547 0
M  V30 2060 H 206.254 -1.48767 6.80324 0
M  V30 2061 H 203.881 -1.30322 7.48946 0
M  V30 2062 N 205.456 -1.28612 -0.910864 0
M  V30 2063 C 206.681 -1.1891 -1.69927 0
M  V30 2064 C 207.106 0.248372 -1.86453 0
M  V30 2065 O 206.464 1.17961 -1.37676 0
M  V30 2066 C 206.512 -1.89578 -3.06745 0
M  V30 2067 O 205.616 -1.20521 -3.94396 0
M  V30 2068 H 204.957 -0.412632 -0.520222 0
M  V30 2069 H 207.487 -1.69985 -1.1387 0
M  V30 2070 H 207.497 -1.97597 -3.56958 0
M  V30 2071 H 206.172 -2.94136 -2.94035 0
M  V30 2072 H 204.749 -1.20684 -3.52831 0
M  V30 2073 N 206.934 1.1197 -1.10907 0
M  V30 2074 C 208.211 1.79959 -0.766432 0
M  V30 2075 C 208.591 1.97466 0.746363 0
M  V30 2076 O 207.939 1.55491 1.67436 0
M  V30 2077 C 208.149 3.14009 -1.52314 0
M  V30 2078 C 209.497 3.89134 -1.69883 0
M  V30 2079 O 210.521 3.2368 -1.48692 0
M  V30 2080 O 209.38 5.06572 -2.05054 0
M  V30 2081 H 206.474 0.779208 -0.277062 0
M  V30 2082 H 209.02 1.18762 -1.21217 0
M  V30 2083 H 207.792 2.96587 -2.55249 0
M  V30 2084 H 207.415 3.82915 -1.07059 0
M  V30 2085 N 208.412 0.89855 1.29475 0
M  V30 2086 C 209.342 0.39201 2.30186 0
M  V30 2087 C 210.323 -0.532359 1.61555 0
M  V30 2088 O 211.508 -0.443331 1.89072 0
M  V30 2089 C 208.638 -0.382353 3.45189 0
M  V30 2090 C 207.592 0.451483 4.25612 0
M  V30 2091 C 206.918 -0.450307 5.328 0
M  V30 2092 C 208.218 1.70079 4.93832 0
M  V30 2093 H 209.912 1.23362 2.72804 0
M  V30 2094 H 207.458 0.594638 1.31149 0
M  V30 2095 H 209.411 -0.747451 4.14718 0
M  V30 2096 H 208.135 -1.25774 3.01411 0
M  V30 2097 H 206.794 0.798897 3.57789 0
M  V30 2098 H 206.442 -1.32379 4.85268 0
M  V30 2099 H 206.142 0.103902 5.87508 0
M  V30 2100 H 207.666 -0.811623 6.05182 0
M  V30 2101 H 209.08 1.40549 5.55805 0
M  V30 2102 H 207.477 2.19623 5.58467 0
M  V30 2103 H 208.547 2.43744 4.19186 0
M  V30 2104 N 209.89 -1.43072 0.660911 0
M  V30 2105 C 211.12 -2.05769 0.185153 0
M  V30 2106 C 211.528 -1.49668 -1.15742 0
M  V30 2107 O 210.871 -0.625649 -1.72717 0
M  V30 2108 C 210.933 -3.59489 0.0278237 0
M  V30 2109 C 210.597 -4.38212 1.2969 0
M  V30 2110 C 211.594 -4.69772 2.22734 0
M  V30 2111 C 209.279 -4.7809 1.54063 0
M  V30 2112 C 211.273 -5.40129 3.38437 0
M  V30 2113 C 208.96 -5.4819 2.70058 0
M  V30 2114 C 209.958 -5.79132 3.62071 0
M  V30 2115 O 209.646 -6.47798 4.76039 0
M  V30 2116 H 209.378 -0.669873 0.0908086 0
M  V30 2117 H 211.932 -1.84436 0.90402 0
M  V30 2118 H 210.162 -3.79426 -0.746489 0
M  V30 2119 H 211.851 -4.03862 -0.406275 0
M  V30 2120 H 212.617 -4.39476 2.05149 0
M  V30 2121 H 208.496 -4.53408 0.833215 0
M  V30 2122 H 212.04 -5.64198 4.10277 0
M  V30 2123 H 207.937 -5.77902 2.87574 0
M  V30 2124 H 208.705 -6.66283 4.75404 0
M  V30 2125 N 211.368 -0.403325 -1.52352 0
M  V30 2126 C 212.316 0.439752 -2.28405 0
M  V30 2127 C 213.31 1.05089 -1.32863 0
M  V30 2128 O 214.516 0.989759 -1.50345 0
M  V30 2129 H 210.891 0.160587 -0.734653 0
M  V30 2130 H 212.862 -0.222983 -2.97566 0
M  V30 2131 C 211.611 1.54736 -3.11371 0
M  V30 2132 H 210.934 1.08643 -3.84755 0
M  V30 2133 H 212.374 2.1112 -3.67701 0
M  V30 2134 C 210.833 2.51141 -2.24566 0
M  V30 2135 O 211.363 3.54887 -1.88196 0
M  V30 2136 N 209.569 2.21213 -1.8845 0
M  V30 2137 H 209.116 1.36878 -2.18225 0
M  V30 2138 H 209.074 2.85963 -1.30662 0
M  V30 2139 N 212.846 1.57033 -0.133567 0
M  V30 2140 C 213.756 2.19632 0.824564 0
M  V30 2141 C 214.772 1.17666 1.28182 0
M  V30 2142 O 215.948 1.50193 1.3418 0
M  V30 2143 C 213.013 2.79499 2.05137 0
M  V30 2144 C 212.074 3.96548 1.64464 0
M  V30 2145 C 211.307 4.5355 2.81297 0
M  V30 2146 O 211.53 4.09438 3.97136 0
M  V30 2147 O 210.464 5.44018 2.57542 0
M  V30 2148 H 214.29 3.01991 0.321766 0
M  V30 2149 H 211.875 1.49112 0.0927889 0
M  V30 2150 H 213.757 3.17602 2.7696 0
M  V30 2151 H 212.432 2.00162 2.54395 0
M  V30 2152 H 211.339 3.63186 0.897048 0
M  V30 2153 H 212.672 4.77364 1.19934 0
M  V30 2154 N 214.325 -0.140222 1.56975 0
M  V30 2155 C 215.571 -0.852949 1.83991 0
M  V30 2156 C 215.904 -1.80512 0.716187 0
M  V30 2157 O 215.179 -1.92479 -0.279681 0
M  V30 2158 C 215.462 -1.6215 3.21527 0
M  V30 2159 C 215.315 -0.690363 4.4447 0
M  V30 2160 C 216.634 -2.58247 3.56366 0
M  V30 2161 H 213.753 -0.308634 0.669264 0
M  V30 2162 H 216.395 -0.117898 1.89634 0
M  V30 2163 H 214.545 -2.24812 3.16847 0
M  V30 2164 H 216.217 -0.0742264 4.6124 0
M  V30 2165 H 214.46 -0.000396433 4.338 0
M  V30 2166 H 215.131 -1.2643 5.37326 0
M  V30 2167 H 217.607 -2.05701 3.61699 0
M  V30 2168 H 216.483 -3.09067 4.53617 0
M  V30 2169 H 216.744 -3.39923 2.82674 0
M  V30 2170 N 215.803 -1.52179 -0.40978 0
M  V30 2171 C 217.033 -1.69807 -1.17682 0
M  V30 2172 C 217.441 -0.406908 -1.84773 0
M  V30 2173 O 216.784 0.626863 -1.72673 0
M  V30 2174 C 216.846 -2.77712 -2.2829 0
M  V30 2175 C 216.51 -4.19481 -1.81341 0
M  V30 2176 C 217.507 -5.03345 -1.30154 0
M  V30 2177 C 215.192 -4.65713 -1.88194 0
M  V30 2178 C 217.186 -6.31511 -0.864416 0
M  V30 2179 C 214.873 -5.93869 -1.44093 0
M  V30 2180 C 215.871 -6.76597 -0.933023 0
M  V30 2181 O 215.559 -8.02354 -0.49838 0
M  V30 2182 H 215.291 -0.572372 -0.359675 0
M  V30 2183 H 217.845 -1.99511 -0.488311 0
M  V30 2184 H 216.075 -2.43383 -3.00502 0
M  V30 2185 H 217.764 -2.83946 -2.90051 0
M  V30 2186 H 218.53 -4.68819 -1.24232 0
M  V30 2187 H 214.409 -4.01424 -2.26671 0
M  V30 2188 H 217.953 -6.96033 -0.467286 0
M  V30 2189 H 213.85 -6.27903 -1.49694 0
M  V30 2190 H 214.618 -8.16135 -0.621747 0
M  V30 2191 N 217.281 0.66697 -1.42791 0
M  V30 2192 C 218.229 1.80157 -1.47127 0
M  V30 2193 C 219.223 1.65825 -0.346199 0
M  V30 2194 O 220.429 1.72338 -0.519572 0
M  V30 2195 H 216.804 0.594158 -0.460956 0
M  V30 2196 H 218.775 1.73619 -2.42692 0
M  V30 2197 C 217.524 3.18351 -1.39813 0
M  V30 2198 H 216.847 3.3001 -2.25684 0
M  V30 2199 H 218.287 3.97736 -1.46908 0
M  V30 2200 C 216.746 3.36707 -0.11391 0
M  V30 2201 O 217.276 3.93027 0.830241 0
M  V30 2202 N 215.482 2.90586 -0.0285295 0
M  V30 2203 H 215.029 2.4494 -0.79764 0
M  V30 2204 H 214.987 3.03245 0.830063 0
M  V30 2205 N 218.759 1.29093 0.90403 0
M  V30 2206 C 219.689 1.16401 2.02418 0
M  V30 2207 C 220.67 0.0593085 1.69997 0
M  V30 2208 O 221.855 0.238021 1.92736 0
M  V30 2209 C 218.985 0.835233 3.37107 0
M  V30 2210 C 217.939 1.89578 3.83724 0
M  V30 2211 C 217.265 1.42041 5.15489 0
M  V30 2212 C 218.565 3.30394 4.04521 0
M  V30 2213 H 220.259 2.10109 2.13295 0
M  V30 2214 H 217.805 1.01157 1.02486 0
M  V30 2215 H 219.758 0.733169 4.14973 0
M  V30 2216 H 218.482 -0.137543 3.2631 0
M  V30 2217 H 217.141 1.98715 3.08071 0
M  V30 2218 H 216.789 0.436426 5.01103 0
M  V30 2219 H 216.489 2.12964 5.4765 0
M  V30 2220 H 218.013 1.33176 5.959 0
M  V30 2221 H 219.427 3.24123 4.72882 0
M  V30 2222 H 217.824 3.99237 4.48029 0
M  V30 2223 H 218.894 3.73692 3.09002 0
M  V30 2224 N 220.237 -1.11381 1.11499 0
M  V30 2225 C 221.465 -1.86934 0.88675 0
M  V30 2226 C 221.88 -1.80195 -0.563476 0
M  V30 2227 O 221.237 -1.18367 -1.38908 0
M  V30 2228 C 221.288 -3.35722 1.34064 0
M  V30 2229 O 221.009 -3.4232 2.73401 0
M  V30 2230 C 222.51 -4.2818 1.14791 0
M  V30 2231 H 219.73 -0.591117 0.317523 0
M  V30 2232 H 222.274 -1.40865 1.48248 0
M  V30 2233 H 220.429 -3.79294 0.788355 0
M  V30 2234 H 220.843 -4.34971 2.93087 0
M  V30 2235 H 222.317 -5.30817 1.5145 0
M  V30 2236 H 222.794 -4.39113 0.0875279 0
M  V30 2237 H 223.4 -3.90402 1.68721 0
M  V30 2238 N 221.715 -0.905404 -1.28997 0
M  V30 2239 C 222.647 -0.344748 -2.26592 0
M  V30 2240 C 223.66 0.512135 -1.54535 0
M  V30 2241 O 224.849 0.328368 -1.75454 0
M  V30 2242 C 221.949 0.526587 -3.34784 0
M  V30 2243 C 221.122 -0.305871 -4.36329 0
M  V30 2244 C 220.181 0.499209 -5.23827 0
M  V30 2245 O 219.207 -0.0853004 -5.69136 0
M  V30 2246 N 220.409 1.80408 -5.51755 0
M  V30 2247 H 223.174 -1.18359 -2.75338 0
M  V30 2248 H 220.735 -0.770481 -1.42391 0
M  V30 2249 H 222.727 1.07171 -3.90252 0
M  V30 2250 H 221.297 1.26613 -2.85811 0
M  V30 2251 H 220.517 -1.0324 -3.80441 0
M  V30 2252 H 221.805 -0.875773 -5.01206 0
M  V30 2253 H 221.203 2.3016 -5.16762 0
M  V30 2254 H 219.76 2.29621 -6.10014 0
M  V30 2255 N 223.193 1.4272 -0.668489 0
M  V30 2256 C 224.103 2.34596 0.0139753 0
M  V30 2257 C 225.119 1.5474 0.795703 0
M  V30 2258 O 226.295 1.87334 0.739466 0
M  V30 2259 C 223.36 3.33202 0.957982 0
M  V30 2260 C 222.421 4.28957 0.17149 0
M  V30 2261 C 221.654 5.22853 1.07053 0
M  V30 2262 O 221.877 5.21531 2.31001 0
M  V30 2263 O 220.811 5.9952 0.534727 0
M  V30 2264 H 224.637 2.9448 -0.742661 0
M  V30 2265 H 222.222 1.43117 -0.428705 0
M  V30 2266 H 224.104 3.93796 1.50008 0
M  V30 2267 H 222.779 2.758 1.69458 0
M  V30 2268 H 221.686 3.71796 -0.414558 0
M  V30 2269 H 223.019 4.89383 -0.52586 0
M  V30 2270 N 224.671 0.411399 1.52136 0
M  V30 2271 C 225.918 -0.163645 2.01838 0
M  V30 2272 C 226.246 -1.4495 1.29691 0
M  V30 2273 O 225.501 -1.91725 0.392431 0
M  V30 2274 C 225.8 -0.455872 3.54481 0
M  V30 2275 C 225.466 0.741055 4.44769 0
M  V30 2276 C 224.128 1.06936 4.69167 0
M  V30 2277 C 226.48 1.54075 4.97906 0
M  V30 2278 C 223.808 2.19851 5.43951 0
M  V30 2279 C 226.16 2.66067 5.73926 0
M  V30 2280 C 224.824 2.99381 5.96596 0
M  V30 2281 H 224.094 -0.0598821 0.738576 0
M  V30 2282 H 226.741 0.553283 1.83333 0
M  V30 2283 H 225.046 -1.2544 3.71177 0
M  V30 2284 H 226.743 -0.913802 3.90449 0
M  V30 2285 H 223.333 0.475192 4.25958 0
M  V30 2286 H 227.517 1.30033 4.78963 0
M  V30 2287 H 222.773 2.46006 5.59724 0
M  V30 2288 H 226.947 3.28419 6.14096 0
M  V30 2289 H 224.574 3.86992 6.54325 0
M  V30 2290 N 226.149 -1.5696 0.141893 0
M  V30 2291 C 227.396 -1.9596 -0.510492 0
M  V30 2292 C 227.724 -1.02648 -1.65208 0
M  V30 2293 O 226.979 -0.0546947 -1.95624 0
M  V30 2294 C 227.278 -3.41242 -1.06249 0
M  V30 2295 C 226.944 -4.50882 -0.0398791 0
M  V30 2296 C 225.606 -4.80595 0.241247 0
M  V30 2297 C 227.958 -5.17058 0.65578 0
M  V30 2298 C 225.286 -5.73792 1.22393 0
M  V30 2299 C 227.638 -6.11313 1.62724 0
M  V30 2300 C 226.302 -6.39407 1.91612 0
M  V30 2301 H 225.572 -0.717068 -0.186802 0
M  V30 2302 H 228.219 -1.90142 0.227643 0
M  V30 2303 H 226.524 -3.43866 -1.87785 0
M  V30 2304 H 228.221 -3.68742 -1.57576 0
M  V30 2305 H 224.811 -4.27754 -0.269174 0
M  V30 2306 H 228.995 -4.94239 0.451779 0
M  V30 2307 H 224.251 -5.93853 1.45424 0
M  V30 2308 H 228.425 -6.61668 2.17183 0
M  V30 2309 H 226.052 -7.11427 2.6791 0
M  V30 2310 N 227.627 0.131896 -1.57047 0
M  V30 2311 C 229.043 0.485031 -1.52051 0
M  V30 2312 C 229.243 1.82563 -0.85281 0
M  V30 2313 O 228.299 2.48817 -0.429694 0
M  V30 2314 C 229.612 0.481409 -2.96821 0
M  V30 2315 C 231.16 0.565868 -3.07842 0
M  V30 2316 C 231.635 0.592762 -4.54148 0
M  V30 2317 N 233.126 0.654564 -4.58552 0
M  V30 2318 C 233.861 0.696608 -5.69153 0
M  V30 2319 N 233.357 0.697078 -6.89284 0
M  V30 2320 N 235.15 0.738639 -5.57226 0
M  V30 2321 H 227.301 -0.746664 -1.98843 0
M  V30 2322 H 229.564 -0.273999 -0.90754 0
M  V30 2323 H 229.27 -0.435731 -3.4899 0
M  V30 2324 H 229.144 1.3139 -3.53577 0
M  V30 2325 H 231.531 1.47343 -2.55684 0
M  V30 2326 H 231.612 -0.29406 -2.54104 0
M  V30 2327 H 231.256 -0.310701 -5.06949 0
M  V30 2328 H 231.186 1.46939 -5.05684 0
M  V30 2329 H 233.677 0.660887 -3.72076 0
M  V30 2330 H 233.99 0.731426 -7.69331 0
M  V30 2331 H 232.335 0.66471 -6.91814 0
M  V30 2332 H 235.526 0.735545 -4.62285 0
M  V30 2333 H 235.699 0.767938 -6.43434 0
M  V30 2334 N 229.106 1.52395 0.401703 0
M  V30 2335 C 230.056 1.72649 1.48917 0
M  V30 2336 C 231.04 0.580436 1.50066 0
M  V30 2337 O 232.232 0.83779 1.55917 0
M  V30 2338 C 229.361 1.88729 2.86769 0
M  V30 2339 C 228.447 3.09228 2.90239 0
M  V30 2340 N 228.838 4.31805 2.63396 0
M  V30 2341 C 227.136 3.09214 3.21408 0
M  V30 2342 C 227.837 5.13326 2.73625 0
M  V30 2343 N 226.813 4.48735 3.06819 0
M  V30 2344 H 230.615 2.65058 1.26971 0
M  V30 2345 H 228.129 1.50528 0.609504 0
M  V30 2346 H 230.126 2.01358 3.65049 0
M  V30 2347 H 228.786 0.975252 3.09708 0
M  V30 2348 H 229.797 4.60154 2.37653 0
M  V30 2349 H 226.474 2.27774 3.49893 0
M  V30 2350 H 227.864 6.21003 2.56524 0
M  V30 2351 N 230.584 -0.659388 1.43143 0
M  V30 2352 C 231.861 -1.41627 1.34912 0
M  V30 2353 C 232.241 -2.11099 -0.00607785 0
M  V30 2354 O 231.589 -2.04353 -1.02236 0
M  V30 2355 C 231.799 -2.40604 2.52805 0
M  V30 2356 C 233.147 -3.04789 2.95616 0
M  V30 2357 O 234.171 -2.50932 2.52807 0
M  V30 2358 O 233.03 -4.02421 3.69756 0
M  V30 2359 H 230.124 -0.63246 0.532844 0
M  V30 2360 H 232.67 -0.686814 1.5518 0
M  V30 2361 H 231.442 -1.88174 3.43083 0
M  V30 2362 H 231.065 -3.21009 2.34604 0
M  V30 2363 N 232.062 -1.29571 -0.897171 0
M  V30 2364 C 233.009 -1.14916 -2.00158 0
M  V30 2365 C 233.979 -0.0418149 -1.66047 0
M  V30 2366 O 235.164 -0.209793 -1.89643 0
M  V30 2367 C 232.304 -0.834307 -3.34863 0
M  V30 2368 C 231.417 -2.02234 -3.8174 0
M  V30 2369 C 230.552 -1.64664 -5.05034 0
M  V30 2370 C 229.591 -2.80033 -5.44286 0
M  V30 2371 N 228.728 -2.42843 -6.58765 0
M  V30 2372 H 233.568 -2.09403 -2.12025 0
M  V30 2373 H 231.105 -1.042 -1.0383 0
M  V30 2374 H 233.063 -0.632436 -4.12379 0
M  V30 2375 H 231.693 0.0736656 -3.22716 0
M  V30 2376 H 230.745 -2.33583 -3.00238 0
M  V30 2377 H 232.057 -2.88673 -4.06779 0
M  V30 2378 H 231.211 -1.4078 -5.9014 0
M  V30 2379 H 229.95 -0.753766 -4.8184 0
M  V30 2380 H 228.955 -3.04596 -4.57713 0
M  V30 2381 H 230.18 -3.69989 -5.6946 0
M  V30 2382 H 228.126 -1.56046 -6.3717 0
M  V30 2383 H 228.043 -3.22815 -6.83613 0
M  V30 2384 H 229.311 -2.22285 -7.47134 0
M  V30 2385 N 233.54 1.10788 -1.12088 0
M  V30 2386 C 234.951 1.64181 -0.88891 0
M  V30 2387 C 235.302 1.87508 0.577498 0
M  V30 2388 O 234.427 1.61434 1.44112 0
M  V30 2389 C 235.022 2.98257 -1.60712 0
M  V30 2390 C 233.581 3.4853 -1.42139 0
M  V30 2391 C 232.728 2.23208 -1.6454 0
M  V30 2392 H 235.679 0.943368 -1.27618 0
M  V30 2393 H 235.7 3.65552 -1.05604 0
M  V30 2394 H 235.212 2.81246 -2.67436 0
M  V30 2395 H 233.313 3.70692 -0.376552 0
M  V30 2396 H 233.426 4.26882 -2.17505 0
M  V30 2397 H 231.79 2.31169 -1.06925 0
M  V30 2398 H 232.573 2.08733 -2.72554 0
M  V30 2399 N 235.018 0.912232 1.28515 0
M  V30 2400 C 236.264 0.545405 1.95328 0
M  V30 2401 C 236.597 -0.908313 1.71649 0
M  V30 2402 O 235.872 -1.64575 1.03659 0
M  V30 2403 C 236.155 0.853483 3.4984 0
M  V30 2404 C 236.008 2.35982 3.82926 0
M  V30 2405 C 237.327 0.348589 4.38717 0
M  V30 2406 H 234.446 0.199626 0.709449 0
M  V30 2407 H 237.088 1.1412 1.5191 0
M  V30 2408 H 235.238 0.34643 3.86952 0
M  V30 2409 H 236.91 2.93738 3.55691 0
M  V30 2410 H 235.153 2.81543 3.30024 0
M  V30 2411 H 235.824 2.52593 4.90816 0
M  V30 2412 H 238.3 0.78294 4.08668 0
M  V30 2413 H 237.176 0.593242 5.45685 0
M  V30 2414 H 237.437 -0.751049 4.35674 0
M  V30 2415 N 236.496 -1.42363 0.676048 0
M  V30 2416 C 237.444 -2.32596 -0.0131507 0
M  V30 2417 C 238.438 -1.49891 -0.789238 0
M  V30 2418 O 239.644 -1.65955 -0.697061 0
M  V30 2419 H 236.019 -0.751647 -0.0230481 0
M  V30 2420 H 237.99 -2.88421 0.765243 0
M  V30 2421 C 236.739 -3.34479 -0.949702 0
M  V30 2422 H 236.062 -3.98158 -0.361938 0
M  V30 2423 H 237.502 -4.00199 -1.4006 0
M  V30 2424 C 235.961 -2.66838 -2.05667 0
M  V30 2425 O 236.491 -2.50124 -3.14326 0
M  V30 2426 N 234.697 -2.25843 -1.82875 0
M  V30 2427 H 234.244 -2.39637 -0.945085 0
M  V30 2428 H 234.202 -1.80918 -2.5713 0
M  V30 2429 N 237.974 -0.419461 -1.51915 0
M  V30 2430 C 238.937 0.389116 -2.25873 0
M  V30 2431 C 239.937 0.964924 -1.28631 0
M  V30 2432 O 241.127 0.842179 -1.52489 0
M  V30 2433 C 238.259 1.54874 -3.03689 0
M  V30 2434 H 239.452 -0.258799 -2.98781 0
M  V30 2435 H 237.005 -0.172209 -1.55348 0
M  V30 2436 H 237.74 2.23323 -2.35154 0
M  V30 2437 H 237.525 1.14223 -3.75094 0
M  V30 2438 H 239.015 2.12046 -3.59759 0
M  V30 2439 N 239.452 1.56882 -0.150215 0
M  V30 2440 C 240.362 2.20494 0.801222 0
M  V30 2441 C 241.378 1.19019 1.26927 0
M  V30 2442 O 242.554 1.51607 1.32579 0
M  V30 2443 C 239.619 2.81659 2.02161 0
M  V30 2444 C 238.68 3.9827 1.60249 0
M  V30 2445 C 237.913 4.56508 2.7647 0
M  V30 2446 O 238.136 4.13627 3.92771 0
M  V30 2447 O 237.07 5.46719 2.51757 0
M  V30 2448 H 240.896 3.02315 0.289717 0
M  V30 2449 H 238.481 1.49202 0.0769684 0
M  V30 2450 H 240.363 3.20522 2.73576 0
M  V30 2451 H 239.038 2.02849 2.52258 0
M  V30 2452 H 237.945 3.64117 0.858477 0
M  V30 2453 H 239.278 4.78609 1.14864 0
M  V30 2454 N 240.93 -0.123565 1.57115 0
M  V30 2455 C 242.155 -0.850398 1.89164 0
M  V30 2456 C 242.58 -1.7286 0.741688 0
M  V30 2457 O 241.938 -1.78665 -0.307958 0
M  V30 2458 C 241.986 -1.66353 3.19936 0
M  V30 2459 O 241.09 -2.77004 3.0552 0
M  V30 2460 H 240.431 -0.235454 0.620852 0
M  V30 2461 H 242.961 -0.107335 2.04318 0
M  V30 2462 H 242.971 -2.05372 3.52543 0
M  V30 2463 H 241.646 -1.01881 4.03228 0
M  V30 2464 H 240.223 -2.41221 2.84371 0
M  V30 2465 N 242.408 -1.52605 -0.393616 0
M  V30 2466 C 243.34 -1.73303 -1.49995 0
M  V30 2467 C 244.353 -0.613473 -1.50799 0
M  V30 2468 O 245.542 -0.889049 -1.54784 0
M  V30 2469 C 242.642 -1.77245 -2.88855 0
M  V30 2470 C 241.815 -3.06483 -3.12069 0
M  V30 2471 C 240.874 -3.02033 -4.30886 0
M  V30 2472 O 239.9 -3.75907 -4.27414 0
M  V30 2473 N 241.102 -2.20897 -5.36828 0
M  V30 2474 H 243.867 -2.68756 -1.32629 0
M  V30 2475 H 241.428 -1.51036 -0.583083 0
M  V30 2476 H 243.42 -1.7178 -3.66434 0
M  V30 2477 H 241.99 -0.891993 -2.99603 0
M  V30 2478 H 241.21 -3.25474 -2.22396 0
M  V30 2479 H 242.498 -3.91947 -3.2443 0
M  V30 2480 H 241.896 -1.60336 -5.42502 0
M  V30 2481 H 240.453 -2.21275 -6.13091 0
M  V30 2482 N 243.887 0.651787 -1.4349 0
M  V30 2483 C 244.835 1.78586 -1.49029 0
M  V30 2484 C 245.829 1.65448 -0.363767 0
M  V30 2485 O 247.035 1.71777 -0.537821 0
M  V30 2486 H 243.41 0.589236 -0.467231 0
M  V30 2487 H 245.381 1.71035 -2.44519 0
M  V30 2488 C 244.13 3.16851 -1.43181 0
M  V30 2489 H 243.453 3.27598 -2.29171 0
M  V30 2490 H 244.893 3.96156 -1.51118 0
M  V30 2491 C 243.352 3.36568 -0.149616 0
M  V30 2492 O 243.882 3.93885 0.788509 0
M  V30 2493 N 242.088 2.90539 -0.0593484 0
M  V30 2494 H 241.635 2.4408 -0.823575 0
M  V30 2495 H 241.593 3.04108 0.797853 0
M  V30 2496 N 245.365 1.30045 0.890287 0
M  V30 2497 C 246.59 1.21598 1.68014 0
M  V30 2498 C 247.015 -0.218678 1.86825 0
M  V30 2499 O 246.373 -1.15756 1.39536 0
M  V30 2500 C 246.421 1.94434 3.03691 0
M  V30 2501 O 245.525 1.2678 3.92429 0
M  V30 2502 H 244.866 0.420856 0.513592 0
M  V30 2503 H 247.396 1.71775 1.11151 0
M  V30 2504 H 247.406 2.03251 3.5377 0
M  V30 2505 H 246.081 2.98777 2.89318 0
M  V30 2506 H 244.658 1.26282 3.50866 0
M  V30 2507 N 246.843 -1.10192 1.12674 0
M  V30 2508 C 248.089 -1.82475 0.884915 0
M  V30 2509 C 248.422 -1.85093 -0.58773 0
M  V30 2510 O 247.697 -1.3134 -1.43457 0
M  V30 2511 C 247.98 -3.29018 1.46353 0
M  V30 2512 C 247.833 -3.34718 3.00473 0
M  V30 2513 C 249.152 -4.25473 1.12519 0
M  V30 2514 H 246.271 -0.662492 0.322915 0
M  V30 2515 H 248.913 -1.2913 1.39375 0
M  V30 2516 H 247.063 -3.74576 1.03077 0
M  V30 2517 H 248.735 -2.97622 3.52447 0
M  V30 2518 H 246.978 -2.74541 3.35872 0
M  V30 2519 H 247.649 -4.37918 3.36053 0
M  V30 2520 H 250.125 -3.88161 1.499 0
M  V30 2521 H 249.001 -5.26365 1.55663 0
M  V30 2522 H 249.262 -4.42084 0.0377407 0
M  V30 2523 N 248.321 -0.919034 -1.28029 0
M  V30 2524 C 249.569 -0.553838 -1.94363 0
M  V30 2525 C 249.89 0.906357 -1.72656 0
M  V30 2526 O 249.16 1.64143 -1.0693 0
M  V30 2527 H 247.74 -0.201834 -0.719216 0
M  V30 2528 H 250.402 -1.16954 -1.55909 0
M  V30 2529 H 249.498 -0.752758 -3.02886 0
M  V30 2530 N 249.799 1.42003 -0.683588 0
M  V30 2531 C 251.045 2.01712 -0.209825 0
M  V30 2532 C 251.378 1.53968 1.18353 0
M  V30 2533 O 250.653 0.745661 1.79639 0
M  V30 2534 C 250.936 3.59202 -0.254197 0
M  V30 2535 C 250.789 4.17102 -1.68363 0
M  V30 2536 C 252.108 4.38344 0.392709 0
M  V30 2537 H 249.227 0.732891 -0.0777189 0
M  V30 2538 H 251.869 1.68909 -0.87004 0
M  V30 2539 H 250.019 3.87278 0.307954 0
M  V30 2540 H 251.691 3.99946 -2.29871 0
M  V30 2541 H 249.934 3.72597 -2.22157 0
M  V30 2542 H 250.605 5.26249 -1.6663 0
M  V30 2543 H 253.081 4.16011 -0.0859162 0
M  V30 2544 H 251.957 5.47901 0.331063 0
M  V30 2545 H 252.218 4.16887 1.47164 0
M  V30 2546 N 251.277 0.427512 1.51691 0
M  V30 2547 C 252.524 -0.142229 2.02 0
M  V30 2548 C 252.852 -1.43566 1.31221 0
M  V30 2549 O 252.107 -1.91298 0.412744 0
M  V30 2550 C 252.406 -0.418249 3.54944 0
M  V30 2551 C 252.072 0.788187 4.43958 0
M  V30 2552 C 250.734 1.11906 4.68007 0
M  V30 2553 C 253.086 1.59347 4.96244 0
M  V30 2554 C 250.414 2.25608 5.41588 0
M  V30 2555 C 252.766 2.7214 5.71072 0
M  V30 2556 C 251.43 3.05692 5.93387 0
M  V30 2557 H 250.7 -0.0520451 0.73917 0
M  V30 2558 H 253.347 0.572697 1.82736 0
M  V30 2559 H 251.652 -1.21496 3.72486 0
M  V30 2560 H 253.349 -0.872339 3.91397 0
M  V30 2561 H 249.939 0.520344 4.2543 0
M  V30 2562 H 254.123 1.35106 4.77556 0
M  V30 2563 H 249.379 2.51929 5.57083 0
M  V30 2564 H 253.553 3.34914 6.10578 0
M  V30 2565 H 251.18 3.9391 6.50184 0
M  V30 2566 N 252.755 -1.56801 0.158532 0
M  V30 2567 C 253.983 -2.00859 -0.496303 0
M  V30 2568 C 254.398 -1.03871 -1.57659 0
M  V30 2569 O 253.755 -0.0375165 -1.82461 0
M  V30 2570 C 253.806 -3.4479 -1.08638 0
M  V30 2571 O 253.527 -4.38072 -0.0492322 0
M  V30 2572 C 255.028 -4.04185 -1.8207 0
M  V30 2573 H 252.248 -0.65864 -0.128199 0
M  V30 2574 H 254.792 -2.02885 0.256506 0
M  V30 2575 H 252.947 -3.43579 -1.78975 0
M  V30 2576 H 253.361 -5.2227 -0.483102 0
M  V30 2577 H 254.835 -5.06857 -2.18633 0
M  V30 2578 H 255.312 -3.45549 -2.71095 0
M  V30 2579 H 255.918 -4.0906 -1.16405 0
M  V30 2580 N 254.233 0.115231 -1.57178 0
M  V30 2581 C 255.649 0.468877 -1.52557 0
M  V30 2582 C 255.849 1.81649 -0.872125 0
M  V30 2583 O 254.905 2.48347 -0.45606 0
M  V30 2584 C 256.218 0.4499 -2.97315 0
M  V30 2585 C 257.766 0.533185 -3.08425 0
M  V30 2586 C 258.241 0.54456 -4.54751 0
M  V30 2587 N 259.732 0.605892 -4.5922 0
M  V30 2588 C 260.467 0.636203 -5.6986 0
M  V30 2589 N 259.963 0.623931 -6.89985 0
M  V30 2590 N 261.756 0.679496 -5.57978 0
M  V30 2591 H 253.907 -0.767712 -1.9804 0
M  V30 2592 H 256.17 -0.283609 -0.904583 0
M  V30 2593 H 255.876 -0.472721 -3.48509 0
M  V30 2594 H 255.75 1.27632 -3.5495 0
M  V30 2595 H 258.137 1.44623 -2.57232 0
M  V30 2596 H 258.218 -0.320995 -2.53778 0
M  V30 2597 H 257.862 -0.364452 -5.06591 0
M  V30 2598 H 257.792 1.41568 -5.07214 0
M  V30 2599 H 260.283 0.621386 -3.72756 0
M  V30 2600 H 260.596 0.649787 -7.70063 0
M  V30 2601 H 258.941 0.591296 -6.9248 0
M  V30 2602 H 262.132 0.686472 -4.63039 0
M  V30 2603 H 262.305 0.69965 -6.44212 0
M  V30 2604 N 255.711 1.52812 0.385517 0
M  V30 2605 C 256.621 1.80766 1.49535 0
M  V30 2606 C 257.637 0.694651 1.59532 0
M  V30 2607 O 258.813 0.982611 1.75803 0
M  V30 2608 C 255.878 1.97381 2.85029 0
M  V30 2609 C 254.939 3.21295 2.84724 0
M  V30 2610 C 254.172 3.37108 4.13756 0
M  V30 2611 O 254.395 2.5765 5.08893 0
M  V30 2612 O 253.329 4.30378 4.20783 0
M  V30 2613 H 257.155 2.75015 1.28842 0
M  V30 2614 H 254.74 1.37946 0.573697 0
M  V30 2615 H 256.622 2.09996 3.65349 0
M  V30 2616 H 255.297 1.06322 3.05741 0
M  V30 2617 H 254.204 3.1412 2.03174 0
M  V30 2618 H 255.537 4.12212 2.68965 0
M  V30 2619 N 257.189 -0.644168 1.43834 0
M  V30 2620 C 258.099 -1.78563 1.52159 0
M  V30 2621 C 259.115 -1.69147 0.408069 0
M  V30 2622 O 260.291 -1.90156 0.663524 0
M  V30 2623 C 257.356 -3.14888 1.45073 0
M  V30 2624 C 256.417 -3.36034 2.6717 0
M  V30 2625 C 255.65 -4.65855 2.60413 0
M  V30 2626 O 255.873 -5.45805 1.65689 0
M  V30 2627 O 254.807 -4.88918 3.5106 0
M  V30 2628 H 258.633 -1.74494 2.48567 0
M  V30 2629 H 256.218 -0.80378 1.25935 0
M  V30 2630 H 258.1 -3.96179 1.43597 0
M  V30 2631 H 256.775 -3.19528 0.518037 0
M  V30 2632 H 255.682 -2.54472 2.74217 0
M  V30 2633 H 257.015 -3.36247 3.59442 0
M  V30 2634 N 258.668 -1.30515 -0.883378 0
M  V30 2635 C 259.914 -1.19607 -1.63774 0
M  V30 2636 C 260.247 0.248314 -1.92606 0
M  V30 2637 O 259.522 1.17742 -1.54813 0
M  V30 2638 C 259.805 -2.02669 -2.97653 0
M  V30 2639 C 259.658 -3.55335 -2.75784 0
M  V30 2640 C 260.977 -1.86573 -3.98596 0
M  V30 2641 H 258.096 -0.435856 -0.594305 0
M  V30 2642 H 260.738 -1.60165 -1.02212 0
M  V30 2643 H 258.888 -1.68208 -3.50197 0
M  V30 2644 H 260.56 -3.99863 -2.30016 0
M  V30 2645 H 258.803 -3.79438 -2.1026 0
M  V30 2646 H 259.474 -4.08745 -3.70988 0
M  V30 2647 H 261.95 -2.16703 -3.55217 0
M  V30 2648 H 260.826 -2.47014 -4.90179 0
M  V30 2649 H 261.087 -0.825321 -4.34328 0
M  V30 2650 N 260.146 1.09593 -1.13257 0
M  V30 2651 C 261.562 1.33775 -0.870423 0
M  V30 2652 C 261.762 1.95327 0.494926 0
M  V30 2653 O 260.818 2.19853 1.2418 0
M  V30 2654 C 262.131 2.25106 -1.99369 0
M  V30 2655 C 263.679 2.3862 -2.02558 0
M  V30 2656 C 264.154 3.33285 -3.14142 0
M  V30 2657 N 265.645 3.40857 -3.13641 0
M  V30 2658 C 266.38 4.14101 -3.96621 0
M  V30 2659 N 265.876 4.90157 -4.8961 0
M  V30 2660 N 267.669 4.09808 -3.84726 0
M  V30 2661 H 259.82 0.680136 -2.01216 0
M  V30 2662 H 262.083 0.362133 -0.876107 0
M  V30 2663 H 261.789 1.87103 -2.97801 0
M  V30 2664 H 261.663 3.25481 -1.90635 0
M  V30 2665 H 264.05 2.75887 -1.0474 0
M  V30 2666 H 264.131 1.38028 -2.15364 0
M  V30 2667 H 263.775 2.96741 -4.12198 0
M  V30 2668 H 263.705 4.33776 -2.98574 0
M  V30 2669 H 266.196 2.86624 -2.46282 0
M  V30 2670 H 266.509 5.4347 -5.49418 0
M  V30 2671 H 264.854 4.89251 -4.93617 0
M  V30 2672 H 268.045 3.4949 -3.11408 0
M  V30 2673 H 268.218 4.66629 -4.49623 0
M  V30 2674 N 261.624 0.925811 1.2754 0
M  V30 2675 C 262.572 0.413897 2.28888 0
M  V30 2676 C 263.566 -0.500779 1.61829 0
M  V30 2677 O 264.772 -0.38069 1.75928 0
M  V30 2678 H 261.147 0.115274 0.743112 0
M  V30 2679 H 263.118 1.28151 2.69481 0
M  V30 2680 C 261.867 -0.319792 3.46226 0
M  V30 2681 H 261.19 0.374846 3.98039 0
M  V30 2682 H 262.63 -0.642435 4.19105 0
M  V30 2683 C 261.089 -1.53209 3.00048 0
M  V30 2684 O 261.619 -2.6309 3.03557 0
M  V30 2685 N 259.825 -1.38326 2.55566 0
M  V30 2686 H 259.372 -0.489292 2.5291 0
M  V30 2687 H 259.33 -2.19564 2.25031 0
M  V30 2688 N 263.102 -1.41638 0.69111 0
M  V30 2689 C 264.518 -1.55435 0.362224 0
M  V30 2690 C 264.718 -1.66754 -1.13117 0
M  V30 2691 O 263.774 -1.64348 -1.91692 0
M  V30 2692 C 265.087 -2.79588 1.10684 0
M  V30 2693 C 266.635 -2.9338 1.09075 0
M  V30 2694 C 267.11 -4.20414 1.81703 0
M  V30 2695 N 268.601 -4.27362 1.7865 0
M  V30 2696 C 269.336 -5.24507 2.31689 0
M  V30 2697 N 268.832 -6.27708 2.93179 0
M  V30 2698 N 270.625 -5.16416 2.2197 0
M  V30 2699 H 262.776 -1.32536 1.65976 0
M  V30 2700 H 265.039 -0.639115 0.700168 0
M  V30 2701 H 264.745 -2.77419 2.16175 0
M  V30 2702 H 264.619 -3.70973 0.682545 0
M  V30 2703 H 267.006 -2.95067 0.0441238 0
M  V30 2704 H 267.087 -2.0318 1.55407 0
M  V30 2705 H 266.731 -4.19488 2.86343 0
M  V30 2706 H 266.661 -5.09578 1.32808 0
M  V30 2707 H 269.152 -3.53415 1.33815 0
M  V30 2708 H 269.465 -6.98217 3.31229 0
M  V30 2709 H 267.81 -6.28223 2.97255 0
M  V30 2710 H 271.001 -4.34716 1.73607 0
M  V30 2711 H 271.174 -5.91958 2.63609 0
M  V30 2712 N 264.58 -0.43555 -1.51462 0
M  V30 2713 C 265.829 0.133007 -2.01261 0
M  V30 2714 C 266.142 1.43942 -1.32439 0
M  V30 2715 O 267.348 2.09081 -1.73198 0
M  V30 2716 C 265.804 0.287581 -3.58749 0
M  V30 2717 C 265.412 -1.00829 -4.36506 0
M  V30 2718 C 267.156 0.810004 -4.167 0
M  V30 2719 C 265.063 -0.819454 -5.85695 0
M  V30 2720 H 263.993 0.0534822 -0.752101 0
M  V30 2721 H 266.644 -0.565038 -1.74584 0
M  V30 2722 H 265.026 1.04859 -3.81865 0
M  V30 2723 H 266.2 -1.77749 -4.25138 0
M  V30 2724 H 264.515 -1.45911 -3.89999 0
M  V30 2725 H 267.112 0.967743 -5.2587 0
M  V30 2726 H 267.455 1.79196 -3.75758 0
M  V30 2727 H 267.988 0.107357 -3.97655 0
M  V30 2728 H 264.727 -1.77374 -6.31046 0
M  V30 2729 H 264.247 -0.0900208 -5.99732 0
M  V30 2730 H 265.926 -0.471949 -6.45276 0
M  V30 2731 N 266.058 1.56714 -0.166846 0
M  V30 2732 C 267.474 1.58473 0.189372 0
M  V30 2733 C 267.674 1.18201 1.63189 0
M  V30 2734 O 266.73 0.891528 2.36237 0
M  V30 2735 C 268.043 3.00573 -0.0873872 0
M  V30 2736 C 269.591 3.1299 -0.0252443 0
M  V30 2737 C 270.066 4.57174 -0.274934 0
M  V30 2738 N 271.557 4.62665 -0.222553 0
M  V30 2739 C 272.292 5.72072 -0.389985 0
M  V30 2740 N 271.788 6.90054 -0.616229 0
M  V30 2741 N 273.581 5.61153 -0.326202 0
M  V30 2742 H 265.732 1.8118 -1.10849 0
M  V30 2743 H 267.995 0.839525 -0.440342 0
M  V30 2744 H 267.701 3.34497 -1.0865 0
M  V30 2745 H 267.575 3.72019 0.623037 0
M  V30 2746 H 269.962 2.78895 0.96444 0
M  V30 2747 H 270.043 2.43989 -0.768309 0
M  V30 2748 H 269.687 4.91976 -1.26181 0
M  V30 2749 H 269.617 5.24328 0.48869 0
M  V30 2750 H 272.108 3.77863 -0.0531512 0
M  V30 2751 H 272.421 7.69311 -0.733559 0
M  V30 2752 H 270.766 6.91927 -0.652791 0
M  V30 2753 H 273.957 4.67859 -0.150072 0
M  V30 2754 H 274.13 6.46364 -0.460116 0
M  V30 2755 N 267.536 -0.106894 1.57237 0
M  V30 2756 C 268.484 -1.14944 2.02215 0
M  V30 2757 C 269.478 -1.42167 0.92114 0
M  V30 2758 O 270.684 -1.41987 1.10634 0
M  V30 2759 H 267.059 -0.387841 0.64427 0
M  V30 2760 H 269.03 -0.743683 2.88984 0
M  V30 2761 C 267.779 -2.4647 2.4525 0
M  V30 2762 H 267.102 -2.26363 3.29545 0
M  V30 2763 H 268.542 -3.17948 2.80508 0
M  V30 2764 C 267.001 -3.09921 1.321 0
M  V30 2765 O 267.531 -3.9651 0.643622 0
M  V30 2766 N 265.737 -2.69986 1.07497 0
M  V30 2767 H 265.284 -1.99667 1.62761 0
M  V30 2768 H 265.242 -3.12769 0.319876 0
M  V30 2769 N 269.014 -1.53014 -0.377408 0
M  V30 2770 C 270.291 -1.59215 -1.13622 0
M  V30 2771 C 270.671 -0.392407 -2.07421 0
M  V30 2772 O 270.019 0.618342 -2.19975 0
M  V30 2773 C 270.229 -2.93669 -1.88573 0
M  V30 2774 C 271.577 -3.47822 -2.43526 0
M  V30 2775 O 272.601 -2.9562 -1.98715 0
M  V30 2776 O 271.46 -4.39055 -3.25412 0
M  V30 2777 H 268.554 -0.642625 -0.52054 0
M  V30 2778 H 271.1 -1.65353 -0.381625 0
M  V30 2779 H 269.872 -3.7243 -1.20048 0
M  V30 2780 H 269.495 -2.90968 -2.70968 0
M  V30 2781 N 270.492 0.636531 -1.44174 0
M  V30 2782 C 271.903 1.21806 -1.41493 0
M  V30 2783 C 272.254 1.95785 -0.1275 0
M  V30 2784 O 271.379 2.02147 0.772376 0
M  V30 2785 C 271.974 2.21551 -2.56321 0
M  V30 2786 C 270.533 2.75143 -2.56853 0
M  V30 2787 C 269.68 1.50052 -2.33195 0
M  V30 2788 H 272.631 0.427531 -1.52833 0
M  V30 2789 H 272.652 3.0405 -2.28765 0
M  V30 2790 H 272.164 1.67679 -3.50008 0
M  V30 2791 H 270.265 3.33033 -1.67093 0
M  V30 2792 H 270.378 3.2155 -3.55165 0
M  V30 2793 H 268.742 1.77993 -1.82183 0
M  V30 2794 H 269.525 0.980903 -3.28988 0
M  V30 2795 N 271.97 1.30982 0.876444 0
M  V30 2796 C 273.247 1.10942 1.61094 0
M  V30 2797 C 273.627 -0.338223 2.08373 0
M  V30 2798 O 272.975 -1.33122 1.85717 0
M  V30 2799 C 273.185 2.11789 2.77392 0
M  V30 2800 C 274.533 2.43965 3.47514 0
M  V30 2801 O 275.557 2.10166 2.87591 0
M  V30 2802 O 274.416 3.01817 4.55597 0
M  V30 2803 H 271.51 0.42667 0.708436 0
M  V30 2804 H 274.056 1.42438 0.922474 0
M  V30 2805 H 272.828 3.09194 2.39823 0
M  V30 2806 H 272.451 1.81161 3.5393 0
M  V30 2807 N 273.449 -1.08991 1.13837 0
M  V30 2808 C 274.726 -1.77863 0.813876 0
M  V30 2809 C 275.106 -1.99375 -0.693746 0
M  V30 2810 O 274.454 -1.59875 -1.63255 0
M  V30 2811 C 274.664 -3.0986 1.60586 0
M  V30 2812 C 276.012 -3.84493 1.8014 0
M  V30 2813 O 277.036 -3.19624 1.57222 0
M  V30 2814 O 275.895 -5.00957 2.18413 0
M  V30 2815 H 272.989 -0.771589 0.297624 0
M  V30 2816 H 275.535 -1.15507 1.24323 0
M  V30 2817 H 274.307 -2.89715 2.63022 0
M  V30 2818 H 273.93 -3.79942 1.17173 0
M  V30 2819 N 274.927 -0.932562 -1.27047 0
M  V30 2820 C 276.338 -0.619451 -1.76124 0
M  V30 2821 C 276.689 0.865397 -1.76083 0
M  V30 2822 O 275.814 1.67722 -1.36742 0
M  V30 2823 C 276.409 -1.11771 -3.19832 0
M  V30 2824 C 274.968 -0.855174 -3.66557 0
M  V30 2825 C 274.115 -1.27362 -2.46321 0
M  V30 2826 H 277.066 -1.11181 -1.13245 0
M  V30 2827 H 277.087 -0.46759 -3.77616 0
M  V30 2828 H 276.599 -2.19842 -3.1983 0
M  V30 2829 H 274.7 0.211524 -3.71999 0
M  V30 2830 H 274.813 -1.47613 -4.55793 0
M  V30 2831 H 273.177 -0.692119 -2.45116 0
M  V30 2832 H 273.96 -2.36307 -2.49025 0
M  V30 2833 N 276.405 1.4127 -0.698611 0
M  V30 2834 C 277.315 2.34573 -0.0357891 0
M  V30 2835 C 278.331 1.56393 0.762701 0
M  V30 2836 O 279.507 1.8886 0.699564 0
M  V30 2837 C 276.572 3.35159 0.887089 0
M  V30 2838 C 275.633 4.29225 0.0804634 0
M  V30 2839 C 274.866 5.25006 0.959387 0
M  V30 2840 O 275.089 5.26314 2.19886 0
M  V30 2841 O 274.023 6.00519 0.407439 0
M  V30 2842 H 277.849 2.92838 -0.804957 0
M  V30 2843 H 275.434 1.42175 -0.458966 0
M  V30 2844 H 277.316 3.9689 1.41621 0
M  V30 2845 H 275.991 2.79333 1.6357 0
M  V30 2846 H 274.898 3.70833 -0.493328 0
M  V30 2847 H 276.231 4.88157 -0.629547 0
M  V30 2848 N 277.883 0.443576 1.51229 0
M  V30 2849 C 278.846 -0.353132 2.26463 0
M  V30 2850 C 279.846 -0.944338 1.3015 0
M  V30 2851 O 281.036 -0.817813 1.5381 0
M  V30 2852 C 278.168 -1.50023 3.06114 0
M  V30 2853 H 279.361 0.3063 2.98332 0
M  V30 2854 H 276.914 0.196902 1.55055 0
M  V30 2855 H 277.649 -2.19553 2.38677 0
M  V30 2856 H 277.434 -1.08241 3.76864 0
M  V30 2857 H 278.924 -2.06296 3.63087 0
M  V30 2858 N 279.361 -1.56624 0.175154 0
M  V30 2859 C 280.589 -2.01374 -0.474971 0
M  V30 2860 C 281.004 -1.05537 -1.56548 0
M  V30 2861 O 280.361 -0.0568668 -1.82411 0
M  V30 2862 C 280.412 -3.45923 -1.04975 0
M  V30 2863 O 280.133 -4.381 -0.00276605 0
M  V30 2864 C 281.634 -4.06093 -1.77773 0
M  V30 2865 H 278.854 -0.659962 -0.121206 0
M  V30 2866 H 281.398 -2.02601 0.27801 0
M  V30 2867 H 279.553 -3.45458 -1.75321 0
M  V30 2868 H 279.967 -5.22753 -0.427681 0
M  V30 2869 H 281.441 -5.09147 -2.13245 0
M  V30 2870 H 281.918 -3.48405 -2.67414 0
M  V30 2871 H 282.524 -4.10272 -1.12059 0
M  V30 2872 N 280.839 0.0985539 -1.57292 0
M  V30 2873 C 281.786 1.11981 -2.01814 0
M  V30 2874 C 282.756 1.39999 -0.89384 0
M  V30 2875 O 283.941 1.5152 -1.15958 0
M  V30 2876 C 281.081 2.43577 -2.44467 0
M  V30 2877 C 280.194 2.2232 -3.70402 0
M  V30 2878 C 279.329 3.4729 -4.01949 0
M  V30 2879 C 278.368 3.2128 -5.21005 0
M  V30 2880 N 277.505 4.38507 -5.48321 0
M  V30 2881 H 282.345 0.733149 -2.88841 0
M  V30 2882 H 279.882 0.350482 -1.42864 0
M  V30 2883 H 281.84 3.20373 -2.6724 0
M  V30 2884 H 280.47 2.80097 -1.60455 0
M  V30 2885 H 279.522 1.36343 -3.55126 0
M  V30 2886 H 280.834 1.99089 -4.57345 0
M  V30 2887 H 279.988 4.32495 -4.25479 0
M  V30 2888 H 278.727 3.73572 -3.13521 0
M  V30 2889 H 277.732 2.34468 -4.97298 0
M  V30 2890 H 278.957 2.96348 -6.11028 0
M  V30 2891 H 276.903 4.64871 -4.62851 0
M  V30 2892 H 276.82 4.18455 -6.29628 0
M  V30 2893 H 278.088 5.24787 -5.76385 0
M  V30 2894 N 282.317 1.53212 0.369288 0
M  V30 2895 C 283.733 1.42902 0.710712 0
M  V30 2896 C 283.933 0.565135 1.93413 0
M  V30 2897 O 282.989 0.0461484 2.52458 0
M  V30 2898 C 284.302 2.86042 0.927382 0
M  V30 2899 C 285.85 2.9565 1.02762 0
M  V30 2900 C 286.325 4.39843 1.27679 0
M  V30 2901 N 287.816 4.43256 1.34457 0
M  V30 2902 C 288.551 5.51929 1.55439 0
M  V30 2903 N 288.047 6.70655 1.73762 0
M  V30 2904 N 289.84 5.39502 1.57779 0
M  V30 2905 H 281.991 2.07888 -0.435457 0
M  V30 2906 H 284.254 0.938661 -0.132739 0
M  V30 2907 H 283.96 3.51557 0.100287 0
M  V30 2908 H 283.834 3.29472 1.83653 0
M  V30 2909 H 286.221 2.30291 1.84527 0
M  V30 2910 H 286.302 2.5562 0.0959504 0
M  V30 2911 H 285.946 5.05774 0.464175 0
M  V30 2912 H 285.876 4.77443 2.22162 0
M  V30 2913 H 288.367 3.5769 1.21926 0
M  V30 2914 H 288.68 7.49248 1.89335 0
M  V30 2915 H 287.025 6.73648 1.70948 0
M  V30 2916 H 290.216 4.45713 1.43029 0
M  V30 2917 H 290.389 6.2426 1.7379 0
M  V30 2918 N 283.795 -0.628877 1.44509 0
M  V30 2919 C 284.725 -1.75187 1.54376 0
M  V30 2920 C 285.706 -1.65411 0.396618 0
M  V30 2921 O 286.891 -1.84137 0.617031 0
M  V30 2922 C 284.021 -3.13725 1.48976 0
M  V30 2923 C 282.975 -3.38291 2.62189 0
M  V30 2924 C 282.301 -4.76883 2.41841 0
M  V30 2925 C 283.601 -3.30632 4.04326 0
M  V30 2926 H 285.295 -1.67187 2.48373 0
M  V30 2927 H 282.841 -0.802909 1.19538 0
M  V30 2928 H 284.794 -3.92064 1.54478 0
M  V30 2929 H 283.518 -3.22515 0.514961 0
M  V30 2930 H 282.177 -2.62334 2.56079 0
M  V30 2931 H 281.825 -4.82378 1.42548 0
M  V30 2932 H 281.525 -4.94278 3.17747 0
M  V30 2933 H 283.049 -5.57449 2.49165 0
M  V30 2934 H 284.463 -3.98873 4.11793 0
M  V30 2935 H 282.86 -3.59561 4.80454 0
M  V30 2936 H 283.93 -2.28404 4.27738 0
M  V30 2937 N 285.273 -1.31445 -0.869486 0
M  V30 2938 C 286.22 -1.19135 -1.97675 0
M  V30 2939 C 287.19 -0.0770266 -1.65921 0
M  V30 2940 O 288.375 -0.249972 -1.89155 0
M  V30 2941 C 285.515 -0.905149 -3.33018 0
M  V30 2942 C 284.628 -2.10285 -3.77365 0
M  V30 2943 C 283.763 -1.75339 -5.01427 0
M  V30 2944 C 282.802 -2.91515 -5.38224 0
M  V30 2945 N 281.939 -2.56762 -6.53466 0
M  V30 2946 H 286.779 -2.13853 -2.07535 0
M  V30 2947 H 284.316 -1.06379 -1.01597 0
M  V30 2948 H 286.274 -0.719765 -4.10944 0
M  V30 2949 H 284.904 0.00519624 -3.228 0
M  V30 2950 H 283.956 -2.39899 -2.95216 0
M  V30 2951 H 285.268 -2.97237 -4.00564 0
M  V30 2952 H 284.422 -1.53266 -5.87022 0
M  V30 2953 H 283.161 -0.855801 -4.80133 0
M  V30 2954 H 282.166 -3.14237 -4.51149 0
M  V30 2955 H 283.391 -3.81985 -5.61484 0
M  V30 2956 H 281.337 -1.69526 -6.33717 0
M  V30 2957 H 281.254 -3.37243 -6.76612 0
M  V30 2958 H 282.522 -2.38083 -7.42251 0
M  V30 2959 N 286.751 1.08385 -1.14413 0
M  V30 2960 C 287.681 2.17321 -0.854044 0
M  V30 2961 C 288.662 1.69024 0.191049 0
M  V30 2962 O 289.847 1.94141 0.0476779 0
M  V30 2963 C 286.977 3.45719 -0.330983 0
M  V30 2964 C 285.931 4.07409 -1.31155 0
M  V30 2965 C 285.257 5.30762 -0.64778 0
M  V30 2966 C 286.557 4.48665 -2.67388 0
M  V30 2967 H 288.251 2.41845 -1.76498 0
M  V30 2968 H 285.797 1.16233 -0.850051 0
M  V30 2969 H 287.75 4.21241 -0.115645 0
M  V30 2970 H 286.474 3.2075 0.615381 0
M  V30 2971 H 285.133 3.33919 -1.51306 0
M  V30 2972 H 284.781 5.02078 0.304398 0
M  V30 2973 H 284.481 5.72992 -1.30207 0
M  V30 2974 H 286.005 6.08998 -0.441972 0
M  V30 2975 H 287.419 5.15364 -2.51143 0
M  V30 2976 H 285.816 5.01814 -3.29093 0
M  V30 2977 H 286.886 3.60543 -3.24248 0
M  V30 2978 N 288.23 0.939286 1.26551 0
M  V30 2979 C 289.193 0.451987 2.24699 0
M  V30 2980 C 290.193 -0.435869 1.5478 0
M  V30 2981 O 291.383 -0.235314 1.72603 0
M  V30 2982 C 288.515 -0.348801 3.39111 0
M  V30 2983 H 289.708 1.3193 2.69322 0
M  V30 2984 H 287.261 0.721072 1.38673 0
M  V30 2985 H 287.996 -1.23444 2.99887 0
M  V30 2986 H 287.781 0.287945 3.91041 0
M  V30 2987 H 289.271 -0.679726 4.12031 0
M  V30 2988 N 289.708 -1.40897 0.706093 0
M  V30 2989 C 290.641 -2.282 -0.00328781 0
M  V30 2990 C 291.619 -1.42816 -0.77732 0
M  V30 2991 O 292.803 -1.72237 -0.765944 0
M  V30 2992 C 289.93 -3.23226 -1.01205 0
M  V30 2993 C 288.976 -4.25222 -0.329955 0
M  V30 2994 S 289.809 -5.27269 0.935298 0
M  V30 2995 C 290.965 -6.25859 -0.0716061 0
M  V30 2996 H 291.198 -2.88016 0.737143 0
M  V30 2997 H 288.731 -1.46191 0.496756 0
M  V30 2998 H 290.689 -3.78503 -1.58888 0
M  V30 2999 H 289.35 -2.62485 -1.72513 0
M  V30 3000 H 288.543 -4.92023 -1.09221 0
M  V30 3001 H 288.145 -3.73595 0.174069 0
M  V30 3002 H 290.437 -6.71204 -0.921521 0
M  V30 3003 H 291.38 -7.0586 0.562765 0
M  V30 3004 H 291.788 -5.62852 -0.431088 0
M  V30 3005 N 291.186 -0.45159 -1.50991 0
M  V30 3006 C 292.435 0.111653 -2.01391 0
M  V30 3007 C 292.748 1.42529 -1.33959 0
M  V30 3008 O 293.954 2.07232 -1.75405 0
M  V30 3009 C 292.41 0.249514 -3.59034 0
M  V30 3010 C 292.018 -1.05453 -4.35412 0
M  V30 3011 C 293.762 0.765762 -4.17536 0
M  V30 3012 C 291.669 -0.881529 -5.84793 0
M  V30 3013 H 290.599 0.0455022 -0.752626 0
M  V30 3014 H 293.25 -0.583524 -1.73975 0
M  V30 3015 H 291.632 1.00803 -3.82955 0
M  V30 3016 H 292.806 -1.82248 -4.23229 0
M  V30 3017 H 291.121 -1.50039 -3.88429 0
M  V30 3018 H 293.718 0.911913 -5.26866 0
M  V30 3019 H 294.061 1.75201 -3.77638 0
M  V30 3020 H 294.594 0.0651744 -3.97747 0
M  V30 3021 H 291.333 -1.84057 -6.29129 0
M  V30 3022 H 290.853 -0.153625 -5.99603 0
M  V30 3023 H 292.532 -0.540363 -6.4474 0
M  V30 3024 N 292.664 1.56529 -0.183458 0
M  V30 3025 C 293.596 2.15747 0.773697 0
M  V30 3026 C 294.609 1.1162 1.1851 0
M  V30 3027 O 295.798 1.3876 1.12285 0
M  V30 3028 C 292.898 2.6952 2.05456 0
M  V30 3029 C 292.071 3.98429 1.8048 0
M  V30 3030 C 291.13 4.37145 2.92901 0
M  V30 3031 O 290.156 5.04791 2.6301 0
M  V30 3032 N 291.358 3.99695 4.2098 0
M  V30 3033 H 294.123 2.98505 0.26736 0
M  V30 3034 H 291.684 1.619 -0.0010878 0
M  V30 3035 H 293.676 2.92412 2.79781 0
M  V30 3036 H 292.246 1.91282 2.47245 0
M  V30 3037 H 291.466 3.8379 0.899947 0
M  V30 3038 H 292.754 4.82597 1.61175 0
M  V30 3039 H 292.152 3.4526 4.48121 0
M  V30 3040 H 290.709 4.27562 4.9197 0
M  V30 3041 N 294.142 -0.090211 1.57342 0
M  V30 3042 C 295.074 -1.13541 1.99101 0
M  V30 3043 C 296.087 -1.3604 0.894258 0
M  V30 3044 O 297.276 -1.34606 1.17233 0
M  V30 3045 C 294.376 -2.49001 2.29895 0
M  V30 3046 C 293.549 -2.46712 3.61182 0
M  V30 3047 C 292.608 -3.64136 3.79857 0
M  V30 3048 O 291.634 -3.46405 4.51655 0
M  V30 3049 N 292.836 -4.83802 3.20806 0
M  V30 3050 H 295.601 -0.779942 2.89373 0
M  V30 3051 H 293.162 -0.279125 1.59476 0
M  V30 3052 H 295.154 -3.26166 2.39578 0
M  V30 3053 H 293.724 -2.76619 1.45605 0
M  V30 3054 H 292.944 -1.55058 3.62423 0
M  V30 3055 H 294.232 -2.42265 4.4742 0
M  V30 3056 H 293.63 -5.01112 2.62494 0
M  V30 3057 H 292.187 -5.58543 3.35966 0
M  V30 3058 N 295.62 -1.53406 -0.361157 0
M  V30 3059 C 296.85 -1.73465 -1.1222 0
M  V30 3060 C 297.258 -0.465486 -1.83384 0
M  V30 3061 O 296.601 0.571611 -1.7458 0
M  V30 3062 C 296.663 -2.84834 -2.19339 0
M  V30 3063 C 296.327 -4.25038 -1.67903 0
M  V30 3064 C 297.324 -5.07231 -1.14074 0
M  V30 3065 C 295.009 -4.71464 -1.73282 0
M  V30 3066 C 297.003 -6.33942 -0.663068 0
M  V30 3067 C 294.69 -5.98153 -1.25127 0
M  V30 3068 C 295.688 -6.79223 -0.717296 0
M  V30 3069 O 295.376 -8.03533 -0.242865 0
M  V30 3070 H 295.108 -0.583526 -0.341283 0
M  V30 3071 H 297.662 -2.00964 -0.424591 0
M  V30 3072 H 295.892 -2.5282 -2.92607 0
M  V30 3073 H 297.581 -2.9303 -2.80871 0
M  V30 3074 H 298.347 -4.72534 -1.09254 0
M  V30 3075 H 294.226 -4.08432 -2.13786 0
M  V30 3076 H 297.77 -6.97167 -0.245612 0
M  V30 3077 H 293.667 -6.32347 -1.29642 0
M  V30 3078 H 294.435 -8.177 -0.361786 0
M  V30 3079 N 297.098 0.621204 -1.44841 0
M  V30 3080 C 298.028 1.74366 -1.55303 0
M  V30 3081 C 299.009 1.65199 -0.405385 0
M  V30 3082 O 300.194 1.83807 -0.626787 0
M  V30 3083 C 297.324 3.12931 -1.50637 0
M  V30 3084 C 296.278 3.36896 -2.63979 0
M  V30 3085 C 295.604 4.75594 -2.44366 0
M  V30 3086 C 296.904 3.28483 -4.06074 0
M  V30 3087 H 298.598 1.65867 -2.49256 0
M  V30 3088 H 296.144 0.796558 -1.19962 0
M  V30 3089 H 298.097 3.9124 -1.56555 0
M  V30 3090 H 296.821 3.22237 -0.532057 0
M  V30 3091 H 295.48 2.60972 -2.57467 0
M  V30 3092 H 295.128 4.81616 -1.45105 0
M  V30 3093 H 294.828 4.92586 -3.20364 0
M  V30 3094 H 296.352 5.5612 -2.52117 0
M  V30 3095 H 297.766 3.96684 -4.13902 0
M  V30 3096 H 296.163 3.57008 -4.82354 0
M  V30 3097 H 297.233 2.26133 -4.28943 0
M  V30 3098 N 298.576 1.31904 0.862503 0
M  V30 3099 C 299.523 1.20182 1.9704 0
M  V30 3100 C 300.493 0.0858247 1.65878 0
M  V30 3101 O 301.678 0.26 1.8902 0
M  V30 3102 C 298.818 0.922797 3.32533 0
M  V30 3103 C 297.931 2.12284 3.76244 0
M  V30 3104 C 297.066 1.77996 5.00491 0
M  V30 3105 C 296.105 2.94366 5.36671 0
M  V30 3106 N 295.242 2.60223 6.52095 0
M  V30 3107 H 300.082 2.14951 2.06398 0
M  V30 3108 H 297.619 1.06917 1.01031 0
M  V30 3109 H 299.577 0.741548 4.10557 0
M  V30 3110 H 298.207 0.0119227 3.22798 0
M  V30 3111 H 297.259 2.41461 2.9394 0
M  V30 3112 H 298.571 2.99357 3.98982 0
M  V30 3113 H 297.725 1.56377 5.862 0
M  V30 3114 H 296.464 0.881252 4.79672 0
M  V30 3115 H 295.469 3.16625 4.49476 0
M  V30 3116 H 296.694 3.84957 5.59451 0
M  V30 3117 H 294.64 1.72884 6.32809 0
M  V30 3118 H 294.557 3.40827 6.74814 0
M  V30 3119 H 295.825 2.42016 7.40978 0
M  V30 3120 N 300.054 -1.07777 1.14986 0
M  V30 3121 C 301.3 -1.80557 0.923422 0
M  V30 3122 C 301.633 -1.86298 -0.548337 0
M  V30 3123 O 300.908 -1.34354 -1.40639 0
M  V30 3124 C 301.191 -3.25839 1.53299 0
M  V30 3125 C 301.044 -3.28269 3.07505 0
M  V30 3126 C 302.363 -4.22991 1.21518 0
M  V30 3127 H 299.482 -0.655493 0.336894 0
M  V30 3128 H 302.124 -1.26144 1.42083 0
M  V30 3129 H 300.274 -3.72306 1.10999 0
M  V30 3130 H 301.946 -2.90079 3.58681 0
M  V30 3131 H 300.189 -2.67355 3.4162 0
M  V30 3132 H 300.86 -4.30691 3.45266 0
M  V30 3133 H 303.336 -3.84894 1.581 0
M  V30 3134 H 302.212 -5.22945 1.66793 0
M  V30 3135 H 302.473 -4.41904 0.131505 0
M  V30 3136 N 301.532 -0.945985 -1.26051 0
M  V30 3137 C 302.442 -0.465633 -2.29933 0
M  V30 3138 C 303.458 0.462761 -1.67733 0
M  V30 3139 O 304.634 0.341118 -1.9849 0
M  V30 3140 C 301.699 0.256994 -3.45746 0
M  V30 3141 C 300.76 -0.708549 -4.23412 0
M  V30 3142 C 299.993 -0.0203135 -5.33696 0
M  V30 3143 O 300.216 1.19571 -5.57726 0
M  V30 3144 O 299.15 -0.701459 -5.97799 0
M  V30 3145 H 302.976 -1.32866 -2.73094 0
M  V30 3146 H 300.561 -0.712071 -1.31339 0
M  V30 3147 H 302.443 0.663852 -4.16138 0
M  V30 3148 H 301.118 1.09533 -3.04605 0
M  V30 3149 H 300.025 -1.16545 -3.55483 0
M  V30 3150 H 301.358 -1.51465 -4.68315 0
M  V30 3151 N 303.011 1.40521 -0.713556 0
M  V30 3152 C 304.236 2.05759 -0.26035 0
M  V30 3153 C 304.661 1.53403 1.08854 0
M  V30 3154 O 304.019 0.668535 1.68524 0
M  V30 3155 C 304.067 3.59745 -0.248122 0
M  V30 3156 O 303.171 4.05123 0.77131 0
M  V30 3157 H 302.512 0.652564 -0.122703 0
M  V30 3158 H 305.042 1.79958 -0.973467 0
M  V30 3159 H 305.052 4.07911 -0.0851129 0
M  V30 3160 H 303.727 3.97218 -1.2325 0
M  V30 3161 H 302.304 3.68422 0.57619 0
M  V30 3162 N 304.489 0.459591 1.5075 0
M  V30 3163 C 305.729 -0.09824 2.04164 0
M  V30 3164 C 306.093 -1.3801 1.33481 0
M  V30 3165 O 307.294 -2.01959 1.77387 0
M  V30 3166 C 305.565 -0.289467 3.56226 0
M  V30 3167 S 307.124 -0.807507 4.31306 0
M  V30 3168 H 303.942 -0.0213845 0.710678 0
M  V30 3169 H 306.544 0.624098 1.85271 0
M  V30 3170 H 305.248 0.649461 4.05229 0
M  V30 3171 H 304.779 -1.03825 3.79452 0
M  V30 3172 H 306.794 -2.0824 4.50389 0
M  V30 3173 N 305.967 -1.56429 0.191757 0
M  V30 3174 C 306.877 -2.22541 -0.742481 0
M  V30 3175 C 307.893 -1.22342 -1.23727 0
M  V30 3176 O 309.069 -1.55069 -1.28513 0
M  V30 3177 C 306.134 -2.8692 -1.94623 0
M  V30 3178 C 305.195 -4.02378 -1.49633 0
M  V30 3179 C 304.428 -4.63678 -2.6427 0
M  V30 3180 O 304.651 -4.23895 -3.81666 0
M  V30 3181 O 303.585 -5.53202 -2.37174 0
M  V30 3182 H 307.411 -3.02977 -0.209462 0
M  V30 3183 H 304.996 -1.49353 -0.0373832 0
M  V30 3184 H 306.878 -3.27663 -2.64982 0
M  V30 3185 H 305.553 -2.09466 -2.46791 0
M  V30 3186 H 304.46 -3.66265 -0.761636 0
M  V30 3187 H 305.793 -4.81487 -1.02134 0
M  V30 3188 N 307.445 0.0818655 -1.57387 0
M  V30 3189 C 308.67 0.799946 -1.91352 0
M  V30 3190 C 309.095 1.70833 -0.787258 0
M  V30 3191 O 308.453 1.79419 0.26048 0
M  V30 3192 C 308.501 1.57812 -3.24234 0
M  V30 3193 O 307.605 2.68806 -3.12757 0
M  V30 3194 H 306.946 0.21891 -0.626877 0
M  V30 3195 H 309.476 0.0531256 -2.04531 0
M  V30 3196 H 309.486 1.95952 -3.57864 0
M  V30 3197 H 308.161 0.911548 -4.05788 0
M  V30 3198 H 306.738 2.33597 -2.90666 0
M  V30 3199 N 308.923 1.53595 0.353017 0
M  V30 3200 C 310.148 1.7462 1.11904 0
M  V30 3201 C 310.573 0.479721 1.8188 0
M  V30 3202 O 309.931 -0.567066 1.72204 0
M  V30 3203 C 309.979 2.92029 2.11545 0
M  V30 3204 O 309.083 2.61516 3.18878 0
M  V30 3205 H 308.424 0.579531 0.324099 0
M  V30 3206 H 310.954 2.00525 0.406301 0
M  V30 3207 H 310.964 3.18551 2.5493 0
M  V30 3208 H 309.639 3.83888 1.60008 0
M  V30 3209 H 308.216 2.45852 2.80377 0
M  V30 3210 N 310.401 -0.613514 1.45168 0
M  V30 3211 C 311.626 -1.40437 1.52618 0
M  V30 3212 C 312.051 -1.87438 0.157707 0
M  V30 3213 O 311.409 -1.59791 -0.856537 0
M  V30 3214 C 311.457 -2.58894 2.51011 0
M  V30 3215 O 310.561 -3.59326 2.02382 0
M  V30 3216 H 309.902 -0.419506 0.514695 0
M  V30 3217 H 312.432 -0.747215 1.90467 0
M  V30 3218 H 312.442 -3.06214 2.69624 0
M  V30 3219 H 311.117 -2.24032 3.50403 0
M  V30 3220 H 309.694 -3.18695 1.93618 0
M  V30 3221 N 311.879 -1.3236 -0.855495 0
M  V30 3222 C 312.829 -1.17809 -1.95205 0
M  V30 3223 C 313.813 -0.0852319 -1.60674 0
M  V30 3224 O 315.005 -0.311651 -1.74235 0
M  V30 3225 C 312.134 -0.902437 -3.31226 0
M  V30 3226 C 311.22 -2.03695 -3.7198 0
M  V30 3227 N 311.611 -3.28544 -3.84568 0
M  V30 3228 C 309.909 -1.93993 -4.016 0
M  V30 3229 C 310.61 -4.02847 -4.19629 0
M  V30 3230 N 309.586 -3.31138 -4.31102 0
M  V30 3231 H 313.388 -2.12462 -2.0307 0
M  V30 3232 H 310.902 -1.24127 -1.0472 0
M  V30 3233 H 312.899 -0.77915 -4.09554 0
M  V30 3234 H 311.559 0.0357267 -3.2468 0
M  V30 3235 H 312.57 -3.6349 -3.68911 0
M  V30 3236 H 309.247 -1.07733 -4.03361 0
M  V30 3237 H 310.637 -5.10506 -4.36845 0
M  V30 3238 N 313.357 1.07166 -1.15556 0
M  V30 3239 C 314.582 1.84053 -0.955988 0
M  V30 3240 C 315.007 1.81586 0.490739 0
M  V30 3241 O 314.365 1.21018 1.34997 0
M  V30 3242 C 314.413 3.28957 -1.47714 0
M  V30 3243 O 313.517 4.06795 -0.677593 0
M  V30 3244 H 312.858 0.569842 -0.340847 0
M  V30 3245 H 315.388 1.35178 -1.53584 0
M  V30 3246 H 315.398 3.79788 -1.4908 0
M  V30 3247 H 314.073 3.30068 -2.53037 0
M  V30 3248 H 312.65 3.6561 -0.733721 0
M  V30 3249 N 314.835 0.952656 1.25548 0
M  V30 3250 C 315.768 0.415525 2.24385 0
M  V30 3251 C 316.746 -0.502046 1.54655 0
M  V30 3252 O 317.93 -0.436875 1.83368 0
M  V30 3253 C 315.057 -0.401734 3.36309 0
M  V30 3254 C 314.103 0.455949 4.24056 0
M  V30 3255 S 314.936 1.88698 5.01152 0
M  V30 3256 C 316.092 1.07809 6.16545 0
M  V30 3257 H 316.325 1.25315 2.69599 0
M  V30 3258 H 313.858 0.756587 1.34592 0
M  V30 3259 H 315.816 -0.867329 4.01233 0
M  V30 3260 H 314.477 -1.21416 2.89684 0
M  V30 3261 H 313.67 -0.170776 5.03711 0
M  V30 3262 H 313.272 0.856675 3.64056 0
M  V30 3263 H 315.564 0.325816 6.76716 0
M  V30 3264 H 316.507 1.84849 6.83547 0
M  V30 3265 H 316.915 0.60909 5.61204 0
M  V30 3266 N 316.313 -1.40141 0.720998 0
M  V30 3267 C 317.59 -1.94677 0.189757 0
M  V30 3268 C 317.97 -1.65879 -1.30566 0
M  V30 3269 O 317.318 -0.979391 -2.06447 0
M  V30 3270 C 317.528 -3.45279 0.508304 0
M  V30 3271 C 318.876 -4.22209 0.449934 0
M  V30 3272 O 319.9 -3.53413 0.444677 0
M  V30 3273 O 318.759 -5.44788 0.432189 0
M  V30 3274 H 315.853 -0.826459 0.0299026 0
M  V30 3275 H 318.399 -1.49719 0.7989 0
M  V30 3276 H 317.171 -3.59619 1.54239 0
M  V30 3277 H 316.794 -3.97386 -0.130525 0
M  V30 3278 N 317.792 -0.46758 -1.50504 0
M  V30 3279 C 318.702 0.33382 -2.32213 0
M  V30 3280 C 319.718 0.999323 -1.42441 0
M  V30 3281 O 320.894 0.988068 -1.75497 0
M  V30 3282 C 317.959 1.4035 -3.17022 0
M  V30 3283 C 317.02 0.754961 -4.2261 0
M  V30 3284 C 316.253 1.77367 -5.03365 0
M  V30 3285 O 316.476 2.99976 -4.8515 0
M  V30 3286 O 315.41 1.34744 -5.86624 0
M  V30 3287 H 319.236 -0.334067 -3.01857 0
M  V30 3288 H 316.821 -0.229496 -1.47627 0
M  V30 3289 H 318.703 2.02318 -3.69656 0
M  V30 3290 H 317.378 2.05492 -2.5011 0
M  V30 3291 H 316.285 0.0964244 -3.73976 0
M  V30 3292 H 317.618 0.146545 -4.91982 0
M  V30 3293 N 319.27 1.56325 -0.20005 0
M  V30 3294 C 320.516 1.98012 0.438059 0
M  V30 3295 C 320.849 1.08702 1.60927 0
M  V30 3296 O 320.124 0.140064 1.93995 0
M  V30 3297 C 320.407 3.48841 0.893419 0
M  V30 3298 C 320.26 4.48928 -0.279947 0
M  V30 3299 C 321.579 4.03498 1.75719 0
M  V30 3300 H 318.698 0.719918 0.157757 0
M  V30 3301 H 321.34 1.87743 -0.291968 0
M  V30 3302 H 319.49 3.57723 1.51547 0
M  V30 3303 H 321.162 4.52079 -0.91772 0
M  V30 3304 H 319.405 4.23694 -0.930919 0
M  V30 3305 H 320.076 5.5194 0.0812601 0
M  V30 3306 H 322.552 3.97427 1.23253 0
M  V30 3307 H 321.428 5.09393 2.04476 0
M  V30 3308 H 321.689 3.4906 2.71311 0
M  V30 3309 N 320.748 -0.0735177 1.57428 0
M  V30 3310 C 321.973 -0.789787 1.91774 0
M  V30 3311 C 322.398 -1.70413 0.796306 0
M  V30 3312 O 321.756 -1.79555 -0.250961 0
M  V30 3313 C 321.804 -1.5609 3.25067 0
M  V30 3314 O 320.908 -2.67144 3.14178 0
M  V30 3315 H 320.249 -0.215582 0.628029 0
M  V30 3316 H 322.779 -0.0422781 2.04556 0
M  V30 3317 H 322.789 -1.94052 3.58898 0
M  V30 3318 H 321.464 -0.890015 4.06265 0
M  V30 3319 H 320.041 -2.32052 2.91901 0
M  V30 3320 N 322.226 -1.5378 -0.344866 0
M  V30 3321 C 323.156 -1.84662 -1.42906 0
M  V30 3322 C 324.137 -0.701648 -1.54955 0
M  V30 3323 O 325.322 -0.953438 -1.69184 0
M  V30 3324 C 322.452 -2.05503 -2.79974 0
M  V30 3325 C 321.406 -3.21318 -2.82734 0
M  V30 3326 C 320.732 -3.2749 -4.22675 0
M  V30 3327 C 322.032 -4.59456 -2.48389 0
M  V30 3328 H 323.726 -2.75461 -1.17311 0
M  V30 3329 H 321.272 -1.32542 -0.562896 0
M  V30 3330 H 323.225 -2.25691 -3.55867 0
M  V30 3331 H 321.949 -1.11434 -3.07002 0
M  V30 3332 H 320.608 -3.00984 -2.09294 0
M  V30 3333 H 320.256 -2.31019 -4.4681 0
M  V30 3334 H 319.956 -4.05316 -4.25433 0
M  V30 3335 H 321.48 -3.49887 -5.00412 0
M  V30 3336 H 322.894 -4.79667 -3.13995 0
M  V30 3337 H 321.291 -5.39675 -2.62432 0
M  V30 3338 H 322.361 -4.63155 -1.4358 0
M  V30 3339 N 323.704 0.605807 -1.45491 0
M  V30 3340 C 324.929 1.39625 -1.53361 0
M  V30 3341 C 325.354 1.87351 -0.167645 0
M  V30 3342 O 324.712 1.60243 0.848051 0
M  V30 3343 C 324.76 2.57559 -2.5238 0
M  V30 3344 O 323.864 3.58248 -2.04285 0
M  V30 3345 H 323.205 0.416771 -0.516912 0
M  V30 3346 H 325.735 0.737103 -1.90861 0
M  V30 3347 H 325.745 3.0478 -2.71244 0
M  V30 3348 H 324.42 2.22171 -3.51586 0
M  V30 3349 H 322.997 3.17664 -1.95305 0
M  V30 3350 N 325.182 1.32811 0.848464 0
M  V30 3351 C 326.145 1.22194 1.9391 0
M  V30 3352 C 327.145 0.143404 1.60159 0
M  V30 3353 O 328.335 0.394253 1.6968 0
M  V30 3354 C 325.467 0.88067 3.29328 0
M  V30 3355 H 326.66 2.19127 2.04752 0
M  V30 3356 H 324.213 1.16731 1.0394 0
M  V30 3357 H 324.948 -0.0865776 3.24184 0
M  V30 3358 H 324.733 1.66052 3.55203 0
M  V30 3359 H 326.223 0.830871 4.09251 0
M  V30 3360 N 326.66 -1.06551 1.16123 0
M  V30 3361 C 327.907 -1.79302 0.941126 0
M  V30 3362 C 328.235 -1.87105 -0.531235 0
M  V30 3363 O 327.49 -1.35692 -1.41018 0
M  V30 3364 C 327.789 -3.23911 1.51052 0
M  V30 3365 C 327.455 -3.36193 3.00475 0
M  V30 3366 C 326.117 -3.39252 3.41265 0
M  V30 3367 C 328.469 -3.38326 3.96465 0
M  V30 3368 C 325.797 -3.42057 4.76669 0
M  V30 3369 C 328.149 -3.4267 5.31752 0
M  V30 3370 C 326.813 -3.4401 5.72026 0
M  V30 3371 H 326.083 -0.656111 0.344382 0
M  V30 3372 H 328.73 -1.25325 1.44796 0
M  V30 3373 H 327.035 -3.80723 0.925063 0
M  V30 3374 H 328.732 -3.78793 1.31593 0
M  V30 3375 H 325.322 -3.34516 2.6795 0
M  V30 3376 H 329.506 -3.35176 3.6602 0
M  V30 3377 H 324.762 -3.41398 5.07206 0
M  V30 3378 H 328.936 -3.43268 6.05921 0
M  V30 3379 H 326.563 -3.45937 6.76928 0
M  V30 3380 N 328.138 -0.959301 -1.25041 0
M  V30 3381 C 329.386 -0.615393 -1.92503 0
M  V30 3382 C 329.707 0.850969 -1.75452 0
M  V30 3383 O 328.977 1.60658 -1.12098 0
M  V30 3384 H 327.557 -0.224613 -0.712431 0
M  V30 3385 H 330.219 -1.21855 -1.5211 0
M  V30 3386 H 329.315 -0.848738 -3.00338 0
M  V30 3387 N 329.616 1.39756 -0.72842 0
M  V30 3388 C 330.526 2.34444 -0.0855374 0
M  V30 3389 C 331.542 1.57976 0.729356 0
M  V30 3390 O 332.718 1.90301 0.659346 0
M  V30 3391 C 329.783 3.36965 0.815798 0
M  V30 3392 C 328.844 4.29299 -0.0105996 0
M  V30 3393 C 328.077 5.26923 0.84781 0
M  V30 3394 O 328.3 5.30859 2.08673 0
M  V30 3395 O 327.234 6.01249 0.279969 0
M  V30 3396 H 331.06 2.91065 -0.866892 0
M  V30 3397 H 328.645 1.4117 -0.48902 0
M  V30 3398 H 330.527 3.99804 1.33171 0
M  V30 3399 H 329.202 2.82739 1.57608 0
M  V30 3400 H 328.109 3.69703 -0.571877 0
M  V30 3401 H 329.442 4.86712 -0.73295 0
M  V30 3402 N 331.094 0.475555 1.50254 0
M  V30 3403 C 332.34 -0.0701075 2.03279 0
M  V30 3404 C 332.695 -1.37007 1.35081 0
M  V30 3405 O 331.988 -1.8577 0.469052 0
M  V30 3406 C 332.182 -0.305114 3.56095 0
M  V30 3407 C 332.011 0.970515 4.39103 0
M  V30 3408 C 330.781 1.51509 4.82051 0
M  V30 3409 C 332.979 1.8671 4.79212 0
M  V30 3410 N 330.961 2.73928 5.49397 0
M  V30 3411 C 332.332 2.93715 5.46014 0
M  V30 3412 C 334.387 1.87695 4.61167 0
M  V30 3413 C 333.09 4.01699 5.96683 0
M  V30 3414 C 335.116 2.94637 5.12779 0
M  V30 3415 C 334.478 4.00361 5.79561 0
M  V30 3416 H 330.577 0.014486 0.781866 0
M  V30 3417 H 333.161 0.644755 1.83714 0
M  V30 3418 H 331.332 -0.989019 3.75597 0
M  V30 3419 H 333.064 -0.845516 3.95769 0
M  V30 3420 H 329.819 1.06367 4.61501 0
M  V30 3421 H 330.243 3.36109 5.87673 0
M  V30 3422 H 334.885 1.07273 4.08965 0
M  V30 3423 H 332.603 4.82934 6.4792 0
M  V30 3424 H 336.189 2.96388 5.00645 0
M  V30 3425 H 335.069 4.81751 6.18778 0
M  V30 3426 N 332.573 -1.56217 0.208337 0
M  V30 3427 C 333.801 -2.02337 -0.43215 0
M  V30 3428 C 334.216 -1.08834 -1.54275 0
M  V30 3429 O 333.573 -0.0955462 -1.8225 0
M  V30 3430 C 333.624 -3.48072 -0.976138 0
M  V30 3431 O 333.345 -4.38007 0.0901621 0
M  V30 3432 C 334.846 -4.09773 -1.69119 0
M  V30 3433 H 332.066 -0.662385 -0.10718 0
M  V30 3434 H 334.61 -2.01966 0.320923 0
M  V30 3435 H 332.765 -3.49099 -1.67954 0
M  V30 3436 H 333.179 -5.23543 -0.316701 0
M  V30 3437 H 334.653 -5.13556 -2.02397 0
M  V30 3438 H 335.13 -3.53999 -2.59964 0
M  V30 3439 H 335.736 -4.12556 -1.03332 0
M  V30 3440 N 334.051 0.0651679 -1.57465 0
M  V30 3441 C 334.961 1.09448 -2.07505 0
M  V30 3442 C 335.977 1.41974 -1.00595 0
M  V30 3443 O 337.153 1.52018 -1.32107 0
M  V30 3444 C 334.218 2.38689 -2.51453 0
M  V30 3445 C 333.279 2.13073 -3.72691 0
M  V30 3446 C 332.512 3.36152 -4.14533 0
M  V30 3447 O 332.735 4.45517 -3.56189 0
M  V30 3448 O 331.669 3.23974 -5.07272 0
M  V30 3449 H 335.495 0.69935 -2.95538 0
M  V30 3450 H 333.08 0.279752 -1.46757 0
M  V30 3451 H 334.962 3.14736 -2.80212 0
M  V30 3452 H 333.637 2.77568 -1.66546 0
M  V30 3453 H 332.544 1.34709 -3.49005 0
M  V30 3454 H 333.877 1.79071 -4.5847 0
M  V30 3455 N 335.529 1.53961 0.336706 0
M  V30 3456 C 336.778 1.70751 1.07363 0
M  V30 3457 C 337.091 0.481061 1.89592 0
M  V30 3458 O 338.297 0.530046 2.66276 0
M  V30 3459 C 336.753 3.01965 1.95818 0
M  V30 3460 C 336.361 4.31971 1.18764 0
M  V30 3461 C 338.105 3.28121 2.69327 0
M  V30 3462 C 336.012 5.54255 2.06289 0
M  V30 3463 H 334.942 0.636292 0.404535 0
M  V30 3464 H 337.593 1.80459 0.332681 0
M  V30 3465 H 335.975 2.86132 2.7376 0
M  V30 3466 H 337.149 4.5853 0.456849 0
M  V30 3467 H 335.464 4.12481 0.569946 0
M  V30 3468 H 338.061 4.16673 3.35094 0
M  V30 3469 H 338.404 2.45426 3.36261 0
M  V30 3470 H 338.937 3.44762 1.98454 0
M  V30 3471 H 335.676 6.39513 1.43885 0
M  V30 3472 H 335.196 5.31935 2.77138 0
M  V30 3473 H 336.875 5.90159 2.65182 0
M  V30 3474 N 337.007 -0.598083 1.45811 0
M  V30 3475 C 338.418 -1.18011 1.44673 0
M  V30 3476 C 338.769 -1.95378 0.179364 0
M  V30 3477 O 337.894 -2.04124 -0.718509 0
M  V30 3478 C 338.489 -2.14677 2.62105 0
M  V30 3479 C 337.048 -2.68236 2.64057 0
M  V30 3480 C 336.195 -1.43816 2.37091 0
M  V30 3481 H 339.146 -0.38686 1.53913 0
M  V30 3482 H 339.167 -2.97878 2.36746 0
M  V30 3483 H 338.679 -1.5834 3.5433 0
M  V30 3484 H 336.78 -3.28486 1.75864 0
M  V30 3485 H 336.893 -3.12021 3.63566 0
M  V30 3486 H 335.257 -1.731 1.86838 0
M  V30 3487 H 336.04 -0.893333 3.31473 0
M  V30 3488 N 338.485 -1.33259 -0.841409 0
M  V30 3489 C 339.733 -1.24326 -1.59334 0
M  V30 3490 C 340.054 0.191564 -1.94057 0
M  V30 3491 O 339.324 1.11967 -1.60749 0
M  V30 3492 H 337.904 -0.457174 -0.590763 0
M  V30 3493 H 340.566 -1.66947 -1.00571 0
M  V30 3494 H 339.662 -1.8352 -2.52442 0
M  V30 3495 N 339.963 1.05934 -1.16686 0
M  V30 3496 C 340.926 2.11669 -0.879144 0
M  V30 3497 C 341.926 1.60294 0.127445 0
M  V30 3498 O 343.116 1.7389 -0.103865 0
M  V30 3499 C 340.248 3.39438 -0.315425 0
M  V30 3500 H 341.441 2.38626 -1.81653 0
M  V30 3501 H 338.994 1.22058 -0.976299 0
M  V30 3502 H 339.729 3.18132 0.629468 0
M  V30 3503 H 339.514 3.78034 -1.04079 0
M  V30 3504 H 341.004 4.17391 -0.132189 0
M  V30 3505 N 341.441 0.965919 1.2453 0
M  V30 3506 C 342.391 0.465731 2.23193 0
M  V30 3507 C 343.375 -0.451277 1.54442 0
M  V30 3508 O 344.567 -0.282489 1.74731 0
M  V30 3509 C 341.696 -0.244511 3.42428 0
M  V30 3510 C 340.782 0.691222 4.18429 0
M  V30 3511 N 341.173 1.82771 4.71623 0
M  V30 3512 C 339.471 0.501649 4.4317 0
M  V30 3513 C 340.172 2.41285 5.29298 0
M  V30 3514 N 339.148 1.69819 5.16394 0
M  V30 3515 H 342.95 1.33291 2.61937 0
M  V30 3516 H 340.464 0.824789 1.39896 0
M  V30 3517 H 342.461 -0.620056 4.12263 0
M  V30 3518 H 341.121 -1.10815 3.05205 0
M  V30 3519 H 342.132 2.20929 4.68413 0
M  V30 3520 H 338.809 -0.318177 4.16286 0
M  V30 3521 H 340.199 3.37181 5.8117 0
M  V30 3522 N 342.919 -1.39368 0.735821 0
M  V30 3523 C 343.869 -2.27885 0.0724287 0
M  V30 3524 C 344.853 -1.44301 -0.711756 0
M  V30 3525 O 346.045 -1.67206 -0.58063 0
M  V30 3526 C 343.174 -3.33029 -0.833454 0
M  V30 3527 C 342.26 -4.24078 -0.0433749 0
M  V30 3528 N 342.651 -4.96138 0.983903 0
M  V30 3529 C 340.949 -4.45164 -0.272905 0
M  V30 3530 C 341.65 -5.63069 1.4604 0
M  V30 3531 N 340.626 -5.37991 0.778857 0
M  V30 3532 H 344.428 -2.81052 0.859467 0
M  V30 3533 H 341.942 -1.5206 0.570227 0
M  V30 3534 H 343.939 -3.95311 -1.32419 0
M  V30 3535 H 342.599 -2.81421 -1.61964 0
M  V30 3536 H 343.61 -4.9958 1.36528 0
M  V30 3537 H 340.287 -4.04497 -1.03383 0
M  V30 3538 H 341.677 -6.30755 2.31511 0
M  V30 3539 N 344.397 -0.483516 -1.5 0
M  V30 3540 C 345.646 0.0689102 -2.01582 0
M  V30 3541 C 345.959 1.39655 -1.36952 0
M  V30 3542 O 347.165 2.03465 -1.79762 0
M  V30 3543 C 345.621 0.173302 -3.59483 0
M  V30 3544 C 345.229 -1.14665 -4.33077 0
M  V30 3545 C 346.973 0.677024 -4.19066 0
M  V30 3546 C 344.88 -1.00537 -5.82792 0
M  V30 3547 H 343.81 0.0295277 -0.753422 0
M  V30 3548 H 346.461 -0.620295 -1.72698 0
M  V30 3549 H 344.843 0.926569 -3.85007 0
M  V30 3550 H 346.017 -1.91184 -4.19268 0
M  V30 3551 H 344.332 -1.58244 -3.85159 0
M  V30 3552 H 346.929 0.799952 -5.28682 0
M  V30 3553 H 347.272 1.67151 -3.81269 0
M  V30 3554 H 347.805 -0.0192083 -3.97795 0
M  V30 3555 H 344.544 -1.9736 -6.25083 0
M  V30 3556 H 344.064 -0.280776 -5.99142 0
M  V30 3557 H 345.743 -0.677 -6.43448 0
M  V30 3558 N 345.875 1.56104 -0.216619 0
M  V30 3559 C 347.124 1.97348 0.416744 0
M  V30 3560 C 347.437 1.10715 1.6125 0
M  V30 3561 O 348.643 1.41836 2.31506 0
M  V30 3562 C 347.099 3.51059 0.792835 0
M  V30 3563 C 346.707 4.46387 -0.379828 0
M  V30 3564 C 348.451 4.01026 1.39208 0
M  V30 3565 C 346.358 5.91397 0.0184223 0
M  V30 3566 H 345.288 0.736942 0.159475 0
M  V30 3567 H 347.939 1.80827 -0.31205 0
M  V30 3568 H 346.321 3.63162 1.57891 0
M  V30 3569 H 347.495 4.46029 -1.15737 0
M  V30 3570 H 345.81 4.06734 -0.891979 0
M  V30 3571 H 348.407 5.0686 1.70286 0
M  V30 3572 H 348.75 3.46587 2.30614 0
M  V30 3573 H 349.283 3.92125 0.669537 0
M  V30 3574 H 346.022 6.49807 -0.862002 0
M  V30 3575 H 345.542 5.94961 0.760384 0
M  V30 3576 H 347.221 6.45455 0.446818 0
M  V30 3577 N 347.353 -0.0568162 1.57498 0
M  V30 3578 C 348.764 -0.606858 1.76562 0
M  V30 3579 C 349.115 -1.77114 0.844094 0
M  V30 3580 O 348.24 -2.16376 0.0318911 0
M  V30 3581 C 348.835 -1.10766 3.20182 0
M  V30 3582 C 347.394 -1.60344 3.40539 0
M  V30 3583 C 346.541 -0.529311 2.72201 0
M  V30 3584 H 349.492 0.169393 1.57793 0
M  V30 3585 H 349.513 -1.97602 3.25167 0
M  V30 3586 H 349.025 -0.26006 3.87228 0
M  V30 3587 H 347.126 -2.47379 2.78629 0
M  V30 3588 H 347.239 -1.67006 4.4905 0
M  V30 3589 H 345.603 -0.977893 2.35179 0
M  V30 3590 H 346.386 0.308352 3.41912 0
M  V30 3591 N 348.832 -1.54138 -0.328536 0
M  V30 3592 C 350.057 -1.76378 -1.09112 0
M  V30 3593 C 350.482 -0.508596 -1.81094 0
M  V30 3594 O 349.84 0.539598 -1.73084 0
M  V30 3595 C 349.888 -2.95358 -2.06872 0
M  V30 3596 O 348.992 -2.66556 -3.14677 0
M  V30 3597 H 348.333 -0.584614 -0.314838 0
M  V30 3598 H 350.863 -2.01146 -0.374348 0
M  V30 3599 H 350.873 -3.22566 -2.4983 0
M  V30 3600 H 349.548 -3.86385 -1.5388 0
M  V30 3601 H 348.125 -2.50282 -2.7643 0
M  V30 3602 N 350.31 0.590341 -1.46126 0
M  V30 3603 C 351.558 1.34616 -1.50742 0
M  V30 3604 C 351.879 1.94363 -0.157486 0
M  V30 3605 O 351.149 1.78136 0.815136 0
M  V30 3606 H 349.729 0.499789 -0.555175 0
M  V30 3607 H 352.391 0.691953 -1.82203 0
M  V30 3608 H 351.487 2.15678 -2.25587 0
M  V30 3609 N 351.788 1.33704 0.83433 0
M  V30 3610 C 353.035 1.25417 1.58987 0
M  V30 3611 C 353.363 -0.178869 1.93676 0
M  V30 3612 O 352.618 -1.13723 1.59265 0
M  V30 3613 C 352.917 2.07926 2.90692 0
M  V30 3614 C 352.583 3.57066 2.75345 0
M  V30 3615 C 351.245 3.97724 2.70867 0
M  V30 3616 C 353.597 4.51817 2.59828 0
M  V30 3617 C 350.925 5.31344 2.48778 0
M  V30 3618 C 353.277 5.85604 2.39272 0
M  V30 3619 C 351.941 6.25439 2.33199 0
M  V30 3620 H 351.211 0.458934 0.581774 0
M  V30 3621 H 353.858 1.65335 0.966261 0
M  V30 3622 H 352.163 1.608 3.57282 0
M  V30 3623 H 353.86 1.98868 3.48213 0
M  V30 3624 H 350.45 3.24785 2.79665 0
M  V30 3625 H 354.634 4.21311 2.62319 0
M  V30 3626 H 349.89 5.61241 2.42526 0
M  V30 3627 H 354.064 6.58623 2.2625 0
M  V30 3628 H 351.691 7.28914 2.15843 0
M  V30 3629 N 353.266 -1.05314 1.17247 0
M  V30 3630 C 354.199 -2.12512 0.831507 0
M  V30 3631 C 355.177 -1.61351 -0.201168 0
M  V30 3632 O 356.361 -1.88317 -0.0829831 0
M  V30 3633 C 353.488 -3.37848 0.24015 0
M  V30 3634 C 352.534 -4.07832 1.24801 0
M  V30 3635 S 353.367 -4.56537 2.79882 0
M  V30 3636 C 354.523 -5.85122 2.22223 0
M  V30 3637 H 354.756 -2.41106 1.7394 0
M  V30 3638 H 352.289 -1.17896 0.996988 0
M  V30 3639 H 354.247 -4.10391 -0.0945588 0
M  V30 3640 H 352.908 -3.07392 -0.645668 0
M  V30 3641 H 352.101 -4.97883 0.78287 0
M  V30 3642 H 351.703 -3.41348 1.52831 0
M  V30 3643 H 353.995 -6.58408 1.59703 0
M  V30 3644 H 354.938 -6.36381 3.10523 0
M  V30 3645 H 355.346 -5.39626 1.65722 0
M  V30 3646 N 354.744 -0.972509 -1.24016 0
M  V30 3647 C 356.16 -0.679827 -1.44397 0
M  V30 3648 C 356.36 0.756716 -1.86751 0
M  V30 3649 O 355.416 1.53007 -2.00861 0
M  V30 3650 C 356.729 -1.66803 -2.50195 0
M  V30 3651 C 358.277 -1.68119 -2.64017 0
M  V30 3652 C 358.752 -2.65748 -3.73017 0
M  V30 3653 N 360.243 -2.64219 -3.8045 0
M  V30 3654 C 360.978 -3.36433 -4.64328 0
M  V30 3655 N 360.474 -4.1818 -5.52356 0
M  V30 3656 N 362.267 -3.25235 -4.58453 0
M  V30 3657 H 354.418 -1.90059 -0.948228 0
M  V30 3658 H 356.681 -0.818527 -0.478245 0
M  V30 3659 H 356.387 -2.69498 -2.25973 0
M  V30 3660 H 356.261 -1.4446 -3.48441 0
M  V30 3661 H 358.648 -0.661319 -2.87594 0
M  V30 3662 H 358.729 -1.94525 -1.66113 0
M  V30 3663 H 358.373 -3.67872 -3.50189 0
M  V30 3664 H 358.303 -2.36619 -4.70446 0
M  V30 3665 H 360.794 -2.04887 -3.17537 0
M  V30 3666 H 361.107 -4.70157 -6.13329 0
M  V30 3667 H 359.452 -4.22273 -5.52006 0
M  V30 3668 H 362.643 -2.60829 -3.88698 0
M  V30 3669 H 362.816 -3.81776 -5.23594 0
M  V30 3670 N 356.222 1.38976 -0.743202 0
M  V30 3671 C 357.468 2.0064 -0.295189 0
M  V30 3672 C 357.801 1.5885 1.11716 0
M  V30 3673 O 357.076 0.821181 1.76315 0
M  V30 3674 C 357.359 3.578 -0.406318 0
M  V30 3675 C 357.212 4.09586 -1.85903 0
M  V30 3676 C 358.531 4.39616 0.206439 0
M  V30 3677 H 355.65 0.728935 -0.108733 0
M  V30 3678 H 358.292 1.65067 -0.940897 0
M  V30 3679 H 356.442 3.88235 0.143419 0
M  V30 3680 H 358.114 3.89837 -2.46627 0
M  V30 3681 H 356.357 3.6284 -2.3776 0
M  V30 3682 H 357.028 5.18708 -1.888 0
M  V30 3683 H 359.504 4.15273 -0.262283 0
M  V30 3684 H 358.38 5.48812 0.0983819 0
M  V30 3685 H 358.641 4.22754 1.2935 0
M  V30 3686 N 357.7 0.491464 1.49741 0
M  V30 3687 C 358.946 -0.0565092 2.02721 0
M  V30 3688 C 359.279 -1.37522 1.37118 0
M  V30 3689 O 358.554 -1.87866 0.503645 0
M  V30 3690 C 358.837 -0.219051 3.59433 0
M  V30 3691 C 358.69 1.12211 4.35579 0
M  V30 3692 C 360.009 -0.964157 4.29409 0
M  V30 3693 H 357.128 -0.0190627 0.736753 0
M  V30 3694 H 359.77 0.641021 1.7886 0
M  V30 3695 H 357.92 -0.813165 3.79895 0
M  V30 3696 H 359.592 1.75437 4.26637 0
M  V30 3697 H 357.835 1.71377 3.98513 0
M  V30 3698 H 358.506 0.961794 5.43556 0
M  V30 3699 H 360.982 -0.460378 4.13545 0
M  V30 3700 H 359.858 -1.04671 5.38828 0
M  V30 3701 H 360.119 -2.00563 3.93988 0
M  V30 3702 N 359.178 -1.55987 0.224894 0
M  V30 3703 C 360.088 -2.24066 -0.69511 0
M  V30 3704 C 361.104 -1.24939 -1.21104 0
M  V30 3705 O 362.28 -1.5776 -1.25195 0
M  V30 3706 C 359.345 -2.90983 -1.88493 0
M  V30 3707 C 358.406 -4.05462 -1.41064 0
M  V30 3708 C 357.639 -4.69179 -2.54375 0
M  V30 3709 O 357.862 -4.31895 -3.72589 0
M  V30 3710 O 356.796 -5.58108 -2.25386 0
M  V30 3711 H 360.622 -3.03353 -0.145149 0
M  V30 3712 H 358.207 -1.49399 -0.00569476 0
M  V30 3713 H 360.089 -3.33209 -2.57972 0
M  V30 3714 H 358.764 -2.14653 -2.42293 0
M  V30 3715 H 357.671 -3.67798 -0.683774 0
M  V30 3716 H 359.004 -4.83545 -0.918985 0
M  V30 3717 N 360.656 0.0484629 -1.57525 0
M  V30 3718 C 361.586 1.0549 -2.08313 0
M  V30 3719 C 362.567 1.38929 -0.981463 0
M  V30 3720 O 363.752 1.48151 -1.25558 0
M  V30 3721 C 360.882 2.36162 -2.54646 0
M  V30 3722 C 359.836 2.17016 -3.68901 0
M  V30 3723 C 359.162 3.53278 -4.01371 0
M  V30 3724 C 360.462 1.57219 -4.98076 0
M  V30 3725 H 362.156 0.632195 -2.92649 0
M  V30 3726 H 359.702 0.302654 -1.40784 0
M  V30 3727 H 361.655 3.06882 -2.88793 0
M  V30 3728 H 360.379 2.80456 -1.67368 0
M  V30 3729 H 359.038 1.48733 -3.35073 0
M  V30 3730 H 358.686 3.95185 -3.11188 0
M  V30 3731 H 358.386 3.41299 -4.78318 0
M  V30 3732 H 359.91 4.25391 -4.38035 0
M  V30 3733 H 361.324 2.17832 -5.30304 0
M  V30 3734 H 359.721 1.55871 -5.79503 0
M  V30 3735 H 360.791 0.535956 -4.81929 0
M  V30 3736 N 362.134 1.5431 0.320358 0
M  V30 3737 C 363.064 1.86912 1.3995 0
M  V30 3738 C 364.045 0.726211 1.53819 0
M  V30 3739 O 365.23 0.980233 1.67646 0
M  V30 3740 C 362.36 2.09932 2.7667 0
M  V30 3741 C 361.314 3.25776 2.77586 0
M  V30 3742 C 360.64 3.34173 4.17412 0
M  V30 3743 C 361.94 4.6335 2.41048 0
M  V30 3744 H 363.634 2.77292 1.12914 0
M  V30 3745 H 361.18 1.33421 0.541738 0
M  V30 3746 H 363.133 2.31324 3.52232 0
M  V30 3747 H 361.857 1.16304 3.0519 0
M  V30 3748 H 360.516 3.04276 2.04479 0
M  V30 3749 H 360.164 2.38098 4.43078 0
M  V30 3750 H 359.864 4.12033 4.18931 0
M  V30 3751 H 361.388 3.57803 4.94782 0
M  V30 3752 H 362.802 4.84602 3.06324 0
M  V30 3753 H 361.199 5.43782 2.53813 0
M  V30 3754 H 362.269 4.65381 1.36193 0
M  V30 3755 N 363.613 -0.582584 1.46437 0
M  V30 3756 C 364.576 -1.67366 1.56592 0
M  V30 3757 C 365.576 -1.54575 0.443072 0
M  V30 3758 O 366.766 -1.59191 0.707381 0
M  V30 3759 C 363.898 -3.06791 1.48634 0
M  V30 3760 H 365.091 -1.5972 2.5383 0
M  V30 3761 H 362.644 -0.800432 1.34249 0
M  V30 3762 H 363.379 -3.19993 0.526763 0
M  V30 3763 H 363.164 -3.17484 2.30101 0
M  V30 3764 H 364.654 -3.86218 1.58826 0
M  V30 3765 N 365.091 -1.34144 -0.827227 0
M  V30 3766 C 366.001 -1.27428 -1.96975 0
M  V30 3767 C 367.017 -0.182728 -1.73038 0
M  V30 3768 O 368.193 -0.408426 -1.97215 0
M  V30 3769 C 365.258 -1.02526 -3.31194 0
M  V30 3770 C 364.319 -2.20796 -3.68168 0
M  V30 3771 C 363.552 -1.97073 -4.95982 0
M  V30 3772 O 363.775 -0.926822 -5.6282 0
M  V30 3773 O 362.709 -2.83912 -5.30733 0
M  V30 3774 H 366.535 -2.23537 -2.05584 0
M  V30 3775 H 364.12 -1.14307 -0.961989 0
M  V30 3776 H 366.002 -0.904026 -4.11589 0
M  V30 3777 H 364.677 -0.0945389 -3.23562 0
M  V30 3778 H 363.584 -2.38477 -2.88235 0
M  V30 3779 H 364.917 -3.12243 -3.8048 0
M  V30 3780 N 366.569 1.04691 -1.17803 0
M  V30 3781 C 367.817 1.7743 -0.967617 0
M  V30 3782 C 368.138 1.88359 0.504574 0
M  V30 3783 O 367.408 1.40402 1.36617 0
M  V30 3784 H 365.988 0.657242 -0.355024 0
M  V30 3785 H 368.65 1.2638 -1.48371 0
M  V30 3786 H 367.746 2.78924 -1.40027 0
M  V30 3787 N 368.047 0.979072 1.23499 0
M  V30 3788 C 369.296 0.642751 1.91185 0
M  V30 3789 C 369.609 -0.827253 1.77245 0
M  V30 3790 O 370.815 -1.27458 2.39722 0
M  V30 3791 C 369.271 1.09901 3.42709 0
M  V30 3792 C 368.879 2.59327 3.65313 0
M  V30 3793 C 370.623 0.836371 4.16179 0
M  V30 3794 C 368.53 2.98627 5.10467 0
M  V30 3795 H 367.46 0.236698 0.715884 0
M  V30 3796 H 370.111 1.1868 1.39955 0
M  V30 3797 H 368.493 0.48319 3.93041 0
M  V30 3798 H 369.667 3.26136 3.25533 0
M  V30 3799 H 367.982 2.83323 3.05151 0
M  V30 3800 H 370.579 1.10586 5.23139 0
M  V30 3801 H 370.922 -0.227509 4.15678 0
M  V30 3802 H 371.455 1.41371 3.71832 0
M  V30 3803 H 368.194 4.04133 5.16098 0
M  V30 3804 H 367.714 2.3651 5.51201 0
M  V30 3805 H 369.393 2.89159 5.78788 0
M  V30 3806 N 369.525 -1.3858 0.750561 0
M  V30 3807 C 370.936 -1.82927 0.373438 0
M  V30 3808 C 371.287 -1.62634 -1.09748 0
M  V30 3809 O 370.412 -1.12588 -1.84805 0
M  V30 3810 C 371.007 -3.32088 0.671029 0
M  V30 3811 C 369.566 -3.74795 0.34722 0
M  V30 3812 C 368.713 -2.61391 0.92575 0
M  V30 3813 H 371.664 -1.27351 0.946958 0
M  V30 3814 H 371.685 -3.80465 -0.0518269 0
M  V30 3815 H 371.197 -3.46826 1.74164 0
M  V30 3816 H 369.298 -3.65638 -0.716933 0
M  V30 3817 H 369.411 -4.71667 0.840656 0
M  V30 3818 H 367.775 -2.52265 0.351327 0
M  V30 3819 H 368.558 -2.78929 2.00133 0
M  V30 3820 N 371.003 -0.499398 -1.49478 0
M  V30 3821 C 371.966 0.268838 -2.27618 0
M  V30 3822 C 372.966 0.895383 -1.33565 0
M  V30 3823 O 374.156 0.760164 -1.56739 0
M  V30 3824 C 371.288 1.38559 -3.11471 0
M  V30 3825 H 372.481 -0.416812 -2.96989 0
M  V30 3826 H 370.034 -0.254313 -1.54217 0
M  V30 3827 H 370.769 2.10544 -2.46661 0
M  V30 3828 H 370.554 0.941797 -3.80621 0
M  V30 3829 H 372.044 1.92678 -3.70493 0
M  V30 3830 N 372.481 1.55866 -0.233164 0
M  V30 3831 C 373.431 2.17442 0.685774 0
M  V30 3832 C 374.415 1.12617 1.14918 0
M  V30 3833 O 375.607 1.3857 1.10124 0
M  V30 3834 C 372.736 2.86685 1.88856 0
M  V30 3835 C 371.822 3.98749 1.4443 0
M  V30 3836 N 372.213 5.00744 0.713364 0
M  V30 3837 C 370.511 4.11052 1.73068 0
M  V30 3838 C 371.212 5.79673 0.485205 0
M  V30 3839 N 370.188 5.33454 1.04536 0
M  V30 3840 H 373.99 2.93659 0.119022 0
M  V30 3841 H 371.504 1.62362 -0.0348995 0
M  V30 3842 H 373.501 3.29218 2.55776 0
M  V30 3843 H 372.161 2.11967 2.45967 0
M  V30 3844 H 373.172 5.16613 0.364861 0
M  V30 3845 H 369.849 3.47495 2.31416 0
M  V30 3846 H 371.239 6.71829 -0.097365 0
M  V30 3847 N 373.959 -0.0401083 1.57549 0
M  V30 3848 C 375.205 -0.734211 1.89043 0
M  V30 3849 C 375.538 -1.75591 0.829535 0
M  V30 3850 O 374.813 -1.93868 -0.156706 0
M  V30 3851 C 375.096 -1.41374 3.31188 0
M  V30 3852 C 374.949 -0.406299 4.47961 0
M  V30 3853 C 376.268 -2.35061 3.72068 0
M  V30 3854 H 373.387 -0.265447 0.687537 0
M  V30 3855 H 376.029 0.00294087 1.9 0
M  V30 3856 H 374.179 -2.04206 3.30503 0
M  V30 3857 H 375.851 0.219255 4.60779 0
M  V30 3858 H 374.094 0.275485 4.32924 0
M  V30 3859 H 374.765 -0.920022 5.44279 0
M  V30 3860 H 377.241 -1.82282 3.74049 0
M  V30 3861 H 376.117 -2.79593 4.72355 0
M  V30 3862 H 376.378 -3.21258 3.0372 0
M  V30 3863 N 375.437 -1.54477 -0.31217 0
M  V30 3864 C 376.686 -1.72438 -1.04633 0
M  V30 3865 C 376.999 -0.511163 -1.88803 0
M  V30 3866 O 378.205 -0.572341 -2.65399 0
M  V30 3867 C 376.661 -3.05043 -1.9099 0
M  V30 3868 C 376.269 -4.33806 -1.11877 0
M  V30 3869 C 378.013 -3.32364 -2.64073 0
M  V30 3870 C 375.92 -5.57467 -1.97445 0
M  V30 3871 H 374.85 -0.642647 -0.394361 0
M  V30 3872 H 377.501 -1.80966 -0.303929 0
M  V30 3873 H 375.883 -2.90451 -2.69173 0
M  V30 3874 H 377.057 -4.59199 -0.383843 0
M  V30 3875 H 375.372 -4.13336 -0.504252 0
M  V30 3876 H 377.969 -4.21951 -3.28423 0
M  V30 3877 H 378.312 -2.50745 -3.32314 0
M  V30 3878 H 378.845 -3.47875 -1.92944 0
M  V30 3879 H 375.584 -6.41722 -1.33692 0
M  V30 3880 H 375.104 -5.36277 -2.6864 0
M  V30 3881 H 376.783 -5.94303 -2.5576 0
M  V30 3882 N 376.915 0.57481 -1.46744 0
M  V30 3883 C 377.847 1.69804 -1.53946 0
M  V30 3884 C 378.86 1.57098 -0.427106 0
M  V30 3885 O 380.049 1.64378 -0.695863 0
M  V30 3886 C 377.149 3.08125 -1.4111 0
M  V30 3887 C 376.322 3.46757 -2.66605 0
M  V30 3888 C 375.381 4.6417 -2.47855 0
M  V30 3889 O 374.407 4.69634 -3.21609 0
M  V30 3890 N 375.609 5.59553 -1.54534 0
M  V30 3891 H 378.374 1.64077 -2.50796 0
M  V30 3892 H 375.935 0.761 -1.429 0
M  V30 3893 H 377.927 3.84478 -1.26328 0
M  V30 3894 H 376.497 3.08175 -0.524109 0
M  V30 3895 H 375.717 2.6003 -2.96274 0
M  V30 3896 H 377.005 3.69337 -3.49954 0
M  V30 3897 H 376.403 5.57881 -0.937304 0
M  V30 3898 H 374.96 6.35304 -1.45711 0
M  V30 3899 N 378.394 1.34581 0.820102 0
M  V30 3900 C 379.324 1.29038 1.94606 0
M  V30 3901 C 380.305 0.1673 1.69275 0
M  V30 3902 O 381.49 0.360112 1.90832 0
M  V30 3903 C 378.62 1.04793 3.31113 0
M  V30 3904 C 377.574 2.13597 3.70891 0
M  V30 3905 C 376.9 1.74537 5.05412 0
M  V30 3906 C 378.2 3.55451 3.8269 0
M  V30 3907 H 379.894 2.23248 1.99501 0
M  V30 3908 H 377.44 1.0747 0.958449 0
M  V30 3909 H 379.393 0.995592 4.0947 0
M  V30 3910 H 378.117 0.0702565 3.26524 0
M  V30 3911 H 376.776 2.17905 2.9481 0
M  V30 3912 H 376.424 0.754226 4.97313 0
M  V30 3913 H 376.124 2.47361 5.32997 0
M  V30 3914 H 377.648 1.70803 5.86224 0
M  V30 3915 H 379.062 3.5354 4.51312 0
M  V30 3916 H 377.459 4.26922 4.21732 0
M  V30 3917 H 378.529 3.92587 2.84611 0
M  V30 3918 N 379.872 -1.04064 1.18357 0
M  V30 3919 C 381.12 -1.76915 0.977013 0
M  V30 3920 C 381.441 -1.88624 -0.494577 0
M  V30 3921 O 380.711 -1.41125 -1.3587 0
M  V30 3922 H 379.291 -0.65535 0.358504 0
M  V30 3923 H 381.953 -1.25592 1.49039 0
M  V30 3924 H 381.049 -2.78178 1.41504 0
M  V30 3925 N 381.35 -0.985608 -1.22978 0
M  V30 3926 C 382.297 -0.529825 -2.24636 0
M  V30 3927 C 383.267 0.434028 -1.60329 0
M  V30 3928 O 384.452 0.340414 -1.87739 0
M  V30 3929 C 381.592 0.156533 -3.44745 0
M  V30 3930 C 380.705 -0.848197 -4.23591 0
M  V30 3931 C 379.84 -0.136109 -5.31026 0
M  V30 3932 C 378.879 -1.1297 -6.01585 0
M  V30 3933 N 378.016 -0.446415 -7.00679 0
M  V30 3934 H 382.856 -1.40148 -2.62988 0
M  V30 3935 H 380.393 -0.702168 -1.29259 0
M  V30 3936 H 382.351 0.571324 -4.1327 0
M  V30 3937 H 380.981 0.992025 -3.07179 0
M  V30 3938 H 380.033 -1.38135 -3.54433 0
M  V30 3939 H 381.345 -1.60512 -4.72268 0
M  V30 3940 H 380.499 0.335784 -6.0577 0
M  V30 3941 H 379.238 0.653373 -4.83304 0
M  V30 3942 H 378.243 -1.6123 -5.25628 0
M  V30 3943 H 379.468 -1.91993 -6.51395 0
M  V30 3944 H 377.414 0.323763 -6.55201 0
M  V30 3945 H 377.331 -1.1419 -7.47326 0
M  V30 3946 H 378.599 0.00291697 -7.795 0
M  V30 3947 N 382.828 1.3818 -0.7579 0
M  V30 3948 C 384.239 1.82726 -0.383134 0
M  V30 3949 C 384.59 1.63214 1.08884 0
M  V30 3950 O 383.715 1.13566 1.84205 0
M  V30 3951 C 384.31 3.31728 -0.688631 0
M  V30 3952 C 382.869 3.74606 -0.367091 0
M  V30 3953 C 382.016 2.60896 -0.939599 0
M  V30 3954 H 384.967 1.26847 -0.953699 0
M  V30 3955 H 384.988 3.80487 0.0316492 0
M  V30 3956 H 384.5 3.45898 -1.76001 0
M  V30 3957 H 382.601 3.66013 0.697532 0
M  V30 3958 H 382.714 4.71215 -0.865658 0
M  V30 3959 H 381.078 2.52075 -0.3647 0
M  V30 3960 H 381.861 2.77864 -2.0161 0
M  V30 3961 N 384.306 0.507319 1.49211 0
M  V30 3962 C 385.552 -0.0350047 2.0277 0
M  V30 3963 C 385.885 -1.3606 1.38569 0
M  V30 3964 O 385.16 -1.87321 0.523542 0
M  V30 3965 C 385.443 -0.180916 3.59645 0
M  V30 3966 C 385.296 1.16825 4.34364 0
M  V30 3967 C 386.615 -0.918558 4.30407 0
M  V30 3968 H 383.734 -0.0112473 0.736914 0
M  V30 3969 H 386.376 0.659956 1.7817 0
M  V30 3970 H 384.526 -0.772826 3.80736 0
M  V30 3971 H 386.198 1.79952 4.24753 0
M  V30 3972 H 384.441 1.75594 3.96673 0
M  V30 3973 H 385.112 1.01939 5.42506 0
M  V30 3974 H 387.588 -0.41649 4.1401 0
M  V30 3975 H 386.464 -0.989505 5.39907 0
M  V30 3976 H 386.725 -1.96373 3.96093 0
M  V30 3977 N 385.784 -1.5574 0.241426 0
M  V30 3978 C 387.2 -1.59196 -0.113548 0
M  V30 3979 C 387.4 -1.25852 -1.57364 0
M  V30 3980 O 386.456 -1.00322 -2.31715 0
M  V30 3981 C 387.769 -2.99814 0.230695 0
M  V30 3982 C 389.317 -3.12513 0.174547 0
M  V30 3983 C 389.792 -4.55342 0.492744 0
M  V30 3984 N 391.283 -4.61076 0.443043 0
M  V30 3985 C 392.018 -5.6956 0.662484 0
M  V30 3986 N 391.514 -6.86328 0.944761 0
M  V30 3987 N 393.307 -5.58957 0.593564 0
M  V30 3988 H 385.458 -1.75685 1.19368 0
M  V30 3989 H 387.721 -0.81756 0.479896 0
M  V30 3990 H 387.427 -3.28932 1.24485 0
M  V30 3991 H 387.301 -3.74568 -0.444833 0
M  V30 3992 H 389.688 -2.83179 -0.830277 0
M  V30 3993 H 389.769 -2.40045 0.883845 0
M  V30 3994 H 389.413 -4.85396 1.4951 0
M  V30 3995 H 389.343 -5.26062 -0.23797 0
M  V30 3996 H 391.834 -3.77179 0.233374 0
M  V30 3997 H 392.147 -7.64935 1.09977 0
M  V30 3998 H 390.492 -6.88025 0.982175 0
M  V30 3999 H 393.683 -4.66611 0.373123 0
M  V30 4000 H 393.856 -6.43433 0.767981 0
M  V30 4001 N 387.262 0.0317525 -1.57568 0
M  V30 4002 C 388.502 0.727979 -1.90997 0
M  V30 4003 C 388.866 1.72664 -0.839708 0
M  V30 4004 O 390.067 2.47092 -1.05825 0
M  V30 4005 C 388.338 1.38239 -3.29583 0
M  V30 4006 S 389.897 2.10814 -3.84841 0
M  V30 4007 H 386.715 0.241226 -0.668828 0
M  V30 4008 H 389.317 -0.0173037 -1.95492 0
M  V30 4009 H 388.021 0.642288 -4.05343 0
M  V30 4010 H 387.552 2.16628 -3.28384 0
M  V30 4011 H 389.567 3.3792 -3.63352 0
M  V30 4012 N 388.74 1.54641 0.303973 0
M  V30 4013 C 389.989 1.7299 1.03717 0
M  V30 4014 C 390.302 0.521168 1.88529 0
M  V30 4015 O 391.508 0.586408 2.65092 0
M  V30 4016 C 389.964 3.06051 1.89369 0
M  V30 4017 C 389.572 4.34393 1.09574 0
M  V30 4018 C 391.316 3.3376 2.62306 0
M  V30 4019 C 389.223 5.58506 1.94486 0
M  V30 4020 H 388.153 0.64473 0.390947 0
M  V30 4021 H 390.804 1.81124 0.294328 0
M  V30 4022 H 389.186 2.91874 2.67629 0
M  V30 4023 H 390.36 4.59396 0.359485 0
M  V30 4024 H 388.675 4.13597 0.482324 0
M  V30 4025 H 391.272 4.23687 3.26181 0
M  V30 4026 H 391.615 2.52503 3.3098 0
M  V30 4027 H 392.148 3.48894 1.91097 0
M  V30 4028 H 388.887 6.42422 1.30287 0
M  V30 4029 H 388.407 5.37694 2.65792 0
M  V30 4030 H 390.086 5.95651 2.52605 0
M  V30 4031 N 390.218 -0.567019 1.47046 0
M  V30 4032 C 391.168 -1.67018 1.55207 0
M  V30 4033 C 392.152 -1.55543 0.411714 0
M  V30 4034 O 393.344 -1.64192 0.661064 0
M  V30 4035 C 390.473 -3.05801 1.56014 0
M  V30 4036 C 389.559 -3.22515 2.75399 0
M  V30 4037 N 389.95 -3.09329 4.00186 0
M  V30 4038 C 388.248 -3.53493 2.71954 0
M  V30 4039 C 388.949 -3.2847 4.80086 0
M  V30 4040 N 387.925 -3.54352 4.12233 0
M  V30 4041 H 391.727 -1.55377 2.4947 0
M  V30 4042 H 389.241 -0.771503 1.42904 0
M  V30 4043 H 391.238 -3.84996 1.59949 0
M  V30 4044 H 389.898 -3.18561 0.628396 0
M  V30 4045 H 390.909 -2.86863 4.31196 0
M  V30 4046 H 387.586 -3.7284 1.87873 0
M  V30 4047 H 388.976 -3.23326 5.88991 0
M  V30 4048 N 391.696 -1.35014 -0.812953 0
M  V30 4049 C 392.942 -1.29129 -1.57154 0
M  V30 4050 C 393.297 0.134922 -1.91926 0
M  V30 4051 O 392.59 1.08373 -1.58006 0
M  V30 4052 C 392.784 -2.12524 -2.87347 0
M  V30 4053 C 392.613 -3.6311 -2.65294 0
M  V30 4054 C 391.383 -4.32363 -2.61516 0
M  V30 4055 C 393.581 -4.56897 -2.36114 0
M  V30 4056 N 391.563 -5.68735 -2.31113 0
M  V30 4057 C 392.934 -5.81345 -2.15494 0
M  V30 4058 C 394.989 -4.45706 -2.21925 0
M  V30 4059 C 393.692 -6.95862 -1.82122 0
M  V30 4060 C 395.718 -5.60066 -1.89948 0
M  V30 4061 C 395.08 -6.83539 -1.7016 0
M  V30 4062 H 391.179 -0.527764 -0.577052 0
M  V30 4063 H 393.763 -1.6983 -0.952146 0
M  V30 4064 H 391.934 -1.74104 -3.47192 0
M  V30 4065 H 393.666 -1.98207 -3.5284 0
M  V30 4066 H 390.421 -3.84907 -2.75941 0
M  V30 4067 H 390.845 -6.40694 -2.18724 0
M  V30 4068 H 395.487 -3.50855 -2.35925 0
M  V30 4069 H 393.205 -7.90685 -1.6686 0
M  V30 4070 H 396.791 -5.53357 -1.79687 0
M  V30 4071 H 395.671 -7.70531 -1.45777 0
M  V30 4072 N 393.175 1.03435 -1.18907 0
M  V30 4073 C 394.452 1.73778 -0.89781 0
M  V30 4074 C 394.832 2.02458 0.597832 0
M  V30 4075 O 394.18 1.67482 1.55441 0
M  V30 4076 C 394.39 3.01845 -1.75187 0
M  V30 4077 C 395.738 3.7546 -1.9828 0
M  V30 4078 O 396.762 3.11759 -1.72293 0
M  V30 4079 O 395.621 4.89966 -2.42065 0
M  V30 4080 H 392.715 0.75651 -0.334098 0
M  V30 4081 H 395.261 1.09444 -1.29693 0
M  V30 4082 H 394.033 2.76836 -2.76545 0
M  V30 4083 H 393.656 3.73919 -1.35167 0
M  V30 4084 N 394.653 0.992116 1.22453 0
M  V30 4085 C 395.585 0.500024 2.23679 0
M  V30 4086 C 396.598 -0.404463 1.57696 0
M  V30 4087 O 397.787 -0.206722 1.77299 0
M  V30 4088 C 394.887 -0.294711 3.37616 0
M  V30 4089 C 394.06 0.605723 4.33186 0
M  V30 4090 C 393.119 -0.13717 5.26021 0
M  V30 4091 O 392.145 0.477164 5.67196 0
M  V30 4092 N 393.347 -1.4197 5.62872 0
M  V30 4093 H 396.112 1.37045 2.66531 0
M  V30 4094 H 393.673 0.866741 1.36745 0
M  V30 4095 H 395.665 -0.800329 3.96707 0
M  V30 4096 H 394.235 -1.06623 2.93854 0
M  V30 4097 H 393.455 1.29202 3.72425 0
M  V30 4098 H 394.743 1.21896 4.93983 0
M  V30 4099 H 394.141 -1.94015 5.31389 0
M  V30 4100 H 392.698 -1.87052 6.24383 0
M  V30 4101 N 396.131 -1.37776 0.765217 0
M  V30 4102 C 397.094 -2.28686 0.153416 0
M  V30 4103 C 398.094 -1.47727 -0.635081 0
M  V30 4104 O 399.284 -1.68027 -0.459632 0
M  V30 4105 C 396.416 -3.31608 -0.790495 0
M  V30 4106 H 397.609 -2.84297 0.954723 0
M  V30 4107 H 395.162 -1.46932 0.53299 0
M  V30 4108 H 395.897 -2.81109 -1.61705 0
M  V30 4109 H 395.682 -3.9144 -0.227348 0
M  V30 4110 H 397.172 -3.99559 -1.21419 0
M  V30 4111 N 397.609 -0.515225 -1.4894 0
M  V30 4112 C 398.834 0.022727 -2.07388 0
M  V30 4113 C 399.259 1.2876 -1.37122 0
M  V30 4114 O 398.617 1.76067 -0.432431 0
M  V30 4115 C 398.665 0.244869 -3.59768 0
M  V30 4116 O 397.769 1.31667 -3.90817 0
M  V30 4117 H 397.11 -0.0325506 -0.663202 0
M  V30 4118 H 399.64 -0.718918 -1.91553 0
M  V30 4119 H 399.65 0.47205 -4.0526 0
M  V30 4120 H 398.325 -0.679194 -4.10317 0
M  V30 4121 H 396.902 1.07331 -3.5712 0
M  V30 4122 N 399.087 1.5561 -0.249682 0
M  V30 4123 C 400.05 2.20217 0.635394 0
M  V30 4124 C 401.05 1.17227 1.10066 0
M  V30 4125 O 402.24 1.42292 1.00492 0
M  V30 4126 C 399.372 2.84794 1.87363 0
M  V30 4127 H 400.565 2.99814 0.0716752 0
M  V30 4128 H 398.118 1.563 -0.000153234 0
M  V30 4129 H 398.853 2.09142 2.47851 0
M  V30 4130 H 398.638 3.60241 1.5482 0
M  V30 4131 H 400.128 3.3423 2.5036 0
M  V30 4132 N 400.565 -0.0233959 1.57583 0
M  V30 4133 C 401.981 -0.379134 1.55031 0
M  V30 4134 C 402.181 -1.76255 0.976548 0
M  V30 4135 O 401.237 -2.45266 0.600078 0
M  V30 4136 C 402.55 -0.275792 2.99433 0
M  V30 4137 C 404.098 -0.352458 3.11009 0
M  V30 4138 C 404.573 -0.278501 4.57152 0
M  V30 4139 N 406.064 -0.337123 4.61972 0
M  V30 4140 C 406.799 -0.302876 5.726 0
M  V30 4141 N 406.295 -0.220589 6.92449 0
M  V30 4142 N 408.088 -0.353023 5.6099 0
M  V30 4143 H 400.239 0.881869 1.93227 0
M  V30 4144 H 402.502 0.335867 0.886509 0
M  V30 4145 H 402.208 0.675108 3.4516 0
M  V30 4146 H 402.082 -1.06721 3.61788 0
M  V30 4147 H 404.469 -1.29379 2.65226 0
M  V30 4148 H 404.55 0.468409 2.51475 0
M  V30 4149 H 404.194 0.659189 5.03604 0
M  V30 4150 H 404.124 -1.11755 5.14605 0
M  V30 4151 H 406.615 -0.403002 3.75745 0
M  V30 4152 H 406.928 -0.199713 7.72542 0
M  V30 4153 H 405.273 -0.186555 6.9475 0
M  V30 4154 H 408.464 -0.415339 4.66254 0
M  V30 4155 H 408.637 -0.322866 6.47195 0
M  V30 4156 N 402.043 -1.548 -0.295768 0
M  V30 4157 C 403.454 -1.65274 -0.868411 0
M  V30 4158 C 403.805 -0.56481 -1.87894 0
M  V30 4159 O 402.93 0.29767 -2.14343 0
M  V30 4160 C 403.525 -2.99603 -1.58188 0
M  V30 4161 C 402.084 -3.12181 -2.10286 0
M  V30 4162 C 401.231 -2.6098 -0.93727 0
M  V30 4163 H 404.182 -1.58534 -0.0726422 0
M  V30 4164 H 404.203 -2.91319 -2.44772 0
M  V30 4165 H 403.715 -3.78764 -0.846151 0
M  V30 4166 H 401.816 -2.3775 -2.8689 0
M  V30 4167 H 401.929 -4.18415 -2.33379 0
M  V30 4168 H 400.293 -2.17564 -1.32431 0
M  V30 4169 H 401.076 -3.42623 -0.215414 0
M  V30 4170 N 403.521 0.559213 -1.47345 0
M  V30 4171 C 404.937 0.884943 -1.32819 0
M  V30 4172 C 405.137 1.98988 -0.317173 0
M  V30 4173 O 404.193 2.51031 0.272011 0
M  V30 4174 C 405.506 1.28007 -2.72093 0
M  V30 4175 C 407.054 1.39161 -2.80363 0
M  V30 4176 C 407.529 1.82031 -4.20272 0
M  V30 4177 N 409.02 1.89185 -4.22804 0
M  V30 4178 C 409.755 2.2368 -5.27973 0
M  V30 4179 N 409.251 2.56802 -6.43447 0
M  V30 4180 N 411.044 2.24436 -5.15349 0
M  V30 4181 H 403.195 -0.170304 -2.11716 0
M  V30 4182 H 405.458 -0.0135247 -0.947904 0
M  V30 4183 H 405.164 0.542027 -3.47498 0
M  V30 4184 H 405.038 2.23665 -3.03733 0
M  V30 4185 H 407.425 2.12048 -2.05231 0
M  V30 4186 H 407.506 0.41696 -2.52379 0
M  V30 4187 H 407.15 1.09715 -4.95908 0
M  V30 4188 H 407.08 2.80495 -4.45679 0
M  V30 4189 H 409.571 1.65982 -3.39497 0
M  V30 4190 H 409.884 2.82144 -7.19454 0
M  V30 4191 H 408.229 2.54387 -6.46771 0
M  V30 4192 H 411.42 1.97998 -4.24163 0
M  V30 4193 H 411.593 2.50989 -5.97418 0
M  V30 4194 N 404.999 1.35443 0.805782 0
M  V30 4195 C 406.247 1.28507 1.55982 0
M  V30 4196 C 406.568 -0.140046 1.94496 0
M  V30 4197 O 405.838 -1.07666 1.63661 0
M  V30 4198 H 404.418 0.472676 0.578434 0
M  V30 4199 H 407.08 1.69555 0.961098 0
M  V30 4200 H 406.176 1.90148 2.47488 0
M  V30 4201 N 406.477 -1.02803 1.19454 0
M  V30 4202 C 407.888 -1.57667 0.999899 0
M  V30 4203 C 408.239 -1.91041 -0.446956 0
M  V30 4204 O 407.364 -1.70978 -1.32648 0
M  V30 4205 C 407.959 -2.86477 1.80877 0
M  V30 4206 C 406.518 -3.37911 1.65811 0
M  V30 4207 C 405.665 -2.11343 1.79526 0
M  V30 4208 H 408.616 -0.853214 1.33813 0
M  V30 4209 H 408.637 -3.57408 1.30536 0
M  V30 4210 H 408.149 -2.62155 2.86175 0
M  V30 4211 H 406.25 -3.67218 0.63102 0
M  V30 4212 H 406.363 -4.10885 2.46395 0
M  V30 4213 H 404.727 -2.23254 1.22596 0
M  V30 4214 H 405.51 -1.89461 2.86285 0
M  V30 4215 N 407.956 -0.998596 -1.21925 0
M  V30 4216 C 408.866 -0.562736 -2.27751 0
M  V30 4217 C 409.882 0.391203 -1.69545 0
M  V30 4218 O 411.058 0.256625 -1.99758 0
M  V30 4219 C 408.123 0.11012 -3.46525 0
M  V30 4220 C 407.184 -0.887495 -4.20026 0
M  V30 4221 C 406.417 -0.246654 -5.3313 0
M  V30 4222 O 406.64 0.958088 -5.62296 0
M  V30 4223 O 405.574 -0.954374 -5.94286 0
M  V30 4224 H 409.4 -1.44329 -2.67213 0
M  V30 4225 H 406.985 -0.767135 -1.28201 0
M  V30 4226 H 408.867 0.486756 -4.18579 0
M  V30 4227 H 407.542 0.965154 -3.08976 0
M  V30 4228 H 406.449 -1.31517 -3.5022 0
M  V30 4229 H 407.782 -1.71191 -4.6147 0
M  V30 4230 N 409.434 1.37368 -0.772513 0
M  V30 4231 C 410.683 1.98918 -0.333861 0
M  V30 4232 C 410.996 1.62017 1.09589 0
M  V30 4233 O 412.202 2.16676 1.63596 0
M  V30 4234 C 410.658 3.55735 -0.545971 0
M  V30 4235 C 410.266 4.01573 -1.98603 0
M  V30 4236 C 412.01 4.24156 -0.170979 0
M  V30 4237 C 409.917 5.51102 -2.1457 0
M  V30 4238 H 408.847 0.744214 -0.121085 0
M  V30 4239 H 411.498 1.56888 -0.95175 0
M  V30 4240 H 409.88 3.95748 0.141387 0
M  V30 4241 H 411.054 3.72803 -2.7084 0
M  V30 4242 H 409.369 3.45937 -2.31769 0
M  V30 4243 H 411.966 5.34024 -0.26878 0
M  V30 4244 H 412.309 4.06917 0.878855 0
M  V30 4245 H 412.842 3.89447 -0.810914 0
M  V30 4246 H 409.581 5.73268 -3.17875 0
M  V30 4247 H 409.101 5.81554 -1.46817 0
M  V30 4248 H 410.78 6.17083 -1.94468 0
M  V30 4249 N 410.912 0.523116 1.48665 0
M  V30 4250 C 411.822 -0.247406 2.33292 0
M  V30 4251 C 412.838 -0.945769 1.46052 0
M  V30 4252 O 414.014 -0.922253 1.79043 0
M  V30 4253 C 411.079 -1.28487 3.22012 0
M  V30 4254 C 410.14 -0.597592 4.2512 0
M  V30 4255 C 409.373 -1.58563 5.09601 0
M  V30 4256 O 409.596 -2.81763 4.95949 0
M  V30 4257 O 408.53 -1.12879 5.91221 0
M  V30 4258 H 412.356 0.445869 3.00409 0
M  V30 4259 H 409.941 0.284128 1.46673 0
M  V30 4260 H 411.823 -1.88459 3.7691 0
M  V30 4261 H 410.498 -1.96068 2.57564 0
M  V30 4262 H 409.405 0.0424407 3.74076 0
M  V30 4263 H 410.738 0.0361517 4.92187 0
M  V30 4264 N 412.39 -1.55475 0.257931 0
M  V30 4265 C 413.801 -1.8511 -0.243135 0
M  V30 4266 C 414.152 -1.17986 -1.5676 0
M  V30 4267 O 413.277 -0.462102 -2.11409 0
M  V30 4268 C 413.872 -3.35826 -0.447929 0
M  V30 4269 C 412.431 -3.65647 -0.893245 0
M  V30 4270 C 411.578 -2.7729 0.0232965 0
M  V30 4271 H 414.529 -1.51261 0.480199 0
M  V30 4272 H 414.55 -3.58002 -1.28898 0
M  V30 4273 H 414.062 -3.84652 0.516196 0
M  V30 4274 H 412.163 -3.22308 -1.86945 0
M  V30 4275 H 412.276 -4.73312 -0.742469 0
M  V30 4276 H 410.64 -2.49942 -0.490021 0
M  V30 4277 H 411.423 -3.28926 0.982994 0
M  V30 4278 N 413.868 0.0150385 -1.57593 0
M  V30 4279 C 415.284 0.370907 -1.5523 0
M  V30 4280 C 415.484 1.75735 -0.985882 0
M  V30 4281 O 414.54 2.44944 -0.613077 0
M  V30 4282 C 415.853 0.259908 -2.99575 0
M  V30 4283 C 417.401 0.335959 -3.11192 0
M  V30 4284 C 417.876 0.254253 -4.57294 0
M  V30 4285 N 419.367 0.312618 -4.62144 0
M  V30 4286 C 420.102 0.272505 -5.72752 0
M  V30 4287 N 419.598 0.183864 -6.92556 0
M  V30 4288 N 421.391 0.323267 -5.6117 0
M  V30 4289 H 413.542 -0.892104 -1.92757 0
M  V30 4290 H 415.805 -0.340563 -0.884715 0
M  V30 4291 H 415.511 -0.693403 -3.44797 0
M  V30 4292 H 415.385 1.048 -3.62349 0
M  V30 4293 H 417.772 1.27971 -2.65909 0
M  V30 4294 H 417.853 -0.481739 -2.51223 0
M  V30 4295 H 417.497 -0.685887 -5.03247 0
M  V30 4296 H 417.427 1.09024 -5.15191 0
M  V30 4297 H 419.918 0.38307 -3.75953 0
M  V30 4298 H 420.231 0.15874 -7.72637 0
M  V30 4299 H 418.576 0.149708 -6.94839 0
M  V30 4300 H 421.767 0.390607 -4.66467 0
M  V30 4301 H 421.94 0.288539 -6.47357 0
M  V30 4302 N 415.346 1.54954 0.287554 0
M  V30 4303 C 416.594 1.74528 1.01904 0
M  V30 4304 C 416.915 0.541349 1.87335 0
M  V30 4305 O 416.185 -0.444108 1.908 0
M  V30 4306 H 414.765 0.643576 0.379235 0
M  V30 4307 H 417.427 1.92333 0.315294 0
M  V30 4308 H 416.523 2.64015 1.6644 0
M  V30 4309 N 416.824 -0.551391 1.4764 0
M  V30 4310 C 417.734 -1.68525 1.63207 0
M  V30 4311 C 418.75 -1.6621 0.514815 0
M  V30 4312 O 419.926 -1.85551 0.783113 0
M  V30 4313 C 416.991 -3.05025 1.64805 0
M  V30 4314 C 416.052 -3.18362 2.88 0
M  V30 4315 C 415.285 -4.4835 2.89513 0
M  V30 4316 O 415.508 -5.34163 2.00065 0
M  V30 4317 O 414.442 -4.65602 3.81443 0
M  V30 4318 H 418.268 -1.58333 2.59161 0
M  V30 4319 H 415.853 -0.722063 1.30792 0
M  V30 4320 H 417.735 -3.86245 1.68502 0
M  V30 4321 H 416.41 -3.15587 0.720197 0
M  V30 4322 H 415.317 -2.36518 2.89845 0
M  V30 4323 H 416.65 -3.12707 3.80099 0
M  V30 4324 N 418.302 -1.35869 -0.798587 0
M  V30 4325 C 419.55 -1.29332 -1.55298 0
M  V30 4326 C 419.871 0.129729 -1.94568 0
M  V30 4327 O 419.141 1.06796 -1.6423 0
M  V30 4328 H 417.721 -0.475737 -0.57592 0
M  V30 4329 H 420.383 -1.70062 -0.952093 0
M  V30 4330 H 419.479 -1.91458 -2.46476 0
M  V30 4331 N 419.78 1.02168 -1.19998 0
M  V30 4332 C 421.057 1.72816 -0.916191 0
M  V30 4333 C 421.437 2.03081 0.576325 0
M  V30 4334 O 420.785 1.69122 1.53656 0
M  V30 4335 C 420.995 2.9997 -1.78378 0
M  V30 4336 C 422.343 3.73336 -2.02251 0
M  V30 4337 O 423.367 3.09914 -1.75589 0
M  V30 4338 O 422.226 4.87371 -2.47249 0
M  V30 4339 H 419.32 0.752924 -0.342103 0
M  V30 4340 H 421.866 1.08062 -1.30846 0
M  V30 4341 H 420.638 2.73888 -2.79466 0
M  V30 4342 H 420.261 3.72464 -1.39126 0
M  V30 4343 N 421.258 1.00505 1.21394 0
M  V30 4344 C 422.208 0.536503 2.21598 0
M  V30 4345 C 423.192 -0.401914 1.55799 0
M  V30 4346 O 424.384 -0.226757 1.75541 0
M  V30 4347 C 421.513 -0.135446 3.43033 0
M  V30 4348 C 420.599 0.823992 4.16018 0
M  V30 4349 N 420.99 1.97683 4.6557 0
M  V30 4350 C 419.288 0.642387 4.4135 0
M  V30 4351 C 419.989 2.58003 5.21354 0
M  V30 4352 N 418.965 1.86162 5.1073 0
M  V30 4353 H 422.767 1.41557 2.57563 0
M  V30 4354 H 420.281 0.868878 1.37202 0
M  V30 4355 H 422.278 -0.488584 4.14027 0
M  V30 4356 H 420.938 -1.01049 3.08576 0
M  V30 4357 H 421.949 2.3572 4.61147 0
M  V30 4358 H 418.626 -0.185578 4.17087 0
M  V30 4359 H 420.016 3.555 5.70149 0
M  V30 4360 N 422.737 -1.36956 0.779787 0
M  V30 4361 C 423.685 -2.32053 0.15942 0
M  V30 4362 C 424.679 -1.55333 -0.675878 0
M  V30 4363 O 425.885 -1.70668 -0.57204 0
M  V30 4364 H 422.26 -0.751286 0.0327707 0
M  V30 4365 H 424.231 -2.8195 0.977078 0
M  V30 4366 C 422.98 -3.40602 -0.698977 0
M  V30 4367 H 422.303 -3.99746 -0.0655966 0
M  V30 4368 H 423.743 -4.09486 -1.09989 0
M  V30 4369 C 422.202 -2.81359 -1.85307 0
M  V30 4370 O 422.732 -2.72751 -2.94906 0
M  V30 4371 N 420.938 -2.38786 -1.65619 0
M  V30 4372 H 420.485 -2.45987 -0.764725 0
M  V30 4373 H 420.443 -1.99493 -2.43002 0
M  V30 4374 N 424.215 -0.530993 -1.48385 0
M  V30 4375 C 425.165 0.251092 -2.26613 0
M  V30 4376 C 426.149 0.908977 -1.32765 0
M  V30 4377 O 427.341 0.811616 -1.57295 0
M  V30 4378 C 424.47 1.29677 -3.17866 0
M  V30 4379 C 423.556 0.643627 -4.19188 0
M  V30 4380 N 423.947 -0.271223 -5.05072 0
M  V30 4381 C 422.245 0.900711 -4.3681 0
M  V30 4382 C 422.946 -0.648109 -5.78078 0
M  V30 4383 N 421.922 -0.00895987 -5.43599 0
M  V30 4384 H 425.724 -0.452702 -2.90393 0
M  V30 4385 H 423.238 -0.349091 -1.58604 0
M  V30 4386 H 425.235 1.87079 -3.72568 0
M  V30 4387 H 423.895 2.00193 -2.55642 0
M  V30 4388 H 424.906 -0.643883 -5.13882 0
M  V30 4389 H 421.583 1.59636 -3.85775 0
M  V30 4390 H 422.973 -1.39833 -6.57188 0
M  V30 4391 N 425.693 1.55336 -0.266172 0
M  V30 4392 C 426.97 1.91372 0.404486 0
M  V30 4393 C 427.35 1.18935 1.74407 0
M  V30 4394 O 426.698 0.3132 2.26343 0
M  V30 4395 C 426.908 3.44581 0.553593 0
M  V30 4396 C 428.256 4.16196 0.840618 0
M  V30 4397 O 429.28 3.50426 0.638739 0
M  V30 4398 O 428.139 5.32567 1.22618 0
M  V30 4399 H 425.233 0.797194 0.220025 0
M  V30 4400 H 427.779 1.66813 -0.311664 0
M  V30 4401 H 426.551 3.89357 -0.389498 0
M  V30 4402 H 426.174 3.75065 1.31955 0
M  V30 4403 N 427.171 -0.0066808 1.57599 0
M  V30 4404 C 428.399 -0.704087 1.94551 0
M  V30 4405 C 428.814 -1.67677 0.867746 0
M  V30 4406 O 428.171 -1.8185 -0.153925 0
M  V30 4407 C 428.222 -1.44177 3.31505 0
M  V30 4408 O 427.943 -0.508097 4.35144 0
M  V30 4409 C 429.444 -2.23429 3.82876 0
M  V30 4410 H 426.664 -0.196523 0.641576 0
M  V30 4411 H 429.208 0.042453 2.04456 0
M  V30 4412 H 427.363 -2.13999 3.22929 0
M  V30 4413 H 427.777 -1.02782 5.14331 0
M  V30 4414 H 429.251 -2.70552 4.8115 0
M  V30 4415 H 429.728 -3.05818 3.15233 0
M  V30 4416 H 430.334 -1.58636 3.94607 0
M  V30 4417 N 428.649 -1.55105 -0.279332 0
M  V30 4418 C 429.897 -1.75066 -1.00977 0
M  V30 4419 C 430.218 -0.551276 -1.87045 0
M  V30 4420 O 429.488 0.433984 -1.91032 0
M  V30 4421 H 428.068 -0.645578 -0.375816 0
M  V30 4422 H 430.73 -1.92497 -0.305089 0
M  V30 4423 H 429.826 -2.64894 -1.65038 0
M  V30 4424 N 430.127 0.543554 -1.4793 0
M  V30 4425 C 431.037 1.67657 -1.64098 0
M  V30 4426 C 432.053 1.65934 -0.523622 0
M  V30 4427 O 433.229 1.85133 -0.792943 0
M  V30 4428 C 430.294 3.04146 -1.66421 0
M  V30 4429 C 429.355 3.16831 -2.89684 0
M  V30 4430 C 428.588 4.46809 -2.91886 0
M  V30 4431 O 428.811 5.33095 -2.02895 0
M  V30 4432 O 427.745 4.63573 -3.83906 0
M  V30 4433 H 431.571 1.56957 -2.59997 0
M  V30 4434 H 429.156 0.715116 -1.31173 0
M  V30 4435 H 431.038 3.85346 -1.70548 0
M  V30 4436 H 429.713 3.152 -0.736923 0
M  V30 4437 H 428.62 2.34977 -2.91095 0
M  V30 4438 H 429.953 3.10687 -3.81752 0
M  V30 4439 N 431.605 1.3629 0.791371 0
M  V30 4440 C 432.853 1.30154 1.5461 0
M  V30 4441 C 433.174 -0.119409 1.94634 0
M  V30 4442 O 432.444 -1.05924 1.64794 0
M  V30 4443 H 431.024 0.478784 0.573389 0
M  V30 4444 H 433.686 1.70565 0.94306 0
M  V30 4445 H 432.782 1.92762 2.45457 0
M  V30 4446 N 433.083 -1.0153 1.20538 0
M  V30 4447 C 434.331 -1.74803 1.01432 0
M  V30 4448 C 434.652 -1.8963 -0.454456 0
M  V30 4449 O 433.922 -1.43975 -1.32846 0
M  V30 4450 H 432.502 -0.647598 0.372324 0
M  V30 4451 H 435.164 -1.22402 1.5167 0
M  V30 4452 H 434.26 -2.75114 1.47373 0
M  V30 4453 N 434.561 -1.01147 -1.20859 0
M  V30 4454 C 435.493 -0.535546 -2.22855 0
M  V30 4455 C 436.506 0.379323 -1.58319 0
M  V30 4456 O 437.695 0.178489 -1.77605 0
M  V30 4457 C 434.795 0.240962 -3.38042 0
M  V30 4458 C 433.968 -0.674562 -4.32167 0
M  V30 4459 C 433.027 0.053467 -5.26173 0
M  V30 4460 O 432.053 -0.567339 -5.66366 0
M  V30 4461 N 433.255 1.32997 -5.65059 0
M  V30 4462 H 436.02 -1.41268 -2.64317 0
M  V30 4463 H 433.581 -0.888386 -1.35349 0
M  V30 4464 H 435.573 0.737115 -3.97931 0
M  V30 4465 H 434.143 1.01935 -2.95513 0
M  V30 4466 H 433.363 -1.35111 -3.70322 0
M  V30 4467 H 434.651 -1.2974 -4.91981 0
M  V30 4468 H 434.049 1.85536 -5.34409 0
M  V30 4469 H 432.606 1.77095 -6.2728 0
M  V30 4470 N 436.039 1.36541 -0.78704 0
M  V30 4471 C 437.287 1.98911 -0.357633 0
M  V30 4472 C 437.608 1.62778 1.07371 0
M  V30 4473 O 436.878 0.900612 1.73971 0
M  V30 4474 H 435.458 0.735734 -0.129246 0
M  V30 4475 H 438.12 1.66776 -1.00855 0
M  V30 4476 H 437.216 3.08874 -0.447549 0
M  V30 4477 N 437.518 0.538854 1.48102 0
M  V30 4478 C 438.766 0.00798599 2.02098 0
M  V30 4479 C 439.087 -1.33922 1.41739 0
M  V30 4480 O 438.357 -1.86932 0.585934 0
M  V30 4481 H 436.937 -3.62179e-05 0.747 0
M  V30 4482 H 439.599 0.7047 1.81714 0
M  V30 4483 H 438.695 -0.0937672 3.11959 0
M  V30 4484 N 438.996 -1.55193 0.274407 0
M  V30 4485 C 439.906 -2.26164 -0.623473 0
M  V30 4486 C 440.922 -1.28729 -1.17068 0
M  V30 4487 O 442.098 -1.61663 -1.20112 0
M  V30 4488 C 439.163 -2.96833 -1.7914 0
M  V30 4489 C 438.224 -4.09745 -1.28093 0
M  V30 4490 C 437.457 -4.77034 -2.3932 0
M  V30 4491 O 437.68 -4.4353 -3.5866 0
M  V30 4492 O 436.614 -5.64996 -2.07516 0
M  V30 4493 H 440.44 -3.03661 -0.0485661 0
M  V30 4494 H 438.025 -1.49341 0.0418382 0
M  V30 4495 H 439.907 -3.41248 -2.4724 0
M  V30 4496 H 438.582 -2.22253 -2.35341 0
M  V30 4497 H 437.489 -3.69787 -0.566416 0
M  V30 4498 H 438.822 -4.86224 -0.764683 0
M  V30 4499 N 440.474 -0.00167713 -1.576 0
M  V30 4500 C 441.384 1.00548 -2.1196 0
M  V30 4501 C 442.4 1.3758 -1.06526 0
M  V30 4502 O 443.576 1.46278 -1.38436 0
M  V30 4503 C 440.641 2.27809 -2.6135 0
M  V30 4504 C 439.702 1.97074 -3.81393 0
M  V30 4505 C 438.935 3.18267 -4.28417 0
M  V30 4506 O 439.158 4.30009 -3.74765 0
M  V30 4507 O 438.092 3.02167 -5.20556 0
M  V30 4508 H 441.918 0.573373 -2.98238 0
M  V30 4509 H 439.503 0.217255 -1.47812 0
M  V30 4510 H 441.385 3.02568 -2.93309 0
M  V30 4511 H 440.06 2.70254 -1.78169 0
M  V30 4512 H 438.967 1.19785 -3.54404 0
M  V30 4513 H 440.3 1.59464 -4.65652 0
M  V30 4514 N 441.952 1.55251 0.271103 0
M  V30 4515 C 443.363 1.66635 0.842007 0
M  V30 4516 C 443.714 0.594631 1.86972 0
M  V30 4517 O 442.839 -0.263532 2.14789 0
M  V30 4518 C 443.434 3.02082 1.53401 0
M  V30 4519 C 441.993 3.15487 2.05293 0
M  V30 4520 C 441.14 2.62438 0.895631 0
M  V30 4521 H 444.091 1.58629 0.0474117 0
M  V30 4522 H 444.112 2.95176 2.40107 0
M  V30 4523 H 443.624 3.80062 0.785786 0
M  V30 4524 H 441.725 2.42284 2.83071 0
M  V30 4525 H 441.838 4.22075 2.26693 0
M  V30 4526 H 440.202 2.19644 1.28953 0
M  V30 4527 H 440.985 3.42923 0.160878 0
M  V30 4528 N 443.43 -0.535701 1.48216 0
M  V30 4529 C 444.846 -0.863701 1.3421 0
M  V30 4530 C 445.046 -1.98458 0.34879 0
M  V30 4531 O 444.102 -2.51432 -0.23204 0
M  V30 4532 C 445.415 -1.23662 2.74095 0
M  V30 4533 C 446.963 -1.34683 2.82541 0
M  V30 4534 C 447.438 -1.75322 4.23115 0
M  V30 4535 N 448.929 -1.82434 4.2576 0
M  V30 4536 C 449.664 -2.15252 5.31464 0
M  V30 4537 N 449.16 -2.46533 6.47452 0
M  V30 4538 N 450.953 -2.16209 5.18855 0
M  V30 4539 H 443.104 0.203965 2.11418 0
M  V30 4540 H 445.367 0.0286033 0.947568 0
M  V30 4541 H 445.073 -0.486674 3.48316 0
M  V30 4542 H 444.947 -2.18805 3.07253 0
M  V30 4543 H 447.334 -2.08756 2.08579 0
M  V30 4544 H 447.415 -0.376756 2.5301 0
M  V30 4545 H 447.059 -1.01812 4.97591 0
M  V30 4546 H 446.989 -2.7337 4.50085 0
M  V30 4547 H 449.48 -1.6056 3.42095 0
M  V30 4548 H 449.793 -2.70662 7.23852 0
M  V30 4549 H 448.138 -2.44065 6.50736 0
M  V30 4550 H 451.329 -1.91224 4.2726 0
M  V30 4551 H 451.502 -2.41453 6.01335 0
M  V30 4552 N 444.908 -1.36708 -0.784132 0
M  V30 4553 C 446.156 -1.30972 -1.53918 0
M  V30 4554 C 446.477 0.109086 -1.94695 0
M  V30 4555 O 445.747 1.05048 -1.65353 0
M  V30 4556 H 444.327 -0.481819 -0.570841 0
M  V30 4557 H 446.989 -1.71063 -0.934002 0
M  V30 4558 H 446.085 -1.94061 -2.44431 0
M  V30 4559 N 446.386 1.0089 -1.21074 0
M  V30 4560 C 447.634 1.74262 -1.02358 0
M  V30 4561 C 447.955 1.89869 0.444393 0
M  V30 4562 O 447.225 1.44677 1.32081 0
M  V30 4563 H 445.805 0.645615 -0.375754 0
M  V30 4564 H 448.467 1.21596 -1.52317 0
M  V30 4565 H 447.563 2.74328 -1.4883 0
M  V30 4566 N 447.864 1.01787 1.20321 0
M  V30 4567 C 449.28 0.732951 1.41774 0
M  V30 4568 C 449.48 -0.686883 1.89431 0
M  V30 4569 O 448.536 -1.45446 2.06402 0
M  V30 4570 C 449.849 1.75973 2.43832 0
M  V30 4571 C 451.397 1.77802 2.57596 0
M  V30 4572 C 451.872 2.7941 3.62897 0
M  V30 4573 N 453.363 2.78157 3.70382 0
M  V30 4574 C 454.098 3.53434 4.51521 0
M  V30 4575 N 453.594 4.38392 5.36455 0
M  V30 4576 N 455.387 3.42026 4.46066 0
M  V30 4577 H 447.538 1.93447 0.877035 0
M  V30 4578 H 449.801 0.835712 0.447536 0
M  V30 4579 H 449.507 2.77699 2.15815 0
M  V30 4580 H 449.381 1.57292 3.4284 0
M  V30 4581 H 451.768 0.767602 2.84942 0
M  V30 4582 H 451.849 2.00557 1.58779 0
M  V30 4583 H 451.493 3.80616 3.36295 0
M  V30 4584 H 451.423 2.53916 4.61339 0
M  V30 4585 H 453.914 2.16531 3.09714 0
M  V30 4586 H 454.227 4.92596 5.95457 0
M  V30 4587 H 452.572 4.4247 5.35953 0
M  V30 4588 H 455.763 2.75075 3.78749 0
M  V30 4589 H 455.936 4.00946 5.09064 0
M  V30 4590 N 449.342 -1.36122 0.79427 0
M  V30 4591 C 450.588 -1.99846 0.378542 0
M  V30 4592 C 450.943 -1.61898 -1.03955 0
M  V30 4593 O 450.236 -0.866013 -1.70912 0
M  V30 4594 C 450.43 -3.5409 0.48527 0
M  V30 4595 C 450.259 -4.0702 1.91219 0
M  V30 4596 C 449.029 -4.36944 2.53787 0
M  V30 4597 C 451.227 -4.26435 2.87502 0
M  V30 4598 N 449.209 -4.75727 3.88017 0
M  V30 4599 C 450.58 -4.68077 4.06576 0
M  V30 4600 C 452.635 -4.08616 2.84495 0
M  V30 4601 C 451.338 -4.93765 5.23057 0
M  V30 4602 C 453.364 -4.35453 4.00169 0
M  V30 4603 C 452.726 -4.77355 5.17988 0
M  V30 4604 H 448.825 -0.759549 0.186034 0
M  V30 4605 H 451.409 -1.65043 1.0329 0
M  V30 4606 H 449.58 -3.88151 -0.139023 0
M  V30 4607 H 451.312 -4.04675 0.0453192 0
M  V30 4608 H 448.067 -4.26822 2.05231 0
M  V30 4609 H 448.491 -4.99396 4.57092 0
M  V30 4610 H 453.133 -3.75373 1.94564 0
M  V30 4611 H 450.851 -5.25887 6.1357 0
M  V30 4612 H 454.437 -4.2323 3.99208 0
M  V30 4613 H 453.317 -4.97718 6.06008 0
M  V30 4614 N 450.82 -0.546701 -1.47814 0
M  V30 4615 C 452.097 0.0464413 -1.95545 0
M  V30 4616 C 452.477 1.4962 -1.48919 0
M  V30 4617 O 451.825 2.16752 -0.723232 0
M  V30 4618 C 452.035 -0.0881298 -3.48889 0
M  V30 4619 C 453.383 0.0626059 -4.24554 0
M  V30 4620 O 454.407 -0.0151555 -3.56197 0
M  V30 4621 O 453.266 0.228071 -5.46024 0
M  V30 4622 H 450.36 0.0700004 -0.824032 0
M  V30 4623 H 452.906 -0.612482 -1.58262 0
M  V30 4624 H 451.678 -1.09737 -3.75597 0
M  V30 4625 H 451.301 0.608886 -3.9291 0
M  V30 4626 N 452.299 1.55045 -0.282633 0
M  V30 4627 C 453.209 2.26491 0.61147 0
M  V30 4628 C 454.225 1.29348 1.16384 0
M  V30 4629 O 455.401 1.62298 1.19253 0
M  V30 4630 C 452.466 2.97779 1.77563 0
M  V30 4631 C 451.527 4.10418 1.25919 0
M  V30 4632 C 450.76 4.78297 2.36786 0
M  V30 4633 O 450.983 4.45426 3.56303 0
M  V30 4634 O 449.917 5.66089 2.04517 0
M  V30 4635 H 453.743 3.03683 0.0324615 0
M  V30 4636 H 451.328 1.49317 -0.0497576 0
M  V30 4637 H 453.21 3.42554 2.45427 0
M  V30 4638 H 451.885 2.23498 2.34159 0
M  V30 4639 H 450.792 3.70082 0.546797 0
M  V30 4640 H 452.125 4.86622 0.738887 0
M  V30 4641 N 453.777 0.010035 1.57597 0
M  V30 4642 C 455.054 -0.710296 1.82248 0
M  V30 4643 C 455.434 -1.91426 0.889911 0
M  V30 4644 O 454.782 -2.28424 -0.0590292 0
M  V30 4645 C 454.992 -1.10655 3.30993 0
M  V30 4646 C 456.34 -1.50621 3.96987 0
M  V30 4647 O 457.364 -1.20007 3.35375 0
M  V30 4648 O 456.223 -2.07587 5.05539 0
M  V30 4649 H 453.317 -0.34673 0.750804 0
M  V30 4650 H 455.863 0.0362578 1.69661 0
M  V30 4651 H 454.635 -0.248826 3.90508 0
M  V30 4652 H 454.258 -1.91189 3.48615 0
M  V30 4653 N 455.255 -1.55392 -0.262866 0
M  V30 4654 C 456.165 -1.92077 -1.34698 0
M  V30 4655 C 457.181 -0.819227 -1.53508 0
M  V30 4656 O 458.357 -1.11921 -1.67439 0
M  V30 4657 C 455.422 -2.19407 -2.68443 0
M  V30 4658 C 454.483 -3.42905 -2.58292 0
M  V30 4659 C 453.716 -3.68921 -3.85659 0
M  V30 4660 O 453.939 -2.97275 -4.8681 0
M  V30 4661 O 452.873 -4.62455 -3.85252 0
M  V30 4662 H 456.699 -2.84384 -1.06581 0
M  V30 4663 H 454.284 -1.42069 -0.462264 0
M  V30 4664 H 456.166 -2.38365 -3.47506 0
M  V30 4665 H 454.841 -1.30282 -2.96325 0
M  V30 4666 H 453.748 -3.29272 -1.7757 0
M  V30 4667 H 455.081 -4.32282 -2.35358 0
M  V30 4668 N 456.733 0.527833 -1.48498 0
M  V30 4669 C 457.665 1.6482 -1.5927 0
M  V30 4670 C 458.678 1.55659 -0.476869 0
M  V30 4671 O 459.867 1.62081 -0.747806 0
M  V30 4672 C 456.967 3.0348 -1.50842 0
M  V30 4673 C 456.14 3.381 -2.77502 0
M  V30 4674 C 455.199 4.5605 -2.62497 0
M  V30 4675 O 454.225 4.59165 -3.36387 0
M  V30 4676 N 455.427 5.54353 -1.72257 0
M  V30 4677 H 458.192 1.56015 -2.55889 0
M  V30 4678 H 455.753 0.715152 -1.45249 0
M  V30 4679 H 457.745 3.80264 -1.38496 0
M  V30 4680 H 456.315 3.06352 -0.621887 0
M  V30 4681 H 455.535 2.50473 -3.04396 0
M  V30 4682 H 456.823 3.58017 -3.61527 0
M  V30 4683 H 456.221 5.54617 -1.11431 0
M  V30 4684 H 454.778 6.30347 -1.65849 0
M  V30 4685 N 458.211 1.37122 0.776871 0
M  V30 4686 C 459.457 1.3325 1.53675 0
M  V30 4687 C 459.812 -0.0839891 1.92217 0
M  V30 4688 O 459.105 -1.04145 1.60824 0
M  V30 4689 C 459.299 2.20068 2.81611 0
M  V30 4690 C 459.128 3.70016 2.55574 0
M  V30 4691 C 457.898 4.39144 2.4996 0
M  V30 4692 C 460.096 4.62996 2.23917 0
M  V30 4693 N 458.078 5.74663 2.15953 0
M  V30 4694 C 459.449 5.86854 2.00005 0
M  V30 4695 C 461.504 4.51433 2.1003 0
M  V30 4696 C 460.207 7.00446 1.63609 0
M  V30 4697 C 462.233 5.64905 1.75033 0
M  V30 4698 C 461.595 6.8781 1.51977 0
M  V30 4699 H 457.694 0.542878 0.562856 0
M  V30 4700 H 460.278 1.72295 0.906784 0
M  V30 4701 H 458.449 1.83248 3.42454 0
M  V30 4702 H 460.181 2.07492 3.47461 0
M  V30 4703 H 456.936 3.92088 2.65639 0
M  V30 4704 H 457.36 6.46268 2.0166 0
M  V30 4705 H 462.002 3.56987 2.26539 0
M  V30 4706 H 459.72 7.94831 1.45837 0
M  V30 4707 H 463.306 5.57926 1.64952 0
M  V30 4708 H 462.186 7.74126 1.25296 0
M  V30 4709 N 459.689 -1.00246 1.21608 0
M  V30 4710 C 460.914 -1.78167 1.06167 0
M  V30 4711 C 461.339 -1.84138 -0.384035 0
M  V30 4712 O 460.697 -1.28683 -1.27712 0
M  V30 4713 C 460.745 -3.19786 1.66642 0
M  V30 4714 O 459.849 -4.02153 0.913613 0
M  V30 4715 H 459.19 -0.549 0.37349 0
M  V30 4716 H 461.72 -1.25994 1.61204 0
M  V30 4717 H 461.73 -3.70451 1.70969 0
M  V30 4718 H 460.405 -3.14754 2.7185 0
M  V30 4719 H 458.982 -3.60711 0.945635 0
M  V30 4720 N 461.167 -1.02423 -1.1978 0
M  V30 4721 C 462.413 -0.719051 -1.89625 0
M  V30 4722 C 462.746 0.750083 -1.7913 0
M  V30 4723 O 462.021 1.54574 -1.18056 0
M  V30 4724 C 462.304 -1.16499 -3.40735 0
M  V30 4725 C 462.157 -2.695 -3.60125 0
M  V30 4726 C 463.476 -0.742166 -4.33797 0
M  V30 4727 H 460.595 -0.26269 -0.688595 0
M  V30 4728 H 463.237 -1.27333 -1.41018 0
M  V30 4729 H 461.387 -0.69341 -3.82262 0
M  V30 4730 H 463.059 -3.24569 -3.278 0
M  V30 4731 H 461.302 -3.10113 -3.03336 0
M  V30 4732 H 461.973 -2.95757 -4.66081 0
M  V30 4733 H 464.449 -1.1477 -3.99959 0
M  V30 4734 H 463.325 -1.08213 -5.38127 0
M  V30 4735 H 463.586 0.355747 -4.40666 0
M  V30 4736 N 462.645 1.35699 -0.801477 0
M  V30 4737 C 463.891 1.99208 -0.380022 0
M  V30 4738 C 464.224 1.63445 1.04878 0
M  V30 4739 O 463.499 0.895223 1.72673 0
M  V30 4740 C 463.782 3.55755 -0.557708 0
M  V30 4741 C 463.635 4.01332 -2.03107 0
M  V30 4742 C 464.954 4.40096 0.0197968 0
M  V30 4743 H 462.073 0.723667 -0.139552 0
M  V30 4744 H 464.715 1.60928 -1.01006 0
M  V30 4745 H 462.865 3.88494 -0.0213741 0
M  V30 4746 H 464.537 3.79026 -2.62939 0
M  V30 4747 H 462.78 3.52429 -2.52936 0
M  V30 4748 H 463.451 5.10234 -2.1063 0
M  V30 4749 H 465.927 4.13786 -0.438179 0
M  V30 4750 H 464.803 5.48735 -0.134477 0
M  V30 4751 H 465.064 4.2786 1.11303 0
M  V30 4752 N 464.123 0.554532 1.47522 0
M  V30 4753 C 465.369 0.0295227 2.02779 0
M  V30 4754 C 465.702 -1.31582 1.42828 0
M  V30 4755 O 464.977 -1.85561 0.582872 0
M  V30 4756 C 465.26 -0.0664057 3.60039 0
M  V30 4757 C 465.113 1.30585 4.30427 0
M  V30 4758 C 466.432 -0.781162 4.33112 0
M  V30 4759 H 463.551 0.0122027 0.736899 0
M  V30 4760 H 466.193 0.716305 1.7598 0
M  V30 4761 H 464.343 -0.651307 3.83002 0
M  V30 4762 H 466.015 1.93374 4.18813 0
M  V30 4763 H 464.258 1.88125 3.90886 0
M  V30 4764 H 464.929 1.19147 5.38988 0
M  V30 4765 H 467.405 -0.284565 4.15126 0
M  V30 4766 H 466.281 -0.817237 5.42782 0
M  V30 4767 H 466.542 -1.83672 4.0214 0
M  V30 4768 N 465.601 -1.54893 0.290851 0
M  V30 4769 C 466.511 -2.26812 -0.59945 0
M  V30 4770 C 467.527 -1.29963 -1.15696 0
M  V30 4771 O 468.703 -1.62928 -1.18391 0
M  V30 4772 C 465.768 -2.98716 -1.75982 0
M  V30 4773 C 464.829 -4.1108 -1.2374 0
M  V30 4774 C 464.062 -4.79546 -2.34246 0
M  V30 4775 O 464.285 -4.47309 -3.53936 0
M  V30 4776 O 463.219 -5.67165 -2.01512 0
M  V30 4777 H 467.045 -3.03696 -0.0163561 0
M  V30 4778 H 464.63 -1.49289 0.0576755 0
M  V30 4779 H 466.512 -3.43851 -2.43607 0
M  V30 4780 H 465.187 -2.24737 -2.3297 0
M  V30 4781 H 464.094 -3.70367 -0.527163 0
M  V30 4782 H 465.427 -4.87007 -0.71307 0
M  V30 4783 N 467.08 -0.0183926 -1.57589 0
M  V30 4784 C 468.32 0.666846 -1.93216 0
M  V30 4785 C 468.684 1.69905 -0.894215 0
M  V30 4786 O 469.885 2.436 -1.13633 0
M  V30 4787 C 468.156 1.27684 -3.33814 0
M  V30 4788 S 469.715 1.98464 -3.91353 0
M  V30 4789 H 466.533 0.219826 -0.676164 0
M  V30 4790 H 469.135 -0.0794893 -1.95338 0
M  V30 4791 H 467.839 0.513006 -4.07181 0
M  V30 4792 H 467.37 2.06071 -3.3511 0
M  V30 4793 H 469.385 3.26189 -3.73918 0
M  V30 4794 N 468.558 1.5553 0.254621 0
M  V30 4795 C 469.468 1.92789 1.33677 0
M  V30 4796 C 470.484 0.827356 1.53071 0
M  V30 4797 O 471.66 1.12807 1.66843 0
M  V30 4798 C 468.725 2.20827 2.67275 0
M  V30 4799 C 467.786 3.4427 2.5647 0
M  V30 4800 C 467.019 3.70961 3.83697 0
M  V30 4801 O 467.242 2.99852 4.85227 0
M  V30 4802 O 466.176 4.64491 3.82794 0
M  V30 4803 H 470.002 2.84945 1.05071 0
M  V30 4804 H 467.587 1.42312 0.454723 0
M  V30 4805 H 469.469 2.40204 3.46237 0
M  V30 4806 H 468.144 1.31851 2.9563 0
M  V30 4807 H 467.051 3.30209 1.75821 0
M  V30 4808 H 468.384 4.33524 2.33062 0
M  V30 4809 N 470.036 -0.519951 1.48776 0
M  V30 4810 C 471.313 -1.28123 1.47797 0
M  V30 4811 C 471.693 -2.10196 0.195157 0
M  V30 4812 O 471.041 -2.13167 -0.822925 0
M  V30 4813 C 471.251 -2.15413 2.74587 0
M  V30 4814 C 472.599 -2.75225 3.23321 0
M  V30 4815 O 473.623 -2.25694 2.75574 0
M  V30 4816 O 472.482 -3.65346 4.06429 0
M  V30 4817 H 469.576 -0.578793 0.590701 0
M  V30 4818 H 472.122 -0.535779 1.6102 0
M  V30 4819 H 470.894 -1.54617 3.59457 0
M  V30 4820 H 470.517 -2.97186 2.64132 0
M  V30 4821 N 471.514 -1.37532 -0.769588 0
M  V30 4822 C 472.754 -1.34261 -1.54122 0
M  V30 4823 C 473.118 0.0717222 -1.91866 0
M  V30 4824 O 474.319 0.22918 -2.67821 0
M  V30 4825 C 472.59 -2.2574 -2.77086 0
M  V30 4826 S 474.149 -2.40339 -3.67127 0
M  V30 4827 H 470.967 -0.476595 -0.527615 0
M  V30 4828 H 473.569 -1.73303 -0.90479 0
M  V30 4829 H 472.273 -3.27417 -2.4744 0
M  V30 4830 H 471.804 -1.87789 -3.45686 0
M  V30 4831 H 473.819 -1.61558 -4.69163 0
M  V30 4832 N 472.992 0.995999 -1.22138 0
M  V30 4833 C 473.902 2.11985 -1.00496 0
M  V30 4834 C 474.918 1.7394 0.0457701 0
M  V30 4835 O 476.094 2.00868 -0.146273 0
M  V30 4836 C 473.159 3.41779 -0.582086 0
M  V30 4837 C 472.22 3.93943 -1.70608 0
M  V30 4838 C 471.453 5.17542 -1.30328 0
M  V30 4839 O 471.676 5.70114 -0.180743 0
M  V30 4840 O 470.61 5.63382 -2.11861 0
M  V30 4841 H 474.436 2.33123 -1.94647 0
M  V30 4842 H 472.021 1.10358 -1.00705 0
M  V30 4843 H 473.903 4.1989 -0.356467 0
M  V30 4844 H 472.578 3.22007 0.330592 0
M  V30 4845 H 471.485 3.17019 -1.98619 0
M  V30 4846 H 472.818 4.18141 -2.59651 0
M  V30 4847 N 474.47 1.03057 1.19235 0
M  V30 4848 C 475.4 0.633497 2.24742 0
M  V30 4849 C 476.381 -0.358335 1.66283 0
M  V30 4850 O 477.566 -0.240676 1.92703 0
M  V30 4851 C 474.696 -0.0147648 3.47297 0
M  V30 4852 C 473.65 0.899527 4.18441 0
M  V30 4853 C 472.976 0.116281 5.34574 0
M  V30 4854 C 474.276 2.21404 4.73051 0
M  V30 4855 H 475.97 1.5155 2.58211 0
M  V30 4856 H 473.516 0.73014 1.24117 0
M  V30 4857 H 475.469 -0.304202 4.20301 0
M  V30 4858 H 474.193 -0.931577 3.13032 0
M  V30 4859 H 472.852 1.17319 3.47321 0
M  V30 4860 H 472.5 -0.802619 4.96555 0
M  V30 4861 H 472.2 0.725293 5.83107 0
M  V30 4862 H 473.724 -0.166376 6.10373 0
M  V30 4863 H 475.138 1.98601 5.37802 0
M  V30 4864 H 473.535 2.77512 5.32078 0
M  V30 4865 H 474.605 2.86752 3.91026 0
M  V30 4866 N 475.948 -1.35272 0.808662 0
M  V30 4867 C 477.197 -1.97963 0.386483 0
M  V30 4868 C 477.51 -1.64866 -1.05255 0
M  V30 4869 O 478.716 -2.20937 -1.57794 0
M  V30 4870 C 477.172 -3.54162 0.640096 0
M  V30 4871 C 476.78 -3.96166 2.0918 0
M  V30 4872 C 478.524 -4.23553 0.283376 0
M  V30 4873 C 476.431 -5.4522 2.29106 0
M  V30 4874 H 475.361 -0.740742 0.140774 0
M  V30 4875 H 478.012 -1.5431 0.993012 0
M  V30 4876 H 476.394 -3.95983 -0.0364117 0
M  V30 4877 H 477.568 -3.65491 2.80629 0
M  V30 4878 H 475.883 -3.3967 2.40859 0
M  V30 4879 H 478.48 -5.33124 0.410273 0
M  V30 4880 H 478.823 -4.09105 -0.770659 0
M  V30 4881 H 479.356 -3.8716 0.913884 0
M  V30 4882 H 476.095 -5.64638 3.32962 0
M  V30 4883 H 475.615 -5.77457 1.62184 0
M  V30 4884 H 477.294 -6.1171 2.1076 0
M  V30 4885 N 477.426 -0.562348 -1.47226 0
M  V30 4886 C 478.837 -0.130325 -1.86245 0
M  V30 4887 C 479.188 1.30128 -1.46838 0
M  V30 4888 O 478.313 1.97974 -0.873805 0
M  V30 4889 C 478.908 -0.229738 -3.3802 0
M  V30 4890 C 477.467 0.14728 -3.76112 0
M  V30 4891 C 476.614 -0.574971 -2.71274 0
M  V30 4892 H 479.565 -0.771773 -1.3867 0
M  V30 4893 H 479.586 0.550316 -3.76499 0
M  V30 4894 H 479.098 -1.27178 -3.66671 0
M  V30 4895 H 477.199 1.19023 -3.53078 0
M  V30 4896 H 477.312 -0.214858 -4.78618 0
M  V30 4897 H 475.676 -0.0174756 -2.54694 0
M  V30 4898 H 476.459 -1.61827 -3.02766 0
M  V30 4899 N 478.904 1.54736 -0.299062 0
M  V30 4900 C 479.867 2.22127 0.565012 0
M  V30 4901 C 480.867 1.20669 1.06281 0
M  V30 4902 O 482.057 1.45417 0.959145 0
M  V30 4903 C 479.189 2.90611 1.78208 0
M  V30 4904 H 480.382 2.99891 -0.0237448 0
M  V30 4905 H 477.935 1.5622 -0.0498788 0
M  V30 4906 H 478.67 2.16921 2.41072 0
M  V30 4907 H 478.455 3.64984 1.43281 0
M  V30 4908 H 479.945 3.42026 2.396 0
M  V30 4909 N 480.382 0.0267497 1.57577 0
M  V30 4910 C 481.659 -0.690926 1.82991 0
M  V30 4911 C 482.039 -1.90471 0.910164 0
M  V30 4912 O 481.387 -2.28474 -0.0347985 0
M  V30 4913 C 481.597 -1.07139 3.32148 0
M  V30 4914 C 482.945 -1.46402 3.98562 0
M  V30 4915 O 483.969 -1.16443 3.36629 0
M  V30 4916 O 482.828 -2.02214 5.07712 0
M  V30 4917 H 479.922 -0.338747 0.75444 0
M  V30 4918 H 482.468 0.0542506 1.69613 0
M  V30 4919 H 481.24 -0.207394 3.9075 0
M  V30 4920 H 480.863 -1.87481 3.50623 0
M  V30 4921 N 481.861 -1.55662 -0.24637 0
M  V30 4922 C 482.811 -1.86753 -1.30795 0
M  V30 4923 C 483.795 -0.728445 -1.43466 0
M  V30 4924 O 484.987 -0.99038 -1.46699 0
M  V30 4925 C 482.116 -2.16618 -2.66329 0
M  V30 4926 C 481.202 -3.36855 -2.57661 0
M  V30 4927 N 481.593 -4.56111 -2.18624 0
M  V30 4928 C 479.891 -3.39976 -2.88673 0
M  V30 4929 C 480.592 -5.38247 -2.20601 0
M  V30 4930 N 479.568 -4.77322 -2.60124 0
M  V30 4931 H 483.37 -2.76486 -0.996642 0
M  V30 4932 H 480.884 -1.55896 -0.454994 0
M  V30 4933 H 482.881 -2.37057 -3.42942 0
M  V30 4934 H 481.541 -1.28185 -2.98327 0
M  V30 4935 H 482.552 -4.81726 -1.9016 0
M  V30 4936 H 479.229 -2.61815 -3.25206 0
M  V30 4937 H 480.619 -6.43657 -1.92756 0
M  V30 4938 N 483.339 0.512053 -1.4905 0
M  V30 4939 C 484.585 1.26874 -1.58212 0
M  V30 4940 C 484.918 1.9241 -0.263073 0
M  V30 4941 O 484.193 1.80181 0.732476 0
M  V30 4942 C 484.476 2.34428 -2.73341 0
M  V30 4943 C 484.329 1.73466 -4.15006 0
M  V30 4944 C 485.648 3.36073 -2.84154 0
M  V30 4945 H 482.767 0.459924 -0.575881 0
M  V30 4946 H 485.409 0.568587 -1.81293 0
M  V30 4947 H 483.559 2.94146 -2.53792 0
M  V30 4948 H 485.231 1.17661 -4.46042 0
M  V30 4949 H 483.474 1.03921 -4.21168 0
M  V30 4950 H 484.145 2.51426 -4.91415 0
M  V30 4951 H 486.621 2.86332 -3.01916 0
M  V30 4952 H 485.497 4.08703 -3.66406 0
M  V30 4953 H 485.758 3.97725 -1.93048 0
M  V30 4954 N 484.817 1.37938 0.762283 0
M  V30 4955 C 486.066 1.32989 1.51647 0
M  V30 4956 C 486.379 -0.0802922 1.95435 0
M  V30 4957 O 487.585 -0.252295 2.70325 0
M  V30 4958 C 486.041 2.33485 2.73885 0
M  V30 4959 C 485.649 3.80079 2.37157 0
M  V30 4960 C 487.393 2.37563 3.51801 0
M  V30 4961 C 485.3 4.72283 3.55954 0
M  V30 4962 H 484.23 0.494301 0.56937 0
M  V30 4963 H 486.881 1.63448 0.834083 0
M  V30 4964 H 485.263 1.96056 3.44061 0
M  V30 4965 H 486.437 4.26398 1.74704 0
M  V30 4966 H 484.752 3.79037 1.72395 0
M  V30 4967 H 487.349 3.0365 4.40114 0
M  V30 4968 H 487.692 1.39199 3.92338 0
M  V30 4969 H 488.225 2.73747 2.8863 0
M  V30 4970 H 484.964 5.7181 3.2049 0
M  V30 4971 H 484.484 4.30663 4.1748 0
M  V30 4972 H 486.163 4.89876 4.22647 0
M  V30 4973 N 486.295 -0.989507 1.22664 0
M  V30 4974 C 487.541 -1.7321 1.05481 0
M  V30 4975 C 487.874 -1.89852 -0.408635 0
M  V30 4976 O 487.149 -1.44416 -1.30285 0
M  V30 4977 C 487.432 -3.1357 1.77047 0
M  V30 4978 C 487.285 -3.04555 3.31008 0
M  V30 4979 C 488.604 -4.12812 1.5256 0
M  V30 4980 H 485.723 -0.628697 0.384589 0
M  V30 4981 H 488.365 -1.15258 1.51049 0
M  V30 4982 H 486.515 -3.63046 1.3831 0
M  V30 4983 H 488.187 -2.62674 3.7921 0
M  V30 4984 H 486.43 -2.41278 3.6051 0
M  V30 4985 H 487.101 -4.03894 3.76263 0
M  V30 4986 H 489.577 -3.72106 1.86215 0
M  V30 4987 H 488.453 -5.09132 2.05124 0
M  V30 4988 H 488.714 -4.39711 0.458936 0
M  V30 4989 N 487.773 -1.03688 -1.18687 0
M  V30 4990 C 489.001 -0.757918 -1.92518 0
M  V30 4991 C 489.416 0.684398 -1.75959 0
M  V30 4992 O 488.773 1.46617 -1.08673 0
M  V30 4993 C 488.824 -1.10985 -3.44042 0
M  V30 4994 O 488.545 -2.49554 -3.60076 0
M  V30 4995 C 490.046 -0.854844 -4.3498 0
M  V30 4996 H 487.266 -0.276699 -0.611293 0
M  V30 4997 H 489.81 -1.38352 -1.50595 0
M  V30 4998 H 487.965 -0.529279 -3.83767 0
M  V30 4999 H 488.379 -2.6291 -4.53849 0
M  V30 5000 H 489.853 -1.15098 -5.39867 0
M  V30 5001 H 490.33 0.210507 -4.38695 0
M  V30 5002 H 490.936 -1.41853 -4.00946 0
M  V30 5003 N 489.251 1.34841 -0.815825 0
M  V30 5004 C 490.497 1.98793 -0.401129 0
M  V30 5005 C 490.83 1.64548 1.03139 0
M  V30 5006 O 490.105 0.913487 1.71714 0
M  V30 5007 C 490.388 3.55143 -0.595409 0
M  V30 5008 C 490.241 3.99155 -2.07352 0
M  V30 5009 C 491.56 4.40092 -0.0268823 0
M  V30 5010 H 488.679 0.722146 -0.14722 0
M  V30 5011 H 491.321 1.59847 -1.02707 0
M  V30 5012 H 489.471 3.8845 -0.0625779 0
M  V30 5013 H 491.143 3.76216 -2.66945 0
M  V30 5014 H 489.386 3.49726 -2.56659 0
M  V30 5015 H 490.057 5.07971 -2.1603 0
M  V30 5016 H 492.533 4.13298 -0.482042 0
M  V30 5017 H 491.409 5.48562 -0.19267 0
M  V30 5018 H 491.67 4.29016 1.06759 0
M  V30 5019 N 490.729 0.570148 1.46925 0
M  V30 5020 C 491.954 0.0542592 2.07329 0
M  V30 5021 C 492.379 -1.23582 1.41806 0
M  V30 5022 O 491.737 -1.74341 0.497479 0
M  V30 5023 C 491.785 -0.111175 3.60429 0
M  V30 5024 O 490.889 -1.17071 3.95434 0
M  V30 5025 H 490.23 0.0571425 0.661537 0
M  V30 5026 H 492.76 0.789516 1.88753 0
M  V30 5027 H 492.77 -0.321315 4.06733 0
M  V30 5028 H 491.445 0.831012 4.07513 0
M  V30 5029 H 490.022 -0.940029 3.60857 0
M  V30 5030 N 492.207 -1.54576 0.307264 0
M  V30 5031 C 493.137 -2.26708 -0.55907 0
M  V30 5032 C 494.118 -1.26893 -1.1328 0
M  V30 5033 O 495.303 -1.55677 -1.16097 0
M  V30 5034 C 492.433 -3.01259 -1.72801 0
M  V30 5035 C 491.387 -4.08275 -1.28435 0
M  V30 5036 C 490.713 -4.70575 -2.53895 0
M  V30 5037 C 492.013 -5.2068 -0.411038 0
M  V30 5038 H 493.707 -2.9937 0.042576 0
M  V30 5039 H 491.253 -1.43983 0.0219173 0
M  V30 5040 H 493.206 -3.50444 -2.34023 0
M  V30 5041 H 491.93 -2.26187 -2.356 0
M  V30 5042 H 490.589 -3.59949 -0.695161 0
M  V30 5043 H 490.237 -3.92136 -3.15021 0
M  V30 5044 H 489.937 -5.42854 -2.24908 0
M  V30 5045 H 491.461 -5.22527 -3.15908 0
M  V30 5046 H 492.875 -5.65721 -0.929097 0
M  V30 5047 H 491.272 -5.99716 -0.214664 0
M  V30 5048 H 492.342 -4.81629 0.562287 0
M  V30 5049 N 493.685 -0.035106 -1.57561 0
M  V30 5050 C 494.933 0.64096 -1.91667 0
M  V30 5051 C 495.254 1.72323 -0.912681 0
M  V30 5052 O 494.524 1.95849 0.0449089 0
M  V30 5053 H 493.104 0.239743 -0.707483 0
M  V30 5054 H 495.766 -0.084321 -1.94718 0
M  V30 5055 H 494.862 1.08987 -2.92452 0
M  V30 5056 N 495.163 1.55791 0.238111 0
M  V30 5057 C 496.409 1.78297 0.966337 0
M  V30 5058 C 496.742 0.601903 1.84637 0
M  V30 5059 O 496.017 -0.399499 1.90353 0
M  V30 5060 C 496.3 3.10758 1.81939 0
M  V30 5061 C 496.153 4.39283 0.966958 0
M  V30 5062 C 497.472 3.39519 2.80027 0
M  V30 5063 H 494.591 0.648654 0.349882 0
M  V30 5064 H 497.233 1.88525 0.236253 0
M  V30 5065 H 495.383 3.02168 2.44185 0
M  V30 5066 H 497.055 4.59873 0.362514 0
M  V30 5067 H 495.298 4.32948 0.271669 0
M  V30 5068 H 495.969 5.28368 1.59784 0
M  V30 5069 H 498.445 3.48128 2.27917 0
M  V30 5070 H 497.321 4.33402 3.36829 0
M  V30 5071 H 497.582 2.60864 3.56934 0
M  V30 5072 N 496.642 -0.504142 1.49319 0
M  V30 5073 C 497.572 -1.61473 1.68667 0
M  V30 5074 C 498.553 -1.61455 0.535378 0
M  V30 5075 O 499.738 -1.78245 0.770868 0
M  V30 5076 C 496.868 -2.99971 1.75028 0
M  V30 5077 C 495.822 -3.14854 2.89916 0
M  V30 5078 C 495.148 -4.54671 2.81387 0
M  V30 5079 C 496.448 -2.95176 4.30893 0
M  V30 5080 H 498.142 -1.45535 2.61648 0
M  V30 5081 H 495.688 -0.698711 1.25913 0
M  V30 5082 H 497.641 -3.77562 1.8715 0
M  V30 5083 H 496.365 -3.1699 0.786441 0
M  V30 5084 H 495.024 -2.39687 2.77391 0
M  V30 5085 H 494.672 -4.68562 1.82917 0
M  V30 5086 H 494.372 -4.6557 3.58494 0
M  V30 5087 H 495.896 -5.34327 2.95512 0
M  V30 5088 H 497.31 -3.62538 4.44116 0
M  V30 5089 H 495.707 -3.17549 5.09198 0
M  V30 5090 H 496.777 -1.91332 4.45556 0
M  V30 5091 N 498.12 -1.38341 -0.754957 0
M  V30 5092 C 499.067 -1.3546 -1.86867 0
M  V30 5093 C 500.037 -0.217369 -1.64672 0
M  V30 5094 O 501.222 -0.409383 -1.86356 0
M  V30 5095 C 498.362 -1.18413 -3.24149 0
M  V30 5096 C 497.475 -2.41511 -3.58185 0
M  V30 5097 C 496.61 -2.17205 -4.84763 0
M  V30 5098 C 495.649 -3.36081 -5.11582 0
M  V30 5099 N 494.786 -3.11219 -6.29354 0
M  V30 5100 H 499.626 -2.30672 -1.88664 0
M  V30 5101 H 497.163 -1.14607 -0.922154 0
M  V30 5102 H 499.121 -1.06545 -4.03366 0
M  V30 5103 H 497.751 -0.268397 -3.21682 0
M  V30 5104 H 496.803 -2.64056 -2.73822 0
M  V30 5105 H 498.115 -3.30115 -3.73932 0
M  V30 5106 H 497.269 -2.02465 -5.7192 0
M  V30 5107 H 496.008 -1.25964 -4.71152 0
M  V30 5108 H 495.013 -3.51341 -4.22894 0
M  V30 5109 H 496.238 -4.28196 -5.27091 0
M  V30 5110 H 494.184 -2.22624 -6.17069 0
M  V30 5111 H 494.101 -3.93373 -6.45596 0
M  V30 5112 H 495.369 -3.00132 -7.19403 0
M  V30 5113 N 499.598 0.982988 -1.23187 0
M  V30 5114 C 501.014 1.2487 -0.993967 0
M  V30 5115 C 501.214 1.99155 0.306498 0
M  V30 5116 O 500.27 2.30688 1.0266 0
M  V30 5117 C 501.583 2.05078 -2.19917 0
M  V30 5118 C 503.131 2.18227 -2.2438 0
M  V30 5119 C 503.606 3.01825 -3.44479 0
M  V30 5120 N 505.097 3.09411 -3.44702 0
M  V30 5121 C 505.832 3.74412 -4.34285 0
M  V30 5122 N 505.328 4.41259 -5.341 0
M  V30 5123 N 507.121 3.71273 -4.22035 0
M  V30 5124 H 499.272 0.485253 -2.06783 0
M  V30 5125 H 501.535 0.276979 -0.906635 0
M  V30 5126 H 501.241 1.57867 -3.14279 0
M  V30 5127 H 501.115 3.05829 -2.2079 0
M  V30 5128 H 503.502 2.64648 -1.30559 0
M  V30 5129 H 503.583 1.16873 -2.2754 0
M  V30 5130 H 503.227 2.56102 -4.38605 0
M  V30 5131 H 503.157 4.03342 -3.38559 0
M  V30 5132 H 505.648 2.61845 -2.7248 0
M  V30 5133 H 505.961 4.88629 -5.98717 0
M  V30 5134 H 504.306 4.39975 -5.38002 0
M  V30 5135 H 507.497 3.18217 -3.43301 0
M  V30 5136 H 507.67 4.21649 -4.92053 0
M  V30 5137 N 501.076 1.04316 1.18135 0
M  V30 5138 C 502.008 0.594444 2.21357 0
M  V30 5139 C 503.021 -0.337215 1.59269 0
M  V30 5140 O 504.21 -0.131337 1.78016 0
M  V30 5141 C 501.31 -0.151251 3.38562 0
M  V30 5142 C 500.483 0.788907 4.30227 0
M  V30 5143 C 499.542 0.0860572 5.2613 0
M  V30 5144 O 498.568 0.717302 5.64662 0
M  V30 5145 N 499.77 -1.17969 5.68387 0
M  V30 5146 H 502.535 1.48227 2.60478 0
M  V30 5147 H 500.096 0.92396 1.32946 0
M  V30 5148 H 502.088 -0.631352 3.99745 0
M  V30 5149 H 500.658 -0.940639 2.98112 0
M  V30 5150 H 499.878 1.44882 3.6661 0
M  V30 5151 H 501.166 1.42738 4.88368 0
M  V30 5152 H 500.564 -1.71302 5.3914 0
M  V30 5153 H 499.121 -1.60402 6.31755 0
M  V30 5154 N 502.554 -1.34406 0.822964 0
M  V30 5155 C 503.784 -2.02214 0.423424 0
M  V30 5156 C 504.192 -1.62124 -0.975322 0
M  V30 5157 O 503.535 -0.822452 -1.6426 0
M  V30 5158 C 503.597 -3.56721 0.446107 0
M  V30 5159 C 503.261 -4.20136 1.79819 0
M  V30 5160 C 504.258 -4.4065 2.75904 0
M  V30 5161 C 501.943 -4.56906 2.08669 0
M  V30 5162 C 503.937 -4.9706 3.99012 0
M  V30 5163 C 501.624 -5.13026 3.32036 0
M  V30 5164 C 502.622 -5.33047 4.27024 0
M  V30 5165 O 502.31 -5.87979 5.48211 0
M  V30 5166 H 502.042 -0.654748 0.168169 0
M  V30 5167 H 504.596 -1.72659 1.11257 0
M  V30 5168 H 502.826 -3.85537 -0.299734 0
M  V30 5169 H 504.515 -4.05845 0.0666114 0
M  V30 5170 H 505.281 -4.12607 2.54912 0
M  V30 5171 H 501.16 -4.40626 1.35535 0
M  V30 5172 H 504.704 -5.12603 4.73164 0
M  V30 5173 H 500.601 -5.40498 3.52891 0
M  V30 5174 H 501.369 -6.06413 5.49732 0
M  V30 5175 N 504.032 -0.577932 -1.46621 0
M  V30 5176 C 505.26 -0.0671642 -2.06791 0
M  V30 5177 C 505.675 1.23571 -1.42743 0
M  V30 5178 O 505.032 1.74602 -0.531062 0
M  V30 5179 C 505.083 0.110357 -3.61332 0
M  V30 5180 O 504.804 -1.14095 -4.22982 0
M  V30 5181 C 506.305 0.656025 -4.38419 0
M  V30 5182 H 503.525 -0.0552732 -0.66872 0
M  V30 5183 H 506.069 -0.797242 -1.8832 0
M  V30 5184 H 504.224 0.790637 -3.79246 0
M  V30 5185 H 504.638 -0.951742 -5.15793 0
M  V30 5186 H 506.112 0.729438 -5.47159 0
M  V30 5187 H 506.589 1.67195 -4.06131 0
M  V30 5188 H 507.195 0.0107692 -4.25299 0
M  V30 5189 N 505.51 1.54411 -0.315457 0
M  V30 5190 C 506.735 2.05299 0.294496 0
M  V30 5191 C 507.16 1.19052 1.4563 0
M  V30 5192 O 506.518 0.197804 1.80218 0
M  V30 5193 C 506.566 3.5345 0.714549 0
M  V30 5194 O 505.67 3.70175 1.81781 0
M  V30 5195 H 505.011 0.661743 0.0547019 0
M  V30 5196 H 507.541 1.99327 -0.461508 0
M  V30 5197 H 507.551 3.9557 0.999426 0
M  V30 5198 H 506.226 4.1568 -0.135244 0
M  V30 5199 H 504.803 3.3996 1.53236 0
M  V30 5200 N 506.988 0.0434614 1.5754 0
M  V30 5201 C 508.235 -0.632035 1.92384 0
M  V30 5202 C 508.563 -1.71304 0.921157 0
M  V30 5203 O 507.818 -1.95583 -0.067744 0
M  V30 5204 C 508.117 -1.2738 3.3393 0
M  V30 5205 C 507.783 -0.321757 4.49751 0
M  V30 5206 C 506.445 -0.0597611 4.81163 0
M  V30 5207 C 508.797 0.331158 5.20147 0
M  V30 5208 C 506.125 0.862715 5.80322 0
M  V30 5209 C 508.477 1.24178 6.20292 0
M  V30 5210 C 507.141 1.51252 6.50138 0
M  V30 5211 H 506.411 -0.231278 0.703983 0
M  V30 5212 H 509.058 0.108294 1.91194 0
M  V30 5213 H 507.363 -2.08921 3.3145 0
M  V30 5214 H 509.06 -1.80326 3.58167 0
M  V30 5215 H 505.65 -0.53614 4.25233 0
M  V30 5216 H 509.834 0.141826 4.96097 0
M  V30 5217 H 505.09 1.08003 6.01785 0
M  V30 5218 H 509.264 1.75381 6.73954 0
M  V30 5219 H 506.891 2.22897 7.26788 0
M  V30 5220 N 508.466 -1.55915 -0.229846 0
M  V30 5221 C 509.713 -1.78542 -0.955452 0
M  V30 5222 C 510.041 -0.610785 -1.84661 0
M  V30 5223 O 509.296 0.405213 -1.91459 0
M  V30 5224 C 509.595 -3.06845 -1.8325 0
M  V30 5225 C 509.261 -4.37395 -1.09528 0
M  V30 5226 C 507.923 -4.72868 -0.891598 0
M  V30 5227 C 510.275 -5.18029 -0.574046 0
M  V30 5228 C 507.603 -5.86496 -0.154655 0
M  V30 5229 C 509.955 -6.32423 0.149513 0
M  V30 5230 C 508.619 -6.66504 0.364519 0
M  V30 5231 H 507.889 -0.653333 -0.349625 0
M  V30 5232 H 510.536 -1.90183 -0.224235 0
M  V30 5233 H 508.841 -2.90291 -2.63132 0
M  V30 5234 H 510.538 -3.21553 -2.39592 0
M  V30 5235 H 507.128 -4.09538 -1.26399 0
M  V30 5236 H 511.312 -4.91066 -0.718899 0
M  V30 5237 H 506.568 -6.11396 0.0222356 0
M  V30 5238 H 510.742 -6.94137 0.560947 0
M  V30 5239 H 508.369 -7.54397 0.937495 0
M  V30 5240 N 509.944 0.496216 -1.49584 0
M  V30 5241 C 511.36 0.827814 -1.36453 0
M  V30 5242 C 511.56 1.97464 -0.401285 0
M  V30 5243 O 510.616 2.51958 0.165296 0
M  V30 5244 C 511.929 1.16352 -2.77277 0
M  V30 5245 C 513.477 1.27145 -2.86013 0
M  V30 5246 C 513.952 1.64042 -4.27615 0
M  V30 5247 N 515.443 1.71082 -4.30448 0
M  V30 5248 C 516.178 2.01085 -5.36984 0
M  V30 5249 N 515.674 2.2928 -6.5376 0
M  V30 5250 N 517.467 2.02376 -5.24405 0
M  V30 5251 H 509.618 -0.259947 -2.10803 0
M  V30 5252 H 511.881 -0.0537163 -0.946477 0
M  V30 5253 H 511.587 0.394153 -3.49484 0
M  V30 5254 H 511.461 2.10582 -3.12946 0
M  V30 5255 H 513.848 2.03152 -2.1404 0
M  V30 5256 H 513.929 0.309542 -2.5392 0
M  V30 5257 H 513.573 0.88583 -5.00115 0
M  V30 5258 H 513.503 2.6134 -4.57175 0
M  V30 5259 H 515.994 1.51434 -3.46232 0
M  V30 5260 H 516.307 2.51376 -7.30774 0
M  V30 5261 H 514.652 2.26726 -6.56978 0
M  V30 5262 H 517.843 1.79829 -4.32179 0
M  V30 5263 H 518.016 2.25425 -6.07526 0
M  V30 5264 N 511.423 1.38739 0.74761 0
M  V30 5265 C 512.834 1.31507 1.32524 0
M  V30 5266 C 513.185 -0.0263963 1.96182 0
M  V30 5267 O 512.31 -0.92849 1.95469 0
M  V30 5268 C 512.905 2.38162 2.40966 0
M  V30 5269 C 511.464 2.34489 2.94434 0
M  V30 5270 C 510.611 2.20712 1.67873 0
M  V30 5271 H 513.562 1.4901 0.546043 0
M  V30 5272 H 513.583 2.04222 3.21051 0
M  V30 5273 H 513.095 3.35783 1.94605 0
M  V30 5274 H 511.196 1.40467 3.45108 0
M  V30 5275 H 511.309 3.28861 3.48407 0
M  V30 5276 H 509.673 1.67667 1.91729 0
M  V30 5277 H 510.456 3.20285 1.23582 0
M  V30 5278 N 512.901 -0.976442 1.23707 0
M  V30 5279 C 514.149 -1.71487 1.06942 0
M  V30 5280 C 514.47 -1.9098 -0.393897 0
M  V30 5281 O 513.74 -1.48128 -1.28198 0
M  V30 5282 H 512.32 -0.635425 0.392739 0
M  V30 5283 H 514.982 -1.17515 1.55487 0
M  V30 5284 H 514.078 -2.70286 1.56051 0
M  V30 5285 N 514.379 -1.04941 -1.1758 0
M  V30 5286 C 515.309 -0.669172 -2.23706 0
M  V30 5287 C 516.29 0.331835 -1.66832 0
M  V30 5288 O 517.475 0.209988 -1.93061 0
M  V30 5289 C 514.605 -0.0404889 -3.47276 0
M  V30 5290 C 513.559 -0.965983 -4.16957 0
M  V30 5291 C 512.885 -0.201312 -5.34321 0
M  V30 5292 C 514.185 -2.28902 -4.69469 0
M  V30 5293 H 515.879 -1.55639 -2.55767 0
M  V30 5294 H 513.425 -0.749793 -1.22939 0
M  V30 5295 H 515.378 0.237298 -4.20731 0
M  V30 5296 H 514.102 0.881658 -3.14475 0
M  V30 5297 H 512.761 -1.22829 -3.45411 0
M  V30 5298 H 512.409 0.723519 -4.97769 0
M  V30 5299 H 512.109 -0.817968 -5.81879 0
M  V30 5300 H 513.633 0.0692499 -6.10561 0
M  V30 5301 H 515.047 -2.07132 -5.34574 0
M  V30 5302 H 513.444 -2.85942 -5.27596 0
M  V30 5303 H 514.514 -2.92937 -3.86414 0
M  V30 5304 N 515.857 1.33968 -0.830081 0
M  V30 5305 C 517.268 1.80439 -0.479455 0
M  V30 5306 C 517.619 1.68756 1.00079 0
M  V30 5307 O 516.744 1.23171 1.77927 0
M  V30 5308 C 517.339 3.27611 -0.863505 0
M  V30 5309 C 515.898 3.72133 -0.565145 0
M  V30 5310 C 515.045 2.55549 -1.07657 0
M  V30 5311 H 517.996 1.21614 -1.0196 0
M  V30 5312 H 518.017 3.8012 -0.170083 0
M  V30 5313 H 517.529 3.36082 -1.94089 0
M  V30 5314 H 515.63 3.69196 0.502536 0
M  V30 5315 H 515.743 4.65963 -1.11422 0
M  V30 5316 H 514.107 2.49788 -0.497807 0
M  V30 5317 H 514.89 2.66786 -2.16055 0
M  V30 5318 N 517.335 0.585699 1.46312 0
M  V30 5319 C 518.563 0.0781299 2.06752 0
M  V30 5320 C 518.978 -1.22812 1.43396 0
M  V30 5321 O 518.335 -1.74318 0.540314 0
M  V30 5322 C 518.386 -0.0911927 3.61385 0
M  V30 5323 O 518.107 1.16336 4.22371 0
M  V30 5324 C 519.608 -0.632765 4.38761 0
M  V30 5325 H 516.828 0.0588188 0.668417 0
M  V30 5326 H 519.372 0.807218 1.87894 0
M  V30 5327 H 517.527 -0.770514 3.7966 0
M  V30 5328 H 517.941 0.979082 5.15281 0
M  V30 5329 H 519.415 -0.70041 5.47538 0
M  V30 5330 H 519.892 -1.65039 4.07012 0
M  V30 5331 H 520.498 0.0117856 4.25298 0
M  V30 5332 N 518.813 -1.54241 0.323641 0
M  V30 5333 C 519.723 -2.28033 -0.551205 0
M  V30 5334 C 520.739 -1.32388 -1.12913 0
M  V30 5335 O 521.915 -1.65403 -1.14908 0
M  V30 5336 C 518.98 -3.02382 -1.69606 0
M  V30 5337 C 518.041 -4.13612 -1.14993 0
M  V30 5338 C 517.274 -4.84407 -2.24022 0
M  V30 5339 O 517.497 -4.54716 -3.44368 0
M  V30 5340 O 516.431 -5.71312 -1.89436 0
M  V30 5341 H 520.257 -3.03662 0.048066 0
M  V30 5342 H 517.842 -1.49133 0.0893289 0
M  V30 5343 H 519.724 -3.48941 -2.36259 0
M  V30 5344 H 518.399 -2.29628 -2.28151 0
M  V30 5345 H 517.306 -3.71402 -0.448484 0
M  V30 5346 H 518.639 -4.8841 -0.609608 0
M  V30 5347 N 520.291 -0.0518155 -1.57515 0
M  V30 5348 C 521.238 0.922352 -2.11569 0
M  V30 5349 C 522.208 1.30842 -1.02321 0
M  V30 5350 O 523.393 1.39778 -1.29872 0
M  V30 5351 C 520.533 2.19167 -2.6657 0
M  V30 5352 C 519.646 1.86003 -3.89906 0
M  V30 5353 C 518.781 3.07398 -4.33221 0
M  V30 5354 C 517.82 2.70158 -5.49255 0
M  V30 5355 N 516.957 3.84248 -5.8762 0
M  V30 5356 H 521.797 0.454506 -2.94514 0
M  V30 5357 H 519.334 0.212718 -1.45554 0
M  V30 5358 H 521.292 2.93443 -2.96559 0
M  V30 5359 H 519.922 2.63528 -1.86421 0
M  V30 5360 H 518.974 1.01874 -3.66505 0
M  V30 5361 H 520.286 1.54592 -4.74239 0
M  V30 5362 H 519.44 3.89972 -4.64765 0
M  V30 5363 H 518.179 3.41988 -3.477 0
M  V30 5364 H 517.184 1.86001 -5.17382 0
M  V30 5365 H 518.409 2.36759 -6.36492 0
M  V30 5366 H 516.355 4.18638 -5.05053 0
M  V30 5367 H 516.272 3.56538 -6.66646 0
M  V30 5368 H 517.54 4.6746 -6.2378 0
M  V30 5369 N 521.769 1.56035 0.221574 0
M  V30 5370 C 523.015 1.79312 0.947372 0
M  V30 5371 C 523.348 0.621453 1.83988 0
M  V30 5372 O 522.623 -0.379287 1.90766 0
M  V30 5373 C 522.906 3.1267 1.78633 0
M  V30 5374 C 522.759 4.40284 0.920312 0
M  V30 5375 C 524.078 3.4247 2.7641 0
M  V30 5376 H 521.197 0.652328 0.342982 0
M  V30 5377 H 523.839 1.88765 0.216244 0
M  V30 5378 H 521.989 3.04741 2.40967 0
M  V30 5379 H 523.661 4.60232 0.313718 0
M  V30 5380 H 521.904 4.33212 0.225734 0
M  V30 5381 H 522.575 5.30033 1.54171 0
M  V30 5382 H 525.051 3.50526 2.24211 0
M  V30 5383 H 523.927 4.3695 3.32213 0
M  V30 5384 H 524.188 2.64635 3.54148 0
M  V30 5385 N 523.247 -0.488276 1.49845 0
M  V30 5386 C 524.21 -1.57069 1.66919 0
M  V30 5387 C 525.21 -1.51445 0.540479 0
M  V30 5388 O 526.4 -1.5437 0.807188 0
M  V30 5389 C 523.532 -2.96718 1.67844 0
M  V30 5390 H 524.725 -1.43254 2.63474 0
M  V30 5391 H 522.278 -0.713435 1.39068 0
M  V30 5392 H 523.013 -3.15996 0.7292 0
M  V30 5393 H 522.798 -3.02208 2.49826 0
M  V30 5394 H 524.288 -3.75335 1.83066 0
M  V30 5395 N 524.725 -1.39134 -0.740242 0
M  V30 5396 C 525.688 -1.37217 -1.83587 0
M  V30 5397 C 526.688 -0.270221 -1.58513 0
M  V30 5398 O 527.878 -0.527843 -1.6601 0
M  V30 5399 C 525.01 -1.13959 -3.21288 0
M  V30 5400 H 526.203 -2.34705 -1.86691 0
M  V30 5401 H 523.756 -1.24622 -0.94335 0
M  V30 5402 H 524.491 -0.17131 -3.23847 0
M  V30 5403 H 524.276 -1.93754 -3.40884 0
M  V30 5404 H 525.766 -1.15346 -4.01354 0
M  V30 5405 N 526.204 0.969867 -1.24223 0
M  V30 5406 C 527.453 1.70687 -1.07466 0
M  V30 5407 C 527.766 1.91736 0.386861 0
M  V30 5408 O 528.972 2.62986 0.674581 0
M  V30 5409 C 527.428 3.07217 -1.87472 0
M  V30 5410 C 527.036 2.94018 -3.3802 0
M  V30 5411 C 528.78 3.84804 -1.79237 0
M  V30 5412 C 526.687 4.25844 -4.10379 0
M  V30 5413 H 525.617 0.640067 -0.398536 0
M  V30 5414 H 528.268 1.08092 -1.48285 0
M  V30 5415 H 526.65 3.70628 -1.39466 0
M  V30 5416 H 527.824 2.39632 -3.9359 0
M  V30 5417 H 526.139 2.29898 -3.47183 0
M  V30 5418 H 528.736 4.82417 -2.30603 0
M  V30 5419 H 529.079 4.09356 -0.757197 0
M  V30 5420 H 529.612 3.28115 -2.24912 0
M  V30 5421 H 526.351 4.06486 -5.14246 0
M  V30 5422 H 525.871 4.80054 -3.59594 0
M  V30 5423 H 527.55 4.94475 -4.17257 0
M  V30 5424 N 527.682 1.05563 1.17022 0
M  V30 5425 C 528.632 0.630007 2.19123 0
M  V30 5426 C 529.616 -0.335472 1.57364 0
M  V30 5427 O 530.808 -0.1521 1.76345 0
M  V30 5428 C 527.937 0.0101676 3.43298 0
M  V30 5429 C 527.023 0.999698 4.12149 0
M  V30 5430 N 527.414 2.17251 4.56766 0
M  V30 5431 C 525.712 0.829 4.38228 0
M  V30 5432 C 526.413 2.79883 5.09942 0
M  V30 5433 N 525.389 2.07656 5.02374 0
M  V30 5434 H 529.191 1.52353 2.51328 0
M  V30 5435 H 526.705 0.926288 1.33393 0
M  V30 5436 H 528.702 -0.312541 4.15727 0
M  V30 5437 H 527.362 -0.878707 3.12584 0
M  V30 5438 H 528.373 2.55067 4.50734 0
M  V30 5439 H 525.05 -0.00850974 4.17499 0
M  V30 5440 H 526.44 3.79362 5.54558 0
M  V30 5441 N 529.16 -1.33526 0.837174 0
M  V30 5442 C 530.576 -1.50727 0.524743 0
M  V30 5443 C 530.776 -1.77792 -0.948279 0
M  V30 5444 O 529.832 -1.83719 -1.73216 0
M  V30 5445 C 531.145 -2.66299 1.39661 0
M  V30 5446 C 532.693 -2.80183 1.39521 0
M  V30 5447 C 533.168 -3.98815 2.25189 0
M  V30 5448 N 534.659 -4.06047 2.2289 0
M  V30 5449 C 535.394 -4.97032 2.85915 0
M  V30 5450 N 534.89 -5.93143 3.57985 0
M  V30 5451 N 536.683 -4.90015 2.75394 0
M  V30 5452 H 528.834 -1.1422 1.79074 0
M  V30 5453 H 531.097 -0.561399 0.763894 0
M  V30 5454 H 530.803 -2.52974 2.4433 0
M  V30 5455 H 530.677 -3.61663 1.07145 0
M  V30 5456 H 533.064 -2.92942 0.356253 0
M  V30 5457 H 533.145 -1.85586 1.76044 0
M  V30 5458 H 532.789 -3.86817 3.29143 0
M  V30 5459 H 532.719 -4.92654 1.86009 0
M  V30 5460 H 535.21 -3.37262 1.70478 0
M  V30 5461 H 535.523 -6.59227 4.03286 0
M  V30 5462 H 533.868 -5.93223 3.62093 0
M  V30 5463 H 537.059 -4.13894 2.18654 0
M  V30 5464 H 537.232 -5.60724 3.24796 0
M  V30 5465 N 530.638 -0.59345 -1.46 0
M  V30 5466 C 531.568 0.121192 -2.33185 0
M  V30 5467 C 532.549 0.872977 -1.4599 0
M  V30 5468 O 533.734 0.846321 -1.74789 0
M  V30 5469 C 530.864 1.12844 -3.28456 0
M  V30 5470 C 529.818 0.4908 -4.25177 0
M  V30 5471 C 529.144 1.60529 -5.10034 0
M  V30 5472 C 530.444 -0.578949 -5.19081 0
M  V30 5473 H 532.138 -0.606767 -2.93187 0
M  V30 5474 H 529.684 -0.293242 -1.40983 0
M  V30 5475 H 531.637 1.63684 -3.88311 0
M  V30 5476 H 530.361 1.88681 -2.66584 0
M  V30 5477 H 529.02 0.00339328 -3.666 0
M  V30 5478 H 528.668 2.35359 -4.44539 0
M  V30 5479 H 528.368 1.18422 -5.75543 0
M  V30 5480 H 529.892 2.11623 -5.72755 0
M  V30 5481 H 531.306 -0.155199 -5.7309 0
M  V30 5482 H 529.703 -0.920947 -5.92991 0
M  V30 5483 H 530.773 -1.46109 -4.62364 0
M  V30 5484 N 532.116 1.54067 -0.331816 0
M  V30 5485 C 533.364 2.00319 0.267739 0
M  V30 5486 C 533.685 1.22148 1.52003 0
M  V30 5487 O 532.955 0.325494 1.93177 0
M  V30 5488 H 531.535 0.740014 0.101922 0
M  V30 5489 H 534.197 1.89628 -0.450267 0
M  V30 5490 H 533.293 3.07765 0.518385 0
M  V30 5491 N 533.594 0.0601682 1.57485 0
M  V30 5492 C 534.843 -0.611101 1.9222 0
M  V30 5493 C 535.156 -1.71469 0.941159 0
M  V30 5494 O 536.362 -2.44473 1.18089 0
M  V30 5495 C 534.818 -1.13832 3.41424 0
M  V30 5496 C 534.426 -0.0663596 4.47951 0
M  V30 5497 C 536.17 -1.78432 3.85178 0
M  V30 5498 C 534.077 -0.606965 5.88277 0
M  V30 5499 H 533.007 -0.232033 0.71741 0
M  V30 5500 H 535.658 0.130518 1.83035 0
M  V30 5501 H 534.04 -1.93254 3.45643 0
M  V30 5502 H 535.214 0.707682 4.55333 0
M  V30 5503 H 533.529 0.482715 4.13593 0
M  V30 5504 H 536.126 -2.1989 4.87394 0
M  V30 5505 H 536.469 -2.63966 3.21913 0
M  V30 5506 H 537.002 -1.05651 3.83514 0
M  V30 5507 H 533.741 0.21095 6.5516 0
M  V30 5508 H 533.261 -1.34879 5.84438 0
M  V30 5509 H 534.94 -1.08704 6.37803 0
M  V30 5510 N 535.072 -1.5615 -0.213296 0
M  V30 5511 C 536.32 -1.79191 -0.934612 0
M  V30 5512 C 536.641 -0.630112 -1.84539 0
M  V30 5513 O 535.911 0.35257 -1.92701 0
M  V30 5514 H 534.491 -0.660937 -0.348097 0
M  V30 5515 H 537.153 -1.93618 -0.22317 0
M  V30 5516 H 536.249 -2.71656 -1.53654 0
M  V30 5517 N 536.55 0.480323 -1.50102 0
M  V30 5518 C 537.778 1.25657 -1.64371 0
M  V30 5519 C 538.193 1.86011 -0.323316 0
M  V30 5520 O 537.55 1.68803 0.693682 0
M  V30 5521 C 537.601 2.37197 -2.728 0
M  V30 5522 O 537.322 1.7932 -3.9972 0
M  V30 5523 C 538.823 3.2823 -2.9796 0
M  V30 5524 H 536.043 0.380369 -0.552775 0
M  V30 5525 H 538.587 0.574379 -1.96268 0
M  V30 5526 H 536.742 3.01208 -2.43623 0
M  V30 5527 H 537.156 2.52701 -4.59611 0
M  V30 5528 H 538.63 4.02725 -3.77513 0
M  V30 5529 H 539.107 3.86462 -2.08671 0
M  V30 5530 H 539.713 2.69964 -3.28633 0
M  V30 5531 N 538.028 1.39524 0.732853 0
M  V30 5532 C 539.256 1.40143 1.52209 0
M  V30 5533 C 539.671 -0.00348836 1.888 0
M  V30 5534 O 539.028 -0.975357 1.5425 0
M  V30 5535 C 539.079 2.27632 2.8083 0
M  V30 5536 O 538.8 3.62654 2.45792 0
M  V30 5537 C 540.301 2.36658 3.74844 0
M  V30 5538 H 537.521 0.478604 0.470297 0
M  V30 5539 H 540.065 1.83366 0.905388 0
M  V30 5540 H 538.22 1.87818 3.38826 0
M  V30 5541 H 538.634 4.08941 3.28431 0
M  V30 5542 H 540.108 3.02118 4.61984 0
M  V30 5543 H 540.585 1.38638 4.16745 0
M  V30 5544 H 541.191 2.76951 3.22766 0
M  V30 5545 N 539.506 -0.963266 1.24736 0
M  V30 5546 C 540.783 -1.68248 0.9976 0
M  V30 5547 C 541.163 -2.05599 -0.478776 0
M  V30 5548 O 540.511 -1.7626 -1.45412 0
M  V30 5549 C 540.721 -2.91118 1.92487 0
M  V30 5550 C 542.069 -3.63261 2.19833 0
M  V30 5551 O 543.093 -3.01184 1.90176 0
M  V30 5552 O 541.952 -4.75019 2.7022 0
M  V30 5553 H 539.046 -0.735744 0.377637 0
M  V30 5554 H 541.592 -1.01696 1.35853 0
M  V30 5555 H 540.364 -2.60242 2.92215 0
M  V30 5556 H 539.987 -3.65402 1.56738 0
M  V30 5557 N 540.985 -1.06182 -1.16461 0
M  V30 5558 C 541.932 -0.671613 -2.20812 0
M  V30 5559 C 542.902 0.331186 -1.62765 0
M  V30 5560 O 544.087 0.22033 -1.89524 0
M  V30 5561 C 541.227 -0.063029 -3.45042 0
M  V30 5562 C 540.34 -1.11587 -4.1734 0
M  V30 5563 C 539.475 -0.473546 -5.29085 0
M  V30 5564 C 538.514 -1.51 -5.93182 0
M  V30 5565 N 537.651 -0.891118 -6.96422 0
M  V30 5566 H 542.491 -1.56589 -2.53542 0
M  V30 5567 H 540.028 -0.782951 -1.24532 0
M  V30 5568 H 541.986 0.307344 -4.16066 0
M  V30 5569 H 540.616 0.794663 -3.12866 0
M  V30 5570 H 539.668 -1.60396 -3.44931 0
M  V30 5571 H 540.98 -1.90221 -4.61104 0
M  V30 5572 H 540.134 -0.0501432 -6.06679 0
M  V30 5573 H 538.873 0.344687 -4.8648 0
M  V30 5574 H 537.878 -1.94331 -5.14311 0
M  V30 5575 H 539.103 -2.33031 -6.37866 0
M  V30 5576 H 537.049 -0.0935753 -6.55933 0
M  V30 5577 H 536.966 -1.61486 -7.38551 0
M  V30 5578 H 538.234 -0.492822 -7.77941 0
M  V30 5579 N 542.463 1.3308 -0.844243 0
M  V30 5580 C 543.712 1.96868 -0.438833 0
M  V30 5581 C 544.025 1.67599 1.00846 0
M  V30 5582 O 545.231 2.25043 1.51881 0
M  V30 5583 C 543.687 3.5234 -0.73377 0
M  V30 5584 C 543.295 3.90481 -2.1961 0
M  V30 5585 C 545.039 4.22653 -0.395574 0
M  V30 5586 C 542.946 5.38954 -2.43481 0
M  V30 5587 H 541.876 0.736749 -0.160364 0
M  V30 5588 H 544.527 1.51623 -1.03358 0
M  V30 5589 H 542.909 3.95941 -0.068589 0
M  V30 5590 H 544.083 3.57922 -2.90221 0
M  V30 5591 H 542.398 3.33165 -2.4978 0
M  V30 5592 H 544.995 5.31848 -0.551477 0
M  V30 5593 H 545.338 4.11004 0.661921 0
M  V30 5594 H 545.871 3.84601 -1.01621 0
M  V30 5595 H 542.61 5.55612 -3.47816 0
M  V30 5596 H 542.13 5.72954 -1.77437 0
M  V30 5597 H 543.809 6.05907 -2.26905 0
M  V30 5598 N 543.941 0.601185 1.45683 0
M  V30 5599 C 545.188 0.0938811 2.02282 0
M  V30 5600 C 545.516 -1.27315 1.47041 0
M  V30 5601 O 544.771 -1.85193 0.632623 0
M  V30 5602 C 545.07 -0.00222425 3.574 0
M  V30 5603 C 544.736 1.29963 4.31764 0
M  V30 5604 C 543.398 1.65625 4.51798 0
M  V30 5605 C 545.75 2.1603 4.74321 0
M  V30 5606 C 543.078 2.87119 5.11644 0
M  V30 5607 C 545.43 3.36766 5.3551 0
M  V30 5608 C 544.094 3.72689 5.53768 0
M  V30 5609 H 543.364 0.0343535 0.740203 0
M  V30 5610 H 546.011 0.781522 1.74827 0
M  V30 5611 H 544.316 -0.773096 3.84097 0
M  V30 5612 H 546.013 -0.410794 3.9889 0
M  V30 5613 H 542.603 1.01204 4.1648 0
M  V30 5614 H 546.787 1.89778 4.58582 0
M  V30 5615 H 542.043 3.15065 5.2397 0
M  V30 5616 H 546.217 4.03713 5.67441 0
M  V30 5617 H 543.844 4.66918 5.99909 0
M  V30 5618 N 545.419 -1.53889 0.339982 0
M  V30 5619 C 546.349 -2.27843 -0.510856 0
M  V30 5620 C 547.33 -1.29267 -1.10563 0
M  V30 5621 O 548.515 -1.58104 -1.12768 0
M  V30 5622 C 545.645 -3.04857 -1.66372 0
M  V30 5623 C 544.599 -4.10907 -1.19746 0
M  V30 5624 C 543.925 -4.75855 -2.43857 0
M  V30 5625 C 545.225 -5.21435 -0.300501 0
M  V30 5626 H 546.919 -2.99212 0.106067 0
M  V30 5627 H 544.465 -1.43904 0.0524533 0
M  V30 5628 H 546.418 -3.5533 -2.26537 0
M  V30 5629 H 545.142 -2.31133 -2.30749 0
M  V30 5630 H 543.801 -3.61342 -0.618654 0
M  V30 5631 H 543.449 -3.9873 -3.06633 0
M  V30 5632 H 543.149 -5.47502 -2.13343 0
M  V30 5633 H 544.673 -5.2911 -3.04754 0
M  V30 5634 H 546.087 -5.67565 -0.80889 0
M  V30 5635 H 544.484 -6.00036 -0.0874076 0
M  V30 5636 H 545.554 -4.80328 0.664321 0
M  V30 5637 N 546.897 -0.0685191 -1.57451 0
M  V30 5638 C 547.807 0.914677 -2.16034 0
M  V30 5639 C 548.823 1.32938 -1.12265 0
M  V30 5640 O 549.999 1.40275 -1.44516 0
M  V30 5641 C 547.064 2.16519 -2.70777 0
M  V30 5642 C 546.125 1.80721 -3.89408 0
M  V30 5643 C 545.358 2.9981 -4.41531 0
M  V30 5644 O 545.581 4.13727 -3.92666 0
M  V30 5645 O 544.515 2.79817 -5.32903 0
M  V30 5646 H 548.341 0.446364 -3.00402 0
M  V30 5647 H 545.926 0.154367 -1.486 0
M  V30 5648 H 547.808 2.89856 -3.05878 0
M  V30 5649 H 546.483 2.62454 -1.89471 0
M  V30 5650 H 545.39 1.04646 -3.59166 0
M  V30 5651 H 546.723 1.39571 -4.71997 0
M  V30 5652 N 548.375 1.56261 0.205012 0
M  V30 5653 C 549.622 1.8004 0.926927 0
M  V30 5654 C 549.95 0.640086 1.83666 0
M  V30 5655 O 549.205 -0.374702 1.92079 0
M  V30 5656 C 549.504 3.09722 1.78345 0
M  V30 5657 C 549.17 4.39082 1.02555 0
M  V30 5658 C 547.832 4.74226 0.816256 0
M  V30 5659 C 550.184 5.18877 0.491559 0
M  V30 5660 C 547.512 5.86668 0.0613287 0
M  V30 5661 C 549.864 6.32105 -0.250107 0
M  V30 5662 C 548.528 6.6584 -0.470508 0
M  V30 5663 H 547.798 0.658812 0.339187 0
M  V30 5664 H 550.445 1.90515 0.19395 0
M  V30 5665 H 548.75 2.9444 2.5848 0
M  V30 5666 H 550.447 3.25324 2.34446 0
M  V30 5667 H 547.037 4.11497 1.19868 0
M  V30 5668 H 551.221 4.92147 0.640684 0
M  V30 5669 H 546.477 6.11283 -0.119501 0
M  V30 5670 H 550.651 6.93157 -0.671307 0
M  V30 5671 H 548.278 7.5281 -1.05739 0
M  V30 5672 N 549.853 -0.472356 1.50355 0
M  V30 5673 C 550.763 -1.59637 1.7191 0
M  V30 5674 C 551.779 -1.63247 0.602195 0
M  V30 5675 O 552.955 -1.81139 0.880369 0
M  V30 5676 C 550.02 -2.9586 1.80742 0
M  V30 5677 C 549.081 -3.02649 3.04471 0
M  V30 5678 C 548.314 -4.32374 3.12872 0
M  V30 5679 O 548.537 -5.22807 2.28099 0
M  V30 5680 O 547.471 -4.44728 4.05587 0
M  V30 5681 H 551.297 -1.44373 2.67189 0
M  V30 5682 H 548.882 -0.651717 1.34436 0
M  V30 5683 H 550.764 -3.7677 1.88739 0
M  V30 5684 H 549.439 -3.11325 0.88647 0
M  V30 5685 H 548.346 -2.20821 3.01975 0
M  V30 5686 H 549.679 -2.92119 3.9614 0
M  V30 5687 N 551.331 -1.39911 -0.725443 0
M  V30 5688 C 552.241 -1.41688 -1.8698 0
M  V30 5689 C 553.257 -0.310579 -1.71206 0
M  V30 5690 O 554.433 -0.55359 -1.93642 0
M  V30 5691 C 551.498 -1.26811 -3.22676 0
M  V30 5692 C 550.559 -2.47497 -3.50776 0
M  V30 5693 C 549.792 -2.3332 -4.79997 0
M  V30 5694 O 550.015 -1.34175 -5.54394 0
M  V30 5695 O 548.949 -3.22498 -5.08211 0
M  V30 5696 H 552.775 -2.38171 -1.88436 0
M  V30 5697 H 550.36 -1.21128 -0.874548 0
M  V30 5698 H 552.242 -1.20684 -4.03749 0
M  V30 5699 H 550.917 -0.334289 -3.21969 0
M  V30 5700 H 549.824 -2.59201 -2.69751 0
M  V30 5701 H 551.157 -3.39606 -3.5627 0
M  V30 5702 N 552.809 0.956637 -1.25245 0
M  V30 5703 C 554.22 1.51569 -1.09012 0
M  V30 5704 C 554.571 1.93322 0.334813 0
M  V30 5705 O 553.696 1.78421 1.22454 0
M  V30 5706 C 554.291 2.75444 -1.97271 0
M  V30 5707 C 552.85 3.27669 -1.8523 0
M  V30 5708 C 551.997 2.00517 -1.91542 0
M  V30 5709 H 554.948 0.773746 -1.3856 0
M  V30 5710 H 554.969 3.4919 -1.51151 0
M  V30 5711 H 554.481 2.45024 -3.00973 0
M  V30 5712 H 552.582 3.62914 -0.844045 0
M  V30 5713 H 552.695 3.9582 -2.69932 0
M  V30 5714 H 551.059 2.15727 -1.35404 0
M  V30 5715 H 551.842 1.72448 -2.96844 0
M  V30 5716 N 554.287 1.06798 1.15896 0
M  V30 5717 C 555.534 0.787767 1.86549 0
M  V30 5718 C 555.862 -0.685959 1.82002 0
M  V30 5719 O 555.117 -1.5188 1.23414 0
M  V30 5720 C 555.416 1.23414 3.35416 0
M  V30 5721 C 555.082 2.71285 3.6016 0
M  V30 5722 C 553.744 3.11676 3.66622 0
M  V30 5723 C 556.096 3.6676 3.7032 0
M  V30 5724 C 553.424 4.4637 3.8075 0
M  V30 5725 C 555.776 5.01209 3.8597 0
M  V30 5726 C 554.44 5.41229 3.90676 0
M  V30 5727 H 553.71 0.288264 0.682631 0
M  V30 5728 H 556.357 1.338 1.37003 0
M  V30 5729 H 554.662 0.60319 3.87129 0
M  V30 5730 H 556.359 0.994298 3.88477 0
M  V30 5731 H 552.949 2.39015 3.55767 0
M  V30 5732 H 557.133 3.36685 3.64633 0
M  V30 5733 H 552.389 4.76855 3.82648 0
M  V30 5734 H 556.563 5.75067 3.92773 0
M  V30 5735 H 554.19 6.45602 4.01375 0
M  V30 5736 N 555.766 -1.3263 0.851289 0
M  V30 5737 C 557.012 -1.98061 0.462963 0
M  V30 5738 C 557.367 -1.66162 -0.969948 0
M  V30 5739 O 556.66 -0.937723 -1.67085 0
M  V30 5740 C 556.854 -3.51713 0.635015 0
M  V30 5741 C 556.683 -3.98544 2.0831 0
M  V30 5742 C 555.453 -4.25787 2.72091 0
M  V30 5743 C 557.651 -4.13858 3.0533 0
M  V30 5744 N 555.633 -4.58842 4.07845 0
M  V30 5745 C 557.004 -4.50412 4.26063 0
M  V30 5746 C 559.059 -3.96182 3.0157 0
M  V30 5747 C 557.762 -4.71136 5.43529 0
M  V30 5748 C 559.788 -4.18088 4.18278 0
M  V30 5749 C 559.15 -4.54956 5.37768 0
M  V30 5750 H 555.249 -0.750976 0.218082 0
M  V30 5751 H 557.833 -1.60514 1.10197 0
M  V30 5752 H 556.004 -3.88391 0.0257298 0
M  V30 5753 H 557.736 -4.04118 0.216915 0
M  V30 5754 H 554.491 -4.17734 2.23149 0
M  V30 5755 H 554.915 -4.7956 4.77862 0
M  V30 5756 H 559.557 -3.66783 2.1031 0
M  V30 5757 H 557.275 -4.9939 6.35323 0
M  V30 5758 H 560.861 -4.05918 4.168 0
M  V30 5759 H 559.741 -4.71567 6.26573 0
M  V30 5760 N 557.244 -0.608902 -1.45362 0
M  V30 5761 C 558.492 -0.104401 -2.0183 0
M  V30 5762 C 558.813 1.27007 -1.47967 0
M  V30 5763 O 558.083 1.83924 -0.674455 0
M  V30 5764 H 556.663 -0.0356042 -0.746151 0
M  V30 5765 H 559.325 -0.790596 -1.78145 0
M  V30 5766 H 558.421 -0.0551793 -3.12051 0
M  V30 5767 N 558.722 1.53707 -0.348139 0
M  V30 5768 C 560.133 1.86213 0.134797 0
M  V30 5769 C 560.484 1.26925 1.49614 0
M  V30 5770 O 559.609 0.584573 2.08355 0
M  V30 5771 C 560.204 3.37866 0.251371 0
M  V30 5772 C 558.763 3.70233 0.678543 0
M  V30 5773 C 557.91 2.76683 -0.184925 0
M  V30 5774 H 560.861 1.48204 -0.567571 0
M  V30 5775 H 560.882 3.64908 1.07806 0
M  V30 5776 H 560.394 3.80988 -0.739581 0
M  V30 5777 H 558.495 3.32659 1.67835 0
M  V30 5778 H 558.608 4.76836 0.465251 0
M  V30 5779 H 556.972 2.52374 0.343465 0
M  V30 5780 H 557.755 3.22635 -1.1731 0
M  V30 5781 N 560.2 0.0768682 1.57412 0
M  V30 5782 C 561.11 -0.903207 2.16516 0
M  V30 5783 C 562.126 -1.32341 1.12968 0
M  V30 5784 O 563.302 -1.39507 1.45258 0
M  V30 5785 C 560.367 -2.1508 2.71922 0
M  V30 5786 C 559.428 -1.78653 3.90361 0
M  V30 5787 C 558.661 -2.97465 4.43114 0
M  V30 5788 O 558.884 -4.11638 3.94854 0
M  V30 5789 O 557.818 -2.76987 5.3438 0
M  V30 5790 H 561.644 -0.430427 3.00634 0
M  V30 5791 H 559.229 -0.146485 1.4868 0
M  V30 5792 H 561.111 -2.8823 3.07411 0
M  V30 5793 H 559.786 -2.61446 1.9086 0
M  V30 5794 H 558.693 -1.0274 3.59716 0
M  V30 5795 H 560.026 -1.37066 4.7273 0
M  V30 5796 N 561.678 -1.56367 -0.196722 0
M  V30 5797 C 562.918 -1.82315 -0.92415 0
M  V30 5798 C 563.282 -0.654117 -1.80514 0
M  V30 5799 O 564.483 -0.79345 -2.56823 0
M  V30 5800 C 562.754 -3.13279 -1.72021 0
M  V30 5801 S 564.313 -3.60627 -2.49988 0
M  V30 5802 H 561.131 -0.639862 -0.309997 0
M  V30 5803 H 563.733 -1.94597 -0.187684 0
M  V30 5804 H 562.437 -3.96379 -1.06358 0
M  V30 5805 H 561.968 -3.03871 -2.49852 0
M  V30 5806 H 563.983 -3.25934 -3.74141 0
M  V30 5807 N 563.156 0.464375 -1.50603 0
M  V30 5808 C 564.104 1.58224 -1.70493 0
M  V30 5809 C 565.098 1.59492 -0.570836 0
M  V30 5810 O 566.304 1.63561 -0.751517 0
M  V30 5811 H 562.679 0.525161 -0.538247 0
M  V30 5812 H 564.65 1.38613 -2.64252 0
M  V30 5813 C 563.399 2.96113 -1.82243 0
M  V30 5814 H 562.722 2.95858 -2.68901 0
M  V30 5815 H 564.162 3.73769 -2.00182 0
M  V30 5816 C 562.621 3.31946 -0.575628 0
M  V30 5817 O 563.151 4.00708 0.282152 0
M  V30 5818 N 561.357 2.87436 -0.427665 0
M  V30 5819 H 560.904 2.31652 -1.12674 0
M  V30 5820 H 560.862 3.11776 0.405379 0
M  V30 5821 N 564.634 1.40294 0.718013 0
M  V30 5822 C 565.859 1.41941 1.5122 0
M  V30 5823 C 566.284 0.0202371 1.88089 0
M  V30 5824 O 565.642 -0.971078 1.53101 0
M  V30 5825 C 565.69 2.3141 2.76554 0
M  V30 5826 O 564.794 1.75567 3.73162 0
M  V30 5827 H 564.135 0.482644 0.456016 0
M  V30 5828 H 566.665 1.84494 0.884478 0
M  V30 5829 H 566.675 2.46513 3.25108 0
M  V30 5830 H 565.35 3.33085 2.49053 0
M  V30 5831 H 563.927 1.69798 3.31999 0
M  V30 5832 N 566.112 -0.949982 1.2575 0
M  V30 5833 C 567.042 -2.06483 1.09028 0
M  V30 5834 C 568.023 -1.701 -0.00201532 0
M  V30 5835 O 569.208 -1.93469 0.168383 0
M  V30 5836 C 566.338 -3.39899 0.71316 0
M  V30 5837 C 565.292 -3.90309 1.75621 0
M  V30 5838 C 564.618 -5.20274 1.23365 0
M  V30 5839 C 565.918 -4.16169 3.15596 0
M  V30 5840 H 567.612 -2.20731 2.02283 0
M  V30 5841 H 565.158 -1.06066 0.973964 0
M  V30 5842 H 567.111 -4.17346 0.58309 0
M  V30 5843 H 565.835 -3.25602 -0.255091 0
M  V30 5844 H 564.494 -3.15035 1.8748 0
M  V30 5845 H 564.142 -5.02351 0.255491 0
M  V30 5846 H 563.842 -5.54971 1.93082 0
M  V30 5847 H 565.366 -6.00314 1.11607 0
M  V30 5848 H 566.78 -4.84259 3.06864 0
M  V30 5849 H 565.177 -4.62131 3.82825 0
M  V30 5850 H 566.247 -3.22273 3.6231 0
M  V30 5851 N 567.59 -1.07411 -1.15328 0
M  V30 5852 C 568.522 -0.652924 -2.19703 0
M  V30 5853 C 569.535 0.294869 -1.60107 0
M  V30 5854 O 570.724 0.0840932 -1.78302 0
M  V30 5855 C 567.824 0.061434 -3.38844 0
M  V30 5856 C 566.997 -0.902696 -4.27984 0
M  V30 5857 C 566.056 -0.225521 -5.25717 0
M  V30 5858 O 565.082 -0.86676 -5.62562 0
M  V30 5859 N 566.284 1.02858 -5.71315 0
M  V30 5860 H 569.049 -1.55081 -2.56457 0
M  V30 5861 H 566.61 -0.958883 -1.30449 0
M  V30 5862 H 568.602 0.525145 -4.01278 0
M  V30 5863 H 567.172 0.861269 -3.00501 0
M  V30 5864 H 566.392 -1.54551 -3.6264 0
M  V30 5865 H 567.68 -1.55636 -4.84412 0
M  V30 5866 H 567.078 1.56948 -5.43492 0
M  V30 5867 H 565.635 1.43596 -6.35786 0
M  V30 5868 N 569.068 1.32177 -0.85831 0
M  V30 5869 C 570.315 1.97125 -0.463484 0
M  V30 5870 C 570.643 1.67907 0.981705 0
M  V30 5871 O 569.898 0.961717 1.70439 0
M  V30 5872 C 570.197 3.51372 -0.653658 0
M  V30 5873 C 569.863 4.00584 -2.06987 0
M  V30 5874 C 568.525 4.13733 -2.4572 0
M  V30 5875 C 570.877 4.26624 -2.99402 0
M  V30 5876 C 568.205 4.50268 -3.76132 0
M  V30 5877 C 570.557 4.64618 -4.29316 0
M  V30 5878 C 569.221 4.75975 -4.67979 0
M  V30 5879 H 568.491 0.72133 -0.169601 0
M  V30 5880 H 571.138 1.57517 -1.08907 0
M  V30 5881 H 569.443 3.91761 0.0551328 0
M  V30 5882 H 571.14 3.99655 -0.328163 0
M  V30 5883 H 567.73 3.90837 -1.75911 0
M  V30 5884 H 571.914 4.1597 -2.70708 0
M  V30 5885 H 567.17 4.57256 -4.05865 0
M  V30 5886 H 571.344 4.83722 -5.00985 0
M  V30 5887 H 568.971 5.04041 -5.69076 0
M  V30 5888 N 570.547 0.616602 1.45037 0
M  V30 5889 C 571.793 0.115501 2.02471 0
M  V30 5890 C 572.126 -1.25406 1.4828 0
M  V30 5891 O 571.401 -1.82922 0.661051 0
M  V30 5892 C 571.684 0.0863588 3.59996 0
M  V30 5893 C 571.537 1.48723 4.24501 0
M  V30 5894 C 572.856 -0.596762 4.36035 0
M  V30 5895 H 569.975 0.0434461 0.735718 0
M  V30 5896 H 572.617 0.7903 1.72784 0
M  V30 5897 H 570.767 -0.488277 3.85419 0
M  V30 5898 H 572.439 2.10964 4.10234 0
M  V30 5899 H 570.682 2.04534 3.82555 0
M  V30 5900 H 571.353 1.419 5.3345 0
M  V30 5901 H 573.829 -0.10824 4.15959 0
M  V30 5902 H 572.705 -0.586289 5.4576 0
M  V30 5903 H 572.966 -1.66451 4.09569 0
M  V30 5904 N 572.025 -1.5352 0.356285 0
M  V30 5905 C 573.271 -2.02104 -0.229271 0
M  V30 5906 C 573.626 -1.23923 -1.47176 0
M  V30 5907 O 572.919 -0.321957 -1.88876 0
M  V30 5908 C 573.113 -3.52607 -0.583369 0
M  V30 5909 C 572.942 -4.4536 0.623253 0
M  V30 5910 C 571.712 -4.92446 1.13248 0
M  V30 5911 C 573.91 -4.92375 1.48563 0
M  V30 5912 N 571.892 -5.69183 2.3001 0
M  V30 5913 C 573.263 -5.67362 2.50001 0
M  V30 5914 C 575.318 -4.74464 1.50959 0
M  V30 5915 C 574.021 -6.26341 3.5368 0
M  V30 5916 C 576.047 -5.34302 2.53526 0
M  V30 5917 C 575.409 -6.09166 3.53688 0
M  V30 5918 H 571.508 -0.780595 -0.0468602 0
M  V30 5919 H 574.092 -1.88204 0.49873 0
M  V30 5920 H 572.263 -3.66686 -1.28046 0
M  V30 5921 H 573.995 -3.87922 -1.15321 0
M  V30 5922 H 570.75 -4.6842 0.698562 0
M  V30 5923 H 571.174 -6.12216 2.88998 0
M  V30 5924 H 575.816 -4.16117 0.748785 0
M  V30 5925 H 573.534 -6.8379 4.30648 0
M  V30 5926 H 577.12 -5.22342 2.56223 0
M  V30 5927 H 576 -6.54644 4.31753 0
M  V30 5928 N 573.503 -0.0852151 -1.57369 0
M  V30 5929 C 574.413 0.891712 -2.16992 0
M  V30 5930 C 575.429 1.3174 -1.13669 0
M  V30 5931 O 576.605 1.38735 -1.45995 0
M  V30 5932 C 573.67 2.13635 -2.73059 0
M  V30 5933 C 572.731 1.7658 -3.91303 0
M  V30 5934 C 571.964 2.95111 -4.44686 0
M  V30 5935 O 572.187 4.09539 -3.97032 0
M  V30 5936 O 571.121 2.74149 -5.35841 0
M  V30 5937 H 574.947 0.414477 -3.00858 0
M  V30 5938 H 572.532 0.138598 -1.48756 0
M  V30 5939 H 574.414 2.86595 -3.08935 0
M  V30 5940 H 573.089 2.6043 -1.92244 0
M  V30 5941 H 571.996 1.00831 -3.60255 0
M  V30 5942 H 573.329 1.34557 -4.7345 0
M  V30 5943 N 574.981 1.5647 0.188427 0
M  V30 5944 C 576.258 1.71857 0.934058 0
M  V30 5945 C 576.638 0.641867 2.01105 0
M  V30 5946 O 575.986 -0.346098 2.25864 0
M  V30 5947 C 576.196 3.14431 1.5144 0
M  V30 5948 C 577.544 3.74869 1.99396 0
M  V30 5949 O 578.568 3.17601 1.61269 0
M  V30 5950 O 577.427 4.75387 2.69573 0
M  V30 5951 H 574.521 0.701186 0.438483 0
M  V30 5952 H 577.067 1.68768 0.177599 0
M  V30 5953 H 575.839 3.8427 0.738416 0
M  V30 5954 H 575.462 3.21775 2.33552 0
M  V30 5955 N 576.459 -0.456382 1.50847 0
M  V30 5956 C 577.369 -1.57805 1.73594 0
M  V30 5957 C 578.385 -1.62599 0.619476 0
M  V30 5958 O 579.561 -1.80195 0.899532 0
M  V30 5959 C 576.626 -2.93926 1.8387 0
M  V30 5960 C 575.687 -2.99402 3.07663 0
M  V30 5961 C 574.92 -4.29031 3.1744 0
M  V30 5962 O 575.143 -5.20358 2.33631 0
M  V30 5963 O 574.077 -4.40401 4.10281 0
M  V30 5964 H 577.903 -1.41531 2.68705 0
M  V30 5965 H 575.488 -0.637422 1.3512 0
M  V30 5966 H 577.37 -3.74747 1.92725 0
M  V30 5967 H 576.045 -3.10368 0.91944 0
M  V30 5968 H 574.952 -2.17606 3.043 0
M  V30 5969 H 576.285 -2.87901 3.99216 0
M  V30 5970 N 577.937 -1.40673 -0.710563 0
M  V30 5971 C 578.9 -1.4108 -1.80635 0
M  V30 5972 C 579.9 -0.303783 -1.57904 0
M  V30 5973 O 581.09 -0.562937 -1.64853 0
M  V30 5974 C 578.222 -1.20748 -3.18799 0
M  V30 5975 H 579.415 -2.38612 -1.81671 0
M  V30 5976 H 576.968 -1.26595 -0.916704 0
M  V30 5977 H 577.703 -0.239964 -3.23411 0
M  V30 5978 H 577.488 -2.00941 -3.36698 0
M  V30 5979 H 578.978 -1.23833 -3.98817 0
M  V30 5980 N 579.415 0.9433 -1.26252 0
M  V30 5981 C 580.325 2.07532 -1.09397 0
M  V30 5982 C 581.341 1.73977 -0.0280449 0
M  V30 5983 O 582.517 2.00067 -0.231337 0
M  V30 5984 C 579.582 3.39002 -0.726523 0
M  V30 5985 C 578.643 3.86353 -1.87163 0
M  V30 5986 C 577.876 5.11549 -1.52162 0
M  V30 5987 O 578.099 5.68834 -0.422385 0
M  V30 5988 O 577.033 5.53889 -2.35565 0
M  V30 5989 H 580.859 2.24658 -2.04359 0
M  V30 5990 H 578.444 1.05988 -1.05295 0
M  V30 5991 H 580.326 4.18 -0.534236 0
M  V30 5992 H 579.001 3.2312 0.193721 0
M  V30 5993 H 577.908 3.0831 -2.11886 0
M  V30 5994 H 579.241 4.06752 -2.77152 0
M  V30 5995 N 580.893 1.08022 1.14757 0
M  V30 5996 C 582.118 0.82895 1.90114 0
M  V30 5997 C 582.543 -0.612772 1.77839 0
M  V30 5998 O 581.901 -1.42895 1.11583 0
M  V30 5999 C 581.949 1.25062 3.38219 0
M  V30 6000 O 581.053 0.400119 4.10454 0
M  V30 6001 H 580.394 0.301412 0.591648 0
M  V30 6002 H 582.924 1.44062 1.45284 0
M  V30 6003 H 582.934 1.22977 3.89025 0
M  V30 6004 H 581.609 2.30067 3.46471 0
M  V30 6005 H 580.186 0.484052 3.69745 0
M  V30 6006 N 582.371 -1.3172 0.865308 0
M  V30 6007 C 583.321 -2.26157 0.289305 0
M  V30 6008 C 584.305 -1.50428 -0.570977 0
M  V30 6009 O 585.497 -1.71978 -0.418617 0
M  V30 6010 C 582.626 -3.39457 -0.512237 0
M  V30 6011 C 581.712 -4.22561 0.361028 0
M  V30 6012 N 582.103 -4.84501 1.45231 0
M  V30 6013 C 580.401 -4.45739 0.152641 0
M  V30 6014 C 581.102 -5.46586 1.99043 0
M  V30 6015 N 580.078 -5.28119 1.28809 0
M  V30 6016 H 583.88 -2.71581 1.12344 0
M  V30 6017 H 581.394 -1.45932 0.712565 0
M  V30 6018 H 583.391 -4.06133 -0.941379 0
M  V30 6019 H 582.051 -2.95577 -1.34404 0
M  V30 6020 H 583.062 -4.84293 1.83524 0
M  V30 6021 H 579.739 -4.1251 -0.643583 0
M  V30 6022 H 581.129 -6.05817 2.90577 0
M  V30 6023 N 583.85 -0.624285 -1.44708 0
M  V30 6024 C 585.077 -0.132919 -2.06473 0
M  V30 6025 C 585.493 1.18967 -1.46602 0
M  V30 6026 O 584.85 1.72824 -0.586341 0
M  V30 6027 C 584.901 -0.00465418 -3.615 0
M  V30 6028 O 584.622 -1.27494 -4.19138 0
M  V30 6029 C 586.123 0.516213 -4.40284 0
M  V30 6030 H 583.343 -0.0765201 -0.666623 0
M  V30 6031 H 585.887 -0.856751 -1.85688 0
M  V30 6032 H 584.042 0.669583 -3.8157 0
M  V30 6033 H 584.456 -1.11536 -5.12504 0
M  V30 6034 H 585.93 0.554994 -5.49203 0
M  V30 6035 H 586.407 1.5419 -4.11245 0
M  V30 6036 H 587.013 -0.124542 -4.25118 0
M  V30 6037 N 585.328 1.53329 -0.364422 0
M  V30 6038 C 586.258 2.28627 0.474543 0
M  V30 6039 C 587.239 1.31009 1.08492 0
M  V30 6040 O 588.424 1.59878 1.10239 0
M  V30 6041 C 585.554 3.07465 1.61501 0
M  V30 6042 C 584.508 4.1276 1.13194 0
M  V30 6043 C 583.834 4.79674 2.36255 0
M  V30 6044 C 585.134 5.21847 0.217507 0
M  V30 6045 H 586.828 2.99005 -0.153656 0
M  V30 6046 H 584.374 1.43803 -0.0753406 0
M  V30 6047 H 586.327 3.58889 2.20855 0
M  V30 6048 H 585.051 2.34775 2.27042 0
M  V30 6049 H 583.71 3.62281 0.56109 0
M  V30 6050 H 583.358 4.03557 3.00251 0
M  V30 6051 H 583.058 5.50827 2.04606 0
M  V30 6052 H 584.582 5.33892 2.96297 0
M  V30 6053 H 585.996 5.6878 0.718493 0
M  V30 6054 H 584.393 6.00099 -0.00806408 0
M  V30 6055 H 585.463 4.7921 -0.740653 0
M  V30 6056 N 586.806 0.0935595 1.57322 0
M  V30 6057 C 588.034 -0.578934 1.98635 0
M  V30 6058 C 588.449 -1.61819 0.972626 0
M  V30 6059 O 587.806 -1.82461 -0.0379638 0
M  V30 6060 C 587.857 -1.22802 3.40003 0
M  V30 6061 O 587.578 -0.230334 4.37494 0
M  V30 6062 C 589.079 -1.98627 3.96311 0
M  V30 6063 H 586.299 -0.155324 0.652775 0
M  V30 6064 H 588.843 0.172393 2.03772 0
M  V30 6065 H 586.998 -1.93029 3.35885 0
M  V30 6066 H 587.412 -0.698649 5.19826 0
M  V30 6067 H 588.886 -2.39405 4.97382 0
M  V30 6068 H 589.363 -2.85151 3.34044 0
M  V30 6069 H 589.969 -1.3322 4.03897 0
M  V30 6070 N 588.284 -1.56567 -0.180126 0
M  V30 6071 C 589.514 -1.85349 -0.912647 0
M  V30 6072 C 589.922 -0.675795 -1.76719 0
M  V30 6073 O 589.265 0.3645 -1.80047 0
M  V30 6074 C 589.327 -3.08431 -1.84691 0
M  V30 6075 C 588.991 -4.41694 -1.17284 0
M  V30 6076 C 589.988 -5.17062 -0.542532 0
M  V30 6077 C 587.673 -4.8843 -1.17223 0
M  V30 6078 C 589.667 -6.37351 0.0793953 0
M  V30 6079 C 587.354 -6.08652 -0.54647 0
M  V30 6080 C 588.352 -6.82955 0.0782458 0
M  V30 6081 O 588.04 -8.00897 0.694158 0
M  V30 6082 H 587.772 -0.619286 -0.271036 0
M  V30 6083 H 590.326 -2.0454 -0.187768 0
M  V30 6084 H 588.556 -2.85163 -2.61188 0
M  V30 6085 H 590.245 -3.23733 -2.44851 0
M  V30 6086 H 591.011 -4.8204 -0.535045 0
M  V30 6087 H 586.89 -4.30542 -1.64788 0
M  V30 6088 H 590.434 -6.95287 0.567612 0
M  V30 6089 H 586.331 -6.4314 -0.55151 0
M  V30 6090 H 587.099 -8.16352 0.592537 0
M  V30 6091 N 589.762 0.448376 -1.51087 0
M  V30 6092 C 591.173 1.0286 -1.5581 0
M  V30 6093 C 591.524 1.92583 -0.374989 0
M  V30 6094 O 590.649 2.10316 0.509533 0
M  V30 6095 C 591.244 1.87223 -2.8237 0
M  V30 6096 C 589.803 2.40314 -2.897 0
M  V30 6097 C 588.95 1.19238 -2.50355 0
M  V30 6098 H 591.901 0.230075 -1.57023 0
M  V30 6099 H 591.922 2.72553 -2.6551 0
M  V30 6100 H 591.434 1.21894 -3.68461 0
M  V30 6101 H 589.535 3.09129 -2.08014 0
M  V30 6102 H 589.648 2.73866 -3.93108 0
M  V30 6103 H 588.012 1.53428 -2.03303 0
M  V30 6104 H 588.795 0.555367 -3.38778 0
M  V30 6105 N 591.24 1.41047 0.703093 0
M  V30 6106 C 592.651 1.35657 1.28274 0
M  V30 6107 C 593.002 0.0360309 1.96167 0
M  V30 6108 O 592.127 -0.865833 1.98324 0
M  V30 6109 C 592.722 2.45707 2.33267 0
M  V30 6110 C 591.281 2.43738 2.86825 0
M  V30 6111 C 590.428 2.25941 1.60767 0
M  V30 6112 H 593.379 1.50672 0.49836 0
M  V30 6113 H 593.4 2.14333 3.14391 0
M  V30 6114 H 592.912 3.41805 1.83824 0
M  V30 6115 H 591.013 1.51375 3.40465 0
M  V30 6116 H 591.126 3.39779 3.37768 0
M  V30 6117 H 589.49 1.73681 1.86298 0
M  V30 6118 H 590.273 3.24054 1.1333 0
M  V30 6119 N 592.718 -0.936591 1.26751 0
M  V30 6120 C 593.628 -2.06949 1.10496 0
M  V30 6121 C 594.644 -1.7396 0.037271 0
M  V30 6122 O 595.82 -1.99941 0.241944 0
M  V30 6123 C 592.885 -3.38612 0.744491 0
M  V30 6124 C 591.946 -3.85355 1.89209 0
M  V30 6125 C 591.179 -5.10735 1.54873 0
M  V30 6126 O 591.402 -5.68602 0.452546 0
M  V30 6127 O 590.336 -5.52632 2.38499 0
M  V30 6128 H 594.162 -2.23571 2.05547 0
M  V30 6129 H 591.747 -1.05428 1.05855 0
M  V30 6130 H 593.629 -4.17711 0.556396 0
M  V30 6131 H 592.304 -3.23218 -0.176582 0
M  V30 6132 H 591.211 -3.07182 2.13518 0
M  V30 6133 H 592.544 -4.05277 2.79305 0
M  V30 6134 N 594.196 -1.08629 -1.14182 0
M  V30 6135 C 595.126 -0.740003 -2.21464 0
M  V30 6136 C 596.107 0.278591 -1.67803 0
M  V30 6137 O 597.292 0.148461 -1.93632 0
M  V30 6138 C 594.422 -0.150952 -3.46972 0
M  V30 6139 C 593.376 -1.09815 -4.13672 0
M  V30 6140 C 592.702 -0.3712 -5.3341 0
M  V30 6141 C 594.002 -2.43722 -4.61949 0
M  V30 6142 H 595.696 -1.63697 -2.50686 0
M  V30 6143 H 593.242 -0.788526 -1.20492 0
M  V30 6144 H 595.195 0.103325 -4.21273 0
M  V30 6145 H 593.919 0.781164 -3.1712 0
M  V30 6146 H 592.578 -1.33756 -3.41328 0
M  V30 6147 H 592.226 0.564792 -4.99819 0
M  V30 6148 H 591.926 -1.00267 -5.78982 0
M  V30 6149 H 593.45 -0.12503 -6.10472 0
M  V30 6150 H 594.864 -2.24034 -5.27714 0
M  V30 6151 H 593.261 -3.02582 -5.18232 0
M  V30 6152 H 594.331 -3.05082 -3.76899 0
M  V30 6153 N 595.674 1.31259 -0.872281 0
M  V30 6154 C 596.92 1.973 -0.494414 0
M  V30 6155 C 597.275 1.67684 0.94339 0
M  V30 6156 O 596.568 0.964186 1.65572 0
M  V30 6157 C 596.762 3.50659 -0.690889 0
M  V30 6158 C 596.591 3.95179 -2.14624 0
M  V30 6159 C 595.361 4.21405 -2.7883 0
M  V30 6160 C 597.559 4.08948 -3.11875 0
M  V30 6161 N 595.541 4.52295 -4.15093 0
M  V30 6162 C 596.912 4.43576 -4.33174 0
M  V30 6163 C 598.967 3.91334 -3.07835 0
M  V30 6164 C 597.67 4.62429 -5.50956 0
M  V30 6165 C 599.696 4.11381 -4.24876 0
M  V30 6166 C 599.058 4.46343 -5.44938 0
M  V30 6167 H 595.157 0.747411 -0.230002 0
M  V30 6168 H 597.741 1.58741 -1.12736 0
M  V30 6169 H 595.912 3.88301 -0.0875162 0
M  V30 6170 H 597.644 4.03722 -0.281179 0
M  V30 6171 H 594.399 4.14131 -2.29767 0
M  V30 6172 H 594.823 4.71897 -4.8543 0
M  V30 6173 H 599.465 3.6339 -2.16119 0
M  V30 6174 H 597.183 4.8922 -6.43187 0
M  V30 6175 H 600.769 3.99235 -4.23205 0
M  V30 6176 H 599.649 4.6154 -6.33996 0
M  V30 6177 N 597.152 0.631951 1.44375 0
M  V30 6178 C 598.382 0.143658 2.061 0
M  V30 6179 C 598.79 -1.18733 1.47306 0
M  V30 6180 O 598.133 -1.73943 0.590724 0
M  V30 6181 C 598.195 -0.0446102 3.59472 0
M  V30 6182 C 597.859 1.20835 4.40736 0
M  V30 6183 C 598.856 2.13224 4.74164 0
M  V30 6184 C 596.541 1.44399 4.81097 0
M  V30 6185 C 598.535 3.27487 5.46838 0
M  V30 6186 C 596.222 2.58959 5.53519 0
M  V30 6187 C 597.22 3.50329 5.86309 0
M  V30 6188 O 596.908 4.62891 6.57257 0
M  V30 6189 H 596.64 0.0772939 0.671567 0
M  V30 6190 H 599.194 0.866677 1.8622 0
M  V30 6191 H 597.424 -0.822783 3.77845 0
M  V30 6192 H 599.113 -0.487561 4.02961 0
M  V30 6193 H 599.879 1.96253 4.4352 0
M  V30 6194 H 595.758 0.741696 4.54994 0
M  V30 6195 H 599.302 3.98826 5.72349 0
M  V30 6196 H 595.199 2.75873 5.83579 0
M  V30 6197 H 595.967 4.61883 6.75726 0
M  V30 6198 N 598.631 -1.53133 0.372548 0
M  V30 6199 C 600.047 -1.59585 0.02178 0
M  V30 6200 C 600.247 -1.38736 -1.46132 0
M  V30 6201 O 599.303 -1.19599 -2.22379 0
M  V30 6202 C 600.616 -2.9678 0.483959 0
M  V30 6203 C 602.164 -3.09909 0.438775 0
M  V30 6204 C 602.639 -4.49527 0.876876 0
M  V30 6205 N 604.13 -4.55663 0.832214 0
M  V30 6206 C 604.865 -5.61896 1.14281 0
M  V30 6207 N 604.361 -6.75852 1.52303 0
M  V30 6208 N 606.154 -5.51916 1.06515 0
M  V30 6209 H 598.305 -1.64936 1.33827 0
M  V30 6210 H 600.568 -0.773947 0.547458 0
M  V30 6211 H 600.274 -3.17198 1.51915 0
M  V30 6212 H 600.148 -3.7699 -0.125784 0
M  V30 6213 H 602.535 -2.89197 -0.587294 0
M  V30 6214 H 602.616 -2.31691 1.0841 0
M  V30 6215 H 602.26 -4.70979 1.90109 0
M  V30 6216 H 602.19 -5.26186 0.208727 0
M  V30 6217 H 604.681 -3.73844 0.552195 0
M  V30 6218 H 604.994 -7.52862 1.7441 0
M  V30 6219 H 603.339 -6.77226 1.56175 0
M  V30 6220 H 606.53 -4.6177 0.767235 0
M  V30 6221 H 606.703 -6.34609 1.31053 0
M  V30 6222 N 600.109 -0.101901 -1.5727 0
M  V30 6223 C 601.056 0.854577 -2.14396 0
M  V30 6224 C 602.026 1.27521 -1.06432 0
M  V30 6225 O 603.211 1.35575 -1.34253 0
M  V30 6226 C 600.351 2.10576 -2.73408 0
M  V30 6227 C 599.464 1.73504 -3.95626 0
M  V30 6228 C 598.599 2.9346 -4.42781 0
M  V30 6229 C 597.638 2.52547 -5.57572 0
M  V30 6230 N 596.775 3.65359 -5.99547 0
M  V30 6231 H 601.615 0.360578 -2.9581 0
M  V30 6232 H 599.152 0.166303 -1.46157 0
M  V30 6233 H 601.11 2.83859 -3.05745 0
M  V30 6234 H 599.74 2.57463 -1.94711 0
M  V30 6235 H 598.792 0.901622 -3.6956 0
M  V30 6236 H 600.104 1.39426 -4.78917 0
M  V30 6237 H 599.258 3.74988 -4.76937 0
M  V30 6238 H 597.997 3.30753 -3.58404 0
M  V30 6239 H 597.002 1.69446 -5.23037 0
M  V30 6240 H 598.227 2.1639 -6.43702 0
M  V30 6241 H 596.173 4.02358 -5.18116 0
M  V30 6242 H 596.09 3.35148 -6.77652 0
M  V30 6243 H 597.358 4.47378 -6.38336 0
M  V30 6244 N 601.587 1.56661 0.17182 0
M  V30 6245 C 602.836 1.81158 0.886831 0
M  V30 6246 C 603.149 0.679072 1.83434 0
M  V30 6247 O 604.355 0.808964 2.59168 0
M  V30 6248 C 602.811 3.20999 1.6275 0
M  V30 6249 C 602.419 4.42117 0.723652 0
M  V30 6250 C 604.163 3.5479 2.33076 0
M  V30 6251 C 602.07 5.7298 1.46452 0
M  V30 6252 H 601 0.675543 0.334899 0
M  V30 6253 H 603.651 1.82967 0.139765 0
M  V30 6254 H 602.033 3.13506 2.4193 0
M  V30 6255 H 603.207 4.60789 -0.0311485 0
M  V30 6256 H 601.522 4.16197 0.130063 0
M  V30 6257 H 604.119 4.49806 2.89099 0
M  V30 6258 H 604.462 2.79646 3.08389 0
M  V30 6259 H 604.995 3.63834 1.6084 0
M  V30 6260 H 601.734 6.51152 0.753729 0
M  V30 6261 H 601.254 5.58285 2.19266 0
M  V30 6262 H 602.933 6.14916 2.01214 0
M  V30 6263 N 603.065 -0.440357 1.51323 0
M  V30 6264 C 604.305 -1.19956 1.65499 0
M  V30 6265 C 604.669 -1.88559 0.361878 0
M  V30 6266 O 605.87 -2.66109 0.379383 0
M  V30 6267 C 604.141 -2.1918 2.82303 0
M  V30 6268 S 605.7 -3.03627 3.1679 0
M  V30 6269 H 602.518 -0.406833 0.583102 0
M  V30 6270 H 605.12 -0.491596 1.89218 0
M  V30 6271 H 603.824 -1.67414 3.74701 0
M  V30 6272 H 603.355 -2.94561 2.60763 0
M  V30 6273 H 605.37 -4.20773 2.62991 0
M  V30 6274 N 604.543 -1.41418 -0.695603 0
M  V30 6275 C 605.791 -1.40496 -1.45277 0
M  V30 6276 C 606.112 -0.0149538 -1.94994 0
M  V30 6277 O 605.382 0.9432 -1.71699 0
M  V30 6278 H 603.962 -0.517147 -0.539044 0
M  V30 6279 H 606.624 -1.76656 -0.823321 0
M  V30 6280 H 605.72 -2.09214 -2.31595 0
M  V30 6281 N 606.021 0.929856 -1.27246 0
M  V30 6282 C 607.268 1.67731 -1.13457 0
M  V30 6283 C 607.596 1.9185 0.319998 0
M  V30 6284 O 606.851 1.50524 1.25064 0
M  V30 6285 C 607.15 3.05116 -1.86115 0
M  V30 6286 C 606.816 3.00715 -3.35978 0
M  V30 6287 C 605.478 2.99222 -3.76855 0
M  V30 6288 C 607.83 2.92168 -4.3161 0
M  V30 6289 C 605.158 2.86962 -5.11732 0
M  V30 6290 C 607.51 2.81449 -5.66542 0
M  V30 6291 C 606.174 2.78305 -6.06715 0
M  V30 6292 H 605.444 0.613772 -0.415168 0
M  V30 6293 H 608.091 1.08456 -1.57827 0
M  V30 6294 H 606.396 3.68083 -1.34246 0
M  V30 6295 H 608.093 3.61822 -1.72876 0
M  V30 6296 H 604.683 3.02664 -3.03468 0
M  V30 6297 H 608.867 2.92421 -4.01003 0
M  V30 6298 H 604.123 2.82913 -5.42006 0
M  V30 6299 H 608.297 2.738 -6.40317 0
M  V30 6300 H 605.924 2.68561 -7.11181 0
M  V30 6301 N 607.499 1.09233 1.13605 0
M  V30 6302 C 608.776 0.739633 1.81077 0
M  V30 6303 C 609.156 -0.775595 1.96336 0
M  V30 6304 O 608.504 -1.69726 1.52988 0
M  V30 6305 C 608.714 1.47636 3.16235 0
M  V30 6306 C 610.062 1.64087 3.91613 0
M  V30 6307 O 611.086 1.43871 3.25852 0
M  V30 6308 O 609.945 1.97511 5.0956 0
M  V30 6309 H 607.039 0.265464 0.783236 0
M  V30 6310 H 609.585 1.19441 1.20549 0
M  V30 6311 H 608.357 2.50818 3.00344 0
M  V30 6312 H 607.98 1.01362 3.84462 0
M  V30 6313 N 608.977 -1.30795 0.87923 0
M  V30 6314 C 610.223 -1.96653 0.495519 0
M  V30 6315 C 610.556 -1.69282 -0.951703 0
M  V30 6316 O 609.831 -0.994374 -1.6716 0
M  V30 6317 C 610.114 -3.51898 0.764174 0
M  V30 6318 C 609.967 -3.88808 2.2616 0
M  V30 6319 C 611.286 -4.39462 0.236825 0
M  V30 6320 H 608.405 -0.7143 0.181507 0
M  V30 6321 H 611.047 -1.54765 1.10217 0
M  V30 6322 H 609.197 -3.87709 0.247841 0
M  V30 6323 H 610.869 -3.63051 2.8459 0
M  V30 6324 H 609.112 -3.37082 2.73053 0
M  V30 6325 H 609.783 -4.97086 2.4002 0
M  V30 6326 H 612.259 -4.10528 0.678683 0
M  V30 6327 H 611.135 -5.47018 0.454176 0
M  V30 6328 H 611.396 -4.33621 -0.861683 0
M  V30 6329 N 610.455 -0.639598 -1.44038 0
M  V30 6330 C 611.385 0.0469443 -2.33453 0
M  V30 6331 C 612.366 0.82609 -1.48694 0
M  V30 6332 O 613.551 0.790285 -1.77393 0
M  V30 6333 C 610.681 1.02338 -3.3188 0
M  V30 6334 C 609.635 0.355284 -4.26523 0
M  V30 6335 C 608.961 1.44221 -5.14883 0
M  V30 6336 C 610.261 -0.743798 -5.16977 0
M  V30 6337 H 611.955 -0.699735 -2.91108 0
M  V30 6338 H 609.501 -0.337946 -1.39978 0
M  V30 6339 H 611.454 1.51247 -3.93322 0
M  V30 6340 H 610.178 1.80105 -2.72451 0
M  V30 6341 H 608.837 -0.113239 -3.66425 0
M  V30 6342 H 608.485 2.21097 -4.51802 0
M  V30 6343 H 608.185 1.00052 -5.79019 0
M  V30 6344 H 609.709 1.93295 -5.79197 0
M  V30 6345 H 611.123 -0.337444 -5.72306 0
M  V30 6346 H 609.52 -1.10914 -5.89761 0
M  V30 6347 H 610.59 -1.60745 -4.57481 0
M  V30 6348 N 611.933 1.52934 -0.380664 0
M  V30 6349 C 613.163 2.05587 0.204302 0
M  V30 6350 C 613.571 1.25288 1.41773 0
M  V30 6351 O 612.914 0.290394 1.8139 0
M  V30 6352 C 612.976 3.53624 0.647324 0
M  V30 6353 C 612.64 4.54765 -0.451465 0
M  V30 6354 C 613.637 5.03226 -1.30614 0
M  V30 6355 C 611.322 4.98508 -0.616025 0
M  V30 6356 C 613.316 5.94046 -2.31058 0
M  V30 6357 C 611.003 5.89131 -1.62381 0
M  V30 6358 C 612.001 6.36792 -2.46952 0
M  V30 6359 O 611.689 7.25626 -3.46009 0
M  V30 6360 H 611.421 0.675013 0.0365198 0
M  V30 6361 H 613.975 1.98125 -0.541827 0
M  V30 6362 H 612.205 3.58676 1.44529 0
M  V30 6363 H 613.894 3.89061 1.15698 0
M  V30 6364 H 614.66 4.70167 -1.19027 0
M  V30 6365 H 610.539 4.60989 0.0324987 0
M  V30 6366 H 614.083 6.3117 -2.97104 0
M  V30 6367 H 609.98 6.21603 -1.7401 0
M  V30 6368 H 610.748 7.43664 -3.41916 0
M  V30 6369 N 613.412 0.11024 1.57214 0
M  V30 6370 C 614.823 -0.416527 1.81994 0
M  V30 6371 C 615.174 -1.67183 1.02686 0
M  V30 6372 O 614.299 -2.14823 0.260782 0
M  V30 6373 C 614.894 -0.762466 3.30109 0
M  V30 6374 C 613.453 -1.23391 3.556 0
M  V30 6375 C 612.6 -0.238166 2.76275 0
M  V30 6376 H 615.551 0.335491 1.55113 0
M  V30 6377 H 615.572 -1.62068 3.44259 0
M  V30 6378 H 615.084 0.151346 3.87805 0
M  V30 6379 H 613.185 -2.16492 3.03253 0
M  V30 6380 H 613.298 -1.18528 4.64207 0
M  V30 6381 H 611.662 -0.723421 2.4421 0
M  V30 6382 H 612.445 0.668591 3.36727 0
M  V30 6383 N 614.89 -1.56749 -0.16351 0
M  V30 6384 C 616.301 -1.72039 -0.725216 0
M  V30 6385 C 616.652 -0.72202 -1.82432 0
M  V30 6386 O 615.777 0.114942 -2.16095 0
M  V30 6387 C 616.372 -3.11932 -1.32227 0
M  V30 6388 C 614.931 -3.28879 -1.83072 0
M  V30 6389 C 614.078 -2.67984 -0.712716 0
M  V30 6390 H 617.029 -1.58579 0.0619772 0
M  V30 6391 H 617.05 -3.11015 -2.19202 0
M  V30 6392 H 616.562 -3.84572 -0.522103 0
M  V30 6393 H 614.663 -2.61209 -2.65708 0
M  V30 6394 H 614.776 -4.36688 -1.97079 0
M  V30 6395 H 613.14 -2.28005 -1.13515 0
M  V30 6396 H 613.923 -3.43216 0.0757361 0
M  V30 6397 N 616.368 0.432326 -1.51554 0
M  V30 6398 C 617.278 1.55023 -1.76082 0
M  V30 6399 C 618.294 1.61593 -0.645265 0
M  V30 6400 O 619.47 1.78742 -0.928086 0
M  V30 6401 C 616.535 2.90964 -1.88523 0
M  V30 6402 C 615.596 2.9447 -3.12388 0
M  V30 6403 C 614.829 4.23926 -3.24225 0
M  V30 6404 O 615.052 5.16576 -2.4188 0
M  V30 6405 O 613.986 4.33818 -4.17235 0
M  V30 6406 H 617.812 1.37238 -2.70923 0
M  V30 6407 H 615.397 0.615845 -1.36117 0
M  V30 6408 H 617.279 3.71633 -1.98662 0
M  V30 6409 H 615.954 3.08865 -0.9687 0
M  V30 6410 H 614.861 2.12737 -3.07723 0
M  V30 6411 H 616.194 2.81514 -4.03746 0
M  V30 6412 N 617.846 1.41785 0.688094 0
M  V30 6413 C 619.262 1.24419 0.999608 0
M  V30 6414 C 619.462 0.138868 2.01021 0
M  V30 6415 O 618.518 -0.494283 2.47615 0
M  V30 6416 C 619.831 2.59625 1.51709 0
M  V30 6417 C 621.379 2.66869 1.63554 0
M  V30 6418 C 621.854 4.0241 2.18702 0
M  V30 6419 N 623.345 4.04295 2.26053 0
M  V30 6420 C 624.08 5.05977 2.69768 0
M  V30 6421 N 623.576 6.18047 3.13033 0
M  V30 6422 N 625.369 4.93336 2.69398 0
M  V30 6423 H 617.52 2.12392 0.0187427 0
M  V30 6424 H 619.783 0.945347 0.0708673 0
M  V30 6425 H 619.489 3.41297 0.849059 0
M  V30 6426 H 619.363 2.82628 2.49803 0
M  V30 6427 H 621.75 1.8555 2.29467 0
M  V30 6428 H 621.831 2.47668 0.639857 0
M  V30 6429 H 621.475 4.8418 1.53402 0
M  V30 6430 H 621.405 4.18955 3.19037 0
M  V30 6431 H 623.896 3.23383 1.9553 0
M  V30 6432 H 624.209 6.91498 3.45038 0
M  V30 6433 H 622.554 6.21572 3.10923 0
M  V30 6434 H 625.745 4.04865 2.34952 0
M  V30 6435 H 625.918 5.72717 3.03148 0
M  V30 6436 N 619.324 -0.923095 1.27737 0
M  V30 6437 C 620.554 -1.70277 1.17001 0
M  V30 6438 C 620.962 -1.87188 -0.275199 0
M  V30 6439 O 620.305 -1.39195 -1.19877 0
M  V30 6440 C 620.367 -3.11976 1.78637 0
M  V30 6441 C 620.031 -3.18386 3.27841 0
M  V30 6442 C 621.028 -3.00287 4.2441 0
M  V30 6443 C 618.713 -3.41198 3.68632 0
M  V30 6444 C 620.707 -3.04896 5.59747 0
M  V30 6445 C 618.394 -3.4544 5.04097 0
M  V30 6446 C 619.392 -3.27309 5.99465 0
M  V30 6447 O 619.08 -3.31295 7.32461 0
M  V30 6448 H 618.812 -0.539366 0.407505 0
M  V30 6449 H 621.366 -1.16446 1.69202 0
M  V30 6450 H 619.596 -3.67308 1.20919 0
M  V30 6451 H 621.285 -3.7193 1.6255 0
M  V30 6452 H 622.051 -2.825 3.94232 0
M  V30 6453 H 617.93 -3.54359 2.94873 0
M  V30 6454 H 621.474 -2.90662 6.34162 0
M  V30 6455 H 617.371 -3.62753 5.33929 0
M  V30 6456 H 618.139 -3.47719 7.40968 0
M  V30 6457 N 620.802 -1.09834 -1.13024 0
M  V30 6458 C 622.05 -0.835297 -1.8403 0
M  V30 6459 C 622.371 0.640944 -1.84165 0
M  V30 6460 O 621.641 1.46517 -1.30037 0
M  V30 6461 H 620.221 -0.306018 -0.681441 0
M  V30 6462 H 622.883 -1.38734 -1.36891 0
M  V30 6463 H 621.979 -1.19258 -2.88416 0
M  V30 6464 N 622.28 1.30327 -0.886154 0
M  V30 6465 C 623.23 2.25668 -0.325248 0
M  V30 6466 C 624.214 1.51318 0.546972 0
M  V30 6467 O 625.406 1.72623 0.391203 0
M  V30 6468 C 622.535 3.40229 0.458167 0
M  V30 6469 C 621.621 4.21933 -0.428208 0
M  V30 6470 N 622.012 4.82129 -1.52921 0
M  V30 6471 C 620.31 4.45439 -0.223535 0
M  V30 6472 C 621.011 5.43351 -2.07714 0
M  V30 6473 N 619.987 5.26002 -1.37195 0
M  V30 6474 H 623.789 2.69759 -1.1665 0
M  V30 6475 H 621.303 1.4478 -0.735691 0
M  V30 6476 H 623.3 4.07579 0.876648 0
M  V30 6477 H 621.96 2.97678 1.29684 0
M  V30 6478 H 622.971 4.81312 -1.91205 0
M  V30 6479 H 619.648 4.13481 0.577875 0
M  V30 6480 H 621.038 6.01118 -3.00178 0
M  V30 6481 N 623.758 0.647228 1.43697 0
M  V30 6482 C 625.004 0.158422 2.0218 0
M  V30 6483 C 625.337 -1.22233 1.50907 0
M  V30 6484 O 624.612 -1.81478 0.699702 0
M  V30 6485 C 624.895 0.1627 3.59732 0
M  V30 6486 C 624.748 1.57694 4.21251 0
M  V30 6487 C 626.067 -0.504138 4.37203 0
M  V30 6488 H 623.186 0.059042 0.734631 0
M  V30 6489 H 625.828 0.826772 1.71069 0
M  V30 6490 H 623.978 -0.406414 3.86368 0
M  V30 6491 H 625.65 2.19618 4.05667 0
M  V30 6492 H 623.893 2.12603 3.7813 0
M  V30 6493 H 624.564 1.53183 5.3032 0
M  V30 6494 H 627.04 -0.0199841 4.16095 0
M  V30 6495 H 625.916 -0.470394 5.46881 0
M  V30 6496 H 626.177 -1.57726 4.13007 0
M  V30 6497 N 625.236 -1.5273 0.388769 0
M  V30 6498 C 626.166 -2.29353 -0.438111 0
M  V30 6499 C 627.147 -1.32719 -1.06394 0
M  V30 6500 O 628.332 -1.61612 -1.07681 0
M  V30 6501 C 625.462 -3.09995 -1.56589 0
M  V30 6502 C 624.416 -4.14509 -1.06613 0
M  V30 6503 C 623.742 -4.83372 -2.28594 0
M  V30 6504 C 625.042 -5.22127 -0.134459 0
M  V30 6505 H 626.736 -2.98723 0.201206 0
M  V30 6506 H 624.282 -1.43665 0.0982089 0
M  V30 6507 H 626.235 -3.62357 -2.15118 0
M  V30 6508 H 624.959 -2.38357 -2.23279 0
M  V30 6509 H 623.618 -3.63128 -0.503383 0
M  V30 6510 H 623.266 -4.08283 -2.93792 0
M  V30 6511 H 622.966 -5.54012 -1.95817 0
M  V30 6512 H 624.49 -5.38538 -2.87766 0
M  V30 6513 H 625.904 -5.69851 -0.627914 0
M  V30 6514 H 624.301 -6.00011 0.103534 0
M  V30 6515 H 625.371 -4.77971 0.816798 0
M  V30 6516 N 626.714 -0.118576 -1.57153 0
M  V30 6517 C 627.939 0.550582 -1.99958 0
M  V30 6518 C 628.364 1.59458 -0.997736 0
M  V30 6519 O 627.722 1.81274 0.0306269 0
M  V30 6520 C 627.77 1.15379 -3.41643 0
M  V30 6521 O 626.874 2.26932 -3.44348 0
M  V30 6522 H 626.215 0.137567 -0.649593 0
M  V30 6523 H 628.745 -0.206926 -2.03551 0
M  V30 6524 H 628.755 1.48942 -3.79843 0
M  V30 6525 H 627.43 0.389087 -4.14076 0
M  V30 6526 H 626.007 1.94812 -3.17967 0
M  V30 6527 N 628.193 1.56834 0.155195 0
M  V30 6528 C 629.441 1.82536 0.867462 0
M  V30 6529 C 629.762 0.698168 1.82073 0
M  V30 6530 O 629.032 -0.280807 1.93877 0
M  V30 6531 H 627.612 0.673401 0.323327 0
M  V30 6532 H 630.274 1.94313 0.151156 0
M  V30 6533 H 629.37 2.77171 1.43466 0
M  V30 6534 N 629.671 -0.424282 1.51781 0
M  V30 6535 C 630.917 -1.17117 1.66298 0
M  V30 6536 C 631.272 -1.88595 0.380767 0
M  V30 6537 O 630.565 -1.81151 -0.624094 0
M  V30 6538 C 630.759 -2.20418 2.81337 0
M  V30 6539 C 630.588 -1.59081 4.20622 0
M  V30 6540 C 629.358 -1.37007 4.86371 0
M  V30 6541 C 631.556 -1.05992 5.0326 0
M  V30 6542 N 629.538 -0.714049 6.09733 0
M  V30 6543 C 630.909 -0.529933 6.17731 0
M  V30 6544 C 632.964 -0.952927 4.88696 0
M  V30 6545 C 631.667 0.0965457 7.19235 0
M  V30 6546 C 633.693 -0.340325 5.9042 0
M  V30 6547 C 633.055 0.179057 7.04172 0
M  V30 6548 H 629.154 -0.41577 0.662314 0
M  V30 6549 H 631.738 -0.46579 1.89046 0
M  V30 6550 H 629.909 -2.8833 2.60231 0
M  V30 6551 H 631.641 -2.8736 2.84968 0
M  V30 6552 H 628.396 -1.63543 4.44467 0
M  V30 6553 H 628.82 -0.403101 6.75799 0
M  V30 6554 H 633.462 -1.34033 4.00993 0
M  V30 6555 H 631.18 0.496044 8.06576 0
M  V30 6556 H 634.766 -0.259266 5.81222 0
M  V30 6557 H 633.646 0.645626 7.81538 0
M  V30 6558 N 631.149 -1.42148 -0.680565 0
M  V30 6559 C 632.398 -1.41604 -1.43636 0
M  V30 6560 C 632.711 -0.0337887 -1.95571 0
M  V30 6561 O 633.917 0.0942588 -2.71336 0
M  V30 6562 C 632.373 -2.49056 -2.59806 0
M  V30 6563 C 631.981 -3.9326 -2.14594 0
M  V30 6564 C 633.725 -2.5767 -3.37352 0
M  V30 6565 C 631.632 -4.92232 -3.27813 0
M  V30 6566 H 630.562 -0.526656 -0.539583 0
M  V30 6567 H 633.213 -1.68033 -0.737369 0
M  V30 6568 H 631.595 -2.15782 -3.32045 0
M  V30 6569 H 632.769 -4.35858 -1.49546 0
M  V30 6570 H 631.084 -3.88443 -1.50002 0
M  V30 6571 H 633.681 -3.28794 -4.21662 0
M  V30 6572 H 634.024 -1.61837 -3.83555 0
M  V30 6573 H 634.557 -2.90109 -2.72179 0
M  V30 6574 H 631.296 -5.89522 -2.86607 0
M  V30 6575 H 630.816 -4.5427 -3.91661 0
M  V30 6576 H 632.495 -5.13684 -3.93367 0
M  V30 6577 N 632.627 0.916307 -1.28225 0
M  V30 6578 C 633.867 1.67964 -1.16479 0
M  V30 6579 C 634.231 1.8991 0.282494 0
M  V30 6580 O 635.432 2.63671 0.522607 0
M  V30 6581 C 633.703 3.00251 -1.93866 0
M  V30 6582 S 635.262 3.91353 -1.98465 0
M  V30 6583 H 632.08 0.576873 -0.415619 0
M  V30 6584 H 634.682 1.09006 -1.62289 0
M  V30 6585 H 633.386 2.81978 -2.98189 0
M  V30 6586 H 632.917 3.64257 -1.48595 0
M  V30 6587 H 634.932 4.84096 -1.0893 0
M  V30 6588 N 634.105 1.10431 1.1244 0
M  V30 6589 C 635.353 0.845045 1.83585 0
M  V30 6590 C 635.674 -0.631168 1.84503 0
M  V30 6591 O 634.944 -1.45825 1.30813 0
M  V30 6592 H 633.524 0.309628 0.679809 0
M  V30 6593 H 636.186 1.39458 1.36153 0
M  V30 6594 H 635.282 1.20786 2.8778 0
M  V30 6595 N 635.583 -1.29855 0.893053 0
M  V30 6596 C 636.493 -2.31661 0.370157 0
M  V30 6597 C 637.509 -1.65677 -0.531723 0
M  V30 6598 O 638.685 -1.9691 -0.422902 0
M  V30 6599 C 635.75 -3.44388 -0.399741 0
M  V30 6600 C 634.811 -4.2598 0.532861 0
M  V30 6601 C 634.044 -5.33324 -0.200388 0
M  V30 6602 O 634.267 -5.52305 -1.42531 0
M  V30 6603 O 633.201 -6.00188 0.453668 0
M  V30 6604 H 637.027 -2.78354 1.2146 0
M  V30 6605 H 634.612 -1.34171 0.657153 0
M  V30 6606 H 636.494 -4.13037 -0.835358 0
M  V30 6607 H 635.169 -2.99815 -1.22035 0
M  V30 6608 H 634.076 -3.59998 1.01746 0
M  V30 6609 H 635.409 -4.74178 1.3197 0
M  V30 6610 N 637.061 -0.65484 -1.43351 0
M  V30 6611 C 637.971 0.0363603 -2.34572 0
M  V30 6612 C 638.987 0.810432 -1.53974 0
M  V30 6613 O 640.163 0.757308 -1.86619 0
M  V30 6614 C 637.228 0.989733 -3.32273 0
M  V30 6615 C 636.289 0.212414 -4.28774 0
M  V30 6616 C 635.522 1.12038 -5.21808 0
M  V30 6617 O 635.745 2.35967 -5.19303 0
M  V30 6618 O 634.679 0.59191 -5.98982 0
M  V30 6619 H 638.505 -0.714527 -2.95175 0
M  V30 6620 H 636.09 -0.415029 -1.4352 0
M  V30 6621 H 637.972 1.53759 -3.92347 0
M  V30 6622 H 636.647 1.72082 -2.74171 0
M  V30 6623 H 635.554 -0.379062 -3.72175 0
M  V30 6624 H 636.887 -0.479138 -4.89862 0
M  V30 6625 N 638.539 1.52521 -0.396863 0
M  V30 6626 C 639.502 2.2527 0.422604 0
M  V30 6627 C 640.502 1.27184 0.983913 0
M  V30 6628 O 641.692 1.51222 0.864723 0
M  V30 6629 C 638.824 3.01356 1.59365 0
M  V30 6630 H 640.017 2.99133 -0.214416 0
M  V30 6631 H 637.57 1.55587 -0.149128 0
M  V30 6632 H 638.305 2.31813 2.26789 0
M  V30 6633 H 638.09 3.73357 1.19779 0
M  V30 6634 H 639.58 3.56571 2.17363 0
M  V30 6635 N 640.017 0.126909 1.57088 0
M  V30 6636 C 640.947 -0.816847 2.18746 0
M  V30 6637 C 641.928 -1.27161 1.12979 0
M  V30 6638 O 643.113 -1.33279 1.41246 0
M  V30 6639 C 640.243 -2.06398 2.79315 0
M  V30 6640 C 639.197 -1.74673 3.90735 0
M  V30 6641 C 638.523 -3.06482 4.38147 0
M  V30 6642 C 639.823 -1.0089 5.12463 0
M  V30 6643 H 641.517 -0.303032 2.97863 0
M  V30 6644 H 639.063 -0.144314 1.43275 0
M  V30 6645 H 641.016 -2.72885 3.2111 0
M  V30 6646 H 639.74 -2.60118 1.975 0
M  V30 6647 H 638.399 -1.10572 3.49527 0
M  V30 6648 H 638.047 -3.58152 3.5318 0
M  V30 6649 H 637.747 -2.86025 5.13287 0
M  V30 6650 H 639.271 -3.74073 4.82599 0
M  V30 6651 H 640.685 -1.57546 5.51228 0
M  V30 6652 H 639.082 -0.905006 5.93237 0
M  V30 6653 H 640.152 0.00297335 4.849 0
M  V30 6654 N 641.495 -1.56914 -0.146875 0
M  V30 6655 C 642.741 -1.83628 -0.860741 0
M  V30 6656 C 643.074 -0.708528 -1.80813 0
M  V30 6657 O 642.349 0.287838 -1.92358 0
M  V30 6658 C 642.632 -3.20836 -1.63511 0
M  V30 6659 C 642.485 -4.44174 -0.709199 0
M  V30 6660 C 643.804 -3.55268 -2.59756 0
M  V30 6661 H 640.923 -0.667949 -0.311468 0
M  V30 6662 H 643.565 -1.89582 -0.125936 0
M  V30 6663 H 641.715 -3.15891 -2.26153 0
M  V30 6664 H 643.387 -4.61205 -0.0937781 0
M  V30 6665 H 641.63 -4.33796 -0.0187856 0
M  V30 6666 H 642.301 -5.36785 -1.28707 0
M  V30 6667 H 644.777 -3.60824 -2.07232 0
M  V30 6668 H 643.653 -4.52303 -3.10987 0
M  V30 6669 H 643.914 -2.81231 -3.41118 0
M  V30 6670 N 642.974 0.416227 -1.52004 0
M  V30 6671 C 643.907 1.52736 -1.6955 0
M  V30 6672 C 644.885 1.53264 -0.54305 0
M  V30 6673 O 646.069 1.72077 -0.769527 0
M  V30 6674 C 643.196 2.91283 -1.72835 0
M  V30 6675 C 642.242 3.08695 -2.94295 0
M  V30 6676 S 643.075 2.82758 -4.54762 0
M  V30 6677 C 644.231 4.23548 -4.60823 0
M  V30 6678 H 644.464 1.37623 -2.63528 0
M  V30 6679 H 641.997 0.607335 -1.41954 0
M  V30 6680 H 643.955 3.71134 -1.75413 0
M  V30 6681 H 642.616 3.03742 -0.799966 0
M  V30 6682 H 641.809 4.10042 -2.93056 0
M  V30 6683 H 641.411 2.36699 -2.89568 0
M  V30 6684 H 643.703 5.17078 -4.37763 0
M  V30 6685 H 644.646 4.29813 -5.62731 0
M  V30 6686 H 645.054 4.08188 -3.89927 0
M  V30 6687 N 644.452 1.42507 0.673017 0
M  V30 6688 C 645.362 1.4853 1.81593 0
M  V30 6689 C 646.378 0.373907 1.69935 0
M  V30 6690 O 647.554 0.625078 1.91454 0
M  V30 6691 C 644.619 1.387 3.17747 0
M  V30 6692 C 643.68 2.60346 3.41348 0
M  V30 6693 C 642.913 2.50975 4.71007 0
M  V30 6694 O 643.136 1.54659 5.49033 0
M  V30 6695 O 642.07 3.41138 4.95892 0
M  V30 6696 H 645.896 2.45001 1.79467 0
M  V30 6697 H 643.481 1.2429 0.82899 0
M  V30 6698 H 645.363 1.35586 3.98992 0
M  V30 6699 H 644.038 0.453555 3.20507 0
M  V30 6700 H 642.945 2.69034 2.59945 0
M  V30 6701 H 644.278 3.52595 3.43421 0
M  V30 6702 N 645.93 -0.909495 1.28709 0
M  V30 6703 C 646.877 -2.01245 1.13 0
M  V30 6704 C 647.847 -1.6608 0.0259684 0
M  V30 6705 O 649.032 -1.89835 0.191687 0
M  V30 6706 C 646.172 -3.35644 0.802315 0
M  V30 6707 C 645.285 -3.83653 1.98582 0
M  V30 6708 C 644.42 -5.06582 1.59837 0
M  V30 6709 C 643.459 -5.46934 2.74827 0
M  V30 6710 N 642.596 -6.61053 2.36546 0
M  V30 6711 H 647.436 -2.14013 2.0737 0
M  V30 6712 H 644.973 -1.0482 1.03205 0
M  V30 6713 H 646.931 -4.12963 0.593057 0
M  V30 6714 H 645.561 -3.22631 -0.104457 0
M  V30 6715 H 644.613 -3.02454 2.30708 0
M  V30 6716 H 645.925 -4.09515 2.84779 0
M  V30 6717 H 645.079 -5.91457 1.35143 0
M  V30 6718 H 643.818 -4.82537 0.707753 0
M  V30 6719 H 642.823 -4.60599 3.00215 0
M  V30 6720 H 644.048 -5.72965 3.64538 0
M  V30 6721 H 641.994 -6.3863 1.49959 0
M  V30 6722 H 641.911 -6.86662 3.16277 0
M  V30 6723 H 643.179 -7.49221 2.15146 0
M  V30 6724 N 647.408 -1.11026 -1.11852 0
M  V30 6725 C 648.648 -0.866348 -1.85132 0
M  V30 6726 C 649.012 0.597236 -1.82475 0
M  V30 6727 O 650.213 0.957744 -2.51159 0
M  V30 6728 C 648.484 -1.40721 -3.28531 0
M  V30 6729 S 650.043 -1.29964 -4.19112 0
M  V30 6730 H 646.861 -0.312899 -0.638447 0
M  V30 6731 H 649.463 -1.41691 -1.34699 0
M  V30 6732 H 648.167 -2.46631 -3.28027 0
M  V30 6733 H 647.698 -0.85349 -3.8403 0
M  V30 6734 H 649.713 -0.261333 -4.95511 0
M  V30 6735 N 648.886 1.2938 -0.899927 0
M  V30 6736 C 650.163 1.9046 -0.445443 0
M  V30 6737 C 650.543 1.81683 1.07492 0
M  V30 6738 O 649.891 1.24371 1.91688 0
M  V30 6739 C 650.101 3.35529 -0.960279 0
M  V30 6740 C 651.449 4.12556 -1.00412 0
M  V30 6741 O 652.473 3.44434 -0.907965 0
M  V30 6742 O 651.332 5.34294 -1.14857 0
M  V30 6743 H 648.426 0.815253 -0.138893 0
M  V30 6744 H 650.972 1.37844 -0.989808 0
M  V30 6745 H 649.744 3.36074 -2.00425 0
M  V30 6746 H 649.367 3.95624 -0.395939 0
M  V30 6747 N 650.364 0.662433 1.43002 0
M  V30 6748 C 651.641 0.109096 1.95296 0
M  V30 6749 C 652.021 -1.37313 1.60338 0
M  V30 6750 O 651.369 -2.1032 0.893187 0
M  V30 6751 C 651.579 0.365096 3.47085 0
M  V30 6752 C 652.927 0.274964 4.23709 0
M  V30 6753 O 653.951 0.29816 3.5495 0
M  V30 6754 O 652.81 0.206549 5.4611 0
M  V30 6755 H 649.904 -0.00429724 0.826989 0
M  V30 6756 H 652.45 0.736308 1.52894 0
M  V30 6757 H 651.222 1.39237 3.65689 0
M  V30 6758 H 650.845 -0.294733 3.96506 0
M  V30 6759 N 651.842 -1.52309 0.404946 0
M  V30 6760 C 652.752 -2.30634 -0.429555 0
M  V30 6761 C 653.768 -1.38187 -1.05737 0
M  V30 6762 O 654.944 -1.71261 -1.05979 0
M  V30 6763 C 652.009 -3.10947 -1.53339 0
M  V30 6764 C 651.07 -4.19126 -0.929065 0
M  V30 6765 C 650.303 -4.95601 -1.9803 0
M  V30 6766 O 650.526 -4.72331 -3.1978 0
M  V30 6767 O 649.46 -5.80551 -1.58886 0
M  V30 6768 H 653.286 -3.0298 0.208963 0
M  V30 6769 H 650.871 -1.4845 0.168255 0
M  V30 6770 H 652.753 -3.60974 -2.1743 0
M  V30 6771 H 651.428 -2.41399 -2.15658 0
M  V30 6772 H 650.335 -3.73257 -0.250982 0
M  V30 6773 H 651.668 -4.90955 -0.349855 0
M  V30 6774 N 653.32 -0.135238 -1.57019 0
M  V30 6775 C 654.283 0.794707 -2.14981 0
M  V30 6776 C 655.283 1.18342 -1.08866 0
M  V30 6777 O 656.473 1.10627 -1.34563 0
M  V30 6778 C 653.605 2.07685 -2.70333 0
M  V30 6779 H 654.798 0.290696 -2.98488 0
M  V30 6780 H 652.351 0.114128 -1.55883 0
M  V30 6781 H 653.086 2.6248 -1.9046 0
M  V30 6782 H 652.871 1.80745 -3.47957 0
M  V30 6783 H 654.361 2.74127 -3.1503 0
M  V30 6784 N 654.798 1.5699 0.138552 0
M  V30 6785 C 656.044 1.84081 0.85099 0
M  V30 6786 C 656.377 0.718107 1.80435 0
M  V30 6787 O 655.652 -0.277633 1.92508 0
M  V30 6788 C 655.935 3.21699 1.61808 0
M  V30 6789 C 655.788 4.44544 0.685633 0
M  V30 6790 C 657.107 3.5664 2.57868 0
M  V30 6791 H 654.226 0.669592 0.307922 0
M  V30 6792 H 656.868 1.89646 0.11588 0
M  V30 6793 H 655.018 3.17086 2.24474 0
M  V30 6794 H 656.69 4.61248 0.0693179 0
M  V30 6795 H 654.933 4.338 -0.00421993 0
M  V30 6796 H 655.604 5.3746 1.25858 0
M  V30 6797 H 658.08 3.61918 2.05316 0
M  V30 6798 H 656.956 4.53946 3.08584 0
M  V30 6799 H 657.217 2.83036 3.39622 0
M  V30 6800 N 656.276 -0.40816 1.52223 0
M  V30 6801 C 657.239 -1.48 1.7501 0
M  V30 6802 C 658.239 -1.48367 0.619996 0
M  V30 6803 O 659.429 -1.49874 0.887881 0
M  V30 6804 C 656.561 -2.87403 1.83336 0
M  V30 6805 H 657.754 -1.29086 2.70697 0
M  V30 6806 H 655.307 -0.638715 1.42654 0
M  V30 6807 H 656.042 -3.11686 0.895677 0
M  V30 6808 H 655.827 -2.8854 2.65494 0
M  V30 6809 H 657.317 -3.65103 2.02705 0
M  V30 6810 N 657.755 -1.42862 -0.66545 0
M  V30 6811 C 658.665 -1.49491 -1.80803 0
M  V30 6812 C 659.681 -0.382914 -1.69734 0
M  V30 6813 O 660.857 -0.635223 -1.9112 0
M  V30 6814 C 657.922 -1.40383 -3.17007 0
M  V30 6815 C 656.983 -2.62152 -3.39963 0
M  V30 6816 C 656.216 -2.53469 -4.69669 0
M  V30 6817 O 656.439 -1.57568 -5.48205 0
M  V30 6818 O 655.373 -3.43763 -4.94075 0
M  V30 6819 H 659.199 -2.45949 -1.78165 0
M  V30 6820 H 656.784 -1.24728 -0.822387 0
M  V30 6821 H 658.666 -1.377 -3.98267 0
M  V30 6822 H 657.341 -0.470546 -3.20262 0
M  V30 6823 H 656.248 -2.70409 -2.58515 0
M  V30 6824 H 657.581 -3.54411 -3.41546 0
M  V30 6825 N 659.233 0.902656 -1.29189 0
M  V30 6826 C 660.482 1.6475 -1.16362 0
M  V30 6827 C 660.795 1.93517 0.284682 0
M  V30 6828 O 662.001 2.66192 0.534229 0
M  V30 6829 C 660.457 2.96848 -2.03493 0
M  V30 6830 C 660.065 2.75687 -3.5313 0
M  V30 6831 C 661.809 3.74762 -1.99383 0
M  V30 6832 C 659.716 4.03492 -4.32375 0
M  V30 6833 H 658.646 0.618041 -0.431904 0
M  V30 6834 H 661.297 1.0008 -1.53806 0
M  V30 6835 H 659.679 3.62715 -1.58916 0
M  V30 6836 H 660.853 2.18431 -4.05739 0
M  V30 6837 H 659.168 2.11171 -3.58881 0
M  V30 6838 H 661.765 4.69515 -2.5585 0
M  V30 6839 H 662.108 4.04767 -0.973123 0
M  V30 6840 H 662.641 3.15732 -2.41988 0
M  V30 6841 H 659.38 3.78656 -5.3507 0
M  V30 6842 H 658.9 4.60318 -3.84535 0
M  V30 6843 H 660.579 4.71662 -4.42881 0
M  V30 6844 N 660.711 1.11618 1.11262 0
M  V30 6845 C 661.951 0.876154 1.8467 0
M  V30 6846 C 662.315 -0.587551 1.82789 0
M  V30 6847 O 663.516 -0.944411 2.51663 0
M  V30 6848 C 661.787 1.42461 3.2778 0
M  V30 6849 S 663.346 1.32185 4.18417 0
M  V30 6850 H 660.164 0.31628 0.636779 0
M  V30 6851 H 662.766 1.42404 1.33946 0
M  V30 6852 H 661.47 2.48367 3.26714 0
M  V30 6853 H 661.001 0.873844 3.83572 0
M  V30 6854 H 663.016 0.287607 4.95366 0
M  V30 6855 N 662.189 -1.289 0.906776 0
M  V30 6856 C 663.417 -1.99401 0.551969 0
M  V30 6857 C 663.832 -1.67816 -0.865048 0
M  V30 6858 O 663.189 -0.927078 -1.57199 0
M  V30 6859 C 663.24 -3.53779 0.743152 0
M  V30 6860 O 662.961 -3.84248 2.1044 0
M  V30 6861 C 664.462 -4.41543 0.39424 0
M  V30 6862 H 661.682 -0.636926 0.211106 0
M  V30 6863 H 664.226 -1.64266 1.21807 0
M  V30 6864 H 662.381 -3.87201 0.124143 0
M  V30 6865 H 662.795 -4.78904 2.13895 0
M  V30 6866 H 664.269 -5.48957 0.578814 0
M  V30 6867 H 664.746 -4.34073 -0.669137 0
M  V30 6868 H 665.352 -4.13605 0.990491 0
M  V30 6869 N 663.667 -0.670007 -1.42649 0
M  V30 6870 C 664.577 0.0114788 -2.34597 0
M  V30 6871 C 665.593 0.794055 -1.54825 0
M  V30 6872 O 666.769 0.737472 -1.87412 0
M  V30 6873 C 663.834 0.954436 -3.33304 0
M  V30 6874 C 662.895 0.166925 -4.28975 0
M  V30 6875 C 662.128 1.06497 -5.22967 0
M  V30 6876 O 662.351 2.30446 -5.21777 0
M  V30 6877 O 661.285 0.528347 -5.99577 0
M  V30 6878 H 665.111 -0.745794 -2.944 0
M  V30 6879 H 662.696 -0.430228 -1.43071 0
M  V30 6880 H 664.578 1.49589 -3.93956 0
M  V30 6881 H 663.253 1.69164 -2.7598 0
M  V30 6882 H 662.16 -0.418515 -3.71752 0
M  V30 6883 H 663.493 -0.531067 -4.89327 0
M  V30 6884 N 665.145 1.52092 -0.413018 0
M  V30 6885 C 666.078 2.23613 0.455234 0
M  V30 6886 C 667.056 1.2459 1.04481 0
M  V30 6887 O 668.24 1.53653 1.09193 0
M  V30 6888 C 665.367 2.96775 1.63224 0
M  V30 6889 C 664.413 4.10261 1.16568 0
M  V30 6890 S 665.246 5.35348 0.127633 0
M  V30 6891 C 666.402 6.1204 1.30987 0
M  V30 6892 H 666.635 2.96911 -0.152042 0
M  V30 6893 H 664.168 1.53134 -0.197343 0
M  V30 6894 H 666.126 3.39532 2.30713 0
M  V30 6895 H 664.787 2.23113 2.21087 0
M  V30 6896 H 663.98 4.6064 2.04515 0
M  V30 6897 H 663.582 3.6964 0.569386 0
M  V30 6898 H 665.874 6.39651 2.23276 0
M  V30 6899 H 666.817 7.03022 0.846533 0
M  V30 6900 H 667.225 5.43161 1.53743 0
M  V30 6901 N 666.623 0.143563 1.56945 0
M  V30 6902 C 667.553 -0.7936 2.196 0
M  V30 6903 C 668.534 -1.25955 1.14321 0
M  V30 6904 O 669.719 -1.31773 1.42651 0
M  V30 6905 C 666.849 -2.03424 2.81489 0
M  V30 6906 C 665.803 -1.70519 3.92565 0
M  V30 6907 C 665.129 -3.01817 4.41373 0
M  V30 6908 C 666.429 -0.95449 5.13504 0
M  V30 6909 H 668.123 -0.271423 2.98167 0
M  V30 6910 H 665.669 -0.12911 1.4342 0
M  V30 6911 H 667.622 -2.69463 3.23987 0
M  V30 6912 H 666.346 -2.58008 2.00248 0
M  V30 6913 H 665.005 -1.06859 3.5068 0
M  V30 6914 H 664.653 -3.54386 3.56959 0
M  V30 6915 H 664.353 -2.80565 5.16292 0
M  V30 6916 H 665.877 -3.68934 4.86539 0
M  V30 6917 H 667.291 -1.5169 5.52868 0
M  V30 6918 H 665.688 -0.842035 5.94163 0
M  V30 6919 H 666.758 0.0544033 4.84869 0
M  V30 6920 N 668.101 -1.57061 -0.130224 0
M  V30 6921 C 669.517 -1.52103 -0.483413 0
M  V30 6922 C 669.717 -0.854752 -1.82473 0
M  V30 6923 O 668.773 -0.432342 -2.48771 0
M  V30 6924 C 670.086 -2.96872 -0.47825 0
M  V30 6925 C 671.634 -3.07902 -0.562592 0
M  V30 6926 C 672.109 -4.54211 -0.587929 0
M  V30 6927 N 673.6 -4.58621 -0.649684 0
M  V30 6928 C 674.335 -5.69227 -0.690551 0
M  V30 6929 N 673.831 -6.89358 -0.689743 0
M  V30 6930 N 675.624 -5.57304 -0.732708 0
M  V30 6931 H 667.775 -1.98764 0.748779 0
M  V30 6932 H 670.038 -0.907248 0.274965 0
M  V30 6933 H 669.744 -3.48944 0.439444 0
M  V30 6934 H 669.618 -3.53716 -1.31013 0
M  V30 6935 H 672.005 -2.5584 -1.47071 0
M  V30 6936 H 672.086 -2.54073 0.296764 0
M  V30 6937 H 671.73 -5.06915 0.316096 0
M  V30 6938 H 671.66 -5.0584 -1.46401 0
M  V30 6939 H 674.151 -3.72146 -0.656927 0
M  V30 6940 H 674.464 -7.69408 -0.723239 0
M  V30 6941 H 672.809 -6.91884 -0.657347 0
M  V30 6942 H 676 -4.62363 -0.730625 0
M  V30 6943 H 676.173 -6.43515 -0.76109 0
M  V30 6944 N 669.579 0.400081 -1.52437 0
M  V30 6945 C 670.511 1.50729 -1.72666 0
M  V30 6946 C 671.524 1.51058 -0.607075 0
M  V30 6947 O 672.713 1.5516 -0.88248 0
M  V30 6948 C 669.813 2.89604 -1.76019 0
M  V30 6949 C 668.986 3.13365 -3.05157 0
M  V30 6950 C 668.045 4.32163 -3.00203 0
M  V30 6951 O 667.071 4.29004 -3.74092 0
M  V30 6952 N 668.273 5.3776 -2.18619 0
M  V30 6953 H 671.038 1.33767 -2.68191 0
M  V30 6954 H 668.599 0.58948 -1.50787 0
M  V30 6955 H 670.591 3.67159 -1.70225 0
M  V30 6956 H 669.161 2.99979 -0.879284 0
M  V30 6957 H 668.381 2.23774 -3.24529 0
M  V30 6958 H 669.669 3.26089 -3.90568 0
M  V30 6959 H 669.067 5.43177 -1.58035 0
M  V30 6960 H 667.624 6.14023 -2.18674 0
M  V30 6961 N 671.057 1.43213 0.657864 0
M  V30 6962 C 672.304 1.44584 1.41781 0
M  V30 6963 C 672.632 0.0684208 1.9438 0
M  V30 6964 O 671.887 -0.925872 1.72413 0
M  V30 6965 C 672.186 2.43143 2.61947 0
M  V30 6966 C 671.852 3.89128 2.27794 0
M  V30 6967 C 670.514 4.28889 2.18191 0
M  V30 6968 C 672.866 4.81144 2.00375 0
M  V30 6969 C 670.194 5.58625 1.79319 0
M  V30 6970 C 672.546 6.11239 1.63003 0
M  V30 6971 C 671.21 6.49981 1.51922 0
M  V30 6972 H 670.48 0.529069 0.518813 0
M  V30 6973 H 673.127 1.76263 0.748577 0
M  V30 6974 H 671.432 2.04851 3.33981 0
M  V30 6975 H 673.129 2.4146 3.20153 0
M  V30 6976 H 669.719 3.57657 2.36176 0
M  V30 6977 H 673.903 4.512 2.06718 0
M  V30 6978 H 669.159 5.87486 1.69323 0
M  V30 6979 H 673.333 6.82014 1.40817 0
M  V30 6980 H 670.96 7.50416 1.21572 0
M  V30 6981 N 672.536 -0.895792 1.29666 0
M  V30 6982 C 673.764 -1.68001 1.20761 0
M  V30 6983 C 674.179 -1.87379 -0.231187 0
M  V30 6984 O 673.536 -1.41359 -1.15429 0
M  V30 6985 C 673.587 -3.06236 1.92098 0
M  V30 6986 O 673.308 -2.8774 3.30359 0
M  V30 6987 C 674.809 -4.00652 1.89717 0
M  V30 6988 H 672.029 -0.524591 0.418384 0
M  V30 6989 H 674.573 -1.11995 1.71106 0
M  V30 6990 H 672.728 -3.59007 1.45578 0
M  V30 6991 H 673.142 -3.75359 3.66342 0
M  V30 6992 H 674.616 -4.95051 2.44189 0
M  V30 6993 H 675.093 -4.30424 0.873595 0
M  V30 6994 H 675.699 -3.53815 2.35998 0
M  V30 6995 N 674.014 -1.12206 -1.10668 0
M  V30 6996 C 675.262 -0.874144 -1.82217 0
M  V30 6997 C 675.583 0.601736 -1.85484 0
M  V30 6998 O 674.853 1.43725 -1.33116 0
M  V30 6999 H 673.433 -0.320404 -0.674797 0
M  V30 7000 H 676.095 -1.41606 -1.33917 0
M  V30 7001 H 675.191 -1.25349 -2.85822 0
M  V30 7002 N 675.492 1.28418 -0.913599 0
M  V30 7003 C 676.44 2.29272 -0.392037 0
M  V30 7004 C 677.434 1.61344 0.516198 0
M  V30 7005 O 678.64 1.75557 0.39746 0
M  V30 7006 H 675.015 0.744178 -0.108178 0
M  V30 7007 H 676.986 2.70691 -1.25574 0
M  V30 7008 C 675.735 3.45905 0.352815 0
M  V30 7009 H 675.058 3.98378 -0.336848 0
M  V30 7010 H 676.498 4.18473 0.682398 0
M  V30 7011 C 674.957 2.98572 1.56065 0
M  V30 7012 O 675.487 3.01033 2.65974 0
M  V30 7013 N 673.693 2.54235 1.40759 0
M  V30 7014 H 673.24 2.52432 0.513403 0
M  V30 7015 H 673.198 2.22925 2.21702 0
M  V30 7016 N 676.97 0.677563 1.42291 0
M  V30 7017 C 678.381 0.277912 1.8462 0
M  V30 7018 C 678.732 -1.18048 1.56714 0
M  V30 7019 O 677.857 -1.90404 1.02836 0
M  V30 7020 C 678.452 0.497619 3.35126 0
M  V30 7021 C 677.011 0.152063 3.76093 0
M  V30 7022 C 676.158 0.78872 2.65847 0
M  V30 7023 H 679.109 0.879527 1.32098 0
M  V30 7024 H 679.13 -0.24939 3.79682 0
M  V30 7025 H 678.642 1.55913 3.55405 0
M  V30 7026 H 676.743 -0.905896 3.6142 0
M  V30 7027 H 676.856 0.594514 4.75397 0
M  V30 7028 H 675.22 0.219813 2.5375 0
M  V30 7029 H 676.003 1.85374 2.88949 0
M  V30 7030 N 678.448 -1.51871 0.421078 0
M  V30 7031 C 679.396 -2.28903 -0.413066 0
M  V30 7032 C 680.39 -1.3408 -1.03532 0
M  V30 7033 O 681.596 -1.5149 -0.972146 0
M  V30 7034 H 677.971 -0.736478 -0.152003 0
M  V30 7035 H 679.942 -2.97285 0.257695 0
M  V30 7036 C 678.691 -3.13156 -1.51091 0
M  V30 7037 H 678.014 -3.85997 -1.04145 0
M  V30 7038 H 679.454 -3.7014 -2.06814 0
M  V30 7039 C 677.913 -2.27482 -2.48503 0
M  V30 7040 O 678.443 -1.92325 -3.52667 0
M  V30 7041 N 676.649 -1.91019 -2.18998 0
M  V30 7042 H 676.196 -2.19808 -1.34322 0
M  V30 7043 H 676.154 -1.3399 -2.84419 0
M  V30 7044 N 679.926 -0.151884 -1.56866 0
M  V30 7045 C 681.175 0.497992 -1.95456 0
M  V30 7046 C 681.488 1.6569 -1.03953 0
M  V30 7047 O 682.694 2.37173 -1.32142 0
M  V30 7048 C 681.15 0.93732 -3.4748 0
M  V30 7049 C 680.758 -0.194921 -4.47576 0
M  V30 7050 C 682.502 1.55671 -3.94926 0
M  V30 7051 C 680.409 0.26295 -5.90815 0
M  V30 7052 H 679.339 0.189811 -0.729717 0
M  V30 7053 H 681.99 -0.237011 -1.81963 0
M  V30 7054 H 680.372 1.72773 -3.56322 0
M  V30 7055 H 681.546 -0.971951 -4.50433 0
M  V30 7056 H 679.861 -0.72303 -4.10075 0
M  V30 7057 H 682.458 1.91099 -4.99385 0
M  V30 7058 H 682.801 2.44748 -3.36755 0
M  V30 7059 H 683.334 0.831109 -3.89021 0
M  V30 7060 H 680.073 -0.592568 -6.52816 0
M  V30 7061 H 679.593 1.00575 -5.91308 0
M  V30 7062 H 681.272 0.713333 -6.43056 0
M  V30 7063 N 681.404 1.57128 0.121893 0
M  V30 7064 C 682.815 1.73902 0.679348 0
M  V30 7065 C 683.166 0.770135 1.80453 0
M  V30 7066 O 682.291 -0.0576083 2.16323 0
M  V30 7067 C 682.886 3.15328 1.2391 0
M  V30 7068 C 681.445 3.33618 1.74288 0
M  V30 7069 C 680.592 2.6978 0.641414 0
M  V30 7070 H 683.543 1.58359 -0.104 0
M  V30 7071 H 683.564 3.16718 2.10879 0
M  V30 7072 H 683.076 3.85821 0.419957 0
M  V30 7073 H 681.177 2.68162 2.58689 0
M  V30 7074 H 681.29 4.4176 1.85432 0
M  V30 7075 H 679.654 2.30935 1.0743 0
M  V30 7076 H 680.437 3.42895 -0.166707 0
M  V30 7077 N 682.882 -0.391992 1.52647 0
M  V30 7078 C 683.829 -1.47866 1.77213 0
M  V30 7079 C 684.799 -1.54286 0.615223 0
M  V30 7080 O 685.984 -1.7059 0.854622 0
M  V30 7081 C 683.124 -2.85129 1.94411 0
M  V30 7082 C 682.237 -2.87883 3.22098 0
M  V30 7083 C 681.372 -4.16553 3.29631 0
M  V30 7084 C 680.411 -4.13348 4.51453 0
M  V30 7085 N 679.548 -5.33619 4.56284 0
M  V30 7086 H 684.388 -1.26219 2.6995 0
M  V30 7087 H 681.925 -0.612367 1.33748 0
M  V30 7088 H 683.883 -3.64833 2.02367 0
M  V30 7089 H 682.513 -3.05232 1.05038 0
M  V30 7090 H 681.565 -2.00567 3.23229 0
M  V30 7091 H 682.877 -2.81382 4.11856 0
M  V30 7092 H 682.031 -5.0466 3.36753 0
M  V30 7093 H 680.77 -4.25773 2.37842 0
M  V30 7094 H 679.775 -3.23629 4.44459 0
M  V30 7095 H 681 -4.05754 5.44555 0
M  V30 7096 H 678.946 -5.43474 3.67385 0
M  V30 7097 H 678.863 -5.29182 5.3991 0
M  V30 7098 H 680.131 -6.23632 4.67657 0
M  V30 7099 N 684.36 -1.4356 -0.65026 0
M  V30 7100 C 685.771 -1.40324 -1.2315 0
M  V30 7101 C 686.122 -0.108812 -1.95898 0
M  V30 7102 O 685.247 0.79163 -2.01401 0
M  V30 7103 C 685.842 -2.54195 -2.23987 0
M  V30 7104 C 684.401 -2.54215 -2.77582 0
M  V30 7105 C 683.548 -2.31752 -1.5227 0
M  V30 7106 H 686.499 -1.52418 -0.442095 0
M  V30 7107 H 686.52 -2.25854 -3.0622 0
M  V30 7108 H 686.032 -3.48392 -1.71011 0
M  V30 7109 H 684.133 -1.63907 -3.34612 0
M  V30 7110 H 684.246 -3.52081 -3.24925 0
M  V30 7111 H 682.61 -1.80476 -1.79723 0
M  V30 7112 H 683.393 -3.28037 -1.01225 0
M  V30 7113 N 685.838 0.888903 -1.30139 0
M  V30 7114 C 687.254 1.17153 -1.08385 0
M  V30 7115 C 687.454 2.0088 0.157925 0
M  V30 7116 O 686.51 2.37668 0.852652 0
M  V30 7117 C 687.823 1.882 -2.34523 0
M  V30 7118 C 689.371 2.00981 -2.39949 0
M  V30 7119 C 689.846 2.75441 -3.65918 0
M  V30 7120 N 691.337 2.82989 -3.66704 0
M  V30 7121 C 692.072 3.41167 -4.60861 0
M  V30 7122 N 691.568 4.00425 -5.6536 0
M  V30 7123 N 693.361 3.38944 -4.48412 0
M  V30 7124 H 685.512 0.33053 -2.09812 0
M  V30 7125 H 687.775 0.208964 -0.924683 0
M  V30 7126 H 687.481 1.34119 -3.25123 0
M  V30 7127 H 687.355 2.88609 -2.42868 0
M  V30 7128 H 689.742 2.54234 -1.4983 0
M  V30 7129 H 689.823 0.996725 -2.35582 0
M  V30 7130 H 689.467 2.22861 -4.56394 0
M  V30 7131 H 689.397 3.77118 -3.67546 0
M  V30 7132 H 691.888 2.40912 -2.91153 0
M  V30 7133 H 692.201 4.42871 -6.33313 0
M  V30 7134 H 690.546 3.98856 -5.69157 0
M  V30 7135 H 693.737 2.91875 -3.6596 0
M  V30 7136 H 693.91 3.83989 -5.21974 0
M  V30 7137 N 687.317 1.12792 1.10072 0
M  V30 7138 C 688.733 0.864745 1.34143 0
M  V30 7139 C 688.933 -0.503201 1.95116 0
M  V30 7140 O 687.989 -1.25111 2.19325 0
M  V30 7141 C 689.302 1.98413 2.25949 0
M  V30 7142 C 690.85 2.01545 2.39476 0
M  V30 7143 C 691.325 3.12727 3.34613 0
M  V30 7144 N 692.816 3.12194 3.42183 0
M  V30 7145 C 693.551 3.94862 4.15779 0
M  V30 7146 N 693.047 4.87528 4.92228 0
M  V30 7147 N 694.84 3.82985 4.11435 0
M  V30 7148 H 686.991 2.00926 0.68866 0
M  V30 7149 H 689.254 0.874564 0.365844 0
M  V30 7150 H 688.96 2.97005 1.88364 0
M  V30 7151 H 688.834 1.89254 3.26287 0
M  V30 7152 H 691.221 1.0357 2.76328 0
M  V30 7153 H 691.302 2.14777 1.3894 0
M  V30 7154 H 690.946 4.10936 2.98486 0
M  V30 7155 H 690.876 2.96732 4.35037 0
M  V30 7156 H 693.367 2.45065 2.87666 0
M  V30 7157 H 693.68 5.47109 5.45794 0
M  V30 7158 H 692.025 4.91539 4.9134 0
M  V30 7159 H 695.216 3.09923 3.50807 0
M  V30 7160 H 695.389 4.47641 4.68531 0
M  V30 7161 N 688.795 -1.27931 0.920396 0
M  V30 7162 C 690.044 -1.93975 0.552867 0
M  V30 7163 C 690.357 -1.73193 -0.909035 0
M  V30 7164 O 691.563 -2.33515 -1.38502 0
M  V30 7165 C 690.019 -3.47463 0.937947 0
M  V30 7166 C 689.627 -3.77013 2.42003 0
M  V30 7167 C 691.371 -4.19628 0.64132 0
M  V30 7168 C 689.278 -5.23841 2.74489 0
M  V30 7169 H 688.208 -0.726146 0.203046 0
M  V30 7170 H 690.859 -1.45339 1.12022 0
M  V30 7171 H 689.241 -3.94867 0.299317 0
M  V30 7172 H 690.415 -3.40393 3.10595 0
M  V30 7173 H 688.73 -3.18035 2.6878 0
M  V30 7174 H 691.327 -5.27729 0.860622 0
M  V30 7175 H 691.67 -4.14164 -0.421168 0
M  V30 7176 H 692.203 -3.78022 1.23872 0
M  V30 7177 H 688.942 -5.34388 3.79618 0
M  V30 7178 H 688.462 -5.61634 2.1054 0
M  V30 7179 H 690.141 -5.91647 2.61845 0
M  V30 7180 N 690.273 -0.685099 -1.4193 0
M  V30 7181 C 691.203 -0.0273506 -2.33484 0
M  V30 7182 C 692.184 0.778366 -1.51246 0
M  V30 7183 O 693.369 0.733449 -1.79817 0
M  V30 7184 C 690.499 0.917272 -3.34968 0
M  V30 7185 C 689.453 0.21941 -4.27437 0
M  V30 7186 C 688.779 1.27768 -5.1921 0
M  V30 7187 C 690.079 -0.907894 -5.14349 0
M  V30 7188 H 691.773 -0.791994 -2.88735 0
M  V30 7189 H 689.319 -0.382308 -1.38832 0
M  V30 7190 H 691.272 1.38657 -3.97935 0
M  V30 7191 H 689.996 1.71346 -2.78043 0
M  V30 7192 H 688.655 -0.229757 -3.65879 0
M  V30 7193 H 688.303 2.06612 -4.58607 0
M  V30 7194 H 688.003 0.815803 -5.81909 0
M  V30 7195 H 689.527 1.7477 -5.85054 0
M  V30 7196 H 690.941 -0.519348 -5.70943 0
M  V30 7197 H 689.338 -1.2962 -5.85934 0
M  V30 7198 H 690.408 -1.75218 -4.52136 0
M  V30 7199 N 691.751 1.51645 -0.429126 0
M  V30 7200 C 693.167 1.59394 -0.080994 0
M  V30 7201 C 693.367 1.44064 1.40882 0
M  V30 7202 O 692.423 1.27771 2.17786 0
M  V30 7203 C 693.736 2.94779 -0.593773 0
M  V30 7204 C 695.284 3.08067 -0.553494 0
M  V30 7205 C 695.759 4.45963 -1.04311 0
M  V30 7206 N 697.25 4.5226 -1.00076 0
M  V30 7207 C 697.985 5.57268 -1.35056 0
M  V30 7208 N 697.481 6.69734 -1.77282 0
M  V30 7209 N 699.274 5.47582 -1.26925 0
M  V30 7210 H 691.425 1.59856 -1.39857 0
M  V30 7211 H 693.688 0.753095 -0.575805 0
M  V30 7212 H 693.394 3.11342 -1.63583 0
M  V30 7213 H 693.268 3.77197 -0.0142202 0
M  V30 7214 H 695.655 2.91177 0.479556 0
M  V30 7215 H 695.736 2.27508 -1.16935 0
M  V30 7216 H 695.38 4.63598 -2.07459 0
M  V30 7217 H 695.31 5.25049 -0.403873 0
M  V30 7218 H 697.801 3.71537 -0.690564 0
M  V30 7219 H 698.114 7.4587 -2.02232 0
M  V30 7220 H 696.459 6.70963 -1.81202 0
M  V30 7221 H 699.65 4.58604 -0.93809 0
M  V30 7222 H 699.823 6.29308 -1.54516 0
M  V30 7223 N 693.229 0.160201 1.56784 0
M  V30 7224 C 694.454 -0.497373 2.01348 0
M  V30 7225 C 694.879 -1.56757 1.03966 0
M  V30 7226 O 694.237 -1.81292 0.0174455 0
M  V30 7227 C 694.285 -1.0628 3.44582 0
M  V30 7228 O 693.389 -2.17723 3.50244 0
M  V30 7229 H 692.73 -0.120295 0.653012 0
M  V30 7230 H 695.26 0.260821 2.02931 0
M  V30 7231 H 695.27 -1.38819 3.83658 0
M  V30 7232 H 693.945 -0.279166 4.14962 0
M  V30 7233 H 692.522 -1.86313 3.2302 0
M  V30 7234 N 694.707 -1.5719 -0.113559 0
M  V30 7235 C 695.67 -1.99796 -1.12314 0
M  V30 7236 C 696.67 -0.888847 -1.34001 0
M  V30 7237 O 697.86 -1.15476 -1.30426 0
M  V30 7238 C 694.992 -2.34279 -2.47641 0
M  V30 7239 H 696.185 -2.90193 -0.756825 0
M  V30 7240 H 693.738 -1.52144 -0.358029 0
M  V30 7241 H 694.473 -1.46778 -2.89183 0
M  V30 7242 H 694.258 -3.15175 -2.33253 0
M  V30 7243 H 695.748 -2.67963 -3.2029 0
M  V30 7244 N 696.185 0.383891 -1.52853 0
M  V30 7245 C 697.431 1.12667 -1.69345 0
M  V30 7246 C 697.786 1.87519 -0.430635 0
M  V30 7247 O 697.079 1.82742 0.575846 0
M  V30 7248 C 697.273 2.12881 -2.87082 0
M  V30 7249 C 697.102 1.47873 -4.24692 0
M  V30 7250 C 695.872 1.24064 -4.89833 0
M  V30 7251 C 698.07 0.926118 -5.05893 0
M  V30 7252 N 696.052 0.552138 -6.11412 0
M  V30 7253 C 697.423 0.365966 -6.18919 0
M  V30 7254 C 699.478 0.823023 -4.91051 0
M  V30 7255 C 698.181 -0.287204 -7.18726 0
M  V30 7256 C 700.207 0.183666 -5.91115 0
M  V30 7257 C 699.569 -0.365693 -7.0345 0
M  V30 7258 H 695.668 0.398064 -0.673104 0
M  V30 7259 H 698.252 0.415504 -1.90215 0
M  V30 7260 H 696.423 2.81329 -2.67784 0
M  V30 7261 H 698.155 2.79703 -2.92486 0
M  V30 7262 H 694.91 1.51701 -4.48647 0
M  V30 7263 H 695.334 0.223783 -6.7663 0
M  V30 7264 H 699.976 1.23354 -4.04405 0
M  V30 7265 H 697.694 -0.709719 -8.04977 0
M  V30 7266 H 701.28 0.105074 -5.81705 0
M  V30 7267 H 700.16 -0.85261 -7.79551 0
M  V30 7268 N 697.663 1.43903 0.642637 0
M  V30 7269 C 698.911 1.45791 1.39962 0
M  V30 7270 C 699.232 0.0873144 1.94804 0
M  V30 7271 O 698.502 -0.878825 1.75081 0
M  V30 7272 H 697.082 0.536797 0.519479 0
M  V30 7273 H 699.744 1.7959 0.757189 0
M  V30 7274 H 698.84 2.17665 2.2367 0
M  V30 7275 N 699.141 -0.881989 1.30609 0
M  V30 7276 C 700.366 -1.67236 1.22665 0
M  V30 7277 C 700.791 -1.8696 -0.206777 0
M  V30 7278 O 700.149 -1.4027 -1.14865 0
M  V30 7279 C 700.197 -3.02446 1.96363 0
M  V30 7280 O 699.301 -3.91614 1.29276 0
M  V30 7281 H 698.642 -0.510902 0.424117 0
M  V30 7282 H 701.172 -1.10055 1.72479 0
M  V30 7283 H 701.182 -3.52468 2.055 0
M  V30 7284 H 699.857 -2.8741 3.00613 0
M  V30 7285 H 698.434 -3.50055 1.28514 0
M  V30 7286 N 700.619 -1.13374 -1.09472 0
M  V30 7287 C 701.567 -0.806105 -2.18185 0
M  V30 7288 C 702.561 0.21136 -1.68076 0
M  V30 7289 O 703.767 0.0685558 -1.79869 0
M  V30 7290 H 700.142 -0.242901 -0.71169 0
M  V30 7291 H 702.113 -1.73115 -2.43051 0
M  V30 7292 C 700.862 -0.287928 -3.46506 0
M  V30 7293 H 700.185 -1.06217 -3.85432 0
M  V30 7294 H 701.625 -0.0971054 -4.23889 0
M  V30 7295 C 700.084 0.986256 -3.22141 0
M  V30 7296 O 700.614 2.06217 -3.44728 0
M  V30 7297 N 698.82 0.917153 -2.75747 0
M  V30 7298 H 698.367 0.0414609 -2.57567 0
M  V30 7299 H 698.325 1.77029 -2.59823 0
M  V30 7300 N 702.098 1.27442 -0.927168 0
M  V30 7301 C 703.509 1.76385 -0.611979 0
M  V30 7302 C 703.86 1.75715 0.872853 0
M  V30 7303 O 702.985 1.3603 1.683 0
M  V30 7304 C 703.58 3.20303 -1.10414 0
M  V30 7305 C 702.139 3.66916 -0.839628 0
M  V30 7306 C 701.286 2.46859 -1.26317 0
M  V30 7307 H 704.237 1.13716 -1.107 0
M  V30 7308 H 704.258 3.77811 -0.451578 0
M  V30 7309 H 703.77 3.20759 -2.18484 0
M  V30 7310 H 701.871 3.71906 0.227292 0
M  V30 7311 H 701.984 4.56415 -1.45679 0
M  V30 7312 H 700.348 2.45407 -0.681723 0
M  V30 7313 H 701.131 2.50025 -2.3525 0
M  V30 7314 N 703.576 0.692616 1.41565 0
M  V30 7315 C 704.806 0.230943 2.05305 0
M  V30 7316 C 705.214 -1.12379 1.52209 0
M  V30 7317 O 704.557 -1.71281 0.663968 0
M  V30 7318 C 704.619 0.107894 3.59338 0
M  V30 7319 C 704.283 1.39419 4.35214 0
M  V30 7320 C 705.28 2.33143 4.64694 0
M  V30 7321 C 702.965 1.64674 4.74539 0
M  V30 7322 C 704.959 3.50385 5.32456 0
M  V30 7323 C 702.646 2.82202 5.42038 0
M  V30 7324 C 703.644 3.74881 5.70923 0
M  V30 7325 O 703.332 4.90351 6.37033 0
M  V30 7326 H 703.064 0.105708 0.667684 0
M  V30 7327 H 705.618 0.94488 1.82376 0
M  V30 7328 H 703.848 -0.661785 3.80995 0
M  V30 7329 H 705.537 -0.316213 4.04666 0
M  V30 7330 H 706.303 2.14887 4.34797 0
M  V30 7331 H 702.182 0.934007 4.51439 0
M  V30 7332 H 705.726 4.22743 5.54918 0
M  V30 7333 H 701.623 3.00376 5.71353 0
M  V30 7334 H 702.391 4.90128 6.55528 0
M  V30 7335 N 705.054 -1.51416 0.437162 0
M  V30 7336 C 706.301 -2.02086 -0.129364 0
M  V30 7337 C 706.629 -1.32133 -1.42728 0
M  V30 7338 O 705.884 -0.424916 -1.91031 0
M  V30 7339 C 706.183 -3.55203 -0.39564 0
M  V30 7340 C 705.849 -4.43447 0.81644 0
M  V30 7341 C 704.511 -4.67285 1.14884 0
M  V30 7342 C 706.863 -4.95219 1.62503 0
M  V30 7343 C 704.191 -5.40141 2.29052 0
M  V30 7344 C 706.543 -5.69327 2.7577 0
M  V30 7345 C 705.207 -5.91429 3.09464 0
M  V30 7346 H 704.477 -0.739486 -0.0473375 0
M  V30 7347 H 707.124 -1.82368 0.584321 0
M  V30 7348 H 705.429 -3.73252 -1.19121 0
M  V30 7349 H 707.126 -3.91944 -0.847399 0
M  V30 7350 H 703.716 -4.2509 0.547422 0
M  V30 7351 H 707.9 -4.76686 1.38144 0
M  V30 7352 H 703.156 -5.55468 2.55471 0
M  V30 7353 H 707.33 -6.08433 3.38795 0
M  V30 7354 H 704.957 -6.47662 3.98042 0
M  V30 7355 N 706.532 -0.168513 -1.56696 0
M  V30 7356 C 707.948 0.187686 -1.58493 0
M  V30 7357 C 708.148 1.63063 -1.18375 0
M  V30 7358 O 707.204 2.36142 -0.894042 0
M  V30 7359 C 708.517 -0.0905858 -3.00564 0
M  V30 7360 C 710.065 -0.028575 -3.12987 0
M  V30 7361 C 710.54 -0.279799 -4.57145 0
M  V30 7362 N 712.031 -0.227476 -4.62641 0
M  V30 7363 C 712.766 -0.396073 -5.7203 0
M  V30 7364 N 712.262 -0.623572 -6.89988 0
M  V30 7365 N 714.055 -0.332173 -5.61118 0
M  V30 7366 H 706.206 -1.11042 -1.81062 0
M  V30 7367 H 708.469 -0.441235 -0.839056 0
M  V30 7368 H 708.175 -1.09006 -3.34381 0
M  V30 7369 H 708.049 0.619078 -3.72085 0
M  V30 7370 H 710.436 0.961471 -2.78998 0
M  V30 7371 H 710.517 -0.770905 -2.43907 0
M  V30 7372 H 710.161 -1.26704 -4.91842 0
M  V30 7373 H 710.091 0.48311 -5.24379 0
M  V30 7374 H 712.582 -0.0571723 -3.77857 0
M  V30 7375 H 712.895 -0.741745 -7.69232 0
M  V30 7376 H 711.24 -0.660153 -6.91858 0
M  V30 7377 H 714.431 -0.155051 -4.67843 0
M  V30 7378 H 714.604 -0.466994 -6.46315 0
M  V30 7379 N 708.01 1.57248 0.105221 0
M  V30 7380 C 709.258 1.85204 0.808951 0
M  V30 7381 C 709.579 0.75574 1.7976 0
M  V30 7382 O 708.849 -0.218984 1.94672 0
M  V30 7383 H 707.429 0.683346 0.301739 0
M  V30 7384 H 710.091 1.94695 0.0892605 0
M  V30 7385 H 709.187 2.81595 1.34575 0
M  V30 7386 N 709.488 -0.375779 1.53054 0
M  V30 7387 C 710.713 -1.14484 1.7294 0
M  V30 7388 C 711.138 -1.82572 0.452668 0
M  V30 7389 O 710.496 -1.71343 -0.592567 0
M  V30 7390 C 710.544 -2.15857 2.88857 0
M  V30 7391 O 709.648 -3.22725 2.56753 0
M  V30 7392 H 708.989 -0.332666 0.574656 0
M  V30 7393 H 711.519 -0.436025 1.999 0
M  V30 7394 H 711.529 -2.59631 3.14731 0
M  V30 7395 H 710.204 -1.65689 3.81471 0
M  V30 7396 H 708.781 -2.83996 2.41663 0
M  V30 7397 N 710.966 -1.44241 -0.634997 0
M  V30 7398 C 712.196 -1.50078 -1.41987 0
M  V30 7399 C 712.604 -0.123072 -1.88799 0
M  V30 7400 O 711.947 0.880552 -1.6122 0
M  V30 7401 C 712.009 -2.40033 -2.67628 0
M  V30 7402 C 711.673 -3.87268 -2.42637 0
M  V30 7403 C 712.67 -4.77902 -2.04708 0
M  V30 7404 C 710.355 -4.31933 -2.56396 0
M  V30 7405 C 712.349 -6.11202 -1.80862 0
M  V30 7406 C 710.036 -5.65281 -2.32164 0
M  V30 7407 C 711.034 -6.54734 -1.94455 0
M  V30 7408 O 710.722 -7.85613 -1.7049 0
M  V30 7409 H 710.454 -0.51146 -0.442023 0
M  V30 7410 H 713.008 -1.89843 -0.784138 0
M  V30 7411 H 711.238 -1.95188 -3.33824 0
M  V30 7412 H 712.927 -2.36863 -3.29622 0
M  V30 7413 H 713.693 -4.44668 -1.93638 0
M  V30 7414 H 709.572 -3.62569 -2.84719 0
M  V30 7415 H 713.116 -6.80983 -1.51353 0
M  V30 7416 H 709.013 -5.98078 -2.42843 0
M  V30 7417 H 709.781 -7.97373 -1.84767 0
M  V30 7418 N 712.444 0.87505 -1.31075 0
M  V30 7419 C 713.669 1.66583 -1.23551 0
M  V30 7420 C 714.094 1.87067 0.19686 0
M  V30 7421 O 713.452 1.40877 1.1412 0
M  V30 7422 C 713.5 3.01401 -1.97965 0
M  V30 7423 O 712.604 3.90923 -1.31351 0
M  V30 7424 H 711.945 0.508645 -0.426821 0
M  V30 7425 H 714.475 1.09139 -1.7306 0
M  V30 7426 H 714.485 3.51374 -2.07366 0
M  V30 7427 H 713.16 2.85812 -3.02133 0
M  V30 7428 H 711.737 3.49369 -1.30368 0
M  V30 7429 N 713.922 1.13953 1.08869 0
M  V30 7430 C 715.152 0.926825 1.84644 0
M  V30 7431 C 715.56 -0.527941 1.81685 0
M  V30 7432 O 714.903 -1.37742 1.21543 0
M  V30 7433 C 714.965 1.34416 3.33426 0
M  V30 7434 C 714.629 2.81351 3.60126 0
M  V30 7435 C 715.626 3.79486 3.55368 0
M  V30 7436 C 713.311 3.1865 3.88288 0
M  V30 7437 C 715.305 5.1293 3.78393 0
M  V30 7438 C 712.992 4.5227 4.10968 0
M  V30 7439 C 713.99 5.4922 4.06013 0
M  V30 7440 O 713.678 6.80429 4.28102 0
M  V30 7441 H 713.41 0.33013 0.589907 0
M  V30 7442 H 715.964 1.51738 1.38436 0
M  V30 7443 H 714.194 0.696901 3.80368 0
M  V30 7444 H 715.883 1.10302 3.90626 0
M  V30 7445 H 716.649 3.52017 3.3363 0
M  V30 7446 H 712.528 2.43785 3.91267 0
M  V30 7447 H 716.072 5.88591 3.74442 0
M  V30 7448 H 711.969 4.79462 4.32188 0
M  V30 7449 H 712.737 6.86617 4.45533 0
M  V30 7450 N 715.4 -1.26948 0.933913 0
M  V30 7451 C 716.628 -1.98186 0.59414 0
M  V30 7452 C 717.043 -1.69614 -0.829257 0
M  V30 7453 O 716.4 -0.960213 -1.55197 0
M  V30 7454 C 716.451 -3.52123 0.818026 0
M  V30 7455 O 716.172 -3.79698 2.18543 0
M  V30 7456 C 717.673 -4.40608 0.48781 0
M  V30 7457 H 714.893 -0.632305 0.224569 0
M  V30 7458 H 717.437 -1.61646 1.25263 0
M  V30 7459 H 715.592 -3.86851 0.206246 0
M  V30 7460 H 716.006 -4.7426 2.24005 0
M  V30 7461 H 717.48 -5.47606 0.695126 0
M  V30 7462 H 717.957 -4.35394 -0.576913 0
M  V30 7463 H 718.563 -4.11411 1.078 0
M  V30 7464 N 716.879 -0.700114 -1.41195 0
M  V30 7465 C 717.811 0.00155823 -2.292 0
M  V30 7466 C 718.824 0.739736 -1.45023 0
M  V30 7467 O 720.013 0.589684 -1.68478 0
M  V30 7468 C 717.113 1.02635 -3.22985 0
M  V30 7469 C 716.286 0.356871 -4.35942 0
M  V30 7470 C 715.345 1.28491 -5.10271 0
M  V30 7471 O 714.371 0.775562 -5.63892 0
M  V30 7472 N 715.573 2.61699 -5.18164 0
M  V30 7473 H 718.338 -0.754008 -2.9006 0
M  V30 7474 H 715.899 -0.546504 -1.52397 0
M  V30 7475 H 717.891 1.64902 -3.6958 0
M  V30 7476 H 716.461 1.68341 -2.63401 0
M  V30 7477 H 715.681 -0.445753 -3.91672 0
M  V30 7478 H 716.969 -0.108469 -5.08684 0
M  V30 7479 H 716.367 3.05594 -4.76056 0
M  V30 7480 H 714.924 3.19149 -5.6832 0
M  V30 7481 N 718.357 1.51182 -0.445186 0
M  V30 7482 C 719.603 2.02452 0.11882 0
M  V30 7483 C 719.936 1.32824 1.41673 0
M  V30 7484 O 719.211 0.445637 1.89326 0
M  V30 7485 C 719.494 3.5859 0.329475 0
M  V30 7486 C 719.347 4.38823 -0.987638 0
M  V30 7487 C 720.666 4.26241 1.09575 0
M  V30 7488 H 717.785 0.735819 0.0417092 0
M  V30 7489 H 720.427 1.80747 -0.585718 0
M  V30 7490 H 718.577 3.77214 0.9296 0
M  V30 7491 H 720.249 4.3183 -1.62235 0
M  V30 7492 H 718.492 4.03594 -1.59041 0
M  V30 7493 H 719.163 5.46257 -0.794192 0
M  V30 7494 H 721.639 4.11934 0.587328 0
M  V30 7495 H 720.515 5.35354 1.21191 0
M  V30 7496 H 720.776 3.87635 2.12584 0
M  V30 7497 N 719.835 0.176821 1.56605 0
M  V30 7498 C 721.083 -0.465793 1.96659 0
M  V30 7499 C 721.404 -1.63406 1.06412 0
M  V30 7500 O 720.674 -1.95457 0.131603 0
M  V30 7501 H 719.254 -0.175072 0.726195 0
M  V30 7502 H 721.916 0.25929 1.93168 0
M  V30 7503 H 721.012 -0.822138 3.01077 0
M  V30 7504 N 721.313 -1.57302 -0.09688 0
M  V30 7505 C 722.538 -1.9058 -0.818169 0
M  V30 7506 C 722.963 -0.770921 -1.71576 0
M  V30 7507 O 722.321 0.277588 -1.79162 0
M  V30 7508 C 722.369 -3.22714 -1.60898 0
M  V30 7509 O 721.473 -3.10178 -2.71779 0
M  V30 7510 H 720.814 -0.624759 -0.224882 0
M  V30 7511 H 723.344 -2.04471 -0.07264 0
M  V30 7512 H 723.354 -3.55978 -1.99358 0
M  V30 7513 H 722.029 -4.04899 -0.950227 0
M  V30 7514 H 720.606 -2.88424 -2.3636 0
M  V30 7515 N 722.791 0.367657 -1.53252 0
M  V30 7516 C 724.016 1.13566 -1.73544 0
M  V30 7517 C 724.441 1.82329 -0.462344 0
M  V30 7518 O 723.799 1.71655 0.583472 0
M  V30 7519 C 723.847 2.14322 -2.89997 0
M  V30 7520 O 722.951 3.21359 -2.58461 0
M  V30 7521 H 722.292 0.329614 -0.576412 0
M  V30 7522 H 724.822 0.425417 -2.00128 0
M  V30 7523 H 724.832 2.57958 -3.16104 0
M  V30 7524 H 723.507 1.63664 -3.82344 0
M  V30 7525 H 722.084 2.8271 -2.43165 0
M  V30 7526 N 724.269 1.44576 0.627338 0
M  V30 7527 C 725.517 1.47267 1.38408 0
M  V30 7528 C 725.838 0.107971 1.94701 0
M  V30 7529 O 725.108 -0.860206 1.76004 0
M  V30 7530 H 723.688 0.542276 0.513756 0
M  V30 7531 H 726.35 1.80383 0.738099 0
M  V30 7532 H 725.446 2.20025 2.21349 0
M  V30 7533 N 725.747 -0.868086 1.31537 0
M  V30 7534 C 726.71 -1.95703 1.19302 0
M  V30 7535 C 727.71 -1.60355 0.119612 0
M  V30 7536 O 728.9 -1.70247 0.36902 0
M  V30 7537 C 726.032 -3.30599 0.831684 0
M  V30 7538 H 727.225 -2.07982 2.16064 0
M  V30 7539 H 724.778 -1.05661 1.15176 0
M  V30 7540 H 725.513 -3.2402 -0.134694 0
M  V30 7541 H 725.298 -3.57629 1.60761 0
M  V30 7542 H 726.788 -4.10439 0.770026 0
M  V30 7543 N 727.225 -1.14528 -1.08264 0
M  V30 7544 C 728.502 -0.825185 -1.77342 0
M  V30 7545 C 728.882 0.681037 -1.99813 0
M  V30 7546 O 728.23 1.62234 -1.60912 0
M  V30 7547 C 728.44 -1.62556 -3.08831 0
M  V30 7548 C 729.788 -1.82585 -3.83338 0
M  V30 7549 O 730.812 -1.59254 -3.18617 0
M  V30 7550 O 729.671 -2.21598 -4.99556 0
M  V30 7551 H 726.765 -0.302531 -0.769678 0
M  V30 7552 H 729.311 -1.25056 -1.14713 0
M  V30 7553 H 728.083 -2.64862 -2.88035 0
M  V30 7554 H 727.706 -1.1959 -3.79189 0
M  V30 7555 N 728.703 1.26451 -0.940633 0
M  V30 7556 C 729.949 1.94065 -0.58878 0
M  V30 7557 C 730.282 1.7363 0.869853 0
M  V30 7558 O 729.557 1.073 1.62225 0
M  V30 7559 C 729.84 3.47852 -0.931199 0
M  V30 7560 C 729.693 3.77575 -2.44453 0
M  V30 7561 C 731.012 4.37832 -0.446229 0
M  V30 7562 H 728.131 0.704827 -0.21538 0
M  V30 7563 H 730.773 1.4933 -1.17475 0
M  V30 7564 H 728.923 3.86085 -0.432539 0
M  V30 7565 H 730.595 3.49059 -3.01588 0
M  V30 7566 H 728.838 3.23671 -2.88825 0
M  V30 7567 H 729.509 4.85068 -2.63464 0
M  V30 7568 H 731.985 4.06822 -0.873778 0
M  V30 7569 H 730.861 5.44228 -0.714648 0
M  V30 7570 H 731.122 4.37239 0.653815 0
M  V30 7571 N 730.181 0.707592 1.40822 0
M  V30 7572 C 731.091 0.0507246 2.34545 0
M  V30 7573 C 732.107 -0.752727 1.56876 0
M  V30 7574 O 733.283 -0.687524 1.89302 0
M  V30 7575 C 730.348 -0.865731 3.35717 0
M  V30 7576 C 729.409 -0.0531313 4.29267 0
M  V30 7577 C 728.642 -0.925939 5.25606 0
M  V30 7578 O 728.865 -2.16531 5.27703 0
M  V30 7579 O 727.799 -0.369194 6.00767 0
M  V30 7580 H 731.625 0.823587 2.9232 0
M  V30 7581 H 729.21 0.46801 1.4188 0
M  V30 7582 H 731.092 -1.39091 3.97783 0
M  V30 7583 H 729.767 -1.61788 2.80368 0
M  V30 7584 H 728.674 0.516931 3.70511 0
M  V30 7585 H 730.007 0.660617 4.87747 0
M  V30 7586 N 731.66 -1.50943 0.453197 0
M  V30 7587 C 732.607 -2.28128 -0.350197 0
M  V30 7588 C 733.577 -1.32398 -1.00299 0
M  V30 7589 O 734.762 -1.61319 -1.01887 0
M  V30 7590 C 731.902 -3.13782 -1.43649 0
M  V30 7591 C 731.015 -4.24523 -0.800255 0
M  V30 7592 C 730.15 -4.97462 -1.86293 0
M  V30 7593 C 729.189 -6.00102 -1.20598 0
M  V30 7594 N 728.326 -6.66387 -2.21071 0
M  V30 7595 H 733.166 -2.96337 0.31434 0
M  V30 7596 H 730.703 -1.46151 0.166863 0
M  V30 7597 H 732.661 -3.6178 -2.07776 0
M  V30 7598 H 731.291 -2.47655 -2.07044 0
M  V30 7599 H 730.343 -3.80371 -0.0468651 0
M  V30 7600 H 731.655 -4.98009 -0.280777 0
M  V30 7601 H 730.809 -5.49088 -2.58044 0
M  V30 7602 H 729.548 -4.23642 -2.41617 0
M  V30 7603 H 728.553 -5.47753 -0.474 0
M  V30 7604 H 729.778 -6.75887 -0.659859 0
M  V30 7605 H 727.724 -5.9537 -2.75446 0
M  V30 7606 H 727.641 -7.3569 -1.74058 0
M  V30 7607 H 728.909 -7.22638 -2.92257 0
M  V30 7608 N 733.138 -0.185124 -1.56509 0
M  V30 7609 C 734.068 0.735098 -2.21627 0
M  V30 7610 C 735.049 1.2288 -1.1762 0
M  V30 7611 O 736.234 1.27945 -1.46095 0
M  V30 7612 C 733.364 1.95889 -2.86783 0
M  V30 7613 C 732.318 1.6005 -3.96948 0
M  V30 7614 C 731.644 2.90009 -4.4922 0
M  V30 7615 C 732.944 0.818008 -5.15855 0
M  V30 7616 H 734.638 0.192274 -2.98782 0
M  V30 7617 H 732.184 0.0910393 -1.43712 0
M  V30 7618 H 734.137 2.60779 -3.31017 0
M  V30 7619 H 732.861 2.52608 -2.07018 0
M  V30 7620 H 731.52 0.975237 -3.5339 0
M  V30 7621 H 731.168 3.44797 -3.6623 0
M  V30 7622 H 730.868 2.66778 -5.23549 0
M  V30 7623 H 732.392 3.55904 -4.9615 0
M  V30 7624 H 733.806 1.36979 -5.56695 0
M  V30 7625 H 732.203 0.684207 -5.96187 0
M  V30 7626 H 733.273 -0.182939 -4.84555 0
M  V30 7627 N 734.616 1.57351 0.0885366 0
M  V30 7628 C 735.579 2.01557 1.09121 0
M  V30 7629 C 736.579 0.910052 1.3257 0
M  V30 7630 O 737.769 1.17537 1.28572 0
M  V30 7631 C 734.901 2.38189 2.43883 0
M  V30 7632 H 736.094 2.91361 0.710562 0
M  V30 7633 H 733.647 1.52694 0.333779 0
M  V30 7634 H 734.382 1.5136 2.86811 0
M  V30 7635 H 734.167 3.18846 2.28209 0
M  V30 7636 H 735.657 2.73025 3.15986 0
M  V30 7637 N 736.094 -0.359525 1.53444 0
M  V30 7638 C 737.041 -1.44073 1.8031 0
M  V30 7639 C 738.011 -1.52946 0.647811 0
M  V30 7640 O 739.196 -1.68739 0.890614 0
M  V30 7641 C 736.336 -2.80941 2.00416 0
M  V30 7642 C 735.449 -2.80986 3.28132 0
M  V30 7643 C 734.584 -4.09468 3.38393 0
M  V30 7644 C 733.623 -4.03679 4.60119 0
M  V30 7645 N 732.76 -5.23821 4.675 0
M  V30 7646 H 737.6 -1.20464 2.72566 0
M  V30 7647 H 735.137 -0.583859 1.35017 0
M  V30 7648 H 737.095 -3.60459 2.1006 0
M  V30 7649 H 735.725 -3.02936 1.11489 0
M  V30 7650 H 734.777 -1.93666 3.27411 0
M  V30 7651 H 736.089 -2.72583 4.17732 0
M  V30 7652 H 735.243 -4.97404 3.47382 0
M  V30 7653 H 733.982 -4.20632 2.4682 0
M  V30 7654 H 732.987 -3.14129 4.51224 0
M  V30 7655 H 734.212 -3.94112 5.5304 0
M  V30 7656 H 732.158 -5.35559 3.7883 0
M  V30 7657 H 732.075 -5.17611 5.51013 0
M  V30 7658 H 733.343 -6.13572 4.8078 0
M  V30 7659 N 737.572 -1.44907 -0.619662 0
M  V30 7660 C 738.983 -1.42905 -1.20146 0
M  V30 7661 C 739.334 -0.150341 -1.95623 0
M  V30 7662 O 738.459 0.748732 -2.03034 0
M  V30 7663 C 739.054 -2.58889 -2.18545 0
M  V30 7664 C 737.613 -2.60046 -2.72127 0
M  V30 7665 C 736.76 -2.3493 -1.4732 0
M  V30 7666 H 739.711 -1.53321 -0.409666 0
M  V30 7667 H 739.732 -2.32298 -3.0136 0
M  V30 7668 H 739.244 -3.51941 -1.63583 0
M  V30 7669 H 737.345 -1.70968 -3.3106 0
M  V30 7670 H 737.458 -3.58893 -3.17384 0
M  V30 7671 H 735.822 -1.84248 -1.75855 0
M  V30 7672 H 736.605 -3.3011 -0.942442 0
M  V30 7673 N 739.05 0.861098 -1.31996 0
M  V30 7674 C 739.98 1.98482 -1.22993 0
M  V30 7675 C 740.961 1.6971 -0.115168 0
M  V30 7676 O 742.146 1.91849 -0.30126 0
M  V30 7677 C 739.276 3.34179 -0.945615 0
M  V30 7678 C 738.23 3.77284 -2.02091 0
M  V30 7679 C 737.556 5.1054 -1.58912 0
M  V30 7680 C 738.856 3.93439 -3.43515 0
M  V30 7681 H 740.55 2.06271 -2.17008 0
M  V30 7682 H 738.096 0.991043 -1.04472 0
M  V30 7683 H 740.049 4.12338 -0.869206 0
M  V30 7684 H 738.773 3.26586 0.0301849 0
M  V30 7685 H 737.432 3.01371 -2.08737 0
M  V30 7686 H 737.08 4.99397 -0.600942 0
M  V30 7687 H 736.78 5.40352 -2.30854 0
M  V30 7688 H 738.304 5.91199 -1.52696 0
M  V30 7689 H 739.718 4.6197 -3.39495 0
M  V30 7690 H 738.115 4.34661 -4.13751 0
M  V30 7691 H 739.185 2.96548 -3.8365 0
M  V30 7692 N 740.528 1.15101 1.07655 0
M  V30 7693 C 741.939 0.933848 1.61667 0
M  V30 7694 C 742.29 -0.525569 1.8903 0
M  V30 7695 O 741.415 -1.39605 1.65346 0
M  V30 7696 C 742.01 1.68876 2.93711 0
M  V30 7697 C 740.569 1.51697 3.44478 0
M  V30 7698 C 739.716 1.70633 2.18586 0
M  V30 7699 H 742.667 1.30171 0.907816 0
M  V30 7700 H 742.688 1.15645 3.625 0
M  V30 7701 H 742.2 2.7509 2.73764 0
M  V30 7702 H 740.301 0.478635 3.69513 0
M  V30 7703 H 740.414 2.29194 4.20722 0
M  V30 7704 H 738.778 1.13259 2.28132 0
M  V30 7705 H 739.561 2.78206 2.01137 0
M  V30 7706 N 742.006 -1.2595 0.947325 0
M  V30 7707 C 743.236 -1.97258 0.614235 0
M  V30 7708 C 743.644 -1.70682 -0.816355 0
M  V30 7709 O 742.987 -0.97527 -1.55673 0
M  V30 7710 C 743.049 -3.50845 0.784081 0
M  V30 7711 C 742.713 -4.01084 2.19045 0
M  V30 7712 C 743.71 -4.12347 3.16648 0
M  V30 7713 C 741.395 -4.34936 2.51268 0
M  V30 7714 C 743.389 -4.56766 4.44572 0
M  V30 7715 C 741.076 -4.79043 3.79422 0
M  V30 7716 C 742.074 -4.89919 4.75887 0
M  V30 7717 O 741.762 -5.3305 6.01758 0
M  V30 7718 H 741.494 -0.635738 0.22981 0
M  V30 7719 H 744.048 -1.61268 1.27207 0
M  V30 7720 H 742.278 -3.86638 0.069101 0
M  V30 7721 H 743.967 -4.03363 0.453135 0
M  V30 7722 H 744.733 -3.86432 2.93079 0
M  V30 7723 H 740.612 -4.25702 1.76916 0
M  V30 7724 H 744.156 -4.6517 5.19868 0
M  V30 7725 H 740.053 -5.04402 4.02802 0
M  V30 7726 H 740.821 -5.51255 6.05029 0
M  V30 7727 N 743.484 -0.715051 -1.40445 0
M  V30 7728 C 744.712 -0.263959 -2.05209 0
M  V30 7729 C 745.127 1.09403 -1.53871 0
M  V30 7730 O 744.484 1.68746 -0.695064 0
M  V30 7731 C 744.535 -0.234545 -3.60738 0
M  V30 7732 O 744.256 -1.53891 -4.10182 0
M  V30 7733 C 745.757 0.235164 -4.42676 0
M  V30 7734 H 742.977 -0.11876 -0.660407 0
M  V30 7735 H 745.521 -0.973107 -1.79864 0
M  V30 7736 H 743.676 0.425563 -3.85055 0
M  V30 7737 H 744.09 -1.43903 -5.04373 0
M  V30 7738 H 745.564 0.204598 -5.51621 0
M  V30 7739 H 746.041 1.27724 -4.20218 0
M  V30 7740 H 746.647 -0.394649 -4.23465 0
M  V30 7741 N 744.962 1.50701 -0.461195 0
M  V30 7742 C 745.872 2.32069 0.343661 0
M  V30 7743 C 746.888 1.42016 1.00535 0
M  V30 7744 O 748.064 1.75077 0.995498 0
M  V30 7745 C 745.129 3.16424 1.41692 0
M  V30 7746 C 744.19 4.22286 0.772869 0
M  V30 7747 C 743.423 5.02609 1.79499 0
M  V30 7748 O 743.646 4.83874 3.0203 0
M  V30 7749 O 742.58 5.86047 1.3723 0
M  V30 7750 H 746.406 3.01996 -0.321268 0
M  V30 7751 H 743.991 1.47723 -0.223235 0
M  V30 7752 H 745.873 3.68795 2.03883 0
M  V30 7753 H 744.548 2.49236 2.0655 0
M  V30 7754 H 743.455 3.73931 0.112277 0
M  V30 7755 H 744.788 4.91915 0.167399 0
M  V30 7756 N 746.441 0.193421 1.56409 0
M  V30 7757 C 747.666 -0.454552 2.02358 0
M  V30 7758 C 748.091 -1.54516 1.07268 0
M  V30 7759 O 747.449 -1.81214 0.0558962 0
M  V30 7760 C 747.497 -0.989469 3.46759 0
M  V30 7761 O 746.601 -2.10244 3.54783 0
M  V30 7762 H 745.942 -0.106417 0.655417 0
M  V30 7763 H 748.472 0.303807 2.02332 0
M  V30 7764 H 748.482 -1.30649 3.86516 0
M  V30 7765 H 747.157 -0.191083 4.15461 0
M  V30 7766 H 745.734 -1.79419 3.26899 0
M  V30 7767 N 747.919 -1.57396 -0.0801906 0
M  V30 7768 C 749.144 -1.91437 -0.797909 0
M  V30 7769 C 749.569 -0.789075 -1.70749 0
M  V30 7770 O 748.927 0.25857 -1.79447 0
M  V30 7771 C 748.975 -3.24402 -1.57467 0
M  V30 7772 O 748.079 -3.13043 -2.68473 0
M  V30 7773 H 747.42 -0.627109 -0.218243 0
M  V30 7774 H 749.95 -2.04537 -0.050949 0
M  V30 7775 H 749.96 -3.58072 -1.95571 0
M  V30 7776 H 748.635 -4.05884 -0.907229 0
M  V30 7777 H 747.212 -2.90915 -2.33287 0
M  V30 7778 N 749.397 0.351382 -1.53633 0
M  V30 7779 C 750.344 1.43115 -1.81071 0
M  V30 7780 C 751.314 1.52601 -0.655913 0
M  V30 7781 O 752.499 1.68264 -0.89955 0
M  V30 7782 C 749.639 2.79874 -2.01903 0
M  V30 7783 C 748.752 2.79242 -3.29618 0
M  V30 7784 C 747.887 4.07667 -3.40559 0
M  V30 7785 C 746.926 4.01233 -4.62254 0
M  V30 7786 N 746.063 5.21334 -4.70271 0
M  V30 7787 H 750.903 1.19017 -2.73201 0
M  V30 7788 H 748.44 0.576691 -1.35324 0
M  V30 7789 H 750.398 3.5934 -2.11969 0
M  V30 7790 H 749.028 3.0234 -1.13094 0
M  V30 7791 H 748.08 1.91927 -3.28433 0
M  V30 7792 H 749.392 2.70363 -4.19172 0
M  V30 7793 H 748.546 4.95555 -3.50015 0
M  V30 7794 H 747.285 4.19317 -2.49047 0
M  V30 7795 H 746.29 3.11732 -4.52884 0
M  V30 7796 H 747.515 3.91173 -5.55122 0
M  V30 7797 H 745.461 5.33543 -3.81665 0
M  V30 7798 H 745.378 5.14681 -5.5375 0
M  V30 7799 H 746.646 6.11014 -4.84027 0
M  V30 7800 N 750.875 1.45233 0.611969 0
M  V30 7801 C 752.103 1.52539 1.39784 0
M  V30 7802 C 752.518 0.156533 1.8815 0
M  V30 7803 O 751.875 -0.84112 1.61961 0
M  V30 7804 C 751.926 2.50614 2.60528 0
M  V30 7805 O 751.647 3.8218 2.14173 0
M  V30 7806 C 753.148 2.67574 3.53439 0
M  V30 7807 H 750.368 0.51674 0.428043 0
M  V30 7808 H 752.912 1.90379 0.746727 0
M  V30 7809 H 751.067 2.15858 3.2169 0
M  V30 7810 H 751.481 4.35305 2.92592 0
M  V30 7811 H 752.955 3.40184 4.34717 0
M  V30 7812 H 753.432 1.73458 4.03496 0
M  V30 7813 H 754.038 3.0331 2.98133 0
M  V30 7814 N 752.353 -0.854086 1.3245 0
M  V30 7815 C 753.316 -1.94427 1.21371 0
M  V30 7816 C 754.316 -1.60219 0.136613 0
M  V30 7817 O 755.506 -1.69846 0.387057 0
M  V30 7818 C 752.638 -3.29698 0.866701 0
M  V30 7819 H 753.831 -2.05679 2.18257 0
M  V30 7820 H 751.384 -1.04434 1.1629 0
M  V30 7821 H 752.119 -3.24145 -0.100319 0
M  V30 7822 H 751.904 -3.55903 1.64545 0
M  V30 7823 H 753.394 -4.09599 0.813515 0
M  V30 7824 N 753.831 -1.1567 -1.07043 0
M  V30 7825 C 755.242 -0.942408 -1.61169 0
M  V30 7826 C 755.593 0.515537 -1.89306 0
M  V30 7827 O 754.718 1.38726 -1.66084 0
M  V30 7828 C 755.313 -1.70431 -2.92812 0
M  V30 7829 C 753.872 -1.53521 -3.43669 0
M  V30 7830 C 753.019 -1.7179 -2.17678 0
M  V30 7831 H 755.97 -1.3065 -0.9009 0
M  V30 7832 H 755.991 -1.17566 -3.61882 0
M  V30 7833 H 755.503 -2.76538 -2.72302 0
M  V30 7834 H 753.604 -0.498224 -3.69254 0
M  V30 7835 H 753.717 -2.31422 -4.19501 0
M  V30 7836 H 752.081 -1.14468 -2.27529 0
M  V30 7837 H 752.864 -2.79269 -1.99659 0
M  V30 7838 N 755.309 1.25446 -0.953992 0
M  V30 7839 C 756.242 2.24341 -0.417912 0
M  V30 7840 C 757.22 1.54709 0.5004 0
M  V30 7841 O 758.404 1.83414 0.434923 0
M  V30 7842 C 755.531 3.36352 0.398155 0
M  V30 7843 C 754.577 4.24007 -0.460461 0
M  V30 7844 S 755.41 5.00951 -1.89231 0
M  V30 7845 C 756.566 6.1643 -1.08465 0
M  V30 7846 H 756.799 2.69465 -1.25602 0
M  V30 7847 H 754.332 1.34512 -0.758018 0
M  V30 7848 H 756.29 4.01325 0.863059 0
M  V30 7849 H 754.951 2.89813 1.21108 0
M  V30 7850 H 754.144 5.03728 0.165415 0
M  V30 7851 H 753.746 3.63965 -0.860549 0
M  V30 7852 H 756.038 6.76681 -0.333017 0
M  V30 7853 H 756.981 6.8335 -1.85577 0
M  V30 7854 H 757.389 5.61139 -0.615062 0
M  V30 7855 N 756.787 0.722489 1.40064 0
M  V30 7856 C 757.719 0.0349057 2.29173 0
M  V30 7857 C 758.732 -0.716571 1.46182 0
M  V30 7858 O 759.921 -0.562806 1.69395 0
M  V30 7859 C 757.021 -0.974839 3.24577 0
M  V30 7860 C 756.194 -0.287471 4.36454 0
M  V30 7861 C 755.253 -1.20356 5.12251 0
M  V30 7862 O 754.279 -0.685753 5.65054 0
M  V30 7863 N 755.481 -2.53422 5.22262 0
M  V30 7864 H 758.246 0.800058 2.88824 0
M  V30 7865 H 755.807 0.57068 1.51509 0
M  V30 7866 H 757.799 -1.59002 3.72157 0
M  V30 7867 H 756.369 -1.6413 2.66046 0
M  V30 7868 H 755.589 0.508008 3.90913 0
M  V30 7869 H 756.877 0.189382 5.08447 0
M  V30 7870 H 756.275 -2.97981 4.80857 0
M  V30 7871 H 754.832 -3.10067 5.73325 0
M  V30 7872 N 758.265 -1.50454 0.469181 0
M  V30 7873 C 759.511 -2.02615 -0.0865971 0
M  V30 7874 C 759.844 -1.35062 -1.39542 0
M  V30 7875 O 759.119 -0.475701 -1.88593 0
M  V30 7876 C 759.402 -3.59068 -0.272385 0
M  V30 7877 C 759.255 -4.37196 1.05733 0
M  V30 7878 C 760.574 -4.2793 -1.0278 0
M  V30 7879 H 757.693 -0.736389 -0.0299977 0
M  V30 7880 H 760.335 -1.79792 0.614399 0
M  V30 7881 H 758.485 -3.78646 -0.869471 0
M  V30 7882 H 760.157 -4.29195 1.69084 0
M  V30 7883 H 758.4 -4.01013 1.65442 0
M  V30 7884 H 759.071 -5.44924 0.880997 0
M  V30 7885 H 761.547 -4.12816 -0.521718 0
M  V30 7886 H 760.423 -5.37214 -1.12659 0
M  V30 7887 H 760.684 -3.90968 -2.0639 0
M  V30 7888 N 759.743 -0.201713 -1.56304 0
M  V30 7889 C 760.673 0.71155 -2.22394 0
M  V30 7890 C 761.654 1.21625 -1.18917 0
M  V30 7891 O 762.839 1.26388 -1.47444 0
M  V30 7892 C 759.969 1.92837 -2.88845 0
M  V30 7893 C 758.923 1.55831 -3.98623 0
M  V30 7894 C 758.249 2.85228 -4.52271 0
M  V30 7895 C 759.549 0.763249 -5.16693 0
M  V30 7896 H 761.243 0.160573 -2.98969 0
M  V30 7897 H 758.789 0.0757916 -1.438 0
M  V30 7898 H 760.742 2.57253 -3.33764 0
M  V30 7899 H 759.466 2.50398 -2.09686 0
M  V30 7900 H 758.125 0.9377 -3.54405 0
M  V30 7901 H 757.773 3.40893 -3.69866 0
M  V30 7902 H 757.473 2.6121 -5.26349 0
M  V30 7903 H 758.997 3.50622 -4.99897 0
M  V30 7904 H 760.411 1.31066 -5.58117 0
M  V30 7905 H 758.808 0.620935 -5.96879 0
M  V30 7906 H 759.878 -0.234322 -4.84334 0
M  V30 7907 N 761.222 1.57436 0.0718424 0
M  V30 7908 C 762.469 1.87248 0.771007 0
M  V30 7909 C 762.797 0.793441 1.7758 0
M  V30 7910 O 762.052 -0.210565 1.94564 0
M  V30 7911 C 762.351 3.23723 1.51455 0
M  V30 7912 C 762.017 4.46194 0.649736 0
M  V30 7913 C 760.679 4.79438 0.411409 0
M  V30 7914 C 763.031 5.21176 0.05004 0
M  V30 7915 C 760.359 5.85077 -0.436096 0
M  V30 7916 C 762.711 6.27712 -0.784919 0
M  V30 7917 C 761.375 6.59457 -1.03312 0
M  V30 7918 H 760.645 0.685188 0.282132 0
M  V30 7919 H 763.292 1.91474 0.0317896 0
M  V30 7920 H 761.597 3.15287 2.32597 0
M  V30 7921 H 763.294 3.44023 2.06031 0
M  V30 7922 H 759.884 4.20175 0.84562 0
M  V30 7923 H 764.068 4.95806 0.221282 0
M  V30 7924 H 759.324 6.08071 -0.637136 0
M  V30 7925 H 763.498 6.84974 -1.25635 0
M  V30 7926 H 761.125 7.4114 -1.6916 0
M  V30 7927 N 762.7 -0.34323 1.53817 0
M  V30 7928 C 763.925 -1.1079 1.75329 0
M  V30 7929 C 764.35 -1.81571 0.491293 0
M  V30 7930 O 763.708 -1.72561 -0.556089 0
M  V30 7931 C 763.756 -2.09681 2.9337 0
M  V30 7932 O 762.86 -3.17207 2.63541 0
M  V30 7933 H 762.201 -0.320402 0.581583 0
M  V30 7934 H 764.731 -0.393525 2.0078 0
M  V30 7935 H 764.741 -2.52897 3.20168 0
M  V30 7936 H 763.416 -1.5756 3.84899 0
M  V30 7937 H 761.993 -2.78806 2.47632 0
M  V30 7938 N 764.178 -1.45556 -0.604258 0
M  V30 7939 C 765.426 -1.4945 -1.36048 0
M  V30 7940 C 765.747 -0.138933 -1.94504 0
M  V30 7941 O 765.017 0.832097 -1.7735 0
M  V30 7942 H 763.597 -0.550381 -0.505064 0
M  V30 7943 H 766.259 -1.81535 -0.709308 0
M  V30 7944 H 765.355 -2.23519 -2.17821 0
M  V30 7945 N 765.656 0.84705 -1.32902 0
M  V30 7946 C 766.566 1.98845 -1.2449 0
M  V30 7947 C 767.582 1.7329 -0.15702 0
M  V30 7948 O 768.758 1.978 -0.379104 0
M  V30 7949 C 765.823 3.32679 -0.975985 0
M  V30 7950 C 764.884 3.71405 -2.15306 0
M  V30 7951 C 764.117 4.98853 -1.89688 0
M  V30 7952 O 764.34 5.64134 -0.843168 0
M  V30 7953 O 763.274 5.34889 -2.76002 0
M  V30 7954 H 767.1 2.0888 -2.2046 0
M  V30 7955 H 764.685 0.978852 -1.12867 0
M  V30 7956 H 766.567 4.12885 -0.842826 0
M  V30 7957 H 765.242 3.23667 -0.0464954 0
M  V30 7958 H 764.149 2.91743 -2.34172 0
M  V30 7959 H 765.482 3.85073 -3.06561 0
M  V30 7960 N 767.134 1.16236 1.06428 0
M  V30 7961 C 768.097 0.870163 2.1204 0
M  V30 7962 C 769.097 -0.134239 1.60239 0
M  V30 7963 O 770.287 0.0964932 1.73933 0
M  V30 7964 C 767.419 0.301033 3.39568 0
M  V30 7965 H 768.612 1.8064 2.39394 0
M  V30 7966 H 766.165 0.971116 1.2247 0
M  V30 7967 H 766.9 -0.642948 3.17863 0
M  V30 7968 H 766.685 1.02475 3.78472 0
M  V30 7969 H 768.175 0.114494 4.17443 0
M  V30 7970 N 768.612 -1.24939 0.960631 0
M  V30 7971 C 769.84 -1.96881 0.636045 0
M  V30 7972 C 770.255 -1.71334 -0.793093 0
M  V30 7973 O 769.612 -0.992917 -1.53125 0
M  V30 7974 C 769.663 -3.50309 0.892533 0
M  V30 7975 O 769.384 -3.74977 2.26548 0
M  V30 7976 C 770.885 -4.39474 0.581159 0
M  V30 7977 H 768.105 -0.627399 0.237931 0
M  V30 7978 H 770.649 -1.58952 1.28664 0
M  V30 7979 H 768.804 -3.86326 0.288257 0
M  V30 7980 H 769.218 -4.69401 2.34014 0
M  V30 7981 H 770.692 -5.46008 0.811125 0
M  V30 7982 H 771.169 -4.3652 -0.48443 0
M  V30 7983 H 771.775 -4.09032 1.16502 0
M  V30 7984 N 770.09 -0.729906 -1.39679 0
M  V30 7985 C 771.04 -0.0627678 -2.27914 0
M  V30 7986 C 772.024 0.717867 -1.43998 0
M  V30 7987 O 773.216 0.587713 -1.66958 0
M  V30 7988 C 770.345 0.847564 -3.32673 0
M  V30 7989 C 769.431 0.0613515 -4.24056 0
M  V30 7990 N 769.822 -0.962863 -4.96551 0
M  V30 7991 C 768.12 0.291773 -4.45045 0
M  V30 7992 C 768.821 -1.43652 -5.63683 0
M  V30 7993 N 767.797 -0.756044 -5.38317 0
M  V30 7994 H 771.599 -0.847545 -2.81414 0
M  V30 7995 H 769.113 -0.563776 -1.523 0
M  V30 7996 H 771.11 1.34094 -3.94746 0
M  V30 7997 H 769.77 1.63156 -2.80732 0
M  V30 7998 H 770.781 -1.34409 -5.00154 0
M  V30 7999 H 767.458 1.05097 -4.04056 0
M  V30 8000 H 768.848 -2.28835 -6.31731 0
M  V30 8001 N 771.568 1.50203 -0.477153 0
M  V30 8002 C 772.984 1.59056 -0.131663 0
M  V30 8003 C 773.184 1.48473 1.36227 0
M  V30 8004 O 772.24 1.34635 2.13611 0
M  V30 8005 C 773.553 2.92741 -0.687254 0
M  V30 8006 C 775.101 3.0615 -0.651223 0
M  V30 8007 C 775.576 4.42419 -1.18446 0
M  V30 8008 N 777.067 4.48847 -1.14413 0
M  V30 8009 C 777.802 5.52689 -1.52717 0
M  V30 8010 N 777.298 6.63754 -1.98499 0
M  V30 8011 N 779.091 5.43267 -1.44282 0
M  V30 8012 H 771.242 1.55325 -1.44872 0
M  V30 8013 H 773.505 0.734395 -0.599473 0
M  V30 8014 H 773.211 3.0598 -1.73405 0
M  V30 8015 H 773.085 3.76961 -0.134215 0
M  V30 8016 H 775.472 2.92556 0.386677 0
M  V30 8017 H 775.553 2.23673 -1.24114 0
M  V30 8018 H 775.197 4.56763 -2.22103 0
M  V30 8019 H 775.127 5.23498 -0.570709 0
M  V30 8020 H 777.618 3.69152 -0.808416 0
M  V30 8021 H 777.931 7.39059 -2.25859 0
M  V30 8022 H 776.276 6.64858 -2.02456 0
M  V30 8023 H 779.467 4.55387 -1.08352 0
M  V30 8024 H 779.64 6.24074 -1.74459 0
M  V30 8025 N 773.046 0.209999 1.56195 0
M  V30 8026 C 773.993 -0.704854 2.19774 0
M  V30 8027 C 774.963 -1.19886 1.14964 0
M  V30 8028 O 776.148 -1.26005 1.43274 0
M  V30 8029 C 773.288 -1.91241 2.87265 0
M  V30 8030 C 772.401 -1.45838 4.06639 0
M  V30 8031 C 771.536 -2.6226 4.61945 0
M  V30 8032 C 770.575 -2.13537 5.73645 0
M  V30 8033 N 769.712 -3.2319 6.23292 0
M  V30 8034 H 774.552 -0.155944 2.97592 0
M  V30 8035 H 772.089 -0.0652235 1.46955 0
M  V30 8036 H 774.047 -2.62123 3.24573 0
M  V30 8037 H 772.677 -2.43439 2.11985 0
M  V30 8038 H 771.729 -0.644897 3.74894 0
M  V30 8039 H 773.041 -1.06103 4.87384 0
M  V30 8040 H 772.195 -3.41243 5.01636 0
M  V30 8041 H 770.934 -3.05278 3.80338 0
M  V30 8042 H 769.939 -1.33013 5.33468 0
M  V30 8043 H 771.164 -1.71533 6.57079 0
M  V30 8044 H 769.11 -3.65711 5.44602 0
M  V30 8045 H 769.027 -2.8767 6.99129 0
M  V30 8046 H 770.295 -4.02342 6.67639 0
M  V30 8047 N 774.524 -1.57472 -0.0634922 0
M  V30 8048 C 775.754 -1.91608 -0.772645 0
M  V30 8049 C 776.162 -0.805019 -1.71219 0
M  V30 8050 O 775.505 0.229941 -1.82255 0
M  V30 8051 C 775.567 -3.21281 -1.61304 0
M  V30 8052 C 775.231 -4.49177 -0.841973 0
M  V30 8053 C 776.228 -5.19661 -0.157494 0
M  V30 8054 C 773.913 -4.9578 -0.80669 0
M  V30 8055 C 775.907 -6.35006 0.551948 0
M  V30 8056 C 773.594 -6.11028 -0.0934812 0
M  V30 8057 C 774.592 -6.80493 0.58463 0
M  V30 8058 O 774.28 -7.93542 1.28633 0
M  V30 8059 H 774.012 -0.637685 -0.224352 0
M  V30 8060 H 776.566 -2.05369 -0.0355279 0
M  V30 8061 H 774.796 -3.03752 -2.39315 0
M  V30 8062 H 776.485 -3.41003 -2.20162 0
M  V30 8063 H 777.251 -4.84681 -0.176006 0
M  V30 8064 H 773.13 -4.41579 -1.32397 0
M  V30 8065 H 776.674 -6.89161 1.0818 0
M  V30 8066 H 772.571 -6.45459 -0.0729258 0
M  V30 8067 H 773.339 -8.09708 1.19646 0
M  V30 8068 N 776.003 0.335068 -1.53997 0
M  V30 8069 C 777.233 1.0926 -1.75345 0
M  V30 8070 C 777.641 1.82568 -0.496545 0
M  V30 8071 O 776.984 1.75525 0.541897 0
M  V30 8072 C 777.046 2.14473 -2.88516 0
M  V30 8073 C 776.71 1.60665 -4.27827 0
M  V30 8074 C 777.707 1.05448 -5.09094 0
M  V30 8075 C 775.392 1.65255 -4.74337 0
M  V30 8076 C 777.386 0.555372 -6.34976 0
M  V30 8077 C 775.073 1.14956 -6.0019 0
M  V30 8078 C 776.071 0.601907 -6.80343 0
M  V30 8079 O 775.759 0.106445 -8.0383 0
M  V30 8080 H 775.491 0.331329 -0.589234 0
M  V30 8081 H 778.045 0.39042 -2.01655 0
M  V30 8082 H 776.275 2.88274 -2.5775 0
M  V30 8083 H 777.964 2.75857 -2.97755 0
M  V30 8084 H 778.73 1.01218 -4.74321 0
M  V30 8085 H 774.609 2.06822 -4.12002 0
M  V30 8086 H 778.153 0.127245 -6.97484 0
M  V30 8087 H 774.05 1.18891 -6.34457 0
M  V30 8088 H 774.818 0.222944 -8.18196 0
M  V30 8089 N 777.481 1.45874 0.596531 0
M  V30 8090 C 778.706 1.54247 1.38646 0
M  V30 8091 C 779.131 0.179571 1.87241 0
M  V30 8092 O 778.489 -0.837831 1.6078 0
M  V30 8093 C 778.537 2.54015 2.55946 0
M  V30 8094 O 777.641 2.06561 3.5694 0
M  V30 8095 H 776.982 0.519555 0.413471 0
M  V30 8096 H 779.512 1.91327 0.724936 0
M  V30 8097 H 779.522 2.73179 3.03047 0
M  V30 8098 H 778.197 3.52994 2.19928 0
M  V30 8099 H 776.774 1.97324 3.16414 0
M  V30 8100 N 778.959 -0.83999 1.33349 0
M  V30 8101 C 780.187 -1.62728 1.27778 0
M  V30 8102 C 780.602 -1.88191 -0.151505 0
M  V30 8103 O 779.959 -1.46128 -1.09329 0
M  V30 8104 C 780.01 -2.97813 2.04913 0
M  V30 8105 O 779.731 -2.73469 3.42266 0
M  V30 8106 C 781.232 -3.92245 2.0654 0
M  V30 8107 H 778.452 -0.506374 0.440257 0
M  V30 8108 H 780.996 -1.04637 1.75703 0
M  V30 8109 H 779.151 -3.52509 1.60674 0
M  V30 8110 H 779.565 -3.59483 3.81932 0
M  V30 8111 H 781.039 -4.84249 2.64966 0
M  V30 8112 H 781.516 -4.26332 1.05537 0
M  V30 8113 H 782.122 -3.43487 2.50793 0
M  V30 8114 N 780.437 -1.16799 -1.0581 0
M  V30 8115 C 781.665 -0.97687 -1.82387 0
M  V30 8116 C 782.08 0.474917 -1.82729 0
M  V30 8117 O 781.437 1.3297 -1.25001 0
M  V30 8118 C 781.488 -1.50279 -3.28783 0
M  V30 8119 O 781.209 -2.89772 -3.28578 0
M  V30 8120 C 782.71 -1.35538 -4.22071 0
M  V30 8121 H 779.93 -0.345977 -0.574927 0
M  V30 8122 H 782.474 -1.54942 -1.33466 0
M  V30 8123 H 780.629 -0.972414 -3.74997 0
M  V30 8124 H 781.043 -3.13954 -4.20159 0
M  V30 8125 H 782.517 -1.7716 -5.22799 0
M  V30 8126 H 782.994 -0.301598 -4.38163 0
M  V30 8127 H 783.6 -1.87562 -3.81708 0
M  V30 8128 N 781.915 1.24427 -0.967243 0
M  V30 8129 C 782.865 2.23143 -0.468106 0
M  V30 8130 C 783.849 1.5449 0.449633 0
M  V30 8131 O 785.041 1.74761 0.28063 0
M  V30 8132 C 782.17 3.42454 0.240867 0
M  V30 8133 C 781.256 4.18355 -0.695674 0
M  V30 8134 N 781.647 4.71428 -1.83273 0
M  V30 8135 C 779.945 4.43116 -0.506365 0
M  V30 8136 C 780.646 5.29041 -2.41849 0
M  V30 8137 N 779.622 5.16213 -1.70369 0
M  V30 8138 H 783.424 2.61795 -1.3357 0
M  V30 8139 H 780.938 1.39809 -0.826277 0
M  V30 8140 H 782.935 4.12329 0.615668 0
M  V30 8141 H 781.595 3.05323 1.10491 0
M  V30 8142 H 782.606 4.68177 -2.21428 0
M  V30 8143 H 779.283 4.16319 0.313747 0
M  V30 8144 H 780.673 5.80811 -3.37799 0
M  V30 8145 N 783.393 0.737304 1.3929 0
M  V30 8146 C 784.641 0.285691 2.00071 0
M  V30 8147 C 784.962 -1.13169 1.58801 0
M  V30 8148 O 784.232 -1.77104 0.837308 0
M  V30 8149 H 782.812 0.102638 0.739915 0
M  V30 8150 H 785.474 0.947775 1.70303 0
M  V30 8151 H 784.57 0.335906 3.10287 0
M  V30 8152 N 784.871 -1.49948 0.485112 0
M  V30 8153 C 785.834 -2.27351 -0.290546 0
M  V30 8154 C 786.834 -1.32704 -0.908087 0
M  V30 8155 O 788.024 -1.56007 -0.775085 0
M  V30 8156 C 785.156 -3.10135 -1.41524 0
M  V30 8157 H 786.349 -2.97374 0.388454 0
M  V30 8158 H 783.902 -1.54453 0.239586 0
M  V30 8159 H 784.637 -2.44641 -2.12888 0
M  V30 8160 H 784.422 -3.79705 -0.978074 0
M  V30 8161 H 785.912 -3.68638 -1.96204 0
M  V30 8162 N 786.349 -0.21828 -1.56081 0
M  V30 8163 C 787.279 0.687922 -2.23136 0
M  V30 8164 C 788.26 1.20357 -1.202 0
M  V30 8165 O 789.445 1.24817 -1.48776 0
M  V30 8166 C 786.575 1.89762 -2.90874 0
M  V30 8167 C 785.529 1.51595 -4.00254 0
M  V30 8168 C 784.855 2.80415 -4.55271 0
M  V30 8169 C 786.155 0.708404 -5.17474 0
M  V30 8170 H 787.849 0.128854 -2.99123 0
M  V30 8171 H 785.395 0.0605354 -1.43873 0
M  V30 8172 H 787.348 2.53699 -3.36474 0
M  V30 8173 H 786.072 2.4816 -2.1233 0
M  V30 8174 H 784.731 0.900058 -3.55379 0
M  V30 8175 H 784.379 3.36951 -3.73461 0
M  V30 8176 H 784.079 2.55613 -5.2909 0
M  V30 8177 H 785.603 3.453 -5.03587 0
M  V30 8178 H 787.017 1.2514 -5.59476 0
M  V30 8179 H 785.414 0.557593 -5.97504 0
M  V30 8180 H 786.484 -0.285679 -4.84058 0
M  V30 8181 N 787.827 1.57504 0.0551401 0
M  V30 8182 C 788.757 2.07864 1.06372 0
M  V30 8183 C 789.738 0.975565 1.39344 0
M  V30 8184 O 790.923 1.24929 1.48682 0
M  V30 8185 C 788.053 2.53643 2.3724 0
M  V30 8186 C 787.007 3.67978 2.18578 0
M  V30 8187 C 786.333 3.9987 3.54976 0
M  V30 8188 C 787.633 4.97405 1.59329 0
M  V30 8189 H 789.327 2.92379 0.644595 0
M  V30 8190 H 786.873 1.40654 0.308619 0
M  V30 8191 H 788.826 2.8749 3.08103 0
M  V30 8192 H 787.55 1.66177 2.81163 0
M  V30 8193 H 786.209 3.3444 1.50152 0
M  V30 8194 H 785.857 3.0951 3.965 0
M  V30 8195 H 785.557 4.76867 3.43324 0
M  V30 8196 H 787.081 4.36228 4.27244 0
M  V30 8197 H 788.495 5.29375 2.20078 0
M  V30 8198 H 786.892 5.78837 1.58327 0
M  V30 8199 H 787.962 4.81697 0.55638 0
M  V30 8200 N 789.305 -0.326896 1.54172 0
M  V30 8201 C 790.53 -1.08924 1.76494 0
M  V30 8202 C 790.955 -1.81039 0.510523 0
M  V30 8203 O 790.313 -1.73141 -0.537756 0
M  V30 8204 C 790.361 -2.06558 2.95578 0
M  V30 8205 O 789.465 -3.14394 2.6689 0
M  V30 8206 H 788.806 -0.314216 0.584948 0
M  V30 8207 H 791.336 -0.372207 2.01186 0
M  V30 8208 H 791.346 -2.49487 3.22832 0
M  V30 8209 H 790.021 -1.53469 3.86549 0
M  V30 8210 H 788.598 -2.76164 2.50576 0
M  V30 8211 N 790.784 -1.46188 -0.588786 0
M  V30 8212 C 792.032 -1.50885 -1.34455 0
M  V30 8213 C 792.353 -0.159555 -1.94346 0
M  V30 8214 O 791.623 0.813239 -1.78222 0
M  V30 8215 H 790.203 -0.555707 -0.499198 0
M  V30 8216 H 792.865 -1.82277 -0.690014 0
M  V30 8217 H 791.961 -2.25816 -2.15438 0
M  V30 8218 N 792.262 0.832906 -1.33792 0
M  V30 8219 C 793.194 1.95042 -1.2038 0
M  V30 8220 C 794.207 1.62253 -0.133299 0
M  V30 8221 O 795.396 1.74315 -0.384261 0
M  V30 8222 C 792.496 3.287 -0.825215 0
M  V30 8223 C 791.669 3.89581 -1.98861 0
M  V30 8224 C 790.728 5.01602 -1.59003 0
M  V30 8225 O 789.754 5.20431 -2.30522 0
M  V30 8226 N 790.956 5.78356 -0.498446 0
M  V30 8227 H 793.721 2.07083 -2.16649 0
M  V30 8228 H 791.282 1.00896 -1.26616 0
M  V30 8229 H 793.274 4.01074 -0.540559 0
M  V30 8230 H 791.844 3.12565 0.0469796 0
M  V30 8231 H 791.064 3.09723 -2.43856 0
M  V30 8232 H 792.352 4.26989 -2.76691 0
M  V30 8233 H 791.75 5.65618 0.0963297 0
M  V30 8234 H 790.307 6.51226 -0.273485 0
M  V30 8235 N 793.74 1.17359 1.05189 0
M  V30 8236 C 795.156 0.920861 1.30355 0
M  V30 8237 C 795.356 -0.419993 1.97074 0
M  V30 8238 O 794.412 -1.15696 2.24434 0
M  V30 8239 C 795.725 2.07818 2.1733 0
M  V30 8240 C 797.273 2.1152 2.30712 0
M  V30 8241 C 797.748 3.26637 3.21048 0
M  V30 8242 N 799.239 3.26426 3.28634 0
M  V30 8243 C 799.974 4.12141 3.98657 0
M  V30 8244 N 799.47 5.07966 4.71107 0
M  V30 8245 N 801.263 4.00091 3.94821 0
M  V30 8246 H 793.414 2.03666 0.602821 0
M  V30 8247 H 795.677 0.889294 0.328421 0
M  V30 8248 H 795.383 3.04727 1.75597 0
M  V30 8249 H 795.257 2.02922 3.17966 0
M  V30 8250 H 797.644 1.15196 2.71687 0
M  V30 8251 H 797.725 2.20477 1.29706 0
M  V30 8252 H 797.369 4.23227 2.80788 0
M  V30 8253 H 797.299 3.14917 4.2206 0
M  V30 8254 H 799.79 2.57045 2.77013 0
M  V30 8255 H 800.103 5.69766 5.22099 0
M  V30 8256 H 798.448 5.11936 4.7005 0
M  V30 8257 H 801.639 3.24523 3.37346 0
M  V30 8258 H 801.812 4.6711 4.49123 0
M  V30 8259 N 795.218 -1.23913 0.973828 0
M  V30 8260 C 796.128 -2.28838 0.516735 0
M  V30 8261 C 797.144 -1.68723 -0.425282 0
M  V30 8262 O 798.32 -1.99201 -0.296819 0
M  V30 8263 C 795.385 -3.46233 -0.179914 0
M  V30 8264 C 794.446 -4.21729 0.80269 0
M  V30 8265 C 793.679 -5.33518 0.139191 0
M  V30 8266 O 793.902 -5.60252 -1.07118 0
M  V30 8267 O 792.836 -5.96088 0.834447 0
M  V30 8268 H 796.662 -2.70067 1.38916 0
M  V30 8269 H 794.247 -1.2972 0.74115 0
M  V30 8270 H 796.129 -4.17514 -0.570991 0
M  V30 8271 H 794.804 -3.06969 -1.02721 0
M  V30 8272 H 793.711 -3.52799 1.24434 0
M  V30 8273 H 795.044 -4.64825 1.61859 0
M  V30 8274 N 796.696 -0.74468 -1.38897 0
M  V30 8275 C 797.659 -0.11945 -2.28889 0
M  V30 8276 C 798.659 0.656942 -1.46768 0
M  V30 8277 O 799.849 0.484525 -1.67326 0
M  V30 8278 C 796.981 0.839635 -3.30398 0
M  V30 8279 H 798.174 -0.912414 -2.85683 0
M  V30 8280 H 795.727 -0.511119 -1.47707 0
M  V30 8281 H 796.462 1.6586 -2.78677 0
M  V30 8282 H 796.247 0.285432 -3.9106 0
M  V30 8283 H 797.737 1.27337 -3.97712 0
M  V30 8284 N 798.174 1.49689 -0.493057 0
M  V30 8285 C 799.137 2.27502 0.278485 0
M  V30 8286 C 800.137 1.33184 0.901037 0
M  V30 8287 O 801.327 1.56415 0.766801 0
M  V30 8288 C 798.459 3.10881 1.39878 0
M  V30 8289 H 799.652 2.97163 -0.404219 0
M  V30 8290 H 797.205 1.54324 -0.247774 0
M  V30 8291 H 797.94 2.45767 2.11587 0
M  V30 8292 H 797.725 3.80219 0.957924 0
M  V30 8293 H 799.215 3.69673 1.94247 0
M  V30 8294 N 799.652 0.226554 1.55963 0
M  V30 8295 C 801.068 -0.128733 1.5908 0
M  V30 8296 C 801.268 -1.58558 1.24345 0
M  V30 8297 O 800.324 -2.32661 0.981069 0
M  V30 8298 C 801.637 0.202076 3.0002 0
M  V30 8299 C 803.185 0.144718 3.12665 0
M  V30 8300 C 803.66 0.449272 4.55791 0
M  V30 8301 N 805.151 0.399026 4.61478 0
M  V30 8302 C 805.886 0.608106 5.70166 0
M  V30 8303 N 805.382 0.879227 6.87198 0
M  V30 8304 N 807.175 0.5402 5.59498 0
M  V30 8305 H 799.326 1.17686 1.76816 0
M  V30 8306 H 801.589 0.472072 0.822102 0
M  V30 8307 H 801.295 1.21341 3.30105 0
M  V30 8308 H 801.169 -0.480554 3.74126 0
M  V30 8309 H 803.556 -0.857261 2.82374 0
M  V30 8310 H 803.637 0.860899 2.40878 0
M  V30 8311 H 803.281 1.44871 4.86801 0
M  V30 8312 H 803.211 -0.288157 5.25811 0
M  V30 8313 H 805.702 0.197372 3.77384 0
M  V30 8314 H 806.015 1.02673 7.65949 0
M  V30 8315 H 804.36 0.916477 6.88931 0
M  V30 8316 H 807.551 0.328581 4.66945 0
M  V30 8317 H 807.724 0.706548 6.44137 0
M  V30 8318 N 801.13 -1.57531 -0.0467866 0
M  V30 8319 C 802.06 -2.08425 -1.05268 0
M  V30 8320 C 803.041 -0.982941 -1.38825 0
M  V30 8321 O 804.226 -1.25716 -1.48018 0
M  V30 8322 C 801.356 -2.54897 -2.35891 0
M  V30 8323 C 800.31 -3.69132 -2.16623 0
M  V30 8324 C 799.636 -4.01747 -3.52851 0
M  V30 8325 C 800.936 -4.98243 -1.56689 0
M  V30 8326 H 802.63 -2.92716 -0.62908 0
M  V30 8327 H 800.176 -1.40816 -0.301156 0
M  V30 8328 H 802.129 -2.8912 -3.06574 0
M  V30 8329 H 800.853 -1.67666 -2.80278 0
M  V30 8330 H 799.512 -3.35231 -1.48377 0
M  V30 8331 H 799.16 -3.11608 -3.94853 0
M  V30 8332 H 798.86 -4.78681 -3.4079 0
M  V30 8333 H 800.384 -4.38487 -4.24925 0
M  V30 8334 H 801.798 -5.30535 -2.17268 0
M  V30 8335 H 800.195 -5.79669 -1.55255 0
M  V30 8336 H 801.265 -4.81986 -0.530827 0
M  V30 8337 N 802.608 0.318715 -1.54344 0
M  V30 8338 C 803.857 1.05363 -1.71993 0
M  V30 8339 C 804.17 1.89018 -0.503155 0
M  V30 8340 O 805.376 2.65639 -0.561085 0
M  V30 8341 C 803.832 1.92281 -3.0423 0
M  V30 8342 C 803.44 1.13715 -4.33328 0
M  V30 8343 C 805.184 2.65479 -3.31242 0
M  V30 8344 C 803.091 1.99806 -5.56625 0
M  V30 8345 H 802.021 0.397081 -0.64097 0
M  V30 8346 H 804.672 0.311598 -1.80835 0
M  V30 8347 H 803.054 2.70402 -2.89307 0
M  V30 8348 H 804.228 0.403305 -4.59032 0
M  V30 8349 H 802.543 0.521769 -4.13118 0
M  V30 8350 H 805.14 3.30209 -4.20555 0
M  V30 8351 H 805.483 3.33374 -2.49334 0
M  V30 8352 H 806.016 1.94417 -3.47054 0
M  V30 8353 H 802.755 1.36411 -6.41149 0
M  V30 8354 H 802.275 2.70911 -5.35133 0
M  V30 8355 H 803.954 2.58277 -5.93213 0
M  V30 8356 N 804.086 1.46499 0.581025 0
M  V30 8357 C 804.996 1.59778 1.71779 0
M  V30 8358 C 806.012 0.481223 1.67213 0
M  V30 8359 O 807.188 0.74557 1.87091 0
M  V30 8360 C 804.253 1.58626 3.08283 0
M  V30 8361 C 803.314 2.81527 3.241 0
M  V30 8362 C 802.547 2.80421 4.54092 0
M  V30 8363 O 802.77 1.89262 5.38085 0
M  V30 8364 O 801.704 3.71984 4.73193 0
M  V30 8365 H 805.53 2.55918 1.63523 0
M  V30 8366 H 803.115 1.29311 0.748267 0
M  V30 8367 H 804.997 1.60686 3.89561 0
M  V30 8368 H 803.672 0.656467 3.16973 0
M  V30 8369 H 802.579 2.85021 2.42309 0
M  V30 8370 H 803.912 3.73721 3.20302 0
M  V30 8371 N 805.565 -0.825799 1.34232 0
M  V30 8372 C 806.498 -1.94155 1.19914 0
M  V30 8373 C 807.476 -1.62343 0.0914533 0
M  V30 8374 O 808.66 -1.86752 0.256082 0
M  V30 8375 C 805.787 -3.28064 0.842138 0
M  V30 8376 C 804.833 -3.78839 1.95917 0
M  V30 8377 S 805.666 -3.98943 3.57218 0
M  V30 8378 C 806.822 -5.35783 3.23554 0
M  V30 8379 H 807.055 -2.06003 2.14359 0
M  V30 8380 H 804.588 -0.981053 1.19225 0
M  V30 8381 H 806.546 -4.05434 0.642952 0
M  V30 8382 H 805.207 -3.13988 -0.0839363 0
M  V30 8383 H 804.4 -4.75771 1.66306 0
M  V30 8384 H 804.002 -3.08406 2.11569 0
M  V30 8385 H 806.294 -6.19094 2.7519 0
M  V30 8386 H 807.237 -5.70376 4.19615 0
M  V30 8387 H 807.645 -5.01158 2.5981 0
M  V30 8388 N 807.043 -1.17915 -1.04565 0
M  V30 8389 C 808.273 -0.994716 -1.81077 0
M  V30 8390 C 808.681 0.460146 -1.83519 0
M  V30 8391 O 808.024 1.33136 -1.26572 0
M  V30 8392 C 808.086 -1.46698 -3.28207 0
M  V30 8393 C 807.75 -2.94523 -3.49436 0
M  V30 8394 C 808.747 -3.92414 -3.41038 0
M  V30 8395 C 806.432 -3.32841 -3.76194 0
M  V30 8396 C 808.426 -5.2662 -3.59096 0
M  V30 8397 C 806.113 -4.67212 -3.93899 0
M  V30 8398 C 807.111 -5.6391 -3.8535 0
M  V30 8399 O 806.799 -6.95849 -4.02554 0
M  V30 8400 H 806.531 -0.351797 -0.577248 0
M  V30 8401 H 809.085 -1.56772 -1.32709 0
M  V30 8402 H 807.315 -0.837592 -3.7752 0
M  V30 8403 H 809.004 -1.24724 -3.86263 0
M  V30 8404 H 809.77 -3.64157 -3.20336 0
M  V30 8405 H 805.649 -2.58139 -3.81949 0
M  V30 8406 H 809.193 -6.02082 -3.52339 0
M  V30 8407 H 805.09 -4.95172 -4.14095 0
M  V30 8408 H 805.858 -7.02679 -4.19743 0
M  V30 8409 N 808.521 1.23394 -0.980386 0
M  V30 8410 C 809.937 1.43961 -0.689008 0
M  V30 8411 C 810.137 1.87229 0.744809 0
M  V30 8412 O 809.193 2.01831 1.51725 0
M  V30 8413 C 810.506 2.49128 -1.68392 0
M  V30 8414 C 812.054 2.62941 -1.69796 0
M  V30 8415 C 812.529 3.71317 -2.68118 0
M  V30 8416 N 814.02 3.7876 -2.66636 0
M  V30 8417 C 814.755 4.62176 -3.39383 0
M  V30 8418 N 814.251 5.49682 -4.21688 0
M  V30 8419 N 816.044 4.56372 -3.28147 0
M  V30 8420 H 808.195 0.936106 -1.90659 0
M  V30 8421 H 810.458 0.473023 -0.821555 0
M  V30 8422 H 810.164 2.24252 -2.70931 0
M  V30 8423 H 810.038 3.47514 -1.46675 0
M  V30 8424 H 812.425 2.87168 -0.679617 0
M  V30 8425 H 812.506 1.64871 -1.95579 0
M  V30 8426 H 812.15 3.4784 -3.70095 0
M  V30 8427 H 812.08 4.68929 -2.3961 0
M  V30 8428 H 814.571 3.16226 -2.06904 0
M  V30 8429 H 814.884 6.10323 -4.74053 0
M  V30 8430 H 813.229 5.49306 -4.25779 0
M  V30 8431 H 816.42 3.87029 -2.63299 0
M  V30 8432 H 816.593 5.21153 -3.85102 0
M  V30 8433 N 809.999 0.752036 1.385 0
M  V30 8434 C 811.276 0.233075 1.94206 0
M  V30 8435 C 811.656 -1.26838 1.68746 0
M  V30 8436 O 811.004 -2.04214 1.02513 0
M  V30 8437 C 811.214 0.58509 3.44061 0
M  V30 8438 C 812.562 0.543871 4.21102 0
M  V30 8439 O 813.586 0.523291 3.52335 0
M  V30 8440 O 812.445 0.553436 5.4369 0
M  V30 8441 H 809.539 0.0483049 0.825588 0
M  V30 8442 H 812.085 0.832053 1.47902 0
M  V30 8443 H 810.857 1.62212 3.56094 0
M  V30 8444 H 810.48 -0.0419738 3.97578 0
M  V30 8445 N 811.477 -1.49425 0.500989 0
M  V30 8446 C 812.407 -2.31971 -0.266775 0
M  V30 8447 C 813.388 -1.40245 -0.962563 0
M  V30 8448 O 814.573 -1.69154 -0.953968 0
M  V30 8449 C 811.703 -3.20757 -1.33163 0
M  V30 8450 C 810.657 -4.21275 -0.75572 0
M  V30 8451 C 809.983 -4.98997 -1.92109 0
M  V30 8452 C 811.283 -5.21686 0.253213 0
M  V30 8453 H 812.977 -2.96408 0.422237 0
M  V30 8454 H 810.523 -1.4254 0.204505 0
M  V30 8455 H 812.476 -3.77315 -1.87646 0
M  V30 8456 H 811.2 -2.54263 -2.04983 0
M  V30 8457 H 809.859 -3.65861 -0.232637 0
M  V30 8458 H 809.507 -4.28951 -2.62698 0
M  V30 8459 H 809.207 -5.67011 -1.54182 0
M  V30 8460 H 810.731 -5.584 -2.47026 0
M  V30 8461 H 812.145 -5.72939 -0.203483 0
M  V30 8462 H 810.542 -5.9759 0.548322 0
M  V30 8463 H 811.612 -4.70596 1.16909 0
M  V30 8464 N 812.955 -0.234822 -1.55841 0
M  V30 8465 C 814.202 0.39326 -1.98645 0
M  V30 8466 C 814.53 1.58823 -1.12274 0
M  V30 8467 O 813.785 1.94954 -0.170731 0
M  V30 8468 C 814.084 0.858032 -3.46947 0
M  V30 8469 C 813.75 -0.227858 -4.50324 0
M  V30 8470 C 812.412 -0.526128 -4.78315 0
M  V30 8471 C 814.764 -0.961576 -5.12253 0
M  V30 8472 C 812.092 -1.5624 -5.65514 0
M  V30 8473 C 814.444 -1.98728 -6.00575 0
M  V30 8474 C 813.108 -2.29233 -6.26904 0
M  V30 8475 H 812.378 0.143904 -0.726892 0
M  V30 8476 H 815.025 -0.34012 -1.88455 0
M  V30 8477 H 813.33 1.67041 -3.54408 0
M  V30 8478 H 815.027 1.35407 -3.77447 0
M  V30 8479 H 811.617 0.0147624 -4.28597 0
M  V30 8480 H 815.801 -0.744388 -4.90686 0
M  V30 8481 H 811.057 -1.80422 -5.84173 0
M  V30 8482 H 815.231 -2.5608 -6.47608 0
M  V30 8483 H 812.858 -3.09671 -6.94268 0
M  V30 8484 N 814.433 1.57553 0.0384317 0
M  V30 8485 C 815.365 2.02726 1.06934 0
M  V30 8486 C 816.378 0.938502 1.33026 0
M  V30 8487 O 817.567 1.21595 1.30678 0
M  V30 8488 C 814.667 2.37958 2.41308 0
M  V30 8489 C 813.84 3.69098 2.34703 0
M  V30 8490 C 812.899 3.91623 3.51451 0
M  V30 8491 O 811.925 4.628 3.31368 0
M  V30 8492 N 813.127 3.36538 4.72993 0
M  V30 8493 H 815.892 2.91781 0.684381 0
M  V30 8494 H 813.453 1.60307 0.226542 0
M  V30 8495 H 815.445 2.50172 3.18113 0
M  V30 8496 H 814.015 1.54621 2.71682 0
M  V30 8497 H 813.235 3.67325 1.43059 0
M  V30 8498 H 814.523 4.55144 2.27424 0
M  V30 8499 H 813.921 2.78828 4.92211 0
M  V30 8500 H 812.478 3.54148 5.47195 0
M  V30 8501 N 815.911 -0.310526 1.54511 0
M  V30 8502 C 816.843 -1.40405 1.8116 0
M  V30 8503 C 817.856 -1.47261 0.694114 0
M  V30 8504 O 819.045 -1.49751 0.971441 0
M  V30 8505 C 816.145 -2.78849 1.92604 0
M  V30 8506 C 815.318 -2.95041 3.22908 0
M  V30 8507 C 814.377 -4.13925 3.24889 0
M  V30 8508 O 813.403 -4.06463 3.98467 0
M  V30 8509 N 814.605 -5.24099 2.496 0
M  V30 8510 H 817.37 -1.17903 2.75534 0
M  V30 8511 H 814.931 -0.500564 1.53967 0
M  V30 8512 H 816.923 -3.5661 1.91342 0
M  V30 8513 H 815.493 -2.94342 1.05268 0
M  V30 8514 H 814.713 -2.04472 3.37023 0
M  V30 8515 H 816.001 -3.02763 4.08916 0
M  V30 8516 H 815.399 -5.33039 1.89435 0
M  V30 8517 H 813.956 -6.0023 2.54102 0
M  V30 8518 N 817.389 -1.46805 -0.573248 0
M  V30 8519 C 818.637 -1.52302 -1.32847 0
M  V30 8520 C 818.958 -0.180159 -1.94166 0
M  V30 8521 O 818.228 0.794291 -1.79075 0
M  V30 8522 H 816.808 -0.56097 -0.493276 0
M  V30 8523 H 819.47 -1.82998 -0.670642 0
M  V30 8524 H 818.566 -2.28089 -2.13031 0
M  V30 8525 N 818.867 0.818669 -1.34668 0
M  V30 8526 C 820.095 1.60674 -1.30351 0
M  V30 8527 C 820.51 1.88408 0.121546 0
M  V30 8528 O 819.867 1.47849 1.06991 0
M  V30 8529 C 819.918 2.94516 -2.09625 0
M  V30 8530 O 819.639 2.6799 -3.46573 0
M  V30 8531 C 821.14 3.8891 -2.12754 0
M  V30 8532 H 818.36 0.499306 -0.448258 0
M  V30 8533 H 820.904 1.01828 -1.77345 0
M  V30 8534 H 819.059 3.49908 -1.66262 0
M  V30 8535 H 819.473 3.53361 -3.87603 0
M  V30 8536 H 820.947 4.79972 -2.72637 0
M  V30 8537 H 821.424 4.24599 -1.12306 0
M  V30 8538 H 822.03 3.39453 -2.56225 0
M  V30 8539 O 820.384 1.30074 0.957231 0
M  V30 8540 H 821.075 1.11341 1.58502 0
M  V30 END ATOM
M  V30 BEGIN BOND
M  V30 END BOND
M  V30 END CTAB
M  END
$$$$
