drugbank_target|Q96RP8 Potassium voltage-gated channel subfamily A member 7 (DB06637)
 OpenBabel12092120583D

  0  0  0     0  0            999 V3000
M  V30 BEGIN CTAB
M  V30 COUNTS 7160 7260 0 0 0
M  V30 BEGIN ATOM
M  V30 1 H -0.908 1.98254 -0.117106 0
M  V30 2 N 0 1.576 0 0
M  V30 3 C 0.933 2.03868 1.02534 0
M  V30 4 C 1.911 0.928543 1.3348 0
M  V30 5 O 3.095 1.19667 1.45644 0
M  V30 6 C 0.222 2.43627 2.35294 0
M  V30 7 C -0.732 3.65373 2.2001 0
M  V30 8 S 0.101 5.13292 1.52614 0
M  V30 9 C 1.257 5.56322 2.86805 0
M  V30 10 H 1.49 2.90518 0.631377 0
M  V30 11 H -0.977 1.52953 0.210867 0
M  V30 12 H 0.981 2.67203 3.11629 0
M  V30 13 H -0.358 1.57376 2.7183 0
M  V30 14 H -1.165 3.90944 3.18086 0
M  V30 15 H -1.563 3.418 1.51819 0
M  V30 16 H 0.729 5.58782 3.83104 0
M  V30 17 H 1.672 6.56266 2.65933 0
M  V30 18 H 2.08 4.83886 2.90714 0
M  V30 19 N 1.4781 -0.272755 1.55222 0
M  V30 20 C 2.3881 -1.35918 1.91216 0
M  V30 21 C 3.4041 -1.54026 0.809436 0
M  V30 22 O 4.5801 -1.68148 1.10852 0
M  V30 23 C 1.6451 -2.69834 2.17693 0
M  V30 24 C 0.7061 -2.6047 3.41253 0
M  V30 25 C -0.0609 -3.88 3.66458 0
M  V30 26 O 0.1621 -4.88693 2.94169 0
M  V30 27 O -0.9039 -3.88189 4.59992 0
M  V30 28 H 2.9221 -1.0839 2.83699 0
M  V30 29 H 0.5071 -0.471301 1.41771 0
M  V30 30 H 2.3891 -3.49017 2.36147 0
M  V30 31 H 1.0641 -2.97148 1.28392 0
M  V30 32 H -0.0289 -1.79663 3.28134 0
M  V30 33 H 1.3041 -2.38106 4.30774 0
M  V30 34 N 2.9562 -1.48159 -0.537278 0
M  V30 35 C 4.3672 -1.49429 -1.11928 0
M  V30 36 C 4.7182 -0.26 -1.9447 0
M  V30 37 O 3.8432 0.633489 -2.0692 0
M  V30 38 C 4.4382 -2.70758 -2.03656 0
M  V30 39 C 2.9972 -2.74923 -2.57088 0
M  V30 40 C 2.1442 -2.42835 -1.3389 0
M  V30 41 H 5.0952 -1.55381 -0.322886 0
M  V30 42 H 5.1162 -2.48861 -2.87834 0
M  V30 43 H 4.6282 -3.60575 -1.43553 0
M  V30 44 H 2.7292 -1.89296 -3.20933 0
M  V30 45 H 2.8422 -3.76157 -2.9672 0
M  V30 46 H 1.2062 -1.93836 -1.65226 0
M  V30 47 H 1.9892 -3.34884 -0.755504 0
M  V30 48 N 4.4343 0.785586 -1.36625 0
M  V30 49 C 5.8503 1.08419 -1.17122 0
M  V30 50 C 6.0503 2.015 0.00208491 0
M  V30 51 O 5.1063 2.43551 0.666278 0
M  V30 52 C 6.4193 1.69498 -2.48377 0
M  V30 53 C 7.9673 1.81821 -2.54775 0
M  V30 54 C 8.4423 2.46315 -3.86126 0
M  V30 55 N 9.9333 2.53779 -3.87492 0
M  V30 56 C 10.6683 3.045 -4.85868 0
M  V30 57 N 10.1643 3.55499 -5.94637 0
M  V30 58 N 11.9573 3.03247 -4.73284 0
M  V30 59 H 4.1083 0.167264 -2.1174 0
M  V30 60 H 6.3713 0.13682 -0.938075 0
M  V30 61 H 6.0773 1.08571 -3.34522 0
M  V30 62 H 5.9513 2.6896 -2.64462 0
M  V30 63 H 8.3383 2.41884 -1.69045 0
M  V30 64 H 8.4193 0.811532 -2.42586 0
M  V30 65 H 8.0633 1.86895 -4.72263 0
M  V30 66 H 7.9933 3.47561 -3.95612 0
M  V30 67 H 10.4843 2.17672 -3.08913 0
M  V30 68 H 10.7973 3.92562 -6.65669 0
M  V30 69 H 9.1423 3.5364 -5.98301 0
M  V30 70 H 12.3333 2.62696 -3.87438 0
M  V30 71 H 12.5063 3.42467 -5.50109 0
M  V30 72 N 5.9124 1.20967 1.01018 0
M  V30 73 C 7.1524 1.03511 1.76252 0
M  V30 74 C 7.5164 -0.42458 1.87247 0
M  V30 75 O 8.7174 -0.719508 2.58991 0
M  V30 76 C 6.9884 1.70726 3.13986 0
M  V30 77 S 8.5474 1.68458 4.05176 0
M  V30 78 H 5.3654 0.371037 0.606508 0
M  V30 79 H 7.9674 1.53628 1.20908 0
M  V30 80 H 6.6714 2.76128 3.03614 0
M  V30 81 H 6.2024 1.20767 3.74405 0
M  V30 82 H 8.2174 0.721987 4.90919 0
M  V30 83 N 7.3905 -1.2043 1.01659 0
M  V30 84 C 8.8015 -1.71517 0.737482 0
M  V30 85 C 9.1525 -1.81547 -0.743973 0
M  V30 86 O 8.2775 -1.47803 -1.58061 0
M  V30 87 C 8.8725 -3.11515 1.33206 0
M  V30 88 C 7.4315 -3.59912 1.10183 0
M  V30 89 C 6.5785 -2.37116 1.43776 0
M  V30 90 H 9.5295 -1.05444 1.18606 0
M  V30 91 H 9.5505 -3.73575 0.722636 0
M  V30 92 H 9.0625 -3.04182 2.41028 0
M  V30 93 H 7.1635 -3.72577 0.0412756 0
M  V30 94 H 7.2765 -4.44731 1.78188 0
M  V30 95 H 5.6405 -2.39857 0.856778 0
M  V30 96 H 6.4235 -2.32424 2.52654 0
M  V30 97 N 8.8686 -0.792821 -1.36206 0
M  V30 98 C 10.2796 -0.429513 -1.81692 0
M  V30 99 C 10.6306 1.04695 -1.65932 0
M  V30 100 O 9.7556 1.81256 -1.18218 0
M  V30 101 C 10.3506 -0.772831 -3.29868 0
M  V30 102 C 8.9096 -0.462307 -3.7355 0
M  V30 103 C 8.0566 -1.00569 -2.5842 0
M  V30 104 H 11.0076 -0.985672 -1.24379 0
M  V30 105 H 11.0286 -0.0651928 -3.80444 0
M  V30 106 H 10.5406 -1.84747 -3.41307 0
M  V30 107 H 8.6416 0.604158 -3.67669 0
M  V30 108 H 8.7546 -0.985299 -4.68859 0
M  V30 109 H 7.1186 -0.428734 -2.51066 0
M  V30 110 H 7.9016 -2.08616 -2.72643 0
M  V30 111 N 10.3467 1.47872 -0.545128 0
M  V30 112 C 11.7577 1.86384 -0.108581 0
M  V30 113 C 12.1087 1.45309 1.31832 0
M  V30 114 O 11.2337 0.850641 1.9898 0
M  V30 115 C 11.8287 3.38265 -0.190274 0
M  V30 116 C 10.3877 3.75914 0.191164 0
M  V30 117 C 9.5347 2.71926 -0.543273 0
M  V30 118 H 12.4857 1.39561 -0.755537 0
M  V30 119 H 12.5067 3.75831 0.594217 0
M  V30 120 H 12.0187 3.6813 -1.2289 0
M  V30 121 H 10.1197 3.51665 1.23136 0
M  V30 122 H 10.2327 4.78836 -0.158987 0
M  V30 123 H 8.5967 2.54697 0.0122495 0
M  V30 124 H 9.3797 3.04634 -1.58282 0
M  V30 125 N 11.8248 0.280983 1.55075 0
M  V30 126 C 13.0648 -0.335234 2.01632 0
M  V30 127 C 13.4288 -1.5261 1.16508 0
M  V30 128 O 14.6298 -2.21235 1.52672 0
M  V30 129 C 12.9008 -0.702172 3.50434 0
M  V30 130 S 14.4598 -1.30409 4.18974 0
M  V30 131 H 11.2778 -0.103967 0.703358 0
M  V30 132 H 13.8798 0.404187 1.91276 0
M  V30 133 H 12.5838 0.17333 4.10034 0
M  V30 134 H 12.1148 -1.4729 3.64786 0
M  V30 135 H 14.1298 -2.59253 4.23087 0
M  V30 136 N 13.3029 -1.57598 0.00835791 0
M  V30 137 C 14.5509 -1.90551 -0.6734 0
M  V30 138 C 14.8719 -0.883301 -1.73847 0
M  V30 139 O 14.1419 0.0781442 -1.95744 0
M  V30 140 H 12.7219 -0.703312 -0.251717 0
M  V30 141 H 15.3839 -1.94833 0.0512592 0
M  V30 142 H 14.4799 -2.9056 -1.13935 0
M  V30 143 N 14.781 0.264519 -1.55364 0
M  V30 144 C 16.021 1.00254 -1.78125 0
M  V30 145 C 16.385 1.83187 -0.575017 0
M  V30 146 O 17.586 2.60029 -0.681042 0
M  V30 147 C 15.857 1.85478 -3.05504 0
M  V30 148 S 17.416 2.6543 -3.49417 0
M  V30 149 H 14.234 0.337522 -0.625779 0
M  V30 150 H 16.836 0.272111 -1.93597 0
M  V30 151 H 15.54 1.23491 -3.9138 0
M  V30 152 H 15.071 2.62827 -2.92721 0
M  V30 153 H 17.086 3.87958 -3.09359 0
M  V30 154 N 16.2591 1.48442 0.529413 0
M  V30 155 C 17.4991 1.58086 1.29569 0
M  V30 156 C 17.8631 0.249302 1.90375 0
M  V30 157 O 19.0641 0.220738 2.67892 0
M  V30 158 C 17.3351 2.68793 2.35552 0
M  V30 159 S 18.8941 2.98207 3.21898 0
M  V30 160 H 15.7121 0.557922 0.440732 0
M  V30 161 H 18.3141 1.85966 0.603059 0
M  V30 162 H 17.0181 3.64102 1.89363 0
M  V30 163 H 16.5491 2.42817 3.09522 0
M  V30 164 H 18.5641 2.37548 4.35644 0
M  V30 165 N 17.7372 -0.778329 1.37039 0
M  V30 166 C 18.6472 -1.92253 1.34446 0
M  V30 167 C 19.6632 -1.72267 0.244991 0
M  V30 168 O 20.8392 -1.95615 0.479258 0
M  V30 169 C 17.9042 -3.27282 1.144 0
M  V30 170 C 16.9652 -3.59969 2.33925 0
M  V30 171 C 16.1982 -4.88555 2.14825 0
M  V30 172 O 16.4212 -5.59113 1.12912 0
M  V30 173 O 15.3552 -5.20153 3.02861 0
M  V30 174 H 19.1812 -1.97392 2.30803 0
M  V30 175 H 16.7662 -0.920154 1.17701 0
M  V30 176 H 18.6482 -4.08062 1.05182 0
M  V30 177 H 17.3232 -3.23011 0.211124 0
M  V30 178 H 16.2302 -2.7945 2.48714 0
M  V30 179 H 17.5632 -3.68976 3.25757 0
M  V30 180 N 19.2153 -1.21501 -1.00376 0
M  V30 181 C 20.6313 -0.972629 -1.26539 0
M  V30 182 C 20.8313 0.340257 -1.98606 0
M  V30 183 O 19.8873 1.06561 -2.28913 0
M  V30 184 C 21.2003 -2.16404 -2.08781 0
M  V30 185 C 22.7483 -2.20643 -2.22004 0
M  V30 186 C 23.2233 -3.39306 -3.07629 0
M  V30 187 N 24.7143 -3.39401 -3.15217 0
M  V30 188 C 25.4493 -4.27867 -3.81729 0
M  V30 189 N 24.9453 -5.26533 -4.5026 0
M  V30 190 N 26.7383 -4.15672 -3.78382 0
M  V30 191 H 18.8893 -2.05929 -0.520281 0
M  V30 192 H 21.1523 -0.901803 -0.292328 0
M  V30 193 H 20.8583 -3.11554 -1.63178 0
M  V30 194 H 20.7323 -2.15567 -3.09533 0
M  V30 195 H 23.1193 -1.26048 -2.66825 0
M  V30 196 H 23.2003 -2.25523 -1.20718 0
M  V30 197 H 22.8443 -4.34195 -2.63509 0
M  V30 198 H 22.7743 -3.31665 -4.09031 0
M  V30 199 H 25.2653 -2.67997 -2.66432 0
M  V30 200 H 25.5783 -5.90337 -4.98721 0
M  V30 201 H 23.9233 -5.30457 -4.49044 0
M  V30 202 H 27.1143 -3.3785 -3.23998 0
M  V30 203 H 27.2873 -4.84825 -4.2994 0
M  V30 204 N 20.6934 1.19889 -1.02296 0
M  V30 205 C 21.6234 2.25141 -0.619174 0
M  V30 206 C 22.6044 1.66051 0.368915 0
M  V30 207 O 23.7894 1.92546 0.252941 0
M  V30 208 C 20.9194 3.4728 0.0368783 0
M  V30 209 C 19.8734 4.19005 -0.872865 0
M  V30 210 C 19.1994 5.34637 -0.0822402 0
M  V30 211 C 20.4994 4.74452 -2.18387 0
M  V30 212 H 22.1934 2.59171 -1.49903 0
M  V30 213 H 19.7394 1.24579 -0.722222 0
M  V30 214 H 21.6924 4.20098 0.330958 0
M  V30 215 H 20.4164 3.12433 0.95149 0
M  V30 216 H 19.0754 3.48061 -1.15105 0
M  V30 217 H 18.7234 4.96034 0.83422 0
M  V30 218 H 18.4234 5.83557 -0.688149 0
M  V30 219 H 19.9474 6.10255 0.205238 0
M  V30 220 H 21.3614 5.39055 -1.95172 0
M  V30 221 H 19.7584 5.33834 -2.74119 0
M  V30 222 H 20.8284 3.92844 -2.84257 0
M  V30 223 N 22.1715 0.800033 1.35784 0
M  V30 224 C 23.4175 0.377901 1.99248 0
M  V30 225 C 23.7505 -1.05052 1.63333 0
M  V30 226 O 23.0255 -1.72768 0.893385 0
M  V30 227 C 23.3085 0.553922 3.55814 0
M  V30 228 C 23.1615 2.0268 4.01548 0
M  V30 229 C 24.4805 -0.0244802 4.40093 0
M  V30 230 H 21.5995 0.138782 0.723815 0
M  V30 231 H 24.2415 1.00835 1.61035 0
M  V30 232 H 22.3915 0.0172398 3.88496 0
M  V30 233 H 24.0635 2.62536 3.79305 0
M  V30 234 H 22.3065 2.5256 3.52698 0
M  V30 235 H 22.9775 2.10087 5.10458 0
M  V30 236 H 25.4535 0.433775 4.13833 0
M  V30 237 H 24.3295 0.128637 5.48749 0
M  V30 238 H 24.5905 -1.11758 4.27741 0
M  V30 239 N 23.6496 -1.47581 0.552962 0
M  V30 240 C 24.5796 -2.32762 -0.185451 0
M  V30 241 C 25.5606 -1.43527 -0.912905 0
M  V30 242 O 26.7456 -1.72388 -0.894201 0
M  V30 243 C 23.8756 -3.25219 -1.21859 0
M  V30 244 C 22.8296 -4.23661 -0.607864 0
M  V30 245 C 22.1556 -5.05413 -1.74533 0
M  V30 246 C 23.4556 -5.20481 0.435582 0
M  V30 247 H 25.1496 -2.94749 0.525684 0
M  V30 248 H 22.6956 -1.41738 0.254251 0
M  V30 249 H 24.6486 -3.8365 -1.7433 0
M  V30 250 H 23.3726 -2.61279 -1.95961 0
M  V30 251 H 22.0316 -3.66451 -0.104489 0
M  V30 252 H 21.6796 -4.3788 -2.47529 0
M  V30 253 H 21.3796 -5.72059 -1.34249 0
M  V30 254 H 22.9036 -5.66701 -2.27338 0
M  V30 255 H 24.3176 -5.733 -0.00290157 0
M  V30 256 H 22.7146 -5.95305 0.757067 0
M  V30 257 H 23.7846 -4.66217 1.33303 0
M  V30 258 N 25.1277 -0.289203 -1.54924 0
M  V30 259 C 26.0757 0.607966 -2.24514 0
M  V30 260 C 27.0697 1.14655 -1.24702 0
M  V30 261 O 28.2757 1.09856 -1.4259 0
M  V30 262 H 24.6507 0.21464 -0.720718 0
M  V30 263 H 26.6217 -0.00164182 -2.984 0
M  V30 264 C 25.3707 1.77406 -2.99036 0
M  V30 265 H 24.6937 1.36884 -3.75637 0
M  V30 266 H 26.1337 2.37814 -3.51028 0
M  V30 267 C 24.5927 2.67107 -2.05318 0
M  V30 268 O 25.1227 3.6787 -1.61353 0
M  V30 269 N 23.3287 2.34582 -1.71521 0
M  V30 270 H 22.8757 1.52688 -2.07471 0
M  V30 271 H 22.8337 2.94867 -1.0909 0
M  V30 272 N 26.6058 1.57591 -0.0167156 0
M  V30 273 C 27.8518 1.91567 0.665582 0
M  V30 274 C 28.1848 0.892298 1.72487 0
M  V30 275 O 27.4598 -0.0867127 1.94307 0
M  V30 276 C 27.7428 3.36069 1.29342 0
M  V30 277 C 27.5958 4.49135 0.244541 0
M  V30 278 C 28.9148 3.803 2.21495 0
M  V30 279 H 26.0338 0.69666 0.240488 0
M  V30 280 H 28.6758 1.89866 -0.0714356 0
M  V30 281 H 26.8258 3.3765 1.92158 0
M  V30 282 H 28.4978 4.59689 -0.385228 0
M  V30 283 H 26.7408 4.3165 -0.431379 0
M  V30 284 H 27.4118 5.47242 0.723207 0
M  V30 285 H 29.8878 3.80377 1.68678 0
M  V30 286 H 28.7638 4.82127 2.62382 0
M  V30 287 H 29.0248 3.15104 3.101 0
M  V30 288 N 28.0839 -0.256276 1.55502 0
M  V30 289 C 29.0469 -1.30047 1.88734 0
M  V30 290 C 30.0469 -1.4154 0.763086 0
M  V30 291 O 31.2369 -1.40403 1.03115 0
M  V30 292 C 28.3689 -2.67953 2.10747 0
M  V30 293 H 29.5619 -1.01802 2.82093 0
M  V30 294 H 27.1149 -0.495134 1.4825 0
M  V30 295 H 27.8499 -3.01351 1.19825 0
M  V30 296 H 27.6349 -2.60993 2.92617 0
M  V30 297 H 29.1249 -3.43368 2.37673 0
M  V30 298 N 29.562 -1.4872 -0.521534 0
M  V30 299 C 30.81 -1.56857 -1.27437 0
M  V30 300 C 31.131 -0.247982 -1.93417 0
M  V30 301 O 30.401 0.731151 -1.81744 0
M  V30 302 H 28.981 -0.577885 -0.473347 0
M  V30 303 H 31.643 -1.85233 -0.606205 0
M  V30 304 H 30.739 -2.35402 -2.0492 0
M  V30 305 N 31.0401 0.771051 -1.3745 0
M  V30 306 C 31.9701 1.89827 -1.3597 0
M  V30 307 C 32.9511 1.68562 -0.228216 0
M  V30 308 O 34.1361 1.8941 -0.428675 0
M  V30 309 C 31.2661 3.2712 -1.16662 0
M  V30 310 C 30.2201 3.6295 -2.2683 0
M  V30 311 C 29.5461 4.98791 -1.92644 0
M  V30 312 C 30.8461 3.69627 -3.69017 0
M  V30 313 H 32.5401 1.91323 -2.30295 0
M  V30 314 H 30.0861 0.919082 -1.10855 0
M  V30 315 H 32.0391 4.05615 -1.14256 0
M  V30 316 H 30.7631 3.26059 -0.187926 0
M  V30 317 H 29.4221 2.86763 -2.28392 0
M  V30 318 H 29.0701 4.94271 -0.933021 0
M  V30 319 H 28.7701 5.23733 -2.66416 0
M  V30 320 H 30.2941 5.79685 -1.91826 0
M  V30 321 H 31.7081 4.38273 -3.69581 0
M  V30 322 H 30.1051 4.06067 -4.41848 0
M  V30 323 H 31.1751 2.70273 -4.02592 0
M  V30 324 N 32.5182 1.22032 0.997298 0
M  V30 325 C 33.9342 0.979326 1.26021 0
M  V30 326 C 34.1342 -0.32972 1.98784 0
M  V30 327 O 33.1902 -1.05345 2.29475 0
M  V30 328 C 34.5032 2.17509 2.07631 0
M  V30 329 C 36.0512 2.21817 2.2083 0
M  V30 330 C 36.5262 3.40933 3.05825 0
M  V30 331 N 38.0172 3.41067 3.13412 0
M  V30 332 C 38.7522 4.29885 3.79455 0
M  V30 333 N 38.2482 5.28914 4.47462 0
M  V30 334 N 40.0412 4.17673 3.76173 0
M  V30 335 H 32.1922 2.06202 0.509352 0
M  V30 336 H 34.4552 0.90334 0.287541 0
M  V30 337 H 34.1612 3.12415 1.61524 0
M  V30 338 H 34.0352 2.17206 3.08385 0
M  V30 339 H 36.4222 1.27462 2.66153 0
M  V30 340 H 36.5032 2.2616 1.1952 0
M  V30 341 H 36.1472 4.35586 2.61203 0
M  V30 342 H 36.0772 3.33829 4.07266 0
M  V30 343 H 38.5682 2.69406 2.65007 0
M  V30 344 H 38.8812 5.92973 4.95583 0
M  V30 345 H 37.2262 5.32831 4.46224 0
M  V30 346 H 40.4172 3.39564 3.22202 0
M  V30 347 H 40.5902 4.87098 4.27363 0
M  V30 348 N 33.9963 -1.19345 1.0293 0
M  V30 349 C 35.2433 -1.89038 0.726008 0
M  V30 350 C 35.5713 -1.79649 -0.745427 0
M  V30 351 O 34.8263 -1.18354 -1.55855 0
M  V30 352 C 35.1253 -3.39292 1.12319 0
M  V30 353 C 34.7913 -3.68885 2.59297 0
M  V30 354 C 33.4533 -3.76671 2.99453 0
M  V30 355 C 35.8053 -3.82178 3.54386 0
M  V30 356 C 33.1333 -3.9522 4.33611 0
M  V30 357 C 35.4853 -4.0224 4.88248 0
M  V30 358 C 34.1493 -4.08259 5.28092 0
M  V30 359 H 33.4193 -0.691739 0.265665 0
M  V30 360 H 36.0663 -1.41328 1.29223 0
M  V30 361 H 34.3713 -3.88903 0.475584 0
M  V30 362 H 36.0683 -3.91536 0.866037 0
M  V30 363 H 32.6583 -3.63433 2.27189 0
M  V30 364 H 36.8423 -3.75505 3.24514 0
M  V30 365 H 32.0983 -3.98119 4.64016 0
M  V30 366 H 36.2723 -4.11468 5.61843 0
M  V30 367 H 33.8993 -4.22384 6.32057 0
M  V30 368 N 35.4744 -0.807222 -1.35358 0
M  V30 369 C 36.3844 -0.219594 -2.3357 0
M  V30 370 C 37.4004 0.637734 -1.61892 0
M  V30 371 O 38.5764 0.549336 -1.93763 0
M  V30 372 C 35.6414 0.62158 -3.41083 0
M  V30 373 C 34.7024 -0.256315 -4.28534 0
M  V30 374 C 33.9354 0.544807 -5.30912 0
M  V30 375 O 34.1584 1.77944 -5.41934 0
M  V30 376 O 33.0924 -0.0646478 -6.01865 0
M  V30 377 H 36.9184 -1.03208 -2.85625 0
M  V30 378 H 34.5034 -0.569025 -1.38139 0
M  V30 379 H 36.3854 1.10067 -4.06772 0
M  V30 380 H 35.0604 1.41165 -2.91297 0
M  V30 381 H 33.9674 -0.782559 -3.65823 0
M  V30 382 H 35.3004 -1.01034 -4.81719 0
M  V30 383 N 36.9525 1.47285 -0.560781 0
M  V30 384 C 38.1805 2.06855 -0.0430262 0
M  V30 385 C 38.5955 1.41291 1.25229 0
M  V30 386 O 37.9525 0.510648 1.7521 0
M  V30 387 C 38.0035 3.61178 0.152518 0
M  V30 388 O 37.7245 4.24285 -1.0915 0
M  V30 389 C 39.2255 4.37624 0.707145 0
M  V30 390 H 36.4455 0.669319 -0.0474652 0
M  V30 391 H 38.9895 1.89237 -0.77521 0
M  V30 392 H 37.1445 3.78298 0.834843 0
M  V30 393 H 37.5585 5.16868 -0.891482 0
M  V30 394 H 39.0325 5.46271 0.793244 0
M  V30 395 H 39.5095 4.04152 1.71923 0
M  V30 396 H 40.1155 4.25257 0.0604027 0
M  V30 397 N 38.4306 0.297415 1.54768 0
M  V30 398 C 39.8466 -0.0560823 1.59501 0
M  V30 399 C 40.0466 -1.52725 1.31444 0
M  V30 400 O 39.1026 -2.27947 1.08611 0
M  V30 401 C 40.4156 0.338631 2.98787 0
M  V30 402 C 41.9636 0.287097 3.11681 0
M  V30 403 C 42.4386 0.656579 4.53269 0
M  V30 404 N 43.9296 0.608977 4.59179 0
M  V30 405 C 44.6646 0.867385 5.66802 0
M  V30 406 N 44.1606 1.19157 6.82476 0
M  V30 407 N 45.9536 0.794687 5.56454 0
M  V30 408 H 38.1046 1.25624 1.71267 0
M  V30 409 H 40.3676 0.509057 0.799728 0
M  V30 410 H 40.0736 1.36263 3.2423 0
M  V30 411 H 39.9476 -0.309508 3.75928 0
M  V30 412 H 42.3346 -0.727649 2.85988 0
M  V30 413 H 42.4156 0.969809 2.36703 0
M  V30 414 H 42.0596 1.66912 4.7969 0
M  V30 415 H 41.9896 -0.0481649 5.26578 0
M  V30 416 H 44.4806 0.369198 3.76092 0
M  V30 417 H 44.7936 1.37482 7.60473 0
M  V30 418 H 43.1386 1.22958 6.84037 0
M  V30 419 H 46.3296 0.541098 4.64962 0
M  V30 420 H 46.5026 0.999445 6.40246 0
M  V30 421 N 39.9087 -1.5758 0.0250728 0
M  V30 422 C 40.8717 -2.08896 -0.943139 0
M  V30 423 C 41.8717 -1.00321 -1.25668 0
M  V30 424 O 43.0617 -1.26495 -1.19769 0
M  V30 425 C 40.1937 -2.55143 -2.26086 0
M  V30 426 H 41.3867 -2.95723 -0.498775 0
M  V30 427 H 38.9397 -1.54703 -0.222888 0
M  V30 428 H 39.6747 -1.71633 -2.75159 0
M  V30 429 H 39.4597 -3.34461 -2.04641 0
M  V30 430 H 40.9497 -2.95083 -2.95492 0
M  V30 431 N 41.3868 0.248026 -1.55636 0
M  V30 432 C 42.8028 0.596483 -1.48035 0
M  V30 433 C 43.0028 1.88386 -0.715039 0
M  V30 434 O 42.0588 2.51319 -0.243944 0
M  V30 435 C 43.3718 0.700258 -2.92433 0
M  V30 436 C 44.9198 0.792659 -3.02797 0
M  V30 437 C 45.3948 0.928005 -4.485 0
M  V30 438 N 46.8858 0.992903 -4.52433 0
M  V30 439 C 47.6208 1.11687 -5.62418 0
M  V30 440 N 47.1168 1.20645 -6.82214 0
M  V30 441 N 48.9098 1.14994 -5.50212 0
M  V30 442 H 41.0608 -0.597109 -2.03834 0
M  V30 443 H 43.3238 -0.205925 -0.925364 0
M  V30 444 H 43.0298 -0.175658 -3.51261 0
M  V30 445 H 42.9038 1.57255 -3.42857 0
M  V30 446 H 45.2908 1.65903 -2.4405 0
M  V30 447 H 45.3718 -0.104762 -2.55585 0
M  V30 448 H 45.0158 0.0661971 -5.07857 0
M  V30 449 H 44.9458 1.84045 -4.93391 0
M  V30 450 H 47.4368 0.935064 -3.66149 0
M  V30 451 H 47.7498 1.30008 -7.61786 0
M  V30 452 H 46.0948 1.17605 -6.84977 0
M  V30 453 H 49.2858 1.07643 -4.55555 0
M  V30 454 H 49.4588 1.24311 -6.35965 0
M  V30 455 N 42.8649 1.48995 0.513639 0
M  V30 456 C 44.0929 1.61531 1.29288 0
M  V30 457 C 44.5079 0.281801 1.86685 0
M  V30 458 O 43.8649 -0.731111 1.67215 0
M  V30 459 C 43.9159 2.67449 2.43215 0
M  V30 460 O 43.6369 3.95626 1.88179 0
M  V30 461 C 45.1379 2.90575 3.34785 0
M  V30 462 H 42.3579 0.544165 0.392588 0
M  V30 463 H 44.9019 1.9494 0.617956 0
M  V30 464 H 43.0569 2.36853 3.0656 0
M  V30 465 H 43.4709 4.53868 2.62876 0
M  V30 466 H 44.9449 3.68449 4.11035 0
M  V30 467 H 45.4219 2.00011 3.91015 0
M  V30 468 H 46.0279 3.22538 2.77218 0
M  V30 469 N 44.343 -0.763751 1.37857 0
M  V30 470 C 45.273 -1.89103 1.36975 0
M  V30 471 C 46.254 -1.68439 0.237152 0
M  V30 472 O 47.439 -1.8918 0.438713 0
M  V30 473 C 44.569 -3.26496 1.18395 0
M  V30 474 C 43.523 -3.61741 2.28751 0
M  V30 475 C 42.849 -4.97762 1.95286 0
M  V30 476 C 44.149 -3.67665 3.70972 0
M  V30 477 H 45.843 -1.90099 2.31307 0
M  V30 478 H 43.389 -0.91319 1.11341 0
M  V30 479 H 45.342 -4.05003 1.16406 0
M  V30 480 H 44.066 -3.25955 0.205215 0
M  V30 481 H 42.725 -2.85547 2.29909 0
M  V30 482 H 42.373 -4.93769 0.959221 0
M  V30 483 H 42.073 -5.22313 2.69189 0
M  V30 484 H 43.597 -5.7866 1.94898 0
M  V30 485 H 45.011 -4.36307 3.719 0
M  V30 486 H 43.408 -4.03718 4.43995 0
M  V30 487 H 44.478 -2.68134 4.0402 0
M  V30 488 N 45.8211 -1.22559 -0.990812 0
M  V30 489 C 47.0691 -1.04933 -1.72724 0
M  V30 490 C 47.3901 0.416158 -1.90508 0
M  V30 491 O 46.6601 1.29918 -1.46622 0
M  V30 492 H 45.2401 -0.385296 -0.639965 0
M  V30 493 H 47.9021 -1.54105 -1.19322 0
M  V30 494 H 46.9981 -1.52886 -2.72089 0
M  V30 495 N 47.2992 1.18797 -1.03562 0
M  V30 496 C 48.7152 1.40671 -0.753917 0
M  V30 497 C 48.9152 1.9043 0.658686 0
M  V30 498 O 47.9712 2.08538 1.42366 0
M  V30 499 C 49.2842 2.41192 -1.79574 0
M  V30 500 C 50.8322 2.54928 -1.81606 0
M  V30 501 C 51.3072 3.58709 -2.84766 0
M  V30 502 N 52.7982 3.66212 -2.83625 0
M  V30 503 C 53.5332 4.46225 -3.60098 0
M  V30 504 N 53.0292 5.29888 -4.46308 0
M  V30 505 N 54.8222 4.40939 -3.4861 0
M  V30 506 H 46.9732 0.848221 -1.94728 0
M  V30 507 H 49.2362 0.435081 -0.842264 0
M  V30 508 H 48.9422 2.11669 -2.80872 0
M  V30 509 H 48.8162 3.40467 -1.62365 0
M  V30 510 H 51.2032 2.83771 -0.809817 0
M  V30 511 H 51.2842 1.55784 -2.02891 0
M  V30 512 H 50.9282 3.30607 -3.85566 0
M  V30 513 H 50.8582 4.57519 -2.60737 0
M  V30 514 H 53.3492 3.06466 -2.21105 0
M  V30 515 H 53.6622 5.88078 -5.01382 0
M  V30 516 H 52.0072 5.29326 -4.50377 0
M  V30 517 H 55.1982 3.74624 -2.80668 0
M  V30 518 H 55.3712 5.03056 -4.08459 0
M  V30 519 N 48.7773 0.814389 1.34928 0
M  V30 520 C 50.0243 0.398423 1.98542 0
M  V30 521 C 50.3523 -1.03638 1.64589 0
M  V30 522 O 49.6073 -1.73509 0.90516 0
M  V30 523 C 49.9063 0.537781 3.53331 0
M  V30 524 C 49.5723 1.93704 4.07172 0
M  V30 525 C 48.2343 2.31984 4.21589 0
M  V30 526 C 50.5863 2.85213 4.36237 0
M  V30 527 C 47.9143 3.61125 4.62391 0
M  V30 528 C 50.2663 4.13809 4.78482 0
M  V30 529 C 48.9303 4.52077 4.91104 0
M  V30 530 H 48.2003 0.145793 0.726516 0
M  V30 531 H 50.8473 1.03669 1.61012 0
M  V30 532 H 49.1523 -0.183906 3.91368 0
M  V30 533 H 50.8493 0.196588 4.00518 0
M  V30 534 H 47.4393 1.62966 3.96409 0
M  V30 535 H 51.6233 2.56885 4.24645 0
M  V30 536 H 46.8793 3.90612 4.70353 0
M  V30 537 H 51.0533 4.84811 4.99932 0
M  V30 538 H 48.6803 5.52196 5.22478 0
M  V30 539 N 50.2554 -1.46986 0.568584 0
M  V30 540 C 51.6664 -1.86188 0.138219 0
M  V30 541 C 52.0174 -1.47388 -1.29504 0
M  V30 542 O 51.1424 -0.88219 -1.97602 0
M  V30 543 C 51.7374 -3.3792 0.244065 0
M  V30 544 C 50.2964 -3.76171 -0.131335 0
M  V30 545 C 49.4434 -2.71027 0.586465 0
M  V30 546 H 52.3944 -1.38342 0.777645 0
M  V30 547 H 52.4154 -3.76729 -0.534351 0
M  V30 548 H 51.9274 -3.66128 1.28731 0
M  V30 549 H 50.0284 -3.5358 -1.17526 0
M  V30 550 H 50.1414 -4.78523 0.235146 0
M  V30 551 H 48.5054 -2.54684 0.0282722 0
M  V30 552 H 49.2884 -3.02077 1.63109 0
M  V30 553 N 51.7335 -0.305618 -1.54608 0
M  V30 554 C 53.0105 0.355652 -1.92339 0
M  V30 555 C 53.3905 1.71324 -1.23335 0
M  V30 556 O 52.7385 2.25473 -0.370702 0
M  V30 557 C 52.9485 0.46572 -3.45879 0
M  V30 558 C 54.2965 0.734426 -4.182 0
M  V30 559 O 55.3205 0.54935 -3.51938 0
M  V30 560 O 54.1795 1.09024 -5.35515 0
M  V30 561 H 51.2735 0.199666 -0.802535 0
M  V30 562 H 53.8195 -0.354017 -1.65966 0
M  V30 563 H 52.5915 -0.488461 -3.88239 0
M  V30 564 H 52.2145 1.22367 -3.78301 0
M  V30 565 N 53.2116 1.57565 -0.0334293 0
M  V30 566 C 54.4396 1.9628 0.654347 0
M  V30 567 C 54.8546 0.910138 1.65414 0
M  V30 568 O 54.2116 -0.107595 1.82183 0
M  V30 569 C 54.2626 3.35067 1.35693 0
M  V30 570 O 53.9836 4.36296 0.397191 0
M  V30 571 C 55.4846 3.88439 2.13613 0
M  V30 572 H 52.7046 0.646369 0.180132 0
M  V30 573 H 55.2486 2.04282 -0.0944721 0
M  V30 574 H 53.4036 3.2827 2.05712 0
M  V30 575 H 53.8176 5.1678 0.896597 0
M  V30 576 H 55.2916 4.8788 2.58219 0
M  V30 577 H 55.7686 3.22914 2.97696 0
M  V30 578 H 56.3746 3.98516 1.48543 0
M  V30 579 N 54.6897 -0.239769 1.55765 0
M  V30 580 C 55.6197 -1.30052 1.9393 0
M  V30 581 C 56.6007 -1.49839 0.805132 0
M  V30 582 O 57.7857 -1.62328 1.06599 0
M  V30 583 C 54.9157 -2.65391 2.2402 0
M  V30 584 C 53.8697 -2.60289 3.39755 0
M  V30 585 C 53.1957 -3.99489 3.55405 0
M  V30 586 C 54.4957 -2.16654 4.75246 0
M  V30 587 H 56.1897 -0.983573 2.82783 0
M  V30 588 H 53.7357 -0.471701 1.36055 0
M  V30 589 H 55.6887 -3.3974 2.49308 0
M  V30 590 H 54.4127 -2.98736 1.32 0
M  V30 591 H 53.0717 -1.88398 3.14487 0
M  V30 592 H 52.7197 -4.30112 2.60793 0
M  V30 593 H 52.4197 -3.96962 4.33238 0
M  V30 594 H 53.9437 -4.75528 3.83022 0
M  V30 595 H 55.3577 -2.80737 4.99859 0
M  V30 596 H 53.7547 -2.25223 5.56232 0
M  V30 597 H 54.8247 -1.11835 4.71827 0
M  V30 598 N 56.1678 -1.49265 -0.50573 0
M  V30 599 C 57.0978 -1.68495 -1.61653 0
M  V30 600 C 58.0788 -0.53366 -1.61512 0
M  V30 601 O 59.2638 -0.76897 -1.78327 0
M  V30 602 C 56.3938 -1.74709 -3.00157 0
M  V30 603 C 55.3478 -2.89581 -3.15162 0
M  V30 604 C 54.6738 -2.80903 -4.5497 0
M  V30 605 C 55.9738 -4.30578 -2.95634 0
M  V30 606 H 57.6678 -2.61493 -1.45814 0
M  V30 607 H 55.2138 -1.25838 -0.70005 0
M  V30 608 H 57.1668 -1.86748 -3.77761 0
M  V30 609 H 55.8908 -0.783067 -3.17074 0
M  V30 610 H 54.5498 -2.77136 -2.39982 0
M  V30 611 H 54.1978 -1.82419 -4.68756 0
M  V30 612 H 53.8978 -3.57999 -4.65951 0
M  V30 613 H 55.4218 -2.94944 -5.34641 0
M  V30 614 H 56.8358 -4.4373 -3.63011 0
M  V30 615 H 55.2328 -5.0886 -3.18091 0
M  V30 616 H 56.3028 -4.45352 -1.91806 0
M  V30 617 N 57.6459 0.756429 -1.3826 0
M  V30 618 C 58.8939 1.51248 -1.34047 0
M  V30 619 C 59.2149 1.94875 0.0698372 0
M  V30 620 O 58.4849 1.67436 1.01696 0
M  V30 621 H 57.0649 0.561018 -0.493222 0
M  V30 622 H 59.7269 0.899347 -1.7291 0
M  V30 623 H 58.8229 2.40472 -1.98947 0
M  V30 624 N 59.124 1.23083 0.984299 0
M  V30 625 C 60.401 0.9689 1.69917 0
M  V30 626 C 60.781 -0.513604 2.04757 0
M  V30 627 O 60.129 -1.48383 1.73767 0
M  V30 628 C 60.339 1.87518 2.94343 0
M  V30 629 C 61.687 2.13636 3.6694 0
M  V30 630 O 62.711 1.85036 3.04368 0
M  V30 631 O 61.57 2.62119 4.79537 0
M  V30 632 H 58.664 0.365095 0.742048 0
M  V30 633 H 61.21 1.34107 1.03987 0
M  V30 634 H 59.982 2.87756 2.65164 0
M  V30 635 H 59.605 1.50514 3.6801 0
M  V30 636 N 60.6021 -1.18246 1.0419 0
M  V30 637 C 62.0131 -1.69914 0.773698 0
M  V30 638 C 62.3641 -1.83085 -0.705297 0
M  V30 639 O 61.4891 -1.51123 -1.5489 0
M  V30 640 C 62.0841 -3.08619 1.39784 0
M  V30 641 C 60.6431 -3.57494 1.17792 0
M  V30 642 C 59.7901 -2.34013 1.48773 0
M  V30 643 H 62.7411 -1.02904 1.20816 0
M  V30 644 H 62.7621 -3.71958 0.801714 0
M  V30 645 H 62.2741 -2.99001 2.47426 0
M  V30 646 H 60.3751 -3.72406 0.120295 0
M  V30 647 H 60.4881 -4.40852 1.87581 0
M  V30 648 H 58.8521 -2.37986 0.907463 0
M  V30 649 H 59.6351 -2.27013 2.57527 0
M  V30 650 N 62.0802 -0.821533 -1.34494 0
M  V30 651 C 63.0432 -0.247847 -2.27856 0
M  V30 652 C 64.0432 0.573453 -1.50227 0
M  V30 653 O 65.2332 0.389759 -1.69784 0
M  V30 654 C 62.3652 0.652698 -3.34593 0
M  V30 655 H 63.5582 -1.07146 -2.80107 0
M  V30 656 H 61.1112 -0.593291 -1.44602 0
M  V30 657 H 61.8462 1.49943 -2.87555 0
M  V30 658 H 61.6312 0.065292 -3.92046 0
M  V30 659 H 63.1212 1.04793 -4.04238 0
M  V30 660 N 63.5583 1.46682 -0.576371 0
M  V30 661 C 64.9743 1.57822 -0.237562 0
M  V30 662 C 65.1743 1.57237 1.26011 0
M  V30 663 O 64.2303 1.48596 2.04146 0
M  V30 664 C 65.5433 2.87499 -0.881168 0
M  V30 665 C 67.0913 3.01119 -0.85417 0
M  V30 666 C 67.5663 4.33524 -1.4772 0
M  V30 667 N 69.0573 4.40207 -1.44125 0
M  V30 668 C 69.7923 5.4126 -1.89276 0
M  V30 669 N 69.2883 6.49021 -2.42371 0
M  V30 670 N 71.0813 5.32422 -1.80231 0
M  V30 671 H 63.2323 1.45306 -1.54919 0
M  V30 672 H 65.4953 0.692733 -0.647167 0
M  V30 673 H 65.2013 2.9372 -1.93447 0
M  V30 674 H 65.0753 3.75224 -0.385592 0
M  V30 675 H 67.4623 2.94485 0.190491 0
M  V30 676 H 67.5433 2.14887 -1.3877 0
M  V30 677 H 67.1873 4.40916 -2.52103 0
M  V30 678 H 67.1173 5.1852 -0.918947 0
M  V30 679 H 69.6083 3.62931 -1.05307 0
M  V30 680 H 69.9213 7.2233 -2.74698 0
M  V30 681 H 68.2663 6.49858 -2.46393 0
M  V30 682 H 71.4573 4.47137 -1.38514 0
M  V30 683 H 71.6303 6.11034 -2.15735 0
M  V30 684 N 65.0364 0.313813 1.54444 0
M  V30 685 C 66.4524 -0.0391619 1.59552 0
M  V30 686 C 66.6524 -1.51322 1.33056 0
M  V30 687 O 65.7084 -2.26782 1.11022 0
M  V30 688 C 67.0214 0.370302 2.98411 0
M  V30 689 C 68.5694 0.320139 3.11358 0
M  V30 690 C 69.0444 0.704617 4.52547 0
M  V30 691 N 70.5354 0.657645 4.58508 0
M  V30 692 C 71.2704 0.927453 5.6585 0
M  V30 693 N 70.7664 1.26389 6.81174 0
M  V30 694 N 72.5594 0.853662 5.5558 0
M  V30 695 H 64.7104 1.27433 1.69925 0
M  V30 696 H 66.9734 0.517511 0.794284 0
M  V30 697 H 66.6794 1.39694 3.22767 0
M  V30 698 H 66.5534 -0.269619 3.76235 0
M  V30 699 H 68.9404 -0.697275 2.86744 0
M  V30 700 H 69.0214 0.99486 2.35661 0
M  V30 701 H 68.6654 1.7199 4.77893 0
M  V30 702 H 68.5954 0.00768843 5.26599 0
M  V30 703 H 71.0864 0.409067 3.75679 0
M  V30 704 H 71.3994 1.4554 7.58972 0
M  V30 705 H 69.7444 1.30206 6.82694 0
M  V30 706 H 72.9354 0.590383 4.64362 0
M  V30 707 H 73.1084 1.0673 6.3915 0
M  V30 708 N 66.5145 -1.57545 0.0417849 0
M  V30 709 C 67.7625 -1.91937 -0.632829 0
M  V30 710 C 68.0835 -0.919978 -1.71934 0
M  V30 711 O 67.3535 0.0366064 -1.95866 0
M  V30 712 H 65.9335 -0.708493 -0.236742 0
M  V30 713 H 68.5955 -1.9468 0.0925745 0
M  V30 714 H 67.6915 -2.92912 -1.07746 0
M  V30 715 N 67.9926 0.231505 -1.5589 0
M  V30 716 C 69.4086 0.580748 -1.48659 0
M  V30 717 C 69.6086 1.87617 -0.73498 0
M  V30 718 O 68.6646 2.51046 -0.270586 0
M  V30 719 C 69.9776 0.669202 -2.93159 0
M  V30 720 C 71.5256 0.760499 -3.03621 0
M  V30 721 C 72.0006 0.880383 -4.49459 0
M  V30 722 N 73.4916 0.944861 -4.53461 0
M  V30 723 C 74.2266 1.05716 -5.63571 0
M  V30 724 N 73.7226 1.13403 -6.83456 0
M  V30 725 N 75.5156 1.09152 -5.514 0
M  V30 726 H 67.6666 -0.618695 -2.03189 0
M  V30 727 H 69.9296 -0.215728 -0.923128 0
M  V30 728 H 69.6356 -0.212904 -3.51055 0
M  V30 729 H 69.5096 1.5361 -3.44505 0
M  V30 730 H 71.8966 1.63305 -2.45796 0
M  V30 731 H 71.9776 -0.131864 -2.5546 0
M  V30 732 H 71.6216 0.0123284 -5.07899 0
M  V30 733 H 71.5516 1.78802 -4.95316 0
M  V30 734 H 74.0426 0.896176 -3.6712 0
M  V30 735 H 74.3556 1.21921 -7.63122 0
M  V30 736 H 72.7006 1.10333 -6.86186 0
M  V30 737 H 75.8916 1.02805 -4.56671 0
M  V30 738 H 76.0646 1.17558 -6.37247 0
M  V30 739 N 69.4707 1.49531 0.497807 0
M  V30 740 C 70.7177 1.59179 1.25173 0
M  V30 741 C 71.0457 0.279932 1.92475 0
M  V30 742 O 70.3007 -0.732383 1.81479 0
M  V30 743 C 70.5997 2.70252 2.33878 0
M  V30 744 C 70.2657 4.11644 1.84012 0
M  V30 745 C 68.9277 4.50121 1.70132 0
M  V30 746 C 71.2797 5.00121 1.46725 0
M  V30 747 C 68.6077 5.74845 1.17348 0
M  V30 748 C 70.9597 6.25366 0.95392 0
M  V30 749 C 69.6237 6.6267 0.801538 0
M  V30 750 H 68.8937 0.582478 0.45804 0
M  V30 751 H 71.5407 1.83373 0.551948 0
M  V30 752 H 69.8457 2.40041 3.09657 0
M  V30 753 H 71.5427 2.74925 2.9192 0
M  V30 754 H 68.1327 3.81274 1.95775 0
M  V30 755 H 72.3167 4.71048 1.56294 0
M  V30 756 H 67.5727 6.02444 1.04264 0
M  V30 757 H 71.7467 6.93301 0.656225 0
M  V30 758 H 69.3737 7.59197 0.390351 0
M  V30 759 N 70.9488 -0.749086 1.3866 0
M  V30 760 C 72.1788 -1.53611 1.38157 0
M  V30 761 C 72.5868 -1.89177 -0.0293595 0
M  V30 762 O 71.9298 -1.53606 -1.00752 0
M  V30 763 C 71.9918 -2.86087 2.17702 0
M  V30 764 C 71.6558 -2.73034 3.66472 0
M  V30 765 C 72.6528 -2.42526 4.59866 0
M  V30 766 C 70.3378 -2.90345 4.09884 0
M  V30 767 C 72.3318 -2.29492 5.94653 0
M  V30 768 C 70.0188 -2.7693 5.4475 0
M  V30 769 C 71.0168 -2.46547 6.36949 0
M  V30 770 O 70.7048 -2.33199 7.69333 0
M  V30 771 H 70.4368 -0.481773 0.474205 0
M  V30 772 H 72.9908 -0.934465 1.82912 0
M  V30 773 H 71.2208 -3.48458 1.67672 0
M  V30 774 H 72.9098 -3.47625 2.09551 0
M  V30 775 H 73.6758 -2.28816 4.27631 0
M  V30 776 H 69.5548 -3.1299 3.38464 0
M  V30 777 H 73.0988 -2.05698 6.66584 0
M  V30 778 H 68.9958 -2.90215 5.76581 0
M  V30 779 H 69.7638 -2.48376 7.79905 0
M  V30 780 N 72.4269 -1.23603 -0.977757 0
M  V30 781 C 73.7039 -0.977897 -1.69401 0
M  V30 782 C 74.0839 0.502738 -2.05026 0
M  V30 783 O 73.4319 1.47459 -1.74551 0
M  V30 784 C 73.6419 -1.89077 -2.93345 0
M  V30 785 C 74.9899 -2.15579 -3.65802 0
M  V30 786 O 76.0139 -1.86648 -3.03383 0
M  V30 787 O 74.8729 -2.64658 -4.78141 0
M  V30 788 H 71.9669 -0.369025 -0.740101 0
M  V30 789 H 74.5129 -1.34657 -1.03274 0
M  V30 790 H 73.2849 -2.89158 -2.63634 0
M  V30 791 H 72.9079 -1.52463 -3.67207 0
M  V30 792 N 73.905 1.17692 -1.04816 0
M  V30 793 C 75.182 1.83768 -0.669963 0
M  V30 794 C 75.562 1.93232 0.849986 0
M  V30 795 O 74.91 1.46397 1.75443 0
M  V30 796 C 75.12 3.21641 -1.35455 0
M  V30 797 C 76.468 3.97592 -1.49017 0
M  V30 798 O 77.492 3.31107 -1.31326 0
M  V30 799 O 76.351 5.16729 -1.77914 0
M  V30 800 H 73.445 0.792799 -0.235368 0
M  V30 801 H 75.991 1.25021 -1.14751 0
M  V30 802 H 74.763 3.097 -2.39168 0
M  V30 803 H 74.386 3.88052 -0.866107 0
M  V30 804 N 75.3831 0.828654 1.34056 0
M  V30 805 C 76.3461 0.259927 2.27721 0
M  V30 806 C 77.3461 -0.565478 1.50529 0
M  V30 807 O 78.5361 -0.38075 1.69988 0
M  V30 808 C 75.6681 -0.634944 3.34935 0
M  V30 809 H 76.8611 1.0863 2.79534 0
M  V30 810 H 74.4141 0.600951 1.44285 0
M  V30 811 H 75.1491 -1.48416 2.88346 0
M  V30 812 H 74.9341 -0.0444999 3.92075 0
M  V30 813 H 76.4241 -1.02648 4.04788 0
M  V30 814 N 76.8612 -1.46375 0.584142 0
M  V30 815 C 78.2772 -1.57694 0.245929 0
M  V30 816 C 78.4772 -1.57903 -1.25175 0
M  V30 817 O 77.5332 -1.49676 -2.03355 0
M  V30 818 C 78.8462 -2.87028 0.896402 0
M  V30 819 C 80.3942 -3.00662 0.870127 0
M  V30 820 C 80.8692 -4.32734 1.50017 0
M  V30 821 N 82.3602 -4.39436 1.46458 0
M  V30 822 C 83.0952 -5.40248 1.92144 0
M  V30 823 N 82.5912 -6.47726 2.4581 0
M  V30 824 N 84.3842 -5.31459 1.83052 0
M  V30 825 H 76.5352 -1.44483 1.55687 0
M  V30 826 H 78.7982 -0.689291 0.650831 0
M  V30 827 H 78.5042 -2.9269 1.95002 0
M  V30 828 H 78.3782 -3.75014 0.405486 0
M  V30 829 H 80.7652 -2.94581 -0.174871 0
M  V30 830 H 80.8462 -2.14148 1.39908 0
M  V30 831 H 80.4902 -4.39573 2.54437 0
M  V30 832 H 80.4202 -5.18025 0.946432 0
M  V30 833 H 82.9112 -3.62367 1.07231 0
M  V30 834 H 83.2242 -7.20863 2.78525 0
M  V30 835 H 81.5692 -6.48542 2.49836 0
M  V30 836 H 84.7602 -4.46396 1.40883 0
M  V30 837 H 84.9332 -6.09881 2.18973 0
M  V30 838 N 78.3393 -0.321999 -1.54275 0
M  V30 839 C 79.7553 0.0306999 -1.5957 0
M  V30 840 C 79.9553 1.50614 -1.33857 0
M  V30 841 O 79.0113 2.2619 -1.12223 0
M  V30 842 C 80.3243 -0.386122 -2.98211 0
M  V30 843 C 81.8723 -0.336647 -3.11184 0
M  V30 844 C 82.3473 -0.728607 -4.52167 0
M  V30 845 N 83.8383 -0.681952 -4.58152 0
M  V30 846 C 84.5733 -0.957449 -5.6535 0
M  V30 847 N 84.0693 -1.3 -6.80494 0
M  V30 848 N 85.8623 -0.883113 -5.55119 0
M  V30 849 H 78.0133 -1.28332 -1.69247 0
M  V30 850 H 80.2763 -0.521716 -0.791528 0
M  V30 851 H 79.9823 -1.41404 -3.22022 0
M  V30 852 H 79.8563 0.249662 -3.76373 0
M  V30 853 H 82.2433 0.682058 -2.8711 0
M  V30 854 H 82.3243 -1.00734 -2.3513 0
M  V30 855 H 81.9683 -1.74522 -4.76974 0
M  V30 856 H 81.8983 -0.0356152 -5.26588 0
M  V30 857 H 84.3893 -0.428985 -3.75457 0
M  V30 858 H 84.7023 -1.49563 -7.58189 0
M  V30 859 H 83.0473 -1.33824 -6.81994 0
M  V30 860 H 86.2383 -0.615001 -4.64042 0
M  V30 861 H 86.4113 -1.10118 -6.38575 0
M  V30 862 N 79.8174 1.5752 -0.0501392 0
M  V30 863 C 80.7274 2.14952 0.939827 0
M  V30 864 C 81.7434 1.10706 1.34239 0
M  V30 865 O 82.9194 1.42869 1.41952 0
M  V30 866 C 79.9844 2.68232 2.19665 0
M  V30 867 C 79.0454 3.87272 1.85253 0
M  V30 868 C 78.2784 4.38002 3.04943 0
M  V30 869 O 78.5014 3.87811 4.18281 0
M  V30 870 O 77.4354 5.29602 2.86017 0
M  V30 871 H 81.2614 2.9986 0.481392 0
M  V30 872 H 78.8464 1.4841 0.171699 0
M  V30 873 H 80.7284 3.02475 2.93406 0
M  V30 874 H 79.4034 1.86395 2.64648 0
M  V30 875 H 78.3104 3.5792 1.0883 0
M  V30 876 H 79.6434 4.70336 1.4507 0
M  V30 877 N 81.2955 -0.223234 1.56011 0
M  V30 878 C 82.5255 -0.963413 1.82762 0
M  V30 879 C 82.9335 -1.78516 0.626804 0
M  V30 880 O 82.2765 -1.78974 -0.414014 0
M  V30 881 C 82.3385 -1.93126 3.0322 0
M  V30 882 C 82.0025 -1.2942 4.38291 0
M  V30 883 C 82.9995 -0.684916 5.15369 0
M  V30 884 C 80.6845 -1.30647 4.85012 0
M  V30 885 C 82.6785 -0.0963971 6.37327 0
M  V30 886 C 80.3655 -0.71411 6.06913 0
M  V30 887 C 81.3635 -0.110123 6.82911 0
M  V30 888 O 81.0515 0.47303 8.02507 0
M  V30 889 H 80.7835 -0.288011 0.611576 0
M  V30 890 H 83.3375 -0.244103 2.03944 0
M  V30 891 H 81.5675 -2.68952 2.77852 0
M  V30 892 H 83.2565 -2.53685 3.16857 0
M  V30 893 H 84.0225 -0.667774 4.80381 0
M  V30 894 H 79.9015 -1.76598 4.25833 0
M  V30 895 H 83.4455 0.375657 6.96588 0
M  V30 896 H 79.3425 -0.728659 6.41374 0
M  V30 897 H 80.1105 0.367186 8.17676 0
M  V30 898 N 82.7736 -1.49793 -0.48987 0
M  V30 899 C 84.0206 -1.59841 -1.24327 0
M  V30 900 C 84.3486 -0.290135 -1.92324 0
M  V30 901 O 83.6036 0.722749 -1.81865 0
M  V30 902 C 83.9026 -2.71488 -2.32441 0
M  V30 903 C 83.5686 -4.12614 -1.81826 0
M  V30 904 C 82.2306 -4.51017 -1.67742 0
M  V30 905 C 84.5826 -5.00892 -1.4407 0
M  V30 906 C 81.9106 -5.75459 -1.14297 0
M  V30 907 C 84.2626 -6.25863 -0.920742 0
M  V30 908 C 82.9266 -6.63086 -0.766383 0
M  V30 909 H 82.1966 -0.584899 -0.454944 0
M  V30 910 H 84.8436 -1.83663 -0.542215 0
M  V30 911 H 83.1486 -2.4168 -3.0838 0
M  V30 912 H 84.8456 -2.76469 -2.90458 0
M  V30 913 H 81.4356 -3.82307 -1.93751 0
M  V30 914 H 85.6196 -4.7187 -1.53794 0
M  V30 915 H 80.8756 -6.02989 -1.01068 0
M  V30 916 H 85.0496 -6.9364 -0.619448 0
M  V30 917 H 82.6766 -7.59393 -0.350083 0
M  V30 918 N 84.2517 0.741722 -1.39055 0
M  V30 919 C 85.4987 1.50114 -1.35912 0
M  V30 920 C 85.8267 1.94443 0.0470937 0
M  V30 921 O 85.0817 1.66612 1.02659 0
M  V30 922 C 85.3807 2.7592 -2.27163 0
M  V30 923 C 85.0467 2.50493 -3.74919 0
M  V30 924 C 83.7087 2.43267 -4.1518 0
M  V30 925 C 86.0607 2.28585 -4.684 0
M  V30 926 C 83.3887 2.12166 -5.46994 0
M  V30 927 C 85.7407 1.99002 -6.00484 0
M  V30 928 C 84.4047 1.90241 -6.39816 0
M  V30 929 H 83.6747 0.549306 -0.497336 0
M  V30 930 H 86.3217 0.851896 -1.71508 0
M  V30 931 H 84.6267 3.45553 -1.84663 0
M  V30 932 H 86.3237 3.33923 -2.22028 0
M  V30 933 H 82.9137 2.56992 -3.43006 0
M  V30 934 H 87.0977 2.33139 -4.38132 0
M  V30 935 H 82.3537 2.03901 -5.76398 0
M  V30 936 H 86.5277 1.81057 -6.72452 0
M  V30 937 H 84.1547 1.65907 -7.41875 0
M  V30 938 N 85.7298 1.2412 0.971189 0
M  V30 939 C 87.0068 0.986867 1.6888 0
M  V30 940 C 87.3868 -0.491857 2.0529 0
M  V30 941 O 86.7348 -1.46531 1.75331 0
M  V30 942 C 86.9448 1.9063 2.92338 0
M  V30 943 C 88.2928 2.17515 3.64654 0
M  V30 944 O 89.3168 1.88254 3.02388 0
M  V30 945 O 88.1758 2.6719 4.7673 0
M  V30 946 H 85.2698 0.372944 0.738134 0
M  V30 947 H 87.8158 1.35203 1.02559 0
M  V30 948 H 86.5878 2.90552 2.62097 0
M  V30 949 H 86.2108 1.54408 3.66393 0
M  V30 950 N 87.2079 -1.17134 1.05439 0
M  V30 951 C 88.6239 -1.39454 0.776201 0
M  V30 952 C 88.8239 -1.91454 -0.628307 0
M  V30 953 O 87.8799 -2.10777 -1.39031 0
M  V30 954 C 89.1929 -2.38305 1.83388 0
M  V30 955 C 90.7409 -2.52006 1.85639 0
M  V30 956 C 91.2159 -3.54133 2.90437 0
M  V30 957 N 92.7069 -3.61653 2.89415 0
M  V30 958 C 93.4419 -4.4044 3.67152 0
M  V30 959 N 92.9379 -5.22721 4.54681 0
M  V30 960 N 94.7309 -4.35337 3.55581 0
M  V30 961 H 86.8819 -0.817134 1.96053 0
M  V30 962 H 89.1449 -0.421626 0.849079 0
M  V30 963 H 88.8509 -2.07173 2.84204 0
M  V30 964 H 88.7249 -3.37841 1.67761 0
M  V30 965 H 91.1119 -2.82447 0.85486 0
M  V30 966 H 91.1929 -1.52537 2.05344 0
M  V30 967 H 90.8369 -3.24431 3.90777 0
M  V30 968 H 90.7669 -4.53313 2.67983 0
M  V30 969 H 93.2579 -3.02909 2.25952 0
M  V30 970 H 93.5709 -5.80027 5.10674 0
M  V30 971 H 91.9159 -5.22093 4.58741 0
M  V30 972 H 95.1069 -3.70112 2.86592 0
M  V30 973 H 95.2799 -4.96494 4.1641 0
M  V30 974 N 88.686 -0.835752 -1.33615 0
M  V30 975 C 89.636 -0.238856 -2.26745 0
M  V30 976 C 90.62 0.604343 -1.49119 0
M  V30 977 O 91.812 0.456822 -1.71003 0
M  V30 978 C 88.941 0.587725 -3.38232 0
M  V30 979 C 88.027 -0.266811 -4.2326 0
M  V30 980 N 88.418 -1.34403 -4.87616 0
M  V30 981 C 86.716 -0.0533131 -4.45968 0
M  V30 982 C 87.417 -1.86819 -5.50884 0
M  V30 983 N 86.393 -1.17013 -5.30857 0
M  V30 984 H 90.195 -1.06266 -2.74016 0
M  V30 985 H 87.709 -0.679881 -1.47483 0
M  V30 986 H 89.706 1.03161 -4.03935 0
M  V30 987 H 88.366 1.40954 -2.9251 0
M  V30 988 H 89.377 -1.7269 -4.88261 0
M  V30 989 H 86.054 0.735312 -4.10974 0
M  V30 990 H 87.444 -2.7701 -6.1214 0
M  V30 991 N 90.1641 1.46063 -0.591896 0
M  V30 992 C 91.5801 1.57561 -0.254288 0
M  V30 993 C 91.7801 1.58565 1.24336 0
M  V30 994 O 90.8361 1.50753 2.02558 0
M  V30 995 C 92.1491 2.86549 -0.911611 0
M  V30 996 C 93.6971 3.00197 -0.886059 0
M  V30 997 C 94.1721 4.31933 -1.5231 0
M  V30 998 N 95.6631 4.38654 -1.48786 0
M  V30 999 C 96.3981 5.39222 -1.95006 0
M  V30 1000 N 95.8941 6.46414 -2.49241 0
M  V30 1001 N 97.6871 5.3048 -1.85868 0
M  V30 1002 H 89.8381 1.43655 -1.56451 0
M  V30 1003 H 92.1011 0.68583 -0.654478 0
M  V30 1004 H 91.8071 2.91651 -1.96551 0
M  V30 1005 H 91.6811 3.74794 -0.425368 0
M  V30 1006 H 94.0681 2.9467 0.159246 0
M  V30 1007 H 94.1491 2.13403 -1.41041 0
M  V30 1008 H 93.7931 4.38217 -2.56765 0
M  V30 1009 H 93.7231 5.17516 -0.973891 0
M  V30 1010 H 96.2141 3.61793 -1.09151 0
M  V30 1011 H 96.5271 7.19376 -2.82344 0
M  V30 1012 H 94.8721 6.47208 -2.53272 0
M  V30 1013 H 98.0631 4.45643 -1.43248 0
M  V30 1014 H 98.2361 6.08711 -2.22204 0
M  V30 1015 N 91.6422 0.330177 1.54103 0
M  V30 1016 C 93.0532 -0.15652 1.86043 0
M  V30 1017 C 93.4042 -1.51086 1.2517 0
M  V30 1018 O 92.5292 -2.09023 0.560217 0
M  V30 1019 C 93.1242 -0.290784 3.3755 0
M  V30 1020 C 91.6832 -0.721705 3.69416 0
M  V30 1021 C 90.8302 0.152622 2.7688 0
M  V30 1022 H 93.7812 0.550237 1.48856 0
M  V30 1023 H 93.8022 -1.12058 3.63625 0
M  V30 1024 H 93.3142 0.695068 3.81825 0
M  V30 1025 H 91.4152 -1.71706 3.30678 0
M  V30 1026 H 91.5282 -0.520869 4.7626 0
M  V30 1027 H 89.8922 -0.372894 2.51956 0
M  V30 1028 H 90.6752 1.13536 3.23982 0
M  V30 1029 N 93.1203 -1.57491 0.0584922 0
M  V30 1030 C 94.3453 -1.97711 -0.62652 0
M  V30 1031 C 94.7703 -0.936132 -1.63151 0
M  V30 1032 O 94.1283 0.099811 -1.81025 0
M  V30 1033 C 94.1763 -3.36989 -1.28338 0
M  V30 1034 O 93.2803 -3.35433 -2.39913 0
M  V30 1035 H 92.6213 -0.643868 -0.162266 0
M  V30 1036 H 95.1513 -2.04193 0.129064 0
M  V30 1037 H 95.1613 -3.73879 -1.63335 0
M  V30 1038 H 93.8363 -4.12289 -0.546889 0
M  V30 1039 H 92.4133 -3.10298 -2.06809 0
M  V30 1040 N 94.5984 0.214957 -1.56127 0
M  V30 1041 C 95.8454 0.938372 -1.79446 0
M  V30 1042 C 96.1734 1.8407 -0.628378 0
M  V30 1043 O 95.4284 1.91837 0.386925 0
M  V30 1044 C 95.7274 1.80314 -3.0858 0
M  V30 1045 C 95.3934 1.05349 -4.3842 0
M  V30 1046 C 94.0554 0.846435 -4.73697 0
M  V30 1047 C 96.4074 0.524588 -5.18553 0
M  V30 1048 C 93.7354 0.098683 -5.86617 0
M  V30 1049 C 96.0874 -0.209853 -6.32252 0
M  V30 1050 C 94.7514 -0.428102 -6.66126 0
M  V30 1051 H 94.0214 0.343375 -0.656639 0
M  V30 1052 H 96.6684 0.206077 -1.90388 0
M  V30 1053 H 94.9734 2.6035 -2.92789 0
M  V30 1054 H 96.6704 2.36513 -3.23825 0
M  V30 1055 H 93.2604 1.22486 -4.10725 0
M  V30 1056 H 97.4444 0.672008 -4.91729 0
M  V30 1057 H 92.7004 -0.0805753 -6.11347 0
M  V30 1058 H 96.8744 -0.627157 -6.9357 0
M  V30 1059 H 94.5014 -1.00944 -7.53468 0
M  V30 1060 N 96.0765 1.50051 0.48192 0
M  V30 1061 C 97.3535 1.51009 1.2432 0
M  V30 1062 C 97.7335 0.248587 2.09631 0
M  V30 1063 O 97.0815 -0.768409 2.15192 0
M  V30 1064 C 97.2915 2.79981 2.08355 0
M  V30 1065 C 98.6395 3.3022 2.66908 0
M  V30 1066 O 99.6635 2.81228 2.18607 0
M  V30 1067 O 98.5225 4.15595 3.54884 0
M  V30 1068 H 95.6165 0.605239 0.563573 0
M  V30 1069 H 98.1625 1.62332 0.494627 0
M  V30 1070 H 96.9345 3.63275 1.45419 0
M  V30 1071 H 96.5575 2.7161 2.90368 0
M  V30 1072 N 97.5546 -0.734337 1.39446 0
M  V30 1073 C 98.5176 -1.83004 1.37994 0
M  V30 1074 C 99.5176 -1.58397 0.276938 0
M  V30 1075 O 100.708 -1.65785 0.534875 0
M  V30 1076 C 97.8396 -3.20802 1.1532 0
M  V30 1077 H 99.0326 -1.85694 2.35494 0
M  V30 1078 H 96.5856 -0.938059 1.25021 0
M  V30 1079 H 97.3206 -3.23772 0.185036 0
M  V30 1080 H 97.1056 -3.4006 1.95197 0
M  V30 1081 H 98.5956 -4.00862 1.17046 0
M  V30 1082 N 99.0327 -1.24633 -0.964593 0
M  V30 1083 C 100.279 -1.08949 -1.71049 0
M  V30 1084 C 100.612 0.370302 -1.90637 0
M  V30 1085 O 99.8867 1.27349 -1.47011 0
M  V30 1086 C 100.17 -1.83329 -3.0994 0
M  V30 1087 C 100.023 -3.37077 -2.97824 0
M  V30 1088 C 101.342 -1.60846 -4.09654 0
M  V30 1089 H 98.4607 -0.397178 -0.620821 0
M  V30 1090 H 101.103 -1.5334 -1.12191 0
M  V30 1091 H 99.2527 -1.45597 -3.60186 0
M  V30 1092 H 100.925 -3.84425 -2.5498 0
M  V30 1093 H 99.1677 -3.65298 -2.33965 0
M  V30 1094 H 99.8387 -3.84324 -3.96231 0
M  V30 1095 H 102.315 -1.93674 -3.68279 0
M  V30 1096 H 101.191 -2.1534 -5.04896 0
M  V30 1097 H 101.452 -0.547434 -4.38698 0
M  V30 1098 N 100.511 1.16574 -1.06058 0
M  V30 1099 C 101.441 2.23057 -0.690488 0
M  V30 1100 C 102.422 1.67141 0.315901 0
M  V30 1101 O 103.607 1.93253 0.191556 0
M  V30 1102 C 100.737 3.47222 -0.073625 0
M  V30 1103 C 99.6908 4.16016 -1.00573 0
M  V30 1104 C 99.0168 5.34104 -0.252289 0
M  V30 1105 C 100.317 4.67264 -2.33371 0
M  V30 1106 H 102.011 2.54271 -1.58072 0
M  V30 1107 H 99.5568 1.22218 -0.76149 0
M  V30 1108 H 101.51 4.20939 0.19714 0
M  V30 1109 H 100.234 3.15302 0.85161 0
M  V30 1110 H 98.8928 3.44223 -1.2612 0
M  V30 1111 H 98.5408 4.98437 0.675988 0
M  V30 1112 H 98.2408 5.81072 -0.873455 0
M  V30 1113 H 99.7648 6.10599 0.0109857 0
M  V30 1114 H 101.179 5.32573 -2.12223 0
M  V30 1115 H 99.5758 5.24843 -2.90963 0
M  V30 1116 H 100.646 3.83602 -2.96611 0
M  V30 1117 N 101.989 0.842826 1.3317 0
M  V30 1118 C 103.219 0.453397 2.01564 0
M  V30 1119 C 103.627 -0.951147 1.63554 0
M  V30 1120 O 102.97 -1.63021 0.846746 0
M  V30 1121 C 103.032 0.499013 3.5602 0
M  V30 1122 C 102.696 1.86037 4.1742 0
M  V30 1123 C 103.693 2.82416 4.36506 0
M  V30 1124 C 101.378 2.15428 4.53757 0
M  V30 1125 C 103.372 4.06346 4.91082 0
M  V30 1126 C 101.059 3.39615 5.0804 0
M  V30 1127 C 102.057 4.3489 5.26649 0
M  V30 1128 O 101.745 5.5688 5.79776 0
M  V30 1129 H 101.477 0.177871 0.652179 0
M  V30 1130 H 104.031 1.13808 1.70988 0
M  V30 1131 H 102.261 -0.242467 3.85939 0
M  V30 1132 H 103.95 0.126852 4.05702 0
M  V30 1133 H 104.716 2.6101 4.08777 0
M  V30 1134 H 100.595 1.42061 4.38565 0
M  V30 1135 H 104.139 4.80722 5.05522 0
M  V30 1136 H 100.036 3.60876 5.352 0
M  V30 1137 H 100.804 5.58674 5.98185 0
M  V30 1138 N 103.467 -1.45747 0.599634 0
M  V30 1139 C 104.697 -2.06369 0.0977132 0
M  V30 1140 C 105.105 -1.44624 -1.21985 0
M  V30 1141 O 104.448 -0.551831 -1.75216 0
M  V30 1142 C 104.51 -3.59284 -0.124673 0
M  V30 1143 C 104.174 -4.43318 1.10987 0
M  V30 1144 C 105.171 -4.78796 2.02609 0
M  V30 1145 C 102.856 -4.84194 1.33647 0
M  V30 1146 C 104.85 -5.53997 3.15224 0
M  V30 1147 C 102.537 -5.5915 2.46565 0
M  V30 1148 C 103.535 -5.93968 3.37182 0
M  V30 1149 O 103.223 -6.67405 4.48136 0
M  V30 1150 H 102.955 -0.673122 0.0623153 0
M  V30 1151 H 105.509 -1.88104 0.824981 0
M  V30 1152 H 103.739 -3.75919 -0.906745 0
M  V30 1153 H 105.428 -4.01775 -0.577201 0
M  V30 1154 H 106.194 -4.47781 1.86325 0
M  V30 1155 H 102.073 -4.56534 0.64016 0
M  V30 1156 H 105.617 -5.81091 3.85978 0
M  V30 1157 H 101.514 -5.89579 2.62805 0
M  V30 1158 H 102.282 -6.85847 4.46717 0
M  V30 1159 N 104.945 -0.338344 -1.53925 0
M  V30 1160 C 106.175 0.260919 -2.04946 0
M  V30 1161 C 106.583 1.45174 -1.2133 0
M  V30 1162 O 105.926 1.82122 -0.240262 0
M  V30 1163 C 105.988 0.744596 -3.51704 0
M  V30 1164 C 105.652 -0.325883 -4.55837 0
M  V30 1165 C 106.649 -1.16687 -5.06636 0
M  V30 1166 C 104.334 -0.478317 -5.00017 0
M  V30 1167 C 106.328 -2.14588 -6.00192 0
M  V30 1168 C 104.015 -1.46073 -5.93385 0
M  V30 1169 C 105.013 -2.29297 -6.4336 0
M  V30 1170 O 104.701 -3.25867 -7.34892 0
M  V30 1171 H 104.433 0.0551207 -0.673749 0
M  V30 1172 H 106.987 -0.486984 -1.99544 0
M  V30 1173 H 105.217 1.54366 -3.54553 0
M  V30 1174 H 106.906 1.26383 -3.85723 0
M  V30 1175 H 107.672 -1.06016 -4.73271 0
M  V30 1176 H 103.551 0.159613 -4.60724 0
M  V30 1177 H 107.095 -2.79585 -6.39123 0
M  V30 1178 H 102.992 -1.56802 -6.26166 0
M  V30 1179 H 103.76 -3.21278 -7.5281 0
M  V30 1180 N 106.423 1.57458 -0.0668435 0
M  V30 1181 C 107.355 2.09413 0.931601 0
M  V30 1182 C 108.368 1.02522 1.26464 0
M  V30 1183 O 109.557 1.30049 1.22269 0
M  V30 1184 C 106.657 2.53537 2.24882 0
M  V30 1185 C 105.83 3.83944 2.09537 0
M  V30 1186 C 104.889 4.14214 3.2452 0
M  V30 1187 O 103.915 4.83891 2.9973 0
M  V30 1188 N 105.117 3.67367 4.49469 0
M  V30 1189 H 107.882 2.95699 0.488048 0
M  V30 1190 H 105.443 1.61462 0.119009 0
M  V30 1191 H 107.435 2.70853 3.00701 0
M  V30 1192 H 106.005 1.72415 2.60753 0
M  V30 1193 H 105.225 3.76057 1.18215 0
M  V30 1194 H 106.513 4.69312 1.96529 0
M  V30 1195 H 105.911 3.11068 4.72497 0
M  V30 1196 H 104.468 3.89891 5.2233 0
M  V30 1197 N 107.901 -0.206675 1.56239 0
M  V30 1198 C 109.126 -0.949474 1.8439 0
M  V30 1199 C 109.551 -1.76549 0.649016 0
M  V30 1200 O 108.909 -1.76782 -0.402231 0
M  V30 1201 C 108.957 -1.83078 3.10668 0
M  V30 1202 O 108.061 -2.9281 2.90407 0
M  V30 1203 H 107.402 -0.268033 0.607499 0
M  V30 1204 H 109.932 -0.215488 2.03462 0
M  V30 1205 H 109.942 -2.2377 3.41161 0
M  V30 1206 H 108.617 -1.23112 3.97261 0
M  V30 1207 H 107.194 -2.55956 2.71184 0
M  V30 1208 N 109.379 -1.50304 -0.473955 0
M  V30 1209 C 110.627 -1.60832 -1.22382 0
M  V30 1210 C 110.948 -0.30939 -1.9253 0
M  V30 1211 O 110.218 0.67296 -1.83978 0
M  V30 1212 H 108.798 -0.592652 -0.454723 0
M  V30 1213 H 111.46 -1.87068 -0.546968 0
M  V30 1214 H 110.556 -2.41803 -1.97327 0
M  V30 1215 N 110.857 0.726932 -1.39834 0
M  V30 1216 C 112.105 1.4837 -1.37225 0
M  V30 1217 C 112.426 1.94979 0.0284857 0
M  V30 1218 O 111.696 1.69555 0.981213 0
M  V30 1219 H 110.276 0.55043 -0.505011 0
M  V30 1220 H 112.938 0.862468 -1.74778 0
M  V30 1221 H 112.034 2.36198 -2.04003 0
M  V30 1222 N 112.336 1.25143 0.95797 0
M  V30 1223 C 113.752 1.01892 1.22842 0
M  V30 1224 C 113.952 -0.266311 1.99732 0
M  V30 1225 O 113.008 -0.979913 2.3271 0
M  V30 1226 C 114.321 2.24004 2.00606 0
M  V30 1227 C 115.869 2.28731 2.13662 0
M  V30 1228 C 116.344 3.5049 2.94823 0
M  V30 1229 N 117.835 3.50866 3.02403 0
M  V30 1230 C 118.57 4.4174 3.65586 0
M  V30 1231 N 118.066 5.42882 4.30408 0
M  V30 1232 N 119.859 4.29429 3.62694 0
M  V30 1233 H 112.01 2.07718 0.443493 0
M  V30 1234 H 114.273 0.912031 0.258657 0
M  V30 1235 H 113.979 3.17395 1.51503 0
M  V30 1236 H 113.853 2.26907 3.01319 0
M  V30 1237 H 116.24 1.35865 2.61963 0
M  V30 1238 H 116.321 2.29848 1.12265 0
M  V30 1239 H 115.965 4.43676 2.47213 0
M  V30 1240 H 115.895 3.46617 3.96439 0
M  V30 1241 H 118.386 2.777 2.56302 0
M  V30 1242 H 118.699 6.0844 4.76467 0
M  V30 1243 H 117.044 5.46758 4.29047 0
M  V30 1244 H 120.235 3.49643 3.11236 0
M  V30 1245 H 120.408 5.00448 4.1165 0
M  V30 1246 N 113.814 -1.1601 1.06675 0
M  V30 1247 C 114.744 -2.22688 0.702307 0
M  V30 1248 C 115.725 -1.67306 -0.307032 0
M  V30 1249 O 116.91 -1.93352 -0.181305 0
M  V30 1250 C 114.04 -3.47178 0.092038 0
M  V30 1251 C 112.994 -4.15477 1.02777 0
M  V30 1252 C 112.32 -5.33963 0.28061 0
M  V30 1253 C 113.62 -4.66019 2.35846 0
M  V30 1254 H 115.314 -2.53429 1.59419 0
M  V30 1255 H 112.86 -1.21813 0.767961 0
M  V30 1256 H 114.813 -4.21037 -0.174814 0
M  V30 1257 H 113.537 -3.15749 -0.834877 0
M  V30 1258 H 112.196 -3.43549 1.27944 0
M  V30 1259 H 111.844 -4.98788 -0.649545 0
M  V30 1260 H 111.544 -5.806 0.904258 0
M  V30 1261 H 113.068 -6.10596 0.021396 0
M  V30 1262 H 114.482 -5.3144 2.15045 0
M  V30 1263 H 112.879 -5.23293 2.93743 0
M  V30 1264 H 113.949 -3.82023 2.98641 0
M  V30 1265 N 115.292 -0.849877 -1.32721 0
M  V30 1266 C 116.708 -0.539102 -1.50219 0
M  V30 1267 C 116.908 0.931271 -1.78689 0
M  V30 1268 O 115.964 1.71455 -1.85363 0
M  V30 1269 C 117.277 -1.42196 -2.64954 0
M  V30 1270 C 118.825 -1.42189 -2.78839 0
M  V30 1271 C 119.3 -2.28985 -3.96648 0
M  V30 1272 N 120.791 -2.26754 -4.03902 0
M  V30 1273 C 121.526 -2.90644 -4.94281 0
M  V30 1274 N 121.022 -3.63629 -5.897 0
M  V30 1275 N 122.815 -2.80057 -4.87365 0
M  V30 1276 H 114.966 -1.80156 -1.12506 0
M  V30 1277 H 117.229 -0.769217 -0.554085 0
M  V30 1278 H 116.935 -2.46733 -2.50631 0
M  V30 1279 H 116.809 -1.10591 -3.60624 0
M  V30 1280 H 119.196 -0.38419 -2.92588 0
M  V30 1281 H 119.277 -1.77807 -1.83898 0
M  V30 1282 H 118.921 -3.32819 -3.83658 0
M  V30 1283 H 118.851 -1.90702 -4.90857 0
M  V30 1284 H 121.342 -1.73688 -3.3562 0
M  V30 1285 H 121.655 -4.09558 -6.55349 0
M  V30 1286 H 120 -3.67737 -5.89741 0
M  V30 1287 H 123.191 -2.22593 -4.11789 0
M  V30 1288 H 123.364 -3.30132 -5.57599 0
M  V30 1289 N 116.77 1.45427 -0.607355 0
M  V30 1290 C 118.186 1.57283 -0.270985 0
M  V30 1291 C 118.386 1.59875 1.22647 0
M  V30 1292 O 117.442 1.52893 2.00948 0
M  V30 1293 C 118.755 2.85566 -0.941952 0
M  V30 1294 C 120.303 2.9924 -0.917849 0
M  V30 1295 C 120.778 4.30293 -1.56882 0
M  V30 1296 N 122.269 4.37051 -1.5343 0
M  V30 1297 C 123.004 5.37123 -2.00715 0
M  V30 1298 N 122.5 6.43734 -2.56084 0
M  V30 1299 N 124.293 5.28479 -1.91484 0
M  V30 1300 H 116.444 1.41988 -1.57966 0
M  V30 1301 H 118.707 0.67885 -0.661715 0
M  V30 1302 H 118.413 2.8955 -1.99633 0
M  V30 1303 H 118.287 3.74322 -0.465096 0
M  V30 1304 H 120.674 2.94822 0.127984 0
M  V30 1305 H 120.755 2.11895 -1.43297 0
M  V30 1306 H 120.399 4.35469 -2.61398 0
M  V30 1307 H 120.329 5.16454 -1.02873 0
M  V30 1308 H 122.82 3.60615 -1.12982 0
M  V30 1309 H 123.133 7.16341 -2.89958 0
M  V30 1310 H 121.478 6.44485 -2.60122 0
M  V30 1311 H 124.669 4.44098 -1.47967 0
M  V30 1312 H 124.842 6.0632 -2.28648 0
M  V30 1313 N 118.248 0.346503 1.53744 0
M  V30 1314 C 119.659 -0.136779 1.86198 0
M  V30 1315 C 120.01 -1.49749 1.26766 0
M  V30 1316 O 119.135 -2.08417 0.582355 0
M  V30 1317 C 119.73 -0.254966 3.37839 0
M  V30 1318 C 118.289 -0.682482 3.70161 0
M  V30 1319 C 117.436 0.181981 2.76702 0
M  V30 1320 H 120.387 0.565994 1.48264 0
M  V30 1321 H 120.408 -1.08195 3.64793 0
M  V30 1322 H 119.92 0.735526 3.81066 0
M  V30 1323 H 118.021 -1.68189 3.3248 0
M  V30 1324 H 118.134 -0.470326 4.76786 0
M  V30 1325 H 116.498 -0.34615 2.52337 0
M  V30 1326 H 117.281 1.16966 3.2276 0
M  V30 1327 N 119.726 -1.57421 0.075193 0
M  V30 1328 C 120.689 -2.11791 -0.876203 0
M  V30 1329 C 121.689 -1.04268 -1.22412 0
M  V30 1330 O 122.879 -1.30242 -1.15684 0
M  V30 1331 C 120.011 -2.62207 -2.17854 0
M  V30 1332 H 121.204 -2.9716 -0.40444 0
M  V30 1333 H 118.757 -1.55333 -0.173557 0
M  V30 1334 H 119.492 -1.803 -2.6956 0
M  V30 1335 H 119.277 -3.40802 -1.93897 0
M  V30 1336 H 120.767 -3.04335 -2.85955 0
M  V30 1337 N 121.204 0.198386 -1.56346 0
M  V30 1338 C 122.154 1.2499 -1.90687 0
M  V30 1339 C 123.138 1.41158 -0.772217 0
M  V30 1340 O 124.33 1.43584 -1.03502 0
M  V30 1341 C 121.459 2.59542 -2.24706 0
M  V30 1342 C 120.545 2.47181 -3.44619 0
M  V30 1343 N 120.936 2.04495 -4.62618 0
M  V30 1344 C 119.234 2.78082 -3.48692 0
M  V30 1345 C 119.935 2.03945 -5.44776 0
M  V30 1346 N 118.911 2.45323 -4.85095 0
M  V30 1347 H 122.713 0.911149 -2.7942 0
M  V30 1348 H 120.227 0.40684 -1.57221 0
M  V30 1349 H 122.224 3.3549 -2.47491 0
M  V30 1350 H 120.884 2.94244 -1.37298 0
M  V30 1351 H 121.895 1.75256 -4.87345 0
M  V30 1352 H 118.572 3.17002 -2.71691 0
M  V30 1353 H 119.962 1.72872 -6.4928 0
M  V30 1354 N 122.682 1.50554 0.465978 0
M  V30 1355 C 123.928 1.62038 1.21949 0
M  V30 1356 C 124.261 0.322116 1.9151 0
M  V30 1357 O 123.536 -0.676723 1.82348 0
M  V30 1358 C 123.819 2.80421 2.25912 0
M  V30 1359 C 123.672 4.20144 1.60622 0
M  V30 1360 C 124.991 2.94354 3.27176 0
M  V30 1361 H 122.11 0.589752 0.441998 0
M  V30 1362 H 124.752 1.82956 0.51257 0
M  V30 1363 H 122.902 2.62717 2.86203 0
M  V30 1364 H 124.574 4.49449 1.03889 0
M  V30 1365 H 122.817 4.24165 0.909211 0
M  V30 1366 H 123.488 4.98914 2.36196 0
M  V30 1367 H 125.964 3.10578 2.76913 0
M  V30 1368 H 124.84 3.788 3.97242 0
M  V30 1369 H 125.101 2.05186 3.916 0
M  V30 1370 N 124.16 -0.719506 1.40217 0
M  V30 1371 C 125.571 -1.29848 1.34151 0
M  V30 1372 C 125.922 -1.96196 0.0131349 0
M  V30 1373 O 125.047 -1.973 -0.88892 0
M  V30 1374 C 125.642 -2.36118 2.42968 0
M  V30 1375 C 124.201 -2.8965 2.40374 0
M  V30 1376 C 123.348 -1.63393 2.24049 0
M  V30 1377 H 126.299 -0.51591 1.5008 0
M  V30 1378 H 126.32 -3.16871 2.10649 0
M  V30 1379 H 125.832 -1.878 3.39636 0
M  V30 1380 H 123.933 -3.42208 1.47392 0
M  V30 1381 H 124.046 -3.4171 3.35814 0
M  V30 1382 H 122.41 -1.88312 1.71495 0
M  V30 1383 H 123.193 -1.17104 3.2271 0
M  V30 1384 N 125.638 -1.25649 -0.95132 0
M  V30 1385 C 126.568 -1.08808 -2.06599 0
M  V30 1386 C 127.549 0.00382547 -1.701 0
M  V30 1387 O 128.734 -0.166325 -1.93486 0
M  V30 1388 C 125.864 -0.709542 -3.39975 0
M  V30 1389 C 124.818 -1.75206 -3.90496 0
M  V30 1390 C 124.144 -1.22811 -5.20405 0
M  V30 1391 C 125.444 -3.15153 -4.16504 0
M  V30 1392 H 127.138 -2.02048 -2.20946 0
M  V30 1393 H 124.684 -0.972835 -1.06169 0
M  V30 1394 H 126.637 -0.578649 -4.17408 0
M  V30 1395 H 125.361 0.258556 -3.25575 0
M  V30 1396 H 124.02 -1.87145 -3.15234 0
M  V30 1397 H 123.668 -0.250145 -5.02378 0
M  V30 1398 H 123.368 -1.92492 -5.55176 0
M  V30 1399 H 124.892 -1.10968 -6.00432 0
M  V30 1400 H 126.306 -3.06349 -4.84586 0
M  V30 1401 H 124.703 -3.82333 -4.62538 0
M  V30 1402 H 125.773 -3.61966 -3.22658 0
M  V30 1403 N 127.117 1.15442 -1.07289 0
M  V30 1404 C 128.394 1.82306 -0.708792 0
M  V30 1405 C 128.774 1.94991 0.808807 0
M  V30 1406 O 128.122 1.50085 1.72298 0
M  V30 1407 C 128.332 3.18695 -1.42247 0
M  V30 1408 C 129.68 3.94341 -1.57417 0
M  V30 1409 O 130.704 3.28247 -1.38319 0
M  V30 1410 O 129.563 5.12839 -1.88834 0
M  V30 1411 H 126.657 0.787628 -0.252132 0
M  V30 1412 H 129.203 1.22559 -1.17377 0
M  V30 1413 H 127.975 3.04557 -2.45684 0
M  V30 1414 H 127.598 3.86128 -0.948223 0
M  V30 1415 N 128.595 0.856903 1.32268 0
M  V30 1416 C 129.841 0.462069 1.97466 0
M  V30 1417 C 130.174 -0.980298 1.67642 0
M  V30 1418 O 129.449 -1.68824 0.965858 0
M  V30 1419 C 129.732 0.704336 3.53145 0
M  V30 1420 C 129.585 2.19529 3.9259 0
M  V30 1421 C 130.904 0.1622 4.39801 0
M  V30 1422 H 128.023 0.169357 0.717278 0
M  V30 1423 H 130.665 1.07574 1.56614 0
M  V30 1424 H 128.815 0.181999 3.88073 0
M  V30 1425 H 130.487 2.78387 3.67829 0
M  V30 1426 H 128.73 2.67292 3.41668 0
M  V30 1427 H 129.401 2.31549 5.01088 0
M  V30 1428 H 131.877 0.608905 4.11621 0
M  V30 1429 H 130.753 0.361265 5.4771 0
M  V30 1430 H 131.014 -0.935158 4.32096 0
M  V30 1431 N 130.073 -1.45103 0.615059 0
M  V30 1432 C 131.32 -2.02183 0.113179 0
M  V30 1433 C 131.648 -1.48249 -1.25906 0
M  V30 1434 O 130.903 -0.650265 -1.84581 0
M  V30 1435 C 131.202 -3.57386 0.0318797 0
M  V30 1436 C 130.868 -4.30505 1.34077 0
M  V30 1437 C 129.53 -4.50197 1.69929 0
M  V30 1438 C 131.882 -4.72238 2.20546 0
M  V30 1439 C 129.21 -5.08881 2.91988 0
M  V30 1440 C 131.562 -5.32272 3.41861 0
M  V30 1441 C 130.226 -5.50187 3.77956 0
M  V30 1442 H 129.496 -0.739842 0.0414151 0
M  V30 1443 H 132.143 -1.74073 0.798168 0
M  V30 1444 H 130.448 -3.84817 -0.736409 0
M  V30 1445 H 132.145 -3.99264 -0.372712 0
M  V30 1446 H 128.735 -4.15496 1.05173 0
M  V30 1447 H 132.919 -4.56751 1.94146 0
M  V30 1448 H 128.175 -5.20939 3.2005 0
M  V30 1449 H 132.349 -5.63563 4.09109 0
M  V30 1450 H 129.976 -5.95427 4.72622 0
M  V30 1451 N 131.551 -0.354651 -1.53558 0
M  V30 1452 C 132.481 0.489091 -2.2832 0
M  V30 1453 C 133.462 1.09324 -1.30316 0
M  V30 1454 O 134.647 1.11255 -1.59173 0
M  V30 1455 C 131.777 1.63456 -3.0643 0
M  V30 1456 C 130.731 1.1582 -4.12031 0
M  V30 1457 C 130.057 2.39305 -4.7816 0
M  V30 1458 C 131.357 0.250731 -5.21698 0
M  V30 1459 H 133.051 -0.134614 -2.99097 0
M  V30 1460 H 130.597 -0.0661826 -1.43848 0
M  V30 1461 H 132.55 2.23136 -3.57475 0
M  V30 1462 H 131.274 2.28533 -2.33325 0
M  V30 1463 H 129.933 0.584146 -3.61916 0
M  V30 1464 H 129.581 3.02814 -4.01637 0
M  V30 1465 H 129.281 2.08109 -5.49513 0
M  V30 1466 H 130.805 2.99691 -5.31994 0
M  V30 1467 H 132.219 0.754695 -5.68311 0
M  V30 1468 H 130.616 0.0301468 -6.00092 0
M  V30 1469 H 131.686 -0.710125 -4.79672 0
M  V30 1470 N 133.029 1.57378 -0.0835403 0
M  V30 1471 C 133.939 2.16897 0.894021 0
M  V30 1472 C 134.955 1.13528 1.31861 0
M  V30 1473 O 136.131 1.45848 1.3889 0
M  V30 1474 C 133.196 2.72831 2.13925 0
M  V30 1475 C 132.257 3.91115 1.76997 0
M  V30 1476 C 131.49 4.44371 2.95584 0
M  V30 1477 O 131.713 3.96596 4.09961 0
M  V30 1478 O 130.647 5.35549 2.74719 0
M  V30 1479 H 134.473 3.00814 0.417679 0
M  V30 1480 H 132.058 1.48741 0.140181 0
M  V30 1481 H 133.94 3.0863 2.86924 0
M  V30 1482 H 132.615 1.91967 2.60635 0
M  V30 1483 H 131.522 3.60148 1.01214 0
M  V30 1484 H 132.855 4.73307 1.3506 0
M  V30 1485 N 134.507 -0.190092 1.56449 0
M  V30 1486 C 135.417 -1.25591 1.98152 0
M  V30 1487 C 136.433 -1.49519 0.889944 0
M  V30 1488 O 137.609 -1.62036 1.19609 0
M  V30 1489 C 134.674 -2.57916 2.3169 0
M  V30 1490 C 133.735 -2.42015 3.5458 0
M  V30 1491 C 132.968 -3.6803 3.8651 0
M  V30 1492 O 133.191 -4.72413 3.1966 0
M  V30 1493 O 132.125 -3.6326 4.79923 0
M  V30 1494 H 135.951 -0.931988 2.89046 0
M  V30 1495 H 133.536 -0.395488 1.4407 0
M  V30 1496 H 135.418 -3.36008 2.54316 0
M  V30 1497 H 134.093 -2.89925 1.43963 0
M  V30 1498 H 133 -1.62017 3.37196 0
M  V30 1499 H 134.333 -2.14937 4.4279 0
M  V30 1500 N 135.985 -1.50799 -0.457987 0
M  V30 1501 C 137.231 -1.62683 -1.21088 0
M  V30 1502 C 137.564 -0.332268 -1.91336 0
M  V30 1503 O 136.839 0.667043 -1.82704 0
M  V30 1504 C 137.122 -2.81615 -2.24422 0
M  V30 1505 C 136.975 -4.20989 -1.58392 0
M  V30 1506 C 138.294 -2.96085 -3.2561 0
M  V30 1507 H 135.413 -0.592087 -0.438864 0
M  V30 1508 H 138.055 -1.83225 -0.50286 0
M  V30 1509 H 136.205 -2.64231 -2.84806 0
M  V30 1510 H 137.877 -4.49994 -1.01504 0
M  V30 1511 H 136.12 -4.24641 -0.886704 0
M  V30 1512 H 136.791 -5.0016 -2.33547 0
M  V30 1513 H 139.267 -3.12042 -2.75262 0
M  V30 1514 H 138.143 -3.80902 -3.95228 0
M  V30 1515 H 138.404 -2.0726 -3.90507 0
M  V30 1516 N 137.463 0.71206 -1.40597 0
M  V30 1517 C 138.426 1.80785 -1.40888 0
M  V30 1518 C 139.426 1.57937 -0.302103 0
M  V30 1519 O 140.616 1.64913 -0.561182 0
M  V30 1520 C 137.748 3.18927 -1.20409 0
M  V30 1521 H 138.941 1.81924 -2.38419 0
M  V30 1522 H 136.494 0.91805 -1.26497 0
M  V30 1523 H 137.229 3.23436 -0.236522 0
M  V30 1524 H 137.014 3.36911 -2.00582 0
M  V30 1525 H 138.504 3.98949 -1.23408 0
M  V30 1526 N 138.941 1.26152 0.944643 0
M  V30 1527 C 140.188 1.11492 1.69044 0
M  V30 1528 C 140.516 -0.342366 1.91463 0
M  V30 1529 O 139.771 -1.26812 1.49054 0
M  V30 1530 C 140.07 1.82541 3.07268 0
M  V30 1531 C 139.736 3.32445 3.04616 0
M  V30 1532 C 138.398 3.73337 3.036 0
M  V30 1533 C 140.75 4.28171 2.97185 0
M  V30 1534 C 138.078 5.08348 2.92915 0
M  V30 1535 C 140.43 5.63218 2.88041 0
M  V30 1536 C 139.094 6.03426 2.85366 0
M  V30 1537 H 138.364 0.407977 0.618576 0
M  V30 1538 H 141.011 1.56551 1.10291 0
M  V30 1539 H 139.316 1.29941 3.69625 0
M  V30 1540 H 141.013 1.68642 3.63815 0
M  V30 1541 H 137.603 2.99915 3.06185 0
M  V30 1542 H 141.787 3.97563 2.97081 0
M  V30 1543 H 137.043 5.38667 2.89219 0
M  V30 1544 H 141.217 6.37078 2.81254 0
M  V30 1545 H 138.844 7.07999 2.76842 0
M  V30 1546 N 140.419 -1.14872 1.07899 0
M  V30 1547 C 141.649 -1.89386 0.825631 0
M  V30 1548 C 142.057 -1.78565 -0.625406 0
M  V30 1549 O 141.4 -1.13918 -1.44113 0
M  V30 1550 C 141.462 -3.40206 1.16191 0
M  V30 1551 C 141.126 -3.74812 2.61467 0
M  V30 1552 C 142.123 -3.75367 3.59716 0
M  V30 1553 C 139.808 -4.0495 2.97189 0
M  V30 1554 C 141.802 -4.05574 4.9172 0
M  V30 1555 C 139.489 -4.34821 4.29388 0
M  V30 1556 C 140.487 -4.35116 5.26463 0
M  V30 1557 O 140.175 -4.64267 6.56286 0
M  V30 1558 H 139.907 -0.606894 0.297751 0
M  V30 1559 H 142.461 -1.46438 1.44031 0
M  V30 1560 H 140.691 -3.8358 0.490214 0
M  V30 1561 H 142.38 -3.96018 0.890193 0
M  V30 1562 H 143.146 -3.52176 3.33462 0
M  V30 1563 H 139.025 -4.03876 2.22273 0
M  V30 1564 H 142.569 -4.05719 5.67484 0
M  V30 1565 H 138.466 -4.5748 4.55392 0
M  V30 1566 H 139.234 -4.82007 6.61522 0
M  V30 1567 N 141.898 -0.863906 -1.31812 0
M  V30 1568 C 143.146 -0.470904 -1.96537 0
M  V30 1569 C 143.467 0.978771 -1.68657 0
M  V30 1570 O 142.737 1.6853 -0.998717 0
M  V30 1571 H 141.317 -0.171148 -0.72713 0
M  V30 1572 H 143.979 -1.10236 -1.60729 0
M  V30 1573 H 143.075 -0.623616 -3.05806 0
M  V30 1574 N 143.376 1.44774 -0.622745 0
M  V30 1575 C 144.306 2.33382 0.0741861 0
M  V30 1576 C 145.287 1.47719 0.843387 0
M  V30 1577 O 146.472 1.76458 0.810934 0
M  V30 1578 C 143.602 3.30663 1.06204 0
M  V30 1579 C 142.556 4.26079 0.405037 0
M  V30 1580 C 141.882 5.13165 1.5022 0
M  V30 1581 C 143.182 5.1781 -0.683414 0
M  V30 1582 H 144.876 2.91905 -0.665713 0
M  V30 1583 H 142.422 1.40363 -0.321587 0
M  V30 1584 H 144.375 3.9153 1.55827 0
M  V30 1585 H 143.099 2.70331 1.83272 0
M  V30 1586 H 141.758 3.66532 -0.0704683 0
M  V30 1587 H 141.406 4.49191 2.26355 0
M  V30 1588 H 141.106 5.77812 1.06803 0
M  V30 1589 H 142.63 5.76902 2.00041 0
M  V30 1590 H 144.044 5.72661 -0.270631 0
M  V30 1591 H 142.441 5.91015 -1.04023 0
M  V30 1592 H 143.511 4.59326 -1.55395 0
M  V30 1593 N 144.854 0.36279 1.53368 0
M  V30 1594 C 146.102 -0.227326 2.00817 0
M  V30 1595 C 146.423 -1.49511 1.25186 0
M  V30 1596 O 145.693 -1.92482 0.364348 0
M  V30 1597 H 144.273 -0.0869923 0.741917 0
M  V30 1598 H 146.935 0.488381 1.88682 0
M  V30 1599 H 146.031 -0.456273 3.08747 0
M  V30 1600 N 146.332 -1.57332 0.0918853 0
M  V30 1601 C 147.295 -2.12708 -0.85369 0
M  V30 1602 C 148.295 -1.05561 -1.213 0
M  V30 1603 O 149.485 -1.31461 -1.14296 0
M  V30 1604 C 146.617 -2.64503 -2.15061 0
M  V30 1605 H 147.81 -2.97573 -0.3729 0
M  V30 1606 H 145.363 -1.55509 -0.157072 0
M  V30 1607 H 146.098 -1.83149 -2.67632 0
M  V30 1608 H 145.883 -3.4284 -1.90272 0
M  V30 1609 H 147.373 -3.07351 -2.82711 0
M  V30 1610 N 147.81 0.181792 -1.56548 0
M  V30 1611 C 148.773 1.20894 -1.94724 0
M  V30 1612 C 149.773 1.37738 -0.829747 0
M  V30 1613 O 150.963 1.35323 -1.09697 0
M  V30 1614 C 148.095 2.57593 -2.23291 0
M  V30 1615 H 149.288 0.882275 -2.86629 0
M  V30 1616 H 146.841 0.423838 -1.50444 0
M  V30 1617 H 147.576 2.95291 -1.34067 0
M  V30 1618 H 147.361 2.46735 -3.04736 0
M  V30 1619 H 148.851 3.31637 -2.53785 0
M  V30 1620 N 149.288 1.51039 0.449983 0
M  V30 1621 C 150.251 1.70863 1.5277 0
M  V30 1622 C 151.251 0.578846 1.5002 0
M  V30 1623 O 152.441 0.846213 1.52266 0
M  V30 1624 C 149.573 1.75341 2.9235 0
M  V30 1625 H 150.766 2.67034 1.36502 0
M  V30 1626 H 148.319 1.40838 0.677812 0
M  V30 1627 H 149.054 0.809383 3.14037 0
M  V30 1628 H 148.839 2.57436 2.95752 0
M  V30 1629 H 150.329 1.92559 3.70555 0
M  V30 1630 N 150.766 -0.704594 1.40972 0
M  V30 1631 C 151.696 -1.83124 1.44872 0
M  V30 1632 C 152.677 -1.67281 0.30838 0
M  V30 1633 O 153.862 -1.87149 0.518556 0
M  V30 1634 C 150.992 -3.21181 1.32136 0
M  V30 1635 C 149.946 -3.51714 2.43888 0
M  V30 1636 C 149.272 -4.89032 2.16222 0
M  V30 1637 C 150.572 -3.516 3.86232 0
M  V30 1638 H 152.266 -1.80117 2.39161 0
M  V30 1639 H 149.812 -0.865145 1.15114 0
M  V30 1640 H 151.765 -3.99702 1.33479 0
M  V30 1641 H 150.489 -3.24791 0.343279 0
M  V30 1642 H 149.148 -2.75539 2.41813 0
M  V30 1643 H 148.796 -4.89256 1.16778 0
M  V30 1644 H 148.496 -5.10426 2.911 0
M  V30 1645 H 150.02 -5.69873 2.19265 0
M  V30 1646 H 151.434 -4.2014 3.9007 0
M  V30 1647 H 149.831 -3.84523 4.60719 0
M  V30 1648 H 150.901 -2.50757 4.15029 0
M  V30 1649 N 152.244 -1.26651 -0.937939 0
M  V30 1650 C 153.207 -1.08546 -2.01867 0
M  V30 1651 C 154.207 -0.0327327 -1.60767 0
M  V30 1652 O 155.397 -0.276427 -1.71993 0
M  V30 1653 C 152.529 -0.651711 -3.34613 0
M  V30 1654 H 153.722 -2.04502 -2.1936 0
M  V30 1655 H 151.275 -1.09294 -1.11734 0
M  V30 1656 H 152.01 0.309696 -3.22818 0
M  V30 1657 H 151.795 -1.41189 -3.65798 0
M  V30 1658 H 153.285 -0.546973 -4.14002 0
M  V30 1659 N 153.722 1.14298 -1.08507 0
M  V30 1660 C 155.138 1.37347 -0.812901 0
M  V30 1661 C 155.338 1.93052 0.577325 0
M  V30 1662 O 154.394 2.14389 1.33393 0
M  V30 1663 C 155.707 2.33359 -1.89642 0
M  V30 1664 C 157.255 2.46996 -1.92255 0
M  V30 1665 C 157.73 3.46309 -2.99724 0
M  V30 1666 N 159.221 3.53853 -2.98902 0
M  V30 1667 C 159.956 4.3055 -3.787 0
M  V30 1668 N 159.452 5.10482 -4.6838 0
M  V30 1669 N 161.245 4.25757 -3.66998 0
M  V30 1670 H 153.396 0.764867 -1.9815 0
M  V30 1671 H 155.659 0.398966 -0.859959 0
M  V30 1672 H 155.365 1.99565 -2.89597 0
M  V30 1673 H 155.239 3.33274 -1.76659 0
M  V30 1674 H 157.626 2.80081 -0.929445 0
M  V30 1675 H 157.707 1.47039 -2.09316 0
M  V30 1676 H 157.351 3.13957 -3.99241 0
M  V30 1677 H 157.281 4.46049 -2.79907 0
M  V30 1678 H 159.772 2.96812 -2.33904 0
M  V30 1679 H 160.085 5.66284 -5.25873 0
M  V30 1680 H 158.43 5.09747 -4.72422 0
M  V30 1681 H 161.621 3.62383 -2.96304 0
M  V30 1682 H 161.794 4.85279 -4.29427 0
M  V30 1683 N 155.201 0.870884 1.31352 0
M  V30 1684 C 156.131 0.343096 2.30966 0
M  V30 1685 C 157.112 -0.566507 1.60389 0
M  V30 1686 O 158.297 -0.483336 1.88089 0
M  V30 1687 C 155.427 -0.455487 3.443 0
M  V30 1688 C 154.381 0.361103 4.26474 0
M  V30 1689 C 153.707 -0.563221 5.31725 0
M  V30 1690 C 155.007 1.59566 4.97329 0
M  V30 1691 H 156.701 1.17548 2.75359 0
M  V30 1692 H 154.247 0.566686 1.32381 0
M  V30 1693 H 156.2 -0.83525 4.13039 0
M  V30 1694 H 154.924 -1.32139 2.98675 0
M  V30 1695 H 153.583 0.722825 3.59403 0
M  V30 1696 H 153.231 -1.42643 4.82351 0
M  V30 1697 H 152.931 -0.0207409 5.87596 0
M  V30 1698 H 154.455 -0.939808 6.03324 0
M  V30 1699 H 155.869 1.28728 5.58661 0
M  V30 1700 H 154.266 2.07728 5.63 0
M  V30 1701 H 155.336 2.34798 4.24262 0
M  V30 1702 N 156.679 -1.44442 0.630414 0
M  V30 1703 C 158.095 -1.56832 0.295973 0
M  V30 1704 C 158.295 -1.61806 -1.20088 0
M  V30 1705 O 157.351 -1.5607 -1.9849 0
M  V30 1706 C 158.664 -2.84031 0.987264 0
M  V30 1707 C 160.212 -2.97742 0.96534 0
M  V30 1708 C 160.687 -4.27743 1.63708 0
M  V30 1709 N 162.178 -4.34555 1.60364 0
M  V30 1710 C 162.913 -5.33862 2.09234 0
M  V30 1711 N 162.409 -6.39578 2.66292 0
M  V30 1712 N 164.202 -5.25366 1.99867 0
M  V30 1713 H 156.353 -1.39457 1.60205 0
M  V30 1714 H 158.616 -0.668237 0.672431 0
M  V30 1715 H 158.322 -2.86338 2.04215 0
M  V30 1716 H 158.196 -3.73534 0.524588 0
M  V30 1717 H 160.583 -2.94989 -0.0810639 0
M  V30 1718 H 160.664 -2.09589 1.4665 0
M  V30 1719 H 160.308 -4.31255 2.68293 0
M  V30 1720 H 160.238 -5.14752 1.11076 0
M  V30 1721 H 162.729 -3.58772 1.18705 0
M  V30 1722 H 163.042 -7.11637 3.01317 0
M  V30 1723 H 161.387 -6.40265 2.70343 0
M  V30 1724 H 164.578 -4.41688 1.55013 0
M  V30 1725 H 164.751 -6.02606 2.38265 0
M  V30 1726 N 158.157 -0.370918 -1.53173 0
M  V30 1727 C 159.067 0.480823 -2.2962 0
M  V30 1728 C 160.083 1.08789 -1.35798 0
M  V30 1729 O 161.259 1.09768 -1.68858 0
M  V30 1730 C 158.324 1.60227 -3.07454 0
M  V30 1731 C 157.385 1.0222 -4.16953 0
M  V30 1732 C 156.618 2.0902 -4.91066 0
M  V30 1733 O 156.841 3.30222 -4.65091 0
M  V30 1734 O 155.775 1.71778 -5.76867 0
M  V30 1735 H 159.601 -0.141421 -3.03371 0
M  V30 1736 H 157.186 -0.135146 -1.48787 0
M  V30 1737 H 159.068 2.25417 -3.56041 0
M  V30 1738 H 157.743 2.20982 -2.36535 0
M  V30 1739 H 156.65 0.334064 -3.72605 0
M  V30 1740 H 157.983 0.459131 -4.90054 0
M  V30 1741 N 159.635 1.57281 -0.100228 0
M  V30 1742 C 160.912 1.86014 0.604812 0
M  V30 1743 C 161.292 0.998025 1.86018 0
M  V30 1744 O 160.64 0.0718184 2.28387 0
M  V30 1745 C 160.85 3.36784 0.915278 0
M  V30 1746 C 162.198 4.04957 1.27651 0
M  V30 1747 O 163.222 3.41695 1.00613 0
M  V30 1748 O 162.081 5.16593 1.7831 0
M  V30 1749 H 159.175 0.76942 0.303185 0
M  V30 1750 H 161.721 1.69176 -0.133313 0
M  V30 1751 H 160.493 3.91292 0.0248896 0
M  V30 1752 H 160.116 3.58987 1.70921 0
M  V30 1753 N 161.113 -0.173488 1.56642 0
M  V30 1754 C 162.023 -1.23482 1.99473 0
M  V30 1755 C 163.039 -1.48567 0.905752 0
M  V30 1756 O 164.215 -1.60758 1.21321 0
M  V30 1757 C 161.28 -2.55444 2.34413 0
M  V30 1758 C 160.341 -2.38241 3.57127 0
M  V30 1759 C 159.574 -3.63909 3.90392 0
M  V30 1760 O 159.797 -4.68996 3.24653 0
M  V30 1761 O 158.731 -3.58149 4.83749 0
M  V30 1762 H 162.557 -0.901279 2.90018 0
M  V30 1763 H 160.142 -0.380185 1.44482 0
M  V30 1764 H 162.024 -3.33292 2.57865 0
M  V30 1765 H 160.699 -2.88382 1.4703 0
M  V30 1766 H 159.606 -1.58431 3.38896 0
M  V30 1767 H 160.939 -2.10228 4.45045 0
M  V30 1768 N 162.591 -1.51276 -0.441967 0
M  V30 1769 C 163.839 -1.63392 -1.18943 0
M  V30 1770 C 164.16 -0.350159 -1.9183 0
M  V30 1771 O 163.43 0.633784 -1.85364 0
M  V30 1772 H 162.01 -0.602164 -0.442049 0
M  V30 1773 H 164.672 -1.88186 -0.507165 0
M  V30 1774 H 163.768 -2.45934 -1.92154 0
M  V30 1775 N 164.069 0.697108 -1.41344 0
M  V30 1776 C 165.309 1.46939 -1.42085 0
M  V30 1777 C 165.673 1.9198 -0.0280397 0
M  V30 1778 O 166.874 2.6865 0.0897504 0
M  V30 1779 C 165.145 2.64985 -2.39828 0
M  V30 1780 S 166.704 3.54147 -2.59085 0
M  V30 1781 H 163.522 0.502146 -0.503359 0
M  V30 1782 H 166.124 0.813546 -1.77769 0
M  V30 1783 H 164.828 2.30098 -3.39828 0
M  V30 1784 H 164.359 3.35464 -2.05493 0
M  V30 1785 H 166.374 4.60137 -1.85711 0
M  V30 1786 N 165.547 1.27147 0.931209 0
M  V30 1787 C 166.958 1.12044 1.49342 0
M  V30 1788 C 167.309 -0.295795 1.93957 0
M  V30 1789 O 166.434 -1.18835 1.80852 0
M  V30 1790 C 167.029 2.02781 2.71414 0
M  V30 1791 C 165.588 1.91794 3.2387 0
M  V30 1792 C 164.735 1.95543 1.96617 0
M  V30 1793 H 167.686 1.40091 0.745672 0
M  V30 1794 H 167.707 1.58156 3.46074 0
M  V30 1795 H 167.219 3.05848 2.38911 0
M  V30 1796 H 165.32 0.916992 3.6114 0
M  V30 1797 H 165.433 2.77852 3.90302 0
M  V30 1798 H 163.797 1.39722 2.12955 0
M  V30 1799 H 164.58 3.00259 1.66432 0
M  V30 1800 N 167.025 -1.13721 1.09112 0
M  V30 1801 C 168.271 -1.85198 0.826414 0
M  V30 1802 C 168.604 -1.83129 -0.646319 0
M  V30 1803 O 167.879 -1.2671 -1.47563 0
M  V30 1804 C 168.162 -3.33507 1.35812 0
M  V30 1805 C 168.015 -3.44108 2.89672 0
M  V30 1806 C 169.334 -4.28838 0.989256 0
M  V30 1807 H 166.453 -0.67243 0.301675 0
M  V30 1808 H 169.095 -1.33499 1.35197 0
M  V30 1809 H 167.245 -3.77666 0.911082 0
M  V30 1810 H 168.917 -3.08684 3.428 0
M  V30 1811 H 167.16 -2.85087 3.26967 0
M  V30 1812 H 167.831 -4.48388 3.21951 0
M  V30 1813 H 170.307 -3.92734 1.37475 0
M  V30 1814 H 169.183 -5.31051 1.38838 0
M  V30 1815 H 169.444 -4.4198 -0.102924 0
M  V30 1816 N 168.503 -0.877838 -1.30888 0
M  V30 1817 C 169.914 -0.544193 -1.78593 0
M  V30 1818 C 170.265 0.939301 -1.72254 0
M  V30 1819 O 169.39 1.7337 -1.29505 0
M  V30 1820 C 169.985 -0.98105 -3.24285 0
M  V30 1821 C 168.544 -0.698935 -3.69854 0
M  V30 1822 C 167.691 -1.168 -2.51502 0
M  V30 1823 H 170.642 -1.06278 -1.17859 0
M  V30 1824 H 170.663 -0.307009 -3.79259 0
M  V30 1825 H 170.175 -2.06079 -3.28866 0
M  V30 1826 H 168.276 0.369112 -3.70767 0
M  V30 1827 H 168.389 -1.28148 -4.61644 0
M  V30 1828 H 166.753 -0.587535 -2.47831 0
M  V30 1829 H 167.536 -2.25533 -2.58824 0
M  V30 1830 N 169.982 1.44106 -0.638065 0
M  V30 1831 C 171.393 1.85316 -0.226894 0
M  V30 1832 C 171.744 1.53399 1.22324 0
M  V30 1833 O 170.869 0.975463 1.93167 0
M  V30 1834 C 171.464 3.3637 -0.405013 0
M  V30 1835 C 170.023 3.76369 -0.0482902 0
M  V30 1836 C 169.17 2.67921 -0.715108 0
M  V30 1837 H 172.121 1.34474 -0.842764 0
M  V30 1838 H 172.142 3.7885 0.354 0
M  V30 1839 H 171.654 3.59569 -1.46053 0
M  V30 1840 H 169.755 3.58784 1.00522 0
M  V30 1841 H 169.868 4.76856 -0.463187 0
M  V30 1842 H 168.232 2.54259 -0.149753 0
M  V30 1843 H 169.015 2.93951 -1.77335 0
M  V30 1844 N 171.46 0.379036 1.52974 0
M  V30 1845 C 172.37 -0.468639 2.29872 0
M  V30 1846 C 173.386 -1.08067 1.36373 0
M  V30 1847 O 174.562 -1.08871 1.69438 0
M  V30 1848 C 171.627 -1.58594 3.083 0
M  V30 1849 C 170.688 -1.00007 4.17489 0
M  V30 1850 C 169.921 -2.06413 4.92168 0
M  V30 1851 O 170.144 -3.27751 4.66835 0
M  V30 1852 O 169.078 -1.68717 5.7777 0
M  V30 1853 H 172.904 0.157508 3.03291 0
M  V30 1854 H 170.489 0.143035 1.48714 0
M  V30 1855 H 172.371 -2.23525 3.57232 0
M  V30 1856 H 171.046 -2.19724 2.37703 0
M  V30 1857 H 169.953 -0.314299 3.72777 0
M  V30 1858 H 171.286 -0.433135 4.90291 0
M  V30 1859 N 172.938 -1.57226 0.108567 0
M  V30 1860 C 174.354 -1.5766 -0.248058 0
M  V30 1861 C 174.554 -1.12063 -1.67464 0
M  V30 1862 O 173.61 -0.803236 -2.39383 0
M  V30 1863 C 174.923 -3.0069 -0.0242287 0
M  V30 1864 C 176.471 -3.12868 -0.0909372 0
M  V30 1865 C 176.946 -4.57879 0.105067 0
M  V30 1866 N 178.437 -4.63172 0.0506846 0
M  V30 1867 C 179.172 -5.73126 0.177396 0
M  V30 1868 N 178.668 -6.91866 0.359696 0
M  V30 1869 N 180.461 -5.61977 0.117709 0
M  V30 1870 H 172.612 -1.85169 1.04049 0
M  V30 1871 H 174.875 -0.85529 0.40888 0
M  V30 1872 H 174.581 -3.38299 0.961604 0
M  V30 1873 H 174.455 -3.6945 -0.76068 0
M  V30 1874 H 176.842 -2.75124 -1.06729 0
M  V30 1875 H 176.923 -2.46672 0.677225 0
M  V30 1876 H 176.567 -4.96321 1.07834 0
M  V30 1877 H 176.497 -5.22153 -0.682954 0
M  V30 1878 H 178.988 -3.778 -0.0871266 0
M  V30 1879 H 179.301 -7.71503 0.447529 0
M  V30 1880 H 177.646 -6.93874 0.395536 0
M  V30 1881 H 180.837 -4.68094 -0.0236741 0
M  V30 1882 H 181.01 -6.47627 0.219905 0
M  V30 1883 N 174.416 0.165178 -1.56732 0
M  V30 1884 C 175.827 0.727046 -1.71962 0
M  V30 1885 C 176.178 1.82508 -0.720078 0
M  V30 1886 O 175.303 2.16082 0.117242 0
M  V30 1887 C 175.898 1.32559 -3.11791 0
M  V30 1888 C 174.457 1.83422 -3.28684 0
M  V30 1889 C 173.604 0.715567 -2.67908 0
M  V30 1890 H 176.555 -0.0602896 -1.58585 0
M  V30 1891 H 176.576 2.19533 -3.10782 0
M  V30 1892 H 176.088 0.526195 -3.84516 0
M  V30 1893 H 174.189 2.65986 -2.60926 0
M  V30 1894 H 174.302 1.97543 -4.36478 0
M  V30 1895 H 172.666 1.13758 -2.27884 0
M  V30 1896 H 173.449 -0.0720836 -3.43224 0
M  V30 1897 N 175.894 1.51508 0.433938 0
M  V30 1898 C 176.824 1.76016 1.53429 0
M  V30 1899 C 177.805 0.610112 1.58782 0
M  V30 1900 O 178.99 0.853177 1.74455 0
M  V30 1901 C 176.12 1.88831 2.9148 0
M  V30 1902 C 175.074 3.04288 3.00987 0
M  V30 1903 C 174.4 3.0229 4.4105 0
M  V30 1904 C 175.7 4.44193 2.74754 0
M  V30 1905 H 177.394 2.68152 1.33171 0
M  V30 1906 H 174.94 1.29035 0.639214 0
M  V30 1907 H 176.893 2.04559 3.6842 0
M  V30 1908 H 175.617 0.933455 3.12976 0
M  V30 1909 H 174.276 2.8827 2.26486 0
M  V30 1910 H 173.924 2.04576 4.59519 0
M  V30 1911 H 173.624 3.79822 4.4834 0
M  V30 1912 H 175.148 3.20116 5.1996 0
M  V30 1913 H 176.562 4.60544 3.41426 0
M  V30 1914 H 174.959 5.23457 2.9345 0
M  V30 1915 H 176.029 4.53996 1.70339 0
M  V30 1916 N 177.372 -0.689602 1.41712 0
M  V30 1917 C 178.783 -1.26973 1.36875 0
M  V30 1918 C 179.134 -1.96124 0.054748 0
M  V30 1919 O 178.259 -1.99141 -0.84687 0
M  V30 1920 C 178.854 -2.30912 2.47922 0
M  V30 1921 C 177.413 -2.84486 2.46464 0
M  V30 1922 C 176.56 -1.58603 2.27465 0
M  V30 1923 H 179.511 -0.48396 1.51141 0
M  V30 1924 H 179.532 -3.12331 2.17323 0
M  V30 1925 H 179.044 -1.80554 3.43543 0
M  V30 1926 H 177.145 -3.39005 1.54617 0
M  V30 1927 H 177.258 -3.34511 3.42986 0
M  V30 1928 H 175.622 -1.84632 1.75451 0
M  V30 1929 H 176.405 -1.10233 3.25121 0
M  V30 1930 N 178.85 -1.27639 -0.924453 0
M  V30 1931 C 180.266 -1.05113 -1.20097 0
M  V30 1932 C 180.466 0.213262 -2.00368 0
M  V30 1933 O 179.522 0.91787 -2.35226 0
M  V30 1934 C 180.835 -2.29244 -1.94596 0
M  V30 1935 C 182.383 -2.34315 -2.07522 0
M  V30 1936 C 182.858 -3.58183 -2.85427 0
M  V30 1937 N 184.349 -3.5876 -2.92994 0
M  V30 1938 C 185.084 -4.51277 -3.53746 0
M  V30 1939 N 184.58 -5.54102 -4.15863 0
M  V30 1940 N 186.373 -4.38894 -3.51181 0
M  V30 1941 H 178.524 -2.08821 -0.388264 0
M  V30 1942 H 180.787 -0.918568 -0.234385 0
M  V30 1943 H 180.493 -3.21301 -1.43034 0
M  V30 1944 H 180.367 -2.34816 -2.95197 0
M  V30 1945 H 182.754 -1.42762 -2.58269 0
M  V30 1946 H 182.835 -2.32744 -1.06131 0
M  V30 1947 H 182.479 -4.50074 -2.35363 0
M  V30 1948 H 182.409 -3.57006 -3.8711 0
M  V30 1949 H 184.9 -2.84398 -2.4885 0
M  V30 1950 H 185.213 -6.20859 -4.60168 0
M  V30 1951 H 183.558 -5.57941 -4.144 0
M  V30 1952 H 186.749 -3.57772 -3.01856 0
M  V30 1953 H 186.922 -5.11186 -3.98237 0
M  V30 1954 N 180.328 1.1314 -1.09713 0
M  V30 1955 C 181.744 1.36477 -0.827423 0
M  V30 1956 C 181.944 1.93654 0.556817 0
M  V30 1957 O 181 2.15791 1.31112 0
M  V30 1958 C 182.313 2.31334 -1.92106 0
M  V30 1959 C 183.861 2.44943 -1.94864 0
M  V30 1960 C 184.336 3.4311 -3.0338 0
M  V30 1961 N 185.827 3.50662 -3.02639 0
M  V30 1962 C 186.562 4.2651 -3.83246 0
M  V30 1963 N 186.058 5.05485 -4.73768 0
M  V30 1964 N 187.851 4.2184 -3.71493 0
M  V30 1965 H 180.002 0.743807 -1.9895 0
M  V30 1966 H 182.265 0.389823 -0.864143 0
M  V30 1967 H 181.971 1.96483 -2.91698 0
M  V30 1968 H 181.845 3.31381 -1.80184 0
M  V30 1969 H 184.232 2.79079 -0.959099 0
M  V30 1970 H 184.313 1.4481 -2.10864 0
M  V30 1971 H 183.957 3.09704 -4.02549 0
M  V30 1972 H 183.887 4.43055 -2.84622 0
M  V30 1973 H 186.378 2.94315 -2.37039 0
M  V30 1974 H 186.691 5.60675 -5.3185 0
M  V30 1975 H 185.036 5.04708 -4.77802 0
M  V30 1976 H 188.227 3.5922 -3.00131 0
M  V30 1977 H 188.4 4.80697 -4.3455 0
M  V30 1978 N 181.806 0.884767 1.30421 0
M  V30 1979 C 182.769 0.356277 2.26414 0
M  V30 1980 C 183.769 -0.501124 1.52792 0
M  V30 1981 O 184.959 -0.30831 1.7145 0
M  V30 1982 C 182.091 -0.492316 3.37326 0
M  V30 1983 H 183.284 1.20389 2.74675 0
M  V30 1984 H 180.837 0.661607 1.41607 0
M  V30 1985 H 181.572 -1.36052 2.94381 0
M  V30 1986 H 181.357 0.121832 3.91911 0
M  V30 1987 H 182.847 -0.853871 4.08777 0
M  V30 1988 N 183.284 -1.43765 0.645699 0
M  V30 1989 C 184.531 -2.01898 0.15604 0
M  V30 1990 C 184.859 -1.50887 -1.22733 0
M  V30 1991 O 184.114 -0.689271 -1.8316 0
M  V30 1992 C 184.413 -3.57238 0.107679 0
M  V30 1993 C 184.079 -4.27564 1.43178 0
M  V30 1994 C 182.741 -4.46492 1.7944 0
M  V30 1995 C 185.093 -4.67454 2.30513 0
M  V30 1996 C 182.421 -5.02573 3.02716 0
M  V30 1997 C 184.773 -5.24901 3.53074 0
M  V30 1998 C 183.437 -5.42046 3.89541 0
M  V30 1999 H 182.707 -0.738797 0.057099 0
M  V30 2000 H 185.354 -1.72341 0.834912 0
M  V30 2001 H 183.659 -3.86293 -0.654618 0
M  V30 2002 H 185.356 -3.99965 -0.287938 0
M  V30 2003 H 181.946 -4.13171 1.13963 0
M  V30 2004 H 186.13 -4.5253 2.0379 0
M  V30 2005 H 181.386 -5.14033 3.31028 0
M  V30 2006 H 185.56 -5.54758 4.20971 0
M  V30 2007 H 183.187 -5.85268 4.85145 0
M  V30 2008 N 184.763 -0.387143 -1.52771 0
M  V30 2009 C 185.726 0.436939 -2.24997 0
M  V30 2010 C 186.726 0.991991 -1.26555 0
M  V30 2011 O 187.916 0.874335 -1.50669 0
M  V30 2012 C 185.048 1.61281 -3.00335 0
M  V30 2013 H 186.241 -0.195365 -2.99263 0
M  V30 2014 H 183.794 -0.139218 -1.55679 0
M  V30 2015 H 184.529 2.2826 -2.30364 0
M  V30 2016 H 184.314 1.22154 -3.72587 0
M  V30 2017 H 185.804 2.19629 -3.5518 0
M  V30 2018 N 186.241 1.57166 -0.116904 0
M  V30 2019 C 187.657 1.5779 0.239693 0
M  V30 2020 C 187.857 1.1295 1.66867 0
M  V30 2021 O 186.913 0.81592 2.38954 0
M  V30 2022 C 188.226 3.00699 0.00828202 0
M  V30 2023 C 189.774 3.12912 0.0743438 0
M  V30 2024 C 190.249 4.57817 -0.129348 0
M  V30 2025 N 191.74 4.63139 -0.075247 0
M  V30 2026 C 192.475 5.73023 -0.207788 0
M  V30 2027 N 191.971 6.91665 -0.396382 0
M  V30 2028 N 193.764 5.61906 -0.14751 0
M  V30 2029 H 185.915 1.84615 -1.05029 0
M  V30 2030 H 188.178 0.85311 -0.41341 0
M  V30 2031 H 187.884 3.37784 -0.979531 0
M  V30 2032 H 187.758 3.69848 0.741077 0
M  V30 2033 H 190.145 2.75686 1.05268 0
M  V30 2034 H 190.226 2.4631 -0.690297 0
M  V30 2035 H 189.87 4.95742 -1.10465 0
M  V30 2036 H 189.8 5.22507 0.655253 0
M  V30 2037 H 192.291 3.7784 0.0670898 0
M  V30 2038 H 192.604 7.71255 -0.488437 0
M  V30 2039 H 190.949 6.93654 -0.432329 0
M  V30 2040 H 194.14 4.681 -0.00115036 0
M  V30 2041 H 194.313 6.47501 -0.254247 0
M  V30 2042 N 187.719 -0.156864 1.56817 0
M  V30 2043 C 188.651 -1.21883 1.94106 0
M  V30 2044 C 189.664 -1.3971 0.835754 0
M  V30 2045 O 190.853 -1.39457 1.11418 0
M  V30 2046 C 187.953 -2.58527 2.19127 0
M  V30 2047 C 187.126 -2.61809 3.50393 0
M  V30 2048 C 186.185 -3.7992 3.64071 0
M  V30 2049 O 185.211 -3.65249 4.36557 0
M  V30 2050 N 186.413 -4.96973 2.99997 0
M  V30 2051 H 189.178 -0.901974 2.85805 0
M  V30 2052 H 186.739 -0.346513 1.58148 0
M  V30 2053 H 188.731 -3.36034 2.25529 0
M  V30 2054 H 187.301 -2.82545 1.33742 0
M  V30 2055 H 186.521 -1.7029 3.5552 0
M  V30 2056 H 187.809 -2.61024 4.36742 0
M  V30 2057 H 187.207 -5.11794 2.41004 0
M  V30 2058 H 185.764 -5.7229 3.11974 0
M  V30 2059 N 189.197 -1.51736 -0.425897 0
M  V30 2060 C 190.127 -1.76827 -1.52494 0
M  V30 2061 C 191.108 -0.618524 -1.58456 0
M  V30 2062 O 192.293 -0.862416 -1.74 0
M  V30 2063 C 189.423 -1.90374 -2.90474 0
M  V30 2064 C 188.377 -3.0588 -2.99369 0
M  V30 2065 C 187.703 -3.04625 -4.3944 0
M  V30 2066 C 189.003 -4.45644 -2.72394 0
M  V30 2067 H 190.697 -2.68855 -1.31748 0
M  V30 2068 H 188.243 -1.29372 -0.632362 0
M  V30 2069 H 190.196 -2.0651 -3.6733 0
M  V30 2070 H 188.92 -0.95004 -3.12477 0
M  V30 2071 H 187.579 -2.89467 -2.24954 0
M  V30 2072 H 187.227 -2.0701 -4.58428 0
M  V30 2073 H 186.927 -3.82195 -4.46319 0
M  V30 2074 H 188.451 -3.22869 -5.18255 0
M  V30 2075 H 189.865 -4.62348 -3.38979 0
M  V30 2076 H 188.262 -5.25006 -2.9067 0
M  V30 2077 H 189.332 -4.54893 -1.67929 0
M  V30 2078 N 190.675 0.682077 -1.42076 0
M  V30 2079 C 191.921 1.44283 -1.43366 0
M  V30 2080 C 192.276 1.92344 -0.0465775 0
M  V30 2081 O 191.569 1.67517 0.929973 0
M  V30 2082 C 191.763 2.66036 -2.38662 0
M  V30 2083 C 191.592 2.29889 -3.86499 0
M  V30 2084 C 190.362 2.19599 -4.55087 0
M  V30 2085 C 192.56 1.91999 -4.77117 0
M  V30 2086 N 190.542 1.76478 -5.87987 0
M  V30 2087 C 191.913 1.59741 -5.99068 0
M  V30 2088 C 193.968 1.78927 -4.64639 0
M  V30 2089 C 192.671 1.15723 -7.0993 0
M  V30 2090 C 194.697 1.36314 -5.75476 0
M  V30 2091 C 194.059 1.04975 -6.96534 0
M  V30 2092 H 190.158 0.524739 -0.579805 0
M  V30 2093 H 192.742 0.787834 -1.78048 0
M  V30 2094 H 190.913 3.29237 -2.06053 0
M  V30 2095 H 192.645 3.32588 -2.30581 0
M  V30 2096 H 189.4 2.38433 -4.09202 0
M  V30 2097 H 189.824 1.57362 -6.58458 0
M  V30 2098 H 194.466 2.01805 -3.7153 0
M  V30 2099 H 192.184 0.91591 -8.02893 0
M  V30 2100 H 195.77 1.26731 -5.6783 0
M  V30 2101 H 194.65 0.725017 -7.80841 0
M  V30 2102 N 192.153 1.28127 0.917671 0
M  V30 2103 C 193.083 1.14248 2.03641 0
M  V30 2104 C 194.064 0.0412748 1.7005 0
M  V30 2105 O 195.249 0.217566 1.92977 0
M  V30 2106 C 192.379 0.799431 3.37974 0
M  V30 2107 C 191.333 1.85497 3.85713 0
M  V30 2108 C 190.659 1.36565 5.16966 0
M  V30 2109 C 191.959 3.26085 4.08002 0
M  V30 2110 H 193.653 2.07835 2.15511 0
M  V30 2111 H 191.199 1.00064 1.03553 0
M  V30 2112 H 193.152 0.689114 4.15727 0
M  V30 2113 H 191.876 -0.172145 3.26146 0
M  V30 2114 H 190.535 1.95437 3.10161 0
M  V30 2115 H 190.183 0.383253 5.01538 0
M  V30 2116 H 189.883 2.07143 5.49878 0
M  V30 2117 H 191.407 1.26848 5.97279 0
M  V30 2118 H 192.821 3.19089 4.76293 0
M  V30 2119 H 191.218 3.94462 4.52238 0
M  V30 2120 H 192.288 3.70394 3.12948 0
M  V30 2121 N 193.631 -1.12557 1.10312 0
M  V30 2122 C 194.561 -2.20341 0.772798 0
M  V30 2123 C 195.542 -1.68198 -0.25365 0
M  V30 2124 O 196.727 -1.93831 -0.119699 0
M  V30 2125 C 193.857 -3.46709 0.202443 0
M  V30 2126 C 192.811 -4.11996 1.15943 0
M  V30 2127 C 192.137 -5.328 0.450345 0
M  V30 2128 C 193.437 -4.5828 2.50552 0
M  V30 2129 H 195.131 -2.48229 1.674 0
M  V30 2130 H 192.677 -1.19308 0.806326 0
M  V30 2131 H 194.63 -4.2138 -0.0407752 0
M  V30 2132 H 193.354 -3.18245 -0.734001 0
M  V30 2133 H 192.013 -3.39305 1.38808 0
M  V30 2134 H 191.661 -5.00602 -0.490531 0
M  V30 2135 H 191.361 -5.7743 1.08851 0
M  V30 2136 H 192.885 -6.10219 0.215642 0
M  V30 2137 H 194.299 -5.2433 2.31843 0
M  V30 2138 H 192.696 -5.13683 3.10242 0
M  V30 2139 H 193.766 -3.72329 3.10643 0
M  V30 2140 N 195.109 -0.891671 -1.2995 0
M  V30 2141 C 196.356 -0.513501 -1.95881 0
M  V30 2142 C 196.684 0.938655 -1.70351 0
M  V30 2143 O 195.939 1.67936 -1.00478 0
M  V30 2144 C 196.238 -0.742868 -3.49594 0
M  V30 2145 C 195.904 -2.17114 -3.95186 0
M  V30 2146 C 194.566 -2.56169 -4.07346 0
M  V30 2147 C 196.918 -3.10162 -4.18866 0
M  V30 2148 C 194.246 -3.87469 -4.4055 0
M  V30 2149 C 196.598 -4.41001 -4.53542 0
M  V30 2150 C 195.262 -4.79941 -4.63911 0
M  V30 2151 H 194.532 -0.187903 -0.71678 0
M  V30 2152 H 197.179 -1.1288 -1.54694 0
M  V30 2153 H 195.484 -0.044586 -3.91775 0
M  V30 2154 H 197.181 -0.429767 -3.9869 0
M  V30 2155 H 193.771 -1.85801 -3.86233 0
M  V30 2156 H 197.955 -2.81206 -4.08946 0
M  V30 2157 H 193.211 -4.17371 -4.46779 0
M  V30 2158 H 197.385 -5.13133 -4.70815 0
M  V30 2159 H 195.012 -5.81719 -4.89395 0
M  V30 2160 N 196.587 1.43421 -0.653314 0
M  V30 2161 C 197.497 2.34568 0.0388565 0
M  V30 2162 C 198.513 1.53888 0.81207 0
M  V30 2163 O 199.689 1.86539 0.759294 0
M  V30 2164 C 196.754 3.32167 0.993269 0
M  V30 2165 C 195.815 4.28751 0.216977 0
M  V30 2166 C 195.048 5.21688 1.12593 0
M  V30 2167 O 195.271 5.19052 2.36519 0
M  V30 2168 O 194.205 5.98919 0.598284 0
M  V30 2169 H 198.031 2.95251 -0.711386 0
M  V30 2170 H 195.616 1.43564 -0.413502 0
M  V30 2171 H 197.498 3.92183 1.54176 0
M  V30 2172 H 196.173 2.73987 1.72374 0
M  V30 2173 H 195.08 3.72215 -0.375101 0
M  V30 2174 H 196.413 4.89913 -0.473924 0
M  V30 2175 N 198.065 0.39524 1.52563 0
M  V30 2176 C 199.312 -0.185044 2.01653 0
M  V30 2177 C 199.64 -1.46317 1.28146 0
M  V30 2178 O 198.895 -1.9213 0.372074 0
M  V30 2179 C 199.194 -0.493444 3.53977 0
M  V30 2180 C 198.86 0.69384 4.4553 0
M  V30 2181 C 197.522 1.01954 4.70275 0
M  V30 2182 C 199.874 1.48785 4.99512 0
M  V30 2183 C 197.202 2.14069 5.46252 0
M  V30 2184 C 199.554 2.59965 5.76716 0
M  V30 2185 C 198.218 2.93037 5.99738 0
M  V30 2186 H 197.488 -0.0677123 0.7379 0
M  V30 2187 H 200.135 0.533807 1.8391 0
M  V30 2188 H 198.44 -1.29369 3.69825 0
M  V30 2189 H 200.137 -0.955163 3.89458 0
M  V30 2190 H 196.727 0.429987 4.26438 0
M  V30 2191 H 200.911 1.24946 4.80315 0
M  V30 2192 H 196.167 2.40056 5.62302 0
M  V30 2193 H 200.341 3.21887 6.17545 0
M  V30 2194 H 197.968 3.8003 6.58393 0
M  V30 2195 N 199.544 -1.57102 0.125237 0
M  V30 2196 C 200.955 -1.82384 -0.399142 0
M  V30 2197 C 201.306 -1.04276 -1.66195 0
M  V30 2198 O 200.431 -0.281269 -2.14564 0
M  V30 2199 C 201.026 -3.30821 -0.730932 0
M  V30 2200 C 199.585 -3.56762 -1.19992 0
M  V30 2201 C 198.732 -2.7649 -0.211792 0
M  V30 2202 H 201.683 -1.54786 0.350277 0
M  V30 2203 H 201.704 -3.4579 -1.58775 0
M  V30 2204 H 201.216 -3.87643 0.188345 0
M  V30 2205 H 199.317 -3.05305 -2.13588 0
M  V30 2206 H 199.43 -4.65317 -1.14093 0
M  V30 2207 H 197.794 -2.4489 -0.700085 0
M  V30 2208 H 198.577 -3.36073 0.700691 0
M  V30 2209 N 201.022 0.148545 -1.56898 0
M  V30 2210 C 201.932 1.20293 -2.01412 0
M  V30 2211 C 202.948 1.47107 -0.929273 0
M  V30 2212 O 204.124 1.58807 -1.23863 0
M  V30 2213 C 201.189 2.51682 -2.38447 0
M  V30 2214 C 200.25 2.32529 -3.60872 0
M  V30 2215 C 199.483 3.57653 -3.96132 0
M  V30 2216 O 199.706 4.63771 -3.32073 0
M  V30 2217 O 198.64 3.50408 -4.89385 0
M  V30 2218 H 202.466 0.855025 -2.91416 0
M  V30 2219 H 200.051 0.357151 -1.45068 0
M  V30 2220 H 201.933 3.29147 -2.63135 0
M  V30 2221 H 200.608 2.86006 -1.51599 0
M  V30 2222 H 199.515 1.53019 -3.41373 0
M  V30 2223 H 200.848 2.03121 -4.48333 0
M  V30 2224 N 202.5 1.5196 0.417844 0
M  V30 2225 C 203.725 1.69717 1.1921 0
M  V30 2226 C 204.15 0.402148 1.83751 0
M  V30 2227 O 203.508 -0.639593 1.69643 0
M  V30 2228 C 203.556 2.82794 2.2374 0
M  V30 2229 O 202.66 2.47756 3.29683 0
M  V30 2230 H 202.001 0.565263 0.348387 0
M  V30 2231 H 204.531 1.98621 0.490985 0
M  V30 2232 H 204.541 3.07452 2.68212 0
M  V30 2233 H 203.216 3.76756 1.76146 0
M  V30 2234 H 201.793 2.33739 2.90552 0
M  V30 2235 N 203.978 -0.674533 1.42435 0
M  V30 2236 C 205.203 -1.46784 1.46524 0
M  V30 2237 C 205.628 -1.87938 0.078066 0
M  V30 2238 O 204.986 -1.56014 -0.92354 0
M  V30 2239 C 205.034 -2.69307 2.39805 0
M  V30 2240 O 204.138 -3.67587 1.86959 0
M  V30 2241 H 203.479 -0.440959 0.496439 0
M  V30 2242 H 206.009 -0.827326 1.87127 0
M  V30 2243 H 206.019 -3.17374 2.56393 0
M  V30 2244 H 204.694 -2.38692 3.40586 0
M  V30 2245 H 203.271 -3.2662 1.79927 0
M  V30 2246 N 205.456 -1.28612 -0.910864 0
M  V30 2247 C 206.388 -1.08589 -2.01844 0
M  V30 2248 C 207.401 -0.0367419 -1.62759 0
M  V30 2249 O 208.59 -0.280101 -1.76289 0
M  V30 2250 C 205.69 -0.628626 -3.33019 0
M  V30 2251 C 204.863 -1.75382 -4.00699 0
M  V30 2252 C 203.922 -1.28945 -5.10156 0
M  V30 2253 O 202.948 -1.9922 -5.33198 0
M  V30 2254 N 204.15 -0.154224 -5.80295 0
M  V30 2255 H 206.915 -2.03973 -2.19579 0
M  V30 2256 H 204.476 -1.20403 -1.08234 0
M  V30 2257 H 206.468 -0.301508 -4.03575 0
M  V30 2258 H 205.038 0.232451 -3.11735 0
M  V30 2259 H 204.258 -2.25039 -3.23653 0
M  V30 2260 H 205.546 -2.50854 -4.42662 0
M  V30 2261 H 204.944 0.43194 -5.64049 0
M  V30 2262 H 203.501 0.113599 -6.51701 0
M  V30 2263 N 206.934 1.1197 -1.10907 0
M  V30 2264 C 207.897 2.16031 -0.765707 0
M  V30 2265 C 208.897 1.59393 0.212235 0
M  V30 2266 O 210.087 1.74196 -0.0115441 0
M  V30 2267 C 207.219 3.40632 -0.135053 0
M  V30 2268 H 208.412 2.47919 -1.68748 0
M  V30 2269 H 205.965 1.27061 -0.910226 0
M  V30 2270 H 206.7 3.14348 0.797218 0
M  V30 2271 H 206.485 3.8302 -0.838937 0
M  V30 2272 H 207.975 4.17505 0.0892469 0
M  V30 2273 N 208.412 0.89855 1.29475 0
M  V30 2274 C 209.375 0.380272 2.26023 0
M  V30 2275 C 210.375 -0.484891 1.53315 0
M  V30 2276 O 211.565 -0.290108 1.71767 0
M  V30 2277 C 208.697 -0.45651 3.3783 0
M  V30 2278 H 209.89 1.23295 2.73383 0
M  V30 2279 H 207.443 0.676589 1.40897 0
M  V30 2280 H 208.178 -1.32922 2.95808 0
M  V30 2281 H 207.963 0.163393 3.91759 0
M  V30 2282 H 209.453 -0.810466 4.0966 0
M  V30 2283 N 209.89 -1.43072 0.660911 0
M  V30 2284 C 211.306 -1.56169 0.329173 0
M  V30 2285 C 211.506 -1.64317 -1.16629 0
M  V30 2286 O 210.562 -1.60245 -1.95135 0
M  V30 2287 C 211.875 -2.81873 1.04729 0
M  V30 2288 C 213.423 -2.95627 1.02828 0
M  V30 2289 C 213.898 -4.24174 1.72744 0
M  V30 2290 N 215.389 -4.31055 1.69545 0
M  V30 2291 C 216.124 -5.29304 2.20511 0
M  V30 2292 N 215.62 -6.33786 2.79799 0
M  V30 2293 N 217.413 -5.21008 2.10966 0
M  V30 2294 H 209.564 -1.36027 1.63127 0
M  V30 2295 H 211.827 -0.653823 0.686454 0
M  V30 2296 H 211.533 -2.81942 2.10242 0
M  V30 2297 H 211.407 -3.72338 0.603702 0
M  V30 2298 H 213.794 -2.95094 -0.0184742 0
M  V30 2299 H 213.875 -2.06431 1.51063 0
M  V30 2300 H 213.519 -4.25467 2.7738 0
M  V30 2301 H 213.449 -5.1228 1.2197 0
M  V30 2302 H 215.94 -3.56174 1.26288 0
M  V30 2303 H 216.253 -7.05086 3.16344 0
M  V30 2304 H 214.598 -6.34387 2.83863 0
M  V30 2305 H 217.789 -4.38301 1.64347 0
M  V30 2306 H 217.962 -5.97416 2.50993 0
M  V30 2307 N 211.368 -0.403325 -1.52352 0
M  V30 2308 C 212.614 0.174605 -2.02047 0
M  V30 2309 C 212.947 1.45282 -1.28867 0
M  V30 2310 O 212.222 1.90483 -0.393257 0
M  V30 2311 C 212.505 0.428238 -3.57545 0
M  V30 2312 C 212.358 -0.866248 -4.4138 0
M  V30 2313 C 213.677 1.21287 -4.23057 0
M  V30 2314 H 210.796 0.0619851 -0.734389 0
M  V30 2315 H 213.438 -0.53565 -1.82293 0
M  V30 2316 H 211.588 1.03327 -3.74507 0
M  V30 2317 H 213.26 -1.50265 -4.3614 0
M  V30 2318 H 211.503 -1.47851 -4.07827 0
M  V30 2319 H 212.174 -0.643249 -5.48239 0
M  V30 2320 H 214.65 0.700703 -4.10158 0
M  V30 2321 H 213.526 1.35909 -5.31808 0
M  V30 2322 H 213.787 2.23193 -3.81625 0
M  V30 2323 N 212.846 1.57033 -0.133567 0
M  V30 2324 C 213.776 2.1909 0.807567 0
M  V30 2325 C 214.757 1.13517 1.26681 0
M  V30 2326 O 215.942 1.41809 1.32679 0
M  V30 2327 C 213.072 2.80188 2.05212 0
M  V30 2328 C 212.026 3.91471 1.73015 0
M  V30 2329 C 211.352 4.39443 3.04622 0
M  V30 2330 C 212.652 5.12886 0.987168 0
M  V30 2331 H 214.346 2.97988 0.290403 0
M  V30 2332 H 211.892 1.43335 0.138239 0
M  V30 2333 H 213.845 3.22264 2.71521 0
M  V30 2334 H 212.569 1.98601 2.59278 0
M  V30 2335 H 211.228 3.49993 1.0909 0
M  V30 2336 H 210.876 3.54695 3.56651 0
M  V30 2337 H 210.576 5.14495 2.83847 0
M  V30 2338 H 212.1 4.8418 3.72024 0
M  V30 2339 H 213.514 5.51891 1.55208 0
M  V30 2340 H 211.911 5.93615 0.87985 0
M  V30 2341 H 212.981 4.84894 -0.0235286 0
M  V30 2342 N 214.325 -0.140222 1.56975 0
M  V30 2343 C 215.288 -1.15689 1.97861 0
M  V30 2344 C 216.288 -1.3549 0.865974 0
M  V30 2345 O 217.478 -1.32367 1.13246 0
M  V30 2346 C 214.61 -2.51582 2.30042 0
M  V30 2347 H 215.803 -0.805971 2.88867 0
M  V30 2348 H 213.356 -0.383801 1.51515 0
M  V30 2349 H 214.091 -2.91632 1.41849 0
M  V30 2350 H 213.876 -2.38569 3.11171 0
M  V30 2351 H 215.366 -3.24792 2.62488 0
M  V30 2352 N 215.803 -1.52179 -0.40978 0
M  V30 2353 C 217.049 -1.66453 -1.15851 0
M  V30 2354 C 217.382 -0.392972 -1.90182 0
M  V30 2355 O 216.657 0.608579 -1.84734 0
M  V30 2356 C 216.94 -2.88612 -2.15349 0
M  V30 2357 C 216.793 -4.25815 -1.44918 0
M  V30 2358 C 218.112 -3.06294 -3.16026 0
M  V30 2359 H 215.231 -0.60575 -0.419805 0
M  V30 2360 H 217.873 -1.84732 -0.444314 0
M  V30 2361 H 216.023 -2.73158 -2.76255 0
M  V30 2362 H 217.695 -4.52995 -0.871365 0
M  V30 2363 H 215.938 -4.27247 -0.751159 0
M  V30 2364 H 216.609 -5.07337 -2.17516 0
M  V30 2365 H 219.085 -3.20641 -2.65195 0
M  V30 2366 H 217.961 -3.93283 -3.8291 0
M  V30 2367 H 218.222 -2.19579 -3.83715 0
M  V30 2368 N 217.281 0.66697 -1.42791 0
M  V30 2369 C 218.527 1.4291 -1.43891 0
M  V30 2370 C 218.86 1.94114 -0.0578972 0
M  V30 2371 O 218.135 1.71414 0.91911 0
M  V30 2372 C 218.418 2.62049 -2.46987 0
M  V30 2373 C 218.271 2.16426 -3.94309 0
M  V30 2374 C 219.59 3.64266 -2.46978 0
M  V30 2375 H 216.709 0.518306 -0.523954 0
M  V30 2376 H 219.351 0.757321 -1.74255 0
M  V30 2377 H 217.501 3.19361 -2.21225 0
M  V30 2378 H 219.173 1.64221 -4.31079 0
M  V30 2379 H 217.416 1.47925 -4.078 0
M  V30 2380 H 218.087 3.02038 -4.62036 0
M  V30 2381 H 220.563 3.16686 -2.69906 0
M  V30 2382 H 219.439 4.45196 -3.21079 0
M  V30 2383 H 219.7 4.15927 -1.49857 0
M  V30 2384 N 218.759 1.29093 0.90403 0
M  V30 2385 C 219.984 1.19809 1.69294 0
M  V30 2386 C 220.409 -0.238481 1.86582 0
M  V30 2387 O 219.767 -1.1723 1.383 0
M  V30 2388 C 219.815 1.91202 3.05736 0
M  V30 2389 O 218.919 1.22611 3.93752 0
M  V30 2390 H 218.26 0.415385 0.518027 0
M  V30 2391 H 220.79 1.70586 1.12967 0
M  V30 2392 H 220.8 1.99487 3.55906 0
M  V30 2393 H 219.475 2.95692 2.92471 0
M  V30 2394 H 218.052 1.22554 3.52186 0
M  V30 2395 N 220.237 -1.11381 1.11499 0
M  V30 2396 C 221.483 -1.83403 0.865512 0
M  V30 2397 C 221.816 -1.84459 -0.607329 0
M  V30 2398 O 221.091 -1.29811 -1.44842 0
M  V30 2399 C 221.374 -3.30552 1.42855 0
M  V30 2400 C 221.227 -3.37886 2.96906 0
M  V30 2401 C 222.546 -4.26643 1.08 0
M  V30 2402 H 219.665 -0.665879 0.31587 0
M  V30 2403 H 222.307 -1.30601 1.37998 0
M  V30 2404 H 220.457 -3.75648 0.990985 0
M  V30 2405 H 222.129 -3.01343 3.49271 0
M  V30 2406 H 220.372 -2.78088 3.32941 0
M  V30 2407 H 221.043 -4.41458 3.31389 0
M  V30 2408 H 223.519 -3.89729 1.45775 0
M  V30 2409 H 222.395 -5.27986 1.50072 0
M  V30 2410 H 222.656 -4.42099 -0.00915037 0
M  V30 2411 N 221.715 -0.905404 -1.28997 0
M  V30 2412 C 222.645 -0.404212 -2.29975 0
M  V30 2413 C 223.626 0.523784 -1.61835 0
M  V30 2414 O 224.811 0.433298 -1.89304 0
M  V30 2415 C 221.941 0.364042 -3.45387 0
M  V30 2416 C 220.895 -0.474048 -4.25367 0
M  V30 2417 C 220.221 0.422045 -5.33032 0
M  V30 2418 C 221.521 -1.72696 -4.92923 0
M  V30 2419 H 223.215 -1.24807 -2.72146 0
M  V30 2420 H 220.761 -0.601585 -1.30832 0
M  V30 2421 H 222.714 0.725447 -4.15109 0
M  V30 2422 H 221.438 1.24174 -3.02074 0
M  V30 2423 H 220.097 -0.81786 -3.57361 0
M  V30 2424 H 219.745 1.29804 -4.85963 0
M  V30 2425 H 219.445 -0.135057 -5.87445 0
M  V30 2426 H 220.969 0.779517 -6.05604 0
M  V30 2427 H 222.383 -1.43495 -5.55051 0
M  V30 2428 H 220.78 -2.22582 -5.57295 0
M  V30 2429 H 221.85 -2.45964 -4.17887 0
M  V30 2430 N 223.193 1.4272 -0.668489 0
M  V30 2431 C 224.439 2.01923 -0.188419 0
M  V30 2432 C 224.772 1.52704 1.19979 0
M  V30 2433 O 224.047 0.726566 1.8042 0
M  V30 2434 C 224.33 3.59451 -0.216085 0
M  V30 2435 C 224.183 4.18864 -1.6393 0
M  V30 2436 C 225.502 4.37903 0.439179 0
M  V30 2437 H 222.621 0.733674 -0.0699412 0
M  V30 2438 H 225.263 1.69822 -0.852076 0
M  V30 2439 H 223.413 3.86929 0.349012 0
M  V30 2440 H 225.085 4.02362 -2.25616 0
M  V30 2441 H 223.328 3.74933 -2.18193 0
M  V30 2442 H 223.999 5.27987 -1.61039 0
M  V30 2443 H 226.475 4.16079 -0.0417878 0
M  V30 2444 H 225.351 5.47519 0.389157 0
M  V30 2445 H 225.612 4.15303 1.51577 0
M  V30 2446 N 224.671 0.411399 1.52136 0
M  V30 2447 C 225.92 -0.165009 2.01024 0
M  V30 2448 C 226.233 -1.4603 1.30133 0
M  V30 2449 O 227.439 -2.1181 1.69849 0
M  V30 2450 C 225.895 -0.344618 3.58246 0
M  V30 2451 C 225.503 0.938716 4.38055 0
M  V30 2452 C 227.247 -0.876195 4.15359 0
M  V30 2453 C 225.154 0.726172 5.86925 0
M  V30 2454 H 224.084 -0.0654407 0.751155 0
M  V30 2455 H 226.735 0.537192 1.75461 0
M  V30 2456 H 225.117 -1.10921 3.80148 0
M  V30 2457 H 226.291 1.70963 4.27912 0
M  V30 2458 H 224.606 1.39688 3.92271 0
M  V30 2459 H 227.203 -1.05128 5.24263 0
M  V30 2460 H 227.546 -1.85152 3.7286 0
M  V30 2461 H 228.079 -0.170607 3.97434 0
M  V30 2462 H 224.818 1.67312 6.33788 0
M  V30 2463 H 224.338 -0.00540283 5.998 0
M  V30 2464 H 226.017 0.369231 6.45946 0
M  V30 2465 N 226.149 -1.5696 0.141893 0
M  V30 2466 C 227.079 -2.19516 -0.795936 0
M  V30 2467 C 228.06 -1.14187 -1.26077 0
M  V30 2468 O 229.245 -1.42511 -1.31925 0
M  V30 2469 C 226.375 -2.81272 -2.03723 0
M  V30 2470 C 225.329 -3.92384 -1.70936 0
M  V30 2471 C 224.655 -4.41052 -3.02287 0
M  V30 2472 C 225.955 -5.13403 -0.959954 0
M  V30 2473 H 227.649 -2.98138 -0.274596 0
M  V30 2474 H 225.195 -1.43406 -0.130636 0
M  V30 2475 H 227.148 -3.237 -2.69808 0
M  V30 2476 H 225.872 -1.99973 -2.58221 0
M  V30 2477 H 224.531 -3.50566 -1.07232 0
M  V30 2478 H 224.179 -3.56582 -3.54765 0
M  V30 2479 H 223.879 -5.15993 -2.81114 0
M  V30 2480 H 225.403 -4.86146 -3.69451 0
M  V30 2481 H 226.817 -5.52706 -1.52279 0
M  V30 2482 H 225.214 -5.94073 -0.848357 0
M  V30 2483 H 226.284 -4.84875 0.0492434 0
M  V30 2484 N 227.627 0.131896 -1.57047 0
M  V30 2485 C 228.873 0.843179 -1.84441 0
M  V30 2486 C 229.206 1.80129 -0.725749 0
M  V30 2487 O 228.481 1.92624 0.269469 0
M  V30 2488 C 228.764 1.60442 -3.22382 0
M  V30 2489 C 228.617 0.666782 -4.4483 0
M  V30 2490 C 229.936 2.56354 -3.5773 0
M  V30 2491 H 227.055 0.305081 -0.670891 0
M  V30 2492 H 229.697 0.107839 -1.89694 0
M  V30 2493 H 227.847 2.23128 -3.18035 0
M  V30 2494 H 229.519 0.0497646 -4.61273 0
M  V30 2495 H 227.762 -0.022609 -4.33794 0
M  V30 2496 H 228.433 1.23579 -5.37989 0
M  V30 2497 H 230.909 2.0378 -3.62785 0
M  V30 2498 H 229.785 3.06657 -4.5525 0
M  V30 2499 H 230.046 3.38419 -2.84473 0
M  V30 2500 N 229.106 1.52395 0.401703 0
M  V30 2501 C 230.331 1.70972 1.17403 0
M  V30 2502 C 230.756 0.421615 1.83314 0
M  V30 2503 O 230.114 -0.621564 1.70312 0
M  V30 2504 C 230.162 2.85151 2.20728 0
M  V30 2505 O 229.266 2.51238 3.27037 0
M  V30 2506 H 228.607 0.568927 0.342372 0
M  V30 2507 H 231.137 1.99131 0.469891 0
M  V30 2508 H 231.147 3.10279 2.64936 0
M  V30 2509 H 229.822 3.78603 1.7214 0
M  V30 2510 H 228.399 2.36808 2.88057 0
M  V30 2511 N 230.584 -0.659388 1.43143 0
M  V30 2512 C 231.833 -1.41518 1.43721 0
M  V30 2513 C 232.146 -1.95499 0.0628176 0
M  V30 2514 O 233.352 -2.71446 -0.0539683 0
M  V30 2515 C 231.808 -2.5608 2.52885 0
M  V30 2516 C 231.416 -2.08733 3.96402 0
M  V30 2517 C 233.16 -3.3349 2.62649 0
M  V30 2518 C 231.067 -3.20469 4.97045 0
M  V30 2519 H 229.997 -0.531705 0.534608 0
M  V30 2520 H 232.648 -0.712343 1.69109 0
M  V30 2521 H 231.03 -3.28805 2.20688 0
M  V30 2522 H 232.204 -1.43059 4.3803 0
M  V30 2523 H 230.519 -1.44219 3.90627 0
M  V30 2524 H 233.116 -4.16734 3.35017 0
M  V30 2525 H 233.459 -3.8111 1.67513 0
M  V30 2526 H 233.992 -2.67842 2.94118 0
M  V30 2527 H 230.731 -2.77824 5.93712 0
M  V30 2528 H 230.251 -3.84874 4.60034 0
M  V30 2529 H 231.93 -3.85698 5.19467 0
M  V30 2530 N 232.062 -1.29571 -0.897171 0
M  V30 2531 C 233.308 -1.17863 -1.65034 0
M  V30 2532 C 233.641 0.268729 -1.92332 0
M  V30 2533 O 232.916 1.19378 -1.53555 0
M  V30 2534 C 233.199 -1.995 -2.99786 0
M  V30 2535 C 233.052 -3.5239 -2.79538 0
M  V30 2536 C 234.371 -1.82335 -4.00552 0
M  V30 2537 H 231.49 -0.429528 -0.598895 0
M  V30 2538 H 234.132 -1.59072 -1.03905 0
M  V30 2539 H 232.282 -1.64485 -3.51962 0
M  V30 2540 H 233.954 -3.97401 -2.34244 0
M  V30 2541 H 232.197 -3.77187 -2.14273 0
M  V30 2542 H 232.868 -4.04787 -3.75302 0
M  V30 2543 H 235.344 -2.12924 -3.57495 0
M  V30 2544 H 234.22 -2.41801 -4.92771 0
M  V30 2545 H 234.481 -0.779209 -4.35179 0
M  V30 2546 N 233.54 1.10788 -1.12088 0
M  V30 2547 C 234.786 1.82942 -0.875226 0
M  V30 2548 C 235.119 1.84779 0.597538 0
M  V30 2549 O 234.394 1.30578 1.44152 0
M  V30 2550 C 234.677 3.29789 -1.44606 0
M  V30 2551 C 234.53 3.36307 -2.98693 0
M  V30 2552 C 235.849 4.26064 -1.10261 0
M  V30 2553 H 232.968 0.664195 -0.319397 0
M  V30 2554 H 235.61 1.29867 -1.38689 0
M  V30 2555 H 233.76 3.75118 -1.01089 0
M  V30 2556 H 235.432 2.99487 -3.50864 0
M  V30 2557 H 233.675 2.76318 -3.34411 0
M  V30 2558 H 234.346 4.39694 -3.33726 0
M  V30 2559 H 236.822 3.88951 -1.4784 0
M  V30 2560 H 235.698 5.27183 -1.52869 0
M  V30 2561 H 235.959 4.42098 -0.0142953 0
M  V30 2562 N 235.018 0.912232 1.28515 0
M  V30 2563 C 236.265 0.544599 1.95039 0
M  V30 2564 C 236.593 -0.911435 1.71823 0
M  V30 2565 O 235.848 -1.66317 1.03137 0
M  V30 2566 C 236.147 0.798392 3.48368 0
M  V30 2567 C 235.813 2.23374 3.91682 0
M  V30 2568 C 234.475 2.62617 4.03219 0
M  V30 2569 C 236.827 3.16786 4.13879 0
M  V30 2570 C 234.155 3.94429 4.3433 0
M  V30 2571 C 236.507 4.48161 4.46469 0
M  V30 2572 C 235.171 4.8726 4.56217 0
M  V30 2573 H 234.441 0.199283 0.7137 0
M  V30 2574 H 237.088 1.15327 1.52879 0
M  V30 2575 H 235.393 0.106908 3.91654 0
M  V30 2576 H 237.09 0.493141 3.97956 0
M  V30 2577 H 233.68 1.91922 3.83228 0
M  V30 2578 H 237.864 2.87677 4.0442 0
M  V30 2579 H 233.12 4.24426 4.40082 0
M  V30 2580 H 237.294 5.20559 4.62592 0
M  V30 2581 H 234.921 5.89431 4.80078 0
M  V30 2582 N 236.496 -1.42363 0.676048 0
M  V30 2583 C 237.736 -2.03392 0.20273 0
M  V30 2584 C 238.1 -1.52306 -1.16906 0
M  V30 2585 O 239.301 -2.05129 -1.73711 0
M  V30 2586 C 237.572 -3.56614 0.236947 0
M  V30 2587 S 239.131 -4.38489 -0.165186 0
M  V30 2588 H 235.949 -0.70611 0.0832418 0
M  V30 2589 H 238.551 -1.74093 0.88948 0
M  V30 2590 H 237.255 -3.91293 1.23767 0
M  V30 2591 H 236.786 -3.90587 -0.469596 0
M  V30 2592 H 238.801 -4.76093 -1.39822 0
M  V30 2593 N 237.974 -0.419461 -1.51915 0
M  V30 2594 C 238.904 0.391813 -2.30189 0
M  V30 2595 C 239.885 1.03699 -1.34836 0
M  V30 2596 O 241.07 1.04403 -1.63748 0
M  V30 2597 C 238.2 1.50312 -3.13087 0
M  V30 2598 C 237.154 0.9824 -4.16573 0
M  V30 2599 C 236.48 2.18809 -4.8788 0
M  V30 2600 C 237.78 0.0292356 -5.22292 0
M  V30 2601 H 239.474 -0.26135 -2.98257 0
M  V30 2602 H 237.02 -0.127134 -1.43438 0
M  V30 2603 H 238.973 2.07773 -3.66617 0
M  V30 2604 H 237.697 2.18431 -2.42807 0
M  V30 2605 H 236.356 0.430119 -3.64068 0
M  V30 2606 H 236.004 2.85507 -4.14119 0
M  V30 2607 H 235.704 1.84615 -5.57845 0
M  V30 2608 H 237.228 2.76858 -5.44226 0
M  V30 2609 H 238.642 0.512976 -5.71 0
M  V30 2610 H 237.039 -0.2244 -5.9968 0
M  V30 2611 H 238.109 -0.912931 -4.76228 0
M  V30 2612 N 239.452 1.56882 -0.150215 0
M  V30 2613 C 240.362 2.20494 0.801222 0
M  V30 2614 C 241.378 1.19019 1.26927 0
M  V30 2615 O 242.554 1.51607 1.32579 0
M  V30 2616 C 239.619 2.81659 2.02161 0
M  V30 2617 C 238.68 3.9827 1.60249 0
M  V30 2618 C 237.913 4.56508 2.7647 0
M  V30 2619 O 238.136 4.13627 3.92771 0
M  V30 2620 O 237.07 5.46719 2.51757 0
M  V30 2621 H 240.896 3.02315 0.289717 0
M  V30 2622 H 238.481 1.49202 0.0769684 0
M  V30 2623 H 240.363 3.20522 2.73576 0
M  V30 2624 H 239.038 2.02849 2.52258 0
M  V30 2625 H 237.945 3.64117 0.858477 0
M  V30 2626 H 239.278 4.78609 1.14864 0
M  V30 2627 N 240.93 -0.123565 1.57115 0
M  V30 2628 C 242.158 -0.846461 1.88793 0
M  V30 2629 C 242.573 -1.73652 0.740976 0
M  V30 2630 O 241.93 -1.80207 -0.288393 0
M  V30 2631 C 241.981 -1.6837 3.19897 0
M  V30 2632 O 241.702 -0.829477 4.30176 0
M  V30 2633 C 243.203 -2.51214 3.65248 0
M  V30 2634 H 240.423 -0.243573 0.625231 0
M  V30 2635 H 242.967 -0.109324 2.04208 0
M  V30 2636 H 241.122 -2.37364 3.06165 0
M  V30 2637 H 241.536 -1.40651 5.0529 0
M  V30 2638 H 243.01 -3.05497 4.59756 0
M  V30 2639 H 243.487 -3.28359 2.9168 0
M  V30 2640 H 244.093 -1.8747 3.81752 0
M  V30 2641 N 242.408 -1.52605 -0.393616 0
M  V30 2642 C 243.338 -1.80022 -1.48709 0
M  V30 2643 C 244.319 -0.651995 -1.57108 0
M  V30 2644 O 245.504 -0.89913 -1.72132 0
M  V30 2645 C 242.634 -1.96492 -2.86371 0
M  V30 2646 C 241.588 -3.12161 -2.92813 0
M  V30 2647 C 240.914 -3.13877 -4.3288 0
M  V30 2648 C 242.214 -4.51322 -2.6288 0
M  V30 2649 H 243.908 -2.71589 -1.26015 0
M  V30 2650 H 241.454 -1.30684 -0.604778 0
M  V30 2651 H 243.407 -2.14255 -3.62867 0
M  V30 2652 H 242.131 -1.01611 -3.10391 0
M  V30 2653 H 240.79 -2.94173 -2.18764 0
M  V30 2654 H 240.438 -2.16687 -4.53933 0
M  V30 2655 H 240.138 -3.91576 -4.38112 0
M  V30 2656 H 241.662 -3.33789 -5.1129 0
M  V30 2657 H 243.076 -4.69435 -3.29096 0
M  V30 2658 H 241.473 -5.31053 -2.79468 0
M  V30 2659 H 242.543 -4.58353 -1.58242 0
M  V30 2660 N 243.887 0.651787 -1.4349 0
M  V30 2661 C 245.298 1.233 -1.40193 0
M  V30 2662 C 245.649 1.9591 -0.106727 0
M  V30 2663 O 244.774 2.01316 0.793773 0
M  V30 2664 C 245.369 2.24257 -2.53957 0
M  V30 2665 C 243.928 2.77852 -2.5392 0
M  V30 2666 C 243.075 1.52517 -2.3159 0
M  V30 2667 H 246.026 0.443717 -1.52371 0
M  V30 2668 H 246.047 3.0646 -2.25528 0
M  V30 2669 H 245.559 1.71382 -3.4821 0
M  V30 2670 H 243.66 3.34786 -1.63551 0
M  V30 2671 H 243.773 3.25299 -3.51735 0
M  V30 2672 H 242.137 1.79915 -1.80285 0
M  V30 2673 H 242.92 1.01574 -3.27929 0
M  V30 2674 N 245.365 1.30045 0.890287 0
M  V30 2675 C 246.642 1.09227 1.62262 0
M  V30 2676 C 247.022 -0.360305 2.08002 0
M  V30 2677 O 246.37 -1.35084 1.84295 0
M  V30 2678 C 246.58 2.08835 2.79623 0
M  V30 2679 C 247.928 2.40266 3.50082 0
M  V30 2680 O 248.952 2.07104 2.89804 0
M  V30 2681 O 247.811 2.96967 4.58773 0
M  V30 2682 H 244.905 0.419132 0.712922 0
M  V30 2683 H 247.451 1.41451 0.937529 0
M  V30 2684 H 246.223 3.06633 2.43089 0
M  V30 2685 H 245.846 1.77397 3.55832 0
M  V30 2686 N 246.843 -1.10192 1.12674 0
M  V30 2687 C 248.09 -1.82205 0.883606 0
M  V30 2688 C 248.418 -1.8532 -0.590492 0
M  V30 2689 O 247.673 -1.31137 -1.45264 0
M  V30 2690 C 247.972 -3.28552 1.4067 0
M  V30 2691 C 247.638 -3.45582 2.89627 0
M  V30 2692 C 246.3 -3.49937 3.30299 0
M  V30 2693 C 248.652 -3.50768 3.85501 0
M  V30 2694 C 245.98 -3.57049 4.65546 0
M  V30 2695 C 248.332 -3.59414 5.20581 0
M  V30 2696 C 246.996 -3.62034 5.60792 0
M  V30 2697 H 246.266 -0.666735 0.323334 0
M  V30 2698 H 248.913 -1.29868 1.40736 0
M  V30 2699 H 247.218 -3.83473 0.80347 0
M  V30 2700 H 248.915 -3.82788 1.19475 0
M  V30 2701 H 245.505 -3.42871 2.57172 0
M  V30 2702 H 249.689 -3.46651 3.55171 0
M  V30 2703 H 244.945 -3.57361 4.96088 0
M  V30 2704 H 249.119 -3.62371 5.94693 0
M  V30 2705 H 246.746 -3.67298 6.6558 0
M  V30 2706 N 248.321 -0.919034 -1.28029 0
M  V30 2707 C 249.737 -0.617972 -1.4715 0
M  V30 2708 C 249.937 0.835242 -1.83374 0
M  V30 2709 O 248.993 1.61388 -1.94191 0
M  V30 2710 C 250.306 -1.56041 -2.57044 0
M  V30 2711 C 251.854 -1.56769 -2.7091 0
M  V30 2712 C 252.329 -2.49688 -3.83953 0
M  V30 2713 N 253.82 -2.47845 -3.91314 0
M  V30 2714 C 254.555 -3.16437 -4.78179 0
M  V30 2715 N 254.051 -3.94376 -5.69596 0
M  V30 2716 N 255.844 -3.05498 -4.71834 0
M  V30 2717 H 247.995 -1.85866 -1.02798 0
M  V30 2718 H 250.258 -0.797506 -0.512531 0
M  V30 2719 H 249.964 -2.59671 -2.372 0
M  V30 2720 H 249.838 -1.29551 -3.54255 0
M  V30 2721 H 252.225 -0.538745 -2.90141 0
M  V30 2722 H 252.306 -1.87305 -1.74214 0
M  V30 2723 H 251.95 -3.52688 -3.65477 0
M  V30 2724 H 251.88 -2.16453 -4.80058 0
M  V30 2725 H 254.371 -1.91234 -3.25941 0
M  V30 2726 H 254.684 -4.43721 -6.32718 0
M  V30 2727 H 253.029 -3.98481 -5.69419 0
M  V30 2728 H 256.22 -2.44108 -3.99411 0
M  V30 2729 H 256.393 -3.59225 -5.39316 0
M  V30 2730 N 249.799 1.42003 -0.683588 0
M  V30 2731 C 251.076 1.95112 -0.138075 0
M  V30 2732 C 251.456 1.62359 1.34918 0
M  V30 2733 O 250.804 0.924311 2.08971 0
M  V30 2734 C 251.014 3.46505 -0.416581 0
M  V30 2735 C 252.362 4.23254 -0.337834 0
M  V30 2736 O 253.386 3.54468 -0.35082 0
M  V30 2737 O 252.245 5.45743 -0.287596 0
M  V30 2738 H 249.339 0.826961 -0.00797996 0
M  V30 2739 H 251.885 1.51784 -0.758924 0
M  V30 2740 H 250.657 3.63582 -1.4465 0
M  V30 2741 H 250.28 3.969 0.235839 0
M  V30 2742 N 251.277 0.427512 1.51691 0
M  V30 2743 C 252.554 -0.201684 1.94557 0
M  V30 2744 C 252.934 -1.60981 1.36559 0
M  V30 2745 O 252.282 -2.21814 0.548702 0
M  V30 2746 C 252.492 -0.189394 3.48486 0
M  V30 2747 C 253.84 -0.39978 4.22714 0
M  V30 2748 O 254.864 -0.267945 3.55191 0
M  V30 2749 O 253.723 -0.661249 5.42485 0
M  V30 2750 H 250.817 -0.135261 0.815864 0
M  V30 2751 H 253.363 0.484782 1.62628 0
M  V30 2752 H 252.135 0.795431 3.8313 0
M  V30 2753 H 251.758 -0.919187 3.86829 0
M  V30 2754 N 252.755 -1.56801 0.158532 0
M  V30 2755 C 254.171 -1.5837 -0.197774 0
M  V30 2756 C 254.371 -1.17334 -1.63814 0
M  V30 2757 O 253.427 -0.878988 -2.36707 0
M  V30 2758 C 254.74 -3.00615 0.0714459 0
M  V30 2759 C 256.288 -3.12999 0.00864533 0
M  V30 2760 C 256.763 -4.57313 0.250685 0
M  V30 2761 N 258.254 -4.62777 0.198014 0
M  V30 2762 C 258.989 -5.72271 0.359642 0
M  V30 2763 N 258.485 -6.90371 0.579625 0
M  V30 2764 N 260.278 -5.61318 0.296438 0
M  V30 2765 H 252.429 -1.81765 1.09887 0
M  V30 2766 H 254.692 -0.841849 0.435884 0
M  V30 2767 H 254.398 -3.35068 1.06874 0
M  V30 2768 H 254.272 -3.71683 -0.642757 0
M  V30 2769 H 256.659 -2.7838 -0.979217 0
M  V30 2770 H 256.74 -2.44393 0.755359 0
M  V30 2771 H 256.384 -4.92639 1.2357 0
M  V30 2772 H 256.314 -5.24061 -0.516489 0
M  V30 2773 H 258.805 -3.77885 0.0331115 0
M  V30 2774 H 259.118 -7.69689 0.69275 0
M  V30 2775 H 257.463 -6.92264 0.616087 0
M  V30 2776 H 260.654 -4.67932 0.125258 0
M  V30 2777 H 260.827 -6.46599 0.425831 0
M  V30 2778 N 254.233 0.115231 -1.57178 0
M  V30 2779 C 255.51 0.852873 -1.76027 0
M  V30 2780 C 255.89 1.97892 -0.73498 0
M  V30 2781 O 255.238 2.27232 0.24036 0
M  V30 2782 C 255.448 1.36608 -3.21153 0
M  V30 2783 C 256.796 1.81692 -3.83762 0
M  V30 2784 O 257.82 1.46278 -3.24779 0
M  V30 2785 O 256.679 2.47104 -4.87444 0
M  V30 2786 H 253.773 0.405296 -0.720877 0
M  V30 2787 H 256.319 0.0986785 -1.69413 0
M  V30 2788 H 255.091 0.558357 -3.87296 0
M  V30 2789 H 254.714 2.18287 -3.3232 0
M  V30 2790 N 255.711 1.52812 0.385517 0
M  V30 2791 C 256.959 1.67694 1.12797 0
M  V30 2792 C 257.28 0.421115 1.90399 0
M  V30 2793 O 256.55 -0.564551 1.87589 0
M  V30 2794 H 255.13 0.618155 0.419396 0
M  V30 2795 H 257.792 1.89938 0.436972 0
M  V30 2796 H 256.888 2.52896 1.82894 0
M  V30 2797 N 257.189 -0.644168 1.43834 0
M  V30 2798 C 258.417 -1.43147 1.49387 0
M  V30 2799 C 258.832 -1.88452 0.114583 0
M  V30 2800 O 258.189 -1.60047 -0.876989 0
M  V30 2801 C 258.24 -2.66046 2.44748 0
M  V30 2802 O 257.961 -2.22633 3.77314 0
M  V30 2803 C 259.462 -3.59311 2.59635 0
M  V30 2804 H 256.682 -0.439447 0.507077 0
M  V30 2805 H 259.226 -0.78895 1.88669 0
M  V30 2806 H 257.381 -3.26418 2.08638 0
M  V30 2807 H 257.795 -3.02216 4.28679 0
M  V30 2808 H 259.269 -4.42187 3.30416 0
M  V30 2809 H 259.746 -4.07259 1.64427 0
M  V30 2810 H 260.352 -3.04816 2.96593 0
M  V30 2811 N 258.668 -1.30515 -0.883378 0
M  V30 2812 C 259.916 -1.19194 -1.63209 0
M  V30 2813 C 260.237 0.253205 -1.93349 0
M  V30 2814 O 259.507 1.17025 -1.57105 0
M  V30 2815 H 258.087 -0.438148 -0.605009 0
M  V30 2816 H 260.749 -1.63663 -1.05832 0
M  V30 2817 H 259.845 -1.75396 -2.58153 0
M  V30 2818 N 260.146 1.09593 -1.13257 0
M  V30 2819 C 261.076 2.18214 -0.830946 0
M  V30 2820 C 262.057 1.68812 0.208966 0
M  V30 2821 O 263.242 1.9408 0.0682666 0
M  V30 2822 C 260.372 3.46051 -0.294296 0
M  V30 2823 C 259.326 4.08778 -1.26826 0
M  V30 2824 C 258.652 5.31419 -0.591449 0
M  V30 2825 C 259.952 4.51476 -2.62615 0
M  V30 2826 H 261.646 2.43703 -1.73923 0
M  V30 2827 H 259.192 1.17128 -0.837675 0
M  V30 2828 H 261.145 4.2134 -0.0709606 0
M  V30 2829 H 259.869 3.20079 0.649366 0
M  V30 2830 H 258.528 3.35505 -1.47756 0
M  V30 2831 H 258.176 5.01727 0.357633 0
M  V30 2832 H 257.876 5.74341 -1.24123 0
M  V30 2833 H 259.4 6.09433 -0.377355 0
M  V30 2834 H 260.814 5.17999 -2.45663 0
M  V30 2835 H 259.211 5.05277 -3.23752 0
M  V30 2836 H 260.281 3.63962 -3.20406 0
M  V30 2837 N 261.624 0.925811 1.2754 0
M  V30 2838 C 262.587 0.428129 2.25166 0
M  V30 2839 C 263.587 -0.452261 1.54309 0
M  V30 2840 O 264.777 -0.253608 1.72344 0
M  V30 2841 C 261.909 -0.384749 3.38722 0
M  V30 2842 H 263.102 1.29066 2.70706 0
M  V30 2843 H 260.655 0.706323 1.3943 0
M  V30 2844 H 261.39 -1.26618 2.98561 0
M  V30 2845 H 261.175 0.246454 3.91325 0
M  V30 2846 H 262.665 -0.723389 4.11287 0
M  V30 2847 N 263.102 -1.41638 0.69111 0
M  V30 2848 C 264.065 -2.29178 0.0319786 0
M  V30 2849 C 265.065 -1.44153 -0.712496 0
M  V30 2850 O 266.255 -1.65354 -0.548053 0
M  V30 2851 C 263.387 -3.26952 -0.965161 0
M  V30 2852 H 264.58 -2.88959 0.802681 0
M  V30 2853 H 262.133 -1.4955 0.454356 0
M  V30 2854 H 262.868 -2.72142 -1.76378 0
M  V30 2855 H 262.653 -3.89685 -0.434522 0
M  V30 2856 H 264.143 -3.92561 -1.42428 0
M  V30 2857 N 264.58 -0.43555 -1.51462 0
M  V30 2858 C 265.543 0.365137 -2.26273 0
M  V30 2859 C 266.543 0.951227 -1.29647 0
M  V30 2860 O 267.733 0.825958 -1.53374 0
M  V30 2861 C 264.865 1.51645 -3.05314 0
M  V30 2862 H 266.058 -0.290474 -2.9849 0
M  V30 2863 H 263.611 -0.188676 -1.55157 0
M  V30 2864 H 264.346 2.20816 -2.3751 0
M  V30 2865 H 264.131 1.10238 -3.76284 0
M  V30 2866 H 265.621 2.08218 -3.61987 0
M  V30 2867 N 266.058 1.56714 -0.166846 0
M  V30 2868 C 267.021 2.16539 0.751232 0
M  V30 2869 C 268.021 1.11228 1.16125 0
M  V30 2870 O 269.211 1.36765 1.07894 0
M  V30 2871 C 266.343 2.74462 2.02196 0
M  V30 2872 H 267.536 2.99013 0.230499 0
M  V30 2873 H 265.089 1.56081 0.0826982 0
M  V30 2874 H 265.824 1.95709 2.58589 0
M  V30 2875 H 265.609 3.51527 1.73698 0
M  V30 2876 H 267.099 3.20489 2.67725 0
M  V30 2877 N 267.536 -0.106894 1.57237 0
M  V30 2878 C 268.499 -1.11466 2.0027 0
M  V30 2879 C 269.499 -1.33623 0.894519 0
M  V30 2880 O 270.689 -1.29935 1.16028 0
M  V30 2881 C 267.821 -2.46646 2.35327 0
M  V30 2882 H 269.014 -0.744516 2.90512 0
M  V30 2883 H 266.567 -0.351576 1.52295 0
M  V30 2884 H 267.302 -2.88558 1.48003 0
M  V30 2885 H 267.087 -2.31915 3.16161 0
M  V30 2886 H 268.577 -3.19151 2.69318 0
M  V30 2887 N 269.014 -1.53014 -0.377408 0
M  V30 2888 C 269.977 -1.77957 -1.44444 0
M  V30 2889 C 270.977 -0.649763 -1.47087 0
M  V30 2890 O 272.167 -0.917897 -1.48055 0
M  V30 2891 C 269.299 -1.89089 -2.83651 0
M  V30 2892 H 270.492 -2.73243 -1.23606 0
M  V30 2893 H 268.045 -1.43912 -0.609844 0
M  V30 2894 H 268.78 -0.958293 -3.09818 0
M  V30 2895 H 268.565 -2.71254 -2.83132 0
M  V30 2896 H 270.055 -2.1002 -3.60945 0
M  V30 2897 N 270.492 0.636531 -1.44174 0
M  V30 2898 C 271.74 1.39343 -1.46383 0
M  V30 2899 C 272.061 1.94766 -0.0955715 0
M  V30 2900 O 271.331 1.75452 0.871395 0
M  V30 2901 H 269.911 0.517199 -0.538994 0
M  V30 2902 H 272.573 0.74957 -1.7991 0
M  V30 2903 H 271.669 2.22746 -2.18611 0
M  V30 2904 N 271.97 1.30982 0.876444 0
M  V30 2905 C 273.381 1.18277 1.44456 0
M  V30 2906 C 273.732 -0.213265 1.95037 0
M  V30 2907 O 272.857 -1.11057 1.85729 0
M  V30 2908 C 273.452 2.1411 2.62569 0
M  V30 2909 C 272.011 2.05358 3.15444 0
M  V30 2910 C 271.158 2.03706 1.88146 0
M  V30 2911 H 274.109 1.43127 0.685584 0
M  V30 2912 H 274.13 1.72692 3.39054 0
M  V30 2913 H 273.642 3.15706 2.25724 0
M  V30 2914 H 271.743 1.06934 3.56926 0
M  V30 2915 H 271.856 2.94156 3.78166 0
M  V30 2916 H 270.22 1.48629 2.06837 0
M  V30 2917 H 271.003 3.07047 1.53547 0
M  V30 2918 N 273.449 -1.08991 1.13837 0
M  V30 2919 C 274.696 -1.81258 0.902882 0
M  V30 2920 C 275.024 -1.85936 -0.570803 0
M  V30 2921 O 274.279 -1.3267 -1.43865 0
M  V30 2922 C 274.578 -3.27042 1.44147 0
M  V30 2923 C 274.244 -3.4249 2.93276 0
M  V30 2924 C 272.906 -3.46414 3.33992 0
M  V30 2925 C 275.258 -3.4666 3.892 0
M  V30 2926 C 272.586 -3.52091 4.69307 0
M  V30 2927 C 274.938 -3.53872 5.24364 0
M  V30 2928 C 273.602 -3.56066 5.646 0
M  V30 2929 H 272.872 -0.663268 0.330388 0
M  V30 2930 H 275.519 -1.28368 1.42105 0
M  V30 2931 H 273.824 -3.82599 0.844097 0
M  V30 2932 H 275.521 -3.81499 1.23528 0
M  V30 2933 H 272.111 -3.40124 2.60794 0
M  V30 2934 H 276.295 -3.42865 3.58828 0
M  V30 2935 H 271.551 -3.52079 4.9985 0
M  V30 2936 H 275.725 -3.56043 5.98503 0
M  V30 2937 H 273.352 -3.60218 6.69438 0
M  V30 2938 N 274.927 -0.932562 -1.27047 0
M  V30 2939 C 276.338 -0.619451 -1.76124 0
M  V30 2940 C 276.689 0.865397 -1.76083 0
M  V30 2941 O 275.814 1.67722 -1.36742 0
M  V30 2942 C 276.409 -1.11771 -3.19832 0
M  V30 2943 C 274.968 -0.855174 -3.66557 0
M  V30 2944 C 274.115 -1.27362 -2.46321 0
M  V30 2945 H 277.066 -1.11181 -1.13245 0
M  V30 2946 H 277.087 -0.46759 -3.77616 0
M  V30 2947 H 276.599 -2.19842 -3.1983 0
M  V30 2948 H 274.7 0.211524 -3.71999 0
M  V30 2949 H 274.813 -1.47613 -4.55793 0
M  V30 2950 H 273.177 -0.692119 -2.45116 0
M  V30 2951 H 273.96 -2.36307 -2.49025 0
M  V30 2952 N 276.405 1.4127 -0.698611 0
M  V30 2953 C 277.368 2.29158 -0.044132 0
M  V30 2954 C 278.368 1.44529 0.704841 0
M  V30 2955 O 279.558 1.65643 0.539276 0
M  V30 2956 C 276.69 3.27459 0.947809 0
M  V30 2957 H 277.883 2.88529 -0.817994 0
M  V30 2958 H 275.436 1.49307 -0.46228 0
M  V30 2959 H 276.171 2.73073 1.74933 0
M  V30 2960 H 275.956 3.8991 0.41385 0
M  V30 2961 H 277.446 3.93311 1.40344 0
M  V30 2962 N 277.883 0.443576 1.51229 0
M  V30 2963 C 279.294 -0.0180867 1.86691 0
M  V30 2964 C 279.645 -1.41384 1.36033 0
M  V30 2965 O 278.77 -2.04291 0.713722 0
M  V30 2966 C 279.365 -0.039597 3.38777 0
M  V30 2967 C 277.924 -0.445692 3.73752 0
M  V30 2968 C 277.071 0.357584 2.74985 0
M  V30 2969 H 280.022 0.659138 1.44364 0
M  V30 2970 H 280.043 -0.847761 3.70936 0
M  V30 2971 H 279.555 0.976382 3.75617 0
M  V30 2972 H 277.656 -1.46704 3.42503 0
M  V30 2973 H 277.769 -0.166155 4.78812 0
M  V30 2974 H 276.133 -0.184973 2.54027 0
M  V30 2975 H 276.916 1.37256 3.14668 0
M  V30 2976 N 279.361 -1.56624 0.175154 0
M  V30 2977 C 280.291 -2.21155 -0.749195 0
M  V30 2978 C 281.272 -1.16836 -1.23626 0
M  V30 2979 O 282.457 -1.45277 -1.28873 0
M  V30 2980 C 279.587 -2.8553 -1.97711 0
M  V30 2981 C 278.541 -3.95921 -1.62575 0
M  V30 2982 C 277.867 -4.47365 -2.92864 0
M  V30 2983 C 279.167 -5.15323 -0.850838 0
M  V30 2984 H 280.861 -2.98653 -0.211295 0
M  V30 2985 H 278.407 -1.43651 -0.100188 0
M  V30 2986 H 280.36 -3.2935 -2.62881 0
M  V30 2987 H 279.084 -2.05406 -2.53921 0
M  V30 2988 H 277.743 -3.52762 -0.997719 0
M  V30 2989 H 277.391 -3.64027 -3.47122 0
M  V30 2990 H 277.091 -5.21839 -2.70106 0
M  V30 2991 H 278.615 -4.93873 -3.59056 0
M  V30 2992 H 280.029 -5.55812 -1.40521 0
M  V30 2993 H 278.426 -5.95739 -0.722154 0
M  V30 2994 H 279.496 -4.84661 0.152082 0
M  V30 2995 N 280.839 0.0985539 -1.57292 0
M  V30 2996 C 281.787 1.1387 -2.02821 0
M  V30 2997 C 282.781 1.41676 -0.928666 0
M  V30 2998 O 283.987 1.41398 -1.11385 0
M  V30 2999 H 280.362 0.384419 -0.646317 0
M  V30 3000 H 282.333 0.728347 -2.89375 0
M  V30 3001 C 281.082 2.45166 -2.46554 0
M  V30 3002 H 280.405 2.24613 -3.3074 0
M  V30 3003 H 281.845 3.16456 -2.8219 0
M  V30 3004 C 280.304 3.09216 -1.33742 0
M  V30 3005 O 280.834 3.96163 -0.66464 0
M  V30 3006 N 279.04 2.69413 -1.08928 0
M  V30 3007 H 278.587 1.98801 -1.63817 0
M  V30 3008 H 278.545 3.12594 -0.336458 0
M  V30 3009 N 282.317 1.53212 0.369288 0
M  V30 3010 C 283.565 1.68881 1.11012 0
M  V30 3011 C 283.886 0.441285 1.89941 0
M  V30 3012 O 283.156 -0.544623 1.88177 0
M  V30 3013 H 281.736 0.622569 0.412816 0
M  V30 3014 H 284.398 1.90391 0.416802 0
M  V30 3015 H 283.494 2.54822 1.80201 0
M  V30 3016 N 283.795 -0.628877 1.44509 0
M  V30 3017 C 285.02 -1.42048 1.5112 0
M  V30 3018 C 285.445 -1.87594 0.137818 0
M  V30 3019 O 284.803 -1.58873 -0.873437 0
M  V30 3020 C 284.851 -2.61541 2.48251 0
M  V30 3021 O 283.955 -3.61453 1.98559 0
M  V30 3022 H 283.296 -0.424942 0.510216 0
M  V30 3023 H 285.826 -0.767374 1.89664 0
M  V30 3024 H 285.836 -3.09057 2.66361 0
M  V30 3025 H 284.511 -2.27736 3.48007 0
M  V30 3026 H 283.088 -3.20731 1.90227 0
M  V30 3027 N 285.273 -1.31445 -0.869486 0
M  V30 3028 C 286.498 -1.24256 -1.66058 0
M  V30 3029 C 286.923 0.188928 -1.87149 0
M  V30 3030 O 286.281 1.13522 -1.4136 0
M  V30 3031 C 286.329 -1.9924 -3.00559 0
M  V30 3032 O 285.433 -1.33007 -3.90362 0
M  V30 3033 H 284.774 -0.428973 -0.506831 0
M  V30 3034 H 287.304 -1.73521 -1.08404 0
M  V30 3035 H 287.314 -2.08854 -3.50491 0
M  V30 3036 H 285.989 -3.03342 -2.84528 0
M  V30 3037 H 284.566 -1.31848 -3.48813 0
M  V30 3038 N 286.751 1.08385 -1.14413 0
M  V30 3039 C 287.683 2.1519 -0.789036 0
M  V30 3040 C 288.696 1.61638 0.19417 0
M  V30 3041 O 289.885 1.78479 -0.0275711 0
M  V30 3042 C 286.985 3.38565 -0.15058 0
M  V30 3043 C 286.158 4.21501 -1.16857 0
M  V30 3044 C 285.217 5.23277 -0.553832 0
M  V30 3045 O 284.243 5.56041 -1.21686 0
M  V30 3046 N 285.445 5.76629 0.669296 0
M  V30 3047 H 288.21 2.46257 -1.70814 0
M  V30 3048 H 285.771 1.24198 -1.03858 0
M  V30 3049 H 287.763 4.03777 0.273181 0
M  V30 3050 H 286.333 3.05299 0.671667 0
M  V30 3051 H 285.553 3.52265 -1.76926 0
M  V30 3052 H 286.841 4.73731 -1.85624 0
M  V30 3053 H 286.239 5.52243 1.22654 0
M  V30 3054 H 284.796 6.43521 1.03556 0
M  V30 3055 N 288.23 0.939286 1.26551 0
M  V30 3056 C 289.163 0.391702 2.24813 0
M  V30 3057 C 290.141 -0.518421 1.54114 0
M  V30 3058 O 291.325 -0.456299 1.82894 0
M  V30 3059 C 288.452 -0.437382 3.35864 0
M  V30 3060 C 287.498 0.410946 4.24516 0
M  V30 3061 S 288.331 1.83372 5.03125 0
M  V30 3062 C 289.487 1.01264 6.17654 0
M  V30 3063 H 289.72 1.22448 2.70913 0
M  V30 3064 H 287.253 0.742269 1.35387 0
M  V30 3065 H 289.211 -0.909837 4.0029 0
M  V30 3066 H 287.872 -1.24482 2.8838 0
M  V30 3067 H 287.065 -0.224191 5.03501 0
M  V30 3068 H 286.667 0.818014 3.64945 0
M  V30 3069 H 288.959 0.254023 6.77024 0
M  V30 3070 H 289.902 1.77589 6.85469 0
M  V30 3071 H 290.31 0.549532 5.61819 0
M  V30 3072 N 289.708 -1.40897 0.706093 0
M  V30 3073 C 291.119 -1.84023 0.315052 0
M  V30 3074 C 291.47 -1.5906 -1.14866 0
M  V30 3075 O 290.595 -1.06651 -1.88293 0
M  V30 3076 C 291.19 -3.34055 0.565038 0
M  V30 3077 C 289.749 -3.7571 0.227806 0
M  V30 3078 C 288.896 -2.64204 0.842122 0
M  V30 3079 H 291.847 -1.303 0.905963 0
M  V30 3080 H 291.868 -3.80107 -0.172843 0
M  V30 3081 H 291.38 -3.52192 1.63042 0
M  V30 3082 H 289.481 -3.63172 -0.832895 0
M  V30 3083 H 289.594 -4.74103 0.690174 0
M  V30 3084 H 287.958 -2.53255 0.270893 0
M  V30 3085 H 288.741 -2.85155 1.91158 0
M  V30 3086 N 291.186 -0.45159 -1.50991 0
M  V30 3087 C 292.434 0.109857 -2.01801 0
M  V30 3088 C 292.755 1.41958 -1.3369 0
M  V30 3089 O 292.025 1.9003 -0.475951 0
M  V30 3090 H 290.605 0.0435884 -0.745727 0
M  V30 3091 H 293.267 -0.597557 -1.85514 0
M  V30 3092 H 292.363 0.275489 -3.10882 0
M  V30 3093 N 292.664 1.56529 -0.183458 0
M  V30 3094 C 293.612 2.19873 0.758845 0
M  V30 3095 C 294.606 1.16638 1.22849 0
M  V30 3096 O 295.812 1.3481 1.19274 0
M  V30 3097 H 292.187 0.7045 0.263029 0
M  V30 3098 H 294.158 2.97724 0.200755 0
M  V30 3099 C 292.907 2.86314 1.9728 0
M  V30 3100 H 292.23 3.65487 1.62047 0
M  V30 3101 H 293.67 3.3409 2.61075 0
M  V30 3102 C 292.129 1.86729 2.80418 0
M  V30 3103 O 292.659 1.36031 3.77966 0
M  V30 3104 N 290.865 1.55216 2.45675 0
M  V30 3105 H 290.412 1.96636 1.66409 0
M  V30 3106 H 290.37 0.888388 3.01588 0
M  V30 3107 N 294.142 -0.090211 1.57342 0
M  V30 3108 C 295.553 -0.644173 1.75235 0
M  V30 3109 C 295.904 -1.78865 0.806335 0
M  V30 3110 O 295.029 -2.16395 -0.0140128 0
M  V30 3111 C 295.624 -1.17532 3.1776 0
M  V30 3112 C 294.183 -1.67531 3.37061 0
M  V30 3113 C 293.33 -0.58693 2.71017 0
M  V30 3114 H 296.281 0.135884 1.58117 0
M  V30 3115 H 296.302 -2.04455 3.20902 0
M  V30 3116 H 295.814 -0.342138 3.86589 0
M  V30 3117 H 293.915 -2.53234 2.73319 0
M  V30 3118 H 294.028 -1.76493 4.45406 0
M  V30 3119 H 292.392 -1.02756 2.33052 0
M  V30 3120 H 293.175 0.235758 3.4249 0
M  V30 3121 N 295.62 -1.53406 -0.361157 0
M  V30 3122 C 297.031 -1.61442 -0.937728 0
M  V30 3123 C 297.382 -0.48461 -1.90121 0
M  V30 3124 O 296.507 0.388312 -2.12888 0
M  V30 3125 C 297.102 -2.92624 -1.70753 0
M  V30 3126 C 295.661 -3.02981 -2.23337 0
M  V30 3127 C 294.808 -2.5677 -1.04712 0
M  V30 3128 H 297.759 -1.58083 -0.139816 0
M  V30 3129 H 297.78 -2.80675 -2.56908 0
M  V30 3130 H 297.292 -3.74834 -1.00604 0
M  V30 3131 H 295.393 -2.25368 -2.96715 0
M  V30 3132 H 295.506 -4.0814 -2.50916 0
M  V30 3133 H 293.87 -2.11752 -1.41539 0
M  V30 3134 H 294.653 -3.41402 -0.360539 0
M  V30 3135 N 297.098 0.621204 -1.44841 0
M  V30 3136 C 298.514 0.94048 -1.28946 0
M  V30 3137 C 298.714 2.00154 -0.23249 0
M  V30 3138 O 297.77 2.49651 0.378237 0
M  V30 3139 C 299.083 1.39433 -2.66419 0
M  V30 3140 C 300.631 1.50927 -2.74208 0
M  V30 3141 C 301.106 1.99692 -4.12174 0
M  V30 3142 N 302.597 2.06947 -4.144 0
M  V30 3143 C 303.332 2.45871 -5.1801 0
M  V30 3144 N 302.828 2.83862 -6.31977 0
M  V30 3145 N 304.621 2.46092 -5.05366 0
M  V30 3146 H 296.772 -0.0803548 -2.12248 0
M  V30 3147 H 299.035 0.0266913 -0.947624 0
M  V30 3148 H 298.741 0.688925 -3.44887 0
M  V30 3149 H 298.615 2.36347 -2.93973 0
M  V30 3150 H 301.002 2.20561 -1.96053 0
M  V30 3151 H 301.083 0.523627 -2.50383 0
M  V30 3152 H 300.727 1.30649 -4.90809 0
M  V30 3153 H 300.657 2.99146 -4.33381 0
M  V30 3154 H 303.148 1.80232 -3.32152 0
M  V30 3155 H 303.461 3.12405 -7.0684 0
M  V30 3156 H 301.806 2.8159 -6.35399 0
M  V30 3157 H 304.997 2.1581 -4.15384 0
M  V30 3158 H 305.17 2.76102 -5.86235 0
M  V30 3159 N 298.576 1.31904 0.862503 0
M  V30 3160 C 299.506 1.22782 1.98612 0
M  V30 3161 C 300.487 0.113362 1.69722 0
M  V30 3162 O 301.672 0.299218 1.91881 0
M  V30 3163 C 298.802 0.942058 3.34279 0
M  V30 3164 C 297.756 2.0169 3.77499 0
M  V30 3165 C 297.082 1.58369 5.10709 0
M  V30 3166 C 298.382 3.43096 3.93805 0
M  V30 3167 H 300.076 2.16788 2.06502 0
M  V30 3168 H 297.622 1.04366 0.992154 0
M  V30 3169 H 299.575 0.864818 4.1243 0
M  V30 3170 H 298.299 -0.0336603 3.26583 0
M  V30 3171 H 296.958 2.08416 3.01593 0
M  V30 3172 H 296.606 0.595628 4.99461 0
M  V30 3173 H 296.306 2.30279 5.40597 0
M  V30 3174 H 297.83 1.52067 5.91361 0
M  V30 3175 H 299.244 3.39003 4.62331 0
M  V30 3176 H 297.641 4.13288 4.35101 0
M  V30 3177 H 298.711 3.83334 2.96957 0
M  V30 3178 N 300.054 -1.07777 1.14986 0
M  V30 3179 C 301.465 -1.61766 0.932127 0
M  V30 3180 C 301.816 -1.88974 -0.527581 0
M  V30 3181 O 300.941 -1.65198 -1.39781 0
M  V30 3182 C 301.536 -2.93891 1.68563 0
M  V30 3183 C 300.095 -3.44639 1.5133 0
M  V30 3184 C 299.242 -2.18767 1.704 0
M  V30 3185 H 302.193 -0.909201 1.30074 0
M  V30 3186 H 302.214 -3.62623 1.15259 0
M  V30 3187 H 301.726 -2.74057 2.74799 0
M  V30 3188 H 299.827 -3.69564 0.474702 0
M  V30 3189 H 299.94 -4.20966 2.28746 0
M  V30 3190 H 298.304 -2.28253 1.13016 0
M  V30 3191 H 299.087 -2.01433 2.77992 0
M  V30 3192 N 301.532 -0.945985 -1.26051 0
M  V30 3193 C 302.779 -0.596118 -1.93527 0
M  V30 3194 C 303.107 0.865559 -1.74179 0
M  V30 3195 O 302.362 1.63524 -1.0751 0
M  V30 3196 C 302.661 -0.890475 -3.46129 0
M  V30 3197 C 302.327 -2.3368 -3.85622 0
M  V30 3198 C 300.989 -2.73216 -3.96114 0
M  V30 3199 C 303.341 -3.27648 -4.05334 0
M  V30 3200 C 300.669 -4.05806 -4.2372 0
M  V30 3201 C 303.021 -4.59841 -4.3443 0
M  V30 3202 C 301.685 -4.99185 -4.43137 0
M  V30 3203 H 300.955 -0.218135 -0.708165 0
M  V30 3204 H 303.602 -1.1934 -1.49768 0
M  V30 3205 H 301.907 -0.210711 -3.91233 0
M  V30 3206 H 303.604 -0.598478 -3.96509 0
M  V30 3207 H 300.194 -2.02015 -3.78005 0
M  V30 3208 H 304.378 -2.98298 -3.96651 0
M  V30 3209 H 299.634 -4.35945 -4.28675 0
M  V30 3210 H 303.808 -5.32641 -4.48628 0
M  V30 3211 H 301.435 -6.01952 -4.64282 0
M  V30 3212 N 303.011 1.40521 -0.713556 0
M  V30 3213 C 303.959 2.32549 -0.0485227 0
M  V30 3214 C 304.953 1.51931 0.74922 0
M  V30 3215 O 306.159 1.67745 0.652816 0
M  V30 3216 H 302.534 0.751994 0.00311138 0
M  V30 3217 H 304.505 2.86291 -0.841443 0
M  V30 3218 C 303.254 3.36879 0.860687 0
M  V30 3219 H 302.577 3.98978 0.256246 0
M  V30 3220 H 304.017 4.03772 1.294 0
M  V30 3221 C 302.476 2.72197 1.9852 0
M  V30 3222 O 303.006 2.5837 3.07584 0
M  V30 3223 N 301.212 2.30612 1.76823 0
M  V30 3224 H 300.759 2.42059 0.881217 0
M  V30 3225 H 300.717 1.87672 2.52243 0
M  V30 3226 N 304.489 0.459591 1.5075 0
M  V30 3227 C 305.766 -0.160371 1.94941 0
M  V30 3228 C 306.146 -1.58048 1.39943 0
M  V30 3229 O 305.494 -2.206 0.595629 0
M  V30 3230 C 305.704 -0.115432 3.48809 0
M  V30 3231 C 307.052 -0.310026 4.23467 0
M  V30 3232 O 308.076 -0.192543 3.55679 0
M  V30 3233 O 306.935 -0.546031 5.43765 0
M  V30 3234 H 304.029 -0.117925 0.818549 0
M  V30 3235 H 306.575 0.519169 1.61563 0
M  V30 3236 H 305.347 0.87652 3.81357 0
M  V30 3237 H 304.97 -0.836928 3.88692 0
M  V30 3238 N 305.967 -1.56429 0.191757 0
M  V30 3239 C 307.378 -1.83912 -0.321428 0
M  V30 3240 C 307.729 -1.11231 -1.61623 0
M  V30 3241 O 306.854 -0.37202 -2.13178 0
M  V30 3242 C 307.449 -3.33624 -0.589961 0
M  V30 3243 C 306.008 -3.6153 -1.04753 0
M  V30 3244 C 305.155 -2.7714 -0.0943327 0
M  V30 3245 H 308.106 -1.53161 0.415612 0
M  V30 3246 H 308.127 -3.52213 -1.43966 0
M  V30 3247 H 307.639 -3.86495 0.352588 0
M  V30 3248 H 305.74 -3.14089 -2.00447 0
M  V30 3249 H 305.853 -4.69737 -0.942549 0
M  V30 3250 H 304.217 -2.47638 -0.595589 0
M  V30 3251 H 305 -3.32799 0.842601 0
M  V30 3252 N 307.445 0.0818655 -1.57387 0
M  V30 3253 C 308.692 0.782914 -1.86753 0
M  V30 3254 C 309.02 1.78082 -0.782118 0
M  V30 3255 O 308.275 1.94426 0.22295 0
M  V30 3256 C 308.574 1.53513 -3.22752 0
M  V30 3257 C 308.24 0.678134 -4.45771 0
M  V30 3258 C 306.902 0.441929 -4.79166 0
M  V30 3259 C 309.254 0.0832243 -5.21134 0
M  V30 3260 C 306.582 -0.398833 -5.85343 0
M  V30 3261 C 308.934 -0.744935 -6.28199 0
M  V30 3262 C 307.598 -0.991107 -6.60101 0
M  V30 3263 H 306.868 0.286489 -0.683378 0
M  V30 3264 H 309.515 0.0439808 -1.91449 0
M  V30 3265 H 307.82 2.34599 -3.138 0
M  V30 3266 H 309.517 2.08218 -3.42705 0
M  V30 3267 H 306.107 0.872357 -4.19628 0
M  V30 3268 H 310.291 0.252847 -4.95655 0
M  V30 3269 H 305.547 -0.598405 -6.08465 0
M  V30 3270 H 309.721 -1.21271 -6.8576 0
M  V30 3271 H 307.348 -1.64437 -7.42202 0
M  V30 3272 N 308.923 1.53595 0.353017 0
M  V30 3273 C 310.17 1.70385 1.09431 0
M  V30 3274 C 310.498 0.462113 1.88931 0
M  V30 3275 O 309.753 -0.556074 1.87633 0
M  V30 3276 C 310.052 2.91313 2.07054 0
M  V30 3277 C 309.718 4.27308 1.43939 0
M  V30 3278 C 308.38 4.64287 1.26454 0
M  V30 3279 C 310.732 5.11829 0.983883 0
M  V30 3280 C 308.06 5.83412 0.620226 0
M  V30 3281 C 310.412 6.31611 0.353516 0
M  V30 3282 C 309.076 6.67293 0.166272 0
M  V30 3283 H 308.346 0.623484 0.400436 0
M  V30 3284 H 310.993 1.87799 0.374655 0
M  V30 3285 H 309.298 2.68463 2.85368 0
M  V30 3286 H 310.995 3.01497 2.64387 0
M  V30 3287 H 307.585 3.98198 1.58543 0
M  V30 3288 H 311.769 4.838 1.10685 0
M  V30 3289 H 307.025 6.09639 0.463681 0
M  V30 3290 H 311.199 6.964 -0.00757555 0
M  V30 3291 H 308.826 7.59461 -0.335047 0
M  V30 3292 N 310.401 -0.613514 1.45168 0
M  V30 3293 C 311.647 -1.37471 1.49096 0
M  V30 3294 C 311.98 -1.93765 0.129901 0
M  V30 3295 O 311.255 -1.74707 -0.854858 0
M  V30 3296 C 311.538 -2.52701 2.56542 0
M  V30 3297 C 311.391 -2.01643 4.0207 0
M  V30 3298 C 312.71 -3.54849 2.60327 0
M  V30 3299 H 309.829 -0.498502 0.54283 0
M  V30 3300 H 312.471 -0.692125 1.76945 0
M  V30 3301 H 310.621 -3.10931 2.32926 0
M  V30 3302 H 312.293 -1.48108 4.36877 0
M  V30 3303 H 310.536 -1.32688 4.13009 0
M  V30 3304 H 311.207 -2.84681 4.72928 0
M  V30 3305 H 313.683 -3.0645 2.81474 0
M  V30 3306 H 312.559 -4.32973 3.37381 0
M  V30 3307 H 312.82 -4.10079 1.6519 0
M  V30 3308 N 311.879 -1.3236 -0.855495 0
M  V30 3309 C 313.125 -1.23054 -1.612 0
M  V30 3310 C 313.458 0.207404 -1.93089 0
M  V30 3311 O 312.733 1.14432 -1.57275 0
M  V30 3312 C 313.016 -2.08937 -2.93287 0
M  V30 3313 C 312.869 -3.61105 -2.68185 0
M  V30 3314 C 314.188 -1.94986 -3.94549 0
M  V30 3315 H 311.307 -0.448364 -0.584926 0
M  V30 3316 H 313.949 -1.62297 -0.987917 0
M  V30 3317 H 312.099 -1.75599 -3.46551 0
M  V30 3318 H 313.771 -4.04652 -2.21483 0
M  V30 3319 H 312.014 -3.83813 -2.02164 0
M  V30 3320 H 312.685 -4.16522 -3.62234 0
M  V30 3321 H 315.161 -2.24189 -3.5054 0
M  V30 3322 H 314.037 -2.57356 -4.84829 0
M  V30 3323 H 314.298 -0.917263 -4.3248 0
M  V30 3324 N 313.357 1.07166 -1.15556 0
M  V30 3325 C 314.267 2.17947 -0.868116 0
M  V30 3326 C 315.283 1.73297 0.156297 0
M  V30 3327 O 316.459 2.01392 -0.0182327 0
M  V30 3328 C 313.524 3.44789 -0.36355 0
M  V30 3329 C 312.585 4.03996 -1.45209 0
M  V30 3330 C 311.818 5.24783 -0.971508 0
M  V30 3331 O 312.041 5.70109 0.182194 0
M  V30 3332 O 310.975 5.75715 -1.75603 0
M  V30 3333 H 314.801 2.4503 -1.79427 0
M  V30 3334 H 312.386 1.16539 -0.934824 0
M  V30 3335 H 314.268 4.21307 -0.0887113 0
M  V30 3336 H 312.943 3.19253 0.534708 0
M  V30 3337 H 311.85 3.29009 -1.78056 0
M  V30 3338 H 313.183 4.33808 -2.32533 0
M  V30 3339 N 314.835 0.952656 1.25548 0
M  V30 3340 C 316.063 0.623496 1.97282 0
M  V30 3341 C 316.478 -0.803987 1.70826 0
M  V30 3342 O 315.835 -1.53755 0.983147 0
M  V30 3343 C 315.886 0.870209 3.5087 0
M  V30 3344 O 315.607 2.24156 3.76412 0
M  V30 3345 C 317.108 0.553164 4.39835 0
M  V30 3346 H 314.328 0.233931 0.628902 0
M  V30 3347 H 316.872 1.27649 1.59768 0
M  V30 3348 H 315.027 0.263652 3.86502 0
M  V30 3349 H 315.441 2.31021 4.70882 0
M  V30 3350 H 316.915 0.776342 5.46513 0
M  V30 3351 H 317.392 -0.512215 4.36203 0
M  V30 3352 H 317.998 1.13896 4.09766 0
M  V30 3353 N 316.313 -1.40141 0.720998 0
M  V30 3354 C 317.243 -2.33339 0.0867621 0
M  V30 3355 C 318.224 -1.53178 -0.739622 0
M  V30 3356 O 319.409 -1.81625 -0.687449 0
M  V30 3357 C 316.539 -3.37194 -0.831728 0
M  V30 3358 C 315.493 -4.27857 -0.110558 0
M  V30 3359 C 314.819 -5.22294 -1.14513 0
M  V30 3360 C 316.119 -5.11872 1.0385 0
M  V30 3361 H 317.813 -2.86626 0.865219 0
M  V30 3362 H 315.359 -1.37814 0.417516 0
M  V30 3363 H 317.312 -4.01335 -1.28485 0
M  V30 3364 H 316.036 -2.82314 -1.64214 0
M  V30 3365 H 314.695 -3.65176 0.322797 0
M  V30 3366 H 314.343 -4.63717 -1.94874 0
M  V30 3367 H 314.043 -5.83797 -0.667446 0
M  V30 3368 H 315.567 -5.89312 -1.59824 0
M  V30 3369 H 316.981 -5.69436 0.664482 0
M  V30 3370 H 315.378 -5.82445 1.4449 0
M  V30 3371 H 316.448 -4.4753 1.86668 0
M  V30 3372 N 317.792 -0.46758 -1.50504 0
M  V30 3373 C 319.032 0.0874114 -2.04213 0
M  V30 3374 C 319.396 1.37301 -1.34211 0
M  V30 3375 O 320.597 2.01015 -1.78456 0
M  V30 3376 C 318.868 0.270571 -3.56374 0
M  V30 3377 S 320.427 0.784623 -4.31728 0
M  V30 3378 H 317.245 0.0176153 -0.710782 0
M  V30 3379 H 319.847 -0.633915 -1.84937 0
M  V30 3380 H 318.551 -0.670942 -4.04878 0
M  V30 3381 H 318.082 1.01811 -3.79997 0
M  V30 3382 H 320.097 2.05849 -4.51487 0
M  V30 3383 N 319.27 1.56325 -0.20005 0
M  V30 3384 C 320.519 1.96895 0.437652 0
M  V30 3385 C 320.832 1.08999 1.62415 0
M  V30 3386 O 322.038 1.39372 2.32997 0
M  V30 3387 C 320.494 3.50198 0.830025 0
M  V30 3388 C 320.102 4.46765 -0.332461 0
M  V30 3389 C 321.846 3.99526 1.43453 0
M  V30 3390 C 319.753 5.91344 0.0811468 0
M  V30 3391 H 318.683 0.735209 0.167282 0
M  V30 3392 H 321.334 1.81148 -0.292853 0
M  V30 3393 H 319.716 3.61467 1.61734 0
M  V30 3394 H 320.89 4.47231 -1.11 0
M  V30 3395 H 319.205 4.07657 -0.848789 0
M  V30 3396 H 321.802 5.05025 1.75652 0
M  V30 3397 H 322.145 3.44122 2.34277 0
M  V30 3398 H 322.678 3.91393 0.71109 0
M  V30 3399 H 319.417 6.50685 -0.793033 0
M  V30 3400 H 318.937 5.94121 0.823445 0
M  V30 3401 H 320.616 6.44945 0.515252 0
M  V30 3402 N 320.748 -0.0735177 1.57428 0
M  V30 3403 C 321.988 -0.778363 1.89 0
M  V30 3404 C 322.352 -1.7483 0.793634 0
M  V30 3405 O 323.553 -2.49811 0.992367 0
M  V30 3406 C 321.824 -1.46929 3.25802 0
M  V30 3407 S 323.383 -2.20943 3.79117 0
M  V30 3408 H 320.201 -0.258874 0.662197 0
M  V30 3409 H 322.803 -0.0345338 1.95469 0
M  V30 3410 H 321.507 -0.749532 4.03497 0
M  V30 3411 H 321.038 -2.25258 3.22525 0
M  V30 3412 H 323.053 -3.47435 3.54265 0
M  V30 3413 N 322.226 -1.5378 -0.344866 0
M  V30 3414 C 323.472 -1.72158 -1.0832 0
M  V30 3415 C 323.827 -0.478218 -1.86362 0
M  V30 3416 O 323.12 0.529152 -1.84148 0
M  V30 3417 C 323.314 -2.92407 -2.05506 0
M  V30 3418 C 323.143 -4.28318 -1.37017 0
M  V30 3419 C 321.913 -4.92832 -1.11558 0
M  V30 3420 C 324.111 -5.08086 -0.797071 0
M  V30 3421 N 322.093 -6.12619 -0.396358 0
M  V30 3422 C 323.464 -6.1965 -0.208336 0
M  V30 3423 C 325.519 -4.92986 -0.697787 0
M  V30 3424 C 324.222 -7.17763 0.470023 0
M  V30 3425 C 326.248 -5.91391 -0.033171 0
M  V30 3426 C 325.61 -7.02292 0.544599 0
M  V30 3427 H 321.709 -0.683017 -0.380805 0
M  V30 3428 H 324.293 -1.91211 -0.366961 0
M  V30 3429 H 322.464 -2.74857 -2.74423 0
M  V30 3430 H 324.196 -2.9951 -2.72169 0
M  V30 3431 H 320.951 -4.52362 -1.40234 0
M  V30 3432 H 321.375 -6.7698 -0.0515119 0
M  V30 3433 H 326.017 -4.07414 -1.13022 0
M  V30 3434 H 323.735 -8.0291 0.914351 0
M  V30 3435 H 327.321 -5.81784 0.0430009 0
M  V30 3436 H 326.201 -7.77129 1.05073 0
M  V30 3437 N 323.704 0.605807 -1.45491 0
M  V30 3438 C 324.951 1.36476 -1.49601 0
M  V30 3439 C 325.279 1.94007 -0.138452 0
M  V30 3440 O 324.534 1.75638 0.863114 0
M  V30 3441 C 324.833 2.53012 -2.52428 0
M  V30 3442 C 324.499 2.13617 -3.97087 0
M  V30 3443 C 323.161 2.02587 -4.36477 0
M  V30 3444 C 325.513 1.82899 -4.88055 0
M  V30 3445 C 322.841 1.59064 -5.64726 0
M  V30 3446 C 325.193 1.40861 -6.16718 0
M  V30 3447 C 323.857 1.28391 -6.55036 0
M  V30 3448 H 323.127 0.499402 -0.547429 0
M  V30 3449 H 325.774 0.684546 -1.78847 0
M  V30 3450 H 324.079 3.26379 -2.16758 0
M  V30 3451 H 325.776 3.1124 -2.52845 0
M  V30 3452 H 322.366 2.23129 -3.65939 0
M  V30 3453 H 326.55 1.90317 -4.58359 0
M  V30 3454 H 321.806 1.48034 -5.93208 0
M  V30 3455 H 325.98 1.16138 -6.86648 0
M  V30 3456 H 323.607 0.944403 -7.54311 0
M  V30 3457 N 325.182 1.32811 0.848464 0
M  V30 3458 C 326.407 1.26882 1.6406 0
M  V30 3459 C 326.832 -0.15913 1.87426 0
M  V30 3460 O 326.19 -1.11258 1.43148 0
M  V30 3461 C 326.238 2.03997 2.97351 0
M  V30 3462 O 325.342 1.39201 3.88197 0
M  V30 3463 H 324.683 0.436982 0.499943 0
M  V30 3464 H 327.213 1.75224 1.0563 0
M  V30 3465 H 327.223 2.14403 3.47124 0
M  V30 3466 H 325.898 3.0783 2.79666 0
M  V30 3467 H 324.475 1.37381 3.46671 0
M  V30 3468 N 326.66 -1.06551 1.16123 0
M  V30 3469 C 327.907 -1.79302 0.941126 0
M  V30 3470 C 328.235 -1.87105 -0.531235 0
M  V30 3471 O 327.49 -1.35692 -1.41018 0
M  V30 3472 C 327.789 -3.23911 1.51052 0
M  V30 3473 C 327.455 -3.36193 3.00475 0
M  V30 3474 C 326.117 -3.39252 3.41265 0
M  V30 3475 C 328.469 -3.38326 3.96465 0
M  V30 3476 C 325.797 -3.42057 4.76669 0
M  V30 3477 C 328.149 -3.4267 5.31752 0
M  V30 3478 C 326.813 -3.4401 5.72026 0
M  V30 3479 H 326.083 -0.656111 0.344382 0
M  V30 3480 H 328.73 -1.25325 1.44796 0
M  V30 3481 H 327.035 -3.80723 0.925063 0
M  V30 3482 H 328.732 -3.78793 1.31593 0
M  V30 3483 H 325.322 -3.34516 2.6795 0
M  V30 3484 H 329.506 -3.35176 3.6602 0
M  V30 3485 H 324.762 -3.41398 5.07206 0
M  V30 3486 H 328.936 -3.43268 6.05921 0
M  V30 3487 H 326.563 -3.45937 6.76928 0
M  V30 3488 N 328.138 -0.959301 -1.25041 0
M  V30 3489 C 329.048 -0.489994 -2.29426 0
M  V30 3490 C 330.064 0.444944 -1.68215 0
M  V30 3491 O 331.24 0.320046 -1.98841 0
M  V30 3492 C 328.305 0.220309 -3.45999 0
M  V30 3493 C 327.366 -0.753418 -4.22637 0
M  V30 3494 C 326.599 -0.076918 -5.33645 0
M  V30 3495 O 326.822 1.13649 -5.58963 0
M  V30 3496 O 325.756 -0.764824 -5.97021 0
M  V30 3497 H 329.582 -1.35755 -2.71669 0
M  V30 3498 H 327.167 -0.725961 -1.30576 0
M  V30 3499 H 329.049 0.619677 -4.16819 0
M  V30 3500 H 327.724 1.06296 -3.0575 0
M  V30 3501 H 326.631 -1.20308 -3.54227 0
M  V30 3502 H 327.964 -1.56423 -4.66683 0
M  V30 3503 N 329.616 1.39756 -0.72842 0
M  V30 3504 C 330.546 2.33289 -0.0991354 0
M  V30 3505 C 331.527 1.53568 0.731489 0
M  V30 3506 O 332.712 1.81987 0.677807 0
M  V30 3507 C 329.842 3.3763 0.813834 0
M  V30 3508 C 328.796 4.2791 0.0878663 0
M  V30 3509 C 328.122 5.22894 1.11741 0
M  V30 3510 C 329.422 5.11314 -1.06563 0
M  V30 3511 H 331.116 2.86163 -0.880408 0
M  V30 3512 H 328.662 1.37591 -0.424819 0
M  V30 3513 H 330.615 4.0201 1.26355 0
M  V30 3514 H 329.339 2.83181 1.62715 0
M  V30 3515 H 327.998 3.65 -0.342159 0
M  V30 3516 H 327.646 4.64744 1.92412 0
M  V30 3517 H 327.346 5.84143 0.636477 0
M  V30 3518 H 328.87 5.90151 1.56697 0
M  V30 3519 H 330.284 5.69076 -0.694671 0
M  V30 3520 H 328.681 5.81671 -1.47577 0
M  V30 3521 H 329.751 4.46534 -1.89038 0
M  V30 3522 N 331.094 0.475555 1.50254 0
M  V30 3523 C 332.024 -0.30611 2.31485 0
M  V30 3524 C 333.005 -0.986228 1.38591 0
M  V30 3525 O 334.19 -0.982541 1.67511 0
M  V30 3526 C 331.32 -1.38588 3.1845 0
M  V30 3527 C 330.274 -0.827115 4.19932 0
M  V30 3528 C 329.6 -2.00551 4.95665 0
M  V30 3529 C 330.9 0.16463 5.2204 0
M  V30 3530 H 332.594 0.371866 2.97082 0
M  V30 3531 H 330.14 0.180282 1.42867 0
M  V30 3532 H 332.093 -1.94023 3.74076 0
M  V30 3533 H 330.817 -2.09269 2.50747 0
M  V30 3534 H 329.476 -0.294702 3.65414 0
M  V30 3535 H 329.124 -2.6994 4.2443 0
M  V30 3536 H 328.824 -1.63784 5.64313 0
M  V30 3537 H 330.348 -2.56468 5.54127 0
M  V30 3538 H 331.762 -0.300699 5.72511 0
M  V30 3539 H 330.159 0.446813 5.98434 0
M  V30 3540 H 331.229 1.08905 4.72512 0
M  V30 3541 N 332.573 -1.56217 0.208337 0
M  V30 3542 C 333.819 -1.98242 -0.427552 0
M  V30 3543 C 334.152 -1.09554 -1.60348 0
M  V30 3544 O 333.427 -0.15035 -1.93918 0
M  V30 3545 C 333.71 -3.4931 -0.874907 0
M  V30 3546 C 333.563 -4.48773 0.303751 0
M  V30 3547 C 334.882 -4.04424 -1.73577 0
M  V30 3548 H 332.001 -0.720744 -0.153936 0
M  V30 3549 H 334.643 -1.87586 0.30192 0
M  V30 3550 H 332.793 -3.58522 -1.49648 0
M  V30 3551 H 334.465 -4.51586 0.941682 0
M  V30 3552 H 332.708 -4.23194 0.953375 0
M  V30 3553 H 333.379 -5.51976 -0.0519883 0
M  V30 3554 H 335.855 -3.98075 -1.21143 0
M  V30 3555 H 334.731 -5.1047 -2.01771 0
M  V30 3556 H 334.992 -3.50494 -2.69456 0
M  V30 3557 N 334.051 0.0651679 -1.57465 0
M  V30 3558 C 335.467 0.420105 -1.53972 0
M  V30 3559 C 335.667 1.78782 -0.929474 0
M  V30 3560 O 334.723 2.46771 -0.534839 0
M  V30 3561 C 336.036 0.355084 -2.98596 0
M  V30 3562 C 337.584 0.434792 -3.09965 0
M  V30 3563 C 338.059 0.399609 -4.56253 0
M  V30 3564 N 339.55 0.459488 -4.60915 0
M  V30 3565 C 340.285 0.454584 -5.71595 0
M  V30 3566 N 339.781 0.404102 -6.9162 0
M  V30 3567 N 341.574 0.501635 -5.59857 0
M  V30 3568 H 333.725 -0.830328 -1.95498 0
M  V30 3569 H 335.988 -0.312244 -0.895102 0
M  V30 3570 H 335.694 -0.583357 -3.46828 0
M  V30 3571 H 335.568 1.16275 -3.58831 0
M  V30 3572 H 337.955 1.36366 -2.61703 0
M  V30 3573 H 338.036 -0.40157 -2.52628 0
M  V30 3574 H 337.68 -0.525436 -5.05175 0
M  V30 3575 H 337.61 1.25359 -5.11461 0
M  V30 3576 H 340.101 0.502482 -3.74544 0
M  V30 3577 H 340.414 0.404468 -7.71741 0
M  V30 3578 H 338.759 0.37069 -6.94011 0
M  V30 3579 H 341.95 0.538812 -4.64989 0
M  V30 3580 H 342.123 0.494345 -6.46112 0
M  V30 3581 N 335.529 1.53961 0.336706 0
M  V30 3582 C 336.459 1.85417 1.41925 0
M  V30 3583 C 337.44 0.709856 1.5458 0
M  V30 3584 O 338.625 0.962396 1.68676 0
M  V30 3585 C 335.755 2.06985 2.78881 0
M  V30 3586 C 334.709 3.22813 2.81026 0
M  V30 3587 C 334.035 3.29727 4.20932 0
M  V30 3588 C 335.335 4.60767 2.45949 0
M  V30 3589 H 337.029 2.76079 1.15848 0
M  V30 3590 H 334.575 1.32839 0.555859 0
M  V30 3591 H 336.528 2.27575 3.54665 0
M  V30 3592 H 335.252 1.13061 3.06406 0
M  V30 3593 H 333.911 3.0209 2.07695 0
M  V30 3594 H 333.559 2.33385 4.45579 0
M  V30 3595 H 333.259 4.07566 4.23277 0
M  V30 3596 H 334.783 3.52536 4.98549 0
M  V30 3597 H 336.197 4.81325 3.11446 0
M  V30 3598 H 334.594 5.4106 2.59566 0
M  V30 3599 H 335.664 4.6391 1.41122 0
M  V30 3600 N 337.007 -0.598083 1.45811 0
M  V30 3601 C 337.937 -1.71873 1.58057 0
M  V30 3602 C 338.918 -1.64533 0.431615 0
M  V30 3603 O 340.103 -1.82787 0.65595 0
M  V30 3604 C 337.233 -3.10495 1.55597 0
M  V30 3605 C 336.187 -3.32654 2.69305 0
M  V30 3606 C 335.513 -4.71646 2.51902 0
M  V30 3607 C 336.813 -3.21981 4.11248 0
M  V30 3608 H 338.507 -1.61881 2.51863 0
M  V30 3609 H 336.053 -0.777372 1.21214 0
M  V30 3610 H 338.006 -3.88699 1.6276 0
M  V30 3611 H 336.73 -3.2135 0.583255 0
M  V30 3612 H 335.389 -2.56843 2.61586 0
M  V30 3613 H 335.037 -4.79246 1.52748 0
M  V30 3614 H 334.737 -4.87426 3.2816 0
M  V30 3615 H 336.261 -5.52038 2.60933 0
M  V30 3616 H 337.675 -3.90049 4.20161 0
M  V30 3617 H 336.072 -3.49289 4.87972 0
M  V30 3618 H 337.142 -2.1928 4.32486 0
M  V30 3619 N 338.485 -1.33259 -0.841409 0
M  V30 3620 C 339.731 -1.24757 -1.59886 0
M  V30 3621 C 340.064 0.186913 -1.93298 0
M  V30 3622 O 339.339 1.12757 -1.5848 0
M  V30 3623 C 339.622 -2.12036 -2.91055 0
M  V30 3624 C 339.475 -3.63929 -2.6434 0
M  V30 3625 C 340.794 -1.9916 -3.92458 0
M  V30 3626 H 337.913 -0.454542 -0.580138 0
M  V30 3627 H 340.555 -1.63335 -0.970647 0
M  V30 3628 H 338.705 -1.79265 -3.44669 0
M  V30 3629 H 340.377 -4.06978 -2.17178 0
M  V30 3630 H 338.62 -3.85935 -1.98082 0
M  V30 3631 H 339.291 -4.20341 -3.57796 0
M  V30 3632 H 341.767 -2.27895 -3.48143 0
M  V30 3633 H 340.643 -2.62484 -4.82072 0
M  V30 3634 H 340.904 -0.963082 -4.31482 0
M  V30 3635 N 339.963 1.05934 -1.16686 0
M  V30 3636 C 341.203 1.80382 -0.961345 0
M  V30 3637 C 341.567 1.85331 0.501643 0
M  V30 3638 O 342.768 2.55795 0.825986 0
M  V30 3639 C 341.039 3.20777 -1.57596 0
M  V30 3640 S 342.598 4.11795 -1.51559 0
M  V30 3641 H 339.416 0.621332 -0.345641 0
M  V30 3642 H 342.018 1.27157 -1.48497 0
M  V30 3643 H 340.722 3.14773 -2.63337 0
M  V30 3644 H 340.253 3.79078 -1.05182 0
M  V30 3645 H 342.268 4.93485 -0.518374 0
M  V30 3646 N 341.441 0.965919 1.2453 0
M  V30 3647 C 342.852 0.665929 1.7442 0
M  V30 3648 C 343.203 -0.818407 1.78316 0
M  V30 3649 O 342.328 -1.64037 1.41141 0
M  V30 3650 C 342.923 1.20211 3.16757 0
M  V30 3651 C 341.482 0.952059 3.6416 0
M  V30 3652 C 340.629 1.33848 2.42858 0
M  V30 3653 H 343.58 1.14144 1.10258 0
M  V30 3654 H 343.601 0.567544 3.76244 0
M  V30 3655 H 343.113 2.28244 3.13889 0
M  V30 3656 H 341.214 -0.112821 3.72429 0
M  V30 3657 H 341.327 1.59645 4.51719 0
M  V30 3658 H 339.691 0.756864 2.43195 0
M  V30 3659 H 340.474 2.42827 2.42673 0
M  V30 3660 N 342.919 -1.39368 0.735821 0
M  V30 3661 C 344.144 -2.05319 0.293052 0
M  V30 3662 C 344.569 -1.55115 -1.064 0
M  V30 3663 O 343.927 -0.695261 -1.67439 0
M  V30 3664 C 343.975 -3.59305 0.305323 0
M  V30 3665 O 343.079 -4.06299 -0.706761 0
M  V30 3666 H 342.42 -0.650529 0.13307 0
M  V30 3667 H 344.95 -1.78386 1.00197 0
M  V30 3668 H 344.96 -4.07724 0.149997 0
M  V30 3669 H 343.635 -3.95207 1.29553 0
M  V30 3670 H 342.212 -3.69292 -0.517504 0
M  V30 3671 N 344.397 -0.483516 -1.5 0
M  V30 3672 C 345.344 0.304164 -2.28787 0
M  V30 3673 C 346.314 0.976114 -1.34392 0
M  V30 3674 O 347.499 0.986156 -1.63339 0
M  V30 3675 C 344.639 1.37298 -3.16612 0
M  V30 3676 C 343.752 0.714561 -4.26049 0
M  V30 3677 C 342.887 1.76232 -5.01114 0
M  V30 3678 C 341.926 1.08483 -6.0241 0
M  V30 3679 N 341.063 2.076 -6.70706 0
M  V30 3680 H 345.903 -0.373981 -2.95644 0
M  V30 3681 H 343.44 -0.196275 -1.45785 0
M  V30 3682 H 345.398 2.00445 -3.65893 0
M  V30 3683 H 344.028 2.02012 -2.51776 0
M  V30 3684 H 343.08 -0.0297798 -3.80388 0
M  V30 3685 H 344.392 0.180383 -4.98474 0
M  V30 3686 H 343.546 2.46929 -5.54176 0
M  V30 3687 H 342.285 2.33033 -4.28424 0
M  V30 3688 H 341.29 0.363545 -5.48597 0
M  V30 3689 H 342.515 0.523551 -6.77079 0
M  V30 3690 H 340.461 2.63394 -6.00799 0
M  V30 3691 H 340.378 1.59201 -7.39047 0
M  V30 3692 H 341.646 2.77639 -7.2838 0
M  V30 3693 N 345.875 1.56104 -0.216619 0
M  V30 3694 C 346.838 2.18819 0.681962 0
M  V30 3695 C 347.838 1.14866 1.12528 0
M  V30 3696 O 349.028 1.40128 1.03488 0
M  V30 3697 C 346.16 2.80756 1.93362 0
M  V30 3698 H 347.353 2.99595 0.135254 0
M  V30 3699 H 344.906 1.56265 0.0330003 0
M  V30 3700 H 345.641 2.03837 2.52232 0
M  V30 3701 H 345.426 3.56876 1.62426 0
M  V30 3702 H 346.916 3.28844 2.57393 0
M  V30 3703 N 347.353 -0.0568162 1.57498 0
M  V30 3704 C 348.602 -0.752001 1.87157 0
M  V30 3705 C 348.915 -1.77978 0.811375 0
M  V30 3706 O 350.121 -2.52559 0.996293 0
M  V30 3707 C 348.577 -1.38844 3.3204 0
M  V30 3708 C 348.185 -0.398456 4.46225 0
M  V30 3709 C 349.929 -2.06512 3.70882 0
M  V30 3710 C 347.836 -1.04166 5.82154 0
M  V30 3711 H 346.766 -0.28461 0.698222 0
M  V30 3712 H 349.417 -0.00561272 1.83499 0
M  V30 3713 H 347.799 -2.1836 3.30356 0
M  V30 3714 H 348.973 0.367977 4.59328 0
M  V30 3715 H 347.288 0.174592 4.16034 0
M  V30 3716 H 349.885 -2.55437 4.6974 0
M  V30 3717 H 350.228 -2.87117 3.01445 0
M  V30 3718 H 350.761 -1.33808 3.7462 0
M  V30 3719 H 347.5 -0.275614 6.5492 0
M  V30 3720 H 347.02 -1.7786 5.72823 0
M  V30 3721 H 348.699 -1.55715 6.27982 0
M  V30 3722 N 348.832 -1.54138 -0.328536 0
M  V30 3723 C 350.079 -1.72105 -1.06706 0
M  V30 3724 C 350.407 -0.492111 -1.88171 0
M  V30 3725 O 349.662 0.526153 -1.88494 0
M  V30 3726 C 349.961 -2.9457 -2.02393 0
M  V30 3727 C 349.627 -4.29544 -1.37122 0
M  V30 3728 C 348.289 -4.6624 -1.19052 0
M  V30 3729 C 350.641 -5.1333 -0.902331 0
M  V30 3730 C 347.969 -5.84325 -0.527331 0
M  V30 3731 C 350.321 -6.32094 -0.252988 0
M  V30 3732 C 348.985 -6.67473 -0.0600901 0
M  V30 3733 H 348.255 -0.629775 -0.390466 0
M  V30 3734 H 350.902 -1.88372 -0.34473 0
M  V30 3735 H 349.207 -2.72969 -2.81061 0
M  V30 3736 H 350.904 -3.05665 -2.59557 0
M  V30 3737 H 347.494 -4.0067 -1.52188 0
M  V30 3738 H 351.678 -4.855 -1.02974 0
M  V30 3739 H 346.934 -6.103 -0.366634 0
M  V30 3740 H 351.108 -6.96299 0.118366 0
M  V30 3741 H 348.735 -7.58832 0.455828 0
M  V30 3742 N 350.31 0.590341 -1.46126 0
M  V30 3743 C 351.557 1.34882 -1.5104 0
M  V30 3744 C 351.885 1.93849 -0.159021 0
M  V30 3745 O 351.14 1.76544 0.844436 0
M  V30 3746 C 351.439 2.5032 -2.55097 0
M  V30 3747 C 351.105 2.09394 -3.99331 0
M  V30 3748 C 349.767 1.97947 -4.38601 0
M  V30 3749 C 352.119 1.77712 -4.89967 0
M  V30 3750 C 349.447 1.53065 -5.66381 0
M  V30 3751 C 351.799 1.34312 -6.18177 0
M  V30 3752 C 350.463 1.21436 -6.56361 0
M  V30 3753 H 349.733 0.493568 -0.552695 0
M  V30 3754 H 352.38 0.665539 -1.79563 0
M  V30 3755 H 350.685 3.24062 -2.20207 0
M  V30 3756 H 352.382 3.08541 -2.56132 0
M  V30 3757 H 348.972 2.19235 -3.68285 0
M  V30 3758 H 353.156 1.85445 -4.60352 0
M  V30 3759 H 348.412 1.41733 -5.94745 0
M  V30 3760 H 352.586 1.08849 -6.87841 0
M  V30 3761 H 350.213 0.864345 -7.5527 0
M  V30 3762 N 351.788 1.33704 0.83433 0
M  V30 3763 C 352.735 1.24335 1.94447 0
M  V30 3764 C 353.705 0.120991 1.65659 0
M  V30 3765 O 354.89 0.300035 1.88426 0
M  V30 3766 C 352.03 0.993124 3.30501 0
M  V30 3767 C 351.143 2.20217 3.71657 0
M  V30 3768 C 350.278 1.88572 4.96602 0
M  V30 3769 C 349.317 3.05683 5.30306 0
M  V30 3770 N 348.454 2.73997 6.46429 0
M  V30 3771 H 353.294 2.1928 2.01792 0
M  V30 3772 H 350.831 1.09035 0.987404 0
M  V30 3773 H 352.789 0.828467 4.08892 0
M  V30 3774 H 351.419 0.0803902 3.227 0
M  V30 3775 H 350.471 2.47642 2.88752 0
M  V30 3776 H 351.783 3.07752 3.92543 0
M  V30 3777 H 350.937 1.68776 5.82752 0
M  V30 3778 H 349.676 0.982799 4.77695 0
M  V30 3779 H 348.681 3.26088 4.42659 0
M  V30 3780 H 349.906 3.96737 5.51159 0
M  V30 3781 H 347.852 1.86268 6.28999 0
M  V30 3782 H 347.769 3.55064 6.67432 0
M  V30 3783 H 349.037 2.57679 7.35678 0
M  V30 3784 N 353.266 -1.05314 1.17247 0
M  V30 3785 C 354.214 -2.15137 0.884238 0
M  V30 3786 C 355.208 -1.68729 -0.15063 0
M  V30 3787 O 356.414 -1.8 -0.00366673 0
M  V30 3788 H 352.789 -0.702471 0.2684 0
M  V30 3789 H 354.76 -2.36652 1.81764 0
M  V30 3790 C 353.509 -3.45243 0.412659 0
M  V30 3791 H 352.832 -3.81352 1.20043 0
M  V30 3792 H 354.272 -4.23263 0.249858 0
M  V30 3793 C 352.731 -3.25487 -0.86948 0
M  V30 3794 O 353.261 -3.51938 -1.93655 0
M  V30 3795 N 351.467 -2.78875 -0.817147 0
M  V30 3796 H 351.014 -2.57549 0.0514211 0
M  V30 3797 H 350.972 -2.66036 -1.67547 0
M  V30 3798 N 354.744 -0.972509 -1.24016 0
M  V30 3799 C 355.99 -0.637978 -1.92504 0
M  V30 3800 C 356.323 0.825383 -1.75787 0
M  V30 3801 O 355.598 1.59442 -1.11393 0
M  V30 3802 C 355.881 -1.01942 -3.45369 0
M  V30 3803 C 355.734 -2.53983 -3.71231 0
M  V30 3804 C 357.053 -0.55751 -4.36555 0
M  V30 3805 H 354.172 -0.233248 -0.699117 0
M  V30 3806 H 356.814 -1.21238 -1.46292 0
M  V30 3807 H 354.964 -0.530656 -3.84859 0
M  V30 3808 H 356.636 -3.10374 -3.41271 0
M  V30 3809 H 354.879 -2.96968 -3.16216 0
M  V30 3810 H 355.55 -2.75723 -4.78206 0
M  V30 3811 H 358.026 -0.977029 -4.04467 0
M  V30 3812 H 356.902 -0.85292 -5.42233 0
M  V30 3813 H 357.163 0.542328 -4.38761 0
M  V30 3814 N 356.222 1.38976 -0.743202 0
M  V30 3815 C 357.155 2.28128 -0.0572165 0
M  V30 3816 C 358.133 1.44827 0.739182 0
M  V30 3817 O 359.317 1.74207 0.720009 0
M  V30 3818 C 356.444 3.25796 0.926001 0
M  V30 3819 C 355.49 4.25947 0.217099 0
M  V30 3820 S 356.323 5.24604 -1.07477 0
M  V30 3821 C 357.479 6.25829 -0.0943545 0
M  V30 3822 H 357.712 2.85961 -0.813246 0
M  V30 3823 H 355.245 1.44822 -0.535341 0
M  V30 3824 H 357.203 3.82583 1.48797 0
M  V30 3825 H 355.864 2.66966 1.65493 0
M  V30 3826 H 355.057 4.94746 0.961372 0
M  V30 3827 H 354.659 3.73002 -0.273059 0
M  V30 3828 H 356.951 6.73411 0.743239 0
M  V30 3829 H 357.894 7.0412 -0.749713 0
M  V30 3830 H 358.302 5.63797 0.281706 0
M  V30 3831 N 357.7 0.491464 1.49741 0
M  V30 3832 C 358.648 -0.305837 2.30581 0
M  V30 3833 C 359.642 -0.971642 1.38764 0
M  V30 3834 O 360.848 -0.90042 1.5586 0
M  V30 3835 H 357.223 -0.117482 0.742767 0
M  V30 3836 H 359.194 0.396093 2.95759 0
M  V30 3837 C 357.943 -1.36319 3.19863 0
M  V30 3838 H 357.266 -0.860258 3.90435 0
M  V30 3839 H 358.706 -1.89323 3.79385 0
M  V30 3840 C 357.165 -2.37621 2.38826 0
M  V30 3841 O 357.695 -3.43311 2.08567 0
M  V30 3842 N 355.901 -2.09849 2.01026 0
M  V30 3843 H 355.448 -1.23922 2.25834 0
M  V30 3844 H 355.406 -2.77859 1.47112 0
M  V30 3845 N 359.178 -1.55987 0.224894 0
M  V30 3846 C 360.108 -2.23426 -0.678457 0
M  V30 3847 C 361.089 -1.20709 -1.19847 0
M  V30 3848 O 362.274 -1.49304 -1.24186 0
M  V30 3849 C 359.404 -2.91676 -1.88527 0
M  V30 3850 C 358.358 -4.00893 -1.49896 0
M  V30 3851 C 357.684 -4.56455 -2.78483 0
M  V30 3852 C 358.984 -5.17769 -0.686461 0
M  V30 3853 H 360.678 -2.99175 -0.116173 0
M  V30 3854 H 358.224 -1.43897 -0.054436 0
M  V30 3855 H 360.177 -3.37547 -2.5227 0
M  V30 3856 H 358.901 -2.1338 -2.47258 0
M  V30 3857 H 357.56 -3.55758 -0.884985 0
M  V30 3858 H 357.208 -3.74886 -3.35365 0
M  V30 3859 H 356.908 -5.30169 -2.53368 0
M  V30 3860 H 358.432 -5.05047 -3.43162 0
M  V30 3861 H 359.846 -5.60001 -1.22767 0
M  V30 3862 H 358.243 -5.97735 -0.532259 0
M  V30 3863 H 359.313 -4.83932 0.306196 0
M  V30 3864 N 360.656 0.0484629 -1.57525 0
M  V30 3865 C 361.905 0.742065 -1.87553 0
M  V30 3866 C 362.218 1.77545 -0.820802 0
M  V30 3867 O 363.424 2.52027 -1.00967 0
M  V30 3868 C 361.88 1.37081 -3.32771 0
M  V30 3869 C 361.488 0.374786 -4.4643 0
M  V30 3870 C 363.232 2.04542 -3.71972 0
M  V30 3871 C 361.139 1.01077 -5.82698 0
M  V30 3872 H 360.069 0.280903 -0.699721 0
M  V30 3873 H 362.72 -0.00411877 -1.835 0
M  V30 3874 H 361.102 2.16605 -3.31509 0
M  V30 3875 H 362.276 -0.392331 -4.59127 0
M  V30 3876 H 360.591 -0.196653 -4.15935 0
M  V30 3877 H 363.188 2.52943 -4.71088 0
M  V30 3878 H 363.531 2.85515 -3.02964 0
M  V30 3879 H 364.064 1.31819 -3.75325 0
M  V30 3880 H 360.803 0.240878 -6.55057 0
M  V30 3881 H 360.323 1.74819 -5.73758 0
M  V30 3882 H 362.002 1.52383 -6.28799 0
M  V30 3883 N 362.134 1.5431 0.320358 0
M  V30 3884 C 363.411 1.63322 1.07635 0
M  V30 3885 C 363.791 0.46912 2.05821 0
M  V30 3886 O 363.139 -0.536274 2.22118 0
M  V30 3887 C 363.349 3.00465 1.77544 0
M  V30 3888 C 364.697 3.56621 2.30449 0
M  V30 3889 O 365.721 3.02791 1.87606 0
M  V30 3890 O 364.58 4.5083 3.08892 0
M  V30 3891 H 361.674 0.661502 0.496331 0
M  V30 3892 H 364.22 1.66656 0.319992 0
M  V30 3893 H 362.992 3.76629 1.06143 0
M  V30 3894 H 362.615 3.00824 2.59982 0
M  V30 3895 N 363.613 -0.582584 1.46437 0
M  V30 3896 C 364.86 -1.34079 1.51753 0
M  V30 3897 C 365.188 -1.93762 0.169299 0
M  V30 3898 O 364.443 -1.76989 -0.835062 0
M  V30 3899 C 364.742 -2.48964 2.56421 0
M  V30 3900 C 364.408 -2.07273 4.00436 0
M  V30 3901 C 363.07 -1.95618 4.39644 0
M  V30 3902 C 365.422 -1.75111 4.90903 0
M  V30 3903 C 362.75 -1.5006 5.67185 0
M  V30 3904 C 365.102 -1.31032 6.18881 0
M  V30 3905 C 363.766 -1.17954 6.56996 0
M  V30 3906 H 363.036 -0.49063 0.555304 0
M  V30 3907 H 365.683 -0.656007 1.79913 0
M  V30 3908 H 363.988 -3.22889 2.21923 0
M  V30 3909 H 365.685 -3.07178 2.57765 0
M  V30 3910 H 362.275 -2.17279 3.69443 0
M  V30 3911 H 366.459 -1.83001 4.61329 0
M  V30 3912 H 361.715 -1.38577 5.95488 0
M  V30 3913 H 365.889 -1.052 6.88408 0
M  V30 3914 H 363.516 -0.824279 7.55718 0
M  V30 3915 N 365.091 -1.34144 -0.827227 0
M  V30 3916 C 366.337 -1.26446 -1.58554 0
M  V30 3917 C 366.67 0.1664 -1.93486 0
M  V30 3918 O 365.945 1.1107 -1.59667 0
M  V30 3919 C 366.228 -2.15111 -2.8879 0
M  V30 3920 C 366.081 -3.66712 -2.60465 0
M  V30 3921 C 367.4 -2.03311 -3.90324 0
M  V30 3922 H 364.519 -0.46067 -0.575284 0
M  V30 3923 H 367.161 -1.64356 -0.953269 0
M  V30 3924 H 365.311 -1.8291 -3.42748 0
M  V30 3925 H 366.983 -4.09259 -2.1285 0
M  V30 3926 H 365.226 -3.88014 -1.93978 0
M  V30 3927 H 365.897 -4.24112 -3.53317 0
M  V30 3928 H 368.373 -2.31574 -3.45706 0
M  V30 3929 H 367.249 -2.67582 -4.79261 0
M  V30 3930 H 367.51 -1.00879 -4.30437 0
M  V30 3931 N 366.569 1.04691 -1.17803 0
M  V30 3932 C 367.532 2.10724 -0.901545 0
M  V30 3933 C 368.532 1.6042 0.110437 0
M  V30 3934 O 369.722 1.7377 -0.122303 0
M  V30 3935 C 366.854 3.39084 -0.351409 0
M  V30 3936 H 368.047 2.36686 -1.84174 0
M  V30 3937 H 365.6 1.21015 -0.98919 0
M  V30 3938 H 366.335 3.18782 0.59569 0
M  V30 3939 H 366.12 3.76909 -1.08083 0
M  V30 3940 H 367.61 4.17227 -0.176451 0
M  V30 3941 N 368.047 0.979072 1.23499 0
M  V30 3942 C 369.296 0.642751 1.91185 0
M  V30 3943 C 369.609 -0.827253 1.77245 0
M  V30 3944 O 370.815 -1.27458 2.39722 0
M  V30 3945 C 369.271 1.09901 3.42709 0
M  V30 3946 C 368.879 2.59327 3.65313 0
M  V30 3947 C 370.623 0.836371 4.16179 0
M  V30 3948 C 368.53 2.98627 5.10467 0
M  V30 3949 H 367.46 0.236698 0.715884 0
M  V30 3950 H 370.111 1.1868 1.39955 0
M  V30 3951 H 368.493 0.48319 3.93041 0
M  V30 3952 H 369.667 3.26136 3.25533 0
M  V30 3953 H 367.982 2.83323 3.05151 0
M  V30 3954 H 370.579 1.10586 5.23139 0
M  V30 3955 H 370.922 -0.227509 4.15678 0
M  V30 3956 H 371.455 1.41371 3.71832 0
M  V30 3957 H 368.194 4.04133 5.16098 0
M  V30 3958 H 367.714 2.3651 5.51201 0
M  V30 3959 H 369.393 2.89159 5.78788 0
M  V30 3960 N 369.525 -1.3858 0.750561 0
M  V30 3961 C 370.455 -2.33102 0.136237 0
M  V30 3962 C 371.436 -1.54713 -0.706965 0
M  V30 3963 O 372.621 -1.83043 -0.648769 0
M  V30 3964 C 369.751 -3.38882 -0.760017 0
M  V30 3965 C 368.705 -4.27995 -0.0197785 0
M  V30 3966 C 368.031 -5.24605 -1.03408 0
M  V30 3967 C 369.331 -5.09554 1.14684 0
M  V30 3968 H 371.025 -2.84726 0.925822 0
M  V30 3969 H 368.571 -1.36898 0.446654 0
M  V30 3970 H 370.524 -4.0397 -1.19943 0
M  V30 3971 H 369.248 -2.85734 -1.58189 0
M  V30 3972 H 367.907 -3.64409 0.400184 0
M  V30 3973 H 367.555 -4.67746 -1.84994 0
M  V30 3974 H 367.255 -5.85081 -0.543464 0
M  V30 3975 H 368.779 -5.9257 -1.47288 0
M  V30 3976 H 370.193 -5.67899 0.785118 0
M  V30 3977 H 368.59 -5.7925 1.56812 0
M  V30 3978 H 369.66 -4.4347 1.96118 0
M  V30 3979 N 371.003 -0.499398 -1.49478 0
M  V30 3980 C 372.414 -0.051215 -1.8663 0
M  V30 3981 C 372.765 1.36238 -1.41186 0
M  V30 3982 O 371.89 2.01502 -0.789051 0
M  V30 3983 C 372.485 -0.0861651 -3.3869 0
M  V30 3984 C 371.044 0.30667 -3.75149 0
M  V30 3985 C 370.191 -0.459397 -2.73468 0
M  V30 3986 H 373.142 -0.712264 -1.41818 0
M  V30 3987 H 373.163 0.709507 -3.73826 0
M  V30 3988 H 372.675 -1.11512 -3.71735 0
M  V30 3989 H 370.776 1.33892 -3.47712 0
M  V30 3990 H 370.889 -0.0116669 -4.79099 0
M  V30 3991 H 369.253 0.0905645 -2.54539 0
M  V30 3992 H 370.036 -1.4884 -3.09357 0
M  V30 3993 N 372.481 1.55866 -0.233164 0
M  V30 3994 C 373.711 2.02704 0.399325 0
M  V30 3995 C 374.119 1.11204 1.53069 0
M  V30 3996 O 373.462 0.116182 1.83332 0
M  V30 3997 C 373.524 3.45844 0.981429 0
M  V30 3998 C 373.188 4.56997 -0.0159561 0
M  V30 3999 C 374.185 5.13384 -0.820552 0
M  V30 4000 C 371.87 5.0211 -0.138072 0
M  V30 4001 C 373.864 6.13365 -1.73386 0
M  V30 4002 C 371.551 6.01926 -1.0549 0
M  V30 4003 C 372.549 6.57431 -1.85132 0
M  V30 4004 O 372.237 7.55302 -2.75272 0
M  V30 4005 H 371.969 0.668459 0.100692 0
M  V30 4006 H 374.523 2.02387 -0.35052 0
M  V30 4007 H 372.753 3.43267 1.78058 0
M  V30 4008 H 374.442 3.76262 1.52255 0
M  V30 4009 H 375.208 4.79372 -0.736721 0
M  V30 4010 H 371.087 4.5858 0.471737 0
M  V30 4011 H 374.631 6.56614 -2.35592 0
M  V30 4012 H 370.528 6.35359 -1.1397 0
M  V30 4013 H 371.296 7.72867 -2.69477 0
M  V30 4014 N 373.959 -0.0401083 1.57549 0
M  V30 4015 C 375.206 -0.733125 1.88763 0
M  V30 4016 C 375.534 -1.75946 0.829058 0
M  V30 4017 O 374.789 -1.94949 -0.171323 0
M  V30 4018 C 375.088 -1.44902 3.26708 0
M  V30 4019 C 374.754 -0.559707 4.47413 0
M  V30 4020 C 373.416 -0.314731 4.8017 0
M  V30 4021 C 375.768 0.0549743 5.21171 0
M  V30 4022 C 373.096 0.553886 5.8408 0
M  V30 4023 C 375.448 0.911229 6.26003 0
M  V30 4024 C 374.112 1.16577 6.57241 0
M  V30 4025 H 373.382 -0.268269 0.690733 0
M  V30 4026 H 376.029 0.00679408 1.91499 0
M  V30 4027 H 374.334 -2.26197 3.1991 0
M  V30 4028 H 376.031 -1.99058 3.48105 0
M  V30 4029 H 372.621 -0.760793 4.21794 0
M  V30 4030 H 376.805 -0.121344 4.96152 0
M  V30 4031 H 372.061 0.759518 6.06664 0
M  V30 4032 H 376.235 1.3941 6.82303 0
M  V30 4033 H 373.862 1.84058 7.37582 0
M  V30 4034 N 375.437 -1.54477 -0.31217 0
M  V30 4035 C 376.683 -1.73483 -1.0503 0
M  V30 4036 C 377.016 -0.513125 -1.87298 0
M  V30 4037 O 376.291 0.489864 -1.8823 0
M  V30 4038 C 376.574 -3.01723 -1.96558 0
M  V30 4039 C 376.427 -4.3417 -1.17545 0
M  V30 4040 C 377.746 -3.25772 -2.95907 0
M  V30 4041 H 374.865 -0.631222 -0.380432 0
M  V30 4042 H 377.507 -1.87184 -0.325932 0
M  V30 4043 H 375.657 -2.90174 -2.58324 0
M  V30 4044 H 377.329 -4.5762 -0.581513 0
M  V30 4045 H 375.572 -4.31159 -0.477925 0
M  V30 4046 H 376.243 -5.20143 -1.84811 0
M  V30 4047 H 378.719 -3.36857 -2.44267 0
M  V30 4048 H 377.595 -4.16838 -3.57123 0
M  V30 4049 H 377.856 -2.43537 -3.68974 0
M  V30 4050 N 376.915 0.57481 -1.46744 0
M  V30 4051 C 377.878 1.66533 -1.57478 0
M  V30 4052 C 378.878 1.54338 -0.451263 0
M  V30 4053 O 380.068 1.58814 -0.715813 0
M  V30 4054 C 377.2 3.05999 -1.50259 0
M  V30 4055 H 378.393 1.58372 -2.54673 0
M  V30 4056 H 375.946 0.793301 -1.34672 0
M  V30 4057 H 376.681 3.19709 -0.543725 0
M  V30 4058 H 376.466 3.16259 -2.31781 0
M  V30 4059 H 377.956 3.8537 -1.60872 0
M  V30 4060 N 378.394 1.34581 0.820102 0
M  V30 4061 C 379.324 1.29038 1.94606 0
M  V30 4062 C 380.305 0.1673 1.69275 0
M  V30 4063 O 381.49 0.360112 1.90832 0
M  V30 4064 C 378.62 1.04793 3.31113 0
M  V30 4065 C 377.574 2.13597 3.70891 0
M  V30 4066 C 376.9 1.74537 5.05412 0
M  V30 4067 C 378.2 3.55451 3.8269 0
M  V30 4068 H 379.894 2.23248 1.99501 0
M  V30 4069 H 377.44 1.0747 0.958449 0
M  V30 4070 H 379.393 0.995592 4.0947 0
M  V30 4071 H 378.117 0.0702565 3.26524 0
M  V30 4072 H 376.776 2.17905 2.9481 0
M  V30 4073 H 376.424 0.754226 4.97313 0
M  V30 4074 H 376.124 2.47361 5.32997 0
M  V30 4075 H 377.648 1.70803 5.86224 0
M  V30 4076 H 379.062 3.5354 4.51312 0
M  V30 4077 H 377.459 4.26922 4.21732 0
M  V30 4078 H 378.529 3.92587 2.84611 0
M  V30 4079 N 379.872 -1.04064 1.18357 0
M  V30 4080 C 381.12 -1.76915 0.977013 0
M  V30 4081 C 381.441 -1.88624 -0.494577 0
M  V30 4082 O 380.711 -1.41125 -1.3587 0
M  V30 4083 H 379.291 -0.65535 0.358504 0
M  V30 4084 H 381.953 -1.25592 1.49039 0
M  V30 4085 H 381.049 -2.78178 1.41504 0
M  V30 4086 N 381.35 -0.985608 -1.22978 0
M  V30 4087 C 382.578 -0.675582 -1.95559 0
M  V30 4088 C 382.993 0.758413 -1.72897 0
M  V30 4089 O 382.35 1.51094 -1.02357 0
M  V30 4090 C 382.401 -0.96293 -3.48439 0
M  V30 4091 O 382.122 -2.34057 -3.70336 0
M  V30 4092 C 383.623 -0.669585 -4.38214 0
M  V30 4093 H 380.843 -0.250523 -0.622478 0
M  V30 4094 H 383.387 -1.3184 -1.56328 0
M  V30 4095 H 381.542 -0.366033 -3.85667 0
M  V30 4096 H 381.956 -2.43424 -4.64591 0
M  V30 4097 H 383.43 -0.920967 -5.44263 0
M  V30 4098 H 383.907 0.396383 -4.37408 0
M  V30 4099 H 384.513 -1.2472 -4.06602 0
M  V30 4100 N 382.828 1.3818 -0.7579 0
M  V30 4101 C 383.738 2.3421 -0.135247 0
M  V30 4102 C 384.754 1.59487 0.695683 0
M  V30 4103 O 385.93 1.91657 0.618832 0
M  V30 4104 C 382.995 3.3862 0.744139 0
M  V30 4105 C 382.056 4.2918 -0.101658 0
M  V30 4106 C 381.289 5.28603 0.735851 0
M  V30 4107 O 381.512 5.35166 1.97366 0
M  V30 4108 O 380.446 6.01707 0.152372 0
M  V30 4109 H 384.272 2.8916 -0.928436 0
M  V30 4110 H 381.857 1.40101 -0.518855 0
M  V30 4111 H 383.739 4.02539 1.2466 0
M  V30 4112 H 382.414 2.86019 1.51575 0
M  V30 4113 H 381.321 3.68407 -0.650167 0
M  V30 4114 H 382.654 4.85048 -0.836024 0
M  V30 4115 N 384.306 0.507319 1.49211 0
M  V30 4116 C 385.236 -0.256939 2.32082 0
M  V30 4117 C 386.217 -0.956609 1.40652 0
M  V30 4118 O 387.402 -0.946788 1.69557 0
M  V30 4119 C 384.532 -1.31802 3.21318 0
M  V30 4120 C 383.486 -0.737855 4.21592 0
M  V30 4121 C 382.812 -1.89992 4.99807 0
M  V30 4122 C 384.112 0.275325 5.21574 0
M  V30 4123 H 385.806 0.434798 2.96226 0
M  V30 4124 H 383.352 0.210546 1.42452 0
M  V30 4125 H 385.305 -1.86045 3.78107 0
M  V30 4126 H 384.029 -2.03903 2.5513 0
M  V30 4127 H 382.688 -0.217126 3.65956 0
M  V30 4128 H 382.336 -2.60877 4.30061 0
M  V30 4129 H 382.036 -1.51777 5.6766 0
M  V30 4130 H 383.56 -2.44657 5.59442 0
M  V30 4131 H 384.974 -0.179193 5.7302 0
M  V30 4132 H 383.371 0.573649 5.97352 0
M  V30 4133 H 384.441 1.18903 4.70096 0
M  V30 4134 N 385.784 -1.5574 0.241426 0
M  V30 4135 C 386.747 -2.19877 -0.647063 0
M  V30 4136 C 387.747 -1.16642 -1.10686 0
M  V30 4137 O 388.937 -1.41757 -1.01245 0
M  V30 4138 C 386.069 -2.83797 -1.88871 0
M  V30 4139 H 387.262 -2.99772 -0.087574 0
M  V30 4140 H 384.815 -1.56298 -0.00813574 0
M  V30 4141 H 385.55 -2.07824 -2.48957 0
M  V30 4142 H 385.335 -3.59414 -1.56728 0
M  V30 4143 H 386.825 -3.32898 -2.52129 0
M  V30 4144 N 387.262 0.0317525 -1.57568 0
M  V30 4145 C 388.678 0.38735 -1.54828 0
M  V30 4146 C 388.878 1.7677 -0.967187 0
M  V30 4147 O 387.934 2.45581 -0.587063 0
M  V30 4148 C 389.247 0.291667 -2.99282 0
M  V30 4149 C 390.795 0.368946 -3.10818 0
M  V30 4150 C 391.27 0.302741 -4.56998 0
M  V30 4151 N 392.761 0.361617 -4.61786 0
M  V30 4152 C 393.496 0.333238 -5.72431 0
M  V30 4153 N 392.992 0.257308 -6.92322 0
M  V30 4154 N 394.785 0.382769 -5.60795 0
M  V30 4155 H 386.936 -0.871609 -1.93692 0
M  V30 4156 H 389.199 -0.331161 -0.888277 0
M  V30 4157 H 388.905 -0.656794 -3.45513 0
M  V30 4158 H 388.779 1.08638 -3.61217 0
M  V30 4159 H 391.166 1.30784 -2.64536 0
M  V30 4160 H 391.247 -0.455066 -2.5172 0
M  V30 4161 H 390.891 -0.632473 -5.03947 0
M  V30 4162 H 390.821 1.14482 -5.14005 0
M  V30 4163 H 393.312 0.422923 -3.75526 0
M  V30 4164 H 393.625 0.24068 -7.72425 0
M  V30 4165 H 391.97 0.223396 -6.94641 0
M  V30 4166 H 395.161 0.44006 -4.66027 0
M  V30 4167 H 395.334 0.357184 -6.47015 0
M  V30 4168 N 388.74 1.54641 0.303973 0
M  V30 4169 C 389.672 1.81754 1.39636 0
M  V30 4170 C 390.685 0.70035 1.46966 0
M  V30 4171 O 391.874 0.97778 1.49338 0
M  V30 4172 C 388.974 1.93785 2.7803 0
M  V30 4173 C 388.147 3.24156 2.93669 0
M  V30 4174 C 387.206 3.26641 4.12544 0
M  V30 4175 O 386.232 4.00187 4.04771 0
M  V30 4176 N 387.434 2.5182 5.23036 0
M  V30 4177 H 390.199 2.76031 1.16734 0
M  V30 4178 H 387.76 1.54178 0.494033 0
M  V30 4179 H 389.752 1.92852 3.55795 0
M  V30 4180 H 388.322 1.06515 2.93893 0
M  V30 4181 H 387.542 3.37887 2.03042 0
M  V30 4182 H 388.83 4.10195 3.01027 0
M  V30 4183 H 388.228 1.91692 5.32232 0
M  V30 4184 H 386.785 2.56644 5.99147 0
M  V30 4185 N 390.218 -0.567019 1.47046 0
M  V30 4186 C 391.634 -0.891975 1.32348 0
M  V30 4187 C 391.834 -1.99154 0.306616 0
M  V30 4188 O 390.89 -2.50883 -0.28532 0
M  V30 4189 C 392.203 -1.29449 2.7141 0
M  V30 4190 C 393.751 -1.40646 2.79621 0
M  V30 4191 C 394.226 -1.84257 4.19301 0
M  V30 4192 N 395.717 -1.91424 4.21795 0
M  V30 4193 C 396.452 -2.26476 5.26779 0
M  V30 4194 N 395.948 -2.60211 6.42077 0
M  V30 4195 N 397.741 -2.27166 5.14152 0
M  V30 4196 H 389.892 0.159074 2.11803 0
M  V30 4197 H 392.155 0.00849752 0.947962 0
M  V30 4198 H 391.861 -0.560448 3.47206 0
M  V30 4199 H 391.735 -2.25273 3.02542 0
M  V30 4200 H 394.122 -2.13133 2.04104 0
M  V30 4201 H 394.203 -0.430339 2.52154 0
M  V30 4202 H 393.847 -1.12343 4.95319 0
M  V30 4203 H 393.777 -2.82855 4.44185 0
M  V30 4204 H 396.268 -1.6778 3.38612 0
M  V30 4205 H 396.581 -2.85956 7.17948 0
M  V30 4206 H 394.926 -2.57813 6.45413 0
M  V30 4207 H 398.117 -2.00244 4.23107 0
M  V30 4208 H 398.29 -2.54154 5.96079 0
M  V30 4209 N 391.696 -1.35014 -0.812953 0
M  V30 4210 C 392.944 -1.27678 -1.56661 0
M  V30 4211 C 393.265 0.150359 -1.94419 0
M  V30 4212 O 392.535 1.08532 -1.63088 0
M  V30 4213 H 391.115 -0.469602 -0.580933 0
M  V30 4214 H 393.777 -1.69043 -0.970076 0
M  V30 4215 H 392.873 -1.88833 -2.48492 0
M  V30 4216 N 393.175 1.03435 -1.18907 0
M  V30 4217 C 394.421 1.77005 -0.989798 0
M  V30 4218 C 394.754 1.88205 0.478816 0
M  V30 4219 O 394.029 1.39481 1.35556 0
M  V30 4220 C 394.312 3.19925 -1.65287 0
M  V30 4221 C 394.165 3.1663 -3.19477 0
M  V30 4222 C 395.484 4.18189 -1.37134 0
M  V30 4223 H 392.603 0.642538 -0.360991 0
M  V30 4224 H 395.245 1.20784 -1.46667 0
M  V30 4225 H 393.395 3.67929 -1.24741 0
M  V30 4226 H 395.067 2.76567 -3.692 0
M  V30 4227 H 393.31 2.54491 -3.51307 0
M  V30 4228 H 393.981 4.1758 -3.61013 0
M  V30 4229 H 396.457 3.78761 -1.72276 0
M  V30 4230 H 395.333 5.16394 -1.86087 0
M  V30 4231 H 395.594 4.41112 -0.295424 0
M  V30 4232 N 394.653 0.992116 1.22453 0
M  V30 4233 C 395.901 0.666215 1.90804 0
M  V30 4234 C 396.222 -0.804152 1.77647 0
M  V30 4235 O 395.492 -1.57629 1.16318 0
M  V30 4236 H 394.072 0.243423 0.706225 0
M  V30 4237 H 396.734 1.25845 1.48825 0
M  V30 4238 H 395.83 0.928069 2.97982 0
M  V30 4239 N 396.131 -1.37776 0.765217 0
M  V30 4240 C 397.063 -2.28958 0.105361 0
M  V30 4241 C 398.076 -1.48316 -0.67128 0
M  V30 4242 O 399.265 -1.71046 -0.51045 0
M  V30 4243 C 396.365 -3.27421 -0.874569 0
M  V30 4244 C 395.538 -4.37132 -0.153123 0
M  V30 4245 C 394.597 -5.1571 -1.04547 0
M  V30 4246 O 393.623 -5.66896 -0.511672 0
M  V30 4247 N 394.825 -5.29808 -2.37243 0
M  V30 4248 H 397.59 -2.86227 0.888495 0
M  V30 4249 H 395.151 -1.49682 0.617 0
M  V30 4250 H 397.143 -3.7687 -1.47483 0
M  V30 4251 H 395.713 -2.70967 -1.55871 0
M  V30 4252 H 394.933 -3.89166 0.627975 0
M  V30 4253 H 396.221 -5.07625 0.345643 0
M  V30 4254 H 395.619 -4.89793 -2.83054 0
M  V30 4255 H 394.176 -5.82589 -2.9229 0
M  V30 4256 N 397.609 -0.515225 -1.4894 0
M  V30 4257 C 398.541 0.292481 -2.27326 0
M  V30 4258 C 399.554 0.917838 -1.3446 0
M  V30 4259 O 400.743 0.798772 -1.5963 0
M  V30 4260 C 397.843 1.42803 -3.07344 0
M  V30 4261 C 397.016 0.907347 -4.27885 0
M  V30 4262 C 396.075 1.92222 -4.89834 0
M  V30 4263 O 395.101 1.48506 -5.49486 0
M  V30 4264 N 396.303 3.25355 -4.80754 0
M  V30 4265 H 399.068 -0.379721 -2.97285 0
M  V30 4266 H 396.629 -0.348638 -1.58102 0
M  V30 4267 H 398.621 2.10481 -3.45658 0
M  V30 4268 H 397.191 2.00414 -2.39902 0
M  V30 4269 H 396.411 0.0550218 -3.94162 0
M  V30 4270 H 397.699 0.538108 -5.05946 0
M  V30 4271 H 397.097 3.6355 -4.33414 0
M  V30 4272 H 395.654 3.88707 -5.23211 0
M  V30 4273 N 399.087 1.5561 -0.249682 0
M  V30 4274 C 400.05 2.20217 0.635394 0
M  V30 4275 C 401.05 1.17227 1.10066 0
M  V30 4276 O 402.24 1.42292 1.00492 0
M  V30 4277 C 399.372 2.84794 1.87363 0
M  V30 4278 H 400.565 2.99814 0.0716752 0
M  V30 4279 H 398.118 1.563 -0.000153234 0
M  V30 4280 H 398.853 2.09142 2.47851 0
M  V30 4281 H 398.638 3.60241 1.5482 0
M  V30 4282 H 400.128 3.3423 2.5036 0
M  V30 4283 N 400.565 -0.0233959 1.57583 0
M  V30 4284 C 401.498 -1.05549 2.02323 0
M  V30 4285 C 402.476 -1.34843 0.908626 0
M  V30 4286 O 403.66 -1.47404 1.17491 0
M  V30 4287 C 400.787 -2.38885 2.40108 0
M  V30 4288 C 399.833 -2.2541 3.62067 0
M  V30 4289 S 400.666 -1.60217 5.1097 0
M  V30 4290 C 401.822 -2.95032 5.52003 0
M  V30 4291 H 402.055 -0.674435 2.89549 0
M  V30 4292 H 399.588 -0.23355 1.52623 0
M  V30 4293 H 401.546 -3.15562 2.62547 0
M  V30 4294 H 400.207 -2.74137 1.53323 0
M  V30 4295 H 399.4 -3.23854 3.86179 0
M  V30 4296 H 399.002 -1.56876 3.39508 0
M  V30 4297 H 401.294 -3.91357 5.53033 0
M  V30 4298 H 402.237 -2.75646 6.52246 0
M  V30 4299 H 402.645 -2.97865 4.79517 0
M  V30 4300 N 402.043 -1.548 -0.295768 0
M  V30 4301 C 403.268 -1.78653 -1.05346 0
M  V30 4302 C 403.693 -0.546894 -1.79974 0
M  V30 4303 O 403.051 0.502763 -1.7419 0
M  V30 4304 C 403.099 -2.99679 -2.00561 0
M  V30 4305 O 402.203 -2.7317 -3.08953 0
M  V30 4306 H 401.544 -0.59116 -0.302367 0
M  V30 4307 H 404.074 -2.01895 -0.331598 0
M  V30 4308 H 404.084 -3.27793 -2.42932 0
M  V30 4309 H 402.759 -3.89562 -1.4565 0
M  V30 4310 H 401.336 -2.56089 -2.71059 0
M  V30 4311 N 403.521 0.559213 -1.47345 0
M  V30 4312 C 404.451 1.67622 -1.62558 0
M  V30 4313 C 405.432 1.63331 -0.475087 0
M  V30 4314 O 406.617 1.80983 -0.704182 0
M  V30 4315 C 403.747 3.0626 -1.63774 0
M  V30 4316 C 402.701 3.25397 -2.7803 0
M  V30 4317 C 402.027 4.64801 -2.64318 0
M  V30 4318 C 403.327 3.10965 -4.19641 0
M  V30 4319 H 405.021 1.55146 -2.56067 0
M  V30 4320 H 402.567 0.744961 -1.23233 0
M  V30 4321 H 404.52 3.84247 -1.73008 0
M  V30 4322 H 403.244 3.1969 -0.66825 0
M  V30 4323 H 401.903 2.49817 -2.68304 0
M  V30 4324 H 401.551 4.75028 -1.65401 0
M  V30 4325 H 401.251 4.78555 -3.40968 0
M  V30 4326 H 402.775 5.44926 -2.75478 0
M  V30 4327 H 404.189 3.78772 -4.30354 0
M  V30 4328 H 402.586 3.36229 -4.97062 0
M  V30 4329 H 403.656 2.07736 -4.38148 0
M  V30 4330 N 404.999 1.35443 0.805782 0
M  V30 4331 C 405.962 1.28301 1.89925 0
M  V30 4332 C 406.962 0.194285 1.59622 0
M  V30 4333 O 408.152 0.448036 1.6834 0
M  V30 4334 C 405.284 0.984997 3.2636 0
M  V30 4335 H 406.477 2.2553 1.97677 0
M  V30 4336 H 404.03 1.19979 1.00173 0
M  V30 4337 H 404.765 0.016603 3.24296 0
M  V30 4338 H 404.55 1.77269 3.4974 0
M  V30 4339 H 406.04 0.960651 4.064 0
M  V30 4340 N 406.477 -1.02803 1.19454 0
M  V30 4341 C 407.726 -1.7562 0.991996 0
M  V30 4342 C 408.039 -1.89672 -0.477901 0
M  V30 4343 O 409.245 -2.59468 -0.799287 0
M  V30 4344 C 407.701 -3.15812 1.72601 0
M  V30 4345 C 407.309 -3.0981 3.23607 0
M  V30 4346 C 409.053 -3.92918 1.60674 0
M  V30 4347 C 406.96 -4.44939 3.89594 0
M  V30 4348 H 405.89 -0.658352 0.367543 0
M  V30 4349 H 408.541 -1.15044 1.42959 0
M  V30 4350 H 406.923 -3.7686 1.21624 0
M  V30 4351 H 408.097 -2.58138 3.81709 0
M  V30 4352 H 406.412 -2.46201 3.35819 0
M  V30 4353 H 409.009 -4.9287 2.07323 0
M  V30 4354 H 409.352 -4.12502 0.561025 0
M  V30 4355 H 409.885 -3.38472 2.09001 0
M  V30 4356 H 406.624 -4.30559 4.94267 0
M  V30 4357 H 406.144 -4.96664 3.36281 0
M  V30 4358 H 407.823 -5.1382 3.93189 0
M  V30 4359 N 407.956 -0.998596 -1.21925 0
M  V30 4360 C 408.886 -0.573688 -2.26343 0
M  V30 4361 C 409.867 0.402296 -1.65274 0
M  V30 4362 O 411.052 0.291683 -1.91997 0
M  V30 4363 C 408.182 0.106839 -3.47136 0
M  V30 4364 C 407.136 -0.788269 -4.20678 0
M  V30 4365 C 406.462 0.0254927 -5.34694 0
M  V30 4366 C 407.762 -2.08784 -4.78755 0
M  V30 4367 H 409.456 -1.44651 -2.62138 0
M  V30 4368 H 407.002 -0.696975 -1.26009 0
M  V30 4369 H 408.955 0.415531 -4.19346 0
M  V30 4370 H 407.679 1.01424 -3.10452 0
M  V30 4371 H 406.338 -1.08069 -3.50309 0
M  V30 4372 H 405.986 0.933989 -4.94253 0
M  V30 4373 H 405.686 -0.570437 -5.84825 0
M  V30 4374 H 407.21 0.328147 -6.09718 0
M  V30 4375 H 408.624 -1.84272 -5.42878 0
M  V30 4376 H 407.021 -2.63307 -5.39249 0
M  V30 4377 H 408.091 -2.76284 -3.98491 0
M  V30 4378 N 409.434 1.37368 -0.772513 0
M  V30 4379 C 410.85 1.53059 -0.452231 0
M  V30 4380 C 411.05 1.73065 1.03203 0
M  V30 4381 O 410.106 1.75245 1.81784 0
M  V30 4382 C 411.419 2.72659 -1.26797 0
M  V30 4383 C 412.967 2.86521 -1.25995 0
M  V30 4384 C 413.442 4.09105 -2.05905 0
M  V30 4385 N 414.933 4.16219 -2.03263 0
M  V30 4386 C 415.668 5.10107 -2.61875 0
M  V30 4387 N 415.164 6.09547 -3.29278 0
M  V30 4388 N 416.957 5.02596 -2.51701 0
M  V30 4389 H 409.108 1.22634 -1.7342 0
M  V30 4390 H 411.371 0.597206 -0.736239 0
M  V30 4391 H 411.077 2.64343 -2.31982 0
M  V30 4392 H 410.951 3.66363 -0.897672 0
M  V30 4393 H 413.338 2.94308 -0.216081 0
M  V30 4394 H 413.419 1.93774 -1.66989 0
M  V30 4395 H 413.063 4.0208 -3.10313 0
M  V30 4396 H 412.993 5.00968 -1.62292 0
M  V30 4397 H 415.484 3.45012 -1.54192 0
M  V30 4398 H 415.797 6.77718 -3.71374 0
M  V30 4399 H 414.142 6.09824 -3.33377 0
M  V30 4400 H 417.333 4.23855 -1.98657 0
M  V30 4401 H 417.506 5.75582 -2.97673 0
M  V30 4402 N 410.912 0.523116 1.48665 0
M  V30 4403 C 412.158 -0.0134963 2.02796 0
M  V30 4404 C 412.491 -1.34582 1.40004 0
M  V30 4405 O 411.766 -1.86756 0.543381 0
M  V30 4406 C 412.049 -0.14276 3.59817 0
M  V30 4407 C 411.902 1.21425 4.331 0
M  V30 4408 C 413.221 -0.872856 4.31357 0
M  V30 4409 H 410.34 -0.00343074 0.736992 0
M  V30 4410 H 412.982 0.678816 1.7746 0
M  V30 4411 H 411.132 -0.732401 3.81534 0
M  V30 4412 H 412.804 1.84447 4.2282 0
M  V30 4413 H 411.047 1.79791 3.94788 0
M  V30 4414 H 411.718 1.07687 5.41394 0
M  V30 4415 H 414.194 -0.372555 4.14429 0
M  V30 4416 H 413.07 -0.932185 5.40927 0
M  V30 4417 H 413.331 -1.92161 3.98154 0
M  V30 4418 N 412.39 -1.55475 0.257931 0
M  V30 4419 C 413.639 -1.98383 -0.364275 0
M  V30 4420 C 413.952 -1.14952 -1.58258 0
M  V30 4421 O 415.158 -1.47924 -2.27664 0
M  V30 4422 C 413.614 -3.53037 -0.699479 0
M  V30 4423 C 413.222 -4.45223 0.498046 0
M  V30 4424 C 414.966 -4.04575 -1.28526 0
M  V30 4425 C 412.873 -5.91238 0.138383 0
M  V30 4426 H 411.803 -0.740911 -0.13988 0
M  V30 4427 H 414.454 -1.79936 0.359883 0
M  V30 4428 H 412.836 -3.6722 -1.48207 0
M  V30 4429 H 414.01 -4.42803 1.27522 0
M  V30 4430 H 412.325 -4.04226 0.999503 0
M  V30 4431 H 414.922 -5.11196 -1.56788 0
M  V30 4432 H 415.265 -3.5258 -2.21344 0
M  V30 4433 H 415.798 -3.93762 -0.565337 0
M  V30 4434 H 412.537 -6.47294 1.03398 0
M  V30 4435 H 412.057 -5.96768 -0.602374 0
M  V30 4436 H 413.736 -6.46413 -0.27553 0
M  V30 4437 N 413.868 0.0150385 -1.57593 0
M  V30 4438 C 415.284 0.370907 -1.5523 0
M  V30 4439 C 415.484 1.75735 -0.985882 0
M  V30 4440 O 414.54 2.44944 -0.613077 0
M  V30 4441 C 415.853 0.259908 -2.99575 0
M  V30 4442 C 417.401 0.335959 -3.11192 0
M  V30 4443 C 417.876 0.254253 -4.57294 0
M  V30 4444 N 419.367 0.312618 -4.62144 0
M  V30 4445 C 420.102 0.272505 -5.72752 0
M  V30 4446 N 419.598 0.183864 -6.92556 0
M  V30 4447 N 421.391 0.323267 -5.6117 0
M  V30 4448 H 413.542 -0.892104 -1.92757 0
M  V30 4449 H 415.805 -0.340563 -0.884715 0
M  V30 4450 H 415.511 -0.693403 -3.44797 0
M  V30 4451 H 415.385 1.048 -3.62349 0
M  V30 4452 H 417.772 1.27971 -2.65909 0
M  V30 4453 H 417.853 -0.481739 -2.51223 0
M  V30 4454 H 417.497 -0.685887 -5.03247 0
M  V30 4455 H 417.427 1.09024 -5.15191 0
M  V30 4456 H 419.918 0.38307 -3.75953 0
M  V30 4457 H 420.231 0.15874 -7.72637 0
M  V30 4458 H 418.576 0.149708 -6.94839 0
M  V30 4459 H 421.767 0.390607 -4.66467 0
M  V30 4460 H 421.94 0.288539 -6.47357 0
M  V30 4461 N 415.346 1.54954 0.287554 0
M  V30 4462 C 416.276 1.89839 1.35954 0
M  V30 4463 C 417.257 0.758675 1.52244 0
M  V30 4464 O 418.442 1.01557 1.65529 0
M  V30 4465 C 415.572 2.15753 2.72154 0
M  V30 4466 C 414.526 3.3159 2.70614 0
M  V30 4467 C 413.852 3.42952 4.10229 0
M  V30 4468 C 415.152 4.68359 2.31165 0
M  V30 4469 H 416.846 2.79625 1.07007 0
M  V30 4470 H 414.392 1.3454 0.513316 0
M  V30 4471 H 416.345 2.38743 3.47246 0
M  V30 4472 H 415.069 1.22752 3.02654 0
M  V30 4473 H 413.728 3.08545 1.97979 0
M  V30 4474 H 413.376 2.47443 4.37928 0
M  V30 4475 H 413.076 4.20826 4.10097 0
M  V30 4476 H 414.6 3.68218 4.87081 0
M  V30 4477 H 416.014 4.9099 2.95976 0
M  V30 4478 H 414.411 5.49044 2.42221 0
M  V30 4479 H 415.481 4.68165 1.26291 0
M  V30 4480 N 416.824 -0.551391 1.4764 0
M  V30 4481 C 418.07 -1.31024 1.54792 0
M  V30 4482 C 418.403 -1.9304 0.211967 0
M  V30 4483 O 417.678 -1.78175 -0.77999 0
M  V30 4484 C 417.961 -2.41593 2.67029 0
M  V30 4485 C 417.814 -1.84408 4.10261 0
M  V30 4486 C 419.133 -3.43488 2.75143 0
M  V30 4487 H 416.252 -0.475031 0.563485 0
M  V30 4488 H 418.894 -0.616454 1.79722 0
M  V30 4489 H 417.044 -3.00772 2.45904 0
M  V30 4490 H 418.716 -1.29445 4.42766 0
M  V30 4491 H 416.959 -1.15051 4.18265 0
M  V30 4492 H 417.63 -2.64367 4.84576 0
M  V30 4493 H 420.106 -2.94236 2.94218 0
M  V30 4494 H 418.982 -4.18274 3.55441 0
M  V30 4495 H 419.243 -4.02703 1.82435 0
M  V30 4496 N 418.302 -1.35869 -0.798587 0
M  V30 4497 C 419.718 -1.16082 -1.09532 0
M  V30 4498 C 419.918 0.0213124 -2.01489 0
M  V30 4499 O 418.974 0.689488 -2.42904 0
M  V30 4500 C 420.287 -2.46748 -1.7186 0
M  V30 4501 C 421.835 -2.53028 -1.84244 0
M  V30 4502 C 422.31 -3.83758 -2.49988 0
M  V30 4503 N 423.801 -3.85053 -2.57465 0
M  V30 4504 C 424.536 -4.8294 -3.09122 0
M  V30 4505 N 424.032 -5.91217 -3.61157 0
M  V30 4506 N 425.825 -4.70369 -3.0775 0
M  V30 4507 H 417.976 -2.11571 -0.187461 0
M  V30 4508 H 420.239 -0.936726 -0.145765 0
M  V30 4509 H 419.945 -3.33471 -1.11759 0
M  V30 4510 H 419.819 -2.61883 -2.71472 0
M  V30 4511 H 422.206 -1.66729 -2.43486 0
M  V30 4512 H 422.287 -2.418 -0.834643 0
M  V30 4513 H 421.931 -4.70459 -1.91393 0
M  V30 4514 H 421.861 -3.92278 -3.5132 0
M  V30 4515 H 424.352 -3.06822 -2.20609 0
M  V30 4516 H 424.665 -6.61892 -3.98896 0
M  V30 4517 H 423.01 -5.94899 -3.59333 0
M  V30 4518 H 426.201 -3.84914 -2.66381 0
M  V30 4519 H 426.374 -5.46816 -3.47701 0
M  V30 4520 N 419.78 1.02168 -1.19998 0
M  V30 4521 C 421.026 1.75945 -1.00852 0
M  V30 4522 C 421.359 1.88702 0.458828 0
M  V30 4523 O 420.634 1.40911 1.34069 0
M  V30 4524 C 420.917 3.18154 -1.68671 0
M  V30 4525 C 420.77 3.13224 -3.22817 0
M  V30 4526 C 422.089 4.16711 -1.41561 0
M  V30 4527 H 419.208 0.638673 -0.367785 0
M  V30 4528 H 421.85 1.19222 -1.4794 0
M  V30 4529 H 420 3.66586 -1.28636 0
M  V30 4530 H 421.672 2.72635 -3.72112 0
M  V30 4531 H 419.915 2.50751 -3.53986 0
M  V30 4532 H 420.586 4.13728 -3.65422 0
M  V30 4533 H 423.062 3.76913 -1.76284 0
M  V30 4534 H 421.938 5.14391 -1.91553 0
M  V30 4535 H 422.199 4.40774 -0.342193 0
M  V30 4536 N 421.258 1.00505 1.21394 0
M  V30 4537 C 422.505 0.687774 1.90462 0
M  V30 4538 C 422.833 -0.78147 1.7811 0
M  V30 4539 O 422.088 -1.58208 1.1519 0
M  V30 4540 C 422.387 1.0546 3.41486 0
M  V30 4541 C 422.053 2.51812 3.74034 0
M  V30 4542 C 420.715 2.91804 3.82628 0
M  V30 4543 C 423.067 3.46614 3.8924 0
M  V30 4544 C 420.395 4.2556 4.03876 0
M  V30 4545 C 422.747 4.80044 4.11995 0
M  V30 4546 C 421.411 5.19759 4.18816 0
M  V30 4547 H 420.681 0.251674 0.696951 0
M  V30 4548 H 423.328 1.26349 1.43903 0
M  V30 4549 H 421.633 0.397133 3.89782 0
M  V30 4550 H 423.33 0.786976 3.93202 0
M  V30 4551 H 419.92 2.1982 3.67936 0
M  V30 4552 H 424.104 3.16883 3.81967 0
M  V30 4553 H 419.36 4.55901 4.07387 0
M  V30 4554 H 423.534 5.53439 4.22704 0
M  V30 4555 H 421.161 6.23418 4.35033 0
M  V30 4556 N 422.737 -1.36956 0.779787 0
M  V30 4557 C 424.153 -1.52817 0.460342 0
M  V30 4558 C 424.353 -1.7361 -1.02283 0
M  V30 4559 O 423.409 -1.76207 -1.80852 0
M  V30 4560 C 424.722 -2.71983 1.28241 0
M  V30 4561 C 426.27 -2.85849 1.27512 0
M  V30 4562 C 426.745 -4.08008 2.08072 0
M  V30 4563 N 428.236 -4.15135 2.05467 0
M  V30 4564 C 428.971 -5.08711 2.64577 0
M  V30 4565 N 428.467 -6.07792 3.32506 0
M  V30 4566 N 430.26 -5.01254 2.54363 0
M  V30 4567 H 422.411 -1.21713 1.74068 0
M  V30 4568 H 424.674 -0.593294 0.739396 0
M  V30 4569 H 424.38 -2.63109 2.33381 0
M  V30 4570 H 424.254 -3.65882 0.917088 0
M  V30 4571 H 426.641 -2.94189 0.231686 0
M  V30 4572 H 426.722 -1.92886 1.68014 0
M  V30 4573 H 426.366 -4.00429 3.12441 0
M  V30 4574 H 426.296 -5.001 1.64947 0
M  V30 4575 H 428.787 -3.44189 1.5602 0
M  V30 4576 H 429.1 -6.75739 3.74963 0
M  V30 4577 H 427.445 -6.08047 3.36606 0
M  V30 4578 H 430.636 -4.22795 2.00902 0
M  V30 4579 H 430.809 -5.73995 3.00722 0
M  V30 4580 N 424.215 -0.530993 -1.48385 0
M  V30 4581 C 425.464 0.00474348 -2.01699 0
M  V30 4582 C 425.777 1.35227 -1.41325 0
M  V30 4583 O 426.983 1.97643 -1.86144 0
M  V30 4584 C 425.439 0.0588473 -3.59852 0
M  V30 4585 C 425.047 -1.28385 -4.2921 0
M  V30 4586 C 426.791 0.543358 -4.21008 0
M  V30 4587 C 424.698 -1.19028 -5.79298 0
M  V30 4588 H 423.628 0.00554317 -0.75398 0
M  V30 4589 H 426.279 -0.674924 -1.70637 0
M  V30 4590 H 424.661 0.803612 -3.8776 0
M  V30 4591 H 425.835 -2.04426 -4.12973 0
M  V30 4592 H 424.15 -1.70418 -3.7993 0
M  V30 4593 H 426.747 0.631351 -5.3096 0
M  V30 4594 H 427.09 1.54937 -3.86394 0
M  V30 4595 H 427.623 -0.145754 -3.97533 0
M  V30 4596 H 424.362 -2.17147 -6.18488 0
M  V30 4597 H 423.882 -0.471246 -5.97946 0
M  V30 4598 H 425.561 -0.881365 -6.40969 0
M  V30 4599 N 425.693 1.55336 -0.266172 0
M  V30 4600 C 426.94 1.99397 0.353158 0
M  V30 4601 C 427.268 1.15451 1.56529 0
M  V30 4602 O 426.523 0.209974 1.9457 0
M  V30 4603 C 426.822 3.48606 0.787957 0
M  V30 4604 C 426.488 4.49773 -0.318541 0
M  V30 4605 C 425.15 4.77158 -0.62239 0
M  V30 4606 C 427.502 5.10212 -1.06459 0
M  V30 4607 C 424.83 5.62251 -1.67602 0
M  V30 4608 C 427.182 5.96449 -2.10788 0
M  V30 4609 C 425.846 6.22158 -2.41817 0
M  V30 4610 H 425.116 0.729644 0.12923 0
M  V30 4611 H 427.763 1.87732 -0.37802 0
M  V30 4612 H 426.068 3.57701 1.59866 0
M  V30 4613 H 427.765 3.80098 1.27775 0
M  V30 4614 H 424.355 4.2854 -0.0715925 0
M  V30 4615 H 428.539 4.89086 -0.843098 0
M  V30 4616 H 423.795 5.80419 -1.92155 0
M  V30 4617 H 427.969 6.42317 -2.69076 0
M  V30 4618 H 425.596 6.87888 -3.23596 0
M  V30 4619 N 427.171 -0.0066808 1.57599 0
M  V30 4620 C 428.118 -1.00024 2.08 0
M  V30 4621 C 429.088 -1.34549 0.973943 0
M  V30 4622 O 430.273 -1.44502 1.24595 0
M  V30 4623 C 427.413 -2.2891 2.58252 0
M  V30 4624 C 426.526 -2.00346 3.82734 0
M  V30 4625 C 425.661 -3.23265 4.21513 0
M  V30 4626 C 424.7 -2.90357 5.3885 0
M  V30 4627 N 423.837 -4.05793 5.72954 0
M  V30 4628 H 428.677 -0.563499 2.92624 0
M  V30 4629 H 426.214 -0.266592 1.44664 0
M  V30 4630 H 428.172 -3.04247 2.85464 0
M  V30 4631 H 426.802 -2.70265 1.76512 0
M  V30 4632 H 425.854 -1.15406 3.62471 0
M  V30 4633 H 427.166 -1.72086 4.68175 0
M  V30 4634 H 426.32 -4.06953 4.49971 0
M  V30 4635 H 425.059 -3.54657 3.34768 0
M  V30 4636 H 424.064 -2.05075 5.10122 0
M  V30 4637 H 425.289 -2.60219 6.27266 0
M  V30 4638 H 423.235 -4.37094 4.89167 0
M  V30 4639 H 423.152 -3.81034 6.52954 0
M  V30 4640 H 424.42 -4.90289 6.06001 0
M  V30 4641 N 428.649 -1.55105 -0.279332 0
M  V30 4642 C 429.579 -1.90557 -1.34945 0
M  V30 4643 C 430.56 -0.766738 -1.51839 0
M  V30 4644 O 431.745 -1.02434 -1.64988 0
M  V30 4645 C 428.875 -2.17193 -2.71006 0
M  V30 4646 C 427.829 -3.33021 -2.68851 0
M  V30 4647 C 427.155 -3.45123 -4.08405 0
M  V30 4648 C 428.455 -4.69578 -2.28678 0
M  V30 4649 H 430.149 -2.80188 -1.05522 0
M  V30 4650 H 427.695 -1.34811 -0.506173 0
M  V30 4651 H 429.648 -2.40581 -3.45975 0
M  V30 4652 H 428.372 -1.24355 -3.01999 0
M  V30 4653 H 427.031 -3.0959 -1.9634 0
M  V30 4654 H 426.679 -2.49762 -4.3661 0
M  V30 4655 H 426.379 -4.22995 -4.07859 0
M  V30 4656 H 427.903 -3.70796 -4.85121 0
M  V30 4657 H 429.317 -4.92553 -2.93368 0
M  V30 4658 H 427.714 -5.5032 -2.39306 0
M  V30 4659 H 428.784 -4.68828 -1.23807 0
M  V30 4660 N 430.127 0.543554 -1.4793 0
M  V30 4661 C 431.352 1.32995 -1.59145 0
M  V30 4662 C 431.777 1.86472 -0.246956 0
M  V30 4663 O 431.135 1.63696 0.779324 0
M  V30 4664 C 431.183 2.46623 -2.63077 0
M  V30 4665 O 430.287 3.49261 -2.19295 0
M  V30 4666 H 429.628 0.394472 -0.534124 0
M  V30 4667 H 432.158 0.655489 -1.93816 0
M  V30 4668 H 432.168 2.93001 -2.83926 0
M  V30 4669 H 430.843 2.07059 -3.60693 0
M  V30 4670 H 429.42 3.09094 -2.08603 0
M  V30 4671 N 431.605 1.3629 0.791371 0
M  V30 4672 C 433.021 1.16661 1.08914 0
M  V30 4673 C 433.221 -0.0106266 2.01497 0
M  V30 4674 O 432.277 -0.676596 2.43266 0
M  V30 4675 C 433.59 2.47656 1.70549 0
M  V30 4676 C 435.138 2.54002 1.82899 0
M  V30 4677 C 435.613 3.85078 2.47949 0
M  V30 4678 N 437.104 3.86413 2.5542 0
M  V30 4679 C 437.839 4.84572 3.06557 0
M  V30 4680 N 437.335 5.93124 3.58016 0
M  V30 4681 N 439.128 4.71994 3.05251 0
M  V30 4682 H 431.279 2.11668 0.176238 0
M  V30 4683 H 433.542 0.937486 0.140796 0
M  V30 4684 H 433.248 3.34059 1.09989 0
M  V30 4685 H 433.122 2.63319 2.70079 0
M  V30 4686 H 435.509 1.68018 2.42598 0
M  V30 4687 H 435.59 2.42239 0.821808 0
M  V30 4688 H 435.234 4.71467 1.88895 0
M  V30 4689 H 435.164 3.94135 3.49235 0
M  V30 4690 H 437.655 3.07988 2.18979 0
M  V30 4691 H 437.968 6.63999 3.95381 0
M  V30 4692 H 436.313 5.96796 3.56173 0
M  V30 4693 H 439.504 3.86321 2.64336 0
M  V30 4694 H 439.677 5.48653 3.44796 0
M  V30 4695 N 433.083 -1.0153 1.20538 0
M  V30 4696 C 434.033 -2.08482 0.922991 0
M  V30 4697 C 435.017 -1.60469 -0.117702 0
M  V30 4698 O 436.209 -1.76772 0.0898465 0
M  V30 4699 C 433.338 -3.39952 0.478312 0
M  V30 4700 C 432.424 -3.94662 1.5525 0
M  V30 4701 N 432.815 -4.22866 2.77521 0
M  V30 4702 C 431.113 -4.22825 1.41897 0
M  V30 4703 C 431.814 -4.67002 3.4682 0
M  V30 4704 N 430.79 -4.69356 2.74237 0
M  V30 4705 H 434.592 -2.28199 1.85209 0
M  V30 4706 H 432.106 -1.19512 1.09957 0
M  V30 4707 H 434.103 -4.16105 0.257408 0
M  V30 4708 H 432.763 -3.21648 -0.444148 0
M  V30 4709 H 433.774 -4.11732 3.1416 0
M  V30 4710 H 430.451 -4.13714 0.561015 0
M  V30 4711 H 431.841 -4.97632 4.51455 0
M  V30 4712 N 434.561 -1.01147 -1.20859 0
M  V30 4713 C 435.786 -0.716698 -1.94623 0
M  V30 4714 C 436.211 0.715415 -1.73964 0
M  V30 4715 O 435.569 1.49157 -1.03062 0
M  V30 4716 C 435.617 -1.0513 -3.44935 0
M  V30 4717 O 434.721 -0.160131 -4.12089 0
M  V30 4718 H 434.062 -0.266404 -0.608214 0
M  V30 4719 H 436.592 -1.35346 -1.53436 0
M  V30 4720 H 436.602 -1.00086 -3.95533 0
M  V30 4721 H 435.277 -2.09475 -3.59295 0
M  V30 4722 H 433.854 -0.267657 -3.71938 0
M  V30 4723 N 436.039 1.36541 -0.78704 0
M  V30 4724 C 436.986 2.30082 -0.181901 0
M  V30 4725 C 437.956 1.5186 0.672896 0
M  V30 4726 O 439.141 1.80374 0.622072 0
M  V30 4727 C 436.281 3.3835 0.679197 0
M  V30 4728 C 435.394 4.31565 -0.193882 0
M  V30 4729 C 434.529 5.26915 0.673364 0
M  V30 4730 C 433.568 6.11769 -0.201315 0
M  V30 4731 N 432.705 6.99315 0.624777 0
M  V30 4732 H 437.545 2.81248 -0.985064 0
M  V30 4733 H 435.082 1.38437 -0.497342 0
M  V30 4734 H 437.04 3.99767 1.19341 0
M  V30 4735 H 435.67 2.8851 1.44781 0
M  V30 4736 H 434.722 3.71323 -0.826044 0
M  V30 4737 H 436.034 4.91191 -0.867937 0
M  V30 4738 H 435.188 5.9361 1.25348 0
M  V30 4739 H 433.927 4.67737 1.38105 0
M  V30 4740 H 432.932 5.44039 -0.793849 0
M  V30 4741 H 434.157 6.73022 -0.906568 0
M  V30 4742 H 432.103 6.42648 1.3168 0
M  V30 4743 H 432.02 7.56 0.00835237 0
M  V30 4744 H 433.288 7.70382 1.18879 0
M  V30 4745 N 437.518 0.538854 1.48102 0
M  V30 4746 C 438.766 0.00798599 2.02098 0
M  V30 4747 C 439.087 -1.33922 1.41739 0
M  V30 4748 O 438.357 -1.86932 0.585934 0
M  V30 4749 H 436.937 -3.62179e-05 0.747 0
M  V30 4750 H 439.599 0.7047 1.81714 0
M  V30 4751 H 438.695 -0.0937672 3.11959 0
M  V30 4752 N 438.996 -1.55193 0.274407 0
M  V30 4753 C 439.926 -2.25471 -0.607032 0
M  V30 4754 C 440.907 -1.24461 -1.15946 0
M  V30 4755 O 442.092 -1.53179 -1.19373 0
M  V30 4756 C 439.222 -2.97526 -1.79153 0
M  V30 4757 C 438.176 -4.05459 -1.37067 0
M  V30 4758 C 437.502 -4.65084 -2.6382 0
M  V30 4759 C 438.802 -5.19691 -0.521389 0
M  V30 4760 H 440.496 -2.99393 -0.0209343 0
M  V30 4761 H 438.042 -1.43997 -0.00862866 0
M  V30 4762 H 439.995 -3.45402 -2.41404 0
M  V30 4763 H 438.719 -2.21138 -2.40344 0
M  V30 4764 H 437.378 -3.58393 -0.771355 0
M  V30 4765 H 437.026 -3.85365 -3.23268 0
M  V30 4766 H 436.726 -5.37961 -2.36372 0
M  V30 4767 H 438.25 -5.15708 -3.26921 0
M  V30 4768 H 439.664 -5.63623 -1.04889 0
M  V30 4769 H 438.061 -5.99126 -0.341825 0
M  V30 4770 H 439.131 -4.82713 0.46 0
M  V30 4771 N 440.474 -0.00167713 -1.576 0
M  V30 4772 C 441.406 1.0174 -2.05382 0
M  V30 4773 C 442.419 1.30595 -0.972052 0
M  V30 4774 O 443.608 1.27542 -1.24882 0
M  V30 4775 C 440.708 2.35174 -2.44022 0
M  V30 4776 C 439.881 2.25234 -3.74951 0
M  V30 4777 C 438.94 3.4137 -4.00441 0
M  V30 4778 O 437.966 3.19483 -4.71083 0
M  V30 4779 N 439.168 4.64275 -3.48467 0
M  V30 4780 H 441.933 0.609902 -2.93428 0
M  V30 4781 H 439.494 0.185672 -1.60832 0
M  V30 4782 H 441.486 3.11643 -2.58187 0
M  V30 4783 H 440.056 2.67659 -1.61485 0
M  V30 4784 H 439.276 1.33664 -3.70847 0
M  V30 4785 H 440.564 2.15767 -4.60784 0
M  V30 4786 H 439.962 4.84955 -2.91264 0
M  V30 4787 H 438.519 5.38005 -3.67959 0
M  V30 4788 N 441.952 1.55251 0.271103 0
M  V30 4789 C 443.201 1.75151 1.00025 0
M  V30 4790 C 443.514 0.561041 1.87381 0
M  V30 4791 O 444.72 0.642506 2.63788 0
M  V30 4792 C 443.176 3.09999 1.82835 0
M  V30 4793 C 442.784 4.3662 1.00336 0
M  V30 4794 C 444.528 3.39249 2.55168 0
M  V30 4795 C 442.435 5.62506 1.82595 0
M  V30 4796 H 441.365 0.652877 0.377183 0
M  V30 4797 H 444.016 1.81708 0.255843 0
M  V30 4798 H 442.398 2.97485 2.61378 0
M  V30 4799 H 443.572 4.60055 0.261959 0
M  V30 4800 H 441.887 4.14527 0.394486 0
M  V30 4801 H 444.484 4.3051 3.1712 0
M  V30 4802 H 444.827 2.59467 3.2555 0
M  V30 4803 H 445.36 3.52869 1.83653 0
M  V30 4804 H 442.099 6.45041 1.16631 0
M  V30 4805 H 441.619 5.43211 2.54327 0
M  V30 4806 H 443.298 6.00875 2.39913 0
M  V30 4807 N 443.43 -0.535701 1.48216 0
M  V30 4808 C 444.36 -1.65014 1.65204 0
M  V30 4809 C 445.341 -1.62554 0.501011 0
M  V30 4810 O 446.526 -1.7984 0.732886 0
M  V30 4811 C 443.656 -3.03616 1.68626 0
M  V30 4812 C 442.61 -3.20932 2.83172 0
M  V30 4813 C 441.936 -4.60537 2.71679 0
M  V30 4814 C 443.236 -3.04249 4.24535 0
M  V30 4815 H 444.93 -1.51053 2.58502 0
M  V30 4816 H 442.476 -0.725262 1.24402 0
M  V30 4817 H 444.429 -3.81446 1.79099 0
M  V30 4818 H 443.153 -3.18587 0.719026 0
M  V30 4819 H 441.812 -2.45517 2.72244 0
M  V30 4820 H 441.46 -4.72336 1.72937 0
M  V30 4821 H 441.16 -4.73069 3.48538 0
M  V30 4822 H 442.684 -5.40475 2.84112 0
M  V30 4823 H 444.098 -3.71877 4.36326 0
M  V30 4824 H 442.495 -3.28278 5.02348 0
M  V30 4825 H 443.565 -2.00739 4.41397 0
M  V30 4826 N 444.908 -1.36708 -0.784132 0
M  V30 4827 C 446.156 -1.30972 -1.53918 0
M  V30 4828 C 446.477 0.109086 -1.94695 0
M  V30 4829 O 445.747 1.05048 -1.65353 0
M  V30 4830 H 444.327 -0.481819 -0.570841 0
M  V30 4831 H 446.989 -1.71063 -0.934002 0
M  V30 4832 H 446.085 -1.94061 -2.44431 0
M  V30 4833 N 446.386 1.0089 -1.21074 0
M  V30 4834 C 447.318 2.09737 -0.924291 0
M  V30 4835 C 448.331 1.62546 0.0909809 0
M  V30 4836 O 449.52 1.77942 -0.141021 0
M  V30 4837 C 446.62 3.36922 -0.36559 0
M  V30 4838 C 445.793 4.13216 -1.43426 0
M  V30 4839 C 444.852 5.18696 -0.885496 0
M  V30 4840 O 443.878 5.47176 -1.56801 0
M  V30 4841 N 445.08 5.79718 0.301227 0
M  V30 4842 H 447.845 2.34895 -1.8613 0
M  V30 4843 H 445.406 1.17341 -1.11546 0
M  V30 4844 H 447.398 4.04697 0.0158407 0
M  V30 4845 H 445.968 3.08952 0.476149 0
M  V30 4846 H 445.188 3.40301 -1.9897 0
M  V30 4847 H 446.476 4.60967 -2.15376 0
M  V30 4848 H 445.874 5.58926 0.872849 0
M  V30 4849 H 444.431 6.48804 0.624211 0
M  V30 4850 N 447.864 1.01787 1.20321 0
M  V30 4851 C 449.092 0.727194 1.937 0
M  V30 4852 C 449.507 -0.712305 1.74848 0
M  V30 4853 O 448.864 -1.48327 1.06327 0
M  V30 4854 C 448.915 1.05497 3.45764 0
M  V30 4855 O 448.636 2.43794 3.64 0
M  V30 4856 C 450.137 0.785534 4.36285 0
M  V30 4857 H 447.357 0.266939 0.615617 0
M  V30 4858 H 449.901 1.35939 1.52777 0
M  V30 4859 H 448.056 0.468158 3.84561 0
M  V30 4860 H 448.47 2.55656 4.57974 0
M  V30 4861 H 449.944 1.06495 5.4163 0
M  V30 4862 H 450.421 -0.280273 4.38305 0
M  V30 4863 H 451.027 1.35456 4.03152 0
M  V30 4864 N 449.342 -1.36122 0.79427 0
M  V30 4865 C 450.272 -2.32551 0.210328 0
M  V30 4866 C 451.253 -1.56884 -0.657386 0
M  V30 4867 O 452.438 -1.85014 -0.590207 0
M  V30 4868 C 449.568 -3.41128 -0.651819 0
M  V30 4869 C 448.522 -4.27842 0.116395 0
M  V30 4870 C 447.848 -5.2763 -0.86666 0
M  V30 4871 C 449.148 -5.05647 1.30837 0
M  V30 4872 H 450.842 -2.81636 1.01594 0
M  V30 4873 H 448.388 -1.35407 0.489981 0
M  V30 4874 H 450.341 -4.07581 -1.07031 0
M  V30 4875 H 449.065 -2.90622 -1.49019 0
M  V30 4876 H 447.724 -3.62952 0.515915 0
M  V30 4877 H 447.372 -4.73395 -1.70019 0
M  V30 4878 H 447.072 -5.86514 -0.35705 0
M  V30 4879 H 448.596 -5.96955 -1.28361 0
M  V30 4880 H 450.01 -5.65113 0.965393 0
M  V30 4881 H 448.407 -5.73967 1.75161 0
M  V30 4882 H 449.477 -4.37006 2.10128 0
M  V30 4883 N 450.82 -0.546701 -1.47814 0
M  V30 4884 C 452.236 -0.205717 -1.58269 0
M  V30 4885 C 452.436 1.29153 -1.54667 0
M  V30 4886 O 451.492 2.07098 -1.44453 0
M  V30 4887 C 452.805 -0.823065 -2.89216 0
M  V30 4888 C 454.353 -0.793328 -3.02779 0
M  V30 4889 C 454.828 -1.38955 -4.36412 0
M  V30 4890 N 456.319 -1.35227 -4.43021 0
M  V30 4891 C 457.054 -1.78333 -5.44963 0
M  V30 4892 N 456.55 -2.29246 -6.53772 0
M  V30 4893 N 458.343 -1.69467 -5.35945 0
M  V30 4894 H 450.494 -1.5196 -1.48398 0
M  V30 4895 H 452.757 -0.633078 -0.705632 0
M  V30 4896 H 452.463 -1.8749 -2.97558 0
M  V30 4897 H 452.337 -0.309915 -3.75925 0
M  V30 4898 H 454.724 0.249784 -2.94041 0
M  V30 4899 H 454.805 -1.34412 -2.17639 0
M  V30 4900 H 454.449 -2.43168 -4.45906 0
M  V30 4901 H 454.379 -0.814291 -5.20266 0
M  V30 4902 H 456.87 -0.979739 -3.64979 0
M  V30 4903 H 457.183 -2.60089 -7.27718 0
M  V30 4904 H 455.528 -2.3325 -6.5469 0
M  V30 4905 H 458.719 -1.29477 -4.49837 0
M  V30 4906 H 458.892 -2.03381 -6.15256 0
M  V30 4907 N 452.299 1.55045 -0.282633 0
M  V30 4908 C 453.262 2.21515 0.588539 0
M  V30 4909 C 454.262 1.19535 1.07554 0
M  V30 4910 O 455.452 1.44391 0.974514 0
M  V30 4911 C 452.584 2.88704 1.8128 0
M  V30 4912 H 453.777 2.99899 0.00806397 0
M  V30 4913 H 451.33 1.56265 -0.0333067 0
M  V30 4914 H 452.065 2.14352 2.43359 0
M  V30 4915 H 451.85 3.63443 1.47144 0
M  V30 4916 H 453.34 3.39465 2.43214 0
M  V30 4917 N 453.777 0.010035 1.57597 0
M  V30 4918 C 455.002 -0.687021 1.95691 0
M  V30 4919 C 455.427 -1.65952 0.885519 0
M  V30 4920 O 454.785 -1.80633 -0.15543 0
M  V30 4921 C 454.833 -1.3864 3.32884 0
M  V30 4922 O 453.937 -2.50115 3.27897 0
M  V30 4923 H 453.278 -0.181989 0.638573 0
M  V30 4924 H 455.808 0.0662122 2.04493 0
M  V30 4925 H 455.818 -1.74754 3.6868 0
M  V30 4926 H 454.493 -0.673411 4.10412 0
M  V30 4927 H 453.07 -2.16253 3.03791 0
M  V30 4928 N 455.255 -1.55392 -0.262866 0
M  V30 4929 C 456.188 -1.8391 -1.35101 0
M  V30 4930 C 457.166 -0.692901 -1.47097 0
M  V30 4931 O 458.35 -0.936979 -1.63563 0
M  V30 4932 C 455.477 -2.00969 -2.72634 0
M  V30 4933 C 454.523 -3.23559 -2.7787 0
M  V30 4934 S 455.356 -4.80647 -2.3609 0
M  V30 4935 C 456.512 -5.00692 -3.75578 0
M  V30 4936 H 456.745 -2.75918 -1.1071 0
M  V30 4937 H 454.278 -1.47294 -0.463029 0
M  V30 4938 H 456.236 -2.11482 -3.51832 0
M  V30 4939 H 454.897 -1.09832 -2.94272 0
M  V30 4940 H 454.09 -3.32413 -3.78837 0
M  V30 4941 H 453.692 -3.11689 -2.06702 0
M  V30 4942 H 455.984 -4.87055 -4.70939 0
M  V30 4943 H 456.927 -6.02717 -3.71669 0
M  V30 4944 H 457.335 -4.28619 -3.6735 0
M  V30 4945 N 456.733 0.527833 -1.48498 0
M  V30 4946 C 458.149 0.856571 -1.34666 0
M  V30 4947 C 458.349 1.98271 -0.35931 0
M  V30 4948 O 457.405 2.51551 0.218703 0
M  V30 4949 C 458.718 1.22207 -2.74747 0
M  V30 4950 C 460.266 1.33183 -2.83251 0
M  V30 4951 C 460.741 1.73075 -4.24039 0
M  V30 4952 N 462.232 1.80174 -4.26722 0
M  V30 4953 C 462.967 2.1243 -5.32598 0
M  V30 4954 N 462.463 2.43096 -6.4875 0
M  V30 4955 N 464.256 2.13454 -5.19994 0
M  V30 4956 H 456.407 -0.215174 -2.11307 0
M  V30 4957 H 458.67 -0.0336281 -0.947403 0
M  V30 4958 H 458.376 0.468195 -3.4857 0
M  V30 4959 H 458.25 2.17173 -3.08409 0
M  V30 4960 H 460.637 2.07647 -2.09683 0
M  V30 4961 H 460.718 0.363333 -2.53206 0
M  V30 4962 H 460.362 0.991712 -4.98124 0
M  V30 4963 H 460.292 2.70979 -4.51529 0
M  V30 4964 H 462.783 1.58744 -3.42942 0
M  V30 4965 H 463.096 2.6682 -7.25277 0
M  V30 4966 H 461.441 2.40611 -6.52021 0
M  V30 4967 H 464.632 1.88956 -4.28268 0
M  V30 4968 H 464.805 2.38261 -6.02608 0
M  V30 4969 N 458.211 1.37122 0.776871 0
M  V30 4970 C 459.121 1.34651 1.9211 0
M  V30 4971 C 460.137 0.246824 1.7224 0
M  V30 4972 O 461.313 0.48134 1.95563 0
M  V30 4973 C 458.378 1.14748 3.2716 0
M  V30 4974 C 457.439 2.34308 3.5972 0
M  V30 4975 C 456.672 2.15345 4.88326 0
M  V30 4976 O 456.895 1.13507 5.58992 0
M  V30 4977 O 455.829 3.03414 5.1983 0
M  V30 4978 H 459.655 2.31013 1.97146 0
M  V30 4979 H 457.24 1.17799 0.918901 0
M  V30 4980 H 459.122 1.05616 4.0795 0
M  V30 4981 H 457.797 0.214562 3.22988 0
M  V30 4982 H 456.704 2.49011 2.79185 0
M  V30 4983 H 458.037 3.26149 3.68629 0
M  V30 4984 N 459.689 -1.00246 1.21608 0
M  V30 4985 C 460.619 -2.10921 1.00172 0
M  V30 4986 C 461.6 -1.69938 -0.0741587 0
M  V30 4987 O 462.785 -1.94009 0.0861753 0
M  V30 4988 C 459.915 -3.42618 0.568355 0
M  V30 4989 C 458.869 -3.97407 1.58909 0
M  V30 4990 C 458.195 -5.25038 1.01187 0
M  V30 4991 C 459.495 -4.2918 2.97661 0
M  V30 4992 H 461.189 -2.29112 1.92739 0
M  V30 4993 H 458.735 -1.10101 0.928102 0
M  V30 4994 H 460.688 -4.19444 0.405555 0
M  V30 4995 H 459.412 -3.24227 -0.392961 0
M  V30 4996 H 458.071 -3.22703 1.73949 0
M  V30 4997 H 457.719 -5.02982 0.0421965 0
M  V30 4998 H 457.419 -5.62661 1.6937 0
M  V30 4999 H 458.943 -6.04507 0.860448 0
M  V30 5000 H 460.357 -4.96839 2.86049 0
M  V30 5001 H 458.754 -4.77952 3.6288 0
M  V30 5002 H 459.824 -3.3735 3.48315 0
M  V30 5003 N 461.167 -1.02423 -1.1978 0
M  V30 5004 C 462.415 -0.716569 -1.8897 0
M  V30 5005 C 462.736 0.756769 -1.79716 0
M  V30 5006 O 462.006 1.5449 -1.20456 0
M  V30 5007 H 460.586 -0.262062 -0.699523 0
M  V30 5008 H 463.248 -1.29747 -1.45436 0
M  V30 5009 H 462.344 -1.00675 -2.95417 0
M  V30 5010 N 462.645 1.35699 -0.801477 0
M  V30 5011 C 463.575 2.32436 -0.222658 0
M  V30 5012 C 464.556 1.5723 0.649057 0
M  V30 5013 O 465.741 1.85324 0.580387 0
M  V30 5014 C 462.871 3.41469 0.633719 0
M  V30 5015 C 461.825 4.27774 -0.139083 0
M  V30 5016 C 461.151 5.28082 0.838666 0
M  V30 5017 C 462.451 5.04946 -1.33517 0
M  V30 5018 H 464.145 2.81094 -1.03086 0
M  V30 5019 H 461.691 1.35146 -0.497155 0
M  V30 5020 H 463.644 4.08143 1.04868 0
M  V30 5021 H 462.368 2.91408 1.47475 0
M  V30 5022 H 461.027 3.62673 -0.535156 0
M  V30 5023 H 460.675 4.7429 1.67506 0
M  V30 5024 H 460.375 5.86695 0.32594 0
M  V30 5025 H 461.899 5.97628 1.25194 0
M  V30 5026 H 463.313 5.64593 -0.995349 0
M  V30 5027 H 461.71 5.7303 -1.78202 0
M  V30 5028 H 462.78 4.35886 -2.12442 0
M  V30 5029 N 464.123 0.554532 1.47522 0
M  V30 5030 C 465.053 -0.182974 2.32782 0
M  V30 5031 C 466.034 -0.911377 1.43624 0
M  V30 5032 O 467.219 -0.892366 1.72483 0
M  V30 5033 C 464.349 -1.21513 3.25349 0
M  V30 5034 C 463.303 -0.603355 4.23726 0
M  V30 5035 C 462.629 -1.73995 5.05598 0
M  V30 5036 C 463.929 0.441121 5.20434 0
M  V30 5037 H 465.623 0.52882 2.94693 0
M  V30 5038 H 463.169 0.255759 1.41711 0
M  V30 5039 H 465.122 -1.73922 3.83835 0
M  V30 5040 H 463.846 -1.95683 2.61487 0
M  V30 5041 H 462.505 -0.10059 3.66462 0
M  V30 5042 H 462.153 -2.47063 4.38143 0
M  V30 5043 H 461.853 -1.3364 5.72201 0
M  V30 5044 H 463.377 -2.26735 5.66942 0
M  V30 5045 H 464.791 0.00319931 5.733 0
M  V30 5046 H 463.188 0.763402 5.95224 0
M  V30 5047 H 464.258 1.33799 4.66075 0
M  V30 5048 N 465.601 -1.54893 0.290851 0
M  V30 5049 C 466.85 -1.99111 -0.322113 0
M  V30 5050 C 467.163 -1.18283 -1.55784 0
M  V30 5051 O 468.369 -1.5272 -2.24475 0
M  V30 5052 C 466.825 -3.54442 -0.624438 0
M  V30 5053 C 466.433 -4.44066 0.592373 0
M  V30 5054 C 468.177 -4.07211 -1.19916 0
M  V30 5055 C 466.084 -5.90812 0.263762 0
M  V30 5056 H 465.014 -0.743712 -0.124133 0
M  V30 5057 H 467.665 -1.79132 0.39797 0
M  V30 5058 H 466.047 -3.70281 -1.40384 0
M  V30 5059 H 467.221 -4.39999 1.36886 0
M  V30 5060 H 465.536 -4.02015 1.08502 0
M  V30 5061 H 468.133 -5.14407 -1.45909 0
M  V30 5062 H 468.476 -3.57196 -2.13815 0
M  V30 5063 H 469.009 -3.94873 -0.481687 0
M  V30 5064 H 465.748 -6.44955 1.17105 0
M  V30 5065 H 465.268 -5.97911 -0.475655 0
M  V30 5066 H 466.947 -6.46852 -0.138354 0
M  V30 5067 N 467.08 -0.0183926 -1.57589 0
M  V30 5068 C 468.327 0.662562 -1.91354 0
M  V30 5069 C 468.655 1.72747 -0.893788 0
M  V30 5070 O 467.91 1.9545 0.0988509 0
M  V30 5071 C 468.209 1.32676 -3.31861 0
M  V30 5072 C 467.875 0.393267 -4.49182 0
M  V30 5073 C 466.537 0.136302 -4.81007 0
M  V30 5074 C 468.889 -0.248366 -5.20608 0
M  V30 5075 C 466.217 -0.770282 -5.81621 0
M  V30 5076 C 468.569 -1.14294 -6.22189 0
M  V30 5077 C 467.233 -1.4089 -6.52462 0
M  V30 5078 H 466.503 0.242448 -0.700214 0
M  V30 5079 H 469.15 -0.0778629 -1.91342 0
M  V30 5080 H 467.455 2.14168 -3.28084 0
M  V30 5081 H 469.152 1.86001 -3.55253 0
M  V30 5082 H 465.742 0.603723 -4.24327 0
M  V30 5083 H 469.926 -0.062883 -4.9626 0
M  V30 5084 H 465.182 -0.984154 -6.03427 0
M  V30 5085 H 469.356 -1.64637 -6.76659 0
M  V30 5086 H 466.983 -2.11306 -7.30242 0
M  V30 5087 N 468.558 1.5553 0.254621 0
M  V30 5088 C 469.805 1.77 0.983736 0
M  V30 5089 C 470.133 0.58133 1.85609 0
M  V30 5090 O 469.388 -0.435621 1.9079 0
M  V30 5091 C 469.687 3.03891 1.88109 0
M  V30 5092 C 469.353 4.35597 1.16472 0
M  V30 5093 C 468.015 4.7139 0.966714 0
M  V30 5094 C 470.367 5.1705 0.656387 0
M  V30 5095 C 467.695 5.86176 0.247942 0
M  V30 5096 C 470.047 6.32581 -0.0488807 0
M  V30 5097 C 468.711 6.67 -0.258438 0
M  V30 5098 H 467.981 0.647688 0.359974 0
M  V30 5099 H 470.628 1.89802 0.254463 0
M  V30 5100 H 468.933 2.86068 2.67717 0
M  V30 5101 H 470.63 3.17701 2.44677 0
M  V30 5102 H 467.22 4.07475 1.32899 0
M  V30 5103 H 471.404 4.8986 0.796933 0
M  V30 5104 H 466.66 6.11354 0.075035 0
M  V30 5105 H 470.834 6.94942 -0.450444 0
M  V30 5106 H 468.461 7.55793 -0.817358 0
M  V30 5107 N 470.036 -0.519951 1.48776 0
M  V30 5108 C 470.966 -1.63253 1.66945 0
M  V30 5109 C 471.947 -1.62014 0.518224 0
M  V30 5110 O 473.132 -1.79053 0.751919 0
M  V30 5111 C 470.262 -3.0181 1.71836 0
M  V30 5112 C 469.216 -3.17911 2.8656 0
M  V30 5113 C 468.542 -4.5763 2.76548 0
M  V30 5114 C 469.842 -2.99729 4.27738 0
M  V30 5115 H 471.536 -1.48302 2.6009 0
M  V30 5116 H 469.082 -0.712026 1.25165 0
M  V30 5117 H 471.035 -3.79525 1.83135 0
M  V30 5118 H 469.759 -3.17806 0.752775 0
M  V30 5119 H 468.418 -2.42616 2.74833 0
M  V30 5120 H 468.066 -4.70476 1.77937 0
M  V30 5121 H 467.766 -4.69346 3.53536 0
M  V30 5122 H 469.29 -5.37431 2.89828 0
M  V30 5123 H 470.704 -3.67228 4.40246 0
M  V30 5124 H 469.101 -3.22932 5.05801 0
M  V30 5125 H 470.171 -1.96047 4.43502 0
M  V30 5126 N 471.514 -1.37532 -0.769588 0
M  V30 5127 C 472.761 -1.3286 -1.52822 0
M  V30 5128 C 473.089 0.0862597 -1.94309 0
M  V30 5129 O 472.344 1.05995 -1.6451 0
M  V30 5130 C 472.643 -2.21558 -2.8044 0
M  V30 5131 C 472.309 -3.69796 -2.57996 0
M  V30 5132 C 470.971 -4.10194 -2.51583 0
M  V30 5133 C 473.323 -4.63699 -2.37976 0
M  V30 5134 C 470.651 -5.42608 -2.23144 0
M  V30 5135 C 473.003 -5.96353 -2.1106 0
M  V30 5136 C 471.667 -6.35853 -2.03093 0
M  V30 5137 H 470.937 -0.486168 -0.559215 0
M  V30 5138 H 473.584 -1.69757 -0.886277 0
M  V30 5139 H 471.889 -1.77663 -3.49204 0
M  V30 5140 H 473.586 -2.15256 -3.38328 0
M  V30 5141 H 470.176 -3.37759 -2.63851 0
M  V30 5142 H 474.36 -4.33346 -2.41919 0
M  V30 5143 H 469.616 -5.72173 -2.15472 0
M  V30 5144 H 473.79 -6.68667 -1.94568 0
M  V30 5145 H 471.417 -7.38382 -1.8082 0
M  V30 5146 N 472.992 0.995999 -1.22138 0
M  V30 5147 C 474.241 1.72928 -1.03821 0
M  V30 5148 C 474.554 1.90872 0.427444 0
M  V30 5149 O 475.76 2.61496 0.730212 0
M  V30 5150 C 474.216 3.11124 -1.80913 0
M  V30 5151 C 473.824 3.01122 -3.31707 0
M  V30 5152 C 475.568 3.8852 -1.71035 0
M  V30 5153 C 473.475 4.34453 -4.01253 0
M  V30 5154 H 472.405 0.648376 -0.384869 0
M  V30 5155 H 475.056 1.11213 -1.45959 0
M  V30 5156 H 473.438 3.73503 -1.31573 0
M  V30 5157 H 474.612 2.47926 -3.88419 0
M  V30 5158 H 472.927 2.3721 -3.42228 0
M  V30 5159 H 475.524 4.872 -2.20318 0
M  V30 5160 H 475.867 4.1087 -0.670196 0
M  V30 5161 H 476.4 3.32812 -2.17902 0
M  V30 5162 H 473.139 4.17303 -5.05508 0
M  V30 5163 H 472.659 4.87574 -3.49331 0
M  V30 5164 H 474.338 5.03215 -4.06674 0
M  V30 5165 N 474.47 1.03057 1.19235 0
M  V30 5166 C 475.718 0.726581 1.88587 0
M  V30 5167 C 476.039 -0.747227 1.80115 0
M  V30 5168 O 475.309 -1.53849 1.21274 0
M  V30 5169 H 473.889 0.265768 0.698124 0
M  V30 5170 H 476.551 1.30516 1.44746 0
M  V30 5171 H 475.647 1.0224 2.94879 0
M  V30 5172 N 475.948 -1.35272 0.808662 0
M  V30 5173 C 477.194 -1.99003 0.390581 0
M  V30 5174 C 477.527 -1.63999 -1.0401 0
M  V30 5175 O 476.802 -0.904368 -1.72196 0
M  V30 5176 C 477.085 -3.55454 0.576566 0
M  V30 5177 C 476.938 -4.00249 2.05233 0
M  V30 5178 C 478.257 -4.401 0.00354277 0
M  V30 5179 H 475.376 -0.722917 0.143388 0
M  V30 5180 H 478.018 -1.6039 1.01858 0
M  V30 5181 H 476.168 -3.88477 0.0419766 0
M  V30 5182 H 477.84 -3.77626 2.64946 0
M  V30 5183 H 476.083 -3.51082 2.54801 0
M  V30 5184 H 476.754 -5.0911 2.13333 0
M  V30 5185 H 479.23 -4.13548 0.460117 0
M  V30 5186 H 478.106 -5.48656 0.163575 0
M  V30 5187 H 478.367 -4.28444 -1.09032 0
M  V30 5188 N 477.426 -0.562348 -1.47226 0
M  V30 5189 C 478.672 -0.0402761 -2.0276 0
M  V30 5190 C 479.005 1.30823 -1.43523 0
M  V30 5191 O 478.28 1.85249 -0.592705 0
M  V30 5192 C 478.563 0.047311 -3.60069 0
M  V30 5193 C 478.416 -1.32865 -4.29729 0
M  V30 5194 C 479.735 0.758182 -4.3352 0
M  V30 5195 H 476.854 -0.0161105 -0.736824 0
M  V30 5196 H 479.496 -0.725628 -1.75598 0
M  V30 5197 H 477.646 0.630986 -3.83342 0
M  V30 5198 H 479.318 -1.95593 -4.17781 0
M  V30 5199 H 477.561 -1.90195 -3.89882 0
M  V30 5200 H 478.232 -1.22004 -5.38349 0
M  V30 5201 H 480.708 0.262546 -4.15271 0
M  V30 5202 H 479.584 0.78844 -5.43208 0
M  V30 5203 H 479.845 1.81537 -4.03109 0
M  V30 5204 N 478.904 1.54736 -0.299062 0
M  V30 5205 C 479.834 2.26409 0.571085 0
M  V30 5206 C 480.815 1.2629 1.13951 0
M  V30 5207 O 482 1.55059 1.16921 0
M  V30 5208 C 479.13 3.00338 1.74396 0
M  V30 5209 C 478.084 4.07588 1.30599 0
M  V30 5210 C 477.41 4.69222 2.56387 0
M  V30 5211 C 478.71 5.20455 0.438645 0
M  V30 5212 H 480.404 2.99388 -0.0266991 0
M  V30 5213 H 477.95 1.43993 -0.0142812 0
M  V30 5214 H 479.903 3.49198 2.35878 0
M  V30 5215 H 478.627 2.24934 2.36796 0
M  V30 5216 H 477.286 3.59575 0.71424 0
M  V30 5217 H 476.934 3.9046 3.17097 0
M  V30 5218 H 476.634 5.41653 2.27784 0
M  V30 5219 H 478.158 5.20844 3.18675 0
M  V30 5220 H 479.572 5.65221 0.959085 0
M  V30 5221 H 477.969 5.99594 0.246466 0
M  V30 5222 H 479.039 4.8192 -0.536738 0
M  V30 5223 N 480.382 0.0267497 1.57577 0
M  V30 5224 C 481.629 -0.652404 1.91703 0
M  V30 5225 C 481.957 -1.72271 0.902936 0
M  V30 5226 O 481.212 -1.955 -0.0884843 0
M  V30 5227 C 481.511 -1.30914 3.3256 0
M  V30 5228 C 481.177 -0.369441 4.49384 0
M  V30 5229 C 479.839 -0.110791 4.81072 0
M  V30 5230 C 482.191 0.275971 5.20469 0
M  V30 5231 C 479.519 0.801116 5.81205 0
M  V30 5232 C 481.871 1.17592 6.21575 0
M  V30 5233 C 480.535 1.44348 6.51705 0
M  V30 5234 H 479.805 -0.238732 0.70149 0
M  V30 5235 H 482.452 0.0880091 1.91298 0
M  V30 5236 H 480.757 -2.12425 3.29216 0
M  V30 5237 H 482.454 -1.84115 3.56234 0
M  V30 5238 H 479.044 -0.581211 4.24641 0
M  V30 5239 H 483.228 0.0892 4.9622 0
M  V30 5240 H 478.484 1.01614 6.02897 0
M  V30 5241 H 482.658 1.68223 6.75777 0
M  V30 5242 H 480.285 2.15176 7.29111 0
M  V30 5243 N 481.861 -1.55662 -0.24637 0
M  V30 5244 C 483.086 -1.81914 -0.996093 0
M  V30 5245 C 483.511 -0.603875 -1.78143 0
M  V30 5246 O 482.869 0.447091 -1.75701 0
M  V30 5247 C 482.917 -3.05908 -1.90925 0
M  V30 5248 O 482.021 -2.82861 -3.00105 0
M  V30 5249 H 481.362 -0.600481 -0.283406 0
M  V30 5250 H 483.892 -2.02848 -0.267199 0
M  V30 5251 H 483.902 -3.35356 -2.3238 0
M  V30 5252 H 482.577 -3.93999 -1.33183 0
M  V30 5253 H 481.154 -2.64583 -2.62775 0
M  V30 5254 N 483.339 0.512053 -1.4905 0
M  V30 5255 C 484.564 1.2959 -1.6193 0
M  V30 5256 C 484.989 1.85906 -0.286454 0
M  V30 5257 O 484.347 1.65312 0.744426 0
M  V30 5258 C 484.395 2.40987 -2.68249 0
M  V30 5259 O 483.499 3.44531 -2.26654 0
M  V30 5260 H 482.84 0.383053 -0.542371 0
M  V30 5261 H 485.37 0.614231 -1.95162 0
M  V30 5262 H 485.38 2.86913 -2.90078 0
M  V30 5263 H 484.055 1.99361 -3.65004 0
M  V30 5264 H 482.632 3.046 -2.15112 0
M  V30 5265 N 484.817 1.37938 0.762283 0
M  V30 5266 C 485.78 1.34279 1.85747 0
M  V30 5267 C 486.78 0.244969 1.58923 0
M  V30 5268 O 487.97 0.501365 1.66829 0
M  V30 5269 C 485.102 1.08833 3.23061 0
M  V30 5270 H 486.295 2.31705 1.90401 0
M  V30 5271 H 483.848 1.23105 0.963057 0
M  V30 5272 H 484.583 0.119767 3.24079 0
M  V30 5273 H 484.368 1.88306 3.43923 0
M  V30 5274 H 485.858 1.08946 4.03138 0
M  V30 5275 N 486.295 -0.989507 1.22664 0
M  V30 5276 C 487.541 -1.7321 1.05481 0
M  V30 5277 C 487.874 -1.89852 -0.408635 0
M  V30 5278 O 487.149 -1.44416 -1.30285 0
M  V30 5279 C 487.432 -3.1357 1.77047 0
M  V30 5280 C 487.285 -3.04555 3.31008 0
M  V30 5281 C 488.604 -4.12812 1.5256 0
M  V30 5282 H 485.723 -0.628697 0.384589 0
M  V30 5283 H 488.365 -1.15258 1.51049 0
M  V30 5284 H 486.515 -3.63046 1.3831 0
M  V30 5285 H 488.187 -2.62674 3.7921 0
M  V30 5286 H 486.43 -2.41278 3.6051 0
M  V30 5287 H 487.101 -4.03894 3.76263 0
M  V30 5288 H 489.577 -3.72106 1.86215 0
M  V30 5289 H 488.453 -5.09132 2.05124 0
M  V30 5290 H 488.714 -4.39711 0.458936 0
M  V30 5291 N 487.773 -1.03688 -1.18687 0
M  V30 5292 C 489.003 -0.756819 -1.92239 0
M  V30 5293 C 489.411 0.689374 -1.76194 0
M  V30 5294 O 488.754 1.48126 -1.08648 0
M  V30 5295 C 488.816 -1.03851 -3.44173 0
M  V30 5296 C 488.48 -2.47785 -3.83994 0
M  V30 5297 C 489.477 -3.4595 -3.88091 0
M  V30 5298 C 487.162 -2.82397 -4.154 0
M  V30 5299 C 489.156 -4.76779 -4.23038 0
M  V30 5300 C 486.843 -4.13433 -4.50018 0
M  V30 5301 C 487.841 -5.10434 -4.53813 0
M  V30 5302 O 487.529 -6.39122 -4.87625 0
M  V30 5303 H 487.261 -0.275678 -0.617234 0
M  V30 5304 H 489.815 -1.38658 -1.51536 0
M  V30 5305 H 488.045 -0.351612 -3.85098 0
M  V30 5306 H 489.734 -0.746846 -3.9897 0
M  V30 5307 H 490.5 -3.20549 -3.63969 0
M  V30 5308 H 486.379 -2.07568 -4.11627 0
M  V30 5309 H 489.923 -5.52488 -4.25914 0
M  V30 5310 H 485.82 -4.38604 -4.736 0
M  V30 5311 H 486.588 -6.43715 -5.05542 0
M  V30 5312 N 489.251 1.34841 -0.815825 0
M  V30 5313 C 490.498 1.98499 -0.400535 0
M  V30 5314 C 490.826 1.64699 1.03463 0
M  V30 5315 O 490.081 0.907006 1.73412 0
M  V30 5316 C 490.38 3.53273 -0.541541 0
M  V30 5317 C 490.046 4.06966 -1.94138 0
M  V30 5318 C 488.708 4.21341 -2.32433 0
M  V30 5319 C 491.06 4.35933 -2.85677 0
M  V30 5320 C 488.388 4.62007 -3.61617 0
M  V30 5321 C 490.74 4.78042 -4.14317 0
M  V30 5322 C 489.404 4.90622 -4.52599 0
M  V30 5323 H 488.674 0.72636 -0.146566 0
M  V30 5324 H 491.321 1.60902 -1.0384 0
M  V30 5325 H 489.626 3.91387 0.179741 0
M  V30 5326 H 491.323 4.00497 -0.20085 0
M  V30 5327 H 487.913 3.96235 -1.63388 0
M  V30 5328 H 492.097 4.24372 -2.57337 0
M  V30 5329 H 487.353 4.69937 -3.91113 0
M  V30 5330 H 491.527 4.99415 -4.85342 0
M  V30 5331 H 489.154 5.2189 -5.52752 0
M  V30 5332 N 490.729 0.570148 1.46925 0
M  V30 5333 C 491.692 -0.159933 2.28641 0
M  V30 5334 C 492.692 -0.830638 1.37685 0
M  V30 5335 O 493.882 -0.684516 1.60187 0
M  V30 5336 C 491.014 -1.2354 3.17727 0
M  V30 5337 H 492.207 0.558035 2.94662 0
M  V30 5338 H 489.76 0.327603 1.52828 0
M  V30 5339 H 490.495 -1.98535 2.56426 0
M  V30 5340 H 490.28 -0.759125 3.84681 0
M  V30 5341 H 491.77 -1.74782 3.79264 0
M  V30 5342 N 492.207 -1.54576 0.307264 0
M  V30 5343 C 493.117 -2.27435 -0.57536 0
M  V30 5344 C 494.133 -1.31183 -1.14311 0
M  V30 5345 O 495.309 -1.64175 -1.16656 0
M  V30 5346 C 492.374 -3.00566 -1.72803 0
M  V30 5347 C 491.435 -4.12369 -1.19373 0
M  V30 5348 C 490.668 -4.82003 -2.29147 0
M  V30 5349 O 490.891 -4.51038 -3.49171 0
M  V30 5350 O 489.825 -5.69271 -1.95485 0
M  V30 5351 H 493.651 -3.03696 0.0158558 0
M  V30 5352 H 491.236 -1.49219 0.0735064 0
M  V30 5353 H 493.118 -3.46416 -2.39946 0
M  V30 5354 H 491.793 -2.27195 -2.30574 0
M  V30 5355 H 490.7 -3.70905 -0.487851 0
M  V30 5356 H 492.033 -4.87736 -0.661376 0
M  V30 5357 N 493.685 -0.035106 -1.57561 0
M  V30 5358 C 494.931 0.64318 -1.92331 0
M  V30 5359 C 495.264 1.71434 -0.912368 0
M  V30 5360 O 494.539 1.94395 0.0640303 0
M  V30 5361 C 494.822 1.25411 -3.37556 0
M  V30 5362 C 494.675 0.192109 -4.4939 0
M  V30 5363 C 495.994 2.17041 -3.82859 0
M  V30 5364 H 493.113 0.232341 -0.699419 0
M  V30 5365 H 495.755 -0.0935889 -1.89769 0
M  V30 5366 H 493.905 1.88205 -3.39869 0
M  V30 5367 H 495.577 -0.438849 -4.59208 0
M  V30 5368 H 493.82 -0.481725 -4.31117 0
M  V30 5369 H 494.491 0.659292 -5.48049 0
M  V30 5370 H 496.967 1.64228 -3.8232 0
M  V30 5371 H 495.843 2.56738 -4.85157 0
M  V30 5372 H 496.104 3.06401 -3.18702 0
M  V30 5373 N 495.163 1.55791 0.238111 0
M  V30 5374 C 496.44 1.68798 0.98826 0
M  V30 5375 C 496.82 0.577562 2.03045 0
M  V30 5376 O 496.168 -0.41778 2.24648 0
M  V30 5377 C 496.378 3.09454 1.61367 0
M  V30 5378 C 497.726 3.68335 2.11221 0
M  V30 5379 O 498.75 3.1231 1.71292 0
M  V30 5380 O 497.609 4.6657 2.84561 0
M  V30 5381 H 494.703 0.686881 0.460568 0
M  V30 5382 H 497.249 1.68118 0.231202 0
M  V30 5383 H 496.021 3.81726 0.860295 0
M  V30 5384 H 495.644 3.14182 2.4367 0
M  V30 5385 N 496.642 -0.504142 1.49319 0
M  V30 5386 C 498.058 -0.835039 1.36012 0
M  V30 5387 C 498.258 -1.97674 0.390808 0
M  V30 5388 O 497.314 -2.51867 -0.178655 0
M  V30 5389 C 498.627 -1.17821 2.76656 0
M  V30 5390 C 500.175 -1.2866 2.85334 0
M  V30 5391 C 500.65 -1.66307 4.26739 0
M  V30 5392 N 502.141 -1.73362 4.29534 0
M  V30 5393 C 502.876 -2.0393 5.35911 0
M  V30 5394 N 502.372 -2.32744 6.52535 0
M  V30 5395 N 504.165 -2.05155 5.23324 0
M  V30 5396 H 496.316 0.248764 2.10938 0
M  V30 5397 H 498.579 0.0486962 0.946748 0
M  V30 5398 H 498.285 -0.412682 3.4927 0
M  V30 5399 H 498.159 -2.12239 3.11825 0
M  V30 5400 H 500.546 -2.04285 2.1296 0
M  V30 5401 H 500.627 -0.323004 2.53752 0
M  V30 5402 H 500.271 -0.91234 4.99639 0
M  V30 5403 H 500.201 -2.63761 4.55782 0
M  V30 5404 H 502.692 -1.53268 3.45424 0
M  V30 5405 H 503.005 -2.55248 7.2943 0
M  V30 5406 H 501.35 -2.30207 6.55767 0
M  V30 5407 H 504.541 -1.82119 4.3122 0
M  V30 5408 H 504.714 -2.28644 6.06322 0
M  V30 5409 N 498.12 -1.38341 -0.754957 0
M  V30 5410 C 499.366 -1.34672 -1.51628 0
M  V30 5411 C 499.699 0.0636036 -1.94096 0
M  V30 5412 O 498.974 1.0245 -1.6533 0
M  V30 5413 C 499.257 -2.30116 -2.76981 0
M  V30 5414 C 499.11 -3.80003 -2.4066 0
M  V30 5415 C 500.429 -2.23715 -3.78998 0
M  V30 5416 H 497.548 -0.490517 -0.550056 0
M  V30 5417 H 500.19 -1.69178 -0.864807 0
M  V30 5418 H 498.34 -2.00821 -3.3257 0
M  V30 5419 H 500.012 -4.19966 -1.90856 0
M  V30 5420 H 498.255 -3.97751 -1.73137 0
M  V30 5421 H 498.926 -4.42244 -3.30339 0
M  V30 5422 H 501.402 -2.49574 -3.32945 0
M  V30 5423 H 500.278 -2.9261 -4.64403 0
M  V30 5424 H 500.539 -1.23554 -4.24484 0
M  V30 5425 N 499.598 0.982988 -1.23187 0
M  V30 5426 C 500.875 1.69814 -0.970707 0
M  V30 5427 C 501.255 2.04811 0.511424 0
M  V30 5428 O 500.603 1.73924 1.48198 0
M  V30 5429 C 500.813 2.94143 -1.87831 0
M  V30 5430 C 502.161 3.66712 -2.14026 0
M  V30 5431 O 503.185 3.04171 -1.8536 0
M  V30 5432 O 502.044 4.79258 -2.62629 0
M  V30 5433 H 499.138 0.741659 -0.365884 0
M  V30 5434 H 501.684 1.03844 -1.34218 0
M  V30 5435 H 500.456 2.64858 -2.88038 0
M  V30 5436 H 500.079 3.6785 -1.50905 0
M  V30 5437 N 501.076 1.04316 1.18135 0
M  V30 5438 C 502.301 0.768047 1.92655 0
M  V30 5439 C 502.726 -0.66904 1.758 0
M  V30 5440 O 502.084 -1.46372 1.06981 0
M  V30 5441 C 502.132 1.14239 3.42026 0
M  V30 5442 O 501.236 0.269333 4.1152 0
M  V30 5443 H 500.577 0.282436 0.600937 0
M  V30 5444 H 503.107 1.39367 1.49793 0
M  V30 5445 H 503.117 1.10538 3.92741 0
M  V30 5446 H 501.792 2.18928 3.53615 0
M  V30 5447 H 500.369 0.366175 3.71098 0
M  V30 5448 N 502.554 -1.34406 0.822964 0
M  V30 5449 C 503.504 -2.26963 0.217208 0
M  V30 5450 C 504.488 -1.48536 -0.618545 0
M  V30 5451 O 505.68 -1.7056 -0.473118 0
M  V30 5452 C 502.809 -3.37655 -0.619973 0
M  V30 5453 C 501.895 -4.23495 0.226411 0
M  V30 5454 N 502.286 -4.88876 1.29744 0
M  V30 5455 C 500.584 -4.45999 0.0107554 0
M  V30 5456 C 501.285 -5.52642 1.81553 0
M  V30 5457 N 500.261 -5.31949 1.11942 0
M  V30 5458 H 504.063 -2.75017 1.03647 0
M  V30 5459 H 501.577 -1.48126 0.665777 0
M  V30 5460 H 503.574 -4.02932 -1.07011 0
M  V30 5461 H 502.234 -2.91151 -1.43739 0
M  V30 5462 H 503.245 -4.89886 1.68024 0
M  V30 5463 H 499.922 -4.10253 -0.774495 0
M  V30 5464 H 501.312 -6.14755 2.71156 0
M  V30 5465 N 504.032 -0.577932 -1.46621 0
M  V30 5466 C 505.279 -0.0616879 -2.02406 0
M  V30 5467 C 505.607 1.29638 -1.44997 0
M  V30 5468 O 504.862 1.86176 -0.60308 0
M  V30 5469 C 505.161 0.0590832 -3.57351 0
M  V30 5470 C 504.827 -1.23077 -4.33777 0
M  V30 5471 C 503.489 -1.58416 -4.54376 0
M  V30 5472 C 505.841 -2.08457 -4.77698 0
M  V30 5473 C 503.169 -2.78943 -5.16147 0
M  V30 5474 C 505.521 -3.28204 -5.408 0
M  V30 5475 C 504.185 -3.63832 -5.59627 0
M  V30 5476 H 503.455 -0.0225732 -0.740656 0
M  V30 5477 H 506.102 -0.753609 -1.76048 0
M  V30 5478 H 504.407 0.834104 -3.82818 0
M  V30 5479 H 506.104 0.474202 -3.98186 0
M  V30 5480 H 502.694 -0.945652 -4.18038 0
M  V30 5481 H 506.878 -1.82459 -4.61544 0
M  V30 5482 H 502.134 -3.06689 -5.28916 0
M  V30 5483 H 506.308 -3.94634 -5.73792 0
M  V30 5484 H 503.935 -4.57315 -6.07262 0
M  V30 5485 N 505.51 1.54411 -0.315457 0
M  V30 5486 C 506.738 2.04833 0.291738 0
M  V30 5487 C 507.153 1.19203 1.46411 0
M  V30 5488 O 506.51 0.220867 1.81159 0
M  V30 5489 C 506.561 3.53969 0.73404 0
M  V30 5490 O 506.282 4.36346 -0.391682 0
M  V30 5491 C 507.783 4.2045 1.40489 0
M  V30 5492 H 505.003 0.668195 0.0612947 0
M  V30 5493 H 507.547 1.99276 -0.45929 0
M  V30 5494 H 505.702 3.5984 1.43506 0
M  V30 5495 H 506.116 5.24481 -0.0447088 0
M  V30 5496 H 507.59 5.26278 1.66539 0
M  V30 5497 H 508.067 3.71067 2.3496 0
M  V30 5498 H 508.673 4.18694 0.746662 0
M  V30 5499 N 506.988 0.0434614 1.5754 0
M  V30 5500 C 508.213 -0.645358 1.97104 0
M  V30 5501 C 508.638 -1.64037 0.920521 0
M  V30 5502 O 507.996 -1.80922 -0.11708 0
M  V30 5503 C 508.044 -1.31547 3.35749 0
M  V30 5504 O 507.148 -2.43103 3.33129 0
M  V30 5505 H 506.489 -0.168403 0.64229 0
M  V30 5506 H 509.019 0.109573 2.04306 0
M  V30 5507 H 509.029 -1.66895 3.72304 0
M  V30 5508 H 507.704 -0.586205 4.11748 0
M  V30 5509 H 506.281 -2.0976 3.0831 0
M  V30 5510 N 508.466 -1.55915 -0.229846 0
M  V30 5511 C 509.715 -1.77742 -0.953455 0
M  V30 5512 C 510.028 -0.610524 -1.85828 0
M  V30 5513 O 511.234 -0.712219 -2.61992 0
M  V30 5514 C 509.69 -3.14738 -1.74551 0
M  V30 5515 C 509.298 -4.39126 -0.887242 0
M  V30 5516 C 511.042 -3.45895 -2.46084 0
M  V30 5517 C 508.949 -5.67149 -1.67617 0
M  V30 5518 H 507.879 -0.662648 -0.359741 0
M  V30 5519 H 510.53 -1.82322 -0.207576 0
M  V30 5520 H 508.912 -3.04311 -2.53399 0
M  V30 5521 H 510.086 -4.60588 -0.139892 0
M  V30 5522 H 508.401 -4.15427 -0.284443 0
M  V30 5523 H 510.998 -4.38767 -3.05594 0
M  V30 5524 H 511.341 -2.68007 -3.18556 0
M  V30 5525 H 511.874 -3.57614 -1.74233 0
M  V30 5526 H 508.613 -6.47906 -0.994881 0
M  V30 5527 H 508.133 -5.49763 -2.39836 0
M  V30 5528 H 509.812 -6.07025 -2.23898 0
M  V30 5529 N 509.944 0.496216 -1.49584 0
M  V30 5530 C 511.355 1.07765 -1.52459 0
M  V30 5531 C 511.706 1.93679 -0.31353 0
M  V30 5532 O 510.831 2.08588 0.576186 0
M  V30 5533 C 511.426 1.96111 -2.76271 0
M  V30 5534 C 509.985 2.49409 -2.81908 0
M  V30 5535 C 509.132 1.27142 -2.46435 0
M  V30 5536 H 512.083 0.279914 -1.56212 0
M  V30 5537 H 512.104 2.80862 -2.56704 0
M  V30 5538 H 511.616 1.33555 -3.64396 0
M  V30 5539 H 509.717 3.1559 -1.98074 0
M  V30 5540 H 509.83 2.86234 -3.84196 0
M  V30 5541 H 508.194 1.59818 -1.98319 0
M  V30 5542 H 508.977 0.662866 -3.3684 0
M  V30 5543 N 511.423 1.38739 0.74761 0
M  V30 5544 C 512.333 1.38696 1.89211 0
M  V30 5545 C 513.349 0.283303 1.71678 0
M  V30 5546 O 514.525 0.522713 1.94498 0
M  V30 5547 C 511.59 1.21662 3.24653 0
M  V30 5548 C 510.651 2.41886 3.54669 0
M  V30 5549 C 509.884 2.25655 4.83648 0
M  V30 5550 O 510.107 1.25339 5.56459 0
M  V30 5551 O 509.041 3.14372 5.13277 0
M  V30 5552 H 512.867 2.35143 1.92202 0
M  V30 5553 H 510.452 1.19721 0.893708 0
M  V30 5554 H 512.334 1.14246 4.05618 0
M  V30 5555 H 511.009 0.283024 3.2246 0
M  V30 5556 H 509.916 2.54877 2.73841 0
M  V30 5557 H 511.249 3.33895 3.61628 0
M  V30 5558 N 512.901 -0.976442 1.23707 0
M  V30 5559 C 514.126 -1.75875 1.09922 0
M  V30 5560 C 514.551 -1.84911 -0.34489 0
M  V30 5561 O 513.909 -1.31363 -1.24954 0
M  V30 5562 C 513.957 -3.16179 1.73388 0
M  V30 5563 O 513.061 -4.00124 0.99871 0
M  V30 5564 H 512.402 -0.540954 0.385052 0
M  V30 5565 H 514.932 -1.22546 1.6384 0
M  V30 5566 H 514.942 -3.66741 1.78788 0
M  V30 5567 H 513.617 -3.08917 2.78466 0
M  V30 5568 H 512.194 -3.58624 1.02193 0
M  V30 5569 N 514.379 -1.04941 -1.1758 0
M  V30 5570 C 515.626 -0.757989 -1.87779 0
M  V30 5571 C 515.954 0.714827 -1.80888 0
M  V30 5572 O 515.209 1.53824 -1.20982 0
M  V30 5573 C 515.508 -1.18062 -3.37337 0
M  V30 5574 C 515.174 -2.65521 -3.6443 0
M  V30 5575 C 513.836 -3.05804 -3.71534 0
M  V30 5576 C 516.188 -3.60822 -3.76108 0
M  V30 5577 C 513.516 -4.40256 -3.87803 0
M  V30 5578 C 515.868 -4.95005 -3.93895 0
M  V30 5579 C 514.532 -5.34945 -3.99237 0
M  V30 5580 H 513.802 -0.277368 -0.68713 0
M  V30 5581 H 516.449 -1.31603 -1.39115 0
M  V30 5582 H 514.754 -0.541525 -3.8804 0
M  V30 5583 H 516.451 -0.932368 -3.9001 0
M  V30 5584 H 513.041 -2.33324 -3.59524 0
M  V30 5585 H 517.225 -3.30841 -3.69943 0
M  V30 5586 H 512.481 -4.70707 -3.90186 0
M  V30 5587 H 516.655 -5.68746 -4.01872 0
M  V30 5588 H 514.282 -6.39135 -4.11596 0
M  V30 5589 N 515.857 1.33968 -0.830081 0
M  V30 5590 C 517.103 1.98773 -0.431394 0
M  V30 5591 C 517.458 1.64598 0.99626 0
M  V30 5592 O 516.751 0.911022 1.68555 0
M  V30 5593 C 516.945 3.52679 -0.57898 0
M  V30 5594 C 516.774 4.01807 -2.01943 0
M  V30 5595 C 515.544 4.30062 -2.65282 0
M  V30 5596 C 517.742 4.18663 -2.98707 0
M  V30 5597 N 515.724 4.65272 -4.00493 0
M  V30 5598 C 517.095 4.57133 -4.18843 0
M  V30 5599 C 519.15 4.00929 -2.95229 0
M  V30 5600 C 517.853 4.79723 -5.35965 0
M  V30 5601 C 519.879 4.2469 -4.11573 0
M  V30 5602 C 519.241 4.63454 -5.30462 0
M  V30 5603 H 515.34 0.75435 -0.206107 0
M  V30 5604 H 517.924 1.62247 -1.07629 0
M  V30 5605 H 516.095 3.88383 0.0360632 0
M  V30 5606 H 517.827 4.04412 -0.152596 0
M  V30 5607 H 514.582 4.21231 -2.16475 0
M  V30 5608 H 515.006 4.87101 -4.70172 0
M  V30 5609 H 519.648 3.70082 -2.04448 0
M  V30 5610 H 517.366 5.09434 -6.27297 0
M  V30 5611 H 520.952 4.12497 -4.10289 0
M  V30 5612 H 519.832 4.81476 -6.18992 0
M  V30 5613 N 517.335 0.585699 1.46312 0
M  V30 5614 C 518.581 0.0808731 2.03239 0
M  V30 5615 C 518.936 -1.26609 1.44872 0
M  V30 5616 O 518.229 -1.81779 0.60556 0
M  V30 5617 C 518.423 -0.0401312 3.57377 0
M  V30 5618 C 518.252 1.29356 4.30694 0
M  V30 5619 C 517.022 1.86849 4.69484 0
M  V30 5620 C 519.22 2.21742 4.64042 0
M  V30 5621 N 517.202 3.13926 5.27564 0
M  V30 5622 C 518.573 3.33408 5.22723 0
M  V30 5623 C 520.628 2.21386 4.45974 0
M  V30 5624 C 519.331 4.44852 5.65242 0
M  V30 5625 C 521.357 3.31862 4.89511 0
M  V30 5626 C 520.719 4.42248 5.48266 0
M  V30 5627 H 516.818 0.072443 0.778637 0
M  V30 5628 H 519.402 0.779254 1.78426 0
M  V30 5629 H 517.573 -0.707686 3.81898 0
M  V30 5630 H 519.305 -0.549615 4.00951 0
M  V30 5631 H 516.06 1.40307 4.52339 0
M  V30 5632 H 516.484 3.78775 5.61122 0
M  V30 5633 H 521.126 1.37314 3.99881 0
M  V30 5634 H 518.844 5.29665 6.10312 0
M  V30 5635 H 522.43 3.32708 4.7728 0
M  V30 5636 H 521.31 5.26323 5.81338 0
M  V30 5637 N 518.813 -1.54241 0.323641 0
M  V30 5638 C 519.776 -2.22997 -0.529602 0
M  V30 5639 C 520.776 -1.22345 -1.04347 0
M  V30 5640 O 521.966 -1.46924 -0.935889 0
M  V30 5641 C 519.098 -2.93409 -1.73562 0
M  V30 5642 H 520.291 -2.99815 0.0714518 0
M  V30 5643 H 517.844 -1.56121 0.0747258 0
M  V30 5644 H 518.579 -2.20729 -2.37591 0
M  V30 5645 H 518.364 -3.67217 -1.37456 0
M  V30 5646 H 519.854 -3.45794 -2.34128 0
M  V30 5647 N 520.291 -0.0518155 -1.57515 0
M  V30 5648 C 521.537 0.622745 -1.93002 0
M  V30 5649 C 521.87 1.70456 -0.930499 0
M  V30 5650 O 521.145 1.94452 0.0434086 0
M  V30 5651 C 521.428 1.21824 -3.38867 0
M  V30 5652 C 521.281 0.144434 -4.49568 0
M  V30 5653 C 522.6 2.12968 -3.8514 0
M  V30 5654 H 519.719 0.22491 -0.701844 0
M  V30 5655 H 522.361 -0.113711 -1.89659 0
M  V30 5656 H 520.511 1.8459 -3.41846 0
M  V30 5657 H 522.183 -0.48753 -4.58717 0
M  V30 5658 H 520.426 -0.527424 -4.30582 0
M  V30 5659 H 521.097 0.601127 -5.48717 0
M  V30 5660 H 523.573 1.60163 -3.8404 0
M  V30 5661 H 522.449 2.51578 -4.87852 0
M  V30 5662 H 522.71 3.03004 -3.21934 0
M  V30 5663 N 521.769 1.56035 0.221574 0
M  V30 5664 C 523.015 1.79312 0.947372 0
M  V30 5665 C 523.348 0.621453 1.83988 0
M  V30 5666 O 522.623 -0.379287 1.90766 0
M  V30 5667 C 522.906 3.1267 1.78633 0
M  V30 5668 C 522.759 4.40284 0.920312 0
M  V30 5669 C 524.078 3.4247 2.7641 0
M  V30 5670 H 521.197 0.652328 0.342982 0
M  V30 5671 H 523.839 1.88765 0.216244 0
M  V30 5672 H 521.989 3.04741 2.40967 0
M  V30 5673 H 523.661 4.60232 0.313718 0
M  V30 5674 H 521.904 4.33212 0.225734 0
M  V30 5675 H 522.575 5.30033 1.54171 0
M  V30 5676 H 525.051 3.50526 2.24211 0
M  V30 5677 H 523.927 4.3695 3.32213 0
M  V30 5678 H 524.188 2.64635 3.54148 0
M  V30 5679 N 523.247 -0.488276 1.49845 0
M  V30 5680 C 524.475 -1.26527 1.63702 0
M  V30 5681 C 524.89 -1.8618 0.313447 0
M  V30 5682 O 524.247 -1.68432 -0.702624 0
M  V30 5683 C 524.298 -2.3864 2.71538 0
M  V30 5684 O 524.019 -1.81437 3.98763 0
M  V30 5685 C 525.52 -3.29805 2.96215 0
M  V30 5686 H 522.74 -0.383295 0.55075 0
M  V30 5687 H 525.284 -0.584779 1.95961 0
M  V30 5688 H 523.439 -3.02496 2.42023 0
M  V30 5689 H 523.853 -2.55135 4.58265 0
M  V30 5690 H 525.327 -4.04722 3.75372 0
M  V30 5691 H 525.804 -3.87563 2.06619 0
M  V30 5692 H 526.41 -2.71703 3.27196 0
M  V30 5693 N 524.725 -1.39134 -0.740242 0
M  V30 5694 C 525.658 -1.3182 -1.86276 0
M  V30 5695 C 526.636 -0.192794 -1.61453 0
M  V30 5696 O 527.82 -0.372365 -1.84786 0
M  V30 5697 C 524.947 -1.04564 -3.22155 0
M  V30 5698 C 523.993 -2.19224 -3.65846 0
M  V30 5699 S 524.826 -3.81466 -3.75824 0
M  V30 5700 C 525.982 -3.56425 -5.14502 0
M  V30 5701 H 526.215 -2.26822 -1.92195 0
M  V30 5702 H 523.748 -1.25127 -0.904576 0
M  V30 5703 H 525.706 -0.895228 -4.00619 0
M  V30 5704 H 524.367 -0.112578 -3.13898 0
M  V30 5705 H 523.56 -1.95732 -4.6444 0
M  V30 5706 H 523.162 -2.30441 -2.94572 0
M  V30 5707 H 525.454 -3.13366 -6.00673 0
M  V30 5708 H 526.397 -4.54462 -5.43019 0
M  V30 5709 H 526.805 -2.90641 -4.8393 0
M  V30 5710 N 526.204 0.969867 -1.24223 0
M  V30 5711 C 527.432 1.74756 -1.10761 0
M  V30 5712 C 527.847 1.85713 0.340041 0
M  V30 5713 O 527.204 1.34389 1.23474 0
M  V30 5714 C 527.255 3.16915 -1.73917 0
M  V30 5715 O 526.976 3.06511 -3.13021 0
M  V30 5716 C 528.477 4.11032 -1.66036 0
M  V30 5717 H 525.697 0.548092 -0.387087 0
M  V30 5718 H 528.241 1.2178 -1.64286 0
M  V30 5719 H 526.396 3.66884 -1.244 0
M  V30 5720 H 526.81 3.96079 -3.43834 0
M  V30 5721 H 528.284 5.08446 -2.14911 0
M  V30 5722 H 528.761 4.34785 -0.621159 0
M  V30 5723 H 529.367 3.66972 -2.14969 0
M  V30 5724 N 527.682 1.05563 1.17022 0
M  V30 5725 C 528.91 0.78845 1.91288 0
M  V30 5726 C 529.325 -0.656318 1.77025 0
M  V30 5727 O 528.682 -1.44869 1.10992 0
M  V30 5728 C 528.733 1.16444 3.42232 0
M  V30 5729 O 528.454 2.5525 3.5606 0
M  V30 5730 C 529.955 0.923937 4.33565 0
M  V30 5731 H 527.175 0.286389 0.606813 0
M  V30 5732 H 529.719 1.4073 1.48375 0
M  V30 5733 H 527.874 0.590266 3.82877 0
M  V30 5734 H 528.288 2.70097 4.49609 0
M  V30 5735 H 529.762 1.23672 5.37968 0
M  V30 5736 H 530.239 -0.140688 4.38975 0
M  V30 5737 H 530.845 1.48214 3.98639 0
M  V30 5738 N 529.16 -1.33526 0.837174 0
M  V30 5739 C 530.406 -1.9813 0.432704 0
M  V30 5740 C 530.739 -1.66168 -1.00508 0
M  V30 5741 O 530.014 -0.94069 -1.70239 0
M  V30 5742 C 530.297 -3.54151 0.651834 0
M  V30 5743 C 530.15 -3.95806 2.13676 0
M  V30 5744 C 531.469 -4.39993 0.0968937 0
M  V30 5745 H 528.588 -0.719713 0.15869 0
M  V30 5746 H 531.23 -1.58193 1.05237 0
M  V30 5747 H 529.38 -3.88301 0.124369 0
M  V30 5748 H 531.052 -3.71921 2.72896 0
M  V30 5749 H 529.295 -3.45599 2.62191 0
M  V30 5750 H 529.966 -5.0447 2.24084 0
M  V30 5751 H 532.442 -4.12479 0.547733 0
M  V30 5752 H 531.318 -5.48186 0.279917 0
M  V30 5753 H 531.579 -4.3066 -0.9992 0
M  V30 5754 N 530.638 -0.59345 -1.46 0
M  V30 5755 C 531.886 -0.082988 -2.0193 0
M  V30 5756 C 532.207 1.28569 -1.46612 0
M  V30 5757 O 531.477 1.84629 -0.654909 0
M  V30 5758 H 530.057 -0.0276882 -0.746487 0
M  V30 5759 H 532.719 -0.771657 -1.78973 0
M  V30 5760 H 531.815 -0.022079 -3.12092 0
M  V30 5761 N 532.116 1.54067 -0.331816 0
M  V30 5762 C 533.346 2.04833 0.269605 0
M  V30 5763 C 533.754 1.20714 1.45687 0
M  V30 5764 O 533.097 0.232539 1.82222 0
M  V30 5765 C 533.159 3.51386 0.759499 0
M  V30 5766 C 532.823 4.55971 -0.306557 0
M  V30 5767 C 533.82 5.07126 -1.14538 0
M  V30 5768 C 531.505 5.00216 -0.457116 0
M  V30 5769 C 533.499 6.01096 -2.12042 0
M  V30 5770 C 531.186 5.93999 -1.43556 0
M  V30 5771 C 532.184 6.44326 -2.26568 0
M  V30 5772 O 531.872 7.36267 -3.22749 0
M  V30 5773 H 531.604 0.673509 0.0579763 0
M  V30 5774 H 534.158 1.99748 -0.478521 0
M  V30 5775 H 532.388 3.53896 1.55867 0
M  V30 5776 H 534.077 3.85184 1.28017 0
M  V30 5777 H 534.843 4.73716 -1.04009 0
M  V30 5778 H 530.722 4.60652 0.179142 0
M  V30 5779 H 534.266 6.40302 -2.76873 0
M  V30 5780 H 530.163 6.26825 -1.54146 0
M  V30 5781 H 530.931 7.54165 -3.18083 0
M  V30 5782 N 533.594 0.0601682 1.57485 0
M  V30 5783 C 534.842 -0.610386 1.92662 0
M  V30 5784 C 535.163 -1.70849 0.939981 0
M  V30 5785 O 534.433 -1.95895 -0.0137455 0
M  V30 5786 H 533.013 -0.228457 0.711208 0
M  V30 5787 H 535.675 0.115288 1.94559 0
M  V30 5788 H 534.771 -1.0432 2.94149 0
M  V30 5789 N 535.072 -1.5615 -0.213296 0
M  V30 5790 C 536.349 -1.70349 -0.961281 0
M  V30 5791 C 536.729 -0.609791 -2.02101 0
M  V30 5792 O 536.077 0.381987 -2.25285 0
M  V30 5793 C 536.287 -3.11982 -1.56424 0
M  V30 5794 C 537.635 -3.71649 -2.05334 0
M  V30 5795 O 538.659 -3.14995 -1.66302 0
M  V30 5796 O 537.518 -4.71038 -2.77102 0
M  V30 5797 H 534.612 -0.694121 -0.449582 0
M  V30 5798 H 537.158 -1.68464 -0.204426 0
M  V30 5799 H 535.93 -3.83046 -0.799457 0
M  V30 5800 H 535.553 -3.18019 -2.38641 0
M  V30 5801 N 536.55 0.480323 -1.50102 0
M  V30 5802 C 537.483 1.59789 -1.62919 0
M  V30 5803 C 538.461 1.55429 -0.477557 0
M  V30 5804 O 539.645 1.75186 -0.695851 0
M  V30 5805 C 536.772 2.98351 -1.60325 0
M  V30 5806 C 535.818 3.20899 -2.80938 0
M  V30 5807 S 536.651 3.01791 -4.4236 0
M  V30 5808 C 537.807 4.42712 -4.42444 0
M  V30 5809 H 538.04 1.48676 -2.57454 0
M  V30 5810 H 535.573 0.666996 -1.3925 0
M  V30 5811 H 537.531 3.7824 -1.59514 0
M  V30 5812 H 536.192 3.06862 -0.670419 0
M  V30 5813 H 535.385 4.22102 -2.75401 0
M  V30 5814 H 534.987 2.48768 -2.79268 0
M  V30 5815 H 537.279 5.3518 -4.15438 0
M  V30 5816 H 538.222 4.53294 -5.43995 0
M  V30 5817 H 538.63 4.24359 -3.72263 0
M  V30 5818 N 538.028 1.39524 0.732853 0
M  V30 5819 C 538.991 1.38189 1.82857 0
M  V30 5820 C 539.991 0.278624 1.58368 0
M  V30 5821 O 541.181 0.536639 1.65728 0
M  V30 5822 C 538.313 1.15661 3.2068 0
M  V30 5823 H 539.506 2.35692 1.85444 0
M  V30 5824 H 537.059 1.2512 0.936728 0
M  V30 5825 H 537.794 0.188482 3.23752 0
M  V30 5826 H 537.579 1.95559 3.39852 0
M  V30 5827 H 539.069 1.17472 4.00737 0
M  V30 5828 N 539.506 -0.963266 1.24736 0
M  V30 5829 C 540.917 -1.52145 1.08207 0
M  V30 5830 C 541.268 -1.93142 -0.345061 0
M  V30 5831 O 540.393 -1.77769 -1.23399 0
M  V30 5832 C 540.988 -2.76486 1.95808 0
M  V30 5833 C 539.547 -3.28646 1.8349 0
M  V30 5834 C 538.694 -2.01529 1.90476 0
M  V30 5835 H 541.645 -0.781083 1.38148 0
M  V30 5836 H 541.666 -3.49986 1.49297 0
M  V30 5837 H 541.178 -2.46617 2.99669 0
M  V30 5838 H 539.279 -3.63357 0.824787 0
M  V30 5839 H 539.392 -3.97246 2.67829 0
M  V30 5840 H 537.756 -2.16442 1.34258 0
M  V30 5841 H 538.539 -1.7402 2.95926 0
M  V30 5842 N 540.985 -1.06182 -1.16461 0
M  V30 5843 C 542.231 -0.779015 -1.87241 0
M  V30 5844 C 542.564 0.692715 -1.81425 0
M  V30 5845 O 541.839 1.5074 -1.22913 0
M  V30 5846 C 542.122 -1.2728 -3.36856 0
M  V30 5847 C 541.975 -2.80821 -3.51368 0
M  V30 5848 C 543.294 -0.879799 -4.31216 0
M  V30 5849 H 540.413 -0.284464 -0.679889 0
M  V30 5850 H 543.055 -1.31755 -1.36896 0
M  V30 5851 H 541.205 -0.814673 -3.79862 0
M  V30 5852 H 542.877 -3.34833 -3.17308 0
M  V30 5853 H 541.12 -3.19606 -2.93316 0
M  V30 5854 H 541.791 -3.10435 -4.56436 0
M  V30 5855 H 544.267 -1.27436 -3.96105 0
M  V30 5856 H 543.143 -1.25278 -5.34412 0
M  V30 5857 H 543.404 0.215372 -4.41575 0
M  V30 5858 N 542.463 1.3308 -0.844243 0
M  V30 5859 C 543.691 2.01808 -0.456203 0
M  V30 5860 C 544.106 1.63498 0.944131 0
M  V30 5861 O 543.463 0.85102 1.61443 0
M  V30 5862 C 543.514 3.56922 -0.573513 0
M  V30 5863 O 543.235 3.93851 -1.91868 0
M  V30 5864 C 544.736 4.42922 -0.183125 0
M  V30 5865 H 541.956 0.646273 -0.180477 0
M  V30 5866 H 544.5 1.69891 -1.1383 0
M  V30 5867 H 542.655 3.87352 0.0607367 0
M  V30 5868 H 543.069 4.88564 -1.90802 0
M  V30 5869 H 544.543 5.51093 -0.316241 0
M  V30 5870 H 545.02 4.30386 0.875477 0
M  V30 5871 H 545.626 4.1786 -0.792027 0
M  V30 5872 N 543.941 0.601185 1.45683 0
M  V30 5873 C 545.187 0.0940202 2.02582 0
M  V30 5874 C 545.52 -1.26972 1.46941 0
M  V30 5875 O 544.795 -1.83613 0.641612 0
M  V30 5876 C 545.078 0.0481715 3.60068 0
M  V30 5877 C 544.931 1.44212 4.26055 0
M  V30 5878 C 546.25 -0.642975 4.35378 0
M  V30 5879 H 543.369 0.0356404 0.736138 0
M  V30 5880 H 546.011 0.771929 1.73612 0
M  V30 5881 H 544.161 -0.529128 3.8488 0
M  V30 5882 H 545.833 2.06601 4.12449 0
M  V30 5883 H 544.076 2.00465 3.84703 0
M  V30 5884 H 544.747 1.36234 5.34925 0
M  V30 5885 H 547.223 -0.152351 4.15821 0
M  V30 5886 H 546.099 -0.644141 5.45107 0
M  V30 5887 H 546.36 -1.70785 4.0778 0
M  V30 5888 N 545.419 -1.53889 0.339982 0
M  V30 5889 C 546.667 -2.00458 -0.257112 0
M  V30 5890 C 546.988 -1.22953 -1.51353 0
M  V30 5891 O 546.258 -0.335734 -1.93002 0
M  V30 5892 H 544.838 -0.740544 -0.0979965 0
M  V30 5893 H 547.5 -1.89386 0.460317 0
M  V30 5894 H 546.596 -3.08035 -0.502057 0
M  V30 5895 N 546.897 -0.0685191 -1.57451 0
M  V30 5896 C 548.145 0.60016 -1.92983 0
M  V30 5897 C 548.466 1.70348 -0.949028 0
M  V30 5898 O 547.736 1.959 0.00335647 0
M  V30 5899 H 546.316 0.224682 -0.712409 0
M  V30 5900 H 548.978 -0.125605 -1.94495 0
M  V30 5901 H 548.074 1.02759 -2.94698 0
M  V30 5902 N 548.375 1.56261 0.205012 0
M  V30 5903 C 549.322 1.93754 1.25411 0
M  V30 5904 C 550.292 0.796826 1.45739 0
M  V30 5905 O 551.477 1.05414 1.59036 0
M  V30 5906 C 548.617 2.27383 2.59598 0
M  V30 5907 C 547.73 3.5447 2.46931 0
M  V30 5908 C 546.865 3.77468 3.73753 0
M  V30 5909 C 545.904 4.98014 3.55877 0
M  V30 5910 N 545.041 5.17316 4.74688 0
M  V30 5911 H 549.881 2.83203 0.92737 0
M  V30 5912 H 547.418 1.40158 0.446574 0
M  V30 5913 H 549.376 2.44895 3.37761 0
M  V30 5914 H 548.006 1.41088 2.90335 0
M  V30 5915 H 547.058 3.45061 1.60116 0
M  V30 5916 H 548.37 4.42789 2.29651 0
M  V30 5917 H 547.524 3.95165 4.60358 0
M  V30 5918 H 546.263 2.87461 3.93976 0
M  V30 5919 H 545.268 4.80249 2.67657 0
M  V30 5920 H 546.493 5.8952 3.37109 0
M  V30 5921 H 544.439 4.30255 4.95194 0
M  V30 5922 H 544.356 5.99796 4.60197 0
M  V30 5923 H 545.624 5.39463 5.62672 0
M  V30 5924 N 549.853 -0.472356 1.50355 0
M  V30 5925 C 551.102 -1.2213 1.60522 0
M  V30 5926 C 551.415 -1.9312 0.310466 0
M  V30 5927 O 552.621 -2.69936 0.291029 0
M  V30 5928 C 551.077 -2.21909 2.83345 0
M  V30 5929 C 550.685 -1.56727 4.19691 0
M  V30 5930 C 552.429 -2.97453 3.02856 0
M  V30 5931 C 550.336 -2.54785 5.33703 0
M  V30 5932 H 549.266 -0.459543 0.597776 0
M  V30 5933 H 551.917 -0.491922 1.76783 0
M  V30 5934 H 550.299 -2.98133 2.60639 0
M  V30 5935 H 551.473 -0.863007 4.52646 0
M  V30 5936 H 549.788 -0.934685 4.05774 0
M  V30 5937 H 552.385 -3.70838 3.85205 0
M  V30 5938 H 552.728 -3.56764 2.14534 0
M  V30 5939 H 553.261 -2.28342 3.25737 0
M  V30 5940 H 550 -2.00214 6.24175 0
M  V30 5941 H 549.52 -3.23367 5.05167 0
M  V30 5942 H 551.199 -3.16639 5.64224 0
M  V30 5943 N 551.331 -1.39911 -0.725443 0
M  V30 5944 C 552.577 -1.37858 -1.48738 0
M  V30 5945 C 552.91 0.0224187 -1.94187 0
M  V30 5946 O 552.185 0.989204 -1.67466 0
M  V30 5947 C 552.468 -2.3594 -2.72038 0
M  V30 5948 C 552.321 -3.85023 -2.32546 0
M  V30 5949 C 553.64 -2.31704 -3.74167 0
M  V30 5950 H 550.759 -0.502074 -0.539528 0
M  V30 5951 H 553.401 -1.70974 -0.828728 0
M  V30 5952 H 551.551 -2.0783 -3.28236 0
M  V30 5953 H 553.223 -4.2392 -1.81905 0
M  V30 5954 H 551.466 -4.01334 -1.64661 0
M  V30 5955 H 552.137 -4.49152 -3.20884 0
M  V30 5956 H 554.613 -2.5658 -3.27576 0
M  V30 5957 H 553.489 -3.02395 -4.58092 0
M  V30 5958 H 553.75 -1.3253 -4.21768 0
M  V30 5959 N 552.809 0.956637 -1.25245 0
M  V30 5960 C 554.057 1.69764 -1.09657 0
M  V30 5961 C 554.378 1.91583 0.363464 0
M  V30 5962 O 553.648 1.50149 1.25825 0
M  V30 5963 H 552.228 0.629097 -0.402798 0
M  V30 5964 H 554.89 1.15026 -1.57337 0
M  V30 5965 H 553.986 2.67769 -1.60331 0
M  V30 5966 N 554.287 1.06798 1.15896 0
M  V30 5967 C 555.512 0.808739 1.90982 0
M  V30 5968 C 555.937 -0.6316 1.77179 0
M  V30 5969 O 555.295 -1.4407 1.10061 0
M  V30 5970 C 555.343 1.21468 3.39526 0
M  V30 5971 O 554.447 0.356562 4.10856 0
M  V30 5972 H 553.788 0.29512 0.594811 0
M  V30 5973 H 556.318 1.42513 1.46804 0
M  V30 5974 H 556.328 1.18844 3.90308 0
M  V30 5975 H 555.003 2.26379 3.48891 0
M  V30 5976 H 553.58 0.444808 3.70238 0
M  V30 5977 N 555.766 -1.3263 0.851289 0
M  V30 5978 C 556.696 -2.31449 0.308771 0
M  V30 5979 C 557.677 -1.59531 -0.590255 0
M  V30 5980 O 558.862 -1.87351 -0.511205 0
M  V30 5981 C 555.992 -3.43586 -0.506548 0
M  V30 5982 C 554.946 -4.26963 0.297753 0
M  V30 5983 C 554.272 -5.30831 -0.642094 0
M  V30 5984 C 555.572 -4.99643 1.52166 0
M  V30 5985 H 557.266 -2.77074 1.13447 0
M  V30 5986 H 554.812 -1.33207 0.546971 0
M  V30 5987 H 556.765 -4.11754 -0.896474 0
M  V30 5988 H 555.489 -2.96681 -1.36558 0
M  V30 5989 H 554.148 -3.60437 0.669391 0
M  V30 5990 H 553.796 -4.8018 -1.49788 0
M  V30 5991 H 553.496 -5.87501 -0.107968 0
M  V30 5992 H 555.02 -6.01862 -1.02927 0
M  V30 5993 H 556.434 -5.6051 1.20421 0
M  V30 5994 H 554.831 -5.66022 1.99347 0
M  V30 5995 H 555.901 -4.27701 2.28474 0
M  V30 5996 N 557.244 -0.608902 -1.45362 0
M  V30 5997 C 558.484 -0.10763 -2.04116 0
M  V30 5998 C 558.848 1.23883 -1.46686 0
M  V30 5999 O 560.049 1.83091 -1.96803 0
M  V30 6000 C 558.32 -0.0703351 -3.57331 0
M  V30 6001 S 559.879 0.369554 -4.37241 0
M  V30 6002 H 556.697 -0.0502123 -0.709225 0
M  V30 6003 H 559.299 -0.8073 -1.78053 0
M  V30 6004 H 558.003 -1.05379 -3.9664 0
M  V30 6005 H 557.534 0.651287 -3.87971 0
M  V30 6006 H 559.549 1.61878 -4.69052 0
M  V30 6007 N 558.722 1.53707 -0.348139 0
M  V30 6008 C 559.685 2.23812 0.494058 0
M  V30 6009 C 560.685 1.23989 1.02388 0
M  V30 6010 O 561.875 1.48395 0.912396 0
M  V30 6011 C 559.007 2.96133 1.68872 0
M  V30 6012 H 560.2 2.99663 -0.119141 0
M  V30 6013 H 557.753 1.55983 -0.0995539 0
M  V30 6014 H 558.488 2.24481 2.34049 0
M  V30 6015 H 558.273 3.69357 1.31596 0
M  V30 6016 H 559.763 3.49475 2.28597 0
M  V30 6017 N 560.2 0.0768682 1.57412 0
M  V30 6018 C 561.449 -0.590679 1.92857 0
M  V30 6019 C 561.762 -1.70461 0.959293 0
M  V30 6020 O 562.968 -2.43207 1.20675 0
M  V30 6021 C 561.424 -1.10204 3.42612 0
M  V30 6022 C 561.032 -0.0188447 4.47996 0
M  V30 6023 C 562.776 -1.74336 3.87049 0
M  V30 6024 C 560.683 -0.544536 5.88888 0
M  V30 6025 H 559.613 -0.224411 0.71983 0
M  V30 6026 H 562.264 0.149924 1.82887 0
M  V30 6027 H 560.646 -1.89577 3.47673 0
M  V30 6028 H 561.82 0.755936 4.54557 0
M  V30 6029 H 560.135 0.526555 4.13057 0
M  V30 6030 H 562.732 -2.14708 4.89699 0
M  V30 6031 H 563.075 -2.60537 3.24694 0
M  V30 6032 H 563.608 -1.01577 3.84613 0
M  V30 6033 H 560.347 0.280426 6.549 0
M  V30 6034 H 559.867 -1.28673 5.85836 0
M  V30 6035 H 561.546 -1.01933 6.3892 0
M  V30 6036 N 561.678 -1.56367 -0.196722 0
M  V30 6037 C 562.641 -1.93561 -1.22746 0
M  V30 6038 C 563.641 -0.816566 -1.38524 0
M  V30 6039 O 564.831 -1.084 -1.36363 0
M  V30 6040 C 561.963 -2.20823 -2.59712 0
M  V30 6041 H 563.156 -2.85774 -0.909586 0
M  V30 6042 H 560.709 -1.50032 -0.438174 0
M  V30 6043 H 561.444 -1.31243 -2.96557 0
M  V30 6044 H 561.229 -3.02368 -2.49632 0
M  V30 6045 H 562.719 -2.50608 -3.34044 0
M  V30 6046 N 563.156 0.464375 -1.50603 0
M  V30 6047 C 564.404 1.21356 -1.61608 0
M  V30 6048 C 564.725 1.92329 -0.321643 0
M  V30 6049 O 563.995 1.84403 0.661232 0
M  V30 6050 H 562.575 0.45094 -0.595535 0
M  V30 6051 H 565.237 0.535046 -1.87412 0
M  V30 6052 H 564.333 1.95783 -2.43054 0
M  V30 6053 N 564.634 1.40294 0.718013 0
M  V30 6054 C 565.88 1.38645 1.48005 0
M  V30 6055 C 566.213 -0.0121202 1.94196 0
M  V30 6056 O 565.488 -0.980309 1.67989 0
M  V30 6057 C 565.771 2.37379 2.70782 0
M  V30 6058 C 565.624 3.8625 2.30501 0
M  V30 6059 C 566.943 2.33685 3.72933 0
M  V30 6060 H 564.062 0.504928 0.536858 0
M  V30 6061 H 566.704 1.71411 0.819649 0
M  V30 6062 H 564.854 2.09568 3.27129 0
M  V30 6063 H 566.526 4.24879 1.79655 0
M  V30 6064 H 564.769 4.02202 1.6253 0
M  V30 6065 H 565.44 4.50847 3.18498 0
M  V30 6066 H 567.916 2.58314 3.2621 0
M  V30 6067 H 566.792 3.0482 4.56482 0
M  V30 6068 H 567.053 1.34765 4.21059 0
M  V30 6069 N 566.112 -0.949982 1.2575 0
M  V30 6070 C 567.042 -2.06483 1.09028 0
M  V30 6071 C 568.023 -1.701 -0.00201532 0
M  V30 6072 O 569.208 -1.93469 0.168383 0
M  V30 6073 C 566.338 -3.39899 0.71316 0
M  V30 6074 C 565.292 -3.90309 1.75621 0
M  V30 6075 C 564.618 -5.20274 1.23365 0
M  V30 6076 C 565.918 -4.16169 3.15596 0
M  V30 6077 H 567.612 -2.20731 2.02283 0
M  V30 6078 H 565.158 -1.06066 0.973964 0
M  V30 6079 H 567.111 -4.17346 0.58309 0
M  V30 6080 H 565.835 -3.25602 -0.255091 0
M  V30 6081 H 564.494 -3.15035 1.8748 0
M  V30 6082 H 564.142 -5.02351 0.255491 0
M  V30 6083 H 563.842 -5.54971 1.93082 0
M  V30 6084 H 565.366 -6.00314 1.11607 0
M  V30 6085 H 566.78 -4.84259 3.06864 0
M  V30 6086 H 565.177 -4.62131 3.82825 0
M  V30 6087 H 566.247 -3.22273 3.6231 0
M  V30 6088 N 567.59 -1.07411 -1.15328 0
M  V30 6089 C 568.818 -0.818782 -1.90009 0
M  V30 6090 C 569.233 0.628072 -1.78047 0
M  V30 6091 O 568.59 1.43085 -1.13282 0
M  V30 6092 C 568.641 -1.21874 -3.40337 0
M  V30 6093 O 568.362 -2.60883 -3.51954 0
M  V30 6094 C 569.863 -0.992796 -4.3204 0
M  V30 6095 H 567.083 -0.296007 -0.60218 0
M  V30 6096 H 569.627 -1.43073 -1.46117 0
M  V30 6097 H 567.782 -0.651103 -3.81889 0
M  V30 6098 H 568.196 -2.77216 -4.45255 0
M  V30 6099 H 569.67 -1.32215 -5.35932 0
M  V30 6100 H 570.147 0.0708331 -4.39143 0
M  V30 6101 H 570.753 -1.54537 -3.9623 0
M  V30 6102 N 569.068 1.32177 -0.85831 0
M  V30 6103 C 570.317 1.96392 -0.459689 0
M  V30 6104 C 570.63 1.68659 0.990632 0
M  V30 6105 O 571.836 2.26641 1.49485 0
M  V30 6106 C 570.292 3.51542 -0.7711 0
M  V30 6107 C 569.9 3.8813 -2.2374 0
M  V30 6108 C 571.644 4.2221 -0.44038 0
M  V30 6109 C 569.551 5.36341 -2.49183 0
M  V30 6110 H 568.481 0.735007 -0.168169 0
M  V30 6111 H 571.132 1.50518 -1.0496 0
M  V30 6112 H 569.514 3.95846 -0.11058 0
M  V30 6113 H 570.688 3.54824 -2.94001 0
M  V30 6114 H 569.003 3.30497 -2.533 0
M  V30 6115 H 571.6 5.31234 -0.607855 0
M  V30 6116 H 571.943 4.11683 0.618291 0
M  V30 6117 H 572.476 3.83502 -1.05695 0
M  V30 6118 H 569.215 5.51892 -3.53689 0
M  V30 6119 H 568.735 5.7104 -1.83504 0
M  V30 6120 H 570.414 6.03466 -2.33318 0
M  V30 6121 N 570.547 0.616602 1.45037 0
M  V30 6122 C 571.772 0.120192 2.07051 0
M  V30 6123 C 572.197 -1.19008 1.45666 0
M  V30 6124 O 571.555 -1.7267 0.552692 0
M  V30 6125 C 571.603 0.00354901 3.606 0
M  V30 6126 O 570.707 -1.04431 3.98958 0
M  V30 6127 H 570.048 0.0781599 0.659384 0
M  V30 6128 H 572.578 0.849167 1.86146 0
M  V30 6129 H 572.588 -0.191754 4.07549 0
M  V30 6130 H 571.263 0.960239 4.04663 0
M  V30 6131 H 569.84 -0.824749 3.63665 0
M  V30 6132 N 572.025 -1.5352 0.356285 0
M  V30 6133 C 572.955 -2.28372 -0.486661 0
M  V30 6134 C 573.936 -1.30432 -1.09185 0
M  V30 6135 O 575.121 -1.59291 -1.11085 0
M  V30 6136 C 572.251 -3.06604 -1.63129 0
M  V30 6137 C 571.205 -4.12154 -1.15381 0
M  V30 6138 C 570.531 -4.78415 -2.38796 0
M  V30 6139 C 571.831 -5.21724 -0.245179 0
M  V30 6140 H 573.525 -2.99083 0.137797 0
M  V30 6141 H 571.071 -1.43841 0.0677134 0
M  V30 6142 H 573.024 -3.57712 -2.22755 0
M  V30 6143 H 571.748 -2.33568 -2.28284 0
M  V30 6144 H 570.407 -3.61978 -0.580294 0
M  V30 6145 H 570.055 -4.01959 -3.02387 0
M  V30 6146 H 569.755 -5.49734 -2.07524 0
M  V30 6147 H 571.279 -5.32313 -2.99125 0
M  V30 6148 H 572.693 -5.68391 -0.748646 0
M  V30 6149 H 571.09 -6.00095 -0.0237608 0
M  V30 6150 H 572.16 -4.79596 0.715229 0
M  V30 6151 N 573.503 -0.0852151 -1.57369 0
M  V30 6152 C 574.914 0.445428 -1.81309 0
M  V30 6153 C 575.265 1.68795 -1.00013 0
M  V30 6154 O 574.39 2.15211 -0.226573 0
M  V30 6155 C 574.985 0.814887 -3.28854 0
M  V30 6156 C 573.544 1.29032 -3.53592 0
M  V30 6157 C 572.691 0.282089 -2.75861 0
M  V30 6158 H 575.642 -0.310771 -1.55627 0
M  V30 6159 H 575.663 1.67524 -3.41637 0
M  V30 6160 H 575.175 -0.0896309 -3.87996 0
M  V30 6161 H 573.276 2.21289 -2.9977 0
M  V30 6162 H 573.389 1.25898 -4.62262 0
M  V30 6163 H 571.753 0.762182 -2.43029 0
M  V30 6164 H 572.536 -0.614936 -3.37748 0
M  V30 6165 N 574.981 1.5647 0.188427 0
M  V30 6166 C 576.227 1.81281 0.909124 0
M  V30 6167 C 576.56 0.66034 1.82628 0
M  V30 6168 O 575.835 -0.338737 1.91528 0
M  V30 6169 C 576.118 3.16388 1.7196 0
M  V30 6170 C 575.971 4.42137 0.826714 0
M  V30 6171 C 577.29 3.48256 2.69083 0
M  V30 6172 H 574.409 0.659457 0.329068 0
M  V30 6173 H 577.051 1.89182 0.176156 0
M  V30 6174 H 575.201 3.09784 2.34448 0
M  V30 6175 H 576.873 4.60794 0.216025 0
M  V30 6176 H 575.116 4.33594 0.133792 0
M  V30 6177 H 575.787 5.33184 1.42893 0
M  V30 6178 H 578.263 3.55203 2.16726 0
M  V30 6179 H 577.139 4.43899 3.2287 0
M  V30 6180 H 577.4 2.72088 3.48455 0
M  V30 6181 N 576.459 -0.456382 1.50847 0
M  V30 6182 C 577.87 -1.03685 1.55262 0
M  V30 6183 C 578.221 -1.92779 0.364771 0
M  V30 6184 O 577.346 -2.10043 -0.52068 0
M  V30 6185 C 577.941 -1.88718 2.81374 0
M  V30 6186 C 576.5 -2.41847 2.88422 0
M  V30 6187 C 575.647 -1.20564 2.49719 0
M  V30 6188 H 578.598 -0.238399 1.56899 0
M  V30 6189 H 578.619 -2.73957 2.6406 0
M  V30 6190 H 578.131 -1.23847 3.67809 0
M  V30 6191 H 576.232 -3.10228 2.06372 0
M  V30 6192 H 576.345 -2.75947 3.9165 0
M  V30 6193 H 574.709 -1.54504 2.02486 0
M  V30 6194 H 575.492 -0.573326 3.38479 0
M  V30 6195 N 577.937 -1.40673 -0.710563 0
M  V30 6196 C 579.183 -1.39428 -1.47267 0
M  V30 6197 C 579.516 0.00182129 -1.942 0
M  V30 6198 O 578.791 0.971387 -1.68506 0
M  V30 6199 C 579.074 -2.38812 -2.6952 0
M  V30 6200 C 578.927 -3.87467 -2.28449 0
M  V30 6201 C 580.246 -2.3566 -3.71689 0
M  V30 6202 H 577.365 -0.507768 -0.534173 0
M  V30 6203 H 580.007 -1.71843 -0.810547 0
M  V30 6204 H 578.157 -2.113 -3.26013 0
M  V30 6205 H 579.829 -4.25825 -1.77399 0
M  V30 6206 H 578.072 -4.03058 -1.60395 0
M  V30 6207 H 578.743 -4.5253 -3.16103 0
M  V30 6208 H 581.219 -2.6004 -3.24836 0
M  V30 6209 H 580.095 -3.07237 -4.54859 0
M  V30 6210 H 580.356 -1.36996 -4.20339 0
M  V30 6211 N 579.415 0.9433 -1.26252 0
M  V30 6212 C 580.664 1.68369 -1.11062 0
M  V30 6213 C 580.977 1.92514 0.346104 0
M  V30 6214 O 582.183 2.64358 0.618646 0
M  V30 6215 C 580.639 3.03171 -1.93946 0
M  V30 6216 C 580.247 2.86782 -3.4418 0
M  V30 6217 C 581.991 3.80916 -1.87359 0
M  V30 6218 C 579.898 4.17044 -4.19319 0
M  V30 6219 H 578.828 0.631469 -0.412023 0
M  V30 6220 H 581.479 1.04922 -1.50544 0
M  V30 6221 H 579.861 3.67587 -1.47296 0
M  V30 6222 H 581.035 2.31229 -3.98585 0
M  V30 6223 H 579.35 2.22482 -3.51981 0
M  V30 6224 H 581.947 4.77417 -2.40784 0
M  V30 6225 H 582.29 4.07658 -0.843857 0
M  V30 6226 H 582.823 3.2327 -2.31821 0
M  V30 6227 H 579.562 3.95487 -5.22753 0
M  V30 6228 H 579.082 4.72319 -3.69696 0
M  V30 6229 H 580.761 4.85513 -4.27651 0
M  V30 6230 N 580.893 1.08022 1.14757 0
M  V30 6231 C 582.139 0.808705 1.85978 0
M  V30 6232 C 582.472 -0.663764 1.82504 0
M  V30 6233 O 581.747 -1.48765 1.25296 0
M  V30 6234 C 582.03 1.32623 3.34788 0
M  V30 6235 C 581.883 2.86375 3.46856 0
M  V30 6236 C 583.202 0.948291 4.29762 0
M  V30 6237 H 580.321 0.295244 0.675278 0
M  V30 6238 H 582.963 1.33917 1.34783 0
M  V30 6239 H 581.113 0.875002 3.78518 0
M  V30 6240 H 582.785 3.39839 3.11941 0
M  V30 6241 H 581.028 3.24232 2.88194 0
M  V30 6242 H 581.699 3.17658 4.51439 0
M  V30 6243 H 584.175 1.33722 3.94028 0
M  V30 6244 H 583.051 1.33765 5.32352 0
M  V30 6245 H 583.312 -0.145094 4.41862 0
M  V30 6246 N 582.371 -1.3172 0.865308 0
M  V30 6247 C 583.596 -2.01591 0.487415 0
M  V30 6248 C 584.021 -1.6455 -0.911307 0
M  V30 6249 O 583.379 -0.851689 -1.6005 0
M  V30 6250 C 583.427 -3.54759 0.646401 0
M  V30 6251 O 582.531 -4.11185 -0.316284 0
M  V30 6252 H 581.872 -0.634884 0.194468 0
M  V30 6253 H 584.402 -1.68024 1.16744 0
M  V30 6254 H 584.412 -4.04438 0.537932 0
M  V30 6255 H 583.087 -3.8106 1.66632 0
M  V30 6256 H 581.664 -3.72543 -0.163162 0
M  V30 6257 N 583.85 -0.624285 -1.44708 0
M  V30 6258 C 584.798 0.0969952 -2.32398 0
M  V30 6259 C 585.792 0.842762 -1.46949 0
M  V30 6260 O 586.998 0.756436 -1.63334 0
M  V30 6261 H 583.373 0.0501306 -0.750327 0
M  V30 6262 H 585.344 -0.660767 -2.90992 0
M  V30 6263 C 584.093 1.06967 -3.30837 0
M  V30 6264 H 583.416 0.505242 -3.96595 0
M  V30 6265 H 584.856 1.54397 -3.94889 0
M  V30 6266 C 583.315 2.15153 -2.5925 0
M  V30 6267 O 583.845 3.23139 -2.3863 0
M  V30 6268 N 582.051 1.90898 -2.19103 0
M  V30 6269 H 581.598 1.03086 -2.36074 0
M  V30 6270 H 581.556 2.63485 -1.71531 0
M  V30 6271 N 585.328 1.53329 -0.364422 0
M  V30 6272 C 586.575 2.01239 0.225634 0
M  V30 6273 C 586.903 1.25172 1.48869 0
M  V30 6274 O 586.158 0.333289 1.92841 0
M  V30 6275 C 586.457 3.52911 0.564661 0
M  V30 6276 C 586.123 4.46837 -0.603936 0
M  V30 6277 C 584.785 4.72234 -0.924585 0
M  V30 6278 C 587.137 5.02409 -1.38691 0
M  V30 6279 C 584.465 5.50454 -2.0302 0
M  V30 6280 C 586.817 5.81836 -2.48293 0
M  V30 6281 C 585.481 6.0552 -2.80894 0
M  V30 6282 H 584.751 0.736386 0.0825654 0
M  V30 6283 H 587.398 1.84948 -0.496645 0
M  V30 6284 H 585.703 3.67144 1.36794 0
M  V30 6285 H 587.4 3.87455 1.03344 0
M  V30 6286 H 583.99 4.27217 -0.343983 0
M  V30 6287 H 588.174 4.82735 -1.15243 0
M  V30 6288 H 583.43 5.67024 -2.28678 0
M  V30 6289 H 587.604 6.23905 -3.0938 0
M  V30 6290 H 585.231 6.65916 -3.66688 0
M  V30 6291 N 586.806 0.0935595 1.57322 0
M  V30 6292 C 588.031 -0.582324 1.99057 0
M  V30 6293 C 588.456 -1.61025 0.972242 0
M  V30 6294 O 587.814 -1.81202 -0.0594622 0
M  V30 6295 C 587.862 -1.20799 3.39765 0
M  V30 6296 O 586.966 -2.32382 3.40694 0
M  V30 6297 H 586.307 -0.147884 0.647323 0
M  V30 6298 H 588.837 0.174516 2.03854 0
M  V30 6299 H 588.847 -1.54966 3.77425 0
M  V30 6300 H 587.522 -0.454914 4.13405 0
M  V30 6301 H 586.099 -1.99845 3.14827 0
M  V30 6302 N 588.284 -1.56567 -0.180126 0
M  V30 6303 C 589.514 -1.85349 -0.912647 0
M  V30 6304 C 589.922 -0.675795 -1.76719 0
M  V30 6305 O 589.265 0.3645 -1.80047 0
M  V30 6306 C 589.327 -3.08431 -1.84691 0
M  V30 6307 C 588.991 -4.41694 -1.17284 0
M  V30 6308 C 589.988 -5.17062 -0.542532 0
M  V30 6309 C 587.673 -4.8843 -1.17223 0
M  V30 6310 C 589.667 -6.37351 0.0793953 0
M  V30 6311 C 587.354 -6.08652 -0.54647 0
M  V30 6312 C 588.352 -6.82955 0.0782458 0
M  V30 6313 O 588.04 -8.00897 0.694158 0
M  V30 6314 H 587.772 -0.619286 -0.271036 0
M  V30 6315 H 590.326 -2.0454 -0.187768 0
M  V30 6316 H 588.556 -2.85163 -2.61188 0
M  V30 6317 H 590.245 -3.23733 -2.44851 0
M  V30 6318 H 591.011 -4.8204 -0.535045 0
M  V30 6319 H 586.89 -4.30542 -1.64788 0
M  V30 6320 H 590.434 -6.95287 0.567612 0
M  V30 6321 H 586.331 -6.4314 -0.55151 0
M  V30 6322 H 587.099 -8.16352 0.592537 0
M  V30 6323 N 589.762 0.448376 -1.51087 0
M  V30 6324 C 591.009 1.19872 -1.63209 0
M  V30 6325 C 591.337 1.91451 -0.343062 0
M  V30 6326 O 590.592 1.83789 0.672321 0
M  V30 6327 C 590.891 2.24866 -2.77795 0
M  V30 6328 C 590.557 1.70378 -4.17471 0
M  V30 6329 C 589.219 1.55241 -4.55471 0
M  V30 6330 C 591.571 1.30203 -5.04675 0
M  V30 6331 C 588.899 0.983844 -5.78392 0
M  V30 6332 C 591.251 0.747798 -6.28165 0
M  V30 6333 C 589.915 0.583233 -6.64947 0
M  V30 6334 H 589.185 0.438642 -0.597222 0
M  V30 6335 H 591.832 0.49136 -1.85089 0
M  V30 6336 H 590.137 3.01598 -2.50092 0
M  V30 6337 H 591.834 2.82723 -2.84374 0
M  V30 6338 H 588.424 1.83134 -3.87505 0
M  V30 6339 H 592.608 1.40723 -4.75932 0
M  V30 6340 H 587.864 0.844007 -6.05546 0
M  V30 6341 H 592.038 0.427927 -6.95084 0
M  V30 6342 H 589.665 0.140532 -7.6007 0
M  V30 6343 N 591.24 1.41047 0.703093 0
M  V30 6344 C 592.47 1.43133 1.48985 0
M  V30 6345 C 592.878 0.0328537 1.89171 0
M  V30 6346 O 592.221 -0.956469 1.56835 0
M  V30 6347 C 592.283 2.26991 2.78775 0
M  V30 6348 C 591.947 3.7525 2.60837 0
M  V30 6349 C 592.944 4.67591 2.27276 0
M  V30 6350 C 590.629 4.19208 2.76712 0
M  V30 6351 C 592.623 6.01877 2.09817 0
M  V30 6352 C 590.31 5.53561 2.5887 0
M  V30 6353 C 591.308 6.4471 2.25472 0
M  V30 6354 O 590.996 7.76584 2.07778 0
M  V30 6355 H 590.728 0.489788 0.465922 0
M  V30 6356 H 593.282 1.85886 0.873822 0
M  V30 6357 H 591.512 1.79038 3.42757 0
M  V30 6358 H 593.201 2.20867 3.40547 0
M  V30 6359 H 593.967 4.34923 2.14633 0
M  V30 6360 H 589.846 3.48572 3.01693 0
M  V30 6361 H 593.39 6.72986 1.83671 0
M  V30 6362 H 589.287 5.85811 2.71102 0
M  V30 6363 H 590.055 7.87649 2.22601 0
M  V30 6364 N 592.718 -0.936591 1.26751 0
M  V30 6365 C 593.668 -2.0219 1.05371 0
M  V30 6366 C 594.652 -1.60893 -0.0154112 0
M  V30 6367 O 595.844 -1.75843 0.202085 0
M  V30 6368 C 592.973 -3.36222 0.693541 0
M  V30 6369 C 592.059 -3.8399 1.80035 0
M  V30 6370 N 592.45 -4.0436 3.03852 0
M  V30 6371 C 590.748 -4.12945 1.685 0
M  V30 6372 C 591.449 -4.44 3.75818 0
M  V30 6373 N 590.425 -4.50966 3.03531 0
M  V30 6374 H 594.227 -2.15958 1.99347 0
M  V30 6375 H 591.741 -1.12277 1.17335 0
M  V30 6376 H 593.738 -4.13625 0.521513 0
M  V30 6377 H 592.398 -3.23821 -0.238693 0
M  V30 6378 H 593.409 -3.9092 3.39709 0
M  V30 6379 H 590.086 -4.09308 0.822986 0
M  V30 6380 H 591.476 -4.67914 4.82189 0
M  V30 6381 N 594.196 -1.08629 -1.14182 0
M  V30 6382 C 595.612 -0.814363 -1.3726 0
M  V30 6383 C 595.812 0.575271 -1.93114 0
M  V30 6384 O 594.868 1.33165 -2.1453 0
M  V30 6385 C 596.181 -1.8989 -2.33157 0
M  V30 6386 C 597.729 -1.92518 -2.46791 0
M  V30 6387 C 598.204 -3.00092 -3.45989 0
M  V30 6388 N 599.695 -2.99279 -3.53534 0
M  V30 6389 C 600.43 -3.79158 -4.30147 0
M  V30 6390 N 599.926 -4.68923 -5.09983 0
M  V30 6391 N 601.719 -3.67451 -4.25366 0
M  V30 6392 H 593.87 -1.98232 -0.762758 0
M  V30 6393 H 596.133 -0.860383 -0.398051 0
M  V30 6394 H 595.839 -2.89809 -1.99257 0
M  V30 6395 H 595.713 -1.77013 -3.33086 0
M  V30 6396 H 598.1 -0.932425 -2.79982 0
M  V30 6397 H 598.181 -2.09473 -1.46816 0
M  V30 6398 H 597.825 -3.99575 -3.13532 0
M  V30 6399 H 597.755 -2.80382 -4.45751 0
M  V30 6400 H 600.246 -2.3422 -2.96563 0
M  V30 6401 H 600.559 -5.26475 -5.65724 0
M  V30 6402 H 598.904 -4.72964 -5.09244 0
M  V30 6403 H 602.095 -2.9669 -3.62067 0
M  V30 6404 H 602.268 -4.29944 -4.84822 0
M  V30 6405 N 595.674 1.31259 -0.872281 0
M  V30 6406 C 596.584 2.32221 -0.333255 0
M  V30 6407 C 597.6 1.6481 0.558013 0
M  V30 6408 O 598.776 1.96212 0.454175 0
M  V30 6409 C 595.841 3.43708 0.454479 0
M  V30 6410 C 594.902 4.26774 -0.465024 0
M  V30 6411 C 594.135 5.32937 0.28521 0
M  V30 6412 O 594.358 5.49968 1.513 0
M  V30 6413 O 593.292 6.00834 -0.358126 0
M  V30 6414 H 597.118 2.80252 -1.17016 0
M  V30 6415 H 594.703 1.352 -0.635724 0
M  V30 6416 H 596.585 4.11656 0.900963 0
M  V30 6417 H 595.26 2.97836 1.26789 0
M  V30 6418 H 594.167 3.61571 -0.960055 0
M  V30 6419 H 595.5 4.76217 -1.2441 0
M  V30 6420 N 597.152 0.631951 1.44375 0
M  V30 6421 C 598.38 0.143867 2.06399 0
M  V30 6422 C 598.795 -1.18188 1.47231 0
M  V30 6423 O 598.152 -1.72511 0.595498 0
M  V30 6424 C 598.203 0.0238253 3.61492 0
M  V30 6425 O 597.924 1.29715 4.18456 0
M  V30 6426 C 599.425 -0.492856 4.40552 0
M  V30 6427 H 596.645 0.0800542 0.666207 0
M  V30 6428 H 599.189 0.866586 1.85231 0
M  V30 6429 H 597.344 -0.649338 3.81919 0
M  V30 6430 H 597.758 1.14252 5.11905 0
M  V30 6431 H 599.232 -0.525861 5.49489 0
M  V30 6432 H 599.709 -1.52006 4.12057 0
M  V30 6433 H 600.315 0.147085 4.25046 0
M  V30 6434 N 598.631 -1.53133 0.372548 0
M  V30 6435 C 599.541 -2.29671 -0.478379 0
M  V30 6436 C 600.557 -1.35913 -1.08644 0
M  V30 6437 O 601.733 -1.68975 -1.09588 0
M  V30 6438 C 598.798 -3.07625 -1.599 0
M  V30 6439 C 597.859 -4.17061 -1.01776 0
M  V30 6440 C 597.092 -4.91289 -2.08497 0
M  V30 6441 O 597.315 -4.65442 -3.29727 0
M  V30 6442 O 596.249 -5.7705 -1.71164 0
M  V30 6443 H 600.075 -3.03355 0.144649 0
M  V30 6444 H 597.66 -1.48773 0.136729 0
M  V30 6445 H 599.542 -3.56281 -2.25038 0
M  V30 6446 H 598.217 -2.3677 -2.2073 0
M  V30 6447 H 597.124 -3.72641 -0.330098 0
M  V30 6448 H 598.457 -4.90102 -0.453915 0
M  V30 6449 N 600.109 -0.101901 -1.5727 0
M  V30 6450 C 601.357 0.559091 -1.94213 0
M  V30 6451 C 601.678 1.68297 -0.984948 0
M  V30 6452 O 600.948 1.95863 -0.0381975 0
M  V30 6453 H 599.528 0.20952 -0.717015 0
M  V30 6454 H 602.19 -0.166831 -1.94185 0
M  V30 6455 H 601.286 0.96485 -2.96811 0
M  V30 6456 N 601.587 1.56661 0.17182 0
M  V30 6457 C 602.497 1.99604 1.2327 0
M  V30 6458 C 603.513 0.907333 1.4847 0
M  V30 6459 O 604.689 1.21492 1.60629 0
M  V30 6460 C 601.754 2.34685 2.55194 0
M  V30 6461 C 600.815 3.57381 2.3786 0
M  V30 6462 C 600.048 3.90779 3.63494 0
M  V30 6463 O 600.271 3.25152 4.6865 0
M  V30 6464 O 599.205 4.84129 3.57634 0
M  V30 6465 H 603.031 2.90114 0.898192 0
M  V30 6466 H 600.616 1.44522 0.378647 0
M  V30 6467 H 602.498 2.5822 3.33017 0
M  V30 6468 H 601.173 1.47336 2.88225 0
M  V30 6469 H 600.08 3.39064 1.5807 0
M  V30 6470 H 601.413 4.45268 2.09754 0
M  V30 6471 N 603.065 -0.440357 1.51323 0
M  V30 6472 C 603.975 -1.55955 1.75258 0
M  V30 6473 C 604.991 -1.61933 0.636687 0
M  V30 6474 O 606.167 -1.79231 0.918593 0
M  V30 6475 C 603.232 -2.9196 1.86977 0
M  V30 6476 C 602.293 -2.96122 3.10822 0
M  V30 6477 C 601.526 -4.2564 3.21973 0
M  V30 6478 O 601.749 -5.17851 2.39137 0
M  V30 6479 O 600.683 -4.36025 4.14929 0
M  V30 6480 H 604.509 -1.38673 2.70191 0
M  V30 6481 H 602.094 -0.623055 1.35788 0
M  V30 6482 H 603.976 -3.72682 1.96688 0
M  V30 6483 H 602.651 -3.09375 0.952307 0
M  V30 6484 H 601.558 -2.14366 3.06591 0
M  V30 6485 H 602.891 -2.83651 4.02247 0
M  V30 6486 N 604.543 -1.41418 -0.695603 0
M  V30 6487 C 605.506 -1.42988 -1.79129 0
M  V30 6488 C 606.506 -0.320514 -1.57573 0
M  V30 6489 O 607.696 -0.58039 -1.64247 0
M  V30 6490 C 604.828 -1.24122 -3.175 0
M  V30 6491 H 606.021 -2.40526 -1.7913 0
M  V30 6492 H 603.574 -1.2756 -0.903225 0
M  V30 6493 H 604.309 -0.274253 -3.23138 0
M  V30 6494 H 604.094 -2.045 -3.34547 0
M  V30 6495 H 605.584 -1.28056 -3.97481 0
M  V30 6496 N 606.021 0.929856 -1.27246 0
M  V30 6497 C 607.269 1.674 -1.13233 0
M  V30 6498 C 607.59 1.92311 0.322744 0
M  V30 6499 O 606.86 1.52784 1.22612 0
M  V30 6500 H 605.44 0.620411 -0.416052 0
M  V30 6501 H 608.102 1.11663 -1.59741 0
M  V30 6502 H 607.198 2.64308 -1.65975 0
M  V30 6503 N 607.499 1.09233 1.13605 0
M  V30 6504 C 608.432 0.6739 2.18023 0
M  V30 6505 C 609.41 -0.318603 1.59448 0
M  V30 6506 O 610.594 -0.220452 1.87206 0
M  V30 6507 C 607.721 -0.00751458 3.38699 0
M  V30 6508 C 606.767 0.946481 4.15865 0
M  V30 6509 S 607.6 2.45753 4.75779 0
M  V30 6510 C 608.756 1.78846 5.99804 0
M  V30 6511 H 608.989 1.55846 2.53178 0
M  V30 6512 H 606.522 0.908118 1.2487 0
M  V30 6513 H 608.48 -0.394368 4.08601 0
M  V30 6514 H 607.141 -0.868693 3.01849 0
M  V30 6515 H 606.334 0.416742 5.02274 0
M  V30 6516 H 605.936 1.27464 3.51609 0
M  V30 6517 H 608.228 1.11135 6.68323 0
M  V30 6518 H 609.171 2.63163 6.57382 0
M  V30 6519 H 609.579 1.25823 5.50299 0
M  V30 6520 N 608.977 -1.30795 0.87923 0
M  V30 6521 C 610.224 -1.96362 0.494786 0
M  V30 6522 C 610.552 -1.69448 -0.954868 0
M  V30 6523 O 609.807 -0.988711 -1.68888 0
M  V30 6524 C 610.106 -3.50287 0.709476 0
M  V30 6525 C 609.772 -3.9724 2.13333 0
M  V30 6526 C 608.434 -4.09772 2.52271 0
M  V30 6527 C 610.786 -4.21807 3.06151 0
M  V30 6528 C 608.114 -4.44227 3.83248 0
M  V30 6529 C 610.466 -4.5773 4.36654 0
M  V30 6530 C 609.13 -4.68469 4.75492 0
M  V30 6531 H 608.4 -0.71854 0.181055 0
M  V30 6532 H 611.047 -1.55764 1.11399 0
M  V30 6533 H 609.352 -3.91799 0.0072 0
M  V30 6534 H 611.049 -3.99082 0.391703 0
M  V30 6535 H 607.639 -3.87988 1.82107 0
M  V30 6536 H 611.823 -4.11611 2.77291 0
M  V30 6537 H 607.079 -4.50741 4.13089 0
M  V30 6538 H 611.253 -4.7569 5.08617 0
M  V30 6539 H 608.88 -4.94923 5.77022 0
M  V30 6540 N 610.455 -0.639598 -1.44038 0
M  V30 6541 C 611.68 -0.153117 -2.06834 0
M  V30 6542 C 612.105 1.16676 -1.47541 0
M  V30 6543 O 611.463 1.71769 -0.580093 0
M  V30 6544 C 611.511 -0.0609169 -3.60549 0
M  V30 6545 O 610.615 0.98071 -4.00569 0
M  V30 6546 H 609.956 -0.0886402 -0.658057 0
M  V30 6547 H 612.486 -0.878674 -1.84771 0
M  V30 6548 H 612.496 0.126892 -4.07803 0
M  V30 6549 H 611.171 -1.0245 -4.03084 0
M  V30 6550 H 609.748 0.766789 -3.64931 0
M  V30 6551 N 611.933 1.52934 -0.380664 0
M  V30 6552 C 612.883 2.22989 0.475399 0
M  V30 6553 C 613.867 1.23058 1.03661 0
M  V30 6554 O 615.059 1.48436 0.964146 0
M  V30 6555 C 612.188 3.0338 1.60671 0
M  V30 6556 C 611.274 4.107 1.05766 0
M  V30 6557 N 611.665 5.05264 0.232837 0
M  V30 6558 C 609.963 4.25676 1.33101 0
M  V30 6559 C 610.664 5.81658 -0.0695134 0
M  V30 6560 N 609.64 5.40989 0.532144 0
M  V30 6561 H 613.442 2.93456 -0.161418 0
M  V30 6562 H 610.956 1.61291 -0.189495 0
M  V30 6563 H 612.953 3.52098 2.23232 0
M  V30 6564 H 611.613 2.34446 2.24644 0
M  V30 6565 H 612.624 5.17739 -0.129204 0
M  V30 6566 H 609.301 3.6797 1.97241 0
M  V30 6567 H 610.691 6.67843 -0.737269 0
M  V30 6568 N 613.412 0.11024 1.57214 0
M  V30 6569 C 614.658 -0.550684 1.9518 0
M  V30 6570 C 614.991 -1.66885 0.993122 0
M  V30 6571 O 614.266 -1.94479 0.0287907 0
M  V30 6572 C 614.549 -1.09163 3.43155 0
M  V30 6573 C 614.402 0.0225198 4.49794 0
M  V30 6574 C 615.721 -1.98527 3.92778 0
M  V30 6575 H 612.84 -0.198706 0.709708 0
M  V30 6576 H 615.482 0.184024 1.89107 0
M  V30 6577 H 613.632 -1.71775 3.48462 0
M  V30 6578 H 615.304 0.657443 4.56591 0
M  V30 6579 H 613.547 0.686868 4.28328 0
M  V30 6580 H 614.218 -0.39706 5.5057 0
M  V30 6581 H 616.694 -1.458 3.8972 0
M  V30 6582 H 615.57 -2.33298 4.96853 0
M  V30 6583 H 615.831 -2.90846 3.32958 0
M  V30 6584 N 614.89 -1.56749 -0.16351 0
M  V30 6585 C 616.167 -1.73321 -0.906599 0
M  V30 6586 C 616.547 -0.673779 -2.00059 0
M  V30 6587 O 615.895 0.310121 -2.26386 0
M  V30 6588 C 616.105 -3.168 -1.46419 0
M  V30 6589 C 617.453 -3.77993 -1.93407 0
M  V30 6590 O 618.477 -3.20127 -1.56196 0
M  V30 6591 O 617.336 -4.79615 -2.61976 0
M  V30 6592 H 614.43 -0.708073 -0.427272 0
M  V30 6593 H 616.976 -1.69029 -0.150727 0
M  V30 6594 H 615.748 -3.85396 -0.677189 0
M  V30 6595 H 615.371 -3.2545 -2.28403 0
M  V30 6596 N 616.368 0.432326 -1.51554 0
M  V30 6597 C 617.301 1.54525 -1.6792 0
M  V30 6598 C 618.279 1.53831 -0.526764 0
M  V30 6599 O 619.463 1.72884 -0.751233 0
M  V30 6600 C 616.59 2.931 -1.69736 0
M  V30 6601 C 615.636 3.11799 -2.91005 0
M  V30 6602 S 616.469 2.87565 -4.51737 0
M  V30 6603 C 617.625 4.28412 -4.56305 0
M  V30 6604 H 617.858 1.4041 -2.62054 0
M  V30 6605 H 615.391 0.622357 -1.41301 0
M  V30 6606 H 617.349 3.72974 -1.71467 0
M  V30 6607 H 616.01 3.04574 -0.767705 0
M  V30 6608 H 615.203 4.13127 -2.8869 0
M  V30 6609 H 614.805 2.39757 -2.87041 0
M  V30 6610 H 617.097 5.21692 -4.32254 0
M  V30 6611 H 618.04 4.35758 -5.58141 0
M  V30 6612 H 618.448 4.12301 -3.85576 0
M  V30 6613 N 617.846 1.41785 0.688094 0
M  V30 6614 C 618.778 1.40159 1.81351 0
M  V30 6615 C 619.791 0.30262 1.59963 0
M  V30 6616 O 620.98 0.564841 1.69327 0
M  V30 6617 C 618.08 1.16517 3.1824 0
M  V30 6618 C 617.253 2.38597 3.66593 0
M  V30 6619 C 616.312 2.10699 4.82174 0
M  V30 6620 O 615.338 2.83798 4.93404 0
M  V30 6621 N 616.54 1.10187 5.69947 0
M  V30 6622 H 619.305 2.3716 1.83236 0
M  V30 6623 H 616.866 1.36494 0.870697 0
M  V30 6624 H 618.858 0.957941 3.93199 0
M  V30 6625 H 617.428 0.280873 3.11336 0
M  V30 6626 H 616.648 2.74974 2.82459 0
M  V30 6627 H 617.936 3.19919 3.95638 0
M  V30 6628 H 617.334 0.497016 5.63512 0
M  V30 6629 H 615.891 0.954518 6.44773 0
M  V30 6630 N 619.324 -0.923095 1.27737 0
M  V30 6631 C 620.735 -1.48626 1.12993 0
M  V30 6632 C 621.086 -1.94142 -0.283439 0
M  V30 6633 O 620.211 -1.81605 -1.17681 0
M  V30 6634 C 620.806 -2.70117 2.04505 0
M  V30 6635 C 619.365 -3.22642 1.93853 0
M  V30 6636 C 618.512 -1.95368 1.96791 0
M  V30 6637 H 621.463 -0.736737 1.40563 0
M  V30 6638 H 621.484 -3.4506 1.60356 0
M  V30 6639 H 620.996 -2.36959 3.07363 0
M  V30 6640 H 619.097 -3.60549 0.939968 0
M  V30 6641 H 619.21 -3.88525 2.80331 0
M  V30 6642 H 617.574 -2.12061 1.41076 0
M  V30 6643 H 618.357 -1.64517 3.01312 0
M  V30 6644 N 620.802 -1.09834 -1.13024 0
M  V30 6645 C 622.042 -0.846664 -1.8604 0
M  V30 6646 C 622.406 0.616557 -1.81831 0
M  V30 6647 O 623.607 0.984329 -2.50129 0
M  V30 6648 C 621.878 -1.37228 -3.30005 0
M  V30 6649 S 623.437 -1.25511 -4.20467 0
M  V30 6650 H 620.255 -0.30611 -0.64173 0
M  V30 6651 H 622.857 -1.40255 -1.36194 0
M  V30 6652 H 621.561 -2.43138 -3.30624 0
M  V30 6653 H 621.092 -0.81271 -3.84914 0
M  V30 6654 H 623.107 -0.208762 -4.95761 0
M  V30 6655 N 622.28 1.30327 -0.886154 0
M  V30 6656 C 623.528 1.9571 -0.504195 0
M  V30 6657 C 623.849 1.70294 0.950003 0
M  V30 6658 O 623.119 1.02718 1.66811 0
M  V30 6659 H 621.699 0.72412 -0.183465 0
M  V30 6660 H 624.361 1.58835 -1.12949 0
M  V30 6661 H 623.457 3.04704 -0.675431 0
M  V30 6662 N 623.758 0.647228 1.43697 0
M  V30 6663 C 625.169 0.238689 1.85168 0
M  V30 6664 C 625.52 -1.21345 1.54175 0
M  V30 6665 O 624.645 -1.92542 0.987743 0
M  V30 6666 C 625.24 0.426422 3.36106 0
M  V30 6667 C 623.799 0.0722541 3.76331 0
M  V30 6668 C 622.946 0.732153 2.6746 0
M  V30 6669 H 625.897 0.851309 1.33934 0
M  V30 6670 H 625.918 -0.32987 3.79067 0
M  V30 6671 H 625.43 1.48339 3.58632 0
M  V30 6672 H 623.531 -0.982355 3.59417 0
M  V30 6673 H 623.644 0.493541 4.76551 0
M  V30 6674 H 622.008 0.16594 2.54159 0
M  V30 6675 H 622.791 1.79204 2.92816 0
M  V30 6676 N 625.236 -1.5273 0.388769 0
M  V30 6677 C 626.166 -2.29353 -0.438111 0
M  V30 6678 C 627.147 -1.32719 -1.06394 0
M  V30 6679 O 628.332 -1.61612 -1.07681 0
M  V30 6680 C 625.462 -3.09995 -1.56589 0
M  V30 6681 C 624.416 -4.14509 -1.06613 0
M  V30 6682 C 623.742 -4.83372 -2.28594 0
M  V30 6683 C 625.042 -5.22127 -0.134459 0
M  V30 6684 H 626.736 -2.98723 0.201206 0
M  V30 6685 H 624.282 -1.43665 0.0982089 0
M  V30 6686 H 626.235 -3.62357 -2.15118 0
M  V30 6687 H 624.959 -2.38357 -2.23279 0
M  V30 6688 H 623.618 -3.63128 -0.503383 0
M  V30 6689 H 623.266 -4.08283 -2.93792 0
M  V30 6690 H 622.966 -5.54012 -1.95817 0
M  V30 6691 H 624.49 -5.38538 -2.87766 0
M  V30 6692 H 625.904 -5.69851 -0.627914 0
M  V30 6693 H 624.301 -6.00011 0.103534 0
M  V30 6694 H 625.371 -4.77971 0.816798 0
M  V30 6695 N 626.714 -0.118576 -1.57153 0
M  V30 6696 C 627.624 0.845484 -2.18835 0
M  V30 6697 C 628.64 1.29299 -1.16438 0
M  V30 6698 O 629.816 1.35607 -1.48905 0
M  V30 6699 C 626.881 2.07795 -2.77529 0
M  V30 6700 C 625.942 1.6824 -3.9496 0
M  V30 6701 C 625.175 2.85612 -4.50845 0
M  V30 6702 O 625.398 4.01025 -4.05629 0
M  V30 6703 O 624.332 2.62721 -5.41536 0
M  V30 6704 H 628.158 0.350568 -3.0167 0
M  V30 6705 H 625.743 0.107013 -1.49016 0
M  V30 6706 H 627.625 2.79978 -3.14945 0
M  V30 6707 H 626.3 2.56294 -1.97725 0
M  V30 6708 H 625.207 0.931663 -3.62313 0
M  V30 6709 H 626.54 1.24484 -4.76198 0
M  V30 6710 N 628.193 1.56834 0.155195 0
M  V30 6711 C 629.441 1.82536 0.867462 0
M  V30 6712 C 629.762 0.698168 1.82073 0
M  V30 6713 O 629.032 -0.280807 1.93877 0
M  V30 6714 H 627.612 0.673401 0.323327 0
M  V30 6715 H 630.274 1.94313 0.151156 0
M  V30 6716 H 629.37 2.77171 1.43466 0
M  V30 6717 N 629.671 -0.424282 1.51781 0
M  V30 6718 C 630.618 -1.51591 1.74037 0
M  V30 6719 C 631.588 -1.55556 0.582358 0
M  V30 6720 O 632.773 -1.72364 0.818245 0
M  V30 6721 C 629.913 -2.89188 1.8832 0
M  V30 6722 C 629.026 -2.9465 3.1592 0
M  V30 6723 C 628.161 -4.23452 3.20721 0
M  V30 6724 C 627.2 -4.22831 4.42584 0
M  V30 6725 N 626.337 -5.43178 4.44862 0
M  V30 6726 H 631.177 -1.31917 2.67212 0
M  V30 6727 H 628.714 -0.640599 1.32419 0
M  V30 6728 H 630.672 -3.69044 1.94583 0
M  V30 6729 H 629.302 -3.07392 0.985402 0
M  V30 6730 H 628.354 -2.07378 3.18902 0
M  V30 6731 H 629.666 -2.90055 4.05795 0
M  V30 6732 H 628.82 -5.1169 3.25973 0
M  V30 6733 H 627.559 -4.30722 2.28757 0
M  V30 6734 H 626.564 -3.32984 4.37495 0
M  V30 6735 H 627.789 -4.17213 5.35826 0
M  V30 6736 H 625.735 -5.51145 3.55775 0
M  V30 6737 H 625.652 -5.40515 5.28563 0
M  V30 6738 H 626.92 -6.33412 4.54324 0
M  V30 6739 N 631.149 -1.42148 -0.680565 0
M  V30 6740 C 632.112 -1.4488 -1.77602 0
M  V30 6741 C 633.112 -0.337209 -1.57224 0
M  V30 6742 O 634.302 -0.597778 -1.63622 0
M  V30 6743 C 631.434 -1.27483 -3.16166 0
M  V30 6744 H 632.627 -2.42412 -1.76568 0
M  V30 6745 H 630.18 -1.28511 -0.889645 0
M  V30 6746 H 630.915 -0.30851 -3.22829 0
M  V30 6747 H 630.7 -2.08037 -3.3236 0
M  V30 6748 H 632.19 -1.32265 -3.96101 0
M  V30 6749 N 632.627 0.916307 -1.28225 0
M  V30 6750 C 633.575 2.03977 -1.11786 0
M  V30 6751 C 634.569 1.69358 -0.0378265 0
M  V30 6752 O 635.775 1.78925 -0.196405 0
M  V30 6753 H 632.15 0.66829 -0.344809 0
M  V30 6754 H 634.121 2.14985 -2.06939 0
M  V30 6755 C 632.87 3.38518 -0.7938 0
M  V30 6756 H 632.193 3.65649 -1.61682 0
M  V30 6757 H 633.633 4.17864 -0.718719 0
M  V30 6758 C 632.092 3.33134 0.502353 0
M  V30 6759 O 632.622 3.71281 1.53341 0
M  V30 6760 N 630.828 2.86229 0.502147 0
M  V30 6761 H 630.375 2.55382 -0.337338 0
M  V30 6762 H 630.333 2.83009 1.36942 0
M  V30 6763 N 634.105 1.10431 1.1244 0
M  V30 6764 C 635.353 0.845045 1.83585 0
M  V30 6765 C 635.674 -0.631168 1.84503 0
M  V30 6766 O 634.944 -1.45825 1.30813 0
M  V30 6767 H 633.524 0.309628 0.679809 0
M  V30 6768 H 636.186 1.39458 1.36153 0
M  V30 6769 H 635.282 1.20786 2.8778 0
M  V30 6770 N 635.583 -1.29855 0.893053 0
M  V30 6771 C 636.831 -1.9544 0.514566 0
M  V30 6772 C 637.152 -1.70795 -0.940959 0
M  V30 6773 O 636.422 -1.03601 -1.66264 0
M  V30 6774 H 635.002 -0.723137 0.187302 0
M  V30 6775 H 637.664 -1.58234 1.13789 0
M  V30 6776 H 636.76 -3.04341 0.691581 0
M  V30 6777 N 637.061 -0.65484 -1.43351 0
M  V30 6778 C 637.991 0.0221809 -2.33489 0
M  V30 6779 C 638.972 0.810272 -1.49561 0
M  V30 6780 O 640.157 0.771426 -1.78221 0
M  V30 6781 C 637.287 0.988117 -3.32947 0
M  V30 6782 C 636.241 0.310026 -4.26876 0
M  V30 6783 C 635.567 1.38752 -5.16384 0
M  V30 6784 C 636.867 -0.798589 -5.16159 0
M  V30 6785 H 638.561 -0.730571 -2.9035 0
M  V30 6786 H 636.107 -0.352773 -1.39612 0
M  V30 6787 H 638.06 1.47067 -3.94904 0
M  V30 6788 H 636.784 1.77205 -2.74346 0
M  V30 6789 H 635.443 -0.152097 -3.66284 0
M  V30 6790 H 635.091 2.16293 -4.54121 0
M  V30 6791 H 634.791 0.939051 -5.80048 0
M  V30 6792 H 636.315 1.87141 -5.81215 0
M  V30 6793 H 637.729 -0.398126 -5.71916 0
M  V30 6794 H 636.126 -1.17163 -5.88552 0
M  V30 6795 H 637.196 -1.65588 -4.55751 0
M  V30 6796 N 638.539 1.52521 -0.396863 0
M  V30 6797 C 639.785 2.01971 0.183169 0
M  V30 6798 C 640.118 1.2825 1.45827 0
M  V30 6799 O 639.393 0.385179 1.90648 0
M  V30 6800 C 639.676 3.5736 0.443391 0
M  V30 6801 C 639.529 4.41743 -0.84753 0
M  V30 6802 C 640.848 4.22539 1.2308 0
M  V30 6803 H 637.967 0.734119 0.0650976 0
M  V30 6804 H 640.609 1.82519 -0.527918 0
M  V30 6805 H 638.759 3.74066 1.04914 0
M  V30 6806 H 640.431 4.36773 -1.48414 0
M  V30 6807 H 638.674 4.0845 -1.4612 0
M  V30 6808 H 639.345 5.48507 -0.620003 0
M  V30 6809 H 641.821 4.09857 0.718084 0
M  V30 6810 H 640.697 5.31227 1.38162 0
M  V30 6811 H 640.958 3.80675 2.24808 0
M  V30 6812 N 640.017 0.126909 1.57088 0
M  V30 6813 C 641.294 -0.573152 1.87014 0
M  V30 6814 C 641.674 -1.84297 1.02945 0
M  V30 6815 O 641.022 -2.28232 0.110573 0
M  V30 6816 C 641.232 -0.857984 3.38289 0
M  V30 6817 C 642.58 -1.20759 4.07066 0
M  V30 6818 O 643.604 -0.947992 3.43353 0
M  V30 6819 O 642.463 -1.69516 5.19545 0
M  V30 6820 H 639.557 -0.290082 0.774456 0
M  V30 6821 H 642.103 0.162008 1.68925 0
M  V30 6822 H 640.875 0.0415286 3.91278 0
M  V30 6823 H 640.498 -1.64803 3.61837 0
M  V30 6824 N 641.495 -1.56914 -0.146875 0
M  V30 6825 C 642.743 -1.82994 -0.85777 0
M  V30 6826 C 643.064 -0.707814 -1.817 0
M  V30 6827 O 642.334 0.270521 -1.94023 0
M  V30 6828 H 640.914 -0.675106 -0.319751 0
M  V30 6829 H 643.576 -1.9439 -0.140849 0
M  V30 6830 H 642.672 -2.77928 -1.41994 0
M  V30 6831 N 642.974 0.416227 -1.52004 0
M  V30 6832 C 643.884 1.53147 -1.77717 0
M  V30 6833 C 644.9 1.609 -0.662368 0
M  V30 6834 O 646.076 1.77747 -0.946991 0
M  V30 6835 C 643.141 2.88948 -1.91598 0
M  V30 6836 C 642.202 2.9114 -3.15493 0
M  V30 6837 C 641.435 4.20464 -3.28703 0
M  V30 6838 O 641.658 5.13981 -2.47345 0
M  V30 6839 O 640.592 4.29368 -4.21813 0
M  V30 6840 H 644.418 1.34357 -2.72363 0
M  V30 6841 H 642.003 0.601373 -1.36762 0
M  V30 6842 H 643.885 3.69505 -2.02593 0
M  V30 6843 H 642.56 3.07821 -1.00141 0
M  V30 6844 H 641.467 2.09461 -3.09962 0
M  V30 6845 H 642.8 2.77216 -4.06709 0
M  V30 6846 N 644.452 1.42507 0.673017 0
M  V30 6847 C 645.698 1.43284 1.43519 0
M  V30 6848 C 646.031 0.049668 1.94136 0
M  V30 6849 O 645.306 -0.926369 1.71022 0
M  V30 6850 C 645.589 2.45874 2.63093 0
M  V30 6851 C 645.442 3.93388 2.18096 0
M  V30 6852 C 646.761 2.45431 3.6531 0
M  V30 6853 H 643.88 0.521752 0.520522 0
M  V30 6854 H 646.522 1.73932 0.764701 0
M  V30 6855 H 644.672 2.19869 3.20296 0
M  V30 6856 H 646.344 4.30379 1.66046 0
M  V30 6857 H 644.587 4.07169 1.49652 0
M  V30 6858 H 645.258 4.60752 3.03993 0
M  V30 6859 H 647.734 2.68561 3.17827 0
M  V30 6860 H 646.61 3.19189 4.46553 0
M  V30 6861 H 646.871 1.48092 4.16559 0
M  V30 6862 N 645.93 -0.909495 1.28709 0
M  V30 6863 C 647.341 -1.47419 1.14563 0
M  V30 6864 C 647.692 -1.94432 -0.262832 0
M  V30 6865 O 646.817 -1.82842 -1.15748 0
M  V30 6866 C 647.412 -2.67933 2.07358 0
M  V30 6867 C 645.971 -3.20568 1.97264 0
M  V30 6868 C 645.118 -1.93269 1.98852 0
M  V30 6869 H 648.069 -0.721787 1.41336 0
M  V30 6870 H 648.09 -3.43339 1.64007 0
M  V30 6871 H 647.602 -2.33685 3.09859 0
M  V30 6872 H 645.703 -3.59531 0.978157 0
M  V30 6873 H 645.816 -3.85529 2.84436 0
M  V30 6874 H 644.18 -2.10553 1.43317 0
M  V30 6875 H 644.963 -1.61312 3.0304 0
M  V30 6876 N 647.408 -1.11026 -1.11852 0
M  V30 6877 C 648.318 -0.777252 -2.2135 0
M  V30 6878 C 649.334 0.227821 -1.72502 0
M  V30 6879 O 650.51 0.0650587 -2.01295 0
M  V30 6880 C 647.575 -0.220668 -3.45997 0
M  V30 6881 C 646.636 -1.2838 -4.09655 0
M  V30 6882 C 645.869 -0.753678 -5.28352 0
M  V30 6883 O 646.092 0.417779 -5.68868 0
M  V30 6884 O 645.026 -1.51647 -5.82483 0
M  V30 6885 H 648.852 -1.69141 -2.5224 0
M  V30 6886 H 646.437 -0.885836 -1.20305 0
M  V30 6887 H 648.319 0.0855756 -4.21313 0
M  V30 6888 H 646.994 0.666262 -3.16769 0
M  V30 6889 H 645.901 -1.64299 -3.3609 0
M  V30 6890 H 647.234 -2.14396 -4.43052 0
M  V30 6891 N 648.886 1.2938 -0.899927 0
M  V30 6892 C 649.816 2.30144 -0.39446 0
M  V30 6893 C 650.797 1.61611 0.530639 0
M  V30 6894 O 651.982 1.89119 0.441319 0
M  V30 6895 C 649.112 3.45229 0.37868 0
M  V30 6896 C 648.066 4.25564 -0.456012 0
M  V30 6897 C 647.392 5.32848 0.444637 0
M  V30 6898 C 648.692 4.93651 -1.70605 0
M  V30 6899 H 650.386 2.72673 -1.23653 0
M  V30 6900 H 647.932 1.31086 -0.596034 0
M  V30 6901 H 649.885 4.14797 0.743037 0
M  V30 6902 H 648.609 3.01545 1.25453 0
M  V30 6903 H 647.268 3.57704 -0.802704 0
M  V30 6904 H 646.916 4.85408 1.31863 0
M  V30 6905 H 646.616 5.87497 -0.110154 0
M  V30 6906 H 648.14 6.05268 0.805182 0
M  V30 6907 H 649.554 5.55655 -1.41141 0
M  V30 6908 H 647.951 5.58233 -2.20217 0
M  V30 6909 H 649.021 4.18926 -2.4419 0
M  V30 6910 N 650.364 0.662433 1.43002 0
M  V30 6911 C 651.775 0.258315 1.84904 0
M  V30 6912 C 652.126 -1.19703 1.55453 0
M  V30 6913 O 651.251 -1.91484 1.00811 0
M  V30 6914 C 651.846 0.462047 3.35635 0
M  V30 6915 C 650.405 0.112165 3.76233 0
M  V30 6916 C 649.552 0.760479 2.66668 0
M  V30 6917 H 652.503 0.865467 1.33024 0
M  V30 6918 H 652.524 -0.289646 3.79396 0
M  V30 6919 H 652.036 1.52135 3.57039 0
M  V30 6920 H 650.137 -0.944179 3.60439 0
M  V30 6921 H 650.25 0.544058 4.76001 0
M  V30 6922 H 648.614 0.192887 2.53969 0
M  V30 6923 H 649.397 1.82299 2.90898 0
M  V30 6924 N 651.842 -1.52309 0.404946 0
M  V30 6925 C 653.253 -1.86585 -0.0655926 0
M  V30 6926 C 653.604 -1.3239 -1.44801 0
M  V30 6927 O 652.729 -0.6615 -2.06042 0
M  V30 6928 C 653.324 -3.38566 -0.125801 0
M  V30 6929 C 651.883 -3.72497 -0.540666 0
M  V30 6930 C 651.03 -2.75806 0.287487 0
M  V30 6931 H 653.981 -1.45995 0.622185 0
M  V30 6932 H 654.002 -3.68658 -0.941888 0
M  V30 6933 H 653.514 -3.77981 0.880473 0
M  V30 6934 H 651.615 -3.38659 -1.55373 0
M  V30 6935 H 651.728 -4.78234 -0.287956 0
M  V30 6936 H 650.092 -2.53474 -0.249561 0
M  V30 6937 H 650.875 -3.18059 1.29203 0
M  V30 6938 N 653.32 -0.135238 -1.57019 0
M  V30 6939 C 654.731 0.387521 -1.82634 0
M  V30 6940 C 655.082 1.65528 -1.05332 0
M  V30 6941 O 654.207 2.14381 -0.294926 0
M  V30 6942 C 654.802 0.709852 -3.3128 0
M  V30 6943 C 653.361 1.17718 -3.57518 0
M  V30 6944 C 652.508 0.194183 -2.76619 0
M  V30 6945 H 655.459 -0.360126 -1.5456 0
M  V30 6946 H 655.48 1.5657 -3.46794 0
M  V30 6947 H 654.992 -0.213024 -3.87515 0
M  V30 6948 H 653.093 2.1164 -3.06658 0
M  V30 6949 H 653.206 1.11128 -4.66034 0
M  V30 6950 H 651.57 0.684478 -2.4533 0
M  V30 6951 H 652.353 -0.722076 -3.3562 0
M  V30 6952 N 654.798 1.5699 0.138552 0
M  V30 6953 C 655.728 2.01933 1.17241 0
M  V30 6954 C 656.709 0.90033 1.44319 0
M  V30 6955 O 657.894 1.16872 1.55095 0
M  V30 6956 C 655.024 2.40711 2.50351 0
M  V30 6957 C 653.978 3.55874 2.37776 0
M  V30 6958 C 653.304 3.80491 3.75674 0
M  V30 6959 C 654.604 4.8826 1.85472 0
M  V30 6960 H 656.298 2.88551 0.798672 0
M  V30 6961 H 653.844 1.3882 0.382743 0
M  V30 6962 H 655.797 2.70754 3.22909 0
M  V30 6963 H 654.521 1.5104 2.89576 0
M  V30 6964 H 653.18 3.2601 1.67669 0
M  V30 6965 H 652.828 2.88057 4.12349 0
M  V30 6966 H 652.528 4.57998 3.68119 0
M  V30 6967 H 654.052 4.12967 4.49767 0
M  V30 6968 H 655.466 5.16965 2.4783 0
M  V30 6969 H 653.863 5.69631 1.88787 0
M  V30 6970 H 654.933 4.78071 0.810935 0
M  V30 6971 N 656.276 -0.40816 1.52223 0
M  V30 6972 C 657.522 -1.15347 1.67531 0
M  V30 6973 C 657.877 -1.8818 0.400748 0
M  V30 6974 O 657.17 -1.81803 -0.604845 0
M  V30 6975 C 657.364 -2.17422 2.83659 0
M  V30 6976 C 657.193 -1.54611 4.22286 0
M  V30 6977 C 655.963 -1.31841 4.87797 0
M  V30 6978 C 658.161 -1.00648 5.04355 0
M  V30 6979 N 656.143 -0.649338 6.10456 0
M  V30 6980 C 657.514 -0.464384 6.18258 0
M  V30 6981 C 659.569 -0.901041 4.89679 0
M  V30 6982 C 658.272 0.172825 7.19092 0
M  V30 6983 C 660.298 -0.277684 5.90748 0
M  V30 6984 C 659.66 0.253734 7.03943 0
M  V30 6985 H 655.759 -0.408722 0.666686 0
M  V30 6986 H 658.343 -0.445713 1.8953 0
M  V30 6987 H 656.514 -2.85554 2.63274 0
M  V30 6988 H 658.246 -2.84321 2.87999 0
M  V30 6989 H 655.001 -1.58819 4.46176 0
M  V30 6990 H 655.425 -0.3314 6.76188 0
M  V30 6991 H 660.067 -1.29772 4.02392 0
M  V30 6992 H 657.785 0.581564 8.06005 0
M  V30 6993 H 661.371 -0.197605 5.81464 0
M  V30 6994 H 660.251 0.728482 7.80809 0
M  V30 6995 N 657.755 -1.42862 -0.66545 0
M  V30 6996 C 658.718 -1.46756 -1.76055 0
M  V30 6997 C 659.718 -0.353866 -1.56858 0
M  V30 6998 O 660.908 -0.615099 -1.62979 0
M  V30 6999 C 658.04 -1.30829 -3.14796 0
M  V30 7000 H 659.233 -2.44271 -1.73987 0
M  V30 7001 H 656.786 -1.29447 -0.875965 0
M  V30 7002 H 657.521 -0.342733 -3.22484 0
M  V30 7003 H 657.306 -2.11551 -3.30134 0
M  V30 7004 H 658.796 -1.36458 -3.94676 0
M  V30 7005 N 659.233 0.902656 -1.29189 0
M  V30 7006 C 660.644 1.46809 -1.15343 0
M  V30 7007 C 660.995 1.94568 0.252517 0
M  V30 7008 O 660.12 1.83454 1.14777 0
M  V30 7009 C 660.715 2.66829 -2.08776 0
M  V30 7010 C 659.274 3.19518 -1.98961 0
M  V30 7011 C 658.421 1.92212 -1.99874 0
M  V30 7012 H 661.372 0.714282 -1.41717 0
M  V30 7013 H 661.393 3.42465 -1.65826 0
M  V30 7014 H 660.905 2.32039 -3.11094 0
M  V30 7015 H 659.006 3.59008 -0.99721 0
M  V30 7016 H 659.119 3.84016 -2.86477 0
M  V30 7017 H 657.483 2.0979 -1.44431 0
M  V30 7018 H 658.266 1.59702 -3.03891 0
M  V30 7019 N 660.711 1.11618 1.11262 0
M  V30 7020 C 662.122 0.881942 1.64556 0
M  V30 7021 C 662.473 -0.585442 1.87262 0
M  V30 7022 O 661.598 -1.44795 1.60821 0
M  V30 7023 C 662.193 1.59446 2.98935 0
M  V30 7024 C 660.752 1.40661 3.4913 0
M  V30 7025 C 659.899 1.63593 2.23903 0
M  V30 7026 H 662.85 1.27217 0.94877 0
M  V30 7027 H 662.871 1.04054 3.65996 0
M  V30 7028 H 662.383 2.66241 2.82378 0
M  V30 7029 H 660.484 0.360835 3.70849 0
M  V30 7030 H 660.597 2.15693 4.27801 0
M  V30 7031 H 658.961 1.05944 2.3162 0
M  V30 7032 H 659.744 2.71666 2.09886 0
M  V30 7033 N 662.189 -1.289 0.906776 0
M  V30 7034 C 663.437 -1.94883 0.535266 0
M  V30 7035 C 663.758 -1.71784 -0.922791 0
M  V30 7036 O 663.028 -1.05359 -1.65156 0
M  V30 7037 H 661.608 -0.721109 0.194962 0
M  V30 7038 H 664.27 -1.57018 1.15461 0
M  V30 7039 H 663.366 -3.03591 0.723821 0
M  V30 7040 N 663.667 -0.670007 -1.42649 0
M  V30 7041 C 664.614 0.0112928 -2.30797 0
M  V30 7042 C 665.584 0.797627 -1.45695 0
M  V30 7043 O 666.769 0.770845 -1.74535 0
M  V30 7044 C 663.909 0.95998 -3.31479 0
M  V30 7045 C 663.022 0.167975 -4.31673 0
M  V30 7046 C 662.157 1.11198 -5.19431 0
M  V30 7047 C 661.196 0.311381 -6.11307 0
M  V30 7048 N 660.333 1.20784 -6.91633 0
M  V30 7049 H 665.173 -0.746231 -2.88505 0
M  V30 7050 H 662.71 -0.379739 -1.42114 0
M  V30 7051 H 664.668 1.52379 -3.88377 0
M  V30 7052 H 663.298 1.68419 -2.75382 0
M  V30 7053 H 662.35 -0.512385 -3.76933 0
M  V30 7054 H 663.662 -0.453814 -4.96731 0
M  V30 7055 H 662.816 1.74587 -5.81037 0
M  V30 7056 H 661.555 1.76766 -4.54538 0
M  V30 7057 H 660.56 -0.335758 -5.48774 0
M  V30 7058 H 661.785 -0.340135 -6.78248 0
M  V30 7059 H 659.731 1.85001 -6.29373 0
M  V30 7060 H 659.648 0.64102 -7.53277 0
M  V30 7061 H 660.916 1.82936 -7.5773 0
M  V30 7062 N 665.145 1.52092 -0.413018 0
M  V30 7063 C 666.095 2.23947 0.427993 0
M  V30 7064 C 667.079 1.25229 1.01027 0
M  V30 7065 O 668.271 1.50448 0.932444 0
M  V30 7066 C 665.4 3.0672 1.542 0
M  V30 7067 C 664.486 4.12851 0.970307 0
M  V30 7068 N 664.877 5.05644 0.125611 0
M  V30 7069 C 663.175 4.28404 1.24042 0
M  V30 7070 C 663.876 5.8138 -0.192876 0
M  V30 7071 N 662.852 5.41996 0.417273 0
M  V30 7072 H 666.654 2.93048 -0.223628 0
M  V30 7073 H 664.168 1.60852 -0.223664 0
M  V30 7074 H 666.165 3.56754 2.15714 0
M  V30 7075 H 664.825 2.39159 2.19621 0
M  V30 7076 H 665.836 5.17348 -0.238995 0
M  V30 7077 H 662.513 3.72071 1.89391 0
M  V30 7078 H 663.903 6.66129 -0.878762 0
M  V30 7079 N 666.623 0.143563 1.56945 0
M  V30 7080 C 667.553 -0.7936 2.196 0
M  V30 7081 C 668.534 -1.25955 1.14321 0
M  V30 7082 O 669.719 -1.31773 1.42651 0
M  V30 7083 C 666.849 -2.03424 2.81489 0
M  V30 7084 C 665.803 -1.70519 3.92565 0
M  V30 7085 C 665.129 -3.01817 4.41373 0
M  V30 7086 C 666.429 -0.95449 5.13504 0
M  V30 7087 H 668.123 -0.271423 2.98167 0
M  V30 7088 H 665.669 -0.12911 1.4342 0
M  V30 7089 H 667.622 -2.69463 3.23987 0
M  V30 7090 H 666.346 -2.58008 2.00248 0
M  V30 7091 H 665.005 -1.06859 3.5068 0
M  V30 7092 H 664.653 -3.54386 3.56959 0
M  V30 7093 H 664.353 -2.80565 5.16292 0
M  V30 7094 H 665.877 -3.68934 4.86539 0
M  V30 7095 H 667.291 -1.5169 5.52868 0
M  V30 7096 H 665.688 -0.842035 5.94163 0
M  V30 7097 H 666.758 0.0544033 4.84869 0
M  V30 7098 N 668.101 -1.57061 -0.130224 0
M  V30 7099 C 669.347 -1.8453 -0.841216 0
M  V30 7100 C 669.68 -0.727666 -1.80052 0
M  V30 7101 O 668.955 0.267419 -1.92653 0
M  V30 7102 C 669.238 -3.22553 -1.60099 0
M  V30 7103 C 669.091 -4.44901 -0.662048 0
M  V30 7104 C 670.41 -3.58003 -2.55973 0
M  V30 7105 H 667.529 -0.671215 -0.304366 0
M  V30 7106 H 670.171 -1.89705 -0.105821 0
M  V30 7107 H 668.321 -3.18272 -2.22789 0
M  V30 7108 H 669.993 -4.61278 -0.0448559 0
M  V30 7109 H 668.236 -4.33791 0.0272253 0
M  V30 7110 H 668.907 -5.3812 -1.23006 0
M  V30 7111 H 671.383 -3.63002 -2.03393 0
M  V30 7112 H 670.259 -4.55576 -3.06172 0
M  V30 7113 H 670.52 -2.84833 -3.38116 0
M  V30 7114 N 669.579 0.400081 -1.52437 0
M  V30 7115 C 670.807 1.16768 -1.70801 0
M  V30 7116 C 671.222 1.84036 -0.421462 0
M  V30 7117 O 670.579 1.72242 0.603228 0
M  V30 7118 C 670.63 2.22403 -2.8499 0
M  V30 7119 O 670.351 1.57879 -4.08663 0
M  V30 7120 C 671.852 3.11974 -3.1494 0
M  V30 7121 H 669.072 0.350533 -0.57216 0
M  V30 7122 H 671.616 0.469534 -1.99037 0
M  V30 7123 H 669.771 2.87871 -2.59247 0
M  V30 7124 H 670.185 2.27982 -4.7236 0
M  V30 7125 H 671.659 3.82148 -3.9833 0
M  V30 7126 H 672.136 3.74858 -2.28863 0
M  V30 7127 H 672.742 2.52165 -3.42481 0
M  V30 7128 N 671.057 1.43213 0.657864 0
M  V30 7129 C 671.967 1.50448 1.80007 0
M  V30 7130 C 672.983 0.39191 1.69529 0
M  V30 7131 O 674.159 0.645349 1.90781 0
M  V30 7132 C 671.224 1.42062 3.16258 0
M  V30 7133 C 670.285 2.63951 3.38568 0
M  V30 7134 C 669.518 2.55956 4.68318 0
M  V30 7135 O 669.741 1.60473 5.47361 0
M  V30 7136 O 668.675 3.46378 4.92245 0
M  V30 7137 H 672.501 2.4689 1.76858 0
M  V30 7138 H 670.086 1.25163 0.81576 0
M  V30 7139 H 671.968 1.3981 3.97531 0
M  V30 7140 H 670.643 0.487524 3.20008 0
M  V30 7141 H 669.55 2.71776 2.57077 0
M  V30 7142 H 670.883 3.56217 3.39662 0
M  V30 7143 N 672.536 -0.895792 1.29666 0
M  V30 7144 C 673.782 -1.64908 1.18039 0
M  V30 7145 C 674.115 -1.9236 -0.266682 0
M  V30 7146 O 673.39 -1.53682 -1.19214 0
M  V30 7147 C 673.673 -2.99574 1.99819 0
M  V30 7148 C 673.526 -2.79163 3.52687 0
M  V30 7149 C 674.845 -4.00358 1.82761 0
M  V30 7150 H 671.964 -0.598437 0.430165 0
M  V30 7151 H 674.606 -1.03736 1.59182 0
M  V30 7152 H 672.756 -3.51786 1.64859 0
M  V30 7153 H 674.428 -2.33821 3.9765 0
M  V30 7154 H 672.671 -2.13871 3.77414 0
M  V30 7155 H 673.342 -3.74871 4.05186 0
M  V30 7156 H 675.818 -3.57268 2.13304 0
M  V30 7157 H 674.694 -4.92514 2.42325 0
M  V30 7158 H 674.955 -4.35096 0.783839 0
M  V30 7159 O 674.053 -1.24272 -1.03144 0
M  V30 7160 H 674.744 -1.0191 -1.64724 0
M  V30 END ATOM
M  V30 BEGIN BOND
M  V30 END BOND
M  V30 END CTAB
M  END
$$$$
