drugbank_target|Q16775 Hydroxyacylglutathione hydrolase, mitochondrial (DB00143; DB03889)
 OpenBabel12092120003D

  0  0  0     0  0            999 V3000
M  V30 BEGIN CTAB
M  V30 COUNTS 4761 4811 0 0 0
M  V30 BEGIN ATOM
M  V30 1 H -0.908 1.98254 -0.117106 0
M  V30 2 N 0 1.576 0 0
M  V30 3 C 0.933 2.03868 1.02534 0
M  V30 4 C 1.911 0.928543 1.3348 0
M  V30 5 O 3.095 1.19667 1.45644 0
M  V30 6 C 0.222 2.43627 2.35294 0
M  V30 7 C -0.732 3.65373 2.2001 0
M  V30 8 S 0.101 5.13292 1.52614 0
M  V30 9 C 1.257 5.56322 2.86805 0
M  V30 10 H 1.49 2.90518 0.631377 0
M  V30 11 H -0.977 1.52953 0.210867 0
M  V30 12 H 0.981 2.67203 3.11629 0
M  V30 13 H -0.358 1.57376 2.7183 0
M  V30 14 H -1.165 3.90944 3.18086 0
M  V30 15 H -1.563 3.418 1.51819 0
M  V30 16 H 0.729 5.58782 3.83104 0
M  V30 17 H 1.672 6.56266 2.65933 0
M  V30 18 H 2.08 4.83886 2.90714 0
M  V30 19 N 1.4781 -0.272755 1.55222 0
M  V30 20 C 2.7241 -1.00581 1.761 0
M  V30 21 C 3.0571 -1.85932 0.560625 0
M  V30 22 O 2.3321 -1.89416 -0.441801 0
M  V30 23 C 2.6151 -1.88816 3.06628 0
M  V30 24 C 2.4681 -1.06457 4.37021 0
M  V30 25 C 3.7871 -2.8752 3.33197 0
M  V30 26 H 0.9061 -0.364244 0.640699 0
M  V30 27 H 3.5481 -0.278189 1.87952 0
M  V30 28 H 1.6981 -2.50856 2.96654 0
M  V30 29 H 3.3701 -0.464863 4.58952 0
M  V30 30 H 1.6131 -0.368043 4.32236 0
M  V30 31 H 2.2841 -1.71514 5.24678 0
M  V30 32 H 4.7601 -2.35615 3.42965 0
M  V30 33 H 3.6361 -3.46399 4.25792 0
M  V30 34 H 3.8971 -3.62657 2.52849 0
M  V30 35 N 2.9562 -1.48159 -0.537278 0
M  V30 36 C 4.2022 -1.56035 -1.29541 0
M  V30 37 C 4.5352 -0.230377 -1.92829 0
M  V30 38 O 3.8102 0.762952 -1.78911 0
M  V30 39 C 4.0932 -2.69323 -2.39034 0
M  V30 40 C 3.9462 -4.12002 -1.80485 0
M  V30 41 C 5.2652 -2.78408 -3.40847 0
M  V30 42 H 2.3842 -0.567992 -0.469632 0
M  V30 43 H 5.0262 -1.80302 -0.599277 0
M  V30 44 H 3.1762 -2.48763 -2.98412 0
M  V30 45 H 4.8482 -4.43981 -1.25215 0
M  V30 46 H 3.0912 -4.19344 -1.11055 0
M  V30 47 H 3.7622 -4.87077 -2.59731 0
M  V30 48 H 6.2382 -2.97012 -2.91416 0
M  V30 49 H 5.1142 -3.59416 -4.14863 0
M  V30 50 H 5.3752 -1.86269 -4.00944 0
M  V30 51 N 4.4343 0.785586 -1.36625 0
M  V30 52 C 5.6823 1.54057 -1.30808 0
M  V30 53 C 6.0033 1.94683 0.111157 0
M  V30 54 O 5.2733 1.65241 1.05224 0
M  V30 55 H 3.8533 0.571354 -0.481211 0
M  V30 56 H 6.5153 0.935821 -1.70963 0
M  V30 57 H 5.6113 2.44637 -1.93801 0
M  V30 58 N 5.9124 1.20967 1.01018 0
M  V30 59 C 7.3284 0.965905 1.27053 0
M  V30 60 C 7.5284 -0.350785 1.98423 0
M  V30 61 O 6.5844 -1.07773 2.28344 0
M  V30 62 C 7.8974 2.15294 2.09926 0
M  V30 63 C 9.4454 2.19463 2.23171 0
M  V30 64 C 9.9204 3.3767 3.09424 0
M  V30 65 N 11.4114 3.37724 3.17012 0
M  V30 66 C 12.1464 4.25837 3.83993 0
M  V30 67 N 11.6424 5.24138 4.53047 0
M  V30 68 N 13.4354 4.1366 3.80581 0
M  V30 69 H 5.5864 2.0565 0.531194 0
M  V30 70 H 7.8494 0.90024 0.297106 0
M  V30 71 H 7.5554 3.10684 1.64828 0
M  V30 72 H 7.4294 2.13923 3.10672 0
M  V30 73 H 9.8164 1.24632 2.6749 0
M  V30 74 H 9.8974 2.2488 1.21912 0
M  V30 75 H 9.5414 4.32791 2.65808 0
M  V30 76 H 9.4714 3.29491 4.10784 0
M  V30 77 H 11.9624 2.6658 2.6785 0
M  V30 78 H 12.2754 5.87684 5.01844 0
M  V30 79 H 10.6204 5.28068 4.5185 0
M  V30 80 H 13.8114 3.36127 3.25785 0
M  V30 81 H 13.9844 4.82538 4.32505 0
M  V30 82 N 7.3905 -1.2043 1.01659 0
M  V30 83 C 8.6385 -1.89423 0.704522 0
M  V30 84 C 8.9595 -1.79231 -0.768197 0
M  V30 85 O 8.2295 -1.1947 -1.55254 0
M  V30 86 H 6.8095 -0.701178 0.257602 0
M  V30 87 H 9.4715 -1.4626 1.28818 0
M  V30 88 H 8.5675 -2.96052 0.987916 0
M  V30 89 N 8.8686 -0.792821 -1.36206 0
M  V30 90 C 9.7986 -0.207853 -2.32573 0
M  V30 91 C 10.7796 0.659055 -1.56813 0
M  V30 92 O 11.9646 0.592176 -1.84951 0
M  V30 93 C 9.0946 0.655449 -3.41059 0
M  V30 94 C 8.0486 -0.111842 -4.27854 0
M  V30 95 C 7.3746 0.872274 -5.27537 0
M  V30 96 C 8.6746 -1.30299 -5.05786 0
M  V30 97 H 10.3686 -1.01294 -2.81744 0
M  V30 98 H 7.9146 -0.48854 -1.3546 0
M  V30 99 H 9.8676 1.07464 -4.07467 0
M  V30 100 H 8.5916 1.49328 -2.90463 0
M  V30 101 H 7.2506 -0.512053 -3.63006 0
M  V30 102 H 6.8986 1.70523 -4.73214 0
M  V30 103 H 6.5986 0.363291 -5.86476 0
M  V30 104 H 8.1226 1.28996 -5.96818 0
M  V30 105 H 9.5366 -0.959379 -5.65216 0
M  V30 106 H 7.9336 -1.7455 -5.74154 0
M  V30 107 H 9.0036 -2.09663 -4.37229 0
M  V30 108 N 10.3467 1.47872 -0.545128 0
M  V30 109 C 11.2767 2.32661 0.197793 0
M  V30 110 C 12.2577 1.43041 0.920504 0
M  V30 111 O 13.4427 1.71912 0.90333 0
M  V30 112 C 10.5727 3.24569 1.23582 0
M  V30 113 C 9.5267 4.23333 0.630323 0
M  V30 114 C 8.8527 5.0448 1.77211 0
M  V30 115 C 10.1527 5.20704 -0.407974 0
M  V30 116 H 11.8467 2.95024 -0.510045 0
M  V30 117 H 9.3927 1.4187 -0.246731 0
M  V30 118 H 11.3457 3.8272 1.76362 0
M  V30 119 H 10.0697 2.60236 1.97344 0
M  V30 120 H 8.7287 3.6639 0.123922 0
M  V30 121 H 8.3767 4.36561 2.49847 0
M  V30 122 H 8.0767 5.71339 1.37281 0
M  V30 123 H 9.6007 5.65487 2.3034 0
M  V30 124 H 11.0147 5.7329 0.033305 0
M  V30 125 H 9.4117 5.95699 -0.725486 0
M  V30 126 H 10.4817 4.66917 -1.30828 0
M  V30 127 N 11.8248 0.280983 1.55075 0
M  V30 128 C 13.0728 -0.333455 1.9933 0
M  V30 129 C 13.3938 -1.55937 1.17085 0
M  V30 130 O 12.6638 -1.94143 0.261805 0
M  V30 131 H 11.2438 -0.126197 0.736263 0
M  V30 132 H 13.9058 0.387678 1.91005 0
M  V30 133 H 13.0018 -0.619292 3.05894 0
M  V30 134 N 13.3029 -1.57598 0.00835791 0
M  V30 135 C 14.7189 -1.55764 -0.347822 0
M  V30 136 C 14.9189 -1.01186 -1.74252 0
M  V30 137 O 13.9749 -0.649371 -2.44007 0
M  V30 138 C 15.2879 -2.99927 -0.215407 0
M  V30 139 C 16.8359 -3.11656 -0.289725 0
M  V30 140 C 17.3109 -4.57621 -0.18634 0
M  V30 141 N 18.8019 -4.62557 -0.243978 0
M  V30 142 C 19.5369 -5.73094 -0.18745 0
M  V30 143 N 19.0329 -6.92753 -0.0810331 0
M  V30 144 N 20.8259 -5.61588 -0.239925 0
M  V30 145 H 12.9769 -1.91411 0.92062 0
M  V30 146 H 15.2399 -0.879562 0.353659 0
M  V30 147 H 14.9459 -3.43729 0.744512 0
M  V30 148 H 14.8199 -3.63865 -0.994097 0
M  V30 149 H 17.2069 -2.67779 -1.24009 0
M  V30 150 H 17.2879 -2.5048 0.51898 0
M  V30 151 H 16.9319 -5.02174 0.760519 0
M  V30 152 H 16.8619 -5.16752 -1.01364 0
M  V30 153 H 19.3529 -3.76481 -0.327217 0
M  V30 154 H 19.6659 -7.72787 -0.0440241 0
M  V30 155 H 18.0109 -6.94984 -0.0465419 0
M  V30 156 H 21.2019 -4.66996 -0.321317 0
M  V30 157 H 21.3749 -6.47714 -0.192407 0
M  V30 158 N 14.781 0.264519 -1.55364 0
M  V30 159 C 16.197 0.61215 -1.47394 0
M  V30 160 C 16.397 1.89134 -0.695018 0
M  V30 161 O 15.453 2.51563 -0.217275 0
M  V30 162 C 16.766 0.731235 -2.91674 0
M  V30 163 C 18.314 0.82473 -3.01939 0
M  V30 164 C 18.789 0.975522 -4.4749 0
M  V30 165 N 20.28 1.04083 -4.51354 0
M  V30 166 C 21.015 1.17646 -5.61201 0
M  V30 167 N 20.511 1.27874 -6.80896 0
M  V30 168 N 22.304 1.20823 -5.48961 0
M  V30 169 H 14.455 -0.575456 -2.04456 0
M  V30 170 H 16.718 -0.196099 -0.927496 0
M  V30 171 H 16.424 -0.138392 -3.51428 0
M  V30 172 H 16.298 1.60883 -3.41169 0
M  V30 173 H 18.685 1.68482 -2.42276 0
M  V30 174 H 18.766 -0.0776479 -2.55682 0
M  V30 175 H 18.41 0.120058 -5.07758 0
M  V30 176 H 18.34 1.89268 -4.91412 0
M  V30 177 H 20.831 0.973846 -3.65136 0
M  V30 178 H 21.144 1.38081 -7.60364 0
M  V30 179 H 19.489 1.24863 -6.83692 0
M  V30 180 H 22.68 1.12469 -4.54388 0
M  V30 181 H 22.853 1.31049 -6.3461 0
M  V30 182 N 16.2591 1.48442 0.529413 0
M  V30 183 C 17.4841 1.60406 1.31471 0
M  V30 184 C 17.9091 0.264738 1.86228 0
M  V30 185 O 17.2671 -0.763668 1.64432 0
M  V30 186 C 17.3151 2.65419 2.44101 0
M  V30 187 O 16.4191 2.22618 3.47153 0
M  V30 188 H 15.7601 0.537863 0.389357 0
M  V30 189 H 18.2901 1.94432 0.636965 0
M  V30 190 H 18.3001 2.86709 2.90279 0
M  V30 191 H 16.9751 3.62652 2.03608 0
M  V30 192 H 15.5521 2.11543 3.0709 0
M  V30 193 N 17.7372 -0.778329 1.37039 0
M  V30 194 C 18.6672 -1.90546 1.34962 0
M  V30 195 C 19.6482 -1.68681 0.219274 0
M  V30 196 O 20.8332 -1.89634 0.418624 0
M  V30 197 C 17.9632 -3.27734 1.14925 0
M  V30 198 C 16.9172 -3.64147 2.24902 0
M  V30 199 C 16.2432 -4.99806 1.89996 0
M  V30 200 C 17.5432 -3.71579 3.67051 0
M  V30 201 H 19.2372 -1.92541 2.29277 0
M  V30 202 H 16.7832 -0.924948 1.10366 0
M  V30 203 H 18.7362 -4.06215 1.12104 0
M  V30 204 H 17.4602 -3.26154 0.170631 0
M  V30 205 H 16.1192 -2.8797 2.26868 0
M  V30 206 H 15.7672 -4.94759 0.906796 0
M  V30 207 H 15.4672 -5.25139 2.63634 0
M  V30 208 H 16.9912 -5.80694 1.88749 0
M  V30 209 H 18.4052 -4.40227 3.67251 0
M  V30 210 H 16.8022 -4.08405 4.39688 0
M  V30 211 H 17.8722 -2.72404 4.01154 0
M  V30 212 N 19.2153 -1.21501 -1.00376 0
M  V30 213 C 20.1783 -0.976927 -2.07337 0
M  V30 214 C 21.1783 0.0525322 -1.60714 0
M  V30 215 O 22.3683 -0.184869 -1.73216 0
M  V30 216 C 19.5003 -0.473423 -3.37597 0
M  V30 217 H 20.6933 -1.92587 -2.29892 0
M  V30 218 H 18.2463 -1.03217 -1.17371 0
M  V30 219 H 18.9813 0.480379 -3.20722 0
M  V30 220 H 18.7663 -1.216 -3.72768 0
M  V30 221 H 20.2563 -0.32675 -4.1632 0
M  V30 222 N 20.6934 1.19889 -1.02296 0
M  V30 223 C 21.6564 2.21116 -0.603351 0
M  V30 224 C 22.6564 1.5738 0.329884 0
M  V30 225 O 23.8464 1.73802 0.117702 0
M  V30 226 C 20.9784 3.40696 0.117992 0
M  V30 227 H 22.1714 2.59754 -1.49893 0
M  V30 228 H 19.7244 1.33463 -0.813468 0
M  V30 229 H 20.4594 3.07569 1.0282 0
M  V30 230 H 20.2444 3.88188 -0.552511 0
M  V30 231 H 21.7344 4.15692 0.398696 0
M  V30 232 N 22.1715 0.800033 1.35784 0
M  V30 233 C 23.1015 0.220184 2.3246 0
M  V30 234 C 24.0825 -0.65073 1.57161 0
M  V30 235 O 25.2675 -0.582359 1.85263 0
M  V30 236 C 22.3975 -0.637353 3.41402 0
M  V30 237 C 21.3515 0.134531 4.27789 0
M  V30 238 C 20.6775 -0.844285 5.27992 0
M  V30 239 C 21.9775 1.32979 5.05088 0
M  V30 240 H 23.6715 1.02787 2.81203 0
M  V30 241 H 21.2175 0.495717 1.35199 0
M  V30 242 H 23.1705 -1.05302 4.08031 0
M  V30 243 H 21.8945 -1.47785 2.91251 0
M  V30 244 H 20.5535 0.531296 3.6273 0
M  V30 245 H 20.2015 -1.68011 4.74111 0
M  V30 246 H 19.9015 -0.332184 5.8666 0
M  V30 247 H 21.4255 -1.2583 5.97494 0
M  V30 248 H 22.8395 0.98934 5.64699 0
M  V30 249 H 21.2365 1.77593 5.7322 0
M  V30 250 H 22.3065 2.11978 4.36111 0
M  V30 251 N 23.6496 -1.47581 0.552962 0
M  V30 252 C 24.8976 -2.02082 0.0272703 0
M  V30 253 C 25.2186 -1.4301 -1.32563 0
M  V30 254 O 24.4886 -0.603745 -1.86365 0
M  V30 255 H 23.0686 -0.746966 0.00709182 0
M  V30 256 H 25.7306 -1.81033 0.722008 0
M  V30 257 H 24.8266 -3.12034 -0.0639951 0
M  V30 258 N 25.1277 -0.289203 -1.54924 0
M  V30 259 C 26.0907 0.579144 -2.21762 0
M  V30 260 C 27.0907 1.07047 -1.1999 0
M  V30 261 O 28.2807 0.968384 -1.44803 0
M  V30 262 C 25.4127 1.80055 -2.8947 0
M  V30 263 H 26.6057 -0.00464908 -2.999 0
M  V30 264 H 24.1587 -0.0399306 -1.56249 0
M  V30 265 H 24.8937 2.42449 -2.15381 0
M  V30 266 H 24.6787 1.45602 -3.64064 0
M  V30 267 H 26.1687 2.41773 -3.40493 0
M  V30 268 N 26.6058 1.57591 -0.0167156 0
M  V30 269 C 27.5688 2.08393 0.954204 0
M  V30 270 C 28.5688 0.996531 1.26198 0
M  V30 271 O 29.7588 1.25858 1.20438 0
M  V30 272 C 26.8908 2.5394 2.27436 0
M  V30 273 H 28.0838 2.95455 0.514451 0
M  V30 274 H 25.6368 1.54582 0.231089 0
M  V30 275 H 26.3718 1.70171 2.76066 0
M  V30 276 H 26.1568 3.33371 2.06412 0
M  V30 277 H 27.6468 2.93512 2.97053 0
M  V30 278 N 28.0839 -0.256276 1.55502 0
M  V30 279 C 29.3239 -0.993081 1.78654 0
M  V30 280 C 29.6879 -1.8288 0.584724 0
M  V30 281 O 30.8889 -2.59665 0.694822 0
M  V30 282 C 29.1599 -1.83856 3.06483 0
M  V30 283 S 30.7189 -2.63573 3.5082 0
M  V30 284 H 27.5369 -0.334199 0.62756 0
M  V30 285 H 30.1389 -0.26184 1.93739 0
M  V30 286 H 28.8429 -1.21414 3.92029 0
M  V30 287 H 28.3739 -2.61271 2.94111 0
M  V30 288 H 30.3889 -3.86312 3.11412 0
M  V30 289 N 29.562 -1.4872 -0.521534 0
M  V30 290 C 30.525 -1.63379 -1.60748 0
M  V30 291 C 31.525 -0.50661 -1.52611 0
M  V30 292 O 32.715 -0.772601 -1.5613 0
M  V30 293 C 29.847 -1.61192 -3.00383 0
M  V30 294 H 31.04 -2.60217 -1.49087 0
M  V30 295 H 28.593 -1.37444 -0.744235 0
M  V30 296 H 29.328 -0.65863 -3.17541 0
M  V30 297 H 29.113 -2.43032 -3.07698 0
M  V30 298 H 30.603 -1.7466 -3.7932 0
M  V30 299 N 31.0401 0.771051 -1.3745 0
M  V30 300 C 32.4561 1.07171 -1.18265 0
M  V30 301 C 32.6561 2.01491 -0.019287 0
M  V30 302 O 31.7121 2.44244 0.640408 0
M  V30 303 C 33.0251 1.66854 -2.50161 0
M  V30 304 C 34.5731 1.79109 -2.56689 0
M  V30 305 C 35.0481 2.42205 -3.88717 0
M  V30 306 N 36.5391 2.49655 -3.90162 0
M  V30 307 C 37.2741 2.9933 -4.8907 0
M  V30 308 N 36.7701 3.49172 -5.98374 0
M  V30 309 N 38.5631 2.9821 -4.76474 0
M  V30 310 H 30.7141 0.144796 -2.11906 0
M  V30 311 H 32.9771 0.126863 -0.939473 0
M  V30 312 H 32.6831 1.05017 -3.35655 0
M  V30 313 H 32.5571 2.6614 -2.673 0
M  V30 314 H 34.9441 2.40077 -1.71601 0
M  V30 315 H 35.0251 0.785757 -2.43433 0
M  V30 316 H 34.6691 1.81875 -4.74219 0
M  V30 317 H 34.5991 3.43345 -3.99276 0
M  V30 318 H 37.0901 2.14383 -3.11205 0
M  V30 319 H 37.4031 3.8548 -6.69795 0
M  V30 320 H 35.7481 3.47275 -6.02018 0
M  V30 321 H 38.9391 2.58572 -3.90203 0
M  V30 322 H 39.1121 3.36613 -5.53711 0
M  V30 323 N 32.5182 1.22032 0.997298 0
M  V30 324 C 33.9342 0.979326 1.26021 0
M  V30 325 C 34.1342 -0.32972 1.98784 0
M  V30 326 O 33.1902 -1.05345 2.29475 0
M  V30 327 C 34.5032 2.17509 2.07631 0
M  V30 328 C 36.0512 2.21817 2.2083 0
M  V30 329 C 36.5262 3.40933 3.05825 0
M  V30 330 N 38.0172 3.41067 3.13412 0
M  V30 331 C 38.7522 4.29885 3.79455 0
M  V30 332 N 38.2482 5.28914 4.47462 0
M  V30 333 N 40.0412 4.17673 3.76173 0
M  V30 334 H 32.1922 2.06202 0.509352 0
M  V30 335 H 34.4552 0.90334 0.287541 0
M  V30 336 H 34.1612 3.12415 1.61524 0
M  V30 337 H 34.0352 2.17206 3.08385 0
M  V30 338 H 36.4222 1.27462 2.66153 0
M  V30 339 H 36.5032 2.2616 1.1952 0
M  V30 340 H 36.1472 4.35586 2.61203 0
M  V30 341 H 36.0772 3.33829 4.07266 0
M  V30 342 H 38.5682 2.69406 2.65007 0
M  V30 343 H 38.8812 5.92973 4.95583 0
M  V30 344 H 37.2262 5.32831 4.46224 0
M  V30 345 H 40.4172 3.39564 3.22202 0
M  V30 346 H 40.5902 4.87098 4.27363 0
M  V30 347 N 33.9963 -1.19345 1.0293 0
M  V30 348 C 35.2443 -1.88665 0.724574 0
M  V30 349 C 35.5653 -1.80036 -0.749144 0
M  V30 350 O 34.8353 -1.2111 -1.53978 0
M  V30 351 H 33.4153 -0.698406 0.265025 0
M  V30 352 H 36.0773 -1.44885 1.30362 0
M  V30 353 H 35.1733 -2.94987 1.01926 0
M  V30 354 N 35.4744 -0.807222 -1.35358 0
M  V30 355 C 36.4044 -0.232509 -2.3234 0
M  V30 356 C 37.3854 0.642386 -1.57504 0
M  V30 357 O 38.5704 0.572526 -1.85569 0
M  V30 358 C 35.7004 0.619238 -3.41735 0
M  V30 359 C 34.6544 -0.157215 -4.27711 0
M  V30 360 C 33.9804 0.816273 -5.28433 0
M  V30 361 C 35.2804 -1.35656 -5.04376 0
M  V30 362 H 36.9744 -1.04276 -2.80654 0
M  V30 363 H 34.5204 -0.50288 -1.34934 0
M  V30 364 H 36.4734 1.03137 -4.08584 0
M  V30 365 H 35.1974 1.46239 -2.92031 0
M  V30 366 H 33.8564 -0.550525 -3.62443 0
M  V30 367 H 33.5044 1.65494 -4.74996 0
M  V30 368 H 33.2044 0.301067 -5.86828 0
M  V30 369 H 34.7284 1.22659 -5.98153 0
M  V30 370 H 36.1424 -1.01927 -5.64166 0
M  V30 371 H 34.5394 -1.8063 -5.7227 0
M  V30 372 H 35.6094 -2.14288 -4.34981 0
M  V30 373 N 36.9525 1.47285 -0.560781 0
M  V30 374 C 38.2005 2.02064 -0.0379868 0
M  V30 375 C 38.5215 1.43711 1.31803 0
M  V30 376 O 37.7915 0.61362 1.86042 0
M  V30 377 H 36.3715 0.746918 -0.0110531 0
M  V30 378 H 39.0335 1.80648 -0.731598 0
M  V30 379 H 38.1295 3.12064 0.0474463 0
M  V30 380 N 38.4306 0.297415 1.54768 0
M  V30 381 C 39.8416 -0.195947 1.85669 0
M  V30 382 C 40.1926 -1.53707 1.21937 0
M  V30 383 O 39.3176 -2.10164 0.515754 0
M  V30 384 C 39.9126 -0.362318 3.36857 0
M  V30 385 C 38.4716 -0.799901 3.67802 0
M  V30 386 C 37.6186 0.0938578 2.77141 0
M  V30 387 H 40.5696 0.518538 1.4999 0
M  V30 388 H 40.5906 -1.19745 3.61167 0
M  V30 389 H 40.1026 0.613921 3.83214 0
M  V30 390 H 38.2036 -1.78682 3.26961 0
M  V30 391 H 38.3166 -0.621773 4.75048 0
M  V30 392 H 36.6806 -0.426254 2.51108 0
M  V30 393 H 37.4636 1.06639 3.26318 0
M  V30 394 N 39.9087 -1.5758 0.0250728 0
M  V30 395 C 40.8717 -2.08896 -0.943139 0
M  V30 396 C 41.8717 -1.00321 -1.25668 0
M  V30 397 O 43.0617 -1.26495 -1.19769 0
M  V30 398 C 40.1937 -2.55143 -2.26086 0
M  V30 399 H 41.3867 -2.95723 -0.498775 0
M  V30 400 H 38.9397 -1.54703 -0.222888 0
M  V30 401 H 39.6747 -1.71633 -2.75159 0
M  V30 402 H 39.4597 -3.34461 -2.04641 0
M  V30 403 H 40.9497 -2.95083 -2.95492 0
M  V30 404 N 41.3868 0.248026 -1.55636 0
M  V30 405 C 42.3168 1.31079 -1.93237 0
M  V30 406 C 43.2978 1.50264 -0.797174 0
M  V30 407 O 44.4828 1.62891 -1.05737 0
M  V30 408 C 41.6128 2.66575 -2.22609 0
M  V30 409 C 40.5668 2.62087 -3.3837 0
M  V30 410 C 39.8928 4.01369 -3.53281 0
M  V30 411 C 41.1928 2.19171 -4.7409 0
M  V30 412 H 42.8868 0.998556 -2.82257 0
M  V30 413 H 40.4328 0.47891 -1.35803 0
M  V30 414 H 42.3858 3.41057 -2.47503 0
M  V30 415 H 41.1098 2.99432 -1.30414 0
M  V30 416 H 39.7688 1.90063 -3.13483 0
M  V30 417 H 39.4168 4.31489 -2.58508 0
M  V30 418 H 39.1168 3.99254 -4.31127 0
M  V30 419 H 40.6408 4.77552 -3.80495 0
M  V30 420 H 42.0548 2.83384 -4.98363 0
M  V30 421 H 40.4518 2.2817 -5.5503 0
M  V30 422 H 41.5218 1.14336 -4.71227 0
M  V30 423 N 42.8649 1.48995 0.513639 0
M  V30 424 C 43.7949 1.67636 1.62544 0
M  V30 425 C 44.7759 0.525087 1.61793 0
M  V30 426 O 45.9609 0.759502 1.78732 0
M  V30 427 C 43.0909 1.73114 3.01079 0
M  V30 428 C 42.0449 2.87905 3.16693 0
M  V30 429 C 41.3709 2.78486 4.56453 0
M  V30 430 C 42.6709 4.29005 2.97913 0
M  V30 431 H 44.3649 2.60716 1.47198 0
M  V30 432 H 41.9109 1.25465 0.706714 0
M  V30 433 H 43.8639 1.84742 3.78746 0
M  V30 434 H 42.5879 0.766241 3.17484 0
M  V30 435 H 41.2469 2.75859 2.41448 0
M  V30 436 H 40.8949 1.7993 4.69717 0
M  V30 437 H 40.5949 3.55523 4.67843 0
M  V30 438 H 42.1189 2.92104 5.36197 0
M  V30 439 H 43.5329 4.41798 3.65359 0
M  V30 440 H 41.9299 5.07166 3.20785 0
M  V30 441 H 42.9999 4.44329 1.94165 0
M  V30 442 N 44.343 -0.763751 1.37857 0
M  V30 443 C 45.591 -1.51957 1.33243 0
M  V30 444 C 45.912 -1.94835 -0.0801709 0
M  V30 445 O 45.182 -1.66894 -1.02582 0
M  V30 446 H 43.762 -0.563626 0.49024 0
M  V30 447 H 46.424 -0.908504 1.7243 0
M  V30 448 H 45.52 -2.41523 1.97669 0
M  V30 449 N 45.8211 -1.22559 -0.990812 0
M  V30 450 C 47.0671 -1.05297 -1.73322 0
M  V30 451 C 47.4001 0.410655 -1.89808 0
M  V30 452 O 46.6751 1.30439 -1.44277 0
M  V30 453 C 46.9581 -1.76713 -3.13759 0
M  V30 454 C 46.8111 -3.30684 -3.04907 0
M  V30 455 C 48.1301 -1.52121 -4.12974 0
M  V30 456 H 45.2491 -0.38392 -0.629106 0
M  V30 457 H 47.8911 -1.50926 -1.15418 0
M  V30 458 H 46.0411 -1.37924 -3.63193 0
M  V30 459 H 47.7131 -3.7893 -2.63077 0
M  V30 460 H 45.9561 -3.60253 -2.41661 0
M  V30 461 H 46.6271 -3.75833 -4.04294 0
M  V30 462 H 49.1031 -1.85819 -3.72304 0
M  V30 463 H 47.9791 -2.04582 -5.0935 0
M  V30 464 H 48.2401 -0.454257 -4.3976 0
M  V30 465 N 47.2992 1.18797 -1.03562 0
M  V30 466 C 48.5462 1.8865 -0.736023 0
M  V30 467 C 48.8742 1.80041 0.735889 0
M  V30 468 O 48.1292 1.19179 1.55225 0
M  V30 469 C 48.4282 3.38692 -1.14117 0
M  V30 470 C 48.0942 3.67504 -2.6125 0
M  V30 471 C 46.7562 3.75078 -3.01447 0
M  V30 472 C 49.1082 3.80293 -3.56408 0
M  V30 473 C 46.4362 3.92915 -4.35701 0
M  V30 474 C 48.7882 3.99645 -4.90374 0
M  V30 475 C 47.4522 4.05453 -5.30249 0
M  V30 476 H 46.7222 0.690321 -0.26933 0
M  V30 477 H 49.3692 1.40641 -1.29971 0
M  V30 478 H 47.6742 3.88645 -0.496202 0
M  V30 479 H 49.3712 3.91072 -0.886789 0
M  V30 480 H 45.9612 3.62223 -2.29113 0
M  V30 481 H 50.1452 3.73779 -3.26501 0
M  V30 482 H 45.4012 3.95653 -4.66121 0
M  V30 483 H 49.5752 4.08482 -5.64017 0
M  V30 484 H 47.2022 4.19027 -6.34288 0
M  V30 485 N 48.7773 0.814389 1.34928 0
M  V30 486 C 50.0173 0.404165 2.00364 0
M  V30 487 C 50.3813 -1.01166 1.63185 0
M  V30 488 O 51.5823 -1.52431 2.21401 0
M  V30 489 C 49.8533 0.590718 3.52484 0
M  V30 490 S 51.4123 0.272075 4.37956 0
M  V30 491 H 48.2303 0.15311 0.694319 0
M  V30 492 H 50.8323 1.05834 1.64376 0
M  V30 493 H 49.5363 1.62099 3.77031 0
M  V30 494 H 49.0673 -0.0785013 3.93322 0
M  V30 495 H 51.0823 -0.917405 4.87645 0
M  V30 496 N 50.2554 -1.46986 0.568584 0
M  V30 497 C 51.2054 -2.27179 -0.193339 0
M  V30 498 C 52.1894 -1.35035 -0.874895 0
M  V30 499 O 53.3814 -1.5931 -0.771322 0
M  V30 500 C 50.5104 -3.21063 -1.21546 0
M  V30 501 C 49.5964 -4.2069 -0.536738 0
M  V30 502 N 49.9874 -5.04218 0.399673 0
M  V30 503 C 48.2854 -4.38961 -0.789254 0
M  V30 504 C 48.9864 -5.76242 0.795017 0
M  V30 505 N 47.9624 -5.434 0.1473 0
M  V30 506 H 51.7644 -2.89146 0.526458 0
M  V30 507 H 49.2784 -1.57664 0.389342 0
M  V30 508 H 51.2754 -3.77209 -1.77536 0
M  V30 509 H 49.9354 -2.60654 -1.93623 0
M  V30 510 H 50.9464 -5.12077 0.774454 0
M  V30 511 H 47.6234 -3.89713 -1.49767 0
M  V30 512 H 49.0134 -6.53417 1.56513 0
M  V30 513 N 51.7335 -0.305618 -1.54608 0
M  V30 514 C 52.9615 0.304775 -2.04643 0
M  V30 515 C 53.3765 1.47167 -1.18268 0
M  V30 516 O 52.7335 1.81296 -0.209328 0
M  V30 517 C 52.7845 0.756564 -3.53495 0
M  V30 518 O 52.5055 -0.36389 -4.36586 0
M  V30 519 C 54.0065 1.43163 -4.19546 0
M  V30 520 H 51.2265 0.0655481 -0.667791 0
M  V30 521 H 53.7705 -0.446592 -1.99564 0
M  V30 522 H 51.9255 1.45794 -3.58919 0
M  V30 523 H 52.3395 -0.0113121 -5.24499 0
M  V30 524 H 53.8135 1.69886 -5.25207 0
M  V30 525 H 54.2905 2.37318 -3.69563 0
M  V30 526 H 54.8965 0.773307 -4.18211 0
M  V30 527 N 53.2116 1.57565 -0.0334293 0
M  V30 528 C 54.4886 1.83282 0.683163 0
M  V30 529 C 54.8686 0.91823 1.90084 0
M  V30 530 O 54.2166 -0.025113 2.28486 0
M  V30 531 C 54.4266 3.32599 1.0573 0
M  V30 532 C 55.7746 3.99179 1.44711 0
M  V30 533 O 56.7986 3.3712 1.15015 0
M  V30 534 O 55.6576 5.08565 2.0006 0
M  V30 535 H 52.7516 0.755869 0.335546 0
M  V30 536 H 55.2976 1.69589 -0.0614402 0
M  V30 537 H 54.0696 3.90834 0.190828 0
M  V30 538 H 53.6926 3.51415 1.85993 0
M  V30 539 N 54.6897 -0.239769 1.55765 0
M  V30 540 C 55.6197 -1.30052 1.9393 0
M  V30 541 C 56.6007 -1.49839 0.805132 0
M  V30 542 O 57.7857 -1.62328 1.06599 0
M  V30 543 C 54.9157 -2.65391 2.2402 0
M  V30 544 C 53.8697 -2.60289 3.39755 0
M  V30 545 C 53.1957 -3.99489 3.55405 0
M  V30 546 C 54.4957 -2.16654 4.75246 0
M  V30 547 H 56.1897 -0.983573 2.82783 0
M  V30 548 H 53.7357 -0.471701 1.36055 0
M  V30 549 H 55.6887 -3.3974 2.49308 0
M  V30 550 H 54.4127 -2.98736 1.32 0
M  V30 551 H 53.0717 -1.88398 3.14487 0
M  V30 552 H 52.7197 -4.30112 2.60793 0
M  V30 553 H 52.4197 -3.96962 4.33238 0
M  V30 554 H 53.9437 -4.75528 3.83022 0
M  V30 555 H 55.3577 -2.80737 4.99859 0
M  V30 556 H 53.7547 -2.25223 5.56232 0
M  V30 557 H 54.8247 -1.11835 4.71827 0
M  V30 558 N 56.1678 -1.49265 -0.50573 0
M  V30 559 C 57.5838 -1.35923 -0.836486 0
M  V30 560 C 57.7838 -0.388704 -1.97715 0
M  V30 561 O 56.8398 0.181336 -2.51848 0
M  V30 562 C 58.1528 -2.76531 -1.18115 0
M  V30 563 C 59.7008 -2.85197 -1.28964 0
M  V30 564 C 60.1758 -4.26561 -1.66761 0
M  V30 565 N 61.6668 -4.2935 -1.73819 0
M  V30 566 C 62.4018 -5.35693 -2.045 0
M  V30 567 N 61.8978 -6.52287 -2.33438 0
M  V30 568 N 63.6908 -5.23105 -2.05711 0
M  V30 569 H 55.8418 -2.10965 0.246519 0
M  V30 570 H 58.1048 -0.9468 0.0476887 0
M  V30 571 H 57.8108 -3.49226 -0.416398 0
M  V30 572 H 57.6848 -3.11599 -2.1257 0
M  V30 573 H 60.0718 -2.12742 -2.04511 0
M  V30 574 H 60.1528 -2.53718 -0.325704 0
M  V30 575 H 59.7968 -4.99541 -0.917656 0
M  V30 576 H 59.7268 -4.55502 -2.64246 0
M  V30 577 H 62.2178 -3.4526 -1.53635 0
M  V30 578 H 62.5308 -7.29158 -2.56024 0
M  V30 579 H 60.8758 -6.55521 -2.30905 0
M  V30 580 H 64.0668 -4.31026 -1.82577 0
M  V30 581 H 64.2398 -6.06078 -2.29289 0
M  V30 582 N 57.6459 0.756429 -1.3826 0
M  V30 583 C 58.5929 1.87011 -1.35261 0
M  V30 584 C 59.5629 1.64695 -0.215616 0
M  V30 585 O 60.7479 1.864 -0.407399 0
M  V30 586 C 57.8879 3.24275 -1.18068 0
M  V30 587 C 57.0009 3.58442 -2.41129 0
M  V30 588 C 56.1359 4.84994 -2.16689 0
M  V30 589 C 55.1749 5.11939 -3.35537 0
M  V30 590 N 54.3119 6.29685 -3.10549 0
M  V30 591 H 59.1519 1.8891 -2.30472 0
M  V30 592 H 56.6889 0.923373 -1.14509 0
M  V30 593 H 58.6469 4.03479 -1.06116 0
M  V30 594 H 57.2769 3.21711 -0.264973 0
M  V30 595 H 56.3289 2.74103 -2.63764 0
M  V30 596 H 57.6409 3.74283 -3.29717 0
M  V30 597 H 56.7949 5.72135 -2.01857 0
M  V30 598 H 55.5339 4.71286 -1.25462 0
M  V30 599 H 54.5389 4.23268 -3.50891 0
M  V30 600 H 55.7639 5.27546 -4.27635 0
M  V30 601 H 53.7099 6.17306 -2.21967 0
M  V30 602 H 53.6269 6.46014 -3.92686 0
M  V30 603 H 54.8949 7.19722 -2.99367 0
M  V30 604 N 59.124 1.23083 0.984299 0
M  V30 605 C 60.072 1.00593 2.09723 0
M  V30 606 C 61.066 -0.0538014 1.69315 0
M  V30 607 O 62.272 0.0993719 1.79725 0
M  V30 608 H 58.647 0.30817 0.685956 0
M  V30 609 H 60.618 1.95012 2.2586 0
M  V30 610 C 59.367 0.609601 3.42314 0
M  V30 611 H 58.69 1.41675 3.73856 0
M  V30 612 H 60.13 0.491726 4.21139 0
M  V30 613 C 58.589 -0.681745 3.2993 0
M  V30 614 O 59.119 -1.73192 3.62446 0
M  V30 615 N 57.325 -0.656178 2.83095 0
M  V30 616 H 56.872 0.198759 2.56832 0
M  V30 617 H 56.83 -1.52044 2.75191 0
M  V30 618 N 60.6021 -1.18246 1.0419 0
M  V30 619 C 61.5321 -2.24127 0.654914 0
M  V30 620 C 62.5131 -1.66617 -0.342451 0
M  V30 621 O 63.6981 -1.92924 -0.222277 0
M  V30 622 C 60.8281 -3.47295 0.0183757 0
M  V30 623 C 59.7821 -4.17563 0.939414 0
M  V30 624 C 59.1081 -5.34438 0.167286 0
M  V30 625 C 60.4081 -4.70917 2.25908 0
M  V30 626 H 62.1021 -2.56753 1.54007 0
M  V30 627 H 59.6481 -1.23414 0.74195 0
M  V30 628 H 61.6011 -4.20572 -0.264082 0
M  V30 629 H 60.3251 -3.13907 -0.901664 0
M  V30 630 H 58.9841 -3.46186 1.20628 0
M  V30 631 H 58.6321 -4.97298 -0.7552 0
M  V30 632 H 58.3321 -5.82388 0.780901 0
M  V30 633 H 59.8561 -6.10504 -0.108125 0
M  V30 634 H 61.2701 -5.35882 2.03724 0
M  V30 635 H 59.6671 -5.29406 2.82577 0
M  V30 636 H 60.7371 -3.88272 2.9047 0
M  V30 637 N 62.0802 -0.821533 -1.34494 0
M  V30 638 C 63.3082 -0.421884 -2.02553 0
M  V30 639 C 63.7232 0.971745 -1.61872 0
M  V30 640 O 63.0802 1.62864 -0.823496 0
M  V30 641 C 63.1312 -0.51285 -3.57844 0
M  V30 642 O 62.8522 -1.85155 -3.97051 0
M  V30 643 C 64.3532 -0.107921 -4.43169 0
M  V30 644 H 61.5732 -0.169482 -0.649243 0
M  V30 645 H 64.1172 -1.1093 -1.71798 0
M  V30 646 H 62.2722 0.126474 -3.87193 0
M  V30 647 H 62.6862 -1.82482 -4.91732 0
M  V30 648 H 64.1602 -0.222657 -5.51551 0
M  V30 649 H 64.6372 0.948401 -4.28838 0
M  V30 650 H 65.2432 -0.720989 -4.19144 0
M  V30 651 N 63.5583 1.46682 -0.576371 0
M  V30 652 C 64.8043 2.02712 -0.0596221 0
M  V30 653 C 65.1373 1.44765 1.29448 0
M  V30 654 O 64.4123 0.610355 1.84675 0
M  V30 655 C 64.6953 3.60098 0.0129503 0
M  V30 656 C 64.5483 4.28441 -1.3696 0
M  V30 657 C 65.8673 4.34224 0.71678 0
M  V30 658 H 62.9863 0.736637 -0.0231407 0
M  V30 659 H 65.6283 1.74898 -0.742351 0
M  V30 660 H 63.7783 3.83926 0.594378 0
M  V30 661 H 65.4503 4.15896 -1.9957 0
M  V30 662 H 63.6933 3.8805 -1.93907 0
M  V30 663 H 64.3643 5.3716 -1.27135 0
M  V30 664 H 66.8403 4.15503 0.222908 0
M  V30 665 H 65.7163 5.43936 0.73657 0
M  V30 666 H 65.9773 4.04823 1.77682 0
M  V30 667 N 65.0364 0.313813 1.54444 0
M  V30 668 C 66.3134 -0.345447 1.92525 0
M  V30 669 C 66.6934 -1.70667 1.24242 0
M  V30 670 O 66.0414 -2.25273 0.382654 0
M  V30 671 C 66.2514 -0.44737 3.46121 0
M  V30 672 C 67.5994 -0.712238 4.18584 0
M  V30 673 O 68.6234 -0.530678 3.52225 0
M  V30 674 O 67.4824 -1.06183 5.36085 0
M  V30 675 H 64.5764 -0.195407 0.803583 0
M  V30 676 H 67.1224 0.362813 1.65776 0
M  V30 677 H 65.8944 0.509043 3.87975 0
M  V30 678 H 65.5174 -1.20359 3.78945 0
M  V30 679 N 66.5145 -1.57545 0.0417849 0
M  V30 680 C 67.4245 -2.14451 -0.951213 0
M  V30 681 C 68.4405 -1.09992 -1.34825 0
M  V30 682 O 69.6165 -1.42114 -1.42708 0
M  V30 683 C 66.6815 -2.67063 -2.21084 0
M  V30 684 C 65.7425 -3.86284 -1.87304 0
M  V30 685 C 64.9755 -4.36378 -3.07261 0
M  V30 686 O 65.1985 -3.85587 -4.20332 0
M  V30 687 O 64.1325 -5.28077 -2.88822 0
M  V30 688 H 67.9585 -2.99601 -0.497287 0
M  V30 689 H 65.5435 -1.48317 -0.179567 0
M  V30 690 H 67.4255 -3.00914 -2.95006 0
M  V30 691 H 66.1005 -1.84989 -2.65633 0
M  V30 692 H 65.0075 -3.57338 -1.10727 0
M  V30 693 H 66.3405 -4.6956 -1.47562 0
M  V30 694 N 67.9926 0.231505 -1.5589 0
M  V30 695 C 69.2406 0.955461 -1.78088 0
M  V30 696 C 69.5616 1.85262 -0.608533 0
M  V30 697 O 68.8316 1.92277 0.375035 0
M  V30 698 H 67.4116 0.355787 -0.656829 0
M  V30 699 H 70.0736 0.245751 -1.93344 0
M  V30 700 H 69.1696 1.56814 -2.69844 0
M  V30 701 N 69.4707 1.49531 0.497807 0
M  V30 702 C 70.6987 1.62893 1.27567 0
M  V30 703 C 71.1137 0.301585 1.86376 0
M  V30 704 O 70.4707 -0.713335 1.67982 0
M  V30 705 C 70.5217 2.70013 2.40364 0
M  V30 706 O 70.2427 3.976 1.83972 0
M  V30 707 C 71.7437 2.94109 3.31685 0
M  V30 708 H 68.9637 0.548298 0.386794 0
M  V30 709 H 71.5077 1.95584 0.597245 0
M  V30 710 H 69.6627 2.40092 3.04031 0
M  V30 711 H 70.0767 4.56631 2.58047 0
M  V30 712 H 71.5507 3.72788 4.07104 0
M  V30 713 H 72.0277 2.04147 3.88871 0
M  V30 714 H 72.6337 3.2546 2.73781 0
M  V30 715 N 70.9488 -0.749086 1.3866 0
M  V30 716 C 71.8818 -1.87111 1.30631 0
M  V30 717 C 72.8598 -1.61572 0.18251 0
M  V30 718 O 74.0438 -1.85019 0.360592 0
M  V30 719 C 71.1708 -3.22815 1.02511 0
M  V30 720 C 70.2168 -3.67234 2.1689 0
M  V30 721 S 71.0498 -3.78245 3.79066 0
M  V30 722 C 72.2058 -5.16761 3.53142 0
M  V30 723 H 72.4388 -1.93636 2.25594 0
M  V30 724 H 69.9718 -0.912525 1.24549 0
M  V30 725 H 71.9298 -4.01181 0.869701 0
M  V30 726 H 70.5908 -3.13964 0.0925884 0
M  V30 727 H 69.7838 -4.65677 1.92771 0
M  V30 728 H 69.3858 -2.96034 2.28561 0
M  V30 729 H 71.6778 -6.02656 3.09534 0
M  V30 730 H 72.6208 -5.45902 4.50995 0
M  V30 731 H 73.0288 -4.85771 2.87554 0
M  V30 732 N 72.4269 -1.23603 -0.977757 0
M  V30 733 C 73.3739 -1.01954 -2.07061 0
M  V30 734 C 74.3439 0.0638697 -1.65977 0
M  V30 735 O 75.5289 -0.0887624 -1.90593 0
M  V30 736 C 72.6689 -0.619658 -3.39491 0
M  V30 737 C 71.7819 -1.77547 -3.93829 0
M  V30 738 C 70.9169 -1.32212 -5.14484 0
M  V30 739 C 69.9559 -2.44852 -5.60994 0
M  V30 740 N 69.0929 -2.00456 -6.72876 0
M  V30 741 H 73.9329 -1.95495 -2.24913 0
M  V30 742 H 71.4699 -0.973861 -1.10247 0
M  V30 743 H 73.4279 -0.368898 -4.15566 0
M  V30 744 H 72.0579 0.278752 -3.21594 0
M  V30 745 H 71.1099 -2.14016 -3.14486 0
M  V30 746 H 72.4219 -2.62219 -4.24314 0
M  V30 747 H 71.5759 -1.02965 -5.97899 0
M  V30 748 H 70.3149 -0.445808 -4.85658 0
M  V30 749 H 69.3199 -2.74871 -4.76157 0
M  V30 750 H 70.5449 -3.33024 -5.91837 0
M  V30 751 H 68.4909 -1.15208 -6.45804 0
M  V30 752 H 68.4079 -2.78687 -7.02759 0
M  V30 753 H 69.6759 -1.7432 -7.59758 0
M  V30 754 N 73.905 1.17692 -1.04816 0
M  V30 755 C 75.151 1.88137 -0.75711 0
M  V30 756 C 75.484 1.80604 0.713841 0
M  V30 757 O 74.759 1.21146 1.52164 0
M  V30 758 C 75.042 3.38318 -1.2334 0
M  V30 759 C 74.895 3.54622 -2.76701 0
M  V30 760 C 76.214 4.32214 -0.829415 0
M  V30 761 H 73.333 0.683163 -0.27651 0
M  V30 762 H 75.975 1.38424 -1.30149 0
M  V30 763 H 74.125 3.80787 -0.770286 0
M  V30 764 H 75.797 3.21194 -3.31107 0
M  V30 765 H 74.04 2.97026 -3.16161 0
M  V30 766 H 74.711 4.60028 -3.05088 0
M  V30 767 H 77.187 3.97565 -1.22805 0
M  V30 768 H 76.063 5.35838 -1.19033 0
M  V30 769 H 76.324 4.41294 0.266891 0
M  V30 770 N 75.3831 0.828654 1.34056 0
M  V30 771 C 76.2931 0.256725 2.33191 0
M  V30 772 C 77.3091 -0.611898 1.62886 0
M  V30 773 O 78.4851 -0.51844 1.94613 0
M  V30 774 C 75.5501 -0.567238 3.42028 0
M  V30 775 C 74.6111 0.324458 4.28072 0
M  V30 776 C 73.8441 -0.460274 5.31712 0
M  V30 777 O 74.0671 -1.693 5.44696 0
M  V30 778 O 73.0011 0.160391 6.01686 0
M  V30 779 H 76.8271 1.07739 2.83947 0
M  V30 780 H 74.4121 0.59093 1.37217 0
M  V30 781 H 76.2941 -1.03582 4.08471 0
M  V30 782 H 74.9691 -1.36513 2.93506 0
M  V30 783 H 73.8761 0.840659 3.64532 0
M  V30 784 H 75.2091 1.08685 4.8005 0
M  V30 785 N 76.8612 -1.46375 0.584142 0
M  V30 786 C 78.1072 -2.02678 0.0703716 0
M  V30 787 C 78.4402 -1.4545 -1.28678 0
M  V30 788 O 77.7152 -0.62014 -1.84349 0
M  V30 789 C 77.9982 -3.60099 0.00614674 0
M  V30 790 C 77.8512 -4.27709 1.3923 0
M  V30 791 C 79.1702 -4.34598 -0.693742 0
M  V30 792 H 76.2892 -0.736504 0.027047 0
M  V30 793 H 78.9312 -1.74501 0.751615 0
M  V30 794 H 77.0812 -3.84236 -0.574009 0
M  V30 795 H 78.7532 -4.14832 2.01773 0
M  V30 796 H 76.9962 -3.87016 1.95962 0
M  V30 797 H 77.6672 -5.36478 1.29982 0
M  V30 798 H 80.1432 -4.15615 -0.200869 0
M  V30 799 H 79.0192 -5.44318 -0.707714 0
M  V30 800 H 79.2802 -4.05759 -1.75533 0
M  V30 801 N 78.3393 -0.321999 -1.54275 0
M  V30 802 C 79.2693 0.537411 -2.27231 0
M  V30 803 C 80.2503 1.12064 -1.27968 0
M  V30 804 O 81.4353 1.14606 -1.56777 0
M  V30 805 C 78.5653 1.69919 -3.02894 0
M  V30 806 C 77.5193 1.24534 -4.09482 0
M  V30 807 C 76.8453 2.49394 -4.72977 0
M  V30 808 C 78.1453 0.361335 -5.21049 0
M  V30 809 H 79.8393 -0.0711406 -2.99315 0
M  V30 810 H 77.3853 -0.0356555 -1.43956 0
M  V30 811 H 79.3383 2.30668 -3.52662 0
M  V30 812 H 78.0623 2.33431 -2.28424 0
M  V30 813 H 76.7213 0.660782 -3.60596 0
M  V30 814 H 76.3693 3.11265 -3.95124 0
M  V30 815 H 76.0693 2.19718 -5.44975 0
M  V30 816 H 77.5933 3.10908 -5.25517 0
M  V30 817 H 79.0073 0.875072 -5.66582 0
M  V30 818 H 77.4043 0.157428 -5.99893 0
M  V30 819 H 78.4743 -0.60822 -4.8107 0
M  V30 820 N 79.8174 1.5752 -0.0501392 0
M  V30 821 C 81.2284 1.80271 0.485705 0
M  V30 822 C 81.5794 0.96228 1.70981 0
M  V30 823 O 80.7044 0.178578 2.15662 0
M  V30 824 C 81.2994 3.26957 0.887938 0
M  V30 825 C 79.8584 3.5063 1.36877 0
M  V30 826 C 79.0054 2.75165 0.343468 0
M  V30 827 H 81.9564 1.56281 -0.276028 0
M  V30 828 H 81.9774 3.37821 1.75093 0
M  V30 829 H 81.4894 3.881 -0.0031809 0
M  V30 830 H 79.5904 2.94766 2.27911 0
M  V30 831 H 79.7034 4.59343 1.36164 0
M  V30 832 H 78.0674 2.4127 0.816128 0
M  V30 833 H 78.8504 3.39034 -0.539548 0
M  V30 834 N 81.2955 -0.223234 1.56011 0
M  V30 835 C 82.2585 -1.26014 1.9145 0
M  V30 836 C 83.2585 -1.3989 0.792937 0
M  V30 837 O 84.4485 -1.38184 1.0607 0
M  V30 838 C 81.5805 -2.63422 2.16383 0
M  V30 839 H 82.7735 -0.95796 2.84189 0
M  V30 840 H 80.3265 -0.463576 1.49267 0
M  V30 841 H 81.0615 -2.98741 1.2619 0
M  V30 842 H 80.8465 -2.54728 2.98088 0
M  V30 843 H 82.3365 -3.38249 2.44903 0
M  V30 844 N 82.7736 -1.49793 -0.48987 0
M  V30 845 C 83.7036 -1.70201 -1.59856 0
M  V30 846 C 84.6846 -0.55076 -1.60937 0
M  V30 847 O 85.8696 -0.787841 -1.77501 0
M  V30 848 C 82.9996 -1.77882 -2.98287 0
M  V30 849 C 81.9536 -2.92907 -3.12073 0
M  V30 850 C 81.2796 -2.85712 -4.51965 0
M  V30 851 C 82.5796 -4.3369 -2.91051 0
M  V30 852 H 84.2736 -2.63025 -1.43032 0
M  V30 853 H 81.8196 -1.26574 -0.686664 0
M  V30 854 H 83.7726 -1.90744 -3.75759 0
M  V30 855 H 82.4966 -0.816653 -3.16225 0
M  V30 856 H 81.1556 -2.79665 -2.37029 0
M  V30 857 H 80.8036 -1.8738 -4.66795 0
M  V30 858 H 80.5036 -3.62921 -4.62128 0
M  V30 859 H 82.0276 -3.00598 -5.31482 0
M  V30 860 H 83.4416 -4.47555 -3.58284 0
M  V30 861 H 81.8386 -5.12205 -3.12675 0
M  V30 862 H 82.9086 -4.47362 -1.87071 0
M  V30 863 N 84.2517 0.741722 -1.39055 0
M  V30 864 C 85.4797 1.53098 -1.39171 0
M  V30 865 C 85.8947 1.88794 0.0155099 0
M  V30 866 O 85.2517 1.53626 0.985159 0
M  V30 867 C 85.3027 2.82274 -2.2584 0
M  V30 868 O 85.0237 2.48097 -3.61081 0
M  V30 869 C 86.5247 3.76343 -2.34266 0
M  V30 870 H 83.7447 0.473335 -0.4756 0
M  V30 871 H 86.2887 0.917045 -1.82785 0
M  V30 872 H 84.4437 3.40015 -1.85656 0
M  V30 873 H 84.8577 3.31029 -4.06842 0
M  V30 874 H 86.3317 4.63898 -2.9917 0
M  V30 875 H 86.8087 4.17619 -1.35982 0
M  V30 876 H 87.4147 3.24523 -2.74891 0
M  V30 877 N 85.7298 1.2412 0.971189 0
M  V30 878 C 87.0068 0.986867 1.6888 0
M  V30 879 C 87.3868 -0.491857 2.0529 0
M  V30 880 O 86.7348 -1.46531 1.75331 0
M  V30 881 C 86.9448 1.9063 2.92338 0
M  V30 882 C 88.2928 2.17515 3.64654 0
M  V30 883 O 89.3168 1.88254 3.02388 0
M  V30 884 O 88.1758 2.6719 4.7673 0
M  V30 885 H 85.2698 0.372944 0.738134 0
M  V30 886 H 87.8158 1.35203 1.02559 0
M  V30 887 H 86.5878 2.90552 2.62097 0
M  V30 888 H 86.2108 1.54408 3.66393 0
M  V30 889 N 87.2079 -1.17134 1.05439 0
M  V30 890 C 88.1559 -2.23289 0.651511 0
M  V30 891 C 89.1499 -1.66186 -0.328411 0
M  V30 892 O 90.3559 -1.78949 -0.194206 0
M  V30 893 H 86.7309 -0.726938 0.192523 0
M  V30 894 H 88.7019 -2.54565 1.55689 0
M  V30 895 C 87.4509 -3.47671 0.0448436 0
M  V30 896 H 86.7739 -3.91918 0.78996 0
M  V30 897 H 88.2139 -4.2353 -0.19964 0
M  V30 898 C 86.6729 -3.14453 -1.20918 0
M  V30 899 O 87.2029 -3.29459 -2.29825 0
M  V30 900 N 85.4089 -2.68657 -1.10779 0
M  V30 901 H 84.9559 -2.56646 -0.221526 0
M  V30 902 H 84.9139 -2.46804 -1.9477 0
M  V30 903 N 88.686 -0.835752 -1.33615 0
M  V30 904 C 89.916 -0.442701 -2.01801 0
M  V30 905 C 90.324 0.959807 -1.63047 0
M  V30 906 O 89.667 1.63468 -0.838088 0
M  V30 907 C 89.729 -0.480125 -3.56279 0
M  V30 908 C 89.393 -1.8382 -4.18401 0
M  V30 909 C 90.39 -2.80097 -4.37998 0
M  V30 910 C 88.075 -2.13019 -4.54894 0
M  V30 911 C 90.069 -4.03736 -4.9323 0
M  V30 912 C 87.756 -3.36916 -5.09834 0
M  V30 913 C 88.754 -4.32091 -5.28948 0
M  V30 914 O 88.442 -5.53797 -5.82721 0
M  V30 915 H 88.174 -0.17441 -0.653114 0
M  V30 916 H 90.728 -1.129 -1.71589 0
M  V30 917 H 88.958 0.262931 -3.85805 0
M  V30 918 H 90.647 -0.105335 -4.05763 0
M  V30 919 H 91.413 -2.58838 -4.10156 0
M  V30 920 H 87.292 -1.39733 -4.39313 0
M  V30 921 H 90.836 -4.78034 -5.08064 0
M  V30 922 H 86.733 -3.58033 -5.37106 0
M  V30 923 H 87.501 -5.55494 -6.0114 0
M  V30 924 N 90.1641 1.46063 -0.591896 0
M  V30 925 C 91.0971 2.27452 0.184617 0
M  V30 926 C 92.0751 1.36188 0.888351 0
M  V30 927 O 93.2591 1.65606 0.90039 0
M  V30 928 C 90.3861 3.14162 1.26571 0
M  V30 929 C 89.4321 4.21255 0.666814 0
M  V30 930 S 90.2651 5.33034 -0.513345 0
M  V30 931 C 91.4211 6.23311 0.56872 0
M  V30 932 H 91.6541 2.92963 -0.505939 0
M  V30 933 H 89.1871 1.49676 -0.379014 0
M  V30 934 H 91.1451 3.6468 1.88463 0
M  V30 935 H 89.8061 2.47946 1.92826 0
M  V30 936 H 88.9991 4.81788 1.47974 0
M  V30 937 H 88.6011 3.73797 0.123359 0
M  V30 938 H 90.8931 6.61758 1.45198 0
M  V30 939 H 91.8361 7.081 -7.23824e-05 0
M  V30 940 H 92.2441 5.57646 0.876996 0
M  V30 941 N 91.6422 0.330177 1.54103 0
M  V30 942 C 92.8722 -0.271784 2.04805 0
M  V30 943 C 93.2802 -1.45816 1.20559 0
M  V30 944 O 92.6232 -1.82247 0.2306 0
M  V30 945 C 92.6852 -0.763238 3.51305 0
M  V30 946 C 92.3492 0.301705 4.56003 0
M  V30 947 C 93.3462 1.13999 5.07248 0
M  V30 948 C 91.0312 0.451793 5.00264 0
M  V30 949 C 93.0252 2.11402 6.01322 0
M  V30 950 C 90.7122 1.42924 5.94151 0
M  V30 951 C 91.7102 2.25882 6.44567 0
M  V30 952 O 91.3982 3.21965 7.3661 0
M  V30 953 H 91.1302 -0.058693 0.673447 0
M  V30 954 H 93.6842 0.476395 1.99799 0
M  V30 955 H 91.9142 -1.56244 3.5373 0
M  V30 956 H 93.6032 -1.28427 3.85047 0
M  V30 957 H 94.3692 1.03505 4.73827 0
M  V30 958 H 90.2482 -0.184044 4.60632 0
M  V30 959 H 93.7922 2.76192 6.40596 0
M  V30 960 H 89.6892 1.53479 6.26988 0
M  V30 961 H 90.4572 3.17281 7.54503 0
M  V30 962 N 93.1203 -1.57491 0.0584922 0
M  V30 963 C 94.0503 -2.14988 -0.911178 0
M  V30 964 C 95.0313 -1.07343 -1.31952 0
M  V30 965 O 96.2163 -1.35318 -1.39294 0
M  V30 966 C 93.3463 -2.70078 -2.18347 0
M  V30 967 C 92.3003 -3.82771 -1.91495 0
M  V30 968 C 91.6263 -4.24408 -3.25241 0
M  V30 969 C 92.9263 -5.07592 -1.23075 0
M  V30 970 H 94.6203 -2.96263 -0.432246 0
M  V30 971 H 92.1663 -1.42512 -0.206469 0
M  V30 972 H 94.1193 -3.08943 -2.86587 0
M  V30 973 H 92.8433 -1.86005 -2.68458 0
M  V30 974 H 91.5023 -3.44389 -1.25664 0
M  V30 975 H 91.1503 -3.37275 -3.73168 0
M  V30 976 H 90.8503 -5.00366 -3.08071 0
M  V30 977 H 92.3743 -4.65879 -3.94701 0
M  V30 978 H 93.7883 -5.43857 -1.81362 0
M  V30 979 H 92.1853 -5.88741 -1.16207 0
M  V30 980 H 93.2553 -4.84454 -0.207847 0
M  V30 981 N 94.5984 0.214957 -1.56127 0
M  V30 982 C 95.8444 0.939762 -1.79712 0
M  V30 983 C 96.1774 1.83723 -0.629247 0
M  V30 984 O 95.4524 1.90925 0.371197 0
M  V30 985 C 95.7354 1.77306 -3.13424 0
M  V30 986 C 95.5884 0.90164 -4.40671 0
M  V30 987 C 96.9074 2.74956 -3.43638 0
M  V30 988 H 94.0264 0.340214 -0.653776 0
M  V30 989 H 96.6684 0.20824 -1.88855 0
M  V30 990 H 94.8184 2.39673 -3.0576 0
M  V30 991 H 96.4904 0.294206 -4.60361 0
M  V30 992 H 94.7334 0.207368 -4.33304 0
M  V30 993 H 95.4044 1.51923 -5.30682 0
M  V30 994 H 97.8804 2.22724 -3.51473 0
M  V30 995 H 96.7564 3.30358 -4.38355 0
M  V30 996 H 97.0174 3.53023 -2.66134 0
M  V30 997 N 96.0765 1.50051 0.48192 0
M  V30 998 C 97.3255 1.59741 1.23149 0
M  V30 999 C 97.6385 0.298163 1.93314 0
M  V30 1000 O 98.8445 0.273835 2.70116 0
M  V30 1001 C 97.3005 2.81926 2.23708 0
M  V30 1002 C 96.9085 4.18685 1.59396 0
M  V30 1003 C 98.6525 3.00956 2.99375 0
M  V30 1004 C 96.5595 5.3207 2.58178 0
M  V30 1005 H 95.4895 0.594838 0.46334 0
M  V30 1006 H 98.1405 1.76467 0.503169 0
M  V30 1007 H 96.5225 2.58736 2.99786 0
M  V30 1008 H 97.6965 4.52088 0.891811 0
M  V30 1009 H 96.0115 4.05171 0.960503 0
M  V30 1010 H 98.6085 3.82836 3.73283 0
M  V30 1011 H 98.9515 2.12258 3.58123 0
M  V30 1012 H 99.4845 3.24277 2.30411 0
M  V30 1013 H 96.2235 6.22888 2.04184 0
M  V30 1014 H 95.7435 5.03098 3.26577 0
M  V30 1015 H 97.4225 5.62196 3.20225 0
M  V30 1016 N 97.5546 -0.734337 1.39446 0
M  V30 1017 C 98.8316 -1.48579 1.27215 0
M  V30 1018 C 99.2116 -2.1077 -0.117968 0
M  V30 1019 O 98.5596 -1.98646 -1.12924 0
M  V30 1020 C 98.7696 -2.53667 2.39696 0
M  V30 1021 C 100.118 -3.20031 2.79044 0
M  V30 1022 O 101.142 -2.6398 2.39151 0
M  V30 1023 O 100.001 -4.21455 3.47905 0
M  V30 1024 H 97.0946 -0.659816 0.49857 0
M  V30 1025 H 99.6406 -0.768106 1.51322 0
M  V30 1026 H 98.4126 -2.06096 3.32626 0
M  V30 1027 H 98.0356 -3.32994 2.17258 0
M  V30 1028 N 99.0327 -1.24633 -0.964593 0
M  V30 1029 C 100.31 -0.995809 -1.68354 0
M  V30 1030 C 100.69 0.480964 -2.05548 0
M  V30 1031 O 100.038 1.45599 -1.76105 0
M  V30 1032 C 100.248 -1.92177 -2.91323 0
M  V30 1033 C 101.596 -2.19446 -3.63495 0
M  V30 1034 O 102.62 -1.89855 -3.01386 0
M  V30 1035 O 101.479 -2.69714 -4.75307 0
M  V30 1036 H 98.5727 -0.376854 -0.736146 0
M  V30 1037 H 101.119 -1.35745 -1.0184 0
M  V30 1038 H 99.8907 -2.91938 -2.60553 0
M  V30 1039 H 99.5137 -1.56349 -3.65569 0
M  V30 1040 N 100.511 1.16574 -1.06058 0
M  V30 1041 C 101.421 2.2452 -0.680282 0
M  V30 1042 C 102.437 1.71348 0.302604 0
M  V30 1043 O 103.613 2.00822 0.152513 0
M  V30 1044 C 100.678 3.46629 -0.0700315 0
M  V30 1045 C 99.7388 4.14849 -1.10448 0
M  V30 1046 C 98.9718 5.31129 -0.523256 0
M  V30 1047 O 99.1948 5.66514 0.664709 0
M  V30 1048 O 98.1288 5.88526 -1.26179 0
M  V30 1049 H 101.955 2.59355 -1.58015 0
M  V30 1050 H 99.5398 1.24043 -0.832694 0
M  V30 1051 H 101.422 4.20543 0.268667 0
M  V30 1052 H 100.097 3.13573 0.803353 0
M  V30 1053 H 99.0038 3.42916 -1.49532 0
M  V30 1054 H 100.337 4.51954 -1.94931 0
M  V30 1055 N 101.989 0.842826 1.3317 0
M  V30 1056 C 103.217 0.454055 2.01856 0
M  V30 1057 C 103.632 -0.94587 1.63397 0
M  V30 1058 O 102.989 -1.61534 0.849302 0
M  V30 1059 C 103.04 0.569715 3.56982 0
M  V30 1060 O 102.761 1.91448 3.94055 0
M  V30 1061 C 104.262 0.178412 4.42941 0
M  V30 1062 H 101.482 0.17979 0.646465 0
M  V30 1063 H 104.026 1.1365 1.70012 0
M  V30 1064 H 102.181 -0.0648587 3.87346 0
M  V30 1065 H 102.595 1.90282 4.88767 0
M  V30 1066 H 104.069 0.310376 5.51127 0
M  V30 1067 H 104.546 -0.880056 4.30293 0
M  V30 1068 H 105.152 0.787579 4.17944 0
M  V30 1069 N 103.467 -1.45747 0.599634 0
M  V30 1070 C 104.414 -2.30467 -0.123849 0
M  V30 1071 C 105.384 -1.41632 -0.86774 0
M  V30 1072 O 106.569 -1.70568 -0.855056 0
M  V30 1073 C 103.709 -3.26402 -1.12051 0
M  V30 1074 C 102.822 -4.3034 -0.37832 0
M  V30 1075 C 101.957 -5.13389 -1.364 0
M  V30 1076 C 100.996 -6.09061 -0.609171 0
M  V30 1077 N 100.133 -6.84918 -1.54374 0
M  V30 1078 H 104.973 -2.91802 0.604627 0
M  V30 1079 H 102.51 -1.43797 0.309972 0
M  V30 1080 H 104.468 -3.80482 -1.7114 0
M  V30 1081 H 103.098 -2.66839 -1.8165 0
M  V30 1082 H 102.15 -3.78984 0.327929 0
M  V30 1083 H 103.462 -4.98354 0.210997 0
M  V30 1084 H 102.616 -5.7183 -2.02719 0
M  V30 1085 H 101.355 -4.45376 -1.98725 0
M  V30 1086 H 100.36 -5.49758 0.0676979 0
M  V30 1087 H 101.585 -6.79099 0.00891991 0
M  V30 1088 H 99.531 -6.19601 -2.15478 0
M  V30 1089 H 99.448 -7.49254 -1.00766 0
M  V30 1090 H 100.716 -7.47906 -2.19676 0
M  V30 1091 N 104.945 -0.338344 -1.53925 0
M  V30 1092 C 105.855 0.529421 -2.28548 0
M  V30 1093 C 106.871 1.11645 -1.3346 0
M  V30 1094 O 108.047 1.13325 -1.66492 0
M  V30 1095 C 105.112 1.66713 -3.03987 0
M  V30 1096 C 104.173 1.11041 -4.14691 0
M  V30 1097 C 103.406 2.19389 -4.86522 0
M  V30 1098 O 103.629 3.40013 -4.57982 0
M  V30 1099 O 102.563 1.83976 -5.73094 0
M  V30 1100 H 106.389 -0.0770399 -3.03602 0
M  V30 1101 H 103.974 -0.103555 -1.49041 0
M  V30 1102 H 105.856 2.32918 -3.5118 0
M  V30 1103 H 104.531 2.25949 -2.31794 0
M  V30 1104 H 103.438 0.413024 -3.71813 0
M  V30 1105 H 104.771 0.562975 -4.8897 0
M  V30 1106 N 106.423 1.57458 -0.0668435 0
M  V30 1107 C 107.386 2.11323 0.887422 0
M  V30 1108 C 108.386 1.03618 1.22964 0
M  V30 1109 O 109.576 1.29626 1.16373 0
M  V30 1110 C 106.708 2.61048 2.19242 0
M  V30 1111 H 107.901 2.96942 0.420194 0
M  V30 1112 H 105.454 1.55239 0.181793 0
M  V30 1113 H 106.189 1.78868 2.70512 0
M  V30 1114 H 105.974 3.39769 1.95702 0
M  V30 1115 H 107.464 3.02814 2.87565 0
M  V30 1116 N 107.901 -0.206675 1.56239 0
M  V30 1117 C 108.864 -1.23976 1.92776 0
M  V30 1118 C 109.864 -1.39041 0.807729 0
M  V30 1119 O 111.054 -1.37051 1.0753 0
M  V30 1120 C 108.186 -2.61112 2.19165 0
M  V30 1121 H 109.379 -0.927764 2.85189 0
M  V30 1122 H 106.932 -0.447718 1.4975 0
M  V30 1123 H 107.667 -2.97386 1.29352 0
M  V30 1124 H 107.452 -2.51552 3.00772 0
M  V30 1125 H 108.942 -3.35633 2.48476 0
M  V30 1126 N 109.379 -1.50304 -0.473955 0
M  V30 1127 C 110.628 -1.60392 -1.22301 0
M  V30 1128 C 110.941 -0.308411 -1.93153 0
M  V30 1129 O 112.147 -0.288156 -2.69966 0
M  V30 1130 C 110.603 -2.83109 -2.2221 0
M  V30 1131 C 110.211 -4.19524 -1.57173 0
M  V30 1132 C 111.955 -3.0254 -2.97775 0
M  V30 1133 C 109.862 -5.33431 -2.55353 0
M  V30 1134 H 108.792 -0.597286 -0.460179 0
M  V30 1135 H 111.443 -1.76731 -0.493803 0
M  V30 1136 H 109.825 -2.60322 -2.9841 0
M  V30 1137 H 110.999 -4.52554 -0.867824 0
M  V30 1138 H 109.314 -4.05674 -0.939002 0
M  V30 1139 H 111.911 -3.84811 -3.71248 0
M  V30 1140 H 112.254 -2.14154 -3.56992 0
M  V30 1141 H 112.787 -3.25494 -2.28688 0
M  V30 1142 H 109.526 -6.23962 -2.00878 0
M  V30 1143 H 109.046 -5.04823 -3.23904 0
M  V30 1144 H 110.725 -5.63887 -3.17239 0
M  V30 1145 N 110.857 0.726932 -1.39834 0
M  V30 1146 C 112.103 1.48884 -1.377 0
M  V30 1147 C 112.436 1.94185 0.0244852 0
M  V30 1148 O 111.711 1.67361 0.990986 0
M  V30 1149 C 111.994 2.72288 -2.3565 0
M  V30 1150 C 111.847 2.32956 -3.84775 0
M  V30 1151 C 113.166 3.74414 -2.31306 0
M  V30 1152 H 110.285 0.540062 -0.5015 0
M  V30 1153 H 112.927 0.830547 -1.70886 0
M  V30 1154 H 111.077 3.28457 -2.07481 0
M  V30 1155 H 112.749 1.82356 -4.23726 0
M  V30 1156 H 110.992 1.65088 -4.01159 0
M  V30 1157 H 111.663 3.21362 -4.4881 0
M  V30 1158 H 114.139 3.27849 -2.56231 0
M  V30 1159 H 113.015 4.58414 -3.01907 0
M  V30 1160 H 113.276 4.21909 -1.32081 0
M  V30 1161 N 112.336 1.25143 0.95797 0
M  V30 1162 C 113.613 1.00472 1.67823 0
M  V30 1163 C 113.993 -0.470056 2.058 0
M  V30 1164 O 113.341 -1.44663 1.76875 0
M  V30 1165 C 113.551 1.9372 2.90299 0
M  V30 1166 C 114.899 2.21371 3.62326 0
M  V30 1167 O 115.923 1.91451 3.00375 0
M  V30 1168 O 114.782 2.72231 4.7387 0
M  V30 1169 H 111.876 0.380752 0.734137 0
M  V30 1170 H 114.422 1.36283 1.01119 0
M  V30 1171 H 113.194 2.93316 2.59001 0
M  V30 1172 H 112.817 1.58286 3.64735 0
M  V30 1173 N 113.814 -1.1601 1.06675 0
M  V30 1174 C 115.225 -1.68235 0.809565 0
M  V30 1175 C 115.576 -1.8454 -0.666303 0
M  V30 1176 O 114.701 -1.54374 -1.5165 0
M  V30 1177 C 115.296 -3.05585 1.46299 0
M  V30 1178 C 113.855 -3.54915 1.25349 0
M  V30 1179 C 113.002 -2.30804 1.53703 0
M  V30 1180 H 115.953 -1.00318 1.22971 0
M  V30 1181 H 115.974 -3.70174 0.880431 0
M  V30 1182 H 115.486 -2.93686 2.53713 0
M  V30 1183 H 113.587 -3.72067 0.199261 0
M  V30 1184 H 113.7 -4.36774 1.9689 0
M  V30 1185 H 112.064 -2.36007 0.957739 0
M  V30 1186 H 112.847 -2.21499 2.62284 0
M  V30 1187 N 115.292 -0.849877 -1.32721 0
M  V30 1188 C 116.538 -0.451591 -1.97708 0
M  V30 1189 C 116.871 0.989175 -1.6712 0
M  V30 1190 O 116.146 1.69334 -0.956891 0
M  V30 1191 C 116.429 -0.685598 -3.53513 0
M  V30 1192 C 116.282 -2.17444 -3.93749 0
M  V30 1193 C 117.601 -0.138874 -4.39881 0
M  V30 1194 H 114.72 -0.16555 -0.718166 0
M  V30 1195 H 117.362 -1.06742 -1.57182 0
M  V30 1196 H 115.512 -0.161416 -3.88165 0
M  V30 1197 H 117.184 -2.76433 -3.693 0
M  V30 1198 H 115.427 -2.65476 -3.43081 0
M  V30 1199 H 116.098 -2.28888 -5.02309 0
M  V30 1200 H 118.574 -0.587068 -4.11938 0
M  V30 1201 H 117.45 -0.332213 -5.47894 0
M  V30 1202 H 117.711 0.95806 -4.31594 0
M  V30 1203 N 116.77 1.45427 -0.607355 0
M  V30 1204 C 117.702 2.2871 0.149752 0
M  V30 1205 C 118.715 1.39937 0.831958 0
M  V30 1206 O 119.904 1.64313 0.697385 0
M  V30 1207 C 117.004 3.15673 1.23304 0
M  V30 1208 C 116.177 4.32722 0.637996 0
M  V30 1209 C 115.236 5.00895 1.61215 0
M  V30 1210 O 114.262 5.57697 1.13854 0
M  V30 1211 N 115.464 5.00159 2.94655 0
M  V30 1212 H 118.229 2.94328 -0.564882 0
M  V30 1213 H 115.79 1.55612 -0.446823 0
M  V30 1214 H 117.782 3.58144 1.88454 0
M  V30 1215 H 116.352 2.51965 1.8502 0
M  V30 1216 H 115.572 3.93734 -0.191572 0
M  V30 1217 H 116.86 5.08321 0.220665 0
M  V30 1218 H 116.258 4.553 3.35735 0
M  V30 1219 H 114.815 5.46495 3.55228 0
M  V30 1220 N 118.248 0.346503 1.53744 0
M  V30 1221 C 119.659 -0.136779 1.86198 0
M  V30 1222 C 120.01 -1.49749 1.26766 0
M  V30 1223 O 119.135 -2.08417 0.582355 0
M  V30 1224 C 119.73 -0.254966 3.37839 0
M  V30 1225 C 118.289 -0.682482 3.70161 0
M  V30 1226 C 117.436 0.181981 2.76702 0
M  V30 1227 H 120.387 0.565994 1.48264 0
M  V30 1228 H 120.408 -1.08195 3.64793 0
M  V30 1229 H 119.92 0.735526 3.81066 0
M  V30 1230 H 118.021 -1.68189 3.3248 0
M  V30 1231 H 118.134 -0.470326 4.76786 0
M  V30 1232 H 116.498 -0.34615 2.52337 0
M  V30 1233 H 117.281 1.16966 3.2276 0
M  V30 1234 N 119.726 -1.57421 0.075193 0
M  V30 1235 C 120.658 -2.09904 -0.920483 0
M  V30 1236 C 121.671 -1.03191 -1.25918 0
M  V30 1237 O 122.86 -1.30695 -1.21577 0
M  V30 1238 C 119.96 -2.54726 -2.23534 0
M  V30 1239 C 119.133 -3.8505 -2.07498 0
M  V30 1240 C 118.192 -4.15929 -3.22319 0
M  V30 1241 O 117.218 -4.85474 -2.9716 0
M  V30 1242 N 118.42 -3.69745 -4.47514 0
M  V30 1243 H 121.185 -2.95954 -0.472359 0
M  V30 1244 H 118.746 -1.61523 -0.110444 0
M  V30 1245 H 120.738 -2.72443 -2.9926 0
M  V30 1246 H 119.308 -1.73795 -2.59835 0
M  V30 1247 H 118.528 -3.76679 -1.16219 0
M  V30 1248 H 119.816 -4.70348 -1.94038 0
M  V30 1249 H 119.214 -3.13569 -4.7084 0
M  V30 1250 H 117.771 -3.92655 -5.20255 0
M  V30 1251 N 121.204 0.198386 -1.56346 0
M  V30 1252 C 122.151 1.24589 -1.94284 0
M  V30 1253 C 123.121 1.454 -0.802997 0
M  V30 1254 O 124.306 1.58588 -1.06087 0
M  V30 1255 C 121.446 2.58631 -2.28482 0
M  V30 1256 C 120.559 2.45426 -3.55514 0
M  V30 1257 C 119.694 3.7215 -3.79049 0
M  V30 1258 C 118.733 3.53763 -4.99518 0
M  V30 1259 N 117.87 4.72491 -5.19323 0
M  V30 1260 H 122.71 0.915356 -2.83593 0
M  V30 1261 H 120.247 0.440629 -1.40346 0
M  V30 1262 H 122.205 3.3672 -2.46324 0
M  V30 1263 H 120.835 2.89734 -1.42317 0
M  V30 1264 H 119.887 1.58652 -3.45737 0
M  V30 1265 H 121.199 2.27772 -4.43758 0
M  V30 1266 H 120.353 4.58679 -3.97113 0
M  V30 1267 H 119.092 3.92754 -2.89129 0
M  V30 1268 H 118.097 2.65619 -4.8138 0
M  V30 1269 H 119.322 3.34607 -5.90944 0
M  V30 1270 H 117.268 4.93365 -4.3235 0
M  V30 1271 H 117.185 4.5765 -6.01741 0
M  V30 1272 H 118.453 5.6038 -5.41843 0
M  V30 1273 N 122.682 1.50554 0.465978 0
M  V30 1274 C 123.928 1.62038 1.21949 0
M  V30 1275 C 124.261 0.322116 1.9151 0
M  V30 1276 O 123.536 -0.676723 1.82348 0
M  V30 1277 C 123.819 2.80421 2.25912 0
M  V30 1278 C 123.672 4.20144 1.60622 0
M  V30 1279 C 124.991 2.94354 3.27176 0
M  V30 1280 H 122.11 0.589752 0.441998 0
M  V30 1281 H 124.752 1.82956 0.51257 0
M  V30 1282 H 122.902 2.62717 2.86203 0
M  V30 1283 H 124.574 4.49449 1.03889 0
M  V30 1284 H 122.817 4.24165 0.909211 0
M  V30 1285 H 123.488 4.98914 2.36196 0
M  V30 1286 H 125.964 3.10578 2.76913 0
M  V30 1287 H 124.84 3.788 3.97242 0
M  V30 1288 H 125.101 2.05186 3.916 0
M  V30 1289 N 124.16 -0.719506 1.40217 0
M  V30 1290 C 125.406 -1.48152 1.38488 0
M  V30 1291 C 125.739 -1.94195 -0.0141867 0
M  V30 1292 O 125.014 -1.67884 -0.982096 0
M  V30 1293 C 125.297 -2.71035 2.37091 0
M  V30 1294 C 125.15 -2.30912 3.86005 0
M  V30 1295 C 126.469 -3.73182 2.33288 0
M  V30 1296 H 123.588 -0.537395 0.504357 0
M  V30 1297 H 126.23 -0.821472 1.71324 0
M  V30 1298 H 124.38 -3.27352 2.0922 0
M  V30 1299 H 126.052 -1.80107 4.24687 0
M  V30 1300 H 124.295 -1.62958 4.02029 0
M  V30 1301 H 124.966 -3.18978 4.50508 0
M  V30 1302 H 127.442 -3.26485 2.57966 0
M  V30 1303 H 126.318 -4.56806 3.04334 0
M  V30 1304 H 126.579 -4.21202 1.34317 0
M  V30 1305 N 125.638 -1.25649 -0.95132 0
M  V30 1306 C 126.915 -1.01361 -1.67288 0
M  V30 1307 C 127.295 0.459135 -2.06046 0
M  V30 1308 O 126.643 1.43723 -1.7764 0
M  V30 1309 C 126.853 -1.95256 -2.89268 0
M  V30 1310 C 128.201 -2.23289 -3.61147 0
M  V30 1311 O 129.225 -1.93041 -2.99355 0
M  V30 1312 O 128.084 -2.74741 -4.72419 0
M  V30 1313 H 125.178 -0.38464 -0.732107 0
M  V30 1314 H 127.724 -1.36817 -1.00395 0
M  V30 1315 H 126.496 -2.94685 -2.57442 0
M  V30 1316 H 126.119 -1.60218 -3.6389 0
M  V30 1317 N 127.117 1.15442 -1.07289 0
M  V30 1318 C 128.08 2.18358 -0.696591 0
M  V30 1319 C 129.08 1.58637 0.262837 0
M  V30 1320 O 130.27 1.74145 0.0438809 0
M  V30 1321 C 127.402 3.4089 -0.0266151 0
M  V30 1322 H 128.595 2.53162 -1.60776 0
M  V30 1323 H 126.148 1.29893 -0.869342 0
M  V30 1324 H 126.883 3.11653 0.896822 0
M  V30 1325 H 126.668 3.85495 -0.716657 0
M  V30 1326 H 128.158 4.17009 0.222028 0
M  V30 1327 N 128.595 0.856903 1.32268 0
M  V30 1328 C 129.558 0.308171 2.27119 0
M  V30 1329 C 130.558 -0.533421 1.51695 0
M  V30 1330 O 131.748 -0.344607 1.70757 0
M  V30 1331 C 128.88 -0.563757 3.36206 0
M  V30 1332 H 130.073 1.14535 2.77167 0
M  V30 1333 H 127.626 0.631421 1.42978 0
M  V30 1334 H 128.361 -1.42266 2.91429 0
M  V30 1335 H 128.146 0.0386749 3.92081 0
M  V30 1336 H 129.636 -0.940386 4.06874 0
M  V30 1337 N 130.073 -1.45103 0.615059 0
M  V30 1338 C 131.489 -1.57137 0.279322 0
M  V30 1339 C 131.689 -1.60523 -1.21797 0
M  V30 1340 O 130.745 -1.53956 -2.00134 0
M  V30 1341 C 132.058 -2.85062 0.957083 0
M  V30 1342 C 133.606 -2.98749 0.933706 0
M  V30 1343 C 134.081 -4.29455 1.59162 0
M  V30 1344 N 135.572 -4.36231 1.55746 0
M  V30 1345 C 136.307 -5.36051 2.0356 0
M  V30 1346 N 135.803 -6.42367 2.59494 0
M  V30 1347 N 137.596 -5.27456 1.94284 0
M  V30 1348 H 129.747 -1.41148 1.58717 0
M  V30 1349 H 132.01 -0.675331 0.665306 0
M  V30 1350 H 131.716 -2.88488 2.01166 0
M  V30 1351 H 131.59 -3.7407 0.48494 0
M  V30 1352 H 133.977 -2.94886 -0.112347 0
M  V30 1353 H 134.058 -2.11132 1.44419 0
M  V30 1354 H 133.702 -4.34077 2.63704 0
M  V30 1355 H 133.632 -5.15901 1.0561 0
M  V30 1356 H 136.123 -3.60011 1.14893 0
M  V30 1357 H 136.436 -7.14793 2.93752 0
M  V30 1358 H 134.781 -6.43097 2.63537 0
M  V30 1359 H 137.972 -4.43308 1.5032 0
M  V30 1360 H 138.145 -6.05099 2.3186 0
M  V30 1361 N 131.551 -0.354651 -1.53558 0
M  V30 1362 C 132.498 0.496968 -2.25386 0
M  V30 1363 C 133.468 1.0865 -1.25636 0
M  V30 1364 O 134.653 1.12104 -1.54394 0
M  V30 1365 C 131.793 1.63637 -3.03837 0
M  V30 1366 C 130.906 1.07307 -4.18461 0
M  V30 1367 C 130.041 2.18068 -4.84376 0
M  V30 1368 C 129.08 1.59147 -5.91049 0
M  V30 1369 N 128.217 2.63695 -6.50699 0
M  V30 1370 H 133.057 -0.122075 -2.9775 0
M  V30 1371 H 130.594 -0.0720154 -1.46924 0
M  V30 1372 H 132.552 2.30734 -3.47589 0
M  V30 1373 H 131.182 2.22623 -2.33749 0
M  V30 1374 H 130.234 0.292708 -3.79272 0
M  V30 1375 H 131.546 0.602193 -4.95152 0
M  V30 1376 H 130.7 2.93007 -5.31255 0
M  V30 1377 H 129.439 2.68504 -4.07133 0
M  V30 1378 H 128.444 0.827175 -5.43542 0
M  V30 1379 H 129.669 1.09549 -6.70206 0
M  V30 1380 H 127.615 3.13365 -5.76315 0
M  V30 1381 H 127.532 2.21263 -7.22896 0
M  V30 1382 H 128.8 3.3837 -7.02229 0
M  V30 1383 N 133.029 1.57378 -0.0835403 0
M  V30 1384 C 133.979 2.09916 0.889905 0
M  V30 1385 C 134.963 1.01151 1.25129 0
M  V30 1386 O 136.155 1.27443 1.2283 0
M  V30 1387 C 133.284 2.67379 2.15322 0
M  V30 1388 C 132.37 3.83167 1.81779 0
M  V30 1389 N 132.761 4.91665 1.18739 0
M  V30 1390 C 131.059 3.92685 2.11459 0
M  V30 1391 C 131.76 5.72409 1.0355 0
M  V30 1392 N 130.736 5.21062 1.54906 0
M  V30 1393 H 134.538 2.91188 0.398378 0
M  V30 1394 H 132.052 1.61956 0.120013 0
M  V30 1395 H 134.049 3.0334 2.8599 0
M  V30 1396 H 132.709 1.87558 2.65051 0
M  V30 1397 H 133.72 5.10784 0.855604 0
M  V30 1398 H 130.397 3.23856 2.63483 0
M  V30 1399 H 131.787 6.69699 0.543425 0
M  V30 1400 N 134.507 -0.190092 1.56449 0
M  V30 1401 C 135.755 -0.907908 1.80559 0
M  V30 1402 C 136.076 -1.83583 0.657438 0
M  V30 1403 O 135.346 -1.93203 -0.323924 0
M  V30 1404 H 133.926 -0.338247 0.666032 0
M  V30 1405 H 136.588 -0.194403 1.93928 0
M  V30 1406 H 135.684 -1.49604 2.73907 0
M  V30 1407 N 135.985 -1.50799 -0.457987 0
M  V30 1408 C 137.231 -1.62683 -1.21088 0
M  V30 1409 C 137.564 -0.332268 -1.91336 0
M  V30 1410 O 136.839 0.667043 -1.82704 0
M  V30 1411 C 137.122 -2.81615 -2.24422 0
M  V30 1412 C 136.975 -4.20989 -1.58392 0
M  V30 1413 C 138.294 -2.96085 -3.2561 0
M  V30 1414 H 135.413 -0.592087 -0.438864 0
M  V30 1415 H 138.055 -1.83225 -0.50286 0
M  V30 1416 H 136.205 -2.64231 -2.84806 0
M  V30 1417 H 137.877 -4.49994 -1.01504 0
M  V30 1418 H 136.12 -4.24641 -0.886704 0
M  V30 1419 H 136.791 -5.0016 -2.33547 0
M  V30 1420 H 139.267 -3.12042 -2.75262 0
M  V30 1421 H 138.143 -3.80902 -3.95228 0
M  V30 1422 H 138.404 -2.0726 -3.90507 0
M  V30 1423 N 137.463 0.71206 -1.40597 0
M  V30 1424 C 138.41 1.82613 -1.41142 0
M  V30 1425 C 139.38 1.63925 -0.267903 0
M  V30 1426 O 140.565 1.85009 -0.466495 0
M  V30 1427 C 137.705 3.20354 -1.28324 0
M  V30 1428 C 136.818 3.50589 -2.52411 0
M  V30 1429 C 135.953 4.77855 -2.32009 0
M  V30 1430 C 134.992 5.01005 -3.51654 0
M  V30 1431 N 134.129 6.19487 -3.30425 0
M  V30 1432 H 138.969 1.81482 -2.36365 0
M  V30 1433 H 136.506 0.886475 -1.17388 0
M  V30 1434 H 138.464 3.99899 -1.18899 0
M  V30 1435 H 137.094 3.20705 -0.367189 0
M  V30 1436 H 136.146 2.65573 -2.72351 0
M  V30 1437 H 137.458 3.63604 -3.41458 0
M  V30 1438 H 136.612 5.65424 -2.19956 0
M  V30 1439 H 135.351 4.67056 -1.40392 0
M  V30 1440 H 134.356 4.1189 -3.64179 0
M  V30 1441 H 135.581 5.13674 -4.44202 0
M  V30 1442 H 133.527 6.09932 -2.41494 0
M  V30 1443 H 133.444 6.33194 -4.13039 0
M  V30 1444 H 134.712 7.09834 -3.22113 0
M  V30 1445 N 138.941 1.26152 0.944643 0
M  V30 1446 C 139.871 1.09902 2.06019 0
M  V30 1447 C 140.852 0.00519538 1.70099 0
M  V30 1448 O 142.037 0.176583 1.93396 0
M  V30 1449 C 139.167 0.727562 3.39594 0
M  V30 1450 C 138.121 1.77274 3.89561 0
M  V30 1451 C 137.447 1.25569 5.19747 0
M  V30 1452 C 138.747 3.17357 4.14827 0
M  V30 1453 H 140.441 2.03217 2.19871 0
M  V30 1454 H 137.987 0.978452 1.05652 0
M  V30 1455 H 139.94 0.600777 4.17095 0
M  V30 1456 H 138.664 -0.241287 3.25707 0
M  V30 1457 H 137.323 1.88814 3.14237 0
M  V30 1458 H 136.971 0.276783 5.02238 0
M  V30 1459 H 136.671 1.95433 5.54148 0
M  V30 1460 H 138.195 1.1415 5.99835 0
M  V30 1461 H 139.609 3.08914 4.82954 0
M  V30 1462 H 138.006 3.84781 4.60504 0
M  V30 1463 H 139.076 3.63673 3.20734 0
M  V30 1464 N 140.419 -1.14872 1.07899 0
M  V30 1465 C 141.647 -1.89661 0.82683 0
M  V30 1466 C 142.062 -1.78312 -0.620519 0
M  V30 1467 O 141.419 -1.13888 -1.42604 0
M  V30 1468 C 141.47 -3.39817 1.23316 0
M  V30 1469 O 141.191 -3.50845 2.62372 0
M  V30 1470 C 142.692 -4.31615 1.0111 0
M  V30 1471 H 139.912 -0.60092 0.298557 0
M  V30 1472 H 142.456 -1.4551 1.43691 0
M  V30 1473 H 140.611 -3.8161 0.667286 0
M  V30 1474 H 141.025 -4.44076 2.79101 0
M  V30 1475 H 142.499 -5.35367 1.34486 0
M  V30 1476 H 142.976 -4.39169 -0.0522168 0
M  V30 1477 H 143.582 -3.95572 1.56215 0
M  V30 1478 N 141.898 -0.863906 -1.31812 0
M  V30 1479 C 143.126 -0.486111 -2.01108 0
M  V30 1480 C 143.541 0.919755 -1.64882 0
M  V30 1481 O 142.898 1.60162 -0.874893 0
M  V30 1482 C 142.949 -0.626435 -3.56031 0
M  V30 1483 O 142.67 -1.97693 -3.90959 0
M  V30 1484 C 144.171 -0.248857 -4.42601 0
M  V30 1485 H 141.391 -0.190052 -0.643523 0
M  V30 1486 H 143.935 -1.1634 -1.68182 0
M  V30 1487 H 142.09 0.00322717 -3.874 0
M  V30 1488 H 142.504 -1.98034 -4.85678 0
M  V30 1489 H 143.978 -0.398016 -5.50563 0
M  V30 1490 H 144.455 0.811489 -4.31638 0
M  V30 1491 H 145.061 -0.853971 -4.16638 0
M  V30 1492 N 143.376 1.44774 -0.622745 0
M  V30 1493 C 144.622 2.0242 -0.124083 0
M  V30 1494 C 144.955 1.4881 1.24777 0
M  V30 1495 O 144.23 0.668799 1.8264 0
M  V30 1496 C 144.513 3.59957 -0.101619 0
M  V30 1497 C 144.366 4.23867 -1.50521 0
M  V30 1498 C 145.685 4.36284 0.578272 0
M  V30 1499 H 142.804 0.735528 -0.0465645 0
M  V30 1500 H 145.446 1.72447 -0.797617 0
M  V30 1501 H 143.596 3.85623 0.471934 0
M  V30 1502 H 145.268 4.09336 -2.12701 0
M  V30 1503 H 143.511 3.81684 -2.06154 0
M  V30 1504 H 144.182 5.32843 -1.4416 0
M  V30 1505 H 146.658 4.16001 0.0906057 0
M  V30 1506 H 145.534 5.46004 0.563149 0
M  V30 1507 H 145.795 4.10271 1.64713 0
M  V30 1508 N 144.854 0.36279 1.53368 0
M  V30 1509 C 145.784 -0.476976 2.28576 0
M  V30 1510 C 146.765 -1.08631 1.30894 0
M  V30 1511 O 147.95 -1.10409 1.59761 0
M  V30 1512 C 145.08 -1.61828 3.07293 0
M  V30 1513 C 144.034 -1.13633 4.1264 0
M  V30 1514 C 143.36 -2.36766 4.79423 0
M  V30 1515 C 144.66 -0.223061 5.21823 0
M  V30 1516 H 146.354 0.150474 2.99022 0
M  V30 1517 H 143.9 0.0738103 1.43811 0
M  V30 1518 H 145.853 -2.21237 3.58653 0
M  V30 1519 H 144.577 -2.27292 2.34533 0
M  V30 1520 H 143.236 -0.564945 3.62221 0
M  V30 1521 H 142.884 -3.0068 4.03238 0
M  V30 1522 H 142.584 -2.05192 5.50609 0
M  V30 1523 H 144.108 -2.96865 5.33576 0
M  V30 1524 H 145.522 -0.724545 5.68703 0
M  V30 1525 H 143.919 0.001678 6.001 0
M  V30 1526 H 144.989 0.735553 4.79289 0
M  V30 1527 N 146.332 -1.57332 0.0918853 0
M  V30 1528 C 147.56 -1.98574 -0.581048 0
M  V30 1529 C 147.975 -0.970903 -1.61923 0
M  V30 1530 O 147.332 0.0399054 -1.82456 0
M  V30 1531 C 147.383 -3.39872 -1.23164 0
M  V30 1532 O 147.104 -4.37469 -0.234989 0
M  V30 1533 C 148.605 -3.96099 -1.99049 0
M  V30 1534 H 145.825 -0.65261 -0.156018 0
M  V30 1535 H 148.369 -2.0379 0.170225 0
M  V30 1536 H 146.524 -3.35679 -1.93386 0
M  V30 1537 H 146.938 -5.19751 -0.70418 0
M  V30 1538 H 148.412 -4.97127 -2.39934 0
M  V30 1539 H 148.889 -3.3374 -2.85507 0
M  V30 1540 H 149.495 -4.03755 -1.3365 0
M  V30 1541 N 147.81 0.181792 -1.56548 0
M  V30 1542 C 149.038 0.915947 -1.85521 0
M  V30 1543 C 149.453 1.76282 -0.676016 0
M  V30 1544 O 148.81 1.79012 0.355077 0
M  V30 1545 C 148.861 1.80126 -3.13427 0
M  V30 1546 O 148.582 0.988562 -4.26801 0
M  V30 1547 C 150.083 2.64597 -3.55673 0
M  V30 1548 H 147.303 0.26661 -0.61576 0
M  V30 1549 H 149.847 0.185039 -2.03661 0
M  V30 1550 H 148.002 2.48563 -2.97145 0
M  V30 1551 H 148.416 1.59308 -4.99721 0
M  V30 1552 H 149.89 3.2235 -4.48101 0
M  V30 1553 H 150.367 3.38958 -2.79292 0
M  V30 1554 H 150.973 2.0151 -3.74532 0
M  V30 1555 N 149.288 1.51039 0.449983 0
M  V30 1556 C 150.238 1.67824 1.54335 0
M  V30 1557 C 151.222 0.5324 1.51836 0
M  V30 1558 O 152.414 0.787762 1.58503 0
M  V30 1559 C 149.543 1.7951 2.92628 0
M  V30 1560 C 148.629 2.99838 2.9993 0
M  V30 1561 N 149.02 4.23207 2.77001 0
M  V30 1562 C 147.318 2.98832 3.31082 0
M  V30 1563 C 148.019 5.04361 2.89818 0
M  V30 1564 N 146.995 4.38746 3.2094 0
M  V30 1565 H 150.797 2.60884 1.35339 0
M  V30 1566 H 148.311 1.48513 0.657085 0
M  V30 1567 H 150.308 1.89642 3.7127 0
M  V30 1568 H 148.968 0.876227 3.12654 0
M  V30 1569 H 149.979 4.5236 2.52172 0
M  V30 1570 H 146.656 2.16527 3.56963 0
M  V30 1571 H 148.046 6.12528 2.76151 0
M  V30 1572 N 150.766 -0.704594 1.40972 0
M  V30 1573 C 151.716 -1.81051 1.38581 0
M  V30 1574 C 152.7 -1.58759 0.261585 0
M  V30 1575 O 153.892 -1.69745 0.501556 0
M  V30 1576 C 151.021 -3.19279 1.26157 0
M  V30 1577 C 150.107 -3.47296 2.43405 0
M  V30 1578 N 150.498 -3.46064 3.68881 0
M  V30 1579 C 148.796 -3.77804 2.37023 0
M  V30 1580 C 149.497 -3.72733 4.46592 0
M  V30 1581 N 148.473 -3.9203 3.76581 0
M  V30 1582 H 152.275 -1.78448 2.33525 0
M  V30 1583 H 149.789 -0.904198 1.349 0
M  V30 1584 H 151.786 -3.98488 1.22526 0
M  V30 1585 H 150.446 -3.231 0.321902 0
M  V30 1586 H 151.457 -3.26656 4.01891 0
M  V30 1587 H 148.134 -3.8905 1.51481 0
M  V30 1588 H 149.524 -3.77993 5.55492 0
M  V30 1589 N 152.244 -1.26651 -0.937939 0
M  V30 1590 C 153.194 -1.05156 -2.02302 0
M  V30 1591 C 154.178 0.0171233 -1.60891 0
M  V30 1592 O 155.37 -0.200213 -1.75864 0
M  V30 1593 C 152.499 -0.689962 -3.36295 0
M  V30 1594 C 151.585 -1.79626 -3.84181 0
M  V30 1595 N 151.976 -3.03422 -4.04684 0
M  V30 1596 C 150.274 -1.6806 -4.13124 0
M  V30 1597 C 150.975 -3.75345 -4.444 0
M  V30 1598 N 149.951 -3.03051 -4.51288 0
M  V30 1599 H 153.753 -1.99117 -2.1617 0
M  V30 1600 H 151.267 -1.17216 -1.12402 0
M  V30 1601 H 153.264 -0.517112 -4.13681 0
M  V30 1602 H 151.924 0.242139 -3.23796 0
M  V30 1603 H 152.935 -3.39293 -3.91281 0
M  V30 1604 H 149.612 -0.818629 -4.09396 0
M  V30 1605 H 151.002 -4.81691 -4.68427 0
M  V30 1606 N 153.722 1.14298 -1.08507 0
M  V30 1607 C 154.968 1.85854 -0.826438 0
M  V30 1608 C 155.323 1.81413 0.640878 0
M  V30 1609 O 154.616 1.23463 1.46518 0
M  V30 1610 C 154.81 3.33547 -1.28379 0
M  V30 1611 C 154.639 3.52369 -2.79403 0
M  V30 1612 C 153.409 3.67159 -3.47164 0
M  V30 1613 C 155.607 3.49203 -3.77573 0
M  V30 1614 N 153.589 3.74149 -4.86709 0
M  V30 1615 C 154.96 3.6245 -5.03021 0
M  V30 1616 C 157.015 3.32547 -3.70563 0
M  V30 1617 C 155.718 3.60761 -6.2229 0
M  V30 1618 C 157.744 3.32162 -4.89308 0
M  V30 1619 C 157.106 3.45949 -6.13595 0
M  V30 1620 H 153.205 0.696705 -0.355143 0
M  V30 1621 H 155.789 1.36981 -1.38362 0
M  V30 1622 H 153.96 3.81008 -0.754166 0
M  V30 1623 H 155.692 3.92867 -0.971469 0
M  V30 1624 H 152.447 3.68433 -2.9758 0
M  V30 1625 H 152.871 3.81359 -5.5937 0
M  V30 1626 H 157.513 3.20797 -2.75407 0
M  V30 1627 H 155.231 3.71286 -7.17755 0
M  V30 1628 H 158.817 3.20485 -4.85573 0
M  V30 1629 H 157.697 3.456 -7.03939 0
M  V30 1630 N 155.201 0.870884 1.31352 0
M  V30 1631 C 156.478 0.402907 1.91405 0
M  V30 1632 C 156.858 -1.11512 1.79244 0
M  V30 1633 O 156.206 -1.94411 1.2007 0
M  V30 1634 C 156.416 0.885301 3.37585 0
M  V30 1635 C 157.764 0.911971 4.14691 0
M  V30 1636 O 158.788 0.831016 3.46371 0
M  V30 1637 O 157.647 1.02927 5.3672 0
M  V30 1638 H 154.741 0.120698 0.818145 0
M  V30 1639 H 157.287 0.958857 1.40014 0
M  V30 1640 H 156.059 1.92889 3.40455 0
M  V30 1641 H 155.682 0.307714 3.96407 0
M  V30 1642 N 156.679 -1.44442 0.630414 0
M  V30 1643 C 157.629 -2.27794 -0.0968103 0
M  V30 1644 C 158.613 -1.38624 -0.816834 0
M  V30 1645 O 159.805 -1.62438 -0.70306 0
M  V30 1646 C 156.934 -3.25929 -1.07819 0
M  V30 1647 C 156.02 -4.22588 -0.357826 0
M  V30 1648 N 156.411 -5.0207 0.613169 0
M  V30 1649 C 154.709 -4.41914 -0.602365 0
M  V30 1650 C 155.41 -5.72351 1.03871 0
M  V30 1651 N 154.386 -5.42287 0.377642 0
M  V30 1652 H 158.188 -2.86653 0.648621 0
M  V30 1653 H 155.702 -1.55871 0.455862 0
M  V30 1654 H 157.699 -3.84399 -1.61378 0
M  V30 1655 H 156.359 -2.68631 -1.82393 0
M  V30 1656 H 157.37 -5.08331 0.990947 0
M  V30 1657 H 154.047 -3.95714 -1.33103 0
M  V30 1658 H 155.437 -6.4619 1.84086 0
M  V30 1659 N 158.157 -0.370918 -1.53173 0
M  V30 1660 C 159.12 0.460778 -2.24521 0
M  V30 1661 C 160.12 1.00536 -1.25496 0
M  V30 1662 O 161.31 0.890266 -1.49733 0
M  V30 1663 C 158.442 1.64457 -2.98608 0
M  V30 1664 H 159.635 -0.163613 -2.99453 0
M  V30 1665 H 157.188 -0.122699 -1.55818 0
M  V30 1666 H 157.923 2.30691 -2.2793 0
M  V30 1667 H 157.708 1.26099 -3.7127 0
M  V30 1668 H 159.198 2.23384 -3.5283 0
M  V30 1669 N 159.635 1.57281 -0.100228 0
M  V30 1670 C 160.883 1.94153 0.561157 0
M  V30 1671 C 161.204 0.983157 1.68401 0
M  V30 1672 O 160.474 0.0361132 1.95867 0
M  V30 1673 H 159.054 0.716791 0.210283 0
M  V30 1674 H 161.716 1.94202 -0.164765 0
M  V30 1675 H 160.812 2.96709 0.968008 0
M  V30 1676 N 161.113 -0.173488 1.56642 0
M  V30 1677 C 162.361 -0.888706 1.81512 0
M  V30 1678 C 162.682 -1.82875 0.676872 0
M  V30 1679 O 161.952 -1.93536 -0.303414 0
M  V30 1680 H 160.532 -0.331164 0.669582 0
M  V30 1681 H 163.194 -0.173823 1.94123 0
M  V30 1682 H 162.29 -1.46691 2.75478 0
M  V30 1683 N 162.591 -1.51276 -0.441967 0
M  V30 1684 C 163.539 -1.72823 -1.55676 0
M  V30 1685 C 164.533 -0.59445 -1.58627 0
M  V30 1686 O 165.739 -0.775715 -1.62427 0
M  V30 1687 H 162.114 -0.545983 -0.517113 0
M  V30 1688 H 164.085 -2.6628 -1.34675 0
M  V30 1689 C 162.834 -1.86619 -2.93375 0
M  V30 1690 H 162.157 -2.73264 -2.91834 0
M  V30 1691 H 163.597 -2.05709 -3.70756 0
M  V30 1692 C 162.056 -0.624842 -3.31055 0
M  V30 1693 O 162.586 0.222636 -4.01083 0
M  V30 1694 N 160.792 -0.470288 -2.86769 0
M  V30 1695 H 160.339 -1.161 -2.29953 0
M  V30 1696 H 160.297 0.359051 -3.12343 0
M  V30 1697 N 164.069 0.697108 -1.41344 0
M  V30 1698 C 164.979 1.84088 -1.45427 0
M  V30 1699 C 165.995 1.70545 -0.34501 0
M  V30 1700 O 167.171 1.92488 -0.592492 0
M  V30 1701 C 164.236 3.20056 -1.33286 0
M  V30 1702 C 163.297 3.45718 -2.54514 0
M  V30 1703 C 162.53 4.75199 -2.42944 0
M  V30 1704 O 162.753 5.51579 -1.45318 0
M  V30 1705 O 161.687 5.0161 -3.32672 0
M  V30 1706 H 165.513 1.836 -2.41919 0
M  V30 1707 H 163.098 0.849966 -1.22866 0
M  V30 1708 H 164.98 4.01236 -1.28794 0
M  V30 1709 H 163.655 3.2123 -0.39909 0
M  V30 1710 H 162.562 2.64474 -2.64583 0
M  V30 1711 H 163.895 3.49356 -3.46715 0
M  V30 1712 N 165.547 1.27147 0.931209 0
M  V30 1713 C 166.494 1.09568 2.03134 0
M  V30 1714 C 167.464 -0.00222433 1.661 0
M  V30 1715 O 168.649 0.159439 1.90133 0
M  V30 1716 C 165.789 0.745231 3.36957 0
M  V30 1717 C 164.902 1.92041 3.86968 0
M  V30 1718 C 164.037 1.51216 5.09222 0
M  V30 1719 C 163.076 2.65504 5.5152 0
M  V30 1720 N 162.213 2.25291 6.64972 0
M  V30 1721 H 167.053 2.03708 2.17502 0
M  V30 1722 H 164.59 1.01411 1.06556 0
M  V30 1723 H 166.548 0.522878 4.1391 0
M  V30 1724 H 165.178 -0.159202 3.22407 0
M  V30 1725 H 164.23 2.25541 3.06326 0
M  V30 1726 H 165.542 2.77787 4.1429 0
M  V30 1727 H 164.696 1.25084 5.93666 0
M  V30 1728 H 163.435 0.625749 4.83669 0
M  V30 1729 H 162.44 2.92354 4.65628 0
M  V30 1730 H 163.665 3.54761 5.7907 0
M  V30 1731 H 161.611 1.39098 6.41083 0
M  V30 1732 H 161.528 3.04577 6.91931 0
M  V30 1733 H 162.796 2.02398 7.52765 0
M  V30 1734 N 167.025 -1.13721 1.09112 0
M  V30 1735 C 167.955 -2.21148 0.749385 0
M  V30 1736 C 168.936 -1.6792 -0.271475 0
M  V30 1737 O 170.121 -1.93693 -0.140251 0
M  V30 1738 C 167.251 -3.46905 0.165659 0
M  V30 1739 C 166.205 -4.13203 1.11567 0
M  V30 1740 C 165.531 -5.33248 0.393809 0
M  V30 1741 C 166.831 -4.60912 2.45678 0
M  V30 1742 H 168.525 -2.4999 1.64758 0
M  V30 1743 H 166.071 -1.20156 0.793626 0
M  V30 1744 H 168.024 -4.21313 -0.085466 0
M  V30 1745 H 166.748 -3.17449 -0.767714 0
M  V30 1746 H 165.407 -3.40758 1.35202 0
M  V30 1747 H 165.055 -5.00054 -0.543599 0
M  V30 1748 H 164.755 -5.78552 1.02721 0
M  V30 1749 H 166.279 -6.10413 0.150908 0
M  V30 1750 H 167.693 -5.26759 2.26269 0
M  V30 1751 H 166.09 -5.16944 3.04776 0
M  V30 1752 H 167.16 -3.75603 3.06677 0
M  V30 1753 N 168.503 -0.877838 -1.30888 0
M  V30 1754 C 169.749 -0.493426 -1.96706 0
M  V30 1755 C 170.082 0.953504 -1.6918 0
M  V30 1756 O 169.357 1.67266 -0.992594 0
M  V30 1757 C 169.64 -0.760429 -3.51979 0
M  V30 1758 C 169.493 -2.25747 -3.89048 0
M  V30 1759 C 170.812 -0.232148 -4.39487 0
M  V30 1760 H 167.931 -0.180746 -0.714493 0
M  V30 1761 H 170.573 -1.10052 -1.54882 0
M  V30 1762 H 168.723 -0.243715 -3.87735 0
M  V30 1763 H 170.395 -2.84204 -3.63354 0
M  V30 1764 H 168.638 -2.72694 -3.37373 0
M  V30 1765 H 169.309 -2.39491 -4.97341 0
M  V30 1766 H 171.785 -0.674314 -4.106 0
M  V30 1767 H 170.661 -0.448355 -5.47066 0
M  V30 1768 H 170.922 0.866297 -4.33529 0
M  V30 1769 N 169.982 1.44106 -0.638065 0
M  V30 1770 C 170.929 2.30715 0.062701 0
M  V30 1771 C 171.899 1.43882 0.829883 0
M  V30 1772 O 173.084 1.72775 0.809532 0
M  V30 1773 C 170.224 3.29258 1.03358 0
M  V30 1774 C 169.337 4.31192 0.26409 0
M  V30 1775 C 168.472 5.16825 1.22741 0
M  V30 1776 C 167.511 6.10462 0.447475 0
M  V30 1777 N 166.648 6.8877 1.36161 0
M  V30 1778 H 171.488 2.90096 -0.681781 0
M  V30 1779 H 169.025 1.42925 -0.347988 0
M  V30 1780 H 170.983 3.84886 1.60992 0
M  V30 1781 H 169.613 2.71562 1.74511 0
M  V30 1782 H 168.665 3.77981 -0.428295 0
M  V30 1783 H 169.977 4.97619 -0.343052 0
M  V30 1784 H 169.131 5.77004 1.87487 0
M  V30 1785 H 167.87 4.50488 1.86847 0
M  V30 1786 H 166.875 5.49386 -0.213433 0
M  V30 1787 H 168.1 6.78837 -0.188968 0
M  V30 1788 H 166.046 6.25096 1.98975 0
M  V30 1789 H 165.963 7.51663 0.808656 0
M  V30 1790 H 167.231 7.53467 1.99769 0
M  V30 1791 N 171.46 0.379036 1.52974 0
M  V30 1792 C 172.39 -0.452706 2.29069 0
M  V30 1793 C 173.371 -1.07237 1.32039 0
M  V30 1794 O 174.556 -1.08708 1.60923 0
M  V30 1795 C 171.686 -1.5856 3.08992 0
M  V30 1796 C 170.64 -1.0925 4.13822 0
M  V30 1797 C 169.966 -2.31668 4.81907 0
M  V30 1798 C 171.266 -0.167702 5.22031 0
M  V30 1799 H 172.96 0.182181 2.98845 0
M  V30 1800 H 170.506 0.0890592 1.43724 0
M  V30 1801 H 172.459 -2.1742 3.6098 0
M  V30 1802 H 171.183 -2.24792 2.36931 0
M  V30 1803 H 169.842 -0.526494 3.628 0
M  V30 1804 H 169.49 -2.96386 4.06404 0
M  V30 1805 H 169.19 -1.9934 5.52754 0
M  V30 1806 H 170.714 -2.91189 5.36695 0
M  V30 1807 H 172.128 -0.664186 5.6944 0
M  V30 1808 H 170.525 0.0653265 6.00064 0
M  V30 1809 H 171.595 0.786347 4.78482 0
M  V30 1810 N 172.938 -1.57226 0.108567 0
M  V30 1811 C 173.848 -2.18292 -0.859401 0
M  V30 1812 C 174.864 -1.15612 -1.30038 0
M  V30 1813 O 176.04 -1.48039 -1.36552 0
M  V30 1814 C 173.105 -2.762 -2.09558 0
M  V30 1815 C 172.166 -3.93881 -1.70752 0
M  V30 1816 C 171.399 -4.49018 -2.88477 0
M  V30 1817 O 171.622 -4.03068 -4.036 0
M  V30 1818 O 170.556 -5.39852 -2.66164 0
M  V30 1819 H 174.382 -3.01441 -0.369769 0
M  V30 1820 H 171.967 -1.48945 -0.1165 0
M  V30 1821 H 173.849 -3.13156 -2.81978 0
M  V30 1822 H 172.524 -1.96089 -2.57548 0
M  V30 1823 H 171.431 -3.61713 -0.954714 0
M  V30 1824 H 172.764 -4.75396 -1.27513 0
M  V30 1825 N 174.416 0.165178 -1.56732 0
M  V30 1826 C 175.641 0.900253 -1.86843 0
M  V30 1827 C 176.066 1.74766 -0.695596 0
M  V30 1828 O 175.424 1.77786 0.35522 0
M  V30 1829 C 175.472 1.74777 -3.15413 0
M  V30 1830 O 174.576 2.85007 -2.98068 0
M  V30 1831 H 173.917 0.251832 -0.614391 0
M  V30 1832 H 176.447 0.161468 -2.03962 0
M  V30 1833 H 176.457 2.14646 -3.46974 0
M  V30 1834 H 175.132 1.12537 -4.00385 0
M  V30 1835 H 173.709 2.48676 -2.77875 0
M  V30 1836 N 175.894 1.51508 0.433938 0
M  V30 1837 C 177.142 1.6402 1.18075 0
M  V30 1838 C 177.463 0.360328 1.91642 0
M  V30 1839 O 176.733 -0.623945 1.85698 0
M  V30 1840 H 175.313 0.6045 0.43885 0
M  V30 1841 H 177.975 1.88452 0.497178 0
M  V30 1842 H 177.071 2.46949 1.90847 0
M  V30 1843 N 177.372 -0.689602 1.41712 0
M  V30 1844 C 178.302 -1.81577 1.46806 0
M  V30 1845 C 179.283 -1.66945 0.326105 0
M  V30 1846 O 180.468 -1.86588 0.538377 0
M  V30 1847 C 177.598 -3.19762 1.35535 0
M  V30 1848 C 176.552 -3.49107 2.47605 0
M  V30 1849 C 175.878 -4.86711 2.21397 0
M  V30 1850 C 177.178 -3.47483 3.89939 0
M  V30 1851 H 178.872 -1.7757 2.41058 0
M  V30 1852 H 176.418 -0.852887 1.16025 0
M  V30 1853 H 178.371 -3.98263 1.3771 0
M  V30 1854 H 177.095 -3.24409 0.377708 0
M  V30 1855 H 175.754 -2.72959 2.44722 0
M  V30 1856 H 175.402 -4.8799 1.21961 0
M  V30 1857 H 175.102 -5.0731 2.96497 0
M  V30 1858 H 176.626 -5.67515 2.25297 0
M  V30 1859 H 178.04 -4.1598 3.94505 0
M  V30 1860 H 176.437 -3.79615 4.64771 0
M  V30 1861 H 177.507 -2.46341 4.17665 0
M  V30 1862 N 178.85 -1.27639 -0.924453 0
M  V30 1863 C 179.797 -1.10644 -2.0255 0
M  V30 1864 C 180.767 -0.00658438 -1.66099 0
M  V30 1865 O 181.952 -0.16952 -1.90045 0
M  V30 1866 C 179.092 -0.76309 -3.36557 0
M  V30 1867 C 178.205 -1.94091 -3.85944 0
M  V30 1868 C 177.34 -1.53914 -5.08413 0
M  V30 1869 C 176.379 -2.68425 -5.50104 0
M  V30 1870 N 175.516 -2.28815 -6.63768 0
M  V30 1871 H 180.356 -2.04858 -2.16419 0
M  V30 1872 H 177.893 -1.01974 -1.06017 0
M  V30 1873 H 179.851 -0.544822 -4.13627 0
M  V30 1874 H 178.481 0.142102 -3.22487 0
M  V30 1875 H 177.533 -2.27162 -3.05125 0
M  V30 1876 H 178.845 -2.7998 -4.12811 0
M  V30 1877 H 177.999 -1.28231 -5.92994 0
M  V30 1878 H 176.738 -0.651391 -4.8333 0
M  V30 1879 H 175.743 -2.94819 -4.64071 0
M  V30 1880 H 176.968 -3.57826 -5.7718 0
M  V30 1881 H 174.914 -1.42495 -6.40337 0
M  V30 1882 H 174.831 -3.08242 -6.90306 0
M  V30 1883 H 176.099 -2.06387 -7.51681 0
M  V30 1884 N 180.328 1.1314 -1.09713 0
M  V30 1885 C 181.574 1.84757 -0.836224 0
M  V30 1886 C 181.907 1.8347 0.636598 0
M  V30 1887 O 181.182 1.27491 1.46889 0
M  V30 1888 C 181.465 3.32782 -1.37578 0
M  V30 1889 C 181.318 3.42567 -2.91493 0
M  V30 1890 C 182.637 4.28307 -1.01198 0
M  V30 1891 H 179.756 0.67082 -0.305236 0
M  V30 1892 H 182.398 1.3278 -1.35903 0
M  V30 1893 H 180.548 3.77177 -0.931097 0
M  V30 1894 H 182.22 3.06862 -3.44432 0
M  V30 1895 H 180.463 2.83349 -3.28475 0
M  V30 1896 H 181.134 4.46674 -3.24324 0
M  V30 1897 H 183.61 3.91999 -1.39556 0
M  V30 1898 H 182.486 5.30307 -1.41653 0
M  V30 1899 H 182.747 4.42029 0.0794833 0
M  V30 1900 N 181.806 0.884767 1.30421 0
M  V30 1901 C 183.036 0.517293 2.00019 0
M  V30 1902 C 183.444 -0.898632 1.66497 0
M  V30 1903 O 182.787 -1.60245 0.898181 0
M  V30 1904 C 182.849 0.612025 3.54252 0
M  V30 1905 C 182.513 1.99222 4.1129 0
M  V30 1906 C 183.51 2.9616 4.273 0
M  V30 1907 C 181.195 2.29755 4.46674 0
M  V30 1908 C 183.189 4.21764 4.77906 0
M  V30 1909 C 180.876 3.55606 4.96979 0
M  V30 1910 C 181.874 4.51425 5.12547 0
M  V30 1911 O 181.562 5.75043 5.61766 0
M  V30 1912 H 181.294 0.198529 0.64619 0
M  V30 1913 H 183.848 1.1919 1.67281 0
M  V30 1914 H 182.078 -0.119561 3.86515 0
M  V30 1915 H 183.767 0.255859 4.05093 0
M  V30 1916 H 184.533 2.73882 4.00267 0
M  V30 1917 H 180.412 1.55942 4.33824 0
M  V30 1918 H 183.956 4.96561 4.89972 0
M  V30 1919 H 179.853 3.7772 5.23448 0
M  V30 1920 H 180.621 5.77422 5.80109 0
M  V30 1921 N 183.284 -1.43765 0.645699 0
M  V30 1922 C 184.532 -2.01499 0.155731 0
M  V30 1923 C 184.853 -1.51151 -1.232 0
M  V30 1924 O 184.123 -0.721044 -1.82148 0
M  V30 1925 H 182.703 -0.745003 0.0545817 0
M  V30 1926 H 185.365 -1.76075 0.835677 0
M  V30 1927 H 184.461 -3.1181 0.134577 0
M  V30 1928 N 184.763 -0.387143 -1.52771 0
M  V30 1929 C 186.011 0.195349 -2.01154 0
M  V30 1930 C 186.332 1.475 -1.27549 0
M  V30 1931 O 185.602 1.91878 -0.394924 0
M  V30 1932 H 184.182 0.075178 -0.743207 0
M  V30 1933 H 186.844 -0.518337 -1.87881 0
M  V30 1934 H 185.94 0.407096 -3.09434 0
M  V30 1935 N 186.241 1.57166 -0.116904 0
M  V30 1936 C 187.518 1.86645 0.585049 0
M  V30 1937 C 187.898 1.0177 1.84949 0
M  V30 1938 O 187.246 0.0960379 2.28298 0
M  V30 1939 C 187.456 3.37736 0.879507 0
M  V30 1940 C 188.804 4.06289 1.23348 0
M  V30 1941 O 189.828 3.42743 0.969836 0
M  V30 1942 O 188.687 5.18455 1.7282 0
M  V30 1943 H 185.781 0.772593 0.295007 0
M  V30 1944 H 188.327 1.69025 -0.151249 0
M  V30 1945 H 187.099 3.91296 -0.0166136 0
M  V30 1946 H 186.722 3.6078 1.67103 0
M  V30 1947 N 187.719 -0.156864 1.56817 0
M  V30 1948 C 188.996 -0.899244 1.73704 0
M  V30 1949 C 189.376 -1.99771 0.682254 0
M  V30 1950 O 188.724 -2.26515 -0.300522 0
M  V30 1951 C 188.934 -1.45075 3.17418 0
M  V30 1952 C 190.282 -1.91802 3.7881 0
M  V30 1953 O 191.306 -1.54838 3.20786 0
M  V30 1954 O 190.165 -2.5994 4.80722 0
M  V30 1955 H 187.259 -0.424267 0.709878 0
M  V30 1956 H 189.805 -0.143561 1.69092 0
M  V30 1957 H 188.577 -0.660846 3.85679 0
M  V30 1958 H 188.2 -2.27021 3.26416 0
M  V30 1959 N 189.197 -1.51736 -0.425897 0
M  V30 1960 C 190.613 -1.40166 -0.76326 0
M  V30 1961 C 190.813 -0.492962 -1.95377 0
M  V30 1962 O 189.869 0.0475815 -2.52455 0
M  V30 1963 C 191.182 -2.82403 -1.03291 0
M  V30 1964 C 192.73 -2.91632 -1.13665 0
M  V30 1965 C 193.205 -4.34801 -1.43916 0
M  V30 1966 N 194.696 -4.3796 -1.50816 0
M  V30 1967 C 195.431 -5.4578 -1.75817 0
M  V30 1968 N 194.927 -6.63744 -1.98534 0
M  V30 1969 N 196.72 -5.33274 -1.77694 0
M  V30 1970 H 188.871 -2.09361 0.358 0
M  V30 1971 H 191.134 -0.942941 0.0978094 0
M  V30 1972 H 190.84 -3.50943 -0.230696 0
M  V30 1973 H 190.714 -3.22428 -1.95754 0
M  V30 1974 H 193.101 -2.23284 -1.92947 0
M  V30 1975 H 193.182 -2.55088 -0.190756 0
M  V30 1976 H 192.826 -5.03703 -0.65157 0
M  V30 1977 H 192.756 -4.68868 -2.39729 0
M  V30 1978 H 195.247 -3.52919 -1.35118 0
M  V30 1979 H 195.56 -7.41704 -2.17013 0
M  V30 1980 H 193.905 -6.66839 -1.95832 0
M  V30 1981 H 197.096 -4.40098 -1.59473 0
M  V30 1982 H 197.269 -6.1738 -1.9684 0
M  V30 1983 N 190.675 0.682077 -1.42076 0
M  V30 1984 C 191.924 1.43786 -1.41451 0
M  V30 1985 C 192.237 1.95574 -0.0317074 0
M  V30 1986 O 193.443 2.71326 0.0971462 0
M  V30 1987 C 191.899 2.60071 -2.48779 0
M  V30 1988 C 191.507 2.15013 -3.93031 0
M  V30 1989 C 193.251 3.37626 -2.57311 0
M  V30 1990 C 191.158 3.28336 -4.91883 0
M  V30 1991 H 190.088 0.540143 -0.526082 0
M  V30 1992 H 192.739 0.739157 -1.67955 0
M  V30 1993 H 191.121 3.32275 -2.15429 0
M  V30 1994 H 192.295 1.5001 -4.35699 0
M  V30 1995 H 190.61 1.50416 -3.88284 0
M  V30 1996 H 193.207 4.22012 -3.28345 0
M  V30 1997 H 193.55 3.83727 -1.61429 0
M  V30 1998 H 194.083 2.72488 -2.89819 0
M  V30 1999 H 190.822 2.87234 -5.89217 0
M  V30 2000 H 190.342 3.92145 -4.53853 0
M  V30 2001 H 192.021 3.93913 -5.13265 0
M  V30 2002 N 192.153 1.28127 0.917671 0
M  V30 2003 C 193.401 1.14825 1.66312 0
M  V30 2004 C 193.722 -0.304379 1.9261 0
M  V30 2005 O 192.992 -1.21149 1.53947 0
M  V30 2006 H 191.572 0.421953 0.616413 0
M  V30 2007 H 194.234 1.608 1.10134 0
M  V30 2008 H 193.33 1.68489 2.62712 0
M  V30 2009 N 193.631 -1.12557 1.10312 0
M  V30 2010 C 194.594 -2.16434 0.75424 0
M  V30 2011 C 195.594 -1.59278 -0.220685 0
M  V30 2012 O 196.784 -1.742 0.00230591 0
M  V30 2013 C 193.916 -3.40699 0.116987 0
M  V30 2014 H 195.109 -2.48811 1.67431 0
M  V30 2015 H 192.662 -1.27542 0.903475 0
M  V30 2016 H 193.397 -3.13921 -0.813877 0
M  V30 2017 H 193.182 -3.83459 0.818613 0
M  V30 2018 H 194.672 -4.17451 -0.111387 0
M  V30 2019 N 195.109 -0.891671 -1.2995 0
M  V30 2020 C 196.039 -0.379797 -2.30391 0
M  V30 2021 C 197.02 0.540919 -1.6127 0
M  V30 2022 O 198.205 0.453352 -1.88834 0
M  V30 2023 C 195.335 0.400654 -3.44981 0
M  V30 2024 C 194.289 -0.428905 -4.25846 0
M  V30 2025 C 193.615 0.478557 -5.32554 0
M  V30 2026 C 194.915 -1.67458 -4.94727 0
M  V30 2027 H 196.609 -1.21914 -2.73454 0
M  V30 2028 H 194.155 -0.587675 -1.31462 0
M  V30 2029 H 196.108 0.769434 -4.14316 0
M  V30 2030 H 194.832 1.27371 -3.0074 0
M  V30 2031 H 193.491 -0.779911 -3.58208 0
M  V30 2032 H 193.139 1.34951 -4.84559 0
M  V30 2033 H 192.839 -0.0727433 -5.87555 0
M  V30 2034 H 194.363 0.843705 -6.04743 0
M  V30 2035 H 195.777 -1.376 -5.56542 0
M  V30 2036 H 194.174 -2.16659 -5.59624 0
M  V30 2037 H 195.244 -2.41518 -4.20473 0
M  V30 2038 N 196.587 1.43421 -0.653314 0
M  V30 2039 C 197.815 2.06163 -0.174491 0
M  V30 2040 C 198.23 1.48969 1.1599 0
M  V30 2041 O 197.587 0.621042 1.71608 0
M  V30 2042 C 197.638 3.61417 -0.0774865 0
M  V30 2043 O 197.359 4.16485 -1.35912 0
M  V30 2044 C 198.86 4.41235 0.427402 0
M  V30 2045 H 196.08 0.664946 -0.0899353 0
M  V30 2046 H 198.624 1.83924 -0.893988 0
M  V30 2047 H 196.779 3.82841 0.59257 0
M  V30 2048 H 197.193 5.10153 -1.21839 0
M  V30 2049 H 198.667 5.5021 0.44423 0
M  V30 2050 H 199.144 4.14268 1.45873 0
M  V30 2051 H 199.75 4.2478 -0.210167 0
M  V30 2052 N 198.065 0.39524 1.52563 0
M  V30 2053 C 199.015 -0.4541 2.23432 0
M  V30 2054 C 199.999 -1.02482 1.24042 0
M  V30 2055 O 201.191 -0.949938 1.49349 0
M  V30 2056 C 198.32 -1.57769 3.049 0
M  V30 2057 C 197.406 -1.01842 4.1169 0
M  V30 2058 N 197.797 -0.184613 5.05463 0
M  V30 2059 C 196.095 -1.29033 4.26927 0
M  V30 2060 C 196.796 0.125013 5.81566 0
M  V30 2061 N 195.772 -0.480498 5.41472 0
M  V30 2062 H 199.574 0.189413 2.93289 0
M  V30 2063 H 197.088 0.204877 1.61102 0
M  V30 2064 H 199.085 -2.19862 3.54212 0
M  V30 2065 H 197.745 -2.22397 2.36579 0
M  V30 2066 H 198.756 0.178602 5.17592 0
M  V30 2067 H 195.433 -1.93721 3.69836 0
M  V30 2068 H 196.823 0.800962 6.67109 0
M  V30 2069 N 199.544 -1.57102 0.125237 0
M  V30 2070 C 200.491 -2.15641 -0.822655 0
M  V30 2071 C 201.461 -1.08313 -1.25927 0
M  V30 2072 O 202.646 -1.36251 -1.33567 0
M  V30 2073 C 199.786 -2.76504 -2.06494 0
M  V30 2074 C 198.899 -3.98158 -1.67612 0
M  V30 2075 C 198.034 -4.47088 -2.86854 0
M  V30 2076 C 197.073 -5.6126 -2.44242 0
M  V30 2077 N 196.21 -6.04905 -3.56419 0
M  V30 2078 H 201.05 -2.96313 -0.316625 0
M  V30 2079 H 198.587 -1.46388 -0.144588 0
M  V30 2080 H 200.545 -3.09925 -2.79289 0
M  V30 2081 H 199.175 -1.98512 -2.54545 0
M  V30 2082 H 198.227 -3.70858 -0.846661 0
M  V30 2083 H 199.539 -4.80934 -1.32301 0
M  V30 2084 H 198.693 -4.82451 -3.67867 0
M  V30 2085 H 197.432 -3.63275 -3.25396 0
M  V30 2086 H 196.437 -5.25495 -1.61663 0
M  V30 2087 H 197.662 -6.46843 -2.0681 0
M  V30 2088 H 195.608 -5.24032 -3.94623 0
M  V30 2089 H 195.525 -6.82552 -3.25051 0
M  V30 2090 H 196.793 -6.44907 -4.37853 0
M  V30 2091 N 201.022 0.148545 -1.56898 0
M  V30 2092 C 202.271 0.85984 -1.82454 0
M  V30 2093 C 202.584 1.82406 -0.706229 0
M  V30 2094 O 203.79 2.57938 -0.847349 0
M  V30 2095 C 202.246 1.57967 -3.2338 0
M  V30 2096 C 201.854 0.65794 -4.43142 0
M  V30 2097 C 203.598 2.27784 -3.58211 0
M  V30 2098 C 201.505 1.3793 -5.75091 0
M  V30 2099 H 200.435 0.324834 -0.68044 0
M  V30 2100 H 203.086 0.112588 -1.83154 0
M  V30 2101 H 201.468 2.37249 -3.17063 0
M  V30 2102 H 202.642 -0.0995497 -4.60692 0
M  V30 2103 H 200.957 0.0682643 -4.16344 0
M  V30 2104 H 203.554 2.8239 -4.54048 0
M  V30 2105 H 203.897 3.04204 -2.84193 0
M  V30 2106 H 204.43 1.55421 -3.66182 0
M  V30 2107 H 201.169 0.656982 -6.52199 0
M  V30 2108 H 200.689 2.10954 -5.61479 0
M  V30 2109 H 202.368 1.92063 -6.17835 0
M  V30 2110 N 202.5 1.5196 0.417844 0
M  V30 2111 C 203.728 1.69426 1.18753 0
M  V30 2112 C 204.143 0.399955 1.84515 0
M  V30 2113 O 203.5 -0.623288 1.71527 0
M  V30 2114 C 203.551 2.82375 2.25714 0
M  V30 2115 O 203.272 4.06793 1.62638 0
M  V30 2116 C 204.773 3.11277 3.15628 0
M  V30 2117 H 201.993 0.568031 0.357186 0
M  V30 2118 H 204.537 1.98475 0.49273 0
M  V30 2119 H 202.692 2.5587 2.90877 0
M  V30 2120 H 203.106 4.69667 2.3348 0
M  V30 2121 H 204.58 3.93843 3.86771 0
M  V30 2122 H 205.057 2.24473 3.77503 0
M  V30 2123 H 205.663 3.39515 2.56144 0
M  V30 2124 N 203.978 -0.674533 1.42435 0
M  V30 2125 C 204.928 -1.7807 1.4239 0
M  V30 2126 C 205.912 -1.58169 0.295202 0
M  V30 2127 O 207.104 -1.68643 0.537449 0
M  V30 2128 C 204.233 -3.16532 1.32901 0
M  V30 2129 C 203.319 -3.42055 2.50717 0
M  V30 2130 N 203.71 -3.38162 3.76139 0
M  V30 2131 C 202.008 -3.72692 2.44983 0
M  V30 2132 C 202.709 -3.63177 4.54398 0
M  V30 2133 N 201.685 -3.83954 3.84812 0
M  V30 2134 H 205.487 -1.73454 2.37257 0
M  V30 2135 H 203.001 -0.875381 1.36788 0
M  V30 2136 H 204.998 -3.958 1.30951 0
M  V30 2137 H 203.658 -3.22345 0.390363 0
M  V30 2138 H 204.669 -3.18057 4.0873 0
M  V30 2139 H 201.346 -3.85749 1.59699 0
M  V30 2140 H 202.736 -3.66125 5.63384 0
M  V30 2141 N 205.456 -1.28612 -0.910864 0
M  V30 2142 C 206.386 -1.15326 -2.03032 0
M  V30 2143 C 207.367 -0.0502924 -1.70026 0
M  V30 2144 O 208.552 -0.227797 -1.92859 0
M  V30 2145 C 205.682 -0.817343 -3.37545 0
M  V30 2146 C 204.636 -1.8754 -3.84724 0
M  V30 2147 C 203.962 -1.39305 -5.16235 0
M  V30 2148 C 205.262 -3.28244 -4.06267 0
M  V30 2149 H 206.956 -2.08975 -2.14406 0
M  V30 2150 H 204.502 -1.00612 -1.03021 0
M  V30 2151 H 206.455 -0.711151 -4.15356 0
M  V30 2152 H 205.179 0.154846 -3.26233 0
M  V30 2153 H 203.838 -1.97079 -3.09121 0
M  V30 2154 H 203.486 -0.409846 -5.01328 0
M  V30 2155 H 203.186 -2.10057 -5.48771 0
M  V30 2156 H 204.71 -1.30014 -5.96598 0
M  V30 2157 H 206.124 -3.21611 -4.74594 0
M  V30 2158 H 204.521 -3.96855 -4.5014 0
M  V30 2159 H 205.591 -3.72048 -3.10979 0
M  V30 2160 N 206.934 1.1197 -1.10907 0
M  V30 2161 C 208.159 1.87942 -0.877064 0
M  V30 2162 C 208.584 1.79341 0.567314 0
M  V30 2163 O 207.942 1.15184 1.40009 0
M  V30 2164 C 207.99 3.34926 -1.33629 0
M  V30 2165 O 207.094 4.09303 -0.504447 0
M  V30 2166 H 206.435 0.583785 -0.316371 0
M  V30 2167 H 208.965 1.4157 -1.47712 0
M  V30 2168 H 208.975 3.8577 -1.32837 0
M  V30 2169 H 207.65 3.40504 -2.3881 0
M  V30 2170 H 206.227 3.68393 -0.577993 0
M  V30 2171 N 208.412 0.89855 1.29475 0
M  V30 2172 C 209.64 0.539261 1.99749 0
M  V30 2173 C 210.055 -0.875716 1.67262 0
M  V30 2174 O 209.412 -1.57786 0.917049 0
M  V30 2175 C 209.463 0.72061 3.54245 0
M  V30 2176 O 209.184 2.07989 3.8558 0
M  V30 2177 C 210.685 0.366118 4.41786 0
M  V30 2178 H 207.905 0.207047 0.638258 0
M  V30 2179 H 210.449 1.20758 1.65039 0
M  V30 2180 H 208.604 0.0994862 3.87272 0
M  V30 2181 H 209.018 2.10841 4.80257 0
M  V30 2182 H 210.492 0.543848 5.49314 0
M  V30 2183 H 210.969 -0.696763 4.33638 0
M  V30 2184 H 211.575 0.964135 4.14228 0
M  V30 2185 N 209.89 -1.43072 0.660911 0
M  V30 2186 C 210.82 -2.33497 -0.0122829 0
M  V30 2187 C 211.801 -1.49903 -0.803925 0
M  V30 2188 O 212.986 -1.78546 -0.763864 0
M  V30 2189 C 210.116 -3.33363 -0.973994 0
M  V30 2190 C 209.07 -4.27003 -0.291928 0
M  V30 2191 C 208.396 -5.16967 -1.36562 0
M  V30 2192 C 209.696 -5.15816 0.820462 0
M  V30 2193 H 211.39 -2.90038 0.742873 0
M  V30 2194 H 208.936 -1.39461 0.358688 0
M  V30 2195 H 210.889 -3.95524 -1.45392 0
M  V30 2196 H 209.613 -2.75095 -1.7604 0
M  V30 2197 H 208.272 -3.66217 0.167623 0
M  V30 2198 H 207.92 -4.55034 -2.14366 0
M  V30 2199 H 207.62 -5.80441 -0.914454 0
M  V30 2200 H 209.144 -5.82003 -1.84675 0
M  V30 2201 H 210.558 -5.71742 0.422366 0
M  V30 2202 H 208.955 -5.8805 1.19656 0
M  V30 2203 H 210.025 -4.55045 1.67518 0
M  V30 2204 N 211.368 -0.403325 -1.52352 0
M  V30 2205 C 212.3 0.4603 -2.2453 0
M  V30 2206 C 213.313 1.01505 -1.27282 0
M  V30 2207 O 214.502 0.914982 -1.53266 0
M  V30 2208 C 211.602 1.65208 -2.95905 0
M  V30 2209 C 210.775 1.22224 -4.19976 0
M  V30 2210 C 209.834 2.28028 -4.74226 0
M  V30 2211 O 208.86 1.88857 -5.36956 0
M  V30 2212 N 210.062 3.6012 -4.55295 0
M  V30 2213 H 212.827 -0.158156 -2.99282 0
M  V30 2214 H 210.388 -0.230402 -1.60252 0
M  V30 2215 H 212.38 2.35541 -3.29093 0
M  V30 2216 H 210.95 2.17658 -2.24374 0
M  V30 2217 H 210.17 0.34725 -3.92668 0
M  V30 2218 H 211.458 0.911924 -5.00561 0
M  V30 2219 H 210.856 3.94698 -4.05253 0
M  V30 2220 H 209.413 4.26447 -4.92936 0
M  V30 2221 N 212.846 1.57033 -0.133567 0
M  V30 2222 C 214.092 1.95976 0.521649 0
M  V30 2223 C 214.425 1.01779 1.65393 0
M  V30 2224 O 213.7 0.0576581 1.94415 0
M  V30 2225 C 213.983 3.44738 1.04057 0
M  V30 2226 C 213.836 4.49711 -0.0892897 0
M  V30 2227 C 215.155 3.95682 1.92675 0
M  V30 2228 H 212.274 0.712579 0.188149 0
M  V30 2229 H 214.916 1.88813 -0.212076 0
M  V30 2230 H 213.066 3.50973 1.66583 0
M  V30 2231 H 214.738 4.55565 -0.725152 0
M  V30 2232 H 212.981 4.27261 -0.750378 0
M  V30 2233 H 213.652 5.51099 0.315284 0
M  V30 2234 H 216.128 3.91841 1.39998 0
M  V30 2235 H 215.004 5.00262 2.25897 0
M  V30 2236 H 215.265 3.37239 2.85872 0
M  V30 2237 N 214.325 -0.140222 1.56975 0
M  V30 2238 C 215.573 -0.850005 1.83356 0
M  V30 2239 C 215.894 -1.81399 0.71551 0
M  V30 2240 O 215.164 -1.94136 -0.262294 0
M  V30 2241 H 213.744 -0.316886 0.676456 0
M  V30 2242 H 216.406 -0.132608 1.94448 0
M  V30 2243 H 215.502 -1.40814 2.78528 0
M  V30 2244 N 215.803 -1.52179 -0.40978 0
M  V30 2245 C 217.028 -1.70347 -1.18308 0
M  V30 2246 C 217.453 -0.411887 -1.83535 0
M  V30 2247 O 216.811 0.630587 -1.6998 0
M  V30 2248 C 216.859 -2.83977 -2.22238 0
M  V30 2249 O 215.963 -2.495 -3.28365 0
M  V30 2250 H 215.304 -0.567103 -0.345384 0
M  V30 2251 H 217.834 -1.98879 -0.480445 0
M  V30 2252 H 217.844 -3.0887 -2.66577 0
M  V30 2253 H 216.519 -3.77685 -1.74146 0
M  V30 2254 H 215.096 -2.35277 -2.89308 0
M  V30 2255 N 217.281 0.66697 -1.42791 0
M  V30 2256 C 218.211 1.79218 -1.49677 0
M  V30 2257 C 219.192 1.66405 -0.352623 0
M  V30 2258 O 220.377 1.85708 -0.567993 0
M  V30 2259 C 217.507 3.17565 -1.40605 0
M  V30 2260 C 216.461 3.45124 -2.53127 0
M  V30 2261 C 215.787 4.83127 -2.29112 0
M  V30 2262 C 217.087 3.41236 -3.95418 0
M  V30 2263 H 218.781 1.73713 -2.43853 0
M  V30 2264 H 216.327 0.83432 -1.17367 0
M  V30 2265 H 218.28 3.96022 -1.44029 0
M  V30 2266 H 217.004 3.23767 -0.429271 0
M  V30 2267 H 215.663 2.69031 -2.49034 0
M  V30 2268 H 215.311 4.85988 -1.29709 0
M  V30 2269 H 215.011 5.02528 -3.04531 0
M  V30 2270 H 216.535 5.63859 -2.34297 0
M  V30 2271 H 217.949 4.09651 -4.01073 0
M  V30 2272 H 216.346 3.72173 -4.70752 0
M  V30 2273 H 217.416 2.39665 -4.21532 0
M  V30 2274 N 218.759 1.29093 0.90403 0
M  V30 2275 C 219.707 1.13727 2.02901 0
M  V30 2276 C 220.701 0.0539853 1.69314 0
M  V30 2277 O 221.907 0.213469 1.7873 0
M  V30 2278 H 218.282 0.35117 0.664969 0
M  V30 2279 H 220.253 2.08982 2.13001 0
M  V30 2280 C 219.002 0.826066 3.37745 0
M  V30 2281 H 218.325 1.65164 3.64089 0
M  V30 2282 H 219.765 0.758559 4.17159 0
M  V30 2283 C 218.224 -0.470541 3.33598 0
M  V30 2284 O 218.754 -1.49792 3.72727 0
M  V30 2285 N 216.96 -0.474812 2.86695 0
M  V30 2286 H 216.507 0.361692 2.55048 0
M  V30 2287 H 216.465 -1.34236 2.84303 0
M  V30 2288 N 220.237 -1.11381 1.11499 0
M  V30 2289 C 221.483 -1.83403 0.865512 0
M  V30 2290 C 221.816 -1.84459 -0.607329 0
M  V30 2291 O 221.091 -1.29811 -1.44842 0
M  V30 2292 C 221.374 -3.30552 1.42855 0
M  V30 2293 C 221.227 -3.37886 2.96906 0
M  V30 2294 C 222.546 -4.26643 1.08 0
M  V30 2295 H 219.665 -0.665879 0.31587 0
M  V30 2296 H 222.307 -1.30601 1.37998 0
M  V30 2297 H 220.457 -3.75648 0.990985 0
M  V30 2298 H 222.129 -3.01343 3.49271 0
M  V30 2299 H 220.372 -2.78088 3.32941 0
M  V30 2300 H 221.043 -4.41458 3.31389 0
M  V30 2301 H 223.519 -3.89729 1.45775 0
M  V30 2302 H 222.395 -5.27986 1.50072 0
M  V30 2303 H 222.656 -4.42099 -0.00915037 0
M  V30 2304 N 221.715 -0.905404 -1.28997 0
M  V30 2305 C 222.662 -0.385892 -2.27551 0
M  V30 2306 C 223.632 0.535113 -1.57244 0
M  V30 2307 O 224.817 0.459119 -1.85194 0
M  V30 2308 C 221.957 0.375461 -3.43051 0
M  V30 2309 C 221.07 -0.577092 -4.28128 0
M  V30 2310 C 220.205 0.201879 -5.30816 0
M  V30 2311 C 219.244 -0.744829 -6.07551 0
M  V30 2312 N 218.381 9.42587e-05 -7.021 0
M  V30 2313 H 223.221 -1.23139 -2.71368 0
M  V30 2314 H 220.758 -0.618542 -1.33463 0
M  V30 2315 H 222.716 0.832992 -4.088 0
M  V30 2316 H 221.346 1.18537 -3.00248 0
M  V30 2317 H 220.398 -1.15315 -3.62501 0
M  V30 2318 H 221.71 -1.30152 -4.8152 0
M  V30 2319 H 220.864 0.720351 -6.02408 0
M  V30 2320 H 219.603 0.959413 -4.7817 0
M  V30 2321 H 218.608 -1.27475 -5.34818 0
M  V30 2322 H 219.833 -1.50178 -6.62286 0
M  V30 2323 H 217.779 0.739791 -6.51815 0
M  V30 2324 H 217.696 -0.664321 -7.53076 0
M  V30 2325 H 218.964 0.498644 -7.77903 0
M  V30 2326 N 223.193 1.4272 -0.668489 0
M  V30 2327 C 224.433 2.03497 -0.19194 0
M  V30 2328 C 224.797 1.51684 1.17712 0
M  V30 2329 O 225.998 2.04205 1.74796 0
M  V30 2330 C 224.269 3.56734 -0.218032 0
M  V30 2331 S 225.828 4.38395 0.188438 0
M  V30 2332 H 222.646 0.706542 -0.0794959 0
M  V30 2333 H 225.248 1.74563 -0.880235 0
M  V30 2334 H 223.952 3.91943 -1.2169 0
M  V30 2335 H 223.483 3.90333 0.490303 0
M  V30 2336 H 225.498 4.75345 1.42345 0
M  V30 2337 N 224.671 0.411399 1.52136 0
M  V30 2338 C 225.601 -0.404015 2.29978 0
M  V30 2339 C 226.582 -1.04412 1.34284 0
M  V30 2340 O 227.767 -1.0527 1.63192 0
M  V30 2341 C 224.897 -1.5197 3.12286 0
M  V30 2342 C 223.851 -1.00448 4.16046 0
M  V30 2343 C 223.177 -2.21393 4.86712 0
M  V30 2344 C 224.477 -0.0569336 5.22269 0
M  V30 2345 H 226.171 0.245529 2.98392 0
M  V30 2346 H 223.717 0.119525 1.43503 0
M  V30 2347 H 225.67 -2.09715 3.6551 0
M  V30 2348 H 224.394 -2.19716 2.41646 0
M  V30 2349 H 223.053 -0.449421 3.63835 0
M  V30 2350 H 222.701 -2.87699 4.12599 0
M  V30 2351 H 222.401 -1.87571 5.56858 0
M  V30 2352 H 223.925 -2.7974 5.4275 0
M  V30 2353 H 225.339 -0.54325 5.7072 0
M  V30 2354 H 223.736 0.192594 5.99791 0
M  V30 2355 H 224.806 0.887663 4.76706 0
M  V30 2356 N 226.149 -1.5696 0.141893 0
M  V30 2357 C 227.112 -2.15316 -0.785587 0
M  V30 2358 C 228.112 -1.09366 -1.1788 0
M  V30 2359 O 229.302 -1.35031 -1.10056 0
M  V30 2360 C 226.434 -2.71211 -2.06537 0
M  V30 2361 H 227.627 -2.98608 -0.278041 0
M  V30 2362 H 225.18 -1.5593 -0.107519 0
M  V30 2363 H 225.915 -1.91571 -2.6167 0
M  V30 2364 H 225.7 -3.4872 -1.79268 0
M  V30 2365 H 227.19 -3.16189 -2.72789 0
M  V30 2366 N 227.627 0.131896 -1.57047 0
M  V30 2367 C 228.855 0.856461 -1.88341 0
M  V30 2368 C 229.27 1.74042 -0.731757 0
M  V30 2369 O 228.627 1.80051 0.297945 0
M  V30 2370 C 228.678 1.70064 -3.18999 0
M  V30 2371 O 228.399 0.852278 -4.2973 0
M  V30 2372 C 229.9 2.53148 -3.63911 0
M  V30 2373 H 227.12 0.246885 -0.62393 0
M  V30 2374 H 229.664 0.120152 -2.04147 0
M  V30 2375 H 227.819 2.38984 -3.04902 0
M  V30 2376 H 228.233 1.43329 -5.04537 0
M  V30 2377 H 229.707 3.07931 -4.58129 0
M  V30 2378 H 230.184 3.29901 -2.89935 0
M  V30 2379 H 230.79 1.89492 -3.80753 0
M  V30 2380 N 229.106 1.52395 0.401703 0
M  V30 2381 C 230.517 1.58899 0.980202 0
M  V30 2382 C 230.868 0.434032 1.91339 0
M  V30 2383 O 229.993 -0.444619 2.11783 0
M  V30 2384 C 230.588 2.87994 1.78451 0
M  V30 2385 C 229.147 2.96953 2.31292 0
M  V30 2386 C 228.294 2.53903 1.11483 0
M  V30 2387 H 231.245 1.57657 0.18168 0
M  V30 2388 H 231.266 2.73765 2.64259 0
M  V30 2389 H 230.778 3.72035 1.10506 0
M  V30 2390 H 228.879 2.17422 3.02586 0
M  V30 2391 H 228.992 4.01344 2.61649 0
M  V30 2392 H 227.356 2.07925 1.47104 0
M  V30 2393 H 228.139 3.40326 0.450928 0
M  V30 2394 N 230.584 -0.659388 1.43143 0
M  V30 2395 C 231.824 -1.43121 1.45931 0
M  V30 2396 C 232.188 -1.91838 0.0789298 0
M  V30 2397 O 233.389 -2.68794 -0.018491 0
M  V30 2398 C 231.66 -2.58534 2.46769 0
M  V30 2399 S 233.219 -3.47154 2.68384 0
M  V30 2400 H 230.037 -0.488624 0.516496 0
M  V30 2401 H 232.639 -0.766128 1.79863 0
M  V30 2402 H 231.343 -2.21007 3.45809 0
M  V30 2403 H 230.874 -3.29898 2.14315 0
M  V30 2404 H 232.889 -4.55051 1.97845 0
M  V30 2405 N 232.062 -1.29571 -0.897171 0
M  V30 2406 C 233.012 -1.11539 -1.98855 0
M  V30 2407 C 233.996 -0.0340716 -1.60864 0
M  V30 2408 O 235.188 -0.256062 -1.75138 0
M  V30 2409 C 232.317 -0.796603 -3.3393 0
M  V30 2410 C 231.403 -1.91758 -3.78272 0
M  V30 2411 N 231.794 -3.16143 -3.94826 0
M  V30 2412 C 230.092 -1.81119 -4.07568 0
M  V30 2413 C 230.793 -3.89293 -4.32233 0
M  V30 2414 N 229.769 -3.17255 -4.41419 0
M  V30 2415 H 233.571 -2.05894 -2.09726 0
M  V30 2416 H 231.085 -1.20732 -1.08616 0
M  V30 2417 H 233.082 -0.648459 -4.11826 0
M  V30 2418 H 231.742 0.139003 -3.24402 0
M  V30 2419 H 232.753 -3.5157 -3.80288 0
M  V30 2420 H 229.43 -0.948461 -4.06584 0
M  V30 2421 H 230.82 -4.9635 -4.52865 0
M  V30 2422 N 233.54 1.10788 -1.12088 0
M  V30 2423 C 234.768 1.86461 -0.896651 0
M  V30 2424 C 235.183 1.80492 0.553912 0
M  V30 2425 O 234.54 1.19102 1.38278 0
M  V30 2426 C 234.591 3.35006 -1.35843 0
M  V30 2427 O 234.312 3.40866 -2.75213 0
M  V30 2428 C 235.813 4.27565 -1.1706 0
M  V30 2429 H 233.033 0.589425 -0.320654 0
M  V30 2430 H 235.577 1.40076 -1.48993 0
M  V30 2431 H 233.732 3.7887 -0.808458 0
M  V30 2432 H 234.146 4.33411 -2.9539 0
M  V30 2433 H 235.62 5.30007 -1.54263 0
M  V30 2434 H 236.097 4.3906 -0.110814 0
M  V30 2435 H 236.703 3.89501 -1.70789 0
M  V30 2436 N 235.018 0.912232 1.28515 0
M  V30 2437 C 236.243 0.559774 1.99703 0
M  V30 2438 C 236.668 -0.851393 1.67729 0
M  V30 2439 O 236.026 -1.56875 0.908834 0
M  V30 2440 C 236.074 0.773874 3.52198 0
M  V30 2441 O 235.178 -0.167842 4.12058 0
M  V30 2442 H 234.519 0.21723 0.627461 0
M  V30 2443 H 237.049 1.22725 1.63706 0
M  V30 2444 H 237.059 0.683386 4.02236 0
M  V30 2445 H 235.734 1.80261 3.74805 0
M  V30 2446 H 234.311 -0.0287509 3.72889 0
M  V30 2447 N 236.496 -1.42363 0.676048 0
M  V30 2448 C 237.744 -2.01123 0.198437 0
M  V30 2449 C 238.065 -1.53731 -1.19966 0
M  V30 2450 O 237.335 -0.759518 -1.80577 0
M  V30 2451 H 235.915 -0.743678 0.0703721 0
M  V30 2452 H 238.577 -1.74263 0.872837 0
M  V30 2453 H 237.673 -3.11454 0.200686 0
M  V30 2454 N 237.974 -0.419461 -1.51915 0
M  V30 2455 C 238.924 0.418496 -2.24126 0
M  V30 2456 C 239.908 1.00495 -1.25656 0
M  V30 2457 O 241.1 0.926058 -1.50842 0
M  V30 2458 C 238.229 1.52899 -3.07371 0
M  V30 2459 C 237.315 0.952797 -4.13258 0
M  V30 2460 N 237.706 0.104175 -5.05693 0
M  V30 2461 C 236.004 1.22224 -4.28926 0
M  V30 2462 C 236.705 -0.21752 -5.81293 0
M  V30 2463 N 235.681 0.394293 -5.42168 0
M  V30 2464 H 239.483 -0.236048 -2.92951 0
M  V30 2465 H 236.997 -0.230481 -1.60756 0
M  V30 2466 H 238.994 2.14199 -3.57665 0
M  V30 2467 H 237.654 2.18605 -2.40088 0
M  V30 2468 H 238.665 -0.260924 -5.17242 0
M  V30 2469 H 235.342 1.87812 -3.72871 0
M  V30 2470 H 236.732 -0.906992 -6.6575 0
M  V30 2471 N 239.452 1.56882 -0.150215 0
M  V30 2472 C 240.701 1.95403 0.500071 0
M  V30 2473 C 241.014 1.03777 1.658 0
M  V30 2474 O 242.22 1.31889 2.37313 0
M  V30 2475 C 240.676 3.4738 0.941018 0
M  V30 2476 C 240.284 4.47596 -0.190158 0
M  V30 2477 C 242.028 3.9476 1.56091 0
M  V30 2478 C 239.935 5.90787 0.269237 0
M  V30 2479 H 238.865 0.729515 0.190588 0
M  V30 2480 H 241.516 1.81988 -0.235074 0
M  V30 2481 H 239.898 3.56138 1.73152 0
M  V30 2482 H 241.072 4.50536 -0.967157 0
M  V30 2483 H 239.387 4.10151 -0.718666 0
M  V30 2484 H 241.984 4.99181 1.9163 0
M  V30 2485 H 242.327 3.36494 2.45107 0
M  V30 2486 H 242.86 3.88932 0.835249 0
M  V30 2487 H 239.599 6.52879 -0.585621 0
M  V30 2488 H 239.119 5.912 1.01204 0
M  V30 2489 H 240.798 6.42979 0.720176 0
M  V30 2490 N 240.93 -0.123565 1.57115 0
M  V30 2491 C 242.17 -0.838097 1.86428 0
M  V30 2492 C 242.534 -1.77266 0.737611 0
M  V30 2493 O 243.735 -2.52842 0.912389 0
M  V30 2494 C 242.006 -1.57219 3.20962 0
M  V30 2495 S 243.565 -2.32893 3.71896 0
M  V30 2496 H 240.383 -0.279811 0.653626 0
M  V30 2497 H 242.985 -0.0967034 1.95261 0
M  V30 2498 H 241.689 -0.877522 4.00909 0
M  V30 2499 H 241.22 -2.35405 3.15195 0
M  V30 2500 H 243.235 -3.5853 3.43032 0
M  V30 2501 N 242.408 -1.52605 -0.393616 0
M  V30 2502 C 243.638 -1.71046 -1.15874 0
M  V30 2503 C 244.046 -0.426483 -1.84331 0
M  V30 2504 O 243.389 0.608513 -1.73329 0
M  V30 2505 C 243.451 -2.80118 -2.25332 0
M  V30 2506 C 243.115 -4.21381 -1.76881 0
M  V30 2507 C 244.112 -5.04697 -1.24808 0
M  V30 2508 C 241.797 -4.67683 -1.83244 0
M  V30 2509 C 243.791 -6.32393 -0.797387 0
M  V30 2510 C 241.478 -5.95364 -1.37787 0
M  V30 2511 C 242.476 -6.77549 -0.861208 0
M  V30 2512 O 242.164 -8.02837 -0.413252 0
M  V30 2513 H 241.896 -0.576155 -0.353583 0
M  V30 2514 H 244.45 -2.00018 -0.467123 0
M  V30 2515 H 242.68 -2.46557 -2.97904 0
M  V30 2516 H 244.369 -2.87006 -2.87023 0
M  V30 2517 H 245.135 -4.70111 -1.19252 0
M  V30 2518 H 241.014 -4.03805 -2.22401 0
M  V30 2519 H 244.558 -6.9649 -0.393437 0
M  V30 2520 H 240.455 -6.29455 -1.43026 0
M  V30 2521 H 241.223 -8.16749 -0.53515 0
M  V30 2522 N 243.887 0.651787 -1.4349 0
M  V30 2523 C 245.134 1.41167 -1.45183 0
M  V30 2524 C 245.462 1.94349 -0.0766601 0
M  V30 2525 O 244.717 1.72804 0.918555 0
M  V30 2526 C 245.016 2.60914 -2.44251 0
M  V30 2527 C 244.682 2.26142 -3.9009 0
M  V30 2528 C 243.344 2.16371 -4.2981 0
M  V30 2529 C 245.696 1.98334 -4.81989 0
M  V30 2530 C 243.024 1.7695 -5.5938 0
M  V30 2531 C 245.376 1.6041 -6.11924 0
M  V30 2532 C 244.04 1.49166 -6.5062 0
M  V30 2533 H 243.31 0.516566 -0.531263 0
M  V30 2534 H 245.957 0.741099 -1.76579 0
M  V30 2535 H 244.262 3.3311 -2.06265 0
M  V30 2536 H 245.959 3.19127 -2.42815 0
M  V30 2537 H 242.549 2.34658 -3.58655 0
M  V30 2538 H 246.733 2.04803 -4.52072 0
M  V30 2539 H 241.989 1.66831 -5.88198 0
M  V30 2540 H 246.163 1.37925 -6.82605 0
M  V30 2541 H 243.79 1.1839 -7.50925 0
M  V30 2542 N 245.365 1.30045 0.890287 0
M  V30 2543 C 246.611 1.18737 1.64406 0
M  V30 2544 C 246.944 -0.258525 1.92472 0
M  V30 2545 O 246.219 -1.18562 1.54186 0
M  V30 2546 C 246.502 2.01087 2.98724 0
M  V30 2547 C 246.355 3.53867 2.77665 0
M  V30 2548 C 247.674 1.84457 3.9958 0
M  V30 2549 H 244.793 0.432698 0.596608 0
M  V30 2550 H 247.435 1.5962 1.0306 0
M  V30 2551 H 245.585 1.66349 3.51084 0
M  V30 2552 H 247.257 3.98637 2.32133 0
M  V30 2553 H 245.5 3.78318 2.12269 0
M  V30 2554 H 246.171 4.06772 3.7315 0
M  V30 2555 H 248.647 2.14817 3.56361 0
M  V30 2556 H 247.523 2.44411 4.91482 0
M  V30 2557 H 247.784 0.802276 4.3476 0
M  V30 2558 N 246.843 -1.10192 1.12674 0
M  V30 2559 C 248.068 -1.86523 0.906853 0
M  V30 2560 C 248.493 -1.80221 -0.538711 0
M  V30 2561 O 247.851 -1.17396 -1.38158 0
M  V30 2562 C 247.899 -3.32758 1.3894 0
M  V30 2563 O 247.003 -4.08449 0.5695 0
M  V30 2564 H 246.344 -0.578678 0.325619 0
M  V30 2565 H 248.874 -1.39203 1.49946 0
M  V30 2566 H 248.884 -3.83608 1.38958 0
M  V30 2567 H 247.559 -3.36661 2.44197 0
M  V30 2568 H 246.136 -3.67427 0.636528 0
M  V30 2569 N 248.321 -0.919034 -1.28029 0
M  V30 2570 C 249.268 -0.410005 -2.27129 0
M  V30 2571 C 250.238 0.518405 -1.57803 0
M  V30 2572 O 251.423 0.439451 -1.8567 0
M  V30 2573 C 248.563 0.339054 -3.4343 0
M  V30 2574 C 247.676 -0.622468 -4.27492 0
M  V30 2575 C 246.811 0.145567 -5.31001 0
M  V30 2576 C 245.85 -0.809226 -6.06727 0
M  V30 2577 N 244.987 -0.0743728 -7.02061 0
M  V30 2578 H 249.827 -1.26011 -2.70047 0
M  V30 2579 H 247.364 -0.632663 -1.328 0
M  V30 2580 H 249.322 0.789586 -4.0966 0
M  V30 2581 H 247.952 1.15346 -3.01488 0
M  V30 2582 H 247.004 -1.19153 -3.61257 0
M  V30 2583 H 248.316 -1.35252 -4.80113 0
M  V30 2584 H 247.47 0.656417 -6.03139 0
M  V30 2585 H 246.209 0.908643 -4.79161 0
M  V30 2586 H 245.214 -1.3314 -5.33436 0
M  V30 2587 H 246.439 -1.57194 -6.60656 0
M  V30 2588 H 244.385 0.670616 -6.52563 0
M  V30 2589 H 244.302 -0.744157 -7.52329 0
M  V30 2590 H 245.57 0.416109 -7.78389 0
M  V30 2591 N 249.799 1.42003 -0.683588 0
M  V30 2592 C 251.21 1.84501 -0.285736 0
M  V30 2593 C 251.561 1.57213 1.17382 0
M  V30 2594 O 250.686 1.03642 1.89966 0
M  V30 2595 C 251.281 3.34912 -0.511821 0
M  V30 2596 C 249.84 3.76025 -0.168005 0
M  V30 2597 C 248.987 2.6551 -0.799983 0
M  V30 2598 H 251.938 1.31724 -0.885119 0
M  V30 2599 H 251.959 3.79784 0.233292 0
M  V30 2600 H 251.471 3.54741 -1.57418 0
M  V30 2601 H 249.572 3.61801 0.890567 0
M  V30 2602 H 249.685 4.75141 -0.614661 0
M  V30 2603 H 248.049 2.53654 -0.230568 0
M  V30 2604 H 248.832 2.8816 -1.86597 0
M  V30 2605 N 251.277 0.427512 1.51691 0
M  V30 2606 C 252.525 -0.141948 2.01601 0
M  V30 2607 C 252.846 -1.44067 1.31414 0
M  V30 2608 O 252.116 -1.90763 0.445658 0
M  V30 2609 H 250.696 -0.0554468 0.744939 0
M  V30 2610 H 253.358 0.567968 1.86441 0
M  V30 2611 H 252.454 -0.324913 3.10404 0
M  V30 2612 N 252.755 -1.56801 0.158532 0
M  V30 2613 C 254.003 -1.96102 -0.488712 0
M  V30 2614 C 254.324 -1.04498 -1.64636 0
M  V30 2615 O 253.594 -0.108783 -1.95598 0
M  V30 2616 H 252.174 -0.724102 -0.183535 0
M  V30 2617 H 254.836 -1.93457 0.236728 0
M  V30 2618 H 253.932 -3.00097 -0.857219 0
M  V30 2619 N 254.233 0.115231 -1.57178 0
M  V30 2620 C 255.458 0.840354 -1.89612 0
M  V30 2621 C 255.883 1.72464 -0.750845 0
M  V30 2622 O 255.241 1.78826 0.298478 0
M  V30 2623 C 255.289 1.64654 -3.20814 0
M  V30 2624 O 254.393 2.7538 -3.06985 0
M  V30 2625 H 253.734 0.232158 -0.622092 0
M  V30 2626 H 256.264 0.0964977 -2.04372 0
M  V30 2627 H 256.274 2.03499 -3.53627 0
M  V30 2628 H 254.949 0.997416 -4.03763 0
M  V30 2629 H 253.526 2.3971 -2.85646 0
M  V30 2630 N 255.711 1.52812 0.385517 0
M  V30 2631 C 256.621 1.80766 1.49535 0
M  V30 2632 C 257.637 0.694651 1.59532 0
M  V30 2633 O 258.813 0.982611 1.75803 0
M  V30 2634 C 255.878 1.97381 2.85029 0
M  V30 2635 C 254.939 3.21295 2.84724 0
M  V30 2636 C 254.172 3.37108 4.13756 0
M  V30 2637 O 254.395 2.5765 5.08893 0
M  V30 2638 O 253.329 4.30378 4.20783 0
M  V30 2639 H 257.155 2.75015 1.28842 0
M  V30 2640 H 254.74 1.37946 0.573697 0
M  V30 2641 H 256.622 2.09996 3.65349 0
M  V30 2642 H 255.297 1.06322 3.05741 0
M  V30 2643 H 254.204 3.1412 2.03174 0
M  V30 2644 H 255.537 4.12212 2.68965 0
M  V30 2645 N 257.189 -0.644168 1.43834 0
M  V30 2646 C 258.6 -1.22554 1.40845 0
M  V30 2647 C 258.951 -1.9585 0.117115 0
M  V30 2648 O 258.076 -2.01734 -0.783086 0
M  V30 2649 C 258.671 -2.22907 2.55143 0
M  V30 2650 C 257.23 -2.76501 2.5539 0
M  V30 2651 C 256.377 -1.51287 2.32396 0
M  V30 2652 H 259.328 -0.43563 1.52604 0
M  V30 2653 H 259.349 -3.05259 2.2715 0
M  V30 2654 H 258.861 -1.69533 3.49114 0
M  V30 2655 H 256.962 -3.33914 1.65324 0
M  V30 2656 H 257.075 -3.23429 3.53455 0
M  V30 2657 H 255.439 -1.78957 1.81236 0
M  V30 2658 H 256.222 -0.998336 3.28463 0
M  V30 2659 N 258.668 -1.30515 -0.883378 0
M  V30 2660 C 260.079 -1.17509 -1.45081 0
M  V30 2661 C 260.43 0.223605 -1.94922 0
M  V30 2662 O 259.555 1.12041 -1.85137 0
M  V30 2663 C 260.15 -2.12715 -2.63701 0
M  V30 2664 C 258.709 -2.03682 -3.16529 0
M  V30 2665 C 257.856 -2.02706 -1.89224 0
M  V30 2666 H 260.807 -1.42762 -0.693165 0
M  V30 2667 H 260.828 -1.70891 -3.39965 0
M  V30 2668 H 260.34 -3.14505 -2.27395 0
M  V30 2669 H 258.441 -1.05039 -3.57488 0
M  V30 2670 H 258.554 -2.92146 -3.7972 0
M  V30 2671 H 256.918 -1.4753 -2.07622 0
M  V30 2672 H 257.701 -3.06229 -1.55174 0
M  V30 2673 N 260.146 1.09593 -1.13257 0
M  V30 2674 C 261.109 2.14359 -0.811358 0
M  V30 2675 C 262.109 1.59808 0.178377 0
M  V30 2676 O 263.299 1.74132 -0.0484911 0
M  V30 2677 C 260.431 3.40269 -0.207276 0
M  V30 2678 H 261.624 2.44284 -1.73969 0
M  V30 2679 H 259.177 1.25102 -0.936973 0
M  V30 2680 H 259.912 3.15969 0.73036 0
M  V30 2681 H 259.697 3.81154 -0.919992 0
M  V30 2682 H 261.187 4.176 0.000667944 0
M  V30 2683 N 261.624 0.925811 1.2754 0
M  V30 2684 C 262.87 0.566092 1.94739 0
M  V30 2685 C 263.203 -0.890057 1.72603 0
M  V30 2686 O 262.478 -1.63467 1.05399 0
M  V30 2687 C 262.761 0.89054 3.48915 0
M  V30 2688 C 262.614 2.4003 3.80402 0
M  V30 2689 C 263.933 0.395101 4.38323 0
M  V30 2690 H 261.052 0.20714 0.707292 0
M  V30 2691 H 263.694 1.15725 1.50691 0
M  V30 2692 H 261.844 0.387452 3.86563 0
M  V30 2693 H 263.516 2.97494 3.52555 0
M  V30 2694 H 261.759 2.85028 3.2702 0
M  V30 2695 H 262.43 2.57785 4.8811 0
M  V30 2696 H 264.906 0.826241 4.07814 0
M  V30 2697 H 263.782 0.651086 5.45025 0
M  V30 2698 H 264.043 -0.704798 4.36446 0
M  V30 2699 N 263.102 -1.41638 0.69111 0
M  V30 2700 C 264.349 -2.01299 0.220193 0
M  V30 2701 C 264.677 -1.54715 -1.17871 0
M  V30 2702 O 263.932 -0.747193 -1.80874 0
M  V30 2703 C 264.231 -3.56714 0.221277 0
M  V30 2704 C 263.897 -4.22792 1.56709 0
M  V30 2705 C 262.559 -4.40557 1.93554 0
M  V30 2706 C 264.911 -4.59883 2.45268 0
M  V30 2707 C 262.239 -4.92688 3.18552 0
M  V30 2708 C 264.591 -5.13403 3.69595 0
M  V30 2709 C 263.255 -5.29379 4.06589 0
M  V30 2710 H 262.525 -0.736606 0.0805743 0
M  V30 2711 H 265.172 -1.69598 0.889319 0
M  V30 2712 H 263.477 -3.8818 -0.531391 0
M  V30 2713 H 265.174 -4.00678 -0.160547 0
M  V30 2714 H 261.764 -4.09336 1.2705 0
M  V30 2715 H 265.948 -4.45817 2.18084 0
M  V30 2716 H 261.204 -5.03242 3.47214 0
M  V30 2717 H 265.378 -5.41084 4.38407 0
M  V30 2718 H 263.005 -5.69537 5.03519 0
M  V30 2719 N 264.58 -0.43555 -1.51462 0
M  V30 2720 C 265.808 0.130242 -2.0649 0
M  V30 2721 C 266.223 1.36614 -1.30315 0
M  V30 2722 O 265.58 1.78869 -0.362223 0
M  V30 2723 C 265.631 0.454253 -3.58635 0
M  V30 2724 O 265.352 -0.73259 -4.31931 0
M  V30 2725 C 266.853 1.07091 -4.3017 0
M  V30 2726 H 264.073 0.00871669 -0.670943 0
M  V30 2727 H 266.617 -0.614117 -1.95061 0
M  V30 2728 H 264.772 1.14851 -3.69984 0
M  V30 2729 H 265.186 -0.455787 -5.22516 0
M  V30 2730 H 266.66 1.24764 -5.37716 0
M  V30 2731 H 267.137 2.05144 -3.88346 0
M  V30 2732 H 267.743 0.416089 -4.2326 0
M  V30 2733 N 266.058 1.56714 -0.166846 0
M  V30 2734 C 267.306 1.96358 0.478305 0
M  V30 2735 C 267.627 1.0537 1.6408 0
M  V30 2736 O 266.897 0.119154 1.95537 0
M  V30 2737 H 265.477 0.725065 0.179692 0
M  V30 2738 H 268.139 1.93329 -0.246985 0
M  V30 2739 H 267.235 3.00547 0.841292 0
M  V30 2740 N 267.536 -0.106894 1.57237 0
M  V30 2741 C 268.813 -0.843526 1.76477 0
M  V30 2742 C 269.193 -1.97499 0.745464 0
M  V30 2743 O 268.541 -2.27357 -0.228306 0
M  V30 2744 C 268.751 -1.34903 3.21873 0
M  V30 2745 C 270.099 -1.79654 3.8472 0
M  V30 2746 O 271.123 -1.44554 3.2555 0
M  V30 2747 O 269.982 -2.44515 4.88748 0
M  V30 2748 H 267.076 -0.401468 0.723016 0
M  V30 2749 H 269.622 -0.0896927 1.69463 0
M  V30 2750 H 268.394 -0.53781 3.87586 0
M  V30 2751 H 268.017 -2.16522 3.33473 0
M  V30 2752 N 269.014 -1.53014 -0.377408 0
M  V30 2753 C 270.242 -1.72515 -1.14219 0
M  V30 2754 C 270.657 -0.448735 -1.8339 0
M  V30 2755 O 270.014 0.577592 -1.73119 0
M  V30 2756 C 270.065 -2.8826 -2.18148 0
M  V30 2757 O 269.786 -4.10962 -1.51795 0
M  V30 2758 C 271.287 -3.19536 -3.07264 0
M  V30 2759 H 268.507 -0.577301 -0.342001 0
M  V30 2760 H 271.051 -1.99712 -0.439935 0
M  V30 2761 H 269.206 -2.63492 -2.83991 0
M  V30 2762 H 269.62 -4.75693 -2.20945 0
M  V30 2763 H 271.094 -4.03959 -3.76193 0
M  V30 2764 H 271.571 -2.34403 -3.71419 0
M  V30 2765 H 272.177 -3.46186 -2.47053 0
M  V30 2766 N 270.492 0.636531 -1.44174 0
M  V30 2767 C 271.422 1.76003 -1.53444 0
M  V30 2768 C 272.403 1.65619 -0.387841 0
M  V30 2769 O 273.588 1.84461 -0.607257 0
M  V30 2770 C 270.718 3.14511 -1.4731 0
M  V30 2771 C 269.672 3.39677 -2.60391 0
M  V30 2772 C 268.998 4.78159 -2.39308 0
M  V30 2773 C 270.298 3.32772 -4.02567 0
M  V30 2774 H 271.992 1.68501 -2.47483 0
M  V30 2775 H 269.538 0.809237 -1.19111 0
M  V30 2776 H 271.491 3.92878 -1.52397 0
M  V30 2777 H 270.215 3.22783 -0.49785 0
M  V30 2778 H 268.874 2.63688 -2.54684 0
M  V30 2779 H 268.522 4.83128 -1.39988 0
M  V30 2780 H 268.222 4.95956 -3.15122 0
M  V30 2781 H 269.746 5.58762 -2.46205 0
M  V30 2782 H 271.16 4.01051 -4.09672 0
M  V30 2783 H 269.557 3.62104 -4.7854 0
M  V30 2784 H 270.627 2.30669 -4.2652 0
M  V30 2785 N 271.97 1.30982 0.876444 0
M  V30 2786 C 273.217 1.20296 1.62896 0
M  V30 2787 C 273.545 -0.240395 1.93009 0
M  V30 2788 O 272.8 -1.18733 1.55567 0
M  V30 2789 C 273.099 1.98572 2.9716 0
M  V30 2790 C 272.765 3.48125 2.86566 0
M  V30 2791 C 271.427 3.88905 2.83383 0
M  V30 2792 C 273.779 4.43322 2.74071 0
M  V30 2793 C 271.107 5.2316 2.65556 0
M  V30 2794 C 273.459 5.77695 2.57781 0
M  V30 2795 C 272.123 6.17704 2.52979 0
M  V30 2796 H 271.393 0.440193 0.59608 0
M  V30 2797 H 274.04 1.62177 1.01837 0
M  V30 2798 H 272.345 1.49352 3.62217 0
M  V30 2799 H 274.042 1.8769 3.54364 0
M  V30 2800 H 270.632 3.15723 2.89856 0
M  V30 2801 H 274.816 4.12752 2.75589 0
M  V30 2802 H 270.072 5.53241 2.60259 0
M  V30 2803 H 274.246 6.51091 2.47089 0
M  V30 2804 H 271.873 7.21678 2.38924 0
M  V30 2805 N 273.449 -1.08991 1.13837 0
M  V30 2806 C 274.695 -1.81526 0.90422 0
M  V30 2807 C 275.028 -1.85706 -0.568066 0
M  V30 2808 O 274.303 -1.32855 -1.42056 0
M  V30 2809 C 274.586 -3.27447 1.49835 0
M  V30 2810 C 274.439 -3.31512 3.04006 0
M  V30 2811 C 275.758 -4.24256 1.17025 0
M  V30 2812 H 272.877 -0.659029 0.329923 0
M  V30 2813 H 275.519 -1.27644 1.40737 0
M  V30 2814 H 273.669 -3.73462 1.07044 0
M  V30 2815 H 275.341 -2.93867 3.55584 0
M  V30 2816 H 273.584 -2.70963 3.38765 0
M  V30 2817 H 274.255 -4.34329 3.40679 0
M  V30 2818 H 276.731 -3.86549 1.54009 0
M  V30 2819 H 275.607 -5.24684 1.61237 0
M  V30 2820 H 275.868 -4.42019 0.0846274 0
M  V30 2821 N 274.927 -0.932562 -1.27047 0
M  V30 2822 C 275.89 -0.440064 -2.24936 0
M  V30 2823 C 276.89 0.444071 -1.54547 0
M  V30 2824 O 278.08 0.244465 -1.72476 0
M  V30 2825 C 275.212 0.36678 -3.38921 0
M  V30 2826 H 276.405 -1.305 -2.70018 0
M  V30 2827 H 273.958 -0.713707 -1.39054 0
M  V30 2828 H 274.693 1.25033 -2.99228 0
M  V30 2829 H 274.478 -0.267204 -3.91188 0
M  V30 2830 H 275.968 0.701567 -4.11665 0
M  V30 2831 N 276.405 1.4127 -0.698611 0
M  V30 2832 C 277.653 2.00782 -0.230409 0
M  V30 2833 C 277.974 1.5562 1.17505 0
M  V30 2834 O 277.244 0.78815 1.79346 0
M  V30 2835 H 275.824 0.742464 -0.0821944 0
M  V30 2836 H 278.486 1.72852 -0.90045 0
M  V30 2837 H 277.582 3.11095 -0.25021 0
M  V30 2838 N 277.883 0.443576 1.51229 0
M  V30 2839 C 279.123 -0.119889 2.04048 0
M  V30 2840 C 279.487 -1.39418 1.32009 0
M  V30 2841 O 280.688 -2.03829 1.75235 0
M  V30 2842 C 278.959 -0.327233 3.55899 0
M  V30 2843 S 280.518 -0.853208 4.30425 0
M  V30 2844 H 277.336 -0.028921 0.710412 0
M  V30 2845 H 279.938 0.604413 1.85922 0
M  V30 2846 H 278.642 0.606445 4.05895 0
M  V30 2847 H 278.173 -1.07844 3.7833 0
M  V30 2848 H 280.188 -2.13005 4.48155 0
M  V30 2849 N 279.361 -1.56624 0.175154 0
M  V30 2850 C 280.609 -1.96609 -0.467885 0
M  V30 2851 C 280.93 -1.06238 -1.63519 0
M  V30 2852 O 280.2 -0.129523 -1.95471 0
M  V30 2853 H 278.78 -0.726008 -0.175845 0
M  V30 2854 H 281.442 -1.93195 0.257234 0
M  V30 2855 H 280.538 -3.00989 -0.825342 0
M  V30 2856 N 280.839 0.0985539 -1.57292 0
M  V30 2857 C 281.786 1.11981 -2.01814 0
M  V30 2858 C 282.756 1.39999 -0.89384 0
M  V30 2859 O 283.941 1.5152 -1.15958 0
M  V30 2860 C 281.081 2.43577 -2.44467 0
M  V30 2861 C 280.194 2.2232 -3.70402 0
M  V30 2862 C 279.329 3.4729 -4.01949 0
M  V30 2863 C 278.368 3.2128 -5.21005 0
M  V30 2864 N 277.505 4.38507 -5.48321 0
M  V30 2865 H 282.345 0.733149 -2.88841 0
M  V30 2866 H 279.882 0.350482 -1.42864 0
M  V30 2867 H 281.84 3.20373 -2.6724 0
M  V30 2868 H 280.47 2.80097 -1.60455 0
M  V30 2869 H 279.522 1.36343 -3.55126 0
M  V30 2870 H 280.834 1.99089 -4.57345 0
M  V30 2871 H 279.988 4.32495 -4.25479 0
M  V30 2872 H 278.727 3.73572 -3.13521 0
M  V30 2873 H 277.732 2.34468 -4.97298 0
M  V30 2874 H 278.957 2.96348 -6.11028 0
M  V30 2875 H 276.903 4.64871 -4.62851 0
M  V30 2876 H 276.82 4.18455 -6.29628 0
M  V30 2877 H 278.088 5.24787 -5.76385 0
M  V30 2878 N 282.317 1.53212 0.369288 0
M  V30 2879 C 283.564 1.69215 1.11232 0
M  V30 2880 C 283.892 0.442048 1.8941 0
M  V30 2881 O 283.147 -0.575944 1.87033 0
M  V30 2882 C 283.446 2.89101 2.10132 0
M  V30 2883 C 283.112 4.25758 1.48463 0
M  V30 2884 C 281.774 4.6292 1.31372 0
M  V30 2885 C 284.126 5.10757 1.03811 0
M  V30 2886 C 281.454 5.82722 0.68207 0
M  V30 2887 C 283.806 6.31201 0.420487 0
M  V30 2888 C 282.47 6.67079 0.237038 0
M  V30 2889 H 281.74 0.619201 0.407027 0
M  V30 2890 H 284.387 1.87391 0.394552 0
M  V30 2891 H 282.692 2.65421 2.88199 0
M  V30 2892 H 284.389 2.98676 2.6757 0
M  V30 2893 H 280.979 3.96494 1.62758 0
M  V30 2894 H 285.163 4.82599 1.1581 0
M  V30 2895 H 280.419 6.09113 0.528316 0
M  V30 2896 H 284.593 6.96368 0.0662874 0
M  V30 2897 H 282.22 7.59774 -0.254477 0
M  V30 2898 N 283.795 -0.628877 1.44509 0
M  V30 2899 C 285.025 -1.41349 1.50678 0
M  V30 2900 C 285.433 -1.88745 0.131075 0
M  V30 2901 O 284.776 -1.61592 -0.87371 0
M  V30 2902 C 284.838 -2.66608 2.41165 0
M  V30 2903 C 284.502 -2.40993 3.88293 0
M  V30 2904 C 285.499 -2.0268 4.78766 0
M  V30 2905 C 283.184 -2.54563 4.33016 0
M  V30 2906 C 285.178 -1.78269 6.11963 0
M  V30 2907 C 282.865 -2.29766 5.6626 0
M  V30 2908 C 283.863 -1.91678 6.55552 0
M  V30 2909 O 283.551 -1.67158 7.86329 0
M  V30 2910 H 283.283 -0.439851 0.51333 0
M  V30 2911 H 285.837 -0.776084 1.90174 0
M  V30 2912 H 284.067 -3.32994 1.96601 0
M  V30 2913 H 285.756 -3.28615 2.38259 0
M  V30 2914 H 286.522 -1.91751 4.45485 0
M  V30 2915 H 282.401 -2.83179 3.63773 0
M  V30 2916 H 285.945 -1.48465 6.81619 0
M  V30 2917 H 281.842 -2.40306 5.99102 0
M  V30 2918 H 282.61 -1.81386 7.98149 0
M  V30 2919 N 285.273 -1.31445 -0.869486 0
M  V30 2920 C 286.183 -1.21097 -2.0093 0
M  V30 2921 C 287.199 -0.127584 -1.73532 0
M  V30 2922 O 288.375 -0.345477 -1.98415 0
M  V30 2923 C 285.44 -0.919378 -3.34288 0
M  V30 2924 C 284.501 -2.08971 -3.75006 0
M  V30 2925 C 283.734 -1.81194 -5.02001 0
M  V30 2926 O 283.957 -0.747296 -5.65484 0
M  V30 2927 O 282.891 -2.66883 -5.39497 0
M  V30 2928 H 286.717 -2.16883 -2.12592 0
M  V30 2929 H 284.302 -1.11189 -0.997868 0
M  V30 2930 H 286.184 -0.772625 -4.14257 0
M  V30 2931 H 284.859 0.00844772 -3.23699 0
M  V30 2932 H 283.766 -2.29187 -2.95676 0
M  V30 2933 H 285.099 -2.9998 -3.90221 0
M  V30 2934 N 286.751 1.08385 -1.14413 0
M  V30 2935 C 287.999 1.80419 -0.910679 0
M  V30 2936 C 288.32 1.86658 0.564243 0
M  V30 2937 O 287.59 1.35985 1.41014 0
M  V30 2938 H 286.17 0.668204 -0.333934 0
M  V30 2939 H 288.832 1.31037 -1.44275 0
M  V30 2940 H 287.928 2.83238 -1.31082 0
M  V30 2941 N 288.23 0.939286 1.26551 0
M  V30 2942 C 289.458 0.602536 1.97932 0
M  V30 2943 C 289.873 -0.82206 1.69964 0
M  V30 2944 O 289.23 -1.54789 0.966784 0
M  V30 2945 C 289.281 0.832946 3.51773 0
M  V30 2946 O 289.002 2.20151 3.78768 0
M  V30 2947 C 290.503 0.506483 4.40397 0
M  V30 2948 H 287.723 0.227248 0.631347 0
M  V30 2949 H 290.267 1.25948 1.61113 0
M  V30 2950 H 288.422 0.222644 3.8676 0
M  V30 2951 H 288.836 2.26013 4.73306 0
M  V30 2952 H 290.31 0.718333 5.47306 0
M  V30 2953 H 290.787 -0.558451 4.35635 0
M  V30 2954 H 291.393 1.09543 4.10951 0
M  V30 2955 N 289.708 -1.40897 0.706093 0
M  V30 2956 C 290.671 -2.29131 0.0562841 0
M  V30 2957 C 291.671 -1.44901 -0.697166 0
M  V30 2958 O 292.861 -1.65926 -0.530484 0
M  V30 2959 C 289.993 -3.27957 -0.93043 0
M  V30 2960 H 291.186 -2.88091 0.833284 0
M  V30 2961 H 288.739 -1.4906 0.470192 0
M  V30 2962 H 289.474 -2.73997 -1.73482 0
M  V30 2963 H 289.259 -3.90124 -0.393166 0
M  V30 2964 H 290.749 -3.94049 -1.38256 0
M  V30 2965 N 291.186 -0.45159 -1.50991 0
M  V30 2966 C 292.463 0.170707 -1.94854 0
M  V30 2967 C 292.843 1.58788 -1.39103 0
M  V30 2968 O 292.191 2.20913 -0.583921 0
M  V30 2969 C 292.401 0.133929 -3.48743 0
M  V30 2970 C 293.749 0.33248 -4.23296 0
M  V30 2971 O 294.773 0.211403 -3.55572 0
M  V30 2972 O 293.632 0.57486 -5.43468 0
M  V30 2973 H 290.726 0.122264 -0.817912 0
M  V30 2974 H 293.272 -0.510594 -1.61836 0
M  V30 2975 H 292.044 -0.856283 -3.81816 0
M  V30 2976 H 291.667 0.857529 -3.88242 0
M  V30 2977 N 292.664 1.56529 -0.183458 0
M  V30 2978 C 293.574 2.22144 0.754272 0
M  V30 2979 C 294.59 1.21684 1.24374 0
M  V30 2980 O 295.766 1.54385 1.29333 0
M  V30 2981 C 292.831 2.85884 1.96141 0
M  V30 2982 C 291.892 4.01579 1.51765 0
M  V30 2983 C 291.125 4.6227 2.66725 0
M  V30 2984 O 291.348 4.21865 3.83909 0
M  V30 2985 O 290.282 5.51936 2.40104 0
M  V30 2986 H 294.108 3.02861 0.225527 0
M  V30 2987 H 291.693 1.49331 0.0453032 0
M  V30 2988 H 293.575 3.26253 2.66715 0
M  V30 2989 H 292.25 2.08154 2.47899 0
M  V30 2990 H 291.157 3.65856 0.781049 0
M  V30 2991 H 292.49 4.80938 1.04686 0
M  V30 2992 N 294.142 -0.090211 1.57342 0
M  V30 2993 C 295.075 -1.14035 1.97664 0
M  V30 2994 C 296.053 -1.38576 0.850616 0
M  V30 2995 O 297.237 -1.52255 1.11134 0
M  V30 2996 C 294.364 -2.48854 2.2976 0
M  V30 2997 C 293.41 -2.40564 3.52181 0
M  V30 2998 S 294.243 -1.81745 5.03715 0
M  V30 2999 C 295.399 -3.18178 5.38993 0
M  V30 3000 H 295.632 -0.796636 2.86428 0
M  V30 3001 H 293.165 -0.298072 1.51496 0
M  V30 3002 H 295.123 -3.26413 2.48927 0
M  V30 3003 H 293.784 -2.80393 1.41558 0
M  V30 3004 H 292.977 -3.39942 3.72096 0
M  V30 3005 H 292.579 -1.71135 3.32549 0
M  V30 3006 H 294.871 -4.14461 5.35937 0
M  V30 3007 H 295.814 -3.03062 6.39968 0
M  V30 3008 H 296.222 -3.17935 4.66452 0
M  V30 3009 N 295.62 -1.53406 -0.361157 0
M  V30 3010 C 296.86 -1.71507 -1.11197 0
M  V30 3011 C 297.224 -0.459337 -1.86425 0
M  V30 3012 O 298.425 -0.517102 -2.63779 0
M  V30 3013 C 296.696 -2.93307 -2.0422 0
M  V30 3014 S 298.255 -3.32135 -2.86761 0
M  V30 3015 H 295.073 -0.603448 -0.375995 0
M  V30 3016 H 297.675 -1.91516 -0.392642 0
M  V30 3017 H 296.379 -3.82891 -1.47724 0
M  V30 3018 H 295.91 -2.75712 -2.80618 0
M  V30 3019 H 297.925 -2.84493 -4.06544 0
M  V30 3020 N 297.098 0.621204 -1.44841 0
M  V30 3021 C 298.045 1.73267 -1.5247 0
M  V30 3022 C 299.015 1.6189 -0.371611 0
M  V30 3023 O 300.2 1.81668 -0.58321 0
M  V30 3024 C 297.34 3.11545 -1.48438 0
M  V30 3025 C 296.453 3.33827 -2.74196 0
M  V30 3026 C 295.588 4.62133 -2.61929 0
M  V30 3027 C 294.627 4.77627 -3.82804 0
M  V30 3028 N 293.764 5.97219 -3.69153 0
M  V30 3029 H 298.604 1.66082 -2.47428 0
M  V30 3030 H 296.141 0.810026 -1.22788 0
M  V30 3031 H 298.099 3.91528 -1.4409 0
M  V30 3032 H 296.729 3.1772 -0.570402 0
M  V30 3033 H 295.781 2.47715 -2.88689 0
M  V30 3034 H 297.093 3.41153 -3.6389 0
M  V30 3035 H 296.247 5.50291 -2.5547 0
M  V30 3036 H 294.986 4.57182 -1.69811 0
M  V30 3037 H 293.991 3.87896 -3.89637 0
M  V30 3038 H 295.216 4.84385 -4.75971 0
M  V30 3039 H 293.162 5.93339 -2.79794 0
M  V30 3040 H 293.079 6.05644 -4.52472 0
M  V30 3041 H 294.347 6.87912 -3.66603 0
M  V30 3042 N 298.576 1.31904 0.862503 0
M  V30 3043 C 299.539 1.20131 1.95195 0
M  V30 3044 C 300.539 0.126409 1.60302 0
M  V30 3045 O 301.729 0.376234 1.70089 0
M  V30 3046 C 298.861 0.845691 3.30244 0
M  V30 3047 H 300.054 2.16943 2.07064 0
M  V30 3048 H 297.607 1.15622 1.05172 0
M  V30 3049 H 298.342 -0.120957 3.24074 0
M  V30 3050 H 298.127 1.62276 3.56944 0
M  V30 3051 H 299.617 0.787418 4.10109 0
M  V30 3052 N 300.054 -1.07777 1.14986 0
M  V30 3053 C 300.984 -2.16865 0.865557 0
M  V30 3054 C 301.965 -1.69123 -0.182083 0
M  V30 3055 O 303.15 -1.94164 -0.0373815 0
M  V30 3056 C 300.28 -3.45539 0.349313 0
M  V30 3057 C 299.234 -4.06708 1.33313 0
M  V30 3058 C 298.56 -5.30411 0.675918 0
M  V30 3059 C 299.86 -4.47241 2.69764 0
M  V30 3060 H 301.554 -2.40905 1.77778 0
M  V30 3061 H 299.1 -1.15781 0.856203 0
M  V30 3062 H 301.053 -4.21174 0.137983 0
M  V30 3063 H 299.777 -3.21072 -0.598362 0
M  V30 3064 H 298.436 -3.33112 1.53075 0
M  V30 3065 H 298.084 -5.02232 -0.277767 0
M  V30 3066 H 297.784 -5.72293 1.33244 0
M  V30 3067 H 299.308 -6.08755 0.474262 0
M  V30 3068 H 300.722 -5.14025 2.53873 0
M  V30 3069 H 299.119 -5.00062 3.3175 0
M  V30 3070 H 300.189 -3.58818 3.26156 0
M  V30 3071 N 301.532 -0.945985 -1.26051 0
M  V30 3072 C 302.462 -0.477172 -2.28572 0
M  V30 3073 C 303.443 0.472032 -1.63419 0
M  V30 3074 O 304.628 0.372853 -1.90587 0
M  V30 3075 C 301.758 0.253975 -3.4637 0
M  V30 3076 C 300.712 -0.609135 -4.23643 0
M  V30 3077 C 300.038 0.252252 -5.34105 0
M  V30 3078 C 301.338 -1.8829 -4.8718 0
M  V30 3079 H 303.032 -1.33402 -2.68038 0
M  V30 3080 H 300.578 -0.642904 -1.28852 0
M  V30 3081 H 302.531 0.593016 -4.17207 0
M  V30 3082 H 301.255 1.145 -3.05871 0
M  V30 3083 H 299.914 -0.931138 -3.54578 0
M  V30 3084 H 299.562 1.14278 -4.89846 0
M  V30 3085 H 299.262 -0.32188 -5.86718 0
M  V30 3086 H 300.786 0.586454 -6.07777 0
M  V30 3087 H 302.2 -1.61081 -5.50205 0
M  V30 3088 H 300.597 -2.40199 -5.49931 0
M  V30 3089 H 301.667 -2.59134 -4.09851 0
M  V30 3090 N 303.011 1.40521 -0.713556 0
M  V30 3091 C 303.921 2.34522 -0.0606667 0
M  V30 3092 C 304.937 1.57193 0.74607 0
M  V30 3093 O 306.113 1.89591 0.679493 0
M  V30 3094 C 303.178 3.36081 0.851491 0
M  V30 3095 C 302.239 4.29286 0.0349339 0
M  V30 3096 C 301.472 5.25994 0.903649 0
M  V30 3097 O 301.695 5.28616 2.14292 0
M  V30 3098 O 300.629 6.00918 0.343723 0
M  V30 3099 H 304.455 2.91968 -0.835972 0
M  V30 3100 H 302.04 1.41681 -0.47402 0
M  V30 3101 H 303.922 3.98369 1.37404 0
M  V30 3102 H 302.597 2.81052 1.60598 0
M  V30 3103 H 301.504 3.70289 -0.532633 0
M  V30 3104 H 302.837 4.87462 -0.681287 0
M  V30 3105 N 304.489 0.459591 1.5075 0
M  V30 3106 C 305.735 -0.0994966 2.02556 0
M  V30 3107 C 306.068 -1.40399 1.3417 0
M  V30 3108 O 305.343 -1.88892 0.463683 0
M  V30 3109 C 305.626 -0.295242 3.58888 0
M  V30 3110 C 305.479 1.02947 4.37861 0
M  V30 3111 C 306.798 -1.05502 4.27267 0
M  V30 3112 H 303.917 -0.034686 0.736183 0
M  V30 3113 H 306.559 0.602938 1.8018 0
M  V30 3114 H 304.709 -0.893563 3.78084 0
M  V30 3115 H 306.381 1.66348 4.30263 0
M  V30 3116 H 304.624 1.62885 4.02058 0
M  V30 3117 H 305.295 0.846281 5.45474 0
M  V30 3118 H 307.771 -0.547993 4.12476 0
M  V30 3119 H 306.647 -1.16077 5.36486 0
M  V30 3120 H 306.908 -2.08875 3.89645 0
M  V30 3121 N 305.967 -1.56429 0.191757 0
M  V30 3122 C 306.897 -2.21937 -0.725696 0
M  V30 3123 C 307.878 -1.1814 -1.2238 0
M  V30 3124 O 309.063 -1.46636 -1.27325 0
M  V30 3125 C 306.193 -2.87611 -1.94672 0
M  V30 3126 C 305.147 -3.97623 -1.58366 0
M  V30 3127 C 304.473 -4.50446 -2.88102 0
M  V30 3128 C 305.773 -5.16197 -0.796133 0
M  V30 3129 H 307.467 -2.98861 -0.179606 0
M  V30 3130 H 305.013 -1.43749 -0.0849464 0
M  V30 3131 H 306.966 -3.3212 -2.59373 0
M  V30 3132 H 305.69 -2.08087 -2.51728 0
M  V30 3133 H 304.349 -3.53801 -0.960247 0
M  V30 3134 H 303.997 -3.67688 -3.43241 0
M  V30 3135 H 303.697 -5.24675 -2.64556 0
M  V30 3136 H 305.221 -4.97654 -3.53798 0
M  V30 3137 H 306.635 -5.57271 -1.34618 0
M  V30 3138 H 305.032 -5.96471 -0.658928 0
M  V30 3139 H 306.102 -4.84473 0.203478 0
M  V30 3140 N 307.445 0.0818655 -1.57387 0
M  V30 3141 C 308.693 0.781368 -1.86384 0
M  V30 3142 C 309.014 1.78618 -0.782342 0
M  V30 3143 O 308.284 1.94976 0.190061 0
M  V30 3144 H 306.864 0.291562 -0.687751 0
M  V30 3145 H 309.526 0.060348 -1.94807 0
M  V30 3146 H 308.622 1.3038 -2.83562 0
M  V30 3147 N 308.923 1.53595 0.353017 0
M  V30 3148 C 310.339 1.43648 0.695516 0
M  V30 3149 C 310.539 0.585617 1.92802 0
M  V30 3150 O 309.595 0.0729223 2.52395 0
M  V30 3151 C 310.908 2.8701 0.896991 0
M  V30 3152 C 312.456 2.96723 0.996209 0
M  V30 3153 C 312.931 4.41173 1.23007 0
M  V30 3154 N 314.422 4.44657 1.29749 0
M  V30 3155 C 315.157 5.53547 1.49577 0
M  V30 3156 N 314.653 6.72461 1.66639 0
M  V30 3157 N 316.446 5.41145 1.52048 0
M  V30 3158 H 308.597 2.07415 -0.457481 0
M  V30 3159 H 310.86 0.9372 -0.142687 0
M  V30 3160 H 310.566 3.51644 0.0629938 0
M  V30 3161 H 310.44 3.31401 1.80148 0
M  V30 3162 H 312.827 2.32235 1.82074 0
M  V30 3163 H 312.908 2.55707 0.0688331 0
M  V30 3164 H 312.552 5.06238 0.410505 0
M  V30 3165 H 312.482 4.79772 2.17086 0
M  V30 3166 H 314.973 3.58963 1.18126 0
M  V30 3167 H 315.286 7.51214 1.81378 0
M  V30 3168 H 313.631 6.75423 1.63794 0
M  V30 3169 H 316.822 4.47205 1.38294 0
M  V30 3170 H 316.995 6.26068 1.67159 0
M  V30 3171 N 310.401 -0.613514 1.45168 0
M  V30 3172 C 311.331 -1.7354 1.56225 0
M  V30 3173 C 312.312 -1.64981 0.41414 0
M  V30 3174 O 313.497 -1.83472 0.636526 0
M  V30 3175 C 310.627 -3.12128 1.52295 0
M  V30 3176 C 309.581 -3.35491 2.65762 0
M  V30 3177 C 308.907 -4.74291 2.46885 0
M  V30 3178 C 310.207 -3.26325 4.0781 0
M  V30 3179 H 311.901 -1.64543 2.50132 0
M  V30 3180 H 309.447 -0.790185 1.20383 0
M  V30 3181 H 311.4 -3.90404 1.58628 0
M  V30 3182 H 310.124 -3.2195 0.549139 0
M  V30 3183 H 308.783 -2.59603 2.58847 0
M  V30 3184 H 308.431 -4.80839 1.47657 0
M  V30 3185 H 308.131 -4.9088 3.22972 0
M  V30 3186 H 309.655 -5.54775 2.55063 0
M  V30 3187 H 311.069 -3.94483 4.16 0
M  V30 3188 H 309.466 -3.54445 4.8424 0
M  V30 3189 H 310.536 -2.23855 4.30136 0
M  V30 3190 N 311.879 -1.3236 -0.855495 0
M  V30 3191 C 313.29 -1.2056 -1.42556 0
M  V30 3192 C 313.641 0.182209 -1.95352 0
M  V30 3193 O 312.766 1.08088 -1.87472 0
M  V30 3194 C 313.361 -2.1826 -2.59129 0
M  V30 3195 C 311.92 -2.10351 -3.12137 0
M  V30 3196 C 311.067 -2.06674 -1.84882 0
M  V30 3197 H 314.018 -1.442 -0.662727 0
M  V30 3198 H 314.039 -1.78064 -3.36264 0
M  V30 3199 H 313.551 -3.19257 -2.20673 0
M  V30 3200 H 311.652 -1.12599 -3.55179 0
M  V30 3201 H 311.765 -3.00135 -3.73438 0
M  V30 3202 H 310.129 -1.51901 -2.04446 0
M  V30 3203 H 310.912 -3.09451 -1.48643 0
M  V30 3204 N 313.357 1.07166 -1.15556 0
M  V30 3205 C 314.768 1.6127 -0.940693 0
M  V30 3206 C 315.119 1.89251 0.517551 0
M  V30 3207 O 314.244 1.65937 1.38903 0
M  V30 3208 C 314.839 2.92993 -1.7012 0
M  V30 3209 C 313.398 3.43832 -1.53156 0
M  V30 3210 C 312.545 2.1786 -1.71558 0
M  V30 3211 H 315.496 0.90229 -1.30554 0
M  V30 3212 H 315.517 3.62007 -1.17181 0
M  V30 3213 H 315.029 2.72596 -2.76248 0
M  V30 3214 H 313.13 3.69307 -0.494294 0
M  V30 3215 H 313.243 4.19747 -2.30975 0
M  V30 3216 H 311.607 2.2765 -1.14225 0
M  V30 3217 H 312.39 1.99956 -2.79056 0
M  V30 3218 N 314.835 0.952656 1.25548 0
M  V30 3219 C 316.112 0.523818 1.88456 0
M  V30 3220 C 316.492 -0.998871 1.85973 0
M  V30 3221 O 315.84 -1.86381 1.3219 0
M  V30 3222 C 316.05 1.0982 3.31271 0
M  V30 3223 C 317.398 1.17385 4.08051 0
M  V30 3224 O 318.422 1.04961 3.40384 0
M  V30 3225 O 317.281 1.36852 5.29088 0
M  V30 3226 H 314.375 0.172485 0.808813 0
M  V30 3227 H 316.921 1.04596 1.33633 0
M  V30 3228 H 315.693 2.1415 3.27499 0
M  V30 3229 H 315.316 0.559191 3.93648 0
M  V30 3230 N 316.313 -1.40141 0.720998 0
M  V30 3231 C 317.541 -2.05096 0.272656 0
M  V30 3232 C 317.956 -1.54334 -1.0875 0
M  V30 3233 O 317.313 -0.702211 -1.6845 0
M  V30 3234 C 317.364 -3.60636 0.249835 0
M  V30 3235 O 317.085 -4.09526 1.55629 0
M  V30 3236 C 318.586 -4.42772 -0.216396 0
M  V30 3237 H 315.806 -0.659897 0.121558 0
M  V30 3238 H 318.35 -1.79449 0.980723 0
M  V30 3239 H 316.505 -3.85232 -0.409237 0
M  V30 3240 H 316.919 -5.03758 1.4604 0
M  V30 3241 H 318.393 -5.51702 -0.181212 0
M  V30 3242 H 318.87 -4.20756 -1.25941 0
M  V30 3243 H 319.476 -4.23294 0.412596 0
M  V30 3244 N 317.792 -0.46758 -1.50504 0
M  V30 3245 C 319.208 -0.121533 -1.59137 0
M  V30 3246 C 319.408 1.3717 -1.47603 0
M  V30 3247 O 318.464 2.14464 -1.33272 0
M  V30 3248 C 319.777 -0.6686 -2.93173 0
M  V30 3249 C 321.325 -0.631716 -3.06559 0
M  V30 3250 C 321.8 -1.15627 -4.43164 0
M  V30 3251 N 323.291 -1.11553 -4.49567 0
M  V30 3252 C 324.026 -1.49195 -5.5365 0
M  V30 3253 N 323.522 -1.94269 -6.65005 0
M  V30 3254 N 325.315 -1.4082 -5.44175 0
M  V30 3255 H 317.466 -1.4388 -1.56245 0
M  V30 3256 H 319.729 -0.594784 -0.738198 0
M  V30 3257 H 319.435 -1.71453 -3.07078 0
M  V30 3258 H 319.309 -0.11021 -3.77039 0
M  V30 3259 H 321.696 0.405297 -2.92304 0
M  V30 3260 H 321.777 -1.22687 -2.24458 0
M  V30 3261 H 321.421 -2.1919 -4.58168 0
M  V30 3262 H 321.351 -0.537365 -5.23851 0
M  V30 3263 H 323.842 -0.784895 -3.69659 0
M  V30 3264 H 324.155 -2.21148 -7.40482 0
M  V30 3265 H 322.5 -1.98219 -6.66134 0
M  V30 3266 H 325.691 -1.0545 -4.56068 0
M  V30 3267 H 325.864 -1.70481 -6.25172 0
M  V30 3268 N 319.27 1.56325 -0.20005 0
M  V30 3269 C 320.516 1.98012 0.438059 0
M  V30 3270 C 320.849 1.08702 1.60927 0
M  V30 3271 O 320.124 0.140064 1.93995 0
M  V30 3272 C 320.407 3.48841 0.893419 0
M  V30 3273 C 320.26 4.48928 -0.279947 0
M  V30 3274 C 321.579 4.03498 1.75719 0
M  V30 3275 H 318.698 0.719918 0.157757 0
M  V30 3276 H 321.34 1.87743 -0.291968 0
M  V30 3277 H 319.49 3.57723 1.51547 0
M  V30 3278 H 321.162 4.52079 -0.91772 0
M  V30 3279 H 319.405 4.23694 -0.930919 0
M  V30 3280 H 320.076 5.5194 0.0812601 0
M  V30 3281 H 322.552 3.97427 1.23253 0
M  V30 3282 H 321.428 5.09393 2.04476 0
M  V30 3283 H 321.689 3.4906 2.71311 0
M  V30 3284 N 320.748 -0.0735177 1.57428 0
M  V30 3285 C 321.978 -0.78483 1.91112 0
M  V30 3286 C 322.386 -1.71729 0.7941 0
M  V30 3287 O 321.729 -1.82105 -0.241542 0
M  V30 3288 C 321.791 -1.63346 3.20247 0
M  V30 3289 C 321.455 -0.870557 4.48632 0
M  V30 3290 C 322.452 -0.19058 5.19551 0
M  V30 3291 C 320.137 -0.838242 4.95256 0
M  V30 3292 C 322.131 0.511503 6.35344 0
M  V30 3293 C 319.818 -0.132386 6.10957 0
M  V30 3294 C 320.816 0.541288 6.80852 0
M  V30 3295 O 320.504 1.23578 7.94345 0
M  V30 3296 H 320.236 -0.228408 0.636244 0
M  V30 3297 H 322.79 -0.0486039 2.05342 0
M  V30 3298 H 321.02 -2.41245 3.02222 0
M  V30 3299 H 322.709 -2.22329 3.39595 0
M  V30 3300 H 323.475 -0.206864 4.84559 0
M  V30 3301 H 319.354 -1.35206 4.40727 0
M  V30 3302 H 322.898 1.03789 6.89836 0
M  V30 3303 H 318.795 -0.114023 6.45399 0
M  V30 3304 H 319.563 1.14487 8.10454 0
M  V30 3305 N 322.226 -1.5378 -0.344866 0
M  V30 3306 C 323.466 -1.72677 -1.09371 0
M  V30 3307 C 323.83 -0.479084 -1.85927 0
M  V30 3308 O 325.031 -0.54505 -2.63216 0
M  V30 3309 C 323.302 -2.95457 -2.01097 0
M  V30 3310 S 324.861 -3.35158 -2.83222 0
M  V30 3311 H 321.679 -0.607402 -0.369573 0
M  V30 3312 H 324.281 -1.91922 -0.372307 0
M  V30 3313 H 322.985 -3.84437 -1.43655 0
M  V30 3314 H 322.516 -2.78673 -2.77678 0
M  V30 3315 H 324.531 -2.88789 -4.03504 0
M  V30 3316 N 323.704 0.605807 -1.45491 0
M  V30 3317 C 324.952 1.36207 -1.49305 0
M  V30 3318 C 325.273 1.94519 -0.136863 0
M  V30 3319 O 324.543 1.77261 0.833983 0
M  V30 3320 H 323.123 0.50565 -0.549843 0
M  V30 3321 H 325.785 0.711239 -1.81459 0
M  V30 3322 H 324.881 2.18058 -2.23287 0
M  V30 3323 N 325.182 1.32811 0.848464 0
M  V30 3324 C 326.132 1.18842 1.94578 0
M  V30 3325 C 327.116 0.0937517 1.60627 0
M  V30 3326 O 328.308 0.320887 1.74067 0
M  V30 3327 C 325.437 0.91999 3.30743 0
M  V30 3328 C 324.523 2.05665 3.70894 0
M  V30 3329 N 324.914 3.30579 3.8282 0
M  V30 3330 C 323.212 1.9612 4.00566 0
M  V30 3331 C 323.913 4.05067 4.17487 0
M  V30 3332 N 322.889 3.33419 4.2934 0
M  V30 3333 H 326.691 2.13536 2.0194 0
M  V30 3334 H 324.205 1.2468 1.0406 0
M  V30 3335 H 326.202 0.800859 4.09136 0
M  V30 3336 H 324.862 -0.0185076 3.24695 0
M  V30 3337 H 325.873 3.65441 3.66978 0
M  V30 3338 H 322.55 1.09871 4.02784 0
M  V30 3339 H 323.94 5.12815 4.34131 0
M  V30 3340 N 326.66 -1.06551 1.16123 0
M  V30 3341 C 327.57 -2.17484 0.879662 0
M  V30 3342 C 328.586 -1.73377 -0.147104 0
M  V30 3343 O 329.762 -2.01379 0.0289128 0
M  V30 3344 C 326.827 -3.44591 0.381829 0
M  V30 3345 C 325.888 -4.0322 1.4735 0
M  V30 3346 C 325.121 -5.24261 0.999324 0
M  V30 3347 O 325.344 -5.70198 -0.151957 0
M  V30 3348 O 324.278 -5.74775 1.78653 0
M  V30 3349 H 328.104 -2.44075 1.80724 0
M  V30 3350 H 325.689 -1.16042 0.940992 0
M  V30 3351 H 327.571 -4.21254 0.111053 0
M  V30 3352 H 326.246 -3.19532 -0.51777 0
M  V30 3353 H 325.153 -3.2806 1.79798 0
M  V30 3354 H 326.486 -4.32568 2.34831 0
M  V30 3355 N 328.138 -0.959301 -1.25041 0
M  V30 3356 C 329.368 -0.63303 -1.96663 0
M  V30 3357 C 329.776 0.800031 -1.71453 0
M  V30 3358 O 329.119 1.54736 -0.99008 0
M  V30 3359 C 329.181 -0.817523 -3.50081 0
M  V30 3360 C 328.845 -2.22863 -3.98975 0
M  V30 3361 C 329.842 -3.20569 -4.09306 0
M  V30 3362 C 327.527 -2.55407 -4.32519 0
M  V30 3363 C 329.521 -4.4891 -4.52503 0
M  V30 3364 C 327.208 -3.83976 -4.754 0
M  V30 3365 C 328.206 -4.8054 -4.85356 0
M  V30 3366 O 327.894 -6.06817 -5.27284 0
M  V30 3367 H 327.626 -0.235866 -0.633516 0
M  V30 3368 H 330.18 -1.2874 -1.60047 0
M  V30 3369 H 328.41 -0.105992 -3.86555 0
M  V30 3370 H 330.099 -0.491604 -4.02912 0
M  V30 3371 H 330.865 -2.96753 -3.83618 0
M  V30 3372 H 326.744 -1.8097 -4.23994 0
M  V30 3373 H 330.288 -5.24283 -4.60188 0
M  V30 3374 H 326.185 -4.07596 -5.00535 0
M  V30 3375 H 326.953 -6.10262 -5.45457 0
M  V30 3376 N 329.616 1.39756 -0.72842 0
M  V30 3377 C 330.844 2.04948 -0.283528 0
M  V30 3378 C 331.259 1.54908 1.0793 0
M  V30 3379 O 330.616 0.711135 1.68075 0
M  V30 3380 C 330.667 3.60498 -0.268957 0
M  V30 3381 O 330.388 4.08695 -1.57798 0
M  V30 3382 C 331.889 4.4288 0.192912 0
M  V30 3383 H 329.109 0.659243 -0.125056 0
M  V30 3384 H 331.653 1.78927 -0.990226 0
M  V30 3385 H 329.808 3.85444 0.388801 0
M  V30 3386 H 330.222 5.02977 -1.48709 0
M  V30 3387 H 331.696 5.51791 0.151952 0
M  V30 3388 H 332.173 4.21418 1.23708 0
M  V30 3389 H 332.779 4.23069 -0.435039 0
M  V30 3390 N 331.094 0.475555 1.50254 0
M  V30 3391 C 332.343 -0.0795996 2.01543 0
M  V30 3392 C 332.656 -1.4038 1.36209 0
M  V30 3393 O 333.862 -2.04415 1.7868 0
M  V30 3394 C 332.318 -0.192363 3.59386 0
M  V30 3395 C 331.926 1.12367 4.33679 0
M  V30 3396 C 333.67 -0.699238 4.18701 0
M  V30 3397 C 331.577 0.974453 5.83317 0
M  V30 3398 H 330.507 -0.0335228 0.753254 0
M  V30 3399 H 333.158 0.611128 1.73025 0
M  V30 3400 H 331.54 -0.946974 3.84511 0
M  V30 3401 H 332.714 1.88958 4.20276 0
M  V30 3402 H 331.029 1.562 3.85993 0
M  V30 3403 H 333.626 -0.827978 5.28251 0
M  V30 3404 H 333.969 -1.69171 3.80377 0
M  V30 3405 H 334.502 -0.00188807 3.978 0
M  V30 3406 H 331.241 1.94042 6.26121 0
M  V30 3407 H 330.761 0.248998 5.99283 0
M  V30 3408 H 332.44 0.642867 6.43798 0
M  V30 3409 N 332.573 -1.56217 0.208337 0
M  V30 3410 C 333.521 -2.21053 -0.723769 0
M  V30 3411 C 334.515 -1.18578 -1.20978 0
M  V30 3412 O 335.721 -1.36691 -1.17114 0
M  V30 3413 H 332.096 -0.708595 -0.251788 0
M  V30 3414 H 334.067 -2.98006 -0.153365 0
M  V30 3415 C 332.816 -2.89417 -1.927 0
M  V30 3416 H 332.139 -3.68019 -1.56212 0
M  V30 3417 H 333.579 -3.38201 -2.55727 0
M  V30 3418 C 332.038 -1.91166 -2.77411 0
M  V30 3419 O 332.568 -1.42026 -3.75754 0
M  V30 3420 N 330.774 -1.59105 -2.43175 0
M  V30 3421 H 330.321 -1.99259 -1.63259 0
M  V30 3422 H 330.279 -0.936255 -3.00136 0
M  V30 3423 N 334.051 0.0651679 -1.57465 0
M  V30 3424 C 334.999 1.09542 -2.05191 0
M  V30 3425 C 335.993 1.39675 -0.958509 0
M  V30 3426 O 337.199 1.39003 -1.14359 0
M  V30 3427 H 333.574 0.370623 -0.654326 0
M  V30 3428 H 335.545 0.666802 -2.90854 0
M  V30 3429 C 334.294 2.39881 -2.51699 0
M  V30 3430 H 333.617 2.17547 -3.3543 0
M  V30 3431 H 335.057 3.104 -2.88839 0
M  V30 3432 C 333.516 3.0631 -1.40271 0
M  V30 3433 O 334.046 3.94664 -0.748523 0
M  V30 3434 N 332.252 2.67041 -1.14618 0
M  V30 3435 H 331.799 1.95281 -1.67997 0
M  V30 3436 H 331.757 3.1181 -0.402688 0
M  V30 3437 N 335.529 1.53961 0.336706 0
M  V30 3438 C 336.459 1.85417 1.41925 0
M  V30 3439 C 337.44 0.709856 1.5458 0
M  V30 3440 O 338.625 0.962396 1.68676 0
M  V30 3441 C 335.755 2.06985 2.78881 0
M  V30 3442 C 334.709 3.22813 2.81026 0
M  V30 3443 C 334.035 3.29727 4.20932 0
M  V30 3444 C 335.335 4.60767 2.45949 0
M  V30 3445 H 337.029 2.76079 1.15848 0
M  V30 3446 H 334.575 1.32839 0.555859 0
M  V30 3447 H 336.528 2.27575 3.54665 0
M  V30 3448 H 335.252 1.13061 3.06406 0
M  V30 3449 H 333.911 3.0209 2.07695 0
M  V30 3450 H 333.559 2.33385 4.45579 0
M  V30 3451 H 333.259 4.07566 4.23277 0
M  V30 3452 H 334.783 3.52536 4.98549 0
M  V30 3453 H 336.197 4.81325 3.11446 0
M  V30 3454 H 334.594 5.4106 2.59566 0
M  V30 3455 H 335.664 4.6391 1.41122 0
M  V30 3456 N 337.007 -0.598083 1.45811 0
M  V30 3457 C 337.954 -1.7082 1.55207 0
M  V30 3458 C 338.924 -1.61278 0.39732 0
M  V30 3459 O 340.109 -1.80717 0.612038 0
M  V30 3460 C 337.249 -3.09144 1.53376 0
M  V30 3461 C 336.362 -3.29423 2.79472 0
M  V30 3462 C 335.497 -4.57907 2.69248 0
M  V30 3463 C 334.536 -4.71476 3.90354 0
M  V30 3464 N 333.673 -5.9127 3.78608 0
M  V30 3465 H 338.513 -1.62125 2.50039 0
M  V30 3466 H 336.05 -0.790389 1.24062 0
M  V30 3467 H 338.008 -3.89186 1.50301 0
M  V30 3468 H 336.638 -3.16773 0.620876 0
M  V30 3469 H 335.69 -2.43091 2.92594 0
M  V30 3470 H 337.002 -3.3532 3.69272 0
M  V30 3471 H 336.156 -5.46157 2.64192 0
M  V30 3472 H 334.895 -4.54423 1.77063 0
M  V30 3473 H 333.9 -3.81648 3.95759 0
M  V30 3474 H 335.125 -4.76751 4.83617 0
M  V30 3475 H 333.071 -5.88813 2.89199 0
M  V30 3476 H 332.988 -5.98369 4.6205 0
M  V30 3477 H 334.256 -6.81992 3.77501 0
M  V30 3478 N 338.485 -1.33259 -0.841409 0
M  V30 3479 C 339.732 -1.24572 -1.5965 0
M  V30 3480 C 340.06 0.189137 -1.93578 0
M  V30 3481 O 339.315 1.14566 -1.5866 0
M  V30 3482 C 339.614 -2.06381 -2.9179 0
M  V30 3483 C 339.28 -3.556 -2.77235 0
M  V30 3484 C 337.942 -3.96282 -2.72973 0
M  V30 3485 C 340.294 -4.50433 -2.62221 0
M  V30 3486 C 337.622 -5.30017 -2.51592 0
M  V30 3487 C 339.974 -5.84327 -2.42374 0
M  V30 3488 C 338.638 -6.24194 -2.36512 0
M  V30 3489 H 337.908 -0.455842 -0.5842 0
M  V30 3490 H 340.555 -1.6482 -0.975016 0
M  V30 3491 H 338.86 -1.58903 -3.5813 0
M  V30 3492 H 340.557 -1.97019 -3.49263 0
M  V30 3493 H 337.147 -3.23298 -2.81384 0
M  V30 3494 H 341.331 -4.19914 -2.64549 0
M  V30 3495 H 336.587 -5.59947 -2.45499 0
M  V30 3496 H 340.761 -6.57414 -2.29739 0
M  V30 3497 H 338.388 -7.27759 -2.19706 0
M  V30 3498 N 339.963 1.05934 -1.16686 0
M  V30 3499 C 340.926 2.11669 -0.879144 0
M  V30 3500 C 341.926 1.60294 0.127445 0
M  V30 3501 O 343.116 1.7389 -0.103865 0
M  V30 3502 C 340.248 3.39438 -0.315425 0
M  V30 3503 H 341.441 2.38626 -1.81653 0
M  V30 3504 H 338.994 1.22058 -0.976299 0
M  V30 3505 H 339.729 3.18132 0.629468 0
M  V30 3506 H 339.514 3.78034 -1.04079 0
M  V30 3507 H 341.004 4.17391 -0.132189 0
M  V30 3508 N 341.441 0.965919 1.2453 0
M  V30 3509 C 342.857 0.67216 1.44756 0
M  V30 3510 C 343.057 -0.766609 1.86347 0
M  V30 3511 O 342.113 -1.5407 2.00047 0
M  V30 3512 C 343.426 1.65473 2.51076 0
M  V30 3513 C 344.974 1.66716 2.64905 0
M  V30 3514 C 345.449 2.63766 3.74421 0
M  V30 3515 N 346.94 2.62198 3.81846 0
M  V30 3516 C 347.675 3.33966 4.66106 0
M  V30 3517 N 347.171 4.15245 5.54566 0
M  V30 3518 N 348.964 3.22799 4.60171 0
M  V30 3519 H 341.115 1.89553 0.958293 0
M  V30 3520 H 343.378 0.815979 0.482579 0
M  V30 3521 H 343.084 2.68296 2.27399 0
M  V30 3522 H 342.958 1.4261 3.49202 0
M  V30 3523 H 345.345 0.646057 2.87941 0
M  V30 3524 H 345.426 1.93642 1.67142 0
M  V30 3525 H 345.07 3.6601 3.52135 0
M  V30 3526 H 345 2.34121 4.71694 0
M  V30 3527 H 347.491 2.032 3.18619 0
M  V30 3528 H 347.804 4.66898 6.15814 0
M  V30 3529 H 346.149 4.1934 5.54237 0
M  V30 3530 H 349.34 2.58764 3.90075 0
M  V30 3531 H 349.513 3.78994 5.25612 0
M  V30 3532 N 342.919 -1.39368 0.735821 0
M  V30 3533 C 343.869 -2.27885 0.0724287 0
M  V30 3534 C 344.853 -1.44301 -0.711756 0
M  V30 3535 O 346.045 -1.67206 -0.58063 0
M  V30 3536 C 343.174 -3.33029 -0.833454 0
M  V30 3537 C 342.26 -4.24078 -0.0433749 0
M  V30 3538 N 342.651 -4.96138 0.983903 0
M  V30 3539 C 340.949 -4.45164 -0.272905 0
M  V30 3540 C 341.65 -5.63069 1.4604 0
M  V30 3541 N 340.626 -5.37991 0.778857 0
M  V30 3542 H 344.428 -2.81052 0.859467 0
M  V30 3543 H 341.942 -1.5206 0.570227 0
M  V30 3544 H 343.939 -3.95311 -1.32419 0
M  V30 3545 H 342.599 -2.81421 -1.61964 0
M  V30 3546 H 343.61 -4.9958 1.36528 0
M  V30 3547 H 340.287 -4.04497 -1.03383 0
M  V30 3548 H 341.677 -6.30755 2.31511 0
M  V30 3549 N 344.397 -0.483516 -1.5 0
M  V30 3550 C 345.643 0.0672592 -2.02688 0
M  V30 3551 C 345.976 1.38247 -1.36387 0
M  V30 3552 O 345.251 1.88131 -0.493675 0
M  V30 3553 C 345.534 0.238109 -3.59312 0
M  V30 3554 C 345.387 -1.099 -4.36168 0
M  V30 3555 C 346.706 0.986916 -4.28892 0
M  V30 3556 H 343.825 0.0229696 -0.736642 0
M  V30 3557 H 346.467 -0.631527 -1.79197 0
M  V30 3558 H 344.617 0.8333 -3.79458 0
M  V30 3559 H 346.289 -1.73172 -4.27562 0
M  V30 3560 H 344.532 -1.69261 -3.99416 0
M  V30 3561 H 345.203 -0.932954 -5.44059 0
M  V30 3562 H 347.679 0.482302 -4.13295 0
M  V30 3563 H 346.555 1.07527 -5.38265 0
M  V30 3564 H 346.816 2.0265 -3.92919 0
M  V30 3565 N 345.875 1.56104 -0.216619 0
M  V30 3566 C 346.785 2.23694 0.706982 0
M  V30 3567 C 347.801 1.24295 1.21765 0
M  V30 3568 O 348.977 1.57094 1.2603 0
M  V30 3569 C 346.042 2.8998 1.90033 0
M  V30 3570 C 345.103 4.04708 1.43213 0
M  V30 3571 C 344.336 4.67824 2.56859 0
M  V30 3572 O 344.559 4.29913 3.74874 0
M  V30 3573 O 343.493 5.56905 2.28343 0
M  V30 3574 H 347.319 3.03272 0.161235 0
M  V30 3575 H 344.904 1.49394 0.0136177 0
M  V30 3576 H 346.786 3.31837 2.59735 0
M  V30 3577 H 345.461 2.13365 2.43428 0
M  V30 3578 H 344.368 3.6743 0.70327 0
M  V30 3579 H 345.701 4.83051 0.944615 0
M  V30 3580 N 347.353 -0.0568162 1.57498 0
M  V30 3581 C 348.764 -0.606858 1.76562 0
M  V30 3582 C 349.115 -1.77114 0.844094 0
M  V30 3583 O 348.24 -2.16376 0.0318911 0
M  V30 3584 C 348.835 -1.10766 3.20182 0
M  V30 3585 C 347.394 -1.60344 3.40539 0
M  V30 3586 C 346.541 -0.529311 2.72201 0
M  V30 3587 H 349.492 0.169393 1.57793 0
M  V30 3588 H 349.513 -1.97602 3.25167 0
M  V30 3589 H 349.025 -0.26006 3.87228 0
M  V30 3590 H 347.126 -2.47379 2.78629 0
M  V30 3591 H 347.239 -1.67006 4.4905 0
M  V30 3592 H 345.603 -0.977893 2.35179 0
M  V30 3593 H 346.386 0.308352 3.41912 0
M  V30 3594 N 348.832 -1.54138 -0.328536 0
M  V30 3595 C 350.08 -1.71765 -1.06496 0
M  V30 3596 C 350.401 -0.49149 -1.88704 0
M  V30 3597 O 349.671 0.494539 -1.89555 0
M  V30 3598 H 348.251 -0.633295 -0.396164 0
M  V30 3599 H 350.913 -1.91429 -0.366176 0
M  V30 3600 H 350.009 -2.5951 -1.73381 0
M  V30 3601 N 350.31 0.590341 -1.46126 0
M  V30 3602 C 351.258 1.72105 -1.5647 0
M  V30 3603 C 352.252 1.63756 -0.433612 0
M  V30 3604 O 353.458 1.69342 -0.610194 0
M  V30 3605 H 349.833 0.568889 -0.491802 0
M  V30 3606 H 351.804 1.6051 -2.51553 0
M  V30 3607 C 350.553 3.10493 -1.56491 0
M  V30 3608 H 349.876 3.17583 -2.4286 0
M  V30 3609 H 351.316 3.8939 -1.67785 0
M  V30 3610 C 349.775 3.3563 -0.292231 0
M  V30 3611 O 350.305 3.96875 0.620739 0
M  V30 3612 N 348.511 2.90026 -0.182523 0
M  V30 3613 H 348.058 2.40367 -0.926356 0
M  V30 3614 H 348.016 3.07218 0.668152 0
M  V30 3615 N 351.788 1.33704 0.83433 0
M  V30 3616 C 352.751 1.24244 1.92603 0
M  V30 3617 C 353.751 0.160383 1.59998 0
M  V30 3618 O 354.941 0.412228 1.69252 0
M  V30 3619 C 352.073 0.91555 3.28376 0
M  V30 3620 H 353.266 2.21287 2.02416 0
M  V30 3621 H 350.819 1.17827 1.02696 0
M  V30 3622 H 351.554 -0.0521886 3.24258 0
M  V30 3623 H 351.339 1.69811 3.53422 0
M  V30 3624 H 352.829 0.874231 4.08347 0
M  V30 3625 N 353.266 -1.05314 1.17247 0
M  V30 3626 C 354.229 -2.112 0.890357 0
M  V30 3627 C 355.229 -1.60359 -0.118943 0
M  V30 3628 O 356.419 -1.73833 0.113086 0
M  V30 3629 C 353.551 -3.39266 0.333422 0
M  V30 3630 H 354.744 -2.37659 1.82916 0
M  V30 3631 H 352.297 -1.21538 0.982758 0
M  V30 3632 H 353.032 -3.18462 -0.612587 0
M  V30 3633 H 352.817 -3.77477 1.06082 0
M  V30 3634 H 354.307 -4.17315 0.154322 0
M  V30 3635 N 354.744 -0.972509 -1.24016 0
M  V30 3636 C 355.993 -0.632603 -1.91523 0
M  V30 3637 C 356.306 0.836641 -1.76804 0
M  V30 3638 O 357.512 1.28728 -2.39043 0
M  V30 3639 C 355.968 -1.08082 -3.43287 0
M  V30 3640 C 355.576 -2.57386 -3.66683 0
M  V30 3641 C 357.32 -0.814288 -4.16617 0
M  V30 3642 C 355.227 -2.95915 -5.12043 0
M  V30 3643 H 354.157 -0.232898 -0.717129 0
M  V30 3644 H 356.808 -1.17936 -1.40582 0
M  V30 3645 H 355.19 -0.462339 -3.93292 0
M  V30 3646 H 356.364 -3.24405 -3.27258 0
M  V30 3647 H 354.679 -2.81701 -3.06649 0
M  V30 3648 H 357.276 -1.0781 -5.23718 0
M  V30 3649 H 357.619 0.24955 -4.15551 0
M  V30 3650 H 358.152 -1.39397 -3.72577 0
M  V30 3651 H 354.891 -4.0139 -5.18234 0
M  V30 3652 H 354.411 -2.33584 -5.52448 0
M  V30 3653 H 356.09 -2.86086 -5.80314 0
M  V30 3654 N 356.222 1.38976 -0.743202 0
M  V30 3655 C 357.638 1.53984 -0.419664 0
M  V30 3656 C 357.838 1.70837 1.0685 0
M  V30 3657 O 356.894 1.7135 1.8546 0
M  V30 3658 C 358.207 2.75287 -1.20985 0
M  V30 3659 C 359.755 2.89129 -1.19889 0
M  V30 3660 C 360.23 4.13381 -1.97181 0
M  V30 3661 N 361.721 4.20437 -1.94389 0
M  V30 3662 C 362.456 5.15547 -2.50996 0
M  V30 3663 N 361.952 6.16395 -3.16274 0
M  V30 3664 N 363.745 5.07822 -2.40984 0
M  V30 3665 H 355.896 1.26285 -1.7078 0
M  V30 3666 H 358.159 0.612689 -0.723406 0
M  V30 3667 H 357.865 2.69204 -2.26323 0
M  V30 3668 H 357.739 3.68184 -0.819759 0
M  V30 3669 H 360.126 2.947 -0.153606 0
M  V30 3670 H 360.207 1.97272 -1.62841 0
M  V30 3671 H 359.851 4.08572 -3.01714 0
M  V30 3672 H 359.781 5.04298 -1.51629 0
M  V30 3673 H 362.272 3.48205 -1.46839 0
M  V30 3674 H 362.585 6.85443 -3.56915 0
M  V30 3675 H 360.93 6.16758 -3.20367 0
M  V30 3676 H 364.121 4.27973 -1.89622 0
M  V30 3677 H 364.294 5.81767 -2.85397 0
M  V30 3678 N 357.7 0.491464 1.49741 0
M  V30 3679 C 358.61 -0.296835 2.32715 0
M  V30 3680 C 359.626 -0.976536 1.44013 0
M  V30 3681 O 360.802 -0.960023 1.77047 0
M  V30 3682 C 357.867 -1.35288 3.19215 0
M  V30 3683 C 356.928 -0.687632 4.23757 0
M  V30 3684 C 356.161 -1.69336 5.06123 0
M  V30 3685 O 356.384 -2.92219 4.89861 0
M  V30 3686 O 355.318 -1.25394 5.88693 0
M  V30 3687 H 359.144 0.382048 3.01287 0
M  V30 3688 H 356.729 0.252953 1.47243 0
M  V30 3689 H 358.611 -1.96411 3.72828 0
M  V30 3690 H 357.286 -2.01487 2.53347 0
M  V30 3691 H 356.193 -0.0369159 3.74082 0
M  V30 3692 H 357.526 -0.0682566 4.92153 0
M  V30 3693 N 359.178 -1.55987 0.224894 0
M  V30 3694 C 360.125 -2.20436 -0.68385 0
M  V30 3695 C 361.095 -1.16102 -1.18783 0
M  V30 3696 O 362.28 -1.4447 -1.24632 0
M  V30 3697 C 359.42 -2.89076 -1.88491 0
M  V30 3698 C 358.533 -4.08012 -1.41951 0
M  V30 3699 C 357.668 -4.64426 -2.5784 0
M  V30 3700 C 356.707 -5.75656 -2.08053 0
M  V30 3701 N 355.844 -6.26347 -3.17227 0
M  V30 3702 H 360.684 -2.97727 -0.12754 0
M  V30 3703 H 358.221 -1.47011 -0.0511978 0
M  V30 3704 H 360.179 -3.27059 -2.59014 0
M  V30 3705 H 358.809 -2.14298 -2.41405 0
M  V30 3706 H 357.861 -3.75492 -0.609095 0
M  V30 3707 H 359.173 -4.88375 -1.01447 0
M  V30 3708 H 358.327 -5.04869 -3.3644 0
M  V30 3709 H 357.066 -3.83233 -3.01635 0
M  V30 3710 H 356.071 -5.34712 -1.27916 0
M  V30 3711 H 357.296 -6.58686 -1.65255 0
M  V30 3712 H 355.242 -5.48067 -3.60497 0
M  V30 3713 H 355.159 -7.01843 -2.80986 0
M  V30 3714 H 356.427 -6.71447 -3.95953 0
M  V30 3715 N 360.656 0.0484629 -1.57525 0
M  V30 3716 C 361.586 1.0549 -2.08313 0
M  V30 3717 C 362.567 1.38929 -0.981463 0
M  V30 3718 O 363.752 1.48151 -1.25558 0
M  V30 3719 C 360.882 2.36162 -2.54646 0
M  V30 3720 C 359.836 2.17016 -3.68901 0
M  V30 3721 C 359.162 3.53278 -4.01371 0
M  V30 3722 C 360.462 1.57219 -4.98076 0
M  V30 3723 H 362.156 0.632195 -2.92649 0
M  V30 3724 H 359.702 0.302654 -1.40784 0
M  V30 3725 H 361.655 3.06882 -2.88793 0
M  V30 3726 H 360.379 2.80456 -1.67368 0
M  V30 3727 H 359.038 1.48733 -3.35073 0
M  V30 3728 H 358.686 3.95185 -3.11188 0
M  V30 3729 H 358.386 3.41299 -4.78318 0
M  V30 3730 H 359.91 4.25391 -4.38035 0
M  V30 3731 H 361.324 2.17832 -5.30304 0
M  V30 3732 H 359.721 1.55871 -5.79503 0
M  V30 3733 H 360.791 0.535956 -4.81929 0
M  V30 3734 N 362.134 1.5431 0.320358 0
M  V30 3735 C 363.097 1.83195 1.3774 0
M  V30 3736 C 364.097 0.703906 1.44575 0
M  V30 3737 O 365.287 0.972214 1.44546 0
M  V30 3738 C 362.419 1.99487 2.76438 0
M  V30 3739 H 363.612 2.77642 1.1338 0
M  V30 3740 H 361.165 1.46076 0.556012 0
M  V30 3741 H 361.9 1.07262 3.06048 0
M  V30 3742 H 361.685 2.81575 2.7287 0
M  V30 3743 H 363.175 2.23271 3.52902 0
M  V30 3744 N 363.613 -0.582584 1.46437 0
M  V30 3745 C 364.859 -1.34064 1.52965 0
M  V30 3746 C 365.214 -1.91566 0.178968 0
M  V30 3747 O 364.507 -1.73526 -0.812365 0
M  V30 3748 C 364.701 -2.48964 2.56421 0
M  V30 3749 C 364.53 -2.02717 4.01417 0
M  V30 3750 C 363.3 -1.87728 4.69134 0
M  V30 3751 C 365.498 -1.58675 4.8921 0
M  V30 3752 N 363.48 -1.35554 5.98747 0
M  V30 3753 C 364.851 -1.18093 6.08649 0
M  V30 3754 C 366.906 -1.46494 4.75861 0
M  V30 3755 C 365.609 -0.665427 7.16215 0
M  V30 3756 C 367.635 -0.96347 5.83499 0
M  V30 3757 C 366.997 -0.567432 7.02111 0
M  V30 3758 H 363.096 -0.483551 0.614575 0
M  V30 3759 H 365.68 -0.663309 1.83053 0
M  V30 3760 H 363.851 -3.1426 2.28244 0
M  V30 3761 H 365.583 -3.15913 2.52944 0
M  V30 3762 H 362.338 -2.09678 4.24655 0
M  V30 3763 H 362.762 -1.11628 6.67734 0
M  V30 3764 H 367.404 -1.75731 3.8455 0
M  V30 3765 H 365.122 -0.360639 8.07295 0
M  V30 3766 H 368.708 -0.873129 5.75211 0
M  V30 3767 H 367.588 -0.185389 7.83981 0
M  V30 3768 N 365.091 -1.34144 -0.827227 0
M  V30 3769 C 366.054 -1.25264 -1.91942 0
M  V30 3770 C 367.054 -0.168866 -1.59911 0
M  V30 3771 O 368.244 -0.421198 -1.69031 0
M  V30 3772 C 365.376 -0.932952 -3.27885 0
M  V30 3773 H 366.569 -2.22357 -2.0124 0
M  V30 3774 H 364.122 -1.1837 -1.0207 0
M  V30 3775 H 364.857 0.0349917 -3.24281 0
M  V30 3776 H 364.642 -1.71682 -3.52516 0
M  V30 3777 H 366.132 -0.895874 -4.07877 0
M  V30 3778 N 366.569 1.04691 -1.17803 0
M  V30 3779 C 367.516 2.12557 -0.899343 0
M  V30 3780 C 368.486 1.65339 0.158771 0
M  V30 3781 O 369.671 1.90789 0.0204797 0
M  V30 3782 C 366.811 3.42481 -0.424315 0
M  V30 3783 C 365.924 4.03346 -1.54713 0
M  V30 3784 C 365.059 5.21208 -1.02546 0
M  V30 3785 C 364.098 5.74089 -2.12339 0
M  V30 3786 N 363.235 6.83247 -1.61612 0
M  V30 3787 H 368.075 2.35734 -1.823 0
M  V30 3788 H 365.612 1.1564 -0.909159 0
M  V30 3789 H 367.57 4.16996 -0.130421 0
M  V30 3790 H 366.2 3.19471 0.462377 0
M  V30 3791 H 365.252 3.2622 -1.95664 0
M  V30 3792 H 366.564 4.38628 -2.37501 0
M  V30 3793 H 365.718 6.02812 -0.685718 0
M  V30 3794 H 364.457 4.87414 -0.167084 0
M  V30 3795 H 363.462 4.91111 -2.47165 0
M  V30 3796 H 364.687 6.0993 -2.98601 0
M  V30 3797 H 362.633 6.5134 -0.780533 0
M  V30 3798 H 362.55 7.17559 -2.38003 0
M  V30 3799 H 363.818 7.68491 -1.30545 0
M  V30 3800 N 368.047 0.979072 1.23499 0
M  V30 3801 C 368.957 0.526431 2.28617 0
M  V30 3802 C 369.973 -0.418126 1.68901 0
M  V30 3803 O 371.149 -0.288372 1.99325 0
M  V30 3804 C 368.214 -0.165235 3.46306 0
M  V30 3805 C 367.275 0.82056 4.21385 0
M  V30 3806 C 366.508 0.161807 5.33455 0
M  V30 3807 O 366.731 -1.04742 5.60701 0
M  V30 3808 O 365.665 0.859708 5.95729 0
M  V30 3809 H 369.491 1.4006 2.69475 0
M  V30 3810 H 367.076 0.746643 1.29405 0
M  V30 3811 H 368.958 -0.553287 4.17752 0
M  V30 3812 H 367.633 -1.01419 3.07402 0
M  V30 3813 H 366.54 1.25929 3.52268 0
M  V30 3814 H 367.873 1.63828 4.64135 0
M  V30 3815 N 369.525 -1.3858 0.750561 0
M  V30 3816 C 370.472 -2.30483 0.120835 0
M  V30 3817 C 371.442 -1.50022 -0.712923 0
M  V30 3818 O 372.627 -1.78662 -0.669676 0
M  V30 3819 C 369.767 -3.36431 -0.768666 0
M  V30 3820 C 368.88 -4.31927 0.0793922 0
M  V30 3821 C 368.015 -5.24944 -0.81283 0
M  V30 3822 C 367.054 -6.12088 0.0390447 0
M  V30 3823 N 366.191 -6.97412 -0.809969 0
M  V30 3824 H 371.031 -2.83761 0.91015 0
M  V30 3825 H 368.568 -1.39707 0.460463 0
M  V30 3826 H 370.526 -3.96462 -1.29898 0
M  V30 3827 H 369.156 -2.8457 -1.5238 0
M  V30 3828 H 368.208 -3.73382 0.727303 0
M  V30 3829 H 369.52 -4.93319 0.737401 0
M  V30 3830 H 368.674 -5.90078 -1.41042 0
M  V30 3831 H 367.413 -4.63911 -1.50458 0
M  V30 3832 H 366.418 -5.45952 0.649328 0
M  V30 3833 H 367.643 -6.75189 0.727809 0
M  V30 3834 H 365.589 -6.38931 -1.48672 0
M  V30 3835 H 365.506 -7.55712 -0.208789 0
M  V30 3836 H 366.774 -7.66959 -1.39263 0
M  V30 3837 N 371.003 -0.499398 -1.49478 0
M  V30 3838 C 372.233 0.0424839 -2.06556 0
M  V30 3839 C 372.641 1.31514 -1.36018 0
M  V30 3840 O 371.984 1.78555 -0.431718 0
M  V30 3841 C 372.046 0.368074 -3.57611 0
M  V30 3842 C 371.71 -0.806631 -4.49825 0
M  V30 3843 C 372.707 -1.69667 -4.91436 0
M  V30 3844 C 370.392 -1.00498 -4.92144 0
M  V30 3845 C 372.386 -2.76923 -5.74101 0
M  V30 3846 C 370.073 -2.08072 -5.74586 0
M  V30 3847 C 371.071 -2.96119 -6.15469 0
M  V30 3848 O 370.759 -4.01836 -6.96264 0
M  V30 3849 H 370.491 -0.0165165 -0.675798 0
M  V30 3850 H 373.045 -0.695497 -1.93267 0
M  V30 3851 H 371.275 1.15963 -3.68903 0
M  V30 3852 H 372.964 0.848381 -3.96935 0
M  V30 3853 H 373.73 -1.55524 -4.59388 0
M  V30 3854 H 369.609 -0.329036 -4.59824 0
M  V30 3855 H 373.153 -3.45676 -6.05932 0
M  V30 3856 H 369.05 -2.22211 -6.06047 0
M  V30 3857 H 369.818 -3.9917 -7.14567 0
M  V30 3858 N 372.481 1.55866 -0.233164 0
M  V30 3859 C 373.706 2.03449 0.402906 0
M  V30 3860 C 374.131 1.11166 1.51736 0
M  V30 3861 O 373.489 0.101996 1.81013 0
M  V30 3862 C 373.537 3.49165 0.9009 0
M  V30 3863 O 372.641 3.60019 2.01147 0
M  V30 3864 H 371.982 0.657913 0.0897025 0
M  V30 3865 H 374.512 2.01493 -0.355201 0
M  V30 3866 H 374.522 3.89716 1.2077 0
M  V30 3867 H 373.197 4.15813 0.0852889 0
M  V30 3868 H 371.774 3.3136 1.71042 0
M  V30 3869 N 373.959 -0.0401083 1.57549 0
M  V30 3870 C 375.208 -0.732108 1.87944 0
M  V30 3871 C 375.521 -1.77107 0.830206 0
M  V30 3872 O 376.727 -2.51488 1.02302 0
M  V30 3873 C 375.183 -1.35315 3.33494 0
M  V30 3874 C 374.791 -0.351105 4.46622 0
M  V30 3875 C 376.535 -2.02566 3.73051 0
M  V30 3876 C 374.442 -0.979859 5.83226 0
M  V30 3877 H 373.372 -0.277188 0.701201 0
M  V30 3878 H 376.023 0.0138501 1.83495 0
M  V30 3879 H 374.405 -2.14844 3.32653 0
M  V30 3880 H 375.579 0.416674 4.58912 0
M  V30 3881 H 373.894 0.218708 4.15825 0
M  V30 3882 H 376.491 -2.50441 4.72423 0
M  V30 3883 H 376.834 -2.83904 3.04474 0
M  V30 3884 H 377.367 -1.29827 3.76018 0
M  V30 3885 H 374.106 -0.206135 6.55176 0
M  V30 3886 H 373.626 -1.71774 5.74677 0
M  V30 3887 H 375.305 -1.49046 6.29599 0
M  V30 3888 N 375.437 -1.54477 -0.31217 0
M  V30 3889 C 376.685 -1.72884 -1.04668 0
M  V30 3890 C 377.006 -0.511477 -1.88173 0
M  V30 3891 O 376.276 0.474407 -1.90069 0
M  V30 3892 H 374.856 -0.637461 -0.389425 0
M  V30 3893 H 377.518 -1.91807 -0.345852 0
M  V30 3894 H 376.614 -2.61334 -1.70619 0
M  V30 3895 N 376.915 0.57481 -1.46744 0
M  V30 3896 C 377.825 1.711 -1.60505 0
M  V30 3897 C 378.841 1.67008 -0.488307 0
M  V30 3898 O 380.017 1.86774 -0.753495 0
M  V30 3899 C 377.082 3.07608 -1.59932 0
M  V30 3900 C 376.143 3.22904 -2.82898 0
M  V30 3901 C 375.376 4.529 -2.82343 0
M  V30 3902 O 375.599 5.37278 -1.91542 0
M  V30 3903 O 374.533 4.71611 -3.73987 0
M  V30 3904 H 378.359 1.62436 -2.56609 0
M  V30 3905 H 375.944 0.742779 -1.29627 0
M  V30 3906 H 377.826 3.88877 -1.62336 0
M  V30 3907 H 376.501 3.16692 -0.669898 0
M  V30 3908 H 375.408 2.41099 -2.86046 0
M  V30 3909 H 376.741 3.18715 -3.75076 0
M  V30 3910 N 378.394 1.34581 0.820102 0
M  V30 3911 C 379.805 1.24298 1.39309 0
M  V30 3912 C 380.156 -0.130351 1.95767 0
M  V30 3913 O 379.281 -1.0308 1.90272 0
M  V30 3914 C 379.876 2.25054 2.53251 0
M  V30 3915 C 378.435 2.18552 3.0645 0
M  V30 3916 C 377.582 2.11503 1.79337 0
M  V30 3917 H 380.533 1.45906 0.624262 0
M  V30 3918 H 380.554 1.86917 3.31425 0
M  V30 3919 H 380.066 3.24996 2.1213 0
M  V30 3920 H 378.167 1.21976 3.52069 0
M  V30 3921 H 378.28 3.0993 3.65349 0
M  V30 3922 H 376.644 1.57268 2.00347 0
M  V30 3923 H 377.427 3.13284 1.40386 0
M  V30 3924 N 379.872 -1.04064 1.18357 0
M  V30 3925 C 381.1 -1.80916 1.00384 0
M  V30 3926 C 381.515 -1.83414 -0.447738 0
M  V30 3927 O 380.872 -1.26962 -1.31099 0
M  V30 3928 C 380.923 -3.26516 1.55144 0
M  V30 3929 O 380.644 -3.2424 2.94618 0
M  V30 3930 C 382.145 -4.20013 1.41789 0
M  V30 3931 H 379.365 -0.569728 0.354474 0
M  V30 3932 H 381.909 -1.31151 1.56906 0
M  V30 3933 H 380.064 -3.73512 1.02798 0
M  V30 3934 H 380.478 -4.15452 3.20156 0
M  V30 3935 H 381.952 -5.20111 1.84901 0
M  V30 3936 H 382.429 -4.37667 0.36661 0
M  V30 3937 H 383.035 -3.78881 1.93207 0
M  V30 3938 N 381.35 -0.985608 -1.22978 0
M  V30 3939 C 382.596 -0.65836 -1.91816 0
M  V30 3940 C 382.929 0.806692 -1.76653 0
M  V30 3941 O 382.204 1.58252 -1.13078 0
M  V30 3942 C 382.487 -1.056 -3.44268 0
M  V30 3943 C 382.34 -2.57906 -3.68516 0
M  V30 3944 C 383.659 -0.603781 -4.35939 0
M  V30 3945 H 380.778 -0.24065 -0.696604 0
M  V30 3946 H 383.42 -1.22783 -1.44998 0
M  V30 3947 H 381.57 -0.571445 -3.84274 0
M  V30 3948 H 383.242 -3.13976 -3.3796 0
M  V30 3949 H 381.485 -3.00305 -3.13048 0
M  V30 3950 H 382.156 -2.80779 -4.75255 0
M  V30 3951 H 384.632 -1.01987 -4.03408 0
M  V30 3952 H 383.508 -0.910383 -5.41298 0
M  V30 3953 H 383.769 0.495761 -4.39312 0
M  V30 3954 N 382.828 1.3818 -0.7579 0
M  V30 3955 C 384.239 1.82726 -0.383134 0
M  V30 3956 C 384.59 1.63214 1.08884 0
M  V30 3957 O 383.715 1.13566 1.84205 0
M  V30 3958 C 384.31 3.31728 -0.688631 0
M  V30 3959 C 382.869 3.74606 -0.367091 0
M  V30 3960 C 382.016 2.60896 -0.939599 0
M  V30 3961 H 384.967 1.26847 -0.953699 0
M  V30 3962 H 384.988 3.80487 0.0316492 0
M  V30 3963 H 384.5 3.45898 -1.76001 0
M  V30 3964 H 382.601 3.66013 0.697532 0
M  V30 3965 H 382.714 4.71215 -0.865658 0
M  V30 3966 H 381.078 2.52075 -0.3647 0
M  V30 3967 H 381.861 2.77864 -2.0161 0
M  V30 3968 N 384.306 0.507319 1.49211 0
M  V30 3969 C 385.531 -0.033725 2.07373 0
M  V30 3970 C 385.956 -1.29485 1.36437 0
M  V30 3971 O 385.314 -1.76294 0.423087 0
M  V30 3972 C 385.362 -0.263945 3.59633 0
M  V30 3973 O 384.466 -1.33737 3.90113 0
M  V30 3974 H 383.807 0.0290331 0.663365 0
M  V30 3975 H 386.337 0.708749 1.91932 0
M  V30 3976 H 386.347 -0.493536 4.05004 0
M  V30 3977 H 385.022 0.657424 4.10671 0
M  V30 3978 H 383.599 -1.09224 3.56545 0
M  V30 3979 N 385.784 -1.5574 0.241426 0
M  V30 3980 C 387.012 -2.03208 -0.389134 0
M  V30 3981 C 387.427 -1.12082 -1.51931 0
M  V30 3982 O 386.784 -0.134183 -1.82006 0
M  V30 3983 C 386.835 -3.50064 -0.902087 0
M  V30 3984 O 386.556 -4.37717 0.18305 0
M  V30 3985 C 388.057 -4.13268 -1.60389 0
M  V30 3986 H 385.277 -0.664509 -0.0931053 0
M  V30 3987 H 387.821 -2.0124 0.36369 0
M  V30 3988 H 385.976 -3.52583 -1.60511 0
M  V30 3989 H 386.39 -5.24097 -0.205579 0
M  V30 3990 H 387.864 -5.17733 -1.91458 0
M  V30 3991 H 388.341 -3.59434 -2.52397 0
M  V30 3992 H 388.947 -4.14655 -0.945576 0
M  V30 3993 N 387.262 0.0317525 -1.57568 0
M  V30 3994 C 388.192 1.03274 -2.0942 0
M  V30 3995 C 389.173 1.3788 -0.996143 0
M  V30 3996 O 390.358 1.46811 -1.27122 0
M  V30 3997 C 387.488 2.33448 -2.57137 0
M  V30 3998 C 386.442 2.13091 -3.71182 0
M  V30 3999 C 385.768 3.49001 -4.05095 0
M  V30 4000 C 387.068 1.51928 -4.99715 0
M  V30 4001 H 388.762 0.60112 -2.93303 0
M  V30 4002 H 386.308 0.287705 -1.41097 0
M  V30 4003 H 388.261 3.03802 -2.92032 0
M  V30 4004 H 386.985 2.78665 -1.70333 0
M  V30 4005 H 385.644 1.45171 -3.36632 0
M  V30 4006 H 385.292 3.91862 -3.15362 0
M  V30 4007 H 384.992 3.36207 -4.81911 0
M  V30 4008 H 386.516 4.20721 -4.42522 0
M  V30 4009 H 387.93 2.12196 -5.32584 0
M  V30 4010 H 386.327 1.49716 -5.81124 0
M  V30 4011 H 387.397 0.484811 -4.8247 0
M  V30 4012 N 388.74 1.54641 0.303973 0
M  V30 4013 C 389.703 1.84646 1.35789 0
M  V30 4014 C 390.703 0.7192 1.4382 0
M  V30 4015 O 391.893 0.987491 1.43507 0
M  V30 4016 C 389.025 2.02407 2.74307 0
M  V30 4017 H 390.218 2.78829 1.10429 0
M  V30 4018 H 387.771 1.46658 0.540487 0
M  V30 4019 H 388.506 1.10502 3.04893 0
M  V30 4020 H 388.291 2.84453 2.69868 0
M  V30 4021 H 389.781 2.27002 3.50514 0
M  V30 4022 N 390.218 -0.567019 1.47046 0
M  V30 4023 C 391.128 -1.70247 1.6141 0
M  V30 4024 C 392.144 -1.66746 0.497157 0
M  V30 4025 O 393.32 -1.86371 0.763389 0
M  V30 4026 C 390.385 -3.06756 1.61561 0
M  V30 4027 C 389.446 -3.21399 2.84607 0
M  V30 4028 C 388.679 -4.51396 2.84741 0
M  V30 4029 O 388.902 -5.36255 1.94388 0
M  V30 4030 O 387.836 -4.69621 3.76483 0
M  V30 4031 H 391.662 -1.61073 2.57467 0
M  V30 4032 H 389.247 -0.735894 1.30019 0
M  V30 4033 H 391.129 -3.8801 1.64396 0
M  V30 4034 H 389.804 -3.16333 0.686684 0
M  V30 4035 H 388.711 -2.39579 2.8732 0
M  V30 4036 H 390.044 -3.16721 3.76761 0
M  V30 4037 N 391.696 -1.35014 -0.812953 0
M  V30 4038 C 392.606 -1.2951 -1.95613 0
M  V30 4039 C 393.622 -0.20107 -1.72834 0
M  V30 4040 O 394.798 -0.42932 -1.96771 0
M  V30 4041 C 391.863 -1.06033 -3.30088 0
M  V30 4042 C 390.924 -2.24688 -3.65805 0
M  V30 4043 C 390.157 -2.02322 -4.93864 0
M  V30 4044 O 390.38 -0.986464 -5.61805 0
M  V30 4045 O 389.314 -2.89525 -5.27692 0
M  V30 4046 H 393.14 -2.25705 -2.03202 0
M  V30 4047 H 390.725 -1.15321 -0.949811 0
M  V30 4048 H 392.607 -0.94763 -4.10607 0
M  V30 4049 H 391.282 -0.128852 -3.23443 0
M  V30 4050 H 390.189 -2.41521 -2.85689 0
M  V30 4051 H 391.522 -3.16261 -3.77147 0
M  V30 4052 N 393.175 1.03435 -1.18907 0
M  V30 4053 C 394.422 1.76743 -0.988334 0
M  V30 4054 C 394.75 1.88447 0.481441 0
M  V30 4055 O 394.005 1.39383 1.37371 0
M  V30 4056 C 394.304 3.19792 -1.59586 0
M  V30 4057 C 393.97 3.28108 -3.09283 0
M  V30 4058 C 392.632 3.30084 -3.5014 0
M  V30 4059 C 394.984 3.27696 -4.05296 0
M  V30 4060 C 392.312 3.29299 -4.85571 0
M  V30 4061 C 394.664 3.28451 -5.4065 0
M  V30 4062 C 393.328 3.28723 -5.80946 0
M  V30 4063 H 392.598 0.64675 -0.361657 0
M  V30 4064 H 395.245 1.21442 -1.48068 0
M  V30 4065 H 393.55 3.78136 -1.02568 0
M  V30 4066 H 395.247 3.75171 -1.41589 0
M  V30 4067 H 391.837 3.27294 -2.76725 0
M  V30 4068 H 396.021 3.25354 -3.74778 0
M  V30 4069 H 391.277 3.2783 -5.16079 0
M  V30 4070 H 395.451 3.27082 -6.14809 0
M  V30 4071 H 393.078 3.27868 -6.85862 0
M  V30 4072 N 394.653 0.992116 1.22453 0
M  V30 4073 C 395.881 0.685944 1.95198 0
M  V30 4074 C 396.296 -0.749233 1.73297 0
M  V30 4075 O 395.653 -1.50549 1.03156 0
M  V30 4076 C 395.704 0.981395 3.47924 0
M  V30 4077 O 395.425 2.36018 3.6909 0
M  V30 4078 C 396.926 0.692815 4.37853 0
M  V30 4079 H 394.146 0.253821 0.621141 0
M  V30 4080 H 396.69 1.32668 1.55626 0
M  V30 4081 H 394.845 0.386481 3.85467 0
M  V30 4082 H 395.259 2.45884 4.63294 0
M  V30 4083 H 396.733 0.949818 5.43767 0
M  V30 4084 H 397.21 -0.373181 4.37612 0
M  V30 4085 H 397.816 1.26874 4.05935 0
M  V30 4086 N 396.131 -1.37776 0.765217 0
M  V30 4087 C 397.361 -2.03828 0.337277 0
M  V30 4088 C 397.769 -1.57841 -1.04321 0
M  V30 4089 O 397.112 -0.752043 -1.67601 0
M  V30 4090 C 397.174 -3.58292 0.294407 0
M  V30 4091 C 396.838 -4.27384 1.61838 0
M  V30 4092 C 397.835 -4.51956 2.56967 0
M  V30 4093 C 395.52 -4.65345 1.89102 0
M  V30 4094 C 397.514 -5.13536 3.77571 0
M  V30 4095 C 395.201 -5.26647 3.09978 0
M  V30 4096 C 396.199 -5.50679 4.04032 0
M  V30 4097 O 395.887 -6.10702 5.2278 0
M  V30 4098 H 395.619 -0.661292 0.140248 0
M  V30 4099 H 398.173 -1.77222 1.03834 0
M  V30 4100 H 396.403 -3.83918 -0.462983 0
M  V30 4101 H 398.092 -4.05763 -0.105581 0
M  V30 4102 H 398.858 -4.23048 2.37183 0
M  V30 4103 H 394.737 -4.45978 1.16725 0
M  V30 4104 H 398.281 -5.3221 4.50997 0
M  V30 4105 H 394.178 -5.54979 3.29649 0
M  V30 4106 H 394.946 -6.29183 5.23517 0
M  V30 4107 N 397.609 -0.515225 -1.4894 0
M  V30 4108 C 398.557 0.269115 -2.31038 0
M  V30 4109 C 399.551 0.949443 -1.40292 0
M  V30 4110 O 400.757 0.87551 -1.57273 0
M  V30 4111 H 397.132 0.10565 -0.744542 0
M  V30 4112 H 399.103 -0.443096 -2.95092 0
M  V30 4113 C 397.852 1.31213 -3.21991 0
M  V30 4114 H 397.175 0.798034 -3.91754 0
M  V30 4115 H 398.615 1.83263 -3.82349 0
M  V30 4116 C 397.074 2.33791 -2.42576 0
M  V30 4117 O 397.604 3.3995 -2.14003 0
M  V30 4118 N 395.81 2.06625 -2.0434 0
M  V30 4119 H 395.357 1.20314 -2.27777 0
M  V30 4120 H 395.315 2.75483 -1.51514 0
M  V30 4121 N 399.087 1.5561 -0.249682 0
M  V30 4122 C 400.498 1.84979 0.252949 0
M  V30 4123 C 400.849 1.17153 1.57384 0
M  V30 4124 O 399.974 0.450884 2.11651 0
M  V30 4125 C 400.569 3.35584 0.465732 0
M  V30 4126 C 399.128 3.65169 0.912624 0
M  V30 4127 C 398.275 2.77299 -0.00859085 0
M  V30 4128 H 401.226 1.51513 -0.47217 0
M  V30 4129 H 401.247 3.57313 1.30795 0
M  V30 4130 H 400.759 3.8492 -0.49579 0
M  V30 4131 H 398.86 3.21312 1.88652 0
M  V30 4132 H 398.973 4.72912 0.767559 0
M  V30 4133 H 397.337 2.49678 0.50327 0
M  V30 4134 H 398.12 3.29442 -0.965537 0
M  V30 4135 N 400.565 -0.0233959 1.57583 0
M  V30 4136 C 401.812 -0.713063 1.8953 0
M  V30 4137 C 402.14 -1.75056 0.847673 0
M  V30 4138 O 401.395 -1.95119 -0.150636 0
M  V30 4139 C 401.694 -1.41428 3.28227 0
M  V30 4140 C 401.36 -0.512222 4.47981 0
M  V30 4141 C 400.022 -0.263785 4.80476 0
M  V30 4142 C 402.374 0.110248 5.21083 0
M  V30 4143 C 399.702 0.615804 5.83459 0
M  V30 4144 C 402.054 0.977573 6.25001 0
M  V30 4145 C 400.718 1.23542 6.55968 0
M  V30 4146 H 399.988 -0.260928 0.69354 0
M  V30 4147 H 402.635 0.0271047 1.91481 0
M  V30 4148 H 400.94 -2.22791 3.22291 0
M  V30 4149 H 402.637 -1.95355 3.50196 0
M  V30 4150 H 399.227 -0.716013 4.22577 0
M  V30 4151 H 403.411 -0.0687137 4.96252 0
M  V30 4152 H 398.667 0.82382 6.05824 0
M  V30 4153 H 402.841 1.46638 6.80786 0
M  V30 4154 H 400.468 1.91871 7.35588 0
M  V30 4155 N 402.043 -1.548 -0.295768 0
M  V30 4156 C 402.976 -1.81003 -1.38972 0
M  V30 4157 C 403.954 -0.661544 -1.48534 0
M  V30 4158 O 405.138 -0.902074 -1.65514 0
M  V30 4159 C 402.265 -1.95141 -2.76835 0
M  V30 4160 C 401.311 -3.17592 -2.84671 0
M  V30 4161 S 402.144 -4.75531 -2.46232 0
M  V30 4162 C 403.3 -4.92613 -3.86114 0
M  V30 4163 H 403.533 -2.73507 -1.16537 0
M  V30 4164 H 401.066 -1.46278 -0.494168 0
M  V30 4165 H 403.024 -2.03972 -3.56238 0
M  V30 4166 H 401.685 -1.03565 -2.96535 0
M  V30 4167 H 400.878 -3.24303 -3.85803 0
M  V30 4168 H 400.48 -3.07235 -2.13267 0
M  V30 4169 H 402.772 -4.76957 -4.81164 0
M  V30 4170 H 403.715 -5.94698 -3.8437 0
M  V30 4171 H 404.123 -4.2073 -3.76359 0
M  V30 4172 N 403.521 0.559213 -1.47345 0
M  V30 4173 C 404.937 0.884943 -1.32819 0
M  V30 4174 C 405.137 1.98988 -0.317173 0
M  V30 4175 O 404.193 2.51031 0.272011 0
M  V30 4176 C 405.506 1.28007 -2.72093 0
M  V30 4177 C 407.054 1.39161 -2.80363 0
M  V30 4178 C 407.529 1.82031 -4.20272 0
M  V30 4179 N 409.02 1.89185 -4.22804 0
M  V30 4180 C 409.755 2.2368 -5.27973 0
M  V30 4181 N 409.251 2.56802 -6.43447 0
M  V30 4182 N 411.044 2.24436 -5.15349 0
M  V30 4183 H 403.195 -0.170304 -2.11716 0
M  V30 4184 H 405.458 -0.0135247 -0.947904 0
M  V30 4185 H 405.164 0.542027 -3.47498 0
M  V30 4186 H 405.038 2.23665 -3.03733 0
M  V30 4187 H 407.425 2.12048 -2.05231 0
M  V30 4188 H 407.506 0.41696 -2.52379 0
M  V30 4189 H 407.15 1.09715 -4.95908 0
M  V30 4190 H 407.08 2.80495 -4.45679 0
M  V30 4191 H 409.571 1.65982 -3.39497 0
M  V30 4192 H 409.884 2.82144 -7.19454 0
M  V30 4193 H 408.229 2.54387 -6.46771 0
M  V30 4194 H 411.42 1.97998 -4.24163 0
M  V30 4195 H 411.593 2.50989 -5.97418 0
M  V30 4196 N 404.999 1.35443 0.805782 0
M  V30 4197 C 406.245 1.28952 1.56522 0
M  V30 4198 C 406.578 -0.135597 1.93726 0
M  V30 4199 O 405.853 -1.08516 1.61414 0
M  V30 4200 C 406.136 2.19678 2.85331 0
M  V30 4201 C 405.989 3.7081 2.54598 0
M  V30 4202 C 407.308 2.09495 3.8704 0
M  V30 4203 H 404.427 0.469764 0.567883 0
M  V30 4204 H 407.069 1.65851 0.927001 0
M  V30 4205 H 405.219 1.8834 3.39795 0
M  V30 4206 H 406.891 4.12593 2.06312 0
M  V30 4207 H 405.134 3.91051 1.8778 0
M  V30 4208 H 405.805 4.29679 3.46525 0
M  V30 4209 H 408.281 2.37045 3.41978 0
M  V30 4210 H 407.157 2.75173 4.74943 0
M  V30 4211 H 407.418 1.07714 4.28777 0
M  V30 4212 N 406.477 -1.02803 1.19454 0
M  V30 4213 C 407.893 -1.28473 0.946937 0
M  V30 4214 C 408.093 -1.97881 -0.380202 0
M  V30 4215 O 407.149 -2.26719 -1.11151 0
M  V30 4216 C 408.462 -2.13099 2.12154 0
M  V30 4217 C 410.01 -2.26404 2.16126 0
M  V30 4218 C 410.485 -3.14402 3.33039 0
M  V30 4219 N 411.976 -3.21991 3.32981 0
M  V30 4220 C 412.711 -3.90272 4.20089 0
M  V30 4221 N 412.207 -4.60777 5.17355 0
M  V30 4222 N 414 -3.8668 4.07964 0
M  V30 4223 H 406.151 -0.561665 2.04839 0
M  V30 4224 H 408.414 -0.310438 0.89573 0
M  V30 4225 H 408.12 -1.69422 3.08203 0
M  V30 4226 H 407.994 -3.13813 2.09287 0
M  V30 4227 H 410.381 -2.69311 1.20647 0
M  V30 4228 H 410.462 -1.25237 2.23045 0
M  V30 4229 H 410.106 -2.72204 4.28798 0
M  V30 4230 H 410.036 -4.1563 3.23356 0
M  V30 4231 H 412.527 -2.71778 2.62574 0
M  V30 4232 H 412.84 -5.10513 5.80169 0
M  V30 4233 H 411.185 -4.5964 5.21302 0
M  V30 4234 H 414.376 -3.30739 3.31254 0
M  V30 4235 H 414.549 -4.39621 4.76064 0
M  V30 4236 N 407.956 -0.998596 -1.21925 0
M  V30 4237 C 408.866 -0.562736 -2.27751 0
M  V30 4238 C 409.882 0.391203 -1.69545 0
M  V30 4239 O 411.058 0.256625 -1.99758 0
M  V30 4240 C 408.123 0.11012 -3.46525 0
M  V30 4241 C 407.184 -0.887495 -4.20026 0
M  V30 4242 C 406.417 -0.246654 -5.3313 0
M  V30 4243 O 406.64 0.958088 -5.62296 0
M  V30 4244 O 405.574 -0.954374 -5.94286 0
M  V30 4245 H 409.4 -1.44329 -2.67213 0
M  V30 4246 H 406.985 -0.767135 -1.28201 0
M  V30 4247 H 408.867 0.486756 -4.18579 0
M  V30 4248 H 407.542 0.965154 -3.08976 0
M  V30 4249 H 406.449 -1.31517 -3.5022 0
M  V30 4250 H 407.782 -1.71191 -4.6147 0
M  V30 4251 N 409.434 1.37368 -0.772513 0
M  V30 4252 C 410.381 2.30262 -0.157488 0
M  V30 4253 C 411.351 1.51137 0.688965 0
M  V30 4254 O 412.536 1.79704 0.641168 0
M  V30 4255 C 409.676 3.37611 0.715045 0
M  V30 4256 C 408.789 4.31746 -0.148098 0
M  V30 4257 C 407.924 5.26171 0.729213 0
M  V30 4258 C 406.963 6.11948 -0.136418 0
M  V30 4259 N 406.1 6.98613 0.698914 0
M  V30 4260 H 410.94 2.82277 -0.955179 0
M  V30 4261 H 408.477 1.38957 -0.482631 0
M  V30 4262 H 410.435 3.98479 1.23575 0
M  V30 4263 H 409.065 2.86959 1.47833 0
M  V30 4264 H 408.117 3.72178 -0.786613 0
M  V30 4265 H 409.429 4.92084 -0.81579 0
M  V30 4266 H 408.583 5.92247 1.31637 0
M  V30 4267 H 407.322 4.66246 1.43059 0
M  V30 4268 H 406.327 5.4485 -0.736102 0
M  V30 4269 H 407.552 6.73945 -0.835134 0
M  V30 4270 H 405.498 6.41215 1.38489 0
M  V30 4271 H 405.415 7.55948 0.0885358 0
M  V30 4272 H 406.683 7.69077 1.27044 0
M  V30 4273 N 410.912 0.523116 1.48665 0
M  V30 4274 C 412.14 -0.0096312 2.06898 0
M  V30 4275 C 412.555 -1.28784 1.38059 0
M  V30 4276 O 411.912 -1.76453 0.465893 0
M  V30 4277 C 411.963 -0.244386 3.60673 0
M  V30 4278 O 411.684 0.983172 4.26925 0
M  V30 4279 C 413.185 -0.818289 4.35682 0
M  V30 4280 H 410.405 0.0304161 0.67031 0
M  V30 4281 H 412.949 0.726799 1.91149 0
M  V30 4282 H 411.104 -0.930847 3.76051 0
M  V30 4283 H 411.518 0.759653 5.1897 0
M  V30 4284 H 412.992 -0.93201 5.44075 0
M  V30 4285 H 413.469 -1.82153 3.99646 0
M  V30 4286 H 414.075 -0.168609 4.24966 0
M  V30 4287 N 412.39 -1.55475 0.257931 0
M  V30 4288 C 413.636 -1.99502 -0.364266 0
M  V30 4289 C 413.969 -1.146 -1.56782 0
M  V30 4290 O 413.244 -0.211968 -1.93342 0
M  V30 4291 C 413.527 -3.51917 -0.763333 0
M  V30 4292 C 413.38 -4.4758 0.446371 0
M  V30 4293 C 414.699 -4.09742 -1.60623 0
M  V30 4294 H 411.818 -0.725277 -0.130929 0
M  V30 4295 H 414.46 -1.8653 0.361446 0
M  V30 4296 H 412.61 -3.63101 -1.38166 0
M  V30 4297 H 414.282 -4.48362 1.08487 0
M  V30 4298 H 412.525 -4.19947 1.08753 0
M  V30 4299 H 413.196 -5.51862 0.123645 0
M  V30 4300 H 415.672 -4.01727 -1.08418 0
M  V30 4301 H 414.548 -5.16631 -1.85429 0
M  V30 4302 H 414.809 -3.58889 -2.58169 0
M  V30 4303 N 413.868 0.0150385 -1.57593 0
M  V30 4304 C 414.8 1.03912 -2.04291 0
M  V30 4305 C 415.813 1.31618 -0.958146 0
M  V30 4306 O 417.002 1.28859 -1.23522 0
M  V30 4307 C 414.102 2.37749 -2.41514 0
M  V30 4308 C 413.275 2.29198 -3.72541 0
M  V30 4309 C 412.334 3.45598 -3.96797 0
M  V30 4310 O 411.36 3.24461 -4.67668 0
M  V30 4311 N 412.562 4.67945 -3.43523 0
M  V30 4312 H 415.327 0.64099 -2.92765 0
M  V30 4313 H 412.888 0.20272 -1.60626 0
M  V30 4314 H 414.88 3.14364 -2.54867 0
M  V30 4315 H 413.45 2.69357 -1.58637 0
M  V30 4316 H 412.67 1.3759 -3.69408 0
M  V30 4317 H 413.958 2.20642 -4.5847 0
M  V30 4318 H 413.356 4.88017 -2.86104 0
M  V30 4319 H 411.913 5.41878 -3.62232 0
M  V30 4320 N 415.346 1.54954 0.287554 0
M  V30 4321 C 416.278 1.83224 1.37701 0
M  V30 4322 C 417.291 0.715898 1.46215 0
M  V30 4323 O 418.48 0.993565 1.48292 0
M  V30 4324 C 415.58 1.96723 2.75959 0
M  V30 4325 C 414.753 3.27253 2.90215 0
M  V30 4326 C 413.812 3.30998 4.09056 0
M  V30 4327 O 412.838 4.04457 4.00503 0
M  V30 4328 N 414.04 2.57353 5.20336 0
M  V30 4329 H 416.805 2.77254 1.138 0
M  V30 4330 H 414.366 1.54694 0.477652 0
M  V30 4331 H 416.358 1.96615 3.5373 0
M  V30 4332 H 414.928 1.09626 2.92747 0
M  V30 4333 H 414.148 3.40022 1.99447 0
M  V30 4334 H 415.436 4.13365 2.96659 0
M  V30 4335 H 414.834 1.97327 5.30169 0
M  V30 4336 H 413.391 2.62984 5.96391 0
M  V30 4337 N 416.824 -0.551391 1.4764 0
M  V30 4338 C 417.774 -1.65362 1.56969 0
M  V30 4339 C 418.758 -1.55098 0.428189 0
M  V30 4340 O 419.95 -1.63481 0.678441 0
M  V30 4341 C 417.079 -3.04129 1.59249 0
M  V30 4342 C 416.165 -3.19576 2.78804 0
M  V30 4343 N 416.556 -3.05067 4.03445 0
M  V30 4344 C 414.854 -3.50588 2.75688 0
M  V30 4345 C 415.555 -3.2336 4.83543 0
M  V30 4346 N 414.531 -3.4996 4.15968 0
M  V30 4347 H 418.333 -1.52722 2.51104 0
M  V30 4348 H 415.847 -0.756303 1.43714 0
M  V30 4349 H 417.844 -3.83278 1.64024 0
M  V30 4350 H 416.504 -3.17877 0.662148 0
M  V30 4351 H 417.515 -2.82273 4.34215 0
M  V30 4352 H 414.192 -3.70827 1.91817 0
M  V30 4353 H 415.582 -3.17061 5.92387 0
M  V30 4354 N 418.302 -1.35869 -0.798587 0
M  V30 4355 C 419.265 -1.29307 -1.89242 0
M  V30 4356 C 420.265 -0.202747 -1.59517 0
M  V30 4357 O 421.455 -0.456957 -1.681 0
M  V30 4358 C 418.587 -1.00229 -3.25833 0
M  V30 4359 H 419.78 -2.26576 -1.96478 0
M  V30 4360 H 417.333 -1.20509 -0.995358 0
M  V30 4361 H 418.068 -0.033801 -3.24282 0
M  V30 4362 H 417.853 -1.79121 -3.48795 0
M  V30 4363 H 419.343 -0.98219 -4.05885 0
M  V30 4364 N 419.78 1.02168 -1.19998 0
M  V30 4365 C 421.028 1.75338 -1.00504 0
M  V30 4366 C 421.349 1.89387 0.464506 0
M  V30 4367 O 420.619 1.43268 1.33608 0
M  V30 4368 H 419.199 0.649564 -0.368885 0
M  V30 4369 H 421.861 1.23205 -1.51018 0
M  V30 4370 H 420.957 2.75892 -1.45912 0
M  V30 4371 N 421.258 1.00505 1.21394 0
M  V30 4372 C 422.168 0.574806 2.27449 0
M  V30 4373 C 423.184 -0.382206 1.6975 0
M  V30 4374 O 424.36 -0.246027 1.99892 0
M  V30 4375 C 421.425 -0.0917414 3.46579 0
M  V30 4376 C 420.486 0.909758 4.1955 0
M  V30 4377 C 419.719 0.274924 5.32991 0
M  V30 4378 O 419.942 -0.928254 5.62796 0
M  V30 4379 O 418.876 0.985877 5.93771 0
M  V30 4380 H 422.702 1.45744 2.66444 0
M  V30 4381 H 420.287 0.773923 1.27792 0
M  V30 4382 H 422.169 -0.464551 4.18832 0
M  V30 4383 H 420.844 -0.948755 3.09484 0
M  V30 4384 H 419.751 1.33372 3.49518 0
M  V30 4385 H 421.084 1.73636 4.60555 0
M  V30 4386 N 422.737 -1.36956 0.779787 0
M  V30 4387 C 423.965 -2.03755 0.359398 0
M  V30 4388 C 424.38 -1.58807 -1.02106 0
M  V30 4389 O 423.737 -0.773024 -1.6532 0
M  V30 4390 C 423.788 -3.59251 0.402568 0
M  V30 4391 O 423.509 -4.02557 1.72858 0
M  V30 4392 C 425.01 -4.43291 -0.0284068 0
M  V30 4393 H 422.23 -0.654148 0.149437 0
M  V30 4394 H 424.774 -1.75128 1.05595 0
M  V30 4395 H 422.929 -3.86621 -0.245478 0
M  V30 4396 H 423.343 -4.97111 1.67275 0
M  V30 4397 H 424.817 -5.51975 0.0529466 0
M  V30 4398 H 425.294 -4.25719 -1.07982 0
M  V30 4399 H 425.9 -4.21163 0.591758 0
M  V30 4400 N 424.215 -0.530993 -1.48385 0
M  V30 4401 C 425.492 0.0671788 -1.95485 0
M  V30 4402 C 425.872 1.51191 -1.47324 0
M  V30 4403 O 425.22 2.17507 -0.700202 0
M  V30 4404 C 425.43 -0.0511206 -3.48963 0
M  V30 4405 C 426.778 0.107632 -4.24464 0
M  V30 4406 O 427.802 0.0226248 -3.56193 0
M  V30 4407 O 426.661 0.285972 -5.45751 0
M  V30 4408 H 423.755 0.0787365 -0.823243 0
M  V30 4409 H 426.301 -0.595662 -1.58902 0
M  V30 4410 H 425.073 -1.05747 -3.7674 0
M  V30 4411 H 424.696 0.650525 -3.92242 0
M  V30 4412 N 425.693 1.55336 -0.266172 0
M  V30 4413 C 427.104 1.85236 0.233315 0
M  V30 4414 C 427.455 1.18816 1.56132 0
M  V30 4415 O 426.58 0.473307 2.11161 0
M  V30 4416 C 427.175 3.36059 0.430113 0
M  V30 4417 C 425.734 3.66116 0.873842 0
M  V30 4418 C 424.881 2.77274 -0.0380016 0
M  V30 4419 H 427.832 1.51004 -0.488214 0
M  V30 4420 H 427.853 3.58681 1.26998 0
M  V30 4421 H 427.365 3.84373 -0.536588 0
M  V30 4422 H 425.466 3.23295 1.85233 0
M  V30 4423 H 425.579 4.73699 0.717358 0
M  V30 4424 H 423.943 2.50198 0.476759 0
M  V30 4425 H 424.726 3.284 -1.00042 0
M  V30 4426 N 427.171 -0.0066808 1.57599 0
M  V30 4427 C 428.417 -0.693947 1.90558 0
M  V30 4428 C 428.75 -1.73792 0.866594 0
M  V30 4429 O 428.025 -1.94156 -0.115548 0
M  V30 4430 C 428.308 -1.34317 3.34112 0
M  V30 4431 C 428.161 -0.311189 4.48722 0
M  V30 4432 C 429.48 -2.27116 3.7697 0
M  V30 4433 H 426.599 -0.250803 0.693013 0
M  V30 4434 H 429.241 0.043242 1.89951 0
M  V30 4435 H 427.391 -1.9715 3.3476 0
M  V30 4436 H 429.063 0.316944 4.6021 0
M  V30 4437 H 427.306 0.367253 4.32243 0
M  V30 4438 H 427.977 -0.804366 5.46108 0
M  V30 4439 H 430.453 -1.74306 3.77831 0
M  V30 4440 H 429.329 -2.69511 4.78179 0
M  V30 4441 H 429.59 -3.14743 3.10466 0
M  V30 4442 N 428.649 -1.55105 -0.279332 0
M  V30 4443 C 429.877 -1.7943 -1.03017 0
M  V30 4444 C 430.292 -0.564456 -1.80165 0
M  V30 4445 O 429.649 0.466326 -1.76442 0
M  V30 4446 C 429.7 -3.0155 -1.99374 0
M  V30 4447 O 429.421 -4.19784 -1.25352 0
M  V30 4448 C 430.922 -3.3843 -2.86321 0
M  V30 4449 H 428.142 -0.597882 -0.304594 0
M  V30 4450 H 430.686 -2.02105 -0.312035 0
M  V30 4451 H 428.841 -2.81019 -2.66659 0
M  V30 4452 H 429.255 -4.88781 -1.90246 0
M  V30 4453 H 430.729 -4.27066 -3.49741 0
M  V30 4454 H 431.206 -2.57549 -3.5576 0
M  V30 4455 H 431.812 -3.61197 -2.24536 0
M  V30 4456 N 430.127 0.543554 -1.4793 0
M  V30 4457 C 431.355 1.32516 -1.58894 0
M  V30 4458 C 431.77 1.87215 -0.244131 0
M  V30 4459 O 431.127 1.65709 0.764652 0
M  V30 4460 C 431.178 2.48554 -2.62494 0
M  V30 4461 O 430.899 1.96112 -3.91755 0
M  V30 4462 C 432.4 3.40572 -2.8377 0
M  V30 4463 H 429.62 0.403472 -0.536145 0
M  V30 4464 H 432.164 0.657106 -1.93655 0
M  V30 4465 H 430.319 3.1127 -2.30629 0
M  V30 4466 H 430.733 2.71967 -4.4848 0
M  V30 4467 H 432.207 4.18375 -3.60093 0
M  V30 4468 H 432.684 3.94965 -1.92092 0
M  V30 4469 H 433.29 2.8366 -3.16887 0
M  V30 4470 N 431.605 1.3629 0.791371 0
M  V30 4471 C 432.538 1.24816 1.9104 0
M  V30 4472 C 433.516 0.132739 1.62057 0
M  V30 4473 O 434.7 0.303527 1.8604 0
M  V30 4474 C 431.827 0.925355 3.25814 0
M  V30 4475 C 430.873 2.05495 3.7373 0
M  V30 4476 S 431.706 3.67255 3.89723 0
M  V30 4477 C 432.862 3.37084 5.27376 0
M  V30 4478 H 433.095 2.19533 2.00481 0
M  V30 4479 H 430.628 1.21684 0.950393 0
M  V30 4480 H 432.586 0.745924 4.03666 0
M  V30 4481 H 431.247 -0.00400098 3.141 0
M  V30 4482 H 430.44 1.7836 4.71385 0
M  V30 4483 H 430.042 2.1935 3.02922 0
M  V30 4484 H 432.334 2.90856 6.1189 0
M  V30 4485 H 433.277 4.33995 5.59512 0
M  V30 4486 H 433.685 2.7248 4.94383 0
M  V30 4487 N 433.083 -1.0153 1.20538 0
M  V30 4488 C 434.499 -1.27461 0.96051 0
M  V30 4489 C 434.699 -1.98273 -0.359193 0
M  V30 4490 O 433.755 -2.27886 -1.0874 0
M  V30 4491 C 435.068 -2.10837 2.14402 0
M  V30 4492 C 436.616 -2.24099 2.18515 0
M  V30 4493 C 437.091 -3.10852 3.36355 0
M  V30 4494 N 438.582 -3.18441 3.36377 0
M  V30 4495 C 439.317 -3.85795 4.24205 0
M  V30 4496 N 438.813 -4.55264 5.22213 0
M  V30 4497 N 440.606 -3.82331 4.12043 0
M  V30 4498 H 432.757 -0.539907 2.05423 0
M  V30 4499 H 435.02 -0.30092 0.898972 0
M  V30 4500 H 434.726 -1.66144 3.09983 0
M  V30 4501 H 434.6 -3.11576 2.12604 0
M  V30 4502 H 436.987 -2.68016 1.23497 0
M  V30 4503 H 437.068 -1.22865 2.24361 0
M  V30 4504 H 436.712 -2.6764 4.31661 0
M  V30 4505 H 436.642 -4.12177 3.27746 0
M  V30 4506 H 439.133 -2.68978 2.65442 0
M  V30 4507 H 439.446 -5.04331 5.85551 0
M  V30 4508 H 437.791 -4.54085 5.26148 0
M  V30 4509 H 440.982 -3.27207 3.34743 0
M  V30 4510 H 441.155 -4.34547 4.807 0
M  V30 4511 N 434.561 -1.01147 -1.20859 0
M  V30 4512 C 435.524 -0.582224 -2.21682 0
M  V30 4513 C 436.524 0.344887 -1.57058 0
M  V30 4514 O 437.714 0.134281 -1.73682 0
M  V30 4515 C 434.846 0.150496 -3.40568 0
M  V30 4516 H 436.039 -1.47408 -2.61172 0
M  V30 4517 H 433.592 -0.800695 -1.34233 0
M  V30 4518 H 434.327 1.0575 -3.06574 0
M  V30 4519 H 434.112 -0.515444 -3.88697 0
M  V30 4520 H 435.602 0.438344 -4.15293 0
M  V30 4521 N 436.039 1.36541 -0.78704 0
M  V30 4522 C 437.285 1.99599 -0.358872 0
M  V30 4523 C 437.618 1.62323 1.06606 0
M  V30 4524 O 436.893 0.876858 1.73613 0
M  V30 4525 C 437.176 3.56327 -0.519944 0
M  V30 4526 C 437.029 4.03464 -1.98839 0
M  V30 4527 C 438.348 4.4005 0.0664737 0
M  V30 4528 H 435.467 0.725107 -0.131869 0
M  V30 4529 H 438.109 1.6199 -0.992936 0
M  V30 4530 H 436.259 3.88495 0.0198321 0
M  V30 4531 H 437.931 3.81793 -2.58905 0
M  V30 4532 H 436.174 3.55092 -2.49183 0
M  V30 4533 H 436.845 5.12439 -2.05207 0
M  V30 4534 H 439.321 4.14228 -0.394267 0
M  V30 4535 H 438.197 5.48847 -0.0762682 0
M  V30 4536 H 438.458 4.26655 1.15835 0
M  V30 4537 N 437.518 0.538854 1.48102 0
M  V30 4538 C 438.934 0.19732 1.58376 0
M  V30 4539 C 439.134 -1.29971 1.5398 0
M  V30 4540 O 438.19 -2.07861 1.43352 0
M  V30 4541 C 439.503 0.807716 2.89649 0
M  V30 4542 C 441.051 0.77726 3.03196 0
M  V30 4543 C 441.526 1.36639 4.37143 0
M  V30 4544 N 443.017 1.32875 4.43732 0
M  V30 4545 C 443.752 1.7544 5.45901 0
M  V30 4546 N 443.248 2.25776 6.54979 0
M  V30 4547 N 445.041 1.66623 5.36836 0
M  V30 4548 H 437.192 1.5117 1.49202 0
M  V30 4549 H 439.455 0.629327 0.708979 0
M  V30 4550 H 439.161 1.85909 2.98548 0
M  V30 4551 H 439.035 0.289975 3.76084 0
M  V30 4552 H 441.422 -0.265374 2.93904 0
M  V30 4553 H 441.503 1.33256 2.18349 0
M  V30 4554 H 441.147 2.408 4.47189 0
M  V30 4555 H 441.077 0.786689 5.20691 0
M  V30 4556 H 443.568 0.96037 3.65493 0
M  V30 4557 H 443.881 2.56226 7.29087 0
M  V30 4558 H 442.226 2.29775 6.55918 0
M  V30 4559 H 445.417 1.27089 4.50517 0
M  V30 4560 H 445.59 2.00115 6.16326 0
M  V30 4561 N 438.996 -1.55193 0.274407 0
M  V30 4562 C 440.412 -1.59401 -0.0797543 0
M  V30 4563 C 440.612 -1.29162 -1.54659 0
M  V30 4564 O 439.668 -1.05215 -2.29534 0
M  V30 4565 C 440.981 -2.99257 0.294238 0
M  V30 4566 C 442.529 -3.12072 0.240796 0
M  V30 4567 C 443.004 -4.54194 0.589218 0
M  V30 4568 N 444.495 -4.60033 0.540744 0
M  V30 4569 C 445.23 -5.68027 0.783147 0
M  V30 4570 N 444.726 -6.8417 1.09013 0
M  V30 4571 N 446.519 -5.57572 0.711993 0
M  V30 4572 H 438.67 -1.73113 1.23067 0
M  V30 4573 H 440.933 -0.807197 0.497129 0
M  V30 4574 H 440.639 -3.26217 1.31435 0
M  V30 4575 H 440.513 -3.75427 -0.365281 0
M  V30 4576 H 442.9 -2.84877 -0.770024 0
M  V30 4577 H 442.981 -2.38117 0.934563 0
M  V30 4578 H 442.625 -4.82115 1.59772 0
M  V30 4579 H 442.555 -5.26448 -0.126331 0
M  V30 4580 H 445.046 -3.76599 0.313327 0
M  V30 4581 H 445.359 -7.6243 1.26178 0
M  V30 4582 H 443.704 -6.85787 1.12789 0
M  V30 4583 H 446.895 -4.65714 0.472014 0
M  V30 4584 H 447.068 -6.41659 0.90429 0
M  V30 4585 N 440.474 -0.00167713 -1.576 0
M  V30 4586 C 441.384 1.00548 -2.1196 0
M  V30 4587 C 442.4 1.3758 -1.06526 0
M  V30 4588 O 443.576 1.46278 -1.38436 0
M  V30 4589 C 440.641 2.27809 -2.6135 0
M  V30 4590 C 439.702 1.97074 -3.81393 0
M  V30 4591 C 438.935 3.18267 -4.28417 0
M  V30 4592 O 439.158 4.30009 -3.74765 0
M  V30 4593 O 438.092 3.02167 -5.20556 0
M  V30 4594 H 441.918 0.573373 -2.98238 0
M  V30 4595 H 439.503 0.217255 -1.47812 0
M  V30 4596 H 441.385 3.02568 -2.93309 0
M  V30 4597 H 440.06 2.70254 -1.78169 0
M  V30 4598 H 438.967 1.19785 -3.54404 0
M  V30 4599 H 440.3 1.59464 -4.65652 0
M  V30 4600 N 441.952 1.55251 0.271103 0
M  V30 4601 C 442.899 1.88261 1.33516 0
M  V30 4602 C 443.869 0.734296 1.48988 0
M  V30 4603 O 445.054 0.985741 1.63364 0
M  V30 4604 C 442.194 2.16168 2.69008 0
M  V30 4605 C 441.307 3.43678 2.61743 0
M  V30 4606 C 440.442 3.61276 3.89427 0
M  V30 4607 C 439.481 4.82472 3.7668 0
M  V30 4608 N 438.618 4.96717 4.96202 0
M  V30 4609 H 443.458 2.79015 1.04665 0
M  V30 4610 H 440.995 1.38137 0.505618 0
M  V30 4611 H 442.953 2.30349 3.47844 0
M  V30 4612 H 441.583 1.28646 2.96057 0
M  V30 4613 H 440.635 3.37959 1.74607 0
M  V30 4614 H 441.947 4.3265 2.48224 0
M  V30 4615 H 441.101 3.75284 4.76704 0
M  V30 4616 H 439.84 2.70492 4.05814 0
M  V30 4617 H 438.845 4.68465 2.87786 0
M  V30 4618 H 440.07 5.74692 3.61809 0
M  V30 4619 H 438.016 4.08865 5.12997 0
M  V30 4620 H 437.933 5.79738 4.85222 0
M  V30 4621 H 439.201 5.15113 5.85046 0
M  V30 4622 N 443.43 -0.535701 1.48216 0
M  V30 4623 C 444.707 -1.29683 1.46429 0
M  V30 4624 C 445.087 -2.10391 0.172852 0
M  V30 4625 O 444.435 -2.12282 -0.845488 0
M  V30 4626 C 444.645 -2.18313 2.72287 0
M  V30 4627 C 445.993 -2.78639 3.20383 0
M  V30 4628 O 447.017 -2.28604 2.73164 0
M  V30 4629 O 445.876 -3.69636 4.02531 0
M  V30 4630 H 442.97 -0.585026 0.584529 0
M  V30 4631 H 445.516 -0.552827 1.60443 0
M  V30 4632 H 444.288 -1.58421 3.57797 0
M  V30 4633 H 443.911 -2.99971 2.60966 0
M  V30 4634 N 444.908 -1.36708 -0.784132 0
M  V30 4635 C 445.84 -1.27333 -1.90575 0
M  V30 4636 C 446.853 -0.191706 -1.61667 0
M  V30 4637 O 448.042 -0.446854 -1.72816 0
M  V30 4638 C 445.142 -0.943177 -3.25511 0
M  V30 4639 C 444.315 -2.12776 -3.82158 0
M  V30 4640 C 443.374 -1.76983 -4.95544 0
M  V30 4641 O 442.4 -2.49134 -5.11782 0
M  V30 4642 N 443.602 -0.706624 -5.76183 0
M  V30 4643 H 446.367 -2.23974 -1.99138 0
M  V30 4644 H 443.928 -1.30171 -0.962656 0
M  V30 4645 H 445.92 -0.684799 -3.98864 0
M  V30 4646 H 444.49 -0.0657333 -3.12531 0
M  V30 4647 H 443.71 -2.54863 -3.0073 0
M  V30 4648 H 444.998 -2.91904 -4.16737 0
M  V30 4649 H 444.396 -0.107643 -5.65598 0
M  V30 4650 H 442.953 -0.50808 -6.49817 0
M  V30 4651 N 446.386 1.0089 -1.21074 0
M  V30 4652 C 447.633 1.74607 -1.0256 0
M  V30 4653 C 447.961 1.89426 0.44136 0
M  V30 4654 O 447.216 1.42266 1.34384 0
M  V30 4655 C 447.515 3.16335 -1.66334 0
M  V30 4656 C 447.181 3.21474 -3.16173 0
M  V30 4657 C 445.843 3.22583 -3.57062 0
M  V30 4658 C 448.195 3.19025 -4.12156 0
M  V30 4659 C 445.523 3.18925 -4.92446 0
M  V30 4660 C 447.875 3.16909 -5.47496 0
M  V30 4661 C 446.539 3.16326 -5.87787 0
M  V30 4662 H 445.809 0.638933 -0.375294 0
M  V30 4663 H 448.456 1.18274 -1.50611 0
M  V30 4664 H 446.761 3.75876 -1.10566 0
M  V30 4665 H 448.458 3.72083 -1.49516 0
M  V30 4666 H 445.048 3.2135 -2.83605 0
M  V30 4667 H 449.232 3.17332 -3.81595 0
M  V30 4668 H 444.488 3.16809 -5.22917 0
M  V30 4669 H 448.662 3.13968 -6.21609 0
M  V30 4670 H 446.289 3.13246 -6.92662 0
M  V30 4671 N 447.864 1.01787 1.20321 0
M  V30 4672 C 448.811 0.589197 2.23153 0
M  V30 4673 C 449.781 -0.391367 1.61423 0
M  V30 4674 O 450.966 -0.290518 1.88575 0
M  V30 4675 C 448.106 -0.0650747 3.45039 0
M  V30 4676 C 447.219 0.960207 4.21194 0
M  V30 4677 C 446.354 0.276854 5.30478 0
M  V30 4678 C 445.393 1.2888 5.98378 0
M  V30 4679 N 444.53 0.632031 6.99249 0
M  V30 4680 H 449.37 1.47071 2.59179 0
M  V30 4681 H 446.907 0.736192 1.27352 0
M  V30 4682 H 448.865 -0.461552 4.14639 0
M  V30 4683 H 447.495 -0.910233 3.09701 0
M  V30 4684 H 446.547 1.47484 3.50646 0
M  V30 4685 H 447.859 1.72977 4.67847 0
M  V30 4686 H 447.013 -0.175056 6.06447 0
M  V30 4687 H 445.752 -0.525004 4.84866 0
M  V30 4688 H 444.757 1.75109 5.21169 0
M  V30 4689 H 445.982 2.09196 6.46076 0
M  V30 4690 H 443.928 -0.149935 6.55829 0
M  V30 4691 H 443.845 1.33964 7.44036 0
M  V30 4692 H 445.113 0.203755 7.79234 0
M  V30 4693 N 449.342 -1.36122 0.79427 0
M  V30 4694 C 450.275 -2.27759 0.141845 0
M  V30 4695 C 451.253 -1.47471 -0.684921 0
M  V30 4696 O 452.437 -1.76759 -0.654857 0
M  V30 4697 C 449.564 -3.29008 -0.804446 0
M  V30 4698 C 448.61 -4.26459 -0.0588617 0
M  V30 4699 S 449.443 -5.20253 1.26873 0
M  V30 4700 C 450.599 -6.25048 0.326562 0
M  V30 4701 H 450.832 -2.82746 0.918818 0
M  V30 4702 H 448.365 -1.42736 0.588722 0
M  V30 4703 H 450.323 -3.87842 -1.34495 0
M  V30 4704 H 448.984 -2.72924 -1.5547 0
M  V30 4705 H 448.177 -4.97973 -0.777087 0
M  V30 4706 H 447.779 -3.71731 0.411309 0
M  V30 4707 H 450.071 -6.75705 -0.492795 0
M  V30 4708 H 451.014 -7.00852 1.01053 0
M  V30 4709 H 451.422 -5.64454 -0.0722627 0
M  V30 4710 N 450.82 -0.546701 -1.47814 0
M  V30 4711 C 452.231 -0.110564 -1.86372 0
M  V30 4712 C 452.582 1.31678 -1.45449 0
M  V30 4713 O 451.707 1.98889 -0.852758 0
M  V30 4714 C 452.302 -0.193873 -3.38245 0
M  V30 4715 C 450.861 0.187164 -3.75934 0
M  V30 4716 C 450.008 -0.546166 -2.71868 0
M  V30 4717 H 452.959 -0.757022 -1.39481 0
M  V30 4718 H 452.98 0.590218 -3.75895 0
M  V30 4719 H 452.492 -1.23282 -3.67999 0
M  V30 4720 H 450.593 1.22762 -3.51796 0
M  V30 4721 H 450.706 -0.164083 -4.78819 0
M  V30 4722 H 449.07 0.00953904 -2.54698 0
M  V30 4723 H 449.853 -1.58606 -3.04465 0
M  V30 4724 N 452.299 1.55045 -0.282633 0
M  V30 4725 C 453.715 1.59441 0.0712997 0
M  V30 4726 C 453.915 1.2998 1.53972 0
M  V30 4727 O 452.971 1.06431 2.28973 0
M  V30 4728 C 454.284 2.99097 -0.310104 0
M  V30 4729 C 455.832 3.1194 -0.257343 0
M  V30 4730 C 456.307 4.53875 -0.613297 0
M  V30 4731 N 457.798 4.5974 -0.565134 0
M  V30 4732 C 458.533 5.67603 -0.81326 0
M  V30 4733 N 458.029 6.83582 -1.1264 0
M  V30 4734 N 459.822 5.57187 -0.741553 0
M  V30 4735 H 451.973 1.72458 -1.23984 0
M  V30 4736 H 454.236 0.804549 -0.501403 0
M  V30 4737 H 453.942 3.25516 -1.33163 0
M  V30 4738 H 453.816 3.75616 0.345366 0
M  V30 4739 H 456.203 2.85281 0.754905 0
M  V30 4740 H 456.284 2.37618 -0.947178 0
M  V30 4741 H 455.928 4.81261 -1.62327 0
M  V30 4742 H 455.858 5.26508 0.09841 0
M  V30 4743 H 458.349 3.76427 -0.333294 0
M  V30 4744 H 458.662 7.6175 -1.30219 0
M  V30 4745 H 457.007 6.85179 -1.16425 0
M  V30 4746 H 460.198 4.65457 -0.496705 0
M  V30 4747 H 460.371 6.41171 -0.938306 0
M  V30 4748 N 453.777 0.010035 1.57597 0
M  V30 4749 C 455.054 -0.710296 1.82248 0
M  V30 4750 C 455.434 -1.91426 0.889911 0
M  V30 4751 O 454.782 -2.28424 -0.0590292 0
M  V30 4752 C 454.992 -1.10655 3.30993 0
M  V30 4753 C 456.34 -1.50621 3.96987 0
M  V30 4754 O 457.364 -1.20007 3.35375 0
M  V30 4755 O 456.223 -2.07587 5.05539 0
M  V30 4756 H 453.317 -0.34673 0.750804 0
M  V30 4757 H 455.863 0.0362578 1.69661 0
M  V30 4758 H 454.635 -0.248826 3.90508 0
M  V30 4759 H 454.258 -1.91189 3.48615 0
M  V30 4760 O 455.294 -1.6096 -0.132018 0
M  V30 4761 H 455.985 -1.77966 -0.764703 0
M  V30 END ATOM
M  V30 BEGIN BOND
M  V30 END BOND
M  V30 END CTAB
M  END
$$$$
