drugbank_target|Q8ZNF3 UDP-4-amino-4-deoxy-L-arabinose--oxoglutarate aminotransferase (DB02038; DB02142)
 OpenBabel12092119553D

  0  0  0     0  0            999 V3000
M  V30 BEGIN CTAB
M  V30 COUNTS 5771 5840 0 0 0
M  V30 BEGIN ATOM
M  V30 1 H -0.908 1.98254 -0.117106 0
M  V30 2 N 0 1.576 0 0
M  V30 3 C 0.933 2.03868 1.02534 0
M  V30 4 C 1.911 0.928543 1.3348 0
M  V30 5 O 3.095 1.19667 1.45644 0
M  V30 6 C 0.222 2.43627 2.35294 0
M  V30 7 C -0.732 3.65373 2.2001 0
M  V30 8 S 0.101 5.13292 1.52614 0
M  V30 9 C 1.257 5.56322 2.86805 0
M  V30 10 H 1.49 2.90518 0.631377 0
M  V30 11 H -0.977 1.52953 0.210867 0
M  V30 12 H 0.981 2.67203 3.11629 0
M  V30 13 H -0.358 1.57376 2.7183 0
M  V30 14 H -1.165 3.90944 3.18086 0
M  V30 15 H -1.563 3.418 1.51819 0
M  V30 16 H 0.729 5.58782 3.83104 0
M  V30 17 H 1.672 6.56266 2.65933 0
M  V30 18 H 2.08 4.83886 2.90714 0
M  V30 19 N 1.4781 -0.272755 1.55222 0
M  V30 20 C 2.7031 -1.02683 1.80197 0
M  V30 21 C 3.1281 -1.79142 0.573551 0
M  V30 22 O 2.4861 -1.74917 -0.476849 0
M  V30 23 C 2.5341 -1.9609 3.02624 0
M  V30 24 O 1.6381 -3.04863 2.77727 0
M  V30 25 H 0.9791 -0.293557 0.595584 0
M  V30 26 H 3.5091 -0.30159 2.02365 0
M  V30 27 H 3.5191 -2.38039 3.31363 0
M  V30 28 H 2.1941 -1.39851 3.91682 0
M  V30 29 H 0.7711 -2.67228 2.60084 0
M  V30 30 N 2.9562 -1.48159 -0.537278 0
M  V30 31 C 4.2332 -1.46291 -1.29839 0
M  V30 32 C 4.6132 -0.170613 -2.10409 0
M  V30 33 O 3.9612 0.847746 -2.12192 0
M  V30 34 C 4.1712 -2.72055 -2.18603 0
M  V30 35 C 5.5192 -3.20087 -2.7898 0
M  V30 36 O 6.5432 -2.72921 -2.28894 0
M  V30 37 O 5.4022 -4.02138 -3.70064 0
M  V30 38 H 2.4962 -0.583906 -0.585647 0
M  V30 39 H 5.0422 -1.60384 -0.554534 0
M  V30 40 H 3.8142 -3.57628 -1.58801 0
M  V30 41 H 3.4372 -2.60646 -3.00249 0
M  V30 42 N 4.4343 0.785586 -1.36625 0
M  V30 43 C 5.6813 1.54362 -1.31067 0
M  V30 44 C 6.0093 1.94195 0.10893 0
M  V30 45 O 5.2643 1.63262 1.07908 0
M  V30 46 C 5.5633 2.83007 -2.1827 0
M  V30 47 C 5.2293 2.62294 -3.6676 0
M  V30 48 C 3.8913 2.56353 -4.0723 0
M  V30 49 C 6.2433 2.43371 -4.6089 0
M  V30 50 C 3.5713 2.29461 -5.39967 0
M  V30 51 C 5.9233 2.18005 -5.93849 0
M  V30 52 C 4.5873 2.105 -6.3344 0
M  V30 53 H 3.8573 0.564851 -0.479609 0
M  V30 54 H 6.5043 0.906028 -1.68711 0
M  V30 55 H 4.8093 3.51253 -1.73576 0
M  V30 56 H 6.5063 3.40817 -2.11292 0
M  V30 57 H 3.0963 2.67774 -3.34656 0
M  V30 58 H 7.2803 2.46959 -4.30494 0
M  V30 59 H 2.5363 2.22135 -5.69619 0
M  V30 60 H 6.7103 2.02359 -6.66351 0
M  V30 61 H 4.3373 1.89425 -7.36222 0
M  V30 62 N 5.9124 1.20967 1.01018 0
M  V30 63 C 6.8424 0.988272 2.11555 0
M  V30 64 C 7.8234 -0.0849778 1.69888 0
M  V30 65 O 9.0084 0.0738202 1.9406 0
M  V30 66 C 6.1384 0.546528 3.42973 0
M  V30 67 C 5.0924 1.56375 3.9841 0
M  V30 68 C 4.4184 0.97842 5.25672 0
M  V30 69 C 5.7184 2.94922 4.31066 0
M  V30 70 H 7.4124 1.91276 2.30334 0
M  V30 71 H 4.9584 0.921073 1.1069 0
M  V30 72 H 6.9114 0.378839 4.19694 0
M  V30 73 H 5.6354 -0.413598 3.23971 0
M  V30 74 H 4.2944 1.71891 3.23804 0
M  V30 75 H 3.9424 0.0101688 5.02999 0
M  V30 76 H 3.6424 1.65784 5.63728 0
M  V30 77 H 5.1664 0.821939 6.05043 0
M  V30 78 H 6.5804 2.8288 4.9865 0
M  V30 79 H 4.9774 3.5983 4.80253 0
M  V30 80 H 6.0474 3.4616 3.39561 0
M  V30 81 N 7.3905 -1.2043 1.01659 0
M  V30 82 C 8.8015 -1.71517 0.737482 0
M  V30 83 C 9.1525 -1.81547 -0.743973 0
M  V30 84 O 8.2775 -1.47803 -1.58061 0
M  V30 85 C 8.8725 -3.11515 1.33206 0
M  V30 86 C 7.4315 -3.59912 1.10183 0
M  V30 87 C 6.5785 -2.37116 1.43776 0
M  V30 88 H 9.5295 -1.05444 1.18606 0
M  V30 89 H 9.5505 -3.73575 0.722636 0
M  V30 90 H 9.0625 -3.04182 2.41028 0
M  V30 91 H 7.1635 -3.72577 0.0412756 0
M  V30 92 H 7.2765 -4.44731 1.78188 0
M  V30 93 H 5.6405 -2.39857 0.856778 0
M  V30 94 H 6.4235 -2.32424 2.52654 0
M  V30 95 N 8.8686 -0.792821 -1.36206 0
M  V30 96 C 10.1156 -0.366786 -1.99151 0
M  V30 97 C 10.4436 1.06243 -1.62919 0
M  V30 98 O 9.6986 1.74927 -0.877442 0
M  V30 99 C 9.9976 -0.481501 -3.54142 0
M  V30 100 C 9.6636 -1.87202 -4.10203 0
M  V30 101 C 8.3256 -2.25248 -4.25226 0
M  V30 102 C 10.6776 -2.78237 -4.40719 0
M  V30 103 C 8.0056 -3.53723 -4.68078 0
M  V30 104 C 10.3576 -4.06144 -4.85005 0
M  V30 105 C 9.0216 -4.44207 -4.98234 0
M  V30 106 H 8.2916 -0.134217 -0.728743 0
M  V30 107 H 10.9386 -1.01094 -1.62641 0
M  V30 108 H 9.2436 0.246146 -3.91026 0
M  V30 109 H 10.9406 -0.132844 -4.0078 0
M  V30 110 H 7.5306 -1.56639 -3.98951 0
M  V30 111 H 11.7146 -2.50097 -4.28679 0
M  V30 112 H 6.9706 -3.8308 -4.76508 0
M  V30 113 H 11.1446 -4.76796 -5.07581 0
M  V30 114 H 8.7716 -5.43814 -5.31197 0
M  V30 115 N 10.3467 1.47872 -0.545128 0
M  V30 116 C 11.5717 2.07391 -0.0190611 0
M  V30 117 C 11.9967 1.39688 1.25971 0
M  V30 118 O 11.3547 0.467816 1.7516 0
M  V30 119 C 11.4027 3.60188 0.172335 0
M  V30 120 O 10.5067 3.9339 1.23766 0
M  V30 121 H 9.8477 0.662411 -0.0459059 0
M  V30 122 H 12.3777 1.90066 -0.757365 0
M  V30 123 H 12.3877 4.06129 0.390305 0
M  V30 124 H 11.0627 4.08865 -0.761725 0
M  V30 125 H 9.6397 3.5921 1.00114 0
M  V30 126 N 11.8248 0.280983 1.55075 0
M  V30 127 C 13.2408 -0.0729964 1.59433 0
M  V30 128 C 13.4408 -1.5411 1.29817 0
M  V30 129 O 12.4968 -2.29086 1.06187 0
M  V30 130 C 13.8098 0.306921 2.9913 0
M  V30 131 C 15.3578 0.254023 3.11968 0
M  V30 132 C 15.8328 0.608467 4.5394 0
M  V30 133 N 17.3238 0.560241 4.59799 0
M  V30 134 C 18.0588 0.80722 5.6769 0
M  V30 135 N 17.5548 1.11912 6.83701 0
M  V30 136 N 19.3478 0.735623 5.57266 0
M  V30 137 H 11.4988 1.238 1.7259 0
M  V30 138 H 13.7618 0.500547 0.805082 0
M  V30 139 H 13.4678 1.32816 3.25657 0
M  V30 140 H 13.3418 -0.349363 3.75579 0
M  V30 141 H 15.7288 -0.75794 2.852 0
M  V30 142 H 15.8098 0.944649 2.37718 0
M  V30 143 H 15.4538 1.61814 4.81434 0
M  V30 144 H 15.3838 -0.104013 5.26497 0
M  V30 145 H 17.8748 0.329288 3.76463 0
M  V30 146 H 18.1878 1.29409 7.61888 0
M  V30 147 H 16.5328 1.15695 6.85303 0
M  V30 148 H 19.7238 0.491752 4.6551 0
M  V30 149 H 19.8968 0.931482 6.4127 0
M  V30 150 N 13.3029 -1.57598 0.00835791 0
M  V30 151 C 14.7139 -1.7892 -0.53333 0
M  V30 152 C 15.0649 -0.916609 -1.73473 0
M  V30 153 O 14.1899 -0.121336 -2.1606 0
M  V30 154 C 14.7849 -3.24488 -0.974313 0
M  V30 155 C 13.3439 -3.46878 -1.46125 0
M  V30 156 C 12.4909 -2.74157 -0.416302 0
M  V30 157 H 15.4419 -1.56958 0.234495 0
M  V30 158 H 15.4629 -3.3306 -1.83988 0
M  V30 159 H 14.9749 -3.87972 -0.099718 0
M  V30 160 H 13.0759 -2.8862 -2.35646 0
M  V30 161 H 13.1889 -4.55572 -1.48295 0
M  V30 162 H 11.5529 -2.39022 -0.87981 0
M  V30 163 H 12.3359 -3.40345 0.44947 0
M  V30 164 N 14.781 0.264519 -1.55364 0
M  V30 165 C 15.744 1.31046 -1.88042 0
M  V30 166 C 16.744 1.41943 -0.755569 0
M  V30 167 O 17.934 1.40947 -1.02369 0
M  V30 168 C 15.066 2.69067 -2.09323 0
M  V30 169 H 16.259 1.03297 -2.81549 0
M  V30 170 H 13.812 0.502989 -1.47986 0
M  V30 171 H 14.547 3.01982 -1.18226 0
M  V30 172 H 14.332 2.62542 -2.91229 0
M  V30 173 H 15.822 3.44623 -2.35848 0
M  V30 174 N 16.2591 1.48442 0.529413 0
M  V30 175 C 17.1921 1.57577 1.65059 0
M  V30 176 C 18.1701 0.426198 1.56915 0
M  V30 177 O 19.3541 0.637877 1.77379 0
M  V30 178 C 16.4811 1.5043 3.03461 0
M  V30 179 C 15.5271 2.70235 3.29962 0
M  V30 180 S 16.3601 4.32198 3.16172 0
M  V30 181 C 17.5161 4.2765 4.57019 0
M  V30 182 H 17.7491 2.52427 1.5706 0
M  V30 183 H 15.2821 1.36982 0.712417 0
M  V30 184 H 17.2401 1.46992 3.8328 0
M  V30 185 H 15.9011 0.569167 3.089 0
M  V30 186 H 15.0941 2.61374 4.30929 0
M  V30 187 H 14.6961 2.70938 2.57815 0
M  V30 188 H 16.9881 3.97618 5.48549 0
M  V30 189 H 17.9311 5.28797 4.70934 0
M  V30 190 H 18.3391 3.5811 4.36368 0
M  V30 191 N 17.7372 -0.778329 1.37039 0
M  V30 192 C 18.9852 -1.53361 1.31623 0
M  V30 193 C 19.3062 -1.94739 -0.100831 0
M  V30 194 O 18.5762 -1.65797 -1.04347 0
M  V30 195 H 17.1562 -0.568794 0.484234 0
M  V30 196 H 19.8182 -0.926742 1.71457 0
M  V30 197 H 18.9142 -2.43606 1.95096 0
M  V30 198 N 19.2153 -1.21501 -1.00376 0
M  V30 199 C 20.1783 -0.976927 -2.07337 0
M  V30 200 C 21.1783 0.0525322 -1.60714 0
M  V30 201 O 22.3683 -0.184869 -1.73216 0
M  V30 202 C 19.5003 -0.473423 -3.37597 0
M  V30 203 H 20.6933 -1.92587 -2.29892 0
M  V30 204 H 18.2463 -1.03217 -1.17371 0
M  V30 205 H 18.9813 0.480379 -3.20722 0
M  V30 206 H 18.7663 -1.216 -3.72768 0
M  V30 207 H 20.2563 -0.32675 -4.1632 0
M  V30 208 N 20.6934 1.19889 -1.02296 0
M  V30 209 C 21.6034 2.26571 -0.608508 0
M  V30 210 C 22.6194 1.70299 0.356964 0
M  V30 211 O 23.7954 2.00235 0.216326 0
M  V30 212 C 20.8604 3.46677 0.0402814 0
M  V30 213 C 19.9214 4.18153 -0.97194 0
M  V30 214 C 19.1544 5.32525 -0.354016 0
M  V30 215 O 19.3774 5.64112 0.844604 0
M  V30 216 O 18.3114 5.92242 -1.07391 0
M  V30 217 H 22.1374 2.64251 -1.49684 0
M  V30 218 H 19.7224 1.26629 -0.792809 0
M  V30 219 H 21.6044 4.19475 0.402324 0
M  V30 220 H 20.2794 3.10858 0.902707 0
M  V30 221 H 19.1864 3.47499 -1.38546 0
M  V30 222 H 20.5194 4.57927 -1.80454 0
M  V30 223 N 22.1715 0.800033 1.35784 0
M  V30 224 C 23.0815 0.207204 2.33683 0
M  V30 225 C 24.0975 -0.64631 1.61551 0
M  V30 226 O 25.2735 -0.559604 1.93469 0
M  V30 227 C 22.3385 -0.639659 3.40748 0
M  V30 228 C 21.3995 0.233585 4.28664 0
M  V30 229 C 20.6325 -0.572954 5.30616 0
M  V30 230 O 20.8555 -1.80816 5.40982 0
M  V30 231 O 19.7895 0.0327285 6.01891 0
M  V30 232 H 23.6155 1.01692 2.86169 0
M  V30 233 H 21.2005 0.561691 1.38439 0
M  V30 234 H 23.0825 -1.12223 4.06182 0
M  V30 235 H 21.7575 -1.42708 2.90544 0
M  V30 236 H 20.6645 0.763147 3.66233 0
M  V30 237 H 21.9975 0.984784 4.82248 0
M  V30 238 N 23.6496 -1.47581 0.552962 0
M  V30 239 C 24.5796 -2.32762 -0.185451 0
M  V30 240 C 25.5606 -1.43527 -0.912905 0
M  V30 241 O 26.7456 -1.72388 -0.894201 0
M  V30 242 C 23.8756 -3.25219 -1.21859 0
M  V30 243 C 22.8296 -4.23661 -0.607864 0
M  V30 244 C 22.1556 -5.05413 -1.74533 0
M  V30 245 C 23.4556 -5.20481 0.435582 0
M  V30 246 H 25.1496 -2.94749 0.525684 0
M  V30 247 H 22.6956 -1.41738 0.254251 0
M  V30 248 H 24.6486 -3.8365 -1.7433 0
M  V30 249 H 23.3726 -2.61279 -1.95961 0
M  V30 250 H 22.0316 -3.66451 -0.104489 0
M  V30 251 H 21.6796 -4.3788 -2.47529 0
M  V30 252 H 21.3796 -5.72059 -1.34249 0
M  V30 253 H 22.9036 -5.66701 -2.27338 0
M  V30 254 H 24.3176 -5.733 -0.00290157 0
M  V30 255 H 22.7146 -5.95305 0.757067 0
M  V30 256 H 23.7846 -4.66217 1.33303 0
M  V30 257 N 25.1277 -0.289203 -1.54924 0
M  V30 258 C 26.0907 0.579144 -2.21762 0
M  V30 259 C 27.0907 1.07047 -1.1999 0
M  V30 260 O 28.2807 0.968384 -1.44803 0
M  V30 261 C 25.4127 1.80055 -2.8947 0
M  V30 262 H 26.6057 -0.00464908 -2.999 0
M  V30 263 H 24.1587 -0.0399306 -1.56249 0
M  V30 264 H 24.8937 2.42449 -2.15381 0
M  V30 265 H 24.6787 1.45602 -3.64064 0
M  V30 266 H 26.1687 2.41773 -3.40493 0
M  V30 267 N 26.6058 1.57591 -0.0167156 0
M  V30 268 C 27.5688 2.08393 0.954204 0
M  V30 269 C 28.5688 0.996531 1.26198 0
M  V30 270 O 29.7588 1.25858 1.20438 0
M  V30 271 C 26.8908 2.5394 2.27436 0
M  V30 272 H 28.0838 2.95455 0.514451 0
M  V30 273 H 25.6368 1.54582 0.231089 0
M  V30 274 H 26.3718 1.70171 2.76066 0
M  V30 275 H 26.1568 3.33371 2.06412 0
M  V30 276 H 27.6468 2.93512 2.97053 0
M  V30 277 N 28.0839 -0.256276 1.55502 0
M  V30 278 C 29.3299 -0.987079 1.77157 0
M  V30 279 C 29.6629 -1.85327 0.580315 0
M  V30 280 O 28.9379 -1.89874 -0.421686 0
M  V30 281 C 29.2209 -1.85553 3.08613 0
M  V30 282 C 29.0739 -1.01816 4.38125 0
M  V30 283 C 30.3929 -2.8397 3.36228 0
M  V30 284 H 27.5119 -0.357428 0.644526 0
M  V30 285 H 30.1539 -0.258239 1.88237 0
M  V30 286 H 28.3039 -2.47695 2.99298 0
M  V30 287 H 29.9759 -0.416159 4.59419 0
M  V30 288 H 28.2189 -0.322178 4.32602 0
M  V30 289 H 28.8899 -1.65939 5.26468 0
M  V30 290 H 31.3659 -2.31964 3.45445 0
M  V30 291 H 30.2419 -3.41864 4.29442 0
M  V30 292 H 30.5029 -3.59955 2.56681 0
M  V30 293 N 29.562 -1.4872 -0.521534 0
M  V30 294 C 30.509 -1.63871 -1.62527 0
M  V30 295 C 31.479 -0.480559 -1.58996 0
M  V30 296 O 32.664 -0.705085 -1.77294 0
M  V30 297 C 29.804 -1.69227 -3.00759 0
M  V30 298 C 28.917 -2.96207 -3.14461 0
M  V30 299 C 28.052 -2.92671 -4.43303 0
M  V30 300 C 27.091 -4.14318 -4.50563 0
M  V30 301 N 26.228 -4.0881 -5.70805 0
M  V30 302 H 31.068 -2.58123 -1.48918 0
M  V30 303 H 28.605 -1.28 -0.724878 0
M  V30 304 H 30.563 -1.70314 -3.80853 0
M  V30 305 H 29.193 -0.784586 -3.1312 0
M  V30 306 H 28.245 -3.04826 -2.27564 0
M  V30 307 H 29.557 -3.86192 -3.15686 0
M  V30 308 H 28.711 -2.92206 -5.31696 0
M  V30 309 H 27.45 -2.00429 -4.44612 0
M  V30 310 H 26.455 -4.15049 -3.60575 0
M  V30 311 H 27.68 -5.07729 -4.50986 0
M  V30 312 H 25.626 -3.19394 -5.72995 0
M  V30 313 H 25.543 -4.92509 -5.7356 0
M  V30 314 H 26.811 -4.12418 -6.61462 0
M  V30 315 N 31.0401 0.771051 -1.3745 0
M  V30 316 C 32.2681 1.56015 -1.35893 0
M  V30 317 C 32.6831 1.88718 0.0555523 0
M  V30 318 O 32.0401 1.51502 1.01752 0
M  V30 319 C 32.0911 2.87001 -2.19801 0
M  V30 320 O 31.8121 2.557 -3.55738 0
M  V30 321 C 33.3131 3.81228 -2.26231 0
M  V30 322 H 30.5331 0.483317 -0.465453 0
M  V30 323 H 33.0771 0.955611 -1.80799 0
M  V30 324 H 31.2321 3.43877 -1.78402 0
M  V30 325 H 31.6461 3.39584 -3.99729 0
M  V30 326 H 33.1201 4.70139 -2.89263 0
M  V30 327 H 33.5971 4.20409 -1.27093 0
M  V30 328 H 34.2031 3.30281 -2.67945 0
M  V30 329 N 32.5182 1.22032 0.997298 0
M  V30 330 C 33.7642 1.04376 1.73878 0
M  V30 331 C 34.0972 -0.420716 1.89588 0
M  V30 332 O 33.3722 -1.31202 1.43583 0
M  V30 333 C 33.6552 1.75047 3.14691 0
M  V30 334 C 33.5082 3.29062 3.06656 0
M  V30 335 C 34.8272 1.49928 4.13775 0
M  V30 336 H 31.9462 0.380578 0.631133 0
M  V30 337 H 34.5882 1.50312 1.16217 0
M  V30 338 H 32.7382 1.35996 3.63919 0
M  V30 339 H 34.4102 3.7753 2.65083 0
M  V30 340 H 32.6532 3.58967 2.43568 0
M  V30 341 H 33.3242 3.73683 4.06282 0
M  V30 342 H 35.8002 1.83842 3.73285 0
M  V30 343 H 34.6762 2.01878 5.10428 0
M  V30 344 H 34.9372 0.430929 4.39995 0
M  V30 345 N 33.9963 -1.19345 1.0293 0
M  V30 346 C 34.9263 -2.2481 0.631105 0
M  V30 347 C 35.9073 -1.66245 -0.360104 0
M  V30 348 O 37.0923 -1.92677 -0.242726 0
M  V30 349 C 34.2223 -3.47295 -0.0184607 0
M  V30 350 C 33.1763 -4.18536 0.895073 0
M  V30 351 C 32.5023 -5.34586 0.110592 0
M  V30 352 C 33.8023 -4.73287 2.209 0
M  V30 353 H 35.4963 -2.58372 1.51275 0
M  V30 354 H 33.0423 -1.24194 0.728818 0
M  V30 355 H 34.9953 -4.20268 -0.308675 0
M  V30 356 H 33.7193 -3.12933 -0.934907 0
M  V30 357 H 32.3783 -3.47446 1.16949 0
M  V30 358 H 32.0263 -4.96469 -0.807902 0
M  V30 359 H 31.7263 -5.83183 0.719087 0
M  V30 360 H 33.2503 -6.10355 -0.172871 0
M  V30 361 H 34.6643 -5.38013 1.98028 0
M  V30 362 H 33.0613 -5.32373 2.76946 0
M  V30 363 H 34.1313 -3.91331 2.86336 0
M  V30 364 N 35.4744 -0.807222 -1.35358 0
M  V30 365 C 36.7514 -0.311126 -1.9311 0
M  V30 366 C 37.1314 1.19937 -1.73719 0
M  V30 367 O 36.4794 1.99918 -1.10657 0
M  V30 368 C 36.6894 -0.723226 -3.41424 0
M  V30 369 C 38.0374 -0.713078 -4.18569 0
M  V30 370 O 39.0614 -0.664811 -3.49941 0
M  V30 371 O 37.9204 -0.772022 -5.41019 0
M  V30 372 H 35.0144 -0.081526 -0.822972 0
M  V30 373 H 37.5604 -0.890962 -1.4443 0
M  V30 374 H 36.3324 -1.76426 -3.4927 0
M  V30 375 H 35.9554 -0.118232 -3.97424 0
M  V30 376 N 36.9525 1.47285 -0.560781 0
M  V30 377 C 38.1775 2.07359 -0.0410566 0
M  V30 378 C 38.6025 1.41017 1.24483 0
M  V30 379 O 37.9605 0.486368 1.74654 0
M  V30 380 C 38.0085 3.6035 0.134123 0
M  V30 381 O 37.1125 3.94681 1.19587 0
M  V30 382 H 36.4535 0.661887 -0.0529291 0
M  V30 383 H 38.9835 1.89252 -0.777482 0
M  V30 384 H 38.9935 4.0652 0.347207 0
M  V30 385 H 37.6685 4.08034 -0.805047 0
M  V30 386 H 36.2455 3.60251 0.962987 0
M  V30 387 N 38.4306 0.297415 1.54768 0
M  V30 388 C 39.6786 -0.312295 1.99673 0
M  V30 389 C 39.9996 -1.54686 1.18732 0
M  V30 390 O 39.2696 -1.93854 0.282382 0
M  V30 391 H 37.8496 -0.118381 0.73756 0
M  V30 392 H 40.5116 0.407915 1.90583 0
M  V30 393 H 39.6076 -0.586813 3.06534 0
M  V30 394 N 39.9087 -1.5758 0.0250728 0
M  V30 395 C 41.1547 -1.92746 -0.649648 0
M  V30 396 C 41.5097 -0.901588 -1.69968 0
M  V30 397 O 40.8027 0.0829251 -1.9142 0
M  V30 398 C 40.9967 -3.32421 -1.31268 0
M  V30 399 C 40.8257 -4.48499 -0.328394 0
M  V30 400 C 39.5957 -5.05251 0.070284 0
M  V30 401 C 41.7937 -5.12618 0.415665 0
M  V30 402 N 39.7757 -6.04851 1.05016 0
M  V30 403 C 41.1467 -6.0728 1.24943 0
M  V30 404 C 43.2017 -4.95612 0.476803 0
M  V30 405 C 41.9047 -6.86766 2.1388 0
M  V30 406 C 43.9307 -5.75703 1.3535 0
M  V30 407 C 43.2927 -6.69978 2.17504 0
M  V30 408 H 39.3917 -0.753231 -0.210159 0
M  V30 409 H 41.9757 -1.94486 0.0912999 0
M  V30 410 H 40.1467 -3.31508 -2.02379 0
M  V30 411 H 41.8787 -3.54946 -1.94411 0
M  V30 412 H 38.6337 -4.72628 -0.303323 0
M  V30 413 H 39.0577 -6.5934 1.53622 0
M  V30 414 H 43.6997 -4.22554 -0.144105 0
M  V30 415 H 41.4177 -7.59132 2.77027 0
M  V30 416 H 45.0037 -5.64579 1.40504 0
M  V30 417 H 43.8837 -7.30873 2.84244 0
M  V30 418 N 41.3868 0.248026 -1.55636 0
M  V30 419 C 42.6358 0.974134 -1.76617 0
M  V30 420 C 42.9488 1.86528 -0.588796 0
M  V30 421 O 44.1548 2.62805 -0.681594 0
M  V30 422 C 42.6108 1.78213 -3.12679 0
M  V30 423 C 42.2188 0.93843 -4.38061 0
M  V30 424 C 43.9628 2.50104 -3.42999 0
M  V30 425 C 41.8698 1.74225 -5.65155 0
M  V30 426 H 40.7998 0.36745 -0.658405 0
M  V30 427 H 43.4508 0.22884 -1.82067 0
M  V30 428 H 41.8328 2.56933 -3.01333 0
M  V30 429 H 43.0068 0.193635 -4.60393 0
M  V30 430 H 41.3218 0.332905 -4.15067 0
M  V30 431 H 43.9188 3.10694 -4.3517 0
M  V30 432 H 44.2618 3.21662 -2.64271 0
M  V30 433 H 44.7948 1.78395 -3.55556 0
M  V30 434 H 41.5338 1.07043 -6.46701 0
M  V30 435 H 41.0538 2.46235 -5.46926 0
M  V30 436 H 42.7328 2.30967 -6.0437 0
M  V30 437 N 42.8649 1.48995 0.513639 0
M  V30 438 C 44.0929 1.61531 1.29288 0
M  V30 439 C 44.5079 0.281801 1.86685 0
M  V30 440 O 43.8649 -0.731111 1.67215 0
M  V30 441 C 43.9159 2.67449 2.43215 0
M  V30 442 O 43.6369 3.95626 1.88179 0
M  V30 443 C 45.1379 2.90575 3.34785 0
M  V30 444 H 42.3579 0.544165 0.392588 0
M  V30 445 H 44.9019 1.9494 0.617956 0
M  V30 446 H 43.0569 2.36853 3.0656 0
M  V30 447 H 43.4709 4.53868 2.62876 0
M  V30 448 H 44.9449 3.68449 4.11035 0
M  V30 449 H 45.4219 2.00011 3.91015 0
M  V30 450 H 46.0279 3.22538 2.77218 0
M  V30 451 N 44.343 -0.763751 1.37857 0
M  V30 452 C 45.571 -1.55293 1.36718 0
M  V30 453 C 45.986 -1.88745 -0.0455434 0
M  V30 454 O 45.343 -1.52039 -1.00947 0
M  V30 455 C 45.394 -2.85831 2.2132 0
M  V30 456 O 45.115 -2.5381 3.57089 0
M  V30 457 C 46.616 -3.80023 2.28249 0
M  V30 458 H 43.836 -0.480841 0.468009 0
M  V30 459 H 46.38 -0.946009 1.81303 0
M  V30 460 H 44.535 -3.42926 1.80223 0
M  V30 461 H 44.949 -3.37459 4.01524 0
M  V30 462 H 46.423 -4.68599 2.91752 0
M  V30 463 H 46.9 -4.1973 1.2932 0
M  V30 464 H 47.506 -3.28855 2.69693 0
M  V30 465 N 45.8211 -1.22559 -0.990812 0
M  V30 466 C 47.0691 -1.04933 -1.72724 0
M  V30 467 C 47.3901 0.416158 -1.90508 0
M  V30 468 O 46.6601 1.29918 -1.46622 0
M  V30 469 H 45.2401 -0.385296 -0.639965 0
M  V30 470 H 47.9021 -1.54105 -1.19322 0
M  V30 471 H 46.9981 -1.52886 -2.72089 0
M  V30 472 N 47.2992 1.18797 -1.03562 0
M  V30 473 C 48.7102 1.70322 -0.764676 0
M  V30 474 C 49.0612 1.82708 0.714996 0
M  V30 475 O 48.1862 1.50299 1.55689 0
M  V30 476 C 48.7812 3.09356 -1.38145 0
M  V30 477 C 47.3402 3.58114 -1.15895 0
M  V30 478 C 46.4872 2.34798 -1.4753 0
M  V30 479 H 49.4382 1.03543 -1.20268 0
M  V30 480 H 49.4592 3.72378 -0.781977 0
M  V30 481 H 48.9712 3.00309 -2.45837 0
M  V30 482 H 47.0722 3.72464 -0.100544 0
M  V30 483 H 47.1852 4.4184 -1.8524 0
M  V30 484 H 45.5492 2.38464 -0.894829 0
M  V30 485 H 46.3322 2.28375 -2.56319 0
M  V30 486 N 48.7773 0.814389 1.34928 0
M  V30 487 C 49.7243 0.22822 2.29669 0
M  V30 488 C 50.6943 -0.642164 1.53184 0
M  V30 489 O 51.8793 -0.585605 1.81591 0
M  V30 490 C 49.0193 -0.61089 3.3965 0
M  V30 491 C 48.1323 0.280792 4.31086 0
M  V30 492 C 47.2673 -0.567067 5.28165 0
M  V30 493 C 46.3063 0.324531 6.11239 0
M  V30 494 N 45.4433 -0.483756 7.00431 0
M  V30 495 H 50.2833 1.04153 2.79206 0
M  V30 496 H 47.8203 0.525133 1.37407 0
M  V30 497 H 49.7783 -1.11263 4.0209 0
M  V30 498 H 48.4083 -1.38939 2.91369 0
M  V30 499 H 47.4603 0.900688 3.69583 0
M  V30 500 H 48.7723 0.966723 4.89342 0
M  V30 501 H 47.9263 -1.13363 5.96015 0
M  V30 502 H 46.6653 -1.28654 4.70425 0
M  V30 503 H 45.6703 0.903298 5.42329 0
M  V30 504 H 46.8953 1.04198 6.71059 0
M  V30 505 H 44.8413 -1.18706 6.45171 0
M  V30 506 H 44.7583 0.143965 7.55863 0
M  V30 507 H 46.0263 -1.03334 7.7262 0
M  V30 508 N 50.2554 -1.46986 0.568584 0
M  V30 509 C 51.2034 -2.31858 -0.185649 0
M  V30 510 C 52.1974 -1.43624 -0.898249 0
M  V30 511 O 53.4034 -1.60327 -0.818242 0
M  V30 512 H 49.7784 -0.747866 -0.0787399 0
M  V30 513 H 51.7494 -2.93303 0.549191 0
M  V30 514 C 50.4984 -3.26513 -1.19519 0
M  V30 515 H 49.8214 -3.94377 -0.656285 0
M  V30 516 H 51.2614 -3.88707 -1.6936 0
M  V30 517 C 49.7204 -2.50847 -2.24894 0
M  V30 518 O 50.2504 -2.26119 -3.32014 0
M  V30 519 N 48.4564 -2.11656 -1.99124 0
M  V30 520 H 48.0034 -2.31966 -1.12024 0
M  V30 521 H 47.9614 -1.61347 -2.69842 0
M  V30 522 N 51.7335 -0.305618 -1.54608 0
M  V30 523 C 52.6655 0.602161 -2.21149 0
M  V30 524 C 53.6785 1.09394 -1.20569 0
M  V30 525 O 54.8675 1.0106 -1.47136 0
M  V30 526 C 51.9675 1.83692 -2.84799 0
M  V30 527 C 51.1405 1.48686 -4.11353 0
M  V30 528 C 50.1995 2.57725 -4.58764 0
M  V30 529 O 49.2255 2.22623 -5.23858 0
M  V30 530 N 50.4275 3.88346 -4.31471 0
M  V30 531 H 53.1925 0.0324966 -2.99682 0
M  V30 532 H 50.7535 -0.128021 -1.61393 0
M  V30 533 H 52.7455 2.55994 -3.13448 0
M  V30 534 H 51.3155 2.31486 -2.10078 0
M  V30 535 H 50.5355 0.596269 -3.89664 0
M  V30 536 H 51.8235 1.22842 -4.93748 0
M  V30 537 H 51.2215 4.19671 -3.79331 0
M  V30 538 H 49.7785 4.56932 -4.64818 0
M  V30 539 N 53.2116 1.57565 -0.0334293 0
M  V30 540 C 54.1216 2.13943 0.962572 0
M  V30 541 C 55.1376 1.09276 1.35406 0
M  V30 542 O 56.3136 1.41355 1.4346 0
M  V30 543 C 53.3786 2.65887 2.22497 0
M  V30 544 C 52.4396 3.85286 1.8935 0
M  V30 545 C 51.6726 4.34743 3.09571 0
M  V30 546 O 51.8956 3.83352 4.22371 0
M  V30 547 O 50.8296 5.26538 2.91618 0
M  V30 548 H 54.6556 2.99333 0.513169 0
M  V30 549 H 52.2406 1.4822 0.18743 0
M  V30 550 H 54.1226 2.99346 2.96598 0
M  V30 551 H 52.7976 1.83578 2.6661 0
M  V30 552 H 51.7046 3.56746 1.1262 0
M  V30 553 H 53.0376 4.68771 1.5005 0
M  V30 554 N 54.6897 -0.239769 1.55765 0
M  V30 555 C 55.6197 -1.30052 1.9393 0
M  V30 556 C 56.6007 -1.49839 0.805132 0
M  V30 557 O 57.7857 -1.62328 1.06599 0
M  V30 558 C 54.9157 -2.65391 2.2402 0
M  V30 559 C 53.8697 -2.60289 3.39755 0
M  V30 560 C 53.1957 -3.99489 3.55405 0
M  V30 561 C 54.4957 -2.16654 4.75246 0
M  V30 562 H 56.1897 -0.983573 2.82783 0
M  V30 563 H 53.7357 -0.471701 1.36055 0
M  V30 564 H 55.6887 -3.3974 2.49308 0
M  V30 565 H 54.4127 -2.98736 1.32 0
M  V30 566 H 53.0717 -1.88398 3.14487 0
M  V30 567 H 52.7197 -4.30112 2.60793 0
M  V30 568 H 52.4197 -3.96962 4.33238 0
M  V30 569 H 53.9437 -4.75528 3.83022 0
M  V30 570 H 55.3577 -2.80737 4.99859 0
M  V30 571 H 53.7547 -2.25223 5.56232 0
M  V30 572 H 54.8247 -1.11835 4.71827 0
M  V30 573 N 56.1678 -1.49265 -0.50573 0
M  V30 574 C 57.0778 -1.68312 -1.63427 0
M  V30 575 C 58.0938 -0.565682 -1.64548 0
M  V30 576 O 59.2698 -0.839801 -1.83055 0
M  V30 577 C 56.3348 -1.74107 -2.99813 0
M  V30 578 C 55.3958 -2.97653 -3.09356 0
M  V30 579 C 54.6288 -3.03163 -4.39236 0
M  V30 580 O 54.8518 -2.16396 -5.27758 0
M  V30 581 O 53.7858 -3.9558 -4.53652 0
M  V30 582 H 57.6118 -2.63907 -1.50289 0
M  V30 583 H 55.1968 -1.32951 -0.681502 0
M  V30 584 H 57.0788 -1.803 -3.80881 0
M  V30 585 H 55.7538 -0.816901 -3.13223 0
M  V30 586 H 54.6608 -2.96981 -2.27493 0
M  V30 587 H 55.9938 -3.89535 -3.00871 0
M  V30 588 N 57.6459 0.756429 -1.3826 0
M  V30 589 C 58.6089 1.85176 -1.35065 0
M  V30 590 C 59.6089 1.58818 -0.251703 0
M  V30 591 O 60.7989 1.66615 -0.508433 0
M  V30 592 C 57.9309 3.22596 -1.10201 0
M  V30 593 H 59.1239 1.89417 -2.3251 0
M  V30 594 H 56.6769 0.95783 -1.23512 0
M  V30 595 H 57.4119 3.24025 -0.133504 0
M  V30 596 H 57.1969 3.43122 -1.89762 0
M  V30 597 H 58.6869 4.02673 -1.10654 0
M  V30 598 N 59.124 1.23083 0.984299 0
M  V30 599 C 60.087 1.00979 2.05757 0
M  V30 600 C 61.087 -0.0269573 1.60777 0
M  V30 601 O 62.277 0.212403 1.729 0
M  V30 602 C 59.409 0.527072 3.36801 0
M  V30 603 H 60.602 1.9622 2.26799 0
M  V30 604 H 58.155 1.05072 1.15714 0
M  V30 605 H 58.89 -0.429294 3.21446 0
M  V30 606 H 58.675 1.27515 3.70786 0
M  V30 607 H 60.165 0.392942 4.15747 0
M  V30 608 N 60.6021 -1.18246 1.0419 0
M  V30 609 C 61.8491 -1.88257 0.746017 0
M  V30 610 C 62.1771 -1.80429 -0.726331 0
M  V30 611 O 61.4321 -1.2 -1.54591 0
M  V30 612 C 61.7311 -3.38082 1.15911 0
M  V30 613 C 61.3971 -3.66114 2.63195 0
M  V30 614 C 60.0591 -3.73474 3.03432 0
M  V30 615 C 62.4111 -3.78398 3.5842 0
M  V30 616 C 59.7391 -3.90599 4.37778 0
M  V30 617 C 62.0911 -3.97039 4.92487 0
M  V30 618 C 60.7551 -4.02635 5.32392 0
M  V30 619 H 60.0251 -0.688883 0.272987 0
M  V30 620 H 62.6721 -1.3995 1.30715 0
M  V30 621 H 60.9771 -3.88377 0.516806 0
M  V30 622 H 62.6741 -3.90596 0.907516 0
M  V30 623 H 59.2641 -3.61003 2.3103 0
M  V30 624 H 63.4481 -3.72042 3.28479 0
M  V30 625 H 58.7041 -3.93175 4.68213 0
M  V30 626 H 62.8781 -4.05486 5.66175 0
M  V30 627 H 60.5051 -4.15657 6.36501 0
M  V30 628 N 62.0802 -0.821533 -1.34494 0
M  V30 629 C 63.3202 -0.414785 -2.00147 0
M  V30 630 C 63.6842 1.00299 -1.6372 0
M  V30 631 O 64.8852 1.51255 -2.22206 0
M  V30 632 C 63.1562 -0.609403 -3.52166 0
M  V30 633 S 64.7152 -0.295297 -4.37805 0
M  V30 634 H 61.5332 -0.15679 -0.693497 0
M  V30 635 H 64.1352 -1.06705 -1.63812 0
M  V30 636 H 62.8392 -1.64096 -3.76166 0
M  V30 637 H 62.3702 0.0576414 -3.93358 0
M  V30 638 H 64.3852 0.891531 -4.88125 0
M  V30 639 N 63.5583 1.46682 -0.576371 0
M  V30 640 C 64.9743 1.57822 -0.237562 0
M  V30 641 C 65.1743 1.57237 1.26011 0
M  V30 642 O 64.2303 1.48596 2.04146 0
M  V30 643 C 65.5433 2.87499 -0.881168 0
M  V30 644 C 67.0913 3.01119 -0.85417 0
M  V30 645 C 67.5663 4.33524 -1.4772 0
M  V30 646 N 69.0573 4.40207 -1.44125 0
M  V30 647 C 69.7923 5.4126 -1.89276 0
M  V30 648 N 69.2883 6.49021 -2.42371 0
M  V30 649 N 71.0813 5.32422 -1.80231 0
M  V30 650 H 63.2323 1.45306 -1.54919 0
M  V30 651 H 65.4953 0.692733 -0.647167 0
M  V30 652 H 65.2013 2.9372 -1.93447 0
M  V30 653 H 65.0753 3.75224 -0.385592 0
M  V30 654 H 67.4623 2.94485 0.190491 0
M  V30 655 H 67.5433 2.14887 -1.3877 0
M  V30 656 H 67.1873 4.40916 -2.52103 0
M  V30 657 H 67.1173 5.1852 -0.918947 0
M  V30 658 H 69.6083 3.62931 -1.05307 0
M  V30 659 H 69.9213 7.2233 -2.74698 0
M  V30 660 H 68.2663 6.49858 -2.46393 0
M  V30 661 H 71.4573 4.47137 -1.38514 0
M  V30 662 H 71.6303 6.11034 -2.15735 0
M  V30 663 N 65.0364 0.313813 1.54444 0
M  V30 664 C 65.9664 -0.549454 2.26943 0
M  V30 665 C 66.9474 -1.12741 1.27372 0
M  V30 666 O 68.1324 -1.15436 1.56167 0
M  V30 667 C 65.2624 -1.71523 3.01989 0
M  V30 668 C 64.2164 -1.26703 4.08816 0
M  V30 669 C 63.5424 -2.51898 4.71647 0
M  V30 670 C 64.8424 -0.388962 5.2085 0
M  V30 671 H 66.5364 0.0552661 2.99349 0
M  V30 672 H 64.0824 0.0280207 1.43973 0
M  V30 673 H 66.0354 -2.32535 3.51433 0
M  V30 674 H 64.7594 -2.34639 2.27183 0
M  V30 675 H 63.4184 -0.679896 3.6024 0
M  V30 676 H 63.0664 -3.13356 3.93468 0
M  V30 677 H 62.7664 -2.22605 5.43802 0
M  V30 678 H 64.2904 -3.1369 5.23861 0
M  V30 679 H 65.7044 -0.905107 5.6611 0
M  V30 680 H 64.1014 -0.18924 5.99802 0
M  V30 681 H 65.1714 0.582699 4.81386 0
M  V30 682 N 66.5145 -1.57545 0.0417849 0
M  V30 683 C 67.7425 -1.96624 -0.643928 0
M  V30 684 C 68.1575 -0.918897 -1.64929 0
M  V30 685 O 67.5145 0.0979323 -1.82237 0
M  V30 686 C 67.5655 -3.35781 -1.33914 0
M  V30 687 O 67.2865 -4.365 -0.374048 0
M  V30 688 C 68.7875 -3.89566 -2.1155 0
M  V30 689 H 66.0075 -0.647316 -0.176702 0
M  V30 690 H 68.5515 -2.04229 0.105304 0
M  V30 691 H 66.7065 -3.29357 -2.03968 0
M  V30 692 H 67.1205 -5.17248 -0.869179 0
M  V30 693 H 68.5945 -4.89242 -2.55628 0
M  V30 694 H 69.0715 -3.24488 -2.9598 0
M  V30 695 H 69.6775 -3.99298 -1.46427 0
M  V30 696 N 67.9926 0.231505 -1.5589 0
M  V30 697 C 69.2406 0.955461 -1.78088 0
M  V30 698 C 69.5616 1.85262 -0.608533 0
M  V30 699 O 68.8316 1.92277 0.375035 0
M  V30 700 H 67.4116 0.355787 -0.656829 0
M  V30 701 H 70.0736 0.245751 -1.93344 0
M  V30 702 H 69.1696 1.56814 -2.69844 0
M  V30 703 N 69.4707 1.49531 0.497807 0
M  V30 704 C 70.4187 1.66926 1.61983 0
M  V30 705 C 71.4127 0.535167 1.60724 0
M  V30 706 O 72.6187 0.714896 1.65195 0
M  V30 707 H 68.9937 0.526415 0.537021 0
M  V30 708 H 70.9647 2.61098 1.44465 0
M  V30 709 C 69.7137 1.75602 3.00099 0
M  V30 710 H 69.0367 2.62244 3.01775 0
M  V30 711 H 70.4767 1.91807 3.78135 0
M  V30 712 C 68.9357 0.501543 3.33146 0
M  V30 713 O 69.4657 -0.371342 3.9998 0
M  V30 714 N 67.6717 0.363531 2.88317 0
M  V30 715 H 67.2187 1.07485 2.34104 0
M  V30 716 H 67.1767 -0.474728 3.10795 0
M  V30 717 N 70.9488 -0.749086 1.3866 0
M  V30 718 C 71.8808 -1.87273 1.32142 0
M  V30 719 C 72.8938 -1.61127 0.232787 0
M  V30 720 O 74.0828 -1.71623 0.49069 0
M  V30 721 C 71.1828 -3.23005 1.02571 0
M  V30 722 C 70.3558 -3.7662 2.22433 0
M  V30 723 C 69.4148 -4.90879 1.89537 0
M  V30 724 O 68.4408 -5.05276 2.62078 0
M  V30 725 N 69.6428 -5.74198 0.853031 0
M  V30 726 H 72.4078 -1.93373 2.28969 0
M  V30 727 H 69.9688 -0.929216 1.32579 0
M  V30 728 H 71.9608 -3.96992 0.786085 0
M  V30 729 H 70.5308 -3.12262 0.145249 0
M  V30 730 H 69.7508 -2.94147 2.62434 0
M  V30 731 H 71.0388 -4.09173 3.02415 0
M  V30 732 H 70.4368 -5.6514 0.25155 0
M  V30 733 H 68.9938 -6.48313 0.67329 0
M  V30 734 N 72.4269 -1.23603 -0.977757 0
M  V30 735 C 73.6569 -1.09487 -1.75203 0
M  V30 736 C 74.0649 0.356321 -1.85814 0
M  V30 737 O 73.4079 1.25816 -1.33851 0
M  V30 738 C 73.4699 -1.64905 -3.19447 0
M  V30 739 C 73.1339 -3.13688 -3.32338 0
M  V30 740 C 74.1309 -4.10953 -3.18455 0
M  V30 741 C 71.8159 -3.53449 -3.56902 0
M  V30 742 C 73.8099 -5.45962 -3.28944 0
M  V30 743 C 71.4969 -4.88602 -3.6703 0
M  V30 744 C 72.4949 -5.84668 -3.53062 0
M  V30 745 O 72.1829 -7.17365 -3.62826 0
M  V30 746 H 71.9149 -0.38367 -0.556573 0
M  V30 747 H 74.4689 -1.6398 -1.23693 0
M  V30 748 H 72.6989 -1.04835 -3.72218 0
M  V30 749 H 74.3879 -1.46226 -3.78646 0
M  V30 750 H 75.1539 -3.81577 -2.99372 0
M  V30 751 H 71.0329 -2.79188 -3.66844 0
M  V30 752 H 74.5769 -6.20925 -3.17958 0
M  V30 753 H 70.4739 -5.17653 -3.85623 0
M  V30 754 H 71.2419 -7.2515 -3.79605 0
M  V30 755 N 73.905 1.17692 -1.04816 0
M  V30 756 C 74.868 2.19787 -0.650117 0
M  V30 757 C 75.868 1.58044 0.296427 0
M  V30 758 O 77.058 1.74012 0.0808097 0
M  V30 759 C 74.19 3.40869 0.0456987 0
M  V30 760 H 75.383 2.56516 -1.5537 0
M  V30 761 H 72.936 1.31708 -0.841594 0
M  V30 762 H 73.671 3.09681 0.962726 0
M  V30 763 H 73.456 3.86928 -0.634727 0
M  V30 764 H 74.946 4.16445 0.310432 0
M  V30 765 N 75.3831 0.828654 1.34056 0
M  V30 766 C 76.6291 0.42008 1.98402 0
M  V30 767 C 76.9621 -1.01564 1.65525 0
M  V30 768 O 76.2371 -1.70834 0.929831 0
M  V30 769 C 76.5201 0.62927 3.54559 0
M  V30 770 C 76.3731 2.11152 3.97159 0
M  V30 771 C 77.6921 0.0688756 4.40046 0
M  V30 772 H 74.8111 0.154104 0.720709 0
M  V30 773 H 77.4531 1.04228 1.5886 0
M  V30 774 H 75.6031 0.0996418 3.88372 0
M  V30 775 H 77.2751 2.70522 3.73651 0
M  V30 776 H 75.5181 2.59985 3.47261 0
M  V30 777 H 76.1891 2.20868 5.05887 0
M  V30 778 H 78.6651 0.521458 4.1282 0
M  V30 779 H 77.5411 0.245006 5.48353 0
M  V30 780 H 77.8021 -1.0266 4.30015 0
M  V30 781 N 76.8612 -1.46375 0.584142 0
M  V30 782 C 77.8242 -2.28784 -0.138108 0
M  V30 783 C 78.8242 -1.38471 -0.817462 0
M  V30 784 O 80.0142 -1.60833 -0.669199 0
M  V30 785 C 77.1462 -3.18892 -1.20503 0
M  V30 786 H 78.3392 -2.94117 0.586127 0
M  V30 787 H 75.8922 -1.52509 0.342171 0
M  V30 788 H 76.6272 -2.58309 -1.96079 0
M  V30 789 H 76.4122 -3.85388 -0.722384 0
M  V30 790 H 77.9022 -3.80914 -1.71155 0
M  V30 791 N 78.3393 -0.321999 -1.54275 0
M  V30 792 C 79.5853 0.281461 -2.00837 0
M  V30 793 C 79.9183 1.51909 -1.20985 0
M  V30 794 O 79.1933 1.923 -0.291733 0
M  V30 795 C 79.4763 0.617162 -3.54772 0
M  V30 796 C 79.3293 -0.631064 -4.45351 0
M  V30 797 C 80.6483 1.43542 -4.16033 0
M  V30 798 H 77.7673 0.100826 -0.730071 0
M  V30 799 H 80.4093 -0.438268 -1.84876 0
M  V30 800 H 78.5593 1.23034 -3.68504 0
M  V30 801 H 80.2313 -1.26934 -4.43492 0
M  V30 802 H 78.4743 -1.26025 -4.15091 0
M  V30 803 H 79.1453 -0.351735 -5.50878 0
M  V30 804 H 81.6213 0.917134 -4.05867 0
M  V30 805 H 80.4973 1.63907 -5.23856 0
M  V30 806 H 80.7583 2.43108 -3.69257 0
M  V30 807 N 79.8174 1.5752 -0.0501392 0
M  V30 808 C 81.0424 1.97376 0.636997 0
M  V30 809 C 81.4674 0.927466 1.63645 0
M  V30 810 O 80.8254 -0.10941 1.8097 0
M  V30 811 C 80.8734 3.36304 1.30123 0
M  V30 812 O 79.9774 3.34156 2.41689 0
M  V30 813 H 79.3184 0.642998 0.165679 0
M  V30 814 H 81.8484 2.04258 -0.118233 0
M  V30 815 H 81.8584 3.73008 1.65315 0
M  V30 816 H 80.5334 4.11993 0.568746 0
M  V30 817 H 79.1104 3.09196 2.08451 0
M  V30 818 N 81.2955 -0.223234 1.56011 0
M  V30 819 C 82.5205 -0.968978 1.83373 0
M  V30 820 C 82.9455 -1.77227 0.630254 0
M  V30 821 O 82.3035 -1.76345 -0.420959 0
M  V30 822 C 82.3515 -1.86363 3.08709 0
M  V30 823 O 81.4555 -2.95873 2.87285 0
M  V30 824 H 80.7965 -0.274461 0.604622 0
M  V30 825 H 83.3265 -0.237056 2.03222 0
M  V30 826 H 83.3365 -2.27376 3.38768 0
M  V30 827 H 82.0115 -1.27319 3.95933 0
M  V30 828 H 80.5885 -2.58818 2.68454 0
M  V30 829 N 82.7736 -1.49793 -0.48987 0
M  V30 830 C 83.7366 -1.66752 -1.57246 0
M  V30 831 C 84.7366 -0.538867 -1.51502 0
M  V30 832 O 85.9266 -0.805545 -1.54456 0
M  V30 833 C 83.0586 -1.67528 -2.96896 0
M  V30 834 H 84.2516 -2.63321 -1.43534 0
M  V30 835 H 81.8046 -1.38992 -0.714914 0
M  V30 836 H 82.5396 -0.725837 -3.16073 0
M  V30 837 H 82.3246 -2.49504 -3.02473 0
M  V30 838 H 83.8146 -1.82667 -3.7553 0
M  V30 839 N 84.2517 0.741722 -1.39055 0
M  V30 840 C 85.4797 1.53098 -1.39171 0
M  V30 841 C 85.8947 1.88794 0.0155099 0
M  V30 842 O 85.2517 1.53626 0.985159 0
M  V30 843 C 85.3027 2.82274 -2.2584 0
M  V30 844 O 85.0237 2.48097 -3.61081 0
M  V30 845 C 86.5247 3.76343 -2.34266 0
M  V30 846 H 83.7447 0.473335 -0.4756 0
M  V30 847 H 86.2887 0.917045 -1.82785 0
M  V30 848 H 84.4437 3.40015 -1.85656 0
M  V30 849 H 84.8577 3.31029 -4.06842 0
M  V30 850 H 86.3317 4.63898 -2.9917 0
M  V30 851 H 86.8087 4.17619 -1.35982 0
M  V30 852 H 87.4147 3.24523 -2.74891 0
M  V30 853 N 85.7298 1.2412 0.971189 0
M  V30 854 C 86.6928 1.03156 2.04674 0
M  V30 855 C 87.6928 -0.00990322 1.60797 0
M  V30 856 O 88.8828 0.230729 1.72665 0
M  V30 857 C 86.0148 0.562765 3.36223 0
M  V30 858 H 87.2078 1.98614 2.24705 0
M  V30 859 H 84.7608 1.06293 1.14593 0
M  V30 860 H 85.4958 -0.395176 3.21883 0
M  V30 861 H 85.2808 1.31441 3.69413 0
M  V30 862 H 86.7708 0.437015 4.15307 0
M  V30 863 N 87.2079 -1.17134 1.05439 0
M  V30 864 C 88.4559 -1.87085 0.764429 0
M  V30 865 C 88.7769 -1.81584 -0.710787 0
M  V30 866 O 88.0469 -1.24349 -1.51374 0
M  V30 867 H 86.6269 -0.692627 0.279779 0
M  V30 868 H 89.2889 -1.42087 1.33406 0
M  V30 869 H 88.3849 -2.92759 1.0816 0
M  V30 870 N 88.686 -0.835752 -1.33615 0
M  V30 871 C 89.619 -0.211815 -2.27215 0
M  V30 872 C 90.597 0.639249 -1.49507 0
M  V30 873 O 91.781 0.600193 -1.78689 0
M  V30 874 C 88.908 0.702893 -3.31326 0
M  V30 875 C 87.954 -0.0723049 -4.26439 0
M  V30 876 S 88.787 -1.42811 -5.16106 0
M  V30 877 C 89.943 -0.518613 -6.23748 0
M  V30 878 H 90.176 -1.00533 -2.79786 0
M  V30 879 H 87.709 -0.632336 -1.40858 0
M  V30 880 H 89.667 1.22505 -3.91794 0
M  V30 881 H 88.328 1.47004 -2.77576 0
M  V30 882 H 87.521 0.62359 -5.00127 0
M  V30 883 H 87.123 -0.525424 -3.70291 0
M  V30 884 H 89.415 0.284778 -6.76901 0
M  V30 885 H 90.358 -1.22556 -6.97413 0
M  V30 886 H 90.766 -0.101344 -5.64409 0
M  V30 887 N 90.1641 1.46063 -0.591896 0
M  V30 888 C 91.1141 2.27458 0.157172 0
M  V30 889 C 92.0981 1.3641 0.853301 0
M  V30 890 O 93.2901 1.60517 0.74588 0
M  V30 891 C 90.4191 3.22956 1.16423 0
M  V30 892 C 89.5051 4.2149 0.469742 0
M  V30 893 N 89.8961 5.03519 -0.479839 0
M  V30 894 C 88.1941 4.40161 0.719319 0
M  V30 895 C 88.8951 5.74904 -0.886591 0
M  V30 896 N 87.8711 5.43097 -0.233731 0
M  V30 897 H 91.6731 2.88272 -0.572392 0
M  V30 898 H 89.1871 1.57024 -0.414375 0
M  V30 899 H 91.1841 3.79986 1.71513 0
M  V30 900 H 89.8441 2.63701 1.89451 0
M  V30 901 H 90.8551 5.1078 -0.855823 0
M  V30 902 H 87.5321 3.92046 1.43548 0
M  V30 903 H 88.9221 6.50844 -1.66888 0
M  V30 904 N 91.6422 0.330177 1.54103 0
M  V30 905 C 92.8912 -0.271336 1.99867 0
M  V30 906 C 93.2042 -1.52723 1.22209 0
M  V30 907 O 94.4102 -2.20515 1.58383 0
M  V30 908 C 92.8662 -0.534032 3.55916 0
M  V30 909 C 92.4742 0.705193 4.42415 0
M  V30 910 C 94.2182 -1.09514 4.1013 0
M  V30 911 C 92.1252 0.414035 5.89949 0
M  V30 912 H 91.0552 -0.105166 0.74663 0
M  V30 913 H 93.7062 0.443429 1.78062 0
M  V30 914 H 92.0882 -1.30915 3.73734 0
M  V30 915 H 93.2622 1.4804 4.36372 0
M  V30 916 H 91.5772 1.18698 3.99124 0
M  V30 917 H 94.1742 -1.3277 5.17954 0
M  V30 918 H 94.5172 -2.04656 3.62521 0
M  V30 919 H 95.0502 -0.381038 3.95971 0
M  V30 920 H 91.7892 1.33481 6.41766 0
M  V30 921 H 91.3092 -0.323336 5.98928 0
M  V30 922 H 92.9882 0.0263105 6.46995 0
M  V30 923 N 93.1203 -1.57491 0.0584922 0
M  V30 924 C 94.0833 -2.1085 -0.898617 0
M  V30 925 C 95.0833 -1.02964 -1.23511 0
M  V30 926 O 96.2733 -1.29007 -1.17059 0
M  V30 927 C 93.4053 -2.59881 -2.20623 0
M  V30 928 H 94.5983 -2.96715 -0.435936 0
M  V30 929 H 92.1513 -1.55141 -0.190023 0
M  V30 930 H 92.8863 -1.77431 -2.71457 0
M  V30 931 H 92.6713 -3.38727 -1.97501 0
M  V30 932 H 94.1613 -3.01285 -2.89166 0
M  V30 933 N 94.5984 0.214957 -1.56127 0
M  V30 934 C 95.5284 1.2695 -1.95974 0
M  V30 935 C 96.5094 1.48539 -0.828868 0
M  V30 936 O 97.6944 1.60611 -1.09168 0
M  V30 937 C 94.8244 2.61794 -2.28214 0
M  V30 938 C 93.7784 2.54851 -3.43853 0
M  V30 939 C 93.1044 3.93785 -3.61715 0
M  V30 940 C 94.4044 2.09065 -4.78632 0
M  V30 941 H 96.0984 0.93846 -2.84312 0
M  V30 942 H 93.6444 0.449996 -1.36788 0
M  V30 943 H 95.5974 3.35731 -2.54682 0
M  V30 944 H 94.3214 2.96599 -1.36736 0
M  V30 945 H 92.9804 1.8337 -3.17444 0
M  V30 946 H 92.6284 4.25908 -2.67602 0
M  V30 947 H 92.3284 3.90019 -4.39498 0
M  V30 948 H 93.8524 4.69374 -3.90539 0
M  V30 949 H 95.2664 2.7275 -5.04262 0
M  V30 950 H 93.6634 2.16346 -5.59745 0
M  V30 951 H 94.7334 1.04315 -4.73547 0
M  V30 952 N 96.0765 1.50051 0.48192 0
M  V30 953 C 97.0095 1.62749 1.59963 0
M  V30 954 C 97.9875 0.475903 1.5548 0
M  V30 955 O 99.1715 0.693986 1.7526 0
M  V30 956 C 96.2985 1.60008 2.98522 0
M  V30 957 C 95.3445 2.80596 3.21198 0
M  V30 958 S 96.1775 4.42038 3.02262 0
M  V30 959 C 97.3335 4.41973 4.43182 0
M  V30 960 H 97.5665 2.57296 1.4895 0
M  V30 961 H 95.0995 1.39179 0.668477 0
M  V30 962 H 97.0575 1.59112 3.78409 0
M  V30 963 H 95.7185 0.667153 3.06933 0
M  V30 964 H 94.9115 2.74952 4.22395 0
M  V30 965 H 94.5135 2.79003 2.49065 0
M  V30 966 H 96.8055 4.14868 5.35622 0
M  V30 967 H 97.7485 5.43512 4.53873 0
M  V30 968 H 98.1565 3.71812 4.24755 0
M  V30 969 N 97.5546 -0.734337 1.39446 0
M  V30 970 C 98.5176 -1.83004 1.37994 0
M  V30 971 C 99.5176 -1.58397 0.276938 0
M  V30 972 O 100.708 -1.65785 0.534875 0
M  V30 973 C 97.8396 -3.20802 1.1532 0
M  V30 974 H 99.0326 -1.85694 2.35494 0
M  V30 975 H 96.5856 -0.938059 1.25021 0
M  V30 976 H 97.3206 -3.23772 0.185036 0
M  V30 977 H 97.1056 -3.4006 1.95197 0
M  V30 978 H 98.5956 -4.00862 1.17046 0
M  V30 979 N 99.0327 -1.24633 -0.964593 0
M  V30 980 C 99.9627 -1.06611 -2.07741 0
M  V30 981 C 100.944 0.0218666 -1.70086 0
M  V30 982 O 102.129 -0.145793 -1.93652 0
M  V30 983 C 99.2587 -0.673444 -3.40708 0
M  V30 984 C 98.2127 -1.71054 -3.92332 0
M  V30 985 C 97.5387 -1.17285 -5.21678 0
M  V30 986 C 98.8387 -3.10718 -4.19824 0
M  V30 987 H 100.533 -1.99693 -2.23076 0
M  V30 988 H 98.0787 -0.96152 -1.07195 0
M  V30 989 H 100.032 -0.534345 -4.17998 0
M  V30 990 H 98.7557 0.293073 -3.25282 0
M  V30 991 H 97.4147 -1.83791 -3.17201 0
M  V30 992 H 97.0627 -0.196847 -5.02615 0
M  V30 993 H 96.7627 -1.86592 -5.57187 0
M  V30 994 H 98.2867 -1.04593 -6.01575 0
M  V30 995 H 99.7007 -3.01192 -4.87808 0
M  V30 996 H 98.0977 -3.77406 -4.66567 0
M  V30 997 H 99.1677 -3.58524 -3.26479 0
M  V30 998 N 100.511 1.16574 -1.06058 0
M  V30 999 C 101.759 1.86677 -0.77434 0
M  V30 1000 C 102.08 1.81959 0.701147 0
M  V30 1001 O 101.35 1.2515 1.50713 0
M  V30 1002 H 99.9298 0.691134 -0.283449 0
M  V30 1003 H 102.592 1.41378 -1.34158 0
M  V30 1004 H 101.688 2.92181 -1.09711 0
M  V30 1005 N 101.989 0.842826 1.3317 0
M  V30 1006 C 103.238 0.436738 1.96915 0
M  V30 1007 C 103.551 -1.01025 1.67491 0
M  V30 1008 O 104.757 -1.5212 2.24881 0
M  V30 1009 C 103.213 0.730021 3.52418 0
M  V30 1010 C 102.821 2.19195 3.90714 0
M  V30 1011 C 104.565 0.391076 4.22695 0
M  V30 1012 C 102.472 2.42907 5.39212 0
M  V30 1013 H 101.402 0.15958 0.736919 0
M  V30 1014 H 104.053 1.03196 1.51733 0
M  V30 1015 H 102.435 0.0643755 3.95948 0
M  V30 1016 H 103.609 2.8984 3.58231 0
M  V30 1017 H 101.924 2.49425 3.33431 0
M  V30 1018 H 104.521 0.545817 5.31907 0
M  V30 1019 H 104.864 -0.666294 4.10933 0
M  V30 1020 H 105.397 1.01212 3.84709 0
M  V30 1021 H 102.136 3.47224 5.55982 0
M  V30 1022 H 101.656 1.76827 5.73142 0
M  V30 1023 H 103.335 2.2626 6.06148 0
M  V30 1024 N 103.467 -1.45747 0.599634 0
M  V30 1025 C 104.715 -2.01893 0.0915472 0
M  V30 1026 C 105.036 -1.47155 -1.27946 0
M  V30 1027 O 104.306 -0.66273 -1.84349 0
M  V30 1028 H 102.886 -0.746363 0.0308524 0
M  V30 1029 H 105.548 -1.78645 0.779237 0
M  V30 1030 H 104.644 -3.1208 0.0353086 0
M  V30 1031 N 104.945 -0.338344 -1.53925 0
M  V30 1032 C 105.855 0.529421 -2.28548 0
M  V30 1033 C 106.871 1.11645 -1.3346 0
M  V30 1034 O 108.047 1.13325 -1.66492 0
M  V30 1035 C 105.112 1.66713 -3.03987 0
M  V30 1036 C 104.173 1.11041 -4.14691 0
M  V30 1037 C 103.406 2.19389 -4.86522 0
M  V30 1038 O 103.629 3.40013 -4.57982 0
M  V30 1039 O 102.563 1.83976 -5.73094 0
M  V30 1040 H 106.389 -0.0770399 -3.03602 0
M  V30 1041 H 103.974 -0.103555 -1.49041 0
M  V30 1042 H 105.856 2.32918 -3.5118 0
M  V30 1043 H 104.531 2.25949 -2.31794 0
M  V30 1044 H 103.438 0.413024 -3.71813 0
M  V30 1045 H 104.771 0.562975 -4.8897 0
M  V30 1046 N 106.423 1.57458 -0.0668435 0
M  V30 1047 C 107.671 1.92919 0.602214 0
M  V30 1048 C 107.992 0.947215 1.70449 0
M  V30 1049 O 107.262 -0.00544117 1.95899 0
M  V30 1050 H 105.842 0.71217 0.22544 0
M  V30 1051 H 108.504 1.94508 -0.123535 0
M  V30 1052 H 107.6 2.94589 1.03073 0
M  V30 1053 N 107.901 -0.206675 1.56239 0
M  V30 1054 C 109.178 -0.954051 1.70755 0
M  V30 1055 C 109.558 -2.01841 0.618353 0
M  V30 1056 O 108.906 -2.25444 -0.372434 0
M  V30 1057 C 109.116 -1.551 3.12642 0
M  V30 1058 C 110.464 -2.03757 3.72516 0
M  V30 1059 O 111.488 -1.64965 3.15698 0
M  V30 1060 O 110.347 -2.75103 4.72208 0
M  V30 1061 H 107.441 -0.446636 0.696021 0
M  V30 1062 H 109.987 -0.197283 1.68549 0
M  V30 1063 H 108.759 -0.783212 3.83382 0
M  V30 1064 H 108.382 -2.37291 3.19028 0
M  V30 1065 N 109.379 -1.50304 -0.473955 0
M  V30 1066 C 110.289 -1.7174 -1.5982 0
M  V30 1067 C 111.305 -0.600457 -1.63311 0
M  V30 1068 O 112.481 -0.878441 -1.81233 0
M  V30 1069 C 109.546 -1.80427 -2.96052 0
M  V30 1070 C 108.607 -3.04148 -3.02972 0
M  V30 1071 C 107.84 -3.12411 -4.32706 0
M  V30 1072 O 108.063 -2.27542 -5.23049 0
M  V30 1073 O 106.997 -4.05113 -4.45159 0
M  V30 1074 H 110.823 -2.67035 -1.44657 0
M  V30 1075 H 108.408 -1.34366 -0.653148 0
M  V30 1076 H 110.29 -1.88338 -3.7697 0
M  V30 1077 H 108.965 -0.883156 -3.11419 0
M  V30 1078 H 107.872 -3.0174 -2.21142 0
M  V30 1079 H 109.205 -3.95829 -2.92541 0
M  V30 1080 N 110.857 0.726932 -1.39834 0
M  V30 1081 C 112.103 1.48884 -1.377 0
M  V30 1082 C 112.436 1.94185 0.0244852 0
M  V30 1083 O 111.711 1.67361 0.990986 0
M  V30 1084 C 111.994 2.72288 -2.3565 0
M  V30 1085 C 111.847 2.32956 -3.84775 0
M  V30 1086 C 113.166 3.74414 -2.31306 0
M  V30 1087 H 110.285 0.540062 -0.5015 0
M  V30 1088 H 112.927 0.830547 -1.70886 0
M  V30 1089 H 111.077 3.28457 -2.07481 0
M  V30 1090 H 112.749 1.82356 -4.23726 0
M  V30 1091 H 110.992 1.65088 -4.01159 0
M  V30 1092 H 111.663 3.21362 -4.4881 0
M  V30 1093 H 114.139 3.27849 -2.56231 0
M  V30 1094 H 113.015 4.58414 -3.01907 0
M  V30 1095 H 113.276 4.21909 -1.32081 0
M  V30 1096 N 112.336 1.25143 0.95797 0
M  V30 1097 C 113.585 1.0909 1.69654 0
M  V30 1098 C 113.898 -0.368548 1.92097 0
M  V30 1099 O 115.104 -0.649455 2.63618 0
M  V30 1100 C 113.56 1.90395 3.05414 0
M  V30 1101 C 113.168 3.4081 2.90779 0
M  V30 1102 C 114.912 1.82901 3.83076 0
M  V30 1103 C 112.819 4.14423 4.21909 0
M  V30 1104 H 111.749 0.404625 0.636235 0
M  V30 1105 H 114.4 1.4931 1.06672 0
M  V30 1106 H 112.782 1.42996 3.69281 0
M  V30 1107 H 113.956 3.95859 2.35865 0
M  V30 1108 H 112.271 3.49361 2.26575 0
M  V30 1109 H 114.868 2.35196 4.80195 0
M  V30 1110 H 115.211 0.796224 4.08615 0
M  V30 1111 H 115.744 2.28033 3.25954 0
M  V30 1112 H 112.483 5.18102 4.01561 0
M  V30 1113 H 112.003 3.64159 4.76601 0
M  V30 1114 H 113.682 4.21956 4.90471 0
M  V30 1115 N 113.814 -1.1601 1.06675 0
M  V30 1116 C 115.042 -1.90527 0.806667 0
M  V30 1117 C 115.457 -1.77643 -0.639396 0
M  V30 1118 O 114.814 -1.12369 -1.43803 0
M  V30 1119 C 114.865 -3.41106 1.19705 0
M  V30 1120 O 114.586 -3.53608 2.58636 0
M  V30 1121 C 116.087 -4.32663 0.965266 0
M  V30 1122 H 113.307 -0.604053 0.292166 0
M  V30 1123 H 115.851 -1.47026 1.4214 0
M  V30 1124 H 114.006 -3.82296 0.626774 0
M  V30 1125 H 114.42 -4.47011 2.74375 0
M  V30 1126 H 115.894 -5.36763 1.288 0
M  V30 1127 H 116.371 -4.39089 -0.0987936 0
M  V30 1128 H 116.977 -3.97206 1.52011 0
M  V30 1129 N 115.292 -0.849877 -1.32721 0
M  V30 1130 C 116.703 -0.506188 -1.79707 0
M  V30 1131 C 117.054 0.975627 -1.70223 0
M  V30 1132 O 116.179 1.76078 -1.25799 0
M  V30 1133 C 116.774 -0.912044 -3.26293 0
M  V30 1134 C 115.333 -0.620326 -3.71253 0
M  V30 1135 C 114.48 -1.11439 -2.53922 0
M  V30 1136 H 117.431 -1.03754 -1.20087 0
M  V30 1137 H 117.452 -0.226493 -3.79825 0
M  V30 1138 H 116.964 -1.99057 -3.33164 0
M  V30 1139 H 115.065 0.447674 -3.69901 0
M  V30 1140 H 115.178 -1.18327 -4.64258 0
M  V30 1141 H 113.542 -0.534834 -2.49021 0
M  V30 1142 H 114.325 -2.19992 -2.6355 0
M  V30 1143 N 116.77 1.45427 -0.607355 0
M  V30 1144 C 117.995 2.07124 -0.107006 0
M  V30 1145 C 118.42 1.44906 1.19933 0
M  V30 1146 O 117.778 0.541687 1.73019 0
M  V30 1147 C 117.826 3.60595 0.0194119 0
M  V30 1148 O 116.93 3.98285 1.0697 0
M  V30 1149 H 116.271 0.659868 -0.0739597 0
M  V30 1150 H 118.801 1.86683 -0.837297 0
M  V30 1151 H 118.811 4.07419 0.2177 0
M  V30 1152 H 117.486 4.05266 -0.934453 0
M  V30 1153 H 116.063 3.63133 0.847889 0
M  V30 1154 N 118.248 0.346503 1.53744 0
M  V30 1155 C 119.181 -0.552023 2.21423 0
M  V30 1156 C 120.159 -1.09798 1.19929 0
M  V30 1157 O 121.343 -1.1577 1.4876 0
M  V30 1158 C 118.47 -1.75972 2.89398 0
M  V30 1159 C 117.516 -1.34295 4.04805 0
M  V30 1160 S 118.349 -0.360263 5.34287 0
M  V30 1161 C 119.505 -1.57473 6.05767 0
M  V30 1162 H 119.738 0.0228119 2.97291 0
M  V30 1163 H 117.271 0.130579 1.53847 0
M  V30 1164 H 119.229 -2.45256 3.2918 0
M  V30 1165 H 117.89 -2.30578 2.1329 0
M  V30 1166 H 117.083 -2.24349 4.51313 0
M  V30 1167 H 116.685 -0.729555 3.66815 0
M  V30 1168 H 118.977 -2.50875 6.29339 0
M  V30 1169 H 119.92 -1.15138 6.98676 0
M  V30 1170 H 120.328 -1.77212 5.35963 0
M  V30 1171 N 119.726 -1.57421 0.075193 0
M  V30 1172 C 120.954 -1.97946 -0.602076 0
M  V30 1173 C 121.369 -0.953674 -1.62943 0
M  V30 1174 O 120.726 0.0592551 -1.82404 0
M  V30 1175 C 120.777 -3.38546 -1.26762 0
M  V30 1176 O 120.498 -4.37195 -0.281376 0
M  V30 1177 C 121.999 -3.93966 -2.03239 0
M  V30 1178 H 119.219 -0.650918 -0.162931 0
M  V30 1179 H 121.763 -2.03959 0.148601 0
M  V30 1180 H 119.918 -3.33609 -1.96936 0
M  V30 1181 H 120.332 -5.18975 -0.759267 0
M  V30 1182 H 121.806 -4.94555 -2.45193 0
M  V30 1183 H 122.283 -3.30693 -2.8903 0
M  V30 1184 H 122.889 -4.02315 -1.37924 0
M  V30 1185 N 121.204 0.198386 -1.56346 0
M  V30 1186 C 122.45 0.916115 -1.81601 0
M  V30 1187 C 122.805 1.81025 -0.651744 0
M  V30 1188 O 122.098 1.88316 0.353229 0
M  V30 1189 C 122.292 1.77031 -3.10475 0
M  V30 1190 C 122.121 0.960365 -4.39326 0
M  V30 1191 C 120.891 0.646093 -5.01152 0
M  V30 1192 C 123.089 0.314628 -5.13337 0
M  V30 1193 N 121.071 -0.182828 -6.13628 0
M  V30 1194 C 122.442 -0.37664 -6.18855 0
M  V30 1195 C 124.497 0.230019 -4.97368 0
M  V30 1196 C 123.2 -1.14445 -7.10137 0
M  V30 1197 C 125.226 -0.524389 -5.89071 0
M  V30 1198 C 124.588 -1.20412 -6.94032 0
M  V30 1199 H 120.687 0.314732 -0.715868 0
M  V30 1200 H 123.271 0.185102 -1.93818 0
M  V30 1201 H 121.442 2.47295 -2.99499 0
M  V30 1202 H 123.174 2.42727 -3.2383 0
M  V30 1203 H 119.929 0.969724 -4.63566 0
M  V30 1204 H 120.353 -0.586802 -6.74452 0
M  V30 1205 H 124.995 0.741184 -4.16253 0
M  V30 1206 H 122.713 -1.66706 -7.90718 0
M  V30 1207 H 126.299 -0.591167 -5.78789 0
M  V30 1208 H 125.179 -1.77853 -7.63766 0
M  V30 1209 N 122.682 1.50554 0.465978 0
M  V30 1210 C 123.928 1.62038 1.21949 0
M  V30 1211 C 124.261 0.322116 1.9151 0
M  V30 1212 O 123.536 -0.676723 1.82348 0
M  V30 1213 C 123.819 2.80421 2.25912 0
M  V30 1214 C 123.672 4.20144 1.60622 0
M  V30 1215 C 124.991 2.94354 3.27176 0
M  V30 1216 H 122.11 0.589752 0.441998 0
M  V30 1217 H 124.752 1.82956 0.51257 0
M  V30 1218 H 122.902 2.62717 2.86203 0
M  V30 1219 H 124.574 4.49449 1.03889 0
M  V30 1220 H 122.817 4.24165 0.909211 0
M  V30 1221 H 123.488 4.98914 2.36196 0
M  V30 1222 H 125.964 3.10578 2.76913 0
M  V30 1223 H 124.84 3.788 3.97242 0
M  V30 1224 H 125.101 2.05186 3.916 0
M  V30 1225 N 124.16 -0.719506 1.40217 0
M  V30 1226 C 125.385 -1.51371 1.4178 0
M  V30 1227 C 125.81 -1.88091 0.0182355 0
M  V30 1228 O 125.168 -1.52997 -0.972707 0
M  V30 1229 C 125.216 -2.768 2.31115 0
M  V30 1230 O 124.32 -3.73349 1.7517 0
M  V30 1231 H 123.661 -0.456529 0.482159 0
M  V30 1232 H 126.191 -0.88644 1.844 0
M  V30 1233 H 126.201 -3.25371 2.46167 0
M  V30 1234 H 124.876 -2.49407 3.3282 0
M  V30 1235 H 123.453 -3.32179 1.69444 0
M  V30 1236 N 125.638 -1.25649 -0.95132 0
M  V30 1237 C 126.866 -1.13343 -1.73092 0
M  V30 1238 C 127.281 0.312434 -1.86197 0
M  V30 1239 O 126.638 1.21465 -1.36207 0
M  V30 1240 C 126.689 -1.78602 -3.14299 0
M  V30 1241 O 126.41 -3.17537 -3.01831 0
M  V30 1242 C 127.911 -1.72119 -4.08522 0
M  V30 1243 H 125.131 -0.395181 -0.542285 0
M  V30 1244 H 127.675 -1.66076 -1.19328 0
M  V30 1245 H 125.83 -1.29832 -3.64996 0
M  V30 1246 H 126.244 -3.49676 -3.90931 0
M  V30 1247 H 127.718 -2.22435 -5.052 0
M  V30 1248 H 128.195 -0.685635 -4.33815 0
M  V30 1249 H 128.801 -2.20393 -3.63741 0
M  V30 1250 N 127.117 1.15442 -1.07289 0
M  V30 1251 C 128.047 2.22312 -0.714107 0
M  V30 1252 C 129.028 1.67467 0.298155 0
M  V30 1253 O 130.213 1.93445 0.171048 0
M  V30 1254 C 127.343 3.47124 -0.110448 0
M  V30 1255 C 126.297 4.14926 -1.04979 0
M  V30 1256 C 125.623 5.33807 -0.308924 0
M  V30 1257 C 126.923 4.64762 -2.38314 0
M  V30 1258 H 128.617 2.5258 -1.6076 0
M  V30 1259 H 126.163 1.21404 -0.77441 0
M  V30 1260 H 128.116 4.21124 0.152482 0
M  V30 1261 H 126.84 3.16187 0.81812 0
M  V30 1262 H 125.499 3.42866 -1.29764 0
M  V30 1263 H 125.147 4.99126 0.623084 0
M  V30 1264 H 124.847 5.80113 -0.935036 0
M  V30 1265 H 126.371 6.10576 -0.0537771 0
M  V30 1266 H 127.785 5.30292 -2.1786 0
M  V30 1267 H 126.182 5.21728 -2.96514 0
M  V30 1268 H 127.252 3.80434 -3.00663 0
M  V30 1269 N 128.595 0.856903 1.32268 0
M  V30 1270 C 129.543 0.291987 2.3076 0
M  V30 1271 C 130.537 -0.585857 1.58947 0
M  V30 1272 O 131.743 -0.47341 1.73663 0
M  V30 1273 H 128.118 0.075721 0.748178 0
M  V30 1274 H 130.089 1.13687 2.75895 0
M  V30 1275 C 128.838 -0.502869 3.44044 0
M  V30 1276 H 128.161 0.163328 3.99466 0
M  V30 1277 H 129.601 -0.863691 4.1511 0
M  V30 1278 C 128.06 -1.68898 2.91505 0
M  V30 1279 O 128.59 -2.78811 2.89184 0
M  V30 1280 N 126.796 -1.51679 2.47875 0
M  V30 1281 H 126.343 -0.622666 2.49961 0
M  V30 1282 H 126.301 -2.31184 2.13076 0
M  V30 1283 N 130.073 -1.45103 0.615059 0
M  V30 1284 C 131.006 -2.27717 -0.148408 0
M  V30 1285 C 131.984 -1.37584 -0.866572 0
M  V30 1286 O 133.168 -1.67017 -0.87393 0
M  V30 1287 C 130.295 -3.16136 -1.21557 0
M  V30 1288 C 129.341 -4.22263 -0.599712 0
M  V30 1289 S 130.174 -5.3215 0.598081 0
M  V30 1290 C 131.33 -6.24137 -0.469484 0
M  V30 1291 H 131.563 -2.92121 0.552483 0
M  V30 1292 H 129.096 -1.49054 0.402778 0
M  V30 1293 H 131.054 -3.67633 -1.82638 0
M  V30 1294 H 129.715 -2.50982 -1.88857 0
M  V30 1295 H 128.908 -4.84081 -1.4029 0
M  V30 1296 H 128.51 -3.73945 -0.063876 0
M  V30 1297 H 130.802 -6.63984 -1.34652 0
M  V30 1298 H 131.745 -7.0801 0.112725 0
M  V30 1299 H 132.153 -5.58971 -0.788168 0
M  V30 1300 N 131.551 -0.354651 -1.53558 0
M  V30 1301 C 132.8 0.239504 -2.00273 0
M  V30 1302 C 133.113 1.50759 -1.24623 0
M  V30 1303 O 134.319 2.17968 -1.61871 0
M  V30 1304 C 132.775 0.477341 -3.5672 0
M  V30 1305 C 132.383 -0.775488 -4.41237 0
M  V30 1306 C 134.127 1.02975 -4.11821 0
M  V30 1307 C 132.034 -0.507838 -5.89216 0
M  V30 1308 H 130.964 0.0932743 -0.748208 0
M  V30 1309 H 133.615 -0.471701 -1.77334 0
M  V30 1310 H 131.997 1.24953 -3.7577 0
M  V30 1311 H 133.171 -1.54963 -4.33962 0
M  V30 1312 H 131.486 -1.25033 -3.97185 0
M  V30 1313 H 134.083 1.24513 -5.2 0
M  V30 1314 H 134.426 1.98862 -3.65731 0
M  V30 1315 H 134.959 0.317994 -3.96527 0
M  V30 1316 H 131.698 -1.43674 -6.39561 0
M  V30 1317 H 131.218 0.228011 -5.99366 0
M  V30 1318 H 132.897 -0.129238 -6.46871 0
M  V30 1319 N 133.029 1.57378 -0.0835403 0
M  V30 1320 C 134.275 1.94217 0.583733 0
M  V30 1321 C 134.608 0.964653 1.68547 0
M  V30 1322 O 133.883 -0.00422258 1.945 0
M  V30 1323 C 134.166 3.41253 1.14972 0
M  V30 1324 C 134.019 4.49768 0.0538277 0
M  V30 1325 C 135.338 3.89352 2.05166 0
M  V30 1326 H 132.457 0.706233 0.210724 0
M  V30 1327 H 135.099 1.89392 -0.1519 0
M  V30 1328 H 133.249 3.45496 1.77665 0
M  V30 1329 H 134.921 4.57641 -0.579851 0
M  V30 1330 H 133.164 4.29432 -0.614068 0
M  V30 1331 H 133.835 5.49817 0.490452 0
M  V30 1332 H 136.311 3.87189 1.52393 0
M  V30 1333 H 135.187 4.92822 2.41698 0
M  V30 1334 H 135.448 3.27973 2.96456 0
M  V30 1335 N 134.507 -0.190092 1.56449 0
M  V30 1336 C 135.437 -1.23816 1.97969 0
M  V30 1337 C 136.418 -1.47201 0.852395 0
M  V30 1338 O 137.603 -1.58854 1.1171 0
M  V30 1339 C 134.733 -2.5813 2.3235 0
M  V30 1340 C 133.687 -2.49348 3.47864 0
M  V30 1341 C 133.013 -3.8798 3.67934 0
M  V30 1342 C 134.313 -2.01424 4.81898 0
M  V30 1343 H 136.007 -0.89311 2.85769 0
M  V30 1344 H 133.553 -0.428177 1.37487 0
M  V30 1345 H 135.506 -3.31637 2.59991 0
M  V30 1346 H 134.23 -2.94386 1.41438 0
M  V30 1347 H 132.889 -1.78297 3.20321 0
M  V30 1348 H 132.537 -4.21597 2.74344 0
M  V30 1349 H 132.237 -3.82978 4.45648 0
M  V30 1350 H 133.761 -4.63101 3.97957 0
M  V30 1351 H 135.175 -2.64693 5.08538 0
M  V30 1352 H 133.572 -2.07413 5.63116 0
M  V30 1353 H 134.642 -0.967677 4.75146 0
M  V30 1354 N 135.985 -1.50799 -0.457987 0
M  V30 1355 C 136.915 -1.73553 -1.5621 0
M  V30 1356 C 137.896 -0.584774 -1.59732 0
M  V30 1357 O 139.081 -0.825314 -1.7579 0
M  V30 1358 C 136.211 -1.84169 -2.94447 0
M  V30 1359 C 135.165 -2.99461 -3.0579 0
M  V30 1360 C 134.491 -2.95235 -4.45803 0
M  V30 1361 C 135.791 -4.39766 -2.81786 0
M  V30 1362 H 137.485 -2.66 -1.37421 0
M  V30 1363 H 135.031 -1.28002 -0.659662 0
M  V30 1364 H 136.984 -1.98672 -3.71628 0
M  V30 1365 H 135.708 -0.883545 -3.14422 0
M  V30 1366 H 134.367 -2.8463 -2.31044 0
M  V30 1367 H 134.015 -1.97239 -4.62715 0
M  V30 1368 H 133.715 -3.72642 -4.54326 0
M  V30 1369 H 135.239 -3.11803 -5.24987 0
M  V30 1370 H 136.653 -4.55054 -3.4871 0
M  V30 1371 H 135.05 -5.18722 -3.0174 0
M  V30 1372 H 136.12 -4.51229 -1.7754 0
M  V30 1373 N 137.463 0.71206 -1.40597 0
M  V30 1374 C 138.711 1.46907 -1.38791 0
M  V30 1375 C 139.032 1.94998 0.00780391 0
M  V30 1376 O 138.302 1.70587 0.963174 0
M  V30 1377 H 136.882 0.545043 -0.51082 0
M  V30 1378 H 139.544 0.843882 -1.75683 0
M  V30 1379 H 138.64 2.34021 -2.06496 0
M  V30 1380 N 138.941 1.26152 0.944643 0
M  V30 1381 C 139.904 1.07474 2.0244 0
M  V30 1382 C 140.904 0.0242064 1.60782 0
M  V30 1383 O 142.094 0.267302 1.72137 0
M  V30 1384 C 139.226 0.633956 3.34953 0
M  V30 1385 H 140.419 2.03336 2.20442 0
M  V30 1386 H 137.972 1.087 1.12312 0
M  V30 1387 H 138.707 -0.326811 3.22649 0
M  V30 1388 H 138.492 1.39247 3.66542 0
M  V30 1389 H 139.982 0.52501 4.14287 0
M  V30 1390 N 140.419 -1.14872 1.07899 0
M  V30 1391 C 141.367 -2.21857 0.698727 0
M  V30 1392 C 142.361 -1.66845 -0.293086 0
M  V30 1393 O 143.567 -1.79321 -0.156204 0
M  V30 1394 H 139.942 -0.722691 0.207899 0
M  V30 1395 H 141.913 -2.51205 1.61054 0
M  V30 1396 C 140.662 -3.47498 0.11858 0
M  V30 1397 H 139.985 -3.90154 0.872914 0
M  V30 1398 H 141.425 -4.23858 -0.109759 0
M  V30 1399 C 139.884 -3.16947 -1.1422 0
M  V30 1400 O 140.414 -3.3426 -2.22785 0
M  V30 1401 N 138.62 -2.70946 -1.05055 0
M  V30 1402 H 138.167 -2.57058 -0.167038 0
M  V30 1403 H 138.125 -2.50879 -1.89491 0
M  V30 1404 N 141.898 -0.863906 -1.31812 0
M  V30 1405 C 143.309 -0.52522 -1.7916 0
M  V30 1406 C 143.66 0.957518 -1.71248 0
M  V30 1407 O 142.785 1.74734 -1.27659 0
M  V30 1408 C 143.38 -0.9466 -3.25307 0
M  V30 1409 C 141.939 -0.659668 -3.70574 0
M  V30 1410 C 141.086 -1.14126 -2.52726 0
M  V30 1411 H 144.037 -1.05022 -1.1898 0
M  V30 1412 H 144.058 -0.266766 -3.79564 0
M  V30 1413 H 143.57 -2.02579 -3.31034 0
M  V30 1414 H 141.671 0.408416 -3.70355 0
M  V30 1415 H 141.784 -1.23245 -4.62977 0
M  V30 1416 H 140.148 -0.561216 -2.4844 0
M  V30 1417 H 140.931 -2.22775 -2.61201 0
M  V30 1418 N 143.376 1.44774 -0.622745 0
M  V30 1419 C 144.622 2.0242 -0.124083 0
M  V30 1420 C 144.955 1.4881 1.24777 0
M  V30 1421 O 144.23 0.668799 1.8264 0
M  V30 1422 C 144.513 3.59957 -0.101619 0
M  V30 1423 C 144.366 4.23867 -1.50521 0
M  V30 1424 C 145.685 4.36284 0.578272 0
M  V30 1425 H 142.804 0.735528 -0.0465645 0
M  V30 1426 H 145.446 1.72447 -0.797617 0
M  V30 1427 H 143.596 3.85623 0.471934 0
M  V30 1428 H 145.268 4.09336 -2.12701 0
M  V30 1429 H 143.511 3.81684 -2.06154 0
M  V30 1430 H 144.182 5.32843 -1.4416 0
M  V30 1431 H 146.658 4.16001 0.0906057 0
M  V30 1432 H 145.534 5.46004 0.563149 0
M  V30 1433 H 145.795 4.10271 1.64713 0
M  V30 1434 N 144.854 0.36279 1.53368 0
M  V30 1435 C 145.787 -0.528507 2.21996 0
M  V30 1436 C 146.765 -1.0852 1.21087 0
M  V30 1437 O 147.949 -1.14186 1.4998 0
M  V30 1438 C 145.076 -1.72893 2.91249 0
M  V30 1439 C 144.122 -1.29994 4.06207 0
M  V30 1440 S 144.955 -0.303575 5.34639 0
M  V30 1441 C 146.111 -1.51039 6.07403 0
M  V30 1442 H 146.344 0.0543423 2.9725 0
M  V30 1443 H 143.877 0.146889 1.537 0
M  V30 1444 H 145.835 -2.41751 3.31763 0
M  V30 1445 H 144.496 -2.28303 2.15724 0
M  V30 1446 H 143.689 -2.19549 4.53667 0
M  V30 1447 H 143.291 -0.690608 3.67569 0
M  V30 1448 H 145.583 -2.44186 6.31965 0
M  V30 1449 H 146.526 -1.07721 6.99858 0
M  V30 1450 H 146.934 -1.71518 5.37812 0
M  V30 1451 N 146.332 -1.57332 0.0918853 0
M  V30 1452 C 147.578 -1.94524 -0.573425 0
M  V30 1453 C 147.911 -0.973578 -1.68033 0
M  V30 1454 O 147.186 -0.00609226 -1.94499 0
M  V30 1455 C 147.469 -3.41858 -1.13161 0
M  V30 1456 C 147.322 -4.4979 -0.0299747 0
M  V30 1457 C 148.641 -3.90435 -2.03098 0
M  V30 1458 H 145.76 -0.70734 -0.206975 0
M  V30 1459 H 148.402 -1.89309 0.161942 0
M  V30 1460 H 146.552 -3.46433 -1.7583 0
M  V30 1461 H 148.224 -4.57327 0.604112 0
M  V30 1462 H 146.467 -4.291 0.636833 0
M  V30 1463 H 147.138 -5.50069 -0.461287 0
M  V30 1464 H 149.614 -3.87992 -1.50338 0
M  V30 1465 H 148.49 -4.94097 -2.39081 0
M  V30 1466 H 148.751 -3.29541 -2.94712 0
M  V30 1467 N 147.81 0.181792 -1.56548 0
M  V30 1468 C 149.087 0.926765 -1.72251 0
M  V30 1469 C 149.467 2.00831 -0.650386 0
M  V30 1470 O 148.815 2.26008 0.336521 0
M  V30 1471 C 149.025 1.50106 -3.1507 0
M  V30 1472 C 150.373 1.97805 -3.75711 0
M  V30 1473 O 151.397 1.59922 -3.18282 0
M  V30 1474 O 150.256 2.67555 -4.76525 0
M  V30 1475 H 147.35 0.435506 -0.703039 0
M  V30 1476 H 149.896 0.170443 -1.68842 0
M  V30 1477 H 148.668 0.72212 -3.84579 0
M  V30 1478 H 148.291 2.32186 -3.22763 0
M  V30 1479 N 149.288 1.51039 0.449983 0
M  V30 1480 C 150.534 1.63322 1.20223 0
M  V30 1481 C 150.867 0.34241 1.91158 0
M  V30 1482 O 150.142 -0.657344 1.83055 0
M  V30 1483 C 150.425 2.82801 2.22925 0
M  V30 1484 C 150.278 4.21823 1.56157 0
M  V30 1485 C 151.597 2.97807 3.24035 0
M  V30 1486 H 148.716 0.594407 0.435718 0
M  V30 1487 H 151.358 1.83489 0.493136 0
M  V30 1488 H 149.508 2.65738 2.834 0
M  V30 1489 H 151.18 4.50526 0.991162 0
M  V30 1490 H 149.423 4.25105 0.864172 0
M  V30 1491 H 150.094 5.01391 2.30891 0
M  V30 1492 H 152.57 3.13497 2.73603 0
M  V30 1493 H 151.446 3.82992 3.93202 0
M  V30 1494 H 151.707 2.09328 3.89402 0
M  V30 1495 N 150.766 -0.704594 1.40972 0
M  V30 1496 C 152.043 -1.45847 1.30338 0
M  V30 1497 C 152.423 -2.10973 -0.0732344 0
M  V30 1498 O 151.771 -2.00997 -1.08685 0
M  V30 1499 C 151.981 -2.48525 2.45023 0
M  V30 1500 C 153.329 -3.1404 2.8577 0
M  V30 1501 O 154.353 -2.58848 2.44696 0
M  V30 1502 O 153.212 -4.13981 3.56766 0
M  V30 1503 H 150.306 -0.649092 0.512454 0
M  V30 1504 H 152.852 -0.735836 1.52917 0
M  V30 1505 H 151.624 -1.98994 3.36923 0
M  V30 1506 H 151.247 -3.2831 2.24272 0
M  V30 1507 N 152.244 -1.26651 -0.937939 0
M  V30 1508 C 153.66 -1.03834 -1.21205 0
M  V30 1509 C 153.86 0.234502 -2.00131 0
M  V30 1510 O 152.916 0.942767 -2.3424 0
M  V30 1511 C 154.229 -2.27167 -1.97017 0
M  V30 1512 C 155.777 -2.32101 -2.09996 0
M  V30 1513 C 156.252 -3.55136 -2.8921 0
M  V30 1514 N 157.743 -3.55632 -2.96783 0
M  V30 1515 C 158.478 -4.475 -3.58512 0
M  V30 1516 N 157.974 -5.4966 -4.21717 0
M  V30 1517 N 159.767 -4.35145 -3.55816 0
M  V30 1518 H 151.918 -2.08398 -0.410391 0
M  V30 1519 H 154.181 -0.916031 -0.244114 0
M  V30 1520 H 153.887 -3.19765 -1.46434 0
M  V30 1521 H 153.761 -2.31672 -2.97671 0
M  V30 1522 H 156.148 -1.40015 -2.59769 0
M  V30 1523 H 156.229 -2.31605 -1.08594 0
M  V30 1524 H 155.873 -4.47553 -2.40123 0
M  V30 1525 H 155.803 -3.5288 -3.90875 0
M  V30 1526 H 158.294 -2.81743 -2.51852 0
M  V30 1527 H 158.607 -6.15943 -4.66727 0
M  V30 1528 H 156.952 -5.53514 -4.20294 0
M  V30 1529 H 160.143 -3.5455 -3.05634 0
M  V30 1530 H 160.316 -5.06934 -4.03636 0
M  V30 1531 N 153.722 1.14298 -1.08507 0
M  V30 1532 C 154.999 1.81544 -0.728088 0
M  V30 1533 C 155.379 1.95838 0.78808 0
M  V30 1534 O 154.727 1.51904 1.70697 0
M  V30 1535 C 154.937 3.17169 -1.45619 0
M  V30 1536 C 156.285 3.9265 -1.61591 0
M  V30 1537 O 157.309 3.26762 -1.41793 0
M  V30 1538 O 156.168 5.10807 -1.94263 0
M  V30 1539 H 153.262 0.78491 -0.260471 0
M  V30 1540 H 155.808 1.21307 -1.18671 0
M  V30 1541 H 154.58 3.01934 -2.489 0
M  V30 1542 H 154.203 3.851 -0.989124 0
M  V30 1543 N 155.201 0.870884 1.31352 0
M  V30 1544 C 156.429 0.49677 2.00848 0
M  V30 1545 C 156.844 -0.910998 1.65367 0
M  V30 1546 O 156.201 -1.59696 0.883374 0
M  V30 1547 C 156.252 0.645308 3.55694 0
M  V30 1548 O 155.973 1.99764 3.89905 0
M  V30 1549 C 157.474 0.272326 4.42463 0
M  V30 1550 H 154.694 0.193462 0.642506 0
M  V30 1551 H 157.238 1.1723 1.67563 0
M  V30 1552 H 155.393 0.0173176 3.87396 0
M  V30 1553 H 155.807 2.00607 4.84621 0
M  V30 1554 H 157.281 0.427208 5.50344 0
M  V30 1555 H 157.758 -0.788587 4.32062 0
M  V30 1556 H 158.364 0.876054 4.1618 0
M  V30 1557 N 156.679 -1.44442 0.630414 0
M  V30 1558 C 157.609 -2.33418 -0.0618083 0
M  V30 1559 C 158.59 -1.48165 -0.835541 0
M  V30 1560 O 159.775 -1.76886 -0.801564 0
M  V30 1561 C 156.905 -3.31222 -1.04449 0
M  V30 1562 C 155.859 -4.26288 -0.382436 0
M  V30 1563 C 155.185 -5.13954 -1.47497 0
M  V30 1564 C 156.485 -5.1744 0.710865 0
M  V30 1565 H 158.179 -2.91548 0.681184 0
M  V30 1566 H 155.725 -1.40191 0.329026 0
M  V30 1567 H 157.678 -3.92351 -1.53748 0
M  V30 1568 H 156.402 -2.71299 -1.81836 0
M  V30 1569 H 155.061 -3.6649 0.0899054 0
M  V30 1570 H 154.709 -4.50385 -2.2397 0
M  V30 1571 H 154.409 -5.7837 -1.03737 0
M  V30 1572 H 155.933 -5.77955 -1.96979 0
M  V30 1573 H 157.347 -5.72509 0.300996 0
M  V30 1574 H 155.744 -5.90455 1.07156 0
M  V30 1575 H 156.814 -4.58496 1.57829 0
M  V30 1576 N 158.157 -0.370918 -1.53173 0
M  V30 1577 C 159.09 0.516727 -2.22273 0
M  V30 1578 C 160.068 1.07877 -1.21661 0
M  V30 1579 O 161.252 1.13389 -1.50583 0
M  V30 1580 C 158.379 1.71346 -2.92161 0
M  V30 1581 C 157.425 1.27838 -4.0689 0
M  V30 1582 S 158.258 0.275217 -5.34792 0
M  V30 1583 C 159.414 1.47816 -6.08195 0
M  V30 1584 H 159.647 -0.0701054 -2.97217 0
M  V30 1585 H 157.18 -0.155038 -1.5362 0
M  V30 1586 H 159.138 2.39988 -3.3304 0
M  V30 1587 H 157.799 2.27156 -2.16931 0
M  V30 1588 H 156.992 2.17141 -4.54825 0
M  V30 1589 H 156.594 0.671105 -3.6793 0
M  V30 1590 H 158.886 2.40831 -6.33251 0
M  V30 1591 H 159.829 1.04008 -7.0042 0
M  V30 1592 H 160.237 1.68663 -5.38714 0
M  V30 1593 N 159.635 1.57281 -0.100228 0
M  V30 1594 C 160.881 1.94826 0.563101 0
M  V30 1595 C 161.214 0.982475 1.67514 0
M  V30 1596 O 160.489 0.0164069 1.94493 0
M  V30 1597 C 160.772 3.42453 1.11346 0
M  V30 1598 C 160.625 4.498 0.00612081 0
M  V30 1599 C 161.944 3.91506 2.01024 0
M  V30 1600 H 159.063 0.708428 0.203221 0
M  V30 1601 H 161.705 1.8922 -0.171979 0
M  V30 1602 H 159.855 3.47361 1.7399 0
M  V30 1603 H 161.527 4.57 -0.628357 0
M  V30 1604 H 159.77 4.28756 -0.659581 0
M  V30 1605 H 160.441 5.50306 0.432109 0
M  V30 1606 H 162.917 3.88784 1.48278 0
M  V30 1607 H 161.793 4.95358 2.36457 0
M  V30 1608 H 162.054 3.31099 2.92961 0
M  V30 1609 N 161.113 -0.173488 1.56642 0
M  V30 1610 C 162.341 -0.906095 1.86004 0
M  V30 1611 C 162.756 -1.75921 0.685355 0
M  V30 1612 O 162.113 -1.79198 -0.345578 0
M  V30 1613 C 162.164 -1.78462 3.14378 0
M  V30 1614 O 161.885 -0.965914 4.27319 0
M  V30 1615 C 163.386 -2.62707 3.57071 0
M  V30 1616 H 160.606 -0.263341 0.617165 0
M  V30 1617 H 163.15 -0.174236 2.03756 0
M  V30 1618 H 161.305 -2.46984 2.98459 0
M  V30 1619 H 161.719 -1.56655 5.00559 0
M  V30 1620 H 163.193 -3.19969 4.49804 0
M  V30 1621 H 163.67 -3.37472 2.81086 0
M  V30 1622 H 164.276 -1.99521 3.75595 0
M  V30 1623 N 162.591 -1.51276 -0.441967 0
M  V30 1624 C 164.002 -1.56244 -1.02199 0
M  V30 1625 C 164.353 -0.383149 -1.92422 0
M  V30 1626 O 163.478 0.500613 -2.1053 0
M  V30 1627 C 164.073 -2.83162 -1.86024 0
M  V30 1628 C 162.632 -2.90716 -2.39084 0
M  V30 1629 C 161.779 -2.50858 -1.18175 0
M  V30 1630 H 164.73 -1.5712 -0.223416 0
M  V30 1631 H 164.751 -2.66663 -2.71425 0
M  V30 1632 H 164.263 -3.68974 -1.20331 0
M  V30 1633 H 162.364 -2.09323 -3.08244 0
M  V30 1634 H 162.477 -3.94266 -2.72198 0
M  V30 1635 H 160.841 -2.03951 -1.52565 0
M  V30 1636 H 161.624 -3.3901 -0.541001 0
M  V30 1637 N 164.069 0.697108 -1.41344 0
M  V30 1638 C 164.979 1.84088 -1.45427 0
M  V30 1639 C 165.995 1.70545 -0.34501 0
M  V30 1640 O 167.171 1.92488 -0.592492 0
M  V30 1641 C 164.236 3.20056 -1.33286 0
M  V30 1642 C 163.297 3.45718 -2.54514 0
M  V30 1643 C 162.53 4.75199 -2.42944 0
M  V30 1644 O 162.753 5.51579 -1.45318 0
M  V30 1645 O 161.687 5.0161 -3.32672 0
M  V30 1646 H 165.513 1.836 -2.41919 0
M  V30 1647 H 163.098 0.849966 -1.22866 0
M  V30 1648 H 164.98 4.01236 -1.28794 0
M  V30 1649 H 163.655 3.2123 -0.39909 0
M  V30 1650 H 162.562 2.64474 -2.64583 0
M  V30 1651 H 163.895 3.49356 -3.46715 0
M  V30 1652 N 165.547 1.27147 0.931209 0
M  V30 1653 C 166.497 1.06227 2.01742 0
M  V30 1654 C 167.481 -0.00859065 1.60898 0
M  V30 1655 O 168.673 0.209537 1.75755 0
M  V30 1656 C 165.802 0.707787 3.35924 0
M  V30 1657 C 164.888 1.81661 3.83223 0
M  V30 1658 N 165.279 3.05564 4.03069 0
M  V30 1659 C 163.577 1.70249 4.12227 0
M  V30 1660 C 164.278 3.77697 4.42403 0
M  V30 1661 N 163.254 3.0544 4.49675 0
M  V30 1662 H 167.056 2.00261 2.15111 0
M  V30 1663 H 164.57 1.1781 1.11779 0
M  V30 1664 H 166.567 0.539043 4.134 0
M  V30 1665 H 165.227 -0.224964 3.2392 0
M  V30 1666 H 166.238 3.41363 3.89476 0
M  V30 1667 H 162.915 0.840329 4.08956 0
M  V30 1668 H 164.305 4.84168 4.65866 0
M  V30 1669 N 167.025 -1.13721 1.09112 0
M  V30 1670 C 168.274 -1.84275 0.82009 0
M  V30 1671 C 168.587 -1.84253 -0.656509 0
M  V30 1672 O 169.793 -2.50668 -1.04296 0
M  V30 1673 C 168.249 -3.30825 1.41714 0
M  V30 1674 C 167.857 -3.39244 2.92605 0
M  V30 1675 C 169.601 -4.06443 1.22492 0
M  V30 1676 C 167.508 -4.80047 3.45411 0
M  V30 1677 H 166.438 -0.690387 0.30312 0
M  V30 1678 H 169.089 -1.28146 1.31343 0
M  V30 1679 H 167.471 -3.86737 0.851498 0
M  V30 1680 H 168.645 -2.93344 3.55367 0
M  V30 1681 H 166.96 -2.77088 3.10823 0
M  V30 1682 H 169.557 -5.10387 1.59402 0
M  V30 1683 H 169.9 -4.15972 0.165299 0
M  V30 1684 H 170.433 -3.56852 1.75788 0
M  V30 1685 H 167.172 -4.75709 4.50978 0
M  V30 1686 H 166.692 -5.26455 2.87411 0
M  V30 1687 H 168.371 -5.48957 3.42425 0
M  V30 1688 N 168.503 -0.877838 -1.30888 0
M  V30 1689 C 169.413 -0.343096 -2.32078 0
M  V30 1690 C 170.429 0.551022 -1.65045 0
M  V30 1691 O 171.605 0.445854 -1.96403 0
M  V30 1692 C 168.67 0.439905 -3.43898 0
M  V30 1693 C 167.731 -0.483111 -4.26573 0
M  V30 1694 C 166.964 0.262616 -5.33053 0
M  V30 1695 O 167.187 1.48967 -5.50604 0
M  V30 1696 O 166.121 -0.383593 -6.00676 0
M  V30 1697 H 169.947 -1.18203 -2.79753 0
M  V30 1698 H 167.532 -0.64145 -1.34929 0
M  V30 1699 H 169.414 0.883504 -4.12034 0
M  V30 1700 H 168.089 1.25526 -2.98371 0
M  V30 1701 H 166.996 -0.975374 -3.61161 0
M  V30 1702 H 168.329 -1.26427 -4.75686 0
M  V30 1703 N 169.982 1.44106 -0.638065 0
M  V30 1704 C 170.945 2.29138 0.0531013 0
M  V30 1705 C 171.945 1.41409 0.765506 0
M  V30 1706 O 173.135 1.63206 0.609046 0
M  V30 1707 C 170.267 3.23144 1.08584 0
M  V30 1708 H 171.46 2.91739 -0.694883 0
M  V30 1709 H 169.013 1.51134 -0.398538 0
M  V30 1710 H 169.748 2.65408 1.86357 0
M  V30 1711 H 169.533 3.87804 0.578852 0
M  V30 1712 H 171.023 3.87004 1.56899 0
M  V30 1713 N 171.46 0.379036 1.52974 0
M  V30 1714 C 172.423 -0.448865 2.24762 0
M  V30 1715 C 173.423 -0.998689 1.26027 0
M  V30 1716 O 174.613 -0.882313 1.50203 0
M  V30 1717 C 171.745 -1.62872 2.99476 0
M  V30 1718 H 172.938 0.179491 2.99362 0
M  V30 1719 H 170.491 0.13096 1.5575 0
M  V30 1720 H 171.226 -2.29479 2.29151 0
M  V30 1721 H 171.011 -1.24128 3.71934 0
M  V30 1722 H 172.501 -2.2151 3.5401 0
M  V30 1723 N 172.938 -1.57226 0.108567 0
M  V30 1724 C 174.187 -1.94008 -0.551703 0
M  V30 1725 C 174.5 -0.993442 -1.68494 0
M  V30 1726 O 175.706 -1.25551 -2.40726 0
M  V30 1727 C 174.162 -3.44763 -1.03279 0
M  V30 1728 C 173.77 -4.47943 0.0714193 0
M  V30 1729 C 175.514 -3.90483 -1.66503 0
M  V30 1730 C 173.421 -5.89865 -0.425779 0
M  V30 1731 H 172.351 -0.724206 -0.209863 0
M  V30 1732 H 175.002 -1.82547 0.186741 0
M  V30 1733 H 173.384 -3.51422 -1.82533 0
M  V30 1734 H 174.558 -4.52942 0.847365 0
M  V30 1735 H 172.873 -4.11913 0.609669 0
M  V30 1736 H 175.47 -4.93925 -2.04798 0
M  V30 1737 H 175.813 -3.29877 -2.53942 0
M  V30 1738 H 176.346 -3.86581 -0.938074 0
M  V30 1739 H 173.085 -6.54202 0.412316 0
M  V30 1740 H 172.605 -5.88309 -1.16843 0
M  V30 1741 H 174.284 -6.40844 -0.890397 0
M  V30 1742 N 174.416 0.165178 -1.56732 0
M  V30 1743 C 175.644 0.896218 -1.86482 0
M  V30 1744 C 176.059 1.75555 -0.694675 0
M  V30 1745 O 175.416 1.79379 0.33607 0
M  V30 1746 C 175.467 1.76792 -3.1532 0
M  V30 1747 O 175.188 0.943239 -4.27825 0
M  V30 1748 C 176.689 2.6081 -3.58459 0
M  V30 1749 H 173.909 0.260064 -0.618553 0
M  V30 1750 H 176.453 0.163428 -2.03846 0
M  V30 1751 H 174.608 2.45398 -2.99764 0
M  V30 1752 H 175.022 1.53998 -5.01383 0
M  V30 1753 H 176.496 3.17579 -4.51495 0
M  V30 1754 H 176.973 3.35977 -2.82872 0
M  V30 1755 H 177.579 1.97526 -3.76648 0
M  V30 1756 N 175.894 1.51508 0.433938 0
M  V30 1757 C 177.305 1.56784 1.01369 0
M  V30 1758 C 177.656 0.393349 1.92217 0
M  V30 1759 O 176.781 -0.489441 2.10792 0
M  V30 1760 C 177.376 2.84144 1.8452 0
M  V30 1761 C 175.935 2.9198 2.37539 0
M  V30 1762 C 175.082 2.51482 1.16843 0
M  V30 1763 H 178.033 1.57236 0.215081 0
M  V30 1764 H 178.054 2.68098 2.70007 0
M  V30 1765 H 177.566 3.69607 1.18373 0
M  V30 1766 H 175.667 2.10955 3.0713 0
M  V30 1767 H 175.78 3.95704 2.70103 0
M  V30 1768 H 174.144 2.04758 1.51481 0
M  V30 1769 H 174.927 3.39293 0.523015 0
M  V30 1770 N 177.372 -0.689602 1.41712 0
M  V30 1771 C 178.304 -1.815 1.39966 0
M  V30 1772 C 179.317 -1.59995 0.300917 0
M  V30 1773 O 180.506 -1.69387 0.563039 0
M  V30 1774 C 177.606 -3.18364 1.16179 0
M  V30 1775 C 176.779 -3.66847 2.38206 0
M  V30 1776 C 175.838 -4.82398 2.10186 0
M  V30 1777 O 174.864 -4.93706 2.83272 0
M  V30 1778 N 176.066 -5.70064 1.0958 0
M  V30 1779 H 178.831 -1.83488 2.36965 0
M  V30 1780 H 176.392 -0.872149 1.36401 0
M  V30 1781 H 178.384 -3.93301 0.953756 0
M  V30 1782 H 176.954 -3.11365 0.27756 0
M  V30 1783 H 176.174 -2.82751 2.74673 0
M  V30 1784 H 177.462 -3.95978 3.19498 0
M  V30 1785 H 176.86 -5.63565 0.491019 0
M  V30 1786 H 175.417 -6.44874 0.947656 0
M  V30 1787 N 178.85 -1.27639 -0.924453 0
M  V30 1788 C 180.078 -1.16989 -1.70649 0
M  V30 1789 C 180.493 0.272869 -1.86818 0
M  V30 1790 O 179.85 1.18549 -1.38753 0
M  V30 1791 C 179.901 -1.85229 -3.10439 0
M  V30 1792 O 179.622 -3.23868 -2.95028 0
M  V30 1793 C 181.123 -1.80746 -4.04779 0
M  V30 1794 H 178.343 -0.406595 -0.53378 0
M  V30 1795 H 180.887 -1.68569 -1.15778 0
M  V30 1796 H 179.042 -1.37545 -3.6216 0
M  V30 1797 H 179.456 -3.57889 -3.83426 0
M  V30 1798 H 180.93 -2.33101 -5.00368 0
M  V30 1799 H 181.407 -0.777499 -4.32263 0
M  V30 1800 H 182.013 -2.28059 -3.58984 0
M  V30 1801 N 180.328 1.1314 -1.09713 0
M  V30 1802 C 181.275 2.18642 -0.739196 0
M  V30 1803 C 182.245 1.63706 0.280978 0
M  V30 1804 O 183.43 1.90111 0.161946 0
M  V30 1805 C 180.57 3.44685 -0.169102 0
M  V30 1806 C 179.683 4.13711 -1.24367 0
M  V30 1807 C 178.818 5.27379 -0.636019 0
M  V30 1808 C 177.857 5.88259 -1.69169 0
M  V30 1809 N 176.994 6.93352 -1.10485 0
M  V30 1810 H 181.834 2.48607 -1.64312 0
M  V30 1811 H 179.371 1.22066 -0.820875 0
M  V30 1812 H 181.329 4.16815 0.179256 0
M  V30 1813 H 179.959 3.15161 0.698079 0
M  V30 1814 H 179.011 3.39835 -1.70927 0
M  V30 1815 H 180.323 4.55037 -2.04311 0
M  V30 1816 H 179.477 6.06238 -0.236677 0
M  V30 1817 H 178.216 4.8731 0.194928 0
M  V30 1818 H 177.221 5.08092 -2.10055 0
M  V30 1819 H 178.446 6.30399 -2.52536 0
M  V30 1820 H 176.392 6.55335 -0.295234 0
M  V30 1821 H 176.309 7.33236 -1.84121 0
M  V30 1822 H 177.577 7.76057 -0.73181 0
M  V30 1823 N 181.806 0.884767 1.30421 0
M  V30 1824 C 182.769 0.356277 2.26414 0
M  V30 1825 C 183.769 -0.501124 1.52792 0
M  V30 1826 O 184.959 -0.30831 1.7145 0
M  V30 1827 C 182.091 -0.492316 3.37326 0
M  V30 1828 H 183.284 1.20389 2.74675 0
M  V30 1829 H 180.837 0.661607 1.41607 0
M  V30 1830 H 181.572 -1.36052 2.94381 0
M  V30 1831 H 181.357 0.121832 3.91911 0
M  V30 1832 H 182.847 -0.853871 4.08777 0
M  V30 1833 N 183.284 -1.43765 0.645699 0
M  V30 1834 C 184.533 -2.01116 0.153412 0
M  V30 1835 C 184.846 -1.51493 -1.23731 0
M  V30 1836 O 186.052 -2.01067 -1.8244 0
M  V30 1837 C 184.508 -3.59206 0.223473 0
M  V30 1838 C 184.116 -4.17823 1.61642 0
M  V30 1839 C 185.86 -4.23972 -0.211597 0
M  V30 1840 C 183.767 -5.68183 1.64081 0
M  V30 1841 H 182.697 -0.752093 0.0535891 0
M  V30 1842 H 185.348 -1.6482 0.806633 0
M  V30 1843 H 183.73 -3.92867 -0.497118 0
M  V30 1844 H 184.904 -3.95674 2.36176 0
M  V30 1845 H 183.219 -3.65399 1.99681 0
M  V30 1846 H 185.816 -5.34275 -0.213112 0
M  V30 1847 H 186.159 -3.97352 -1.24165 0
M  V30 1848 H 186.692 -3.95166 0.456988 0
M  V30 1849 H 183.431 -5.99559 2.64971 0
M  V30 1850 H 182.951 -5.9241 0.938611 0
M  V30 1851 H 184.63 -6.32085 1.3812 0
M  V30 1852 N 184.763 -0.387143 -1.52771 0
M  V30 1853 C 186.012 0.19697 -2.00736 0
M  V30 1854 C 186.325 1.48082 -1.27793 0
M  V30 1855 O 187.531 2.14485 -1.66458 0
M  V30 1856 C 185.987 0.401568 -3.57653 0
M  V30 1857 C 185.595 -0.868907 -4.39493 0
M  V30 1858 C 187.339 0.942164 -4.13912 0
M  V30 1859 C 185.246 -0.632705 -5.88006 0
M  V30 1860 H 184.176 0.0773827 -0.750019 0
M  V30 1861 H 186.827 -0.50921 -1.76293 0
M  V30 1862 H 185.209 1.16954 -3.78335 0
M  V30 1863 H 186.383 -1.64133 -4.30577 0
M  V30 1864 H 184.698 -1.33429 -3.94443 0
M  V30 1865 H 187.295 1.13455 -5.22525 0
M  V30 1866 H 187.638 1.9106 -3.69867 0
M  V30 1867 H 188.171 0.233814 -3.97112 0
M  V30 1868 H 184.91 -1.57208 -6.36369 0
M  V30 1869 H 184.43 0.100825 -5.99715 0
M  V30 1870 H 186.109 -0.26642 -6.46451 0
M  V30 1871 N 186.241 1.57166 -0.116904 0
M  V30 1872 C 187.652 1.82169 0.408809 0
M  V30 1873 C 188.003 1.03393 1.66746 0
M  V30 1874 O 187.128 0.269886 2.1471 0
M  V30 1875 C 187.723 3.30429 0.748466 0
M  V30 1876 C 186.282 3.5612 1.21882 0
M  V30 1877 C 185.429 2.76374 0.226452 0
M  V30 1878 H 188.38 1.5497 -0.342063 0
M  V30 1879 H 188.401 3.44943 1.60607 0
M  V30 1880 H 187.913 3.87737 -0.167784 0
M  V30 1881 H 186.014 3.04168 2.15204 0
M  V30 1882 H 186.127 4.64705 1.16559 0
M  V30 1883 H 184.491 2.44515 0.713063 0
M  V30 1884 H 185.274 3.3644 -0.682859 0
M  V30 1885 N 187.719 -0.156864 1.56817 0
M  V30 1886 C 188.965 -0.872416 1.83076 0
M  V30 1887 C 189.298 -1.81261 0.697001 0
M  V30 1888 O 188.573 -1.92171 -0.30008 0
M  V30 1889 C 188.856 -1.65551 3.19789 0
M  V30 1890 C 188.709 -0.737467 4.43713 0
M  V30 1891 C 190.028 -2.62012 3.53606 0
M  V30 1892 H 187.147 -0.315715 0.665953 0
M  V30 1893 H 189.789 -0.138004 1.89498 0
M  V30 1894 H 187.939 -2.28159 3.14445 0
M  V30 1895 H 189.611 -0.123143 4.61136 0
M  V30 1896 H 187.854 -0.0464067 4.33775 0
M  V30 1897 H 188.525 -1.32122 5.35955 0
M  V30 1898 H 191.001 -2.09525 3.59497 0
M  V30 1899 H 189.877 -3.13861 4.50314 0
M  V30 1900 H 190.138 -3.42902 2.79053 0
M  V30 1901 N 189.197 -1.51736 -0.425897 0
M  V30 1902 C 190.147 -1.70258 -1.51645 0
M  V30 1903 C 191.131 -0.556488 -1.5097 0
M  V30 1904 O 192.323 -0.812879 -1.5723 0
M  V30 1905 C 189.452 -1.84143 -2.89735 0
M  V30 1906 C 188.538 -3.04572 -2.95122 0
M  V30 1907 N 188.929 -4.2756 -2.70233 0
M  V30 1908 C 187.227 -3.04061 -3.26286 0
M  V30 1909 C 187.928 -5.08908 -2.81757 0
M  V30 1910 N 186.904 -4.43797 -3.13919 0
M  V30 1911 H 190.706 -2.63004 -1.31172 0
M  V30 1912 H 188.22 -1.4954 -0.633375 0
M  V30 1913 H 190.217 -1.95525 -3.68206 0
M  V30 1914 H 188.877 -0.925857 -3.1122 0
M  V30 1915 H 189.888 -4.56315 -2.44943 0
M  V30 1916 H 186.565 -2.22179 -3.53473 0
M  V30 1917 H 187.955 -6.16843 -2.66372 0
M  V30 1918 N 190.675 0.682077 -1.42076 0
M  V30 1919 C 191.905 1.46844 -1.45329 0
M  V30 1920 C 192.313 1.89102 -0.0609328 0
M  V30 1921 O 191.656 1.58238 0.933082 0
M  V30 1922 C 191.718 2.75375 -2.31104 0
M  V30 1923 C 191.382 2.55238 -3.79081 0
M  V30 1924 C 192.379 2.20309 -4.70914 0
M  V30 1925 C 190.064 2.70459 -4.2327 0
M  V30 1926 C 192.058 2.00859 -6.04925 0
M  V30 1927 C 189.745 2.50624 -5.57343 0
M  V30 1928 C 190.743 2.15876 -6.47986 0
M  V30 1929 O 190.431 1.96227 -7.79583 0
M  V30 1930 H 190.163 0.4586 -0.496651 0
M  V30 1931 H 192.717 0.846131 -1.87162 0
M  V30 1932 H 190.947 3.40061 -1.84107 0
M  V30 1933 H 192.636 3.37231 -2.25898 0
M  V30 1934 H 193.402 2.08153 -4.38061 0
M  V30 1935 H 189.281 2.96485 -3.53012 0
M  V30 1936 H 192.825 1.7366 -6.75639 0
M  V30 1937 H 188.722 2.62375 -5.89771 0
M  V30 1938 H 189.49 2.10883 -7.90867 0
M  V30 1939 N 192.153 1.28127 0.917671 0
M  V30 1940 C 193.116 1.11744 2.00115 0
M  V30 1941 C 194.116 0.0583052 1.60694 0
M  V30 1942 O 195.306 0.303755 1.71531 0
M  V30 1943 C 192.438 0.704862 3.33533 0
M  V30 1944 H 193.631 2.07966 2.16079 0
M  V30 1945 H 191.184 1.11058 1.09981 0
M  V30 1946 H 191.919 -0.258299 3.2327 0
M  V30 1947 H 191.704 1.4699 3.63505 0
M  V30 1948 H 193.194 0.612768 4.1308 0
M  V30 1949 N 193.631 -1.12557 1.10312 0
M  V30 1950 C 194.879 -1.83675 0.843091 0
M  V30 1951 C 195.2 -1.84435 -0.633131 0
M  V30 1952 O 194.47 -1.30657 -1.45964 0
M  V30 1953 H 193.05 -0.680138 0.308904 0
M  V30 1954 H 195.712 -1.36301 1.39313 0
M  V30 1955 H 194.808 -2.87908 1.2048 0
M  V30 1956 N 195.109 -0.891671 -1.2995 0
M  V30 1957 C 196.072 -0.36828 -2.26222 0
M  V30 1958 C 197.072 0.493014 -1.53056 0
M  V30 1959 O 198.262 0.299213 -1.71611 0
M  V30 1960 C 195.394 0.47442 -3.37583 0
M  V30 1961 H 196.587 -1.21844 -2.74033 0
M  V30 1962 H 194.14 -0.669107 -1.41254 0
M  V30 1963 H 194.875 1.34489 -2.95099 0
M  V30 1964 H 194.66 -0.142615 -3.91841 0
M  V30 1965 H 196.15 0.83218 -4.09224 0
M  V30 1966 N 196.587 1.43421 -0.653314 0
M  V30 1967 C 197.998 1.85065 -0.246537 0
M  V30 1968 C 198.349 1.54688 1.2069 0
M  V30 1969 O 197.474 0.995896 1.92122 0
M  V30 1970 C 198.069 3.35922 -0.440666 0
M  V30 1971 C 196.628 3.76297 -0.0882064 0
M  V30 1972 C 195.775 2.67147 -0.743484 0
M  V30 1973 H 198.726 1.33572 -0.856979 0
M  V30 1974 H 198.747 3.79204 0.313798 0
M  V30 1975 H 198.259 3.58 -1.49858 0
M  V30 1976 H 196.36 3.5983 0.96711 0
M  V30 1977 H 196.473 4.76338 -0.513738 0
M  V30 1978 H 194.837 2.54086 -0.176712 0
M  V30 1979 H 195.62 2.92053 -1.80443 0
M  V30 1980 N 198.065 0.39524 1.52563 0
M  V30 1981 C 199.028 -0.425001 2.25225 0
M  V30 1982 C 200.028 -0.985266 1.27079 0
M  V30 1983 O 201.218 -0.866332 1.5113 0
M  V30 1984 C 198.35 -1.59686 3.01186 0
M  V30 1985 H 199.543 0.211233 2.99155 0
M  V30 1986 H 197.096 0.147472 1.55603 0
M  V30 1987 H 197.831 -2.27035 2.31572 0
M  V30 1988 H 197.616 -1.20176 3.73229 0
M  V30 1989 H 199.106 -2.17743 3.5634 0
M  V30 1990 N 199.544 -1.57102 0.125237 0
M  V30 1991 C 200.821 -1.86953 -0.575142 0
M  V30 1992 C 201.201 -1.02749 -1.84407 0
M  V30 1993 O 200.549 -0.108144 -2.28244 0
M  V30 1994 C 200.759 -3.38198 -0.861583 0
M  V30 1995 C 202.107 -4.06937 -1.21192 0
M  V30 1996 O 203.131 -3.43252 -0.951645 0
M  V30 1997 O 201.99 -5.19364 -1.70068 0
M  V30 1998 H 199.084 -0.774147 -0.290906 0
M  V30 1999 H 201.63 -1.68942 0.160211 0
M  V30 2000 H 200.402 -3.91282 0.0373647 0
M  V30 2001 H 200.025 -3.61661 -1.65188 0
M  V30 2002 N 201.022 0.148545 -1.56898 0
M  V30 2003 C 201.952 1.18524 -2.01182 0
M  V30 2004 C 202.933 1.4489 -0.891123 0
M  V30 2005 O 204.118 1.55836 -1.15882 0
M  V30 2006 C 201.248 2.51879 -2.39112 0
M  V30 2007 C 200.202 2.40038 -3.54353 0
M  V30 2008 C 199.528 3.78089 -3.78091 0
M  V30 2009 C 200.828 1.88577 -4.87069 0
M  V30 2010 H 202.522 0.817029 -2.88036 0
M  V30 2011 H 200.068 0.391575 -1.38574 0
M  V30 2012 H 202.021 3.24627 -2.68692 0
M  V30 2013 H 200.745 2.90532 -1.49193 0
M  V30 2014 H 199.404 1.69742 -3.24936 0
M  V30 2015 H 199.052 4.14175 -2.85426 0
M  V30 2016 H 198.752 3.71028 -4.55645 0
M  V30 2017 H 200.276 4.52387 -4.10095 0
M  V30 2018 H 201.69 2.51117 -5.15377 0
M  V30 2019 H 200.087 1.9241 -5.68417 0
M  V30 2020 H 201.157 0.84136 -4.77545 0
M  V30 2021 N 202.5 1.5196 0.417844 0
M  V30 2022 C 203.777 1.56146 1.17803 0
M  V30 2023 C 204.157 0.337275 2.08388 0
M  V30 2024 O 203.505 -0.676447 2.18258 0
M  V30 2025 C 203.715 2.88566 1.96293 0
M  V30 2026 C 205.063 3.41244 2.52662 0
M  V30 2027 O 206.087 2.90247 2.06483 0
M  V30 2028 O 204.946 4.30273 3.36938 0
M  V30 2029 H 202.04 0.628598 0.537395 0
M  V30 2030 H 204.586 1.64283 0.425331 0
M  V30 2031 H 203.358 3.69116 1.2988 0
M  V30 2032 H 202.981 2.83681 2.78587 0
M  V30 2033 N 203.978 -0.674533 1.42435 0
M  V30 2034 C 204.941 -1.76986 1.45632 0
M  V30 2035 C 205.941 -1.5708 0.343871 0
M  V30 2036 O 207.131 -1.63367 0.604709 0
M  V30 2037 C 204.263 -3.15623 1.28822 0
M  V30 2038 H 205.456 -1.75539 2.43158 0
M  V30 2039 H 203.009 -0.884189 1.28887 0
M  V30 2040 H 203.744 -3.22696 0.322193 0
M  V30 2041 H 203.529 -3.31475 2.09444 0
M  V30 2042 H 205.019 -3.95537 1.33942 0
M  V30 2043 N 205.456 -1.28612 -0.910864 0
M  V30 2044 C 206.705 -1.15311 -1.65488 0
M  V30 2045 C 207.018 0.296999 -1.93332 0
M  V30 2046 O 208.224 0.551168 -2.65847 0
M  V30 2047 C 206.68 -2.01599 -2.98137 0
M  V30 2048 C 206.288 -3.51367 -2.7793 0
M  V30 2049 C 208.032 -1.96993 -3.76024 0
M  V30 2050 C 205.939 -4.29797 -4.06237 0
M  V30 2051 H 204.869 -0.42796 -0.620779 0
M  V30 2052 H 207.52 -1.53166 -1.01057 0
M  V30 2053 H 205.902 -1.56603 -3.63719 0
M  V30 2054 H 207.076 -4.0434 -2.21011 0
M  V30 2055 H 205.391 -3.57529 -2.13452 0
M  V30 2056 H 207.988 -2.52856 -4.71135 0
M  V30 2057 H 208.331 -0.94733 -4.05378 0
M  V30 2058 H 208.864 -2.39973 -3.17266 0
M  V30 2059 H 205.603 -5.32648 -3.82055 0
M  V30 2060 H 205.123 -3.81596 -4.62757 0
M  V30 2061 H 206.802 -4.39869 -4.74473 0
M  V30 2062 N 206.934 1.1197 -1.10907 0
M  V30 2063 C 208.164 1.8713 -0.875553 0
M  V30 2064 C 208.572 1.8016 0.577843 0
M  V30 2065 O 207.915 1.17699 1.41042 0
M  V30 2066 C 207.977 3.37005 -1.2517 0
M  V30 2067 C 207.641 3.67748 -2.71313 0
M  V30 2068 C 208.638 3.65698 -3.69542 0
M  V30 2069 C 206.323 3.96928 -3.07821 0
M  V30 2070 C 208.317 3.92395 -5.023 0
M  V30 2071 C 206.004 4.23284 -4.40765 0
M  V30 2072 C 207.002 4.21005 -5.37814 0
M  V30 2073 O 206.69 4.46704 -6.68364 0
M  V30 2074 H 206.422 0.598786 -0.313737 0
M  V30 2075 H 208.976 1.42568 -1.47863 0
M  V30 2076 H 207.206 3.82146 -0.591741 0
M  V30 2077 H 208.895 3.93519 -0.994877 0
M  V30 2078 H 209.661 3.43211 -3.42682 0
M  V30 2079 H 205.54 3.97841 -2.32902 0
M  V30 2080 H 209.084 3.90531 -5.78041 0
M  V30 2081 H 204.981 4.45246 -4.67361 0
M  V30 2082 H 205.749 4.64299 -6.74069 0
M  V30 2083 N 208.412 0.89855 1.29475 0
M  V30 2084 C 209.375 0.380272 2.26023 0
M  V30 2085 C 210.375 -0.484891 1.53315 0
M  V30 2086 O 211.565 -0.290108 1.71767 0
M  V30 2087 C 208.697 -0.45651 3.3783 0
M  V30 2088 H 209.89 1.23295 2.73383 0
M  V30 2089 H 207.443 0.676589 1.40897 0
M  V30 2090 H 208.178 -1.32922 2.95808 0
M  V30 2091 H 207.963 0.163393 3.91759 0
M  V30 2092 H 209.453 -0.810466 4.0966 0
M  V30 2093 N 209.89 -1.43072 0.660911 0
M  V30 2094 C 210.82 -2.33497 -0.0122829 0
M  V30 2095 C 211.801 -1.49903 -0.803925 0
M  V30 2096 O 212.986 -1.78546 -0.763864 0
M  V30 2097 C 210.116 -3.33363 -0.973994 0
M  V30 2098 C 209.07 -4.27003 -0.291928 0
M  V30 2099 C 208.396 -5.16967 -1.36562 0
M  V30 2100 C 209.696 -5.15816 0.820462 0
M  V30 2101 H 211.39 -2.90038 0.742873 0
M  V30 2102 H 208.936 -1.39461 0.358688 0
M  V30 2103 H 210.889 -3.95524 -1.45392 0
M  V30 2104 H 209.613 -2.75095 -1.7604 0
M  V30 2105 H 208.272 -3.66217 0.167623 0
M  V30 2106 H 207.92 -4.55034 -2.14366 0
M  V30 2107 H 207.62 -5.80441 -0.914454 0
M  V30 2108 H 209.144 -5.82003 -1.84675 0
M  V30 2109 H 210.558 -5.71742 0.422366 0
M  V30 2110 H 208.955 -5.8805 1.19656 0
M  V30 2111 H 210.025 -4.55045 1.67518 0
M  V30 2112 N 211.368 -0.403325 -1.52352 0
M  V30 2113 C 212.616 0.174003 -2.0135 0
M  V30 2114 C 212.937 1.46139 -1.29106 0
M  V30 2115 O 212.207 1.91448 -0.415253 0
M  V30 2116 H 210.787 0.0672911 -0.743963 0
M  V30 2117 H 213.449 -0.538235 -1.87321 0
M  V30 2118 H 212.545 0.374254 -3.09848 0
M  V30 2119 N 212.846 1.57033 -0.133567 0
M  V30 2120 C 213.756 2.19632 0.824564 0
M  V30 2121 C 214.772 1.17666 1.28182 0
M  V30 2122 O 215.948 1.50193 1.3418 0
M  V30 2123 C 213.013 2.79499 2.05137 0
M  V30 2124 C 212.074 3.96548 1.64464 0
M  V30 2125 C 211.307 4.5355 2.81297 0
M  V30 2126 O 211.53 4.09438 3.97136 0
M  V30 2127 O 210.464 5.44018 2.57542 0
M  V30 2128 H 214.29 3.01991 0.321766 0
M  V30 2129 H 211.875 1.49112 0.0927889 0
M  V30 2130 H 213.757 3.17602 2.7696 0
M  V30 2131 H 212.432 2.00162 2.54395 0
M  V30 2132 H 211.339 3.63186 0.897048 0
M  V30 2133 H 212.672 4.77364 1.19934 0
M  V30 2134 N 214.325 -0.140222 1.56975 0
M  V30 2135 C 215.741 -0.493088 1.51792 0
M  V30 2136 C 215.941 -1.83013 0.843116 0
M  V30 2137 O 214.997 -2.49041 0.416493 0
M  V30 2138 C 216.31 -0.497144 2.96562 0
M  V30 2139 C 217.858 -0.582186 3.07538 0
M  V30 2140 C 218.333 -0.616838 4.53827 0
M  V30 2141 N 219.824 -0.678873 4.58198 0
M  V30 2142 C 220.559 -0.726782 5.68775 0
M  V30 2143 N 220.055 -0.733623 6.88905 0
M  V30 2144 N 221.848 -0.768179 5.56826 0
M  V30 2145 H 213.999 0.736108 1.99237 0
M  V30 2146 H 216.262 0.269182 0.90898 0
M  V30 2147 H 215.968 0.417217 3.49217 0
M  V30 2148 H 215.842 -1.33263 3.52875 0
M  V30 2149 H 218.229 -1.48697 2.54899 0
M  V30 2150 H 218.31 0.280581 2.54257 0
M  V30 2151 H 217.954 0.283812 5.07106 0
M  V30 2152 H 217.884 -1.49619 5.04898 0
M  V30 2153 H 220.375 -0.68061 3.7172 0
M  V30 2154 H 220.688 -0.772215 7.68932 0
M  V30 2155 H 219.033 -0.701389 6.91452 0
M  V30 2156 H 222.224 -0.760051 4.61888 0
M  V30 2157 H 222.397 -0.80205 6.43017 0
M  V30 2158 N 215.803 -1.52179 -0.40978 0
M  V30 2159 C 217.033 -1.69807 -1.17682 0
M  V30 2160 C 217.441 -0.406908 -1.84773 0
M  V30 2161 O 216.784 0.626863 -1.72673 0
M  V30 2162 C 216.846 -2.77712 -2.2829 0
M  V30 2163 C 216.51 -4.19481 -1.81341 0
M  V30 2164 C 217.507 -5.03345 -1.30154 0
M  V30 2165 C 215.192 -4.65713 -1.88194 0
M  V30 2166 C 217.186 -6.31511 -0.864416 0
M  V30 2167 C 214.873 -5.93869 -1.44093 0
M  V30 2168 C 215.871 -6.76597 -0.933023 0
M  V30 2169 O 215.559 -8.02354 -0.49838 0
M  V30 2170 H 215.291 -0.572372 -0.359675 0
M  V30 2171 H 217.845 -1.99511 -0.488311 0
M  V30 2172 H 216.075 -2.43383 -3.00502 0
M  V30 2173 H 217.764 -2.83946 -2.90051 0
M  V30 2174 H 218.53 -4.68819 -1.24232 0
M  V30 2175 H 214.409 -4.01424 -2.26671 0
M  V30 2176 H 217.953 -6.96033 -0.467286 0
M  V30 2177 H 213.85 -6.27903 -1.49694 0
M  V30 2178 H 214.618 -8.16135 -0.621747 0
M  V30 2179 N 217.281 0.66697 -1.42791 0
M  V30 2180 C 218.529 1.42417 -1.43394 0
M  V30 2181 C 218.85 1.94925 -0.0542373 0
M  V30 2182 O 218.12 1.73564 0.908415 0
M  V30 2183 H 216.7 0.528515 -0.527902 0
M  V30 2184 H 219.362 0.787562 -1.78279 0
M  V30 2185 H 218.458 2.27333 -2.13837 0
M  V30 2186 N 218.759 1.29093 0.90403 0
M  V30 2187 C 220.008 1.16187 1.64874 0
M  V30 2188 C 220.321 -0.286742 1.93487 0
M  V30 2189 O 221.527 -0.537062 2.66135 0
M  V30 2190 C 219.983 2.03177 2.97064 0
M  V30 2191 C 219.591 3.52836 2.76062 0
M  V30 2192 C 221.335 1.98984 3.74974 0
M  V30 2193 C 219.242 4.31945 4.03952 0
M  V30 2194 H 218.172 0.431246 0.618501 0
M  V30 2195 H 220.823 1.53699 1.00243 0
M  V30 2196 H 219.205 1.5853 3.62883 0
M  V30 2197 H 220.379 4.05507 2.18863 0
M  V30 2198 H 218.694 3.58656 2.11553 0
M  V30 2199 H 221.291 2.55351 4.69787 0
M  V30 2200 H 221.634 0.968815 4.0487 0
M  V30 2201 H 222.167 2.41652 3.15989 0
M  V30 2202 H 218.906 5.34667 3.79225 0
M  V30 2203 H 218.426 3.84045 4.60727 0
M  V30 2204 H 220.105 4.42379 4.72133 0
M  V30 2205 N 220.237 -1.11381 1.11499 0
M  V30 2206 C 221.648 -1.6465 0.880191 0
M  V30 2207 C 221.999 -1.87199 -0.587434 0
M  V30 2208 O 221.124 -1.60667 -1.44966 0
M  V30 2209 C 221.719 -2.99105 1.59128 0
M  V30 2210 C 220.278 -3.49279 1.40289 0
M  V30 2211 C 219.425 -2.24077 1.63354 0
M  V30 2212 H 222.376 -0.950123 1.27116 0
M  V30 2213 H 222.397 -3.66107 1.03664 0
M  V30 2214 H 221.909 -2.82661 2.65941 0
M  V30 2215 H 220.01 -3.70887 0.356888 0
M  V30 2216 H 220.123 -4.2803 2.15238 0
M  V30 2217 H 218.487 -2.31733 1.05698 0
M  V30 2218 H 219.27 -2.10175 2.71443 0
M  V30 2219 N 221.715 -0.905404 -1.28997 0
M  V30 2220 C 222.961 -0.535039 -1.95615 0
M  V30 2221 C 223.294 0.917404 -1.71165 0
M  V30 2222 O 222.569 1.65123 -1.02785 0
M  V30 2223 C 222.852 -0.834918 -3.50287 0
M  V30 2224 C 222.705 -2.33948 -3.84172 0
M  V30 2225 C 224.024 -0.325318 -4.38896 0
M  V30 2226 H 221.143 -0.195861 -0.710498 0
M  V30 2227 H 223.785 -1.13313 -1.52513 0
M  V30 2228 H 221.935 -0.325904 -3.87131 0
M  V30 2229 H 223.607 -2.91847 -3.57243 0
M  V30 2230 H 221.85 -2.79789 -3.31513 0
M  V30 2231 H 222.521 -2.49987 -4.92149 0
M  V30 2232 H 224.997 -0.761256 -4.09077 0
M  V30 2233 H 223.873 -0.564295 -5.45992 0
M  V30 2234 H 224.134 0.774144 -4.35269 0
M  V30 2235 N 223.193 1.4272 -0.668489 0
M  V30 2236 C 224.442 2.00846 -0.185389 0
M  V30 2237 C 224.755 1.53442 1.21305 0
M  V30 2238 O 225.961 2.03944 1.79218 0
M  V30 2239 C 224.417 3.58805 -0.280591 0
M  V30 2240 C 224.025 4.15198 -1.68268 0
M  V30 2241 C 225.769 4.24255 0.14412 0
M  V30 2242 C 223.676 5.655 -1.73099 0
M  V30 2243 H 222.606 0.751145 -0.0655475 0
M  V30 2244 H 225.257 1.63516 -0.832752 0
M  V30 2245 H 223.639 3.93608 0.434553 0
M  V30 2246 H 224.813 3.91866 -2.42441 0
M  V30 2247 H 223.128 3.62176 -2.05469 0
M  V30 2248 H 225.725 5.34547 0.128086 0
M  V30 2249 H 226.068 3.99277 1.17827 0
M  V30 2250 H 226.601 3.94389 -0.519798 0
M  V30 2251 H 223.34 5.95268 -2.74475 0
M  V30 2252 H 222.86 5.90842 -1.03274 0
M  V30 2253 H 224.539 6.29808 -1.48158 0
M  V30 2254 N 224.671 0.411399 1.52136 0
M  V30 2255 C 225.581 -0.419774 2.30814 0
M  V30 2256 C 226.597 -1.0515 1.38634 0
M  V30 2257 O 227.773 -1.05252 1.71709 0
M  V30 2258 C 224.838 -1.52019 3.11594 0
M  V30 2259 C 223.899 -0.91129 4.19516 0
M  V30 2260 C 223.132 -1.95927 4.96436 0
M  V30 2261 O 223.355 -3.17775 4.73683 0
M  V30 2262 O 222.289 -1.56423 5.81219 0
M  V30 2263 H 226.115 0.221805 3.02889 0
M  V30 2264 H 223.7 0.174547 1.48377 0
M  V30 2265 H 225.582 -2.15898 3.61892 0
M  V30 2266 H 224.257 -2.14633 2.42311 0
M  V30 2267 H 223.164 -0.235157 3.7336 0
M  V30 2268 H 224.497 -0.32904 4.91099 0
M  V30 2269 N 226.149 -1.5696 0.141893 0
M  V30 2270 C 227.426 -1.87553 -0.555281 0
M  V30 2271 C 227.806 -1.04699 -1.83306 0
M  V30 2272 O 227.154 -0.132346 -2.28116 0
M  V30 2273 C 227.364 -3.39093 -0.825664 0
M  V30 2274 C 228.712 -4.08199 -1.16869 0
M  V30 2275 O 229.736 -3.44242 -0.915185 0
M  V30 2276 O 228.595 -5.21139 -1.6455 0
M  V30 2277 H 225.689 -0.777188 -0.282679 0
M  V30 2278 H 228.235 -1.68763 0.17812 0
M  V30 2279 H 227.007 -3.91221 0.0788633 0
M  V30 2280 H 226.63 -3.63393 -1.61343 0
M  V30 2281 N 227.627 0.131896 -1.57047 0
M  V30 2282 C 228.59 1.14638 -1.98471 0
M  V30 2283 C 229.59 1.35029 -0.873148 0
M  V30 2284 O 230.78 1.31764 -1.13946 0
M  V30 2285 C 227.912 2.50358 -2.31373 0
M  V30 2286 H 229.105 0.79064 -2.8929 0
M  V30 2287 H 226.658 0.375761 -1.51716 0
M  V30 2288 H 227.393 2.90876 -1.43393 0
M  V30 2289 H 227.178 2.36915 -3.12432 0
M  V30 2290 H 228.668 3.23395 -2.64207 0
M  V30 2291 N 229.106 1.52395 0.401703 0
M  V30 2292 C 230.069 1.75636 1.47257 0
M  V30 2293 C 231.069 0.62628 1.48103 0
M  V30 2294 O 232.259 0.894227 1.49497 0
M  V30 2295 C 229.391 1.84553 2.86624 0
M  V30 2296 H 230.584 2.71241 1.27938 0
M  V30 2297 H 228.137 1.42923 0.632662 0
M  V30 2298 H 228.872 0.908882 3.11303 0
M  V30 2299 H 228.657 2.66715 2.87412 0
M  V30 2300 H 230.147 2.04251 3.64241 0
M  V30 2301 N 230.584 -0.659388 1.43143 0
M  V30 2302 C 231.534 -1.7655 1.44271 0
M  V30 2303 C 232.518 -1.57847 0.311961 0
M  V30 2304 O 233.71 -1.68064 0.555306 0
M  V30 2305 C 230.839 -3.15104 1.36251 0
M  V30 2306 C 229.925 -3.39377 2.54331 0
M  V30 2307 N 230.316 -3.34153 3.79704 0
M  V30 2308 C 228.614 -3.70072 2.48922 0
M  V30 2309 C 229.315 -3.58337 4.58225 0
M  V30 2310 N 228.291 -3.79851 3.88863 0
M  V30 2311 H 232.093 -1.70928 2.39083 0
M  V30 2312 H 229.607 -0.860823 1.37708 0
M  V30 2313 H 231.604 -3.94389 1.35141 0
M  V30 2314 H 230.264 -3.21913 0.424531 0
M  V30 2315 H 231.275 -3.13704 4.1208 0
M  V30 2316 H 227.952 -3.84034 1.63781 0
M  V30 2317 H 229.342 -3.60129 5.67236 0
M  V30 2318 N 232.062 -1.29571 -0.897171 0
M  V30 2319 C 233.025 -1.14913 -1.98312 0
M  V30 2320 C 234.025 -0.0838629 -1.60581 0
M  V30 2321 O 235.215 -0.331006 -1.71026 0
M  V30 2322 C 232.347 -0.757835 -3.3237 0
M  V30 2323 H 233.54 -2.11377 -2.12743 0
M  V30 2324 H 231.093 -1.12793 -1.08201 0
M  V30 2325 H 231.828 0.206837 -3.2364 0
M  V30 2326 H 231.613 -1.52755 -3.61121 0
M  V30 2327 H 233.103 -0.678408 -4.12053 0
M  V30 2328 N 233.54 1.10788 -1.12088 0
M  V30 2329 C 234.768 1.86461 -0.896651 0
M  V30 2330 C 235.183 1.80492 0.553912 0
M  V30 2331 O 234.54 1.19102 1.38278 0
M  V30 2332 C 234.591 3.35006 -1.35843 0
M  V30 2333 O 234.312 3.40866 -2.75213 0
M  V30 2334 C 235.813 4.27565 -1.1706 0
M  V30 2335 H 233.033 0.589425 -0.320654 0
M  V30 2336 H 235.577 1.40076 -1.48993 0
M  V30 2337 H 233.732 3.7887 -0.808458 0
M  V30 2338 H 234.146 4.33411 -2.9539 0
M  V30 2339 H 235.62 5.30007 -1.54263 0
M  V30 2340 H 236.097 4.3906 -0.110814 0
M  V30 2341 H 236.703 3.89501 -1.70789 0
M  V30 2342 N 235.018 0.912232 1.28515 0
M  V30 2343 C 236.266 0.543523 1.94654 0
M  V30 2344 C 236.587 -0.9155 1.72173 0
M  V30 2345 O 235.857 -1.64708 1.06058 0
M  V30 2346 H 234.437 0.198017 0.720277 0
M  V30 2347 H 237.099 1.16126 1.56527 0
M  V30 2348 H 236.195 0.736684 3.03281 0
M  V30 2349 N 236.496 -1.42363 0.676048 0
M  V30 2350 C 237.724 -2.05859 0.207268 0
M  V30 2351 C 238.139 -1.50796 -1.13605 0
M  V30 2352 O 237.496 -0.648265 -1.70598 0
M  V30 2353 C 237.547 -3.61248 0.134975 0
M  V30 2354 O 237.268 -4.1427 1.42521 0
M  V30 2355 C 238.769 -4.41859 -0.357151 0
M  V30 2356 H 235.989 -0.663431 0.100503 0
M  V30 2357 H 238.533 -1.82479 0.923136 0
M  V30 2358 H 236.688 -3.83735 -0.531588 0
M  V30 2359 H 237.102 -5.0815 1.29939 0
M  V30 2360 H 238.576 -5.50847 -0.356641 0
M  V30 2361 H 239.053 -4.16536 -1.39264 0
M  V30 2362 H 239.659 -4.24392 0.27772 0
M  V30 2363 N 237.974 -0.419461 -1.51915 0
M  V30 2364 C 239.199 0.154572 -2.06823 0
M  V30 2365 C 239.624 1.3722 -1.28656 0
M  V30 2366 O 238.982 1.78461 -0.319583 0
M  V30 2367 C 239.03 0.473172 -3.57482 0
M  V30 2368 O 238.134 1.56255 -3.81652 0
M  V30 2369 H 237.475 0.0096924 -0.663929 0
M  V30 2370 H 240.005 -0.595642 -1.95738 0
M  V30 2371 H 240.015 0.728825 -4.01438 0
M  V30 2372 H 238.69 -0.416873 -4.13805 0
M  V30 2373 H 237.267 1.29825 -3.49571 0
M  V30 2374 N 239.452 1.56882 -0.150215 0
M  V30 2375 C 240.682 2.00302 0.506213 0
M  V30 2376 C 241.09 1.02934 1.58749 0
M  V30 2377 O 240.433 0.0188384 1.8369 0
M  V30 2378 C 240.495 3.40156 1.16337 0
M  V30 2379 C 240.159 4.56439 0.226311 0
M  V30 2380 C 241.156 5.17012 -0.547265 0
M  V30 2381 C 238.841 5.02136 0.128279 0
M  V30 2382 C 240.835 6.21693 -1.40629 0
M  V30 2383 C 238.522 6.06672 -0.734345 0
M  V30 2384 C 239.52 6.6632 -1.50023 0
M  V30 2385 O 239.208 7.68831 -2.34848 0
M  V30 2386 H 238.94 0.662182 0.135984 0
M  V30 2387 H 241.494 2.03961 -0.242746 0
M  V30 2388 H 239.724 3.33346 1.96004 0
M  V30 2389 H 241.413 3.67663 1.71985 0
M  V30 2390 H 242.179 4.82603 -0.48158 0
M  V30 2391 H 238.058 4.55435 0.714157 0
M  V30 2392 H 241.602 6.68179 -2.00455 0
M  V30 2393 H 237.499 6.40507 -0.801309 0
M  V30 2394 H 238.267 7.86065 -2.28131 0
M  V30 2395 N 240.93 -0.123565 1.57115 0
M  V30 2396 C 241.877 -1.15177 2.00007 0
M  V30 2397 C 242.847 -1.41403 0.871454 0
M  V30 2398 O 244.032 -1.53346 1.13533 0
M  V30 2399 C 241.172 -2.47436 2.40561 0
M  V30 2400 C 240.285 -2.28184 3.66819 0
M  V30 2401 C 239.42 -3.53641 3.96373 0
M  V30 2402 C 238.459 -3.29528 5.15827 0
M  V30 2403 N 237.596 -4.47175 5.41275 0
M  V30 2404 H 242.436 -0.779008 2.87638 0
M  V30 2405 H 239.973 -0.373166 1.42288 0
M  V30 2406 H 241.931 -3.24584 2.62109 0
M  V30 2407 H 240.561 -2.82614 1.55978 0
M  V30 2408 H 239.613 -1.41976 3.52912 0
M  V30 2409 H 240.925 -2.0634 4.5412 0
M  V30 2410 H 240.079 -4.39209 4.18545 0
M  V30 2411 H 238.818 -3.78512 3.07538 0
M  V30 2412 H 237.823 -2.42349 4.93505 0
M  V30 2413 H 239.048 -3.06031 6.06236 0
M  V30 2414 H 236.994 -4.72175 4.55397 0
M  V30 2415 H 236.911 -4.28419 6.22891 0
M  V30 2416 H 238.179 -5.3389 5.67963 0
M  V30 2417 N 242.408 -1.52605 -0.393616 0
M  V30 2418 C 243.656 -1.67093 -1.13685 0
M  V30 2419 C 243.977 -0.411011 -1.90619 0
M  V30 2420 O 243.247 0.574491 -1.87287 0
M  V30 2421 H 241.827 -0.615923 -0.422668 0
M  V30 2422 H 244.489 -1.89704 -0.447039 0
M  V30 2423 H 243.585 -2.51922 -1.84232 0
M  V30 2424 N 243.887 0.651787 -1.4349 0
M  V30 2425 C 245.303 0.96762 -1.26922 0
M  V30 2426 C 245.503 2.00602 -0.189982 0
M  V30 2427 O 244.559 2.48793 0.431107 0
M  V30 2428 C 245.872 1.45052 -2.63401 0
M  V30 2429 C 247.42 1.5671 -2.70945 0
M  V30 2430 C 247.895 2.0839 -4.07845 0
M  V30 2431 N 249.386 2.1569 -4.09917 0
M  V30 2432 C 250.121 2.56804 -5.12679 0
M  V30 2433 N 249.617 2.97203 -6.25813 0
M  V30 2434 N 251.41 2.56756 -5.00033 0
M  V30 2435 H 243.561 -0.0353158 -2.12371 0
M  V30 2436 H 245.824 0.0467858 -0.946845 0
M  V30 2437 H 245.53 0.761926 -3.43348 0
M  V30 2438 H 245.404 2.42529 -2.88894 0
M  V30 2439 H 247.791 2.2467 -1.9133 0
M  V30 2440 H 247.872 0.57662 -2.49216 0
M  V30 2441 H 247.516 1.41031 -4.87927 0
M  V30 2442 H 247.446 3.08271 -4.26938 0
M  V30 2443 H 249.937 1.87237 -3.28254 0
M  V30 2444 H 250.25 3.27328 -7.00055 0
M  V30 2445 H 248.595 2.95004 -6.29283 0
M  V30 2446 H 251.786 2.24572 -4.10713 0
M  V30 2447 H 251.959 2.88475 -5.80247 0
M  V30 2448 N 245.365 1.30045 0.890287 0
M  V30 2449 C 246.315 1.12592 1.9826 0
M  V30 2450 C 247.299 0.0426021 1.60844 0
M  V30 2451 O 248.491 0.265346 1.75 0
M  V30 2452 C 245.62 0.814301 3.33503 0
M  V30 2453 C 244.706 1.93761 3.7725 0
M  V30 2454 N 245.097 3.18232 3.93143 0
M  V30 2455 C 243.395 1.83277 4.06602 0
M  V30 2456 C 244.096 3.9158 4.30163 0
M  V30 2457 N 243.072 3.19591 4.3973 0
M  V30 2458 H 246.874 2.07003 2.08631 0
M  V30 2459 H 244.388 1.21307 1.07974 0
M  V30 2460 H 246.385 0.67029 4.11476 0
M  V30 2461 H 245.045 -0.121797 3.24471 0
M  V30 2462 H 246.056 3.53581 3.78419 0
M  V30 2463 H 242.733 0.97001 4.06075 0
M  V30 2464 H 244.123 4.98744 4.50226 0
M  V30 2465 N 246.843 -1.10192 1.12674 0
M  V30 2466 C 248.092 -1.81573 0.8783 0
M  V30 2467 C 248.405 -1.86249 -0.597557 0
M  V30 2468 O 249.611 -2.5386 -0.962681 0
M  V30 2469 C 248.067 -3.26149 1.52167 0
M  V30 2470 C 247.675 -3.29763 3.03249 0
M  V30 2471 C 249.419 -4.0234 1.3536 0
M  V30 2472 C 247.326 -4.68815 3.60508 0
M  V30 2473 H 246.256 -0.680394 0.324931 0
M  V30 2474 H 248.907 -1.23902 1.35353 0
M  V30 2475 H 247.289 -3.83832 0.974104 0
M  V30 2476 H 248.463 -2.8189 3.6452 0
M  V30 2477 H 246.778 -2.67059 3.19481 0
M  V30 2478 H 249.375 -5.05058 1.75559 0
M  V30 2479 H 249.718 -4.15235 0.297554 0
M  V30 2480 H 250.251 -3.51079 1.87052 0
M  V30 2481 H 246.99 -4.61121 4.65884 0
M  V30 2482 H 246.51 -5.17045 3.04014 0
M  V30 2483 H 248.189 -5.37785 3.59717 0
M  V30 2484 N 248.321 -0.919034 -1.28029 0
M  V30 2485 C 249.569 -0.553838 -1.94363 0
M  V30 2486 C 249.89 0.906357 -1.72656 0
M  V30 2487 O 249.16 1.64143 -1.0693 0
M  V30 2488 H 247.74 -0.201834 -0.719216 0
M  V30 2489 H 250.402 -1.16954 -1.55909 0
M  V30 2490 H 249.498 -0.752758 -3.02886 0
M  V30 2491 N 249.799 1.42003 -0.683588 0
M  V30 2492 C 250.762 2.29191 -0.0198243 0
M  V30 2493 C 251.762 1.43773 0.72013 0
M  V30 2494 O 252.952 1.65061 0.556815 0
M  V30 2495 C 250.084 3.26435 0.982487 0
M  V30 2496 H 251.277 2.8938 -0.787345 0
M  V30 2497 H 248.83 1.49789 -0.446418 0
M  V30 2498 H 249.565 2.71203 1.77819 0
M  V30 2499 H 249.35 3.89449 0.455182 0
M  V30 2500 H 250.84 3.918 1.44508 0
M  V30 2501 N 251.277 0.427512 1.51691 0
M  V30 2502 C 252.693 0.0792977 1.59403 0
M  V30 2503 C 252.893 -1.41035 1.43914 0
M  V30 2504 O 251.949 -2.17922 1.27539 0
M  V30 2505 C 253.262 0.590636 2.94842 0
M  V30 2506 C 254.81 0.550215 3.08126 0
M  V30 2507 C 255.285 1.03836 4.46074 0
M  V30 2508 N 256.776 0.995943 4.52366 0
M  V30 2509 C 257.511 1.34463 5.57411 0
M  V30 2510 N 257.007 1.76569 6.69922 0
M  V30 2511 N 258.8 1.26343 5.47717 0
M  V30 2512 H 250.951 1.39687 1.60004 0
M  V30 2513 H 253.214 0.575003 0.753708 0
M  V30 2514 H 252.92 1.63251 3.11516 0
M  V30 2515 H 252.794 0.0102061 3.77199 0
M  V30 2516 H 255.181 -0.482654 2.91126 0
M  V30 2517 H 255.262 1.16693 2.27632 0
M  V30 2518 H 254.906 2.06965 4.63819 0
M  V30 2519 H 254.836 0.398286 5.25092 0
M  V30 2520 H 257.327 0.68661 3.7161 0
M  V30 2521 H 257.64 2.01438 7.46085 0
M  V30 2522 H 255.985 1.80488 6.71155 0
M  V30 2523 H 259.176 0.933209 4.58703 0
M  V30 2524 H 259.349 1.53846 6.29472 0
M  V30 2525 N 252.755 -1.56801 0.158532 0
M  V30 2526 C 254.003 -1.96102 -0.488712 0
M  V30 2527 C 254.324 -1.04498 -1.64636 0
M  V30 2528 O 253.594 -0.108783 -1.95598 0
M  V30 2529 H 252.174 -0.724102 -0.183535 0
M  V30 2530 H 254.836 -1.93457 0.236728 0
M  V30 2531 H 253.932 -3.00097 -0.857219 0
M  V30 2532 N 254.233 0.115231 -1.57178 0
M  V30 2533 C 255.461 0.836437 -1.89239 0
M  V30 2534 C 255.876 1.73256 -0.750175 0
M  V30 2535 O 255.233 1.80357 0.278832 0
M  V30 2536 C 255.284 1.66671 -3.20785 0
M  V30 2537 O 255.005 0.806652 -4.3061 0
M  V30 2538 C 256.506 2.49274 -3.66575 0
M  V30 2539 H 253.726 0.240253 -0.626514 0
M  V30 2540 H 256.27 0.0984932 -2.04263 0
M  V30 2541 H 254.425 2.35737 -3.0742 0
M  V30 2542 H 254.839 1.37969 -5.06028 0
M  V30 2543 H 256.313 3.03055 -4.6137 0
M  V30 2544 H 256.79 3.26807 -2.93417 0
M  V30 2545 H 257.396 1.85443 -3.82741 0
M  V30 2546 N 255.711 1.52812 0.385517 0
M  V30 2547 C 256.674 1.77188 1.45386 0
M  V30 2548 C 257.674 0.641953 1.4743 0
M  V30 2549 O 258.864 0.910033 1.4854 0
M  V30 2550 C 255.996 1.87582 2.8465 0
M  V30 2551 H 257.189 2.72583 1.25054 0
M  V30 2552 H 254.742 1.43586 0.617467 0
M  V30 2553 H 255.477 0.941849 3.10322 0
M  V30 2554 H 255.262 2.69748 2.84567 0
M  V30 2555 H 256.752 2.08102 3.62054 0
M  V30 2556 N 257.189 -0.644168 1.43834 0
M  V30 2557 C 258.438 -1.39985 1.45214 0
M  V30 2558 C 258.751 -1.95421 0.0835494 0
M  V30 2559 O 259.957 -2.71488 -0.0251748 0
M  V30 2560 C 258.413 -2.53384 2.55587 0
M  V30 2561 C 258.021 -2.04517 3.98594 0
M  V30 2562 C 259.765 -3.30685 2.66172 0
M  V30 2563 C 257.672 -3.1518 5.00416 0
M  V30 2564 H 256.602 -0.526005 0.540218 0
M  V30 2565 H 259.253 -0.694367 1.69855 0
M  V30 2566 H 257.635 -3.26446 2.24163 0
M  V30 2567 H 258.809 -1.38405 4.39523 0
M  V30 2568 H 257.124 -1.40068 3.92135 0
M  V30 2569 H 259.721 -4.13158 3.39418 0
M  V30 2570 H 260.064 -3.79312 1.71546 0
M  V30 2571 H 260.597 -2.64708 2.96942 0
M  V30 2572 H 257.336 -2.71511 5.96625 0
M  V30 2573 H 256.856 -3.79974 4.64091 0
M  V30 2574 H 258.535 -3.80166 5.23529 0
M  V30 2575 N 258.668 -1.30515 -0.883378 0
M  V30 2576 C 259.915 -1.1943 -1.63532 0
M  V30 2577 C 260.243 0.250627 -1.92878 0
M  V30 2578 O 259.498 1.19556 -1.54935 0
M  V30 2579 C 259.797 -1.96994 -2.98209 0
M  V30 2580 C 259.463 -3.466 -2.88408 0
M  V30 2581 C 258.125 -3.87397 -2.85442 0
M  V30 2582 C 260.477 -4.41863 -2.76418 0
M  V30 2583 C 257.805 -5.21745 -2.68327 0
M  V30 2584 C 260.157 -5.7632 -2.60841 0
M  V30 2585 C 258.821 -6.16354 -2.56251 0
M  V30 2586 H 258.091 -0.437025 -0.598406 0
M  V30 2587 H 260.738 -1.61635 -1.02696 0
M  V30 2588 H 259.043 -1.47429 -3.63004 0
M  V30 2589 H 260.74 -1.85808 -3.55354 0
M  V30 2590 H 257.33 -3.14182 -2.91527 0
M  V30 2591 H 261.514 -4.11285 -2.77775 0
M  V30 2592 H 256.77 -5.51853 -2.63189 0
M  V30 2593 H 260.944 -6.49772 -2.50538 0
M  V30 2594 H 258.571 -7.20401 -2.42748 0
M  V30 2595 N 260.146 1.09593 -1.13257 0
M  V30 2596 C 261.371 1.8604 -0.916732 0
M  V30 2597 C 261.796 1.80504 0.529146 0
M  V30 2598 O 261.154 1.18127 1.37534 0
M  V30 2599 C 261.202 3.32017 -1.40703 0
M  V30 2600 O 260.306 4.08141 -0.591153 0
M  V30 2601 H 259.647 0.576943 -0.328683 0
M  V30 2602 H 262.177 1.38405 -1.50682 0
M  V30 2603 H 262.187 3.82865 -1.4099 0
M  V30 2604 H 260.862 3.35361 -2.45979 0
M  V30 2605 H 259.439 3.67084 -0.656005 0
M  V30 2606 N 261.624 0.925811 1.2754 0
M  V30 2607 C 262.871 0.565255 1.94451 0
M  V30 2608 C 263.199 -0.89316 1.7278 0
M  V30 2609 O 262.454 -1.65213 1.04895 0
M  V30 2610 C 262.753 0.835296 3.47502 0
M  V30 2611 C 262.419 2.27515 3.89291 0
M  V30 2612 C 261.081 2.66879 4.00411 0
M  V30 2613 C 263.433 3.21158 4.10496 0
M  V30 2614 C 260.761 3.99014 4.30122 0
M  V30 2615 C 263.113 4.52871 4.4169 0
M  V30 2616 C 261.777 4.92072 4.51023 0
M  V30 2617 H 261.047 0.206841 0.711546 0
M  V30 2618 H 263.694 1.16942 1.51647 0
M  V30 2619 H 261.999 0.148442 3.91519 0
M  V30 2620 H 263.696 0.535322 3.97411 0
M  V30 2621 H 260.286 1.95976 3.81171 0
M  V30 2622 H 264.47 2.9195 4.01346 0
M  V30 2623 H 259.726 4.2907 4.35556 0
M  V30 2624 H 263.9 5.25436 4.57045 0
M  V30 2625 H 261.527 5.9449 4.738 0
M  V30 2626 N 263.102 -1.41638 0.69111 0
M  V30 2627 C 264.052 -2.28 -0.000107832 0
M  V30 2628 C 265.036 -1.41964 -0.757304 0
M  V30 2629 O 266.228 -1.65274 -0.633532 0
M  V30 2630 C 263.357 -3.30209 -0.938983 0
M  V30 2631 C 262.443 -4.23725 -0.17827 0
M  V30 2632 N 262.834 -4.99017 0.825563 0
M  V30 2633 C 261.132 -4.44071 -0.414392 0
M  V30 2634 C 261.833 -5.67431 1.28052 0
M  V30 2635 N 260.809 -5.40197 0.607304 0
M  V30 2636 H 264.611 -2.83644 0.769617 0
M  V30 2637 H 262.125 -1.53797 0.521562 0
M  V30 2638 H 264.122 -3.90898 -1.44929 0
M  V30 2639 H 262.782 -2.76126 -1.70836 0
M  V30 2640 H 263.793 -5.03671 1.20566 0
M  V30 2641 H 260.47 -4.01004 -1.162 0
M  V30 2642 H 261.86 -6.37801 2.11327 0
M  V30 2643 N 264.58 -0.43555 -1.51462 0
M  V30 2644 C 265.543 0.365137 -2.26273 0
M  V30 2645 C 266.543 0.951227 -1.29647 0
M  V30 2646 O 267.733 0.825958 -1.53374 0
M  V30 2647 C 264.865 1.51645 -3.05314 0
M  V30 2648 H 266.058 -0.290474 -2.9849 0
M  V30 2649 H 263.611 -0.188676 -1.55157 0
M  V30 2650 H 264.346 2.20816 -2.3751 0
M  V30 2651 H 264.131 1.10238 -3.76284 0
M  V30 2652 H 265.621 2.08218 -3.61987 0
M  V30 2653 N 266.058 1.56714 -0.166846 0
M  V30 2654 C 267.307 1.95922 0.479318 0
M  V30 2655 C 267.62 1.05529 1.6469 0
M  V30 2656 O 268.826 1.34399 2.35901 0
M  V30 2657 C 267.282 3.48359 0.90412 0
M  V30 2658 C 266.89 4.47369 -0.237621 0
M  V30 2659 C 268.634 3.96394 1.51896 0
M  V30 2660 C 266.541 5.91039 0.206561 0
M  V30 2661 H 265.471 0.731495 0.18284 0
M  V30 2662 H 268.122 1.81728 -0.254363 0
M  V30 2663 H 266.504 3.57955 1.69365 0
M  V30 2664 H 267.678 4.49485 -1.01489 0
M  V30 2665 H 265.993 4.09366 -0.762128 0
M  V30 2666 H 268.59 5.01186 1.86325 0
M  V30 2667 H 268.933 3.39075 2.41524 0
M  V30 2668 H 269.466 3.89796 0.79395 0
M  V30 2669 H 266.205 6.52221 -0.654834 0
M  V30 2670 H 265.725 5.9224 0.949282 0
M  V30 2671 H 267.404 6.43707 0.651939 0
M  V30 2672 N 267.536 -0.106894 1.57237 0
M  V30 2673 C 268.483 -1.13049 2.01217 0
M  V30 2674 C 269.453 -1.40471 0.886403 0
M  V30 2675 O 270.638 -1.52133 1.15153 0
M  V30 2676 C 267.778 -2.4487 2.43172 0
M  V30 2677 C 266.891 -2.24281 3.69218 0
M  V30 2678 C 266.026 -3.49417 4.00101 0
M  V30 2679 C 265.065 -3.24038 5.19294 0
M  V30 2680 N 264.202 -4.41409 5.45988 0
M  V30 2681 H 269.042 -0.748456 2.88448 0
M  V30 2682 H 266.579 -0.358054 1.42676 0
M  V30 2683 H 268.537 -3.21786 2.65537 0
M  V30 2684 H 267.167 -2.80944 1.58967 0
M  V30 2685 H 266.219 -1.38224 3.54398 0
M  V30 2686 H 267.531 -2.01512 4.56283 0
M  V30 2687 H 266.685 -4.34746 4.2318 0
M  V30 2688 H 265.424 -3.75229 3.11535 0
M  V30 2689 H 264.429 -2.37102 4.96047 0
M  V30 2690 H 265.654 -2.99584 6.09447 0
M  V30 2691 H 263.6 -4.67319 4.60379 0
M  V30 2692 H 263.517 -4.21788 6.274 0
M  V30 2693 H 264.785 -5.27836 5.73593 0
M  V30 2694 N 269.014 -1.53014 -0.377408 0
M  V30 2695 C 269.962 -1.7927 -1.48206 0
M  V30 2696 C 270.956 -0.661195 -1.55963 0
M  V30 2697 O 272.162 -0.843908 -1.58991 0
M  V30 2698 H 268.537 -0.567425 -0.493491 0
M  V30 2699 H 270.508 -2.71753 -1.2326 0
M  V30 2700 C 269.257 -1.98894 -2.85196 0
M  V30 2701 H 268.58 -2.85395 -2.79981 0
M  V30 2702 H 270.02 -2.21249 -3.61698 0
M  V30 2703 C 268.479 -0.764691 -3.28107 0
M  V30 2704 O 269.009 0.0523226 -4.01666 0
M  V30 2705 N 267.215 -0.591493 -2.84517 0
M  V30 2706 H 266.762 -1.25749 -2.24822 0
M  V30 2707 H 266.72 0.226253 -3.13585 0
M  V30 2708 N 270.492 0.636531 -1.44174 0
M  V30 2709 C 271.741 1.39213 -1.45954 0
M  V30 2710 C 272.054 1.95374 -0.0939119 0
M  V30 2711 O 273.26 2.71498 0.0107767 0
M  V30 2712 C 271.716 2.52025 -2.56927 0
M  V30 2713 C 271.324 2.024 -3.99673 0
M  V30 2714 C 273.068 3.29269 -2.67922 0
M  V30 2715 C 270.975 3.12521 -5.0208 0
M  V30 2716 H 269.905 0.523132 -0.542999 0
M  V30 2717 H 272.556 0.685349 -1.70221 0
M  V30 2718 H 270.938 3.25253 -2.25891 0
M  V30 2719 H 272.112 1.36073 -4.40251 0
M  V30 2720 H 270.427 1.37987 -3.92872 0
M  V30 2721 H 273.024 4.11352 -3.41605 0
M  V30 2722 H 273.367 3.78397 -1.73555 0
M  V30 2723 H 273.9 2.63129 -2.98342 0
M  V30 2724 H 270.639 2.68343 -5.98057 0
M  V30 2725 H 270.159 3.77507 -4.66099 0
M  V30 2726 H 271.838 3.77385 -5.25538 0
M  V30 2727 N 271.97 1.30982 0.876444 0
M  V30 2728 C 273.198 1.23242 1.6619 0
M  V30 2729 C 273.613 -0.203345 1.87702 0
M  V30 2730 O 272.97 -1.13317 1.43057 0
M  V30 2731 C 273.021 1.96623 3.03351 0
M  V30 2732 O 272.742 3.34594 2.82804 0
M  V30 2733 C 274.243 1.95644 3.97792 0
M  V30 2734 H 271.463 0.426126 0.518322 0
M  V30 2735 H 274.007 1.7275 1.09442 0
M  V30 2736 H 272.162 1.50892 3.56806 0
M  V30 2737 H 272.576 3.71873 3.69879 0
M  V30 2738 H 274.05 2.51511 4.91372 0
M  V30 2739 H 274.527 0.937395 4.2908 0
M  V30 2740 H 275.133 2.41225 3.50272 0
M  V30 2741 N 273.449 -1.08991 1.13837 0
M  V30 2742 C 274.689 -1.82867 0.913183 0
M  V30 2743 C 275.053 -1.83936 -0.550604 0
M  V30 2744 O 276.254 -2.53515 -0.893515 0
M  V30 2745 C 274.525 -3.24843 1.49036 0
M  V30 2746 S 276.084 -4.15669 1.40588 0
M  V30 2747 H 272.902 -0.630278 0.329046 0
M  V30 2748 H 275.504 -1.31049 1.45073 0
M  V30 2749 H 274.208 -3.21644 2.54899 0
M  V30 2750 H 273.739 -3.81734 0.950947 0
M  V30 2751 H 275.754 -4.94686 0.387353 0
M  V30 2752 N 274.927 -0.932562 -1.27047 0
M  V30 2753 C 275.89 -0.440064 -2.24936 0
M  V30 2754 C 276.89 0.444071 -1.54547 0
M  V30 2755 O 278.08 0.244465 -1.72476 0
M  V30 2756 C 275.212 0.36678 -3.38921 0
M  V30 2757 H 276.405 -1.305 -2.70018 0
M  V30 2758 H 273.958 -0.713707 -1.39054 0
M  V30 2759 H 274.693 1.25033 -2.99228 0
M  V30 2760 H 274.478 -0.267204 -3.91188 0
M  V30 2761 H 275.968 0.701567 -4.11665 0
M  V30 2762 N 276.405 1.4127 -0.698611 0
M  V30 2763 C 277.315 2.34573 -0.0357891 0
M  V30 2764 C 278.331 1.56393 0.762701 0
M  V30 2765 O 279.507 1.8886 0.699564 0
M  V30 2766 C 276.572 3.35159 0.887089 0
M  V30 2767 C 275.633 4.29225 0.0804634 0
M  V30 2768 C 274.866 5.25006 0.959387 0
M  V30 2769 O 275.089 5.26314 2.19886 0
M  V30 2770 O 274.023 6.00519 0.407439 0
M  V30 2771 H 277.849 2.92838 -0.804957 0
M  V30 2772 H 275.434 1.42175 -0.458966 0
M  V30 2773 H 277.316 3.9689 1.41621 0
M  V30 2774 H 275.991 2.79333 1.6357 0
M  V30 2775 H 274.898 3.70833 -0.493328 0
M  V30 2776 H 276.231 4.88157 -0.629547 0
M  V30 2777 N 277.883 0.443576 1.51229 0
M  V30 2778 C 279.131 -0.120557 2.0174 0
M  V30 2779 C 279.452 -1.42665 1.32935 0
M  V30 2780 O 278.722 -1.9028 0.465866 0
M  V30 2781 H 277.302 -0.0475426 0.745486 0
M  V30 2782 H 279.964 0.587711 1.85828 0
M  V30 2783 H 279.06 -0.291972 3.10731 0
M  V30 2784 N 279.361 -1.56624 0.175154 0
M  V30 2785 C 280.609 -1.96609 -0.467885 0
M  V30 2786 C 280.93 -1.06238 -1.63519 0
M  V30 2787 O 280.2 -0.129523 -1.95471 0
M  V30 2788 H 278.78 -0.726008 -0.175845 0
M  V30 2789 H 281.442 -1.93195 0.257234 0
M  V30 2790 H 280.538 -3.00989 -0.825342 0
M  V30 2791 N 280.839 0.0985539 -1.57292 0
M  V30 2792 C 282.088 0.801358 -1.85098 0
M  V30 2793 C 282.401 1.80066 -0.763902 0
M  V30 2794 O 283.607 2.55112 -0.928981 0
M  V30 2795 C 282.063 1.47599 -3.28242 0
M  V30 2796 C 281.671 0.516624 -4.45011 0
M  V30 2797 C 283.415 2.16272 -3.65276 0
M  V30 2798 C 281.322 1.19564 -5.79188 0
M  V30 2799 H 280.252 0.303022 -0.69043 0
M  V30 2800 H 282.903 0.0542623 -1.8342 0
M  V30 2801 H 281.285 2.27042 -3.2445 0
M  V30 2802 H 282.459 -0.246065 -4.60143 0
M  V30 2803 H 280.774 -0.064227 -4.1635 0
M  V30 2804 H 283.371 2.67802 -4.62803 0
M  V30 2805 H 283.714 2.95009 -2.93727 0
M  V30 2806 H 284.247 1.43693 -3.70941 0
M  V30 2807 H 280.986 0.449157 -6.53959 0
M  V30 2808 H 280.506 1.92984 -5.67906 0
M  V30 2809 H 282.185 1.7231 -6.23633 0
M  V30 2810 N 282.317 1.53212 0.369288 0
M  V30 2811 C 283.563 1.69466 1.11397 0
M  V30 2812 C 283.896 0.443257 1.89074 0
M  V30 2813 O 283.171 -0.559386 1.86282 0
M  V30 2814 C 283.454 2.9422 2.07621 0
M  V30 2815 C 283.307 4.29508 1.33577 0
M  V30 2816 C 284.626 3.14565 3.07794 0
M  V30 2817 H 281.745 0.616667 0.403597 0
M  V30 2818 H 284.387 1.85845 0.395179 0
M  V30 2819 H 282.537 2.80387 2.68916 0
M  V30 2820 H 284.209 4.55147 0.750955 0
M  V30 2821 H 282.452 4.29088 0.637618 0
M  V30 2822 H 283.123 5.12926 2.03989 0
M  V30 2823 H 285.599 3.2756 2.56601 0
M  V30 2824 H 284.475 4.03297 3.72348 0
M  V30 2825 H 284.736 2.29675 3.77759 0
M  V30 2826 N 283.795 -0.628877 1.44509 0
M  V30 2827 C 285.041 -1.39045 1.47629 0
M  V30 2828 C 285.374 -1.93892 0.109343 0
M  V30 2829 O 284.649 -1.7379 -0.87334 0
M  V30 2830 C 284.932 -2.55408 2.53848 0
M  V30 2831 C 284.785 -2.05896 3.99909 0
M  V30 2832 C 286.104 -3.5759 2.56549 0
M  V30 2833 H 283.223 -0.504232 0.537512 0
M  V30 2834 H 285.865 -0.710854 1.76201 0
M  V30 2835 H 284.015 -3.13384 2.29615 0
M  V30 2836 H 285.687 -1.52734 4.35282 0
M  V30 2837 H 283.93 -1.37061 4.11578 0
M  V30 2838 H 284.601 -2.89681 4.69882 0
M  V30 2839 H 287.077 -3.09419 2.78207 0
M  V30 2840 H 285.953 -4.36527 3.32769 0
M  V30 2841 H 286.214 -4.11808 1.60832 0
M  V30 2842 N 285.273 -1.31445 -0.869486 0
M  V30 2843 C 286.501 -1.24122 -1.65534 0
M  V30 2844 C 286.916 0.193387 -1.87807 0
M  V30 2845 O 286.273 1.12557 -1.43656 0
M  V30 2846 C 286.324 -1.98229 -3.02304 0
M  V30 2847 O 286.045 -3.3609 -2.81026 0
M  V30 2848 C 287.546 -1.97751 -3.96749 0
M  V30 2849 H 284.766 -0.428868 -0.516055 0
M  V30 2850 H 287.31 -1.73328 -1.08525 0
M  V30 2851 H 285.465 -1.52782 -3.56001 0
M  V30 2852 H 285.879 -3.7383 -3.67902 0
M  V30 2853 H 287.353 -2.54114 -4.90031 0
M  V30 2854 H 287.83 -0.960137 -4.28577 0
M  V30 2855 H 288.436 -2.43079 -3.48988 0
M  V30 2856 N 286.751 1.08385 -1.14413 0
M  V30 2857 C 288.028 1.77429 -0.823297 0
M  V30 2858 C 288.408 1.9974 0.683163 0
M  V30 2859 O 287.756 1.60739 1.62405 0
M  V30 2860 C 287.966 3.09004 -1.62227 0
M  V30 2861 C 289.314 3.83532 -1.82177 0
M  V30 2862 O 290.338 3.18786 -1.58915 0
M  V30 2863 O 289.197 4.99792 -2.21067 0
M  V30 2864 H 286.291 0.769999 -0.301712 0
M  V30 2865 H 288.837 1.14846 -1.24934 0
M  V30 2866 H 287.609 2.88316 -2.64555 0
M  V30 2867 H 287.232 3.79316 -1.19187 0
M  V30 2868 N 288.23 0.939286 1.26551 0
M  V30 2869 C 289.178 0.43815 2.28436 0
M  V30 2870 C 290.172 -0.483587 1.62351 0
M  V30 2871 O 291.378 -0.362009 1.76322 0
M  V30 2872 H 287.753 0.123149 0.741848 0
M  V30 2873 H 289.724 1.31002 2.68106 0
M  V30 2874 C 288.473 -0.283052 3.46546 0
M  V30 2875 H 287.796 0.417043 3.97619 0
M  V30 2876 H 289.236 -0.597948 4.19763 0
M  V30 2877 C 287.695 -1.50018 3.01656 0
M  V30 2878 O 288.225 -2.59855 3.0633 0
M  V30 2879 N 286.431 -1.35608 2.57019 0
M  V30 2880 H 285.978 -0.46244 2.53415 0
M  V30 2881 H 285.936 -2.17165 2.27347 0
M  V30 2882 N 289.708 -1.40897 0.706093 0
M  V30 2883 C 291.119 -1.84023 0.315052 0
M  V30 2884 C 291.47 -1.5906 -1.14866 0
M  V30 2885 O 290.595 -1.06651 -1.88293 0
M  V30 2886 C 291.19 -3.34055 0.565038 0
M  V30 2887 C 289.749 -3.7571 0.227806 0
M  V30 2888 C 288.896 -2.64204 0.842122 0
M  V30 2889 H 291.847 -1.303 0.905963 0
M  V30 2890 H 291.868 -3.80107 -0.172843 0
M  V30 2891 H 291.38 -3.52192 1.63042 0
M  V30 2892 H 289.481 -3.63172 -0.832895 0
M  V30 2893 H 289.594 -4.74103 0.690174 0
M  V30 2894 H 287.958 -2.53255 0.270893 0
M  V30 2895 H 288.741 -2.85155 1.91158 0
M  V30 2896 N 291.186 -0.45159 -1.50991 0
M  V30 2897 C 292.118 0.388634 -2.25881 0
M  V30 2898 C 293.131 0.974041 -1.30446 0
M  V30 2899 O 294.32 0.865758 -1.56099 0
M  V30 2900 C 291.42 1.5571 -3.01011 0
M  V30 2901 C 290.593 1.08801 -4.23652 0
M  V30 2902 C 289.652 2.12825 -4.8124 0
M  V30 2903 O 288.678 1.71678 -5.42693 0
M  V30 2904 N 289.88 3.45453 -4.66522 0
M  V30 2905 H 292.645 -0.25329 -2.98628 0
M  V30 2906 H 290.206 -0.281268 -1.59438 0
M  V30 2907 H 292.198 2.24952 -3.3642 0
M  V30 2908 H 290.768 2.10409 -2.31186 0
M  V30 2909 H 289.988 0.22215 -3.93574 0
M  V30 2910 H 291.276 0.752213 -5.03209 0
M  V30 2911 H 290.674 3.81605 -4.17605 0
M  V30 2912 H 289.231 4.10549 -5.06254 0
M  V30 2913 N 292.664 1.56529 -0.183458 0
M  V30 2914 C 293.911 1.97244 0.458357 0
M  V30 2915 C 294.239 1.06992 1.62428 0
M  V30 2916 O 293.494 0.106542 1.9541 0
M  V30 2917 C 293.793 3.43939 0.971637 0
M  V30 2918 C 293.459 4.5083 -0.0796784 0
M  V30 2919 C 292.121 4.79786 -0.368584 0
M  V30 2920 C 294.473 5.15138 -0.792638 0
M  V30 2921 C 291.801 5.70345 -1.37563 0
M  V30 2922 C 294.153 6.06784 -1.78875 0
M  V30 2923 C 292.817 6.34102 -2.08497 0
M  V30 2924 H 292.087 0.721768 0.167725 0
M  V30 2925 H 294.734 1.89472 -0.277976 0
M  V30 2926 H 293.039 3.48724 1.78602 0
M  V30 2927 H 294.736 3.72791 1.47744 0
M  V30 2928 H 291.326 4.28317 0.155668 0
M  V30 2929 H 295.51 4.92868 -0.582659 0
M  V30 2930 H 290.766 5.89789 -1.61118 0
M  V30 2931 H 294.94 6.55677 -2.3465 0
M  V30 2932 H 292.567 7.04074 -2.86678 0
M  V30 2933 N 294.142 -0.090211 1.57342 0
M  V30 2934 C 295.105 -1.09335 2.01441 0
M  V30 2935 C 296.105 -1.32666 0.908641 0
M  V30 2936 O 297.295 -1.28697 1.174 0
M  V30 2937 C 294.427 -2.44136 2.3793 0
M  V30 2938 H 295.62 -0.713662 2.91285 0
M  V30 2939 H 293.173 -0.335404 1.52659 0
M  V30 2940 H 293.908 -2.86972 1.51055 0
M  V30 2941 H 293.693 -2.28548 3.18603 0
M  V30 2942 H 295.183 -3.16277 2.72688 0
M  V30 2943 N 295.62 -1.53406 -0.361157 0
M  V30 2944 C 296.897 -1.60411 -1.11927 0
M  V30 2945 C 297.277 -0.414385 -2.06993 0
M  V30 2946 O 296.625 0.594976 -2.20618 0
M  V30 2947 C 296.835 -2.95652 -1.85448 0
M  V30 2948 C 298.183 -3.50386 -2.39823 0
M  V30 2949 O 299.207 -2.97711 -1.95568 0
M  V30 2950 O 298.066 -4.42482 -3.20737 0
M  V30 2951 H 295.16 -0.64811 -0.513695 0
M  V30 2952 H 297.706 -1.65749 -0.364065 0
M  V30 2953 H 296.478 -3.73682 -1.16091 0
M  V30 2954 H 296.101 -2.93825 -2.67866 0
M  V30 2955 N 297.098 0.621204 -1.44841 0
M  V30 2956 C 298.045 1.73267 -1.5247 0
M  V30 2957 C 299.015 1.6189 -0.371611 0
M  V30 2958 O 300.2 1.81668 -0.58321 0
M  V30 2959 C 297.34 3.11545 -1.48438 0
M  V30 2960 C 296.453 3.33827 -2.74196 0
M  V30 2961 C 295.588 4.62133 -2.61929 0
M  V30 2962 C 294.627 4.77627 -3.82804 0
M  V30 2963 N 293.764 5.97219 -3.69153 0
M  V30 2964 H 298.604 1.66082 -2.47428 0
M  V30 2965 H 296.141 0.810026 -1.22788 0
M  V30 2966 H 298.099 3.91528 -1.4409 0
M  V30 2967 H 296.729 3.1772 -0.570402 0
M  V30 2968 H 295.781 2.47715 -2.88689 0
M  V30 2969 H 297.093 3.41153 -3.6389 0
M  V30 2970 H 296.247 5.50291 -2.5547 0
M  V30 2971 H 294.986 4.57182 -1.69811 0
M  V30 2972 H 293.991 3.87896 -3.89637 0
M  V30 2973 H 295.216 4.84385 -4.75971 0
M  V30 2974 H 293.162 5.93339 -2.79794 0
M  V30 2975 H 293.079 6.05644 -4.52472 0
M  V30 2976 H 294.347 6.87912 -3.66603 0
M  V30 2977 N 298.576 1.31904 0.862503 0
M  V30 2978 C 299.506 1.22782 1.98612 0
M  V30 2979 C 300.487 0.113362 1.69722 0
M  V30 2980 O 301.672 0.299218 1.91881 0
M  V30 2981 C 298.802 0.942058 3.34279 0
M  V30 2982 C 297.756 2.0169 3.77499 0
M  V30 2983 C 297.082 1.58369 5.10709 0
M  V30 2984 C 298.382 3.43096 3.93805 0
M  V30 2985 H 300.076 2.16788 2.06502 0
M  V30 2986 H 297.622 1.04366 0.992154 0
M  V30 2987 H 299.575 0.864818 4.1243 0
M  V30 2988 H 298.299 -0.0336603 3.26583 0
M  V30 2989 H 296.958 2.08416 3.01593 0
M  V30 2990 H 296.606 0.595628 4.99461 0
M  V30 2991 H 296.306 2.30279 5.40597 0
M  V30 2992 H 297.83 1.52067 5.91361 0
M  V30 2993 H 299.244 3.39003 4.62331 0
M  V30 2994 H 297.641 4.13288 4.35101 0
M  V30 2995 H 298.711 3.83334 2.96957 0
M  V30 2996 N 300.054 -1.07777 1.14986 0
M  V30 2997 C 301.47 -1.32373 0.891596 0
M  V30 2998 C 301.67 -1.9609 -0.463788 0
M  V30 2999 O 300.726 -2.21801 -1.20667 0
M  V30 3000 C 302.039 -2.21905 2.02925 0
M  V30 3001 C 303.587 -2.35367 2.06329 0
M  V30 3002 C 304.062 -3.28245 3.19405 0
M  V30 3003 N 305.553 -3.35824 3.19024 0
M  V30 3004 C 306.288 -4.07739 4.03158 0
M  V30 3005 N 305.784 -4.82306 4.97346 0
M  V30 3006 N 307.577 -4.03635 3.91197 0
M  V30 3007 H 299.728 -0.648039 2.02273 0
M  V30 3008 H 301.991 -0.348149 0.881757 0
M  V30 3009 H 301.697 -1.82342 3.0074 0
M  V30 3010 H 301.571 -3.22407 1.95789 0
M  V30 3011 H 303.958 -2.74186 1.09116 0
M  V30 3012 H 304.039 -1.34585 2.17533 0
M  V30 3013 H 303.683 -2.90146 4.16867 0
M  V30 3014 H 303.613 -4.28971 3.05437 0
M  V30 3015 H 306.104 -2.8267 2.50811 0
M  V30 3016 H 306.417 -5.34661 5.57994 0
M  V30 3017 H 304.762 -4.81337 5.01338 0
M  V30 3018 H 307.953 -3.44491 3.16928 0
M  V30 3019 H 308.126 -4.59417 4.5699 0
M  V30 3020 N 301.532 -0.945985 -1.26051 0
M  V30 3021 C 302.757 -0.612525 -1.98149 0
M  V30 3022 C 303.182 0.806623 -1.69927 0
M  V30 3023 O 302.54 1.54411 -0.950108 0
M  V30 3024 C 302.588 -0.866981 -3.50023 0
M  V30 3025 O 301.692 0.0585333 -4.12358 0
M  V30 3026 H 301.033 -0.23379 -0.621481 0
M  V30 3027 H 303.563 -1.27023 -1.60395 0
M  V30 3028 H 303.573 -0.789792 -4.00283 0
M  V30 3029 H 302.248 -1.90135 -3.69894 0
M  V30 3030 H 300.825 -0.0701241 -3.72834 0
M  V30 3031 N 303.011 1.40521 -0.713556 0
M  V30 3032 C 303.941 2.33381 -0.0743864 0
M  V30 3033 C 304.922 1.52784 0.747735 0
M  V30 3034 O 306.107 1.81258 0.697071 0
M  V30 3035 C 303.237 3.36748 0.849598 0
M  V30 3036 C 302.191 4.27793 0.133247 0
M  V30 3037 C 301.517 5.21679 1.17281 0
M  V30 3038 C 302.817 5.12415 -1.01134 0
M  V30 3039 H 304.511 2.87081 -0.850007 0
M  V30 3040 H 302.057 1.38034 -0.410201 0
M  V30 3041 H 304.01 4.00648 1.30612 0
M  V30 3042 H 302.734 2.81439 1.65709 0
M  V30 3043 H 301.393 3.65342 -0.303426 0
M  V30 3044 H 301.041 4.62677 1.9733 0
M  V30 3045 H 300.741 5.83435 0.698397 0
M  V30 3046 H 302.265 5.88456 1.62947 0
M  V30 3047 H 303.679 5.69781 -0.634274 0
M  V30 3048 H 302.076 5.83203 -1.41399 0
M  V30 3049 H 303.146 4.48514 -1.84292 0
M  V30 3050 N 304.489 0.459591 1.5075 0
M  V30 3051 C 305.436 -0.340524 2.28274 0
M  V30 3052 C 306.406 -0.997371 1.32822 0
M  V30 3053 O 307.591 -1.01202 1.61749 0
M  V30 3054 C 304.731 -1.42317 3.14388 0
M  V30 3055 C 303.844 -0.782251 4.24859 0
M  V30 3056 C 302.979 -1.84182 4.98247 0
M  V30 3057 C 302.018 -1.18053 6.00608 0
M  V30 3058 N 301.155 -2.18244 6.67319 0
M  V30 3059 H 305.995 0.326899 2.96202 0
M  V30 3060 H 303.532 0.173057 1.46078 0
M  V30 3061 H 305.49 -2.06241 3.62658 0
M  V30 3062 H 304.12 -2.05992 2.4853 0
M  V30 3063 H 303.172 -0.0307404 3.80388 0
M  V30 3064 H 304.484 -0.259663 4.98124 0
M  V30 3065 H 303.638 -2.55714 5.50177 0
M  V30 3066 H 302.377 -2.39819 4.24662 0
M  V30 3067 H 301.382 -0.450776 5.47949 0
M  V30 3068 H 302.607 -0.631202 6.7616 0
M  V30 3069 H 300.553 -2.72919 5.96533 0
M  V30 3070 H 300.47 -1.70938 7.36421 0
M  V30 3071 H 301.738 -2.89191 7.23871 0
M  V30 3072 N 305.967 -1.56429 0.191757 0
M  V30 3073 C 307.214 -1.97485 -0.447891 0
M  V30 3074 C 307.542 -1.07852 -1.61859 0
M  V30 3075 O 306.797 -0.116903 -1.95351 0
M  V30 3076 C 307.096 -3.44449 -0.953384 0
M  V30 3077 C 306.762 -4.50781 0.103586 0
M  V30 3078 C 305.424 -4.79584 0.394023 0
M  V30 3079 C 307.776 -5.1471 0.819946 0
M  V30 3080 C 305.104 -5.69607 1.40585 0
M  V30 3081 C 307.456 -6.05827 1.8209 0
M  V30 3082 C 306.12 -6.32987 2.11857 0
M  V30 3083 H 305.39 -0.722648 -0.163895 0
M  V30 3084 H 308.037 -1.89322 0.28802 0
M  V30 3085 H 306.342 -3.49666 -1.76751 0
M  V30 3086 H 308.039 -3.73569 -1.45765 0
M  V30 3087 H 304.629 -4.28394 -0.132951 0
M  V30 3088 H 308.813 -4.92552 0.608789 0
M  V30 3089 H 304.069 -5.88926 1.64243 0
M  V30 3090 H 308.243 -6.54424 2.38123 0
M  V30 3091 H 305.87 -7.02544 2.90407 0
M  V30 3092 N 307.445 0.0818655 -1.57387 0
M  V30 3093 C 308.395 1.10501 -1.99433 0
M  V30 3094 C 309.379 1.35041 -0.874798 0
M  V30 3095 O 310.571 1.35511 -1.13868 0
M  V30 3096 C 307.7 2.42159 -2.43339 0
M  V30 3097 C 306.786 2.20937 -3.62005 0
M  V30 3098 N 307.177 1.69616 -4.76512 0
M  V30 3099 C 305.475 2.51451 -3.68359 0
M  V30 3100 C 306.176 1.62973 -5.58404 0
M  V30 3101 N 305.152 2.08664 -5.01956 0
M  V30 3102 H 308.954 0.701373 -2.85408 0
M  V30 3103 H 306.468 0.289096 -1.59806 0
M  V30 3104 H 308.465 3.16208 -2.71695 0
M  V30 3105 H 307.125 2.83249 -1.58746 0
M  V30 3106 H 308.136 1.38624 -4.99003 0
M  V30 3107 H 304.813 2.95975 -2.94457 0
M  V30 3108 H 306.203 1.24233 -6.60315 0
M  V30 3109 N 308.923 1.53595 0.353017 0
M  V30 3110 C 310.171 1.70049 1.09215 0
M  V30 3111 C 310.492 0.461406 1.89463 0
M  V30 3112 O 309.762 -0.524633 1.88744 0
M  V30 3113 H 308.342 0.626912 0.40619 0
M  V30 3114 H 311.004 1.90822 0.396585 0
M  V30 3115 H 310.1 2.56718 1.77488 0
M  V30 3116 N 310.401 -0.613514 1.45168 0
M  V30 3117 C 311.331 -1.7354 1.56225 0
M  V30 3118 C 312.312 -1.64981 0.41414 0
M  V30 3119 O 313.497 -1.83472 0.636526 0
M  V30 3120 C 310.627 -3.12128 1.52295 0
M  V30 3121 C 309.581 -3.35491 2.65762 0
M  V30 3122 C 308.907 -4.74291 2.46885 0
M  V30 3123 C 310.207 -3.26325 4.0781 0
M  V30 3124 H 311.901 -1.64543 2.50132 0
M  V30 3125 H 309.447 -0.790185 1.20383 0
M  V30 3126 H 311.4 -3.90404 1.58628 0
M  V30 3127 H 310.124 -3.2195 0.549139 0
M  V30 3128 H 308.783 -2.59603 2.58847 0
M  V30 3129 H 308.431 -4.80839 1.47657 0
M  V30 3130 H 308.131 -4.9088 3.22972 0
M  V30 3131 H 309.655 -5.54775 2.55063 0
M  V30 3132 H 311.069 -3.94483 4.16 0
M  V30 3133 H 309.466 -3.54445 4.8424 0
M  V30 3134 H 310.536 -2.23855 4.30136 0
M  V30 3135 N 311.879 -1.3236 -0.855495 0
M  V30 3136 C 313.127 -1.22629 -1.60644 0
M  V30 3137 C 313.448 0.212136 -1.93843 0
M  V30 3138 O 312.718 1.13666 -1.59552 0
M  V30 3139 H 311.298 -0.450882 -0.595579 0
M  V30 3140 H 313.96 -1.65871 -1.02337 0
M  V30 3141 H 313.056 -1.80832 -2.54374 0
M  V30 3142 N 313.357 1.07166 -1.15556 0
M  V30 3143 C 314.603 1.80065 -0.932984 0
M  V30 3144 C 314.936 1.86586 0.53845 0
M  V30 3145 O 314.211 1.35098 1.39924 0
M  V30 3146 C 314.494 3.25022 -1.55025 0
M  V30 3147 C 314.347 3.26634 -3.09242 0
M  V30 3148 C 315.666 4.22341 -1.2376 0
M  V30 3149 H 312.785 0.653697 -0.340366 0
M  V30 3150 H 315.427 1.25389 -1.4275 0
M  V30 3151 H 313.577 3.71712 -1.12972 0
M  V30 3152 H 315.249 2.88173 -3.60214 0
M  V30 3153 H 313.492 2.65539 -3.43033 0
M  V30 3154 H 314.163 4.28854 -3.47546 0
M  V30 3155 H 316.639 3.8405 -1.60139 0
M  V30 3156 H 315.515 5.22053 -1.69564 0
M  V30 3157 H 315.776 4.41828 -0.154938 0
M  V30 3158 N 314.835 0.952656 1.25548 0
M  V30 3159 C 316.112 0.523818 1.88456 0
M  V30 3160 C 316.492 -0.998871 1.85973 0
M  V30 3161 O 315.84 -1.86381 1.3219 0
M  V30 3162 C 316.05 1.0982 3.31271 0
M  V30 3163 C 317.398 1.17385 4.08051 0
M  V30 3164 O 318.422 1.04961 3.40384 0
M  V30 3165 O 317.281 1.36852 5.29088 0
M  V30 3166 H 314.375 0.172485 0.808813 0
M  V30 3167 H 316.921 1.04596 1.33633 0
M  V30 3168 H 315.693 2.1415 3.27499 0
M  V30 3169 H 315.316 0.559191 3.93648 0
M  V30 3170 N 316.313 -1.40141 0.720998 0
M  V30 3171 C 317.276 -2.29058 0.0805834 0
M  V30 3172 C 318.276 -1.45632 -0.681758 0
M  V30 3173 O 319.466 -1.6648 -0.512856 0
M  V30 3174 C 316.598 -3.28925 -0.895593 0
M  V30 3175 H 317.791 -2.87191 0.863793 0
M  V30 3176 H 315.344 -1.48553 0.485975 0
M  V30 3177 H 316.079 -2.75822 -1.70566 0
M  V30 3178 H 315.864 -3.90519 -0.351766 0
M  V30 3179 H 317.354 -3.95494 -1.34069 0
M  V30 3180 N 317.792 -0.46758 -1.50504 0
M  V30 3181 C 319.038 0.0808869 -2.03239 0
M  V30 3182 C 319.393 1.37721 -1.34353 0
M  V30 3183 O 318.686 1.86016 -0.459194 0
M  V30 3184 C 318.88 0.323995 -3.55928 0
M  V30 3185 C 318.709 -0.947215 -4.39611 0
M  V30 3186 C 317.479 -1.48951 -4.82848 0
M  V30 3187 C 319.677 -1.84166 -4.80195 0
M  V30 3188 N 317.659 -2.71011 -5.50842 0
M  V30 3189 C 319.03 -2.90815 -5.47564 0
M  V30 3190 C 321.085 -1.85246 -4.62156 0
M  V30 3191 C 319.788 -3.98529 -5.98805 0
M  V30 3192 C 321.814 -2.91914 -5.14335 0
M  V30 3193 C 321.176 -3.97282 -5.81676 0
M  V30 3194 H 317.275 -0.0103394 -0.781932 0
M  V30 3195 H 319.859 -0.635003 -1.84054 0
M  V30 3196 H 318.03 1.00892 -3.75067 0
M  V30 3197 H 319.762 0.866492 -3.95315 0
M  V30 3198 H 316.517 -1.03918 -4.62058 0
M  V30 3199 H 316.941 -3.32988 -5.89447 0
M  V30 3200 H 321.583 -1.05103 -4.09528 0
M  V30 3201 H 319.301 -4.79491 -6.50472 0
M  V30 3202 H 322.887 -2.93729 -5.0221 0
M  V30 3203 H 321.767 -4.78462 -6.21324 0
M  V30 3204 N 319.27 1.56325 -0.20005 0
M  V30 3205 C 320.547 1.89484 0.48529 0
M  V30 3206 C 320.927 1.1143 1.79294 0
M  V30 3207 O 320.275 0.216919 2.27468 0
M  V30 3208 C 320.485 3.41923 0.699243 0
M  V30 3209 C 321.833 4.12256 1.01638 0
M  V30 3210 O 322.857 3.47402 0.786792 0
M  V30 3211 O 321.716 5.26887 1.45095 0
M  V30 3212 H 318.81 0.787144 0.253639 0
M  V30 3213 H 321.356 1.67985 -0.240633 0
M  V30 3214 H 320.128 3.90658 -0.224008 0
M  V30 3215 H 319.751 3.69131 1.47744 0
M  V30 3216 N 320.748 -0.0735177 1.57428 0
M  V30 3217 C 322.164 -0.428264 1.53747 0
M  V30 3218 C 322.364 -1.79272 0.91998 0
M  V30 3219 O 321.42 -2.47051 0.521745 0
M  V30 3220 C 322.733 -0.370914 2.98404 0
M  V30 3221 C 324.281 -0.451224 3.0973 0
M  V30 3222 C 324.756 -0.4238 4.56035 0
M  V30 3223 N 326.247 -0.483925 4.60665 0
M  V30 3224 C 326.982 -0.484891 5.71346 0
M  V30 3225 N 326.478 -0.440775 6.91396 0
M  V30 3226 N 328.271 -0.531319 5.59583 0
M  V30 3227 H 320.422 0.819949 1.95935 0
M  V30 3228 H 322.685 0.307493 0.896745 0
M  V30 3229 H 322.391 0.564956 3.47133 0
M  V30 3230 H 322.265 -1.18176 3.5821 0
M  V30 3231 H 324.652 -1.37752 2.60976 0
M  V30 3232 H 324.733 0.388167 2.52838 0
M  V30 3233 H 324.377 0.498638 5.05446 0
M  V30 3234 H 324.307 -1.2807 5.10789 0
M  V30 3235 H 326.798 -0.522338 3.74273 0
M  V30 3236 H 327.111 -0.44539 7.71515 0
M  V30 3237 H 325.456 -0.40749 6.93804 0
M  V30 3238 H 328.647 -0.563464 4.64696 0
M  V30 3239 H 328.82 -0.528603 6.4584 0
M  V30 3240 N 322.226 -1.5378 -0.344866 0
M  V30 3241 C 323.158 -1.77988 -1.44406 0
M  V30 3242 C 324.171 -0.661138 -1.48771 0
M  V30 3243 O 325.36 -0.937842 -1.51877 0
M  V30 3244 C 322.46 -1.86345 -2.8307 0
M  V30 3245 C 321.633 -3.16256 -3.0216 0
M  V30 3246 C 320.692 -3.15588 -4.21059 0
M  V30 3247 O 319.718 -3.89314 -4.15239 0
M  V30 3248 N 320.92 -2.37864 -5.29529 0
M  V30 3249 H 323.685 -2.72839 -1.24012 0
M  V30 3250 H 321.246 -1.52814 -0.534737 0
M  V30 3251 H 323.238 -1.83351 -3.60783 0
M  V30 3252 H 321.808 -0.986858 -2.96614 0
M  V30 3253 H 321.028 -3.32385 -2.11929 0
M  V30 3254 H 322.316 -4.0207 -3.11797 0
M  V30 3255 H 321.714 -1.77514 -5.37127 0
M  V30 3256 H 320.271 -2.40668 -6.05741 0
M  V30 3257 N 323.704 0.605807 -1.45491 0
M  V30 3258 C 324.929 1.39625 -1.53361 0
M  V30 3259 C 325.354 1.87351 -0.167645 0
M  V30 3260 O 324.712 1.60243 0.848051 0
M  V30 3261 C 324.76 2.57559 -2.5238 0
M  V30 3262 O 323.864 3.58248 -2.04285 0
M  V30 3263 H 323.205 0.416771 -0.516912 0
M  V30 3264 H 325.735 0.737103 -1.90861 0
M  V30 3265 H 325.745 3.0478 -2.71244 0
M  V30 3266 H 324.42 2.22171 -3.51586 0
M  V30 3267 H 322.997 3.17664 -1.95305 0
M  V30 3268 N 325.182 1.32811 0.848464 0
M  V30 3269 C 326.43 1.23479 1.59991 0
M  V30 3270 C 326.751 -0.201853 1.93952 0
M  V30 3271 O 326.021 -1.12818 1.60153 0
M  V30 3272 H 324.601 0.454034 0.593179 0
M  V30 3273 H 327.263 1.66412 1.01455 0
M  V30 3274 H 326.359 1.82178 2.53412 0
M  V30 3275 N 326.66 -1.06551 1.16123 0
M  V30 3276 C 327.908 -1.78947 0.939267 0
M  V30 3277 C 328.229 -1.87532 -0.534476 0
M  V30 3278 O 327.499 -1.38211 -1.38833 0
M  V30 3279 H 326.079 -0.662807 0.344523 0
M  V30 3280 H 328.741 -1.28725 1.46342 0
M  V30 3281 H 327.837 -2.81117 1.35572 0
M  V30 3282 N 328.138 -0.959301 -1.25041 0
M  V30 3283 C 329.554 -0.664474 -1.4511 0
M  V30 3284 C 329.754 0.776481 -1.85938 0
M  V30 3285 O 328.81 1.55128 -1.99227 0
M  V30 3286 C 330.123 -1.64139 -2.5195 0
M  V30 3287 C 331.671 -1.65309 -2.65786 0
M  V30 3288 C 332.146 -2.61777 -3.75815 0
M  V30 3289 N 333.637 -2.60169 -3.83231 0
M  V30 3290 C 334.372 -3.31489 -4.6787 0
M  V30 3291 N 333.868 -4.12298 -5.56761 0
M  V30 3292 N 335.661 -3.20354 -4.61876 0
M  V30 3293 H 327.812 -1.89043 -0.968332 0
M  V30 3294 H 330.075 -0.813408 -0.4869 0
M  V30 3295 H 329.781 -2.67086 -2.28819 0
M  V30 3296 H 329.655 -1.40756 -3.49954 0
M  V30 3297 H 332.042 -0.630778 -2.8828 0
M  V30 3298 H 332.123 -1.92753 -1.68167 0
M  V30 3299 H 331.767 -3.64137 -3.54071 0
M  V30 3300 H 331.697 -2.31616 -4.72929 0
M  V30 3301 H 334.188 -2.01507 -3.19692 0
M  V30 3302 H 334.501 -4.63625 -6.18281 0
M  V30 3303 H 332.846 -4.16395 -5.56454 0
M  V30 3304 H 336.037 -2.56692 -3.91442 0
M  V30 3305 H 336.21 -3.76201 -5.27614 0
M  V30 3306 N 329.616 1.39756 -0.72842 0
M  V30 3307 C 330.579 2.29012 -0.0927297 0
M  V30 3308 C 331.579 1.45992 0.674025 0
M  V30 3309 O 332.769 1.66749 0.50402 0
M  V30 3310 C 329.901 3.29396 0.878137 0
M  V30 3311 H 331.094 2.86729 -0.879011 0
M  V30 3312 H 328.647 1.48293 -0.493847 0
M  V30 3313 H 329.382 2.76722 1.69101 0
M  V30 3314 H 329.167 3.907 0.331051 0
M  V30 3315 H 330.657 3.96199 1.3197 0
M  V30 3316 N 331.094 0.475555 1.50254 0
M  V30 3317 C 332.505 0.0215174 1.86688 0
M  V30 3318 C 332.856 -1.38467 1.39001 0
M  V30 3319 O 331.981 -2.02732 0.756894 0
M  V30 3320 C 332.576 0.0322715 3.38785 0
M  V30 3321 C 331.135 -0.366314 3.74613 0
M  V30 3322 C 330.282 0.415832 2.74164 0
M  V30 3323 H 333.233 0.689612 1.42934 0
M  V30 3324 H 333.254 -0.76889 3.7265 0
M  V30 3325 H 332.766 1.05584 3.73462 0
M  V30 3326 H 330.867 -1.39406 3.45538 0
M  V30 3327 H 330.98 -0.064555 4.79057 0
M  V30 3328 H 329.344 -0.131048 2.54363 0
M  V30 3329 H 330.127 1.43899 3.11686 0
M  V30 3330 N 332.573 -1.56217 0.208337 0
M  V30 3331 C 333.505 -2.1695 -0.739276 0
M  V30 3332 C 334.518 -1.13492 -1.1672 0
M  V30 3333 O 335.707 -1.40529 -1.10063 0
M  V30 3334 C 332.807 -2.72755 -2.01142 0
M  V30 3335 C 331.98 -4.0125 -1.74118 0
M  V30 3336 C 331.039 -4.41749 -2.85909 0
M  V30 3337 O 330.065 -5.08912 -2.54946 0
M  V30 3338 N 331.267 -4.06342 -4.14568 0
M  V30 3339 H 334.032 -2.98893 -0.219837 0
M  V30 3340 H 331.593 -1.61878 0.0268445 0
M  V30 3341 H 333.585 -2.96826 -2.75094 0
M  V30 3342 H 332.155 -1.95191 -2.4417 0
M  V30 3343 H 331.375 -3.85173 -0.838775 0
M  V30 3344 H 332.663 -4.851 -1.53477 0
M  V30 3345 H 332.061 -3.52345 -4.42571 0
M  V30 3346 H 330.618 -4.35335 -4.85105 0
M  V30 3347 N 334.051 0.0651679 -1.57465 0
M  V30 3348 C 335.014 1.06117 -2.03155 0
M  V30 3349 C 336.014 1.31204 -0.929632 0
M  V30 3350 O 337.204 1.26813 -1.19432 0
M  V30 3351 C 334.336 2.4032 -2.41783 0
M  V30 3352 H 335.529 0.667231 -2.92383 0
M  V30 3353 H 333.082 0.311075 -1.53173 0
M  V30 3354 H 333.817 2.84532 -1.55601 0
M  V30 3355 H 333.602 2.23451 -3.22199 0
M  V30 3356 H 335.092 3.11898 -2.77685 0
M  V30 3357 N 335.529 1.53961 0.336706 0
M  V30 3358 C 336.439 1.85432 1.43708 0
M  V30 3359 C 337.455 0.745053 1.57242 0
M  V30 3360 O 338.631 1.03804 1.72588 0
M  V30 3361 C 335.696 2.06349 2.78605 0
M  V30 3362 C 334.757 3.30191 2.74358 0
M  V30 3363 C 333.99 3.50101 4.02822 0
M  V30 3364 O 334.213 2.7371 5.00439 0
M  V30 3365 O 333.147 4.43547 4.06878 0
M  V30 3366 H 336.973 2.78975 1.20028 0
M  V30 3367 H 334.558 1.39701 0.52952 0
M  V30 3368 H 336.44 2.21513 3.58483 0
M  V30 3369 H 335.115 1.15995 3.02203 0
M  V30 3370 H 334.022 3.20425 1.93078 0
M  V30 3371 H 335.355 4.2056 2.55715 0
M  V30 3372 N 337.007 -0.598083 1.45811 0
M  V30 3373 C 338.253 -1.35882 1.50545 0
M  V30 3374 C 338.586 -1.93616 0.150445 0
M  V30 3375 O 337.861 -1.75604 -0.83628 0
M  V30 3376 C 338.144 -2.49966 2.59208 0
M  V30 3377 C 337.997 -1.97367 4.04186 0
M  V30 3378 C 339.316 -3.52068 2.64076 0
M  V30 3379 H 336.435 -0.492717 0.548087 0
M  V30 3380 H 339.077 -0.673319 1.77669 0
M  V30 3381 H 337.227 -3.08443 2.3621 0
M  V30 3382 H 338.899 -1.43466 4.38423 0
M  V30 3383 H 337.142 -1.283 4.14393 0
M  V30 3384 H 337.813 -2.79649 4.75921 0
M  V30 3385 H 340.289 -3.03448 2.84708 0
M  V30 3386 H 339.165 -4.2937 3.41954 0
M  V30 3387 H 339.426 -4.08304 1.69531 0
M  V30 3388 N 338.485 -1.33259 -0.841409 0
M  V30 3389 C 339.415 -1.25926 -1.96634 0
M  V30 3390 C 340.396 -0.140349 -1.6952 0
M  V30 3391 O 341.581 -0.329707 -1.91381 0
M  V30 3392 C 338.711 -0.99512 -3.32738 0
M  V30 3393 C 337.665 -2.0767 -3.74242 0
M  V30 3394 C 336.991 -1.66474 -5.08125 0
M  V30 3395 C 338.291 -3.49318 -3.88297 0
M  V30 3396 H 339.985 -2.20046 -2.03027 0
M  V30 3397 H 337.531 -1.05931 -0.975425 0
M  V30 3398 H 339.484 -0.930323 -4.11002 0
M  V30 3399 H 338.208 -0.0183004 -3.26595 0
M  V30 3400 H 336.867 -2.13187 -2.98239 0
M  V30 3401 H 336.515 -0.675012 -4.9845 0
M  V30 3402 H 336.215 -2.3885 -5.36865 0
M  V30 3403 H 337.739 -1.61455 -5.88867 0
M  V30 3404 H 339.153 -3.46316 -4.56879 0
M  V30 3405 H 337.55 -4.20158 -4.28471 0
M  V30 3406 H 338.62 -3.8801 -2.9082 0
M  V30 3407 N 339.963 1.05934 -1.16686 0
M  V30 3408 C 340.926 2.11669 -0.879144 0
M  V30 3409 C 341.926 1.60294 0.127445 0
M  V30 3410 O 343.116 1.7389 -0.103865 0
M  V30 3411 C 340.248 3.39438 -0.315425 0
M  V30 3412 H 341.441 2.38626 -1.81653 0
M  V30 3413 H 338.994 1.22058 -0.976299 0
M  V30 3414 H 339.729 3.18132 0.629468 0
M  V30 3415 H 339.514 3.78034 -1.04079 0
M  V30 3416 H 341.004 4.17391 -0.132189 0
M  V30 3417 N 341.441 0.965919 1.2453 0
M  V30 3418 C 342.852 0.665929 1.7442 0
M  V30 3419 C 343.203 -0.818407 1.78316 0
M  V30 3420 O 342.328 -1.64037 1.41141 0
M  V30 3421 C 342.923 1.20211 3.16757 0
M  V30 3422 C 341.482 0.952059 3.6416 0
M  V30 3423 C 340.629 1.33848 2.42858 0
M  V30 3424 H 343.58 1.14144 1.10258 0
M  V30 3425 H 343.601 0.567544 3.76244 0
M  V30 3426 H 343.113 2.28244 3.13889 0
M  V30 3427 H 341.214 -0.112821 3.72429 0
M  V30 3428 H 341.327 1.59645 4.51719 0
M  V30 3429 H 339.691 0.756864 2.43195 0
M  V30 3430 H 340.474 2.42827 2.42673 0
M  V30 3431 N 342.919 -1.39368 0.735821 0
M  V30 3432 C 344.167 -2.00101 0.283562 0
M  V30 3433 C 344.488 -1.5868 -1.13338 0
M  V30 3434 O 343.758 -0.835423 -1.77193 0
M  V30 3435 H 342.338 -0.740024 0.101851 0
M  V30 3436 H 345 -1.70404 0.945962 0
M  V30 3437 H 344.096 -3.10323 0.332604 0
M  V30 3438 N 344.397 -0.483516 -1.5 0
M  V30 3439 C 345.627 0.0643896 -2.065 0
M  V30 3440 C 346.035 1.32949 -1.34615 0
M  V30 3441 O 345.378 1.79003 -0.412756 0
M  V30 3442 C 345.44 0.405983 -3.572 0
M  V30 3443 C 345.104 -0.758875 -4.50655 0
M  V30 3444 C 346.101 -1.64445 -4.93208 0
M  V30 3445 C 343.786 -0.952725 -4.93182 0
M  V30 3446 C 345.78 -2.70818 -5.77006 0
M  V30 3447 C 343.467 -2.01966 -5.76761 0
M  V30 3448 C 344.465 -2.89574 -6.18576 0
M  V30 3449 O 344.153 -3.94429 -7.00486 0
M  V30 3450 H 343.885 -0.00934786 -0.675935 0
M  V30 3451 H 346.439 -0.674959 -1.93993 0
M  V30 3452 H 344.669 1.19869 -3.67652 0
M  V30 3453 H 346.358 0.890433 -3.96013 0
M  V30 3454 H 347.124 -1.50643 -4.61012 0
M  V30 3455 H 343.003 -0.280247 -4.60147 0
M  V30 3456 H 346.547 -3.3923 -6.09565 0
M  V30 3457 H 342.444 -2.1577 -6.0837 0
M  V30 3458 H 343.212 -3.91568 -7.1876 0
M  V30 3459 N 345.875 1.56104 -0.216619 0
M  V30 3460 C 346.822 2.2007 0.695531 0
M  V30 3461 C 347.792 1.15471 1.19397 0
M  V30 3462 O 348.977 1.43807 1.25396 0
M  V30 3463 C 346.117 2.88073 1.90021 0
M  V30 3464 C 345.23 4.07253 1.44113 0
M  V30 3465 C 344.365 4.63052 2.603 0
M  V30 3466 C 343.404 5.74545 2.11103 0
M  V30 3467 N 342.541 6.24656 3.20545 0
M  V30 3468 H 347.381 2.97655 0.143327 0
M  V30 3469 H 344.918 1.46982 0.0589934 0
M  V30 3470 H 346.876 3.25681 2.60745 0
M  V30 3471 H 345.506 2.13015 2.42538 0
M  V30 3472 H 344.558 3.75164 0.628999 0
M  V30 3473 H 345.87 4.8783 1.04036 0
M  V30 3474 H 345.024 5.03078 3.39113 0
M  V30 3475 H 343.763 3.81628 3.03663 0
M  V30 3476 H 342.768 5.34027 1.3075 0
M  V30 3477 H 343.993 6.57801 1.68746 0
M  V30 3478 H 341.939 5.46148 3.63399 0
M  V30 3479 H 341.856 7.00343 2.84704 0
M  V30 3480 H 343.124 6.69338 3.99508 0
M  V30 3481 N 347.353 -0.0568162 1.57498 0
M  V30 3482 C 348.583 -0.764515 1.91934 0
M  V30 3483 C 348.991 -1.70877 0.81227 0
M  V30 3484 O 348.334 -1.82351 -0.222213 0
M  V30 3485 C 348.396 -1.5994 3.21962 0
M  V30 3486 C 348.06 -0.822925 4.4953 0
M  V30 3487 C 349.057 -0.135464 5.19723 0
M  V30 3488 C 346.742 -0.785666 4.96117 0
M  V30 3489 C 348.736 0.578861 6.34766 0
M  V30 3490 C 346.423 -0.0675784 6.11063 0
M  V30 3491 C 347.421 0.613471 6.80239 0
M  V30 3492 O 347.109 1.31996 7.92989 0
M  V30 3493 H 346.841 -0.221647 0.63863 0
M  V30 3494 H 349.395 -0.0268218 2.05382 0
M  V30 3495 H 347.625 -2.38026 3.04763 0
M  V30 3496 H 349.314 -2.18715 3.41934 0
M  V30 3497 H 350.08 -0.155458 4.84751 0
M  V30 3498 H 345.959 -1.30524 4.42136 0
M  V30 3499 H 349.503 1.111 6.88696 0
M  V30 3500 H 345.4 -0.0455636 6.45484 0
M  V30 3501 H 346.168 1.23077 8.09194 0
M  V30 3502 N 348.832 -1.54138 -0.328536 0
M  V30 3503 C 349.78 -1.83894 -1.42428 0
M  V30 3504 C 350.774 -0.710478 -1.53781 0
M  V30 3505 O 351.98 -0.894062 -1.56226 0
M  V30 3506 H 348.355 -0.582837 -0.475189 0
M  V30 3507 H 350.326 -2.75537 -1.14552 0
M  V30 3508 C 349.075 -2.07866 -2.78724 0
M  V30 3509 H 348.398 -2.94158 -2.7076 0
M  V30 3510 H 349.838 -2.32644 -3.54476 0
M  V30 3511 C 348.297 -0.868689 -3.25508 0
M  V30 3512 O 348.827 -0.0754908 -4.01629 0
M  V30 3513 N 347.033 -0.681711 -2.82491 0
M  V30 3514 H 346.58 -1.32838 -2.20708 0
M  V30 3515 H 346.538 0.126374 -3.14146 0
M  V30 3516 N 350.31 0.590341 -1.46126 0
M  V30 3517 C 351.24 1.71032 -1.58966 0
M  V30 3518 C 352.221 1.64302 -0.440335 0
M  V30 3519 O 353.406 1.82436 -0.665634 0
M  V30 3520 C 350.536 3.09665 -1.57241 0
M  V30 3521 C 349.49 3.31221 -2.71066 0
M  V30 3522 C 348.816 4.70303 -2.54399 0
M  V30 3523 C 350.116 3.19796 -4.1295 0
M  V30 3524 H 351.81 1.60543 -2.52718 0
M  V30 3525 H 349.356 0.770933 -1.21625 0
M  V30 3526 H 351.309 3.87831 -1.64819 0
M  V30 3527 H 350.033 3.21036 -0.600289 0
M  V30 3528 H 348.692 2.55452 -2.62944 0
M  V30 3529 H 348.34 4.78429 -1.55288 0
M  V30 3530 H 348.04 4.85679 -3.30741 0
M  V30 3531 H 349.564 5.50647 -2.63857 0
M  V30 3532 H 350.978 3.87815 -4.22223 0
M  V30 3533 H 349.375 3.46696 -4.89818 0
M  V30 3534 H 350.445 2.16983 -4.33643 0
M  V30 3535 N 351.788 1.33704 0.83433 0
M  V30 3536 C 353.199 1.22813 1.4062 0
M  V30 3537 C 353.55 -0.151107 1.95617 0
M  V30 3538 O 352.675 -1.05092 1.89168 0
M  V30 3539 C 353.27 2.22355 2.55624 0
M  V30 3540 C 351.829 2.1529 3.08751 0
M  V30 3541 C 350.976 2.09589 1.8157 0
M  V30 3542 H 353.927 1.45236 0.639702 0
M  V30 3543 H 353.948 1.83391 3.33389 0
M  V30 3544 H 353.46 3.22728 2.15566 0
M  V30 3545 H 351.561 1.18235 3.53343 0
M  V30 3546 H 351.674 3.06038 3.68616 0
M  V30 3547 H 350.038 1.55134 2.02004 0
M  V30 3548 H 350.821 3.11777 1.43701 0
M  V30 3549 N 353.266 -1.05314 1.17247 0
M  V30 3550 C 354.543 -1.75184 0.87005 0
M  V30 3551 C 354.923 -2.01481 -0.629965 0
M  V30 3552 O 354.271 -1.64988 -1.58086 0
M  V30 3553 C 354.481 -3.04594 1.70363 0
M  V30 3554 C 355.829 -3.78567 1.92281 0
M  V30 3555 O 356.853 -3.14461 1.67311 0
M  V30 3556 O 355.712 -4.93755 2.3424 0
M  V30 3557 H 352.806 -0.761729 0.322021 0
M  V30 3558 H 355.352 -1.11493 1.27935 0
M  V30 3559 H 354.124 -2.81201 2.72106 0
M  V30 3560 H 353.747 -3.76022 1.29202 0
M  V30 3561 N 354.744 -0.972509 -1.24016 0
M  V30 3562 C 355.674 -0.525548 -2.27509 0
M  V30 3563 C 356.655 0.437262 -1.64384 0
M  V30 3564 O 357.84 0.332343 -1.91335 0
M  V30 3565 C 354.97 0.180448 -3.46831 0
M  V30 3566 C 353.924 -0.698859 -4.22256 0
M  V30 3567 C 353.25 0.138903 -5.3452 0
M  V30 3568 C 354.55 -1.98582 -4.83076 0
M  V30 3569 H 356.244 -1.39058 -2.65148 0
M  V30 3570 H 353.79 -0.67009 -1.27459 0
M  V30 3571 H 355.743 0.504387 -4.18371 0
M  V30 3572 H 354.467 1.07987 -3.08231 0
M  V30 3573 H 353.126 -1.00614 -3.52523 0
M  V30 3574 H 352.774 1.03862 -4.9216 0
M  V30 3575 H 352.474 -0.446259 -5.85903 0
M  V30 3576 H 353.998 0.457404 -6.08884 0
M  V30 3577 H 355.412 -1.72715 -5.46665 0
M  V30 3578 H 353.809 -2.5181 -5.44713 0
M  V30 3579 H 354.879 -2.67769 -4.04262 0
M  V30 3580 N 356.222 1.38976 -0.743202 0
M  V30 3581 C 357.17 2.32394 -0.0978389 0
M  V30 3582 C 358.164 1.53486 0.716824 0
M  V30 3583 O 359.37 1.69092 0.617088 0
M  V30 3584 H 355.745 0.75189 -0.0128402 0
M  V30 3585 H 357.716 2.84441 -0.901981 0
M  V30 3586 C 356.465 3.38629 0.789036 0
M  V30 3587 H 355.788 3.99432 0.171559 0
M  V30 3588 H 357.228 4.06426 1.20807 0
M  V30 3589 C 355.687 2.76347 1.92702 0
M  V30 3590 O 356.217 2.64836 3.02034 0
M  V30 3591 N 354.423 2.34311 1.71891 0
M  V30 3592 H 353.97 2.43873 0.829675 0
M  V30 3593 H 353.928 1.9298 2.48205 0
M  V30 3594 N 357.7 0.491464 1.49741 0
M  V30 3595 C 358.663 -0.280906 2.27472 0
M  V30 3596 C 359.663 -0.902454 1.33088 0
M  V30 3597 O 360.853 -0.768465 1.56334 0
M  V30 3598 C 357.985 -1.40209 3.10732 0
M  V30 3599 H 359.178 0.401056 2.97206 0
M  V30 3600 H 356.731 0.246131 1.5435 0
M  V30 3601 H 357.466 -2.11849 2.45541 0
M  V30 3602 H 357.251 -0.961969 3.80117 0
M  V30 3603 H 358.741 -1.9464 3.69466 0
M  V30 3604 N 359.178 -1.55987 0.224894 0
M  V30 3605 C 360.141 -2.19178 -0.670348 0
M  V30 3606 C 361.141 -1.15461 -1.11917 0
M  V30 3607 O 362.331 -1.40675 -1.02743 0
M  V30 3608 C 359.463 -2.81777 -1.9187 0
M  V30 3609 H 360.656 -2.99662 -0.119364 0
M  V30 3610 H 358.209 -1.5628 -0.0247128 0
M  V30 3611 H 358.944 -2.05172 -2.51147 0
M  V30 3612 H 358.729 -3.57732 -1.60531 0
M  V30 3613 H 360.219 -3.30205 -2.55645 0
M  V30 3614 N 360.656 0.0484629 -1.57525 0
M  V30 3615 C 361.905 0.742065 -1.87553 0
M  V30 3616 C 362.218 1.77545 -0.820802 0
M  V30 3617 O 363.424 2.52027 -1.00967 0
M  V30 3618 C 361.88 1.37081 -3.32771 0
M  V30 3619 C 361.488 0.374786 -4.4643 0
M  V30 3620 C 363.232 2.04542 -3.71972 0
M  V30 3621 C 361.139 1.01077 -5.82698 0
M  V30 3622 H 360.069 0.280903 -0.699721 0
M  V30 3623 H 362.72 -0.00411877 -1.835 0
M  V30 3624 H 361.102 2.16605 -3.31509 0
M  V30 3625 H 362.276 -0.392331 -4.59127 0
M  V30 3626 H 360.591 -0.196653 -4.15935 0
M  V30 3627 H 363.188 2.52943 -4.71088 0
M  V30 3628 H 363.531 2.85515 -3.02964 0
M  V30 3629 H 364.064 1.31819 -3.75325 0
M  V30 3630 H 360.803 0.240878 -6.55057 0
M  V30 3631 H 360.323 1.74819 -5.73758 0
M  V30 3632 H 362.002 1.52383 -6.28799 0
M  V30 3633 N 362.134 1.5431 0.320358 0
M  V30 3634 C 363.097 1.83195 1.3774 0
M  V30 3635 C 364.097 0.703906 1.44575 0
M  V30 3636 O 365.287 0.972214 1.44546 0
M  V30 3637 C 362.419 1.99487 2.76438 0
M  V30 3638 H 363.612 2.77642 1.1338 0
M  V30 3639 H 361.165 1.46076 0.556012 0
M  V30 3640 H 361.9 1.07262 3.06048 0
M  V30 3641 H 361.685 2.81575 2.7287 0
M  V30 3642 H 363.175 2.23271 3.52902 0
M  V30 3643 N 363.613 -0.582584 1.46437 0
M  V30 3644 C 364.543 -1.70187 1.59871 0
M  V30 3645 C 365.524 -1.64066 0.449042 0
M  V30 3646 O 366.709 -1.82081 0.6753 0
M  V30 3647 C 363.839 -3.08827 1.58881 0
M  V30 3648 C 362.793 -3.29779 2.72819 0
M  V30 3649 C 362.119 -4.68947 2.5689 0
M  V30 3650 C 363.419 -3.17601 4.1464 0
M  V30 3651 H 365.113 -1.592 2.53566 0
M  V30 3652 H 362.659 -0.764472 1.22032 0
M  V30 3653 H 364.612 -3.86951 1.66873 0
M  V30 3654 H 363.336 -3.20713 0.617306 0
M  V30 3655 H 361.995 -2.54054 2.64296 0
M  V30 3656 H 361.643 -4.77599 1.57823 0
M  V30 3657 H 361.343 -4.83919 3.33312 0
M  V30 3658 H 362.867 -5.4924 2.66773 0
M  V30 3659 H 364.281 -3.8557 4.24274 0
M  V30 3660 H 362.678 -3.44094 4.9165 0
M  V30 3661 H 363.748 -2.14681 4.34788 0
M  V30 3662 N 365.091 -1.34144 -0.827227 0
M  V30 3663 C 366.054 -1.25264 -1.91942 0
M  V30 3664 C 367.054 -0.168866 -1.59911 0
M  V30 3665 O 368.244 -0.421198 -1.69031 0
M  V30 3666 C 365.376 -0.932952 -3.27885 0
M  V30 3667 H 366.569 -2.22357 -2.0124 0
M  V30 3668 H 364.122 -1.1837 -1.0207 0
M  V30 3669 H 364.857 0.0349917 -3.24281 0
M  V30 3670 H 364.642 -1.71682 -3.52516 0
M  V30 3671 H 366.132 -0.895874 -4.07877 0
M  V30 3672 N 366.569 1.04691 -1.17803 0
M  V30 3673 C 367.501 2.12571 -0.857097 0
M  V30 3674 C 368.514 1.62174 0.142647 0
M  V30 3675 O 369.703 1.78301 -0.0843387 0
M  V30 3676 C 366.803 3.37915 -0.258216 0
M  V30 3677 C 365.976 4.1757 -1.30207 0
M  V30 3678 C 365.035 5.2125 -0.720029 0
M  V30 3679 O 364.061 5.51888 -1.39314 0
M  V30 3680 N 365.263 5.78466 0.485507 0
M  V30 3681 H 368.028 2.40698 -1.78562 0
M  V30 3682 H 365.589 1.20831 -1.07757 0
M  V30 3683 H 367.581 4.04442 0.144584 0
M  V30 3684 H 366.151 3.07281 0.574199 0
M  V30 3685 H 365.371 3.46458 -1.88043 0
M  V30 3686 H 366.659 4.67586 -2.00601 0
M  V30 3687 H 366.057 5.55866 1.05022 0
M  V30 3688 H 364.614 6.4649 0.830307 0
M  V30 3689 N 368.047 0.979072 1.23499 0
M  V30 3690 C 368.977 0.537606 2.27227 0
M  V30 3691 C 369.958 -0.428539 1.64613 0
M  V30 3692 O 371.143 -0.322191 1.91509 0
M  V30 3693 C 368.273 -0.162052 3.46922 0
M  V30 3694 C 367.227 0.721242 4.21879 0
M  V30 3695 C 366.553 -0.110555 5.34586 0
M  V30 3696 C 367.853 2.01141 4.82016 0
M  V30 3697 H 369.547 1.40462 2.64406 0
M  V30 3698 H 367.093 0.67684 1.27102 0
M  V30 3699 H 369.046 -0.482192 4.18632 0
M  V30 3700 H 367.77 -1.06351 3.08799 0
M  V30 3701 H 366.429 1.02482 3.51984 0
M  V30 3702 H 366.077 -1.0125 4.92704 0
M  V30 3703 H 365.777 0.477325 5.85658 0
M  V30 3704 H 367.301 -0.425107 6.09118 0
M  V30 3705 H 368.715 1.75612 5.45741 0
M  V30 3706 H 367.112 2.54695 5.43369 0
M  V30 3707 H 368.182 2.69909 4.02836 0
M  V30 3708 N 369.525 -1.3858 0.750561 0
M  V30 3709 C 370.457 -2.29057 0.0810714 0
M  V30 3710 C 371.47 -1.47596 -0.686973 0
M  V30 3711 O 372.659 -1.70495 -0.528563 0
M  V30 3712 C 369.759 -3.26475 -0.909247 0
M  V30 3713 C 368.932 -4.36945 -0.199478 0
M  V30 3714 C 367.991 -5.14572 -1.10011 0
M  V30 3715 O 367.017 -5.66321 -0.57177 0
M  V30 3716 N 368.219 -5.27262 -2.42849 0
M  V30 3717 H 370.984 -2.87153 0.858087 0
M  V30 3718 H 368.545 -1.50328 0.60109 0
M  V30 3719 H 370.537 -3.75285 -1.51471 0
M  V30 3720 H 369.107 -2.69298 -1.58736 0
M  V30 3721 H 368.327 -3.8981 0.586664 0
M  V30 3722 H 369.615 -5.07963 0.291783 0
M  V30 3723 H 369.013 -4.86763 -2.88233 0
M  V30 3724 H 367.57 -5.79456 -2.98453 0
M  V30 3725 N 371.003 -0.499398 -1.49478 0
M  V30 3726 C 371.95 0.279881 -2.29097 0
M  V30 3727 C 372.92 0.961805 -1.3542 0
M  V30 3728 O 374.105 0.968777 -1.64376 0
M  V30 3729 C 371.245 1.33932 -3.18051 0
M  V30 3730 C 370.358 0.669333 -4.26783 0
M  V30 3731 C 369.493 1.70907 -5.02955 0
M  V30 3732 C 368.532 1.02087 -6.03527 0
M  V30 3733 N 367.669 2.00474 -6.7287 0
M  V30 3734 H 372.509 -0.405317 -2.95231 0
M  V30 3735 H 370.046 -0.211726 -1.45568 0
M  V30 3736 H 372.004 1.96553 -3.67998 0
M  V30 3737 H 370.634 1.9933 -2.53904 0
M  V30 3738 H 369.686 -0.0701234 -3.80335 0
M  V30 3739 H 370.998 0.127503 -4.98637 0
M  V30 3740 H 370.152 2.41037 -5.56764 0
M  V30 3741 H 368.891 2.28476 -4.30871 0
M  V30 3742 H 367.896 0.305338 -5.48951 0
M  V30 3743 H 369.121 0.451708 -6.77596 0
M  V30 3744 H 367.067 2.57007 -6.03559 0
M  V30 3745 H 366.984 1.51353 -7.40694 0
M  V30 3746 H 368.252 2.69897 -7.31284 0
M  V30 3747 N 372.481 1.55866 -0.233164 0
M  V30 3748 C 373.411 2.23783 0.666599 0
M  V30 3749 C 374.392 1.21343 1.19205 0
M  V30 3750 O 375.577 1.4996 1.23392 0
M  V30 3751 C 372.707 2.92671 1.86978 0
M  V30 3752 C 371.661 4.01682 1.47768 0
M  V30 3753 C 370.987 4.57926 2.76058 0
M  V30 3754 C 372.287 5.18126 0.658993 0
M  V30 3755 H 373.981 2.99232 0.100306 0
M  V30 3756 H 371.527 1.43924 0.046804 0
M  V30 3757 H 373.48 3.3888 2.50476 0
M  V30 3758 H 372.204 2.14688 2.46123 0
M  V30 3759 H 370.863 3.56222 0.866106 0
M  V30 3760 H 370.511 3.76659 3.33372 0
M  V30 3761 H 370.211 5.31505 2.50552 0
M  V30 3762 H 371.735 5.06859 3.40479 0
M  V30 3763 H 373.149 5.60644 1.19795 0
M  V30 3764 H 371.546 5.98009 0.500552 0
M  V30 3765 H 372.616 4.83763 -0.331856 0
M  V30 3766 N 373.959 -0.0401083 1.57549 0
M  V30 3767 C 375.236 -0.767917 1.79896 0
M  V30 3768 C 375.616 -1.9416 0.82856 0
M  V30 3769 O 374.964 -2.2812 -0.131671 0
M  V30 3770 C 375.174 -1.2113 3.27305 0
M  V30 3771 C 376.522 -1.63175 3.91994 0
M  V30 3772 O 377.546 -1.30616 3.31388 0
M  V30 3773 O 376.405 -2.23565 4.98679 0
M  V30 3774 H 373.499 -0.370441 0.739393 0
M  V30 3775 H 376.045 -0.017737 1.69691 0
M  V30 3776 H 374.817 -0.372937 3.89519 0
M  V30 3777 H 374.44 -2.02183 3.42356 0
M  V30 3778 N 375.437 -1.54477 -0.31217 0
M  V30 3779 C 376.4 -1.83923 -1.36766 0
M  V30 3780 C 377.4 -0.711563 -1.44199 0
M  V30 3781 O 378.59 -0.979866 -1.44029 0
M  V30 3782 C 375.722 -2.0095 -2.75376 0
M  V30 3783 H 376.915 -2.78239 -1.11906 0
M  V30 3784 H 374.468 -1.46369 -0.548257 0
M  V30 3785 H 375.203 -1.08883 -3.05475 0
M  V30 3786 H 374.988 -2.83018 -2.71373 0
M  V30 3787 H 376.478 -2.2514 -3.51713 0
M  V30 3788 N 376.915 0.57481 -1.46744 0
M  V30 3789 C 377.845 1.69337 -1.60771 0
M  V30 3790 C 378.826 1.63825 -0.457736 0
M  V30 3791 O 380.011 1.8172 -0.684947 0
M  V30 3792 C 377.141 3.0798 -1.60517 0
M  V30 3793 C 376.095 3.28327 -2.74564 0
M  V30 3794 C 375.421 4.67578 -2.59373 0
M  V30 3795 C 376.721 3.15398 -4.16319 0
M  V30 3796 H 378.415 1.57853 -2.54407 0
M  V30 3797 H 375.961 0.75799 -1.22436 0
M  V30 3798 H 377.914 3.86061 -1.68923 0
M  V30 3799 H 376.638 3.20381 -0.634305 0
M  V30 3800 H 375.297 2.52649 -2.65639 0
M  V30 3801 H 374.945 4.76755 -1.60353 0
M  V30 3802 H 374.645 4.82144 -3.35873 0
M  V30 3803 H 376.169 5.47817 -2.69682 0
M  V30 3804 H 377.583 3.83315 -4.26313 0
M  V30 3805 H 375.98 3.41482 -4.93468 0
M  V30 3806 H 377.05 2.12372 -4.3592 0
M  V30 3807 N 378.394 1.34581 0.820102 0
M  V30 3808 C 379.342 1.26401 1.95258 0
M  V30 3809 C 380.336 0.161553 1.68628 0
M  V30 3810 O 381.542 0.326703 1.7701 0
M  V30 3811 H 377.917 0.392749 0.64129 0
M  V30 3812 H 379.888 2.22105 1.99279 0
M  V30 3813 C 378.637 1.03919 3.31807 0
M  V30 3814 H 377.96 1.87984 3.52848 0
M  V30 3815 H 379.4 1.02232 4.11491 0
M  V30 3816 C 377.859 -0.257433 3.35915 0
M  V30 3817 O 378.389 -1.25784 3.81499 0
M  V30 3818 N 376.595 -0.291524 2.89134 0
M  V30 3819 H 376.142 0.523161 2.52232 0
M  V30 3820 H 376.1 -1.15883 2.92264 0
M  V30 3821 N 379.872 -1.04064 1.18357 0
M  V30 3822 C 380.835 -2.10243 0.912707 0
M  V30 3823 C 381.835 -1.60477 -0.101928 0
M  V30 3824 O 383.025 -1.73703 0.131517 0
M  V30 3825 C 380.157 -3.38893 0.369387 0
M  V30 3826 H 381.35 -2.35706 1.85426 0
M  V30 3827 H 378.903 -1.20489 0.995594 0
M  V30 3828 H 379.638 -3.19094 -0.578776 0
M  V30 3829 H 379.423 -3.76331 1.1008 0
M  V30 3830 H 380.913 -4.17128 0.198575 0
M  V30 3831 N 381.35 -0.985608 -1.22978 0
M  V30 3832 C 382.766 -0.695104 -1.43668 0
M  V30 3833 C 382.966 0.736866 -1.87543 0
M  V30 3834 O 382.022 1.50868 -2.02473 0
M  V30 3835 C 383.335 -1.69447 -2.48412 0
M  V30 3836 C 384.883 -1.70909 -2.62219 0
M  V30 3837 C 385.358 -2.6969 -3.70178 0
M  V30 3838 N 386.849 -2.6824 -3.77626 0
M  V30 3839 C 387.584 -3.41339 -4.60733 0
M  V30 3840 N 387.08 -4.24015 -5.4789 0
M  V30 3841 N 388.873 -3.30079 -4.54977 0
M  V30 3842 H 381.024 -1.91054 -0.928016 0
M  V30 3843 H 383.287 -0.823553 -0.469536 0
M  V30 3844 H 382.993 -2.7188 -2.23102 0
M  V30 3845 H 382.867 -1.48147 -3.46889 0
M  V30 3846 H 385.254 -0.691785 -2.86877 0
M  V30 3847 H 385.335 -1.96276 -1.6404 0
M  V30 3848 H 384.979 -3.71566 -3.46268 0
M  V30 3849 H 384.909 -2.41595 -4.67909 0
M  V30 3850 H 387.4 -2.08243 -3.15346 0
M  V30 3851 H 387.713 -4.76636 -6.08308 0
M  V30 3852 H 386.058 -4.28104 -5.47496 0
M  V30 3853 H 389.249 -2.64937 -3.85909 0
M  V30 3854 H 389.422 -3.87308 -5.19516 0
M  V30 3855 N 382.828 1.3818 -0.7579 0
M  V30 3856 C 384.244 1.5353 -0.435972 0
M  V30 3857 C 384.444 1.71961 1.05032 0
M  V30 3858 O 383.5 1.73307 1.83633 0
M  V30 3859 C 384.813 2.73989 -1.23898 0
M  V30 3860 C 386.361 2.87841 -1.22949 0
M  V30 3861 C 386.836 4.11266 -2.01554 0
M  V30 3862 N 388.327 4.18352 -1.98837 0
M  V30 3863 C 389.062 5.12856 -2.5645 0
M  V30 3864 N 388.558 6.13005 -3.22794 0
M  V30 3865 N 390.351 5.05238 -2.46356 0
M  V30 3866 H 382.502 1.24467 -1.7211 0
M  V30 3867 H 384.765 0.604982 -0.729864 0
M  V30 3868 H 384.471 2.66789 -2.29165 0
M  V30 3869 H 384.345 3.67294 -0.858764 0
M  V30 3870 H 386.732 2.9452 -0.184854 0
M  V30 3871 H 386.813 1.95534 -1.64924 0
M  V30 3872 H 386.457 4.05349 -3.06031 0
M  V30 3873 H 386.387 5.02661 -1.5697 0
M  V30 3874 H 388.878 3.46628 -1.50524 0
M  V30 3875 H 389.191 6.81619 -3.64165 0
M  V30 3876 H 387.536 6.13325 -3.2689 0
M  V30 3877 H 390.727 4.25938 -1.9415 0
M  V30 3878 H 390.9 5.78707 -2.91552 0
M  V30 3879 N 384.306 0.507319 1.49211 0
M  V30 3880 C 385.269 -0.256763 2.27757 0
M  V30 3881 C 386.269 -0.888287 1.34038 0
M  V30 3882 O 387.459 -0.751841 1.5714 0
M  V30 3883 C 384.591 -1.36905 3.12202 0
M  V30 3884 H 385.784 0.432557 2.96764 0
M  V30 3885 H 383.337 0.262488 1.5408 0
M  V30 3886 H 384.072 -2.09233 2.47775 0
M  V30 3887 H 383.857 -0.921599 3.81115 0
M  V30 3888 H 385.347 -1.9071 3.7151 0
M  V30 3889 N 385.784 -1.5574 0.241426 0
M  V30 3890 C 386.747 -2.19877 -0.647063 0
M  V30 3891 C 387.747 -1.16642 -1.10686 0
M  V30 3892 O 388.937 -1.41757 -1.01245 0
M  V30 3893 C 386.069 -2.83797 -1.88871 0
M  V30 3894 H 387.262 -2.99772 -0.087574 0
M  V30 3895 H 384.815 -1.56298 -0.00813574 0
M  V30 3896 H 385.55 -2.07824 -2.48957 0
M  V30 3897 H 385.335 -3.59414 -1.56728 0
M  V30 3898 H 386.825 -3.32898 -2.52129 0
M  V30 3899 N 387.262 0.0317525 -1.57568 0
M  V30 3900 C 388.511 0.722131 -1.8833 0
M  V30 3901 C 388.824 1.76664 -0.839587 0
M  V30 3902 O 390.03 2.50942 -1.03635 0
M  V30 3903 C 388.486 1.33544 -3.34207 0
M  V30 3904 C 388.094 0.327415 -4.46802 0
M  V30 3905 C 389.838 2.00585 -3.7412 0
M  V30 3906 C 387.745 0.948915 -5.83738 0
M  V30 3907 H 386.675 0.273466 -0.702661 0
M  V30 3908 H 389.326 -0.0235811 -1.83485 0
M  V30 3909 H 387.708 2.13077 -3.33788 0
M  V30 3910 H 388.882 -0.441006 -4.58685 0
M  V30 3911 H 387.197 -0.240758 -4.15703 0
M  V30 3912 H 389.794 2.47932 -4.73744 0
M  V30 3913 H 390.137 2.82285 -3.05975 0
M  V30 3914 H 390.67 1.27831 -3.76702 0
M  V30 3915 H 387.409 0.171387 -6.55276 0
M  V30 3916 H 386.929 1.68724 -5.7558 0
M  V30 3917 H 388.608 1.45705 -6.3038 0
M  V30 3918 N 388.74 1.54641 0.303973 0
M  V30 3919 C 389.703 1.84646 1.35789 0
M  V30 3920 C 390.703 0.7192 1.4382 0
M  V30 3921 O 391.893 0.987491 1.43507 0
M  V30 3922 C 389.025 2.02407 2.74307 0
M  V30 3923 H 390.218 2.78829 1.10429 0
M  V30 3924 H 387.771 1.46658 0.540487 0
M  V30 3925 H 388.506 1.10502 3.04893 0
M  V30 3926 H 388.291 2.84453 2.69868 0
M  V30 3927 H 389.781 2.27002 3.50514 0
M  V30 3928 N 390.218 -0.567019 1.47046 0
M  V30 3929 C 391.181 -1.65696 1.58359 0
M  V30 3930 C 392.181 -1.54097 0.459441 0
M  V30 3931 O 393.371 -1.58432 0.724225 0
M  V30 3932 C 390.503 -3.05197 1.51879 0
M  V30 3933 H 391.696 -1.57019 2.5551 0
M  V30 3934 H 389.249 -0.786148 1.3509 0
M  V30 3935 H 389.984 -3.19417 0.560673 0
M  V30 3936 H 389.769 -3.15025 2.33455 0
M  V30 3937 H 391.259 -3.84511 1.62913 0
M  V30 3938 N 391.696 -1.35014 -0.812953 0
M  V30 3939 C 392.628 -1.23262 -1.93233 0
M  V30 3940 C 393.641 -0.157371 -1.62038 0
M  V30 3941 O 394.83 -0.410096 -1.73725 0
M  V30 3942 C 391.93 -0.87392 -3.27438 0
M  V30 3943 C 391.103 -2.04622 -3.86586 0
M  V30 3944 C 390.162 -1.66432 -4.99186 0
M  V30 3945 O 389.188 -2.38222 -5.16951 0
M  V30 3946 N 390.39 -0.584248 -5.77552 0
M  V30 3947 H 393.155 -2.19699 -2.03844 0
M  V30 3948 H 390.716 -1.281 -0.99005 0
M  V30 3949 H 392.708 -0.600039 -4.00227 0
M  V30 3950 H 391.278 0.00057392 -3.126 0
M  V30 3951 H 390.498 -2.48427 -3.06068 0
M  V30 3952 H 391.786 -2.82999 -4.22835 0
M  V30 3953 H 391.184 0.0123526 -5.65699 0
M  V30 3954 H 389.741 -0.37013 -6.50748 0
M  V30 3955 N 393.175 1.03435 -1.18907 0
M  V30 3956 C 394.405 1.8012 -1.01195 0
M  V30 3957 C 394.813 1.8395 0.442613 0
M  V30 3958 O 394.156 1.27836 1.31923 0
M  V30 3959 C 394.218 3.26792 -1.49823 0
M  V30 3960 C 393.882 3.46609 -2.97844 0
M  V30 3961 C 394.879 3.37278 -3.95651 0
M  V30 3962 C 392.564 3.73001 -3.36416 0
M  V30 3963 C 394.558 3.54054 -5.30023 0
M  V30 3964 C 392.245 3.89423 -4.70949 0
M  V30 3965 C 393.243 3.79951 -5.67562 0
M  V30 3966 O 392.931 3.95895 -6.99659 0
M  V30 3967 H 392.663 0.573865 -0.357289 0
M  V30 3968 H 395.217 1.31207 -1.58031 0
M  V30 3969 H 393.447 3.76703 -0.873578 0
M  V30 3970 H 395.136 3.85055 -1.28404 0
M  V30 3971 H 395.902 3.16846 -3.67197 0
M  V30 3972 H 391.781 3.79469 -2.61772 0
M  V30 3973 H 395.325 3.46577 -6.05417 0
M  V30 3974 H 391.222 4.09351 -4.99101 0
M  V30 3975 H 391.99 4.13019 -7.06653 0
M  V30 3976 N 394.653 0.992116 1.22453 0
M  V30 3977 C 395.603 0.512969 2.22155 0
M  V30 3978 C 396.587 -0.418416 1.55364 0
M  V30 3979 O 397.779 -0.245363 1.75291 0
M  V30 3980 C 394.908 -0.171822 3.4287 0
M  V30 3981 C 393.994 0.779822 4.16869 0
M  V30 3982 N 394.385 1.92734 4.6764 0
M  V30 3983 C 392.683 0.59554 4.42006 0
M  V30 3984 C 393.384 2.52458 5.24061 0
M  V30 3985 N 392.36 1.80735 5.12675 0
M  V30 3986 H 396.162 1.38817 2.5905 0
M  V30 3987 H 393.676 0.854277 1.38115 0
M  V30 3988 H 395.673 -0.532469 4.13486 0
M  V30 3989 H 394.333 -1.04317 3.07487 0
M  V30 3990 H 395.344 2.30816 4.63621 0
M  V30 3991 H 392.021 -0.229805 4.16867 0
M  V30 3992 H 393.411 3.49433 5.73887 0
M  V30 3993 N 396.131 -1.37776 0.765217 0
M  V30 3994 C 397.063 -2.28958 0.105361 0
M  V30 3995 C 398.076 -1.48316 -0.67128 0
M  V30 3996 O 399.265 -1.71046 -0.51045 0
M  V30 3997 C 396.365 -3.27421 -0.874569 0
M  V30 3998 C 395.538 -4.37132 -0.153123 0
M  V30 3999 C 394.597 -5.1571 -1.04547 0
M  V30 4000 O 393.623 -5.66896 -0.511672 0
M  V30 4001 N 394.825 -5.29808 -2.37243 0
M  V30 4002 H 397.59 -2.86227 0.888495 0
M  V30 4003 H 395.151 -1.49682 0.617 0
M  V30 4004 H 397.143 -3.7687 -1.47483 0
M  V30 4005 H 395.713 -2.70967 -1.55871 0
M  V30 4006 H 394.933 -3.89166 0.627975 0
M  V30 4007 H 396.221 -5.07625 0.345643 0
M  V30 4008 H 395.619 -4.89793 -2.83054 0
M  V30 4009 H 394.176 -5.82589 -2.9229 0
M  V30 4010 N 397.609 -0.515225 -1.4894 0
M  V30 4011 C 398.572 0.244681 -2.2789 0
M  V30 4012 C 399.572 0.881166 -1.34507 0
M  V30 4013 O 400.762 0.743497 -1.57537 0
M  V30 4014 C 397.894 1.35247 -3.12923 0
M  V30 4015 H 399.087 -0.448289 -2.96531 0
M  V30 4016 H 396.64 -0.270656 -1.53939 0
M  V30 4017 H 397.375 2.07916 -2.48881 0
M  V30 4018 H 397.16 0.901374 -3.81599 0
M  V30 4019 H 398.65 1.88737 -3.72516 0
M  V30 4020 N 399.087 1.5561 -0.249682 0
M  V30 4021 C 400.02 2.17537 0.689408 0
M  V30 4022 C 400.998 1.12829 1.17083 0
M  V30 4023 O 402.182 1.41229 1.24846 0
M  V30 4024 C 399.309 2.77828 1.93725 0
M  V30 4025 C 398.355 3.95615 1.59346 0
M  V30 4026 S 399.188 5.30988 0.69367 0
M  V30 4027 C 400.344 5.94734 1.95046 0
M  V30 4028 H 400.577 2.96852 0.163142 0
M  V30 4029 H 398.11 1.54362 -0.0341166 0
M  V30 4030 H 400.068 3.13199 2.65361 0
M  V30 4031 H 398.729 1.98454 2.43465 0
M  V30 4032 H 397.922 4.364 2.52132 0
M  V30 4033 H 397.524 3.61535 0.957512 0
M  V30 4034 H 399.816 6.12419 2.89739 0
M  V30 4035 H 400.759 6.90109 1.58604 0
M  V30 4036 H 401.167 5.23832 2.10381 0
M  V30 4037 N 400.565 -0.0233959 1.57583 0
M  V30 4038 C 401.528 -1.00693 2.05897 0
M  V30 4039 C 402.528 -1.28693 0.964092 0
M  V30 4040 O 403.718 -1.23602 1.22753 0
M  V30 4041 C 400.85 -2.33825 2.4807 0
M  V30 4042 H 402.043 -0.589476 2.9405 0
M  V30 4043 H 399.596 -0.270354 1.53944 0
M  V30 4044 H 400.331 -2.80307 1.6309 0
M  V30 4045 H 400.116 -2.1483 3.2801 0
M  V30 4046 H 401.606 -3.04426 2.85857 0
M  V30 4047 N 402.043 -1.548 -0.295768 0
M  V30 4048 C 403.32 -1.65014 -1.05023 0
M  V30 4049 C 403.7 -0.501805 -2.05049 0
M  V30 4050 O 403.048 0.500869 -2.22943 0
M  V30 4051 C 403.258 -3.03252 -1.72741 0
M  V30 4052 C 404.606 -3.60242 -2.24746 0
M  V30 4053 O 405.63 -3.05737 -1.82765 0
M  V30 4054 O 404.489 -4.55687 -3.01681 0
M  V30 4055 H 401.583 -0.669314 -0.485744 0
M  V30 4056 H 404.129 -1.67144 -0.293438 0
M  V30 4057 H 402.901 -3.7827 -1.00138 0
M  V30 4058 H 402.524 -3.04922 -2.55163 0
M  V30 4059 N 403.521 0.559213 -1.47345 0
M  V30 4060 C 404.451 1.67622 -1.62558 0
M  V30 4061 C 405.432 1.63331 -0.475087 0
M  V30 4062 O 406.617 1.80983 -0.704182 0
M  V30 4063 C 403.747 3.0626 -1.63774 0
M  V30 4064 C 402.701 3.25397 -2.7803 0
M  V30 4065 C 402.027 4.64801 -2.64318 0
M  V30 4066 C 403.327 3.10965 -4.19641 0
M  V30 4067 H 405.021 1.55146 -2.56067 0
M  V30 4068 H 402.567 0.744961 -1.23233 0
M  V30 4069 H 404.52 3.84247 -1.73008 0
M  V30 4070 H 403.244 3.1969 -0.66825 0
M  V30 4071 H 401.903 2.49817 -2.68304 0
M  V30 4072 H 401.551 4.75028 -1.65401 0
M  V30 4073 H 401.251 4.78555 -3.40968 0
M  V30 4074 H 402.775 5.44926 -2.75478 0
M  V30 4075 H 404.189 3.78772 -4.30354 0
M  V30 4076 H 402.586 3.36229 -4.97062 0
M  V30 4077 H 403.656 2.07736 -4.38148 0
M  V30 4078 N 404.999 1.35443 0.805782 0
M  V30 4079 C 406.41 1.25768 1.37983 0
M  V30 4080 C 406.761 -0.10958 1.95894 0
M  V30 4081 O 405.886 -1.01056 1.91355 0
M  V30 4082 C 406.481 2.27727 2.5085 0
M  V30 4083 C 405.04 2.2179 3.04115 0
M  V30 4084 C 404.187 2.13393 1.77084 0
M  V30 4085 H 407.138 1.4656 0.608752 0
M  V30 4086 H 407.159 1.90422 3.29424 0
M  V30 4087 H 406.671 3.27227 2.08671 0
M  V30 4088 H 404.772 1.25703 3.50756 0
M  V30 4089 H 404.885 3.13788 3.62042 0
M  V30 4090 H 403.249 1.59384 1.98668 0
M  V30 4091 H 404.032 3.14755 1.37056 0
M  V30 4092 N 406.477 -1.02803 1.19454 0
M  V30 4093 C 407.724 -1.76217 0.997693 0
M  V30 4094 C 408.052 -1.887 -0.47144 0
M  V30 4095 O 407.307 -1.4011 -1.3663 0
M  V30 4096 C 407.606 -3.18941 1.6128 0
M  V30 4097 C 407.272 -3.26463 3.11019 0
M  V30 4098 C 405.934 -3.28223 3.51885 0
M  V30 4099 C 408.286 -3.25542 4.07028 0
M  V30 4100 C 405.614 -3.26719 4.8731 0
M  V30 4101 C 407.966 -3.25579 5.42385 0
M  V30 4102 C 406.63 -3.25637 5.82681 0
M  V30 4103 H 405.9 -0.644823 0.365082 0
M  V30 4104 H 408.547 -1.20655 1.4871 0
M  V30 4105 H 406.852 -3.77587 1.04572 0
M  V30 4106 H 408.549 -3.74415 1.43577 0
M  V30 4107 H 405.139 -3.25822 2.78457 0
M  V30 4108 H 409.323 -3.23362 3.76498 0
M  V30 4109 H 404.579 -3.25089 5.1781 0
M  V30 4110 H 408.753 -3.23817 6.16535 0
M  V30 4111 H 406.38 -3.24226 6.87591 0
M  V30 4112 N 407.956 -0.998596 -1.21925 0
M  V30 4113 C 408.888 -0.511879 -2.23411 0
M  V30 4114 C 409.901 0.396094 -1.57908 0
M  V30 4115 O 411.09 0.197316 -1.77406 0
M  V30 4116 C 408.19 0.276802 -3.37768 0
M  V30 4117 C 407.363 -0.628687 -4.32858 0
M  V30 4118 C 406.422 0.109272 -5.26087 0
M  V30 4119 O 405.448 -0.507237 -5.66935 0
M  V30 4120 N 406.65 1.38983 -5.63617 0
M  V30 4121 H 409.415 -1.38457 -2.658 0
M  V30 4122 H 406.976 -0.873981 -1.36283 0
M  V30 4123 H 408.968 0.77928 -3.97126 0
M  V30 4124 H 407.538 1.05063 -2.94415 0
M  V30 4125 H 406.758 -1.31175 -3.71735 0
M  V30 4126 H 408.046 -1.24514 -4.93329 0
M  V30 4127 H 407.444 1.91194 -5.32411 0
M  V30 4128 H 406.001 1.83739 -6.25367 0
M  V30 4129 N 409.434 1.37368 -0.772513 0
M  V30 4130 C 410.845 1.8231 -0.402493 0
M  V30 4131 C 411.196 1.6436 1.07146 0
M  V30 4132 O 410.321 1.15514 1.82991 0
M  V30 4133 C 410.916 3.30979 -0.723776 0
M  V30 4134 C 409.475 3.74195 -0.406802 0
M  V30 4135 C 408.622 2.59885 -0.967218 0
M  V30 4136 H 411.573 1.25829 -0.967099 0
M  V30 4137 H 411.594 3.80499 -0.00870832 0
M  V30 4138 H 411.106 3.44011 -1.7966 0
M  V30 4139 H 409.207 3.66732 0.658673 0
M  V30 4140 H 409.32 4.7027 -0.915588 0
M  V30 4141 H 407.684 2.51674 -0.391416 0
M  V30 4142 H 408.467 2.7571 -2.04546 0
M  V30 4143 N 410.912 0.523116 1.48665 0
M  V30 4144 C 411.842 -0.23231 2.32342 0
M  V30 4145 C 412.823 -0.941637 1.41659 0
M  V30 4146 O 414.008 -0.928751 1.70552 0
M  V30 4147 C 411.138 -1.28387 3.22698 0
M  V30 4148 C 410.092 -0.693098 4.22351 0
M  V30 4149 C 409.418 -1.8468 5.01794 0
M  V30 4150 C 410.718 0.33063 5.21252 0
M  V30 4151 H 412.412 0.466192 2.95748 0
M  V30 4152 H 409.958 0.225643 1.42221 0
M  V30 4153 H 411.911 -1.82024 3.80059 0
M  V30 4154 H 410.635 -2.01186 2.57278 0
M  V30 4155 H 409.294 -0.178299 3.66166 0
M  V30 4156 H 408.942 -2.56301 4.32804 0
M  V30 4157 H 408.642 -1.45747 5.69238 0
M  V30 4158 H 410.166 -2.38709 5.62006 0
M  V30 4159 H 411.58 -0.118407 5.73178 0
M  V30 4160 H 409.977 0.636974 5.9671 0
M  V30 4161 H 411.047 1.23883 4.68808 0
M  V30 4162 N 412.39 -1.55475 0.257931 0
M  V30 4163 C 413.615 -2.04064 -0.370488 0
M  V30 4164 C 414.04 -1.13565 -1.49948 0
M  V30 4165 O 413.398 -0.130781 -1.80828 0
M  V30 4166 C 413.446 -3.50554 -0.845237 0
M  V30 4167 O 412.55 -3.63173 -1.95394 0
M  V30 4168 H 411.891 -0.659257 -0.0792243 0
M  V30 4169 H 414.421 -2.00903 0.387212 0
M  V30 4170 H 414.431 -3.91588 -1.14555 0
M  V30 4171 H 413.106 -4.15896 -0.0191259 0
M  V30 4172 H 411.683 -3.34039 -1.65748 0
M  V30 4173 N 413.868 0.0150385 -1.57593 0
M  V30 4174 C 414.798 1.01047 -2.10503 0
M  V30 4175 C 415.779 1.36816 -1.01071 0
M  V30 4176 O 416.964 1.45455 -1.28672 0
M  V30 4177 C 414.094 2.30708 -2.59598 0
M  V30 4178 C 413.048 2.09142 -3.73421 0
M  V30 4179 C 412.374 3.44685 -4.08774 0
M  V30 4180 C 413.674 1.46619 -5.01298 0
M  V30 4181 H 415.368 0.569978 -2.93925 0
M  V30 4182 H 412.914 0.272724 -1.41394 0
M  V30 4183 H 414.867 3.00687 -2.95238 0
M  V30 4184 H 413.591 2.76843 -1.73279 0
M  V30 4185 H 412.25 1.41592 -3.38153 0
M  V30 4186 H 411.898 3.88495 -3.195 0
M  V30 4187 H 411.598 3.31077 -4.8545 0
M  V30 4188 H 413.122 4.16004 -4.4696 0
M  V30 4189 H 414.536 2.06535 -5.34805 0
M  V30 4190 H 412.933 1.43544 -5.82679 0
M  V30 4191 H 414.003 0.433611 -4.82957 0
M  V30 4192 N 415.346 1.54954 0.287554 0
M  V30 4193 C 416.757 1.65732 0.859634 0
M  V30 4194 C 417.108 0.574767 1.87592 0
M  V30 4195 O 416.233 -0.286299 2.14498 0
M  V30 4196 C 416.828 3.00438 1.56597 0
M  V30 4197 C 415.387 3.13292 2.08627 0
M  V30 4198 C 414.534 2.61473 0.923416 0
M  V30 4199 H 417.485 1.5857 0.0642338 0
M  V30 4200 H 417.506 2.92613 2.43224 0
M  V30 4201 H 417.018 3.79207 0.826053 0
M  V30 4202 H 415.119 2.39268 2.85625 0
M  V30 4203 H 415.232 4.19647 2.31157 0
M  V30 4204 H 413.596 2.18264 1.31275 0
M  V30 4205 H 414.379 3.42733 0.197241 0
M  V30 4206 N 416.824 -0.551391 1.4764 0
M  V30 4207 C 418.049 -1.33837 1.58437 0
M  V30 4208 C 418.474 -1.866 0.237063 0
M  V30 4209 O 417.832 -1.6328 -0.787994 0
M  V30 4210 C 417.88 -2.48014 2.61766 0
M  V30 4211 O 416.984 -3.50419 2.1744 0
M  V30 4212 H 416.325 -0.397299 0.532024 0
M  V30 4213 H 418.855 -0.665759 1.93465 0
M  V30 4214 H 418.865 -2.94503 2.82369 0
M  V30 4215 H 417.54 -2.08969 3.5959 0
M  V30 4216 H 416.117 -3.10196 2.06961 0
M  V30 4217 N 418.302 -1.35869 -0.798587 0
M  V30 4218 C 419.548 -1.30788 -1.55775 0
M  V30 4219 C 419.903 0.114558 -1.92059 0
M  V30 4220 O 419.196 1.06691 -1.59147 0
M  V30 4221 C 419.39 -2.1556 -2.85077 0
M  V30 4222 C 419.219 -3.65904 -2.61428 0
M  V30 4223 C 417.989 -4.35112 -2.56915 0
M  V30 4224 C 420.187 -4.59375 -2.31255 0
M  V30 4225 N 418.169 -5.71155 -2.25068 0
M  V30 4226 C 419.54 -5.83598 -2.09316 0
M  V30 4227 C 421.595 -4.48035 -2.17185 0
M  V30 4228 C 420.298 -6.97755 -1.74731 0
M  V30 4229 C 422.324 -5.62049 -1.83998 0
M  V30 4230 C 421.686 -6.85305 -1.629 0
M  V30 4231 H 417.785 -0.533855 -0.571422 0
M  V30 4232 H 420.369 -1.7083 -0.934079 0
M  V30 4233 H 418.54 -1.77776 -3.45326 0
M  V30 4234 H 420.272 -2.01938 -3.50718 0
M  V30 4235 H 417.027 -3.87812 -2.71843 0
M  V30 4236 H 417.451 -6.42978 -2.11916 0
M  V30 4237 H 422.093 -3.53338 -2.3219 0
M  V30 4238 H 419.811 -7.92411 -1.58464 0
M  V30 4239 H 423.397 -5.55232 -1.73808 0
M  V30 4240 H 422.277 -7.72034 -1.37596 0
M  V30 4241 N 419.78 1.02168 -1.19998 0
M  V30 4242 C 420.69 2.14069 -0.959774 0
M  V30 4243 C 421.706 1.73804 0.082655 0
M  V30 4244 O 422.882 2.01133 -0.103633 0
M  V30 4245 C 419.947 3.42936 -0.509459 0
M  V30 4246 C 419.008 3.97474 -1.62213 0
M  V30 4247 C 418.241 5.2019 -1.19321 0
M  V30 4248 O 418.464 5.70369 -0.0597726 0
M  V30 4249 O 417.398 5.67749 -1.99863 0
M  V30 4250 H 421.224 2.37199 -1.89658 0
M  V30 4251 H 418.809 1.12469 -0.983411 0
M  V30 4252 H 420.691 4.20551 -0.267322 0
M  V30 4253 H 419.366 3.21234 0.398821 0
M  V30 4254 H 418.273 3.21161 -1.9185 0
M  V30 4255 H 419.606 4.23555 -2.50723 0
M  V30 4256 N 421.258 1.00505 1.21394 0
M  V30 4257 C 422.208 0.536503 2.21598 0
M  V30 4258 C 423.192 -0.401914 1.55799 0
M  V30 4259 O 424.384 -0.226757 1.75541 0
M  V30 4260 C 421.513 -0.135446 3.43033 0
M  V30 4261 C 420.599 0.823992 4.16018 0
M  V30 4262 N 420.99 1.97683 4.6557 0
M  V30 4263 C 419.288 0.642387 4.4135 0
M  V30 4264 C 419.989 2.58003 5.21354 0
M  V30 4265 N 418.965 1.86162 5.1073 0
M  V30 4266 H 422.767 1.41557 2.57563 0
M  V30 4267 H 420.281 0.868878 1.37202 0
M  V30 4268 H 422.278 -0.488584 4.14027 0
M  V30 4269 H 420.938 -1.01049 3.08576 0
M  V30 4270 H 421.949 2.3572 4.61147 0
M  V30 4271 H 418.626 -0.185578 4.17087 0
M  V30 4272 H 420.016 3.555 5.70149 0
M  V30 4273 N 422.737 -1.36956 0.779787 0
M  V30 4274 C 423.986 -1.98738 0.344405 0
M  V30 4275 C 424.299 -1.62596 -1.08728 0
M  V30 4276 O 425.505 -2.1754 -1.62445 0
M  V30 4277 C 423.961 -3.5544 0.564829 0
M  V30 4278 C 423.569 -4.00514 2.0073 0
M  V30 4279 C 425.313 -4.24059 0.193471 0
M  V30 4280 C 423.22 -5.49957 2.17489 0
M  V30 4281 H 422.15 -0.743561 0.12503 0
M  V30 4282 H 424.801 -1.56381 0.960057 0
M  V30 4283 H 423.183 -3.95817 -0.120397 0
M  V30 4284 H 424.357 -3.71362 2.72814 0
M  V30 4285 H 422.672 -3.44703 2.336 0
M  V30 4286 H 425.269 -5.33874 0.297097 0
M  V30 4287 H 425.612 -4.07378 -0.857263 0
M  V30 4288 H 426.145 -3.89012 0.831556 0
M  V30 4289 H 422.884 -5.71574 3.2091 0
M  V30 4290 H 422.404 -5.80767 1.49899 0
M  V30 4291 H 424.083 -6.16043 1.97738 0
M  V30 4292 N 424.215 -0.530993 -1.48385 0
M  V30 4293 C 425.165 0.251092 -2.26613 0
M  V30 4294 C 426.149 0.908977 -1.32765 0
M  V30 4295 O 427.341 0.811616 -1.57295 0
M  V30 4296 C 424.47 1.29677 -3.17866 0
M  V30 4297 C 423.556 0.643627 -4.19188 0
M  V30 4298 N 423.947 -0.271223 -5.05072 0
M  V30 4299 C 422.245 0.900711 -4.3681 0
M  V30 4300 C 422.946 -0.648109 -5.78078 0
M  V30 4301 N 421.922 -0.00895987 -5.43599 0
M  V30 4302 H 425.724 -0.452702 -2.90393 0
M  V30 4303 H 423.238 -0.349091 -1.58604 0
M  V30 4304 H 425.235 1.87079 -3.72568 0
M  V30 4305 H 423.895 2.00193 -2.55642 0
M  V30 4306 H 424.906 -0.643883 -5.13882 0
M  V30 4307 H 421.583 1.59636 -3.85775 0
M  V30 4308 H 422.973 -1.39833 -6.57188 0
M  V30 4309 N 425.693 1.55336 -0.266172 0
M  V30 4310 C 426.656 2.20878 0.612001 0
M  V30 4311 C 427.656 1.18388 1.08816 0
M  V30 4312 O 428.846 1.4335 0.989774 0
M  V30 4313 C 425.978 2.86765 1.84332 0
M  V30 4314 H 427.171 2.99873 0.0398718 0
M  V30 4315 H 424.724 1.56291 -0.0167309 0
M  V30 4316 H 425.459 2.11759 2.45619 0
M  V30 4317 H 425.244 3.61862 1.5099 0
M  V30 4318 H 426.734 3.36867 2.46801 0
M  V30 4319 N 427.171 -0.0066808 1.57599 0
M  V30 4320 C 428.417 -0.68835 1.91398 0
M  V30 4321 C 428.772 -1.7175 0.86716 0
M  V30 4322 O 428.065 -1.91215 -0.121475 0
M  V30 4323 C 428.259 -1.37939 3.29708 0
M  V30 4324 C 428.088 -0.418689 4.47747 0
M  V30 4325 C 426.858 -0.031526 5.0529 0
M  V30 4326 C 429.056 0.312301 5.13351 0
M  V30 4327 N 427.038 0.928088 6.06844 0
M  V30 4328 C 428.409 1.12682 6.09674 0
M  V30 4329 C 430.464 0.376853 4.96472 0
M  V30 4330 C 429.167 2 6.90936 0
M  V30 4331 C 431.193 1.23723 5.78314 0
M  V30 4332 C 430.555 2.03962 6.74225 0
M  V30 4333 H 426.654 -0.225292 0.748844 0
M  V30 4334 H 429.238 0.0520973 1.9463 0
M  V30 4335 H 427.409 -2.09017 3.27363 0
M  V30 4336 H 429.141 -2.01522 3.50957 0
M  V30 4337 H 425.896 -0.398485 4.71921 0
M  V30 4338 H 426.32 1.40307 6.62301 0
M  V30 4339 H 430.962 -0.22921 4.22178 0
M  V30 4340 H 428.68 2.61676 7.64559 0
M  V30 4341 H 432.266 1.291 5.67296 0
M  V30 4342 H 431.146 2.69461 7.36451 0
M  V30 4343 N 428.649 -1.55105 -0.279332 0
M  V30 4344 C 429.599 -1.83937 -1.34727 0
M  V30 4345 C 430.583 -0.69785 -1.44979 0
M  V30 4346 O 431.775 -0.95904 -1.48766 0
M  V30 4347 C 428.904 -2.1092 -2.70864 0
M  V30 4348 C 427.99 -3.31314 -2.64748 0
M  V30 4349 N 428.381 -4.51371 -2.2825 0
M  V30 4350 C 426.679 -3.33777 -2.95819 0
M  V30 4351 C 427.38 -5.33447 -2.31969 0
M  V30 4352 N 426.356 -4.71697 -2.7019 0
M  V30 4353 H 430.158 -2.74309 -1.05506 0
M  V30 4354 H 427.672 -1.54896 -0.487959 0
M  V30 4355 H 429.669 -2.2973 -3.47893 0
M  V30 4356 H 428.329 -1.21828 -3.00979 0
M  V30 4357 H 429.34 -4.77584 -2.00335 0
M  V30 4358 H 426.017 -2.54858 -3.30687 0
M  V30 4359 H 427.407 -6.39424 -2.06365 0
M  V30 4360 N 430.127 0.543554 -1.4793 0
M  V30 4361 C 431.057 1.65888 -1.64327 0
M  V30 4362 C 432.038 1.62818 -0.492383 0
M  V30 4363 O 433.223 1.80226 -0.723338 0
M  V30 4364 C 430.353 3.04506 -1.67013 0
M  V30 4365 C 429.307 3.2243 -2.81466 0
M  V30 4366 C 428.633 4.61972 -2.69233 0
M  V30 4367 C 429.933 3.06496 -4.22915 0
M  V30 4368 H 431.627 1.52421 -2.57698 0
M  V30 4369 H 429.173 0.731849 -1.24016 0
M  V30 4370 H 431.126 3.82391 -1.77074 0
M  V30 4371 H 429.85 3.18964 -0.70212 0
M  V30 4372 H 428.509 2.46957 -2.70938 0
M  V30 4373 H 428.157 4.73247 -1.7043 0
M  V30 4374 H 427.857 4.74911 -3.46025 0
M  V30 4375 H 429.381 5.41974 -2.81242 0
M  V30 4376 H 430.795 3.74186 -4.34348 0
M  V30 4377 H 429.192 3.30938 -5.006 0
M  V30 4378 H 430.262 2.03077 -4.40327 0
M  V30 4379 N 431.605 1.3629 0.791371 0
M  V30 4380 C 432.852 1.30412 1.54916 0
M  V30 4381 C 433.18 -0.117162 1.94147 0
M  V30 4382 O 432.435 -1.08599 1.62803 0
M  V30 4383 C 432.734 2.17068 2.8393 0
M  V30 4384 C 432.4 3.65645 2.63846 0
M  V30 4385 C 431.062 4.0614 2.58077 0
M  V30 4386 C 433.414 4.59855 2.45322 0
M  V30 4387 C 430.742 5.3899 2.31748 0
M  V30 4388 C 433.094 5.9292 2.2052 0
M  V30 4389 C 431.758 6.32542 2.13183 0
M  V30 4390 H 431.028 0.47721 0.566879 0
M  V30 4391 H 433.675 1.68325 0.913172 0
M  V30 4392 H 431.98 1.72085 3.51986 0
M  V30 4393 H 433.677 2.09846 3.4171 0
M  V30 4394 H 430.267 3.33518 2.69191 0
M  V30 4395 H 434.451 4.29443 2.48782 0
M  V30 4396 H 429.707 5.68672 2.24548 0
M  V30 4397 H 433.881 6.65487 2.05182 0
M  V30 4398 H 431.508 7.35412 1.92544 0
M  V30 4399 N 433.083 -1.0153 1.20538 0
M  V30 4400 C 434.332 -1.74558 1.01057 0
M  V30 4401 C 434.645 -1.90168 -0.457756 0
M  V30 4402 O 435.851 -2.60301 -0.771722 0
M  V30 4403 C 434.307 -3.13963 1.75941 0
M  V30 4404 C 433.915 -3.06361 3.26875 0
M  V30 4405 C 435.659 -3.91191 1.64832 0
M  V30 4406 C 433.566 -4.40782 3.94291 0
M  V30 4407 H 432.496 -0.654417 0.374505 0
M  V30 4408 H 435.147 -1.13521 1.44171 0
M  V30 4409 H 433.529 -3.75549 1.25614 0
M  V30 4410 H 434.703 -2.54074 3.84425 0
M  V30 4411 H 433.018 -2.42625 3.38411 0
M  V30 4412 H 435.615 -4.90644 2.12539 0
M  V30 4413 H 435.958 -4.11884 0.604745 0
M  V30 4414 H 436.491 -3.36236 2.12579 0
M  V30 4415 H 433.23 -4.25292 4.98805 0
M  V30 4416 H 432.75 -4.9307 3.41529 0
M  V30 4417 H 434.429 -5.09621 3.98617 0
M  V30 4418 N 434.561 -1.01147 -1.20859 0
M  V30 4419 C 435.81 -0.693214 -1.89413 0
M  V30 4420 C 436.123 0.779969 -1.79376 0
M  V30 4421 O 437.329 1.21057 -2.43017 0
M  V30 4422 C 435.785 -1.18949 -3.39675 0
M  V30 4423 C 435.393 -2.68921 -3.58309 0
M  V30 4424 C 437.137 -0.94642 -4.13815 0
M  V30 4425 C 435.044 -3.12056 -5.0237 0
M  V30 4426 H 433.974 -0.255595 -0.709357 0
M  V30 4427 H 436.625 -1.22349 -1.36759 0
M  V30 4428 H 435.007 -0.587228 -3.91622 0
M  V30 4429 H 436.181 -3.34652 -3.16772 0
M  V30 4430 H 434.496 -2.91314 -2.97532 0
M  V30 4431 H 437.093 -1.24417 -5.20023 0
M  V30 4432 H 437.436 0.117219 -4.16135 0
M  V30 4433 H 437.969 -1.5118 -3.67953 0
M  V30 4434 H 434.708 -4.17674 -5.05202 0
M  V30 4435 H 434.228 -2.51041 -5.44737 0
M  V30 4436 H 435.907 -3.04403 -5.70918 0
M  V30 4437 N 436.039 1.36541 -0.78704 0
M  V30 4438 C 437.455 1.52571 -0.46844 0
M  V30 4439 C 437.655 1.7415 1.01361 0
M  V30 4440 O 436.711 1.77163 1.79915 0
M  V30 4441 C 438.024 2.71299 -1.29682 0
M  V30 4442 C 439.572 2.85169 -1.29027 0
M  V30 4443 C 440.047 4.06898 -2.10233 0
M  V30 4444 N 441.538 4.1404 -2.07666 0
M  V30 4445 C 442.273 5.07301 -2.67271 0
M  V30 4446 N 441.769 6.06021 -3.35724 0
M  V30 4447 N 443.562 4.99898 -2.57018 0
M  V30 4448 H 435.713 1.20788 -1.74711 0
M  V30 4449 H 437.976 0.589364 -0.742532 0
M  V30 4450 H 437.682 2.61868 -2.34773 0
M  V30 4451 H 437.556 3.6539 -0.936479 0
M  V30 4452 H 439.943 2.94062 -0.247284 0
M  V30 4453 H 440.024 1.91992 -1.69035 0
M  V30 4454 H 439.668 3.98766 -3.1456 0
M  V30 4455 H 439.598 4.99218 -1.67597 0
M  V30 4456 H 442.089 3.43357 -1.57843 0
M  V30 4457 H 442.402 6.73741 -3.78541 0
M  V30 4458 H 440.747 6.06253 -3.39826 0
M  V30 4459 H 443.938 4.21724 -2.03142 0
M  V30 4460 H 444.111 5.72392 -3.03761 0
M  V30 4461 N 437.518 0.538854 1.48102 0
M  V30 4462 C 438.764 0.00801365 2.02798 0
M  V30 4463 C 439.097 -1.3309 1.41424 0
M  V30 4464 O 438.372 -1.86169 0.563158 0
M  V30 4465 C 438.655 -0.104589 3.59948 0
M  V30 4466 C 438.508 1.26012 4.31788 0
M  V30 4467 C 439.827 -0.827055 4.32259 0
M  V30 4468 H 436.946 0.00438624 0.736987 0
M  V30 4469 H 439.588 0.6976 1.7673 0
M  V30 4470 H 437.738 -0.691893 3.82289 0
M  V30 4471 H 439.41 1.88922 4.2084 0
M  V30 4472 H 437.653 1.83968 3.92859 0
M  V30 4473 H 438.324 1.13424 5.40221 0
M  V30 4474 H 440.8 -0.328578 4.14801 0
M  V30 4475 H 439.676 -0.87476 5.41885 0
M  V30 4476 H 439.937 -1.87927 4.0017 0
M  V30 4477 N 438.996 -1.55193 0.274407 0
M  V30 4478 C 440.273 -1.91584 -0.394331 0
M  V30 4479 C 440.653 -1.19858 -1.73774 0
M  V30 4480 O 440.001 -0.3252 -2.26174 0
M  V30 4481 C 440.211 -3.4487 -0.535311 0
M  V30 4482 C 441.559 -4.16636 -0.818534 0
M  V30 4483 O 442.583 -3.5076 -0.620146 0
M  V30 4484 O 441.442 -5.33209 -1.19792 0
M  V30 4485 H 438.536 -0.798349 -0.215794 0
M  V30 4486 H 441.082 -1.66646 0.320507 0
M  V30 4487 H 439.854 -3.89145 0.410141 0
M  V30 4488 H 439.477 -3.75759 -1.29964 0
M  V30 4489 N 440.474 -0.00167713 -1.576 0
M  V30 4490 C 441.384 1.00548 -2.1196 0
M  V30 4491 C 442.4 1.3758 -1.06526 0
M  V30 4492 O 443.576 1.46278 -1.38436 0
M  V30 4493 C 440.641 2.27809 -2.6135 0
M  V30 4494 C 439.702 1.97074 -3.81393 0
M  V30 4495 C 438.935 3.18267 -4.28417 0
M  V30 4496 O 439.158 4.30009 -3.74765 0
M  V30 4497 O 438.092 3.02167 -5.20556 0
M  V30 4498 H 441.918 0.573373 -2.98238 0
M  V30 4499 H 439.503 0.217255 -1.47812 0
M  V30 4500 H 441.385 3.02568 -2.93309 0
M  V30 4501 H 440.06 2.70254 -1.78169 0
M  V30 4502 H 438.967 1.19785 -3.54404 0
M  V30 4503 H 440.3 1.59464 -4.65652 0
M  V30 4504 N 441.952 1.55251 0.271103 0
M  V30 4505 C 442.915 1.87484 1.31842 0
M  V30 4506 C 443.915 0.749545 1.42262 0
M  V30 4507 O 445.105 1.01771 1.4138 0
M  V30 4508 C 442.237 2.0818 2.69951 0
M  V30 4509 H 443.43 2.81108 1.0449 0
M  V30 4510 H 440.983 1.47771 0.509258 0
M  V30 4511 H 441.718 1.16944 3.02481 0
M  V30 4512 H 441.503 2.90114 2.63774 0
M  V30 4513 H 442.993 2.34385 3.4562 0
M  V30 4514 N 443.43 -0.535701 1.48216 0
M  V30 4515 C 444.846 -0.863701 1.3421 0
M  V30 4516 C 445.046 -1.98458 0.34879 0
M  V30 4517 O 444.102 -2.51432 -0.23204 0
M  V30 4518 C 445.415 -1.23662 2.74095 0
M  V30 4519 C 446.963 -1.34683 2.82541 0
M  V30 4520 C 447.438 -1.75322 4.23115 0
M  V30 4521 N 448.929 -1.82434 4.2576 0
M  V30 4522 C 449.664 -2.15252 5.31464 0
M  V30 4523 N 449.16 -2.46533 6.47452 0
M  V30 4524 N 450.953 -2.16209 5.18855 0
M  V30 4525 H 443.104 0.203965 2.11418 0
M  V30 4526 H 445.367 0.0286033 0.947568 0
M  V30 4527 H 445.073 -0.486674 3.48316 0
M  V30 4528 H 444.947 -2.18805 3.07253 0
M  V30 4529 H 447.334 -2.08756 2.08579 0
M  V30 4530 H 447.415 -0.376756 2.5301 0
M  V30 4531 H 447.059 -1.01812 4.97591 0
M  V30 4532 H 446.989 -2.7337 4.50085 0
M  V30 4533 H 449.48 -1.6056 3.42095 0
M  V30 4534 H 449.793 -2.70662 7.23852 0
M  V30 4535 H 448.138 -2.44065 6.50736 0
M  V30 4536 H 451.329 -1.91224 4.2726 0
M  V30 4537 H 451.502 -2.41453 6.01335 0
M  V30 4538 N 444.908 -1.36708 -0.784132 0
M  V30 4539 C 446.148 -1.32618 -1.55537 0
M  V30 4540 C 446.512 0.0920681 -1.91779 0
M  V30 4541 O 447.713 0.257573 -2.67563 0
M  V30 4542 C 445.984 -2.22788 -2.79464 0
M  V30 4543 S 447.543 -2.36432 -3.69656 0
M  V30 4544 H 444.361 -0.470973 -0.53264 0
M  V30 4545 H 446.963 -1.72333 -0.92312 0
M  V30 4546 H 445.667 -3.24774 -2.50899 0
M  V30 4547 H 445.198 -1.84112 -3.47658 0
M  V30 4548 H 447.213 -1.56573 -4.7085 0
M  V30 4549 N 446.386 1.0089 -1.21074 0
M  V30 4550 C 447.634 1.74262 -1.02358 0
M  V30 4551 C 447.955 1.89869 0.444393 0
M  V30 4552 O 447.225 1.44677 1.32081 0
M  V30 4553 H 445.805 0.645615 -0.375754 0
M  V30 4554 H 448.467 1.21596 -1.52317 0
M  V30 4555 H 447.563 2.74328 -1.4883 0
M  V30 4556 N 447.864 1.01787 1.20321 0
M  V30 4557 C 449.113 0.703249 1.89043 0
M  V30 4558 C 449.426 -0.770445 1.79787 0
M  V30 4559 O 450.632 -1.19767 2.43656 0
M  V30 4560 C 449.088 1.20749 3.3904 0
M  V30 4561 C 448.696 2.70817 3.56878 0
M  V30 4562 C 450.44 0.968352 4.13308 0
M  V30 4563 C 448.347 3.14716 5.00708 0
M  V30 4564 H 447.277 0.259354 0.707991 0
M  V30 4565 H 449.928 1.23072 1.36108 0
M  V30 4566 H 448.31 0.607989 3.91305 0
M  V30 4567 H 449.484 3.36327 3.14993 0
M  V30 4568 H 447.799 2.92888 2.95983 0
M  V30 4569 H 450.396 1.27173 5.19356 0
M  V30 4570 H 450.739 -0.095149 4.16191 0
M  V30 4571 H 451.272 1.53129 3.67146 0
M  V30 4572 H 448.011 4.20347 5.02979 0
M  V30 4573 H 447.531 2.53927 5.43398 0
M  V30 4574 H 449.21 3.07426 5.69296 0
M  V30 4575 N 449.342 -1.36122 0.79427 0
M  V30 4576 C 450.57 -2.03362 0.380989 0
M  V30 4577 C 450.985 -1.59881 -1.00416 0
M  V30 4578 O 450.342 -0.790515 -1.6449 0
M  V30 4579 C 450.393 -3.58804 0.440649 0
M  V30 4580 O 450.114 -4.007 1.77118 0
M  V30 4581 C 451.615 -4.43296 0.0186117 0
M  V30 4582 H 448.835 -0.652526 0.156367 0
M  V30 4583 H 451.379 -1.73998 1.07447 0
M  V30 4584 H 449.534 -3.8686 -0.204458 0
M  V30 4585 H 449.948 -4.95309 1.72538 0
M  V30 4586 H 451.422 -5.51887 0.111488 0
M  V30 4587 H 451.899 -4.2684 -1.03461 0
M  V30 4588 H 452.505 -4.20512 0.636395 0
M  V30 4589 N 450.82 -0.546701 -1.47814 0
M  V30 4590 C 452.236 -0.205717 -1.58269 0
M  V30 4591 C 452.436 1.29153 -1.54667 0
M  V30 4592 O 451.492 2.07098 -1.44453 0
M  V30 4593 C 452.805 -0.823065 -2.89216 0
M  V30 4594 C 454.353 -0.793328 -3.02779 0
M  V30 4595 C 454.828 -1.38955 -4.36412 0
M  V30 4596 N 456.319 -1.35227 -4.43021 0
M  V30 4597 C 457.054 -1.78333 -5.44963 0
M  V30 4598 N 456.55 -2.29246 -6.53772 0
M  V30 4599 N 458.343 -1.69467 -5.35945 0
M  V30 4600 H 450.494 -1.5196 -1.48398 0
M  V30 4601 H 452.757 -0.633078 -0.705632 0
M  V30 4602 H 452.463 -1.8749 -2.97558 0
M  V30 4603 H 452.337 -0.309915 -3.75925 0
M  V30 4604 H 454.724 0.249784 -2.94041 0
M  V30 4605 H 454.805 -1.34412 -2.17639 0
M  V30 4606 H 454.449 -2.43168 -4.45906 0
M  V30 4607 H 454.379 -0.814291 -5.20266 0
M  V30 4608 H 456.87 -0.979739 -3.64979 0
M  V30 4609 H 457.183 -2.60089 -7.27718 0
M  V30 4610 H 455.528 -2.3325 -6.5469 0
M  V30 4611 H 458.719 -1.29477 -4.49837 0
M  V30 4612 H 458.892 -2.03381 -6.15256 0
M  V30 4613 N 452.299 1.55045 -0.282633 0
M  V30 4614 C 453.576 1.9179 0.384166 0
M  V30 4615 C 453.956 1.20778 1.73136 0
M  V30 4616 O 453.304 0.33719 2.25998 0
M  V30 4617 C 453.514 3.45149 0.517014 0
M  V30 4618 C 454.862 4.17064 0.796427 0
M  V30 4619 O 455.886 3.51084 0.601535 0
M  V30 4620 O 454.745 5.33837 1.16962 0
M  V30 4621 H 451.839 0.799483 0.211558 0
M  V30 4622 H 454.385 1.66474 -0.32934 0
M  V30 4623 H 453.157 3.88922 -0.430772 0
M  V30 4624 H 452.78 3.76443 1.2797 0
M  V30 4625 N 453.777 0.010035 1.57597 0
M  V30 4626 C 454.74 -0.963029 2.07986 0
M  V30 4627 C 455.74 -1.26619 0.991173 0
M  V30 4628 O 456.93 -1.2097 1.25347 0
M  V30 4629 C 454.062 -2.2851 2.52974 0
M  V30 4630 H 455.255 -0.526971 2.95234 0
M  V30 4631 H 452.808 -0.237639 1.54483 0
M  V30 4632 H 453.543 -2.76784 1.69 0
M  V30 4633 H 453.328 -2.07824 3.32493 0
M  V30 4634 H 454.818 -2.98294 2.9225 0
M  V30 4635 N 455.255 -1.55392 -0.262866 0
M  V30 4636 C 456.185 -1.91978 -1.32917 0
M  V30 4637 C 457.166 -0.7828 -1.51017 0
M  V30 4638 O 458.351 -1.04178 -1.63892 0
M  V30 4639 C 455.481 -2.20055 -2.68687 0
M  V30 4640 C 454.435 -3.35854 -2.65304 0
M  V30 4641 C 453.761 -3.49435 -4.04721 0
M  V30 4642 C 455.061 -4.71977 -2.23685 0
M  V30 4643 H 456.755 -2.81292 -1.02544 0
M  V30 4644 H 454.301 -1.3534 -0.491846 0
M  V30 4645 H 456.254 -2.44237 -3.43404 0
M  V30 4646 H 454.978 -1.27551 -3.00663 0
M  V30 4647 H 453.637 -3.11655 -1.93045 0
M  V30 4648 H 453.285 -2.54379 -4.33936 0
M  V30 4649 H 452.985 -4.27297 -4.0335 0
M  V30 4650 H 454.509 -3.7592 -4.81161 0
M  V30 4651 H 455.923 -4.95637 -2.88127 0
M  V30 4652 H 454.32 -5.52828 -2.33456 0
M  V30 4653 H 455.39 -4.70115 -1.18827 0
M  V30 4654 N 456.733 0.527833 -1.48498 0
M  V30 4655 C 457.666 1.64892 -1.57753 0
M  V30 4656 C 458.644 1.5687 -0.427867 0
M  V30 4657 O 459.828 1.77311 -0.639764 0
M  V30 4658 C 456.955 3.03301 -1.50752 0
M  V30 4659 C 456.001 3.29675 -2.70586 0
M  V30 4660 S 456.834 3.15712 -4.32535 0
M  V30 4661 C 457.99 4.56564 -4.28136 0
M  V30 4662 H 458.223 1.56792 -2.52594 0
M  V30 4663 H 455.756 0.710959 -1.37057 0
M  V30 4664 H 457.714 3.83123 -1.474 0
M  V30 4665 H 456.375 3.08839 -0.572454 0
M  V30 4666 H 455.568 4.3065 -2.61833 0
M  V30 4667 H 455.17 2.57526 -2.71212 0
M  V30 4668 H 457.462 5.48126 -3.98201 0
M  V30 4669 H 458.405 4.70371 -5.29298 0
M  V30 4670 H 458.813 4.35987 -3.58574 0
M  V30 4671 N 458.211 1.37122 0.776871 0
M  V30 4672 C 459.174 1.32301 1.8716 0
M  V30 4673 C 460.174 0.228099 1.59174 0
M  V30 4674 O 461.364 0.483642 1.67352 0
M  V30 4675 C 458.496 1.054 3.24197 0
M  V30 4676 H 459.689 2.29673 1.92848 0
M  V30 4677 H 457.242 1.22077 0.97606 0
M  V30 4678 H 457.977 0.0853872 3.24188 0
M  V30 4679 H 457.762 1.84648 3.45901 0
M  V30 4680 H 459.252 1.04664 4.04271 0
M  V30 4681 N 459.689 -1.00246 1.21608 0
M  V30 4682 C 460.914 -1.78167 1.06167 0
M  V30 4683 C 461.339 -1.84138 -0.384035 0
M  V30 4684 O 460.697 -1.28683 -1.27712 0
M  V30 4685 C 460.745 -3.19786 1.66642 0
M  V30 4686 O 459.849 -4.02153 0.913613 0
M  V30 4687 H 459.19 -0.549 0.37349 0
M  V30 4688 H 461.72 -1.25994 1.61204 0
M  V30 4689 H 461.73 -3.70451 1.70969 0
M  V30 4690 H 460.405 -3.14754 2.7185 0
M  V30 4691 H 458.982 -3.60711 0.945635 0
M  V30 4692 N 461.167 -1.02423 -1.1978 0
M  V30 4693 C 462.097 -0.62157 -2.25075 0
M  V30 4694 C 463.078 0.367148 -1.6609 0
M  V30 4695 O 464.263 0.250892 -1.92573 0
M  V30 4696 C 461.393 0.0331826 -3.47284 0
M  V30 4697 C 460.347 -0.877323 -4.18912 0
M  V30 4698 C 459.673 -0.0879296 -5.34628 0
M  V30 4699 C 460.973 -2.18892 -4.74219 0
M  V30 4700 H 462.667 -1.50179 -2.59011 0
M  V30 4701 H 460.213 -0.723547 -1.24502 0
M  V30 4702 H 462.166 0.326488 -4.20133 0
M  V30 4703 H 460.89 0.948164 -3.12534 0
M  V30 4704 H 459.549 -1.15475 -3.47938 0
M  V30 4705 H 459.197 0.828941 -4.96123 0
M  V30 4706 H 458.897 -0.694359 -5.83483 0
M  V30 4707 H 460.421 0.198743 -6.10276 0
M  V30 4708 H 461.835 -1.95746 -5.38847 0
M  V30 4709 H 460.232 -2.74686 -5.33542 0
M  V30 4710 H 461.302 -2.84674 -3.92541 0
M  V30 4711 N 462.645 1.35699 -0.801477 0
M  V30 4712 C 463.592 2.29876 -0.206294 0
M  V30 4713 C 464.562 1.52565 0.656752 0
M  V30 4714 O 465.747 1.81024 0.602906 0
M  V30 4715 C 462.887 3.39052 0.643272 0
M  V30 4716 C 462 4.31335 -0.239644 0
M  V30 4717 C 461.135 5.27599 0.61744 0
M  V30 4718 C 460.174 6.11521 -0.26619 0
M  V30 4719 N 459.311 6.99938 0.550571 0
M  V30 4720 H 464.151 2.80187 -1.01484 0
M  V30 4721 H 461.688 1.37902 -0.511997 0
M  V30 4722 H 463.646 4.0101 1.15094 0
M  V30 4723 H 462.276 2.9003 1.41713 0
M  V30 4724 H 461.328 3.70426 -0.865381 0
M  V30 4725 H 462.64 4.90243 -0.919985 0
M  V30 4726 H 461.794 5.94906 1.19045 0
M  V30 4727 H 460.533 4.69176 1.33137 0
M  V30 4728 H 459.538 5.43166 -0.851507 0
M  V30 4729 H 460.763 6.72022 -0.9779 0
M  V30 4730 H 458.709 6.44008 1.24856 0
M  V30 4731 H 458.626 7.55966 -0.071832 0
M  V30 4732 H 459.894 7.71599 1.10702 0
M  V30 4733 N 464.123 0.554532 1.47522 0
M  V30 4734 C 465.351 0.034257 2.06872 0
M  V30 4735 C 465.766 -1.25826 1.40759 0
M  V30 4736 O 465.123 -1.75425 0.503217 0
M  V30 4737 C 465.174 -0.167827 3.6111 0
M  V30 4738 O 464.895 1.07351 4.24744 0
M  V30 4739 C 466.396 -0.72569 4.3732 0
M  V30 4740 H 463.616 0.0446275 0.669514 0
M  V30 4741 H 466.16 0.767181 1.89564 0
M  V30 4742 H 464.315 -0.850872 3.7794 0
M  V30 4743 H 464.729 0.869563 5.17242 0
M  V30 4744 H 466.203 -0.816394 5.45929 0
M  V30 4745 H 466.68 -1.73635 4.0342 0
M  V30 4746 H 467.286 -0.0784292 4.25228 0
M  V30 4747 N 465.601 -1.54893 0.290851 0
M  V30 4748 C 466.548 -2.23138 -0.58974 0
M  V30 4749 C 467.518 -1.21036 -1.13752 0
M  V30 4750 O 468.703 -1.49626 -1.18392 0
M  V30 4751 C 465.843 -2.96811 -1.76061 0
M  V30 4752 C 464.956 -4.13665 -1.24519 0
M  V30 4753 C 464.091 -4.74944 -2.3791 0
M  V30 4754 C 463.13 -5.83963 -1.83451 0
M  V30 4755 N 462.267 -6.39239 -2.90376 0
M  V30 4756 H 467.107 -2.98 -0.00114915 0
M  V30 4757 H 464.644 -1.47096 0.0112006 0
M  V30 4758 H 466.602 -3.37751 -2.44909 0
M  V30 4759 H 465.232 -2.24344 -2.32098 0
M  V30 4760 H 464.284 -3.77737 -0.449288 0
M  V30 4761 H 465.596 -4.92238 -0.806424 0
M  V30 4762 H 464.75 -5.18684 -3.14724 0
M  V30 4763 H 463.489 -3.95682 -2.85109 0
M  V30 4764 H 462.494 -5.39657 -1.05122 0
M  V30 4765 H 463.719 -6.65103 -1.37169 0
M  V30 4766 H 461.665 -5.62864 -3.36927 0
M  V30 4767 H 461.582 -7.13129 -2.50965 0
M  V30 4768 H 462.85 -6.87637 -3.67118 0
M  V30 4769 N 467.08 -0.0183926 -1.57589 0
M  V30 4770 C 468.328 0.661253 -1.90976 0
M  V30 4771 C 468.649 1.73281 -0.894353 0
M  V30 4772 O 467.919 1.9579 0.0656788 0
M  V30 4773 H 466.499 0.247233 -0.704901 0
M  V30 4774 H 469.161 -0.0636639 -1.94796 0
M  V30 4775 H 468.257 1.12083 -2.9128 0
M  V30 4776 N 468.558 1.5553 0.254621 0
M  V30 4777 C 469.807 1.76202 0.981612 0
M  V30 4778 C 470.12 0.580883 1.86776 0
M  V30 4779 O 471.326 0.670448 2.63092 0
M  V30 4780 C 469.782 3.11921 1.79537 0
M  V30 4781 C 469.39 4.37659 0.956991 0
M  V30 4782 C 471.134 3.41936 2.51555 0
M  V30 4783 C 469.041 5.64411 1.76619 0
M  V30 4784 H 467.971 0.656841 0.370237 0
M  V30 4785 H 470.622 1.81969 0.236556 0
M  V30 4786 H 469.004 3.00241 2.58208 0
M  V30 4787 H 470.178 4.60307 0.21315 0
M  V30 4788 H 468.493 4.14922 0.350497 0
M  V30 4789 H 471.09 4.33849 3.12536 0
M  V30 4790 H 471.433 2.62905 3.22779 0
M  V30 4791 H 471.966 3.54797 1.799 0
M  V30 4792 H 468.705 6.46241 1.09783 0
M  V30 4793 H 468.225 5.45877 2.48551 0
M  V30 4794 H 469.904 6.03386 2.33527 0
M  V30 4795 N 470.036 -0.519951 1.48776 0
M  V30 4796 C 471.284 -1.2727 1.56993 0
M  V30 4797 C 471.605 -1.9339 0.25004 0
M  V30 4798 O 470.875 -1.81822 -0.729216 0
M  V30 4799 H 469.455 -0.472732 0.578389 0
M  V30 4800 H 472.117 -0.604234 1.85297 0
M  V30 4801 H 471.213 -2.04669 2.3562 0
M  V30 4802 N 471.514 -1.37532 -0.769588 0
M  V30 4803 C 472.742 -1.36059 -1.55871 0
M  V30 4804 C 473.157 0.053544 -1.88724 0
M  V30 4805 O 472.514 1.01591 -1.5161 0
M  V30 4806 C 472.565 -2.20107 -2.86767 0
M  V30 4807 O 472.286 -3.56009 -2.55321 0
M  V30 4808 C 473.787 -2.26636 -3.80987 0
M  V30 4809 H 471.007 -0.465967 -0.482821 0
M  V30 4810 H 473.551 -1.80901 -0.953686 0
M  V30 4811 H 471.706 -1.78768 -3.43687 0
M  V30 4812 H 472.12 -4.0009 -3.39158 0
M  V30 4813 H 473.594 -2.89763 -4.69831 0
M  V30 4814 H 474.071 -1.2754 -4.20274 0
M  V30 4815 H 474.677 -2.68296 -3.29996 0
M  V30 4816 N 472.992 0.995999 -1.22138 0
M  V30 4817 C 474.24 1.73167 -1.042 0
M  V30 4818 C 474.561 1.90329 0.42423 0
M  V30 4819 O 473.831 1.4607 1.30539 0
M  V30 4820 H 472.411 0.641593 -0.38258 0
M  V30 4821 H 475.073 1.19974 -1.53598 0
M  V30 4822 H 474.169 2.72734 -1.51731 0
M  V30 4823 N 474.47 1.03057 1.19235 0
M  V30 4824 C 475.4 0.633497 2.24742 0
M  V30 4825 C 476.381 -0.358335 1.66283 0
M  V30 4826 O 477.566 -0.240676 1.92703 0
M  V30 4827 C 474.696 -0.0147648 3.47297 0
M  V30 4828 C 473.65 0.899527 4.18441 0
M  V30 4829 C 472.976 0.116281 5.34574 0
M  V30 4830 C 474.276 2.21404 4.73051 0
M  V30 4831 H 475.97 1.5155 2.58211 0
M  V30 4832 H 473.516 0.73014 1.24117 0
M  V30 4833 H 475.469 -0.304202 4.20301 0
M  V30 4834 H 474.193 -0.931577 3.13032 0
M  V30 4835 H 472.852 1.17319 3.47321 0
M  V30 4836 H 472.5 -0.802619 4.96555 0
M  V30 4837 H 472.2 0.725293 5.83107 0
M  V30 4838 H 473.724 -0.166376 6.10373 0
M  V30 4839 H 475.138 1.98601 5.37802 0
M  V30 4840 H 473.535 2.77512 5.32078 0
M  V30 4841 H 474.605 2.86752 3.91026 0
M  V30 4842 N 475.948 -1.35272 0.808662 0
M  V30 4843 C 476.898 -2.27181 0.193124 0
M  V30 4844 C 477.882 -1.47871 -0.634265 0
M  V30 4845 O 479.074 -1.70048 -0.491182 0
M  V30 4846 C 476.203 -3.36979 -0.655751 0
M  V30 4847 C 475.289 -4.23712 0.181481 0
M  V30 4848 N 475.68 -4.90225 1.24551 0
M  V30 4849 C 473.978 -4.45985 -0.0365493 0
M  V30 4850 C 474.679 -5.54537 1.75682 0
M  V30 4851 N 473.655 -5.33107 1.06294 0
M  V30 4852 H 477.457 -2.76101 1.00724 0
M  V30 4853 H 474.971 -1.48823 0.650029 0
M  V30 4854 H 476.968 -4.01774 -1.11279 0
M  V30 4855 H 475.628 -2.89611 -1.46819 0
M  V30 4856 H 476.639 -4.91641 1.62818 0
M  V30 4857 H 473.316 -4.09409 -0.817964 0
M  V30 4858 H 474.706 -6.17597 2.64621 0
M  V30 4859 N 477.426 -0.562348 -1.47226 0
M  V30 4860 C 478.673 -0.0402165 -2.0246 0
M  V30 4861 C 479.001 1.31169 -1.43614 0
M  V30 4862 O 478.256 1.86805 -0.5833 0
M  V30 4863 C 478.555 0.0969817 -3.57268 0
M  V30 4864 C 478.221 -1.1847 -4.35058 0
M  V30 4865 C 476.883 -1.53588 -4.56031 0
M  V30 4866 C 479.235 -2.03378 -4.79882 0
M  V30 4867 C 476.563 -2.73452 -5.19077 0
M  V30 4868 C 478.915 -3.2245 -5.44251 0
M  V30 4869 C 477.579 -3.57876 -5.63455 0
M  V30 4870 H 476.849 -0.0147163 -0.740854 0
M  V30 4871 H 479.496 -0.734895 -1.76838 0
M  V30 4872 H 477.801 0.87466 -3.81912 0
M  V30 4873 H 479.498 0.516408 -3.97661 0
M  V30 4874 H 476.088 -0.90126 -4.19017 0
M  V30 4875 H 480.272 -1.77553 -4.63453 0
M  V30 4876 H 475.528 -3.01062 -5.32139 0
M  V30 4877 H 479.702 -3.88526 -5.77945 0
M  V30 4878 H 477.329 -4.50849 -6.12078 0
M  V30 4879 N 478.904 1.54736 -0.299062 0
M  V30 4880 C 480.32 1.59507 0.0543849 0
M  V30 4881 C 480.52 1.31606 1.52585 0
M  V30 4882 O 479.576 1.08853 2.27832 0
M  V30 4883 C 480.889 2.98751 -0.34181 0
M  V30 4884 C 482.437 3.1165 -0.290414 0
M  V30 4885 C 482.912 4.53199 -0.661402 0
M  V30 4886 N 484.403 4.59114 -0.613863 0
M  V30 4887 C 485.138 5.66709 -0.873417 0
M  V30 4888 N 484.634 6.82349 -1.19884 0
M  V30 4889 N 486.427 5.56369 -0.800608 0
M  V30 4890 H 478.578 1.71133 -1.25806 0
M  V30 4891 H 480.841 0.799186 -0.509908 0
M  V30 4892 H 480.547 3.24085 -1.36608 0
M  V30 4893 H 480.421 3.75961 0.305508 0
M  V30 4894 H 482.808 2.86066 0.724605 0
M  V30 4895 H 482.889 2.366 -0.972327 0
M  V30 4896 H 482.533 4.79513 -1.67422 0
M  V30 4897 H 482.463 5.26583 0.0425612 0
M  V30 4898 H 484.954 3.76053 -0.3732 0
M  V30 4899 H 485.267 7.60326 -1.38291 0
M  V30 4900 H 483.612 6.83906 -1.23685 0
M  V30 4901 H 486.803 4.64904 -0.546045 0
M  V30 4902 H 486.976 6.40139 -1.00626 0
M  V30 4903 N 480.382 0.0267497 1.57577 0
M  V30 4904 C 481.345 -0.940916 2.08996 0
M  V30 4905 C 482.345 -1.25561 1.00455 0
M  V30 4906 O 483.535 -1.19634 1.26623 0
M  V30 4907 C 480.667 -2.25814 2.55384 0
M  V30 4908 H 481.86 -0.495628 2.95776 0
M  V30 4909 H 479.413 -0.221241 1.54726 0
M  V30 4910 H 480.148 -2.74976 1.71926 0
M  V30 4911 H 479.933 -2.04285 3.34679 0
M  V30 4912 H 481.423 -2.95178 2.95398 0
M  V30 4913 N 481.861 -1.55662 -0.24637 0
M  V30 4914 C 482.824 -1.89558 -1.28842 0
M  V30 4915 C 483.824 -0.772082 -1.41052 0
M  V30 4916 O 485.014 -1.04007 -1.39743 0
M  V30 4917 C 482.146 -2.12449 -2.66605 0
M  V30 4918 H 483.339 -2.82735 -1.00004 0
M  V30 4919 H 480.892 -1.48562 -0.485684 0
M  V30 4920 H 481.627 -1.21742 -3.00582 0
M  V30 4921 H 481.412 -2.94273 -2.59125 0
M  V30 4922 H 482.902 -2.39854 -3.41847 0
M  V30 4923 N 483.339 0.512053 -1.4905 0
M  V30 4924 C 484.289 1.61142 -1.61298 0
M  V30 4925 C 485.273 1.53908 -0.46916 0
M  V30 4926 O 486.465 1.61625 -0.721547 0
M  V30 4927 C 483.594 2.998 -1.67256 0
M  V30 4928 C 482.68 3.12072 -2.87179 0
M  V30 4929 N 483.071 2.94263 -4.11391 0
M  V30 4930 C 481.369 3.43156 -2.84886 0
M  V30 4931 C 482.07 3.10426 -4.91946 0
M  V30 4932 N 481.046 3.38808 -4.251 0
M  V30 4933 H 484.848 1.46011 -2.55065 0
M  V30 4934 H 482.362 0.717934 -1.45669 0
M  V30 4935 H 484.359 3.78794 -1.74128 0
M  V30 4936 H 483.019 3.1601 -0.746195 0
M  V30 4937 H 484.03 2.70661 -4.41546 0
M  V30 4938 H 480.707 3.65611 -2.01581 0
M  V30 4939 H 482.097 3.01243 -6.00585 0
M  V30 4940 N 484.817 1.37938 0.762283 0
M  V30 4941 C 486.045 1.36883 1.55147 0
M  V30 4942 C 486.46 -0.0435348 1.8875 0
M  V30 4943 O 485.817 -1.00786 1.52146 0
M  V30 4944 C 485.868 2.21624 2.85596 0
M  V30 4945 O 485.589 3.57358 2.5343 0
M  V30 4946 C 487.09 2.28653 3.7978 0
M  V30 4947 H 484.31 0.468521 0.480343 0
M  V30 4948 H 486.854 1.81404 0.944079 0
M  V30 4949 H 485.009 1.80588 3.42734 0
M  V30 4950 H 485.423 4.01883 3.37032 0
M  V30 4951 H 486.897 2.9225 4.68288 0
M  V30 4952 H 487.374 1.29767 4.19592 0
M  V30 4953 H 487.98 2.70043 3.28568 0
M  V30 4954 N 486.295 -0.989507 1.22664 0
M  V30 4955 C 487.227 -2.0824 0.957542 0
M  V30 4956 C 488.24 -1.6267 -0.0651098 0
M  V30 4957 O 489.429 -1.77695 0.169312 0
M  V30 4958 C 486.529 -3.36298 0.419145 0
M  V30 4959 C 485.702 -4.10882 1.49982 0
M  V30 4960 C 484.761 -5.17221 0.967904 0
M  V30 4961 O 483.787 -5.44613 1.65487 0
M  V30 4962 N 484.989 -5.80124 -0.20896 0
M  V30 4963 H 487.754 -2.31904 1.89843 0
M  V30 4964 H 485.315 -1.15552 1.13399 0
M  V30 4965 H 487.307 -4.04671 0.0485451 0
M  V30 4966 H 485.877 -3.09671 -0.426937 0
M  V30 4967 H 485.097 -3.37092 2.04359 0
M  V30 4968 H 486.385 -4.57482 2.22682 0
M  V30 4969 H 485.783 -5.60244 -0.783818 0
M  V30 4970 H 484.34 -6.49715 -0.520913 0
M  V30 4971 N 487.773 -1.03688 -1.18687 0
M  V30 4972 C 488.72 -0.624624 -2.22187 0
M  V30 4973 C 489.69 0.365636 -1.62026 0
M  V30 4974 O 490.875 0.260481 -1.89014 0
M  V30 4975 C 488.015 0.0101738 -3.45099 0
M  V30 4976 C 487.128 -1.02709 -4.19613 0
M  V30 4977 C 486.263 -0.361213 -5.2997 0
M  V30 4978 C 485.302 -1.38384 -5.96252 0
M  V30 4979 N 484.439 -0.743196 -6.98155 0
M  V30 4980 H 489.279 -1.51176 -2.56807 0
M  V30 4981 H 486.816 -0.75636 -1.26165 0
M  V30 4982 H 488.774 0.395528 -4.15321 0
M  V30 4983 H 487.404 0.860848 -3.1111 0
M  V30 4984 H 486.456 -1.53043 -3.48256 0
M  V30 4985 H 487.768 -1.80398 -4.65036 0
M  V30 4986 H 486.922 0.0785537 -6.06649 0
M  V30 4987 H 485.661 0.447799 -4.8564 0
M  V30 4988 H 484.666 -1.83378 -5.18317 0
M  V30 4989 H 485.891 -2.19448 -6.42666 0
M  V30 4990 H 483.837 0.0455789 -6.55984 0
M  V30 4991 H 483.754 -1.45784 -7.41811 0
M  V30 4992 H 485.022 -0.327698 -7.78811 0
M  V30 4993 N 489.251 1.34841 -0.815825 0
M  V30 4994 C 490.481 2.02436 -0.412695 0
M  V30 4995 C 490.889 1.61604 0.983906 0
M  V30 4996 O 490.232 0.813729 1.64694 0
M  V30 4997 C 490.294 3.56953 -0.427182 0
M  V30 4998 C 489.958 4.21083 -1.77589 0
M  V30 4999 C 490.955 4.42107 -2.73564 0
M  V30 5000 C 488.64 4.58006 -2.06243 0
M  V30 5001 C 490.634 4.99169 -3.9637 0
M  V30 5002 C 488.321 5.1478 -3.2931 0
M  V30 5003 C 489.319 5.35304 -4.24191 0
M  V30 5004 O 489.007 5.90878 -5.45086 0
M  V30 5005 H 488.739 0.655631 -0.164695 0
M  V30 5006 H 491.293 1.73246 -1.1034 0
M  V30 5007 H 489.523 3.85372 0.320175 0
M  V30 5008 H 491.212 4.05875 -0.0450875 0
M  V30 5009 H 491.978 4.13953 -2.52721 0
M  V30 5010 H 487.857 4.41339 -1.33196 0
M  V30 5011 H 491.401 5.15105 -4.70439 0
M  V30 5012 H 487.298 5.42362 -3.5002 0
M  V30 5013 H 488.066 6.0932 -5.46508 0
M  V30 5014 N 490.729 0.570148 1.46925 0
M  V30 5015 C 491.959 0.0561151 2.06524 0
M  V30 5016 C 492.367 -1.24874 1.42137 0
M  V30 5017 O 491.71 -1.76292 0.516417 0
M  V30 5018 C 491.772 -0.197035 3.5896 0
M  V30 5019 C 491.436 1.02033 4.45464 0
M  V30 5020 C 492.433 1.92921 4.82781 0
M  V30 5021 C 490.118 1.23864 4.86788 0
M  V30 5022 C 492.112 3.03999 5.60235 0
M  V30 5023 C 489.799 2.35249 5.64004 0
M  V30 5024 C 490.797 3.25146 6.0064 0
M  V30 5025 O 490.485 4.34598 6.76299 0
M  V30 5026 H 490.217 0.0487409 0.674241 0
M  V30 5027 H 492.771 0.786915 1.89728 0
M  V30 5028 H 491.001 -0.982299 3.74016 0
M  V30 5029 H 492.69 -0.658032 4.00531 0
M  V30 5030 H 493.456 1.77265 4.51444 0
M  V30 5031 H 489.335 0.54805 4.57731 0
M  V30 5032 H 492.879 3.74192 5.8875 0
M  V30 5033 H 488.776 2.50873 5.94755 0
M  V30 5034 H 489.544 4.32808 6.94708 0
M  V30 5035 N 492.207 -1.54576 0.307264 0
M  V30 5036 C 493.623 -1.59534 -0.0459251 0
M  V30 5037 C 493.823 -1.32414 -1.51884 0
M  V30 5038 O 492.879 -1.1006 -2.27251 0
M  V30 5039 C 494.192 -2.98566 0.357649 0
M  V30 5040 C 495.74 -3.11491 0.306937 0
M  V30 5041 C 496.215 -4.52842 0.685427 0
M  V30 5042 N 497.706 -4.58782 0.638203 0
M  V30 5043 C 498.441 -5.66238 0.903458 0
M  V30 5044 N 497.937 -6.81703 1.23501 0
M  V30 5045 N 499.73 -5.55937 0.830102 0
M  V30 5046 H 491.881 -1.70464 1.26712 0
M  V30 5047 H 494.144 -0.79647 0.514139 0
M  V30 5048 H 493.85 -3.23356 1.38325 0
M  V30 5049 H 493.724 -3.76117 -0.285565 0
M  V30 5050 H 496.111 -2.86446 -0.709424 0
M  V30 5051 H 496.192 -2.36081 0.984861 0
M  V30 5052 H 495.836 -4.78618 1.69963 0
M  V30 5053 H 495.766 -5.26598 -0.0146346 0
M  V30 5054 H 498.257 -3.75849 0.393138 0
M  V30 5055 H 498.57 -7.59582 1.42322 0
M  V30 5056 H 496.915 -6.8324 1.27311 0
M  V30 5057 H 500.106 -4.64608 0.570693 0
M  V30 5058 H 500.279 -6.39597 1.04019 0
M  V30 5059 N 493.685 -0.035106 -1.57561 0
M  V30 5060 C 494.595 0.960295 -2.14046 0
M  V30 5061 C 495.611 1.3529 -1.0942 0
M  V30 5062 O 496.787 1.43309 -1.41508 0
M  V30 5063 C 493.852 2.22214 -2.66124 0
M  V30 5064 C 492.913 1.8894 -3.85487 0
M  V30 5065 C 492.146 3.09109 -4.35072 0
M  V30 5066 O 492.369 4.21963 -3.83802 0
M  V30 5067 O 491.303 2.91058 -5.26848 0
M  V30 5068 H 495.129 0.509983 -2.99387 0
M  V30 5069 H 492.714 0.185853 -1.48239 0
M  V30 5070 H 494.596 2.96279 -2.99661 0
M  V30 5071 H 493.271 2.66414 -1.83862 0
M  V30 5072 H 492.178 1.12241 -3.56865 0
M  V30 5073 H 493.511 1.49551 -4.6893 0
M  V30 5074 N 495.163 1.55791 0.238111 0
M  V30 5075 C 496.579 1.48411 0.587045 0
M  V30 5076 C 496.779 0.72702 1.87927 0
M  V30 5077 O 495.835 0.259942 2.51158 0
M  V30 5078 C 497.148 2.92873 0.681623 0
M  V30 5079 C 498.696 3.03295 0.773363 0
M  V30 5080 C 499.171 4.49082 0.899428 0
M  V30 5081 N 500.662 4.53056 0.964075 0
M  V30 5082 C 501.397 5.63117 1.08104 0
M  V30 5083 N 500.893 6.82969 1.16299 0
M  V30 5084 N 502.686 5.50933 1.11488 0
M  V30 5085 H 494.837 2.0345 -0.610076 0
M  V30 5086 H 497.1 0.924034 -0.211813 0
M  V30 5087 H 496.806 3.51142 -0.19802 0
M  V30 5088 H 496.68 3.43851 1.55069 0
M  V30 5089 H 499.067 2.45101 1.64346 0
M  V30 5090 H 499.148 2.55513 -0.121034 0
M  V30 5091 H 498.792 5.07889 0.0338586 0
M  V30 5092 H 498.722 4.94553 1.809 0
M  V30 5093 H 501.213 3.66737 0.91173 0
M  V30 5094 H 501.526 7.62598 1.25155 0
M  V30 5095 H 499.871 6.85712 1.13241 0
M  V30 5096 H 503.062 4.56231 1.0474 0
M  V30 5097 H 503.235 6.36743 1.20259 0
M  V30 5098 N 496.642 -0.504142 1.49319 0
M  V30 5099 C 497.889 -1.25846 1.58647 0
M  V30 5100 C 498.217 -1.92592 0.27177 0
M  V30 5101 O 497.472 -1.81167 -0.74007 0
M  V30 5102 C 497.771 -2.35021 2.69258 0
M  V30 5103 C 497.437 -1.85755 4.1086 0
M  V30 5104 C 496.099 -1.72038 4.49395 0
M  V30 5105 C 498.451 -1.48844 4.99495 0
M  V30 5106 C 495.779 -1.19783 5.74342 0
M  V30 5107 C 498.131 -0.980422 6.24956 0
M  V30 5108 C 496.795 -0.829622 6.62324 0
M  V30 5109 H 496.065 -0.460505 0.580531 0
M  V30 5110 H 498.712 -0.559716 1.83138 0
M  V30 5111 H 497.017 -3.10672 2.38726 0
M  V30 5112 H 498.714 -2.93083 2.73685 0
M  V30 5113 H 495.304 -1.9739 3.80441 0
M  V30 5114 H 499.488 -1.5829 4.70381 0
M  V30 5115 H 494.744 -1.06817 6.01997 0
M  V30 5116 H 498.918 -0.685608 6.93017 0
M  V30 5117 H 496.545 -0.42253 7.59025 0
M  V30 5118 N 498.12 -1.38341 -0.754957 0
M  V30 5119 C 499.531 -1.30803 -1.3322 0
M  V30 5120 C 499.882 0.0368 -1.96165 0
M  V30 5121 O 499.007 0.938844 -1.94974 0
M  V30 5122 C 499.602 -2.3688 -2.42225 0
M  V30 5123 C 498.161 -2.32925 -2.95674 0
M  V30 5124 C 497.308 -2.19819 -1.69042 0
M  V30 5125 H 500.259 -1.48719 -0.553937 0
M  V30 5126 H 500.28 -2.02517 -3.22129 0
M  V30 5127 H 499.792 -3.34747 -1.96383 0
M  V30 5128 H 497.893 -1.38635 -3.45848 0
M  V30 5129 H 498.006 -3.27008 -3.50146 0
M  V30 5130 H 496.37 -1.66648 -1.92615 0
M  V30 5131 H 497.153 -3.19625 -1.25279 0
M  V30 5132 N 499.598 0.982988 -1.23187 0
M  V30 5133 C 500.826 1.75921 -1.08901 0
M  V30 5134 C 501.241 1.85341 0.359719 0
M  V30 5135 O 500.598 1.33072 1.24892 0
M  V30 5136 C 500.649 3.18742 -1.70545 0
M  V30 5137 O 500.37 3.09814 -3.09753 0
M  V30 5138 C 501.871 4.1277 -1.61667 0
M  V30 5139 H 499.091 0.552166 -0.381252 0
M  V30 5140 H 501.635 1.23516 -1.62985 0
M  V30 5141 H 499.79 3.68182 -1.20501 0
M  V30 5142 H 500.204 3.99703 -3.39614 0
M  V30 5143 H 501.678 5.10697 -2.09506 0
M  V30 5144 H 502.155 4.3542 -0.575009 0
M  V30 5145 H 502.761 3.69232 -2.11064 0
M  V30 5146 N 501.076 1.04316 1.18135 0
M  V30 5147 C 502.006 0.657299 2.24058 0
M  V30 5148 C 502.987 -0.340678 1.66654 0
M  V30 5149 O 504.172 -0.220223 1.92947 0
M  V30 5150 C 501.302 0.0220715 3.47293 0
M  V30 5151 C 500.256 0.943857 4.17463 0
M  V30 5152 C 499.582 0.172973 5.3442 0
M  V30 5153 C 500.882 2.26409 4.70677 0
M  V30 5154 H 502.576 1.5428 2.56589 0
M  V30 5155 H 500.122 0.743263 1.23335 0
M  V30 5156 H 502.075 -0.259607 4.206 0
M  V30 5157 H 500.799 -0.898323 3.14003 0
M  V30 5158 H 499.458 1.20996 3.46057 0
M  V30 5159 H 499.106 -0.749907 4.97379 0
M  V30 5160 H 498.806 0.787098 5.82304 0
M  V30 5161 H 500.33 -0.101628 6.10515 0
M  V30 5162 H 501.744 2.04294 5.35665 0
M  V30 5163 H 500.141 2.8314 5.29105 0
M  V30 5164 H 501.211 2.90883 3.87962 0
M  V30 5165 N 502.554 -1.34406 0.822964 0
M  V30 5166 C 503.782 -2.02508 0.424039 0
M  V30 5167 C 504.197 -1.61975 -0.970022 0
M  V30 5168 O 503.554 -0.825228 -1.62777 0
M  V30 5169 C 503.605 -3.57789 0.516657 0
M  V30 5170 O 503.326 -3.96853 1.85577 0
M  V30 5171 C 504.827 -4.43157 0.112637 0
M  V30 5172 H 502.047 -0.649063 0.170173 0
M  V30 5173 H 504.591 -1.7168 1.11113 0
M  V30 5174 H 502.746 -3.87207 -0.122353 0
M  V30 5175 H 503.16 -4.91538 1.83005 0
M  V30 5176 H 504.634 -5.51527 0.228526 0
M  V30 5177 H 505.111 -4.28939 -0.943837 0
M  V30 5178 H 505.717 -4.19067 0.725449 0
M  V30 5179 N 504.032 -0.577932 -1.46621 0
M  V30 5180 C 504.962 0.145917 -2.33044 0
M  V30 5181 C 505.943 0.888412 -1.45056 0
M  V30 5182 O 507.128 0.864812 -1.73881 0
M  V30 5183 C 504.258 1.16322 -3.27241 0
M  V30 5184 C 503.212 0.535868 -4.24632 0
M  V30 5185 C 502.538 1.65929 -5.08303 0
M  V30 5186 C 503.838 -0.523861 -5.19666 0
M  V30 5187 H 505.532 -0.575636 -2.93814 0
M  V30 5188 H 503.078 -0.278272 -1.41286 0
M  V30 5189 H 505.031 1.67793 -3.86553 0
M  V30 5190 H 503.755 1.91498 -2.64567 0
M  V30 5191 H 502.414 0.0422759 -3.66576 0
M  V30 5192 H 502.062 2.40061 -4.42018 0
M  V30 5193 H 501.762 1.2452 -5.74255 0
M  V30 5194 H 503.286 2.17686 -5.70478 0
M  V30 5195 H 504.7 -0.0944059 -5.73222 0
M  V30 5196 H 503.097 -0.858 -5.93935 0
M  V30 5197 H 504.167 -1.41197 -4.63887 0
M  V30 5198 N 505.51 1.54411 -0.315457 0
M  V30 5199 C 506.921 1.85885 0.174265 0
M  V30 5200 C 507.272 1.23723 1.52273 0
M  V30 5201 O 506.397 0.540246 2.09548 0
M  V30 5202 C 506.992 3.37257 0.322981 0
M  V30 5203 C 505.551 3.68711 0.756922 0
M  V30 5204 C 504.698 2.77013 -0.126195 0
M  V30 5205 H 507.649 1.49374 -0.536007 0
M  V30 5206 H 507.67 3.62539 1.15522 0
M  V30 5207 H 507.182 3.82471 -0.658602 0
M  V30 5208 H 505.283 3.29024 1.74854 0
M  V30 5209 H 505.396 4.75741 0.566291 0
M  V30 5210 H 503.76 2.51588 0.39692 0
M  V30 5211 H 504.543 3.25051 -1.1044 0
M  V30 5212 N 506.988 0.0434614 1.5754 0
M  V30 5213 C 508.265 -0.671479 1.83713 0
M  V30 5214 C 508.645 -1.89495 0.930315 0
M  V30 5215 O 507.993 -2.28498 -0.0105639 0
M  V30 5216 C 508.203 -1.0361 3.33266 0
M  V30 5217 C 509.551 -1.42167 4.00092 0
M  V30 5218 O 510.575 -1.12866 3.37846 0
M  V30 5219 O 509.434 -1.96817 5.09829 0
M  V30 5220 H 506.528 -0.330726 0.75799 0
M  V30 5221 H 509.074 0.0722373 1.69546 0
M  V30 5222 H 507.846 -0.165938 3.90948 0
M  V30 5223 H 507.469 -1.83751 3.52592 0
M  V30 5224 N 508.466 -1.55915 -0.229846 0
M  V30 5225 C 509.694 -1.82617 -0.972562 0
M  V30 5226 C 510.109 -0.621488 -1.78278 0
M  V30 5227 O 509.466 0.409956 -1.77836 0
M  V30 5228 C 509.517 -3.0774 -1.89679 0
M  V30 5229 O 509.238 -4.23559 -1.11934 0
M  V30 5230 C 510.739 -3.47368 -2.75409 0
M  V30 5231 H 507.959 -0.60727 -0.285419 0
M  V30 5232 H 510.503 -2.02996 -0.247579 0
M  V30 5233 H 508.658 -2.89361 -2.57583 0
M  V30 5234 H 509.072 -4.94586 -1.74599 0
M  V30 5235 H 510.546 -4.37977 -3.35977 0
M  V30 5236 H 511.023 -2.68737 -3.47386 0
M  V30 5237 H 511.629 -3.68158 -2.12931 0
M  V30 5238 N 509.944 0.496216 -1.49584 0
M  V30 5239 C 510.854 1.62352 -1.69349 0
M  V30 5240 C 511.87 1.64184 -0.576147 0
M  V30 5241 O 513.046 1.82517 -0.85144 0
M  V30 5242 C 510.111 2.98698 -1.76013 0
M  V30 5243 C 509.172 3.07454 -2.99617 0
M  V30 5244 C 508.405 4.37296 -3.05953 0
M  V30 5245 O 508.628 5.2637 -2.19752 0
M  V30 5246 O 507.562 4.51124 -3.9846 0
M  V30 5247 H 511.388 1.48606 -2.64859 0
M  V30 5248 H 508.973 0.673022 -1.33382 0
M  V30 5249 H 510.855 3.79725 -1.82721 0
M  V30 5250 H 509.53 3.12696 -0.836828 0
M  V30 5251 H 508.437 2.25597 -2.98424 0
M  V30 5252 H 509.77 2.98385 -3.91443 0
M  V30 5253 N 511.423 1.38739 0.74761 0
M  V30 5254 C 512.669 1.3648 1.50814 0
M  V30 5255 C 513.024 -0.0431982 1.92351 0
M  V30 5256 O 512.317 -1.0071 1.62997 0
M  V30 5257 C 512.511 2.25992 2.7688 0
M  V30 5258 C 512.34 3.75354 2.47668 0
M  V30 5259 C 511.11 4.44348 2.40589 0
M  V30 5260 C 513.308 4.67642 2.14046 0
M  V30 5261 N 511.29 5.79114 2.03715 0
M  V30 5262 C 512.661 5.90965 1.87512 0
M  V30 5263 C 514.716 4.55787 2.00407 0
M  V30 5264 C 513.419 7.03759 1.48714 0
M  V30 5265 C 515.445 5.68491 1.63011 0
M  V30 5266 C 514.807 6.90879 1.37353 0
M  V30 5267 H 510.906 0.554695 0.551214 0
M  V30 5268 H 513.49 1.7418 0.870033 0
M  V30 5269 H 511.661 1.9047 3.3849 0
M  V30 5270 H 513.393 2.14815 3.42982 0
M  V30 5271 H 510.148 3.97634 2.57262 0
M  V30 5272 H 510.572 6.504 1.87906 0
M  V30 5273 H 515.214 3.61712 2.18916 0
M  V30 5274 H 512.932 7.97746 1.28945 0
M  V30 5275 H 516.518 5.613 1.53081 0
M  V30 5276 H 515.398 7.76609 1.08848 0
M  V30 5277 N 512.901 -0.976442 1.23707 0
M  V30 5278 C 513.849 -2.09078 1.01927 0
M  V30 5279 C 514.843 -1.69345 -0.0430193 0
M  V30 5280 O 516.049 -1.79659 0.110814 0
M  V30 5281 H 512.424 -0.68398 0.312531 0
M  V30 5282 H 514.395 -2.24614 1.96447 0
M  V30 5283 C 513.144 -3.41919 0.631385 0
M  V30 5284 H 512.467 -3.72946 1.44053 0
M  V30 5285 H 513.907 -4.20817 0.518532 0
M  V30 5286 C 512.366 -3.30357 -0.660723 0
M  V30 5287 O 512.896 -3.63542 -1.70881 0
M  V30 5288 N 511.102 -2.83507 -0.638139 0
M  V30 5289 H 510.649 -2.567 0.215108 0
M  V30 5290 H 510.607 -2.76153 -1.50289 0
M  V30 5291 N 514.379 -1.04941 -1.1758 0
M  V30 5292 C 515.604 -0.778253 -1.92245 0
M  V30 5293 C 516.029 0.659707 -1.76152 0
M  V30 5294 O 515.387 1.45803 -1.07755 0
M  V30 5295 C 515.435 -1.16051 -3.41416 0
M  V30 5296 O 514.539 -0.291153 -4.11371 0
M  V30 5297 H 513.88 -0.285619 -0.599431 0
M  V30 5298 H 516.41 -1.40159 -1.49052 0
M  V30 5299 H 516.42 -1.12619 -3.92149 0
M  V30 5300 H 515.095 -2.208 -3.52449 0
M  V30 5301 H 513.672 -0.385851 -3.70898 0
M  V30 5302 N 515.857 1.33968 -0.830081 0
M  V30 5303 C 516.767 2.33164 -0.259207 0
M  V30 5304 C 517.783 1.62951 0.610164 0
M  V30 5305 O 518.959 1.94668 0.516369 0
M  V30 5306 C 516.024 3.42088 0.563598 0
M  V30 5307 C 515.085 4.28037 -0.329014 0
M  V30 5308 C 514.318 5.3176 0.454616 0
M  V30 5309 O 514.541 5.44876 1.6872 0
M  V30 5310 O 513.475 6.01669 -0.166794 0
M  V30 5311 H 517.301 2.83832 -1.08041 0
M  V30 5312 H 514.886 1.37154 -0.59239 0
M  V30 5313 H 516.768 4.08581 1.03147 0
M  V30 5314 H 515.443 2.93651 1.36201 0
M  V30 5315 H 514.35 3.64443 -0.844538 0
M  V30 5316 H 515.683 4.79934 -1.09196 0
M  V30 5317 N 517.335 0.585699 1.46312 0
M  V30 5318 C 518.751 0.247607 1.57668 0
M  V30 5319 C 518.951 -1.25007 1.58037 0
M  V30 5320 O 518.007 -2.03196 1.49893 0
M  V30 5321 C 519.32 0.899456 2.86933 0
M  V30 5322 C 520.868 0.873326 3.00569 0
M  V30 5323 C 521.343 1.50477 4.32574 0
M  V30 5324 N 522.834 1.46925 4.3928 0
M  V30 5325 C 523.569 1.92719 5.40044 0
M  V30 5326 N 523.065 2.46499 6.47464 0
M  V30 5327 N 524.858 1.83617 5.31264 0
M  V30 5328 H 517.009 1.55841 1.44317 0
M  V30 5329 H 519.272 0.651564 0.688599 0
M  V30 5330 H 518.978 1.95313 2.92482 0
M  V30 5331 H 518.852 0.409476 3.74971 0
M  V30 5332 H 521.239 -0.171736 2.946 0
M  V30 5333 H 521.32 1.40136 2.13999 0
M  V30 5334 H 520.964 2.54905 4.39302 0
M  V30 5335 H 520.894 0.951944 5.17924 0
M  V30 5336 H 523.385 1.07616 3.62253 0
M  V30 5337 H 523.698 2.79291 7.20567 0
M  V30 5338 H 522.043 2.50526 6.48276 0
M  V30 5339 H 525.234 1.41358 4.46246 0
M  V30 5340 H 525.407 2.19622 6.09648 0
M  V30 5341 N 518.813 -1.54241 0.323641 0
M  V30 5342 C 520.062 -1.9975 -0.279806 0
M  V30 5343 C 520.375 -1.2156 -1.5324 0
M  V30 5344 O 521.581 -1.57447 -2.21185 0
M  V30 5345 C 520.037 -3.55686 -0.549115 0
M  V30 5346 C 519.645 -4.4271 0.686432 0
M  V30 5347 C 521.389 -4.09663 -1.11251 0
M  V30 5348 C 519.296 -5.90119 0.389022 0
M  V30 5349 H 518.226 -0.746177 -0.10833 0
M  V30 5350 H 520.877 -1.78248 0.435877 0
M  V30 5351 H 519.259 -3.73176 -1.32499 0
M  V30 5352 H 520.433 -4.36996 1.46188 0
M  V30 5353 H 518.748 -3.99623 1.17005 0
M  V30 5354 H 521.345 -5.17386 -1.34965 0
M  V30 5355 H 521.688 -3.61651 -2.06191 0
M  V30 5356 H 522.221 -3.95806 -0.39782 0
M  V30 5357 H 518.96 -6.42326 1.30759 0
M  V30 5358 H 518.48 -5.98785 -0.348722 0
M  V30 5359 H 520.159 -6.47 -0.0011164 0
M  V30 5360 N 520.291 -0.0518155 -1.57515 0
M  V30 5361 C 521.531 0.625712 -1.94587 0
M  V30 5362 C 521.895 1.6797 -0.930053 0
M  V30 5363 O 523.096 2.41135 -1.18774 0
M  V30 5364 C 521.367 1.20574 -3.36447 0
M  V30 5365 S 522.926 1.90118 -3.95475 0
M  V30 5366 H 519.744 0.205434 -0.680675 0
M  V30 5367 H 522.346 -0.120906 -1.95126 0
M  V30 5368 H 521.05 0.426521 -4.08178 0
M  V30 5369 H 520.581 1.98916 -3.39405 0
M  V30 5370 H 522.596 3.18184 -3.80753 0
M  V30 5371 N 521.769 1.56035 0.221574 0
M  V30 5372 C 522.994 1.83476 0.967026 0
M  V30 5373 C 523.419 0.632139 1.7716 0
M  V30 5374 O 522.777 -0.419082 1.7639 0
M  V30 5375 C 522.825 3.08907 1.86034 0
M  V30 5376 O 521.929 2.876 2.95567 0
M  V30 5377 H 521.27 0.604913 0.273817 0
M  V30 5378 H 523.8 2.03247 0.234893 0
M  V30 5379 H 523.81 3.3901 2.27016 0
M  V30 5380 H 522.485 3.96068 1.26898 0
M  V30 5381 H 521.062 2.6873 2.58532 0
M  V30 5382 N 523.247 -0.488276 1.49845 0
M  V30 5383 C 524.177 -1.59675 1.70371 0
M  V30 5384 C 525.158 -1.60878 0.552473 0
M  V30 5385 O 526.343 -1.77417 0.78973 0
M  V30 5386 C 523.473 -2.98098 1.782 0
M  V30 5387 C 522.427 -3.11761 2.93239 0
M  V30 5388 C 521.753 -4.51661 2.86193 0
M  V30 5389 C 523.053 -2.90589 4.33999 0
M  V30 5390 H 524.747 -1.42752 2.63177 0
M  V30 5391 H 522.293 -0.685317 1.26647 0
M  V30 5392 H 524.246 -3.75555 1.91144 0
M  V30 5393 H 522.97 -3.16138 0.820018 0
M  V30 5394 H 521.629 -2.36732 2.79917 0
M  V30 5395 H 521.277 -4.66595 1.87877 0
M  V30 5396 H 520.977 -4.61742 3.63412 0
M  V30 5397 H 522.501 -5.31162 3.01163 0
M  V30 5398 H 523.915 -3.57807 4.47936 0
M  V30 5399 H 522.312 -3.1213 5.12538 0
M  V30 5400 H 523.382 -1.86595 4.4756 0
M  V30 5401 N 524.725 -1.39134 -0.740242 0
M  V30 5402 C 526.136 -1.32208 -1.31825 0
M  V30 5403 C 526.487 0.0159919 -1.96193 0
M  V30 5404 O 525.612 0.918111 -1.95958 0
M  V30 5405 C 526.207 -2.39436 -2.39699 0
M  V30 5406 C 524.766 -2.36048 -2.93187 0
M  V30 5407 C 523.913 -2.21599 -1.66701 0
M  V30 5408 H 526.864 -1.49298 -0.538133 0
M  V30 5409 H 526.885 -2.05922 -3.19963 0
M  V30 5410 H 526.397 -3.36811 -1.92821 0
M  V30 5411 H 524.498 -1.42295 -3.44359 0
M  V30 5412 H 524.611 -3.30704 -3.46658 0
M  V30 5413 H 522.975 -1.68681 -1.90837 0
M  V30 5414 H 523.758 -3.20936 -1.21882 0
M  V30 5415 N 526.204 0.969867 -1.24223 0
M  V30 5416 C 527.134 2.08191 -1.05729 0
M  V30 5417 C 528.115 1.70075 0.0290765 0
M  V30 5418 O 529.3 1.93712 -0.137583 0
M  V30 5419 C 526.43 3.40991 -0.658995 0
M  V30 5420 C 525.384 3.93054 -1.69389 0
M  V30 5421 C 524.71 5.22171 -1.15072 0
M  V30 5422 C 526.01 4.21137 -3.08935 0
M  V30 5423 H 527.704 2.23921 -1.98746 0
M  V30 5424 H 525.25 1.07602 -0.956967 0
M  V30 5425 H 527.203 4.18221 -0.51662 0
M  V30 5426 H 525.927 3.25155 0.30686 0
M  V30 5427 H 524.586 3.17977 -1.82444 0
M  V30 5428 H 524.234 5.02694 -0.175539 0
M  V30 5429 H 523.934 5.57973 -1.84229 0
M  V30 5430 H 525.458 6.02013 -1.02042 0
M  V30 5431 H 526.872 4.8908 -2.99121 0
M  V30 5432 H 525.269 4.68163 -3.75425 0
M  V30 5433 H 526.339 3.27996 -3.57137 0
M  V30 5434 N 527.682 1.05563 1.17022 0
M  V30 5435 C 528.929 0.767937 1.87374 0
M  V30 5436 C 529.257 -0.705224 1.81265 0
M  V30 5437 O 528.512 -1.5318 1.21796 0
M  V30 5438 C 528.811 1.19849 3.36706 0
M  V30 5439 C 528.477 2.6745 3.63017 0
M  V30 5440 C 527.139 3.0777 3.69907 0
M  V30 5441 C 529.491 3.62811 3.74189 0
M  V30 5442 C 526.819 4.42307 3.85463 0
M  V30 5443 C 529.171 4.97087 3.91264 0
M  V30 5444 C 527.835 5.37055 3.96394 0
M  V30 5445 H 527.105 0.281008 0.68565 0
M  V30 5446 H 529.752 1.32339 1.38415 0
M  V30 5447 H 528.057 0.562096 3.87747 0
M  V30 5448 H 529.754 0.953038 3.8951 0
M  V30 5449 H 526.344 2.35228 3.58282 0
M  V30 5450 H 530.528 3.32798 3.68183 0
M  V30 5451 H 525.784 4.72769 3.87684 0
M  V30 5452 H 529.958 5.70869 3.9885 0
M  V30 5453 H 527.585 6.41308 4.082 0
M  V30 5454 N 529.16 -1.33526 0.837174 0
M  V30 5455 C 530.571 -1.80182 0.489017 0
M  V30 5456 C 530.922 -1.69285 -0.991826 0
M  V30 5457 O 530.047 -1.24113 -1.77271 0
M  V30 5458 C 530.642 -3.27149 0.880866 0
M  V30 5459 C 529.201 -3.71828 0.584872 0
M  V30 5460 C 528.348 -2.54974 1.09011 0
M  V30 5461 H 531.299 -1.21071 1.02603 0
M  V30 5462 H 531.32 -3.80024 0.190239 0
M  V30 5463 H 530.832 -3.35048 1.95869 0
M  V30 5464 H 528.933 -3.69457 -0.48295 0
M  V30 5465 H 529.046 -4.65366 1.13892 0
M  V30 5466 H 527.41 -2.4952 0.511047 0
M  V30 5467 H 528.193 -2.65637 2.17467 0
M  V30 5468 N 530.638 -0.59345 -1.46 0
M  V30 5469 C 531.915 -0.0157933 -1.95594 0
M  V30 5470 C 532.295 1.44807 -1.53604 0
M  V30 5471 O 531.643 2.14342 -0.791824 0
M  V30 5472 C 531.853 -0.199081 -3.48432 0
M  V30 5473 C 533.201 -0.0724943 -4.24538 0
M  V30 5474 O 534.225 -0.128469 -3.55968 0
M  V30 5475 O 533.084 0.0542426 -5.46473 0
M  V30 5476 H 530.178 0.043749 -0.825842 0
M  V30 5477 H 532.724 -0.662522 -1.56233 0
M  V30 5478 H 531.496 -1.21631 -3.71916 0
M  V30 5479 H 531.119 0.483576 -3.94648 0
M  V30 5480 N 532.116 1.54067 -0.331816 0
M  V30 5481 C 533.049 2.20886 0.573127 0
M  V30 5482 C 534.027 1.18876 1.10938 0
M  V30 5483 O 535.211 1.47649 1.17184 0
M  V30 5484 C 532.338 2.87706 1.78726 0
M  V30 5485 C 531.384 4.03505 1.38152 0
M  V30 5486 S 532.217 5.33919 0.41123 0
M  V30 5487 C 533.373 6.04236 1.63246 0
M  V30 5488 H 533.606 2.97299 0.00555737 0
M  V30 5489 H 531.139 1.53964 -0.115893 0
M  V30 5490 H 533.097 3.26825 2.48386 0
M  V30 5491 H 531.758 2.1108 2.32603 0
M  V30 5492 H 530.951 4.49152 2.28645 0
M  V30 5493 H 530.553 3.66102 0.764524 0
M  V30 5494 H 532.845 6.26917 2.56869 0
M  V30 5495 H 533.788 6.97546 1.218 0
M  V30 5496 H 534.196 5.34247 1.82318 0
M  V30 5497 N 533.594 0.0601682 1.57485 0
M  V30 5498 C 534.822 -0.620937 1.97363 0
M  V30 5499 C 535.237 -1.63846 0.938082 0
M  V30 5500 O 534.594 -1.82339 -0.0766578 0
M  V30 5501 C 534.645 -1.29987 3.37321 0
M  V30 5502 O 534.366 -0.323081 4.36907 0
M  V30 5503 C 535.867 -2.06989 3.92008 0
M  V30 5504 H 533.087 -0.169135 0.649334 0
M  V30 5505 H 535.631 0.129132 2.04092 0
M  V30 5506 H 533.786 -2.0011 3.31715 0
M  V30 5507 H 534.2 -0.808754 5.18227 0
M  V30 5508 H 535.674 -2.49901 4.92192 0
M  V30 5509 H 536.151 -2.92173 3.2792 0
M  V30 5510 H 536.757 -1.41757 4.0098 0
M  V30 5511 N 535.072 -1.5615 -0.213296 0
M  V30 5512 C 535.982 -1.96265 -1.28519 0
M  V30 5513 C 536.998 -0.86765 -1.50824 0
M  V30 5514 O 538.174 -1.17191 -1.63793 0
M  V30 5515 C 535.239 -2.27836 -2.61327 0
M  V30 5516 C 534.3 -3.50949 -2.47252 0
M  V30 5517 C 533.533 -3.81004 -3.73727 0
M  V30 5518 O 533.756 -3.12612 -4.77106 0
M  V30 5519 O 532.69 -4.74477 -3.70344 0
M  V30 5520 H 536.516 -2.87631 -0.974795 0
M  V30 5521 H 534.101 -1.43467 -0.416832 0
M  V30 5522 H 535.983 -2.49299 -3.39747 0
M  V30 5523 H 534.658 -1.39643 -2.9203 0
M  V30 5524 H 533.565 -3.34754 -1.67004 0
M  V30 5525 H 534.898 -4.39551 -2.21486 0
M  V30 5526 N 536.55 0.480323 -1.50102 0
M  V30 5527 C 537.775 1.26126 -1.64642 0
M  V30 5528 C 538.2 1.85257 -0.325823 0
M  V30 5529 O 537.558 1.66854 0.709194 0
M  V30 5530 C 537.606 2.35243 -2.73301 0
M  V30 5531 O 536.71 3.39646 -2.33911 0
M  V30 5532 H 536.051 0.371463 -0.550374 0
M  V30 5533 H 538.581 0.572696 -1.96421 0
M  V30 5534 H 538.591 2.80695 -2.96098 0
M  V30 5535 H 537.266 1.91574 -3.6915 0
M  V30 5536 H 535.843 2.99969 -2.21525 0
M  V30 5537 N 538.028 1.39524 0.732853 0
M  V30 5538 C 539.305 1.27373 1.48444 0
M  V30 5539 C 539.685 -0.115725 2.10783 0
M  V30 5540 O 539.033 -1.12713 1.98766 0
M  V30 5541 C 539.243 2.39966 2.53412 0
M  V30 5542 C 540.591 2.79384 3.19733 0
M  V30 5543 O 541.615 2.39431 2.63725 0
M  V30 5544 O 540.474 3.48353 4.21085 0
M  V30 5545 H 537.568 0.499272 0.659285 0
M  V30 5546 H 540.114 1.51403 0.766496 0
M  V30 5547 H 538.886 3.32845 2.05742 0
M  V30 5548 H 538.509 2.17612 3.32762 0
M  V30 5549 N 539.506 -0.963266 1.24736 0
M  V30 5550 C 540.753 -1.7068 1.0897 0
M  V30 5551 C 541.081 -1.90934 -0.370751 0
M  V30 5552 O 540.336 -1.47155 -1.29011 0
M  V30 5553 C 540.635 -3.09944 1.7796 0
M  V30 5554 C 540.301 -3.09518 3.27887 0
M  V30 5555 C 538.963 -3.09109 3.68789 0
M  V30 5556 C 541.315 -3.03509 4.23712 0
M  V30 5557 C 538.643 -3.00429 5.03944 0
M  V30 5558 C 540.995 -2.96371 5.5888 0
M  V30 5559 C 539.659 -2.94293 5.99123 0
M  V30 5560 H 538.929 -0.624564 0.398749 0
M  V30 5561 H 541.576 -1.12603 1.54896 0
M  V30 5562 H 539.881 -3.71513 1.2444 0
M  V30 5563 H 541.578 -3.66278 1.63222 0
M  V30 5564 H 538.168 -3.10603 2.95337 0
M  V30 5565 H 542.352 -3.0295 3.93109 0
M  V30 5566 H 537.608 -2.97183 5.34314 0
M  V30 5567 H 541.782 -2.90681 6.32833 0
M  V30 5568 H 539.409 -2.87322 7.03811 0
M  V30 5569 N 540.985 -1.06182 -1.16461 0
M  V30 5570 C 542.262 -0.691364 -1.82974 0
M  V30 5571 C 542.642 0.827377 -1.9421 0
M  V30 5572 O 541.99 1.73723 -1.48434 0
M  V30 5573 C 542.2 -1.39199 -3.20038 0
M  V30 5574 C 543.548 -1.53647 -3.95825 0
M  V30 5575 O 544.572 -1.35181 -3.29552 0
M  V30 5576 O 543.431 -1.83932 -5.14618 0
M  V30 5577 H 540.525 -0.244605 -0.789998 0
M  V30 5578 H 543.071 -1.16203 -1.23673 0
M  V30 5579 H 541.843 -2.42766 -3.06888 0
M  V30 5580 H 541.466 -0.911335 -3.87015 0
M  V30 5581 N 542.463 1.3308 -0.844243 0
M  V30 5582 C 543.879 1.50447 -0.532729 0
M  V30 5583 C 544.079 1.78292 0.938837 0
M  V30 5584 O 543.135 1.84635 1.72239 0
M  V30 5585 C 544.448 2.65555 -1.41072 0
M  V30 5586 C 545.996 2.7944 -1.41005 0
M  V30 5587 C 546.471 3.97616 -2.27301 0
M  V30 5588 N 547.962 4.0486 -2.2504 0
M  V30 5589 C 548.697 4.95508 -2.88547 0
M  V30 5590 N 548.193 5.91236 -3.61126 0
M  V30 5591 N 549.986 4.88548 -2.77989 0
M  V30 5592 H 542.137 1.13269 -1.79677 0
M  V30 5593 H 544.4 0.55734 -0.766861 0
M  V30 5594 H 544.106 2.51675 -2.45668 0
M  V30 5595 H 543.98 3.61089 -1.09061 0
M  V30 5596 H 546.367 2.92749 -0.371784 0
M  V30 5597 H 546.448 1.8465 -1.77026 0
M  V30 5598 H 546.092 3.85066 -3.3119 0
M  V30 5599 H 546.022 4.91661 -1.88619 0
M  V30 5600 H 548.513 3.36353 -1.72264 0
M  V30 5601 H 548.826 6.57079 -4.06776 0
M  V30 5602 H 547.171 5.91295 -3.65234 0
M  V30 5603 H 550.362 4.12729 -2.20846 0
M  V30 5604 H 550.535 5.58994 -3.27765 0
M  V30 5605 N 543.941 0.601185 1.45683 0
M  V30 5606 C 545.187 0.0940202 2.02582 0
M  V30 5607 C 545.52 -1.26972 1.46941 0
M  V30 5608 O 544.795 -1.83613 0.641612 0
M  V30 5609 C 545.078 0.0481715 3.60068 0
M  V30 5610 C 544.931 1.44212 4.26055 0
M  V30 5611 C 546.25 -0.642975 4.35378 0
M  V30 5612 H 543.369 0.0356404 0.736138 0
M  V30 5613 H 546.011 0.771929 1.73612 0
M  V30 5614 H 544.161 -0.529128 3.8488 0
M  V30 5615 H 545.833 2.06601 4.12449 0
M  V30 5616 H 544.076 2.00465 3.84703 0
M  V30 5617 H 544.747 1.36234 5.34925 0
M  V30 5618 H 547.223 -0.152351 4.15821 0
M  V30 5619 H 546.099 -0.644141 5.45107 0
M  V30 5620 H 546.36 -1.70785 4.0778 0
M  V30 5621 N 545.419 -1.53889 0.339982 0
M  V30 5622 C 546.668 -2.00035 -0.258604 0
M  V30 5623 C 546.981 -1.23179 -1.51942 0
M  V30 5624 O 548.187 -1.59784 -2.19503 0
M  V30 5625 C 546.643 -3.56249 -0.511359 0
M  V30 5626 C 546.251 -4.41957 0.733349 0
M  V30 5627 C 547.995 -4.1082 -1.069 0
M  V30 5628 C 545.902 -5.89673 0.451591 0
M  V30 5629 H 544.832 -0.747284 -0.10041 0
M  V30 5630 H 547.483 -1.77776 0.454758 0
M  V30 5631 H 545.865 -3.7456 -1.28533 0
M  V30 5632 H 547.039 -4.35421 1.50815 0
M  V30 5633 H 545.354 -3.9836 1.21237 0
M  V30 5634 H 547.951 -5.18789 -1.2947 0
M  V30 5635 H 548.294 -3.63817 -2.02343 0
M  V30 5636 H 548.827 -3.96205 -0.355817 0
M  V30 5637 H 545.566 -6.40903 1.37565 0
M  V30 5638 H 545.086 -5.99122 -0.285193 0
M  V30 5639 H 546.765 -6.46965 0.0675067 0
M  V30 5640 N 546.897 -0.0685191 -1.57451 0
M  V30 5641 C 548.125 0.610462 -1.97689 0
M  V30 5642 C 548.54 1.63346 -0.946758 0
M  V30 5643 O 547.897 1.82377 0.0669868 0
M  V30 5644 C 547.948 1.28196 -3.38006 0
M  V30 5645 O 547.669 0.299906 -4.37072 0
M  V30 5646 C 549.17 2.04907 -3.931 0
M  V30 5647 H 546.39 0.165689 -0.650222 0
M  V30 5648 H 548.934 -0.139953 -2.04021 0
M  V30 5649 H 547.089 1.98348 -3.32771 0
M  V30 5650 H 547.503 0.78126 -5.18649 0
M  V30 5651 H 548.977 2.47287 -4.93511 0
M  V30 5652 H 549.454 2.9043 -3.29465 0
M  V30 5653 H 550.06 1.39629 -4.01726 0
M  V30 5654 N 548.375 1.56261 0.205012 0
M  V30 5655 C 549.338 1.92908 1.23771 0
M  V30 5656 C 550.338 0.809208 1.38955 0
M  V30 5657 O 551.528 1.07676 1.36936 0
M  V30 5658 C 548.66 2.19442 2.60879 0
M  V30 5659 H 549.853 2.85287 0.924728 0
M  V30 5660 H 547.406 1.49798 0.446125 0
M  V30 5661 H 548.141 1.29668 2.97248 0
M  V30 5662 H 547.926 3.0104 2.51232 0
M  V30 5663 H 549.416 2.48833 3.35368 0
M  V30 5664 N 549.853 -0.472356 1.50355 0
M  V30 5665 C 550.783 -1.57859 1.72055 0
M  V30 5666 C 551.764 -1.60283 0.569505 0
M  V30 5667 O 552.949 -1.7657 0.808503 0
M  V30 5668 C 550.079 -2.96191 1.81351 0
M  V30 5669 C 549.033 -3.08633 2.96529 0
M  V30 5670 C 548.359 -4.486 2.90968 0
M  V30 5671 C 549.659 -2.85969 4.37057 0
M  V30 5672 H 551.353 -1.39953 2.64676 0
M  V30 5673 H 548.899 -0.671846 1.27367 0
M  V30 5674 H 550.852 -3.73507 1.95117 0
M  V30 5675 H 549.576 -3.15251 0.853502 0
M  V30 5676 H 548.235 -2.33749 2.82413 0
M  V30 5677 H 547.883 -4.64577 1.92815 0
M  V30 5678 H 547.583 -4.57861 3.68289 0
M  V30 5679 H 549.107 -5.27938 3.0678 0
M  V30 5680 H 550.521 -3.53036 4.51706 0
M  V30 5681 H 548.918 -3.06677 5.15819 0
M  V30 5682 H 549.988 -1.81838 4.49514 0
M  V30 5683 N 551.331 -1.39911 -0.725443 0
M  V30 5684 C 552.281 -1.35878 -1.83088 0
M  V30 5685 C 553.265 -0.237989 -1.5913 0
M  V30 5686 O 554.457 -0.476302 -1.70471 0
M  V30 5687 C 551.586 -1.21403 -3.21117 0
M  V30 5688 C 550.672 -2.38223 -3.50871 0
M  V30 5689 N 551.063 -3.63703 -3.51502 0
M  V30 5690 C 549.361 -2.31388 -3.81281 0
M  V30 5691 C 550.062 -4.4101 -3.79322 0
M  V30 5692 N 549.038 -3.7072 -3.97577 0
M  V30 5693 H 552.84 -2.3085 -1.81895 0
M  V30 5694 H 550.354 -1.33543 -0.924125 0
M  V30 5695 H 552.351 -1.16597 -4.00263 0
M  V30 5696 H 551.011 -0.273902 -3.23543 0
M  V30 5697 H 552.022 -3.96998 -3.32586 0
M  V30 5698 H 548.699 -1.45689 -3.91256 0
M  V30 5699 H 550.089 -5.49819 -3.86198 0
M  V30 5700 N 552.809 0.956637 -1.25245 0
M  V30 5701 C 553.741 2.05628 -1.01242 0
M  V30 5702 C 554.754 1.62785 0.0219579 0
M  V30 5703 O 555.943 1.77184 -0.216365 0
M  V30 5704 C 553.043 3.35069 -0.508161 0
M  V30 5705 C 552.216 4.06761 -1.60823 0
M  V30 5706 C 551.275 5.14473 -1.1047 0
M  V30 5707 O 550.301 5.40033 -1.79868 0
M  V30 5708 N 551.503 5.80474 0.0550773 0
M  V30 5709 H 554.268 2.2679 -1.95925 0
M  V30 5710 H 551.829 1.12505 -1.16423 0
M  V30 5711 H 553.821 4.044 -0.155819 0
M  V30 5712 H 552.391 3.10694 0.344683 0
M  V30 5713 H 551.611 3.31555 -2.13224 0
M  V30 5714 H 552.899 4.51418 -2.34733 0
M  V30 5715 H 552.297 5.62125 0.635004 0
M  V30 5716 H 550.854 6.50868 0.348469 0
M  V30 5717 N 554.287 1.06798 1.15896 0
M  V30 5718 C 555.536 0.782796 1.8589 0
M  V30 5719 C 555.849 -0.693498 1.82893 0
M  V30 5720 O 557.055 -1.09325 2.48516 0
M  V30 5721 C 555.511 1.3502 3.33613 0
M  V30 5722 C 555.119 2.8571 3.45071 0
M  V30 5723 C 556.863 1.14278 4.08829 0
M  V30 5724 C 554.77 3.35669 4.86909 0
M  V30 5725 H 553.7 0.289149 0.696354 0
M  V30 5726 H 556.351 1.28734 1.30766 0
M  V30 5727 H 554.733 0.773407 3.88374 0
M  V30 5728 H 555.907 3.49385 3.00445 0
M  V30 5729 H 554.222 3.05178 2.83294 0
M  V30 5730 H 556.819 1.49087 5.13495 0
M  V30 5731 H 557.162 0.0814575 4.1622 0
M  V30 5732 H 557.695 1.68563 3.60321 0
M  V30 5733 H 554.434 4.41302 4.84698 0
M  V30 5734 H 553.954 2.76745 5.32139 0
M  V30 5735 H 555.633 3.31296 5.55745 0
M  V30 5736 N 555.766 -1.3263 0.851289 0
M  V30 5737 C 556.729 -2.27247 0.298541 0
M  V30 5738 C 557.729 -1.51467 -0.539847 0
M  V30 5739 O 558.919 -1.7061 -0.351843 0
M  V30 5740 C 556.051 -3.35964 -0.578004 0
M  V30 5741 H 557.244 -2.7765 1.13359 0
M  V30 5742 H 554.797 -1.43245 0.625354 0
M  V30 5743 H 555.532 -2.90823 -1.435 0
M  V30 5744 H 555.317 -3.92094 0.0220539 0
M  V30 5745 H 556.807 -4.06472 -0.957626 0
M  V30 5746 N 557.244 -0.608902 -1.45362 0
M  V30 5747 C 558.492 -0.104401 -2.0183 0
M  V30 5748 C 558.813 1.27007 -1.47967 0
M  V30 5749 O 558.083 1.83924 -0.674455 0
M  V30 5750 H 556.663 -0.0356042 -0.746151 0
M  V30 5751 H 559.325 -0.790596 -1.78145 0
M  V30 5752 H 558.421 -0.0551793 -3.12051 0
M  V30 5753 N 558.722 1.53707 -0.348139 0
M  V30 5754 C 559.654 2.22725 0.540946 0
M  V30 5755 C 560.667 1.2354 1.06027 0
M  V30 5756 O 561.856 1.49867 0.96964 0
M  V30 5757 C 558.956 2.89756 1.75768 0
M  V30 5758 C 558.129 4.15297 1.37285 0
M  V30 5759 C 557.188 4.65697 2.44976 0
M  V30 5760 O 556.214 5.29798 2.08092 0
M  V30 5761 N 557.416 4.42017 3.763 0
M  V30 5762 H 560.181 2.99658 -0.0501592 0
M  V30 5763 H 557.742 1.60979 -0.17248 0
M  V30 5764 H 559.734 3.20388 2.47252 0
M  V30 5765 H 558.304 2.16382 2.25605 0
M  V30 5766 H 557.524 3.9116 0.488584 0
M  V30 5767 H 558.812 4.96948 1.09179 0
M  V30 5768 H 558.21 3.9076 4.09051 0
M  V30 5769 H 556.767 4.77242 4.4394 0
M  V30 5770 O 560.239 0.216617 1.60041 0
M  V30 5771 H 560.93 -0.364805 1.90234 0
M  V30 END ATOM
M  V30 BEGIN BOND
M  V30 END BOND
M  V30 END CTAB
M  END
$$$$
