drugbank_drug|DB08904 Amino acid sequence of the heavy chain
 OpenBabel12092119123D

  0  0  0     0  0            999 V3000
M  V30 BEGIN CTAB
M  V30 COUNTS 3382 3425 0 0 0
M  V30 BEGIN ATOM
M  V30 1 H -0.908 1.98254 -0.117106 0
M  V30 2 N 0 1.576 0 0
M  V30 3 C 0.91 2.11853 1.00774 0
M  V30 4 C 1.926 1.06379 1.37693 0
M  V30 5 O 3.102 1.3828 1.46426 0
M  V30 6 C 0.167 2.61108 2.28087 0
M  V30 7 C -0.772 3.81183 1.9748 0
M  V30 8 C -1.539 4.28079 3.18723 0
M  V30 9 O -1.316 3.74307 4.30407 0
M  V30 10 O -2.382 5.20234 3.02721 0
M  V30 11 H 1.444 2.98177 0.576547 0
M  V30 12 H -0.971 1.47789 0.218828 0
M  V30 13 H 0.911 2.92987 3.0288 0
M  V30 14 H -0.414 1.77881 2.70444 0
M  V30 15 H -1.507 3.54277 1.20162 0
M  V30 16 H -0.174 4.65482 1.5996 0
M  V30 17 N 1.4781 -0.272755 1.55222 0
M  V30 18 C 2.7241 -1.00581 1.761 0
M  V30 19 C 3.0571 -1.85932 0.560625 0
M  V30 20 O 2.3321 -1.89416 -0.441801 0
M  V30 21 C 2.6151 -1.88816 3.06628 0
M  V30 22 C 2.4681 -1.06457 4.37021 0
M  V30 23 C 3.7871 -2.8752 3.33197 0
M  V30 24 H 0.9061 -0.364244 0.640699 0
M  V30 25 H 3.5481 -0.278189 1.87952 0
M  V30 26 H 1.6981 -2.50856 2.96654 0
M  V30 27 H 3.3701 -0.464863 4.58952 0
M  V30 28 H 1.6131 -0.368043 4.32236 0
M  V30 29 H 2.2841 -1.71514 5.24678 0
M  V30 30 H 4.7601 -2.35615 3.42965 0
M  V30 31 H 3.6361 -3.46399 4.25792 0
M  V30 32 H 3.8971 -3.62657 2.52849 0
M  V30 33 N 2.9562 -1.48159 -0.537278 0
M  V30 34 C 3.8882 -1.58218 -1.65831 0
M  V30 35 C 4.9012 -0.466948 -1.5596 0
M  V30 36 O 6.0902 -0.73747 -1.62553 0
M  V30 37 C 3.1902 -1.48906 -3.04434 0
M  V30 38 C 2.3632 -2.75343 -3.3986 0
M  V30 39 C 1.4222 -2.59588 -4.57712 0
M  V30 40 O 0.4482 -3.33457 -4.61297 0
M  V30 41 N 1.6502 -1.68724 -5.55439 0
M  V30 42 H 4.4152 -2.54891 -1.57641 0
M  V30 43 H 1.9762 -1.4479 -0.724386 0
M  V30 44 H 3.9682 -1.36072 -3.81139 0
M  V30 45 H 2.5382 -0.602368 -3.06741 0
M  V30 46 H 1.7582 -3.02795 -2.52406 0
M  V30 47 H 3.0462 -3.5924 -3.60311 0
M  V30 48 H 2.4442 -1.07898 -5.55315 0
M  V30 49 H 1.0012 -1.61832 -6.3139 0
M  V30 50 N 4.4343 0.785586 -1.36625 0
M  V30 51 C 5.3643 1.91259 -1.33949 0
M  V30 52 C 6.3453 1.68795 -0.210325 0
M  V30 53 O 7.5303 1.89854 -0.408561 0
M  V30 54 C 4.6603 3.28339 -1.13186 0
M  V30 55 C 3.6143 3.65335 -2.22967 0
M  V30 56 C 2.9403 5.00806 -1.87342 0
M  V30 57 C 4.2403 3.7352 -3.65075 0
M  V30 58 H 5.9343 1.93755 -2.28253 0
M  V30 59 H 3.4803 0.930788 -1.09874 0
M  V30 60 H 5.4333 4.06804 -1.09948 0
M  V30 61 H 4.1573 3.2624 -0.153332 0
M  V30 62 H 2.8163 2.89169 -2.25337 0
M  V30 63 H 2.4643 4.95233 -0.880545 0
M  V30 64 H 2.1643 5.26529 -2.60846 0
M  V30 65 H 3.6883 5.81687 -1.85667 0
M  V30 66 H 5.1023 4.42168 -3.64911 0
M  V30 67 H 3.4993 4.10731 -4.37516 0
M  V30 68 H 4.5693 2.74527 -3.99703 0
M  V30 69 N 5.9124 1.20967 1.01018 0
M  V30 70 C 7.1584 1.02526 1.74975 0
M  V30 71 C 7.4914 -0.4408 1.89131 0
M  V30 72 O 6.7664 -1.32718 1.42184 0
M  V30 73 C 7.0494 1.71699 3.1653 0
M  V30 74 C 6.9024 3.25791 3.10129 0
M  V30 75 C 8.2214 1.45531 4.15342 0
M  V30 76 H 5.3404 0.373863 0.635134 0
M  V30 77 H 7.9824 1.49071 1.17805 0
M  V30 78 H 6.1324 1.32128 3.65341 0
M  V30 79 H 7.8044 3.74697 2.69072 0
M  V30 80 H 6.0474 3.56363 2.47362 0
M  V30 81 H 6.7184 3.69353 4.10222 0
M  V30 82 H 9.1944 1.79872 3.75213 0
M  V30 83 H 8.0704 1.96453 5.1254 0
M  V30 84 H 8.3314 0.384237 4.40427 0
M  V30 85 N 7.3905 -1.2043 1.01659 0
M  V30 86 C 8.3005 -2.2689 0.596484 0
M  V30 87 C 9.3165 -1.70107 -0.36599 0
M  V30 88 O 10.4925 -2.00117 -0.226942 0
M  V30 89 C 7.5575 -3.4665 -0.0586659 0
M  V30 90 C 6.6185 -4.18662 0.949751 0
M  V30 91 C 5.8515 -5.32705 0.32577 0
M  V30 92 O 6.0745 -5.63656 -0.874509 0
M  V30 93 O 5.0085 -5.92803 1.04249 0
M  V30 94 H 8.8345 -2.65041 1.4828 0
M  V30 95 H 6.4195 -1.27048 0.786082 0
M  V30 96 H 8.3015 -4.19256 -0.424564 0
M  V30 97 H 6.9765 -3.10375 -0.91918 0
M  V30 98 H 5.8835 -3.48229 1.36702 0
M  V30 99 H 7.2165 -4.58878 1.78023 0
M  V30 100 N 8.8686 -0.792821 -1.36206 0
M  V30 101 C 10.0936 -0.377701 -2.03932 0
M  V30 102 C 10.5186 0.998947 -1.59382 0
M  V30 103 O 9.8766 1.64421 -0.763903 0
M  V30 104 C 9.9246 -0.453635 -3.57735 0
M  V30 105 O 9.0286 0.538151 -4.08874 0
M  V30 106 H 8.3696 -0.159855 -0.644471 0
M  V30 107 H 10.8996 -1.07488 -1.7409 0
M  V30 108 H 10.9096 -0.318464 -4.06755 0
M  V30 109 H 9.5846 -1.45784 -3.89512 0
M  V30 110 H 8.1616 0.364359 -3.71116 0
M  V30 111 N 10.3467 1.47872 -0.545128 0
M  V30 112 C 11.5947 2.02093 -0.016553 0
M  V30 113 C 11.9157 1.42305 1.3332 0
M  V30 114 O 11.1857 0.593853 1.86682 0
M  V30 115 H 9.7657 0.746993 -0.00313038 0
M  V30 116 H 12.4277 1.81414 -0.712397 0
M  V30 117 H 11.5237 3.11996 0.0805422 0
M  V30 118 N 11.8248 0.280983 1.55075 0
M  V30 119 C 13.0728 -0.333455 1.9933 0
M  V30 120 C 13.3938 -1.55937 1.17085 0
M  V30 121 O 12.6638 -1.94143 0.261805 0
M  V30 122 H 11.2438 -0.126197 0.736263 0
M  V30 123 H 13.9058 0.387678 1.91005 0
M  V30 124 H 13.0018 -0.619292 3.05894 0
M  V30 125 N 13.3029 -1.57598 0.00835791 0
M  V30 126 C 14.5509 -1.90551 -0.6734 0
M  V30 127 C 14.8719 -0.883301 -1.73847 0
M  V30 128 O 14.1419 0.0781442 -1.95744 0
M  V30 129 H 12.7219 -0.703312 -0.251717 0
M  V30 130 H 15.3839 -1.94833 0.0512592 0
M  V30 131 H 14.4799 -2.9056 -1.13935 0
M  V30 132 N 14.781 0.264519 -1.55364 0
M  V30 133 C 15.711 1.33121 -1.91836 0
M  V30 134 C 16.692 1.51101 -0.781192 0
M  V30 135 O 17.877 1.64003 -1.04003 0
M  V30 136 C 15.007 2.68921 -2.19769 0
M  V30 137 C 13.961 2.65661 -3.35571 0
M  V30 138 C 13.287 4.05093 -3.49004 0
M  V30 139 C 14.587 2.24187 -4.71739 0
M  V30 140 H 16.281 1.02844 -2.81182 0
M  V30 141 H 13.827 0.493286 -1.35287 0
M  V30 142 H 15.78 3.43663 -2.43872 0
M  V30 143 H 14.504 3.00799 -1.27231 0
M  V30 144 H 13.163 1.93377 -3.1145 0
M  V30 145 H 12.811 4.34206 -2.53917 0
M  V30 146 H 12.511 4.03804 -4.26868 0
M  V30 147 H 14.035 4.81561 -3.75408 0
M  V30 148 H 15.449 2.88654 -4.9533 0
M  V30 149 H 13.846 2.34044 -5.52579 0
M  V30 150 H 14.916 1.19327 -4.69988 0
M  V30 151 N 16.2591 1.48442 0.529413 0
M  V30 152 C 17.5051 1.5672 1.28711 0
M  V30 153 C 17.8381 0.2406 1.92704 0
M  V30 154 O 17.1131 -0.753454 1.79313 0
M  V30 155 C 17.3961 2.70587 2.37603 0
M  V30 156 C 17.2491 4.12953 1.78297 0
M  V30 157 C 18.5681 2.80212 3.39366 0
M  V30 158 H 15.6871 0.570474 0.466613 0
M  V30 159 H 18.3291 1.80617 0.589706 0
M  V30 160 H 16.4791 2.50342 2.97088 0
M  V30 161 H 18.1511 4.44639 1.22858 0
M  V30 162 H 16.3941 4.19927 1.0883 0
M  V30 163 H 17.0651 4.88448 2.57144 0
M  V30 164 H 19.5411 2.98553 2.89836 0
M  V30 165 H 18.4171 3.61611 4.12951 0
M  V30 166 H 18.6781 1.88393 3.99951 0
M  V30 167 N 17.7372 -0.778329 1.37039 0
M  V30 168 C 18.6692 -1.90034 1.2814 0
M  V30 169 C 19.6822 -1.61585 0.198558 0
M  V30 170 O 20.8712 -1.72625 0.454175 0
M  V30 171 C 17.9712 -3.25108 0.956968 0
M  V30 172 C 17.1442 -3.81253 2.14394 0
M  V30 173 C 16.2032 -4.94789 1.79082 0
M  V30 174 O 15.2292 -5.10721 2.51301 0
M  V30 175 N 16.4312 -5.75878 0.731043 0
M  V30 176 H 19.1962 -1.98186 2.24816 0
M  V30 177 H 16.7572 -0.957129 1.30578 0
M  V30 178 H 18.7492 -3.9857 0.701701 0
M  V30 179 H 17.3192 -3.125 0.0789812 0
M  V30 180 H 16.5392 -2.99647 2.56135 0
M  V30 181 H 17.8272 -4.15495 2.93668 0
M  V30 182 H 17.2252 -5.65547 0.131618 0
M  V30 183 H 15.7822 -6.49596 0.535622 0
M  V30 184 N 19.2153 -1.21501 -1.00376 0
M  V30 185 C 20.6263 -1.03146 -1.55621 0
M  V30 186 C 20.9773 0.408375 -1.91903 0
M  V30 187 O 20.1023 1.29177 -1.73616 0
M  V30 188 C 20.6973 -1.86612 -2.82775 0
M  V30 189 C 19.2563 -1.72586 -3.34501 0
M  V30 190 C 18.4033 -1.83747 -2.07683 0
M  V30 191 H 21.3543 -1.35505 -0.826081 0
M  V30 192 H 21.3753 -1.3771 -3.54706 0
M  V30 193 H 20.8873 -2.91399 -2.56336 0
M  V30 194 H 18.9883 -0.704877 -3.65872 0
M  V30 195 H 19.1013 -2.54623 -4.05837 0
M  V30 196 H 17.4653 -1.27069 -2.20739 0
M  V30 197 H 18.2483 -2.90044 -1.83655 0
M  V30 198 N 20.6934 1.19889 -1.02296 0
M  V30 199 C 21.9414 1.89046 -0.714558 0
M  V30 200 C 22.2624 1.79636 0.758681 0
M  V30 201 O 21.5324 1.20292 1.54618 0
M  V30 202 H 20.1124 0.699802 -0.261317 0
M  V30 203 H 22.7744 1.45574 -1.29592 0
M  V30 204 H 21.8704 2.95524 -1.0036 0
M  V30 205 N 22.1715 0.800033 1.35784 0
M  V30 206 C 23.4195 0.376597 1.9856 0
M  V30 207 C 23.7405 -1.05812 1.63795 0
M  V30 208 O 23.0105 -1.73103 0.917171 0
M  V30 209 H 21.5905 0.136261 0.734467 0
M  V30 210 H 24.2525 1.02442 1.65806 0
M  V30 211 H 23.3485 0.477002 3.08433 0
M  V30 212 N 23.6496 -1.47581 0.552962 0
M  V30 213 C 24.8746 -2.07378 0.0300593 0
M  V30 214 C 25.2996 -1.40355 -1.25229 0
M  V30 215 O 24.6576 -0.477099 -1.7491 0
M  V30 216 C 24.7056 -3.60274 -0.153231 0
M  V30 217 O 23.8096 -3.94041 -1.21678 0
M  V30 218 H 23.1506 -0.662158 0.0494182 0
M  V30 219 H 25.6806 -1.89662 0.767434 0
M  V30 220 H 25.6906 -4.0633 -0.368761 0
M  V30 221 H 24.3656 -4.08455 0.783397 0
M  V30 222 H 22.9426 -3.59735 -0.982079 0
M  V30 223 N 25.1277 -0.289203 -1.54924 0
M  V30 224 C 26.0577 0.58549 -2.2604 0
M  V30 225 C 27.0387 1.14753 -1.25562 0
M  V30 226 O 28.2237 1.17906 -1.54311 0
M  V30 227 C 25.3537 1.76305 -2.99222 0
M  V30 228 C 24.3077 1.33191 -4.06748 0
M  V30 229 C 23.6337 2.5937 -4.6758 0
M  V30 230 C 24.9337 0.471775 -5.20165 0
M  V30 231 H 26.6277 -0.00763532 -2.99399 0
M  V30 232 H 24.1737 -0.00511229 -1.43999 0
M  V30 233 H 26.1267 2.38097 -3.47689 0
M  V30 234 H 24.8507 2.38223 -2.23422 0
M  V30 235 H 23.5097 0.737121 -3.59113 0
M  V30 236 H 23.1577 3.19576 -3.88433 0
M  V30 237 H 22.8577 2.31228 -5.40192 0
M  V30 238 H 24.3817 3.21985 -5.18804 0
M  V30 239 H 25.7957 0.995056 -5.64599 0
M  V30 240 H 24.1927 0.284639 -5.99425 0
M  V30 241 H 25.2627 -0.506041 -4.82252 0
M  V30 242 N 26.6058 1.57591 -0.0167156 0
M  V30 243 C 28.0218 1.55946 0.339557 0
M  V30 244 C 28.2218 1.02109 1.73713 0
M  V30 245 O 27.2778 0.662303 2.43659 0
M  V30 246 C 28.5908 3.00037 0.199499 0
M  V30 247 C 30.1388 3.11805 0.273193 0
M  V30 248 C 30.6138 4.57713 0.162068 0
M  V30 249 N 32.1048 4.6268 0.219444 0
M  V30 250 C 32.8398 5.73185 0.157054 0
M  V30 251 N 32.3358 6.92786 0.0442936 0
M  V30 252 N 34.1288 5.61707 0.21014 0
M  V30 253 H 26.2798 1.90921 -0.930758 0
M  V30 254 H 28.5428 0.877674 -0.358319 0
M  V30 255 H 28.2488 3.4333 -0.76273 0
M  V30 256 H 28.1228 3.64387 0.974786 0
M  V30 257 H 30.5098 2.68433 1.22587 0
M  V30 258 H 30.5908 2.50201 -0.532256 0
M  V30 259 H 30.2348 5.01763 -0.78714 0
M  V30 260 H 30.1648 5.17283 0.986222 0
M  V30 261 H 32.6558 3.76649 0.307246 0
M  V30 262 H 32.9688 7.728 0.00304069 0
M  V30 263 H 31.3138 6.94999 0.00968457 0
M  V30 264 H 34.5048 4.6716 0.296546 0
M  V30 265 H 34.6778 6.47807 0.158054 0
M  V30 266 N 28.0839 -0.256276 1.55502 0
M  V30 267 C 29.0139 -1.32102 1.92539 0
M  V30 268 C 29.9949 -1.50684 0.789194 0
M  V30 269 O 31.1799 -1.63449 1.04872 0
M  V30 270 C 28.3099 -2.67752 2.21192 0
M  V30 271 C 27.2639 -2.63878 3.36975 0
M  V30 272 C 26.5899 -4.03236 3.51147 0
M  V30 273 C 27.8899 -2.21682 4.72921 0
M  V30 274 H 29.5839 -1.01351 2.81724 0
M  V30 275 H 27.1299 -0.486105 1.35547 0
M  V30 276 H 29.0829 -3.42365 2.45691 0
M  V30 277 H 27.8069 -3.0012 1.28824 0
M  V30 278 H 26.4659 -1.91722 3.12471 0
M  V30 279 H 26.1139 -4.32854 2.56216 0
M  V30 280 H 25.8139 -4.01535 4.29003 0
M  V30 281 H 27.3379 -4.79563 3.77957 0
M  V30 282 H 28.7519 -2.86023 4.96854 0
M  V30 283 H 27.1489 -2.3111 5.53812 0
M  V30 284 H 28.2189 -1.16833 4.70615 0
M  V30 285 N 29.562 -1.4872 -0.521534 0
M  V30 286 C 30.787 -1.61101 -1.30618 0
M  V30 287 C 31.212 -0.274611 -1.86085 0
M  V30 288 O 30.57 0.754937 -1.64834 0
M  V30 289 C 30.618 -2.66709 -2.4269 0
M  V30 290 O 29.722 -2.24456 -3.45967 0
M  V30 291 H 29.063 -0.539921 -0.386499 0
M  V30 292 H 31.593 -1.94767 -0.626645 0
M  V30 293 H 31.603 -2.88245 -2.88754 0
M  V30 294 H 30.278 -3.63727 -2.01682 0
M  V30 295 H 28.855 -2.13168 -3.05964 0
M  V30 296 N 31.0401 0.771051 -1.3745 0
M  V30 297 C 32.2801 1.54264 -1.34096 0
M  V30 298 C 32.6441 1.91858 0.0737639 0
M  V30 299 O 33.8451 2.67797 0.23203 0
M  V30 300 C 32.1161 2.77326 -2.25445 0
M  V30 301 S 33.6751 3.67383 -2.39948 0
M  V30 302 H 30.4931 0.528122 -0.476034 0
M  V30 303 H 33.0951 0.906633 -1.73206 0
M  V30 304 H 31.7991 2.47788 -3.27153 0
M  V30 305 H 31.3301 3.45886 -1.87421 0
M  V30 306 H 33.3451 4.69334 -1.61059 0
M  V30 307 N 32.5182 1.22032 0.997298 0
M  V30 308 C 33.4812 0.987909 2.06816 0
M  V30 309 C 34.4812 -0.0440084 1.6074 0
M  V30 310 O 35.6712 0.194053 1.73116 0
M  V30 311 C 32.8032 0.49132 3.37341 0
M  V30 312 H 33.9962 1.93803 2.28868 0
M  V30 313 H 31.5492 1.03838 1.16822 0
M  V30 314 H 32.2842 -0.463364 3.20973 0
M  V30 315 H 32.0692 1.23575 3.72118 0
M  V30 316 H 33.5592 0.348824 4.16141 0
M  V30 317 N 33.9963 -1.19345 1.0293 0
M  V30 318 C 34.9593 -2.20793 0.615069 0
M  V30 319 C 35.9593 -1.57553 -0.321533 0
M  V30 320 O 37.1493 -1.73862 -0.108483 0
M  V30 321 C 34.2813 -3.40754 -0.0999222 0
M  V30 322 H 35.4743 -2.58955 1.51269 0
M  V30 323 H 33.0273 -1.3303 0.820534 0
M  V30 324 H 33.7623 -3.0811 -1.01187 0
M  V30 325 H 33.5473 -3.87889 0.57309 0
M  V30 326 H 35.0373 -4.15898 -0.376645 0
M  V30 327 N 35.4744 -0.807222 -1.35358 0
M  V30 328 C 36.6994 -0.399309 -2.0352 0
M  V30 329 C 37.1244 0.981986 -1.60433 0
M  V30 330 O 36.4824 1.63601 -0.781299 0
M  V30 331 C 36.5304 -0.491552 -3.57234 0
M  V30 332 O 35.6344 0.494754 -4.09421 0
M  V30 333 H 34.9754 -0.166682 -0.642739 0
M  V30 334 H 37.5054 -1.09328 -1.72941 0
M  V30 335 H 37.5154 -0.361588 -4.06395 0
M  V30 336 H 36.1904 -1.49907 -3.87944 0
M  V30 337 H 34.7674 0.324977 -3.71481 0
M  V30 338 N 36.9525 1.47285 -0.560781 0
M  V30 339 C 38.2005 2.02064 -0.0379868 0
M  V30 340 C 38.5215 1.43711 1.31803 0
M  V30 341 O 37.7915 0.61362 1.86042 0
M  V30 342 H 36.3715 0.746918 -0.0110531 0
M  V30 343 H 39.0335 1.80648 -0.731598 0
M  V30 344 H 38.1295 3.12064 0.0474463 0
M  V30 345 N 38.4306 0.297415 1.54768 0
M  V30 346 C 39.6606 -0.315165 2.04182 0
M  V30 347 C 40.0686 -1.4834 1.17439 0
M  V30 348 O 39.4116 -1.82695 0.191891 0
M  V30 349 C 39.4736 -0.837583 3.49607 0
M  V30 350 C 39.1376 0.204912 4.5654 0
M  V30 351 C 40.1346 1.03214 5.09552 0
M  V30 352 C 37.8196 0.345578 5.0111 0
M  V30 353 C 39.8136 1.986 6.05671 0
M  V30 354 C 37.5006 1.30289 5.97049 0
M  V30 355 C 38.4986 2.12159 6.49213 0
M  V30 356 O 38.1866 3.06268 7.43273 0
M  V30 357 H 37.9186 -0.0729646 0.672051 0
M  V30 358 H 40.4726 0.433907 2.00765 0
M  V30 359 H 38.7026 -1.63712 3.50336 0
M  V30 360 H 40.3916 -1.36566 3.82236 0
M  V30 361 H 41.1576 0.934312 4.75916 0
M  V30 362 H 37.0366 -0.28171 4.60138 0
M  V30 363 H 40.5806 2.62542 6.46311 0
M  V30 364 H 36.4776 1.40145 6.30103 0
M  V30 365 H 37.2456 3.01205 7.61064 0
M  V30 366 N 39.9087 -1.5758 0.0250728 0
M  V30 367 C 41.1547 -1.91917 -0.655413 0
M  V30 368 C 41.4877 -0.901433 -1.72011 0
M  V30 369 O 40.7627 0.0764069 -1.9435 0
M  V30 370 C 41.0457 -3.36751 -1.27558 0
M  V30 371 C 40.8987 -4.49258 -0.220719 0
M  V30 372 C 42.2177 -3.81469 -2.19475 0
M  V30 373 H 39.3367 -0.697925 -0.23679 0
M  V30 374 H 41.9787 -1.89825 0.0815036 0
M  V30 375 H 40.1287 -3.38664 -1.90365 0
M  V30 376 H 41.8007 -4.59478 0.409601 0
M  V30 377 H 40.0437 -4.31415 0.454264 0
M  V30 378 H 40.7147 -5.47618 -0.694175 0
M  V30 379 H 43.1907 -3.81266 -1.66659 0
M  V30 380 H 42.0667 -4.83512 -2.59822 0
M  V30 381 H 42.3277 -3.16744 -3.08424 0
M  V30 382 N 41.3868 0.248026 -1.55636 0
M  V30 383 C 42.6338 0.976224 -1.77415 0
M  V30 384 C 42.9618 1.85361 -0.589193 0
M  V30 385 O 42.2168 1.90973 0.427529 0
M  V30 386 C 42.5158 1.86819 -3.04686 0
M  V30 387 C 42.1818 1.14625 -4.36087 0
M  V30 388 C 40.8438 0.946723 -4.71795 0
M  V30 389 C 43.1958 0.634463 -5.17324 0
M  V30 390 C 40.5238 0.223091 -5.86276 0
M  V30 391 C 42.8758 -0.0756959 -6.32555 0
M  V30 392 C 41.5398 -0.286711 -6.66884 0
M  V30 393 H 40.8098 0.357226 -0.649208 0
M  V30 394 H 43.4568 0.246415 -1.89908 0
M  V30 395 H 41.7618 2.66502 -2.872 0
M  V30 396 H 43.4588 2.43329 -3.18735 0
M  V30 397 H 40.0488 1.3117 -4.08035 0
M  V30 398 H 44.2328 0.77616 -4.90193 0
M  V30 399 H 39.4888 0.0491185 -6.1138 0
M  V30 400 H 43.6628 -0.479899 -6.94745 0
M  V30 401 H 41.2898 -0.849389 -7.5544 0
M  V30 402 N 42.8649 1.48995 0.513639 0
M  V30 403 C 44.0929 1.61531 1.29288 0
M  V30 404 C 44.5079 0.281801 1.86685 0
M  V30 405 O 43.8649 -0.731111 1.67215 0
M  V30 406 C 43.9159 2.67449 2.43215 0
M  V30 407 O 43.6369 3.95626 1.88179 0
M  V30 408 C 45.1379 2.90575 3.34785 0
M  V30 409 H 42.3579 0.544165 0.392588 0
M  V30 410 H 44.9019 1.9494 0.617956 0
M  V30 411 H 43.0569 2.36853 3.0656 0
M  V30 412 H 43.4709 4.53868 2.62876 0
M  V30 413 H 44.9449 3.68449 4.11035 0
M  V30 414 H 45.4219 2.00011 3.91015 0
M  V30 415 H 46.0279 3.22538 2.77218 0
M  V30 416 N 44.343 -0.763751 1.37857 0
M  V30 417 C 45.62 -1.51244 1.24035 0
M  V30 418 C 46 -2.10472 -0.162649 0
M  V30 419 O 45.348 -1.96206 -1.17112 0
M  V30 420 C 45.558 -2.58694 2.34261 0
M  V30 421 C 46.906 -3.25878 2.72193 0
M  V30 422 O 47.93 -2.68993 2.33497 0
M  V30 423 O 46.789 -4.2874 3.38887 0
M  V30 424 H 43.883 -0.670243 0.484462 0
M  V30 425 H 46.429 -0.800031 1.49658 0
M  V30 426 H 45.201 -2.13105 3.2818 0
M  V30 427 H 44.824 -3.37527 2.10146 0
M  V30 428 N 45.8211 -1.22559 -0.990812 0
M  V30 429 C 47.0511 -1.07623 -1.76355 0
M  V30 430 C 47.4591 0.37601 -1.85426 0
M  V30 431 O 46.8021 1.27228 -1.32509 0
M  V30 432 C 46.8641 -1.61507 -3.21179 0
M  V30 433 C 46.5281 -3.10146 -3.35646 0
M  V30 434 C 47.5251 -4.07553 -3.22796 0
M  V30 435 C 45.2101 -3.49644 -3.60631 0
M  V30 436 C 47.2041 -5.42442 -3.34716 0
M  V30 437 C 44.8911 -4.84682 -3.72192 0
M  V30 438 C 45.8891 -5.8089 -3.59243 0
M  V30 439 O 45.5771 -7.13476 -3.70415 0
M  V30 440 H 45.3091 -0.377745 -0.560611 0
M  V30 441 H 47.8631 -1.62658 -1.25425 0
M  V30 442 H 46.0931 -1.00881 -3.73309 0
M  V30 443 H 47.7821 -1.42202 -3.80175 0
M  V30 444 H 48.5481 -3.78381 -3.03403 0
M  V30 445 H 44.4271 -2.75282 -3.69785 0
M  V30 446 H 47.9711 -6.17518 -3.24526 0
M  V30 447 H 43.8681 -5.13534 -3.91092 0
M  V30 448 H 44.6361 -7.21083 -3.87275 0
M  V30 449 N 47.2992 1.18797 -1.03562 0
M  V30 450 C 48.5472 1.88278 -0.734569 0
M  V30 451 C 48.8682 1.8043 0.739586 0
M  V30 452 O 48.1382 1.21925 1.53333 0
M  V30 453 H 46.7182 0.696991 -0.268725 0
M  V30 454 H 49.3802 1.44192 -1.31129 0
M  V30 455 H 48.4762 2.94443 -1.03489 0
M  V30 456 N 48.7773 0.814389 1.34928 0
M  V30 457 C 49.7103 0.175641 2.27523 0
M  V30 458 C 50.6883 -0.662953 1.48471 0
M  V30 459 O 51.8723 -0.628545 1.77712 0
M  V30 460 C 48.9993 -0.755516 3.30166 0
M  V30 461 C 48.0453 0.00445305 4.265 0
M  V30 462 S 48.8783 1.34582 5.18313 0
M  V30 463 C 50.0343 0.419315 6.24494 0
M  V30 464 H 50.2673 0.960691 2.8135 0
M  V30 465 H 47.8003 0.609846 1.41846 0
M  V30 466 H 49.7583 -1.28723 3.89796 0
M  V30 467 H 48.4193 -1.51402 2.75202 0
M  V30 468 H 47.6123 -0.703077 4.99072 0
M  V30 469 H 47.2143 0.466447 3.7108 0
M  V30 470 H 49.5063 -0.392432 6.76362 0
M  V30 471 H 50.4493 1.11446 6.99275 0
M  V30 472 H 50.8573 0.0115389 5.64499 0
M  V30 473 N 50.2554 -1.46986 0.568584 0
M  V30 474 C 51.2034 -2.31858 -0.185649 0
M  V30 475 C 52.1974 -1.43624 -0.898249 0
M  V30 476 O 53.4034 -1.60327 -0.818242 0
M  V30 477 H 49.7784 -0.747866 -0.0787399 0
M  V30 478 H 51.7494 -2.93303 0.549191 0
M  V30 479 C 50.4984 -3.26513 -1.19519 0
M  V30 480 H 49.8214 -3.94377 -0.656285 0
M  V30 481 H 51.2614 -3.88707 -1.6936 0
M  V30 482 C 49.7204 -2.50847 -2.24894 0
M  V30 483 O 50.2504 -2.26119 -3.32014 0
M  V30 484 N 48.4564 -2.11656 -1.99124 0
M  V30 485 H 48.0034 -2.31966 -1.12024 0
M  V30 486 H 47.9614 -1.61347 -2.69842 0
M  V30 487 N 51.7335 -0.305618 -1.54608 0
M  V30 488 C 52.9795 0.295595 -2.01241 0
M  V30 489 C 53.3345 1.51171 -1.19018 0
M  V30 490 O 52.6275 1.89832 -0.259684 0
M  V30 491 C 52.8215 0.698983 -3.50498 0
M  V30 492 C 52.6505 -0.476491 -4.47168 0
M  V30 493 C 51.4205 -0.969963 -4.95903 0
M  V30 494 C 53.6185 -1.32294 -4.96994 0
M  V30 495 N 51.6005 -2.11172 -5.76437 0
M  V30 496 C 52.9715 -2.31212 -5.75275 0
M  V30 497 C 55.0265 -1.35278 -4.7917 0
M  V30 498 C 53.7295 -3.32896 -6.37631 0
M  V30 499 C 55.7555 -2.35823 -5.42348 0
M  V30 500 C 55.1175 -3.33469 -6.20466 0
M  V30 501 H 51.2165 0.0724992 -0.778632 0
M  V30 502 H 53.8005 -0.436583 -1.89742 0
M  V30 503 H 51.9715 1.40032 -3.62278 0
M  V30 504 H 53.7035 1.28013 -3.8392 0
M  V30 505 H 50.4585 -0.544178 -4.70463 0
M  V30 506 H 50.8825 -2.68714 -6.21387 0
M  V30 507 H 55.5245 -0.61157 -4.18354 0
M  V30 508 H 53.2425 -4.07933 -6.97579 0
M  V30 509 H 56.8285 -2.38911 -5.30484 0
M  V30 510 H 55.7085 -4.09996 -6.68485 0
M  V30 511 N 53.2116 1.57565 -0.0334293 0
M  V30 512 C 54.4576 1.92262 0.645226 0
M  V30 513 C 54.7906 0.910543 1.71531 0
M  V30 514 O 54.0656 -0.066099 1.94388 0
M  V30 515 C 54.3486 3.37422 1.2577 0
M  V30 516 C 54.2016 4.49369 0.196891 0
M  V30 517 C 55.5206 3.82628 2.17449 0
M  V30 518 H 52.6396 0.699171 0.233085 0
M  V30 519 H 55.2816 1.89779 -0.0915694 0
M  V30 520 H 53.4316 3.39669 1.88566 0
M  V30 521 H 55.1036 4.59254 -0.433962 0
M  V30 522 H 53.3466 4.31168 -0.477137 0
M  V30 523 H 54.0176 5.47978 0.665124 0
M  V30 524 H 56.4936 3.82145 1.64634 0
M  V30 525 H 55.3696 4.84883 2.57254 0
M  V30 526 H 55.6306 3.18376 3.0674 0
M  V30 527 N 54.6897 -0.239769 1.55765 0
M  V30 528 C 56.1057 -0.588624 1.48349 0
M  V30 529 C 56.3057 -1.88005 0.72502 0
M  V30 530 O 55.3617 -2.51186 0.257269 0
M  V30 531 C 56.6747 -0.68474 2.928 0
M  V30 532 C 58.2227 -0.77659 3.03213 0
M  V30 533 C 58.6977 -0.904207 4.48986 0
M  V30 534 N 60.1887 -0.968896 4.52953 0
M  V30 535 C 60.9237 -1.08703 5.63002 0
M  V30 536 N 60.4197 -1.17026 6.82845 0
M  V30 537 N 62.2127 -1.12074 5.50814 0
M  V30 538 H 54.3637 0.607911 2.03515 0
M  V30 539 H 56.6267 0.21083 0.924259 0
M  V30 540 H 56.3327 0.194284 3.51163 0
M  V30 541 H 56.2067 -1.55435 3.43686 0
M  V30 542 H 58.5937 -1.64606 2.44926 0
M  V30 543 H 58.6747 0.118315 2.55526 0
M  V30 544 H 58.3187 -0.0392633 5.07885 0
M  V30 545 H 58.2487 -1.81426 4.9436 0
M  V30 546 H 60.7397 -0.915633 3.6664 0
M  V30 547 H 61.0527 -1.25966 7.62465 0
M  V30 548 H 59.3977 -1.13971 6.85591 0
M  V30 549 H 62.5887 -1.05226 4.5612 0
M  V30 550 H 62.7617 -1.20936 6.36615 0
M  V30 551 N 56.1678 -1.49265 -0.50573 0
M  V30 552 C 57.0998 -1.617 -1.62437 0
M  V30 553 C 58.1128 -0.499924 -1.54934 0
M  V30 554 O 59.3018 -0.771785 -1.60953 0
M  V30 555 C 56.4018 -1.5533 -3.01207 0
M  V30 556 C 55.5748 -2.8249 -3.33943 0
M  V30 557 C 54.6338 -2.69238 -4.52103 0
M  V30 558 O 53.6598 -3.43167 -4.5412 0
M  V30 559 N 54.8618 -1.80468 -5.51735 0
M  V30 560 H 57.6268 -2.58177 -1.52199 0
M  V30 561 H 55.1878 -1.46294 -0.693511 0
M  V30 562 H 57.1798 -1.44125 -3.78167 0
M  V30 563 H 55.7498 -0.667297 -3.05395 0
M  V30 564 H 54.9698 -3.08081 -2.45926 0
M  V30 565 H 56.2578 -3.66802 -3.5261 0
M  V30 566 H 55.6558 -1.19653 -5.52901 0
M  V30 567 H 54.2128 -1.75188 -6.27816 0
M  V30 568 N 57.6459 0.756429 -1.3826 0
M  V30 569 C 58.6089 1.85176 -1.35065 0
M  V30 570 C 59.6089 1.58818 -0.251703 0
M  V30 571 O 60.7989 1.66615 -0.508433 0
M  V30 572 C 57.9309 3.22596 -1.10201 0
M  V30 573 H 59.1239 1.89417 -2.3251 0
M  V30 574 H 56.6769 0.95783 -1.23512 0
M  V30 575 H 57.4119 3.24025 -0.133504 0
M  V30 576 H 57.1969 3.43122 -1.89762 0
M  V30 577 H 58.6869 4.02673 -1.10654 0
M  V30 578 N 59.124 1.23083 0.984299 0
M  V30 579 C 60.535 1.05609 1.5396 0
M  V30 580 C 60.886 -0.377793 1.92528 0
M  V30 581 O 60.011 -1.26398 1.75649 0
M  V30 582 C 60.606 1.91087 2.7977 0
M  V30 583 C 59.165 1.77885 3.31713 0
M  V30 584 C 58.312 1.87028 2.04733 0
M  V30 585 H 61.263 1.36802 0.804419 0
M  V30 586 H 61.284 1.43336 3.5247 0
M  V30 587 H 60.796 2.9544 2.51668 0
M  V30 588 H 58.897 0.762995 3.64704 0
M  V30 589 H 59.01 2.61047 4.01735 0
M  V30 590 H 57.374 1.30565 2.18689 0
M  V30 591 H 58.157 2.92929 1.79017 0
M  V30 592 N 60.6021 -1.18246 1.0419 0
M  V30 593 C 61.8501 -1.87886 0.744543 0
M  V30 594 C 62.1711 -1.8082 -0.730006 0
M  V30 595 O 61.4411 -1.22736 -1.52685 0
M  V30 596 H 60.0211 -0.695556 0.272417 0
M  V30 597 H 62.6831 -1.43494 1.31892 0
M  V30 598 H 61.7791 -2.9389 1.05049 0
M  V30 599 N 62.0802 -0.821533 -1.34494 0
M  V30 600 C 63.0272 -0.240397 -2.29545 0
M  V30 601 C 63.9972 0.634031 -1.53523 0
M  V30 602 O 65.1822 0.575966 -1.81899 0
M  V30 603 C 62.3222 0.592869 -3.39969 0
M  V30 604 C 61.4352 -0.30365 -4.30932 0
M  V30 605 C 60.5702 0.539049 -5.28458 0
M  V30 606 C 59.6092 -0.356942 -6.11058 0
M  V30 607 N 58.7462 0.446603 -7.00678 0
M  V30 608 H 63.5862 -1.05632 -2.7865 0
M  V30 609 H 61.1232 -0.532413 -1.37127 0
M  V30 610 H 63.0812 1.09129 -4.02675 0
M  V30 611 H 61.7112 1.37392 -2.92102 0
M  V30 612 H 60.7632 -0.920276 -3.691 0
M  V30 613 H 62.0752 -0.992661 -4.88823 0
M  V30 614 H 61.2292 1.102 -5.96608 0
M  V30 615 H 59.9682 1.26157 -4.71101 0
M  V30 616 H 58.9732 -0.932047 -5.41842 0
M  V30 617 H 60.1982 -1.07755 -6.70497 0
M  V30 618 H 58.1442 1.15282 -6.45791 0
M  V30 619 H 58.0612 -0.184048 -7.55776 0
M  V30 620 H 59.3292 0.992352 -7.73158 0
M  V30 621 N 63.5583 1.46682 -0.576371 0
M  V30 622 C 64.8063 2.02013 -0.0594163 0
M  V30 623 C 65.1273 1.45101 1.30271 0
M  V30 624 O 64.3973 0.633317 1.8538 0
M  V30 625 H 62.9773 0.746759 -0.0189745 0
M  V30 626 H 65.6393 1.79862 -0.750717 0
M  V30 627 H 64.7353 3.12097 0.014345 0
M  V30 628 N 65.0364 0.313813 1.54444 0
M  V30 629 C 65.9664 -0.549454 2.26943 0
M  V30 630 C 66.9474 -1.12741 1.27372 0
M  V30 631 O 68.1324 -1.15436 1.56167 0
M  V30 632 C 65.2624 -1.71523 3.01989 0
M  V30 633 C 64.2164 -1.26703 4.08816 0
M  V30 634 C 63.5424 -2.51898 4.71647 0
M  V30 635 C 64.8424 -0.388962 5.2085 0
M  V30 636 H 66.5364 0.0552661 2.99349 0
M  V30 637 H 64.0824 0.0280207 1.43973 0
M  V30 638 H 66.0354 -2.32535 3.51433 0
M  V30 639 H 64.7594 -2.34639 2.27183 0
M  V30 640 H 63.4184 -0.679896 3.6024 0
M  V30 641 H 63.0664 -3.13356 3.93468 0
M  V30 642 H 62.7664 -2.22605 5.43802 0
M  V30 643 H 64.2904 -3.1369 5.23861 0
M  V30 644 H 65.7044 -0.905107 5.6611 0
M  V30 645 H 64.1014 -0.18924 5.99802 0
M  V30 646 H 65.1714 0.582699 4.81386 0
M  V30 647 N 66.5145 -1.57545 0.0417849 0
M  V30 648 C 67.4245 -2.14451 -0.951213 0
M  V30 649 C 68.4405 -1.09992 -1.34825 0
M  V30 650 O 69.6165 -1.42114 -1.42708 0
M  V30 651 C 66.6815 -2.67063 -2.21084 0
M  V30 652 C 65.7425 -3.86284 -1.87304 0
M  V30 653 C 64.9755 -4.36378 -3.07261 0
M  V30 654 O 65.1985 -3.85587 -4.20332 0
M  V30 655 O 64.1325 -5.28077 -2.88822 0
M  V30 656 H 67.9585 -2.99601 -0.497287 0
M  V30 657 H 65.5435 -1.48317 -0.179567 0
M  V30 658 H 67.4255 -3.00914 -2.95006 0
M  V30 659 H 66.1005 -1.84989 -2.65633 0
M  V30 660 H 65.0075 -3.57338 -1.10727 0
M  V30 661 H 66.3405 -4.6956 -1.47562 0
M  V30 662 N 67.9926 0.231505 -1.5589 0
M  V30 663 C 69.2386 0.954429 -1.79617 0
M  V30 664 C 69.5936 1.82367 -0.613199 0
M  V30 665 O 68.8866 1.87524 0.393094 0
M  V30 666 C 69.0806 1.83577 -3.0665 0
M  V30 667 C 68.9096 1.05334 -4.3719 0
M  V30 668 C 67.6796 0.75225 -4.99669 0
M  V30 669 C 69.8776 0.423444 -5.12554 0
M  V30 670 N 67.8596 -0.052627 -6.13877 0
M  V30 671 C 69.2306 -0.245287 -6.19515 0
M  V30 672 C 71.2856 0.335466 -4.96769 0
M  V30 673 C 69.9886 -0.993566 -7.12405 0
M  V30 674 C 72.0146 -0.399321 -5.9005 0
M  V30 675 C 71.3766 -1.05663 -6.9643 0
M  V30 676 H 67.4756 0.329846 -0.709031 0
M  V30 677 H 70.0596 0.226172 -1.93382 0
M  V30 678 H 68.2306 2.53592 -2.94186 0
M  V30 679 H 69.9626 2.49541 -3.18608 0
M  V30 680 H 66.7176 1.06783 -4.61405 0
M  V30 681 H 67.1416 -0.443609 -6.75545 0
M  V30 682 H 71.7836 0.829311 -4.14587 0
M  V30 683 H 69.5016 -1.49896 -7.94076 0
M  V30 684 H 73.0876 -0.468265 -5.79913 0
M  V30 685 H 71.9676 -1.61612 -7.67366 0
M  V30 686 N 69.4707 1.49531 0.497807 0
M  V30 687 C 70.4037 1.61043 1.6168 0
M  V30 688 C 71.3817 0.459386 1.55976 0
M  V30 689 O 72.5657 0.675358 1.75986 0
M  V30 690 C 69.6927 1.56833 3.00202 0
M  V30 691 C 68.7387 2.77173 3.24156 0
M  V30 692 S 69.5717 4.38808 3.06933 0
M  V30 693 C 70.7277 4.37248 4.47845 0
M  V30 694 H 70.9607 2.55702 1.51671 0
M  V30 695 H 68.4937 1.38462 0.683201 0
M  V30 696 H 70.4517 1.55089 3.80076 0
M  V30 697 H 69.1127 0.634561 3.07623 0
M  V30 698 H 68.3057 2.70456 4.25288 0
M  V30 699 H 67.9077 2.76346 2.5201 0
M  V30 700 H 70.1997 4.09164 5.39992 0
M  V30 701 H 71.1427 5.38668 4.59612 0
M  V30 702 H 71.5507 3.67286 4.28674 0
M  V30 703 N 70.9488 -0.749086 1.3866 0
M  V30 704 C 72.1968 -1.50535 1.34847 0
M  V30 705 C 72.5178 -1.94909 -0.0595016 0
M  V30 706 O 71.7878 -1.67973 -1.00806 0
M  V30 707 H 70.3678 -0.558395 0.49619 0
M  V30 708 H 73.0298 -0.890165 1.73384 0
M  V30 709 H 72.1258 -2.39413 2.00219 0
M  V30 710 N 72.4269 -1.23603 -0.977757 0
M  V30 711 C 73.6729 -1.08136 -1.72274 0
M  V30 712 C 74.0279 0.377453 -1.88661 0
M  V30 713 O 73.3209 1.27552 -1.42972 0
M  V30 714 C 73.5149 -1.7433 -3.11999 0
M  V30 715 C 73.3439 -3.26498 -3.0924 0
M  V30 716 C 72.1139 -3.9567 -3.14282 0
M  V30 717 C 74.3119 -4.2323 -2.92201 0
M  V30 718 N 72.2939 -5.34799 -3.01436 0
M  V30 719 C 73.6649 -5.49289 -2.87544 0
M  V30 720 C 75.7199 -4.13931 -2.76705 0
M  V30 721 C 74.4229 -6.67116 -2.68978 0
M  V30 722 C 76.4489 -5.31424 -2.59504 0
M  V30 723 C 75.8109 -6.5641 -2.55548 0
M  V30 724 H 71.9099 -0.450247 -0.639376 0
M  V30 725 H 74.4939 -1.5637 -1.16002 0
M  V30 726 H 72.6649 -1.28624 -3.66484 0
M  V30 727 H 74.3969 -1.51815 -3.75146 0
M  V30 728 H 71.1519 -3.46767 -3.22567 0
M  V30 729 H 71.5759 -6.07748 -2.98281 0
M  V30 730 H 76.2179 -3.1807 -2.78552 0
M  V30 731 H 73.9359 -7.63109 -2.65876 0
M  V30 732 H 77.5219 -5.26072 -2.48474 0
M  V30 733 H 76.4019 -7.45795 -2.42405 0
M  V30 734 N 73.905 1.17692 -1.04816 0
M  V30 735 C 75.154 1.87192 -0.751132 0
M  V30 736 C 75.467 1.8169 0.724441 0
M  V30 737 O 76.673 2.46625 1.13527 0
M  V30 738 C 75.129 3.35857 -1.29338 0
M  V30 739 C 74.737 3.4987 -2.79812 0
M  V30 740 C 76.481 4.10709 -1.07322 0
M  V30 741 C 74.388 4.92536 -3.27356 0
M  V30 742 H 73.318 0.701162 -0.277288 0
M  V30 743 H 75.969 1.32932 -1.26496 0
M  V30 744 H 74.351 3.89631 -0.707376 0
M  V30 745 H 75.525 3.06332 -3.44235 0
M  V30 746 H 73.84 2.88433 -3.00325 0
M  V30 747 H 76.437 5.15952 -1.4035 0
M  V30 748 H 76.78 4.16299 -0.0108001 0
M  V30 749 H 77.313 3.6313 -1.62423 0
M  V30 750 H 74.052 4.92119 -4.33012 0
M  V30 751 H 73.572 5.3676 -2.67673 0
M  V30 752 H 75.251 5.61288 -3.21815 0
M  V30 753 N 75.3831 0.828654 1.34056 0
M  V30 754 C 76.3311 0.242973 2.31327 0
M  V30 755 C 77.3251 -0.61944 1.57668 0
M  V30 756 O 78.5311 -0.51014 1.7262 0
M  V30 757 H 74.9061 0.059834 0.749616 0
M  V30 758 H 76.8771 1.07809 2.78244 0
M  V30 759 C 75.6261 -0.575733 3.429 0
M  V30 760 H 74.9491 0.0785582 3.99723 0
M  V30 761 H 76.3891 -0.951547 4.13185 0
M  V30 762 C 74.8481 -1.75044 2.87856 0
M  V30 763 O 75.3781 -2.84882 2.83205 0
M  V30 764 N 73.5841 -1.56903 2.44602 0
M  V30 765 H 73.1311 -0.675547 2.48584 0
M  V30 766 H 73.0891 -2.35652 2.08124 0
M  V30 767 N 76.8612 -1.46375 0.584142 0
M  V30 768 C 78.0892 -2.06761 0.0759296 0
M  V30 769 C 78.5042 -1.43266 -1.22965 0
M  V30 770 O 77.8612 -0.538458 -1.74376 0
M  V30 771 C 77.9122 -3.61375 -0.0950384 0
M  V30 772 O 77.6332 -4.22495 1.15887 0
M  V30 773 C 79.1342 -4.38693 -0.637434 0
M  V30 774 H 76.3542 -0.668479 0.0581075 0
M  V30 775 H 78.8982 -1.8798 0.805218 0
M  V30 776 H 77.0532 -3.79578 -0.774554 0
M  V30 777 H 77.4672 -5.15385 0.973598 0
M  V30 778 H 78.9412 -5.47464 -0.706237 0
M  V30 779 H 79.4182 -4.06836 -1.65472 0
M  V30 780 H 80.0242 -4.25299 0.00725967 0
M  V30 781 N 78.3393 -0.321999 -1.54275 0
M  V30 782 C 79.5693 0.282642 -2.04658 0
M  V30 783 C 79.9773 1.46453 -1.19784 0
M  V30 784 O 79.3203 1.82367 -0.220932 0
M  V30 785 C 79.3823 0.781857 -3.50895 0
M  V30 786 C 79.0463 -0.277517 -4.56157 0
M  V30 787 C 80.0433 -1.11307 -5.07845 0
M  V30 788 C 77.7283 -0.425256 -5.00497 0
M  V30 789 C 79.7223 -2.08211 -6.02434 0
M  V30 790 C 77.4093 -1.39771 -5.94901 0
M  V30 791 C 78.4073 -2.2246 -6.45756 0
M  V30 792 O 78.0953 -3.18054 -7.38307 0
M  V30 793 H 77.8273 0.0622636 -0.673126 0
M  V30 794 H 80.3813 -0.465792 -2.00049 0
M  V30 795 H 78.6113 1.58118 -3.52896 0
M  V30 796 H 80.3003 1.30467 -3.84361 0
M  V30 797 H 81.0663 -1.00991 -4.74369 0
M  V30 798 H 76.9453 0.20847 -4.60528 0
M  V30 799 H 80.4893 -2.72791 -6.42052 0
M  V30 800 H 76.3863 -1.50152 -6.27794 0
M  V30 801 H 77.1543 -3.13275 -7.56175 0
M  V30 802 N 79.8174 1.5752 -0.0501392 0
M  V30 803 C 81.0664 1.91827 0.623328 0
M  V30 804 C 81.3794 0.930222 1.72065 0
M  V30 805 O 82.5854 1.1653 2.4522 0
M  V30 806 C 81.0414 3.40692 1.16003 0
M  V30 807 C 80.6494 4.479 0.0948811 0
M  V30 808 C 82.3934 3.84034 1.80881 0
M  V30 809 C 80.3004 5.87879 0.644411 0
M  V30 810 H 79.2304 0.715918 0.236596 0
M  V30 811 H 81.8814 1.83115 -0.118861 0
M  V30 812 H 80.2634 3.44405 1.9545 0
M  V30 813 H 81.4374 4.55775 -0.678675 0
M  V30 814 H 79.7524 4.13892 -0.45637 0
M  V30 815 H 82.3494 4.85984 2.22988 0
M  V30 816 H 82.6924 3.20225 2.6601 0
M  V30 817 H 83.2254 3.82833 1.0809 0
M  V30 818 H 79.9644 6.55282 -0.169229 0
M  V30 819 H 79.4844 5.83567 1.38598 0
M  V30 820 H 81.1634 6.37098 1.12763 0
M  V30 821 N 81.2955 -0.223234 1.56011 0
M  V30 822 C 82.5435 -0.946003 1.78592 0
M  V30 823 C 82.8645 -1.84936 0.618349 0
M  V30 824 O 82.1345 -1.92473 -0.364833 0
M  V30 825 H 80.7145 -0.352298 0.658707 0
M  V30 826 H 83.3765 -0.235494 1.93472 0
M  V30 827 H 82.4725 -1.55381 2.70672 0
M  V30 828 N 82.7736 -1.49793 -0.48987 0
M  V30 829 C 83.6836 -1.70036 -1.61632 0
M  V30 830 C 84.6996 -0.583102 -1.63939 0
M  V30 831 O 85.8756 -0.859169 -1.82154 0
M  V30 832 C 82.9406 -1.77277 -2.97949 0
M  V30 833 C 82.0016 -3.00918 -3.06181 0
M  V30 834 C 81.2346 -3.07804 -4.35996 0
M  V30 835 O 81.4576 -2.21982 -5.25433 0
M  V30 836 O 80.3916 -4.00369 -4.49431 0
M  V30 837 H 84.2176 -2.65486 -1.47482 0
M  V30 838 H 81.8026 -1.33666 -0.667362 0
M  V30 839 H 83.6846 -1.84329 -3.78947 0
M  V30 840 H 82.3596 -0.850076 -3.12339 0
M  V30 841 H 81.2666 -2.99377 -2.2433 0
M  V30 842 H 82.5996 -3.92704 -2.96723 0
M  V30 843 N 84.2517 0.741722 -1.39055 0
M  V30 844 C 85.6627 1.31966 -1.32068 0
M  V30 845 C 86.0137 1.96192 0.0180797 0
M  V30 846 O 85.1387 1.95861 0.920196 0
M  V30 847 C 85.7337 2.39954 -2.39181 0
M  V30 848 C 84.2927 2.93438 -2.35735 0
M  V30 849 C 83.4397 1.66936 -2.21422 0
M  V30 850 H 86.3907 0.539721 -1.4924 0
M  V30 851 H 86.4117 3.20182 -2.05581 0
M  V30 852 H 85.9237 1.9318 -3.36605 0
M  V30 853 H 84.0247 3.4451 -1.41929 0
M  V30 854 H 84.1377 3.4701 -3.30335 0
M  V30 855 H 82.5017 1.91016 -1.68478 0
M  V30 856 H 83.2847 1.22224 -3.20806 0
M  V30 857 N 85.7298 1.2412 0.971189 0
M  V30 858 C 86.9788 1.07284 1.70801 0
M  V30 859 C 87.2918 -0.388902 1.91695 0
M  V30 860 O 88.4978 -0.677379 2.62914 0
M  V30 861 C 86.9538 1.87145 3.07416 0
M  V30 862 C 86.5618 3.37707 2.94377 0
M  V30 863 C 88.3058 1.78828 3.84995 0
M  V30 864 C 86.2128 4.09925 4.26281 0
M  V30 865 H 85.1428 0.397854 0.64049 0
M  V30 866 H 87.7938 1.4817 1.0825 0
M  V30 867 H 86.1758 1.39071 3.70777 0
M  V30 868 H 87.3498 3.93335 2.4005 0
M  V30 869 H 85.6648 3.46938 2.30267 0
M  V30 870 H 88.2618 2.30089 4.82662 0
M  V30 871 H 88.6048 0.75284 4.09436 0
M  V30 872 H 89.1378 2.24563 3.28354 0
M  V30 873 H 85.8768 5.13813 4.07033 0
M  V30 874 H 85.3968 3.59083 4.80437 0
M  V30 875 H 87.0758 4.1673 4.94919 0
M  V30 876 N 87.2079 -1.17134 1.05439 0
M  V30 877 C 88.4379 -1.91094 0.785274 0
M  V30 878 C 88.8459 -1.77198 -0.663142 0
M  V30 879 O 88.1889 -1.10835 -1.46497 0
M  V30 880 C 88.2509 -3.42594 1.08949 0
M  V30 881 C 87.9149 -3.80274 2.53458 0
M  V30 882 C 88.9119 -3.82912 3.51673 0
M  V30 883 C 86.5969 -4.11162 2.88532 0
M  V30 884 C 88.5909 -4.15913 4.83006 0
M  V30 885 C 86.2779 -4.43831 4.20068 0
M  V30 886 C 87.2759 -4.46185 5.17115 0
M  V30 887 O 86.9639 -4.78083 6.46291 0
M  V30 888 H 86.6959 -0.613073 0.284811 0
M  V30 889 H 89.2499 -1.49461 1.40893 0
M  V30 890 H 87.4799 -3.84534 0.408741 0
M  V30 891 H 89.1689 -3.97817 0.805991 0
M  V30 892 H 89.9349 -3.5917 3.25917 0
M  V30 893 H 85.8139 -4.085 2.13656 0
M  V30 894 H 89.3579 -4.17665 5.5875 0
M  V30 895 H 85.2549 -4.67037 4.45586 0
M  V30 896 H 86.0229 -4.9593 6.51149 0
M  V30 897 N 88.686 -0.835752 -1.33615 0
M  V30 898 C 89.649 -0.272 -2.2758 0
M  V30 899 C 90.649 0.557487 -1.50827 0
M  V30 900 O 91.839 0.37173 -1.70188 0
M  V30 901 C 88.971 0.617173 -3.35267 0
M  V30 902 H 90.164 -1.10111 -2.78954 0
M  V30 903 H 87.717 -0.608594 -1.43965 0
M  V30 904 H 88.452 1.46884 -2.89129 0
M  V30 905 H 88.237 0.0237066 -3.92093 0
M  V30 906 H 89.727 1.005 -4.05326 0
M  V30 907 N 90.1641 1.46063 -0.591896 0
M  V30 908 C 91.4411 1.95595 -0.0137119 0
M  V30 909 C 91.8211 1.5345 1.4497 0
M  V30 910 O 91.1691 0.789543 2.14426 0
M  V30 911 C 91.3791 3.48453 -0.195373 0
M  V30 912 C 92.7271 4.24546 -0.0679765 0
M  V30 913 O 93.7511 3.55982 -0.124681 0
M  V30 914 O 92.6101 5.46467 0.0600579 0
M  V30 915 H 89.7041 0.825795 0.0446279 0
M  V30 916 H 92.2501 1.56303 -0.660859 0
M  V30 917 H 91.0221 3.72045 -1.21235 0
M  V30 918 H 90.6451 3.94597 0.487775 0
M  V30 919 N 91.6422 0.330177 1.54103 0
M  V30 920 C 92.8672 -0.274893 2.0557 0
M  V30 921 C 93.2922 -1.44487 1.20437 0
M  V30 922 O 92.6502 -1.80021 0.214991 0
M  V30 923 C 92.6982 -0.68079 3.54115 0
M  V30 924 O 91.8022 -1.7824 3.71893 0
M  V30 925 H 91.1432 -0.0483849 0.662235 0
M  V30 926 H 93.6732 0.480508 1.98878 0
M  V30 927 H 93.6832 -0.961635 3.96505 0
M  V30 928 H 92.3582 0.174903 4.15532 0
M  V30 929 H 90.9352 -1.49985 3.41407 0
M  V30 930 N 93.1203 -1.57491 0.0584922 0
M  V30 931 C 94.3663 -1.93264 -0.614558 0
M  V30 932 C 94.6993 -0.937717 -1.7006 0
M  V30 933 O 93.9743 0.0351652 -1.94468 0
M  V30 934 C 94.2573 -3.3938 -1.20386 0
M  V30 935 C 94.1103 -4.49625 -0.125375 0
M  V30 936 C 95.4293 -3.86039 -2.11334 0
M  V30 937 H 92.5483 -0.702791 -0.221933 0
M  V30 938 H 95.1903 -1.8961 0.12175 0
M  V30 939 H 93.3403 -3.42626 -1.83139 0
M  V30 940 H 95.0123 -4.58506 0.506971 0
M  V30 941 H 93.2553 -4.30354 0.545672 0
M  V30 942 H 93.9263 -5.48967 -0.577861 0
M  V30 943 H 96.4023 -3.84716 -1.58534 0
M  V30 944 H 95.2783 -4.88914 -2.49507 0
M  V30 945 H 95.5393 -3.23215 -3.01636 0
M  V30 946 N 94.5984 0.214957 -1.56127 0
M  V30 947 C 95.5454 1.26642 -1.92952 0
M  V30 948 C 96.5154 1.46244 -0.78753 0
M  V30 949 O 97.7004 1.59704 -1.04399 0
M  V30 950 C 94.8404 2.6104 -2.25726 0
M  V30 951 C 93.9534 2.49183 -3.52891 0
M  V30 952 C 93.0884 3.76149 -3.7508 0
M  V30 953 C 92.1274 3.59041 -4.95738 0
M  V30 954 N 91.2644 4.77972 -5.14283 0
M  V30 955 H 96.1044 0.945384 -2.82607 0
M  V30 956 H 93.6414 0.455489 -1.3987 0
M  V30 957 H 95.5994 3.39313 -2.42739 0
M  V30 958 H 94.2294 2.91227 -1.39236 0
M  V30 959 H 93.2814 1.6231 -3.44034 0
M  V30 960 H 94.5934 2.32466 -4.41318 0
M  V30 961 H 93.7474 4.62865 -3.92226 0
M  V30 962 H 92.4864 3.95799 -2.84947 0
M  V30 963 H 91.4914 2.7071 -4.78535 0
M  V30 964 H 92.7164 3.40856 -5.87362 0
M  V30 965 H 90.6624 4.97923 -4.27093 0
M  V30 966 H 90.5794 4.64006 -5.96853 0
M  V30 967 H 91.8474 5.66096 -5.35869 0
M  V30 968 N 96.0765 1.50051 0.48192 0
M  V30 969 C 97.3245 1.60181 1.23234 0
M  V30 970 C 97.6455 0.299176 1.92691 0
M  V30 971 O 96.9155 -0.682708 1.83619 0
M  V30 972 H 95.4955 0.590232 0.457859 0
M  V30 973 H 98.1575 1.86775 0.556881 0
M  V30 974 H 97.2535 2.40753 1.98607 0
M  V30 975 N 97.5546 -0.734337 1.39446 0
M  V30 976 C 98.9706 -1.03997 1.21065 0
M  V30 977 C 99.1706 -2.01369 0.0727019 0
M  V30 978 O 98.2266 -2.45856 -0.575426 0
M  V30 979 C 99.5396 -1.60163 2.54496 0
M  V30 980 C 101.088 -1.7224 2.61347 0
M  V30 981 C 101.563 -2.31814 3.95002 0
M  V30 982 N 103.054 -2.39223 3.96644 0
M  V30 983 C 103.789 -2.86258 4.96834 0
M  V30 984 N 103.285 -3.33184 6.07421 0
M  V30 985 N 105.078 -2.85473 4.84213 0
M  V30 986 H 97.2286 -0.0885624 2.12215 0
M  V30 987 H 99.4916 -0.10191 0.942506 0
M  V30 988 H 99.1976 -0.960811 3.38321 0
M  V30 989 H 99.0716 -2.5896 2.74262 0
M  V30 990 H 101.459 -2.35443 1.77906 0
M  V30 991 H 101.54 -0.720939 2.4543 0
M  V30 992 H 101.184 -1.69238 4.78875 0
M  V30 993 H 101.114 -3.32638 4.08239 0
M  V30 994 H 103.605 -2.06057 3.16779 0
M  V30 995 H 103.918 -3.67586 6.7978 0
M  V30 996 H 102.263 -3.31191 6.11013 0
M  V30 997 H 105.454 -2.48136 3.96921 0
M  V30 998 H 105.627 -3.21814 5.62441 0
M  V30 999 N 99.0327 -1.24633 -0.964593 0
M  V30 1000 C 100.28 -1.08788 -1.70796 0
M  V30 1001 C 100.608 0.372783 -1.90894 0
M  V30 1002 O 99.8627 1.29167 -1.47018 0
M  V30 1003 C 100.162 -1.7763 -3.10133 0
M  V30 1004 C 99.8277 -3.27557 -3.09866 0
M  V30 1005 C 98.4897 -3.6846 -3.09501 0
M  V30 1006 C 100.842 -4.23389 -3.03959 0
M  V30 1007 C 98.1697 -5.03624 -3.00965 0
M  V30 1008 C 100.522 -5.58565 -2.96965 0
M  V30 1009 C 99.1857 -5.98809 -2.9493 0
M  V30 1010 H 98.4557 -0.398084 -0.624988 0
M  V30 1011 H 101.103 -1.54777 -1.12767 0
M  V30 1012 H 99.4077 -1.24044 -3.71645 0
M  V30 1013 H 101.105 -1.62832 -3.66451 0
M  V30 1014 H 97.6947 -2.95006 -3.10917 0
M  V30 1015 H 101.879 -3.92787 -3.03368 0
M  V30 1016 H 97.1347 -5.33998 -2.97752 0
M  V30 1017 H 101.309 -6.32523 -2.91354 0
M  V30 1018 H 98.9357 -7.03505 -2.88071 0
M  V30 1019 N 100.511 1.16574 -1.06058 0
M  V30 1020 C 101.739 1.90952 -0.796552 0
M  V30 1021 C 102.154 1.77302 0.648808 0
M  V30 1022 O 101.511 1.11605 1.44397 0
M  V30 1023 C 101.562 3.41736 -1.17894 0
M  V30 1024 O 101.283 3.54975 -2.56758 0
M  V30 1025 C 102.784 4.33169 -0.942308 0
M  V30 1026 H 100.004 0.605594 -0.288959 0
M  V30 1027 H 102.548 1.47777 -1.41358 0
M  V30 1028 H 100.703 3.82623 -0.606491 0
M  V30 1029 H 101.117 4.4846 -2.72 0
M  V30 1030 H 102.591 5.37439 -1.25952 0
M  V30 1031 H 103.068 4.3903 0.122078 0
M  V30 1032 H 103.674 3.98007 -1.49902 0
M  V30 1033 N 101.989 0.842826 1.3317 0
M  V30 1034 C 103.236 0.440447 1.97652 0
M  V30 1035 C 103.564 -1.00123 1.6675 0
M  V30 1036 O 102.819 -1.7155 0.941761 0
M  V30 1037 C 103.118 0.612607 3.52111 0
M  V30 1038 C 102.784 2.02297 4.02972 0
M  V30 1039 C 101.446 2.40874 4.16573 0
M  V30 1040 C 103.798 2.94402 4.30089 0
M  V30 1041 C 101.126 3.70852 4.54627 0
M  V30 1042 C 103.478 4.23865 4.69597 0
M  V30 1043 C 102.142 4.62392 4.81404 0
M  V30 1044 H 101.412 0.161171 0.72326 0
M  V30 1045 H 104.059 1.07061 1.58777 0
M  V30 1046 H 102.364 -0.100849 3.9167 0
M  V30 1047 H 104.061 0.2815 4.00011 0
M  V30 1048 H 100.651 1.71338 3.92863 0
M  V30 1049 H 104.835 2.65835 4.19101 0
M  V30 1050 H 100.091 4.00501 4.61962 0
M  V30 1051 H 104.265 4.95306 4.89536 0
M  V30 1052 H 101.892 5.63154 5.10648 0
M  V30 1053 N 103.467 -1.45747 0.599634 0
M  V30 1054 C 104.692 -2.07178 0.0960198 0
M  V30 1055 C 105.117 -1.44268 -1.207 0
M  V30 1056 O 104.475 -0.532503 -1.73303 0
M  V30 1057 C 104.523 -3.60579 -0.0385348 0
M  V30 1058 O 103.627 -3.97713 -1.0908 0
M  V30 1059 H 102.968 -0.660251 0.0704593 0
M  V30 1060 H 105.498 -1.87124 0.827385 0
M  V30 1061 H 105.508 -4.07298 -0.239304 0
M  V30 1062 H 104.183 -4.05756 0.912947 0
M  V30 1063 H 102.76 -3.62678 -0.867135 0
M  V30 1064 N 104.945 -0.338344 -1.53925 0
M  V30 1065 C 105.875 0.51328 -2.27789 0
M  V30 1066 C 106.856 1.107 -1.29149 0
M  V30 1067 O 108.041 1.12937 -1.57984 0
M  V30 1068 C 105.171 1.66697 -3.04679 0
M  V30 1069 C 104.125 1.20183 -4.1078 0
M  V30 1070 C 103.451 2.44363 -4.75595 0
M  V30 1071 C 104.751 0.30605 -5.21403 0
M  V30 1072 H 106.445 -0.102883 -2.99223 0
M  V30 1073 H 103.991 -0.0509219 -1.4391 0
M  V30 1074 H 105.944 2.26915 -3.55088 0
M  V30 1075 H 104.668 2.30995 -2.30887 0
M  V30 1076 H 103.327 0.622499 -3.61276 0
M  V30 1077 H 102.975 3.07057 -3.98403 0
M  V30 1078 H 102.675 2.13925 -5.47275 0
M  V30 1079 H 104.199 3.05317 -5.28786 0
M  V30 1080 H 105.613 0.814929 -5.67478 0
M  V30 1081 H 104.01 0.0937929 -6.00027 0
M  V30 1082 H 105.08 -0.65921 -4.80398 0
M  V30 1083 N 106.423 1.57458 -0.0668435 0
M  V30 1084 C 107.7 1.8469 0.644132 0
M  V30 1085 C 108.08 0.958343 1.88093 0
M  V30 1086 O 107.428 0.0233579 2.28488 0
M  V30 1087 C 107.638 3.34767 0.986509 0
M  V30 1088 C 108.986 4.02159 1.36212 0
M  V30 1089 O 110.01 3.39484 1.07839 0
M  V30 1090 O 108.869 5.12694 1.89227 0
M  V30 1091 H 105.963 0.762816 0.319437 0
M  V30 1092 H 108.509 1.6942 -0.0973986 0
M  V30 1093 H 107.281 3.91151 0.107883 0
M  V30 1094 H 106.904 3.55281 1.78497 0
M  V30 1095 N 107.901 -0.206675 1.56239 0
M  V30 1096 C 109.129 -0.945345 1.8404 0
M  V30 1097 C 109.544 -1.77336 0.647885 0
M  V30 1098 O 108.901 -1.78425 -0.383511 0
M  V30 1099 C 108.952 -1.8509 3.10522 0
M  V30 1100 O 108.673 -1.05634 4.25174 0
M  V30 1101 C 110.174 -2.70222 3.51418 0
M  V30 1102 H 107.394 -0.276372 0.61144 0
M  V30 1103 H 109.938 -0.217417 2.03341 0
M  V30 1104 H 108.093 -2.53259 2.93153 0
M  V30 1105 H 108.507 -1.67238 4.97124 0
M  V30 1106 H 109.981 -3.29438 4.42916 0
M  V30 1107 H 110.458 -3.43358 2.73864 0
M  V30 1108 H 111.064 -2.07443 3.71278 0
M  V30 1109 N 109.379 -1.50304 -0.473955 0
M  V30 1110 C 110.604 -1.65175 -1.25427 0
M  V30 1111 C 111.029 -0.333673 -1.85117 0
M  V30 1112 O 110.387 0.702114 -1.67153 0
M  V30 1113 C 110.435 -2.74295 -2.34082 0
M  V30 1114 O 109.539 -2.35349 -3.38651 0
M  V30 1115 H 108.88 -0.551944 -0.369126 0
M  V30 1116 H 111.41 -1.96662 -0.564364 0
M  V30 1117 H 111.42 -2.97285 -2.79438 0
M  V30 1118 H 110.095 -3.69959 -1.90008 0
M  V30 1119 H 108.672 -2.22794 -2.99027 0
M  V30 1120 N 110.857 0.726932 -1.39834 0
M  V30 1121 C 111.804 1.841 -1.39197 0
M  V30 1122 C 112.774 1.642 -0.250502 0
M  V30 1123 O 113.959 1.85494 -0.446846 0
M  V30 1124 C 111.099 3.21697 -1.24919 0
M  V30 1125 C 110.212 3.53247 -2.48678 0
M  V30 1126 C 109.347 4.80289 -2.26928 0
M  V30 1127 C 108.386 5.04707 -3.4632 0
M  V30 1128 N 107.523 6.22956 -3.23836 0
M  V30 1129 H 112.363 1.83979 -2.34427 0
M  V30 1130 H 109.9 0.898876 -1.16442 0
M  V30 1131 H 111.858 4.01137 -1.1465 0
M  V30 1132 H 110.488 3.21076 -0.333153 0
M  V30 1133 H 109.54 2.68447 -2.69519 0
M  V30 1134 H 110.852 3.67205 -3.37582 0
M  V30 1135 H 110.006 5.67725 -2.13947 0
M  V30 1136 H 108.745 4.68519 -1.35431 0
M  V30 1137 H 107.75 4.1573 -3.5979 0
M  V30 1138 H 108.975 5.18357 -4.38729 0
M  V30 1139 H 106.921 6.12459 -2.35011 0
M  V30 1140 H 106.838 6.37539 -4.063 0
M  V30 1141 H 108.106 7.1321 -3.14566 0
M  V30 1142 N 112.336 1.25143 0.95797 0
M  V30 1143 C 113.561 1.12521 1.74223 0
M  V30 1144 C 113.986 -0.317402 1.85403 0
M  V30 1145 O 113.344 -1.2299 1.33204 0
M  V30 1146 C 113.392 1.78062 3.1357 0
M  V30 1147 O 112.496 1.058 3.98598 0
M  V30 1148 H 111.837 0.39304 0.535178 0
M  V30 1149 H 114.367 1.65641 1.201 0
M  V30 1150 H 114.377 1.84213 3.64046 0
M  V30 1151 H 113.052 2.83021 3.04749 0
M  V30 1152 H 111.629 1.07506 3.57067 0
M  V30 1153 N 113.814 -1.1601 1.06675 0
M  V30 1154 C 115.042 -1.90527 0.806667 0
M  V30 1155 C 115.457 -1.77643 -0.639396 0
M  V30 1156 O 114.814 -1.12369 -1.43803 0
M  V30 1157 C 114.865 -3.41106 1.19705 0
M  V30 1158 O 114.586 -3.53608 2.58636 0
M  V30 1159 C 116.087 -4.32663 0.965266 0
M  V30 1160 H 113.307 -0.604053 0.292166 0
M  V30 1161 H 115.851 -1.47026 1.4214 0
M  V30 1162 H 114.006 -3.82296 0.626774 0
M  V30 1163 H 114.42 -4.47011 2.74375 0
M  V30 1164 H 115.894 -5.36763 1.288 0
M  V30 1165 H 116.371 -4.39089 -0.0987936 0
M  V30 1166 H 116.977 -3.97206 1.52011 0
M  V30 1167 N 115.292 -0.849877 -1.32721 0
M  V30 1168 C 116.255 -0.296122 -2.27279 0
M  V30 1169 C 117.255 0.541458 -1.5141 0
M  V30 1170 O 118.445 0.353658 -1.70572 0
M  V30 1171 C 115.577 0.581579 -3.35902 0
M  V30 1172 H 116.77 -1.13064 -2.77771 0
M  V30 1173 H 114.323 -0.62383 -1.43311 0
M  V30 1174 H 115.058 1.43809 -2.9067 0
M  V30 1175 H 114.843 -0.0178814 -3.92096 0
M  V30 1176 H 116.333 0.961951 -4.0637 0
M  V30 1177 N 116.77 1.45427 -0.607355 0
M  V30 1178 C 118 2.06314 -0.108656 0
M  V30 1179 C 118.408 1.45269 1.21217 0
M  V30 1180 O 117.751 0.561115 1.74921 0
M  V30 1181 C 117.813 3.59345 0.105618 0
M  V30 1182 C 117.477 4.42723 -1.13337 0
M  V30 1183 C 118.474 4.77715 -2.05145 0
M  V30 1184 C 116.159 4.83478 -1.36213 0
M  V30 1185 C 118.153 5.52317 -3.18158 0
M  V30 1186 C 115.84 5.57835 -2.49527 0
M  V30 1187 C 116.838 5.92171 -3.40327 0
M  V30 1188 O 116.526 6.65019 -4.51669 0
M  V30 1189 H 116.258 0.672782 -0.0658842 0
M  V30 1190 H 118.812 1.87664 -0.834945 0
M  V30 1191 H 117.042 3.76394 0.886796 0
M  V30 1192 H 118.731 4.02076 0.555886 0
M  V30 1193 H 119.497 4.46787 -1.88697 0
M  V30 1194 H 115.376 4.56188 -0.664362 0
M  V30 1195 H 118.92 5.79036 -3.89054 0
M  V30 1196 H 114.817 5.88177 -2.65928 0
M  V30 1197 H 115.585 6.83469 -4.50348 0
M  V30 1198 N 118.248 0.346503 1.53744 0
M  V30 1199 C 119.178 -0.501193 2.28058 0
M  V30 1200 C 120.159 -1.10014 1.29734 0
M  V30 1201 O 121.344 -1.12097 1.58581 0
M  V30 1202 C 118.474 -1.65078 3.05559 0
M  V30 1203 C 117.428 -1.18003 4.11411 0
M  V30 1204 C 116.754 -2.41837 4.76884 0
M  V30 1205 C 118.054 -0.278394 5.21558 0
M  V30 1206 H 119.748 0.11875 2.99164 0
M  V30 1207 H 117.294 0.0585531 1.43881 0
M  V30 1208 H 119.247 -2.25028 3.56287 0
M  V30 1209 H 117.971 -2.29767 2.32109 0
M  V30 1210 H 116.63 -0.603331 3.61601 0
M  V30 1211 H 116.278 -3.0494 4.00026 0
M  V30 1212 H 115.978 -2.1102 5.48402 0
M  V30 1213 H 117.502 -3.02508 5.30397 0
M  V30 1214 H 118.916 -0.784823 5.67903 0
M  V30 1215 H 117.313 -0.0619707 6.00068 0
M  V30 1216 H 118.383 0.684677 4.80042 0
M  V30 1217 N 119.726 -1.57421 0.075193 0
M  V30 1218 C 120.658 -2.09904 -0.920483 0
M  V30 1219 C 121.671 -1.03191 -1.25918 0
M  V30 1220 O 122.86 -1.30695 -1.21577 0
M  V30 1221 C 119.96 -2.54726 -2.23534 0
M  V30 1222 C 119.133 -3.8505 -2.07498 0
M  V30 1223 C 118.192 -4.15929 -3.22319 0
M  V30 1224 O 117.218 -4.85474 -2.9716 0
M  V30 1225 N 118.42 -3.69745 -4.47514 0
M  V30 1226 H 121.185 -2.95954 -0.472359 0
M  V30 1227 H 118.746 -1.61523 -0.110444 0
M  V30 1228 H 120.738 -2.72443 -2.9926 0
M  V30 1229 H 119.308 -1.73795 -2.59835 0
M  V30 1230 H 118.528 -3.76679 -1.16219 0
M  V30 1231 H 119.816 -4.70348 -1.94038 0
M  V30 1232 H 119.214 -3.13569 -4.7084 0
M  V30 1233 H 117.771 -3.92655 -5.20255 0
M  V30 1234 N 121.204 0.198386 -1.56346 0
M  V30 1235 C 122.137 1.27381 -1.89339 0
M  V30 1236 C 123.115 1.44106 -0.753134 0
M  V30 1237 O 124.299 1.59549 -1.00381 0
M  V30 1238 C 121.426 2.6409 -2.12071 0
M  V30 1239 C 120.472 2.64253 -3.34772 0
M  V30 1240 S 121.305 2.16013 -4.89999 0
M  V30 1241 C 122.461 3.54553 -5.15794 0
M  V30 1242 H 122.694 0.992058 -2.8026 0
M  V30 1243 H 120.227 0.401726 -1.49082 0
M  V30 1244 H 122.185 3.42786 -2.2585 0
M  V30 1245 H 120.846 2.89478 -1.21906 0
M  V30 1246 H 120.039 3.64768 -3.47794 0
M  V30 1247 H 119.641 1.93637 -3.1997 0
M  V30 1248 H 121.933 4.50396 -5.06112 0
M  V30 1249 H 122.876 3.46428 -6.1757 0
M  V30 1250 H 123.284 3.49313 -4.43442 0
M  V30 1251 N 122.682 1.50554 0.465978 0
M  V30 1252 C 123.63 1.70324 1.58406 0
M  V30 1253 C 124.624 0.569139 1.59553 0
M  V30 1254 O 125.83 0.749776 1.63641 0
M  V30 1255 H 122.205 0.537688 0.525734 0
M  V30 1256 H 124.176 2.64104 1.38894 0
M  V30 1257 C 122.925 1.81928 2.96307 0
M  V30 1258 H 122.248 2.68586 2.96144 0
M  V30 1259 H 123.688 1.99784 3.73982 0
M  V30 1260 C 122.147 0.572095 3.32007 0
M  V30 1261 O 122.677 -0.286416 4.00678 0
M  V30 1262 N 120.883 0.424606 2.87481 0
M  V30 1263 H 120.43 1.12427 2.31771 0
M  V30 1264 H 120.388 -0.408697 3.11732 0
M  V30 1265 N 124.16 -0.719506 1.40217 0
M  V30 1266 C 125.385 -1.51371 1.4178 0
M  V30 1267 C 125.81 -1.88091 0.0182355 0
M  V30 1268 O 125.168 -1.52997 -0.972707 0
M  V30 1269 C 125.216 -2.768 2.31115 0
M  V30 1270 O 124.32 -3.73349 1.7517 0
M  V30 1271 H 123.661 -0.456529 0.482159 0
M  V30 1272 H 126.191 -0.88644 1.844 0
M  V30 1273 H 126.201 -3.25371 2.46167 0
M  V30 1274 H 124.876 -2.49407 3.3282 0
M  V30 1275 H 123.453 -3.32179 1.69444 0
M  V30 1276 N 125.638 -1.25649 -0.95132 0
M  V30 1277 C 126.568 -1.08808 -2.06599 0
M  V30 1278 C 127.549 0.00382547 -1.701 0
M  V30 1279 O 128.734 -0.166325 -1.93486 0
M  V30 1280 C 125.864 -0.709542 -3.39975 0
M  V30 1281 C 124.818 -1.75206 -3.90496 0
M  V30 1282 C 124.144 -1.22811 -5.20405 0
M  V30 1283 C 125.444 -3.15153 -4.16504 0
M  V30 1284 H 127.138 -2.02048 -2.20946 0
M  V30 1285 H 124.684 -0.972835 -1.06169 0
M  V30 1286 H 126.637 -0.578649 -4.17408 0
M  V30 1287 H 125.361 0.258556 -3.25575 0
M  V30 1288 H 124.02 -1.87145 -3.15234 0
M  V30 1289 H 123.668 -0.250145 -5.02378 0
M  V30 1290 H 123.368 -1.92492 -5.55176 0
M  V30 1291 H 124.892 -1.10968 -6.00432 0
M  V30 1292 H 126.306 -3.06349 -4.84586 0
M  V30 1293 H 124.703 -3.82333 -4.62538 0
M  V30 1294 H 125.773 -3.61966 -3.22658 0
M  V30 1295 N 127.117 1.15442 -1.07289 0
M  V30 1296 C 128.533 1.38201 -0.798288 0
M  V30 1297 C 128.733 1.92429 0.597769 0
M  V30 1298 O 127.789 2.12962 1.3566 0
M  V30 1299 C 129.102 2.35357 -1.87156 0
M  V30 1300 C 130.65 2.49021 -1.89624 0
M  V30 1301 C 131.125 3.49468 -2.96034 0
M  V30 1302 N 132.616 3.57003 -2.95132 0
M  V30 1303 C 133.351 4.34543 -3.74112 0
M  V30 1304 N 132.847 5.15421 -4.6294 0
M  V30 1305 N 134.64 4.29625 -3.62462 0
M  V30 1306 H 126.791 0.78584 -1.97328 0
M  V30 1307 H 129.054 0.408065 -0.855679 0
M  V30 1308 H 128.76 2.02626 -2.87464 0
M  V30 1309 H 128.634 3.35129 -1.73114 0
M  V30 1310 H 131.021 2.81051 -0.899687 0
M  V30 1311 H 131.102 1.4925 -2.07745 0
M  V30 1312 H 130.746 3.18173 -3.95889 0
M  V30 1313 H 130.676 4.48992 -2.75161 0
M  V30 1314 H 133.167 2.99276 -2.30743 0
M  V30 1315 H 133.48 5.7183 -5.19837 0
M  V30 1316 H 131.825 5.14729 -4.66989 0
M  V30 1317 H 135.016 3.65505 -2.92444 0
M  V30 1318 H 135.189 4.89807 -4.24256 0
M  V30 1319 N 128.595 0.856903 1.32268 0
M  V30 1320 C 129.558 0.308171 2.27119 0
M  V30 1321 C 130.558 -0.533421 1.51695 0
M  V30 1322 O 131.748 -0.344607 1.70757 0
M  V30 1323 C 128.88 -0.563757 3.36206 0
M  V30 1324 H 130.073 1.14535 2.77167 0
M  V30 1325 H 127.626 0.631421 1.42978 0
M  V30 1326 H 128.361 -1.42266 2.91429 0
M  V30 1327 H 128.146 0.0386749 3.92081 0
M  V30 1328 H 129.636 -0.940386 4.06874 0
M  V30 1329 N 130.073 -1.45103 0.615059 0
M  V30 1330 C 130.983 -2.34382 -0.101034 0
M  V30 1331 C 131.999 -1.51681 -0.852585 0
M  V30 1332 O 133.175 -1.8446 -0.808484 0
M  V30 1333 C 130.24 -3.29417 -1.08099 0
M  V30 1334 C 129.301 -4.28025 -0.330577 0
M  V30 1335 C 128.534 -5.1852 -1.26385 0
M  V30 1336 O 128.757 -5.12598 -2.50198 0
M  V30 1337 O 127.691 -5.97122 -0.756866 0
M  V30 1338 H 131.517 -2.97033 0.632855 0
M  V30 1339 H 129.102 -1.4461 0.375293 0
M  V30 1340 H 130.984 -3.87958 -1.6452 0
M  V30 1341 H 129.659 -2.69321 -1.79577 0
M  V30 1342 H 128.566 -3.73078 0.276283 0
M  V30 1343 H 129.899 -4.90997 0.343866 0
M  V30 1344 N 131.551 -0.354651 -1.53558 0
M  V30 1345 C 132.828 0.294281 -1.93374 0
M  V30 1346 C 133.208 1.67313 -1.28723 0
M  V30 1347 O 132.556 2.24179 -0.442247 0
M  V30 1348 C 132.766 0.355445 -3.47185 0
M  V30 1349 C 134.114 0.601007 -4.20325 0
M  V30 1350 O 135.138 0.437106 -3.53508 0
M  V30 1351 O 133.997 0.919322 -5.38712 0
M  V30 1352 H 131.091 0.174033 -0.808481 0
M  V30 1353 H 133.637 -0.406638 -1.64756 0
M  V30 1354 H 132.409 -0.611729 -3.86489 0
M  V30 1355 H 132.032 1.1027 -3.82003 0
M  V30 1356 N 133.029 1.57378 -0.0835403 0
M  V30 1357 C 134.257 1.98263 0.59157 0
M  V30 1358 C 134.672 0.962302 1.62435 0
M  V30 1359 O 134.029 -0.049581 1.82433 0
M  V30 1360 C 134.08 3.39214 1.24965 0
M  V30 1361 O 133.801 4.37339 0.258186 0
M  V30 1362 C 135.302 3.95038 2.01147 0
M  V30 1363 H 132.522 0.651773 0.159477 0
M  V30 1364 H 135.066 2.03878 -0.159415 0
M  V30 1365 H 133.221 3.34649 1.95164 0
M  V30 1366 H 133.635 5.19371 0.731734 0
M  V30 1367 H 135.109 4.95848 2.42567 0
M  V30 1368 H 135.586 3.32222 2.87272 0
M  V30 1369 H 136.192 4.0304 1.35789 0
M  V30 1370 N 134.507 -0.190092 1.56449 0
M  V30 1371 C 135.47 -1.21925 1.9408 0
M  V30 1372 C 136.47 -1.38176 0.822431 0
M  V30 1373 O 137.66 -1.35903 1.08977 0
M  V30 1374 C 134.792 -2.58773 2.21922 0
M  V30 1375 H 135.985 -0.897464 2.86157 0
M  V30 1376 H 133.538 -0.43181 1.50217 0
M  V30 1377 H 134.273 -2.95998 1.32499 0
M  V30 1378 H 134.058 -2.48348 3.03424 0
M  V30 1379 H 135.548 -3.32978 2.52022 0
M  V30 1380 N 135.985 -1.50799 -0.457987 0
M  V30 1381 C 137.231 -1.62683 -1.21088 0
M  V30 1382 C 137.564 -0.332268 -1.91336 0
M  V30 1383 O 136.839 0.667043 -1.82704 0
M  V30 1384 C 137.122 -2.81615 -2.24422 0
M  V30 1385 C 136.975 -4.20989 -1.58392 0
M  V30 1386 C 138.294 -2.96085 -3.2561 0
M  V30 1387 H 135.413 -0.592087 -0.438864 0
M  V30 1388 H 138.055 -1.83225 -0.50286 0
M  V30 1389 H 136.205 -2.64231 -2.84806 0
M  V30 1390 H 137.877 -4.49994 -1.01504 0
M  V30 1391 H 136.12 -4.24641 -0.886704 0
M  V30 1392 H 136.791 -5.0016 -2.33547 0
M  V30 1393 H 139.267 -3.12042 -2.75262 0
M  V30 1394 H 138.143 -3.80902 -3.95228 0
M  V30 1395 H 138.404 -2.0726 -3.90507 0
M  V30 1396 N 137.463 0.71206 -1.40597 0
M  V30 1397 C 138.693 1.49894 -1.42181 0
M  V30 1398 C 139.101 1.89189 -0.0208078 0
M  V30 1399 O 138.444 1.56223 0.966436 0
M  V30 1400 C 138.506 2.80215 -2.25211 0
M  V30 1401 C 138.17 2.63221 -3.73582 0
M  V30 1402 C 139.167 2.30249 -4.66135 0
M  V30 1403 C 136.852 2.79376 -4.17438 0
M  V30 1404 C 138.846 2.13645 -6.00529 0
M  V30 1405 C 136.533 2.6239 -5.51901 0
M  V30 1406 C 137.531 2.29573 -6.43262 0
M  V30 1407 O 137.219 2.12719 -7.75246 0
M  V30 1408 H 136.951 0.469031 -0.486812 0
M  V30 1409 H 139.505 0.88564 -1.85326 0
M  V30 1410 H 137.735 3.4389 -1.76852 0
M  V30 1411 H 139.424 3.41947 -2.18694 0
M  V30 1412 H 140.19 2.17398 -4.33547 0
M  V30 1413 H 136.069 3.03906 -3.46644 0
M  V30 1414 H 139.613 1.87953 -6.71803 0
M  V30 1415 H 135.51 2.74826 -5.84073 0
M  V30 1416 H 136.278 2.27611 -7.86216 0
M  V30 1417 N 138.941 1.26152 0.944643 0
M  V30 1418 C 140.171 1.14094 1.72239 0
M  V30 1419 C 140.579 -0.306931 1.86694 0
M  V30 1420 O 139.922 -1.22222 1.3714 0
M  V30 1421 C 139.984 1.73316 3.14963 0
M  V30 1422 C 139.648 3.2239 3.23904 0
M  V30 1423 C 140.645 4.19252 3.07447 0
M  V30 1424 C 138.33 3.62788 3.47405 0
M  V30 1425 C 140.324 5.54491 3.14353 0
M  V30 1426 C 138.011 4.98162 3.53947 0
M  V30 1427 C 139.009 5.93823 3.37436 0
M  V30 1428 O 138.697 7.26732 3.43679 0
M  V30 1429 H 138.429 0.398292 0.546205 0
M  V30 1430 H 140.983 1.67201 1.19301 0
M  V30 1431 H 139.213 1.14667 3.69308 0
M  V30 1432 H 140.902 1.56214 3.74636 0
M  V30 1433 H 141.668 3.8938 2.8915 0
M  V30 1434 H 137.547 2.88816 3.59313 0
M  V30 1435 H 141.091 6.29137 3.01384 0
M  V30 1436 H 136.988 5.27695 3.71763 0
M  V30 1437 H 137.756 7.3496 3.60245 0
M  V30 1438 N 140.419 -1.14872 1.07899 0
M  V30 1439 C 141.659 -1.8745 0.814965 0
M  V30 1440 C 142.023 -1.80758 -0.64733 0
M  V30 1441 O 143.224 -2.48422 -1.02664 0
M  V30 1442 C 141.495 -3.32286 1.31607 0
M  V30 1443 S 143.054 -4.22537 1.18357 0
M  V30 1444 H 139.872 -0.646833 0.295174 0
M  V30 1445 H 142.474 -1.38555 1.37923 0
M  V30 1446 H 141.178 -3.34703 2.37491 0
M  V30 1447 H 140.709 -3.86238 0.747261 0
M  V30 1448 H 142.724 -4.96044 0.124586 0
M  V30 1449 N 141.898 -0.863906 -1.31812 0
M  V30 1450 C 142.861 -0.320212 -2.26952 0
M  V30 1451 C 143.861 0.525369 -1.51975 0
M  V30 1452 O 145.051 0.335547 -1.70938 0
M  V30 1453 C 142.183 0.545919 -3.365 0
M  V30 1454 H 143.376 -1.16004 -2.76556 0
M  V30 1455 H 140.929 -0.638995 -1.42641 0
M  V30 1456 H 141.664 1.40718 -2.92179 0
M  V30 1457 H 141.449 -0.0594674 -3.92055 0
M  V30 1458 H 142.939 0.918796 -4.07367 0
M  V30 1459 N 143.376 1.44774 -0.622745 0
M  V30 1460 C 144.792 1.56986 -0.287652 0
M  V30 1461 C 144.992 1.61167 1.20944 0
M  V30 1462 O 144.048 1.55015 1.99315 0
M  V30 1463 C 145.361 2.84551 -0.972188 0
M  V30 1464 C 146.909 2.9825 -0.949536 0
M  V30 1465 C 147.384 4.28605 -1.61437 0
M  V30 1466 N 148.875 4.35399 -1.58057 0
M  V30 1467 C 149.61 5.34964 -2.064 0
M  V30 1468 N 149.106 6.40981 -2.62897 0
M  V30 1469 N 150.899 5.26419 -1.97078 0
M  V30 1470 H 143.05 1.40304 -1.59463 0
M  V30 1471 H 145.313 0.671794 -0.668878 0
M  V30 1472 H 145.019 2.87417 -2.02693 0
M  V30 1473 H 144.893 3.73807 -0.504771 0
M  V30 1474 H 147.28 2.94941 0.0967067 0
M  V30 1475 H 147.361 2.10364 -1.45536 0
M  V30 1476 H 147.005 4.32672 -2.66002 0
M  V30 1477 H 146.935 5.15334 -1.08344 0
M  V30 1478 H 149.426 3.59397 -1.16801 0
M  V30 1479 H 149.739 7.13225 -2.97539 0
M  V30 1480 H 148.084 6.4169 -2.66943 0
M  V30 1481 H 151.275 4.42504 -1.52669 0
M  V30 1482 H 151.448 6.03861 -2.35066 0
M  V30 1483 N 144.854 0.36279 1.53368 0
M  V30 1484 C 146.102 -0.227326 2.00817 0
M  V30 1485 C 146.423 -1.49511 1.25186 0
M  V30 1486 O 145.693 -1.92482 0.364348 0
M  V30 1487 H 144.273 -0.0869923 0.741917 0
M  V30 1488 H 146.935 0.488381 1.88682 0
M  V30 1489 H 146.031 -0.456273 3.08747 0
M  V30 1490 N 146.332 -1.57332 0.0918853 0
M  V30 1491 C 147.562 -1.98286 -0.580205 0
M  V30 1492 C 147.97 -0.969713 -1.6246 0
M  V30 1493 O 147.313 0.0493501 -1.83634 0
M  V30 1494 C 147.375 -3.35603 -1.28882 0
M  V30 1495 C 147.039 -4.55285 -0.395559 0
M  V30 1496 C 148.036 -5.18687 0.355002 0
M  V30 1497 C 145.721 -5.01314 -0.314556 0
M  V30 1498 C 147.715 -6.26484 1.17458 0
M  V30 1499 C 145.402 -6.08979 0.508677 0
M  V30 1500 C 146.4 -6.71429 1.2519 0
M  V30 1501 O 146.088 -7.77018 2.06151 0
M  V30 1502 H 145.82 -0.656678 -0.160466 0
M  V30 1503 H 148.374 -2.04721 0.16688 0
M  V30 1504 H 146.604 -3.25842 -2.08241 0
M  V30 1505 H 148.293 -3.61026 -1.85512 0
M  V30 1506 H 149.059 -4.84058 0.302134 0
M  V30 1507 H 144.938 -4.5247 -0.882697 0
M  V30 1508 H 148.482 -6.75159 1.75518 0
M  V30 1509 H 144.379 -6.4304 0.563037 0
M  V30 1510 H 145.147 -7.93991 1.98799 0
M  V30 1511 N 147.81 0.181792 -1.56548 0
M  V30 1512 C 149.226 0.53316 -1.50431 0
M  V30 1513 C 149.426 1.85184 -0.794297 0
M  V30 1514 O 148.482 2.50058 -0.350318 0
M  V30 1515 C 149.795 0.575597 -2.9514 0
M  V30 1516 C 151.343 0.663519 -3.05886 0
M  V30 1517 C 151.818 0.736946 -4.52032 0
M  V30 1518 N 153.309 0.800118 -4.56237 0
M  V30 1519 C 154.044 0.877327 -5.66649 0
M  V30 1520 N 153.54 0.916016 -6.86718 0
M  V30 1521 N 155.333 0.915542 -5.54594 0
M  V30 1522 H 147.484 -0.683025 -2.01118 0
M  V30 1523 H 149.747 -0.244988 -0.915797 0
M  V30 1524 H 149.453 -0.324482 -3.502 0
M  V30 1525 H 149.327 1.42572 -3.49218 0
M  V30 1526 H 151.714 1.55403 -2.50867 0
M  V30 1527 H 151.795 -0.21307 -2.54911 0
M  V30 1528 H 151.439 -0.149262 -5.07681 0
M  V30 1529 H 151.369 1.62953 -5.00753 0
M  V30 1530 H 153.86 0.778926 -3.69785 0
M  V30 1531 H 154.173 0.975813 -7.66614 0
M  V30 1532 H 152.518 0.884469 -6.89349 0
M  V30 1533 H 155.709 0.882245 -4.59711 0
M  V30 1534 H 155.882 0.972253 -6.40665 0
M  V30 1535 N 149.288 1.51039 0.449983 0
M  V30 1536 C 150.513 1.6715 1.22783 0
M  V30 1537 C 150.938 0.363081 1.84563 0
M  V30 1538 O 150.296 -0.675433 1.68249 0
M  V30 1539 C 150.344 2.77985 2.29689 0
M  V30 1540 O 149.448 2.40707 3.34864 0
M  V30 1541 H 148.789 0.557746 0.360299 0
M  V30 1542 H 151.319 1.97535 0.533005 0
M  V30 1543 H 151.329 3.01693 2.74673 0
M  V30 1544 H 150.004 3.72935 1.84098 0
M  V30 1545 H 148.581 2.27523 2.95445 0
M  V30 1546 N 150.766 -0.704594 1.40972 0
M  V30 1547 C 151.996 -1.49138 1.42974 0
M  V30 1548 C 152.404 -1.89175 0.0308406 0
M  V30 1549 O 151.747 -1.56734 -0.958138 0
M  V30 1550 C 151.809 -2.79016 2.26694 0
M  V30 1551 C 151.473 -2.61236 3.74973 0
M  V30 1552 C 152.47 -2.27773 4.67349 0
M  V30 1553 C 150.155 -2.77158 4.18914 0
M  V30 1554 C 152.149 -2.10457 6.01653 0
M  V30 1555 C 149.836 -2.59459 5.53285 0
M  V30 1556 C 150.834 -2.26158 6.4447 0
M  V30 1557 O 150.522 -2.08605 7.76363 0
M  V30 1558 H 150.254 -0.466443 0.489292 0
M  V30 1559 H 152.808 -0.8758 1.85793 0
M  V30 1560 H 151.038 -3.42947 1.78673 0
M  V30 1561 H 152.727 -3.40782 2.20504 0
M  V30 1562 H 153.493 -2.15095 4.34694 0
M  V30 1563 H 149.372 -3.02064 3.48251 0
M  V30 1564 H 152.916 -1.84387 6.72791 0
M  V30 1565 H 148.813 -2.71725 5.85522 0
M  V30 1566 H 149.581 -2.23439 7.87412 0
M  V30 1567 N 152.244 -1.26651 -0.937939 0
M  V30 1568 C 153.207 -1.08546 -2.01867 0
M  V30 1569 C 154.207 -0.0327327 -1.60767 0
M  V30 1570 O 155.397 -0.276427 -1.71993 0
M  V30 1571 C 152.529 -0.651711 -3.34613 0
M  V30 1572 H 153.722 -2.04502 -2.1936 0
M  V30 1573 H 151.275 -1.09294 -1.11734 0
M  V30 1574 H 152.01 0.309696 -3.22818 0
M  V30 1575 H 151.795 -1.41189 -3.65798 0
M  V30 1576 H 153.285 -0.546973 -4.14002 0
M  V30 1577 N 153.722 1.14298 -1.08507 0
M  V30 1578 C 154.655 2.18447 -0.660004 0
M  V30 1579 C 155.633 1.59242 0.328749 0
M  V30 1580 O 156.817 1.87062 0.232367 0
M  V30 1581 C 153.944 3.38688 0.0290807 0
M  V30 1582 C 152.99 4.1646 -0.919982 0
M  V30 1583 S 153.823 4.77334 -2.42718 0
M  V30 1584 C 154.979 6.00931 -1.75024 0
M  V30 1585 H 155.212 2.54166 -1.54231 0
M  V30 1586 H 152.745 1.25446 -0.900149 0
M  V30 1587 H 154.703 4.08342 0.420378 0
M  V30 1588 H 153.364 3.01289 0.887895 0
M  V30 1589 H 152.557 5.02529 -0.384751 0
M  V30 1590 H 152.159 3.52414 -1.25223 0
M  V30 1591 H 154.451 6.69017 -1.06877 0
M  V30 1592 H 155.394 6.59044 -2.58971 0
M  V30 1593 H 155.802 5.51089 -1.22317 0
M  V30 1594 N 155.201 0.870884 1.31352 0
M  V30 1595 C 156.478 0.402907 1.91405 0
M  V30 1596 C 156.858 -1.11512 1.79244 0
M  V30 1597 O 156.206 -1.94411 1.2007 0
M  V30 1598 C 156.416 0.885301 3.37585 0
M  V30 1599 C 157.764 0.911971 4.14691 0
M  V30 1600 O 158.788 0.831016 3.46371 0
M  V30 1601 O 157.647 1.02927 5.3672 0
M  V30 1602 H 154.741 0.120698 0.818145 0
M  V30 1603 H 157.287 0.958857 1.40014 0
M  V30 1604 H 156.059 1.92889 3.40455 0
M  V30 1605 H 155.682 0.307714 3.96407 0
M  V30 1606 N 156.679 -1.44442 0.630414 0
M  V30 1607 C 157.909 -2.06115 0.141465 0
M  V30 1608 C 158.317 -1.47179 -1.1889 0
M  V30 1609 O 157.66 -0.588873 -1.74006 0
M  V30 1610 C 157.722 -3.59467 -0.0484355 0
M  V30 1611 C 157.386 -4.40864 1.20366 0
M  V30 1612 C 158.383 -4.74391 2.12719 0
M  V30 1613 C 156.068 -4.8125 1.43887 0
M  V30 1614 C 158.062 -5.47186 3.26904 0
M  V30 1615 C 155.749 -5.53795 2.5837 0
M  V30 1616 C 156.747 -5.86682 3.49705 0
M  V30 1617 O 156.435 -6.57749 4.62191 0
M  V30 1618 H 156.167 -0.671648 0.0765792 0
M  V30 1619 H 158.721 -1.86312 0.864695 0
M  V30 1620 H 156.951 -3.77758 -0.826803 0
M  V30 1621 H 158.64 -4.02909 -0.491849 0
M  V30 1622 H 159.406 -4.43728 1.95781 0
M  V30 1623 H 155.285 -4.55073 0.736853 0
M  V30 1624 H 158.829 -5.72773 3.98217 0
M  V30 1625 H 154.726 -5.83872 2.75251 0
M  V30 1626 H 155.494 -6.76217 4.61164 0
M  V30 1627 N 158.157 -0.370918 -1.53173 0
M  V30 1628 C 159.403 0.209976 -2.02313 0
M  V30 1629 C 159.758 1.45987 -1.25322 0
M  V30 1630 O 159.051 1.8856 -0.339965 0
M  V30 1631 C 159.245 0.549696 -3.53147 0
M  V30 1632 C 159.074 -0.665721 -4.44745 0
M  V30 1633 C 157.844 -1.17942 -4.91343 0
M  V30 1634 C 160.042 -1.53255 -4.90935 0
M  V30 1635 N 158.024 -2.35431 -5.66962 0
M  V30 1636 C 159.395 -2.55403 -5.64951 0
M  V30 1637 C 161.45 -1.5548 -4.73002 0
M  V30 1638 C 160.153 -3.5964 -6.22938 0
M  V30 1639 C 162.179 -2.58613 -5.31858 0
M  V30 1640 C 161.541 -3.59485 -6.05764 0
M  V30 1641 H 157.64 0.0394095 -0.781006 0
M  V30 1642 H 160.224 -0.516666 -1.8772 0
M  V30 1643 H 158.395 1.24541 -3.67891 0
M  V30 1644 H 160.127 1.11614 -3.89004 0
M  V30 1645 H 156.882 -0.743228 -4.67732 0
M  V30 1646 H 157.306 -2.94827 -6.09431 0
M  V30 1647 H 161.948 -0.788457 -4.15383 0
M  V30 1648 H 159.666 -4.37153 -6.79649 0
M  V30 1649 H 163.252 -2.61195 -5.19873 0
M  V30 1650 H 162.132 -4.3798 -6.50495 0
M  V30 1651 N 159.635 1.57281 -0.100228 0
M  V30 1652 C 160.883 1.94153 0.561157 0
M  V30 1653 C 161.204 0.983157 1.68401 0
M  V30 1654 O 160.474 0.0361132 1.95867 0
M  V30 1655 H 159.054 0.716791 0.210283 0
M  V30 1656 H 161.716 1.94202 -0.164765 0
M  V30 1657 H 160.812 2.96709 0.968008 0
M  V30 1658 N 161.113 -0.173488 1.56642 0
M  V30 1659 C 162.045 -1.23935 1.92802 0
M  V30 1660 C 163.058 -1.40589 0.820889 0
M  V30 1661 O 164.247 -1.40631 1.09933 0
M  V30 1662 C 161.347 -2.60837 2.16373 0
M  V30 1663 C 160.52 -2.6551 3.47596 0
M  V30 1664 C 159.579 -3.8376 3.60021 0
M  V30 1665 O 158.605 -3.69859 4.32658 0
M  V30 1666 N 159.807 -5.00127 2.94709 0
M  V30 1667 H 162.572 -0.932236 2.84832 0
M  V30 1668 H 160.133 -0.363268 1.57772 0
M  V30 1669 H 162.125 -3.38407 2.21952 0
M  V30 1670 H 160.695 -2.83948 1.30738 0
M  V30 1671 H 159.915 -1.74052 3.53694 0
M  V30 1672 H 161.203 -2.65641 4.33949 0
M  V30 1673 H 160.601 -5.14322 2.35563 0
M  V30 1674 H 159.158 -5.75567 3.05886 0
M  V30 1675 N 162.591 -1.51276 -0.441967 0
M  V30 1676 C 163.839 -1.63392 -1.18943 0
M  V30 1677 C 164.16 -0.350159 -1.9183 0
M  V30 1678 O 163.43 0.633784 -1.85364 0
M  V30 1679 H 162.01 -0.602164 -0.442049 0
M  V30 1680 H 164.672 -1.88186 -0.507165 0
M  V30 1681 H 163.768 -2.45934 -1.92154 0
M  V30 1682 N 164.069 0.697108 -1.41344 0
M  V30 1683 C 165.297 1.48593 -1.43972 0
M  V30 1684 C 165.712 1.88747 -0.0445612 0
M  V30 1685 O 165.069 1.56682 0.935785 0
M  V30 1686 C 165.12 2.74946 -2.34706 0
M  V30 1687 O 164.841 2.36484 -3.68791 0
M  V30 1688 C 166.342 3.687 -2.46121 0
M  V30 1689 H 163.562 0.457964 -0.490418 0
M  V30 1690 H 166.106 0.858429 -1.8561 0
M  V30 1691 H 164.261 3.33937 -1.9638 0
M  V30 1692 H 164.675 3.17918 -4.17167 0
M  V30 1693 H 166.149 4.54145 -3.13777 0
M  V30 1694 H 166.626 4.13081 -1.49199 0
M  V30 1695 H 167.232 3.15613 -2.85076 0
M  V30 1696 N 165.547 1.27147 0.931209 0
M  V30 1697 C 166.477 1.12081 2.04842 0
M  V30 1698 C 167.458 0.0232364 1.70084 0
M  V30 1699 O 168.643 0.197085 1.93197 0
M  V30 1700 C 165.773 0.76354 3.38803 0
M  V30 1701 C 164.727 1.81396 3.87659 0
M  V30 1702 C 164.053 1.31075 5.18385 0
M  V30 1703 C 165.353 3.21739 4.11438 0
M  V30 1704 H 167.047 2.05537 2.17703 0
M  V30 1705 H 164.593 0.989603 1.04608 0
M  V30 1706 H 166.546 0.644982 4.16435 0
M  V30 1707 H 165.27 -0.206727 3.25945 0
M  V30 1708 H 163.929 1.92136 3.12217 0
M  V30 1709 H 163.577 0.330037 5.01916 0
M  V30 1710 H 163.277 2.013 5.52044 0
M  V30 1711 H 164.801 1.20506 5.98591 0
M  V30 1712 H 166.215 3.14019 4.79651 0
M  V30 1713 H 164.612 3.89644 4.56397 0
M  V30 1714 H 165.682 3.67054 3.16859 0
M  V30 1715 N 167.025 -1.13721 1.09112 0
M  V30 1716 C 168.271 -1.85198 0.826414 0
M  V30 1717 C 168.604 -1.83129 -0.646319 0
M  V30 1718 O 167.879 -1.2671 -1.47563 0
M  V30 1719 C 168.162 -3.33507 1.35812 0
M  V30 1720 C 168.015 -3.44108 2.89672 0
M  V30 1721 C 169.334 -4.28838 0.989256 0
M  V30 1722 H 166.453 -0.67243 0.301675 0
M  V30 1723 H 169.095 -1.33499 1.35197 0
M  V30 1724 H 167.245 -3.77666 0.911082 0
M  V30 1725 H 168.917 -3.08684 3.428 0
M  V30 1726 H 167.16 -2.85087 3.26967 0
M  V30 1727 H 167.831 -4.48388 3.21951 0
M  V30 1728 H 170.307 -3.92734 1.37475 0
M  V30 1729 H 169.183 -5.31051 1.38838 0
M  V30 1730 H 169.444 -4.4198 -0.102924 0
M  V30 1731 N 168.503 -0.877838 -1.30888 0
M  V30 1732 C 169.731 -0.507414 -2.00581 0
M  V30 1733 C 170.146 0.902216 -1.65848 0
M  V30 1734 O 169.503 1.59225 -0.891831 0
M  V30 1735 C 169.554 -0.664162 -3.55347 0
M  V30 1736 O 169.275 -2.01829 -3.8884 0
M  V30 1737 C 170.776 -0.295787 -4.42312 0
M  V30 1738 H 167.996 -0.196866 -0.641471 0
M  V30 1739 H 170.54 -1.18117 -1.66939 0
M  V30 1740 H 168.695 -0.0378619 -3.87381 0
M  V30 1741 H 169.109 -2.03174 -4.8355 0
M  V30 1742 H 170.583 -0.456388 -5.5011 0
M  V30 1743 H 171.06 0.765663 -4.32475 0
M  V30 1744 H 171.666 -0.898113 -4.15709 0
M  V30 1745 N 169.982 1.44106 -0.638065 0
M  V30 1746 C 171.228 2.02277 -0.145546 0
M  V30 1747 C 171.561 1.50125 1.23191 0
M  V30 1748 O 170.836 0.688133 1.8192 0
M  V30 1749 C 171.119 3.59829 -0.139791 0
M  V30 1750 C 170.972 4.22247 -1.55008 0
M  V30 1751 C 172.291 4.36873 0.531966 0
M  V30 1752 H 169.41 0.734992 -0.0543632 0
M  V30 1753 H 172.052 1.71592 -0.815863 0
M  V30 1754 H 170.202 3.86102 0.431007 0
M  V30 1755 H 171.874 4.07057 -2.1703 0
M  V30 1756 H 170.117 3.79476 -2.10191 0
M  V30 1757 H 170.788 5.31284 -1.49804 0
M  V30 1758 H 173.264 4.16074 0.0464781 0
M  V30 1759 H 172.14 5.4657 0.505206 0
M  V30 1760 H 172.401 4.11995 1.60352 0
M  V30 1761 N 171.46 0.379036 1.52974 0
M  V30 1762 C 172.685 -0.209353 2.06341 0
M  V30 1763 C 173.11 -1.40583 1.24972 0
M  V30 1764 O 172.468 -1.79246 0.272155 0
M  V30 1765 C 172.516 -0.567786 3.56102 0
M  V30 1766 O 171.62 -1.66318 3.77375 0
M  V30 1767 H 170.961 -0.0272919 0.663439 0
M  V30 1768 H 173.491 0.543536 1.97248 0
M  V30 1769 H 173.501 -0.835003 3.99364 0
M  V30 1770 H 172.176 0.307013 4.14765 0
M  V30 1771 H 170.753 -1.39048 3.46006 0
M  V30 1772 N 172.938 -1.57226 0.108567 0
M  V30 1773 C 174.163 -1.99604 -0.563303 0
M  V30 1774 C 174.588 -0.987563 -1.6009 0
M  V30 1775 O 173.946 0.0421687 -1.81251 0
M  V30 1776 C 173.994 -3.40902 -1.17552 0
M  V30 1777 O 173.098 -3.42896 -2.2912 0
M  V30 1778 H 172.439 -0.648704 -0.1417 0
M  V30 1779 H 174.969 -2.03679 0.193961 0
M  V30 1780 H 174.979 -3.78886 -1.51357 0
M  V30 1781 H 173.654 -4.1382 -0.415445 0
M  V30 1782 H 172.231 -3.1672 -1.96832 0
M  V30 1783 N 174.416 0.165178 -1.56732 0
M  V30 1784 C 175.379 1.18822 -1.95995 0
M  V30 1785 C 176.379 1.3685 -0.84431 0
M  V30 1786 O 177.569 1.34152 -1.11126 0
M  V30 1787 C 174.701 2.5521 -2.26011 0
M  V30 1788 H 175.894 0.851825 -2.87548 0
M  V30 1789 H 173.447 0.407857 -1.50885 0
M  V30 1790 H 174.182 2.93852 -1.37191 0
M  V30 1791 H 173.967 2.43489 -3.07336 0
M  V30 1792 H 175.457 3.28927 -2.57288 0
M  V30 1793 N 175.894 1.51508 0.433938 0
M  V30 1794 C 177.119 1.68443 1.21003 0
M  V30 1795 C 177.544 0.382636 1.84167 0
M  V30 1796 O 176.902 -0.65755 1.68956 0
M  V30 1797 C 176.95 2.80405 2.26727 0
M  V30 1798 O 176.054 2.44245 3.32292 0
M  V30 1799 H 175.395 0.561536 0.354363 0
M  V30 1800 H 177.925 1.9809 0.512024 0
M  V30 1801 H 177.935 3.0459 2.71457 0
M  V30 1802 H 176.61 3.74867 1.80132 0
M  V30 1803 H 175.187 2.30644 2.93015 0
M  V30 1804 N 177.372 -0.689602 1.41712 0
M  V30 1805 C 178.6 -1.47827 1.44758 0
M  V30 1806 C 179.015 -1.88721 0.0545703 0
M  V30 1807 O 178.372 -1.57176 -0.927463 0
M  V30 1808 C 178.423 -2.73698 2.3616 0
M  V30 1809 O 178.144 -2.34524 3.7004 0
M  V30 1810 C 179.645 -3.67389 2.48072 0
M  V30 1811 H 176.865 -0.455357 0.49284 0
M  V30 1812 H 179.409 -0.848574 1.86063 0
M  V30 1813 H 177.564 -3.32891 1.98148 0
M  V30 1814 H 177.978 -3.15701 4.18847 0
M  V30 1815 H 179.452 -4.52475 3.16181 0
M  V30 1816 H 179.929 -4.12284 1.51388 0
M  V30 1817 H 180.535 -3.14097 2.86746 0
M  V30 1818 N 178.85 -1.27639 -0.924453 0
M  V30 1819 C 179.797 -1.10644 -2.0255 0
M  V30 1820 C 180.767 -0.00658438 -1.66099 0
M  V30 1821 O 181.952 -0.16952 -1.90045 0
M  V30 1822 C 179.092 -0.76309 -3.36557 0
M  V30 1823 C 178.205 -1.94091 -3.85944 0
M  V30 1824 C 177.34 -1.53914 -5.08413 0
M  V30 1825 C 176.379 -2.68425 -5.50104 0
M  V30 1826 N 175.516 -2.28815 -6.63768 0
M  V30 1827 H 180.356 -2.04858 -2.16419 0
M  V30 1828 H 177.893 -1.01974 -1.06017 0
M  V30 1829 H 179.851 -0.544822 -4.13627 0
M  V30 1830 H 178.481 0.142102 -3.22487 0
M  V30 1831 H 177.533 -2.27162 -3.05125 0
M  V30 1832 H 178.845 -2.7998 -4.12811 0
M  V30 1833 H 177.999 -1.28231 -5.92994 0
M  V30 1834 H 176.738 -0.651391 -4.8333 0
M  V30 1835 H 175.743 -2.94819 -4.64071 0
M  V30 1836 H 176.968 -3.57826 -5.7718 0
M  V30 1837 H 174.914 -1.42495 -6.40337 0
M  V30 1838 H 174.831 -3.08242 -6.90306 0
M  V30 1839 H 176.099 -2.06387 -7.51681 0
M  V30 1840 N 180.328 1.1314 -1.09713 0
M  V30 1841 C 181.576 1.84119 -0.833338 0
M  V30 1842 C 181.897 1.84097 0.642904 0
M  V30 1843 O 181.167 1.29881 1.46655 0
M  V30 1844 H 179.747 0.681766 -0.305293 0
M  V30 1845 H 182.409 1.37038 -1.38588 0
M  V30 1846 H 181.505 2.88543 -1.18951 0
M  V30 1847 N 181.806 0.884767 1.30421 0
M  V30 1848 C 183.217 0.553656 1.78302 0
M  V30 1849 C 183.568 -0.930153 1.7275 0
M  V30 1850 O 182.693 -1.72681 1.30423 0
M  V30 1851 C 183.288 0.998234 3.2376 0
M  V30 1852 C 181.847 0.71854 3.69478 0
M  V30 1853 C 180.994 1.18132 2.50879 0
M  V30 1854 H 183.945 1.06901 1.17294 0
M  V30 1855 H 183.966 0.327118 3.79091 0
M  V30 1856 H 183.478 2.0782 3.27769 0
M  V30 1857 H 181.579 -0.349444 3.70958 0
M  V30 1858 H 181.692 1.30595 4.60958 0
M  V30 1859 H 180.056 0.600669 2.47516 0
M  V30 1860 H 180.839 2.26902 2.57624 0
M  V30 1861 N 183.284 -1.43765 0.645699 0
M  V30 1862 C 184.509 -2.06767 0.161883 0
M  V30 1863 C 184.934 -1.48034 -1.16049 0
M  V30 1864 O 184.292 -0.587369 -1.71522 0
M  V30 1865 C 184.34 -3.60519 0.0762003 0
M  V30 1866 O 183.444 -4.00982 -0.963721 0
M  V30 1867 H 182.785 -0.657675 0.091429 0
M  V30 1868 H 185.315 -1.84397 0.886499 0
M  V30 1869 H 185.325 -4.07853 -0.109604 0
M  V30 1870 H 184 -4.02646 1.04157 0
M  V30 1871 H 182.577 -3.65253 -0.751312 0
M  V30 1872 N 184.763 -0.387143 -1.52771 0
M  V30 1873 C 186.009 0.196025 -2.0185 0
M  V30 1874 C 186.342 1.46641 -1.27319 0
M  V30 1875 O 185.617 1.90889 -0.373032 0
M  V30 1876 C 185.9 0.466136 -3.5707 0
M  V30 1877 C 185.753 -0.819385 -4.42274 0
M  V30 1878 C 187.072 1.25768 -4.21747 0
M  V30 1879 H 184.191 0.0697708 -0.73369 0
M  V30 1880 H 186.833 -0.516286 -1.82851 0
M  V30 1881 H 184.983 1.07293 -3.7339 0
M  V30 1882 H 186.655 -1.4563 -4.37709 0
M  V30 1883 H 184.898 -1.43517 -4.09372 0
M  V30 1884 H 185.569 -0.585065 -5.48891 0
M  V30 1885 H 188.045 0.744167 -4.09391 0
M  V30 1886 H 186.921 1.41541 -5.30337 0
M  V30 1887 H 187.182 2.27228 -3.79236 0
M  V30 1888 N 186.241 1.57166 -0.116904 0
M  V30 1889 C 187.488 1.95123 0.541603 0
M  V30 1890 C 187.816 1.00006 1.6682 0
M  V30 1891 O 187.071 0.0235658 1.95686 0
M  V30 1892 C 187.37 3.39508 1.11664 0
M  V30 1893 C 187.036 4.50762 0.111606 0
M  V30 1894 C 185.698 4.80918 -0.164758 0
M  V30 1895 C 188.05 5.18036 -0.573438 0
M  V30 1896 C 185.378 5.75666 -1.13249 0
M  V30 1897 C 187.73 6.13824 -1.52978 0
M  V30 1898 C 186.394 6.42374 -1.81415 0
M  V30 1899 H 185.664 0.714005 0.198187 0
M  V30 1900 H 188.311 1.9048 -0.197365 0
M  V30 1901 H 186.616 3.40835 1.93232 0
M  V30 1902 H 188.313 3.66189 1.63422 0
M  V30 1903 H 184.903 4.27272 0.337192 0
M  V30 1904 H 189.087 4.94896 -0.373092 0
M  V30 1905 H 184.343 5.96092 -1.35958 0
M  V30 1906 H 188.517 6.65039 -2.06629 0
M  V30 1907 H 186.144 7.15599 -2.56557 0
M  V30 1908 N 187.719 -0.156864 1.56817 0
M  V30 1909 C 189.13 -0.717916 1.72345 0
M  V30 1910 C 189.481 -1.82124 0.729747 0
M  V30 1911 O 188.606 -2.16141 -0.105781 0
M  V30 1912 C 189.201 -1.30904 3.12489 0
M  V30 1913 C 187.76 -1.81676 3.29653 0
M  V30 1914 C 186.907 -0.701349 2.68284 0
M  V30 1915 H 189.858 0.0686989 1.58551 0
M  V30 1916 H 189.879 -2.17882 3.11942 0
M  V30 1917 H 189.391 -0.505796 3.8479 0
M  V30 1918 H 187.492 -2.64598 2.62333 0
M  V30 1919 H 187.605 -1.95226 4.3752 0
M  V30 1920 H 185.969 -1.12548 2.28484 0
M  V30 1921 H 186.752 0.0902846 3.43181 0
M  V30 1922 N 189.197 -1.51736 -0.425897 0
M  V30 1923 C 190.127 -1.76827 -1.52494 0
M  V30 1924 C 191.108 -0.618524 -1.58456 0
M  V30 1925 O 192.293 -0.862416 -1.74 0
M  V30 1926 C 189.423 -1.90374 -2.90474 0
M  V30 1927 C 188.377 -3.0588 -2.99369 0
M  V30 1928 C 187.703 -3.04625 -4.3944 0
M  V30 1929 C 189.003 -4.45644 -2.72394 0
M  V30 1930 H 190.697 -2.68855 -1.31748 0
M  V30 1931 H 188.243 -1.29372 -0.632362 0
M  V30 1932 H 190.196 -2.0651 -3.6733 0
M  V30 1933 H 188.92 -0.95004 -3.12477 0
M  V30 1934 H 187.579 -2.89467 -2.24954 0
M  V30 1935 H 187.227 -2.0701 -4.58428 0
M  V30 1936 H 186.927 -3.82195 -4.46319 0
M  V30 1937 H 188.451 -3.22869 -5.18255 0
M  V30 1938 H 189.865 -4.62348 -3.38979 0
M  V30 1939 H 188.262 -5.25006 -2.9067 0
M  V30 1940 H 189.332 -4.54893 -1.67929 0
M  V30 1941 N 190.675 0.682077 -1.42076 0
M  V30 1942 C 191.638 1.77756 -1.44691 0
M  V30 1943 C 192.638 1.5726 -0.335535 0
M  V30 1944 O 193.828 1.63686 -0.596037 0
M  V30 1945 C 190.96 3.16301 -1.27146 0
M  V30 1946 H 192.153 1.76826 -2.42224 0
M  V30 1947 H 189.706 0.891012 -1.28416 0
M  V30 1948 H 190.441 3.22862 -0.305075 0
M  V30 1949 H 190.226 3.32581 -2.07683 0
M  V30 1950 H 191.716 3.96241 -1.31843 0
M  V30 1951 N 192.153 1.28127 0.917671 0
M  V30 1952 C 193.564 1.13622 1.48145 0
M  V30 1953 C 193.915 -0.275207 1.9426 0
M  V30 1954 O 193.04 -1.1691 1.82102 0
M  V30 1955 C 193.635 2.05648 2.69248 0
M  V30 1956 C 192.194 1.95219 3.21818 0
M  V30 1957 C 191.341 1.97618 1.94532 0
M  V30 1958 H 194.292 1.40874 0.730772 0
M  V30 1959 H 194.313 1.61818 3.44377 0
M  V30 1960 H 193.825 3.08365 2.35653 0
M  V30 1961 H 191.926 0.955244 3.60147 0
M  V30 1962 H 192.039 2.81976 3.87333 0
M  V30 1963 H 190.403 1.41973 2.11461 0
M  V30 1964 H 191.186 3.02007 1.63238 0
M  V30 1965 N 193.631 -1.12557 1.10312 0
M  V30 1966 C 194.856 -1.88405 0.867085 0
M  V30 1967 C 195.281 -1.79038 -0.576817 0
M  V30 1968 O 194.639 -1.14439 -1.40618 0
M  V30 1969 C 194.687 -3.3563 1.31851 0
M  V30 1970 O 193.791 -4.09565 0.482734 0
M  V30 1971 H 193.132 -0.585455 0.313271 0
M  V30 1972 H 195.662 -1.42352 1.4696 0
M  V30 1973 H 195.672 -3.86469 1.3079 0
M  V30 1974 H 194.347 -3.41765 2.37001 0
M  V30 1975 H 192.924 -3.68695 0.558448 0
M  V30 1976 N 195.109 -0.891671 -1.2995 0
M  V30 1977 C 196.334 -0.527932 -2.00568 0
M  V30 1978 C 196.759 0.877969 -1.66353 0
M  V30 1979 O 196.117 1.58301 -0.883762 0
M  V30 1980 C 196.165 -0.717745 -3.53385 0
M  V30 1981 O 195.269 0.233376 -4.11739 0
M  V30 1982 H 194.61 -0.20722 -0.630837 0
M  V30 1983 H 197.14 -1.20105 -1.65638 0
M  V30 1984 H 197.15 -0.619307 -4.03272 0
M  V30 1985 H 195.825 -1.74276 -3.77625 0
M  V30 1986 H 194.402 0.0880706 -3.72796 0
M  V30 1987 N 196.587 1.43421 -0.653314 0
M  V30 1988 C 197.534 2.30768 0.0382271 0
M  V30 1989 C 198.504 1.44755 0.814576 0
M  V30 1990 O 199.689 1.73624 0.791162 0
M  V30 1991 C 196.829 3.30336 0.998599 0
M  V30 1992 C 195.942 4.31448 0.218342 0
M  V30 1993 C 195.077 5.18098 1.17252 0
M  V30 1994 C 194.116 6.10902 0.382702 0
M  V30 1995 N 193.253 6.90176 1.28848 0
M  V30 1996 H 198.093 2.89357 -0.712511 0
M  V30 1997 H 195.63 1.42548 -0.363128 0
M  V30 1998 H 197.588 3.86572 1.56901 0
M  V30 1999 H 196.218 2.73397 1.71621 0
M  V30 2000 H 195.27 3.77506 -0.46836 0
M  V30 2001 H 196.582 4.97227 -0.395812 0
M  V30 2002 H 195.736 5.7896 1.81356 0
M  V30 2003 H 194.475 4.52444 1.82058 0
M  V30 2004 H 193.48 5.49128 -0.27169 0
M  V30 2005 H 194.705 6.78598 -0.260957 0
M  V30 2006 H 192.651 6.27171 1.92334 0
M  V30 2007 H 192.568 7.52478 0.728887 0
M  V30 2008 H 193.836 7.55543 1.91766 0
M  V30 2009 N 198.065 0.39524 1.52563 0
M  V30 2010 C 199.29 -0.187456 2.06551 0
M  V30 2011 C 199.715 -1.39249 1.26457 0
M  V30 2012 O 199.073 -1.78947 0.291151 0
M  V30 2013 C 199.121 -0.529985 3.56684 0
M  V30 2014 O 198.225 -1.62307 3.79118 0
M  V30 2015 H 197.566 -0.0202537 0.663691 0
M  V30 2016 H 200.096 0.564426 1.96661 0
M  V30 2017 H 200.106 -0.792598 4.00227 0
M  V30 2018 H 198.781 0.350987 4.14416 0
M  V30 2019 H 197.358 -1.3537 3.47461 0
M  V30 2020 N 199.544 -1.57102 0.125237 0
M  V30 2021 C 200.772 -1.99761 -0.538797 0
M  V30 2022 C 201.187 -1.00503 -1.59827 0
M  V30 2023 O 200.544 0.00119474 -1.825 0
M  V30 2024 C 200.595 -3.42408 -1.15927 0
M  V30 2025 O 200.316 -4.37869 -0.142143 0
M  V30 2026 C 201.817 -4.00232 -1.90602 0
M  V30 2027 H 199.037 -0.655772 -0.14214 0
M  V30 2028 H 201.581 -2.03383 0.213413 0
M  V30 2029 H 199.736 -3.39706 -1.86223 0
M  V30 2030 H 200.15 -5.21128 -0.593775 0
M  V30 2031 H 201.624 -5.02105 -2.29335 0
M  V30 2032 H 202.101 -3.39721 -2.78363 0
M  V30 2033 H 202.707 -4.06499 -1.25055 0
M  V30 2034 N 201.022 0.148545 -1.56898 0
M  V30 2035 C 202.247 0.880385 -1.87787 0
M  V30 2036 C 202.672 1.74018 -0.714093 0
M  V30 2037 O 202.03 1.78153 0.336343 0
M  V30 2038 C 202.078 1.71422 -3.17249 0
M  V30 2039 O 201.182 2.8183 -3.01074 0
M  V30 2040 H 200.523 0.245301 -0.617028 0
M  V30 2041 H 203.053 0.139826 -2.04122 0
M  V30 2042 H 203.063 2.10954 -3.49231 0
M  V30 2043 H 201.738 1.08284 -4.01556 0
M  V30 2044 H 200.315 2.45715 -2.80497 0
M  V30 2045 N 202.5 1.5196 0.417844 0
M  V30 2046 C 203.748 1.65263 1.16329 0
M  V30 2047 C 204.069 0.380634 1.91249 0
M  V30 2048 O 203.339 -0.604214 1.86349 0
M  V30 2049 H 201.919 0.60912 0.432414 0
M  V30 2050 H 204.581 1.88969 0.477162 0
M  V30 2051 H 203.677 2.4896 1.88217 0
M  V30 2052 N 203.978 -0.674533 1.42435 0
M  V30 2053 C 205.226 -1.43175 1.42637 0
M  V30 2054 C 205.547 -1.94951 0.0438992 0
M  V30 2055 O 204.817 -1.7308 -0.917607 0
M  V30 2056 H 203.397 -0.531307 0.525092 0
M  V30 2057 H 206.059 -0.797006 1.77859 0
M  V30 2058 H 205.155 -2.28463 2.12629 0
M  V30 2059 N 205.456 -1.28612 -0.910864 0
M  V30 2060 C 206.684 -1.18792 -1.69399 0
M  V30 2061 C 207.099 0.253039 -1.87097 0
M  V30 2062 O 206.456 1.17071 -1.40003 0
M  V30 2063 C 206.507 -1.88511 -3.08457 0
M  V30 2064 O 206.228 -3.26979 -2.91576 0
M  V30 2065 C 207.729 -1.85029 -4.02839 0
M  V30 2066 H 204.949 -0.412233 -0.529438 0
M  V30 2067 H 207.493 -1.69788 -1.13984 0
M  V30 2068 H 205.648 -1.41379 -3.60681 0
M  V30 2069 H 206.062 -3.61936 -3.79608 0
M  V30 2070 H 207.536 -2.38395 -4.97867 0
M  V30 2071 H 208.013 -0.823303 -4.31414 0
M  V30 2072 H 208.619 -2.31853 -3.56545 0
M  V30 2073 N 206.934 1.1197 -1.10907 0
M  V30 2074 C 207.897 2.16031 -0.765707 0
M  V30 2075 C 208.897 1.59393 0.212235 0
M  V30 2076 O 210.087 1.74196 -0.0115441 0
M  V30 2077 C 207.219 3.40632 -0.135053 0
M  V30 2078 H 208.412 2.47919 -1.68748 0
M  V30 2079 H 205.965 1.27061 -0.910226 0
M  V30 2080 H 206.7 3.14348 0.797218 0
M  V30 2081 H 206.485 3.8302 -0.838937 0
M  V30 2082 H 207.975 4.17505 0.0892469 0
M  V30 2083 N 208.412 0.89855 1.29475 0
M  V30 2084 C 209.375 0.380272 2.26023 0
M  V30 2085 C 210.375 -0.484891 1.53315 0
M  V30 2086 O 211.565 -0.290108 1.71767 0
M  V30 2087 C 208.697 -0.45651 3.3783 0
M  V30 2088 H 209.89 1.23295 2.73383 0
M  V30 2089 H 207.443 0.676589 1.40897 0
M  V30 2090 H 208.178 -1.32922 2.95808 0
M  V30 2091 H 207.963 0.163393 3.91759 0
M  V30 2092 H 209.453 -0.810466 4.0966 0
M  V30 2093 N 209.89 -1.43072 0.660911 0
M  V30 2094 C 210.82 -2.33497 -0.0122829 0
M  V30 2095 C 211.801 -1.49903 -0.803925 0
M  V30 2096 O 212.986 -1.78546 -0.763864 0
M  V30 2097 C 210.116 -3.33363 -0.973994 0
M  V30 2098 C 209.07 -4.27003 -0.291928 0
M  V30 2099 C 208.396 -5.16967 -1.36562 0
M  V30 2100 C 209.696 -5.15816 0.820462 0
M  V30 2101 H 211.39 -2.90038 0.742873 0
M  V30 2102 H 208.936 -1.39461 0.358688 0
M  V30 2103 H 210.889 -3.95524 -1.45392 0
M  V30 2104 H 209.613 -2.75095 -1.7604 0
M  V30 2105 H 208.272 -3.66217 0.167623 0
M  V30 2106 H 207.92 -4.55034 -2.14366 0
M  V30 2107 H 207.62 -5.80441 -0.914454 0
M  V30 2108 H 209.144 -5.82003 -1.84675 0
M  V30 2109 H 210.558 -5.71742 0.422366 0
M  V30 2110 H 208.955 -5.8805 1.19656 0
M  V30 2111 H 210.025 -4.55045 1.67518 0
M  V30 2112 N 211.368 -0.403325 -1.52352 0
M  V30 2113 C 212.616 0.174003 -2.0135 0
M  V30 2114 C 212.937 1.46139 -1.29106 0
M  V30 2115 O 212.207 1.91448 -0.415253 0
M  V30 2116 H 210.787 0.0672911 -0.743963 0
M  V30 2117 H 213.449 -0.538235 -1.87321 0
M  V30 2118 H 212.545 0.374254 -3.09848 0
M  V30 2119 N 212.846 1.57033 -0.133567 0
M  V30 2120 C 214.086 1.97575 0.523789 0
M  V30 2121 C 214.45 1.01605 1.62912 0
M  V30 2122 O 215.651 1.3114 2.3464 0
M  V30 2123 C 213.922 3.42256 1.02935 0
M  V30 2124 S 215.481 4.04817 1.69319 0
M  V30 2125 H 212.299 0.690427 0.169799 0
M  V30 2126 H 214.901 1.94234 -0.222101 0
M  V30 2127 H 213.605 4.09842 0.213917 0
M  V30 2128 H 213.136 3.4928 1.81017 0
M  V30 2129 H 215.151 3.96767 2.97977 0
M  V30 2130 N 214.325 -0.140222 1.56975 0
M  V30 2131 C 215.255 -1.17456 2.01808 0
M  V30 2132 C 216.236 -1.44415 0.898794 0
M  V30 2133 O 217.421 -1.5522 1.16707 0
M  V30 2134 C 214.551 -2.50607 2.40444 0
M  V30 2135 C 213.505 -2.38155 3.55621 0
M  V30 2136 C 212.831 -3.76078 3.80091 0
M  V30 2137 C 214.131 -1.85991 4.88062 0
M  V30 2138 H 215.825 -0.801743 2.88466 0
M  V30 2139 H 213.371 -0.38422 1.38779 0
M  V30 2140 H 215.324 -3.23197 2.7041 0
M  V30 2141 H 214.048 -2.89737 1.50732 0
M  V30 2142 H 212.707 -1.68016 3.25832 0
M  V30 2143 H 212.355 -4.12656 2.87618 0
M  V30 2144 H 212.055 -3.68606 4.57606 0
M  V30 2145 H 213.579 -4.50206 4.12488 0
M  V30 2146 H 214.993 -2.4838 5.16701 0
M  V30 2147 H 213.39 -1.89393 5.6943 0
M  V30 2148 H 214.46 -0.816023 4.77984 0
M  V30 2149 N 215.803 -1.52179 -0.40978 0
M  V30 2150 C 217.049 -1.66453 -1.15851 0
M  V30 2151 C 217.382 -0.392972 -1.90182 0
M  V30 2152 O 216.657 0.608579 -1.84734 0
M  V30 2153 C 216.94 -2.88612 -2.15349 0
M  V30 2154 C 216.793 -4.25815 -1.44918 0
M  V30 2155 C 218.112 -3.06294 -3.16026 0
M  V30 2156 H 215.231 -0.60575 -0.419805 0
M  V30 2157 H 217.873 -1.84732 -0.444314 0
M  V30 2158 H 216.023 -2.73158 -2.76255 0
M  V30 2159 H 217.695 -4.52995 -0.871365 0
M  V30 2160 H 215.938 -4.27247 -0.751159 0
M  V30 2161 H 216.609 -5.07337 -2.17516 0
M  V30 2162 H 219.085 -3.20641 -2.65195 0
M  V30 2163 H 217.961 -3.93283 -3.8291 0
M  V30 2164 H 218.222 -2.19579 -3.83715 0
M  V30 2165 N 217.281 0.66697 -1.42791 0
M  V30 2166 C 218.228 1.7803 -1.4688 0
M  V30 2167 C 219.198 1.6299 -0.319919 0
M  V30 2168 O 220.383 1.83432 -0.525118 0
M  V30 2169 C 217.523 3.1611 -1.38451 0
M  V30 2170 C 216.636 3.42381 -2.63437 0
M  V30 2171 C 215.771 4.70232 -2.47094 0
M  V30 2172 C 214.81 4.89564 -3.67415 0
M  V30 2173 N 213.947 6.08661 -3.49966 0
M  V30 2174 H 218.787 1.7387 -2.42019 0
M  V30 2175 H 216.324 0.84868 -1.20149 0
M  V30 2176 H 218.282 3.95914 -1.31561 0
M  V30 2177 H 216.912 3.19374 -0.469033 0
M  V30 2178 H 215.964 2.56774 -2.80662 0
M  V30 2179 H 217.276 3.52557 -3.52853 0
M  V30 2180 H 216.43 5.5814 -2.37834 0
M  V30 2181 H 215.169 4.62353 -1.5518 0
M  V30 2182 H 214.174 4.00096 -3.77099 0
M  V30 2183 H 215.399 4.99282 -4.6032 0
M  V30 2184 H 213.345 6.0194 -2.60776 0
M  V30 2185 H 213.262 6.19733 -4.32975 0
M  V30 2186 H 214.53 6.99226 -3.44532 0
M  V30 2187 N 218.759 1.29093 0.90403 0
M  V30 2188 C 220.036 1.075 1.63411 0
M  V30 2189 C 220.416 -0.382346 2.07609 0
M  V30 2190 O 219.764 -1.37031 1.82851 0
M  V30 2191 C 219.974 2.05858 2.81822 0
M  V30 2192 C 221.322 2.36539 3.52611 0
M  V30 2193 O 222.346 2.04019 2.91984 0
M  V30 2194 O 221.205 2.92085 4.61897 0
M  V30 2195 H 218.299 0.411547 0.717327 0
M  V30 2196 H 220.845 1.40449 0.952479 0
M  V30 2197 H 219.617 3.04037 2.46327 0
M  V30 2198 H 219.24 1.73613 3.57693 0
M  V30 2199 N 220.237 -1.11381 1.11499 0
M  V30 2200 C 221.467 -1.86663 0.885464 0
M  V30 2201 C 221.875 -1.80464 -0.568281 0
M  V30 2202 O 221.218 -1.18445 -1.40415 0
M  V30 2203 C 221.28 -3.36337 1.26956 0
M  V30 2204 C 220.944 -3.66304 2.73259 0
M  V30 2205 C 221.941 -3.63733 3.71476 0
M  V30 2206 C 219.626 -3.9529 3.09921 0
M  V30 2207 C 221.62 -3.89725 5.04374 0
M  V30 2208 C 219.307 -4.20941 4.43004 0
M  V30 2209 C 220.305 -4.18147 5.40039 0
M  V30 2210 O 219.993 -4.43153 6.70724 0
M  V30 2211 H 219.725 -0.597114 0.316908 0
M  V30 2212 H 222.279 -1.41782 1.48617 0
M  V30 2213 H 220.509 -3.81826 0.611999 0
M  V30 2214 H 222.198 -3.92986 1.01573 0
M  V30 2215 H 222.964 -3.41389 3.44498 0
M  V30 2216 H 218.843 -3.966 2.35009 0
M  V30 2217 H 222.387 -3.8746 5.80104 0
M  V30 2218 H 218.284 -4.42761 4.69716 0
M  V30 2219 H 219.052 -4.60717 6.76522 0
M  V30 2220 N 221.715 -0.905404 -1.28997 0
M  V30 2221 C 222.962 -0.534248 -1.95325 0
M  V30 2222 C 223.29 0.920535 -1.71337 0
M  V30 2223 O 222.545 1.66861 -1.02254 0
M  V30 2224 C 222.844 -0.779906 -3.48787 0
M  V30 2225 C 222.51 -2.21293 -3.92861 0
M  V30 2226 C 221.172 -2.60475 -4.04606 0
M  V30 2227 C 223.524 -3.14587 -4.15553 0
M  V30 2228 C 220.852 -3.9212 -4.36416 0
M  V30 2229 C 223.204 -4.45787 -4.48839 0
M  V30 2230 C 221.868 -4.84834 -4.58794 0
M  V30 2231 H 221.138 -0.195495 -0.714747 0
M  V30 2232 H 223.785 -1.14514 -1.53488 0
M  V30 2233 H 222.09 -0.0861365 -3.91705 0
M  V30 2234 H 223.787 -0.472029 -3.98212 0
M  V30 2235 H 220.377 -1.89887 -3.84241 0
M  V30 2236 H 224.561 -2.85528 -4.0594 0
M  V30 2237 H 219.817 -4.22086 -4.42327 0
M  V30 2238 H 223.991 -5.18098 -4.65346 0
M  V30 2239 H 221.618 -5.86877 -4.83197 0
M  V30 2240 N 223.193 1.4272 -0.668489 0
M  V30 2241 C 224.604 1.84793 -0.266151 0
M  V30 2242 C 224.955 1.55959 1.19043 0
M  V30 2243 O 224.08 1.01622 1.91055 0
M  V30 2244 C 224.675 3.35436 -0.476271 0
M  V30 2245 C 223.234 3.76182 -0.128113 0
M  V30 2246 C 222.381 2.66344 -0.771777 0
M  V30 2247 H 225.332 1.32656 -0.871098 0
M  V30 2248 H 225.353 3.79515 0.273561 0
M  V30 2249 H 224.865 3.5639 -1.53647 0
M  V30 2250 H 222.966 3.60836 0.928891 0
M  V30 2251 H 223.079 4.75766 -0.564231 0
M  V30 2252 H 221.443 2.53885 -0.203652 0
M  V30 2253 H 222.226 2.90123 -1.83531 0
M  V30 2254 N 224.671 0.411399 1.52136 0
M  V30 2255 C 225.581 -0.419774 2.30814 0
M  V30 2256 C 226.597 -1.0515 1.38634 0
M  V30 2257 O 227.773 -1.05252 1.71709 0
M  V30 2258 C 224.838 -1.52019 3.11594 0
M  V30 2259 C 223.899 -0.91129 4.19516 0
M  V30 2260 C 223.132 -1.95927 4.96436 0
M  V30 2261 O 223.355 -3.17775 4.73683 0
M  V30 2262 O 222.289 -1.56423 5.81219 0
M  V30 2263 H 226.115 0.221805 3.02889 0
M  V30 2264 H 223.7 0.174547 1.48377 0
M  V30 2265 H 225.582 -2.15898 3.61892 0
M  V30 2266 H 224.257 -2.14633 2.42311 0
M  V30 2267 H 223.164 -0.235157 3.7336 0
M  V30 2268 H 224.497 -0.32904 4.91099 0
M  V30 2269 N 226.149 -1.5696 0.141893 0
M  V30 2270 C 227.56 -1.82797 -0.379776 0
M  V30 2271 C 227.911 -1.06033 -1.6508 0
M  V30 2272 O 227.036 -0.304011 -2.14254 0
M  V30 2273 C 227.631 -3.31578 -0.695802 0
M  V30 2274 C 226.19 -3.58014 -1.16201 0
M  V30 2275 C 225.337 -2.76699 -0.182455 0
M  V30 2276 H 228.288 -1.54406 0.366675 0
M  V30 2277 H 228.309 -3.47454 -1.55099 0
M  V30 2278 H 227.821 -3.87421 0.229449 0
M  V30 2279 H 225.922 -3.07553 -2.10338 0
M  V30 2280 H 226.035 -4.66501 -1.09151 0
M  V30 2281 H 224.399 -2.45618 -0.674072 0
M  V30 2282 H 225.182 -3.35311 0.736297 0
M  V30 2283 N 227.627 0.131896 -1.57047 0
M  V30 2284 C 228.873 0.843179 -1.84441 0
M  V30 2285 C 229.206 1.80129 -0.725749 0
M  V30 2286 O 228.481 1.92624 0.269469 0
M  V30 2287 C 228.764 1.60442 -3.22382 0
M  V30 2288 C 228.617 0.666782 -4.4483 0
M  V30 2289 C 229.936 2.56354 -3.5773 0
M  V30 2290 H 227.055 0.305081 -0.670891 0
M  V30 2291 H 229.697 0.107839 -1.89694 0
M  V30 2292 H 227.847 2.23128 -3.18035 0
M  V30 2293 H 229.519 0.0497646 -4.61273 0
M  V30 2294 H 227.762 -0.022609 -4.33794 0
M  V30 2295 H 228.433 1.23579 -5.37989 0
M  V30 2296 H 230.909 2.0378 -3.62785 0
M  V30 2297 H 229.785 3.06657 -4.5525 0
M  V30 2298 H 230.046 3.38419 -2.84473 0
M  V30 2299 N 229.106 1.52395 0.401703 0
M  V30 2300 C 230.334 1.70676 1.16949 0
M  V30 2301 C 230.749 0.419503 1.8408 0
M  V30 2302 O 230.106 -0.605061 1.72178 0
M  V30 2303 C 230.157 2.84753 2.22706 0
M  V30 2304 O 229.878 4.08495 1.58314 0
M  V30 2305 C 231.379 3.14608 3.12309 0
M  V30 2306 H 228.599 0.571787 0.351142 0
M  V30 2307 H 231.143 1.98987 0.471652 0
M  V30 2308 H 229.298 2.58941 2.88147 0
M  V30 2309 H 229.712 4.72117 2.28485 0
M  V30 2310 H 231.186 3.97923 3.82572 0
M  V30 2311 H 231.663 2.28464 3.75101 0
M  V30 2312 H 232.269 3.42212 2.52529 0
M  V30 2313 N 230.584 -0.659388 1.43143 0
M  V30 2314 C 231.83 -1.42145 1.44647 0
M  V30 2315 C 232.163 -1.9408 0.0681907 0
M  V30 2316 O 231.438 -1.71899 -0.910007 0
M  V30 2317 C 231.721 -2.60735 2.48373 0
M  V30 2318 C 231.574 -2.14332 3.95451 0
M  V30 2319 C 232.893 -3.62951 2.48906 0
M  V30 2320 H 230.012 -0.51552 0.526696 0
M  V30 2321 H 232.654 -0.748069 1.74654 0
M  V30 2322 H 230.804 -3.18184 2.22916 0
M  V30 2323 H 232.476 -1.61932 4.31944 0
M  V30 2324 H 230.719 -1.4576 4.08578 0
M  V30 2325 H 231.39 -2.99583 4.63631 0
M  V30 2326 H 233.866 -3.1525 2.71582 0
M  V30 2327 H 232.742 -4.43487 3.23435 0
M  V30 2328 H 233.003 -4.15126 1.52061 0
M  V30 2329 N 232.062 -1.29571 -0.897171 0
M  V30 2330 C 233.287 -1.20705 -1.68656 0
M  V30 2331 C 233.712 0.228582 -1.86706 0
M  V30 2332 O 233.07 1.16494 -1.3892 0
M  V30 2333 C 233.118 -1.9282 -3.04717 0
M  V30 2334 O 232.222 -1.24697 -3.93096 0
M  V30 2335 H 231.563 -0.418126 -0.515816 0
M  V30 2336 H 234.093 -1.71183 -1.12061 0
M  V30 2337 H 234.103 -2.01372 -3.54843 0
M  V30 2338 H 232.778 -2.97239 -2.90899 0
M  V30 2339 H 231.355 -1.2442 -3.51531 0
M  V30 2340 N 233.54 1.10788 -1.12088 0
M  V30 2341 C 234.786 1.8313 -0.885148 0
M  V30 2342 C 235.141 1.8336 0.582839 0
M  V30 2343 O 234.434 1.28062 1.42516 0
M  V30 2344 C 234.628 3.29294 -1.38926 0
M  V30 2345 C 234.457 3.43302 -2.90472 0
M  V30 2346 C 233.227 3.55928 -3.58669 0
M  V30 2347 C 235.425 3.37014 -3.88492 0
M  V30 2348 N 233.407 3.58475 -4.98366 0
M  V30 2349 C 234.778 3.46263 -5.14298 0
M  V30 2350 C 236.833 3.20589 -3.80955 0
M  V30 2351 C 235.536 3.4078 -6.33452 0
M  V30 2352 C 237.562 3.16427 -4.99628 0
M  V30 2353 C 236.924 3.26253 -6.2429 0
M  V30 2354 H 233.023 0.685054 -0.377128 0
M  V30 2355 H 235.607 1.3251 -1.4265 0
M  V30 2356 H 233.778 3.78416 -0.874999 0
M  V30 2357 H 235.51 3.89578 -1.09596 0
M  V30 2358 H 232.265 3.58779 -3.09151 0
M  V30 2359 H 232.689 3.6337 -5.71219 0
M  V30 2360 H 237.331 3.11873 -2.85474 0
M  V30 2361 H 235.049 3.48263 -7.29204 0
M  V30 2362 H 238.635 3.04874 -4.95523 0
M  V30 2363 H 237.515 3.2303 -7.14578 0
M  V30 2364 N 235.018 0.912232 1.28515 0
M  V30 2365 C 235.966 0.389597 2.29314 0
M  V30 2366 C 236.96 -0.517915 1.61289 0
M  V30 2367 O 238.166 -0.399328 1.75515 0
M  V30 2368 H 234.541 0.107386 0.744293 0
M  V30 2369 H 236.512 1.25286 2.70825 0
M  V30 2370 C 235.261 -0.356496 3.45868 0
M  V30 2371 H 234.584 0.332608 3.98414 0
M  V30 2372 H 236.024 -0.686851 4.184 0
M  V30 2373 C 234.483 -1.56383 2.98406 0
M  V30 2374 O 235.013 -2.66294 3.00749 0
M  V30 2375 N 233.219 -1.41029 2.54085 0
M  V30 2376 H 232.766 -0.516089 2.52377 0
M  V30 2377 H 232.724 -2.21939 2.22689 0
M  V30 2378 N 236.496 -1.42363 0.676048 0
M  V30 2379 C 237.721 -2.06377 0.205705 0
M  V30 2380 C 238.146 -1.50463 -1.12883 0
M  V30 2381 O 237.504 -0.623619 -1.70237 0
M  V30 2382 C 237.552 -3.60277 0.152655 0
M  V30 2383 O 236.656 -4.02935 -0.87845 0
M  V30 2384 H 235.997 -0.655588 0.105359 0
M  V30 2385 H 238.527 -1.82475 0.925412 0
M  V30 2386 H 238.537 -4.07993 -0.0230675 0
M  V30 2387 H 237.212 -4.00346 1.12675 0
M  V30 2388 H 235.789 -3.66764 -0.673668 0
M  V30 2389 N 237.974 -0.419461 -1.51915 0
M  V30 2390 C 239.222 0.152637 -2.01523 0
M  V30 2391 C 239.543 1.44762 -1.30649 0
M  V30 2392 O 238.813 1.90997 -0.435535 0
M  V30 2393 H 237.393 0.0593966 -0.744635 0
M  V30 2394 H 240.055 -0.558073 -1.86739 0
M  V30 2395 H 239.151 0.341369 -3.10227 0
M  V30 2396 N 239.452 1.56882 -0.150215 0
M  V30 2397 C 240.415 2.1573 0.774157 0
M  V30 2398 C 241.415 1.0999 1.17298 0
M  V30 2399 O 242.605 1.35613 1.09338 0
M  V30 2400 C 239.737 2.72302 2.05096 0
M  V30 2401 H 240.93 2.98752 0.262201 0
M  V30 2402 H 238.483 1.55985 0.099248 0
M  V30 2403 H 239.218 1.92956 2.6065 0
M  V30 2404 H 239.003 3.49665 1.77416 0
M  V30 2405 H 240.493 3.17632 2.71109 0
M  V30 2406 N 240.93 -0.123565 1.57115 0
M  V30 2407 C 241.86 -1.15309 2.03042 0
M  V30 2408 C 242.841 -1.43454 0.914061 0
M  V30 2409 O 244.026 -1.53973 1.18347 0
M  V30 2410 C 241.156 -2.48043 2.43089 0
M  V30 2411 C 240.11 -2.3437 3.58127 0
M  V30 2412 C 239.436 -3.72026 3.84059 0
M  V30 2413 C 240.736 -1.80804 4.90007 0
M  V30 2414 H 242.43 -0.771102 2.893 0
M  V30 2415 H 239.976 -0.369479 1.39179 0
M  V30 2416 H 241.929 -3.20311 2.73823 0
M  V30 2417 H 240.653 -2.88122 1.53796 0
M  V30 2418 H 239.312 -1.64551 3.27595 0
M  V30 2419 H 238.96 -4.09582 2.91979 0
M  V30 2420 H 238.66 -3.63732 4.6149 0
M  V30 2421 H 240.184 -4.45806 4.1724 0
M  V30 2422 H 241.598 -2.42886 5.19307 0
M  V30 2423 H 239.995 -1.83343 5.71407 0
M  V30 2424 H 241.065 -0.76528 4.78823 0
M  V30 2425 N 242.408 -1.52605 -0.393616 0
M  V30 2426 C 243.636 -1.71294 -1.16043 0
M  V30 2427 C 244.051 -0.429259 -1.83855 0
M  V30 2428 O 243.408 0.595921 -1.72496 0
M  V30 2429 C 243.459 -2.8593 -2.21193 0
M  V30 2430 O 243.18 -4.09329 -1.56146 0
M  V30 2431 C 244.681 -3.16259 -3.10636 0
M  V30 2432 H 241.901 -0.573641 -0.348104 0
M  V30 2433 H 244.445 -1.99234 -0.461092 0
M  V30 2434 H 242.6 -2.60465 -2.86769 0
M  V30 2435 H 243.014 -4.73323 -2.25978 0
M  V30 2436 H 244.488 -3.99946 -3.80456 0
M  V30 2437 H 244.965 -2.3045 -3.73884 0
M  V30 2438 H 245.571 -3.43547 -2.50711 0
M  V30 2439 N 243.887 0.651787 -1.4349 0
M  V30 2440 C 245.112 1.44434 -1.48841 0
M  V30 2441 C 245.537 1.8779 -0.107955 0
M  V30 2442 O 244.895 1.57464 0.898602 0
M  V30 2443 C 244.943 2.65458 -2.44059 0
M  V30 2444 O 244.047 3.64566 -1.92784 0
M  V30 2445 H 243.388 0.433005 -0.503391 0
M  V30 2446 H 245.918 0.797451 -1.88419 0
M  V30 2447 H 245.928 3.13255 -2.6141 0
M  V30 2448 H 244.603 2.33244 -3.4434 0
M  V30 2449 H 243.18 3.23716 -1.851 0
M  V30 2450 N 245.365 1.30045 0.890287 0
M  V30 2451 C 246.613 1.18327 1.63839 0
M  V30 2452 C 246.934 -0.263455 1.93212 0
M  V30 2453 O 246.204 -1.17856 1.56482 0
M  V30 2454 H 244.784 0.434933 0.607324 0
M  V30 2455 H 247.446 1.631 1.06698 0
M  V30 2456 H 246.542 1.74024 2.59079 0
M  V30 2457 N 246.843 -1.10192 1.12674 0
M  V30 2458 C 248.089 -1.82475 0.884915 0
M  V30 2459 C 248.422 -1.85093 -0.58773 0
M  V30 2460 O 247.697 -1.3134 -1.43457 0
M  V30 2461 C 247.98 -3.29018 1.46353 0
M  V30 2462 C 247.833 -3.34718 3.00473 0
M  V30 2463 C 249.152 -4.25473 1.12519 0
M  V30 2464 H 246.271 -0.662492 0.322915 0
M  V30 2465 H 248.913 -1.2913 1.39375 0
M  V30 2466 H 247.063 -3.74576 1.03077 0
M  V30 2467 H 248.735 -2.97622 3.52447 0
M  V30 2468 H 246.978 -2.74541 3.35872 0
M  V30 2469 H 247.649 -4.37918 3.36053 0
M  V30 2470 H 250.125 -3.88161 1.499 0
M  V30 2471 H 249.001 -5.26365 1.55663 0
M  V30 2472 H 249.262 -4.42084 0.0377407 0
M  V30 2473 N 248.321 -0.919034 -1.28029 0
M  V30 2474 C 249.271 -0.382574 -2.24767 0
M  V30 2475 C 250.255 0.508286 -1.52661 0
M  V30 2476 O 251.447 0.347145 -1.73562 0
M  V30 2477 C 248.576 0.371432 -3.41285 0
M  V30 2478 C 247.662 -0.535449 -4.20706 0
M  V30 2479 N 248.053 -1.65141 -4.78082 0
M  V30 2480 C 246.351 -0.336824 -4.44726 0
M  V30 2481 C 247.052 -2.21475 -5.37888 0
M  V30 2482 N 246.028 -1.50537 -5.22341 0
M  V30 2483 H 249.83 -1.23477 -2.66703 0
M  V30 2484 H 247.344 -0.772299 -1.42861 0
M  V30 2485 H 249.341 0.772638 -4.09678 0
M  V30 2486 H 248.001 1.22066 -3.00882 0
M  V30 2487 H 249.012 -2.03392 -4.7629 0
M  V30 2488 H 245.689 0.47246 -4.14818 0
M  V30 2489 H 247.079 -3.15379 -5.93284 0
M  V30 2490 N 249.799 1.42003 -0.683588 0
M  V30 2491 C 251.027 2.05746 -0.218182 0
M  V30 2492 C 251.442 1.51396 1.12804 0
M  V30 2493 O 250.799 0.657303 1.70252 0
M  V30 2494 C 250.85 3.61171 -0.154131 0
M  V30 2495 O 250.571 4.13508 -1.44716 0
M  V30 2496 C 252.072 4.42042 0.333713 0
M  V30 2497 H 249.292 0.662888 -0.10402 0
M  V30 2498 H 251.836 1.81987 -0.9328 0
M  V30 2499 H 249.991 3.84012 0.511231 0
M  V30 2500 H 250.405 5.07453 -1.32632 0
M  V30 2501 H 251.879 5.51028 0.327423 0
M  V30 2502 H 252.356 4.17269 1.37053 0
M  V30 2503 H 252.962 4.24239 -0.300222 0
M  V30 2504 N 251.277 0.427512 1.51691 0
M  V30 2505 C 252.524 -0.142229 2.02 0
M  V30 2506 C 252.852 -1.43566 1.31221 0
M  V30 2507 O 252.107 -1.91298 0.412744 0
M  V30 2508 C 252.406 -0.418249 3.54944 0
M  V30 2509 C 252.072 0.788187 4.43958 0
M  V30 2510 C 250.734 1.11906 4.68007 0
M  V30 2511 C 253.086 1.59347 4.96244 0
M  V30 2512 C 250.414 2.25608 5.41588 0
M  V30 2513 C 252.766 2.7214 5.71072 0
M  V30 2514 C 251.43 3.05692 5.93387 0
M  V30 2515 H 250.7 -0.0520451 0.73917 0
M  V30 2516 H 253.347 0.572697 1.82736 0
M  V30 2517 H 251.652 -1.21496 3.72486 0
M  V30 2518 H 253.349 -0.872339 3.91397 0
M  V30 2519 H 249.939 0.520344 4.2543 0
M  V30 2520 H 254.123 1.35106 4.77556 0
M  V30 2521 H 249.379 2.51929 5.57083 0
M  V30 2522 H 253.553 3.34914 6.10578 0
M  V30 2523 H 251.18 3.9391 6.50184 0
M  V30 2524 N 252.755 -1.56801 0.158532 0
M  V30 2525 C 254.166 -1.83189 -0.360366 0
M  V30 2526 C 254.517 -1.07778 -1.63946 0
M  V30 2527 O 253.642 -0.326718 -2.13919 0
M  V30 2528 C 254.237 -3.32297 -0.660595 0
M  V30 2529 C 252.796 -3.59227 -1.12398 0
M  V30 2530 C 251.943 -2.76877 -0.153097 0
M  V30 2531 H 254.894 -1.54008 0.383031 0
M  V30 2532 H 254.915 -3.4908 -1.51405 0
M  V30 2533 H 254.427 -3.87156 0.270527 0
M  V30 2534 H 252.528 -3.09766 -2.07064 0
M  V30 2535 H 252.641 -4.67632 -1.04197 0
M  V30 2536 H 251.005 -2.46319 -0.647983 0
M  V30 2537 H 251.788 -3.34511 0.77182 0
M  V30 2538 N 254.233 0.115231 -1.57178 0
M  V30 2539 C 255.196 1.12526 -1.99676 0
M  V30 2540 C 256.196 1.34095 -0.88742 0
M  V30 2541 O 257.386 1.30548 -1.15337 0
M  V30 2542 C 254.518 2.4789 -2.34015 0
M  V30 2543 H 255.711 0.759912 -2.90113 0
M  V30 2544 H 253.264 0.359648 -1.52106 0
M  V30 2545 H 253.999 2.89339 -1.4647 0
M  V30 2546 H 253.784 2.33588 -3.14927 0
M  V30 2547 H 255.274 3.20575 -2.67622 0
M  V30 2548 N 255.711 1.52812 0.385517 0
M  V30 2549 C 256.957 1.68275 1.13188 0
M  V30 2550 C 257.29 0.423179 1.89533 0
M  V30 2551 O 256.565 -0.579113 1.85679 0
M  V30 2552 C 256.848 2.92001 2.1073 0
M  V30 2553 C 256.701 4.28067 1.38125 0
M  V30 2554 C 258.02 3.11283 3.11113 0
M  V30 2555 H 255.139 0.612352 0.410115 0
M  V30 2556 H 257.781 1.85415 0.414869 0
M  V30 2557 H 255.931 2.77519 2.71874 0
M  V30 2558 H 257.603 4.54324 0.799187 0
M  V30 2559 H 255.846 4.28388 0.683092 0
M  V30 2560 H 256.517 5.10733 2.09417 0
M  V30 2561 H 258.993 3.2482 2.6006 0
M  V30 2562 H 257.869 3.99325 3.76605 0
M  V30 2563 H 258.13 2.25656 3.80173 0
M  V30 2564 N 257.189 -0.644168 1.43834 0
M  V30 2565 C 258.119 -1.76814 1.52509 0
M  V30 2566 C 259.1 -1.65823 0.379052 0
M  V30 2567 O 260.285 -1.84781 0.597466 0
M  V30 2568 C 257.415 -3.15288 1.4564 0
M  V30 2569 C 256.369 -3.41053 2.58586 0
M  V30 2570 C 255.695 -4.79421 2.36769 0
M  V30 2571 C 256.995 -3.34902 4.00797 0
M  V30 2572 H 258.689 -1.69812 2.46586 0
M  V30 2573 H 256.235 -0.815542 1.1868 0
M  V30 2574 H 258.188 -3.93681 1.50311 0
M  V30 2575 H 256.912 -3.23043 0.480725 0
M  V30 2576 H 255.571 -2.65035 2.53282 0
M  V30 2577 H 255.219 -4.83863 1.37424 0
M  V30 2578 H 254.919 -4.9762 3.12487 0
M  V30 2579 H 256.443 -5.6006 2.43238 0
M  V30 2580 H 257.857 -4.03218 4.07539 0
M  V30 2581 H 256.254 -3.64637 4.76613 0
M  V30 2582 H 257.324 -2.32928 4.25291 0
M  V30 2583 N 258.668 -1.30515 -0.883378 0
M  V30 2584 C 259.6 -1.12846 -1.99496 0
M  V30 2585 C 260.613 -0.0712571 -1.62644 0
M  V30 2586 O 261.802 -0.317432 -1.75655 0
M  V30 2587 C 258.902 -0.699123 -3.3161 0
M  V30 2588 C 258.075 -1.83842 -3.96889 0
M  V30 2589 C 257.134 -1.39737 -5.07307 0
M  V30 2590 O 256.16 -2.10485 -5.28852 0
M  V30 2591 N 257.362 -0.277279 -5.79837 0
M  V30 2592 H 260.127 -2.08585 -2.15203 0
M  V30 2593 H 257.688 -1.22672 -1.05656 0
M  V30 2594 H 259.68 -0.387044 -4.02845 0
M  V30 2595 H 258.25 0.166276 -3.12157 0
M  V30 2596 H 257.47 -2.31853 -3.18807 0
M  V30 2597 H 258.758 -2.60187 -4.37241 0
M  V30 2598 H 258.156 0.3122 -5.64838 0
M  V30 2599 H 256.713 -0.0246623 -6.51795 0
M  V30 2600 N 260.146 1.09593 -1.13257 0
M  V30 2601 C 261.371 1.8604 -0.916732 0
M  V30 2602 C 261.796 1.80504 0.529146 0
M  V30 2603 O 261.154 1.18127 1.37534 0
M  V30 2604 C 261.202 3.32017 -1.40703 0
M  V30 2605 O 260.306 4.08141 -0.591153 0
M  V30 2606 H 259.647 0.576943 -0.328683 0
M  V30 2607 H 262.177 1.38405 -1.50682 0
M  V30 2608 H 262.187 3.82865 -1.4099 0
M  V30 2609 H 260.862 3.35361 -2.45979 0
M  V30 2610 H 259.439 3.67084 -0.656005 0
M  V30 2611 N 261.624 0.925811 1.2754 0
M  V30 2612 C 262.849 0.580924 1.99098 0
M  V30 2613 C 263.274 -0.833555 1.68622 0
M  V30 2614 O 262.632 -1.55903 0.925422 0
M  V30 2615 C 262.68 0.811186 3.51358 0
M  V30 2616 O 261.784 -0.124129 4.12213 0
M  V30 2617 H 261.125 0.223873 0.625122 0
M  V30 2618 H 263.655 1.24455 1.62395 0
M  V30 2619 H 263.665 0.72601 4.01489 0
M  V30 2620 H 262.34 1.84227 3.72872 0
M  V30 2621 H 260.917 0.0108006 3.72898 0
M  V30 2622 N 263.102 -1.41638 0.69111 0
M  V30 2623 C 264.35 -2.00902 0.219758 0
M  V30 2624 C 264.671 -1.54994 -1.18329 0
M  V30 2625 O 263.941 -0.778628 -1.79762 0
M  V30 2626 H 262.521 -0.74289 0.0782558 0
M  V30 2627 H 265.183 -1.73327 0.891271 0
M  V30 2628 H 264.279 -3.11224 0.233708 0
M  V30 2629 N 264.58 -0.43555 -1.51462 0
M  V30 2630 C 265.51 0.367376 -2.30592 0
M  V30 2631 C 266.491 1.02263 -1.35928 0
M  V30 2632 O 267.676 1.02661 -1.64847 0
M  V30 2633 C 264.806 1.46983 -3.14664 0
M  V30 2634 C 263.76 0.938161 -4.17591 0
M  V30 2635 C 263.086 2.13622 -4.90173 0
M  V30 2636 C 264.386 -0.0261621 -5.22293 0
M  V30 2637 H 266.08 -0.292969 -2.97963 0
M  V30 2638 H 263.626 -0.14234 -1.43295 0
M  V30 2639 H 265.579 2.03873 -3.688 0
M  V30 2640 H 264.303 2.15843 -2.4511 0
M  V30 2641 H 262.962 0.391481 -3.64504 0
M  V30 2642 H 262.61 2.81098 -4.17124 0
M  V30 2643 H 262.31 1.78688 -5.59772 0
M  V30 2644 H 263.834 2.7107 -5.47132 0
M  V30 2645 H 265.248 0.452384 -5.71512 0
M  V30 2646 H 263.645 -0.287992 -5.99409 0
M  V30 2647 H 264.715 -0.963391 -4.75233 0
M  V30 2648 N 266.058 1.56714 -0.166846 0
M  V30 2649 C 267.288 2.00828 0.48494 0
M  V30 2650 C 267.696 1.04612 1.57648 0
M  V30 2651 O 267.039 0.0383201 1.8366 0
M  V30 2652 C 267.101 3.4137 1.12723 0
M  V30 2653 C 266.765 4.56654 0.177886 0
M  V30 2654 C 267.762 5.16402 -0.60207 0
M  V30 2655 C 265.447 5.02244 0.0750139 0
M  V30 2656 C 267.441 6.20167 -1.47215 0
M  V30 2657 C 265.128 6.05859 -0.798649 0
M  V30 2658 C 266.126 6.64691 -1.57082 0
M  V30 2659 O 265.814 7.66297 -2.42989 0
M  V30 2660 H 265.546 0.663587 0.128953 0
M  V30 2661 H 268.1 2.03692 -0.264365 0
M  V30 2662 H 266.33 3.35406 1.92457 0
M  V30 2663 H 268.019 3.69466 1.68076 0
M  V30 2664 H 268.785 4.82065 -0.53274 0
M  V30 2665 H 264.664 4.56167 0.665812 0
M  V30 2666 H 268.208 6.66016 -2.07531 0
M  V30 2667 H 264.105 6.39621 -0.869199 0
M  V30 2668 H 264.873 7.83601 -2.36455 0
M  V30 2669 N 267.536 -0.106894 1.57237 0
M  V30 2670 C 268.761 -0.830287 1.90055 0
M  V30 2671 C 269.186 -1.72064 0.75998 0
M  V30 2672 O 268.544 -1.78982 -0.288991 0
M  V30 2673 C 268.592 -1.6295 3.21683 0
M  V30 2674 O 267.696 -2.73748 3.08441 0
M  V30 2675 H 267.037 -0.228855 0.623315 0
M  V30 2676 H 269.567 -0.085658 2.04421 0
M  V30 2677 H 269.577 -2.01621 3.54701 0
M  V30 2678 H 268.252 -0.975989 4.04286 0
M  V30 2679 H 266.829 -2.38192 2.86913 0
M  V30 2680 N 269.014 -1.53014 -0.377408 0
M  V30 2681 C 269.944 -1.81589 -1.46791 0
M  V30 2682 C 270.925 -0.668622 -1.56408 0
M  V30 2683 O 272.11 -0.917337 -1.71168 0
M  V30 2684 C 269.24 -1.99519 -2.8427 0
M  V30 2685 C 268.194 -3.15249 -2.89486 0
M  V30 2686 C 267.52 -3.18451 -4.29527 0
M  V30 2687 C 268.82 -4.54084 -2.58079 0
M  V30 2688 H 270.514 -2.7291 -1.23127 0
M  V30 2689 H 268.06 -1.31319 -0.590883 0
M  V30 2690 H 270.013 -2.18092 -3.60575 0
M  V30 2691 H 268.737 -1.04897 -3.09296 0
M  V30 2692 H 267.396 -2.96477 -2.15631 0
M  V30 2693 H 267.044 -2.2149 -4.5161 0
M  V30 2694 H 266.744 -3.962 -4.33934 0
M  V30 2695 H 268.268 -3.39193 -5.07721 0
M  V30 2696 H 269.682 -4.72899 -3.24098 0
M  V30 2697 H 268.079 -5.33987 -2.7382 0
M  V30 2698 H 269.149 -4.60006 -1.53372 0
M  V30 2699 N 270.492 0.636531 -1.44174 0
M  V30 2700 C 271.717 1.42847 -1.50364 0
M  V30 2701 C 272.142 1.87665 -0.127867 0
M  V30 2702 O 271.5 1.58408 0.88185 0
M  V30 2703 C 271.548 2.62854 -2.4686 0
M  V30 2704 O 270.652 3.62501 -1.9664 0
M  V30 2705 H 269.993 0.427642 -0.507955 0
M  V30 2706 H 272.523 0.777422 -1.89255 0
M  V30 2707 H 272.533 3.10465 -2.64718 0
M  V30 2708 H 271.208 2.29578 -3.46795 0
M  V30 2709 H 269.785 3.21735 -1.88523 0
M  V30 2710 N 271.97 1.30982 0.876444 0
M  V30 2711 C 273.195 1.23373 1.66715 0
M  V30 2712 C 273.62 -0.19885 1.87046 0
M  V30 2713 O 272.978 -1.1427 1.40756 0
M  V30 2714 C 273.026 1.97644 3.01611 0
M  V30 2715 O 272.13 1.30935 3.91062 0
M  V30 2716 H 271.471 0.426279 0.509099 0
M  V30 2717 H 274.001 1.72944 1.09323 0
M  V30 2718 H 274.011 2.06992 3.51594 0
M  V30 2719 H 272.686 3.01829 2.86133 0
M  V30 2720 H 271.263 1.29996 3.49507 0
M  V30 2721 N 273.449 -1.08991 1.13837 0
M  V30 2722 C 274.695 -1.81526 0.90422 0
M  V30 2723 C 275.028 -1.85706 -0.568066 0
M  V30 2724 O 274.303 -1.32855 -1.42056 0
M  V30 2725 C 274.586 -3.27447 1.49835 0
M  V30 2726 C 274.439 -3.31512 3.04006 0
M  V30 2727 C 275.758 -4.24256 1.17025 0
M  V30 2728 H 272.877 -0.659029 0.329923 0
M  V30 2729 H 275.519 -1.27644 1.40737 0
M  V30 2730 H 273.669 -3.73462 1.07044 0
M  V30 2731 H 275.341 -2.93867 3.55584 0
M  V30 2732 H 273.584 -2.70963 3.38765 0
M  V30 2733 H 274.255 -4.34329 3.40679 0
M  V30 2734 H 276.731 -3.86549 1.54009 0
M  V30 2735 H 275.607 -5.24684 1.61237 0
M  V30 2736 H 275.868 -4.42019 0.0846274 0
M  V30 2737 N 274.927 -0.932562 -1.27047 0
M  V30 2738 C 276.173 -0.576412 -1.94436 0
M  V30 2739 C 276.506 0.880891 -1.73072 0
M  V30 2740 O 275.781 1.62905 -1.06264 0
M  V30 2741 C 276.064 -0.909031 -3.48437 0
M  V30 2742 C 275.917 -2.42044 -3.79123 0
M  V30 2743 C 277.236 -0.418341 -4.38107 0
M  V30 2744 H 274.355 -0.210888 -0.706184 0
M  V30 2745 H 276.997 -1.16522 -1.50075 0
M  V30 2746 H 275.147 -0.407947 -3.86352 0
M  V30 2747 H 276.819 -2.99359 -3.50973 0
M  V30 2748 H 275.062 -2.86758 -3.25503 0
M  V30 2749 H 275.733 -2.6037 -4.86736 0
M  V30 2750 H 278.209 -0.847856 -4.0737 0
M  V30 2751 H 277.085 -0.679981 -5.44672 0
M  V30 2752 H 277.346 0.681642 -4.36814 0
M  V30 2753 N 276.405 1.4127 -0.698611 0
M  V30 2754 C 277.633 2.05503 -0.239992 0
M  V30 2755 C 278.048 1.52584 1.11191 0
M  V30 2756 O 277.405 0.675323 1.69545 0
M  V30 2757 C 277.456 3.60987 -0.192429 0
M  V30 2758 O 277.177 4.1195 -1.49094 0
M  V30 2759 C 278.678 4.42371 0.28681 0
M  V30 2760 H 275.898 0.661748 -0.111045 0
M  V30 2761 H 278.442 1.80987 -0.95205 0
M  V30 2762 H 276.597 3.84533 0.470472 0
M  V30 2763 H 277.011 5.06018 -1.38007 0
M  V30 2764 H 278.485 5.51344 0.26896 0
M  V30 2765 H 278.962 4.18699 1.32619 0
M  V30 2766 H 279.568 4.23897 -0.345201 0
M  V30 2767 N 277.883 0.443576 1.51229 0
M  V30 2768 C 279.129 -0.120975 2.02439 0
M  V30 2769 C 279.462 -1.41815 1.32674 0
M  V30 2770 O 278.737 -1.89373 0.443622 0
M  V30 2771 C 279.02 -0.333291 3.58554 0
M  V30 2772 C 278.873 0.982968 4.38928 0
M  V30 2773 C 280.192 -1.10028 4.26124 0
M  V30 2774 H 277.311 -0.0424923 0.735774 0
M  V30 2775 H 279.953 0.583794 1.80809 0
M  V30 2776 H 278.103 -0.933614 3.77115 0
M  V30 2777 H 279.775 1.61775 4.32003 0
M  V30 2778 H 278.018 1.58611 4.03763 0
M  V30 2779 H 278.689 0.788379 5.46341 0
M  V30 2780 H 281.165 -0.591711 4.11871 0
M  V30 2781 H 280.041 -1.21761 5.35225 0
M  V30 2782 H 280.302 -2.12996 3.87408 0
M  V30 2783 N 279.361 -1.56624 0.175154 0
M  V30 2784 C 280.772 -1.83561 -0.340916 0
M  V30 2785 C 281.123 -1.09511 -1.62794 0
M  V30 2786 O 280.248 -0.349389 -2.13561 0
M  V30 2787 C 280.843 -3.32979 -0.625313 0
M  V30 2788 C 279.402 -3.60399 -1.08581 0
M  V30 2789 C 278.549 -2.77024 -0.123722 0
M  V30 2790 H 281.5 -1.53593 0.399344 0
M  V30 2791 H 281.521 -3.50666 -1.47694 0
M  V30 2792 H 281.033 -3.86847 0.311575 0
M  V30 2793 H 279.134 -3.11945 -2.03767 0
M  V30 2794 H 279.247 -4.68711 -0.992317 0
M  V30 2795 H 277.611 -2.46993 -0.621821 0
M  V30 2796 H 278.394 -3.33674 0.807256 0
M  V30 2797 N 280.839 0.0985539 -1.57292 0
M  V30 2798 C 282.064 0.820196 -1.90493 0
M  V30 2799 C 282.489 1.71658 -0.769094 0
M  V30 2800 O 281.847 1.79133 0.279495 0
M  V30 2801 C 281.895 1.61242 -3.22542 0
M  V30 2802 O 280.999 2.72108 -3.09888 0
M  V30 2803 H 280.34 0.225547 -0.62452 0
M  V30 2804 H 282.87 0.0748159 -2.04463 0
M  V30 2805 H 282.88 1.99737 -3.55766 0
M  V30 2806 H 281.555 0.954535 -4.04798 0
M  V30 2807 H 280.132 2.36667 -2.88172 0
M  V30 2808 N 282.317 1.53212 0.369288 0
M  V30 2809 C 283.542 1.73423 1.1375 0
M  V30 2810 C 283.967 0.460404 1.82378 0
M  V30 2811 O 283.325 -0.585298 1.71592 0
M  V30 2812 C 283.373 2.89769 2.1463 0
M  V30 2813 O 282.477 2.58119 3.21634 0
M  V30 2814 H 281.818 0.576061 0.330227 0
M  V30 2815 H 284.348 2.00083 0.427547 0
M  V30 2816 H 284.358 3.15829 2.58294 0
M  V30 2817 H 283.033 3.8217 1.64071 0
M  V30 2818 H 281.61 2.42864 2.82969 0
M  V30 2819 N 283.795 -0.628877 1.44509 0
M  V30 2820 C 285.02 -1.42048 1.5112 0
M  V30 2821 C 285.445 -1.87594 0.137818 0
M  V30 2822 O 284.803 -1.58873 -0.873437 0
M  V30 2823 C 284.851 -2.61541 2.48251 0
M  V30 2824 O 283.955 -3.61453 1.98559 0
M  V30 2825 H 283.296 -0.424942 0.510216 0
M  V30 2826 H 285.826 -0.767374 1.89664 0
M  V30 2827 H 285.836 -3.09057 2.66361 0
M  V30 2828 H 284.511 -2.27736 3.48007 0
M  V30 2829 H 283.088 -3.20731 1.90227 0
M  V30 2830 N 285.273 -1.31445 -0.869486 0
M  V30 2831 C 286.203 -1.21727 -1.99261 0
M  V30 2832 C 287.184 -0.104359 -1.6978 0
M  V30 2833 O 288.369 -0.289038 -1.92037 0
M  V30 2834 C 285.499 -0.924317 -3.34774 0
M  V30 2835 C 284.453 -1.99685 -3.78563 0
M  V30 2836 C 283.779 -1.55658 -5.11541 0
M  V30 2837 C 285.079 -3.41003 -3.95619 0
M  V30 2838 H 286.773 -2.1569 -2.07649 0
M  V30 2839 H 284.319 -1.03839 -0.997675 0
M  V30 2840 H 286.272 -0.842934 -4.12883 0
M  V30 2841 H 284.996 0.0509793 -3.2656 0
M  V30 2842 H 283.655 -2.06813 -3.02694 0
M  V30 2843 H 283.303 -0.569132 -4.9977 0
M  V30 2844 H 283.003 -2.27409 -5.41811 0
M  V30 2845 H 284.527 -1.48928 -5.92159 0
M  V30 2846 H 285.941 -3.36547 -4.64122 0
M  V30 2847 H 284.338 -4.10975 -4.37286 0
M  V30 2848 H 285.408 -3.81754 -2.98985 0
M  V30 2849 N 286.751 1.08385 -1.14413 0
M  V30 2850 C 287.999 1.80419 -0.910679 0
M  V30 2851 C 288.32 1.86658 0.564243 0
M  V30 2852 O 287.59 1.35985 1.41014 0
M  V30 2853 H 286.17 0.668204 -0.333934 0
M  V30 2854 H 288.832 1.31037 -1.44275 0
M  V30 2855 H 287.928 2.83238 -1.31082 0
M  V30 2856 N 288.23 0.939286 1.26551 0
M  V30 2857 C 289.458 0.602536 1.97932 0
M  V30 2858 C 289.873 -0.82206 1.69964 0
M  V30 2859 O 289.23 -1.54789 0.966784 0
M  V30 2860 C 289.281 0.832946 3.51773 0
M  V30 2861 O 289.002 2.20151 3.78768 0
M  V30 2862 C 290.503 0.506483 4.40397 0
M  V30 2863 H 287.723 0.227248 0.631347 0
M  V30 2864 H 290.267 1.25948 1.61113 0
M  V30 2865 H 288.422 0.222644 3.8676 0
M  V30 2866 H 288.836 2.26013 4.73306 0
M  V30 2867 H 290.31 0.718333 5.47306 0
M  V30 2868 H 290.787 -0.558451 4.35635 0
M  V30 2869 H 291.393 1.09543 4.10951 0
M  V30 2870 N 289.708 -1.40897 0.706093 0
M  V30 2871 C 290.64 -2.29199 0.00815776 0
M  V30 2872 C 291.653 -1.45336 -0.733582 0
M  V30 2873 O 292.842 -1.68727 -0.582537 0
M  V30 2874 C 289.942 -3.23417 -1.01265 0
M  V30 2875 C 289.115 -4.36089 -0.338387 0
M  V30 2876 C 288.174 -5.10811 -1.26326 0
M  V30 2877 O 287.2 -5.64215 -0.751651 0
M  V30 2878 N 288.402 -5.19269 -2.595 0
M  V30 2879 H 291.167 -2.89738 0.766297 0
M  V30 2880 H 288.728 -1.52164 0.55296 0
M  V30 2881 H 290.72 -3.70276 -1.63334 0
M  V30 2882 H 289.29 -2.64112 -1.67223 0
M  V30 2883 H 288.51 -3.91479 0.462352 0
M  V30 2884 H 289.798 -5.08634 0.130031 0
M  V30 2885 H 289.196 -4.77347 -3.03573 0
M  V30 2886 H 287.753 -5.69667 -3.16737 0
M  V30 2887 N 291.186 -0.45159 -1.50991 0
M  V30 2888 C 292.414 0.108334 -2.06616 0
M  V30 2889 C 292.829 1.35224 -1.31757 0
M  V30 2890 O 292.186 1.78475 -0.381174 0
M  V30 2891 C 292.237 0.41619 -3.59096 0
M  V30 2892 O 291.958 -0.778361 -4.3113 0
M  V30 2893 C 293.459 1.02523 -4.31282 0
M  V30 2894 H 290.679 0.00159995 -0.670998 0
M  V30 2895 H 293.223 -0.634771 -1.94399 0
M  V30 2896 H 291.378 1.10921 -3.71181 0
M  V30 2897 H 291.792 -0.511181 -5.22003 0
M  V30 2898 H 293.266 1.19053 -5.39009 0
M  V30 2899 H 293.743 2.01013 -3.905 0
M  V30 2900 H 294.349 0.371173 -4.23677 0
M  V30 2901 N 292.664 1.56529 -0.183458 0
M  V30 2902 C 293.894 2.01331 0.463612 0
M  V30 2903 C 294.302 1.06278 1.5653 0
M  V30 2904 O 293.645 0.0577976 1.83609 0
M  V30 2905 C 293.707 3.42547 1.09096 0
M  V30 2906 C 293.371 4.56817 0.129442 0
M  V30 2907 C 294.368 5.15734 -0.656807 0
M  V30 2908 C 292.053 5.02295 0.02174 0
M  V30 2909 C 294.047 6.1857 -1.53784 0
M  V30 2910 C 291.734 6.04978 -0.862864 0
M  V30 2911 C 292.732 6.62988 -1.64123 0
M  V30 2912 O 292.42 7.63677 -2.51103 0
M  V30 2913 H 292.152 0.664917 0.121907 0
M  V30 2914 H 294.706 2.034 -0.285954 0
M  V30 2915 H 292.936 3.37428 1.88889 0
M  V30 2916 H 294.625 3.71228 1.64148 0
M  V30 2917 H 295.391 4.81473 -0.583839 0
M  V30 2918 H 291.27 4.56847 0.617392 0
M  V30 2919 H 294.814 6.63777 -2.14583 0
M  V30 2920 H 290.711 6.38663 -0.93699 0
M  V30 2921 H 291.479 7.81049 -2.44753 0
M  V30 2922 N 294.142 -0.090211 1.57342 0
M  V30 2923 C 295.391 -0.791531 1.8552 0
M  V30 2924 C 295.704 -1.79659 0.773441 0
M  V30 2925 O 296.91 -2.54616 0.942497 0
M  V30 2926 C 295.366 -1.45856 3.2902 0
M  V30 2927 C 294.974 -0.493017 4.45279 0
M  V30 2928 C 296.718 -2.14332 3.66418 0
M  V30 2929 C 294.625 -1.16491 5.79814 0
M  V30 2930 H 293.555 -0.299356 0.692027 0
M  V30 2931 H 296.206 -0.0445343 1.83446 0
M  V30 2932 H 294.588 -2.25318 3.2565 0
M  V30 2933 H 295.762 0.270464 4.60006 0
M  V30 2934 H 294.077 0.0863061 4.16311 0
M  V30 2935 H 296.674 -2.65344 4.64216 0
M  V30 2936 H 297.017 -2.93447 2.95287 0
M  V30 2937 H 297.55 -1.41724 3.71698 0
M  V30 2938 H 294.289 -0.41447 6.54188 0
M  V30 2939 H 293.809 -1.8997 5.68921 0
M  V30 2940 H 295.488 -1.69001 6.24538 0
M  V30 2941 N 295.62 -1.53406 -0.361157 0
M  V30 2942 C 296.86 -1.71507 -1.11197 0
M  V30 2943 C 297.224 -0.459337 -1.86425 0
M  V30 2944 O 298.425 -0.517102 -2.63779 0
M  V30 2945 C 296.696 -2.93307 -2.0422 0
M  V30 2946 S 298.255 -3.32135 -2.86761 0
M  V30 2947 H 295.073 -0.603448 -0.375995 0
M  V30 2948 H 297.675 -1.91516 -0.392642 0
M  V30 2949 H 296.379 -3.82891 -1.47724 0
M  V30 2950 H 295.91 -2.75712 -2.80618 0
M  V30 2951 H 297.925 -2.84493 -4.06544 0
M  V30 2952 N 297.098 0.621204 -1.44841 0
M  V30 2953 C 298.046 1.75385 -1.52784 0
M  V30 2954 C 299.04 1.64639 -0.398779 0
M  V30 2955 O 300.246 1.70598 -0.574137 0
M  V30 2956 H 296.621 0.579193 -0.479625 0
M  V30 2957 H 298.592 1.6581 -2.48092 0
M  V30 2958 C 297.341 3.13742 -1.4987 0
M  V30 2959 H 296.664 3.22663 -2.36069 0
M  V30 2960 H 298.104 3.92861 -1.59487 0
M  V30 2961 C 296.563 3.36175 -0.220973 0
M  V30 2962 O 297.093 3.95469 0.704782 0
M  V30 2963 N 295.299 2.90348 -0.120963 0
M  V30 2964 H 294.846 2.42278 -0.875162 0
M  V30 2965 H 294.804 3.05732 0.733168 0
M  V30 2966 N 298.576 1.31904 0.862503 0
M  V30 2967 C 299.822 1.22197 1.61851 0
M  V30 2968 C 300.155 -0.217641 1.92977 0
M  V30 2969 O 299.43 -1.15264 1.56666 0
M  V30 2970 C 299.713 2.07378 2.94391 0
M  V30 2971 C 299.566 3.59678 2.70096 0
M  V30 2972 C 300.885 1.92891 3.95577 0
M  V30 2973 H 298.004 0.445255 0.587296 0
M  V30 2974 H 300.646 1.6177 0.99651 0
M  V30 2975 H 298.796 1.73758 3.47477 0
M  V30 2976 H 300.468 4.03472 2.23625 0
M  V30 2977 H 298.711 3.82735 2.04197 0
M  V30 2978 H 299.382 4.14595 3.64438 0
M  V30 2979 H 301.858 2.22327 3.51724 0
M  V30 2980 H 300.734 2.54781 4.86187 0
M  V30 2981 H 300.995 0.894315 4.3296 0
M  V30 2982 N 300.054 -1.07777 1.14986 0
M  V30 2983 C 301.002 -2.16964 0.838406 0
M  V30 2984 C 301.996 -1.68372 -0.186386 0
M  V30 2985 O 303.202 -1.79951 -0.0418465 0
M  V30 2986 H 299.577 -0.708006 0.253439 0
M  V30 2987 H 301.548 -2.40454 1.76704 0
M  V30 2988 C 300.297 -3.4604 0.339335 0
M  V30 2989 H 299.62 -3.83813 1.11927 0
M  V30 2990 H 301.06 -4.23698 0.160021 0
M  V30 2991 C 299.519 -3.23569 -0.938325 0
M  V30 2992 O 300.049 -3.47752 -2.01077 0
M  V30 2993 N 298.255 -2.77079 -0.876117 0
M  V30 2994 H 297.802 -2.576 -0.00322037 0
M  V30 2995 H 297.76 -2.62422 -1.73153 0
M  V30 2996 N 301.532 -0.945985 -1.26051 0
M  V30 2997 C 302.482 -0.430164 -2.23905 0
M  V30 2998 C 303.466 0.47579 -1.53704 0
M  V30 2999 O 304.658 0.310252 -1.7426 0
M  V30 3000 C 301.787 0.298957 -3.41996 0
M  V30 3001 C 300.873 -0.624566 -4.19476 0
M  V30 3002 N 301.264 -1.75245 -4.74471 0
M  V30 3003 C 299.562 -0.431082 -4.43912 0
M  V30 3004 C 300.263 -2.32834 -5.3307 0
M  V30 3005 N 299.239 -1.61583 -5.1903 0
M  V30 3006 H 303.041 -1.29107 -2.64024 0
M  V30 3007 H 300.555 -0.802428 -1.41191 0
M  V30 3008 H 302.552 0.685565 -4.11225 0
M  V30 3009 H 301.212 1.15657 -3.03403 0
M  V30 3010 H 302.223 -2.13449 -4.71868 0
M  V30 3011 H 298.9 0.384364 -4.15727 0
M  V30 3012 H 300.29 -3.27893 -5.86461 0
M  V30 3013 N 303.011 1.40521 -0.713556 0
M  V30 3014 C 303.958 2.30723 -0.059684 0
M  V30 3015 C 304.928 1.48079 0.752448 0
M  V30 3016 O 306.113 1.76823 0.71681 0
M  V30 3017 C 303.253 3.34274 0.857594 0
M  V30 3018 C 302.366 4.31986 0.0351536 0
M  V30 3019 C 301.501 5.22605 0.951724 0
M  V30 3020 C 300.54 6.11976 0.123253 0
M  V30 3021 N 299.677 6.9502 0.99459 0
M  V30 3022 H 304.517 2.86074 -0.834596 0
M  V30 3023 H 302.054 1.40879 -0.42326 0
M  V30 3024 H 304.012 3.92879 1.40364 0
M  V30 3025 H 302.642 2.8043 1.59871 0
M  V30 3026 H 301.694 3.7518 -0.628052 0
M  V30 3027 H 303.006 4.95101 -0.606347 0
M  V30 3028 H 302.16 5.86131 1.56638 0
M  V30 3029 H 300.899 4.59759 1.62705 0
M  V30 3030 H 299.904 5.47482 -0.50435 0
M  V30 3031 H 301.129 6.76881 -0.548539 0
M  V30 3032 H 299.075 6.34764 1.6556 0
M  V30 3033 H 298.992 7.54892 0.40908 0
M  V30 3034 H 300.26 7.62997 1.59549 0
M  V30 3035 N 304.489 0.459591 1.5075 0
M  V30 3036 C 305.9 0.00171547 1.867 0
M  V30 3037 C 306.251 -1.39934 1.37525 0
M  V30 3038 O 305.376 -2.03523 0.735349 0
M  V30 3039 C 305.971 -0.00366298 3.388 0
M  V30 3040 C 304.53 -0.406026 3.74204 0
M  V30 3041 C 303.677 0.38673 2.7459 0
M  V30 3042 H 306.628 0.674413 1.43657 0
M  V30 3043 H 306.649 -0.808371 3.71814 0
M  V30 3044 H 306.161 1.01617 3.74561 0
M  V30 3045 H 304.262 -1.43063 3.4404 0
M  V30 3046 H 304.375 -0.115362 4.78961 0
M  V30 3047 H 302.739 -0.158019 2.54209 0
M  V30 3048 H 303.522 1.40585 3.13194 0
M  V30 3049 N 305.967 -1.56429 0.191757 0
M  V30 3050 C 307.192 -2.02309 -0.456706 0
M  V30 3051 C 307.617 -1.07103 -1.5463 0
M  V30 3052 O 306.975 -0.0539677 -1.8122 0
M  V30 3053 C 307.023 -3.46654 -0.993159 0
M  V30 3054 O 306.127 -3.54559 -2.10622 0
M  V30 3055 H 305.468 -0.655303 -0.107114 0
M  V30 3056 H 307.998 -2.02364 0.301653 0
M  V30 3057 H 308.008 -3.86377 -1.31061 0
M  V30 3058 H 306.683 -4.1544 -0.195504 0
M  V30 3059 H 305.26 -3.26708 -1.79767 0
M  V30 3060 N 307.445 0.0818655 -1.57387 0
M  V30 3061 C 308.393 1.11712 -2.04018 0
M  V30 3062 C 309.387 1.40683 -0.94364 0
M  V30 3063 O 310.593 1.40209 -1.12878 0
M  V30 3064 H 306.968 0.377542 -0.650358 0
M  V30 3065 H 308.939 0.697614 -2.90131 0
M  V30 3066 C 307.688 2.42537 -2.49141 0
M  V30 3067 H 307.011 2.21092 -3.33104 0
M  V30 3068 H 308.451 3.13446 -2.85531 0
M  V30 3069 C 306.91 3.0778 -1.37014 0
M  V30 3070 O 307.44 3.95436 -0.706621 0
M  V30 3071 N 305.646 2.68242 -1.11779 0
M  V30 3072 H 305.193 1.97052 -1.65917 0
M  V30 3073 H 305.151 3.1222 -0.369594 0
M  V30 3074 N 308.923 1.53595 0.353017 0
M  V30 3075 C 310.151 1.74311 1.1146 0
M  V30 3076 C 310.566 0.477854 1.82653 0
M  V30 3077 O 309.923 -0.549977 1.74016 0
M  V30 3078 C 309.974 2.91694 2.13534 0
M  V30 3079 O 309.695 4.13325 1.45238 0
M  V30 3080 C 311.196 3.24384 3.02142 0
M  V30 3081 H 308.416 0.582669 0.332773 0
M  V30 3082 H 310.96 2.00386 0.408107 0
M  V30 3083 H 309.115 2.67977 2.79763 0
M  V30 3084 H 309.529 4.79148 2.13349 0
M  V30 3085 H 311.003 4.09893 3.69718 0
M  V30 3086 H 311.48 2.40282 3.67643 0
M  V30 3087 H 312.086 3.50073 2.41514 0
M  V30 3088 N 310.401 -0.613514 1.45168 0
M  V30 3089 C 311.348 -1.72456 1.53387 0
M  V30 3090 C 312.318 -1.6169 0.380191 0
M  V30 3091 O 313.503 -1.81356 0.592836 0
M  V30 3092 C 310.643 -3.10753 1.50088 0
M  V30 3093 C 309.756 -3.32368 2.75963 0
M  V30 3094 C 308.891 -4.60737 2.64376 0
M  V30 3095 C 307.93 -4.7559 3.85332 0
M  V30 3096 N 307.067 -5.95253 3.72315 0
M  V30 3097 H 311.907 -1.64768 2.48305 0
M  V30 3098 H 309.444 -0.803503 1.23216 0
M  V30 3099 H 311.402 -3.90758 1.46164 0
M  V30 3100 H 310.032 -3.17413 0.587243 0
M  V30 3101 H 309.084 -2.4618 2.89999 0
M  V30 3102 H 310.396 -3.39218 3.65695 0
M  V30 3103 H 309.55 -5.48928 2.58385 0
M  V30 3104 H 308.289 -4.56275 1.72233 0
M  V30 3105 H 307.294 -3.85824 3.91688 0
M  V30 3106 H 308.519 -4.81854 4.78533 0
M  V30 3107 H 306.465 -5.91847 2.82937 0
M  V30 3108 H 306.382 -6.03236 4.55677 0
M  V30 3109 H 307.65 -6.85958 3.70246 0
M  V30 3110 N 311.879 -1.3236 -0.855495 0
M  V30 3111 C 313.125 -1.23054 -1.612 0
M  V30 3112 C 313.458 0.207404 -1.93089 0
M  V30 3113 O 312.733 1.14432 -1.57275 0
M  V30 3114 C 313.016 -2.08937 -2.93287 0
M  V30 3115 C 312.869 -3.61105 -2.68185 0
M  V30 3116 C 314.188 -1.94986 -3.94549 0
M  V30 3117 H 311.307 -0.448364 -0.584926 0
M  V30 3118 H 313.949 -1.62297 -0.987917 0
M  V30 3119 H 312.099 -1.75599 -3.46551 0
M  V30 3120 H 313.771 -4.04652 -2.21483 0
M  V30 3121 H 312.014 -3.83813 -2.02164 0
M  V30 3122 H 312.685 -4.16522 -3.62234 0
M  V30 3123 H 315.161 -2.24189 -3.5054 0
M  V30 3124 H 314.037 -2.57356 -4.84829 0
M  V30 3125 H 314.298 -0.917263 -4.3248 0
M  V30 3126 N 313.357 1.07166 -1.15556 0
M  V30 3127 C 314.634 1.76546 -0.842069 0
M  V30 3128 C 315.014 2.00453 0.661939 0
M  V30 3129 O 314.362 1.62452 1.60691 0
M  V30 3130 C 314.572 3.07266 -1.65495 0
M  V30 3131 C 315.92 3.81578 -1.86234 0
M  V30 3132 O 316.944 3.17083 -1.62287 0
M  V30 3133 O 315.803 4.97419 -2.26355 0
M  V30 3134 H 312.897 0.766756 -0.309862 0
M  V30 3135 H 315.443 1.13514 -1.26145 0
M  V30 3136 H 314.215 2.85494 -2.67598 0
M  V30 3137 H 313.838 3.7803 -1.23203 0
M  V30 3138 N 314.835 0.952656 1.25548 0
M  V30 3139 C 315.782 0.47008 2.25962 0
M  V30 3140 C 316.752 -0.476384 1.59122 0
M  V30 3141 O 317.937 -0.39007 1.8677 0
M  V30 3142 C 315.077 -0.247881 3.44209 0
M  V30 3143 C 314.19 0.735591 4.25691 0
M  V30 3144 C 313.325 -0.0047306 5.312 0
M  V30 3145 C 312.364 0.969805 6.04368 0
M  V30 3146 N 311.501 0.260486 7.01617 0
M  V30 3147 H 316.341 1.33126 2.66611 0
M  V30 3148 H 313.878 0.66765 1.31076 0
M  V30 3149 H 315.836 -0.680695 4.1161 0
M  V30 3150 H 314.466 -1.07312 3.0444 0
M  V30 3151 H 313.518 1.28689 3.57971 0
M  V30 3152 H 314.83 1.47934 4.76358 0
M  V30 3153 H 313.984 -0.496275 6.04667 0
M  V30 3154 H 312.723 -0.781282 4.81401 0
M  V30 3155 H 311.728 1.47237 5.29718 0
M  V30 3156 H 312.953 1.74655 6.56256 0
M  V30 3157 H 310.899 -0.497364 6.54112 0
M  V30 3158 H 310.816 0.943362 7.50091 0
M  V30 3159 H 312.084 -0.209587 7.79218 0
M  V30 3160 N 316.313 -1.40141 0.720998 0
M  V30 3161 C 317.26 -2.30688 0.071919 0
M  V30 3162 C 318.23 -1.48476 -0.744584 0
M  V30 3163 O 319.415 -1.77201 -0.707423 0
M  V30 3164 C 316.555 -3.34724 -0.839855 0
M  V30 3165 C 315.668 -4.31998 -0.0122438 0
M  V30 3166 C 314.803 -5.23102 -0.923995 0
M  V30 3167 C 313.842 -6.12033 -0.0907969 0
M  V30 3168 N 312.979 -6.95537 -0.957718 0
M  V30 3169 H 317.819 -2.85628 0.849755 0
M  V30 3170 H 315.356 -1.40653 0.430726 0
M  V30 3171 H 317.314 -3.93618 -1.38279 0
M  V30 3172 H 315.944 -2.81274 -1.58381 0
M  V30 3173 H 314.996 -3.74841 0.64794 0
M  V30 3174 H 316.308 -4.94772 0.632595 0
M  V30 3175 H 315.462 -5.86953 -1.53527 0
M  V30 3176 H 314.201 -4.60615 -1.60264 0
M  V30 3177 H 313.206 -5.47207 0.533377 0
M  V30 3178 H 314.431 -6.76581 0.584428 0
M  V30 3179 H 312.377 -6.35633 -1.62192 0
M  V30 3180 H 312.294 -7.55099 -0.36904 0
M  V30 3181 H 313.562 -7.63832 -1.555 0
M  V30 3182 N 317.792 -0.46758 -1.50504 0
M  V30 3183 C 319.038 0.0887532 -2.02606 0
M  V30 3184 C 319.371 1.39686 -1.34913 0
M  V30 3185 O 318.646 1.88644 -0.473694 0
M  V30 3186 C 318.929 0.276206 -3.59039 0
M  V30 3187 C 318.782 -1.05267 -4.37309 0
M  V30 3188 C 320.101 1.03235 -4.27821 0
M  V30 3189 H 317.22 0.0307814 -0.736357 0
M  V30 3190 H 319.862 -0.612485 -1.79857 0
M  V30 3191 H 318.012 0.8735 -3.78553 0
M  V30 3192 H 319.684 -1.68628 -4.29374 0
M  V30 3193 H 317.927 -1.65015 -4.01189 0
M  V30 3194 H 318.598 -0.875197 -5.45018 0
M  V30 3195 H 321.074 0.526111 -4.12761 0
M  V30 3196 H 319.95 1.1323 -5.37094 0
M  V30 3197 H 320.211 2.06806 -3.90748 0
M  V30 3198 N 319.27 1.56325 -0.20005 0
M  V30 3199 C 320.18 2.22931 0.730668 0
M  V30 3200 C 321.196 1.22997 1.23076 0
M  V30 3201 O 322.372 1.55748 1.27689 0
M  V30 3202 C 319.437 2.87948 1.93098 0
M  V30 3203 C 318.498 4.03166 1.47497 0
M  V30 3204 C 317.731 4.65073 2.61807 0
M  V30 3205 O 317.954 4.25913 3.79413 0
M  V30 3206 O 316.888 5.54452 2.34237 0
M  V30 3207 H 320.714 3.03084 0.193391 0
M  V30 3208 H 318.299 1.49371 0.0294621 0
M  V30 3209 H 320.181 3.29063 2.6324 0
M  V30 3210 H 318.856 2.10771 2.45677 0
M  V30 3211 H 317.763 3.66664 0.742201 0
M  V30 3212 H 319.096 4.82022 0.995796 0
M  V30 3213 N 320.748 -0.0735177 1.57428 0
M  V30 3214 C 322.159 -0.625551 1.75908 0
M  V30 3215 C 322.51 -1.78 0.825261 0
M  V30 3216 O 321.635 -2.16398 0.00893964 0
M  V30 3217 C 322.23 -1.14155 3.18989 0
M  V30 3218 C 320.789 -1.63946 3.38819 0
M  V30 3219 C 319.936 -0.558151 2.71625 0
M  V30 3220 H 322.887 0.152647 1.57964 0
M  V30 3221 H 322.908 -2.0104 3.23053 0
M  V30 3222 H 322.42 -0.301116 3.8693 0
M  V30 3223 H 320.521 -2.50321 2.7599 0
M  V30 3224 H 320.634 -1.71759 4.47253 0
M  V30 3225 H 318.998 -1.00278 2.34129 0
M  V30 3226 H 319.781 0.272071 3.4222 0
M  V30 3227 N 322.226 -1.5378 -0.344866 0
M  V30 3228 C 323.173 -1.81676 -1.42346 0
M  V30 3229 C 324.143 -0.662376 -1.52321 0
M  V30 3230 O 325.328 -0.906675 -1.67881 0
M  V30 3231 C 322.468 -2.03087 -2.79015 0
M  V30 3232 C 321.581 -3.30799 -2.77842 0
M  V30 3233 C 320.716 -3.42285 -4.0622 0
M  V30 3234 C 319.755 -4.6395 -3.9927 0
M  V30 3235 N 318.892 -4.72477 -5.19336 0
M  V30 3236 H 323.732 -2.73703 -1.17858 0
M  V30 3237 H 321.269 -1.35568 -0.570949 0
M  V30 3238 H 323.227 -2.1349 -3.58438 0
M  V30 3239 H 321.857 -1.14375 -3.01858 0
M  V30 3240 H 320.909 -3.29244 -1.90533 0
M  V30 3241 H 322.221 -4.20314 -2.68584 0
M  V30 3242 H 321.375 -3.52113 -4.94066 0
M  V30 3243 H 320.114 -2.50823 -4.18258 0
M  V30 3244 H 319.119 -4.54201 -3.09809 0
M  V30 3245 H 320.344 -5.56775 -3.88817 0
M  V30 3246 H 318.29 -3.83924 -5.3192 0
M  V30 3247 H 318.207 -5.55927 -5.12329 0
M  V30 3248 H 319.475 -4.86613 -6.08957 0
M  V30 3249 N 323.704 0.605807 -1.45491 0
M  V30 3250 C 324.929 1.39625 -1.53361 0
M  V30 3251 C 325.354 1.87351 -0.167645 0
M  V30 3252 O 324.712 1.60243 0.848051 0
M  V30 3253 C 324.76 2.57559 -2.5238 0
M  V30 3254 O 323.864 3.58248 -2.04285 0
M  V30 3255 H 323.205 0.416771 -0.516912 0
M  V30 3256 H 325.735 0.737103 -1.90861 0
M  V30 3257 H 325.745 3.0478 -2.71244 0
M  V30 3258 H 324.42 2.22171 -3.51586 0
M  V30 3259 H 322.997 3.17664 -1.95305 0
M  V30 3260 N 325.182 1.32811 0.848464 0
M  V30 3261 C 326.422 1.25046 1.61687 0
M  V30 3262 C 326.786 -0.183464 1.91121 0
M  V30 3263 O 327.987 -0.384937 2.66029 0
M  V30 3264 C 326.258 2.09201 2.89775 0
M  V30 3265 S 327.817 2.18526 3.80515 0
M  V30 3266 H 324.635 0.445023 0.554505 0
M  V30 3267 H 327.237 1.67733 1.00429 0
M  V30 3268 H 325.941 3.12433 2.66108 0
M  V30 3269 H 325.472 1.67315 3.56047 0
M  V30 3270 H 327.487 1.3393 4.77784 0
M  V30 3271 N 326.66 -1.06551 1.16123 0
M  V30 3272 C 327.937 -1.76097 0.85142 0
M  V30 3273 C 328.317 -2.00802 -0.6513 0
M  V30 3274 O 327.665 -1.63302 -1.59827 0
M  V30 3275 C 327.875 -3.06384 1.67122 0
M  V30 3276 C 329.223 -3.80585 1.88255 0
M  V30 3277 O 330.247 -3.16218 1.63966 0
M  V30 3278 O 329.106 -4.96212 2.2899 0
M  V30 3279 H 326.2 -0.765102 0.313923 0
M  V30 3280 H 328.746 -1.12844 1.26745 0
M  V30 3281 H 327.518 -2.84071 2.69108 0
M  V30 3282 H 327.141 -3.77371 1.25206 0
M  V30 3283 N 328.138 -0.959301 -1.25041 0
M  V30 3284 C 329.085 -0.482057 -2.2571 0
M  V30 3285 C 330.055 0.467939 -1.59372 0
M  V30 3286 O 331.24 0.380159 -1.86974 0
M  V30 3287 C 328.38 0.229623 -3.44335 0
M  V30 3288 C 327.493 -0.758156 -4.25295 0
M  V30 3289 C 326.628 -0.0234403 -5.31195 0
M  V30 3290 C 325.667 -1.00184 -6.03846 0
M  V30 3291 N 324.804 -0.29769 -7.01469 0
M  V30 3292 H 329.644 -1.34538 -2.65901 0
M  V30 3293 H 327.181 -0.674592 -1.3072 0
M  V30 3294 H 329.139 0.658856 -4.11965 0
M  V30 3295 H 327.769 1.05696 -3.05005 0
M  V30 3296 H 326.821 -1.30586 -3.57284 0
M  V30 3297 H 328.133 -1.50458 -4.75567 0
M  V30 3298 H 327.287 0.464201 -6.04922 0
M  V30 3299 H 326.026 0.755741 -4.81809 0
M  V30 3300 H 325.031 -1.50044 -5.2893 0
M  V30 3301 H 326.256 -1.78133 -6.55321 0
M  V30 3302 H 324.202 0.462668 -6.54366 0
M  V30 3303 H 324.119 -0.983128 -7.4958 0
M  V30 3304 H 325.387 0.16826 -7.79318 0
M  V30 3305 N 329.616 1.39756 -0.72842 0
M  V30 3306 C 330.844 2.04948 -0.283528 0
M  V30 3307 C 331.259 1.54908 1.0793 0
M  V30 3308 O 330.616 0.711135 1.68075 0
M  V30 3309 C 330.667 3.60498 -0.268957 0
M  V30 3310 O 330.388 4.08695 -1.57798 0
M  V30 3311 C 331.889 4.4288 0.192912 0
M  V30 3312 H 329.109 0.659243 -0.125056 0
M  V30 3313 H 331.653 1.78927 -0.990226 0
M  V30 3314 H 329.808 3.85444 0.388801 0
M  V30 3315 H 330.222 5.02977 -1.48709 0
M  V30 3316 H 331.696 5.51791 0.151952 0
M  V30 3317 H 332.173 4.21418 1.23708 0
M  V30 3318 H 332.779 4.23069 -0.435039 0
M  V30 3319 N 331.094 0.475555 1.50254 0
M  V30 3320 C 332.044 -0.335025 2.25525 0
M  V30 3321 C 333.028 -0.957625 1.29299 0
M  V30 3322 O 334.22 -0.869436 1.54175 0
M  V30 3323 C 331.349 -1.41385 3.12834 0
M  V30 3324 C 330.435 -0.798762 4.1651 0
M  V30 3325 N 330.826 0.0835815 5.05731 0
M  V30 3326 C 329.124 -1.06221 4.33166 0
M  V30 3327 C 329.825 0.433113 5.80085 0
M  V30 3328 N 328.801 -0.1928 5.43258 0
M  V30 3329 H 332.603 0.344612 2.91873 0
M  V30 3330 H 330.117 0.289986 1.5979 0
M  V30 3331 H 332.114 -2.00777 3.65368 0
M  V30 3332 H 330.774 -2.09543 2.48036 0
M  V30 3333 H 331.785 0.452715 5.15918 0
M  V30 3334 H 328.462 -1.73844 3.79585 0
M  V30 3335 H 329.852 1.15346 6.61925 0
M  V30 3336 N 332.573 -1.56217 0.208337 0
M  V30 3337 C 333.801 -2.02337 -0.43215 0
M  V30 3338 C 334.216 -1.08834 -1.54275 0
M  V30 3339 O 333.573 -0.0955462 -1.8225 0
M  V30 3340 C 333.624 -3.48072 -0.976138 0
M  V30 3341 O 333.345 -4.38007 0.0901621 0
M  V30 3342 C 334.846 -4.09773 -1.69119 0
M  V30 3343 H 332.066 -0.662385 -0.10718 0
M  V30 3344 H 334.61 -2.01966 0.320923 0
M  V30 3345 H 332.765 -3.49099 -1.67954 0
M  V30 3346 H 333.179 -5.23543 -0.316701 0
M  V30 3347 H 334.653 -5.13556 -2.02397 0
M  V30 3348 H 335.13 -3.53999 -2.59964 0
M  V30 3349 H 335.736 -4.12556 -1.03332 0
M  V30 3350 N 334.051 0.0651679 -1.57465 0
M  V30 3351 C 335.291 0.768329 -1.8941 0
M  V30 3352 C 335.655 1.74406 -0.802894 0
M  V30 3353 O 336.856 2.49281 -1.0056 0
M  V30 3354 C 335.127 1.45199 -3.26576 0
M  V30 3355 S 336.686 2.1893 -3.80283 0
M  V30 3356 H 333.504 0.255359 -0.663561 0
M  V30 3357 H 336.106 0.024167 -1.95485 0
M  V30 3358 H 334.81 0.728123 -4.03889 0
M  V30 3359 H 334.341 2.23545 -3.23715 0
M  V30 3360 H 336.356 3.45551 -3.56102 0
M  V30 3361 N 335.529 1.53961 0.336706 0
M  V30 3362 C 336.492 1.81724 1.39675 0
M  V30 3363 C 337.492 0.688532 1.45313 0
M  V30 3364 O 338.682 0.956829 1.45569 0
M  V30 3365 C 335.814 1.96543 2.78538 0
M  V30 3366 H 337.007 2.76424 1.16318 0
M  V30 3367 H 334.56 1.45478 0.571474 0
M  V30 3368 H 335.295 1.0401 3.07168 0
M  V30 3369 H 335.08 2.78665 2.75841 0
M  V30 3370 H 336.57 2.19516 3.5525 0
M  V30 3371 N 337.007 -0.598083 1.45811 0
M  V30 3372 C 337.97 -1.69018 1.54808 0
M  V30 3373 C 338.97 -1.55037 0.426652 0
M  V30 3374 O 340.16 -1.59932 0.690456 0
M  V30 3375 C 337.292 -3.0835 1.45371 0
M  V30 3376 H 338.485 -1.62403 2.52121 0
M  V30 3377 H 336.038 -0.814626 1.33392 0
M  V30 3378 H 336.773 -3.20534 0.492793 0
M  V30 3379 H 336.558 -3.19907 2.26721 0
M  V30 3380 H 338.048 -3.8788 1.54721 0
M  V30 3381 O 338.524 -1.43439 -0.742122 0
M  V30 3382 H 339.215 -1.3475 -1.39148 0
M  V30 END ATOM
M  V30 BEGIN BOND
M  V30 END BOND
M  V30 END CTAB
M  END
$$$$
