drugbank_target|O08498 Carbapenem-hydrolyzing beta-lactamase BlaB-1 (DB02032)
 OpenBabel12092120243D

  0  0  0     0  0            999 V3000
M  V30 BEGIN CTAB
M  V30 COUNTS 3963 4007 0 0 0
M  V30 BEGIN ATOM
M  V30 1 H -0.908 1.98254 -0.117106 0
M  V30 2 N 0 1.576 0 0
M  V30 3 C 0.933 2.03868 1.02534 0
M  V30 4 C 1.911 0.928543 1.3348 0
M  V30 5 O 3.095 1.19667 1.45644 0
M  V30 6 C 0.222 2.43627 2.35294 0
M  V30 7 C -0.732 3.65373 2.2001 0
M  V30 8 S 0.101 5.13292 1.52614 0
M  V30 9 C 1.257 5.56322 2.86805 0
M  V30 10 H 1.49 2.90518 0.631377 0
M  V30 11 H -0.977 1.52953 0.210867 0
M  V30 12 H 0.981 2.67203 3.11629 0
M  V30 13 H -0.358 1.57376 2.7183 0
M  V30 14 H -1.165 3.90944 3.18086 0
M  V30 15 H -1.563 3.418 1.51819 0
M  V30 16 H 0.729 5.58782 3.83104 0
M  V30 17 H 1.672 6.56266 2.65933 0
M  V30 18 H 2.08 4.83886 2.90714 0
M  V30 19 N 1.4781 -0.272755 1.55222 0
M  V30 20 C 2.4081 -1.34136 1.91127 0
M  V30 21 C 3.3891 -1.51513 0.773168 0
M  V30 22 O 4.5741 -1.64552 1.03132 0
M  V30 23 C 1.7041 -2.70083 2.1834 0
M  V30 24 C 0.6581 -2.67437 3.34158 0
M  V30 25 C -0.0159 -4.06938 3.46851 0
M  V30 26 C 1.2841 -2.26686 4.70543 0
M  V30 27 H 2.9781 -1.04333 2.80633 0
M  V30 28 H 0.5241 -0.500454 1.35024 0
M  V30 29 H 2.4771 -3.44952 2.42046 0
M  V30 30 H 1.2011 -3.01469 1.25634 0
M  V30 31 H -0.1399 -1.95026 3.1042 0
M  V30 32 H -0.4919 -4.35547 2.51611 0
M  V30 33 H -0.7919 -4.06062 4.2472 0
M  V30 34 H 0.7321 -4.83545 3.72849 0
M  V30 35 H 2.1461 -2.91277 4.93792 0
M  V30 36 H 0.5431 -2.36971 5.5133 0
M  V30 37 H 1.6131 -1.21818 4.69349 0
M  V30 38 N 2.9562 -1.48159 -0.537278 0
M  V30 39 C 3.9032 -1.62138 -1.64256 0
M  V30 40 C 4.8732 -0.463668 -1.59497 0
M  V30 41 O 6.0582 -0.686241 -1.78032 0
M  V30 42 C 3.1982 -1.66028 -3.02537 0
M  V30 43 C 2.3112 -2.92855 -3.17585 0
M  V30 44 C 1.4462 -2.87952 -4.46382 0
M  V30 45 C 0.4852 -4.09516 -4.54932 0
M  V30 46 N -0.3778 -4.02733 -5.75109 0
M  V30 47 H 4.4622 -2.56529 -1.51647 0
M  V30 48 H 1.9992 -1.27224 -0.738414 0
M  V30 49 H 3.9572 -1.66265 -3.82638 0
M  V30 50 H 2.5872 -0.751331 -3.13934 0
M  V30 51 H 1.6392 -3.02395 -2.30784 0
M  V30 52 H 2.9512 -3.82822 -3.19764 0
M  V30 53 H 2.1052 -2.8655 -5.34765 0
M  V30 54 H 0.8442 -1.95702 -4.46712 0
M  V30 55 H -0.1508 -4.11201 -3.64957 0
M  V30 56 H 1.0742 -5.02917 -4.56346 0
M  V30 57 H -0.9798 -3.13299 -5.76351 0
M  V30 58 H -1.0628 -4.86397 -5.78752 0
M  V30 59 H 0.2052 -4.05379 -6.65799 0
M  V30 60 N 4.4343 0.785586 -1.36625 0
M  V30 61 C 5.3813 1.89838 -1.31264 0
M  V30 62 C 6.3513 1.65115 -0.180633 0
M  V30 63 O 7.5363 1.87222 -0.36777 0
M  V30 64 C 4.6763 3.26706 -1.11163 0
M  V30 65 C 3.7893 3.63476 -2.33472 0
M  V30 66 C 2.9243 4.89481 -2.06353 0
M  V30 67 C 1.9633 5.18941 -3.24602 0
M  V30 68 N 1.1003 6.36131 -2.97123 0
M  V30 69 H 5.9403 1.93756 -2.26413 0
M  V30 70 H 3.4773 0.947454 -1.12524 0
M  V30 71 H 5.4353 4.05639 -0.975337 0
M  V30 72 H 4.0653 3.222 -0.196674 0
M  V30 73 H 3.1173 2.79636 -2.57891 0
M  V30 74 H 4.4293 3.81193 -3.21704 0
M  V30 75 H 3.5833 5.76288 -1.89675 0
M  V30 76 H 2.3223 4.73841 -1.15437 0
M  V30 77 H 1.3273 4.30615 -3.41834 0
M  V30 78 H 2.5523 5.36498 -4.16349 0
M  V30 79 H 0.4983 6.21875 -2.08823 0
M  V30 80 H 0.4153 6.54198 -3.78894 0
M  V30 81 H 1.6833 7.2591 -2.84033 0
M  V30 82 N 5.9124 1.20967 1.01018 0
M  V30 83 C 7.1614 1.01796 1.74128 0
M  V30 84 C 7.4744 -0.449691 1.90361 0
M  V30 85 O 8.6804 -0.76068 2.60626 0
M  V30 86 C 7.1364 1.7727 3.13215 0
M  V30 87 C 6.7444 3.28171 3.04972 0
M  V30 88 C 8.4884 1.66489 3.90489 0
M  V30 89 C 6.3954 3.96156 4.39107 0
M  V30 90 H 5.3254 0.377276 0.652824 0
M  V30 91 H 7.9764 1.44651 1.12909 0
M  V30 92 H 6.3584 1.27205 3.75013 0
M  V30 93 H 7.5324 3.85499 2.52443 0
M  V30 94 H 5.8474 3.39437 2.41188 0
M  V30 95 H 8.4444 2.14617 4.89738 0
M  V30 96 H 8.7874 0.6222 4.11624 0
M  V30 97 H 9.3204 2.14003 3.35332 0
M  V30 98 H 6.0594 5.00604 4.23174 0
M  V30 99 H 5.5794 3.43617 4.91617 0
M  V30 100 H 7.2584 4.00774 5.07926 0
M  V30 101 N 7.3905 -1.2043 1.01659 0
M  V30 102 C 8.3375 -2.23215 0.586822 0
M  V30 103 C 9.3075 -1.61382 -0.393085 0
M  V30 104 O 10.4925 -1.88544 -0.292525 0
M  V30 105 C 7.6325 -3.45032 -0.0687464 0
M  V30 106 C 6.7455 -4.21296 0.955724 0
M  V30 107 C 5.8805 -5.30507 0.271208 0
M  V30 108 C 4.9195 -5.98515 1.28244 0
M  V30 109 N 4.0565 -6.99316 0.62459 0
M  V30 110 H 8.8965 -2.59336 1.46796 0
M  V30 111 H 6.4335 -1.27431 0.734836 0
M  V30 112 H 8.3915 -4.1459 -0.465965 0
M  V30 113 H 7.0215 -3.09604 -0.913529 0
M  V30 114 H 6.0735 -3.50803 1.4711 0
M  V30 115 H 7.3855 -4.6803 1.72479 0
M  V30 116 H 6.5395 -6.06428 -0.18151 0
M  V30 117 H 5.2785 -4.8481 -0.530163 0
M  V30 118 H 4.2835 -5.21355 1.74554 0
M  V30 119 H 5.5085 -6.46298 2.08509 0
M  V30 120 H 3.4545 -6.55812 -0.156914 0
M  V30 121 H 3.3715 -7.44178 1.33172 0
M  V30 122 H 4.6395 -7.79255 0.195462 0
M  V30 123 N 8.8686 -0.792821 -1.36206 0
M  V30 124 C 10.1176 -0.363353 -1.984 0
M  V30 125 C 10.4306 1.07172 -1.63626 0
M  V30 126 O 11.6366 1.60362 -2.19081 0
M  V30 127 C 10.0926 -0.59872 -3.54885 0
M  V30 128 C 9.7006 -2.04543 -3.9858 0
M  V30 129 C 11.4446 -0.233926 -4.23855 0
M  V30 130 C 9.3516 -2.22727 -5.47856 0
M  V30 131 H 8.2816 -0.13212 -0.742334 0
M  V30 132 H 10.9326 -0.974935 -1.55458 0
M  V30 133 H 9.3146 0.0826222 -3.95914 0
M  V30 134 H 10.4886 -2.76345 -3.68741 0
M  V30 135 H 8.8036 -2.36879 -3.42458 0
M  V30 136 H 11.4006 -0.348027 -5.33566 0
M  V30 137 H 11.7436 0.818351 -4.08177 0
M  V30 138 H 12.2766 -0.868639 -3.882 0
M  V30 139 H 9.0156 -3.2635 -5.68486 0
M  V30 140 H 8.5356 -1.55434 -5.7931 0
M  V30 141 H 10.2146 -2.03607 -6.14128 0
M  V30 142 N 10.3467 1.47872 -0.545128 0
M  V30 143 C 11.5717 2.07391 -0.0190611 0
M  V30 144 C 11.9967 1.39688 1.25971 0
M  V30 145 O 11.3547 0.467816 1.7516 0
M  V30 146 C 11.4027 3.60188 0.172335 0
M  V30 147 O 10.5067 3.9339 1.23766 0
M  V30 148 H 9.8477 0.662411 -0.0459059 0
M  V30 149 H 12.3777 1.90066 -0.757365 0
M  V30 150 H 12.3877 4.06129 0.390305 0
M  V30 151 H 11.0627 4.08865 -0.761725 0
M  V30 152 H 9.6397 3.5921 1.00114 0
M  V30 153 N 11.8248 0.280983 1.55075 0
M  V30 154 C 12.7548 -0.597469 2.25727 0
M  V30 155 C 13.7358 -1.15417 1.24952 0
M  V30 156 O 14.9208 -1.18722 1.53684 0
M  V30 157 C 12.0508 -1.7789 2.98283 0
M  V30 158 C 11.0048 -1.35347 4.06036 0
M  V30 159 C 10.3308 -2.61846 4.66198 0
M  V30 160 C 11.6308 -0.499354 5.19907 0
M  V30 161 H 13.3248 -0.00824265 2.99399 0
M  V30 162 H 10.8708 -0.0025244 1.44 0
M  V30 163 H 12.8238 -2.39937 3.46422 0
M  V30 164 H 11.5478 -2.39405 2.22155 0
M  V30 165 H 10.2068 -0.756156 3.58717 0
M  V30 166 H 9.8548 -3.21632 3.86732 0
M  V30 167 H 9.5548 -2.3409 5.38958 0
M  V30 168 H 11.0788 -3.24732 5.1709 0
M  V30 169 H 12.4928 -1.02498 5.64063 0
M  V30 170 H 10.8898 -0.316424 5.99265 0
M  V30 171 H 11.9598 0.480459 4.82514 0
M  V30 172 N 13.3029 -1.57598 0.00835791 0
M  V30 173 C 14.5519 -1.90107 -0.673968 0
M  V30 174 C 14.8649 -0.884275 -1.7447 0
M  V30 175 O 16.0709 -1.09987 -2.48224 0
M  V30 176 C 14.5269 -3.37497 -1.24995 0
M  V30 177 C 14.1349 -4.47491 -0.2136 0
M  V30 178 C 15.8789 -3.79104 -1.90999 0
M  V30 179 C 13.7859 -5.85963 -0.80005 0
M  V30 180 H 12.7159 -0.709393 -0.255495 0
M  V30 181 H 15.3669 -1.83365 0.0702693 0
M  V30 182 H 13.7489 -3.39102 -2.04513 0
M  V30 183 H 14.9229 -4.57414 0.557596 0
M  V30 184 H 13.2379 -4.14956 0.346474 0
M  V30 185 H 15.8349 -4.79901 -2.35795 0
M  V30 186 H 16.1779 -3.1306 -2.74407 0
M  V30 187 H 16.7109 -3.79833 -1.18203 0
M  V30 188 H 13.4499 -6.555 -0.00456708 0
M  V30 189 H 12.9699 -5.79687 -1.54021 0
M  V30 190 H 14.6489 -6.33884 -1.29615 0
M  V30 191 N 14.781 0.264519 -1.55364 0
M  V30 192 C 15.711 1.33121 -1.91836 0
M  V30 193 C 16.692 1.51101 -0.781192 0
M  V30 194 O 17.877 1.64003 -1.04003 0
M  V30 195 C 15.007 2.68921 -2.19769 0
M  V30 196 C 13.961 2.65661 -3.35571 0
M  V30 197 C 13.287 4.05093 -3.49004 0
M  V30 198 C 14.587 2.24187 -4.71739 0
M  V30 199 H 16.281 1.02844 -2.81182 0
M  V30 200 H 13.827 0.493286 -1.35287 0
M  V30 201 H 15.78 3.43663 -2.43872 0
M  V30 202 H 14.504 3.00799 -1.27231 0
M  V30 203 H 13.163 1.93377 -3.1145 0
M  V30 204 H 12.811 4.34206 -2.53917 0
M  V30 205 H 12.511 4.03804 -4.26868 0
M  V30 206 H 14.035 4.81561 -3.75408 0
M  V30 207 H 15.449 2.88654 -4.9533 0
M  V30 208 H 13.846 2.34044 -5.52579 0
M  V30 209 H 14.916 1.19327 -4.69988 0
M  V30 210 N 16.2591 1.48442 0.529413 0
M  V30 211 C 17.2221 1.62524 1.61612 0
M  V30 212 C 18.2221 0.498509 1.52877 0
M  V30 213 O 19.4121 0.76431 1.56537 0
M  V30 214 C 16.5441 1.59597 3.01233 0
M  V30 215 H 17.7371 2.59423 1.50465 0
M  V30 216 H 15.2901 1.37047 0.751514 0
M  V30 217 H 16.0251 0.641781 3.17886 0
M  V30 218 H 15.8101 2.41397 3.08982 0
M  V30 219 H 17.3001 1.72646 3.80241 0
M  V30 220 N 17.7372 -0.778329 1.37039 0
M  V30 221 C 18.6672 -1.90546 1.34962 0
M  V30 222 C 19.6482 -1.68681 0.219274 0
M  V30 223 O 20.8332 -1.89634 0.418624 0
M  V30 224 C 17.9632 -3.27734 1.14925 0
M  V30 225 C 16.9172 -3.64147 2.24902 0
M  V30 226 C 16.2432 -4.99806 1.89996 0
M  V30 227 C 17.5432 -3.71579 3.67051 0
M  V30 228 H 19.2372 -1.92541 2.29277 0
M  V30 229 H 16.7832 -0.924948 1.10366 0
M  V30 230 H 18.7362 -4.06215 1.12104 0
M  V30 231 H 17.4602 -3.26154 0.170631 0
M  V30 232 H 16.1192 -2.8797 2.26868 0
M  V30 233 H 15.7672 -4.94759 0.906796 0
M  V30 234 H 15.4672 -5.25139 2.63634 0
M  V30 235 H 16.9912 -5.80694 1.88749 0
M  V30 236 H 18.4052 -4.40227 3.67251 0
M  V30 237 H 16.8022 -4.08405 4.39688 0
M  V30 238 H 17.8722 -2.72404 4.01154 0
M  V30 239 N 19.2153 -1.21501 -1.00376 0
M  V30 240 C 20.4633 -1.03095 -1.73827 0
M  V30 241 C 20.7843 0.436341 -1.90055 0
M  V30 242 O 20.0543 1.31466 -1.45236 0
M  V30 243 H 18.6343 -0.378487 -0.644016 0
M  V30 244 H 21.2963 -1.52831 -1.20949 0
M  V30 245 H 20.3923 -1.49991 -2.73695 0
M  V30 246 N 20.6934 1.19889 -1.02296 0
M  V30 247 C 21.6234 2.25141 -0.619174 0
M  V30 248 C 22.6044 1.66051 0.368915 0
M  V30 249 O 23.7894 1.92546 0.252941 0
M  V30 250 C 20.9194 3.4728 0.0368783 0
M  V30 251 C 19.8734 4.19005 -0.872865 0
M  V30 252 C 19.1994 5.34637 -0.0822402 0
M  V30 253 C 20.4994 4.74452 -2.18387 0
M  V30 254 H 22.1934 2.59171 -1.49903 0
M  V30 255 H 19.7394 1.24579 -0.722222 0
M  V30 256 H 21.6924 4.20098 0.330958 0
M  V30 257 H 20.4164 3.12433 0.95149 0
M  V30 258 H 19.0754 3.48061 -1.15105 0
M  V30 259 H 18.7234 4.96034 0.83422 0
M  V30 260 H 18.4234 5.83557 -0.688149 0
M  V30 261 H 19.9474 6.10255 0.205238 0
M  V30 262 H 21.3614 5.39055 -1.95172 0
M  V30 263 H 19.7584 5.33834 -2.74119 0
M  V30 264 H 20.8284 3.92844 -2.84257 0
M  V30 265 N 22.1715 0.800033 1.35784 0
M  V30 266 C 23.3995 0.389606 2.03199 0
M  V30 267 C 23.8145 -0.997375 1.60306 0
M  V30 268 O 23.1715 -1.64154 0.797481 0
M  V30 269 C 23.2225 0.455855 3.58614 0
M  V30 270 O 22.9435 1.78815 3.99946 0
M  V30 271 C 24.4445 0.0374032 4.43284 0
M  V30 272 H 21.6645 0.159132 0.651857 0
M  V30 273 H 24.2085 1.08183 1.73541 0
M  V30 274 H 22.3635 -0.188057 3.86943 0
M  V30 275 H 22.7775 1.74636 4.94573 0
M  V30 276 H 24.2515 0.134882 5.51835 0
M  V30 277 H 24.7285 -1.01651 4.27275 0
M  V30 278 H 25.3345 0.654215 4.20238 0
M  V30 279 N 23.6496 -1.47581 0.552962 0
M  V30 280 C 24.8746 -2.07378 0.0300593 0
M  V30 281 C 25.2996 -1.40355 -1.25229 0
M  V30 282 O 24.6576 -0.477099 -1.7491 0
M  V30 283 C 24.7056 -3.60274 -0.153231 0
M  V30 284 O 23.8096 -3.94041 -1.21678 0
M  V30 285 H 23.1506 -0.662158 0.0494182 0
M  V30 286 H 25.6806 -1.89662 0.767434 0
M  V30 287 H 25.6906 -4.0633 -0.368761 0
M  V30 288 H 24.3656 -4.08455 0.783397 0
M  V30 289 H 22.9426 -3.59735 -0.982079 0
M  V30 290 N 25.1277 -0.289203 -1.54924 0
M  V30 291 C 26.0577 0.58549 -2.2604 0
M  V30 292 C 27.0387 1.14753 -1.25562 0
M  V30 293 O 28.2237 1.17906 -1.54311 0
M  V30 294 C 25.3537 1.76305 -2.99222 0
M  V30 295 C 24.3077 1.33191 -4.06748 0
M  V30 296 C 23.6337 2.5937 -4.6758 0
M  V30 297 C 24.9337 0.471775 -5.20165 0
M  V30 298 H 26.6277 -0.00763532 -2.99399 0
M  V30 299 H 24.1737 -0.00511229 -1.43999 0
M  V30 300 H 26.1267 2.38097 -3.47689 0
M  V30 301 H 24.8507 2.38223 -2.23422 0
M  V30 302 H 23.5097 0.737121 -3.59113 0
M  V30 303 H 23.1577 3.19576 -3.88433 0
M  V30 304 H 22.8577 2.31228 -5.40192 0
M  V30 305 H 24.3817 3.21985 -5.18804 0
M  V30 306 H 25.7957 0.995056 -5.64599 0
M  V30 307 H 24.1927 0.284639 -5.99425 0
M  V30 308 H 25.2627 -0.506041 -4.82252 0
M  V30 309 N 26.6058 1.57591 -0.0167156 0
M  V30 310 C 27.5378 2.06343 0.997753 0
M  V30 311 C 28.5508 0.984469 1.29661 0
M  V30 312 O 29.7398 1.26093 1.26344 0
M  V30 313 C 26.8398 2.46255 2.32834 0
M  V30 314 C 26.0128 3.77083 2.21646 0
M  V30 315 C 25.0718 4.0368 3.37534 0
M  V30 316 O 24.0978 4.7411 3.14973 0
M  V30 317 N 25.2998 3.52881 4.60929 0
M  V30 318 H 28.0648 2.93997 0.581875 0
M  V30 319 H 25.6258 1.61002 0.170316 0
M  V30 320 H 27.6178 2.61149 3.09166 0
M  V30 321 H 26.1878 1.64032 2.66106 0
M  V30 322 H 25.4078 3.72106 1.30119 0
M  V30 323 H 26.6958 4.62822 2.11361 0
M  V30 324 H 26.0938 2.95878 4.82154 0
M  V30 325 H 24.6508 3.73076 5.34469 0
M  V30 326 N 28.0839 -0.256276 1.55502 0
M  V30 327 C 29.0469 -1.30047 1.88734 0
M  V30 328 C 30.0469 -1.4154 0.763086 0
M  V30 329 O 31.2369 -1.40403 1.03115 0
M  V30 330 C 28.3689 -2.67953 2.10747 0
M  V30 331 H 29.5619 -1.01802 2.82093 0
M  V30 332 H 27.1149 -0.495134 1.4825 0
M  V30 333 H 27.8499 -3.01351 1.19825 0
M  V30 334 H 27.6349 -2.60993 2.92617 0
M  V30 335 H 29.1249 -3.43368 2.37673 0
M  V30 336 N 29.562 -1.4872 -0.521534 0
M  V30 337 C 30.809 -1.57168 -1.27689 0
M  V30 338 C 31.137 -0.249275 -1.92896 0
M  V30 339 O 30.392 0.761162 -1.80291 0
M  V30 340 C 30.691 -2.66497 -2.38148 0
M  V30 341 C 30.357 -4.08664 -1.90538 0
M  V30 342 C 29.019 -4.47357 -1.77271 0
M  V30 343 C 31.371 -4.97724 -1.54663 0
M  V30 344 C 28.699 -5.72905 -1.26478 0
M  V30 345 C 31.051 -6.2377 -1.05329 0
M  V30 346 C 29.715 -6.61311 -0.906861 0
M  V30 347 H 28.985 -0.575117 -0.467249 0
M  V30 348 H 31.632 -1.82472 -0.581051 0
M  V30 349 H 29.937 -2.35085 -3.13437 0
M  V30 350 H 31.634 -2.70246 -2.96257 0
M  V30 351 H 28.224 -3.78111 -2.01816 0
M  V30 352 H 32.408 -4.68501 -1.63768 0
M  V30 353 H 27.664 -6.00709 -1.13835 0
M  V30 354 H 31.838 -6.9217 -0.76644 0
M  V30 355 H 29.465 -7.5848 -0.511083 0
M  V30 356 N 31.0401 0.771051 -1.3745 0
M  V30 357 C 32.2881 1.52661 -1.32435 0
M  V30 358 C 32.6091 1.9479 0.0905024 0
M  V30 359 O 31.8791 1.66348 1.03466 0
M  V30 360 H 30.4591 0.566218 -0.487244 0
M  V30 361 H 33.1211 0.917636 -1.71946 0
M  V30 362 H 32.2171 2.42568 -1.96385 0
M  V30 363 N 32.5182 1.22032 0.997298 0
M  V30 364 C 33.4502 0.944263 2.08845 0
M  V30 365 C 34.4632 -0.0754663 1.62625 0
M  V30 366 O 35.6522 0.157994 1.77799 0
M  V30 367 C 32.7522 0.397723 3.36558 0
M  V30 368 C 31.9252 1.47362 4.11829 0
M  V30 369 C 30.9842 0.934951 5.17827 0
M  V30 370 O 30.0102 1.62016 5.45655 0
M  V30 371 N 31.2122 -0.245895 5.79979 0
M  V30 372 H 33.9772 1.88363 2.33109 0
M  V30 373 H 31.5382 1.12661 1.16272 0
M  V30 374 H 33.5302 0.0227771 4.04694 0
M  V30 375 H 32.1002 -0.446646 3.09393 0
M  V30 376 H 31.3202 2.02208 3.38386 0
M  V30 377 H 32.6082 2.19764 4.58891 0
M  V30 378 H 32.0062 -0.819475 5.59733 0
M  V30 379 H 30.5632 -0.562272 6.4937 0
M  V30 380 N 33.9963 -1.19345 1.0293 0
M  V30 381 C 34.9063 -2.26245 0.620515 0
M  V30 382 C 35.9223 -1.70486 -0.347928 0
M  V30 383 O 37.0983 -2.00347 -0.205704 0
M  V30 384 C 34.1633 -3.46693 -0.0218957 0
M  V30 385 C 33.2243 -4.17632 0.994102 0
M  V30 386 C 32.4573 -5.32329 0.382253 0
M  V30 387 O 32.6803 -5.64552 -0.814676 0
M  V30 388 O 31.6143 -5.91664 1.10531 0
M  V30 389 H 35.4403 -2.63453 1.51083 0
M  V30 390 H 33.0253 -1.26207 0.799513 0
M  V30 391 H 34.9073 -4.19683 -0.380072 0
M  V30 392 H 33.5823 -3.11333 -0.886209 0
M  V30 393 H 32.4893 -3.4676 1.40387 0
M  V30 394 H 33.8223 -4.56964 1.8288 0
M  V30 395 N 35.4744 -0.807222 -1.35358 0
M  V30 396 C 36.4224 -0.20614 -2.31685 0
M  V30 397 C 37.4164 0.644445 -1.56663 0
M  V30 398 O 38.6224 0.537538 -1.71786 0
M  V30 399 H 34.9974 -0.0479006 -0.750473 0
M  V30 400 H 36.9684 -1.03369 -2.79924 0
M  V30 401 C 35.7174 0.630212 -3.41941 0
M  V30 402 H 35.0404 -0.0149558 -3.99797 0
M  V30 403 H 36.4804 1.01716 -4.11619 0
M  V30 404 C 34.9394 1.79601 -2.85035 0
M  V30 405 O 35.4694 2.89351 -2.78637 0
M  V30 406 N 33.6754 1.60774 -2.42074 0
M  V30 407 H 33.2224 0.715009 -2.47478 0
M  V30 408 H 33.1804 2.38933 -2.04349 0
M  V30 409 N 36.9525 1.47285 -0.560781 0
M  V30 410 C 38.3635 1.86258 -0.128343 0
M  V30 411 C 38.7145 1.46699 1.30284 0
M  V30 412 O 37.8395 0.871698 1.98067 0
M  V30 413 C 38.4345 3.38044 -0.22614 0
M  V30 414 C 36.9935 3.76096 0.151283 0
M  V30 415 C 36.1405 2.71335 -0.572084 0
M  V30 416 H 39.0915 1.38752 -0.770297 0
M  V30 417 H 39.1125 3.76441 0.554322 0
M  V30 418 H 38.6245 3.66806 -1.26788 0
M  V30 419 H 36.7255 3.52951 1.19399 0
M  V30 420 H 36.8385 4.78641 -0.209765 0
M  V30 421 H 35.2025 2.54696 -0.0147653 0
M  V30 422 H 35.9855 3.02938 -1.61504 0
M  V30 423 N 38.4306 0.297415 1.54768 0
M  V30 424 C 39.7076 -0.365847 1.92148 0
M  V30 425 C 40.0876 -1.71975 1.22424 0
M  V30 426 O 39.4356 -2.25666 0.358739 0
M  V30 427 C 39.6456 -0.484056 3.45627 0
M  V30 428 C 40.9936 -0.756594 4.17805 0
M  V30 429 O 42.0176 -0.568007 3.51642 0
M  V30 430 O 40.8766 -1.11863 5.34929 0
M  V30 431 H 37.9706 -0.203919 0.801465 0
M  V30 432 H 40.5166 0.34521 1.66152 0
M  V30 433 H 39.2886 0.467865 3.88493 0
M  V30 434 H 38.9116 -1.24372 3.77647 0
M  V30 435 N 39.9087 -1.5758 0.0250728 0
M  V30 436 C 41.1547 -1.91917 -0.655413 0
M  V30 437 C 41.4877 -0.901433 -1.72011 0
M  V30 438 O 40.7627 0.0764069 -1.9435 0
M  V30 439 C 41.0457 -3.36751 -1.27558 0
M  V30 440 C 40.8987 -4.49258 -0.220719 0
M  V30 441 C 42.2177 -3.81469 -2.19475 0
M  V30 442 H 39.3367 -0.697925 -0.23679 0
M  V30 443 H 41.9787 -1.89825 0.0815036 0
M  V30 444 H 40.1287 -3.38664 -1.90365 0
M  V30 445 H 41.8007 -4.59478 0.409601 0
M  V30 446 H 40.0437 -4.31415 0.454264 0
M  V30 447 H 40.7147 -5.47618 -0.694175 0
M  V30 448 H 43.1907 -3.81266 -1.66659 0
M  V30 449 H 42.0667 -4.83512 -2.59822 0
M  V30 450 H 42.3277 -3.16744 -3.08424 0
M  V30 451 N 41.3868 0.248026 -1.55636 0
M  V30 452 C 42.3338 1.30707 -1.90222 0
M  V30 453 C 43.3038 1.47881 -0.756332 0
M  V30 454 O 44.4888 1.61883 -1.00988 0
M  V30 455 C 41.6288 2.65769 -2.20138 0
M  V30 456 C 40.7418 2.56612 -3.47526 0
M  V30 457 C 39.8768 3.8402 -3.67017 0
M  V30 458 C 38.9158 3.69476 -4.8801 0
M  V30 459 N 38.0528 4.88774 -5.04029 0
M  V30 460 H 42.8928 1.00512 -2.80538 0
M  V30 461 H 40.4298 0.485055 -1.38873 0
M  V30 462 H 42.3878 3.44386 -2.35487 0
M  V30 463 H 41.0178 2.94115 -1.33027 0
M  V30 464 H 40.0698 1.69571 -3.40514 0
M  V30 465 H 41.3818 2.41774 -4.36287 0
M  V30 466 H 40.5358 4.7108 -3.8232 0
M  V30 467 H 39.2748 4.01754 -2.76487 0
M  V30 468 H 38.2798 2.80799 -4.72686 0
M  V30 469 H 39.5048 3.53238 -5.8 0
M  V30 470 H 37.4508 5.0687 -4.16435 0
M  V30 471 H 37.3678 4.76562 -5.86877 0
M  V30 472 H 38.6358 5.77335 -5.23741 0
M  V30 473 N 42.8649 1.48995 0.513639 0
M  V30 474 C 44.1139 1.57093 1.2651 0
M  V30 475 C 44.4269 0.257091 1.93903 0
M  V30 476 O 45.6329 0.216478 2.70636 0
M  V30 477 C 44.0889 2.77118 2.29638 0
M  V30 478 C 43.6969 4.15209 1.68241 0
M  V30 479 C 45.4409 2.94538 3.05692 0
M  V30 480 C 43.3479 5.26474 2.69406 0
M  V30 481 H 42.2779 0.584876 0.475854 0
M  V30 482 H 44.9289 1.7536 0.540487 0
M  V30 483 H 43.3109 2.52319 3.05207 0
M  V30 484 H 44.4849 4.50094 0.987505 0
M  V30 485 H 42.7999 4.03042 1.04623 0
M  V30 486 H 45.3969 3.74832 3.8132 0
M  V30 487 H 45.7399 2.04614 3.62545 0
M  V30 488 H 46.2729 3.19316 2.37238 0
M  V30 489 H 43.0119 6.18417 2.17351 0
M  V30 490 H 42.5319 4.96058 3.37175 0
M  V30 491 H 44.2109 5.55277 3.32078 0
M  V30 492 N 44.343 -0.763751 1.37857 0
M  V30 493 C 45.253 -1.90817 1.36478 0
M  V30 494 C 46.269 -1.71997 0.263248 0
M  V30 495 O 47.445 -1.95095 0.499979 0
M  V30 496 C 44.51 -3.2605 1.17864 0
M  V30 497 C 43.571 -3.57467 2.3773 0
M  V30 498 C 42.804 -4.86249 2.19995 0
M  V30 499 O 43.027 -5.57884 1.18836 0
M  V30 500 O 41.961 -5.16911 3.08361 0
M  V30 501 H 45.787 -1.94933 2.32884 0
M  V30 502 H 43.372 -0.907619 1.1867 0
M  V30 503 H 45.254 -4.06924 1.09504 0
M  V30 504 H 43.929 -3.22769 0.245372 0
M  V30 505 H 42.836 -2.76796 2.51664 0
M  V30 506 H 44.169 -3.655 3.29652 0
M  V30 507 N 45.8211 -1.22559 -0.990812 0
M  V30 508 C 46.7681 -0.997519 -2.0813 0
M  V30 509 C 47.7381 0.0814702 -1.659 0
M  V30 510 O 48.9231 -0.0685424 -1.90677 0
M  V30 511 C 46.0631 -0.583615 -3.40129 0
M  V30 512 C 45.1761 -1.7336 -3.9569 0
M  V30 513 C 44.3111 -1.26748 -5.15857 0
M  V30 514 C 43.3501 -2.38888 -5.63559 0
M  V30 515 N 42.4871 -1.93308 -6.74964 0
M  V30 516 H 47.3271 -1.93099 -2.26973 0
M  V30 517 H 44.8641 -0.962114 -1.11273 0
M  V30 518 H 46.8221 -0.324801 -4.15934 0
M  V30 519 H 45.4521 0.312845 -3.2128 0
M  V30 520 H 44.5041 -2.10669 -3.16738 0
M  V30 521 H 45.8161 -2.57704 -4.27071 0
M  V30 522 H 44.9701 -0.966173 -5.98957 0
M  V30 523 H 43.7091 -0.394272 -4.86104 0
M  V30 524 H 42.7141 -2.69805 -4.79046 0
M  V30 525 H 43.9391 -3.26728 -5.95336 0
M  V30 526 H 41.8851 -1.08352 -6.4699 0
M  V30 527 H 41.8021 -2.71217 -7.05675 0
M  V30 528 H 43.0701 -1.66252 -7.61564 0
M  V30 529 N 47.2992 1.18797 -1.03562 0
M  V30 530 C 48.2292 2.24472 -0.643019 0
M  V30 531 C 49.2102 1.66433 0.351283 0
M  V30 532 O 50.3952 1.92803 0.232505 0
M  V30 533 C 47.5252 3.473 4.24935e-05 0
M  V30 534 C 46.4792 4.18055 -0.917257 0
M  V30 535 C 45.8052 5.34519 -0.138941 0
M  V30 536 C 47.1052 4.72109 -2.23407 0
M  V30 537 H 48.7992 2.57566 -1.52643 0
M  V30 538 H 46.3452 1.23806 -0.735394 0
M  V30 539 H 48.2982 4.20426 0.286383 0
M  V30 540 H 47.0222 3.13424 0.918299 0
M  V30 541 H 45.6812 3.46821 -1.1879 0
M  V30 542 H 45.3292 4.96891 0.781562 0
M  V30 543 H 45.0292 5.82794 -0.750005 0
M  V30 544 H 46.5532 6.10438 0.1405 0
M  V30 545 H 47.9672 5.36955 -2.00879 0
M  V30 546 H 46.3642 5.30897 -2.79765 0
M  V30 547 H 47.4342 3.89807 -2.88407 0
M  V30 548 N 48.7773 0.814389 1.34928 0
M  V30 549 C 49.7243 0.22822 2.29669 0
M  V30 550 C 50.6943 -0.642164 1.53184 0
M  V30 551 O 51.8793 -0.585605 1.81591 0
M  V30 552 C 49.0193 -0.61089 3.3965 0
M  V30 553 C 48.1323 0.280792 4.31086 0
M  V30 554 C 47.2673 -0.567067 5.28165 0
M  V30 555 C 46.3063 0.324531 6.11239 0
M  V30 556 N 45.4433 -0.483756 7.00431 0
M  V30 557 H 50.2833 1.04153 2.79206 0
M  V30 558 H 47.8203 0.525133 1.37407 0
M  V30 559 H 49.7783 -1.11263 4.0209 0
M  V30 560 H 48.4083 -1.38939 2.91369 0
M  V30 561 H 47.4603 0.900688 3.69583 0
M  V30 562 H 48.7723 0.966723 4.89342 0
M  V30 563 H 47.9263 -1.13363 5.96015 0
M  V30 564 H 46.6653 -1.28654 4.70425 0
M  V30 565 H 45.6703 0.903298 5.42329 0
M  V30 566 H 46.8953 1.04198 6.71059 0
M  V30 567 H 44.8413 -1.18706 6.45171 0
M  V30 568 H 44.7583 0.143965 7.55863 0
M  V30 569 H 46.0263 -1.03334 7.7262 0
M  V30 570 N 50.2554 -1.46986 0.568584 0
M  V30 571 C 51.5324 -1.95592 -0.0174074 0
M  V30 572 C 51.9124 -1.51124 -1.47393 0
M  V30 573 O 51.2604 -0.755329 -2.15655 0
M  V30 574 C 51.4704 -3.48719 0.139913 0
M  V30 575 C 52.8184 -4.246 0.000426376 0
M  V30 576 O 53.8424 -3.56135 0.0680316 0
M  V30 577 O 52.7014 -5.46302 -0.146988 0
M  V30 578 H 49.7954 -0.82498 -0.0577599 0
M  V30 579 H 52.3414 -1.57335 0.635909 0
M  V30 580 H 51.1134 -3.73927 1.15301 0
M  V30 581 H 50.7364 -3.93771 -0.550491 0
M  V30 582 N 51.7335 -0.305618 -1.54608 0
M  V30 583 C 52.6815 0.584119 -2.25146 0
M  V30 584 C 53.6755 1.13326 -1.25911 0
M  V30 585 O 54.8815 1.08337 -1.43747 0
M  V30 586 H 51.2565 0.206983 -0.722954 0
M  V30 587 H 53.2275 -0.033291 -2.98381 0
M  V30 588 C 51.9765 1.74225 -3.009 0
M  V30 589 H 51.2995 1.32892 -3.77067 0
M  V30 590 H 52.7395 2.34077 -3.53531 0
M  V30 591 C 51.1985 2.64914 -2.0814 0
M  V30 592 O 51.7285 3.66137 -1.65246 0
M  V30 593 N 49.9345 2.3275 -1.74 0
M  V30 594 H 49.4815 1.50479 -2.09078 0
M  V30 595 H 49.4395 2.93694 -1.12211 0
M  V30 596 N 53.2116 1.57565 -0.0334293 0
M  V30 597 C 54.1416 2.13511 0.945265 0
M  V30 598 C 55.1226 1.05231 1.33643 0
M  V30 599 O 56.3076 1.33084 1.41429 0
M  V30 600 C 53.4376 2.6657 2.22616 0
M  V30 601 C 52.3916 3.79676 1.97561 0
M  V30 602 C 51.7176 4.1918 3.31952 0
M  V30 603 C 53.0176 5.0557 1.31135 0
M  V30 604 H 54.7116 2.95538 0.479325 0
M  V30 605 H 52.2576 1.42166 0.229115 0
M  V30 606 H 54.2106 3.04344 2.91466 0
M  V30 607 H 52.9346 1.8171 2.71384 0
M  V30 608 H 51.5936 3.42347 1.31127 0
M  V30 609 H 51.2416 3.31296 3.78487 0
M  V30 610 H 50.9416 4.95402 3.15992 0
M  V30 611 H 52.4656 4.59541 4.02063 0
M  V30 612 H 53.8796 5.40903 1.89992 0
M  V30 613 H 52.2766 5.86818 1.25559 0
M  V30 614 H 53.3466 4.84062 0.284894 0
M  V30 615 N 54.6897 -0.239769 1.55765 0
M  V30 616 C 55.9197 -0.982743 1.8173 0
M  V30 617 C 56.3277 -1.7917 0.607835 0
M  V30 618 O 55.6707 -1.78525 -0.432973 0
M  V30 619 C 55.7327 -1.96332 3.01155 0
M  V30 620 C 55.3967 -1.34062 4.36894 0
M  V30 621 C 56.3937 -0.739539 5.14613 0
M  V30 622 C 54.0787 -1.35784 4.83599 0
M  V30 623 C 56.0727 -0.163989 6.37189 0
M  V30 624 C 53.7597 -0.778441 6.06122 0
M  V30 625 C 54.7577 -0.182548 6.82756 0
M  V30 626 O 54.4457 0.387887 8.02964 0
M  V30 627 H 54.1777 -0.294481 0.608487 0
M  V30 628 H 56.7317 -0.26572 2.03674 0
M  V30 629 H 54.9617 -2.71884 2.74984 0
M  V30 630 H 56.6507 -2.57032 3.14149 0
M  V30 631 H 57.4167 -0.718687 4.79646 0
M  V30 632 H 53.2957 -1.81105 4.23936 0
M  V30 633 H 56.8397 0.301753 6.96947 0
M  V30 634 H 52.7367 -0.796645 6.40565 0
M  V30 635 H 53.5047 0.28044 8.18019 0
M  V30 636 N 56.1678 -1.49265 -0.50573 0
M  V30 637 C 57.4138 -1.58748 -1.26202 0
M  V30 638 C 57.7468 -0.271227 -1.92297 0
M  V30 639 O 57.0218 0.724831 -1.80489 0
M  V30 640 C 57.3048 -2.74332 -2.33268 0
M  V30 641 C 57.1578 -4.15737 -1.71705 0
M  V30 642 C 58.4768 -2.85576 -3.34865 0
M  V30 643 H 55.5958 -0.577826 -0.457478 0
M  V30 644 H 58.2378 -1.81532 -0.560897 0
M  V30 645 H 56.3878 -2.55036 -2.93068 0
M  V30 646 H 58.0598 -4.46537 -1.15769 0
M  V30 647 H 56.3028 -4.21605 -1.02135 0
M  V30 648 H 56.9738 -4.92477 -2.49341 0
M  V30 649 H 59.4498 -3.03127 -2.8505 0
M  V30 650 H 58.3258 -3.68135 -4.07146 0
M  V30 651 H 58.5868 -1.94732 -3.96903 0
M  V30 652 N 57.6459 0.756429 -1.3826 0
M  V30 653 C 58.8759 1.54341 -1.3734 0
M  V30 654 C 59.2839 1.89159 0.0393917 0
M  V30 655 O 58.6269 1.5307 1.01565 0
M  V30 656 C 58.6889 2.87238 -2.16182 0
M  V30 657 C 58.3529 2.74973 -3.65019 0
M  V30 658 C 59.3499 2.44962 -4.58574 0
M  V30 659 C 57.0349 2.92515 -4.08338 0
M  V30 660 C 59.0289 2.32642 -5.93428 0
M  V30 661 C 56.7159 2.79815 -5.43274 0
M  V30 662 C 57.7139 2.49921 -6.35632 0
M  V30 663 O 57.4019 2.37275 -7.68086 0
M  V30 664 H 57.1339 0.484281 -0.471643 0
M  V30 665 H 59.6879 0.944152 -1.82414 0
M  V30 666 H 57.9179 3.49342 -1.65822 0
M  V30 667 H 59.6069 3.48731 -2.07705 0
M  V30 668 H 60.3729 2.31081 -4.26412 0
M  V30 669 H 56.2519 3.14781 -3.368 0
M  V30 670 H 59.7959 2.0923 -6.65484 0
M  V30 671 H 55.6929 2.93269 -5.75034 0
M  V30 672 H 56.4609 2.52509 -7.78577 0
M  V30 673 N 59.124 1.23083 0.984299 0
M  V30 674 C 60.352 1.08714 1.76037 0
M  V30 675 C 60.767 -0.361691 1.85303 0
M  V30 676 O 60.124 -1.25034 1.32939 0
M  V30 677 C 60.175 1.70206 3.18923 0
M  V30 678 O 59.896 3.09423 3.10144 0
M  V30 679 C 61.397 1.61227 4.12941 0
M  V30 680 H 58.617 0.380664 0.552572 0
M  V30 681 H 61.161 1.62853 1.23689 0
M  V30 682 H 59.316 1.20109 3.6831 0
M  V30 683 H 59.73 3.39188 4.00065 0
M  V30 684 H 61.204 2.08962 5.10919 0
M  V30 685 H 61.681 0.570375 4.35481 0
M  V30 686 H 62.287 2.10671 3.69456 0
M  V30 687 N 60.6021 -1.18246 1.0419 0
M  V30 688 C 61.8301 -1.92195 0.766072 0
M  V30 689 C 62.2451 -1.76247 -0.676933 0
M  V30 690 O 61.6021 -1.09293 -1.46155 0
M  V30 691 C 61.6531 -3.43568 1.12442 0
M  V30 692 O 61.3741 -3.59015 2.51078 0
M  V30 693 C 62.8751 -4.34613 0.873275 0
M  V30 694 H 60.0951 -0.610114 0.279288 0
M  V30 695 H 62.6391 -1.50007 1.38989 0
M  V30 696 H 60.7941 -3.8354 0.545542 0
M  V30 697 H 61.2081 -4.5273 2.64831 0
M  V30 698 H 62.6821 -5.39374 1.17385 0
M  V30 699 H 63.1591 -4.38781 -0.191909 0
M  V30 700 H 63.7651 -4.00341 1.43551 0
M  V30 701 N 62.0802 -0.821533 -1.34494 0
M  V30 702 C 63.3102 -0.421272 -2.02259 0
M  V30 703 C 63.7182 0.977047 -1.6202 0
M  V30 704 O 63.0612 1.64348 -0.820703 0
M  V30 705 C 63.1232 -0.44231 -3.56769 0
M  V30 706 C 62.7872 -1.79372 -4.20327 0
M  V30 707 C 63.7842 -2.75435 -4.40944 0
M  V30 708 C 61.4692 -2.08182 -4.57127 0
M  V30 709 C 63.4632 -3.98482 -4.97484 0
M  V30 710 C 61.1502 -3.31489 -5.13379 0
M  V30 711 C 62.1482 -4.26457 -5.33501 0
M  V30 712 O 61.8362 -5.47585 -5.88562 0
M  V30 713 H 61.5682 -0.167473 -0.654927 0
M  V30 714 H 64.1222 -1.11073 -1.72777 0
M  V30 715 H 62.3522 0.303836 -3.85505 0
M  V30 716 H 64.0412 -0.0622925 -4.05852 0
M  V30 717 H 64.8072 -2.54473 -4.12878 0
M  V30 718 H 60.6862 -1.35066 -4.4077 0
M  V30 719 H 64.2302 -4.72618 -5.13106 0
M  V30 720 H 60.1272 -3.52316 -5.40873 0
M  V30 721 H 60.8952 -5.49086 -6.06998 0
M  V30 722 N 63.5583 1.46682 -0.576371 0
M  V30 723 C 64.5063 2.31953 0.17335 0
M  V30 724 C 65.5003 1.44098 0.89062 0
M  V30 725 O 66.7063 1.60759 0.809728 0
M  V30 726 H 63.0813 0.748273 0.0747727 0
M  V30 727 H 65.0523 2.93007 -0.564738 0
M  V30 728 C 63.8013 3.27142 1.17786 0
M  V30 729 H 63.1243 3.94719 0.635361 0
M  V30 730 H 64.5643 3.896 1.67296 0
M  V30 731 C 63.0233 2.52036 2.23561 0
M  V30 732 O 63.5533 2.27877 3.3081 0
M  V30 733 N 61.7593 2.12709 1.97998 0
M  V30 734 H 61.3063 2.32557 1.10792 0
M  V30 735 H 61.2643 1.62776 2.68982 0
M  V30 736 N 65.0364 0.313813 1.54444 0
M  V30 737 C 66.2644 -0.293918 2.04802 0
M  V30 738 C 66.6794 -1.46537 1.19047 0
M  V30 739 O 66.0364 -1.81182 0.218939 0
M  V30 740 C 66.0874 -0.737806 3.53891 0
M  V30 741 O 65.8084 0.387038 4.36387 0
M  V30 742 C 67.3094 -1.40936 4.203 0
M  V30 743 H 64.5294 -0.0620057 0.668129 0
M  V30 744 H 67.0734 0.457169 1.99324 0
M  V30 745 H 65.2284 -1.43889 3.59687 0
M  V30 746 H 65.6424 0.0391274 5.24485 0
M  V30 747 H 67.1164 -1.67099 5.26101 0
M  V30 748 H 67.5934 -2.35355 3.70816 0
M  V30 749 H 68.1994 -0.751117 4.18615 0
M  V30 750 N 66.5145 -1.57545 0.0417849 0
M  V30 751 C 67.7615 -1.92317 -0.634082 0
M  V30 752 C 68.0895 -0.919334 -1.71402 0
M  V30 753 O 67.3445 0.0698253 -1.95575 0
M  V30 754 C 67.6435 -3.33794 -1.27735 0
M  V30 755 C 67.3095 -4.49716 -0.326543 0
M  V30 756 C 65.9715 -4.81156 -0.0648814 0
M  V30 757 C 68.3235 -5.20182 0.325623 0
M  V30 758 C 65.6515 -5.80414 0.856539 0
M  V30 759 C 68.0035 -6.20424 1.23518 0
M  V30 760 C 66.6675 -6.50298 1.5056 0
M  V30 761 H 65.9375 -0.703736 -0.232027 0
M  V30 762 H 68.5845 -1.91205 0.106259 0
M  V30 763 H 66.8895 -3.31228 -2.09274 0
M  V30 764 H 68.5865 -3.57975 -1.80707 0
M  V30 765 H 65.1765 -4.25176 -0.540665 0
M  V30 766 H 69.3605 -4.96112 0.136546 0
M  V30 767 H 64.6165 -6.019 1.07363 0
M  V30 768 H 68.7905 -6.74141 1.74664 0
M  V30 769 H 66.4175 -7.27025 2.22123 0
M  V30 770 N 67.9926 0.231505 -1.5589 0
M  V30 771 C 68.9406 1.30649 -1.92441 0
M  V30 772 C 69.9346 1.49037 -0.805254 0
M  V30 773 O 71.1406 1.50329 -0.990007 0
M  V30 774 H 67.5156 0.437812 -0.611412 0
M  V30 775 H 69.4866 0.970973 -2.82161 0
M  V30 776 C 68.2356 2.65179 -2.24889 0
M  V30 777 H 67.5586 2.51835 -3.10514 0
M  V30 778 H 68.9986 3.39234 -2.54355 0
M  V30 779 C 67.4576 3.19439 -1.07054 0
M  V30 780 O 67.9876 4.00371 -0.326499 0
M  V30 781 N 66.1936 2.77675 -0.85703 0
M  V30 782 H 65.7406 2.11969 -1.46379 0
M  V30 783 H 65.6986 3.14321 -0.0703223 0
M  V30 784 N 69.4707 1.49531 0.497807 0
M  V30 785 C 70.7187 1.58865 1.24926 0
M  V30 786 C 71.0397 0.278721 1.92998 0
M  V30 787 O 70.3097 -0.702144 1.82885 0
M  V30 788 H 68.8897 0.585343 0.464094 0
M  V30 789 H 71.5517 1.86174 0.57666 0
M  V30 790 H 70.6477 2.38633 2.01149 0
M  V30 791 N 70.9488 -0.749086 1.3866 0
M  V30 792 C 72.1768 -1.53834 1.38358 0
M  V30 793 C 72.5918 -1.88783 -0.0255219 0
M  V30 794 O 71.9488 -1.53101 -0.993292 0
M  V30 795 C 71.9998 -2.83468 2.2434 0
M  V30 796 O 71.7208 -2.50008 3.5976 0
M  V30 797 C 73.2218 -3.7758 2.32267 0
M  V30 798 H 70.4418 -0.47585 0.473083 0
M  V30 799 H 72.9858 -0.926726 1.82297 0
M  V30 800 H 71.1408 -3.40995 1.83851 0
M  V30 801 H 71.5548 -3.33182 4.05081 0
M  V30 802 H 73.0288 -4.65478 2.96706 0
M  V30 803 H 73.5058 -4.18334 1.33765 0
M  V30 804 H 74.1118 -3.25976 2.73166 0
M  V30 805 N 72.4269 -1.23603 -0.977757 0
M  V30 806 C 73.3739 -1.01954 -2.07061 0
M  V30 807 C 74.3439 0.0638697 -1.65977 0
M  V30 808 O 75.5289 -0.0887624 -1.90593 0
M  V30 809 C 72.6689 -0.619658 -3.39491 0
M  V30 810 C 71.7819 -1.77547 -3.93829 0
M  V30 811 C 70.9169 -1.32212 -5.14484 0
M  V30 812 C 69.9559 -2.44852 -5.60994 0
M  V30 813 N 69.0929 -2.00456 -6.72876 0
M  V30 814 H 73.9329 -1.95495 -2.24913 0
M  V30 815 H 71.4699 -0.973861 -1.10247 0
M  V30 816 H 73.4279 -0.368898 -4.15566 0
M  V30 817 H 72.0579 0.278752 -3.21594 0
M  V30 818 H 71.1099 -2.14016 -3.14486 0
M  V30 819 H 72.4219 -2.62219 -4.24314 0
M  V30 820 H 71.5759 -1.02965 -5.97899 0
M  V30 821 H 70.3149 -0.445808 -4.85658 0
M  V30 822 H 69.3199 -2.74871 -4.76157 0
M  V30 823 H 70.5449 -3.33024 -5.91837 0
M  V30 824 H 68.4909 -1.15208 -6.45804 0
M  V30 825 H 68.4079 -2.78687 -7.02759 0
M  V30 826 H 69.6759 -1.7432 -7.59758 0
M  V30 827 N 73.905 1.17692 -1.04816 0
M  V30 828 C 75.135 1.91508 -0.775128 0
M  V30 829 C 75.543 1.76844 0.67253 0
M  V30 830 O 74.886 1.10057 1.47082 0
M  V30 831 C 74.948 3.43167 -1.0713 0
M  V30 832 C 74.612 3.81612 -2.51438 0
M  V30 833 C 75.609 3.84772 -3.49638 0
M  V30 834 C 73.294 4.12687 -2.86348 0
M  V30 835 C 75.288 4.18469 -4.80794 0
M  V30 836 C 72.975 4.46053 -4.17708 0
M  V30 837 C 73.973 4.48921 -5.14741 0
M  V30 838 O 73.661 4.81504 -6.43746 0
M  V30 839 H 73.393 0.614575 -0.281555 0
M  V30 840 H 75.947 1.50206 -1.40098 0
M  V30 841 H 74.177 3.84745 -0.388342 0
M  V30 842 H 75.866 3.98239 -0.784883 0
M  V30 843 H 76.632 3.60893 -3.24008 0
M  V30 844 H 72.511 4.09627 -2.11486 0
M  V30 845 H 76.055 4.20623 -5.56527 0
M  V30 846 H 71.952 4.69393 -4.43103 0
M  V30 847 H 72.72 4.99377 -6.4851 0
M  V30 848 N 75.3831 0.828654 1.34056 0
M  V30 849 C 76.3461 0.259927 2.27721 0
M  V30 850 C 77.3461 -0.565478 1.50529 0
M  V30 851 O 78.5361 -0.38075 1.69988 0
M  V30 852 C 75.6681 -0.634944 3.34935 0
M  V30 853 H 76.8611 1.0863 2.79534 0
M  V30 854 H 74.4141 0.600951 1.44285 0
M  V30 855 H 75.1491 -1.48416 2.88346 0
M  V30 856 H 74.9341 -0.0444999 3.92075 0
M  V30 857 H 76.4241 -1.02648 4.04788 0
M  V30 858 N 76.8612 -1.46375 0.584142 0
M  V30 859 C 77.8242 -2.28784 -0.138108 0
M  V30 860 C 78.8242 -1.38471 -0.817462 0
M  V30 861 O 80.0142 -1.60833 -0.669199 0
M  V30 862 C 77.1462 -3.18892 -1.20503 0
M  V30 863 H 78.3392 -2.94117 0.586127 0
M  V30 864 H 75.8922 -1.52509 0.342171 0
M  V30 865 H 76.6272 -2.58309 -1.96079 0
M  V30 866 H 76.4122 -3.85388 -0.722384 0
M  V30 867 H 77.9022 -3.80914 -1.71155 0
M  V30 868 N 78.3393 -0.321999 -1.54275 0
M  V30 869 C 79.2873 0.560206 -2.25753 0
M  V30 870 C 80.2813 1.11984 -1.27106 0
M  V30 871 O 81.4873 1.06806 -1.44888 0
M  V30 872 H 77.8623 0.199304 -0.725108 0
M  V30 873 H 79.8333 -0.0649365 -2.98329 0
M  V30 874 C 78.5823 1.71023 -3.02731 0
M  V30 875 H 77.9053 1.28885 -3.78456 0
M  V30 876 H 79.3453 2.30314 -3.55993 0
M  V30 877 C 77.8043 2.62692 -2.10938 0
M  V30 878 O 78.3343 3.64364 -1.6912 0
M  V30 879 N 76.5403 2.30891 -1.76459 0
M  V30 880 H 76.0873 1.48253 -2.10663 0
M  V30 881 H 76.0453 2.92487 -1.1532 0
M  V30 882 N 79.8174 1.5752 -0.0501392 0
M  V30 883 C 80.7804 2.1037 0.909786 0
M  V30 884 C 81.7804 1.02308 1.24056 0
M  V30 885 O 82.9704 1.28385 1.17741 0
M  V30 886 C 80.1024 2.58708 2.21998 0
M  V30 887 H 81.2954 2.96479 0.451665 0
M  V30 888 H 78.8484 1.55038 0.198248 0
M  V30 889 H 79.5834 1.75989 2.72394 0
M  V30 890 H 79.3684 3.37675 1.99295 0
M  V30 891 H 80.8584 2.99747 2.9076 0
M  V30 892 N 81.2955 -0.223234 1.56011 0
M  V30 893 C 82.5415 -0.949279 1.79211 0
M  V30 894 C 82.8745 -1.84054 0.619494 0
M  V30 895 O 82.1495 -1.90726 -0.381317 0
M  V30 896 C 82.4325 -1.78965 3.12479 0
M  V30 897 C 82.2855 -0.924997 4.40186 0
M  V30 898 C 83.6045 -2.76774 3.42175 0
M  V30 899 H 80.7235 -0.343676 0.651963 0
M  V30 900 H 83.3655 -0.218253 1.88742 0
M  V30 901 H 81.5155 -2.41291 3.04485 0
M  V30 902 H 83.1875 -0.318615 4.60198 0
M  V30 903 H 81.4305 -0.230344 4.33188 0
M  V30 904 H 82.1015 -1.54735 5.29869 0
M  V30 905 H 84.5775 -2.24584 3.50287 0
M  V30 906 H 83.4535 -3.32678 4.36597 0
M  V30 907 H 83.7145 -3.54429 2.64258 0
M  V30 908 N 82.7736 -1.49793 -0.48987 0
M  V30 909 C 84.0036 -1.6333 -1.26518 0
M  V30 910 C 84.4116 -0.308392 -1.8667 0
M  V30 911 O 83.7546 0.717512 -1.69108 0
M  V30 912 C 83.8166 -2.6522 -2.4269 0
M  V30 913 C 83.4806 -4.09279 -2.03321 0
M  V30 914 C 84.4776 -4.95738 -1.56652 0
M  V30 915 C 82.1626 -4.55082 -2.12616 0
M  V30 916 C 84.1566 -6.26041 -1.19795 0
M  V30 917 C 81.8436 -5.85396 -1.75371 0
M  V30 918 C 82.8416 -6.707 -1.29036 0
M  V30 919 O 82.5296 -7.98584 -0.92299 0
M  V30 920 H 82.2616 -0.552502 -0.389509 0
M  V30 921 H 84.8156 -1.96642 -0.593381 0
M  V30 922 H 83.0456 -2.27112 -3.12981 0
M  V30 923 H 84.7346 -2.68171 -3.04695 0
M  V30 924 H 85.5006 -4.61575 -1.48908 0
M  V30 925 H 81.3796 -3.88844 -2.47631 0
M  V30 926 H 84.9236 -6.92578 -0.835582 0
M  V30 927 H 80.8206 -6.19085 -1.82768 0
M  V30 928 H 81.5886 -8.11692 -1.05349 0
M  V30 929 N 84.2517 0.741722 -1.39055 0
M  V30 930 C 85.1817 1.869 -1.39966 0
M  V30 931 C 86.1627 1.6804 -0.26392 0
M  V30 932 O 87.3477 1.88458 -0.468755 0
M  V30 933 C 84.4777 3.24572 -1.23574 0
M  V30 934 C 83.4317 3.58056 -2.34477 0
M  V30 935 C 82.7577 4.94593 -2.0318 0
M  V30 936 C 84.0577 3.61716 -3.76774 0
M  V30 937 H 85.7517 1.86395 -2.34302 0
M  V30 938 H 83.2977 0.895361 -1.1278 0
M  V30 939 H 85.2507 4.031 -1.22834 0
M  V30 940 H 83.9747 3.25587 -0.257045 0
M  V30 941 H 82.6337 2.81854 -2.34423 0
M  V30 942 H 82.2817 4.92181 -1.03765 0
M  V30 943 H 81.9817 5.17964 -2.77465 0
M  V30 944 H 83.5057 5.75486 -2.04079 0
M  V30 945 H 84.9197 4.30335 -3.78794 0
M  V30 946 H 83.3167 3.96603 -4.50362 0
M  V30 947 H 84.3867 2.61672 -4.08235 0
M  V30 948 N 85.7298 1.2412 0.971189 0
M  V30 949 C 86.9758 1.08041 1.71625 0
M  V30 950 C 87.3088 -0.380407 1.90438 0
M  V30 951 O 86.5838 -1.28127 1.46334 0
M  V30 952 C 86.8668 1.81682 3.10908 0
M  V30 953 C 86.7198 3.35493 2.99608 0
M  V30 954 C 88.0388 1.58671 4.10501 0
M  V30 955 H 85.1578 0.39388 0.622919 0
M  V30 956 H 87.7998 1.52743 1.13003 0
M  V30 957 H 85.9498 1.43684 3.60953 0
M  V30 958 H 87.6218 3.83068 2.57015 0
M  V30 959 H 85.8648 3.64052 2.35899 0
M  V30 960 H 86.5358 3.82217 3.98264 0
M  V30 961 H 89.0118 1.91719 3.69301 0
M  V30 962 H 87.8878 2.1266 5.06031 0
M  V30 963 H 88.1488 0.524161 4.38982 0
M  V30 964 N 87.2079 -1.17134 1.05439 0
M  V30 965 C 88.4359 -1.91372 0.786414 0
M  V30 966 C 88.8509 -1.76955 -0.658202 0
M  V30 967 O 88.2079 -1.10838 -1.44987 0
M  V30 968 C 88.2589 -3.42356 1.1608 0
M  V30 969 O 87.9799 -3.56332 2.54871 0
M  V30 970 C 89.4809 -4.33663 0.919322 0
M  V30 971 H 86.7009 -0.607118 0.285743 0
M  V30 972 H 89.2449 -1.48525 1.40572 0
M  V30 973 H 87.3999 -3.82939 0.586191 0
M  V30 974 H 87.8139 -4.49896 2.69618 0
M  V30 975 H 89.2879 -5.38099 1.231 0
M  V30 976 H 89.7649 -4.38959 -0.145359 0
M  V30 977 H 90.3709 -3.98796 1.47789 0
M  V30 978 N 88.686 -0.835752 -1.33615 0
M  V30 979 C 89.963 -0.352017 -1.92406 0
M  V30 980 C 90.343 1.16225 -1.76224 0
M  V30 981 O 89.691 1.97526 -1.14873 0
M  V30 982 C 89.901 -0.795485 -3.39813 0
M  V30 983 C 91.249 -0.801703 -4.16963 0
M  V30 984 O 92.273 -0.738889 -3.48452 0
M  V30 985 O 91.132 -0.886607 -5.3926 0
M  V30 986 H 88.226 -0.0989641 -0.821057 0
M  V30 987 H 90.772 -0.921397 -1.42507 0
M  V30 988 H 89.544 -1.83795 -3.45449 0
M  V30 989 H 89.167 -0.202505 -3.97084 0
M  V30 990 N 90.1641 1.46063 -0.591896 0
M  V30 991 C 91.1111 2.30399 0.136069 0
M  V30 992 C 92.0811 1.41169 0.875238 0
M  V30 993 O 93.2661 1.70112 0.86409 0
M  V30 994 C 90.4061 3.25804 1.13781 0
M  V30 995 C 89.5191 4.30134 0.401137 0
M  V30 996 C 88.6541 5.12659 1.39121 0
M  V30 997 C 87.6931 6.0873 0.641462 0
M  V30 998 N 86.8301 6.8409 1.58004 0
M  V30 999 H 91.6701 2.92118 -0.589144 0
M  V30 1000 H 89.2071 1.43959 -0.302342 0
M  V30 1001 H 91.1651 3.79569 1.73156 0
M  V30 1002 H 89.7951 2.65872 1.83062 0
M  V30 1003 H 88.8471 3.79152 -0.307826 0
M  V30 1004 H 90.1591 4.98458 -0.184565 0
M  V30 1005 H 89.3131 5.70747 2.05749 0
M  V30 1006 H 88.0521 4.44316 2.01084 0
M  V30 1007 H 87.0571 5.49786 -0.0385419 0
M  V30 1008 H 88.2821 6.79095 0.0270945 0
M  V30 1009 H 86.2281 6.18449 2.18761 0
M  V30 1010 H 86.1451 7.48709 1.04738 0
M  V30 1011 H 87.4131 7.4673 2.23639 0
M  V30 1012 N 91.6422 0.330177 1.54103 0
M  V30 1013 C 92.8902 -0.269871 2.0029 0
M  V30 1014 C 93.2112 -1.52133 1.21986 0
M  V30 1015 O 92.4812 -1.93212 0.323438 0
M  V30 1016 H 91.0612 -0.10271 0.739905 0
M  V30 1017 H 93.7232 0.448249 1.89675 0
M  V30 1018 H 92.8192 -0.52166 3.07709 0
M  V30 1019 N 93.1203 -1.57491 0.0584922 0
M  V30 1020 C 94.3663 -1.93264 -0.614558 0
M  V30 1021 C 94.6993 -0.937717 -1.7006 0
M  V30 1022 O 93.9743 0.0351652 -1.94468 0
M  V30 1023 C 94.2573 -3.3938 -1.20386 0
M  V30 1024 C 94.1103 -4.49625 -0.125375 0
M  V30 1025 C 95.4293 -3.86039 -2.11334 0
M  V30 1026 H 92.5483 -0.702791 -0.221933 0
M  V30 1027 H 95.1903 -1.8961 0.12175 0
M  V30 1028 H 93.3403 -3.42626 -1.83139 0
M  V30 1029 H 95.0123 -4.58506 0.506971 0
M  V30 1030 H 93.2553 -4.30354 0.545672 0
M  V30 1031 H 93.9263 -5.48967 -0.577861 0
M  V30 1032 H 96.4023 -3.84716 -1.58534 0
M  V30 1033 H 95.2783 -4.88914 -2.49507 0
M  V30 1034 H 95.5393 -3.23215 -3.01636 0
M  V30 1035 N 94.5984 0.214957 -1.56127 0
M  V30 1036 C 95.8444 0.939762 -1.79712 0
M  V30 1037 C 96.1774 1.83723 -0.629247 0
M  V30 1038 O 95.4524 1.90925 0.371197 0
M  V30 1039 C 95.7354 1.77306 -3.13424 0
M  V30 1040 C 95.5884 0.90164 -4.40671 0
M  V30 1041 C 96.9074 2.74956 -3.43638 0
M  V30 1042 H 94.0264 0.340214 -0.653776 0
M  V30 1043 H 96.6684 0.20824 -1.88855 0
M  V30 1044 H 94.8184 2.39673 -3.0576 0
M  V30 1045 H 96.4904 0.294206 -4.60361 0
M  V30 1046 H 94.7334 0.207368 -4.33304 0
M  V30 1047 H 95.4044 1.51923 -5.30682 0
M  V30 1048 H 97.8804 2.22724 -3.51473 0
M  V30 1049 H 96.7564 3.30358 -4.38355 0
M  V30 1050 H 97.0174 3.53023 -2.66134 0
M  V30 1051 N 96.0765 1.50051 0.48192 0
M  V30 1052 C 97.3225 1.60736 1.2366 0
M  V30 1053 C 97.6555 0.301786 1.91841 0
M  V30 1054 O 96.9305 -0.696025 1.8162 0
M  V30 1055 C 97.2135 2.78009 2.28874 0
M  V30 1056 C 97.0665 4.18416 1.65069 0
M  V30 1057 C 98.3855 2.90867 3.30279 0
M  V30 1058 H 95.5045 0.585031 0.448228 0
M  V30 1059 H 98.1465 1.82402 0.531946 0
M  V30 1060 H 96.2965 2.59667 2.88973 0
M  V30 1061 H 97.9685 4.48322 1.0865 0
M  V30 1062 H 96.2115 4.23177 0.954148 0
M  V30 1063 H 96.8825 4.96381 2.41474 0
M  V30 1064 H 99.3585 3.07623 2.80191 0
M  V30 1065 H 98.2345 3.74566 4.01238 0
M  V30 1066 H 98.4955 2.01021 3.93755 0
M  V30 1067 N 97.5546 -0.734337 1.39446 0
M  V30 1068 C 98.8036 -1.48937 1.36017 0
M  V30 1069 C 99.1166 -1.95557 -0.0409005 0
M  V30 1070 O 100.323 -2.70779 -0.19778 0
M  V30 1071 C 98.7786 -2.69125 2.38955 0
M  V30 1072 C 98.3866 -2.29452 3.8478 0
M  V30 1073 C 100.131 -3.46944 2.44603 0
M  V30 1074 C 98.0376 -3.46366 4.79358 0
M  V30 1075 H 96.9676 -0.559296 0.505672 0
M  V30 1076 H 99.6186 -0.800983 1.65095 0
M  V30 1077 H 98.0006 -3.40041 2.02948 0
M  V30 1078 H 99.1746 -1.66077 4.29831 0
M  V30 1079 H 97.4896 -1.64723 3.82433 0
M  V30 1080 H 100.087 -4.33907 3.12456 0
M  V30 1081 H 100.43 -3.89454 1.47076 0
M  V30 1082 H 100.963 -2.83056 2.79507 0
M  V30 1083 H 97.7016 -3.08905 5.78151 0
M  V30 1084 H 97.2216 -4.08719 4.38986 0
M  V30 1085 H 98.9006 -4.12691 4.98292 0
M  V30 1086 N 99.0327 -1.24633 -0.964593 0
M  V30 1087 C 100.31 -0.995809 -1.68354 0
M  V30 1088 C 100.69 0.480964 -2.05548 0
M  V30 1089 O 100.038 1.45599 -1.76105 0
M  V30 1090 C 100.248 -1.92177 -2.91323 0
M  V30 1091 C 101.596 -2.19446 -3.63495 0
M  V30 1092 O 102.62 -1.89855 -3.01386 0
M  V30 1093 O 101.479 -2.69714 -4.75307 0
M  V30 1094 H 98.5727 -0.376854 -0.736146 0
M  V30 1095 H 101.119 -1.35745 -1.0184 0
M  V30 1096 H 99.8907 -2.91938 -2.60553 0
M  V30 1097 H 99.5137 -1.56349 -3.65569 0
M  V30 1098 N 100.511 1.16574 -1.06058 0
M  V30 1099 C 101.751 1.88723 -0.78504 0
M  V30 1100 C 102.115 1.79706 0.676006 0
M  V30 1101 O 103.316 2.46757 1.06603 0
M  V30 1102 C 101.587 3.34338 -1.26304 0
M  V30 1103 S 103.146 4.24366 -1.1162 0
M  V30 1104 H 99.9638 0.651448 -0.284846 0
M  V30 1105 H 102.566 1.40732 -1.35701 0
M  V30 1106 H 101.27 3.38439 -2.32136 0
M  V30 1107 H 100.801 3.87378 -0.685719 0
M  V30 1108 H 102.816 4.96179 -0.0456539 0
M  V30 1109 N 101.989 0.842826 1.3317 0
M  V30 1110 C 103.4 0.496651 1.79973 0
M  V30 1111 C 103.751 -0.984641 1.69703 0
M  V30 1112 O 102.876 -1.76743 1.24863 0
M  V30 1113 C 103.471 0.894727 3.26772 0
M  V30 1114 C 102.03 0.600629 3.71577 0
M  V30 1115 C 101.177 1.10091 2.5451 0
M  V30 1116 H 104.128 1.03116 1.20635 0
M  V30 1117 H 104.149 0.206347 3.7994 0
M  V30 1118 H 103.661 1.97287 3.34215 0
M  V30 1119 H 101.762 -0.467284 3.69658 0
M  V30 1120 H 101.875 1.15863 4.64879 0
M  V30 1121 H 100.239 0.52162 2.49301 0
M  V30 1122 H 101.022 2.18591 2.64713 0
M  V30 1123 N 103.467 -1.45747 0.599634 0
M  V30 1124 C 104.713 -2.03153 0.100263 0
M  V30 1125 C 105.068 -1.46073 -1.25221 0
M  V30 1126 O 104.361 -0.622878 -1.81193 0
M  V30 1127 C 104.555 -3.57399 -0.00602758 0
M  V30 1128 C 104.384 -4.2944 1.3346 0
M  V30 1129 C 103.154 -4.6768 1.91321 0
M  V30 1130 C 105.352 -4.61905 2.2616 0
M  V30 1131 N 103.334 -5.24544 3.18946 0
M  V30 1132 C 104.705 -5.19518 3.3838 0
M  V30 1133 C 106.76 -4.43841 2.25631 0
M  V30 1134 C 105.463 -5.60972 4.50226 0
M  V30 1135 C 107.489 -4.86322 3.36518 0
M  V30 1136 C 106.851 -5.44021 4.4746 0
M  V30 1137 H 102.95 -0.777911 0.0798696 0
M  V30 1138 H 105.534 -1.77674 0.796244 0
M  V30 1139 H 103.705 -3.82556 -0.671212 0
M  V30 1140 H 105.437 -4.01457 -0.51133 0
M  V30 1141 H 102.192 -4.5098 1.44617 0
M  V30 1142 H 102.616 -5.57483 3.84112 0
M  V30 1143 H 107.258 -3.98552 1.41123 0
M  V30 1144 H 104.976 -6.0523 5.35464 0
M  V30 1145 H 108.562 -4.74084 3.37247 0
M  V30 1146 H 107.442 -5.76289 5.31846 0
M  V30 1147 N 104.945 -0.338344 -1.53925 0
M  V30 1148 C 106.193 0.259245 -2.0043 0
M  V30 1149 C 106.514 1.51484 -1.22791 0
M  V30 1150 O 105.784 1.93037 -0.33368 0
M  V30 1151 H 104.364 0.0987845 -0.740439 0
M  V30 1152 H 107.026 -0.458302 -1.89435 0
M  V30 1153 H 106.122 0.505334 -3.07982 0
M  V30 1154 N 106.423 1.57458 -0.0668435 0
M  V30 1155 C 107.333 2.15937 0.916975 0
M  V30 1156 C 108.349 1.12123 1.33058 0
M  V30 1157 O 109.525 1.44366 1.40429 0
M  V30 1158 C 106.59 2.70547 2.16807 0
M  V30 1159 C 105.651 3.89215 1.81135 0
M  V30 1160 C 104.884 4.41211 3.0028 0
M  V30 1161 O 105.107 3.92225 4.14144 0
M  V30 1162 O 104.041 5.32605 2.80384 0
M  V30 1163 H 107.867 3.00354 0.449561 0
M  V30 1164 H 105.452 1.48584 0.155949 0
M  V30 1165 H 107.334 3.0557 2.90181 0
M  V30 1166 H 106.009 1.89192 2.62656 0
M  V30 1167 H 104.916 3.59054 1.05028 0
M  V30 1168 H 106.249 4.71848 1.40073 0
M  V30 1169 N 107.901 -0.206675 1.56239 0
M  V30 1170 C 109.178 -0.954051 1.70755 0
M  V30 1171 C 109.558 -2.01841 0.618353 0
M  V30 1172 O 108.906 -2.25444 -0.372434 0
M  V30 1173 C 109.116 -1.551 3.12642 0
M  V30 1174 C 110.464 -2.03757 3.72516 0
M  V30 1175 O 111.488 -1.64965 3.15698 0
M  V30 1176 O 110.347 -2.75103 4.72208 0
M  V30 1177 H 107.441 -0.446636 0.696021 0
M  V30 1178 H 109.987 -0.197283 1.68549 0
M  V30 1179 H 108.759 -0.783212 3.83382 0
M  V30 1180 H 108.382 -2.37291 3.19028 0
M  V30 1181 N 109.379 -1.50304 -0.473955 0
M  V30 1182 C 110.326 -1.68959 -1.57231 0
M  V30 1183 C 111.296 -0.530899 -1.57387 0
M  V30 1184 O 112.481 -0.761133 -1.74961 0
M  V30 1185 C 109.621 -1.7871 -2.95223 0
M  V30 1186 C 108.734 -3.06061 -3.04878 0
M  V30 1187 C 107.869 -3.06626 -4.33767 0
M  V30 1188 C 106.908 -4.28443 -4.37154 0
M  V30 1189 N 106.045 -4.26763 -5.5751 0
M  V30 1190 H 110.885 -2.6273 -1.40631 0
M  V30 1191 H 108.422 -1.30241 -0.683789 0
M  V30 1192 H 110.38 -1.82344 -3.75242 0
M  V30 1193 H 109.01 -0.883806 -3.10465 0
M  V30 1194 H 108.062 -3.11911 -2.17751 0
M  V30 1195 H 109.374 -3.96039 -3.0324 0
M  V30 1196 H 108.528 -3.08973 -5.22131 0
M  V30 1197 H 107.267 -2.14473 -4.3801 0
M  V30 1198 H 106.272 -4.2631 -3.47188 0
M  V30 1199 H 107.497 -5.2182 -4.34605 0
M  V30 1200 H 105.443 -3.37462 -5.62544 0
M  V30 1201 H 105.36 -5.10507 -5.57601 0
M  V30 1202 H 106.628 -4.33253 -6.48006 0
M  V30 1203 N 110.857 0.726932 -1.39834 0
M  V30 1204 C 112.104 1.48664 -1.37496 0
M  V30 1205 C 112.432 1.94482 0.0264678 0
M  V30 1206 O 111.687 1.67692 1.00886 0
M  V30 1207 C 111.986 2.73495 -2.30077 0
M  V30 1208 C 111.652 2.46502 -3.77555 0
M  V30 1209 C 110.314 2.3885 -4.17737 0
M  V30 1210 C 112.666 2.23604 -4.70798 0
M  V30 1211 C 109.994 2.06352 -5.49214 0
M  V30 1212 C 112.346 1.92622 -6.02561 0
M  V30 1213 C 111.01 1.83444 -6.41798 0
M  V30 1214 H 110.28 0.544001 -0.503135 0
M  V30 1215 H 112.927 0.833657 -1.72402 0
M  V30 1216 H 111.232 3.43575 -1.88317 0
M  V30 1217 H 112.929 3.31549 -2.25558 0
M  V30 1218 H 109.519 2.5334 -3.45712 0
M  V30 1219 H 113.703 2.28479 -4.40581 0
M  V30 1220 H 108.959 1.97776 -5.78528 0
M  V30 1221 H 113.133 1.73914 -6.74334 0
M  V30 1222 H 110.76 1.58029 -7.43593 0
M  V30 1223 N 112.336 1.25143 0.95797 0
M  V30 1224 C 113.283 1.05235 2.05412 0
M  V30 1225 C 114.253 -0.0374561 1.66058 0
M  V30 1226 O 115.438 0.119073 1.90428 0
M  V30 1227 C 112.578 0.673589 3.38462 0
M  V30 1228 C 111.691 1.8379 3.90954 0
M  V30 1229 C 110.826 1.40381 5.12315 0
M  V30 1230 C 109.865 2.53746 5.57027 0
M  V30 1231 N 109.002 2.11136 6.69601 0
M  V30 1232 H 113.842 1.99048 2.21774 0
M  V30 1233 H 111.379 0.991277 1.08683 0
M  V30 1234 H 113.337 0.434964 4.14926 0
M  V30 1235 H 111.967 -0.227554 3.21997 0
M  V30 1236 H 111.019 2.18992 3.11041 0
M  V30 1237 H 112.331 2.68937 4.20089 0
M  V30 1238 H 111.485 1.12464 5.96185 0
M  V30 1239 H 110.224 0.523015 4.84887 0
M  V30 1240 H 109.229 2.82412 4.71724 0
M  V30 1241 H 110.454 3.42398 5.86464 0
M  V30 1242 H 108.4 1.25468 6.4389 0
M  V30 1243 H 108.317 2.89832 6.98236 0
M  V30 1244 H 109.585 1.86385 7.56889 0
M  V30 1245 N 113.814 -1.1601 1.06675 0
M  V30 1246 C 115.039 -1.91068 0.806706 0
M  V30 1247 C 115.464 -1.77112 -0.633485 0
M  V30 1248 O 114.822 -1.09908 -1.44187 0
M  V30 1249 C 114.87 -3.39655 1.21106 0
M  V30 1250 O 113.974 -4.10893 0.352189 0
M  V30 1251 H 113.315 -0.595125 0.294486 0
M  V30 1252 H 115.845 -1.46955 1.42356 0
M  V30 1253 H 115.855 -3.90434 1.18428 0
M  V30 1254 H 114.53 -3.49132 2.26008 0
M  V30 1255 H 113.107 -3.70285 0.440868 0
M  V30 1256 N 115.292 -0.849877 -1.32721 0
M  V30 1257 C 116.539 -0.450923 -1.97416 0
M  V30 1258 C 116.867 0.992376 -1.67279 0
M  V30 1259 O 116.122 1.71048 -0.950845 0
M  V30 1260 C 116.421 -0.631272 -3.51781 0
M  V30 1261 C 116.087 -2.04432 -4.01894 0
M  V30 1262 C 114.749 -2.4308 -4.1529 0
M  V30 1263 C 117.101 -2.96679 -4.28522 0
M  V30 1264 C 114.429 -3.73257 -4.52654 0
M  V30 1265 C 116.781 -4.26349 -4.67343 0
M  V30 1266 C 115.445 -4.64939 -4.78945 0
M  V30 1267 H 114.715 -0.165004 -0.722395 0
M  V30 1268 H 117.362 -1.07901 -1.58207 0
M  V30 1269 H 115.667 0.0800767 -3.91718 0
M  V30 1270 H 117.364 -0.302709 -3.99856 0
M  V30 1271 H 113.954 -1.73419 -3.91949 0
M  V30 1272 H 118.138 -2.68054 -4.17685 0
M  V30 1273 H 113.394 -4.02946 -4.59831 0
M  V30 1274 H 117.568 -4.97895 -4.86902 0
M  V30 1275 H 115.195 -5.65855 -5.07654 0
M  V30 1276 N 116.77 1.45427 -0.607355 0
M  V30 1277 C 117.998 2.06614 -0.108814 0
M  V30 1278 C 118.413 1.45204 1.2067 0
M  V30 1279 O 117.77 0.566132 1.73497 0
M  V30 1280 C 117.821 3.61481 0.0375347 0
M  V30 1281 O 117.542 4.20598 -1.22593 0
M  V30 1282 C 119.043 4.39652 0.567561 0
M  V30 1283 H 116.263 0.66747 -0.0687351 0
M  V30 1284 H 118.807 1.86675 -0.835022 0
M  V30 1285 H 116.962 3.80762 0.714068 0
M  V30 1286 H 117.376 5.1377 -1.05547 0
M  V30 1287 H 118.85 5.48518 0.61905 0
M  V30 1288 H 119.327 4.09417 1.58978 0
M  V30 1289 H 119.933 4.25234 -0.0749202 0
M  V30 1290 N 118.248 0.346503 1.53744 0
M  V30 1291 C 119.525 -0.304532 1.93215 0
M  V30 1292 C 119.905 -1.67993 1.27834 0
M  V30 1293 O 119.253 -2.24411 0.430352 0
M  V30 1294 C 119.463 -0.373852 3.46992 0
M  V30 1295 C 120.811 -0.62329 4.2 0
M  V30 1296 O 121.835 -0.455847 3.53271 0
M  V30 1297 O 120.694 -0.947879 5.38217 0
M  V30 1298 H 117.788 -0.178318 0.807547 0
M  V30 1299 H 120.334 0.397895 1.64969 0
M  V30 1300 H 119.106 0.591224 3.86808 0
M  V30 1301 H 118.729 -1.12294 3.81413 0
M  V30 1302 N 119.726 -1.57421 0.075193 0
M  V30 1303 C 120.636 -2.1642 -0.905511 0
M  V30 1304 C 121.652 -1.12828 -1.32461 0
M  V30 1305 O 122.828 -1.45109 -1.39661 0
M  V30 1306 C 119.893 -2.71693 -2.15369 0
M  V30 1307 C 118.954 -3.90171 -1.79068 0
M  V30 1308 C 118.187 -4.42798 -2.97936 0
M  V30 1309 O 118.41 -3.94416 -4.12058 0
M  V30 1310 O 117.344 -5.34085 -2.77555 0
M  V30 1311 H 121.17 -3.00588 -0.433626 0
M  V30 1312 H 118.755 -1.48664 -0.148067 0
M  V30 1313 H 120.637 -3.07104 -2.88557 0
M  V30 1314 H 119.312 -1.90582 -2.61649 0
M  V30 1315 H 118.219 -3.59606 -1.03122 0
M  V30 1316 H 119.552 -4.72584 -1.37569 0
M  V30 1317 N 121.204 0.198386 -1.56346 0
M  V30 1318 C 122.453 0.917451 -1.79627 0
M  V30 1319 C 122.766 1.8456 -0.64784 0
M  V30 1320 O 123.972 2.60504 -0.764859 0
M  V30 1321 C 122.428 1.68175 -3.18191 0
M  V30 1322 C 122.036 0.798589 -4.40825 0
M  V30 1323 C 123.78 2.39065 -3.50782 0
M  V30 1324 C 121.687 1.56157 -5.70411 0
M  V30 1325 H 120.617 0.346317 -0.669762 0
M  V30 1326 H 123.268 0.170801 -1.82703 0
M  V30 1327 H 121.65 2.47216 -3.09354 0
M  V30 1328 H 122.824 0.0470665 -4.60776 0
M  V30 1329 H 121.139 0.200686 -4.15916 0
M  V30 1330 H 123.736 2.96692 -4.44835 0
M  V30 1331 H 124.079 3.13091 -2.74371 0
M  V30 1332 H 124.612 1.66993 -3.61052 0
M  V30 1333 H 121.351 0.864142 -6.49779 0
M  V30 1334 H 120.871 2.2871 -5.54483 0
M  V30 1335 H 122.55 2.11622 -6.11412 0
M  V30 1336 N 122.682 1.50554 0.465978 0
M  V30 1337 C 123.912 1.65323 1.23903 0
M  V30 1338 C 124.32 0.338051 1.86155 0
M  V30 1339 O 123.663 -0.690518 1.70228 0
M  V30 1340 C 123.725 2.69048 2.3844 0
M  V30 1341 C 123.389 4.12462 1.96784 0
M  V30 1342 C 124.386 4.98168 1.48745 0
M  V30 1343 C 122.071 4.58407 2.05349 0
M  V30 1344 C 124.065 6.27868 1.0982 0
M  V30 1345 C 121.752 5.88112 1.66035 0
M  V30 1346 C 122.75 6.72668 1.18349 0
M  V30 1347 O 122.438 7.99951 0.795825 0
M  V30 1348 H 122.17 0.558629 0.38067 0
M  V30 1349 H 124.724 1.97561 0.562022 0
M  V30 1350 H 122.954 2.32062 3.09328 0
M  V30 1351 H 124.643 2.72985 3.0039 0
M  V30 1352 H 125.409 4.63885 1.41546 0
M  V30 1353 H 121.288 3.92735 2.41414 0
M  V30 1354 H 124.832 6.93819 0.725293 0
M  V30 1355 H 120.729 6.21914 1.72895 0
M  V30 1356 H 121.497 8.13265 0.924222 0
M  V30 1357 N 124.16 -0.719506 1.40217 0
M  V30 1358 C 125.107 -1.83359 1.40172 0
M  V30 1359 C 126.077 -1.64065 0.259206 0
M  V30 1360 O 127.262 -1.85254 0.456677 0
M  V30 1361 C 124.402 -3.2103 1.26624 0
M  V30 1362 C 123.515 -3.51923 2.50548 0
M  V30 1363 C 122.65 -4.79079 2.29471 0
M  V30 1364 C 121.689 -5.02863 3.48992 0
M  V30 1365 N 120.826 -6.2123 3.27135 0
M  V30 1366 H 125.666 -1.82733 2.35399 0
M  V30 1367 H 123.203 -0.892688 1.16917 0
M  V30 1368 H 125.161 -4.00524 1.16776 0
M  V30 1369 H 123.791 -3.20895 0.350176 0
M  V30 1370 H 122.843 -2.67014 2.70939 0
M  V30 1371 H 124.155 -3.6541 3.39525 0
M  V30 1372 H 123.309 -5.66582 2.16955 0
M  V30 1373 H 122.048 -4.67794 1.37913 0
M  V30 1374 H 121.053 -4.13816 3.6199 0
M  V30 1375 H 122.278 -5.16023 4.41472 0
M  V30 1376 H 120.224 -6.11204 2.38256 0
M  V30 1377 H 120.141 -6.35375 4.09675 0
M  V30 1378 H 121.409 -7.11532 3.18344 0
M  V30 1379 N 125.638 -1.25649 -0.95132 0
M  V30 1380 C 126.585 -1.06323 -2.04851 0
M  V30 1381 C 127.555 0.0286491 -1.66075 0
M  V30 1382 O 128.74 -0.12917 -1.90362 0
M  V30 1383 C 125.88 -0.691529 -3.381 0
M  V30 1384 C 124.993 -1.85861 -3.89974 0
M  V30 1385 C 124.128 -1.43096 -5.11563 0
M  V30 1386 C 123.167 -2.56696 -5.55674 0
M  V30 1387 N 122.304 -2.14684 -6.68472 0
M  V30 1388 H 127.144 -2.00222 -2.20715 0
M  V30 1389 H 124.681 -0.997027 -1.08156 0
M  V30 1390 H 126.639 -0.456963 -4.1469 0
M  V30 1391 H 125.269 0.210474 -3.22113 0
M  V30 1392 H 124.321 -2.20639 -3.09875 0
M  V30 1393 H 125.633 -2.71161 -4.18657 0
M  V30 1394 H 124.787 -1.15624 -5.9558 0
M  V30 1395 H 123.526 -0.548722 -4.84603 0
M  V30 1396 H 122.531 -2.84909 -4.7022 0
M  V30 1397 H 123.756 -3.45503 -5.8464 0
M  V30 1398 H 121.702 -1.28881 -6.43215 0
M  V30 1399 H 121.619 -2.9353 -6.96689 0
M  V30 1400 H 122.887 -1.90397 -7.5589 0
M  V30 1401 N 127.117 1.15442 -1.07289 0
M  V30 1402 C 128.067 2.18164 -0.662467 0
M  V30 1403 C 129.051 1.57845 0.312074 0
M  V30 1404 O 130.243 1.76552 0.125905 0
M  V30 1405 C 127.372 3.43246 -0.0611295 0
M  V30 1406 C 126.458 4.1062 -1.06077 0
M  V30 1407 N 126.849 4.53491 -2.24008 0
M  V30 1408 C 125.147 4.36949 -0.893964 0
M  V30 1409 C 125.848 5.05731 -2.87422 0
M  V30 1410 N 124.824 4.99236 -2.15091 0
M  V30 1411 H 128.626 2.49038 -1.56068 0
M  V30 1412 H 126.14 1.32003 -0.945988 0
M  V30 1413 H 128.137 4.16145 0.250792 0
M  V30 1414 H 126.797 3.13854 0.832207 0
M  V30 1415 H 127.808 4.46898 -2.6173 0
M  V30 1416 H 124.485 4.17466 -0.0534693 0
M  V30 1417 H 125.875 5.48865 -3.87553 0
M  V30 1418 N 128.595 0.856903 1.32268 0
M  V30 1419 C 129.843 0.460474 1.96784 0
M  V30 1420 C 130.164 -0.987701 1.68135 0
M  V30 1421 O 129.434 -1.69058 0.989765 0
M  V30 1422 H 128.014 0.167289 0.728027 0
M  V30 1423 H 130.676 1.09383 1.61312 0
M  V30 1424 H 129.772 0.60739 3.06133 0
M  V30 1425 N 130.073 -1.45103 0.615059 0
M  V30 1426 C 131.02 -2.30586 -0.0993978 0
M  V30 1427 C 131.99 -1.42544 -0.852669 0
M  V30 1428 O 133.175 -1.71465 -0.836917 0
M  V30 1429 C 130.315 -3.27572 -1.08583 0
M  V30 1430 C 129.428 -4.30717 -0.332656 0
M  V30 1431 C 128.563 -5.14807 -1.30947 0
M  V30 1432 C 127.602 -6.09673 -0.544538 0
M  V30 1433 N 126.739 -6.86517 -1.47101 0
M  V30 1434 H 131.579 -2.91144 0.635542 0
M  V30 1435 H 129.116 -1.4346 0.325206 0
M  V30 1436 H 131.074 -3.82276 -1.67095 0
M  V30 1437 H 129.704 -2.68751 -1.78809 0
M  V30 1438 H 128.756 -3.78615 0.368107 0
M  V30 1439 H 130.068 -4.98102 0.263842 0
M  V30 1440 H 129.222 -5.73948 -1.96643 0
M  V30 1441 H 127.961 -4.47458 -1.9399 0
M  V30 1442 H 126.966 -5.49656 0.126003 0
M  V30 1443 H 128.191 -6.79052 0.080947 0
M  V30 1444 H 126.137 -6.21851 -2.08895 0
M  V30 1445 H 126.054 -7.50281 -0.928137 0
M  V30 1446 H 127.322 -7.50194 -2.11731 0
M  V30 1447 N 131.551 -0.354651 -1.53558 0
M  V30 1448 C 132.498 0.496968 -2.25386 0
M  V30 1449 C 133.468 1.0865 -1.25636 0
M  V30 1450 O 134.653 1.12104 -1.54394 0
M  V30 1451 C 131.793 1.63637 -3.03837 0
M  V30 1452 C 130.906 1.07307 -4.18461 0
M  V30 1453 C 130.041 2.18068 -4.84376 0
M  V30 1454 C 129.08 1.59147 -5.91049 0
M  V30 1455 N 128.217 2.63695 -6.50699 0
M  V30 1456 H 133.057 -0.122075 -2.9775 0
M  V30 1457 H 130.594 -0.0720154 -1.46924 0
M  V30 1458 H 132.552 2.30734 -3.47589 0
M  V30 1459 H 131.182 2.22623 -2.33749 0
M  V30 1460 H 130.234 0.292708 -3.79272 0
M  V30 1461 H 131.546 0.602193 -4.95152 0
M  V30 1462 H 130.7 2.93007 -5.31255 0
M  V30 1463 H 129.439 2.68504 -4.07133 0
M  V30 1464 H 128.444 0.827175 -5.43542 0
M  V30 1465 H 129.669 1.09549 -6.70206 0
M  V30 1466 H 127.615 3.13365 -5.76315 0
M  V30 1467 H 127.532 2.21263 -7.22896 0
M  V30 1468 H 128.8 3.3837 -7.02229 0
M  V30 1469 N 133.029 1.57378 -0.0835403 0
M  V30 1470 C 134.275 1.94217 0.583733 0
M  V30 1471 C 134.608 0.964653 1.68547 0
M  V30 1472 O 133.883 -0.00422258 1.945 0
M  V30 1473 C 134.166 3.41253 1.14972 0
M  V30 1474 C 134.019 4.49768 0.0538277 0
M  V30 1475 C 135.338 3.89352 2.05166 0
M  V30 1476 H 132.457 0.706233 0.210724 0
M  V30 1477 H 135.099 1.89392 -0.1519 0
M  V30 1478 H 133.249 3.45496 1.77665 0
M  V30 1479 H 134.921 4.57641 -0.579851 0
M  V30 1480 H 133.164 4.29432 -0.614068 0
M  V30 1481 H 133.835 5.49817 0.490452 0
M  V30 1482 H 136.311 3.87189 1.52393 0
M  V30 1483 H 135.187 4.92822 2.41698 0
M  V30 1484 H 135.448 3.27973 2.96456 0
M  V30 1485 N 134.507 -0.190092 1.56449 0
M  V30 1486 C 135.756 -0.907912 1.80111 0
M  V30 1487 C 136.069 -1.84214 0.657619 0
M  V30 1488 O 137.275 -2.60094 0.778663 0
M  V30 1489 C 135.731 -1.66485 3.19078 0
M  V30 1490 C 135.339 -0.7752 4.41242 0
M  V30 1491 C 137.083 -2.37201 3.52045 0
M  V30 1492 C 134.99 -1.53129 5.71231 0
M  V30 1493 H 133.92 -0.34276 0.671589 0
M  V30 1494 H 136.571 -0.161109 1.82791 0
M  V30 1495 H 134.953 -2.45572 3.10661 0
M  V30 1496 H 136.127 -0.0226298 4.60794 0
M  V30 1497 H 134.442 -0.178627 4.16017 0
M  V30 1498 H 137.039 -2.94329 4.46402 0
M  V30 1499 H 137.382 -3.11632 2.76028 0
M  V30 1500 H 137.915 -1.65075 3.61932 0
M  V30 1501 H 134.654 -0.82967 6.50228 0
M  V30 1502 H 134.174 -2.25767 5.55688 0
M  V30 1503 H 135.853 -2.08377 6.12526 0
M  V30 1504 N 135.985 -1.50799 -0.457987 0
M  V30 1505 C 136.918 -1.65273 -1.57353 0
M  V30 1506 C 137.896 -0.500578 -1.54703 0
M  V30 1507 O 139.08 -0.721781 -1.74134 0
M  V30 1508 C 136.207 -1.64737 -2.95938 0
M  V30 1509 C 135.253 -2.8567 -3.16693 0
M  V30 1510 S 136.086 -4.46791 -2.95191 0
M  V30 1511 C 137.242 -4.48968 -4.36095 0
M  V30 1512 H 137.475 -2.59633 -1.44838 0
M  V30 1513 H 135.008 -1.40225 -0.64625 0
M  V30 1514 H 136.966 -1.65112 -3.7583 0
M  V30 1515 H 135.627 -0.715899 -3.05833 0
M  V30 1516 H 134.82 -2.81637 -4.17967 0
M  V30 1517 H 134.422 -2.8293 -2.44594 0
M  V30 1518 H 136.714 -4.23337 -5.28954 0
M  V30 1519 H 137.657 -5.50664 -4.45168 0
M  V30 1520 H 138.065 -3.78522 -4.18786 0
M  V30 1521 N 137.463 0.71206 -1.40597 0
M  V30 1522 C 138.411 1.84746 -1.41321 0
M  V30 1523 C 139.405 1.66842 -0.293268 0
M  V30 1524 O 140.611 1.73904 -0.464481 0
M  V30 1525 H 136.986 0.608522 -0.441819 0
M  V30 1526 H 138.957 1.81252 -2.37045 0
M  V30 1527 C 137.706 3.22638 -1.29614 0
M  V30 1528 H 137.029 3.37023 -2.15071 0
M  V30 1529 H 138.469 4.02209 -1.3418 0
M  V30 1530 C 136.928 3.36899 -0.00673121 0
M  V30 1531 O 137.458 3.90186 0.954859 0
M  V30 1532 N 135.664 2.9053 0.0639327 0
M  V30 1533 H 135.211 2.47353 -0.719311 0
M  V30 1534 H 135.169 3.0045 0.926118 0
M  V30 1535 N 138.941 1.26152 0.944643 0
M  V30 1536 C 140.19 1.10883 1.68487 0
M  V30 1537 C 140.503 -0.348153 1.92477 0
M  V30 1538 O 141.709 -0.621459 2.64292 0
M  V30 1539 C 140.165 1.93624 3.03377 0
M  V30 1540 C 139.773 3.43875 2.87148 0
M  V30 1541 C 141.517 1.86954 3.81115 0
M  V30 1542 C 139.424 4.18875 4.1749 0
M  V30 1543 H 138.354 0.41135 0.631907 0
M  V30 1544 H 141.005 1.50433 1.05082 0
M  V30 1545 H 139.387 1.46904 3.67743 0
M  V30 1546 H 140.561 3.98338 2.31653 0
M  V30 1547 H 138.876 3.51744 2.22856 0
M  V30 1548 H 141.473 2.40275 4.77673 0
M  V30 1549 H 141.816 0.839518 4.07747 0
M  V30 1550 H 142.349 2.31477 3.23517 0
M  V30 1551 H 139.088 5.22332 3.96043 0
M  V30 1552 H 138.608 3.69193 4.72712 0
M  V30 1553 H 140.287 4.27134 4.85968 0
M  V30 1554 N 140.419 -1.14872 1.07899 0
M  V30 1555 C 141.382 -2.17986 0.708161 0
M  V30 1556 C 142.382 -1.58775 -0.25442 0
M  V30 1557 O 143.572 -1.74166 -0.034645 0
M  V30 1558 C 140.704 -3.40871 0.0446929 0
M  V30 1559 H 141.897 -2.52306 1.62116 0
M  V30 1560 H 139.45 -1.2943 0.876218 0
M  V30 1561 H 140.185 -3.12124 -0.880281 0
M  V30 1562 H 139.97 -3.8511 0.737091 0
M  V30 1563 H 141.46 -4.17121 -0.19991 0
M  V30 1564 N 141.898 -0.863906 -1.31812 0
M  V30 1565 C 143.126 -0.486111 -2.01108 0
M  V30 1566 C 143.541 0.919755 -1.64882 0
M  V30 1567 O 142.898 1.60162 -0.874893 0
M  V30 1568 C 142.949 -0.626435 -3.56031 0
M  V30 1569 O 142.67 -1.97693 -3.90959 0
M  V30 1570 C 144.171 -0.248857 -4.42601 0
M  V30 1571 H 141.391 -0.190052 -0.643523 0
M  V30 1572 H 143.935 -1.1634 -1.68182 0
M  V30 1573 H 142.09 0.00322717 -3.874 0
M  V30 1574 H 142.504 -1.98034 -4.85678 0
M  V30 1575 H 143.978 -0.398016 -5.50563 0
M  V30 1576 H 144.455 0.811489 -4.31638 0
M  V30 1577 H 145.061 -0.853971 -4.16638 0
M  V30 1578 N 143.376 1.44774 -0.622745 0
M  V30 1579 C 144.326 2.2774 0.108889 0
M  V30 1580 C 145.31 1.38189 0.824175 0
M  V30 1581 O 146.502 1.62063 0.711664 0
M  V30 1582 C 143.631 3.25353 1.09546 0
M  V30 1583 C 142.717 4.22392 0.380232 0
M  V30 1584 N 143.108 5.02388 -0.586535 0
M  V30 1585 C 141.406 4.41588 0.625792 0
M  V30 1586 C 142.107 5.72894 -1.00834 0
M  V30 1587 N 141.083 5.42479 -0.348878 0
M  V30 1588 H 144.885 2.86993 -0.63341 0
M  V30 1589 H 142.399 1.5611 -0.447589 0
M  V30 1590 H 144.396 3.83538 1.63414 0
M  V30 1591 H 143.056 2.6766 1.83815 0
M  V30 1592 H 144.067 5.0885 -0.963975 0
M  V30 1593 H 140.744 3.95003 1.352 0
M  V30 1594 H 142.134 6.47158 -1.80656 0
M  V30 1595 N 144.854 0.36279 1.53368 0
M  V30 1596 C 146.079 -0.231226 2.06107 0
M  V30 1597 C 146.504 -1.419 1.23474 0
M  V30 1598 O 145.862 -1.79524 0.253128 0
M  V30 1599 C 145.91 -0.605523 3.5548 0
M  V30 1600 O 145.014 -1.70312 3.7559 0
M  V30 1601 H 144.355 -0.034327 0.663112 0
M  V30 1602 H 146.885 0.522584 1.97814 0
M  V30 1603 H 146.895 -0.877314 3.98456 0
M  V30 1604 H 145.57 0.263004 4.15068 0
M  V30 1605 H 144.147 -1.4271 3.44512 0
M  V30 1606 N 146.332 -1.57332 0.0918853 0
M  V30 1607 C 147.282 -2.10385 -0.87876 0
M  V30 1608 C 148.266 -1.01814 -1.24591 0
M  V30 1609 O 149.458 -1.28093 -1.22152 0
M  V30 1610 C 146.587 -2.68517 -2.13901 0
M  V30 1611 C 145.673 -3.84126 -1.79744 0
M  V30 1612 N 146.064 -4.92288 -1.1613 0
M  V30 1613 C 144.362 -3.93801 -2.09373 0
M  V30 1614 C 145.063 -5.7295 -1.00513 0
M  V30 1615 N 144.039 -5.21876 -1.5214 0
M  V30 1616 H 147.841 -2.91395 -0.38293 0
M  V30 1617 H 145.355 -1.62017 -0.111423 0
M  V30 1618 H 147.352 -3.04852 -2.84378 0
M  V30 1619 H 146.012 -1.88961 -2.64053 0
M  V30 1620 H 147.023 -5.1123 -0.828504 0
M  V30 1621 H 143.7 -3.25249 -2.61762 0
M  V30 1622 H 145.09 -6.69978 -0.507902 0
M  V30 1623 N 147.81 0.181792 -1.56548 0
M  V30 1624 C 149.087 0.926765 -1.72251 0
M  V30 1625 C 149.467 2.00831 -0.650386 0
M  V30 1626 O 148.815 2.26008 0.336521 0
M  V30 1627 C 149.025 1.50106 -3.1507 0
M  V30 1628 C 150.373 1.97805 -3.75711 0
M  V30 1629 O 151.397 1.59922 -3.18282 0
M  V30 1630 O 150.256 2.67555 -4.76525 0
M  V30 1631 H 147.35 0.435506 -0.703039 0
M  V30 1632 H 149.896 0.170443 -1.68842 0
M  V30 1633 H 148.668 0.72212 -3.84579 0
M  V30 1634 H 148.291 2.32186 -3.22763 0
M  V30 1635 N 149.288 1.51039 0.449983 0
M  V30 1636 C 150.565 1.53612 1.21089 0
M  V30 1637 C 150.945 0.292997 2.09057 0
M  V30 1638 O 150.293 -0.72259 2.16774 0
M  V30 1639 C 150.503 2.84337 2.0237 0
M  V30 1640 C 151.851 3.35807 2.59843 0
M  V30 1641 O 152.875 2.85802 2.12593 0
M  V30 1642 O 151.734 4.23029 3.45989 0
M  V30 1643 H 148.828 0.617057 0.550608 0
M  V30 1644 H 151.374 1.63344 0.460082 0
M  V30 1645 H 150.146 3.66278 1.37681 0
M  V30 1646 H 149.769 2.77708 2.84542 0
M  V30 1647 N 150.766 -0.704594 1.40972 0
M  V30 1648 C 152.182 -1.01406 1.23244 0
M  V30 1649 C 152.382 -2.01169 0.115399 0
M  V30 1650 O 151.438 -2.47021 -0.523147 0
M  V30 1651 C 152.751 -1.54728 2.57836 0
M  V30 1652 C 154.299 -1.66658 2.64942 0
M  V30 1653 C 154.774 -2.23383 3.9983 0
M  V30 1654 N 156.265 -2.30756 4.01629 0
M  V30 1655 C 157 -2.75655 5.02794 0
M  V30 1656 N 156.496 -3.20225 6.14352 0
M  V30 1657 N 158.289 -2.75138 4.90159 0
M  V30 1658 H 150.44 -0.0435285 2.12355 0
M  V30 1659 H 152.703 -0.0818951 0.944456 0
M  V30 1660 H 152.409 -0.888832 3.40283 0
M  V30 1661 H 152.283 -2.53084 2.79693 0
M  V30 1662 H 154.67 -2.31617 1.8286 0
M  V30 1663 H 154.751 -0.668717 2.46904 0
M  V30 1664 H 154.395 -1.59043 4.82357 0
M  V30 1665 H 154.325 -3.23904 4.15203 0
M  V30 1666 H 156.816 -1.99291 3.21079 0
M  V30 1667 H 157.129 -3.53084 6.87424 0
M  V30 1668 H 155.474 -3.18156 6.17901 0
M  V30 1669 H 158.665 -2.39661 4.02095 0
M  V30 1670 H 158.838 -3.09812 5.6914 0
M  V30 1671 N 152.244 -1.26651 -0.937939 0
M  V30 1672 C 153.207 -1.08546 -2.01867 0
M  V30 1673 C 154.207 -0.0327327 -1.60767 0
M  V30 1674 O 155.397 -0.276427 -1.71993 0
M  V30 1675 C 152.529 -0.651711 -3.34613 0
M  V30 1676 H 153.722 -2.04502 -2.1936 0
M  V30 1677 H 151.275 -1.09294 -1.11734 0
M  V30 1678 H 152.01 0.309696 -3.22818 0
M  V30 1679 H 151.795 -1.41189 -3.65798 0
M  V30 1680 H 153.285 -0.546973 -4.14002 0
M  V30 1681 N 153.722 1.14298 -1.08507 0
M  V30 1682 C 154.97 1.84993 -0.813763 0
M  V30 1683 C 155.291 1.83405 0.662393 0
M  V30 1684 O 154.561 1.28319 1.48024 0
M  V30 1685 H 153.141 0.684966 -0.298045 0
M  V30 1686 H 155.803 1.385 -1.37126 0
M  V30 1687 H 154.899 2.89788 -1.15884 0
M  V30 1688 N 155.201 0.870884 1.31352 0
M  V30 1689 C 156.449 0.48132 1.96285 0
M  V30 1690 C 156.77 -0.969813 1.69173 0
M  V30 1691 O 156.04 -1.67998 1.00764 0
M  V30 1692 H 154.62 0.175002 0.726212 0
M  V30 1693 H 157.282 1.11087 1.60143 0
M  V30 1694 H 156.378 0.639825 3.05471 0
M  V30 1695 N 156.679 -1.44442 0.630414 0
M  V30 1696 C 157.609 -2.33418 -0.0618083 0
M  V30 1697 C 158.59 -1.48165 -0.835541 0
M  V30 1698 O 159.775 -1.76886 -0.801564 0
M  V30 1699 C 156.905 -3.31222 -1.04449 0
M  V30 1700 C 155.859 -4.26288 -0.382436 0
M  V30 1701 C 155.185 -5.13954 -1.47497 0
M  V30 1702 C 156.485 -5.1744 0.710865 0
M  V30 1703 H 158.179 -2.91548 0.681184 0
M  V30 1704 H 155.725 -1.40191 0.329026 0
M  V30 1705 H 157.678 -3.92351 -1.53748 0
M  V30 1706 H 156.402 -2.71299 -1.81836 0
M  V30 1707 H 155.061 -3.6649 0.0899054 0
M  V30 1708 H 154.709 -4.50385 -2.2397 0
M  V30 1709 H 154.409 -5.7837 -1.03737 0
M  V30 1710 H 155.933 -5.77955 -1.96979 0
M  V30 1711 H 157.347 -5.72509 0.300996 0
M  V30 1712 H 155.744 -5.90455 1.07156 0
M  V30 1713 H 156.814 -4.58496 1.57829 0
M  V30 1714 N 158.157 -0.370918 -1.53173 0
M  V30 1715 C 159.067 0.480823 -2.2962 0
M  V30 1716 C 160.083 1.08789 -1.35798 0
M  V30 1717 O 161.259 1.09768 -1.68858 0
M  V30 1718 C 158.324 1.60227 -3.07454 0
M  V30 1719 C 157.385 1.0222 -4.16953 0
M  V30 1720 C 156.618 2.0902 -4.91066 0
M  V30 1721 O 156.841 3.30222 -4.65091 0
M  V30 1722 O 155.775 1.71778 -5.76867 0
M  V30 1723 H 159.601 -0.141421 -3.03371 0
M  V30 1724 H 157.186 -0.135146 -1.48787 0
M  V30 1725 H 159.068 2.25417 -3.56041 0
M  V30 1726 H 157.743 2.20982 -2.36535 0
M  V30 1727 H 156.65 0.334064 -3.72605 0
M  V30 1728 H 157.983 0.459131 -4.90054 0
M  V30 1729 N 159.635 1.57281 -0.100228 0
M  V30 1730 C 160.865 1.98591 0.569681 0
M  V30 1731 C 161.273 0.978315 1.61943 0
M  V30 1732 O 160.616 -0.0396108 1.83657 0
M  V30 1733 C 160.678 3.36282 1.271 0
M  V30 1734 C 160.342 4.55488 0.371409 0
M  V30 1735 C 161.339 5.18491 -0.382504 0
M  V30 1736 C 159.024 5.01474 0.287965 0
M  V30 1737 C 161.018 6.25852 -1.20779 0
M  V30 1738 C 158.705 6.08701 -0.540965 0
M  V30 1739 C 159.703 6.70755 -1.28749 0
M  V30 1740 O 159.391 7.75914 -2.10269 0
M  V30 1741 H 159.123 0.65752 0.156982 0
M  V30 1742 H 161.677 2.0463 -0.177734 0
M  V30 1743 H 159.907 3.26941 2.0651 0
M  V30 1744 H 161.596 3.62005 1.83595 0
M  V30 1745 H 162.362 4.83891 -0.3278 0
M  V30 1746 H 158.241 4.52932 0.858689 0
M  V30 1747 H 161.785 6.74218 -1.79096 0
M  V30 1748 H 157.682 6.42732 -0.597131 0
M  V30 1749 H 158.45 7.92925 -2.03007 0
M  V30 1750 N 161.113 -0.173488 1.56642 0
M  V30 1751 C 162.36 -0.890465 1.81871 0
M  V30 1752 C 162.688 -1.82339 0.67696 0
M  V30 1753 O 161.943 -1.92795 -0.335926 0
M  V30 1754 C 162.242 -1.72069 3.13252 0
M  V30 1755 C 161.908 -0.936878 4.41059 0
M  V30 1756 C 160.57 -0.720545 4.75775 0
M  V30 1757 C 162.922 -0.386919 5.19762 0
M  V30 1758 C 160.25 0.0568829 5.86672 0
M  V30 1759 C 162.602 0.37741 6.31473 0
M  V30 1760 C 161.266 0.604563 6.64757 0
M  V30 1761 H 160.536 -0.325844 0.665512 0
M  V30 1762 H 163.183 -0.155527 1.90867 0
M  V30 1763 H 161.488 -2.52496 2.99588 0
M  V30 1764 H 163.185 -2.27844 3.29982 0
M  V30 1765 H 159.775 -1.11553 4.13828 0
M  V30 1766 H 163.959 -0.541398 4.93338 0
M  V30 1767 H 159.215 0.242635 6.10918 0
M  V30 1768 H 163.389 0.810825 6.91664 0
M  V30 1769 H 161.016 1.20885 7.50527 0
M  V30 1770 N 162.591 -1.51276 -0.441967 0
M  V30 1771 C 163.839 -1.63392 -1.18943 0
M  V30 1772 C 164.16 -0.350159 -1.9183 0
M  V30 1773 O 163.43 0.633784 -1.85364 0
M  V30 1774 H 162.01 -0.602164 -0.442049 0
M  V30 1775 H 164.672 -1.88186 -0.507165 0
M  V30 1776 H 163.768 -2.45934 -1.92154 0
M  V30 1777 N 164.069 0.697108 -1.41344 0
M  V30 1778 C 165.016 1.81106 -1.43071 0
M  V30 1779 C 165.986 1.63632 -0.285275 0
M  V30 1780 O 167.171 1.84504 -0.486091 0
M  V30 1781 C 164.311 3.18975 -1.31715 0
M  V30 1782 C 163.424 3.47892 -2.56115 0
M  V30 1783 C 162.559 4.75367 -2.37064 0
M  V30 1784 C 161.598 4.97247 -3.56948 0
M  V30 1785 N 160.735 6.15947 -3.36977 0
M  V30 1786 H 165.575 1.78965 -2.38276 0
M  V30 1787 H 163.112 0.873975 -1.18322 0
M  V30 1788 H 165.07 3.98615 -1.23133 0
M  V30 1789 H 163.7 3.20297 -0.401183 0
M  V30 1790 H 162.752 2.62669 -2.75153 0
M  V30 1791 H 164.064 3.59962 -3.45295 0
M  V30 1792 H 163.218 5.63059 -2.25941 0
M  V30 1793 H 161.957 4.65541 -1.45338 0
M  V30 1794 H 160.962 4.08004 -3.68527 0
M  V30 1795 H 162.187 5.08934 -4.49626 0
M  V30 1796 H 160.133 6.07336 -2.47949 0
M  V30 1797 H 160.05 6.28777 -4.19732 0
M  V30 1798 H 161.318 7.06377 -3.29623 0
M  V30 1799 N 165.547 1.27147 0.931209 0
M  V30 1800 C 166.796 1.12664 1.67302 0
M  V30 1801 C 167.109 -0.327718 1.92835 0
M  V30 1802 O 168.315 -0.593392 2.64936 0
M  V30 1803 C 166.771 1.9683 3.01307 0
M  V30 1804 C 166.379 3.46901 2.83485 0
M  V30 1805 C 168.123 1.90985 3.79111 0
M  V30 1806 C 166.03 4.23279 4.13024 0
M  V30 1807 H 164.96 0.41803 0.627509 0
M  V30 1808 H 167.611 1.51539 1.03481 0
M  V30 1809 H 165.993 1.50797 3.66164 0
M  V30 1810 H 167.167 4.00773 2.27415 0
M  V30 1811 H 165.482 3.54088 2.19113 0
M  V30 1812 H 168.079 2.45328 4.75098 0
M  V30 1813 H 168.422 0.882718 4.06834 0
M  V30 1814 H 168.955 2.34895 3.21044 0
M  V30 1815 H 165.694 5.26503 3.90481 0
M  V30 1816 H 165.214 3.74186 4.6877 0
M  V30 1817 H 166.893 4.32265 4.81411 0
M  V30 1818 N 167.025 -1.13721 1.09112 0
M  V30 1819 C 168.273 -1.84559 0.823562 0
M  V30 1820 C 168.594 -1.83754 -0.652658 0
M  V30 1821 O 167.864 -1.29102 -1.47342 0
M  V30 1822 H 166.444 -0.683376 0.301673 0
M  V30 1823 H 169.106 -1.37771 1.37859 0
M  V30 1824 H 168.202 -2.8917 1.17419 0
M  V30 1825 N 168.503 -0.877838 -1.30888 0
M  V30 1826 C 169.466 -0.344265 -2.266 0
M  V30 1827 C 170.466 0.50922 -1.52524 0
M  V30 1828 O 171.656 0.317398 -1.71284 0
M  V30 1829 C 168.788 0.510198 -3.37061 0
M  V30 1830 H 169.981 -1.1893 -2.7531 0
M  V30 1831 H 167.534 -0.654088 -1.41956 0
M  V30 1832 H 168.269 1.37612 -2.93655 0
M  V30 1833 H 168.054 -0.101047 -3.9197 0
M  V30 1834 H 169.544 0.875537 -4.08319 0
M  V30 1835 N 169.982 1.44106 -0.638065 0
M  V30 1836 C 170.929 2.30715 0.062701 0
M  V30 1837 C 171.899 1.43882 0.829883 0
M  V30 1838 O 173.084 1.72775 0.809532 0
M  V30 1839 C 170.224 3.29258 1.03358 0
M  V30 1840 C 169.337 4.31192 0.26409 0
M  V30 1841 C 168.472 5.16825 1.22741 0
M  V30 1842 C 167.511 6.10462 0.447475 0
M  V30 1843 N 166.648 6.8877 1.36161 0
M  V30 1844 H 171.488 2.90096 -0.681781 0
M  V30 1845 H 169.025 1.42925 -0.347988 0
M  V30 1846 H 170.983 3.84886 1.60992 0
M  V30 1847 H 169.613 2.71562 1.74511 0
M  V30 1848 H 168.665 3.77981 -0.428295 0
M  V30 1849 H 169.977 4.97619 -0.343052 0
M  V30 1850 H 169.131 5.77004 1.87487 0
M  V30 1851 H 167.87 4.50488 1.86847 0
M  V30 1852 H 166.875 5.49386 -0.213433 0
M  V30 1853 H 168.1 6.78837 -0.188968 0
M  V30 1854 H 166.046 6.25096 1.98975 0
M  V30 1855 H 165.963 7.51663 0.808656 0
M  V30 1856 H 167.231 7.53467 1.99769 0
M  V30 1857 N 171.46 0.379036 1.52974 0
M  V30 1858 C 172.688 -0.20679 2.05864 0
M  V30 1859 C 173.103 -1.41356 1.25155 0
M  V30 1860 O 172.46 -1.8009 0.295588 0
M  V30 1861 C 172.511 -0.587045 3.56702 0
M  V30 1862 O 172.232 0.571776 4.34353 0
M  V30 1863 C 173.733 -1.22983 4.25899 0
M  V30 1864 H 170.953 -0.0336123 0.670158 0
M  V30 1865 H 173.497 0.541298 1.97206 0
M  V30 1866 H 171.652 -1.28504 3.65466 0
M  V30 1867 H 172.066 0.261544 5.23847 0
M  V30 1868 H 173.54 -1.44635 5.32715 0
M  V30 1869 H 174.017 -2.19416 3.80465 0
M  V30 1870 H 174.623 -0.572892 4.21424 0
M  V30 1871 N 172.938 -1.57226 0.108567 0
M  V30 1872 C 174.168 -1.9889 -0.559142 0
M  V30 1873 C 174.576 -0.986889 -1.61422 0
M  V30 1874 O 173.919 0.0298705 -1.83676 0
M  V30 1875 C 173.981 -3.36952 -1.25315 0
M  V30 1876 C 173.645 -4.55679 -0.347248 0
M  V30 1877 C 174.642 -5.18281 0.409996 0
M  V30 1878 C 172.327 -5.0162 -0.261367 0
M  V30 1879 C 174.321 -6.25203 1.24096 0
M  V30 1880 C 172.008 -6.08405 0.573238 0
M  V30 1881 C 173.006 -6.70063 1.32304 0
M  V30 1882 O 172.694 -7.74788 2.14381 0
M  V30 1883 H 172.426 -0.658343 -0.153492 0
M  V30 1884 H 174.98 -2.04532 0.188584 0
M  V30 1885 H 173.21 -3.28032 -2.04773 0
M  V30 1886 H 174.899 -3.62974 -1.81673 0
M  V30 1887 H 175.665 -4.8371 0.353457 0
M  V30 1888 H 171.544 -4.53381 -0.834656 0
M  V30 1889 H 175.088 -6.73259 1.82669 0
M  V30 1890 H 170.985 -6.42406 0.631208 0
M  V30 1891 H 171.753 -7.91837 2.07209 0
M  V30 1892 N 174.416 0.165178 -1.56732 0
M  V30 1893 C 175.641 0.900253 -1.86843 0
M  V30 1894 C 176.066 1.74766 -0.695596 0
M  V30 1895 O 175.424 1.77786 0.35522 0
M  V30 1896 C 175.472 1.74777 -3.15413 0
M  V30 1897 O 174.576 2.85007 -2.98068 0
M  V30 1898 H 173.917 0.251832 -0.614391 0
M  V30 1899 H 176.447 0.161468 -2.03962 0
M  V30 1900 H 176.457 2.14646 -3.46974 0
M  V30 1901 H 175.132 1.12537 -4.00385 0
M  V30 1902 H 173.709 2.48676 -2.77875 0
M  V30 1903 N 175.894 1.51508 0.433938 0
M  V30 1904 C 177.122 1.68157 1.20543 0
M  V30 1905 C 177.537 0.380362 1.84929 0
M  V30 1906 O 176.894 -0.641446 1.70856 0
M  V30 1907 C 176.945 2.79965 2.28696 0
M  V30 1908 O 176.666 4.05045 1.66943 0
M  V30 1909 C 178.167 3.07912 3.18912 0
M  V30 1910 H 175.387 0.56421 0.363191 0
M  V30 1911 H 177.931 1.97941 0.513754 0
M  V30 1912 H 176.086 2.5277 2.93574 0
M  V30 1913 H 176.5 4.67165 2.38448 0
M  V30 1914 H 177.974 3.89719 3.90926 0
M  V30 1915 H 178.451 2.20456 3.79863 0
M  V30 1916 H 179.057 3.36779 2.59731 0
M  V30 1917 N 177.372 -0.689602 1.41712 0
M  V30 1918 C 178.319 -1.80345 1.44029 0
M  V30 1919 C 179.289 -1.63478 0.293948 0
M  V30 1920 O 180.474 -1.84244 0.495869 0
M  V30 1921 C 177.614 -3.18272 1.33405 0
M  V30 1922 C 176.727 -3.46529 2.57956 0
M  V30 1923 C 175.862 -4.74103 2.39582 0
M  V30 1924 C 174.901 -4.95347 3.5958 0
M  V30 1925 N 174.038 -6.14151 3.40239 0
M  V30 1926 H 178.878 -1.77698 2.39222 0
M  V30 1927 H 176.415 -0.867688 1.18784 0
M  V30 1928 H 178.373 -3.97956 1.25246 0
M  V30 1929 H 177.003 -3.2008 0.418164 0
M  V30 1930 H 176.055 -2.61207 2.76542 0
M  V30 1931 H 177.367 -3.58126 3.47199 0
M  V30 1932 H 176.521 -5.61853 2.28924 0
M  V30 1933 H 175.26 -4.64763 1.47805 0
M  V30 1934 H 174.265 -4.06044 3.70686 0
M  V30 1935 H 175.49 -5.06542 4.52318 0
M  V30 1936 H 173.436 -6.06013 2.51167 0
M  V30 1937 H 173.353 -6.26543 4.23061 0
M  V30 1938 H 174.621 -7.04619 3.33365 0
M  V30 1939 N 178.85 -1.27639 -0.924453 0
M  V30 1940 C 179.783 -1.04966 -2.02626 0
M  V30 1941 C 180.761 0.0309505 -1.62571 0
M  V30 1942 O 181.945 -0.114846 -1.8815 0
M  V30 1943 C 179.072 -0.59292 -3.3347 0
M  V30 1944 C 178.118 -1.66858 -3.92506 0
M  V30 1945 S 178.951 -3.2619 -4.24689 0
M  V30 1946 C 180.107 -2.82325 -5.58609 0
M  V30 1947 H 180.34 -1.98252 -2.21547 0
M  V30 1948 H 177.873 -1.11506 -1.06798 0
M  V30 1949 H 179.831 -0.336086 -4.09122 0
M  V30 1950 H 178.492 0.319939 -3.12466 0
M  V30 1951 H 177.685 -1.30038 -4.86935 0
M  V30 1952 H 177.287 -1.87766 -3.2345 0
M  V30 1953 H 179.579 -2.2783 -6.38044 0
M  V30 1954 H 180.522 -3.75511 -6.00331 0
M  V30 1955 H 180.93 -2.21367 -5.19285 0
M  V30 1956 N 180.328 1.1314 -1.09713 0
M  V30 1957 C 181.556 1.88321 -0.856898 0
M  V30 1958 C 181.971 1.79276 0.592073 0
M  V30 1959 O 181.328 1.16142 1.40774 0
M  V30 1960 C 181.379 3.37812 -1.28706 0
M  V30 1961 O 181.1 3.46627 -2.67921 0
M  V30 1962 C 182.601 4.29952 -1.07964 0
M  V30 1963 H 179.821 0.596094 -0.308079 0
M  V30 1964 H 182.365 1.43205 -1.45988 0
M  V30 1965 H 180.52 3.805 -0.727912 0
M  V30 1966 H 180.934 4.39579 -2.8613 0
M  V30 1967 H 182.408 5.33159 -1.42986 0
M  V30 1968 H 182.885 4.39196 -0.0176577 0
M  V30 1969 H 183.491 3.93036 -1.62489 0
M  V30 1970 N 181.806 0.884767 1.30421 0
M  V30 1971 C 183.083 0.423185 1.90967 0
M  V30 1972 C 183.463 -1.09605 1.80416 0
M  V30 1973 O 182.811 -1.93126 1.22125 0
M  V30 1974 C 183.021 0.921056 3.36627 0
M  V30 1975 C 184.369 0.955903 4.137 0
M  V30 1976 O 185.393 0.867706 3.4547 0
M  V30 1977 O 184.252 1.08614 5.35598 0
M  V30 1978 H 181.346 0.129369 0.816819 0
M  V30 1979 H 183.892 0.973653 1.3899 0
M  V30 1980 H 182.664 1.96489 3.3839 0
M  V30 1981 H 182.287 0.349741 3.96059 0
M  V30 1982 N 183.284 -1.43765 0.645699 0
M  V30 1983 C 184.509 -2.06767 0.161883 0
M  V30 1984 C 184.934 -1.48034 -1.16049 0
M  V30 1985 O 184.292 -0.587369 -1.71522 0
M  V30 1986 C 184.34 -3.60519 0.0762003 0
M  V30 1987 O 183.444 -4.00982 -0.963721 0
M  V30 1988 H 182.785 -0.657675 0.091429 0
M  V30 1989 H 185.315 -1.84397 0.886499 0
M  V30 1990 H 185.325 -4.07853 -0.109604 0
M  V30 1991 H 184 -4.02646 1.04157 0
M  V30 1992 H 182.577 -3.65253 -0.751312 0
M  V30 1993 N 184.763 -0.387143 -1.52771 0
M  V30 1994 C 186.012 0.19697 -2.00736 0
M  V30 1995 C 186.325 1.48082 -1.27793 0
M  V30 1996 O 187.531 2.14485 -1.66458 0
M  V30 1997 C 185.987 0.401568 -3.57653 0
M  V30 1998 C 185.595 -0.868907 -4.39493 0
M  V30 1999 C 187.339 0.942164 -4.13912 0
M  V30 2000 C 185.246 -0.632705 -5.88006 0
M  V30 2001 H 184.176 0.0773827 -0.750019 0
M  V30 2002 H 186.827 -0.50921 -1.76293 0
M  V30 2003 H 185.209 1.16954 -3.78335 0
M  V30 2004 H 186.383 -1.64133 -4.30577 0
M  V30 2005 H 184.698 -1.33429 -3.94443 0
M  V30 2006 H 187.295 1.13455 -5.22525 0
M  V30 2007 H 187.638 1.9106 -3.69867 0
M  V30 2008 H 188.171 0.233814 -3.97112 0
M  V30 2009 H 184.91 -1.57208 -6.36369 0
M  V30 2010 H 184.43 0.100825 -5.99715 0
M  V30 2011 H 186.109 -0.26642 -6.46451 0
M  V30 2012 N 186.241 1.57166 -0.116904 0
M  V30 2013 C 187.171 2.18222 0.830759 0
M  V30 2014 C 188.152 1.12167 1.27877 0
M  V30 2015 O 189.337 1.40394 1.34176 0
M  V30 2016 C 186.467 2.77996 2.08172 0
M  V30 2017 C 185.421 3.89614 1.77157 0
M  V30 2018 C 184.747 4.36187 3.09265 0
M  V30 2019 C 186.047 5.1181 1.04151 0
M  V30 2020 H 187.741 2.97664 0.321992 0
M  V30 2021 H 185.287 1.4318 0.153434 0
M  V30 2022 H 187.24 3.19366 2.74924 0
M  V30 2023 H 185.964 1.9584 2.6137 0
M  V30 2024 H 184.623 3.48816 1.12796 0
M  V30 2025 H 184.271 3.50893 3.60393 0
M  V30 2026 H 183.971 5.11455 2.89288 0
M  V30 2027 H 185.495 4.80207 3.77139 0
M  V30 2028 H 186.909 5.50214 1.61052 0
M  V30 2029 H 185.306 5.92648 0.942762 0
M  V30 2030 H 186.376 4.84892 0.0279022 0
M  V30 2031 N 187.719 -0.156864 1.56817 0
M  V30 2032 C 188.682 -1.17781 1.96622 0
M  V30 2033 C 189.682 -1.36401 0.851555 0
M  V30 2034 O 190.872 -1.33561 1.11836 0
M  V30 2035 C 188.004 -2.54008 2.27361 0
M  V30 2036 H 189.197 -0.836564 2.87996 0
M  V30 2037 H 186.75 -0.39985 1.51099 0
M  V30 2038 H 187.485 -2.9312 1.38748 0
M  V30 2039 H 187.27 -2.41856 3.08623 0
M  V30 2040 H 188.76 -3.27558 2.59029 0
M  V30 2041 N 189.197 -1.51736 -0.425897 0
M  V30 2042 C 190.144 -1.73875 -1.51776 0
M  V30 2043 C 191.114 -0.580702 -1.55618 0
M  V30 2044 O 192.299 -0.81641 -1.72451 0
M  V30 2045 C 189.439 -1.88012 -2.89388 0
M  V30 2046 C 188.552 -3.15606 -2.94986 0
M  V30 2047 C 187.687 -3.20271 -4.23793 0
M  V30 2048 C 186.726 -4.42134 -4.23302 0
M  V30 2049 N 185.863 -4.44284 -5.43651 0
M  V30 2050 H 190.703 -2.67071 -1.32201 0
M  V30 2051 H 188.24 -1.32351 -0.642008 0
M  V30 2052 H 190.198 -1.9419 -3.69251 0
M  V30 2053 H 188.828 -0.98213 -3.07496 0
M  V30 2054 H 187.88 -3.18681 -2.07717 0
M  V30 2055 H 189.192 -4.05486 -2.90486 0
M  V30 2056 H 188.346 -3.25428 -5.12036 0
M  V30 2057 H 187.085 -2.28299 -4.30965 0
M  V30 2058 H 186.09 -4.3714 -3.3345 0
M  V30 2059 H 187.315 -5.35382 -4.17783 0
M  V30 2060 H 185.261 -3.55188 -5.51523 0
M  V30 2061 H 185.178 -5.27988 -5.41078 0
M  V30 2062 H 186.446 -4.53649 -6.33895 0
M  V30 2063 N 190.675 0.682077 -1.42076 0
M  V30 2064 C 191.585 1.82535 -1.47371 0
M  V30 2065 C 192.601 1.7017 -0.363079 0
M  V30 2066 O 193.777 1.91848 -0.612875 0
M  V30 2067 C 190.842 3.18624 -1.36674 0
M  V30 2068 C 189.903 3.42999 -2.58167 0
M  V30 2069 C 189.136 4.72595 -2.4797 0
M  V30 2070 O 189.359 5.50006 -1.5116 0
M  V30 2071 O 188.293 4.98054 -3.37974 0
M  V30 2072 H 192.119 1.81023 -2.43853 0
M  V30 2073 H 189.704 0.836887 -1.2376 0
M  V30 2074 H 191.586 3.99847 -1.33043 0
M  V30 2075 H 190.261 3.20789 -0.433138 0
M  V30 2076 H 189.168 2.61653 -2.67373 0
M  V30 2077 H 190.501 3.45659 -3.50401 0
M  V30 2078 N 192.153 1.28127 0.917671 0
M  V30 2079 C 193.101 1.11569 2.04096 0
M  V30 2080 C 194.095 0.0360242 1.69362 0
M  V30 2081 O 195.301 0.194501 1.78946 0
M  V30 2082 H 191.676 0.344097 0.668656 0
M  V30 2083 H 193.647 2.06711 2.15205 0
M  V30 2084 C 192.396 0.790197 3.38602 0
M  V30 2085 H 191.719 1.61293 3.6582 0
M  V30 2086 H 193.159 0.714271 4.1794 0
M  V30 2087 C 191.618 -0.505897 3.3308 0
M  V30 2088 O 192.148 -1.53736 3.71117 0
M  V30 2089 N 190.354 -0.505193 2.86175 0
M  V30 2090 H 189.901 0.334621 2.55417 0
M  V30 2091 H 189.859 -1.37243 2.82863 0
M  V30 2092 N 193.631 -1.12557 1.10312 0
M  V30 2093 C 194.578 -2.18247 0.750781 0
M  V30 2094 C 195.548 -1.63853 -0.272293 0
M  V30 2095 O 196.733 -1.90195 -0.151862 0
M  V30 2096 C 193.873 -3.44591 0.187379 0
M  V30 2097 C 192.986 -4.13046 1.2656 0
M  V30 2098 C 192.121 -5.27034 0.663978 0
M  V30 2099 C 191.16 -5.87353 1.72287 0
M  V30 2100 N 190.297 -6.92757 1.1416 0
M  V30 2101 H 195.137 -2.47732 1.65628 0
M  V30 2102 H 192.674 -1.21629 0.827337 0
M  V30 2103 H 194.632 -4.16904 -0.157148 0
M  V30 2104 H 193.262 -3.15527 -0.681355 0
M  V30 2105 H 192.314 -3.38924 1.72727 0
M  V30 2106 H 193.626 -4.53947 2.06721 0
M  V30 2107 H 192.78 -6.06104 0.268824 0
M  V30 2108 H 191.519 -4.87407 -0.169082 0
M  V30 2109 H 190.524 -5.06971 2.12746 0
M  V30 2110 H 191.749 -6.29051 2.55875 0
M  V30 2111 H 189.695 -6.5517 0.329984 0
M  V30 2112 H 189.612 -7.3225 1.88007 0
M  V30 2113 H 190.88 -7.75658 0.772956 0
M  V30 2114 N 195.109 -0.891671 -1.2995 0
M  V30 2115 C 196.52 -0.563104 -1.78006 0
M  V30 2116 C 196.871 0.920978 -1.73241 0
M  V30 2117 O 195.996 1.71987 -1.31337 0
M  V30 2118 C 196.591 -1.01539 -3.23226 0
M  V30 2119 C 195.15 -0.738124 -3.69092 0
M  V30 2120 C 194.297 -1.19461 -2.50249 0
M  V30 2121 H 197.248 -1.07522 -1.16725 0
M  V30 2122 H 197.269 -0.347217 -3.78912 0
M  V30 2123 H 196.781 -2.09555 -3.26662 0
M  V30 2124 H 194.882 0.329766 -3.71138 0
M  V30 2125 H 194.995 -1.33037 -4.60259 0
M  V30 2126 H 193.359 -0.613787 -2.47194 0
M  V30 2127 H 194.142 -2.28265 -2.56417 0
M  V30 2128 N 196.587 1.43421 -0.653314 0
M  V30 2129 C 198.003 1.56341 -0.320886 0
M  V30 2130 C 198.203 1.63696 1.17499 0
M  V30 2131 O 197.259 1.59208 1.95982 0
M  V30 2132 C 198.572 2.82424 -1.03233 0
M  V30 2133 C 200.12 2.96168 -1.01259 0
M  V30 2134 C 200.595 4.25084 -1.70492 0
M  V30 2135 N 202.086 4.31948 -1.67257 0
M  V30 2136 C 202.821 5.30466 -2.17701 0
M  V30 2137 N 202.317 6.35261 -2.76434 0
M  V30 2138 N 204.11 5.2212 -2.082 0
M  V30 2139 H 196.261 1.3689 -1.62403 0
M  V30 2140 H 198.524 0.657455 -0.682977 0
M  V30 2141 H 198.23 2.83053 -2.08744 0
M  V30 2142 H 198.104 3.72653 -0.583948 0
M  V30 2143 H 200.491 2.9508 0.0341235 0
M  V30 2144 H 200.572 2.07229 -1.49966 0
M  V30 2145 H 200.216 4.26932 -2.7512 0
M  V30 2146 H 200.146 5.1292 -1.19251 0
M  V30 2147 H 202.637 3.56838 -1.24398 0
M  V30 2148 H 202.95 7.06754 -3.12601 0
M  V30 2149 H 201.295 6.35884 -2.80495 0
M  V30 2150 H 204.486 4.39166 -1.62021 0
M  V30 2151 H 204.659 5.98739 -2.47822 0
M  V30 2152 N 198.065 0.39524 1.52563 0
M  V30 2153 C 199.028 -0.425001 2.25225 0
M  V30 2154 C 200.028 -0.985266 1.27079 0
M  V30 2155 O 201.218 -0.866332 1.5113 0
M  V30 2156 C 198.35 -1.59686 3.01186 0
M  V30 2157 H 199.543 0.211233 2.99155 0
M  V30 2158 H 197.096 0.147472 1.55603 0
M  V30 2159 H 197.831 -2.27035 2.31572 0
M  V30 2160 H 197.616 -1.20176 3.73229 0
M  V30 2161 H 199.106 -2.17743 3.5634 0
M  V30 2162 N 199.544 -1.57102 0.125237 0
M  V30 2163 C 200.476 -2.12726 -0.853237 0
M  V30 2164 C 201.489 -1.07145 -1.22571 0
M  V30 2165 O 202.678 -1.34497 -1.17358 0
M  V30 2166 C 199.778 -2.61709 -2.15317 0
M  V30 2167 C 198.951 -3.91456 -1.95143 0
M  V30 2168 C 198.01 -4.25973 -3.08923 0
M  V30 2169 O 197.036 -4.94682 -2.81564 0
M  V30 2170 N 198.238 -3.83795 -4.35524 0
M  V30 2171 H 201.003 -2.97307 -0.377964 0
M  V30 2172 H 198.564 -1.61792 -0.0590011 0
M  V30 2173 H 200.556 -2.81826 -2.90441 0
M  V30 2174 H 199.126 -1.81974 -2.54174 0
M  V30 2175 H 198.346 -3.80185 -1.04177 0
M  V30 2176 H 199.634 -4.76283 -1.78976 0
M  V30 2177 H 199.032 -3.2839 -4.60626 0
M  V30 2178 H 197.589 -4.09008 -5.07499 0
M  V30 2179 N 201.022 0.148545 -1.56898 0
M  V30 2180 C 202.252 0.875118 -1.8715 0
M  V30 2181 C 202.66 1.75322 -0.711262 0
M  V30 2182 O 202.003 1.80745 0.328151 0
M  V30 2183 C 202.065 1.7844 -3.12089 0
M  V30 2184 C 201.729 1.08361 -4.43967 0
M  V30 2185 C 202.726 0.438247 -5.1805 0
M  V30 2186 C 200.411 1.07358 -4.90693 0
M  V30 2187 C 202.405 -0.20779 -6.37061 0
M  V30 2188 C 200.092 0.42373 -6.09629 0
M  V30 2189 C 201.09 -0.215829 -6.82659 0
M  V30 2190 O 200.778 -0.855378 -7.99336 0
M  V30 2191 H 200.51 0.258504 -0.624621 0
M  V30 2192 H 203.064 0.14652 -2.04877 0
M  V30 2193 H 201.294 2.55389 -2.90367 0
M  V30 2194 H 202.983 2.38279 -3.286 0
M  V30 2195 H 203.749 0.437817 -4.8302 0
M  V30 2196 H 199.628 1.5608 -4.33774 0
M  V30 2197 H 203.172 -0.70758 -6.94002 0
M  V30 2198 H 199.069 0.421822 -6.4412 0
M  V30 2199 H 199.837 -0.756892 -8.14993 0
M  V30 2200 N 202.5 1.5196 0.417844 0
M  V30 2201 C 203.728 1.69426 1.18753 0
M  V30 2202 C 204.143 0.399955 1.84515 0
M  V30 2203 O 203.5 -0.623288 1.71527 0
M  V30 2204 C 203.551 2.82375 2.25714 0
M  V30 2205 O 203.272 4.06793 1.62638 0
M  V30 2206 C 204.773 3.11277 3.15628 0
M  V30 2207 H 201.993 0.568031 0.357186 0
M  V30 2208 H 204.537 1.98475 0.49273 0
M  V30 2209 H 202.692 2.5587 2.90877 0
M  V30 2210 H 203.106 4.69667 2.3348 0
M  V30 2211 H 204.58 3.93843 3.86771 0
M  V30 2212 H 205.057 2.24473 3.77503 0
M  V30 2213 H 205.663 3.39515 2.56144 0
M  V30 2214 N 203.978 -0.674533 1.42435 0
M  V30 2215 C 205.225 -1.43459 1.42919 0
M  V30 2216 C 205.553 -1.94446 0.0457312 0
M  V30 2217 O 204.808 -1.7132 -0.94593 0
M  V30 2218 C 205.107 -2.64767 2.40069 0
M  V30 2219 C 204.773 -2.3232 3.86443 0
M  V30 2220 C 203.435 -2.23182 4.26314 0
M  V30 2221 C 205.787 -2.05977 4.78773 0
M  V30 2222 C 203.115 -1.85827 5.56494 0
M  V30 2223 C 205.467 -1.70125 6.09295 0
M  V30 2224 C 204.131 -1.59498 6.48164 0
M  V30 2225 H 203.401 -0.524952 0.522978 0
M  V30 2226 H 206.048 -0.769097 1.75377 0
M  V30 2227 H 204.353 -3.36349 2.00939 0
M  V30 2228 H 206.05 -3.22949 2.37707 0
M  V30 2229 H 202.64 -2.40334 3.54877 0
M  V30 2230 H 206.824 -2.11969 4.48757 0
M  V30 2231 H 202.08 -1.76168 5.8547 0
M  V30 2232 H 206.254 -1.48767 6.80324 0
M  V30 2233 H 203.881 -1.30322 7.48946 0
M  V30 2234 N 205.456 -1.28612 -0.910864 0
M  V30 2235 C 206.733 -1.06632 -1.63979 0
M  V30 2236 C 207.113 0.393351 -2.07403 0
M  V30 2237 O 206.461 1.37999 -1.82122 0
M  V30 2238 C 206.671 -2.0436 -2.8291 0
M  V30 2239 C 208.019 -2.34666 -3.5386 0
M  V30 2240 O 209.043 -2.02467 -2.93062 0
M  V30 2241 O 207.902 -2.89631 -4.63439 0
M  V30 2242 H 204.996 -0.407737 -0.7195 0
M  V30 2243 H 207.542 -1.39942 -0.959914 0
M  V30 2244 H 206.314 -3.02727 -2.47936 0
M  V30 2245 H 205.937 -1.71714 -3.58609 0
M  V30 2246 N 206.934 1.1197 -1.10907 0
M  V30 2247 C 207.882 2.19927 -0.757303 0
M  V30 2248 C 208.876 1.67564 0.248747 0
M  V30 2249 O 210.082 1.79672 0.108605 0
M  V30 2250 H 206.457 0.716925 -0.226987 0
M  V30 2251 H 208.428 2.46847 -1.67658 0
M  V30 2252 C 207.177 3.47061 -0.210671 0
M  V30 2253 H 206.5 3.87703 -0.976049 0
M  V30 2254 H 207.94 4.24 -0.0026584 0
M  V30 2255 C 206.399 3.19864 1.05777 0
M  V30 2256 O 206.929 3.40049 2.13845 0
M  V30 2257 N 205.135 2.73636 0.978349 0
M  V30 2258 H 204.682 2.5741 0.0988246 0
M  V30 2259 H 204.64 2.55815 1.82773 0
M  V30 2260 N 208.412 0.89855 1.29475 0
M  V30 2261 C 209.36 0.365253 2.29714 0
M  V30 2262 C 210.354 -0.534993 1.6073 0
M  V30 2263 O 211.56 -0.417921 1.75081 0
M  V30 2264 H 207.935 0.0994853 0.74539 0
M  V30 2265 H 209.906 1.22406 2.72138 0
M  V30 2266 C 208.655 -0.393159 3.4547 0
M  V30 2267 H 207.978 0.290332 3.98744 0
M  V30 2268 H 209.418 -0.731189 4.17648 0
M  V30 2269 C 207.877 -1.59539 2.9673 0
M  V30 2270 O 208.407 -2.69469 2.97908 0
M  V30 2271 N 206.613 -1.43716 2.52575 0
M  V30 2272 H 206.16 -0.542828 2.51816 0
M  V30 2273 H 206.118 -2.24288 2.20323 0
M  V30 2274 N 209.89 -1.43072 0.660911 0
M  V30 2275 C 210.837 -2.30785 -0.0259884 0
M  V30 2276 C 211.807 -1.45184 -0.806888 0
M  V30 2277 O 212.992 -1.74041 -0.781943 0
M  V30 2278 C 210.132 -3.30861 -0.981067 0
M  V30 2279 C 209.245 -4.31558 -0.195458 0
M  V30 2280 C 208.38 -5.18712 -1.14503 0
M  V30 2281 C 207.419 -6.11097 -0.350299 0
M  V30 2282 N 206.556 -6.90849 -1.25186 0
M  V30 2283 H 211.396 -2.88975 0.727846 0
M  V30 2284 H 208.933 -1.42353 0.370682 0
M  V30 2285 H 210.891 -3.87399 -1.54849 0
M  V30 2286 H 209.521 -2.74304 -1.70169 0
M  V30 2287 H 208.573 -3.77252 0.488374 0
M  V30 2288 H 209.885 -4.9701 0.422176 0
M  V30 2289 H 209.039 -5.79914 -1.78284 0
M  V30 2290 H 207.778 -4.53404 -1.79656 0
M  V30 2291 H 206.783 -5.48976 0.300808 0
M  V30 2292 H 208.008 -6.7845 0.296941 0
M  V30 2293 H 205.954 -6.28182 -1.89005 0
M  V30 2294 H 205.871 -7.52854 -0.688971 0
M  V30 2295 H 207.139 -7.5655 -1.87757 0
M  V30 2296 N 211.368 -0.403325 -1.52352 0
M  V30 2297 C 212.593 0.176499 -2.06648 0
M  V30 2298 C 213.018 1.38577 -1.27193 0
M  V30 2299 O 212.376 1.7879 -0.300637 0
M  V30 2300 C 212.424 0.511061 -3.5696 0
M  V30 2301 O 211.528 1.60294 -3.79973 0
M  V30 2302 H 210.869 0.0167337 -0.663789 0
M  V30 2303 H 213.399 -0.574848 -1.96359 0
M  V30 2304 H 213.409 0.771362 -4.00642 0
M  V30 2305 H 212.084 -0.37296 -4.14224 0
M  V30 2306 H 210.661 1.33526 -3.48174 0
M  V30 2307 N 212.846 1.57033 -0.133567 0
M  V30 2308 C 214.093 1.95686 0.520877 0
M  V30 2309 C 214.421 1.0177 1.6575 0
M  V30 2310 O 213.676 0.0443195 1.9565 0
M  V30 2311 C 213.975 3.40674 1.08057 0
M  V30 2312 C 213.641 4.50855 0.0637899 0
M  V30 2313 C 212.303 4.80716 -0.215757 0
M  V30 2314 C 214.655 5.17398 -0.62835 0
M  V30 2315 C 211.983 5.74433 -1.19348 0
M  V30 2316 C 214.335 6.12167 -1.5948 0
M  V30 2317 C 212.999 6.40414 -1.88218 0
M  V30 2318 H 212.269 0.716067 0.190602 0
M  V30 2319 H 214.916 1.9026 -0.217556 0
M  V30 2320 H 213.221 3.42865 1.89606 0
M  V30 2321 H 214.918 3.67902 1.59529 0
M  V30 2322 H 211.508 4.27605 0.291855 0
M  V30 2323 H 215.692 4.94472 -0.425562 0
M  V30 2324 H 210.948 5.94616 -1.42272 0
M  V30 2325 H 215.122 6.6281 -2.13671 0
M  V30 2326 H 212.749 7.12838 -2.64133 0
M  V30 2327 N 214.325 -0.140222 1.56975 0
M  V30 2328 C 215.272 -1.17292 1.98774 0
M  V30 2329 C 216.242 -1.4232 0.856408 0
M  V30 2330 O 217.427 -1.54541 1.119 0
M  V30 2331 C 214.567 -2.49973 2.37923 0
M  V30 2332 C 213.68 -2.32062 3.64378 0
M  V30 2333 C 212.815 -3.57825 3.926 0
M  V30 2334 C 211.854 -3.3498 5.12303 0
M  V30 2335 N 210.991 -4.52891 5.36502 0
M  V30 2336 H 215.831 -0.809472 2.86795 0
M  V30 2337 H 213.368 -0.388237 1.41884 0
M  V30 2338 H 215.326 -3.27346 2.58652 0
M  V30 2339 H 213.956 -2.84252 1.52972 0
M  V30 2340 H 213.008 -1.45711 3.51387 0
M  V30 2341 H 214.32 -2.11145 4.51906 0
M  V30 2342 H 213.474 -4.43624 4.13863 0
M  V30 2343 H 212.213 -3.81753 3.03506 0
M  V30 2344 H 211.218 -2.4757 4.90906 0
M  V30 2345 H 212.443 -3.12444 6.02956 0
M  V30 2346 H 210.389 -4.76979 4.50363 0
M  V30 2347 H 210.306 -4.35001 6.18312 0
M  V30 2348 H 211.574 -5.39884 5.62268 0
M  V30 2349 N 215.803 -1.52179 -0.40978 0
M  V30 2350 C 217.049 -1.66453 -1.15851 0
M  V30 2351 C 217.382 -0.392972 -1.90182 0
M  V30 2352 O 216.657 0.608579 -1.84734 0
M  V30 2353 C 216.94 -2.88612 -2.15349 0
M  V30 2354 C 216.793 -4.25815 -1.44918 0
M  V30 2355 C 218.112 -3.06294 -3.16026 0
M  V30 2356 H 215.231 -0.60575 -0.419805 0
M  V30 2357 H 217.873 -1.84732 -0.444314 0
M  V30 2358 H 216.023 -2.73158 -2.76255 0
M  V30 2359 H 217.695 -4.52995 -0.871365 0
M  V30 2360 H 215.938 -4.27247 -0.751159 0
M  V30 2361 H 216.609 -5.07337 -2.17516 0
M  V30 2362 H 219.085 -3.20641 -2.65195 0
M  V30 2363 H 217.961 -3.93283 -3.8291 0
M  V30 2364 H 218.222 -2.19579 -3.83715 0
M  V30 2365 N 217.281 0.66697 -1.42791 0
M  V30 2366 C 218.529 1.42417 -1.43394 0
M  V30 2367 C 218.85 1.94925 -0.0542373 0
M  V30 2368 O 218.12 1.73564 0.908415 0
M  V30 2369 H 216.7 0.528515 -0.527902 0
M  V30 2370 H 219.362 0.787562 -1.78279 0
M  V30 2371 H 218.458 2.27333 -2.13837 0
M  V30 2372 N 218.759 1.29093 0.90403 0
M  V30 2373 C 219.706 1.13853 2.00764 0
M  V30 2374 C 220.676 0.0330084 1.66067 0
M  V30 2375 O 221.861 0.199733 1.89752 0
M  V30 2376 C 219.001 0.816537 3.35301 0
M  V30 2377 C 218.114 2.00206 3.82807 0
M  V30 2378 C 217.249 1.61983 5.059 0
M  V30 2379 C 216.288 2.77143 5.45764 0
M  V30 2380 N 215.425 2.39346 6.60044 0
M  V30 2381 H 220.265 2.08276 2.13132 0
M  V30 2382 H 217.802 1.03648 1.04381 0
M  V30 2383 H 219.76 0.610557 4.12708 0
M  V30 2384 H 218.39 -0.090779 3.22672 0
M  V30 2385 H 217.442 2.31988 3.01473 0
M  V30 2386 H 218.754 2.86512 4.08304 0
M  V30 2387 H 217.908 1.37649 5.90879 0
M  V30 2388 H 216.647 0.728202 4.82233 0
M  V30 2389 H 215.652 3.02165 4.59322 0
M  V30 2390 H 216.877 3.66964 5.71414 0
M  V30 2391 H 214.823 1.52665 6.37989 0
M  V30 2392 H 214.74 3.19185 6.85315 0
M  V30 2393 H 216.008 2.1832 7.48303 0
M  V30 2394 N 220.237 -1.11381 1.11499 0
M  V30 2395 C 221.462 -1.87475 0.887019 0
M  V30 2396 C 221.887 -1.79639 -0.557796 0
M  V30 2397 O 221.245 -1.15924 -1.39396 0
M  V30 2398 C 221.293 -3.34213 1.35403 0
M  V30 2399 O 220.397 -4.0903 0.526146 0
M  V30 2400 H 219.738 -0.582099 0.319463 0
M  V30 2401 H 222.268 -1.40785 1.48461 0
M  V30 2402 H 222.278 -3.8506 1.34881 0
M  V30 2403 H 220.953 -3.39232 2.40612 0
M  V30 2404 H 219.53 -3.68082 0.597522 0
M  V30 2405 N 221.715 -0.905404 -1.28997 0
M  V30 2406 C 222.625 -0.392246 -2.31298 0
M  V30 2407 C 223.641 0.515889 -1.66176 0
M  V30 2408 O 224.817 0.404093 -1.97304 0
M  V30 2409 C 221.882 0.36686 -3.44754 0
M  V30 2410 C 220.943 -0.573485 -4.25452 0
M  V30 2411 C 220.176 0.149488 -5.33491 0
M  V30 2412 O 220.399 1.37255 -5.5364 0
M  V30 2413 O 219.333 -0.510919 -5.99728 0
M  V30 2414 H 223.159 -1.2411 -2.77183 0
M  V30 2415 H 220.744 -0.669926 -1.33538 0
M  V30 2416 H 222.626 0.795907 -4.13816 0
M  V30 2417 H 221.301 1.19169 -3.00966 0
M  V30 2418 H 220.208 -1.05176 -3.59011 0
M  V30 2419 H 221.541 -1.36489 -4.72897 0
M  V30 2420 N 223.193 1.4272 -0.668489 0
M  V30 2421 C 224.44 2.01624 -0.18814 0
M  V30 2422 C 224.768 1.5282 1.20317 0
M  V30 2423 O 224.023 0.718323 1.8204 0
M  V30 2424 C 224.322 3.57021 -0.164499 0
M  V30 2425 C 223.988 4.25232 -1.49962 0
M  V30 2426 C 222.65 4.4358 -1.8652 0
M  V30 2427 C 225.002 4.63727 -2.37921 0
M  V30 2428 C 222.33 4.97694 -3.10674 0
M  V30 2429 C 224.682 5.19218 -3.6138 0
M  V30 2430 C 223.346 5.3578 -3.98115 0
M  V30 2431 H 222.616 0.737795 -0.0688454 0
M  V30 2432 H 225.263 1.70991 -0.862225 0
M  V30 2433 H 223.568 3.87285 0.593079 0
M  V30 2434 H 225.265 4.00372 0.224271 0
M  V30 2435 H 221.855 4.11306 -1.20522 0
M  V30 2436 H 226.039 4.4923 -2.10964 0
M  V30 2437 H 221.295 5.08702 -3.39164 0
M  V30 2438 H 225.469 5.4799 -4.29743 0
M  V30 2439 H 223.096 5.77475 -4.94395 0
M  V30 2440 N 224.671 0.411399 1.52136 0
M  V30 2441 C 225.603 -0.448386 2.24771 0
M  V30 2442 C 226.616 -1.00828 1.27818 0
M  V30 2443 O 227.805 -0.906841 1.53749 0
M  V30 2444 C 224.905 -1.63636 2.96777 0
M  V30 2445 C 224.078 -1.19995 4.20618 0
M  V30 2446 C 223.137 -2.25509 4.75428 0
M  V30 2447 O 222.163 -1.86007 5.3795 0
M  V30 2448 N 223.365 -3.577 4.57199 0
M  V30 2449 H 226.13 0.174025 2.99194 0
M  V30 2450 H 223.691 0.238897 1.60128 0
M  V30 2451 H 225.683 -2.33793 3.30338 0
M  V30 2452 H 224.253 -2.16465 2.25526 0
M  V30 2453 H 223.473 -0.326421 3.92846 0
M  V30 2454 H 224.761 -0.885365 5.01038 0
M  V30 2455 H 224.159 -3.92543 4.07341 0
M  V30 2456 H 222.716 -4.23827 4.95191 0
M  V30 2457 N 226.149 -1.5696 0.141893 0
M  V30 2458 C 227.395 -1.9625 -0.511248 0
M  V30 2459 C 227.728 -1.02654 -1.64851 0
M  V30 2460 O 227.003 -0.0679676 -1.94381 0
M  V30 2461 C 227.286 -3.45285 -1.02227 0
M  V30 2462 C 227.139 -4.49658 0.113138 0
M  V30 2463 C 228.458 -3.96698 -1.90574 0
M  V30 2464 H 225.577 -0.713567 -0.184367 0
M  V30 2465 H 228.219 -1.88698 0.222087 0
M  V30 2466 H 226.369 -3.51852 -1.64719 0
M  V30 2467 H 228.041 -4.55174 0.749302 0
M  V30 2468 H 226.284 -4.26857 0.773026 0
M  V30 2469 H 226.955 -5.51258 -0.286053 0
M  V30 2470 H 229.431 -3.92578 -1.37918 0
M  V30 2471 H 228.307 -5.01453 -2.2324 0
M  V30 2472 H 228.568 -3.3875 -2.84079 0
M  V30 2473 N 227.627 0.131896 -1.57047 0
M  V30 2474 C 228.857 0.855219 -1.88068 0
M  V30 2475 C 229.265 1.74557 -0.729817 0
M  V30 2476 O 228.608 1.81083 0.308962 0
M  V30 2477 C 228.67 1.75119 -3.13964 0
M  V30 2478 C 228.334 1.03646 -4.45091 0
M  V30 2479 C 229.331 0.383276 -5.18485 0
M  V30 2480 C 227.016 1.02148 -4.91804 0
M  V30 2481 C 229.01 -0.275347 -6.36805 0
M  V30 2482 C 226.697 0.359047 -6.10044 0
M  V30 2483 C 227.695 -0.288222 -6.82392 0
M  V30 2484 O 227.383 -0.94011 -7.98384 0
M  V30 2485 H 227.115 0.251864 -0.627328 0
M  V30 2486 H 229.669 0.124782 -2.05021 0
M  V30 2487 H 227.899 2.52295 -2.9306 0
M  V30 2488 H 229.588 2.3478 -3.31109 0
M  V30 2489 H 230.354 0.386562 -4.83457 0
M  V30 2490 H 226.233 1.5147 -4.35405 0
M  V30 2491 H 229.777 -0.781148 -6.93213 0
M  V30 2492 H 225.674 0.35348 -6.44531 0
M  V30 2493 H 226.442 -0.84329 -8.14144 0
M  V30 2494 N 229.106 1.52395 0.401703 0
M  V30 2495 C 230.336 1.70429 1.1678 0
M  V30 2496 C 230.744 0.416702 1.84554 0
M  V30 2497 O 230.087 -0.617697 1.73003 0
M  V30 2498 C 230.149 2.78919 2.26814 0
M  V30 2499 C 229.813 4.20437 1.79113 0
M  V30 2500 C 230.81 5.04028 1.27482 0
M  V30 2501 C 228.495 4.66704 1.85722 0
M  V30 2502 C 230.489 6.31961 0.830913 0
M  V30 2503 C 228.176 5.94625 1.40942 0
M  V30 2504 C 229.174 6.77082 0.897128 0
M  V30 2505 O 228.862 8.02607 0.455822 0
M  V30 2506 H 228.594 0.574272 0.356634 0
M  V30 2507 H 231.148 1.99767 0.477724 0
M  V30 2508 H 229.378 2.44973 2.99207 0
M  V30 2509 H 231.067 2.8548 2.88541 0
M  V30 2510 H 231.833 4.69471 1.21744 0
M  V30 2511 H 227.712 4.0262 2.24539 0
M  V30 2512 H 231.256 6.96271 0.430368 0
M  V30 2513 H 227.153 6.28688 1.46362 0
M  V30 2514 H 227.921 8.16453 0.578457 0
M  V30 2515 N 230.584 -0.659388 1.43143 0
M  V30 2516 C 231.995 -1.24041 1.39537 0
M  V30 2517 C 232.346 -1.95963 0.0963364 0
M  V30 2518 O 231.471 -2.00892 -0.804438 0
M  V30 2519 C 232.066 -2.25601 2.52764 0
M  V30 2520 C 230.625 -2.79195 2.52443 0
M  V30 2521 C 229.772 -1.53743 2.30778 0
M  V30 2522 H 232.723 -0.451792 1.52133 0
M  V30 2523 H 232.744 -3.07651 2.23899 0
M  V30 2524 H 232.256 -1.73226 3.47296 0
M  V30 2525 H 230.357 -3.35649 1.61773 0
M  V30 2526 H 230.47 -3.2716 3.50004 0
M  V30 2527 H 228.834 -1.80869 1.79328 0
M  V30 2528 H 229.617 -1.03312 3.27386 0
M  V30 2529 N 232.062 -1.29571 -0.897171 0
M  V30 2530 C 233.31 -1.17456 -1.64464 0
M  V30 2531 C 233.631 0.273698 -1.9307 0
M  V30 2532 O 232.901 1.18684 -1.55855 0
M  V30 2533 H 231.481 -0.431706 -0.609622 0
M  V30 2534 H 234.143 -1.62531 -1.07562 0
M  V30 2535 H 233.239 -1.72648 -2.59998 0
M  V30 2536 N 233.54 1.10788 -1.12088 0
M  V30 2537 C 234.487 2.17025 -0.785407 0
M  V30 2538 C 235.457 1.64265 0.246191 0
M  V30 2539 O 236.642 1.90412 0.121584 0
M  V30 2540 C 233.782 3.44249 -0.242177 0
M  V30 2541 C 232.895 4.1098 -1.33115 0
M  V30 2542 C 232.03 5.25911 -0.747741 0
M  V30 2543 C 231.069 5.84538 -1.81609 0
M  V30 2544 N 230.206 6.90853 -1.25167 0
M  V30 2545 H 235.046 2.45066 -1.69548 0
M  V30 2546 H 232.583 1.20297 -0.846582 0
M  V30 2547 H 234.541 4.17101 0.0908026 0
M  V30 2548 H 233.171 3.16571 0.631072 0
M  V30 2549 H 232.223 3.36133 -1.78097 0
M  V30 2550 H 233.535 4.50601 -2.13917 0
M  V30 2551 H 232.689 6.056 -0.365216 0
M  V30 2552 H 231.428 4.87614 0.0915188 0
M  V30 2553 H 230.433 5.03522 -2.20785 0
M  V30 2554 H 231.658 6.249 -2.6585 0
M  V30 2555 H 229.604 6.54562 -0.434174 0
M  V30 2556 H 229.521 7.29166 -1.99633 0
M  V30 2557 H 230.789 7.7433 -0.896259 0
M  V30 2558 N 235.018 0.912232 1.28515 0
M  V30 2559 C 236.266 0.543523 1.94654 0
M  V30 2560 C 236.587 -0.9155 1.72173 0
M  V30 2561 O 235.857 -1.64708 1.06058 0
M  V30 2562 H 234.437 0.198017 0.720277 0
M  V30 2563 H 237.099 1.16126 1.56527 0
M  V30 2564 H 236.195 0.736684 3.03281 0
M  V30 2565 N 236.496 -1.42363 0.676048 0
M  V30 2566 C 237.446 -2.27987 -0.0242903 0
M  V30 2567 C 238.43 -1.41153 -0.772319 0
M  V30 2568 O 239.622 -1.64592 -0.651025 0
M  V30 2569 C 236.751 -3.29195 -0.973953 0
M  V30 2570 C 235.837 -4.23512 -0.223202 0
M  V30 2571 N 236.228 -4.99865 0.772589 0
M  V30 2572 C 234.526 -4.43606 -0.461469 0
M  V30 2573 C 235.227 -5.68757 1.22027 0
M  V30 2574 N 234.203 -5.40811 0.549975 0
M  V30 2575 H 238.005 -2.84445 0.73949 0
M  V30 2576 H 235.519 -1.54341 0.50522 0
M  V30 2577 H 237.516 -3.89339 -1.49067 0
M  V30 2578 H 236.176 -2.74298 -1.73755 0
M  V30 2579 H 237.187 -5.04921 1.15217 0
M  V30 2580 H 233.864 -3.99749 -1.20446 0
M  V30 2581 H 235.254 -6.40007 2.0455 0
M  V30 2582 N 237.974 -0.419461 -1.51915 0
M  V30 2583 C 239.202 0.152136 -2.0634 0
M  V30 2584 C 239.617 1.37988 -1.28859 0
M  V30 2585 O 238.974 1.79243 -0.343232 0
M  V30 2586 C 239.025 0.492266 -3.58133 0
M  V30 2587 O 238.746 -0.686736 -4.32684 0
M  V30 2588 C 240.247 1.11648 -4.2901 0
M  V30 2589 H 237.467 0.0158325 -0.670813 0
M  V30 2590 H 240.011 -0.593394 -1.95702 0
M  V30 2591 H 238.166 1.18769 -3.68745 0
M  V30 2592 H 238.58 -0.400341 -5.2297 0
M  V30 2593 H 240.054 1.3046 -5.36362 0
M  V30 2594 H 240.531 2.09251 -3.86148 0
M  V30 2595 H 241.137 0.460958 -4.22795 0
M  V30 2596 N 239.452 1.56882 -0.150215 0
M  V30 2597 C 240.415 2.1573 0.774157 0
M  V30 2598 C 241.415 1.0999 1.17298 0
M  V30 2599 O 242.605 1.35613 1.09338 0
M  V30 2600 C 239.737 2.72302 2.05096 0
M  V30 2601 H 240.93 2.98752 0.262201 0
M  V30 2602 H 238.483 1.55985 0.099248 0
M  V30 2603 H 239.218 1.92956 2.6065 0
M  V30 2604 H 239.003 3.49665 1.77416 0
M  V30 2605 H 240.493 3.17632 2.71109 0
M  V30 2606 N 240.93 -0.123565 1.57115 0
M  V30 2607 C 242.207 -0.862196 1.75572 0
M  V30 2608 C 242.587 -1.98279 0.724475 0
M  V30 2609 O 241.935 -2.27102 -0.252407 0
M  V30 2610 C 242.145 -1.38309 3.20424 0
M  V30 2611 C 243.493 -1.83724 3.82793 0
M  V30 2612 O 244.517 -1.47999 3.23998 0
M  V30 2613 O 243.376 -2.49685 4.86127 0
M  V30 2614 H 240.47 -0.409113 0.718718 0
M  V30 2615 H 243.016 -0.107661 1.69358 0
M  V30 2616 H 241.788 -0.578889 3.86994 0
M  V30 2617 H 241.411 -2.20046 3.31158 0
M  V30 2618 N 242.408 -1.52605 -0.393616 0
M  V30 2619 C 243.356 -1.77688 -1.50099 0
M  V30 2620 C 244.35 -0.644615 -1.56656 0
M  V30 2621 O 245.556 -0.826997 -1.59877 0
M  V30 2622 H 241.931 -0.562159 -0.499481 0
M  V30 2623 H 243.902 -2.7043 -1.26135 0
M  V30 2624 C 242.651 -1.95858 -2.87289 0
M  V30 2625 H 241.974 -2.8241 -2.82992 0
M  V30 2626 H 243.414 -2.174 -3.64024 0
M  V30 2627 C 241.873 -0.729848 -3.28899 0
M  V30 2628 O 242.403 0.0949217 -4.01588 0
M  V30 2629 N 240.609 -0.561283 -2.85128 0
M  V30 2630 H 240.156 -1.23357 -2.26143 0
M  V30 2631 H 240.114 0.2595 -3.13327 0
M  V30 2632 N 243.887 0.651787 -1.4349 0
M  V30 2633 C 245.133 1.41376 -1.45398 0
M  V30 2634 C 245.466 1.94041 -0.0784823 0
M  V30 2635 O 244.741 1.72379 0.900878 0
M  V30 2636 C 245.024 2.59414 -2.49752 0
M  V30 2637 C 244.877 2.12232 -3.96582 0
M  V30 2638 C 246.196 3.61626 -2.50827 0
M  V30 2639 H 243.315 0.512719 -0.529422 0
M  V30 2640 H 245.957 0.738796 -1.75048 0
M  V30 2641 H 244.107 3.16997 -2.246 0
M  V30 2642 H 245.779 1.59639 -4.32797 0
M  V30 2643 H 244.022 1.43592 -4.09346 0
M  V30 2644 H 244.693 2.9712 -4.65214 0
M  V30 2645 H 247.169 3.13805 -2.7325 0
M  V30 2646 H 246.045 4.41766 -3.25783 0
M  V30 2647 H 246.306 4.14314 -1.5426 0
M  V30 2648 N 245.365 1.30045 0.890287 0
M  V30 2649 C 246.611 1.18737 1.64406 0
M  V30 2650 C 246.944 -0.258525 1.92472 0
M  V30 2651 O 246.219 -1.18562 1.54186 0
M  V30 2652 C 246.502 2.01087 2.98724 0
M  V30 2653 C 246.355 3.53867 2.77665 0
M  V30 2654 C 247.674 1.84457 3.9958 0
M  V30 2655 H 244.793 0.432698 0.596608 0
M  V30 2656 H 247.435 1.5962 1.0306 0
M  V30 2657 H 245.585 1.66349 3.51084 0
M  V30 2658 H 247.257 3.98637 2.32133 0
M  V30 2659 H 245.5 3.78318 2.12269 0
M  V30 2660 H 246.171 4.06772 3.7315 0
M  V30 2661 H 248.647 2.14817 3.56361 0
M  V30 2662 H 247.523 2.44411 4.91482 0
M  V30 2663 H 247.784 0.802276 4.3476 0
M  V30 2664 N 246.843 -1.10192 1.12674 0
M  V30 2665 C 248.089 -1.82475 0.884915 0
M  V30 2666 C 248.422 -1.85093 -0.58773 0
M  V30 2667 O 247.697 -1.3134 -1.43457 0
M  V30 2668 C 247.98 -3.29018 1.46353 0
M  V30 2669 C 247.833 -3.34718 3.00473 0
M  V30 2670 C 249.152 -4.25473 1.12519 0
M  V30 2671 H 246.271 -0.662492 0.322915 0
M  V30 2672 H 248.913 -1.2913 1.39375 0
M  V30 2673 H 247.063 -3.74576 1.03077 0
M  V30 2674 H 248.735 -2.97622 3.52447 0
M  V30 2675 H 246.978 -2.74541 3.35872 0
M  V30 2676 H 247.649 -4.37918 3.36053 0
M  V30 2677 H 250.125 -3.88161 1.499 0
M  V30 2678 H 249.001 -5.26365 1.55663 0
M  V30 2679 H 249.262 -4.42084 0.0377407 0
M  V30 2680 N 248.321 -0.919034 -1.28029 0
M  V30 2681 C 249.567 -0.565221 -1.95389 0
M  V30 2682 C 249.922 0.882325 -1.70976 0
M  V30 2683 O 249.215 1.61988 -1.02325 0
M  V30 2684 C 249.409 -0.816855 -3.4794 0
M  V30 2685 C 249.238 -2.28731 -3.87185 0
M  V30 2686 C 248.008 -2.93841 -4.11079 0
M  V30 2687 C 250.206 -3.26415 -3.97439 0
M  V30 2688 N 248.188 -4.31129 -4.37037 0
M  V30 2689 C 249.559 -4.48884 -4.27672 0
M  V30 2690 C 251.614 -3.21742 -3.79982 0
M  V30 2691 C 250.317 -5.67268 -4.42266 0
M  V30 2692 C 252.343 -4.39431 -3.95796 0
M  V30 2693 C 251.705 -5.60675 -4.26407 0
M  V30 2694 H 247.804 -0.256797 -0.738633 0
M  V30 2695 H 250.388 -1.18386 -1.54573 0
M  V30 2696 H 248.559 -0.227445 -3.87733 0
M  V30 2697 H 250.291 -0.426542 -4.02446 0
M  V30 2698 H 247.046 -2.44547 -4.05578 0
M  V30 2699 H 247.47 -5.02127 -4.5409 0
M  V30 2700 H 252.112 -2.29079 -3.55363 0
M  V30 2701 H 249.83 -6.60406 -4.65714 0
M  V30 2702 H 253.416 -4.37323 -3.83719 0
M  V30 2703 H 252.296 -6.50223 -4.38383 0
M  V30 2704 N 249.799 1.42003 -0.683588 0
M  V30 2705 C 251.046 2.01413 -0.209514 0
M  V30 2706 C 251.374 1.54088 1.1869 0
M  V30 2707 O 250.629 0.737591 1.81268 0
M  V30 2708 C 250.928 3.56827 -0.202357 0
M  V30 2709 C 250.594 4.23617 -1.54464 0
M  V30 2710 C 249.256 4.41577 -1.91215 0
M  V30 2711 C 251.608 4.61178 -2.42826 0
M  V30 2712 C 248.936 4.9437 -3.15935 0
M  V30 2713 C 251.288 5.15355 -3.66867 0
M  V30 2714 C 249.952 5.31528 -4.03776 0
M  V30 2715 H 249.222 0.737023 -0.0766668 0
M  V30 2716 H 251.869 1.70067 -0.880312 0
M  V30 2717 H 250.174 3.87892 0.551969 0
M  V30 2718 H 251.871 4.00588 0.181793 0
M  V30 2719 H 248.461 4.10004 -1.24877 0
M  V30 2720 H 252.645 4.46968 -2.15717 0
M  V30 2721 H 247.901 5.05076 -3.44541 0
M  V30 2722 H 252.075 5.43402 -4.35531 0
M  V30 2723 H 249.702 5.72199 -5.00492 0
M  V30 2724 N 251.277 0.427512 1.51691 0
M  V30 2725 C 252.688 -0.0378867 1.86662 0
M  V30 2726 C 253.039 -1.42819 1.34525 0
M  V30 2727 O 252.164 -2.05037 0.692014 0
M  V30 2728 C 252.759 -0.0755266 3.38716 0
M  V30 2729 C 251.318 -0.485309 3.73258 0
M  V30 2730 C 250.465 0.328399 2.75349 0
M  V30 2731 H 253.416 0.64379 1.45055 0
M  V30 2732 H 253.437 -0.887056 3.70016 0
M  V30 2733 H 252.949 0.936487 3.76632 0
M  V30 2734 H 251.05 -1.50329 3.40928 0
M  V30 2735 H 251.163 -0.21693 4.78609 0
M  V30 2736 H 249.527 -0.211905 2.53817 0
M  V30 2737 H 250.31 1.3391 3.16106 0
M  V30 2738 N 252.755 -1.56801 0.158532 0
M  V30 2739 C 253.702 -2.17337 -0.776729 0
M  V30 2740 C 254.672 -1.1096 -1.23601 0
M  V30 2741 O 255.857 -1.39054 -1.30647 0
M  V30 2742 C 252.997 -2.80822 -2.00582 0
M  V30 2743 C 252.11 -4.01624 -1.59129 0
M  V30 2744 C 251.245 -4.53072 -2.77306 0
M  V30 2745 C 250.284 -5.66314 -2.32282 0
M  V30 2746 N 249.421 -6.12329 -3.43508 0
M  V30 2747 H 254.261 -2.96918 -0.253701 0
M  V30 2748 H 251.798 -1.46661 -0.113504 0
M  V30 2749 H 253.756 -3.15779 -2.72652 0
M  V30 2750 H 252.386 -2.03866 -2.50277 0
M  V30 2751 H 251.438 -3.72571 -0.767806 0
M  V30 2752 H 252.75 -4.83633 -1.2207 0
M  V30 2753 H 251.904 -4.90145 -3.57551 0
M  V30 2754 H 250.643 -3.70095 -3.17617 0
M  V30 2755 H 249.648 -5.28806 -1.5048 0
M  V30 2756 H 250.873 -6.51085 -1.93043 0
M  V30 2757 H 248.819 -5.32284 -3.83418 0
M  V30 2758 H 248.736 -6.89293 -3.105 0
M  V30 2759 H 250.004 -6.5405 -4.24075 0
M  V30 2760 N 254.233 0.115231 -1.57178 0
M  V30 2761 C 255.143 1.15994 -2.03918 0
M  V30 2762 C 256.159 1.45103 -0.960268 0
M  V30 2763 O 257.335 1.56144 -1.27204 0
M  V30 2764 C 254.4 2.46568 -2.43732 0
M  V30 2765 C 253.461 2.24822 -3.65723 0
M  V30 2766 C 252.694 3.4917 -4.03629 0
M  V30 2767 O 252.917 4.56623 -3.41835 0
M  V30 2768 O 251.851 3.39949 -4.96708 0
M  V30 2769 H 255.677 0.793019 -2.93164 0
M  V30 2770 H 253.262 0.3263 -1.45793 0
M  V30 2771 H 255.144 3.23492 -2.70057 0
M  V30 2772 H 253.819 2.82726 -1.57631 0
M  V30 2773 H 252.726 1.45744 -3.44542 0
M  V30 2774 H 254.059 1.93566 -4.52541 0
M  V30 2775 N 255.711 1.52812 0.385517 0
M  V30 2776 C 256.658 1.77838 1.47113 0
M  V30 2777 C 257.628 0.621757 1.54024 0
M  V30 2778 O 258.813 0.861846 1.70226 0
M  V30 2779 C 255.953 1.95618 2.84302 0
M  V30 2780 C 255.066 3.23316 2.86515 0
M  V30 2781 C 254.201 3.31394 4.15152 0
M  V30 2782 C 253.24 4.53201 4.1143 0
M  V30 2783 N 252.377 4.58542 5.3168 0
M  V30 2784 H 257.217 2.70482 1.25073 0
M  V30 2785 H 254.754 1.34006 0.606692 0
M  V30 2786 H 256.712 2.03912 3.63972 0
M  V30 2787 H 255.342 1.06331 3.04784 0
M  V30 2788 H 254.394 3.24076 1.99195 0
M  V30 2789 H 255.706 4.13045 2.79634 0
M  V30 2790 H 254.86 3.3889 5.03228 0
M  V30 2791 H 253.599 2.39645 4.24761 0
M  V30 2792 H 252.604 4.45827 3.21742 0
M  V30 2793 H 253.829 5.46271 4.03442 0
M  V30 2794 H 251.775 3.69686 5.41912 0
M  V30 2795 H 251.692 5.42148 5.26889 0
M  V30 2796 H 252.96 4.70296 6.21644 0
M  V30 2797 N 257.189 -0.644168 1.43834 0
M  V30 2798 C 258.435 -1.40603 1.46146 0
M  V30 2799 C 258.768 -1.93997 0.0887717 0
M  V30 2800 O 258.043 -1.72854 -0.891724 0
M  V30 2801 C 258.326 -2.58086 2.51124 0
M  V30 2802 C 258.179 -2.10126 3.97702 0
M  V30 2803 C 259.498 -3.60291 2.52742 0
M  V30 2804 H 256.617 -0.509905 0.532134 0
M  V30 2805 H 259.259 -0.729502 1.75437 0
M  V30 2806 H 257.409 -3.15801 2.26278 0
M  V30 2807 H 259.081 -1.57342 4.33637 0
M  V30 2808 H 257.324 -1.41419 4.10101 0
M  V30 2809 H 257.995 -2.94649 4.66783 0
M  V30 2810 H 260.471 -3.12352 2.7491 0
M  V30 2811 H 259.347 -4.40032 3.28121 0
M  V30 2812 H 259.608 -4.1349 1.56455 0
M  V30 2813 N 258.668 -1.30515 -0.883378 0
M  V30 2814 C 259.598 -1.19607 -2.00541 0
M  V30 2815 C 260.579 -0.086346 -1.69881 0
M  V30 2816 O 261.764 -0.268654 -1.92333 0
M  V30 2817 C 258.894 -0.888758 -3.35736 0
M  V30 2818 C 257.848 -1.95659 -3.8066 0
M  V30 2819 C 257.174 -1.50224 -5.13164 0
M  V30 2820 C 258.474 -3.36788 -3.99213 0
M  V30 2821 H 260.168 -2.13476 -2.09925 0
M  V30 2822 H 257.714 -1.02775 -1.00863 0
M  V30 2823 H 259.667 -0.799094 -4.13754 0
M  V30 2824 H 258.391 0.0856125 -3.26488 0
M  V30 2825 H 257.05 -2.03591 -3.04871 0
M  V30 2826 H 256.698 -0.516092 -5.00345 0
M  V30 2827 H 256.398 -2.2165 -5.44192 0
M  V30 2828 H 257.922 -1.42639 -5.93706 0
M  V30 2829 H 259.336 -3.31605 -4.67665 0
M  V30 2830 H 257.733 -4.06314 -4.41621 0
M  V30 2831 H 258.803 -3.78561 -3.03017 0
M  V30 2832 N 260.146 1.09593 -1.13257 0
M  V30 2833 C 261.392 1.82003 -0.89458 0
M  V30 2834 C 261.725 1.85402 0.577906 0
M  V30 2835 O 261 1.32099 1.42759 0
M  V30 2836 C 261.283 3.28237 -1.48096 0
M  V30 2837 C 261.136 3.3312 -3.02244 0
M  V30 2838 C 262.455 4.24871 -1.14774 0
M  V30 2839 H 259.574 0.66077 -0.326424 0
M  V30 2840 H 262.216 1.28389 -1.40058 0
M  V30 2841 H 260.366 3.74024 -1.05062 0
M  V30 2842 H 262.038 2.95748 -3.54021 0
M  V30 2843 H 260.281 2.72756 -3.37323 0
M  V30 2844 H 260.952 4.3613 -3.38371 0
M  V30 2845 H 263.428 3.87361 -1.51957 0
M  V30 2846 H 262.304 5.25532 -1.58452 0
M  V30 2847 H 262.565 4.42058 -0.0611849 0
M  V30 2848 N 261.624 0.925811 1.2754 0
M  V30 2849 C 262.872 0.564138 1.94067 0
M  V30 2850 C 263.193 -0.897188 1.73134 0
M  V30 2851 O 262.463 -1.63573 1.07799 0
M  V30 2852 H 261.043 0.205645 0.718136 0
M  V30 2853 H 263.705 1.1778 1.55287 0
M  V30 2854 H 262.801 0.76881 3.02483 0
M  V30 2855 N 263.102 -1.41638 0.69111 0
M  V30 2856 C 264.35 -2.00902 0.219758 0
M  V30 2857 C 264.671 -1.54994 -1.18329 0
M  V30 2858 O 263.941 -0.778628 -1.79762 0
M  V30 2859 H 262.521 -0.74289 0.0782558 0
M  V30 2860 H 265.183 -1.73327 0.891271 0
M  V30 2861 H 264.279 -3.11224 0.233708 0
M  V30 2862 N 264.58 -0.43555 -1.51462 0
M  V30 2863 C 265.82 0.130708 -2.03982 0
M  V30 2864 C 266.184 1.40117 -1.31268 0
M  V30 2865 O 267.385 2.04755 -1.74152 0
M  V30 2866 C 265.656 0.346102 -3.5572 0
M  V30 2867 S 267.215 0.876022 -4.29967 0
M  V30 2868 H 264.033 0.0326881 -0.710248 0
M  V30 2869 H 266.635 -0.594544 -1.8624 0
M  V30 2870 H 265.339 -0.584911 -4.0621 0
M  V30 2871 H 264.87 1.09849 -3.77752 0
M  V30 2872 H 266.885 2.15379 -4.47019 0
M  V30 2873 N 266.058 1.56714 -0.166846 0
M  V30 2874 C 267.307 1.95922 0.479318 0
M  V30 2875 C 267.62 1.05529 1.6469 0
M  V30 2876 O 268.826 1.34399 2.35901 0
M  V30 2877 C 267.282 3.48359 0.90412 0
M  V30 2878 C 266.89 4.47369 -0.237621 0
M  V30 2879 C 268.634 3.96394 1.51896 0
M  V30 2880 C 266.541 5.91039 0.206561 0
M  V30 2881 H 265.471 0.731495 0.18284 0
M  V30 2882 H 268.122 1.81728 -0.254363 0
M  V30 2883 H 266.504 3.57955 1.69365 0
M  V30 2884 H 267.678 4.49485 -1.01489 0
M  V30 2885 H 265.993 4.09366 -0.762128 0
M  V30 2886 H 268.59 5.01186 1.86325 0
M  V30 2887 H 268.933 3.39075 2.41524 0
M  V30 2888 H 269.466 3.89796 0.79395 0
M  V30 2889 H 266.205 6.52221 -0.654834 0
M  V30 2890 H 265.725 5.9224 0.949282 0
M  V30 2891 H 267.404 6.43707 0.651939 0
M  V30 2892 N 267.536 -0.106894 1.57237 0
M  V30 2893 C 268.785 -0.811163 1.8467 0
M  V30 2894 C 269.098 -1.80469 0.754342 0
M  V30 2895 O 270.304 -2.55601 0.915439 0
M  V30 2896 C 268.76 -1.49337 3.27454 0
M  V30 2897 C 268.368 -0.540217 4.44731 0
M  V30 2898 C 270.112 -2.18206 3.64124 0
M  V30 2899 C 268.019 -1.22634 5.78545 0
M  V30 2900 H 266.949 -0.306679 0.688813 0
M  V30 2901 H 269.6 -0.0639887 1.83388 0
M  V30 2902 H 267.982 -2.2876 3.23241 0
M  V30 2903 H 269.156 0.221659 4.60267 0
M  V30 2904 H 267.471 0.042146 4.16379 0
M  V30 2905 H 270.068 -2.70253 4.61376 0
M  V30 2906 H 270.411 -2.96562 2.92158 0
M  V30 2907 H 270.944 -1.45658 3.70174 0
M  V30 2908 H 267.683 -0.483832 6.53712 0
M  V30 2909 H 267.203 -1.95993 5.66874 0
M  V30 2910 H 268.882 -1.75615 6.2271 0
M  V30 2911 N 269.014 -1.53014 -0.377408 0
M  V30 2912 C 269.961 -1.78616 -1.46168 0
M  V30 2913 C 270.931 -0.629917 -1.53692 0
M  V30 2914 O 272.116 -0.870861 -1.69766 0
M  V30 2915 C 269.256 -1.97123 -2.8326 0
M  V30 2916 C 268.369 -3.24831 -2.84796 0
M  V30 2917 C 267.504 -3.33591 -4.13389 0
M  V30 2918 C 266.543 -4.55377 -4.09021 0
M  V30 2919 N 265.68 -4.61355 -5.29241 0
M  V30 2920 H 270.52 -2.71142 -1.23637 0
M  V30 2921 H 268.057 -1.34326 -0.599577 0
M  V30 2922 H 270.015 -2.05839 -3.62886 0
M  V30 2923 H 268.645 -1.07946 -3.04216 0
M  V30 2924 H 267.697 -3.25128 -1.97474 0
M  V30 2925 H 269.009 -4.14523 -2.77439 0
M  V30 2926 H 268.163 -3.41554 -5.01424 0
M  V30 2927 H 266.902 -2.41894 -4.23484 0
M  V30 2928 H 265.907 -4.47527 -3.19373 0
M  V30 2929 H 267.132 -5.48402 -4.00539 0
M  V30 2930 H 265.078 -3.72554 -5.39944 0
M  V30 2931 H 264.995 -5.44935 -5.24006 0
M  V30 2932 H 266.263 -4.73586 -6.19141 0
M  V30 2933 N 270.492 0.636531 -1.44174 0
M  V30 2934 C 271.717 1.42847 -1.50364 0
M  V30 2935 C 272.142 1.87665 -0.127867 0
M  V30 2936 O 271.5 1.58408 0.88185 0
M  V30 2937 C 271.548 2.62854 -2.4686 0
M  V30 2938 O 270.652 3.62501 -1.9664 0
M  V30 2939 H 269.993 0.427642 -0.507955 0
M  V30 2940 H 272.523 0.777422 -1.89255 0
M  V30 2941 H 272.533 3.10465 -2.64718 0
M  V30 2942 H 271.208 2.29578 -3.46795 0
M  V30 2943 H 269.785 3.21735 -1.88523 0
M  V30 2944 N 271.97 1.30982 0.876444 0
M  V30 2945 C 272.933 1.18054 1.96459 0
M  V30 2946 C 273.933 0.109399 1.60427 0
M  V30 2947 O 275.123 0.358173 1.70478 0
M  V30 2948 C 272.255 0.810616 3.31122 0
M  V30 2949 H 273.448 2.14735 2.09354 0
M  V30 2950 H 271.001 1.145 1.06392 0
M  V30 2951 H 271.736 -0.155322 3.23928 0
M  V30 2952 H 271.521 1.58481 3.58645 0
M  V30 2953 H 273.011 0.743876 4.10921 0
M  V30 2954 N 273.449 -1.08991 1.13837 0
M  V30 2955 C 274.726 -1.77863 0.813876 0
M  V30 2956 C 275.106 -1.99375 -0.693746 0
M  V30 2957 O 274.454 -1.59875 -1.63255 0
M  V30 2958 C 274.664 -3.0986 1.60586 0
M  V30 2959 C 276.012 -3.84493 1.8014 0
M  V30 2960 O 277.036 -3.19624 1.57222 0
M  V30 2961 O 275.895 -5.00957 2.18413 0
M  V30 2962 H 272.989 -0.771589 0.297624 0
M  V30 2963 H 275.535 -1.15507 1.24323 0
M  V30 2964 H 274.307 -2.89715 2.63022 0
M  V30 2965 H 273.93 -3.79942 1.17173 0
M  V30 2966 N 274.927 -0.932562 -1.27047 0
M  V30 2967 C 276.152 -0.591474 -1.98787 0
M  V30 2968 C 276.577 0.824601 -1.69062 0
M  V30 2969 O 275.935 1.5541 -0.933677 0
M  V30 2970 C 275.983 -0.829808 -3.50922 0
M  V30 2971 O 275.087 0.102266 -4.12273 0
M  V30 2972 H 274.428 -0.227185 -0.623926 0
M  V30 2973 H 276.958 -1.25314 -1.61733 0
M  V30 2974 H 276.968 -0.747292 -4.01098 0
M  V30 2975 H 275.643 -1.86201 -3.7189 0
M  V30 2976 H 274.22 -0.0305761 -3.72887 0
M  V30 2977 N 276.405 1.4127 -0.698611 0
M  V30 2978 C 277.352 2.30773 -0.0352094 0
M  V30 2979 C 278.322 1.47273 0.768111 0
M  V30 2980 O 279.507 1.76053 0.735524 0
M  V30 2981 C 276.647 3.33346 0.893 0
M  V30 2982 C 275.76 4.31924 0.0809695 0
M  V30 2983 C 274.895 5.21566 1.0071 0
M  V30 2984 C 273.934 6.11811 0.188155 0
M  V30 2985 N 273.071 6.93926 1.06825 0
M  V30 2986 H 277.911 2.86943 -0.804207 0
M  V30 2987 H 275.448 1.4132 -0.408294 0
M  V30 2988 H 277.406 3.91368 1.44523 0
M  V30 2989 H 276.036 2.78719 1.62836 0
M  V30 2990 H 275.088 3.75825 -0.588224 0
M  V30 2991 H 276.4 4.95716 -0.553801 0
M  V30 2992 H 275.554 5.84437 1.62845 0
M  V30 2993 H 274.293 4.58008 1.67572 0
M  V30 2994 H 273.298 5.47986 -0.446254 0
M  V30 2995 H 274.523 6.77425 -0.476716 0
M  V30 2996 H 272.469 6.32973 1.72283 0
M  V30 2997 H 272.386 7.54416 0.489123 0
M  V30 2998 H 273.654 7.61262 1.67632 0
M  V30 2999 N 277.883 0.443576 1.51229 0
M  V30 3000 C 279.16 -0.181038 1.9476 0
M  V30 3001 C 279.54 -1.59523 1.38259 0
M  V30 3002 O 278.888 -2.2122 0.572198 0
M  V30 3003 C 279.098 -0.152422 3.48667 0
M  V30 3004 C 280.446 -0.354923 4.23114 0
M  V30 3005 O 281.47 -0.230257 3.55455 0
M  V30 3006 O 280.329 -0.603674 5.43156 0
M  V30 3007 H 277.423 -0.1266 0.817252 0
M  V30 3008 H 279.969 0.502004 1.62105 0
M  V30 3009 H 278.741 0.836022 3.82265 0
M  V30 3010 H 278.364 -0.878107 3.87782 0
M  V30 3011 N 279.361 -1.56624 0.175154 0
M  V30 3012 C 280.291 -2.21155 -0.749195 0
M  V30 3013 C 281.272 -1.16836 -1.23626 0
M  V30 3014 O 282.457 -1.45277 -1.28873 0
M  V30 3015 C 279.587 -2.8553 -1.97711 0
M  V30 3016 C 278.541 -3.95921 -1.62575 0
M  V30 3017 C 277.867 -4.47365 -2.92864 0
M  V30 3018 C 279.167 -5.15323 -0.850838 0
M  V30 3019 H 280.861 -2.98653 -0.211295 0
M  V30 3020 H 278.407 -1.43651 -0.100188 0
M  V30 3021 H 280.36 -3.2935 -2.62881 0
M  V30 3022 H 279.084 -2.05406 -2.53921 0
M  V30 3023 H 277.743 -3.52762 -0.997719 0
M  V30 3024 H 277.391 -3.64027 -3.47122 0
M  V30 3025 H 277.091 -5.21839 -2.70106 0
M  V30 3026 H 278.615 -4.93873 -3.59056 0
M  V30 3027 H 280.029 -5.55812 -1.40521 0
M  V30 3028 H 278.426 -5.95739 -0.722154 0
M  V30 3029 H 279.496 -4.84661 0.152082 0
M  V30 3030 N 280.839 0.0985539 -1.57292 0
M  V30 3031 C 282.087 0.801092 -1.85545 0
M  V30 3032 C 282.408 1.79438 -0.763353 0
M  V30 3033 O 281.678 1.94763 0.21073 0
M  V30 3034 H 280.258 0.29884 -0.684619 0
M  V30 3035 H 282.92 0.0810064 -1.94732 0
M  V30 3036 H 282.016 1.3338 -2.82163 0
M  V30 3037 N 282.317 1.53212 0.369288 0
M  V30 3038 C 283.547 1.72868 1.13139 0
M  V30 3039 C 283.955 0.455754 1.83629 0
M  V30 3040 O 283.298 -0.580861 1.74275 0
M  V30 3041 C 283.36 2.83667 2.20847 0
M  V30 3042 C 283.024 4.24142 1.70155 0
M  V30 3043 C 284.021 5.06619 1.16763 0
M  V30 3044 C 281.706 4.70539 1.7578 0
M  V30 3045 C 283.7 6.33581 0.696678 0
M  V30 3046 C 281.387 5.97481 1.28297 0
M  V30 3047 C 282.385 6.78833 0.753307 0
M  V30 3048 O 282.073 8.03393 0.285475 0
M  V30 3049 H 281.805 0.581707 0.344373 0
M  V30 3050 H 284.359 2.00736 0.435243 0
M  V30 3051 H 282.589 2.51265 2.93944 0
M  V30 3052 H 284.278 2.91536 2.82421 0
M  V30 3053 H 285.044 4.71948 1.11758 0
M  V30 3054 H 280.923 4.07293 2.15949 0
M  V30 3055 H 284.467 6.97027 0.282581 0
M  V30 3056 H 280.364 6.31651 1.32994 0
M  V30 3057 H 281.132 8.17497 0.405145 0
M  V30 3058 N 283.795 -0.628877 1.44509 0
M  V30 3059 C 285.044 -1.38437 1.4669 0
M  V30 3060 C 285.357 -1.95322 0.104272 0
M  V30 3061 O 286.563 -2.715 0.00362163 0
M  V30 3062 C 285.019 -2.50659 2.5826 0
M  V30 3063 C 284.627 -2.00277 4.0074 0
M  V30 3064 C 286.371 -3.27844 2.69664 0
M  V30 3065 C 284.278 -3.09854 5.0373 0
M  V30 3066 H 283.208 -0.520245 0.545766 0
M  V30 3067 H 285.859 -0.676313 1.70582 0
M  V30 3068 H 284.241 -3.2405 2.27612 0
M  V30 3069 H 285.415 -1.33736 4.40966 0
M  V30 3070 H 283.73 -1.35901 3.93599 0
M  V30 3071 H 286.327 -4.09534 3.43781 0
M  V30 3072 H 286.67 -3.77471 1.75559 0
M  V30 3073 H 287.203 -2.61543 2.99733 0
M  V30 3074 H 283.942 -2.65168 5.99472 0
M  V30 3075 H 283.462 -3.7503 4.68095 0
M  V30 3076 H 285.141 -3.74592 5.27532 0
M  V30 3077 N 285.273 -1.31445 -0.869486 0
M  V30 3078 C 286.521 -1.20918 -1.61936 0
M  V30 3079 C 286.842 0.232683 -1.93607 0
M  V30 3080 O 286.112 1.15352 -1.58338 0
M  V30 3081 H 284.692 -0.44454 -0.600328 0
M  V30 3082 H 287.354 -1.64776 -1.0409 0
M  V30 3083 H 286.45 -1.78124 -2.56278 0
M  V30 3084 N 286.751 1.08385 -1.14413 0
M  V30 3085 C 287.661 2.18856 -0.844951 0
M  V30 3086 C 288.677 1.73121 0.174668 0
M  V30 3087 O 289.853 2.014 0.00312857 0
M  V30 3088 C 286.918 3.45155 -0.32696 0
M  V30 3089 C 285.979 4.05513 -1.40916 0
M  V30 3090 C 285.212 5.25784 -0.915793 0
M  V30 3091 O 285.435 5.69884 0.242651 0
M  V30 3092 O 284.369 5.77545 -1.69487 0
M  V30 3093 H 288.195 2.46919 -1.76818 0
M  V30 3094 H 285.78 1.17524 -0.922411 0
M  V30 3095 H 287.662 4.21377 -0.0440211 0
M  V30 3096 H 286.337 3.18668 0.568539 0
M  V30 3097 H 285.244 3.30879 -1.74556 0
M  V30 3098 H 286.577 4.3625 -2.27919 0
M  V30 3099 N 288.23 0.939286 1.26551 0
M  V30 3100 C 289.193 0.451987 2.24699 0
M  V30 3101 C 290.193 -0.435869 1.5478 0
M  V30 3102 O 291.383 -0.235314 1.72603 0
M  V30 3103 C 288.515 -0.348801 3.39111 0
M  V30 3104 H 289.708 1.3193 2.69322 0
M  V30 3105 H 287.261 0.721072 1.38673 0
M  V30 3106 H 287.996 -1.23444 2.99887 0
M  V30 3107 H 287.781 0.287945 3.91041 0
M  V30 3108 H 289.271 -0.679726 4.12031 0
M  V30 3109 N 289.708 -1.40897 0.706093 0
M  V30 3110 C 290.938 -2.05075 0.250523 0
M  V30 3111 C 291.346 -1.53275 -1.10921 0
M  V30 3112 O 290.689 -0.680281 -1.7064 0
M  V30 3113 C 290.751 -3.59219 0.142178 0
M  V30 3114 C 290.415 -4.33864 1.43566 0
M  V30 3115 C 291.412 -4.62448 2.37566 0
M  V30 3116 C 289.097 -4.72946 1.69195 0
M  V30 3117 C 291.091 -5.29088 3.5545 0
M  V30 3118 C 288.778 -5.3932 2.87362 0
M  V30 3119 C 289.776 -5.6732 3.80312 0
M  V30 3120 O 289.464 -6.32325 4.96408 0
M  V30 3121 H 289.196 -0.666645 0.112074 0
M  V30 3122 H 291.75 -1.81467 0.962239 0
M  V30 3123 H 289.98 -3.81609 -0.6254 0
M  V30 3124 H 291.669 -4.0495 -0.277584 0
M  V30 3125 H 292.435 -4.32727 2.19027 0
M  V30 3126 H 288.314 -4.50527 0.977042 0
M  V30 3127 H 291.858 -5.50859 4.28018 0
M  V30 3128 H 287.755 -5.68461 3.05814 0
M  V30 3129 H 288.523 -6.50821 4.9636 0
M  V30 3130 N 291.186 -0.45159 -1.50991 0
M  V30 3131 C 292.432 0.110237 -2.025 0
M  V30 3132 C 292.765 1.41109 -1.33424 0
M  V30 3133 O 292.04 1.89135 -0.453659 0
M  V30 3134 C 292.323 0.314271 -3.58726 0
M  V30 3135 C 292.176 -1.00623 -4.38401 0
M  V30 3136 C 293.495 1.07767 -4.26702 0
M  V30 3137 H 290.614 0.0385897 -0.735989 0
M  V30 3138 H 293.256 -0.593374 -1.80497 0
M  V30 3139 H 291.406 0.913601 -3.77605 0
M  V30 3140 H 293.078 -1.64064 -4.31139 0
M  V30 3141 H 291.321 -1.6075 -4.02917 0
M  V30 3142 H 291.992 -0.817341 -5.45915 0
M  V30 3143 H 294.468 0.56986 -4.12179 0
M  V30 3144 H 293.344 1.18921 -5.35863 0
M  V30 3145 H 293.605 2.10939 -3.88532 0
M  V30 3146 N 292.664 1.56529 -0.183458 0
M  V30 3147 C 293.612 2.19873 0.758845 0
M  V30 3148 C 294.606 1.16638 1.22849 0
M  V30 3149 O 295.812 1.3481 1.19274 0
M  V30 3150 H 292.187 0.7045 0.263029 0
M  V30 3151 H 294.158 2.97724 0.200755 0
M  V30 3152 C 292.907 2.86314 1.9728 0
M  V30 3153 H 292.23 3.65487 1.62047 0
M  V30 3154 H 293.67 3.3409 2.61075 0
M  V30 3155 C 292.129 1.86729 2.80418 0
M  V30 3156 O 292.659 1.36031 3.77966 0
M  V30 3157 N 290.865 1.55216 2.45675 0
M  V30 3158 H 290.412 1.96636 1.66409 0
M  V30 3159 H 290.37 0.888388 3.01588 0
M  V30 3160 N 294.142 -0.090211 1.57342 0
M  V30 3161 C 295.419 -0.824761 1.77361 0
M  V30 3162 C 295.799 -1.96698 0.76637 0
M  V30 3163 O 295.147 -2.27586 -0.204179 0
M  V30 3164 C 295.357 -1.31481 3.23286 0
M  V30 3165 C 296.705 -1.75563 3.86604 0
M  V30 3166 O 297.729 -1.41093 3.27065 0
M  V30 3167 O 296.588 -2.39317 4.91314 0
M  V30 3168 H 293.682 -0.393776 0.727234 0
M  V30 3169 H 296.228 -0.0717138 1.69548 0
M  V30 3170 H 295 -0.496671 3.88135 0
M  V30 3171 H 294.623 -2.12973 3.35751 0
M  V30 3172 N 295.62 -1.53406 -0.361157 0
M  V30 3173 C 296.866 -1.70999 -1.1014 0
M  V30 3174 C 297.221 -0.458425 -1.86859 0
M  V30 3175 O 296.514 0.548654 -1.83577 0
M  V30 3176 C 296.708 -2.90211 -2.08596 0
M  V30 3177 C 296.537 -4.26841 -1.41553 0
M  V30 3178 C 295.307 -4.91621 -1.16778 0
M  V30 3179 C 297.505 -5.07212 -0.850915 0
M  V30 3180 N 295.487 -6.12164 -0.461312 0
M  V30 3181 C 296.858 -6.19394 -0.274046 0
M  V30 3182 C 298.913 -4.92218 -0.750036 0
M  V30 3183 C 297.616 -7.18221 0.393868 0
M  V30 3184 C 299.642 -5.91322 -0.095894 0
M  V30 3185 C 299.004 -7.0283 0.470081 0
M  V30 3186 H 295.103 -0.678939 -0.388028 0
M  V30 3187 H 297.687 -1.90811 -0.38722 0
M  V30 3188 H 295.858 -2.71931 -2.77323 0
M  V30 3189 H 297.59 -2.96606 -2.7533 0
M  V30 3190 H 294.345 -4.50849 -1.45024 0
M  V30 3191 H 294.769 -6.76888 -0.123312 0
M  V30 3192 H 299.411 -4.06192 -1.17337 0
M  V30 3193 H 297.129 -8.03835 0.82914 0
M  V30 3194 H 300.715 -5.81797 -0.0187075 0
M  V30 3195 H 299.595 -7.782 0.968241 0
M  V30 3196 N 297.098 0.621204 -1.44841 0
M  V30 3197 C 298.326 1.40752 -1.51646 0
M  V30 3198 C 298.741 1.88246 -0.144549 0
M  V30 3199 O 298.098 1.61422 0.851416 0
M  V30 3200 C 298.149 2.62119 -2.4895 0
M  V30 3201 O 297.87 2.16602 -3.80808 0
M  V30 3202 C 299.371 3.55135 -2.65319 0
M  V30 3203 H 296.591 0.431325 -0.514004 0
M  V30 3204 H 299.135 0.758835 -1.899 0
M  V30 3205 H 297.29 3.23058 -2.13805 0
M  V30 3206 H 297.704 2.95358 -4.33433 0
M  V30 3207 H 299.178 4.36874 -3.37409 0
M  V30 3208 H 299.655 4.04592 -1.70886 0
M  V30 3209 H 300.261 3.00058 -3.01405 0
M  V30 3210 N 298.576 1.31904 0.862503 0
M  V30 3211 C 299.508 1.16005 1.97675 0
M  V30 3212 C 300.521 0.0971234 1.6251 0
M  V30 3213 O 301.71 0.345337 1.75128 0
M  V30 3214 C 298.81 0.751791 3.30456 0
M  V30 3215 C 297.983 1.90133 3.93914 0
M  V30 3216 C 297.042 1.4779 5.05019 0
M  V30 3217 O 296.068 2.18872 5.25437 0
M  V30 3218 N 297.27 0.369491 5.79323 0
M  V30 3219 H 300.035 2.11982 2.11857 0
M  V30 3220 H 297.596 1.24337 1.03691 0
M  V30 3221 H 299.588 0.451084 4.02178 0
M  V30 3222 H 298.158 -0.116593 3.12382 0
M  V30 3223 H 297.378 2.36896 3.15078 0
M  V30 3224 H 298.666 2.67111 4.33047 0
M  V30 3225 H 298.064 -0.222299 5.65263 0
M  V30 3226 H 296.621 0.128354 6.51674 0
M  V30 3227 N 300.054 -1.07777 1.14986 0
M  V30 3228 C 301.279 -1.84558 0.946213 0
M  V30 3229 C 301.704 -1.81323 -0.500362 0
M  V30 3230 O 301.062 -1.20301 -1.35637 0
M  V30 3231 C 301.11 -3.29736 1.45968 0
M  V30 3232 O 300.214 -4.07149 0.65601 0
M  V30 3233 H 299.555 -0.571641 0.33782 0
M  V30 3234 H 302.085 -1.35991 1.52865 0
M  V30 3235 H 302.095 -3.80574 1.47063 0
M  V30 3236 H 300.77 -3.31406 2.51283 0
M  V30 3237 H 299.347 -3.65994 0.714322 0
M  V30 3238 N 301.532 -0.945985 -1.26051 0
M  V30 3239 C 302.778 -0.597002 -1.93814 0
M  V30 3240 C 303.111 0.862484 -1.73997 0
M  V30 3241 O 302.386 1.61769 -1.07986 0
M  V30 3242 C 302.669 -0.945937 -3.47454 0
M  V30 3243 C 302.522 -2.46052 -3.76535 0
M  V30 3244 C 303.841 -0.464785 -4.37639 0
M  V30 3245 H 300.96 -0.218366 -0.703907 0
M  V30 3246 H 303.602 -1.18107 -1.48831 0
M  V30 3247 H 301.752 -0.448902 -3.85898 0
M  V30 3248 H 303.424 -3.03065 -3.47778 0
M  V30 3249 H 301.667 -2.90194 -3.22444 0
M  V30 3250 H 302.338 -2.65517 -4.83947 0
M  V30 3251 H 304.814 -0.891016 -4.06448 0
M  V30 3252 H 303.69 -0.737712 -5.4392 0
M  V30 3253 H 303.951 0.635274 -4.37512 0
M  V30 3254 N 303.011 1.40521 -0.713556 0
M  V30 3255 C 303.961 2.27971 -0.036165 0
M  V30 3256 C 304.945 1.43151 0.734623 0
M  V30 3257 O 306.137 1.66261 0.607158 0
M  V30 3258 C 303.266 3.31661 0.886331 0
M  V30 3259 C 302.352 4.23955 0.110836 0
M  V30 3260 N 302.743 4.97641 -0.904847 0
M  V30 3261 C 301.041 4.44674 0.343692 0
M  V30 3262 C 301.742 5.65322 -1.37064 0
M  V30 3263 N 300.718 5.39162 -0.693168 0
M  V30 3264 H 304.52 2.82384 -0.814645 0
M  V30 3265 H 302.034 1.52948 -0.545963 0
M  V30 3266 H 304.031 3.93154 1.38692 0
M  V30 3267 H 302.691 2.78808 1.66421 0
M  V30 3268 H 303.702 5.01689 -1.28563 0
M  V30 3269 H 300.379 4.02801 1.09805 0
M  V30 3270 H 301.769 6.34359 -2.21447 0
M  V30 3271 N 304.489 0.459591 1.5075 0
M  V30 3272 C 305.437 -0.354678 2.2988 0
M  V30 3273 C 306.431 -1.00086 1.36672 0
M  V30 3274 O 307.637 -0.933277 1.53915 0
M  V30 3275 H 304.012 -0.13321 0.740107 0
M  V30 3276 H 305.983 0.333269 2.96533 0
M  V30 3277 C 304.732 -1.43073 3.169 0
M  V30 3278 H 304.055 -0.942882 3.88523 0
M  V30 3279 H 305.495 -1.97328 3.75284 0
M  V30 3280 C 303.954 -2.42633 2.33732 0
M  V30 3281 O 304.484 -3.47658 2.01238 0
M  V30 3282 N 302.69 -2.14066 1.9653 0
M  V30 3283 H 302.237 -1.28685 2.23155 0
M  V30 3284 H 302.195 -2.80917 1.41185 0
M  V30 3285 N 305.967 -1.56429 0.191757 0
M  V30 3286 C 307.216 -1.9666 -0.448088 0
M  V30 3287 C 307.529 -1.08136 -1.62991 0
M  V30 3288 O 308.735 -1.38135 -2.33733 0
M  V30 3289 C 307.191 -3.49753 -0.848585 0
M  V30 3290 C 306.799 -4.46935 0.308764 0
M  V30 3291 C 308.543 -3.9876 -1.4557 0
M  V30 3292 C 306.45 -5.91293 -0.112506 0
M  V30 3293 H 305.38 -0.734312 -0.171179 0
M  V30 3294 H 308.031 -1.81301 0.283242 0
M  V30 3295 H 306.413 -3.60604 -1.63649 0
M  V30 3296 H 307.587 -4.47813 1.08627 0
M  V30 3297 H 305.902 -4.08102 0.827158 0
M  V30 3298 H 308.499 -5.04086 -1.78328 0
M  V30 3299 H 308.842 -3.42875 -2.36099 0
M  V30 3300 H 309.375 -3.9101 -0.731836 0
M  V30 3301 H 306.114 -6.51097 0.758514 0
M  V30 3302 H 305.634 -5.93676 -0.854941 0
M  V30 3303 H 307.313 -6.44663 -0.549448 0
M  V30 3304 N 307.445 0.0818655 -1.57387 0
M  V30 3305 C 308.377 1.12484 -1.997 0
M  V30 3306 C 309.39 1.35564 -0.90146 0
M  V30 3307 O 310.579 1.33982 -1.17945 0
M  V30 3308 C 307.679 2.47778 -2.31213 0
M  V30 3309 C 306.852 2.44793 -3.62485 0
M  V30 3310 C 305.911 3.62117 -3.81782 0
M  V30 3311 O 304.937 3.44005 -4.53486 0
M  V30 3312 N 306.139 4.82094 -3.23367 0
M  V30 3313 H 308.904 0.764585 -2.89783 0
M  V30 3314 H 306.465 0.270664 -1.59621 0
M  V30 3315 H 308.457 3.24891 -2.41304 0
M  V30 3316 H 307.027 2.75843 -1.4707 0
M  V30 3317 H 306.247 1.53134 -3.6324 0
M  V30 3318 H 307.535 2.39889 -4.48699 0
M  V30 3319 H 306.933 4.99713 -2.65148 0
M  V30 3320 H 305.49 5.56753 -3.38923 0
M  V30 3321 N 308.923 1.53595 0.353017 0
M  V30 3322 C 309.855 1.77219 1.45348 0
M  V30 3323 C 310.868 0.65324 1.49119 0
M  V30 3324 O 312.057 0.929775 1.52373 0
M  V30 3325 C 309.157 1.84841 2.84055 0
M  V30 3326 C 308.33 3.14649 3.03833 0
M  V30 3327 C 307.389 3.13351 4.22727 0
M  V30 3328 O 306.415 3.87107 4.17297 0
M  V30 3329 N 307.617 2.35052 5.30783 0
M  V30 3330 H 310.382 2.72178 1.25457 0
M  V30 3331 H 307.943 1.52528 0.542833 0
M  V30 3332 H 309.935 1.81435 3.61751 0
M  V30 3333 H 308.505 0.971114 2.97133 0
M  V30 3334 H 307.725 3.31256 2.13689 0
M  V30 3335 H 309.013 4.00411 3.13925 0
M  V30 3336 H 308.411 1.74663 5.38061 0
M  V30 3337 H 306.968 2.37453 6.07009 0
M  V30 3338 N 310.401 -0.613514 1.45168 0
M  V30 3339 C 311.348 -1.72456 1.53387 0
M  V30 3340 C 312.318 -1.6169 0.380191 0
M  V30 3341 O 313.503 -1.81356 0.592836 0
M  V30 3342 C 310.643 -3.10753 1.50088 0
M  V30 3343 C 309.756 -3.32368 2.75963 0
M  V30 3344 C 308.891 -4.60737 2.64376 0
M  V30 3345 C 307.93 -4.7559 3.85332 0
M  V30 3346 N 307.067 -5.95253 3.72315 0
M  V30 3347 H 311.907 -1.64768 2.48305 0
M  V30 3348 H 309.444 -0.803503 1.23216 0
M  V30 3349 H 311.402 -3.90758 1.46164 0
M  V30 3350 H 310.032 -3.17413 0.587243 0
M  V30 3351 H 309.084 -2.4618 2.89999 0
M  V30 3352 H 310.396 -3.39218 3.65695 0
M  V30 3353 H 309.55 -5.48928 2.58385 0
M  V30 3354 H 308.289 -4.56275 1.72233 0
M  V30 3355 H 307.294 -3.85824 3.91688 0
M  V30 3356 H 308.519 -4.81854 4.78533 0
M  V30 3357 H 306.465 -5.91847 2.82937 0
M  V30 3358 H 306.382 -6.03236 4.55677 0
M  V30 3359 H 307.65 -6.85958 3.70246 0
M  V30 3360 N 311.879 -1.3236 -0.855495 0
M  V30 3361 C 313.126 -1.22872 -1.60962 0
M  V30 3362 C 313.454 0.209658 -1.93367 0
M  V30 3363 O 312.709 1.16243 -1.57436 0
M  V30 3364 C 313.008 -2.03275 -2.93963 0
M  V30 3365 C 312.674 -3.5264 -2.80991 0
M  V30 3366 C 311.336 -3.93364 -2.7716 0
M  V30 3367 C 313.688 -4.47626 -2.66983 0
M  V30 3368 C 311.016 -5.27319 -2.572 0
M  V30 3369 C 313.368 -5.81723 -2.48558 0
M  V30 3370 C 312.032 -6.2165 -2.4312 0
M  V30 3371 H 311.302 -0.44962 -0.589001 0
M  V30 3372 H 313.949 -1.63777 -0.992442 0
M  V30 3373 H 312.254 -1.55095 -3.59795 0
M  V30 3374 H 313.951 -1.93303 -3.51333 0
M  V30 3375 H 310.541 -3.20295 -2.84797 0
M  V30 3376 H 314.725 -4.17084 -2.68988 0
M  V30 3377 H 309.981 -5.57311 -2.51424 0
M  V30 3378 H 314.155 -6.5494 -2.36699 0
M  V30 3379 H 311.782 -7.25388 -2.27412 0
M  V30 3380 N 313.357 1.07166 -1.15556 0
M  V30 3381 C 314.582 1.84053 -0.955988 0
M  V30 3382 C 315.007 1.81586 0.490739 0
M  V30 3383 O 314.365 1.21018 1.34997 0
M  V30 3384 C 314.413 3.28957 -1.47714 0
M  V30 3385 O 313.517 4.06795 -0.677593 0
M  V30 3386 H 312.858 0.569842 -0.340847 0
M  V30 3387 H 315.388 1.35178 -1.53584 0
M  V30 3388 H 315.398 3.79788 -1.4908 0
M  V30 3389 H 314.073 3.30068 -2.53037 0
M  V30 3390 H 312.65 3.6561 -0.733721 0
M  V30 3391 N 314.835 0.952656 1.25548 0
M  V30 3392 C 316.083 0.605176 1.92826 0
M  V30 3393 C 316.404 -0.860261 1.74999 0
M  V30 3394 O 315.674 -1.6125 1.11244 0
M  V30 3395 H 314.254 0.220832 0.713612 0
M  V30 3396 H 316.916 1.21047 1.52754 0
M  V30 3397 H 316.012 0.832798 3.00784 0
M  V30 3398 N 316.313 -1.40141 0.720998 0
M  V30 3399 C 317.276 -2.29058 0.0805834 0
M  V30 3400 C 318.276 -1.45632 -0.681758 0
M  V30 3401 O 319.466 -1.6648 -0.512856 0
M  V30 3402 C 316.598 -3.28925 -0.895593 0
M  V30 3403 H 317.791 -2.87191 0.863793 0
M  V30 3404 H 315.344 -1.48553 0.485975 0
M  V30 3405 H 316.079 -2.75822 -1.70566 0
M  V30 3406 H 315.864 -3.90519 -0.351766 0
M  V30 3407 H 317.354 -3.95494 -1.34069 0
M  V30 3408 N 317.792 -0.46758 -1.50504 0
M  V30 3409 C 318.724 0.364655 -2.26281 0
M  V30 3410 C 319.737 0.960151 -1.31472 0
M  V30 3411 O 320.926 0.849153 -1.57008 0
M  V30 3412 C 318.026 1.52509 -3.02645 0
M  V30 3413 C 317.199 1.04302 -4.24782 0
M  V30 3414 C 316.258 2.07709 -4.8347 0
M  V30 3415 O 315.284 1.65913 -5.44483 0
M  V30 3416 N 316.486 3.40485 -4.70159 0
M  V30 3417 H 319.251 -0.28495 -2.98342 0
M  V30 3418 H 316.812 -0.298163 -1.59131 0
M  V30 3419 H 318.804 2.21371 -3.38787 0
M  V30 3420 H 317.374 2.07945 -2.33404 0
M  V30 3421 H 316.594 0.180393 -3.93787 0
M  V30 3422 H 317.882 0.698798 -5.03978 0
M  V30 3423 H 317.28 3.77155 -4.21629 0
M  V30 3424 H 315.837 4.05156 -5.1058 0
M  V30 3425 N 319.27 1.56325 -0.20005 0
M  V30 3426 C 320.5 2.01811 0.442232 0
M  V30 3427 C 320.908 1.07932 1.55394 0
M  V30 3428 O 320.251 0.0772685 1.83537 0
M  V30 3429 C 320.313 3.43685 1.05457 0
M  V30 3430 C 319.977 4.56928 0.0809833 0
M  V30 3431 C 320.974 5.15009 -0.711471 0
M  V30 3432 C 318.659 5.0229 -0.0315364 0
M  V30 3433 C 320.653 6.16904 -1.60336 0
M  V30 3434 C 318.34 6.04028 -0.926981 0
M  V30 3435 C 319.338 6.6121 -1.71146 0
M  V30 3436 O 319.026 7.60971 -2.59189 0
M  V30 3437 H 318.758 0.666173 0.114848 0
M  V30 3438 H 321.312 2.03085 -0.307511 0
M  V30 3439 H 319.542 3.39413 1.85299 0
M  V30 3440 H 321.231 3.72948 1.60201 0
M  V30 3441 H 321.997 4.80827 -0.634873 0
M  V30 3442 H 317.876 4.57476 0.568902 0
M  V30 3443 H 321.42 6.61464 -2.21611 0
M  V30 3444 H 317.317 6.37634 -1.00468 0
M  V30 3445 H 318.085 7.7841 -2.53023 0
M  V30 3446 N 320.748 -0.0735177 1.57428 0
M  V30 3447 C 321.994 -0.774145 1.87443 0
M  V30 3448 C 322.327 -1.77311 0.792103 0
M  V30 3449 O 321.602 -1.93492 -0.197793 0
M  V30 3450 C 321.885 -1.48367 3.28115 0
M  V30 3451 C 321.738 -0.501227 4.46999 0
M  V30 3452 C 323.057 -2.429 3.66998 0
M  V30 3453 H 320.176 -0.279971 0.681752 0
M  V30 3454 H 322.818 -0.0373616 1.89963 0
M  V30 3455 H 320.968 -2.11171 3.26097 0
M  V30 3456 H 322.64 0.121468 4.6114 0
M  V30 3457 H 320.883 0.183593 4.33411 0
M  V30 3458 H 321.554 -1.03526 5.42205 0
M  V30 3459 H 324.03 -1.90175 3.70098 0
M  V30 3460 H 322.906 -2.89549 4.66318 0
M  V30 3461 H 323.167 -3.27628 2.96837 0
M  V30 3462 N 322.226 -1.5378 -0.344866 0
M  V30 3463 C 323.472 -1.71216 -1.08687 0
M  V30 3464 C 323.805 -0.473281 -1.88345 0
M  V30 3465 O 323.08 0.52968 -1.87149 0
M  V30 3466 C 323.363 -2.97486 -2.02914 0
M  V30 3467 C 323.216 -4.31579 -1.26727 0
M  V30 3468 C 324.535 -3.19422 -3.0275 0
M  V30 3469 H 321.654 -0.62301 -0.393735 0
M  V30 3470 H 324.296 -1.8645 -0.365563 0
M  V30 3471 H 322.446 -2.84629 -2.64421 0
M  V30 3472 H 324.118 -4.56284 -0.67845 0
M  V30 3473 H 322.361 -4.30049 -0.569273 0
M  V30 3474 H 323.032 -5.16106 -1.95803 0
M  V30 3475 H 325.508 -3.316 -2.51357 0
M  V30 3476 H 324.384 -4.09169 -3.65885 0
M  V30 3477 H 324.645 -2.35656 -3.74057 0
M  V30 3478 N 323.704 0.605807 -1.45491 0
M  V30 3479 C 324.667 1.69836 -1.5391 0
M  V30 3480 C 325.667 1.55261 -0.418424 0
M  V30 3481 O 326.857 1.60296 -0.681965 0
M  V30 3482 C 323.989 3.09117 -1.43734 0
M  V30 3483 H 325.182 1.63738 -2.51257 0
M  V30 3484 H 322.735 0.821689 -1.32959 0
M  V30 3485 H 323.47 3.20791 -0.475788 0
M  V30 3486 H 323.255 3.21104 -2.25021 0
M  V30 3487 H 324.745 3.88696 -1.52661 0
M  V30 3488 N 325.182 1.32811 0.848464 0
M  V30 3489 C 326.43 1.23479 1.59991 0
M  V30 3490 C 326.751 -0.201853 1.93952 0
M  V30 3491 O 326.021 -1.12818 1.60153 0
M  V30 3492 H 324.601 0.454034 0.593179 0
M  V30 3493 H 327.263 1.66412 1.01455 0
M  V30 3494 H 326.359 1.82178 2.53412 0
M  V30 3495 N 326.66 -1.06551 1.16123 0
M  V30 3496 C 327.61 -2.12209 0.833736 0
M  V30 3497 C 328.594 -1.59825 -0.185656 0
M  V30 3498 O 329.786 -1.76994 0.0147906 0
M  V30 3499 C 326.915 -3.41674 0.333697 0
M  V30 3500 C 326.001 -4.00892 1.38372 0
M  V30 3501 N 326.392 -4.34256 2.59337 0
M  V30 3502 C 324.69 -4.28463 1.23836 0
M  V30 3503 C 325.391 -4.81291 3.26701 0
M  V30 3504 N 324.367 -4.80565 2.54083 0
M  V30 3505 H 328.169 -2.35849 1.75364 0
M  V30 3506 H 325.683 -1.24068 1.04789 0
M  V30 3507 H 327.68 -4.16822 0.0806918 0
M  V30 3508 H 326.34 -3.19475 -0.58017 0
M  V30 3509 H 327.351 -4.24687 2.96415 0
M  V30 3510 H 324.028 -4.15721 0.38504 0
M  V30 3511 H 325.418 -5.16332 4.29943 0
M  V30 3512 N 328.138 -0.959301 -1.25041 0
M  V30 3513 C 329.415 -0.533805 -1.88175 0
M  V30 3514 C 329.795 0.988994 -1.865 0
M  V30 3515 O 329.143 1.85677 -1.33177 0
M  V30 3516 C 329.353 -1.11575 -3.30684 0
M  V30 3517 C 330.701 -1.19548 -4.07423 0
M  V30 3518 O 331.725 -1.06765 -3.39823 0
M  V30 3519 O 330.584 -1.39656 -5.28354 0
M  V30 3520 H 327.678 -0.176772 -0.807887 0
M  V30 3521 H 330.224 -1.05303 -1.33076 0
M  V30 3522 H 328.996 -2.15884 -3.26358 0
M  V30 3523 H 328.619 -0.580059 -3.93346 0
M  V30 3524 N 329.616 1.39756 -0.72842 0
M  V30 3525 C 330.893 1.94574 -0.200079 0
M  V30 3526 C 331.273 1.66569 1.29684 0
M  V30 3527 O 330.621 0.990326 2.05924 0
M  V30 3528 C 330.831 3.45004 -0.526608 0
M  V30 3529 C 332.179 4.21965 -0.472318 0
M  V30 3530 O 333.203 3.53173 -0.463413 0
M  V30 3531 O 332.062 5.44552 -0.461075 0
M  V30 3532 H 329.156 0.826289 -0.0342851 0
M  V30 3533 H 331.702 1.49293 -0.806829 0
M  V30 3534 H 330.474 3.58796 -1.56144 0
M  V30 3535 H 330.097 3.97449 0.109449 0
M  V30 3536 N 331.094 0.475555 1.50254 0
M  V30 3537 C 332.34 -0.0701075 2.03279 0
M  V30 3538 C 332.695 -1.37007 1.35081 0
M  V30 3539 O 331.988 -1.8577 0.469052 0
M  V30 3540 C 332.182 -0.305114 3.56095 0
M  V30 3541 C 332.011 0.970515 4.39103 0
M  V30 3542 C 330.781 1.51509 4.82051 0
M  V30 3543 C 332.979 1.8671 4.79212 0
M  V30 3544 N 330.961 2.73928 5.49397 0
M  V30 3545 C 332.332 2.93715 5.46014 0
M  V30 3546 C 334.387 1.87695 4.61167 0
M  V30 3547 C 333.09 4.01699 5.96683 0
M  V30 3548 C 335.116 2.94637 5.12779 0
M  V30 3549 C 334.478 4.00361 5.79561 0
M  V30 3550 H 330.577 0.014486 0.781866 0
M  V30 3551 H 333.161 0.644755 1.83714 0
M  V30 3552 H 331.332 -0.989019 3.75597 0
M  V30 3553 H 333.064 -0.845516 3.95769 0
M  V30 3554 H 329.819 1.06367 4.61501 0
M  V30 3555 H 330.243 3.36109 5.87673 0
M  V30 3556 H 334.885 1.07273 4.08965 0
M  V30 3557 H 332.603 4.82934 6.4792 0
M  V30 3558 H 336.189 2.96388 5.00645 0
M  V30 3559 H 335.069 4.81751 6.18778 0
M  V30 3560 N 332.573 -1.56217 0.208337 0
M  V30 3561 C 333.52 -2.19699 -0.707192 0
M  V30 3562 C 334.49 -1.14836 -1.20008 0
M  V30 3563 O 335.675 -1.4314 -1.26157 0
M  V30 3564 C 332.815 -2.87061 -1.91546 0
M  V30 3565 C 331.928 -4.06483 -1.46271 0
M  V30 3566 C 331.063 -4.61665 -2.62752 0
M  V30 3567 C 330.102 -5.73417 -2.14147 0
M  V30 3568 N 329.239 -6.22948 -3.23853 0
M  V30 3569 H 334.079 -2.97575 -0.159111 0
M  V30 3570 H 331.616 -1.46948 -0.0667874 0
M  V30 3571 H 333.574 -3.24294 -2.62468 0
M  V30 3572 H 332.204 -2.11725 -2.43664 0
M  V30 3573 H 331.256 -3.74825 -0.648886 0
M  V30 3574 H 332.568 -4.87271 -1.06622 0
M  V30 3575 H 331.722 -5.01272 -3.41776 0
M  V30 3576 H 330.461 -3.80013 -3.05682 0
M  V30 3577 H 329.466 -5.33326 -1.33581 0
M  V30 3578 H 330.691 -6.56897 -1.72232 0
M  V30 3579 H 328.637 -5.44213 -3.6629 0
M  V30 3580 H 328.554 -6.98823 -2.88414 0
M  V30 3581 H 329.822 -6.6721 -4.03052 0
M  V30 3582 N 334.051 0.0651679 -1.57465 0
M  V30 3583 C 335.328 0.79644 -1.78651 0
M  V30 3584 C 335.708 1.95454 -0.797566 0
M  V30 3585 O 335.056 2.27882 0.167946 0
M  V30 3586 C 335.266 1.26322 -3.25337 0
M  V30 3587 C 336.614 1.6939 -3.89348 0
M  V30 3588 O 337.638 1.35872 -3.29268 0
M  V30 3589 O 336.497 2.31471 -4.95059 0
M  V30 3590 H 333.591 0.382157 -0.733407 0
M  V30 3591 H 336.137 0.0447311 -1.69641 0
M  V30 3592 H 334.909 0.434859 -3.88876 0
M  V30 3593 H 334.532 2.07604 -3.39096 0
M  V30 3594 N 335.529 1.53961 0.336706 0
M  V30 3595 C 336.461 1.78751 1.4346 0
M  V30 3596 C 337.474 0.669019 1.48418 0
M  V30 3597 O 338.663 0.945884 1.51378 0
M  V30 3598 C 335.763 1.87844 2.82078 0
M  V30 3599 C 334.936 3.17854 3.00479 0
M  V30 3600 C 333.995 3.17816 4.19379 0
M  V30 3601 O 333.021 3.91511 4.13168 0
M  V30 3602 N 334.223 2.40669 5.2826 0
M  V30 3603 H 336.988 2.73493 1.22563 0
M  V30 3604 H 334.549 1.53096 0.526625 0
M  V30 3605 H 336.541 1.85261 3.59806 0
M  V30 3606 H 335.111 1.00257 2.96086 0
M  V30 3607 H 334.331 3.33504 2.10163 0
M  V30 3608 H 335.619 4.03718 3.0966 0
M  V30 3609 H 335.017 1.8036 5.36178 0
M  V30 3610 H 333.574 2.43877 6.04456 0
M  V30 3611 N 337.007 -0.598083 1.45811 0
M  V30 3612 C 338.423 -0.919847 1.30426 0
M  V30 3613 C 338.623 -1.99759 0.264303 0
M  V30 3614 O 337.679 -2.50221 -0.338472 0
M  V30 3615 C 338.992 -1.35176 2.68603 0
M  V30 3616 C 340.54 -1.46546 2.76574 0
M  V30 3617 C 341.015 -1.9311 4.15298 0
M  V30 3618 N 342.506 -2.00328 4.1764 0
M  V30 3619 C 343.241 -2.37599 5.21856 0
M  V30 3620 N 342.737 -2.73771 6.36413 0
M  V30 3621 N 344.53 -2.38021 5.09218 0
M  V30 3622 H 336.681 0.114111 2.12093 0
M  V30 3623 H 338.944 -0.0116121 0.947929 0
M  V30 3624 H 338.65 -0.633969 3.45939 0
M  V30 3625 H 338.524 -2.3164 2.97696 0
M  V30 3626 H 340.911 -2.17415 1.99537 0
M  V30 3627 H 340.992 -0.483727 2.51185 0
M  V30 3628 H 340.636 -1.22824 4.92825 0
M  V30 3629 H 340.566 -2.92213 4.38086 0
M  V30 3630 H 343.057 -1.74925 3.34977 0
M  V30 3631 H 343.37 -3.0112 7.11721 0
M  V30 3632 H 341.715 -2.71445 6.39799 0
M  V30 3633 H 344.906 -2.09174 4.18765 0
M  V30 3634 H 345.079 -2.66741 5.90554 0
M  V30 3635 N 338.485 -1.33259 -0.841409 0
M  V30 3636 C 339.71 -1.2775 -1.63385 0
M  V30 3637 C 340.135 0.149188 -1.87507 0
M  V30 3638 O 339.493 1.10498 -1.43736 0
M  V30 3639 C 339.541 -2.05571 -2.96265 0
M  V30 3640 O 338.645 -1.41257 -3.87453 0
M  V30 3641 H 337.986 -0.439627 -0.497618 0
M  V30 3642 H 340.516 -1.75782 -1.04699 0
M  V30 3643 H 340.526 -2.16241 -3.45982 0
M  V30 3644 H 339.201 -3.09309 -2.7803 0
M  V30 3645 H 337.778 -1.39217 -3.45938 0
M  V30 3646 N 339.963 1.05934 -1.16686 0
M  V30 3647 C 341.212 1.78188 -0.945085 0
M  V30 3648 C 341.525 1.88338 0.528021 0
M  V30 3649 O 342.731 2.57258 0.867799 0
M  V30 3650 C 341.187 3.20277 -1.64167 0
M  V30 3651 C 340.795 3.18281 -3.15279 0
M  V30 3652 C 342.539 3.97039 -1.502 0
M  V30 3653 C 340.446 4.55112 -3.7766 0
M  V30 3654 H 339.376 0.667866 -0.349959 0
M  V30 3655 H 342.027 1.18794 -1.39858 0
M  V30 3656 H 340.409 3.79952 -1.11589 0
M  V30 3657 H 341.583 2.68167 -3.74731 0
M  V30 3658 H 339.898 2.55018 -3.29173 0
M  V30 3659 H 342.495 4.98194 -1.94183 0
M  V30 3660 H 342.838 4.13845 -0.451461 0
M  V30 3661 H 343.371 3.43894 -1.99954 0
M  V30 3662 H 340.11 4.43512 -4.82677 0
M  V30 3663 H 339.63 5.05406 -3.22994 0
M  V30 3664 H 341.309 5.24064 -3.79428 0
M  V30 3665 N 341.441 0.965919 1.2453 0
M  V30 3666 C 342.373 0.452465 2.2469 0
M  V30 3667 C 343.386 -0.437821 1.56802 0
M  V30 3668 O 344.575 -0.244283 1.76821 0
M  V30 3669 C 341.675 -0.366258 3.36915 0
M  V30 3670 C 340.848 0.513701 4.34373 0
M  V30 3671 C 339.907 -0.248716 5.25612 0
M  V30 3672 O 338.933 0.356745 5.68081 0
M  V30 3673 N 340.135 -1.53877 5.59734 0
M  V30 3674 H 342.9 1.31361 2.69378 0
M  V30 3675 H 340.461 0.837541 1.38553 0
M  V30 3676 H 342.453 -0.884297 3.94921 0
M  V30 3677 H 341.023 -1.12832 2.91526 0
M  V30 3678 H 340.243 1.21273 3.75082 0
M  V30 3679 H 341.531 1.11391 4.96457 0
M  V30 3680 H 340.929 -2.05243 5.27154 0
M  V30 3681 H 339.486 -2.00254 6.20275 0
M  V30 3682 N 342.919 -1.39368 0.735821 0
M  V30 3683 C 343.869 -2.27885 0.0724287 0
M  V30 3684 C 344.853 -1.44301 -0.711756 0
M  V30 3685 O 346.045 -1.67206 -0.58063 0
M  V30 3686 C 343.174 -3.33029 -0.833454 0
M  V30 3687 C 342.26 -4.24078 -0.0433749 0
M  V30 3688 N 342.651 -4.96138 0.983903 0
M  V30 3689 C 340.949 -4.45164 -0.272905 0
M  V30 3690 C 341.65 -5.63069 1.4604 0
M  V30 3691 N 340.626 -5.37991 0.778857 0
M  V30 3692 H 344.428 -2.81052 0.859467 0
M  V30 3693 H 341.942 -1.5206 0.570227 0
M  V30 3694 H 343.939 -3.95311 -1.32419 0
M  V30 3695 H 342.599 -2.81421 -1.61964 0
M  V30 3696 H 343.61 -4.9958 1.36528 0
M  V30 3697 H 340.287 -4.04497 -1.03383 0
M  V30 3698 H 341.677 -6.30755 2.31511 0
M  V30 3699 N 344.397 -0.483516 -1.5 0
M  V30 3700 C 345.625 0.0644831 -2.06799 0
M  V30 3701 C 346.04 1.32399 -1.34596 0
M  V30 3702 O 345.397 1.77626 -0.418946 0
M  V30 3703 C 345.448 0.339927 -3.59898 0
M  V30 3704 O 345.169 -0.869635 -4.29382 0
M  V30 3705 C 346.67 0.933515 -4.33359 0
M  V30 3706 H 343.89 -0.0126333 -0.670881 0
M  V30 3707 H 346.434 -0.675864 -1.93009 0
M  V30 3708 H 344.589 1.03022 -3.7345 0
M  V30 3709 H 345.003 -0.62179 -5.20801 0
M  V30 3710 H 346.477 1.07593 -5.41413 0
M  V30 3711 H 346.954 1.92685 -3.94676 0
M  V30 3712 H 347.56 0.281221 -4.24369 0
M  V30 3713 N 345.875 1.56104 -0.216619 0
M  V30 3714 C 346.805 2.23063 0.690296 0
M  V30 3715 C 347.786 1.20072 1.20485 0
M  V30 3716 O 348.971 1.48643 1.24976 0
M  V30 3717 C 346.101 2.90672 1.90072 0
M  V30 3718 C 345.055 4.00092 1.5202 0
M  V30 3719 C 344.381 4.54972 2.80899 0
M  V30 3720 C 345.681 5.17398 0.71391 0
M  V30 3721 H 347.375 2.99109 0.132038 0
M  V30 3722 H 344.921 1.43866 0.0620664 0
M  V30 3723 H 346.874 3.36204 2.54057 0
M  V30 3724 H 345.598 2.12066 2.48386 0
M  V30 3725 H 344.257 3.55283 0.903839 0
M  V30 3726 H 343.905 3.73102 3.37348 0
M  V30 3727 H 343.605 5.28817 2.56176 0
M  V30 3728 H 345.129 5.0322 3.45836 0
M  V30 3729 H 346.543 5.59342 1.25735 0
M  V30 3730 H 344.94 5.97444 0.563951 0
M  V30 3731 H 346.01 4.84088 -0.280527 0
M  V30 3732 N 347.353 -0.0568162 1.57498 0
M  V30 3733 C 348.63 -0.786954 1.79071 0
M  V30 3734 C 349.01 -1.95028 0.80792 0
M  V30 3735 O 348.358 -2.27968 -0.155858 0
M  V30 3736 C 348.568 -1.24594 3.26002 0
M  V30 3737 C 349.916 -1.67323 3.90241 0
M  V30 3738 O 350.94 -1.34124 3.29984 0
M  V30 3739 O 349.799 -2.28842 4.9628 0
M  V30 3740 H 346.893 -0.378262 0.735423 0
M  V30 3741 H 349.439 -0.035734 1.69662 0
M  V30 3742 H 348.211 -0.41423 3.89101 0
M  V30 3743 H 347.834 -2.05803 3.40192 0
M  V30 3744 N 348.832 -1.54138 -0.328536 0
M  V30 3745 C 349.762 -1.86167 -1.40939 0
M  V30 3746 C 350.743 -0.718044 -1.54202 0
M  V30 3747 O 351.928 -0.971328 -1.68163 0
M  V30 3748 C 349.058 -2.08461 -2.77779 0
M  V30 3749 C 348.012 -3.24299 -2.7931 0
M  V30 3750 C 347.338 -3.31955 -4.19178 0
M  V30 3751 C 348.638 -4.62065 -2.43502 0
M  V30 3752 H 350.332 -2.76689 -1.14383 0
M  V30 3753 H 347.878 -1.33132 -0.548806 0
M  V30 3754 H 349.831 -2.29453 -3.53454 0
M  V30 3755 H 348.555 -1.14684 -3.05802 0
M  V30 3756 H 347.214 -3.03187 -2.0609 0
M  V30 3757 H 346.862 -2.35745 -4.44335 0
M  V30 3758 H 346.562 -4.09805 -4.2111 0
M  V30 3759 H 348.086 -3.55175 -4.96672 0
M  V30 3760 H 349.5 -4.8297 -3.08889 0
M  V30 3761 H 347.897 -5.42429 -2.56693 0
M  V30 3762 H 348.967 -4.64652 -1.38659 0
M  V30 3763 N 350.31 0.590341 -1.46126 0
M  V30 3764 C 351.559 1.34499 -1.50309 0
M  V30 3765 C 351.872 1.94977 -0.156021 0
M  V30 3766 O 353.078 2.71395 -0.0756037 0
M  V30 3767 C 351.534 2.43723 -2.64815 0
M  V30 3768 C 351.142 1.89582 -4.0591 0
M  V30 3769 C 352.886 3.20579 -2.78262 0
M  V30 3770 C 350.793 2.9639 -5.11769 0
M  V30 3771 H 349.723 0.505593 -0.559368 0
M  V30 3772 H 352.374 0.630848 -1.72315 0
M  V30 3773 H 350.756 3.17902 -2.36124 0
M  V30 3774 H 351.93 1.21997 -4.44357 0
M  V30 3775 H 350.245 1.25418 -3.97063 0
M  V30 3776 H 352.842 4.00276 -3.54519 0
M  V30 3777 H 353.185 3.72684 -1.85505 0
M  V30 3778 H 353.718 2.53505 -3.06562 0
M  V30 3779 H 350.457 2.49181 -6.06291 0
M  V30 3780 H 349.977 3.62487 -4.77873 0
M  V30 3781 H 351.656 3.60474 -5.37278 0
M  V30 3782 N 351.788 1.33704 0.83433 0
M  V30 3783 C 352.736 1.24323 1.96587 0
M  V30 3784 C 353.73 0.143659 1.6879 0
M  V30 3785 O 354.936 0.30791 1.77347 0
M  V30 3786 H 351.311 0.385925 0.645419 0
M  V30 3787 H 353.282 2.19978 2.01624 0
M  V30 3788 C 352.031 1.00394 3.32891 0
M  V30 3789 H 351.354 1.84231 3.54822 0
M  V30 3790 H 352.794 0.97862 4.12552 0
M  V30 3791 C 351.253 -0.293047 3.35623 0
M  V30 3792 O 351.783 -1.29823 3.80143 0
M  V30 3793 N 349.989 -0.322174 2.88809 0
M  V30 3794 H 349.536 0.496379 2.52772 0
M  V30 3795 H 349.494 -1.18977 2.91019 0
M  V30 3796 N 353.266 -1.05314 1.17247 0
M  V30 3797 C 354.176 -2.16538 0.90268 0
M  V30 3798 C 355.192 -1.73523 -0.128707 0
M  V30 3799 O 356.368 -2.01337 0.0502701 0
M  V30 3800 C 353.433 -3.44167 0.418356 0
M  V30 3801 C 352.494 -4.01635 1.51618 0
M  V30 3802 C 351.727 -5.23171 1.05487 0
M  V30 3803 O 351.95 -5.70327 -0.0914715 0
M  V30 3804 O 350.884 -5.72848 1.8474 0
M  V30 3805 H 354.71 -2.42145 1.83302 0
M  V30 3806 H 352.295 -1.15037 0.953246 0
M  V30 3807 H 354.177 -4.21112 0.155726 0
M  V30 3808 H 352.852 -3.20063 -0.48385 0
M  V30 3809 H 351.759 -3.26135 1.83268 0
M  V30 3810 H 353.092 -4.30053 2.39405 0
M  V30 3811 N 354.744 -0.972509 -1.24016 0
M  V30 3812 C 355.974 -0.653853 -1.9598 0
M  V30 3813 C 356.382 0.781801 -1.72292 0
M  V30 3814 O 355.725 1.53677 -1.00644 0
M  V30 3815 C 355.787 -0.854608 -3.49194 0
M  V30 3816 C 355.451 -2.27082 -3.96589 0
M  V30 3817 C 356.448 -3.24892 -4.05883 0
M  V30 3818 C 354.133 -2.5998 -4.29786 0
M  V30 3819 C 356.127 -4.53684 -4.47716 0
M  V30 3820 C 353.814 -3.88997 -4.71301 0
M  V30 3821 C 354.812 -4.85661 -4.80232 0
M  V30 3822 O 354.5 -6.12376 -5.20818 0
M  V30 3823 H 354.232 -0.242572 -0.630979 0
M  V30 3824 H 356.786 -1.30431 -1.58673 0
M  V30 3825 H 355.016 -0.146985 -3.86421 0
M  V30 3826 H 356.705 -0.534311 -4.02368 0
M  V30 3827 H 357.471 -3.00805 -3.80449 0
M  V30 3828 H 353.35 -1.85457 -4.22051 0
M  V30 3829 H 356.894 -5.29135 -4.54601 0
M  V30 3830 H 352.791 -4.12882 -4.96184 0
M  V30 3831 H 353.559 -6.16013 -5.38953 0
M  V30 3832 N 356.222 1.38976 -0.743202 0
M  V30 3833 C 357.154 2.29096 -0.0689228 0
M  V30 3834 C 358.167 1.47229 0.694791 0
M  V30 3835 O 359.356 1.70212 0.537597 0
M  V30 3836 C 356.456 3.25988 0.926548 0
M  V30 3837 C 355.629 4.36833 0.222647 0
M  V30 3838 C 354.688 5.13981 1.12739 0
M  V30 3839 O 353.714 5.6601 0.601795 0
M  V30 3840 N 354.916 5.25966 2.45641 0
M  V30 3841 H 357.681 2.87604 -0.842846 0
M  V30 3842 H 355.242 1.50645 -0.593109 0
M  V30 3843 H 357.234 3.74476 1.5346 0
M  V30 3844 H 355.804 2.68453 1.60162 0
M  V30 3845 H 355.024 3.90116 -0.565983 0
M  V30 3846 H 356.312 5.0811 -0.264841 0
M  V30 3847 H 355.71 4.85228 2.9081 0
M  V30 3848 H 354.267 5.77865 3.01522 0
M  V30 3849 N 357.7 0.491464 1.49741 0
M  V30 3850 C 358.632 -0.328609 2.26832 0
M  V30 3851 C 359.645 -0.939113 1.32983 0
M  V30 3852 O 360.834 -0.824067 1.58339 0
M  V30 3853 C 357.934 -1.47675 3.05033 0
M  V30 3854 C 357.107 -0.975305 4.26388 0
M  V30 3855 C 356.166 -1.99991 4.86714 0
M  V30 3856 O 355.192 -1.57229 5.47054 0
M  V30 3857 N 356.394 -3.32962 4.75517 0
M  V30 3858 H 359.159 0.332377 2.97851 0
M  V30 3859 H 356.72 0.323441 1.58636 0
M  V30 3860 H 358.712 -2.15954 3.42266 0
M  V30 3861 H 357.282 -2.04206 2.36683 0
M  V30 3862 H 356.502 -0.117723 3.94024 0
M  V30 3863 H 357.79 -0.618531 5.05026 0
M  V30 3864 H 357.188 -3.70399 4.27576 0
M  V30 3865 H 355.745 -3.96982 5.16961 0
M  V30 3866 N 359.178 -1.55987 0.224894 0
M  V30 3867 C 360.125 -2.20436 -0.68385 0
M  V30 3868 C 361.095 -1.16102 -1.18783 0
M  V30 3869 O 362.28 -1.4447 -1.24632 0
M  V30 3870 C 359.42 -2.89076 -1.88491 0
M  V30 3871 C 358.533 -4.08012 -1.41951 0
M  V30 3872 C 357.668 -4.64426 -2.5784 0
M  V30 3873 C 356.707 -5.75656 -2.08053 0
M  V30 3874 N 355.844 -6.26347 -3.17227 0
M  V30 3875 H 360.684 -2.97727 -0.12754 0
M  V30 3876 H 358.221 -1.47011 -0.0511978 0
M  V30 3877 H 360.179 -3.27059 -2.59014 0
M  V30 3878 H 358.809 -2.14298 -2.41405 0
M  V30 3879 H 357.861 -3.75492 -0.609095 0
M  V30 3880 H 359.173 -4.88375 -1.01447 0
M  V30 3881 H 358.327 -5.04869 -3.3644 0
M  V30 3882 H 357.066 -3.83233 -3.01635 0
M  V30 3883 H 356.071 -5.34712 -1.27916 0
M  V30 3884 H 357.296 -6.58686 -1.65255 0
M  V30 3885 H 355.242 -5.48067 -3.60497 0
M  V30 3886 H 355.159 -7.01843 -2.80986 0
M  V30 3887 H 356.427 -6.71447 -3.95953 0
M  V30 3888 N 360.656 0.0484629 -1.57525 0
M  V30 3889 C 361.588 1.08222 -2.02041 0
M  V30 3890 C 362.601 1.33621 -0.930012 0
M  V30 3891 O 363.79 1.3145 -1.20761 0
M  V30 3892 C 360.89 2.42818 -2.36416 0
M  V30 3893 C 360.063 2.37049 -3.67596 0
M  V30 3894 C 359.122 3.53937 -3.89378 0
M  V30 3895 O 358.148 3.34308 -4.60681 0
M  V30 3896 N 359.35 4.75126 -3.3352 0
M  V30 3897 H 362.115 0.702946 -2.9134 0
M  V30 3898 H 359.676 0.236745 -1.6016 0
M  V30 3899 H 361.668 3.197 -2.48141 0
M  V30 3900 H 360.238 2.72661 -1.52888 0
M  V30 3901 H 359.458 1.45395 -3.66407 0
M  V30 3902 H 360.746 2.30318 -4.53686 0
M  V30 3903 H 360.144 4.93976 -2.75688 0
M  V30 3904 H 358.701 5.49439 -3.50656 0
M  V30 3905 N 362.134 1.5431 0.320358 0
M  V30 3906 C 363.081 1.83918 1.39438 0
M  V30 3907 C 364.051 0.686525 1.51248 0
M  V30 3908 O 365.236 0.933269 1.66417 0
M  V30 3909 C 362.376 2.075 2.75749 0
M  V30 3910 C 361.489 3.35177 2.72544 0
M  V30 3911 C 360.624 3.48704 4.00723 0
M  V30 3912 C 359.663 4.70244 3.91838 0
M  V30 3913 N 358.8 4.80679 5.11754 0
M  V30 3914 H 363.64 2.75544 1.13489 0
M  V30 3915 H 361.177 1.36459 0.549309 0
M  V30 3916 H 363.135 2.19166 3.54996 0
M  V30 3917 H 361.765 1.19163 3 0
M  V30 3918 H 360.817 3.32233 1.85271 0
M  V30 3919 H 362.129 4.24534 2.61863 0
M  V30 3920 H 361.283 3.59928 4.88402 0
M  V30 3921 H 360.022 2.57445 4.14214 0
M  V30 3922 H 359.027 4.59072 3.02544 0
M  V30 3923 H 360.252 5.6289 3.7991 0
M  V30 3924 H 358.198 3.92337 5.25745 0
M  V30 3925 H 358.115 5.64007 5.0342 0
M  V30 3926 H 359.383 4.96239 6.01138 0
M  V30 3927 N 363.613 -0.582584 1.46437 0
M  V30 3928 C 364.576 -1.67366 1.56592 0
M  V30 3929 C 365.576 -1.54575 0.443072 0
M  V30 3930 O 366.766 -1.59191 0.707381 0
M  V30 3931 C 363.898 -3.06791 1.48634 0
M  V30 3932 H 365.091 -1.5972 2.5383 0
M  V30 3933 H 362.644 -0.800432 1.34249 0
M  V30 3934 H 363.379 -3.19993 0.526763 0
M  V30 3935 H 363.164 -3.17484 2.30101 0
M  V30 3936 H 364.654 -3.86218 1.58826 0
M  V30 3937 N 365.091 -1.34144 -0.827227 0
M  V30 3938 C 366.316 -1.29476 -1.62021 0
M  V30 3939 C 366.741 0.129292 -1.87655 0
M  V30 3940 O 366.099 1.08967 -1.449 0
M  V30 3941 C 366.147 -2.08702 -2.94068 0
M  V30 3942 O 365.251 -1.45359 -3.85933 0
M  V30 3943 H 364.592 -0.444881 -0.492927 0
M  V30 3944 H 367.122 -1.76882 -1.02829 0
M  V30 3945 H 367.132 -2.19898 -3.43669 0
M  V30 3946 H 365.807 -3.12241 -2.74734 0
M  V30 3947 H 364.384 -1.42879 -3.44442 0
M  V30 3948 N 366.569 1.04691 -1.17803 0
M  V30 3949 C 367.517 2.14665 -0.895635 0
M  V30 3950 C 368.511 1.68806 0.141679 0
M  V30 3951 O 369.717 1.79999 -0.00587914 0
M  V30 3952 H 366.092 0.701038 -0.272121 0
M  V30 3953 H 368.063 2.35685 -1.83017 0
M  V30 3954 C 366.812 3.45019 -0.430962 0
M  V30 3955 H 366.135 3.8071 -1.22064 0
M  V30 3956 H 367.575 4.23125 -0.272301 0
M  V30 3957 C 366.034 3.25943 0.852207 0
M  V30 3958 O 366.564 3.5296 1.91786 0
M  V30 3959 N 364.77 2.79304 0.802346 0
M  V30 3960 H 364.317 2.57518 -0.0650788 0
M  V30 3961 H 364.275 2.66921 1.66134 0
M  V30 3962 O 368.086 1.10799 1.17498 0
M  V30 3963 H 368.777 0.811108 1.759 0
M  V30 END ATOM
M  V30 BEGIN BOND
M  V30 END BOND
M  V30 END CTAB
M  END
$$$$
