drugbank_target|P08235 Mineralocorticoid receptor (DB00393; DB00396; DB00421; DB00588; DB00624; DB00687; DB00700; DB01013; DB01023; DB01134; DB01395; DB02901; DB02998; DB04630; DB04652; DB06780; DB08906; DB13867; DB13943; DB13944; DB13946; DB13951)
 OpenBabel12092119363D

  0  0  0     0  0            999 V3000
M  V30 BEGIN CTAB
M  V30 COUNTS 14842 15013 0 0 0
M  V30 BEGIN ATOM
M  V30 1 H -0.908 1.98254 -0.117106 0
M  V30 2 N 0 1.576 0 0
M  V30 3 C 0.933 2.03868 1.02534 0
M  V30 4 C 1.911 0.928543 1.3348 0
M  V30 5 O 3.095 1.19667 1.45644 0
M  V30 6 C 0.222 2.43627 2.35294 0
M  V30 7 C -0.732 3.65373 2.2001 0
M  V30 8 S 0.101 5.13292 1.52614 0
M  V30 9 C 1.257 5.56322 2.86805 0
M  V30 10 H 1.49 2.90518 0.631377 0
M  V30 11 H -0.977 1.52953 0.210867 0
M  V30 12 H 0.981 2.67203 3.11629 0
M  V30 13 H -0.358 1.57376 2.7183 0
M  V30 14 H -1.165 3.90944 3.18086 0
M  V30 15 H -1.563 3.418 1.51819 0
M  V30 16 H 0.729 5.58782 3.83104 0
M  V30 17 H 1.672 6.56266 2.65933 0
M  V30 18 H 2.08 4.83886 2.90714 0
M  V30 19 N 1.4781 -0.272755 1.55222 0
M  V30 20 C 2.3881 -1.35918 1.91216 0
M  V30 21 C 3.4041 -1.54026 0.809436 0
M  V30 22 O 4.5801 -1.68148 1.10852 0
M  V30 23 C 1.6451 -2.69834 2.17693 0
M  V30 24 C 0.7061 -2.6047 3.41253 0
M  V30 25 C -0.0609 -3.88 3.66458 0
M  V30 26 O 0.1621 -4.88693 2.94169 0
M  V30 27 O -0.9039 -3.88189 4.59992 0
M  V30 28 H 2.9221 -1.0839 2.83699 0
M  V30 29 H 0.5071 -0.471301 1.41771 0
M  V30 30 H 2.3891 -3.49017 2.36147 0
M  V30 31 H 1.0641 -2.97148 1.28392 0
M  V30 32 H -0.0289 -1.79663 3.28134 0
M  V30 33 H 1.3041 -2.38106 4.30774 0
M  V30 34 N 2.9562 -1.48159 -0.537278 0
M  V30 35 C 4.1842 -1.59454 -1.31841 0
M  V30 36 C 4.5992 -0.252065 -1.8711 0
M  V30 37 O 3.9562 0.757621 -1.66031 0
M  V30 38 C 4.0072 -2.63546 -2.47439 0
M  V30 39 O 3.7282 -3.92583 -1.94449 0
M  V30 40 C 5.2292 -2.85212 -3.39366 0
M  V30 41 H 2.4492 -0.53785 -0.401196 0
M  V30 42 H 4.9932 -1.93932 -0.648891 0
M  V30 43 H 3.1482 -2.31946 -3.1029 0
M  V30 44 H 3.5622 -4.49629 -2.70063 0
M  V30 45 H 5.0362 -3.61863 -4.16844 0
M  V30 46 H 5.5132 -1.93765 -3.94147 0
M  V30 47 H 6.1192 -3.18086 -2.82314 0
M  V30 48 N 4.4343 0.785586 -1.36625 0
M  V30 49 C 5.3813 1.89838 -1.31264 0
M  V30 50 C 6.3513 1.65115 -0.180633 0
M  V30 51 O 7.5363 1.87222 -0.36777 0
M  V30 52 C 4.6763 3.26706 -1.11163 0
M  V30 53 C 3.7893 3.63476 -2.33472 0
M  V30 54 C 2.9243 4.89481 -2.06353 0
M  V30 55 C 1.9633 5.18941 -3.24602 0
M  V30 56 N 1.1003 6.36131 -2.97123 0
M  V30 57 H 5.9403 1.93756 -2.26413 0
M  V30 58 H 3.4773 0.947454 -1.12524 0
M  V30 59 H 5.4353 4.05639 -0.975337 0
M  V30 60 H 4.0653 3.222 -0.196674 0
M  V30 61 H 3.1173 2.79636 -2.57891 0
M  V30 62 H 4.4293 3.81193 -3.21704 0
M  V30 63 H 3.5833 5.76288 -1.89675 0
M  V30 64 H 2.3223 4.73841 -1.15437 0
M  V30 65 H 1.3273 4.30615 -3.41834 0
M  V30 66 H 2.5523 5.36498 -4.16349 0
M  V30 67 H 0.4983 6.21875 -2.08823 0
M  V30 68 H 0.4153 6.54198 -3.78894 0
M  V30 69 H 1.6833 7.2591 -2.84033 0
M  V30 70 N 5.9124 1.20967 1.01018 0
M  V30 71 C 7.1604 1.02172 1.74371 0
M  V30 72 C 7.4814 -0.446414 1.89821 0
M  V30 73 O 6.7514 -1.32234 1.44537 0
M  V30 74 H 5.3314 0.375066 0.646014 0
M  V30 75 H 7.9934 1.52187 1.21758 0
M  V30 76 H 7.0894 1.48538 2.74487 0
M  V30 77 N 7.3905 -1.2043 1.01659 0
M  V30 78 C 8.6205 -1.93496 0.724081 0
M  V30 79 C 9.0285 -1.74998 -0.71918 0
M  V30 80 O 8.3715 -1.06118 -1.49949 0
M  V30 81 C 8.4335 -3.45886 0.97994 0
M  V30 82 C 8.0975 -3.88145 2.41232 0
M  V30 83 C 9.0945 -3.93907 3.39313 0
M  V30 84 C 6.7795 -4.20134 2.75305 0
M  V30 85 C 8.7735 -4.31069 4.6953 0
M  V30 86 C 6.4605 -4.56971 4.05735 0
M  V30 87 C 7.4585 -4.62411 5.02658 0
M  V30 88 O 7.1465 -4.98403 6.30754 0
M  V30 89 H 6.8785 -0.621824 0.265162 0
M  V30 90 H 9.4325 -1.53867 1.36066 0
M  V30 91 H 7.6625 -3.85639 0.286198 0
M  V30 92 H 9.3515 -4.0018 0.679021 0
M  V30 93 H 10.1175 -3.69357 3.14325 0
M  V30 94 H 5.9965 -4.1509 2.00551 0
M  V30 95 H 9.5405 -4.3523 5.45179 0
M  V30 96 H 5.4375 -4.80977 4.30502 0
M  V30 97 H 6.2055 -5.16395 6.35042 0
M  V30 98 N 8.8686 -0.792821 -1.36206 0
M  V30 99 C 9.8186 -0.166598 -2.27391 0
M  V30 100 C 10.8026 0.651479 -1.47121 0
M  V30 101 O 11.9946 0.510994 -1.69463 0
M  V30 102 C 9.1236 0.695033 -3.36191 0
M  V30 103 C 8.2096 -0.132019 -4.23894 0
M  V30 104 N 8.6006 -1.18822 -4.91645 0
M  V30 105 C 6.8986 0.0885952 -4.45912 0
M  V30 106 C 7.5996 -1.69198 -5.56549 0
M  V30 107 N 6.5756 -1.00065 -5.34311 0
M  V30 108 H 10.3776 -0.974947 -2.77258 0
M  V30 109 H 7.8916 -0.632616 -1.49572 0
M  V30 110 H 9.8886 1.1596 -4.00448 0
M  V30 111 H 8.5486 1.50189 -2.87877 0
M  V30 112 H 9.5596 -1.57069 -4.93507 0
M  V30 113 H 6.2366 0.865688 -4.08426 0
M  V30 114 H 7.6266 -2.57395 -6.20643 0
M  V30 115 N 10.3467 1.47872 -0.545128 0
M  V30 116 C 11.5717 2.07391 -0.0190611 0
M  V30 117 C 11.9967 1.39688 1.25971 0
M  V30 118 O 11.3547 0.467816 1.7516 0
M  V30 119 C 11.4027 3.60188 0.172335 0
M  V30 120 O 10.5067 3.9339 1.23766 0
M  V30 121 H 9.8477 0.662411 -0.0459059 0
M  V30 122 H 12.3777 1.90066 -0.757365 0
M  V30 123 H 12.3877 4.06129 0.390305 0
M  V30 124 H 11.0627 4.08865 -0.761725 0
M  V30 125 H 9.6397 3.5921 1.00114 0
M  V30 126 N 11.8248 0.280983 1.55075 0
M  V30 127 C 12.7548 -0.597469 2.25727 0
M  V30 128 C 13.7358 -1.15417 1.24952 0
M  V30 129 O 14.9208 -1.18722 1.53684 0
M  V30 130 C 12.0508 -1.7789 2.98283 0
M  V30 131 C 11.0048 -1.35347 4.06036 0
M  V30 132 C 10.3308 -2.61846 4.66198 0
M  V30 133 C 11.6308 -0.499354 5.19907 0
M  V30 134 H 13.3248 -0.00824265 2.99399 0
M  V30 135 H 10.8708 -0.0025244 1.44 0
M  V30 136 H 12.8238 -2.39937 3.46422 0
M  V30 137 H 11.5478 -2.39405 2.22155 0
M  V30 138 H 10.2068 -0.756156 3.58717 0
M  V30 139 H 9.8548 -3.21632 3.86732 0
M  V30 140 H 9.5548 -2.3409 5.38958 0
M  V30 141 H 11.0788 -3.24732 5.1709 0
M  V30 142 H 12.4928 -1.02498 5.64063 0
M  V30 143 H 10.8898 -0.316424 5.99265 0
M  V30 144 H 11.9598 0.480459 4.82514 0
M  V30 145 N 13.3029 -1.57598 0.00835791 0
M  V30 146 C 14.7139 -1.7892 -0.53333 0
M  V30 147 C 15.0649 -0.916609 -1.73473 0
M  V30 148 O 14.1899 -0.121336 -2.1606 0
M  V30 149 C 14.7849 -3.24488 -0.974313 0
M  V30 150 C 13.3439 -3.46878 -1.46125 0
M  V30 151 C 12.4909 -2.74157 -0.416302 0
M  V30 152 H 15.4419 -1.56958 0.234495 0
M  V30 153 H 15.4629 -3.3306 -1.83988 0
M  V30 154 H 14.9749 -3.87972 -0.099718 0
M  V30 155 H 13.0759 -2.8862 -2.35646 0
M  V30 156 H 13.1889 -4.55572 -1.48295 0
M  V30 157 H 11.5529 -2.39022 -0.87981 0
M  V30 158 H 12.3359 -3.40345 0.44947 0
M  V30 159 N 14.781 0.264519 -1.55364 0
M  V30 160 C 15.691 1.34902 -1.91934 0
M  V30 161 C 16.707 1.53595 -0.817593 0
M  V30 162 O 17.883 1.67558 -1.11742 0
M  V30 163 C 14.948 2.68676 -2.19121 0
M  V30 164 C 14.009 2.58657 -3.4263 0
M  V30 165 C 13.242 3.86051 -3.68511 0
M  V30 166 O 13.465 4.87126 -2.96757 0
M  V30 167 O 12.399 3.85744 -4.62045 0
M  V30 168 H 16.225 1.06883 -2.8427 0
M  V30 169 H 13.81 0.463775 -1.42019 0
M  V30 170 H 15.692 3.47759 -2.37995 0
M  V30 171 H 14.367 2.96463 -1.29966 0
M  V30 172 H 13.274 1.7792 -3.29082 0
M  V30 173 H 14.607 2.35818 -4.32031 0
M  V30 174 N 16.2591 1.48442 0.529413 0
M  V30 175 C 17.5071 1.56179 1.28267 0
M  V30 176 C 17.8281 0.237721 1.93546 0
M  V30 177 O 17.0981 -0.740779 1.81354 0
M  V30 178 H 15.6781 0.575367 0.476405 0
M  V30 179 H 18.3401 1.84909 0.61602 0
M  V30 180 H 17.4361 2.34312 2.06165 0
M  V30 181 N 17.7372 -0.778329 1.37039 0
M  V30 182 C 18.6672 -1.90546 1.34962 0
M  V30 183 C 19.6482 -1.68681 0.219274 0
M  V30 184 O 20.8332 -1.89634 0.418624 0
M  V30 185 C 17.9632 -3.27734 1.14925 0
M  V30 186 C 16.9172 -3.64147 2.24902 0
M  V30 187 C 16.2432 -4.99806 1.89996 0
M  V30 188 C 17.5432 -3.71579 3.67051 0
M  V30 189 H 19.2372 -1.92541 2.29277 0
M  V30 190 H 16.7832 -0.924948 1.10366 0
M  V30 191 H 18.7362 -4.06215 1.12104 0
M  V30 192 H 17.4602 -3.26154 0.170631 0
M  V30 193 H 16.1192 -2.8797 2.26868 0
M  V30 194 H 15.7672 -4.94759 0.906796 0
M  V30 195 H 15.4672 -5.25139 2.63634 0
M  V30 196 H 16.9912 -5.80694 1.88749 0
M  V30 197 H 18.4052 -4.40227 3.67251 0
M  V30 198 H 16.8022 -4.08405 4.39688 0
M  V30 199 H 17.8722 -2.72404 4.01154 0
M  V30 200 N 19.2153 -1.21501 -1.00376 0
M  V30 201 C 20.4923 -0.941745 -1.71437 0
M  V30 202 C 20.8723 0.546114 -2.03914 0
M  V30 203 O 20.2203 1.51128 -1.71384 0
M  V30 204 C 20.4303 -1.82812 -2.97289 0
M  V30 205 C 21.7783 -2.07771 -3.70292 0
M  V30 206 O 22.8023 -1.80171 -3.07273 0
M  V30 207 O 21.6613 -2.54456 -4.83647 0
M  V30 208 H 18.7553 -0.353243 -0.747762 0
M  V30 209 H 21.3013 -1.32436 -1.06108 0
M  V30 210 H 20.0733 -2.83501 -2.69709 0
M  V30 211 H 19.6963 -1.4464 -3.70358 0
M  V30 212 N 20.6934 1.19889 -1.02296 0
M  V30 213 C 21.6264 2.21639 -0.543282 0
M  V30 214 C 22.6044 1.57275 0.412698 0
M  V30 215 O 23.7884 1.85568 0.331198 0
M  V30 216 C 20.9154 3.38057 0.208571 0
M  V30 217 C 19.9614 4.20751 -0.697933 0
M  V30 218 S 20.7944 4.89529 -2.17075 0
M  V30 219 C 21.9504 6.09363 -1.42923 0
M  V30 220 H 22.1834 2.61984 -1.40541 0
M  V30 221 H 19.7164 1.30041 -0.832387 0
M  V30 222 H 21.6744 4.05539 0.63624 0
M  V30 223 H 20.3354 2.96159 1.04635 0
M  V30 224 H 19.5284 5.03862 -0.117831 0
M  V30 225 H 19.1304 3.58556 -1.06366 0
M  V30 226 H 21.4224 6.73742 -0.712637 0
M  V30 227 H 22.3654 6.71845 -2.23673 0
M  V30 228 H 22.7734 5.56798 -0.929327 0
M  V30 229 N 22.1715 0.800033 1.35784 0
M  V30 230 C 23.0815 0.207204 2.33683 0
M  V30 231 C 24.0975 -0.64631 1.61551 0
M  V30 232 O 25.2735 -0.559604 1.93469 0
M  V30 233 C 22.3385 -0.639659 3.40748 0
M  V30 234 C 21.3995 0.233585 4.28664 0
M  V30 235 C 20.6325 -0.572954 5.30616 0
M  V30 236 O 20.8555 -1.80816 5.40982 0
M  V30 237 O 19.7895 0.0327285 6.01891 0
M  V30 238 H 23.6155 1.01692 2.86169 0
M  V30 239 H 21.2005 0.561691 1.38439 0
M  V30 240 H 23.0825 -1.12223 4.06182 0
M  V30 241 H 21.7575 -1.42708 2.90544 0
M  V30 242 H 20.6645 0.763147 3.66233 0
M  V30 243 H 21.9975 0.984784 4.82248 0
M  V30 244 N 23.6496 -1.47581 0.552962 0
M  V30 245 C 25.0656 -1.5818 0.212424 0
M  V30 246 C 25.2656 -1.55213 -1.28496 0
M  V30 247 O 24.3216 -1.45329 -2.06484 0
M  V30 248 C 25.6346 -2.88865 0.835318 0
M  V30 249 C 27.1826 -3.0244 0.806156 0
M  V30 250 C 27.6576 -4.35819 1.40804 0
M  V30 251 N 29.1486 -4.42444 1.37103 0
M  V30 252 C 29.8836 -5.44202 1.80641 0
M  V30 253 N 29.3796 -6.52795 2.32015 0
M  V30 254 N 31.1726 -5.35222 1.71738 0
M  V30 255 H 23.3236 -1.47753 1.52587 0
M  V30 256 H 25.5866 -0.702941 0.636064 0
M  V30 257 H 25.2926 -2.9676 1.88749 0
M  V30 258 H 25.1666 -3.7579 0.325848 0
M  V30 259 H 27.5536 -2.94144 -0.237317 0
M  V30 260 H 27.6346 -2.17068 1.35334 0
M  V30 261 H 27.2786 -4.44871 2.45056 0
M  V30 262 H 27.2086 -5.19916 0.836338 0
M  V30 263 H 29.6996 -3.6456 0.995202 0
M  V30 264 H 30.0126 -7.26609 2.63171 0
M  V30 265 H 28.3576 -6.53696 2.36023 0
M  V30 266 H 31.5486 -4.49284 1.31382 0
M  V30 267 H 31.7216 -6.14389 2.05987 0
M  V30 268 N 25.1277 -0.289203 -1.54924 0
M  V30 269 C 26.5437 0.0645403 -1.59469 0
M  V30 270 C 26.7437 1.53419 -1.30632 0
M  V30 271 O 25.7997 2.2852 -1.074 0
M  V30 272 C 27.1127 -0.32278 -2.98963 0
M  V30 273 C 28.6607 -0.270564 -3.11828 0
M  V30 274 C 29.1357 -0.632532 -4.53611 0
M  V30 275 N 30.6267 -0.584617 -4.59496 0
M  V30 276 C 31.3617 -0.837314 -5.67254 0
M  V30 277 N 30.8577 -1.15536 -6.83098 0
M  V30 278 N 32.6507 -0.765166 -5.56868 0
M  V30 279 H 24.8017 -1.24714 -1.71931 0
M  V30 280 H 27.0647 -0.504809 -0.802416 0
M  V30 281 H 26.7707 -1.34541 -3.24948 0
M  V30 282 H 26.6447 0.32944 -3.75759 0
M  V30 283 H 29.0317 0.742805 -2.85598 0
M  V30 284 H 29.1127 -0.957242 -2.37214 0
M  V30 285 H 28.7567 -1.64365 -4.80569 0
M  V30 286 H 28.6867 0.07609 -5.26545 0
M  V30 287 H 31.1777 -0.349248 -3.76283 0
M  V30 288 H 31.4907 -1.33447 -7.61191 0
M  V30 289 H 29.8357 -1.19328 -6.84679 0
M  V30 290 H 33.0267 -0.516432 -4.65243 0
M  V30 291 H 33.1997 -0.965477 -6.40767 0
M  V30 292 N 26.6058 1.57591 -0.0167156 0
M  V30 293 C 27.8518 1.92399 0.659861 0
M  V30 294 C 28.2068 0.892561 1.70444 0
M  V30 295 O 27.4998 -0.0930755 1.91374 0
M  V30 296 C 27.6938 3.3172 1.33029 0
M  V30 297 C 27.5228 4.48319 0.352174 0
M  V30 298 C 26.2928 5.05281 -0.0434883 0
M  V30 299 C 28.4908 5.12831 -0.388474 0
M  V30 300 N 26.4728 6.05399 -1.01807 0
M  V30 301 C 27.8438 6.07934 -1.2172 0
M  V30 302 C 29.8988 4.95858 -0.450513 0
M  V30 303 C 28.6018 6.87891 -2.10235 0
M  V30 304 C 30.6278 5.76413 -1.32295 0
M  V30 305 C 29.9898 6.71123 -2.13948 0
M  V30 306 H 26.0888 0.752106 0.21415 0
M  V30 307 H 28.6728 1.94532 -0.0809846 0
M  V30 308 H 26.8438 3.3043 2.04134 0
M  V30 309 H 28.5758 3.5391 1.9629 0
M  V30 310 H 25.3308 4.7246 0.328384 0
M  V30 311 H 25.7548 6.60145 -1.50123 0
M  V30 312 H 30.3968 4.22472 0.166512 0
M  V30 313 H 28.1148 7.60591 -2.72997 0
M  V30 314 H 31.7008 5.65317 -1.37508 0
M  V30 315 H 30.5808 7.3237 -2.80364 0
M  V30 316 N 28.0839 -0.256276 1.55502 0
M  V30 317 C 29.3319 -0.983672 1.76545 0
M  V30 318 C 29.6529 -1.86206 0.578982 0
M  V30 319 O 28.9229 -1.91656 -0.405577 0
M  V30 320 H 27.5029 -0.366191 0.651086 0
M  V30 321 H 30.1649 -0.276479 1.92929 0
M  V30 322 H 29.2609 -1.61087 2.67315 0
M  V30 323 N 29.562 -1.4872 -0.521534 0
M  V30 324 C 30.494 -1.59968 -1.64143 0
M  V30 325 C 31.507 -0.483463 -1.55456 0
M  V30 326 O 32.696 -0.75467 -1.61762 0
M  V30 327 C 29.796 -1.52127 -3.02838 0
M  V30 328 C 28.969 -2.78932 -3.36921 0
M  V30 329 C 28.028 -2.64428 -4.54933 0
M  V30 330 O 27.054 -3.38331 -4.57735 0
M  V30 331 N 28.256 -1.74606 -5.53618 0
M  V30 332 H 31.021 -2.56548 -1.54929 0
M  V30 333 H 28.582 -1.45551 -0.708988 0
M  V30 334 H 30.574 -1.40106 -3.79674 0
M  V30 335 H 29.144 -0.634868 -3.06085 0
M  V30 336 H 28.364 -3.05455 -2.4918 0
M  V30 337 H 29.652 -3.63041 -3.56481 0
M  V30 338 H 29.05 -1.13782 -5.54139 0
M  V30 339 H 27.607 -1.6852 -6.29638 0
M  V30 340 N 31.0401 0.771051 -1.3745 0
M  V30 341 C 32.2861 1.5319 -1.32894 0
M  V30 342 C 32.6191 1.94008 0.0862511 0
M  V30 343 O 31.8941 1.64124 1.04373 0
M  V30 344 C 32.1771 2.79648 -2.26868 0
M  V30 345 C 32.0301 2.45079 -3.77169 0
M  V30 346 C 33.3491 3.81583 -2.19277 0
M  V30 347 H 30.4681 0.555744 -0.484064 0
M  V30 348 H 33.1101 0.884492 -1.68157 0
M  V30 349 H 31.2601 3.34891 -1.96926 0
M  V30 350 H 32.9321 1.95745 -4.1771 0
M  V30 351 H 31.1751 1.77767 -3.95704 0
M  V30 352 H 31.8461 3.35478 -4.38359 0
M  V30 353 H 34.3221 3.35835 -2.45671 0
M  V30 354 H 33.1981 4.67787 -2.87171 0
M  V30 355 H 33.4591 4.25897 -1.18592 0
M  V30 356 N 32.5182 1.22032 0.997298 0
M  V30 357 C 33.7432 1.06921 1.77715 0
M  V30 358 C 34.1682 -0.376226 1.84299 0
M  V30 359 O 33.5262 -1.27165 1.29223 0
M  V30 360 C 33.5742 1.67996 3.19076 0
M  V30 361 O 32.6782 0.930653 4.01762 0
M  V30 362 H 32.0192 0.375814 0.547412 0
M  V30 363 H 34.5492 1.61737 1.25309 0
M  V30 364 H 34.5592 1.72538 3.69723 0
M  V30 365 H 33.2342 2.73182 3.13599 0
M  V30 366 H 31.8112 0.960917 3.60307 0
M  V30 367 N 33.9963 -1.19345 1.0293 0
M  V30 368 C 34.9283 -2.22036 0.56857 0
M  V30 369 C 35.9413 -1.58865 -0.355779 0
M  V30 370 O 37.1303 -1.77851 -0.152103 0
M  V30 371 C 34.2303 -3.38363 -0.190752 0
M  V30 372 C 33.4033 -4.31118 0.738643 0
M  V30 373 C 32.4623 -5.26194 0.0246497 0
M  V30 374 O 31.4883 -5.65461 0.651354 0
M  V30 375 N 32.6903 -5.66971 -1.24594 0
M  V30 376 H 35.4553 -2.6219 1.45177 0
M  V30 377 H 33.0163 -1.34015 0.908381 0
M  V30 378 H 35.0083 -3.98981 -0.677961 0
M  V30 379 H 33.5783 -2.96994 -0.975366 0
M  V30 380 H 32.7983 -3.68276 1.40593 0
M  V30 381 H 34.0863 -4.90001 1.37029 0
M  V30 382 H 33.4843 -5.37104 -1.77583 0
M  V30 383 H 32.0413 -6.2984 -1.67764 0
M  V30 384 N 35.4744 -0.807222 -1.35358 0
M  V30 385 C 36.4374 -0.223665 -2.28106 0
M  V30 386 C 37.4374 0.589354 -1.4961 0
M  V30 387 O 38.6274 0.407745 -1.69361 0
M  V30 388 C 35.7594 0.688149 -3.33882 0
M  V30 389 H 36.9524 -1.04169 -2.81227 0
M  V30 390 H 34.5054 -0.577921 -1.45223 0
M  V30 391 H 35.2404 1.52984 -2.85948 0
M  V30 392 H 35.0254 0.10687 -3.91954 0
M  V30 393 H 36.5154 1.09075 -4.03104 0
M  V30 394 N 36.9525 1.47285 -0.560781 0
M  V30 395 C 38.1985 2.02764 -0.0381184 0
M  V30 396 C 38.5315 1.43384 1.30976 0
M  V30 397 O 37.8065 0.590733 1.85312 0
M  V30 398 C 38.0895 3.60064 0.0511427 0
M  V30 399 C 37.9425 4.2987 -1.32408 0
M  V30 400 C 39.2615 4.33439 0.762795 0
M  V30 401 H 36.3805 0.736841 -0.0153264 0
M  V30 402 H 39.0225 1.75675 -0.723759 0
M  V30 403 H 37.1725 3.83274 0.635065 0
M  V30 404 H 38.8445 4.17989 -1.95148 0
M  V30 405 H 37.0875 3.90085 -1.8978 0
M  V30 406 H 37.7585 5.38478 -1.21431 0
M  V30 407 H 40.2345 4.15243 0.266965 0
M  V30 408 H 39.1105 5.43124 0.794221 0
M  V30 409 H 39.3715 4.02915 1.81966 0
M  V30 410 N 38.4306 0.297415 1.54768 0
M  V30 411 C 39.3406 -0.58983 2.27064 0
M  V30 412 C 40.3566 -1.15144 1.30453 0
M  V30 413 O 41.5326 -1.17699 1.63428 0
M  V30 414 C 38.5976 -1.74714 2.9946 0
M  V30 415 C 37.6586 -1.21997 4.11601 0
M  V30 416 C 36.8916 -2.32212 4.80535 0
M  V30 417 O 37.1146 -3.52036 4.48806 0
M  V30 418 O 36.0486 -1.99106 5.68014 0
M  V30 419 H 39.8746 -0.00348199 3.037 0
M  V30 420 H 37.4596 0.0640035 1.49263 0
M  V30 421 H 39.3416 -2.42147 3.44881 0
M  V30 422 H 38.0166 -2.32016 2.25722 0
M  V30 423 H 36.9236 -0.511458 3.70587 0
M  V30 424 H 38.2566 -0.692419 4.87305 0
M  V30 425 N 39.9087 -1.5758 0.0250728 0
M  V30 426 C 41.3247 -1.56124 -0.331282 0
M  V30 427 C 41.5247 -1.03029 -1.73169 0
M  V30 428 O 40.5807 -0.675215 -2.43305 0
M  V30 429 C 41.8937 -3.00139 -0.183584 0
M  V30 430 C 43.4417 -3.11946 -0.256654 0
M  V30 431 C 43.9167 -4.57793 -0.137792 0
M  V30 432 N 45.4077 -4.6279 -0.194904 0
M  V30 433 C 46.1427 -5.7326 -0.126655 0
M  V30 434 N 45.6387 -6.928 -0.00755288 0
M  V30 435 N 47.4317 -5.61811 -0.180348 0
M  V30 436 H 39.5827 -1.90424 0.94087 0
M  V30 437 H 41.8457 -0.875761 0.362968 0
M  V30 438 H 41.5517 -3.4292 0.780927 0
M  V30 439 H 41.4257 -3.64899 -0.955448 0
M  V30 440 H 43.8127 -2.69079 -1.21162 0
M  V30 441 H 43.8937 -2.49915 0.545517 0
M  V30 442 H 43.5377 -5.01339 0.813739 0
M  V30 443 H 43.4677 -5.17798 -0.958775 0
M  V30 444 H 45.9587 -3.76807 -0.287267 0
M  V30 445 H 46.2717 -7.72791 0.0379428 0
M  V30 446 H 44.6167 -6.94995 0.0271731 0
M  V30 447 H 47.8077 -4.6731 -0.271767 0
M  V30 448 H 47.9807 -6.47882 -0.123697 0
M  V30 449 N 41.3868 0.248026 -1.55636 0
M  V30 450 C 42.6118 0.998028 -1.81808 0
M  V30 451 C 43.0368 1.78207 -0.601979 0
M  V30 452 O 42.3948 1.75653 0.448961 0
M  V30 453 C 42.4428 1.9125 -3.05705 0
M  V30 454 O 41.5468 3.00406 -2.82542 0
M  V30 455 H 40.8878 0.284045 -0.600179 0
M  V30 456 H 43.4178 0.269357 -2.02819 0
M  V30 457 H 43.4278 2.32737 -3.35108 0
M  V30 458 H 42.1028 1.33602 -3.93857 0
M  V30 459 H 40.6798 2.63056 -2.64303 0
M  V30 460 N 42.8649 1.48995 0.513639 0
M  V30 461 C 44.0899 1.61792 1.29762 0
M  V30 462 C 44.5149 0.284475 1.85936 0
M  V30 463 O 43.8729 -0.746185 1.65232 0
M  V30 464 C 43.9209 2.67993 2.41272 0
M  V30 465 O 43.0249 2.26287 3.44772 0
M  V30 466 H 42.3659 0.541963 0.38363 0
M  V30 467 H 44.8959 1.95097 0.616307 0
M  V30 468 H 44.9059 2.89772 2.87221 0
M  V30 469 H 43.5809 3.64791 1.9975 0
M  V30 470 H 42.1579 2.14788 3.04829 0
M  V30 471 N 44.343 -0.763751 1.37857 0
M  V30 472 C 45.273 -1.89103 1.36975 0
M  V30 473 C 46.254 -1.68439 0.237152 0
M  V30 474 O 47.439 -1.8918 0.438713 0
M  V30 475 C 44.569 -3.26496 1.18395 0
M  V30 476 C 43.523 -3.61741 2.28751 0
M  V30 477 C 42.849 -4.97762 1.95286 0
M  V30 478 C 44.149 -3.67665 3.70972 0
M  V30 479 H 45.843 -1.90099 2.31307 0
M  V30 480 H 43.389 -0.91319 1.11341 0
M  V30 481 H 45.342 -4.05003 1.16406 0
M  V30 482 H 44.066 -3.25955 0.205215 0
M  V30 483 H 42.725 -2.85547 2.29909 0
M  V30 484 H 42.373 -4.93769 0.959221 0
M  V30 485 H 42.073 -5.22313 2.69189 0
M  V30 486 H 43.597 -5.7866 1.94898 0
M  V30 487 H 45.011 -4.36307 3.719 0
M  V30 488 H 43.408 -4.03718 4.43995 0
M  V30 489 H 44.478 -2.68134 4.0402 0
M  V30 490 N 45.8211 -1.22559 -0.990812 0
M  V30 491 C 47.0691 -1.04933 -1.72724 0
M  V30 492 C 47.3901 0.416158 -1.90508 0
M  V30 493 O 46.6601 1.29918 -1.46622 0
M  V30 494 H 45.2401 -0.385296 -0.639965 0
M  V30 495 H 47.9021 -1.54105 -1.19322 0
M  V30 496 H 46.9981 -1.52886 -2.72089 0
M  V30 497 N 47.2992 1.18797 -1.03562 0
M  V30 498 C 48.7102 1.70322 -0.764676 0
M  V30 499 C 49.0612 1.82708 0.714996 0
M  V30 500 O 48.1862 1.50299 1.55689 0
M  V30 501 C 48.7812 3.09356 -1.38145 0
M  V30 502 C 47.3402 3.58114 -1.15895 0
M  V30 503 C 46.4872 2.34798 -1.4753 0
M  V30 504 H 49.4382 1.03543 -1.20268 0
M  V30 505 H 49.4592 3.72378 -0.781977 0
M  V30 506 H 48.9712 3.00309 -2.45837 0
M  V30 507 H 47.0722 3.72464 -0.100544 0
M  V30 508 H 47.1852 4.4184 -1.8524 0
M  V30 509 H 45.5492 2.38464 -0.894829 0
M  V30 510 H 46.3322 2.28375 -2.56319 0
M  V30 511 N 48.7773 0.814389 1.34928 0
M  V30 512 C 50.0053 0.411136 2.02774 0
M  V30 513 C 50.4203 -0.980316 1.61354 0
M  V30 514 O 49.7773 -1.63299 0.814847 0
M  V30 515 C 49.8283 0.493865 3.58111 0
M  V30 516 O 49.5493 1.83047 3.98027 0
M  V30 517 C 51.0503 0.0844174 4.4322 0
M  V30 518 H 48.2703 0.166037 0.650133 0
M  V30 519 H 50.8143 1.10018 1.72384 0
M  V30 520 H 48.9693 -0.147006 3.87121 0
M  V30 521 H 49.3833 1.79872 4.92693 0
M  V30 522 H 50.8573 0.193404 5.51661 0
M  V30 523 H 51.3343 -0.97113 4.28329 0
M  V30 524 H 51.9403 0.69875 4.19521 0
M  V30 525 N 50.2554 -1.46986 0.568584 0
M  V30 526 C 51.1654 -2.33942 -0.17555 0
M  V30 527 C 52.1814 -1.48891 -0.90041 0
M  V30 528 O 53.3574 -1.81794 -0.86676 0
M  V30 529 C 50.4224 -3.25811 -1.18524 0
M  V30 530 C 49.4834 -4.26757 -0.466582 0
M  V30 531 C 48.7164 -5.14236 -1.42817 0
M  V30 532 O 48.9394 -5.04379 -2.66379 0
M  V30 533 O 47.8734 -5.94412 -0.946453 0
M  V30 534 H 51.6994 -2.98896 0.538036 0
M  V30 535 H 49.2844 -1.4573 0.329097 0
M  V30 536 H 51.1664 -3.82527 -1.76779 0
M  V30 537 H 49.8414 -2.63471 -1.88055 0
M  V30 538 H 48.7484 -3.73769 0.157451 0
M  V30 539 H 50.0814 -4.91843 0.187485 0
M  V30 540 N 51.7335 -0.305618 -1.54608 0
M  V30 541 C 53.1495 0.0476228 -1.59529 0
M  V30 542 C 53.3495 1.52025 -1.32252 0
M  V30 543 O 52.4055 2.27368 -1.09818 0
M  V30 544 C 53.7185 -0.354471 -2.98603 0
M  V30 545 C 55.2665 -0.303622 -3.11524 0
M  V30 546 C 55.7415 -0.680608 -4.52915 0
M  V30 547 N 57.2325 -0.63332 -4.5885 0
M  V30 548 C 57.9675 -0.897432 -5.66334 0
M  V30 549 N 57.4635 -1.22775 -6.81834 0
M  V30 550 N 59.2565 -0.824186 -5.56025 0
M  V30 551 H 51.4075 -1.2653 -1.70599 0
M  V30 552 H 53.6705 -0.513291 -0.797017 0
M  V30 553 H 53.3765 -1.3798 -3.23503 0
M  V30 554 H 53.2505 0.289568 -3.76087 0
M  V30 555 H 55.6375 0.712472 -2.8637 0
M  V30 556 H 55.7185 -0.982348 -2.36185 0
M  V30 557 H 55.3625 -1.69453 -4.78799 0
M  V30 558 H 55.2925 0.0202385 -5.26596 0
M  V30 559 H 57.7835 -0.389138 -3.75891 0
M  V30 560 H 58.0965 -1.41513 -7.59733 0
M  V30 561 H 56.4415 -1.26583 -6.83375 0
M  V30 562 H 59.6325 -0.565748 -4.64669 0
M  V30 563 H 59.8055 -1.03338 -6.39707 0
M  V30 564 N 53.2116 1.57565 -0.0334293 0
M  V30 565 C 54.4396 1.9628 0.654347 0
M  V30 566 C 54.8546 0.910138 1.65414 0
M  V30 567 O 54.2116 -0.107595 1.82183 0
M  V30 568 C 54.2626 3.35067 1.35693 0
M  V30 569 O 53.9836 4.36296 0.397191 0
M  V30 570 C 55.4846 3.88439 2.13613 0
M  V30 571 H 52.7046 0.646369 0.180132 0
M  V30 572 H 55.2486 2.04282 -0.0944721 0
M  V30 573 H 53.4036 3.2827 2.05712 0
M  V30 574 H 53.8176 5.1678 0.896597 0
M  V30 575 H 55.2916 4.8788 2.58219 0
M  V30 576 H 55.7686 3.22914 2.97696 0
M  V30 577 H 56.3746 3.98516 1.48543 0
M  V30 578 N 54.6897 -0.239769 1.55765 0
M  V30 579 C 55.9667 -0.990056 1.68693 0
M  V30 580 C 56.3467 -2.03107 0.5754 0
M  V30 581 O 55.6947 -2.24604 -0.42017 0
M  V30 582 C 55.9047 -1.61696 3.09282 0
M  V30 583 C 57.2527 -2.11613 3.6811 0
M  V30 584 O 58.2767 -1.71624 3.12127 0
M  V30 585 O 57.1357 -2.85057 4.66267 0
M  V30 586 H 54.2297 -0.461299 0.686391 0
M  V30 587 H 56.7757 -0.232991 1.68093 0
M  V30 588 H 55.5477 -0.864357 3.81634 0
M  V30 589 H 55.1707 -2.44005 3.13923 0
M  V30 590 N 56.1678 -1.49265 -0.50573 0
M  V30 591 C 57.0778 -1.68312 -1.63427 0
M  V30 592 C 58.0938 -0.565682 -1.64548 0
M  V30 593 O 59.2698 -0.839801 -1.83055 0
M  V30 594 C 56.3348 -1.74107 -2.99813 0
M  V30 595 C 55.3958 -2.97653 -3.09356 0
M  V30 596 C 54.6288 -3.03163 -4.39236 0
M  V30 597 O 54.8518 -2.16396 -5.27758 0
M  V30 598 O 53.7858 -3.9558 -4.53652 0
M  V30 599 H 57.6118 -2.63907 -1.50289 0
M  V30 600 H 55.1968 -1.32951 -0.681502 0
M  V30 601 H 57.0788 -1.803 -3.80881 0
M  V30 602 H 55.7538 -0.816901 -3.13223 0
M  V30 603 H 54.6608 -2.96981 -2.27493 0
M  V30 604 H 55.9938 -3.89535 -3.00871 0
M  V30 605 N 57.6459 0.756429 -1.3826 0
M  V30 606 C 58.5939 1.89149 -1.35372 0
M  V30 607 C 59.5879 1.67691 -0.24004 0
M  V30 608 O 60.7939 1.75294 -0.408919 0
M  V30 609 H 57.1689 0.622271 -0.422236 0
M  V30 610 H 59.1399 1.88701 -2.31159 0
M  V30 611 C 57.8889 3.26599 -1.19284 0
M  V30 612 H 57.2119 3.43695 -2.0424 0
M  V30 613 H 58.6519 4.06274 -1.21316 0
M  V30 614 C 57.1109 3.3675 0.100454 0
M  V30 615 O 57.6409 3.86951 1.07851 0
M  V30 616 N 55.8469 2.90179 0.15633 0
M  V30 617 H 55.3939 2.49517 -0.640253 0
M  V30 618 H 55.3519 2.97352 1.02123 0
M  V30 619 N 59.124 1.23083 0.984299 0
M  V30 620 C 60.072 1.00593 2.09723 0
M  V30 621 C 61.066 -0.0538014 1.69315 0
M  V30 622 O 62.272 0.0993719 1.79725 0
M  V30 623 H 58.647 0.30817 0.685956 0
M  V30 624 H 60.618 1.95012 2.2586 0
M  V30 625 C 59.367 0.609601 3.42314 0
M  V30 626 H 58.69 1.41675 3.73856 0
M  V30 627 H 60.13 0.491726 4.21139 0
M  V30 628 C 58.589 -0.681745 3.2993 0
M  V30 629 O 59.119 -1.73192 3.62446 0
M  V30 630 N 57.325 -0.656178 2.83095 0
M  V30 631 H 56.872 0.198759 2.56832 0
M  V30 632 H 56.83 -1.52044 2.75191 0
M  V30 633 N 60.6021 -1.18246 1.0419 0
M  V30 634 C 61.8321 -1.91916 0.764961 0
M  V30 635 C 62.2401 -1.76485 -0.681898 0
M  V30 636 O 61.5831 -1.09275 -1.47664 0
M  V30 637 C 61.6451 -3.4373 1.05309 0
M  V30 638 C 61.3091 -3.8294 2.4941 0
M  V30 639 C 62.3061 -3.86621 3.47592 0
M  V30 640 C 59.9911 -4.142 2.84155 0
M  V30 641 C 61.9851 -4.21013 4.78568 0
M  V30 642 C 59.6721 -4.48262 4.15337 0
M  V30 643 C 60.6701 -4.51645 5.12353 0
M  V30 644 O 60.3581 -4.84911 6.41183 0
M  V30 645 H 60.0901 -0.61606 0.278292 0
M  V30 646 H 62.6441 -1.50947 1.39299 0
M  V30 647 H 60.8741 -3.84946 0.367933 0
M  V30 648 H 62.5631 -3.9865 0.763752 0
M  V30 649 H 63.3291 -3.62607 3.22089 0
M  V30 650 H 59.2081 -4.10743 2.09311 0
M  V30 651 H 62.7521 -4.23568 5.54289 0
M  V30 652 H 58.6491 -4.71737 4.40607 0
M  V30 653 H 59.4171 -5.02809 6.45852 0
M  V30 654 N 62.0802 -0.821533 -1.34494 0
M  V30 655 C 63.0132 -0.187704 -2.27427 0
M  V30 656 C 63.9912 0.65507 -1.48821 0
M  V30 657 O 65.1752 0.619111 -1.78043 0
M  V30 658 C 62.3022 0.737996 -3.30562 0
M  V30 659 C 61.3482 -0.0270713 -4.26491 0
M  V30 660 S 62.1812 -1.37329 -5.17592 0
M  V30 661 C 63.3372 -0.452427 -6.24263 0
M  V30 662 H 63.5702 -0.975598 -2.80837 0
M  V30 663 H 61.1032 -0.61736 -1.4152 0
M  V30 664 H 63.0612 1.26654 -3.90473 0
M  V30 665 H 61.7222 1.4994 -2.76001 0
M  V30 666 H 60.9152 0.6766 -4.99438 0
M  V30 667 H 60.5172 -0.48612 -3.70827 0
M  V30 668 H 62.8092 0.356557 -6.76561 0
M  V30 669 H 63.7522 -1.15153 -6.98674 0
M  V30 670 H 64.1602 -0.0414755 -5.64485 0
M  V30 671 N 63.5583 1.46682 -0.576371 0
M  V30 672 C 64.4683 2.34032 0.163141 0
M  V30 673 C 65.4843 1.49367 0.892501 0
M  V30 674 O 66.6603 1.82252 0.857106 0
M  V30 675 C 63.7253 3.26435 1.16795 0
M  V30 676 C 62.7863 4.26998 0.443944 0
M  V30 677 C 62.0193 5.14986 1.40088 0
M  V30 678 O 62.2423 5.05785 2.637 0
M  V30 679 O 61.1763 5.94906 0.914917 0
M  V30 680 H 65.0023 2.98607 -0.55388 0
M  V30 681 H 62.5873 1.45554 -0.336821 0
M  V30 682 H 64.4693 3.83459 1.74748 0
M  V30 683 H 63.1443 2.64465 1.86655 0
M  V30 684 H 62.0513 3.7368 -0.177271 0
M  V30 685 H 63.3843 4.91736 -0.213566 0
M  V30 686 N 65.0364 0.313813 1.54444 0
M  V30 687 C 66.2854 -0.292519 1.99568 0
M  V30 688 C 66.5984 -1.54011 1.20582 0
M  V30 689 O 67.8044 -2.22183 1.56035 0
M  V30 690 C 66.2604 -0.571752 3.55329 0
M  V30 691 C 65.8684 0.658229 4.43138 0
M  V30 692 C 67.6124 -1.13857 4.08946 0
M  V30 693 C 65.5194 0.351439 5.90355 0
M  V30 694 H 64.4494 -0.113079 0.745472 0
M  V30 695 H 67.1004 0.424518 1.78522 0
M  V30 696 H 65.4824 -1.34872 3.72325 0
M  V30 697 H 66.6564 1.43403 4.37918 0
M  V30 698 H 64.9714 1.14458 4.0036 0
M  V30 699 H 67.5684 -1.38257 5.16516 0
M  V30 700 H 67.9114 -2.08489 3.6033 0
M  V30 701 H 68.4444 -0.423015 3.95544 0
M  V30 702 H 65.1834 1.26667 6.43145 0
M  V30 703 H 64.7034 -0.386842 5.98551 0
M  V30 704 H 66.3824 -0.0423134 6.46986 0
M  V30 705 N 66.5145 -1.57545 0.0417849 0
M  V30 706 C 67.7605 -1.92601 -0.635021 0
M  V30 707 C 68.0935 -0.919627 -1.71045 0
M  V30 708 O 67.3685 0.0557892 -1.9442 0
M  V30 709 C 67.6515 -3.38085 -1.23979 0
M  V30 710 C 67.5045 -4.49467 -0.173057 0
M  V30 711 C 68.8235 -3.83776 -2.15416 0
M  V30 712 H 65.9425 -0.700397 -0.229374 0
M  V30 713 H 68.5845 -1.89728 0.101633 0
M  V30 714 H 66.7345 -3.40664 -1.86762 0
M  V30 715 H 68.4065 -4.59018 0.458312 0
M  V30 716 H 66.6495 -4.30909 0.499996 0
M  V30 717 H 67.3205 -5.48323 -0.636054 0
M  V30 718 H 69.7965 -3.83013 -1.62605 0
M  V30 719 H 68.6725 -4.8624 -2.54679 0
M  V30 720 H 68.9335 -3.19998 -3.05047 0
M  V30 721 N 67.9926 0.231505 -1.5589 0
M  V30 722 C 68.9406 1.30649 -1.92441 0
M  V30 723 C 69.9346 1.49037 -0.805254 0
M  V30 724 O 71.1406 1.50329 -0.990007 0
M  V30 725 H 67.5156 0.437812 -0.611412 0
M  V30 726 H 69.4866 0.970973 -2.82161 0
M  V30 727 C 68.2356 2.65179 -2.24889 0
M  V30 728 H 67.5586 2.51835 -3.10514 0
M  V30 729 H 68.9986 3.39234 -2.54355 0
M  V30 730 C 67.4576 3.19439 -1.07054 0
M  V30 731 O 67.9876 4.00371 -0.326499 0
M  V30 732 N 66.1936 2.77675 -0.85703 0
M  V30 733 H 65.7406 2.11969 -1.46379 0
M  V30 734 H 65.6986 3.14321 -0.0703223 0
M  V30 735 N 69.4707 1.49531 0.497807 0
M  V30 736 C 70.7167 1.59415 1.25358 0
M  V30 737 C 71.0497 0.281422 1.9215 0
M  V30 738 O 70.3247 -0.715249 1.80871 0
M  V30 739 C 70.6077 2.75566 2.3181 0
M  V30 740 C 70.4607 4.16642 1.69498 0
M  V30 741 C 71.7797 2.87347 3.33346 0
M  V30 742 H 68.8987 0.580244 0.454408 0
M  V30 743 H 71.5407 1.81827 0.551262 0
M  V30 744 H 69.6907 2.56587 2.91711 0
M  V30 745 H 71.3627 4.47145 1.13399 0
M  V30 746 H 69.6057 4.22141 0.998978 0
M  V30 747 H 70.2767 4.93792 2.46725 0
M  V30 748 H 72.7527 3.04634 2.83438 0
M  V30 749 H 71.6287 3.70289 4.05188 0
M  V30 750 H 71.8897 1.96834 3.95865 0
M  V30 751 N 70.9488 -0.749086 1.3866 0
M  V30 752 C 72.1738 -1.54344 1.38538 0
M  V30 753 C 72.5988 -1.88088 -0.0216655 0
M  V30 754 O 71.9568 -1.50899 -1.00494 0
M  V30 755 C 72.0048 -2.8164 2.25192 0
M  V30 756 O 71.1088 -3.7698 1.67212 0
M  V30 757 H 70.4498 -0.466654 0.472367 0
M  V30 758 H 72.9798 -0.925355 1.82478 0
M  V30 759 H 72.9898 -3.30519 2.3921 0
M  V30 760 H 71.6648 -2.56411 3.27454 0
M  V30 761 H 70.2418 -3.35699 1.6236 0
M  V30 762 N 72.4269 -1.23603 -0.977757 0
M  V30 763 C 73.6669 -1.08148 -1.73446 0
M  V30 764 C 74.0309 0.374785 -1.88307 0
M  V30 765 O 75.2319 0.650588 -2.60808 0
M  V30 766 C 73.5029 -1.78991 -3.0935 0
M  V30 767 S 75.0619 -1.79141 -4.00567 0
M  V30 768 H 71.8799 -0.386987 -0.596458 0
M  V30 769 H 74.4819 -1.5678 -1.16792 0
M  V30 770 H 73.1859 -2.8408 -2.96187 0
M  V30 771 H 72.7169 -1.30651 -3.71071 0
M  V30 772 H 74.7319 -0.851892 -4.88833 0
M  V30 773 N 73.905 1.17692 -1.04816 0
M  V30 774 C 75.151 1.88137 -0.75711 0
M  V30 775 C 75.484 1.80604 0.713841 0
M  V30 776 O 74.759 1.21146 1.52164 0
M  V30 777 C 75.042 3.38318 -1.2334 0
M  V30 778 C 74.895 3.54622 -2.76701 0
M  V30 779 C 76.214 4.32214 -0.829415 0
M  V30 780 H 73.333 0.683163 -0.27651 0
M  V30 781 H 75.975 1.38424 -1.30149 0
M  V30 782 H 74.125 3.80787 -0.770286 0
M  V30 783 H 75.797 3.21194 -3.31107 0
M  V30 784 H 74.04 2.97026 -3.16161 0
M  V30 785 H 74.711 4.60028 -3.05088 0
M  V30 786 H 77.187 3.97565 -1.22805 0
M  V30 787 H 76.063 5.35838 -1.19033 0
M  V30 788 H 76.324 4.41294 0.266891 0
M  V30 789 N 75.3831 0.828654 1.34056 0
M  V30 790 C 76.6081 0.431637 2.02859 0
M  V30 791 C 77.0331 -0.956339 1.61975 0
M  V30 792 O 76.3911 -1.62338 0.807228 0
M  V30 793 C 76.4391 0.548323 3.56407 0
M  V30 794 O 75.5431 -0.429556 4.10157 0
M  V30 795 H 74.8841 0.176886 0.640006 0
M  V30 796 H 77.4141 1.12066 1.71179 0
M  V30 797 H 77.4241 0.426196 4.05768 0
M  V30 798 H 76.0991 1.5606 3.8551 0
M  V30 799 H 74.6761 -0.265836 3.71951 0
M  V30 800 N 76.8612 -1.46375 0.584142 0
M  V30 801 C 78.1092 -2.01978 0.0701287 0
M  V30 802 C 78.4302 -1.4579 -1.295 0
M  V30 803 O 77.7002 -0.64314 -1.85042 0
M  V30 804 H 76.2802 -0.746648 0.0229345 0
M  V30 805 H 78.9422 -1.79461 0.760245 0
M  V30 806 H 78.0382 -3.121 0.0022064 0
M  V30 807 N 78.3393 -0.321999 -1.54275 0
M  V30 808 C 79.3023 0.531975 -2.22941 0
M  V30 809 C 80.3023 1.04478 -1.22234 0
M  V30 810 O 81.4923 0.937452 -1.46825 0
M  V30 811 C 78.6243 1.73874 -2.93224 0
M  V30 812 H 79.8173 -0.0682612 -2.99822 0
M  V30 813 H 77.3703 -0.0730644 -1.56129 0
M  V30 814 H 78.1053 2.37825 -2.20476 0
M  V30 815 H 77.8903 1.37847 -3.6707 0
M  V30 816 H 79.3803 2.34496 -3.45545 0
M  V30 817 N 79.8174 1.5752 -0.0501392 0
M  V30 818 C 81.0664 1.91827 0.623328 0
M  V30 819 C 81.3794 0.930222 1.72065 0
M  V30 820 O 82.5854 1.1653 2.4522 0
M  V30 821 C 81.0414 3.40692 1.16003 0
M  V30 822 C 80.6494 4.479 0.0948811 0
M  V30 823 C 82.3934 3.84034 1.80881 0
M  V30 824 C 80.3004 5.87879 0.644411 0
M  V30 825 H 79.2304 0.715918 0.236596 0
M  V30 826 H 81.8814 1.83115 -0.118861 0
M  V30 827 H 80.2634 3.44405 1.9545 0
M  V30 828 H 81.4374 4.55775 -0.678675 0
M  V30 829 H 79.7524 4.13892 -0.45637 0
M  V30 830 H 82.3494 4.85984 2.22988 0
M  V30 831 H 82.6924 3.20225 2.6601 0
M  V30 832 H 83.2254 3.82833 1.0809 0
M  V30 833 H 79.9644 6.55282 -0.169229 0
M  V30 834 H 79.4844 5.83567 1.38598 0
M  V30 835 H 81.1634 6.37098 1.12763 0
M  V30 836 N 81.2955 -0.223234 1.56011 0
M  V30 837 C 82.7065 -0.790368 1.69145 0
M  V30 838 C 83.0575 -1.85055 0.651845 0
M  V30 839 O 82.1825 -2.15498 -0.197359 0
M  V30 840 C 82.7775 -1.4404 3.06656 0
M  V30 841 C 81.3365 -1.95494 3.2165 0
M  V30 842 C 80.4835 -0.814506 2.65068 0
M  V30 843 H 83.4345 0.00139011 1.587 0
M  V30 844 H 83.4555 -2.30916 3.0242 0
M  V30 845 H 82.9675 -0.668543 3.82298 0
M  V30 846 H 81.0685 -2.75487 2.50874 0
M  V30 847 H 81.1815 -2.13607 4.28846 0
M  V30 848 H 79.5455 -1.22137 2.23505 0
M  V30 849 H 80.3285 -0.0553515 3.43255 0
M  V30 850 N 82.7736 -1.49793 -0.48987 0
M  V30 851 C 83.7216 -1.67783 -1.61095 0
M  V30 852 C 84.7156 -0.543683 -1.60438 0
M  V30 853 O 85.9216 -0.723647 -1.64813 0
M  V30 854 H 82.2966 -0.529255 -0.534222 0
M  V30 855 H 84.2676 -2.61861 -1.43078 0
M  V30 856 C 83.0166 -1.77191 -2.99164 0
M  V30 857 H 82.3396 -2.63841 -3.0038 0
M  V30 858 H 83.7796 -1.93809 -3.77113 0
M  V30 859 C 82.2386 -0.519203 -3.32875 0
M  V30 860 O 82.7686 0.350124 -4.00171 0
M  V30 861 N 80.9746 -0.378816 -2.8812 0
M  V30 862 H 80.5216 -1.08725 -2.33531 0
M  V30 863 H 80.4796 0.458239 -3.11043 0
M  V30 864 N 84.2517 0.741722 -1.39055 0
M  V30 865 C 85.1997 1.87702 -1.3737 0
M  V30 866 C 86.1937 1.67427 -0.257812 0
M  V30 867 O 87.3997 1.7485 -0.427489 0
M  V30 868 H 83.7747 0.617757 -0.428812 0
M  V30 869 H 85.7457 1.86239 -2.33147 0
M  V30 870 C 84.4947 3.25315 -1.22741 0
M  V30 871 H 83.8177 3.41509 -2.07873 0
M  V30 872 H 85.2577 4.04964 -1.25618 0
M  V30 873 C 83.7167 3.36838 0.0647316 0
M  V30 874 O 84.2467 3.88073 1.03741 0
M  V30 875 N 82.4527 2.90329 0.125544 0
M  V30 876 H 81.9997 2.48823 -0.666682 0
M  V30 877 H 81.9577 2.98418 0.989639 0
M  V30 878 N 85.7298 1.2412 0.971189 0
M  V30 879 C 86.9548 1.10667 1.75407 0
M  V30 880 C 87.3798 -0.337048 1.85056 0
M  V30 881 O 86.7378 -1.24396 1.31892 0
M  V30 882 C 86.7858 1.74726 3.15441 0
M  V30 883 O 85.8898 1.01566 3.99697 0
M  V30 884 H 85.2308 0.387341 0.539317 0
M  V30 885 H 87.7608 1.64358 1.2185 0
M  V30 886 H 87.7708 1.80341 3.6598 0
M  V30 887 H 86.4458 2.79773 3.07734 0
M  V30 888 H 85.0228 1.03713 3.58187 0
M  V30 889 N 87.2079 -1.17134 1.05439 0
M  V30 890 C 88.4359 -1.91372 0.786414 0
M  V30 891 C 88.8509 -1.76955 -0.658202 0
M  V30 892 O 88.2079 -1.10838 -1.44987 0
M  V30 893 C 88.2589 -3.42356 1.1608 0
M  V30 894 O 87.9799 -3.56332 2.54871 0
M  V30 895 C 89.4809 -4.33663 0.919322 0
M  V30 896 H 86.7009 -0.607118 0.285743 0
M  V30 897 H 89.2449 -1.48525 1.40572 0
M  V30 898 H 87.3999 -3.82939 0.586191 0
M  V30 899 H 87.8139 -4.49896 2.69618 0
M  V30 900 H 89.2879 -5.38099 1.231 0
M  V30 901 H 89.7649 -4.38959 -0.145359 0
M  V30 902 H 90.3709 -3.98796 1.47789 0
M  V30 903 N 88.686 -0.835752 -1.33615 0
M  V30 904 C 89.618 -0.224151 -2.28101 0
M  V30 905 C 90.631 0.593331 -1.51603 0
M  V30 906 O 91.82 0.420911 -1.73466 0
M  V30 907 C 88.92 0.703309 -3.31522 0
M  V30 908 C 88.093 -0.0741528 -4.37337 0
M  V30 909 C 87.152 0.776176 -5.20444 0
M  V30 910 O 86.178 0.216506 -5.68788 0
M  V30 911 N 87.38 2.09401 -5.41416 0
M  V30 912 H 90.145 -1.03598 -2.81225 0
M  V30 913 H 87.706 -0.69392 -1.46275 0
M  V30 914 H 89.698 1.27707 -3.84022 0
M  V30 915 H 88.268 1.41585 -2.78698 0
M  V30 916 H 87.488 -0.82928 -3.85378 0
M  V30 917 H 88.776 -0.608863 -5.05144 0
M  V30 918 H 88.174 2.57229 -5.03835 0
M  V30 919 H 86.731 2.61633 -5.96985 0
M  V30 920 N 90.1641 1.46063 -0.591896 0
M  V30 921 C 91.4121 2.01938 -0.0808391 0
M  V30 922 C 91.7331 1.46475 1.28725 0
M  V30 923 O 91.0031 0.652944 1.84698 0
M  V30 924 H 89.5831 0.746516 -0.0268938 0
M  V30 925 H 92.2451 1.79055 -0.769752 0
M  V30 926 H 91.3411 3.12094 -0.0187578 0
M  V30 927 N 91.6422 0.330177 1.54103 0
M  V30 928 C 92.8672 -0.274893 2.0557 0
M  V30 929 C 93.2922 -1.44487 1.20437 0
M  V30 930 O 92.6502 -1.80021 0.214991 0
M  V30 931 C 92.6982 -0.68079 3.54115 0
M  V30 932 O 91.8022 -1.7824 3.71893 0
M  V30 933 H 91.1432 -0.0483849 0.662235 0
M  V30 934 H 93.6732 0.480508 1.98878 0
M  V30 935 H 93.6832 -0.961635 3.96505 0
M  V30 936 H 92.3582 0.174903 4.15532 0
M  V30 937 H 90.9352 -1.49985 3.41407 0
M  V30 938 N 93.1203 -1.57491 0.0584922 0
M  V30 939 C 94.3453 -1.97711 -0.62652 0
M  V30 940 C 94.7703 -0.936132 -1.63151 0
M  V30 941 O 94.1283 0.099811 -1.81025 0
M  V30 942 C 94.1763 -3.36989 -1.28338 0
M  V30 943 O 93.2803 -3.35433 -2.39913 0
M  V30 944 H 92.6213 -0.643868 -0.162266 0
M  V30 945 H 95.1513 -2.04193 0.129064 0
M  V30 946 H 95.1613 -3.73879 -1.63335 0
M  V30 947 H 93.8363 -4.12289 -0.546889 0
M  V30 948 H 92.4133 -3.10298 -2.06809 0
M  V30 949 N 94.5984 0.214957 -1.56127 0
M  V30 950 C 95.5454 1.26642 -1.92952 0
M  V30 951 C 96.5154 1.46244 -0.78753 0
M  V30 952 O 97.7004 1.59704 -1.04399 0
M  V30 953 C 94.8404 2.6104 -2.25726 0
M  V30 954 C 93.9534 2.49183 -3.52891 0
M  V30 955 C 93.0884 3.76149 -3.7508 0
M  V30 956 C 92.1274 3.59041 -4.95738 0
M  V30 957 N 91.2644 4.77972 -5.14283 0
M  V30 958 H 96.1044 0.945384 -2.82607 0
M  V30 959 H 93.6414 0.455489 -1.3987 0
M  V30 960 H 95.5994 3.39313 -2.42739 0
M  V30 961 H 94.2294 2.91227 -1.39236 0
M  V30 962 H 93.2814 1.6231 -3.44034 0
M  V30 963 H 94.5934 2.32466 -4.41318 0
M  V30 964 H 93.7474 4.62865 -3.92226 0
M  V30 965 H 92.4864 3.95799 -2.84947 0
M  V30 966 H 91.4914 2.7071 -4.78535 0
M  V30 967 H 92.7164 3.40856 -5.87362 0
M  V30 968 H 90.6624 4.97923 -4.27093 0
M  V30 969 H 90.5794 4.64006 -5.96853 0
M  V30 970 H 91.8474 5.66096 -5.35869 0
M  V30 971 N 96.0765 1.50051 0.48192 0
M  V30 972 C 96.9865 1.7089 1.60728 0
M  V30 973 C 98.0025 0.591788 1.63627 0
M  V30 974 O 99.1785 0.868817 1.81696 0
M  V30 975 C 96.2435 1.78855 2.97005 0
M  V30 976 C 95.3045 3.02537 3.04581 0
M  V30 977 C 94.5375 3.10112 4.34357 0
M  V30 978 O 94.7605 2.24765 5.24249 0
M  V30 979 O 93.6945 4.02747 4.47301 0
M  V30 980 H 97.5205 2.66264 1.46072 0
M  V30 981 H 95.1055 1.34018 0.660264 0
M  V30 982 H 96.9875 1.86336 3.77964 0
M  V30 983 H 95.6625 0.866628 3.11883 0
M  V30 984 H 94.5695 3.00563 2.22739 0
M  V30 985 H 95.9025 3.94272 2.94636 0
M  V30 986 N 97.5546 -0.734337 1.39446 0
M  V30 987 C 98.5016 -1.84835 1.38219 0
M  V30 988 C 99.4716 -1.64331 0.24179 0
M  V30 989 O 100.657 -1.85728 0.437002 0
M  V30 990 C 97.7966 -3.22355 1.23212 0
M  V30 991 C 96.9096 -3.5456 2.46801 0
M  V30 992 C 96.0446 -4.81485 2.24377 0
M  V30 993 C 95.0836 -5.06536 3.43639 0
M  V30 994 N 94.2206 -6.24665 3.20528 0
M  V30 995 H 99.0606 -1.85219 2.33448 0
M  V30 996 H 96.5976 -0.905039 1.15963 0
M  V30 997 H 98.5556 -4.0174 1.12522 0
M  V30 998 H 97.1856 -3.21248 0.316121 0
M  V30 999 H 96.2376 -2.69872 2.68092 0
M  V30 1000 H 97.5496 -3.6899 3.3563 0
M  V30 1001 H 96.7036 -5.68852 2.10933 0
M  V30 1002 H 95.4426 -4.6923 1.32944 0
M  V30 1003 H 94.4476 -4.17632 3.5758 0
M  V30 1004 H 95.6726 -5.20676 4.35974 0
M  V30 1005 H 93.6186 -6.13696 2.3176 0
M  V30 1006 H 93.5356 -6.39685 4.02913 0
M  V30 1007 H 94.8036 -7.14868 3.10779 0
M  V30 1008 N 99.0327 -1.24633 -0.964593 0
M  V30 1009 C 99.9647 -0.999302 -2.06268 0
M  V30 1010 C 100.978 0.0323226 -1.62768 0
M  V30 1011 O 102.167 -0.205079 -1.77318 0
M  V30 1012 C 99.2667 -0.486816 -3.35385 0
M  V30 1013 C 98.4397 -1.5823 -4.07777 0
M  V30 1014 C 97.4987 -1.07191 -5.15166 0
M  V30 1015 O 96.5247 -1.76426 -5.41168 0
M  V30 1016 N 97.7267 0.0920373 -5.80427 0
M  V30 1017 H 100.492 -1.94477 -2.28033 0
M  V30 1018 H 98.0527 -1.15704 -1.13244 0
M  V30 1019 H 100.045 -0.130066 -4.04491 0
M  V30 1020 H 98.6147 0.364459 -3.10468 0
M  V30 1021 H 97.8347 -2.11109 -3.32906 0
M  V30 1022 H 99.1227 -2.31854 -4.52903 0
M  V30 1023 H 98.5207 0.670784 -5.61709 0
M  V30 1024 H 97.0777 0.389905 -6.50633 0
M  V30 1025 N 100.511 1.16574 -1.06058 0
M  V30 1026 C 101.421 2.2452 -0.680282 0
M  V30 1027 C 102.437 1.71348 0.302604 0
M  V30 1028 O 103.613 2.00822 0.152513 0
M  V30 1029 C 100.678 3.46629 -0.0700315 0
M  V30 1030 C 99.7388 4.14849 -1.10448 0
M  V30 1031 C 98.9718 5.31129 -0.523256 0
M  V30 1032 O 99.1948 5.66514 0.664709 0
M  V30 1033 O 98.1288 5.88526 -1.26179 0
M  V30 1034 H 101.955 2.59355 -1.58015 0
M  V30 1035 H 99.5398 1.24043 -0.832694 0
M  V30 1036 H 101.422 4.20543 0.268667 0
M  V30 1037 H 100.097 3.13573 0.803353 0
M  V30 1038 H 99.0038 3.42916 -1.49532 0
M  V30 1039 H 100.337 4.51954 -1.94931 0
M  V30 1040 N 101.989 0.842826 1.3317 0
M  V30 1041 C 102.919 0.294028 2.31641 0
M  V30 1042 C 103.9 -0.600401 1.59151 0
M  V30 1043 O 105.085 -0.523124 1.87022 0
M  V30 1044 C 102.215 -0.528416 3.43257 0
M  V30 1045 C 101.169 0.27056 4.27144 0
M  V30 1046 C 100.495 -0.675881 5.30411 0
M  V30 1047 C 101.795 1.48981 5.00602 0
M  V30 1048 H 103.489 1.11681 2.77791 0
M  V30 1049 H 101.035 0.538478 1.33553 0
M  V30 1050 H 102.988 -0.922674 4.11175 0
M  V30 1051 H 101.712 -1.38445 2.95805 0
M  V30 1052 H 100.371 0.646427 3.60856 0
M  V30 1053 H 100.019 -1.52842 4.79216 0
M  V30 1054 H 99.7189 -0.145374 5.8742 0
M  V30 1055 H 101.243 -1.06757 6.01195 0
M  V30 1056 H 102.657 1.16849 5.61266 0
M  V30 1057 H 101.054 1.95739 5.6728 0
M  V30 1058 H 102.124 2.25746 4.29147 0
M  V30 1059 N 103.467 -1.45747 0.599634 0
M  V30 1060 C 104.397 -2.33235 -0.111306 0
M  V30 1061 C 105.378 -1.46359 -0.866781 0
M  V30 1062 O 106.563 -1.75146 -0.838904 0
M  V30 1063 C 103.693 -3.28932 -1.11451 0
M  V30 1064 C 102.647 -4.25381 -0.472772 0
M  V30 1065 C 101.973 -5.1071 -1.58365 0
M  V30 1066 C 103.273 -5.18831 0.600948 0
M  V30 1067 H 104.967 -2.92927 0.61919 0
M  V30 1068 H 102.513 -1.40857 0.299215 0
M  V30 1069 H 104.466 -3.89002 -1.62036 0
M  V30 1070 H 103.19 -2.67381 -1.8755 0
M  V30 1071 H 101.849 -3.66598 0.0121472 0
M  V30 1072 H 101.497 -4.45533 -2.33473 0
M  V30 1073 H 101.197 -5.7604 -1.15982 0
M  V30 1074 H 102.721 -5.73647 -2.09194 0
M  V30 1075 H 104.135 -5.73019 0.179491 0
M  V30 1076 H 102.532 -5.92595 0.946076 0
M  V30 1077 H 103.602 -4.6174 1.48068 0
M  V30 1078 N 104.945 -0.338344 -1.53925 0
M  V30 1079 C 106.356 0.146651 -1.86123 0
M  V30 1080 C 106.707 1.5042 -1.2597 0
M  V30 1081 O 105.832 2.08723 -0.571294 0
M  V30 1082 C 106.427 0.272879 -3.37699 0
M  V30 1083 C 104.986 0.702103 -3.69794 0
M  V30 1084 C 104.133 -0.167304 -2.76795 0
M  V30 1085 H 107.084 -0.558123 -1.48562 0
M  V30 1086 H 107.105 1.10128 -3.64214 0
M  V30 1087 H 106.617 -0.715307 -3.81451 0
M  V30 1088 H 104.718 1.6995 -3.31584 0
M  V30 1089 H 104.831 0.495604 -4.7653 0
M  V30 1090 H 103.195 0.359527 -2.5215 0
M  V30 1091 H 103.978 -1.15253 -3.23375 0
M  V30 1092 N 106.423 1.57458 -0.0668435 0
M  V30 1093 C 107.663 1.95175 0.607116 0
M  V30 1094 C 108.027 0.946039 1.67075 0
M  V30 1095 O 109.228 1.2107 2.39991 0
M  V30 1096 C 107.499 3.37582 1.17358 0
M  V30 1097 S 109.058 3.97271 1.86336 0
M  V30 1098 H 105.876 0.682604 0.19893 0
M  V30 1099 H 108.478 1.95002 -0.139519 0
M  V30 1100 H 107.182 4.08566 0.387553 0
M  V30 1101 H 106.713 3.41288 1.95669 0
M  V30 1102 H 108.728 3.83772 3.14537 0
M  V30 1103 N 107.901 -0.206675 1.56239 0
M  V30 1104 C 108.831 -1.25909 1.96645 0
M  V30 1105 C 109.812 -1.48097 0.836734 0
M  V30 1106 O 110.997 -1.6003 1.10019 0
M  V30 1107 C 108.127 -2.6058 2.29599 0
M  V30 1108 C 107.081 -2.53024 3.452 0
M  V30 1109 C 106.407 -3.91861 3.63798 0
M  V30 1110 C 107.707 -2.06524 4.79734 0
M  V30 1111 H 109.401 -0.923369 2.84806 0
M  V30 1112 H 106.947 -0.442735 1.37025 0
M  V30 1113 H 108.9 -3.34375 2.56459 0
M  V30 1114 H 107.624 -2.95869 1.38307 0
M  V30 1115 H 106.283 -1.81684 3.18412 0
M  V30 1116 H 105.931 -4.24483 2.69857 0
M  V30 1117 H 105.631 -3.87683 4.4156 0
M  V30 1118 H 107.155 -4.67296 3.93022 0
M  V30 1119 H 108.569 -2.70072 5.05702 0
M  V30 1120 H 106.966 -2.13374 5.60885 0
M  V30 1121 H 108.036 -1.01802 4.74093 0
M  V30 1122 N 109.379 -1.50304 -0.473955 0
M  V30 1123 C 110.311 -1.65109 -1.58971 0
M  V30 1124 C 111.324 -0.532676 -1.53839 0
M  V30 1125 O 112.513 -0.805751 -1.59279 0
M  V30 1126 C 109.613 -1.61684 -2.97845 0
M  V30 1127 C 108.786 -2.8951 -3.27876 0
M  V30 1128 C 107.845 -2.78768 -4.4629 0
M  V30 1129 O 106.871 -3.52722 -4.46739 0
M  V30 1130 N 108.073 -1.9213 -5.47783 0
M  V30 1131 H 110.838 -2.61347 -1.46689 0
M  V30 1132 H 108.399 -1.47732 -0.662324 0
M  V30 1133 H 110.391 -1.52114 -3.75024 0
M  V30 1134 H 108.961 -0.731925 -3.03911 0
M  V30 1135 H 108.181 -3.13228 -2.39336 0
M  V30 1136 H 109.469 -3.74199 -3.4475 0
M  V30 1137 H 108.867 -1.31353 -5.50239 0
M  V30 1138 H 107.424 -1.88466 -6.23958 0
M  V30 1139 N 110.857 0.726932 -1.39834 0
M  V30 1140 C 111.789 1.85147 -1.35104 0
M  V30 1141 C 112.802 1.60736 -0.258392 0
M  V30 1142 O 113.991 1.70821 -0.517931 0
M  V30 1143 C 111.091 3.21332 -1.07697 0
M  V30 1144 C 110.264 3.73033 -2.28396 0
M  V30 1145 C 109.323 4.87802 -1.97322 0
M  V30 1146 O 108.349 5.01043 -2.70083 0
M  V30 1147 N 109.551 5.72768 -0.944273 0
M  V30 1148 H 112.316 1.89706 -2.32017 0
M  V30 1149 H 109.877 0.908006 -1.3404 0
M  V30 1150 H 111.869 3.95691 -0.849144 0
M  V30 1151 H 110.439 3.11992 -0.194909 0
M  V30 1152 H 109.659 2.89934 -2.6708 0
M  V30 1153 H 110.947 4.0431 -3.08887 0
M  V30 1154 H 110.345 5.64669 -0.341427 0
M  V30 1155 H 108.902 6.4716 -0.776346 0
M  V30 1156 N 112.336 1.25143 0.95797 0
M  V30 1157 C 113.613 1.00472 1.67823 0
M  V30 1158 C 113.993 -0.470056 2.058 0
M  V30 1159 O 113.341 -1.44663 1.76875 0
M  V30 1160 C 113.551 1.9372 2.90299 0
M  V30 1161 C 114.899 2.21371 3.62326 0
M  V30 1162 O 115.923 1.91451 3.00375 0
M  V30 1163 O 114.782 2.72231 4.7387 0
M  V30 1164 H 111.876 0.380752 0.734137 0
M  V30 1165 H 114.422 1.36283 1.01119 0
M  V30 1166 H 113.194 2.93316 2.59001 0
M  V30 1167 H 112.817 1.58286 3.64735 0
M  V30 1168 N 113.814 -1.1601 1.06675 0
M  V30 1169 C 114.762 -2.22586 0.675157 0
M  V30 1170 C 115.756 -1.66525 -0.310766 0
M  V30 1171 O 116.962 -1.79145 -0.175215 0
M  V30 1172 H 113.337 -0.724855 0.200223 0
M  V30 1173 H 115.308 -2.52899 1.58381 0
M  V30 1174 C 114.057 -3.47604 0.0817162 0
M  V30 1175 H 113.38 -3.91058 0.831484 0
M  V30 1176 H 114.82 -4.23718 -0.154708 0
M  V30 1177 C 113.279 -3.15718 -1.17576 0
M  V30 1178 O 113.809 -3.31878 -2.26318 0
M  V30 1179 N 112.015 -2.69816 -1.07923 0
M  V30 1180 H 111.562 -2.56866 -0.194293 0
M  V30 1181 H 111.52 -2.48855 -1.92141 0
M  V30 1182 N 115.292 -0.849877 -1.32721 0
M  V30 1183 C 116.24 -0.279745 -2.30912 0
M  V30 1184 C 117.234 0.594278 -1.58634 0
M  V30 1185 O 118.44 0.482613 -1.73409 0
M  V30 1186 H 114.815 -0.0717521 -0.748569 0
M  V30 1187 H 116.786 -1.12222 -2.76494 0
M  V30 1188 C 115.535 0.521108 -3.43773 0
M  V30 1189 H 114.858 -0.142141 -3.99547 0
M  V30 1190 H 116.298 0.885693 -4.14646 0
M  V30 1191 C 114.757 1.70442 -2.90605 0
M  V30 1192 O 115.287 2.8034 -2.87702 0
M  V30 1193 N 113.493 1.52991 -2.47067 0
M  V30 1194 H 113.04 0.635914 -2.49628 0
M  V30 1195 H 112.998 2.32311 -2.11847 0
M  V30 1196 N 116.77 1.45427 -0.607355 0
M  V30 1197 C 118.186 1.57283 -0.270985 0
M  V30 1198 C 118.386 1.59875 1.22647 0
M  V30 1199 O 117.442 1.52893 2.00948 0
M  V30 1200 C 118.755 2.85566 -0.941952 0
M  V30 1201 C 120.303 2.9924 -0.917849 0
M  V30 1202 C 120.778 4.30293 -1.56882 0
M  V30 1203 N 122.269 4.37051 -1.5343 0
M  V30 1204 C 123.004 5.37123 -2.00715 0
M  V30 1205 N 122.5 6.43734 -2.56084 0
M  V30 1206 N 124.293 5.28479 -1.91484 0
M  V30 1207 H 116.444 1.41988 -1.57966 0
M  V30 1208 H 118.707 0.67885 -0.661715 0
M  V30 1209 H 118.413 2.8955 -1.99633 0
M  V30 1210 H 118.287 3.74322 -0.465096 0
M  V30 1211 H 120.674 2.94822 0.127984 0
M  V30 1212 H 120.755 2.11895 -1.43297 0
M  V30 1213 H 120.399 4.35469 -2.61398 0
M  V30 1214 H 120.329 5.16454 -1.02873 0
M  V30 1215 H 122.82 3.60615 -1.12982 0
M  V30 1216 H 123.133 7.16341 -2.89958 0
M  V30 1217 H 121.478 6.44485 -2.60122 0
M  V30 1218 H 124.669 4.44098 -1.47967 0
M  V30 1219 H 124.842 6.0632 -2.28648 0
M  V30 1220 N 118.248 0.346503 1.53744 0
M  V30 1221 C 119.659 -0.136779 1.86198 0
M  V30 1222 C 120.01 -1.49749 1.26766 0
M  V30 1223 O 119.135 -2.08417 0.582355 0
M  V30 1224 C 119.73 -0.254966 3.37839 0
M  V30 1225 C 118.289 -0.682482 3.70161 0
M  V30 1226 C 117.436 0.181981 2.76702 0
M  V30 1227 H 120.387 0.565994 1.48264 0
M  V30 1228 H 120.408 -1.08195 3.64793 0
M  V30 1229 H 119.92 0.735526 3.81066 0
M  V30 1230 H 118.021 -1.68189 3.3248 0
M  V30 1231 H 118.134 -0.470326 4.76786 0
M  V30 1232 H 116.498 -0.34615 2.52337 0
M  V30 1233 H 117.281 1.16966 3.2276 0
M  V30 1234 N 119.726 -1.57421 0.075193 0
M  V30 1235 C 120.974 -1.93236 -0.591974 0
M  V30 1236 C 121.295 -0.956241 -1.69944 0
M  V30 1237 O 120.565 -0.00494792 -1.95899 0
M  V30 1238 H 119.145 -0.713355 -0.22166 0
M  V30 1239 H 121.807 -1.9444 0.133848 0
M  V30 1240 H 120.903 -2.95131 -1.01509 0
M  V30 1241 N 121.204 0.198386 -1.56346 0
M  V30 1242 C 122.453 0.917451 -1.79627 0
M  V30 1243 C 122.766 1.8456 -0.64784 0
M  V30 1244 O 123.972 2.60504 -0.764859 0
M  V30 1245 C 122.428 1.68175 -3.18191 0
M  V30 1246 C 122.036 0.798589 -4.40825 0
M  V30 1247 C 123.78 2.39065 -3.50782 0
M  V30 1248 C 121.687 1.56157 -5.70411 0
M  V30 1249 H 120.617 0.346317 -0.669762 0
M  V30 1250 H 123.268 0.170801 -1.82703 0
M  V30 1251 H 121.65 2.47216 -3.09354 0
M  V30 1252 H 122.824 0.0470665 -4.60776 0
M  V30 1253 H 121.139 0.200686 -4.15916 0
M  V30 1254 H 123.736 2.96692 -4.44835 0
M  V30 1255 H 124.079 3.13091 -2.74371 0
M  V30 1256 H 124.612 1.66993 -3.61052 0
M  V30 1257 H 121.351 0.864142 -6.49779 0
M  V30 1258 H 120.871 2.2871 -5.54483 0
M  V30 1259 H 122.55 2.11622 -6.11412 0
M  V30 1260 N 122.682 1.50554 0.465978 0
M  V30 1261 C 123.612 1.72722 1.57128 0
M  V30 1262 C 124.593 0.576294 1.6004 0
M  V30 1263 O 125.778 0.81598 1.76225 0
M  V30 1264 C 122.908 1.82605 2.95419 0
M  V30 1265 C 121.862 2.97835 3.07373 0
M  V30 1266 C 121.188 2.92867 4.47363 0
M  V30 1267 C 122.488 4.38265 2.84114 0
M  V30 1268 H 124.182 2.65267 1.38829 0
M  V30 1269 H 121.728 1.2765 0.666441 0
M  V30 1270 H 123.681 1.96698 3.72677 0
M  V30 1271 H 122.405 0.866858 3.14886 0
M  V30 1272 H 121.064 2.83401 2.3255 0
M  V30 1273 H 120.712 1.94783 4.63755 0
M  V30 1274 H 120.412 3.70227 4.56296 0
M  V30 1275 H 121.936 3.09015 5.26633 0
M  V30 1276 H 123.35 4.53198 3.51118 0
M  V30 1277 H 121.747 5.17115 3.04487 0
M  V30 1278 H 122.817 4.50281 1.7993 0
M  V30 1279 N 124.16 -0.719506 1.40217 0
M  V30 1280 C 125.388 -1.50864 1.41589 0
M  V30 1281 C 125.803 -1.88794 0.0145275 0
M  V30 1282 O 125.16 -1.55174 -0.960594 0
M  V30 1283 C 125.211 -2.78646 2.30302 0
M  V30 1284 O 124.932 -2.42321 3.64983 0
M  V30 1285 C 126.433 -3.72569 2.40224 0
M  V30 1286 H 123.653 -0.465709 0.48307 0
M  V30 1287 H 126.197 -0.88785 1.84221 0
M  V30 1288 H 124.352 -3.37019 1.91042 0
M  V30 1289 H 124.766 -3.24514 4.12057 0
M  V30 1290 H 126.24 -4.5908 3.06512 0
M  V30 1291 H 126.717 -4.15403 1.42608 0
M  V30 1292 H 127.323 -3.20109 2.80019 0
M  V30 1293 N 125.638 -1.25649 -0.95132 0
M  V30 1294 C 126.863 -1.13443 -1.73624 0
M  V30 1295 C 127.288 0.307565 -1.85568 0
M  V30 1296 O 126.646 1.22282 -1.33854 0
M  V30 1297 C 126.694 -1.79723 -3.12621 0
M  V30 1298 O 125.798 -1.07912 -3.98031 0
M  V30 1299 H 125.139 -0.395872 -0.533086 0
M  V30 1300 H 127.669 -1.66276 -1.1922 0
M  V30 1301 H 127.679 -1.86141 -3.63064 0
M  V30 1302 H 126.354 -2.84633 -3.03244 0
M  V30 1303 H 124.931 -1.09398 -3.56492 0
M  V30 1304 N 127.117 1.15442 -1.07289 0
M  V30 1305 C 128.394 1.82306 -0.708792 0
M  V30 1306 C 128.774 1.94991 0.808807 0
M  V30 1307 O 128.122 1.50085 1.72298 0
M  V30 1308 C 128.332 3.18695 -1.42247 0
M  V30 1309 C 129.68 3.94341 -1.57417 0
M  V30 1310 O 130.704 3.28247 -1.38319 0
M  V30 1311 O 129.563 5.12839 -1.88834 0
M  V30 1312 H 126.657 0.787628 -0.252132 0
M  V30 1313 H 129.203 1.22559 -1.17377 0
M  V30 1314 H 127.975 3.04557 -2.45684 0
M  V30 1315 H 127.598 3.86128 -0.948223 0
M  V30 1316 N 128.595 0.856903 1.32268 0
M  V30 1317 C 129.844 0.457599 1.96441 0
M  V30 1318 C 130.157 -0.992426 1.68553 0
M  V30 1319 O 131.363 -1.49727 2.26482 0
M  V30 1320 C 129.819 0.767358 3.51624 0
M  V30 1321 C 129.427 2.23326 3.88367 0
M  V30 1322 C 131.171 0.435887 4.22256 0
M  V30 1323 C 129.078 2.48613 5.36606 0
M  V30 1324 H 128.008 0.167387 0.735185 0
M  V30 1325 H 130.659 1.048 1.5063 0
M  V30 1326 H 129.041 0.106367 3.95857 0
M  V30 1327 H 130.215 2.93623 3.55137 0
M  V30 1328 H 128.53 2.52948 3.30766 0
M  V30 1329 H 131.127 0.602202 5.31298 0
M  V30 1330 H 131.47 -0.622672 4.11617 0
M  V30 1331 H 132.003 1.05286 3.83614 0
M  V30 1332 H 128.742 3.53101 5.52268 0
M  V30 1333 H 128.262 1.82896 5.71235 0
M  V30 1334 H 129.941 2.32676 6.03714 0
M  V30 1335 N 130.073 -1.45103 0.615059 0
M  V30 1336 C 131.02 -2.30586 -0.0993978 0
M  V30 1337 C 131.99 -1.42544 -0.852669 0
M  V30 1338 O 133.175 -1.71465 -0.836917 0
M  V30 1339 C 130.315 -3.27572 -1.08583 0
M  V30 1340 C 129.428 -4.30717 -0.332656 0
M  V30 1341 C 128.563 -5.14807 -1.30947 0
M  V30 1342 C 127.602 -6.09673 -0.544538 0
M  V30 1343 N 126.739 -6.86517 -1.47101 0
M  V30 1344 H 131.579 -2.91144 0.635542 0
M  V30 1345 H 129.116 -1.4346 0.325206 0
M  V30 1346 H 131.074 -3.82276 -1.67095 0
M  V30 1347 H 129.704 -2.68751 -1.78809 0
M  V30 1348 H 128.756 -3.78615 0.368107 0
M  V30 1349 H 130.068 -4.98102 0.263842 0
M  V30 1350 H 129.222 -5.73948 -1.96643 0
M  V30 1351 H 127.961 -4.47458 -1.9399 0
M  V30 1352 H 126.966 -5.49656 0.126003 0
M  V30 1353 H 128.191 -6.79052 0.080947 0
M  V30 1354 H 126.137 -6.21851 -2.08895 0
M  V30 1355 H 126.054 -7.50281 -0.928137 0
M  V30 1356 H 127.322 -7.50194 -2.11731 0
M  V30 1357 N 131.551 -0.354651 -1.53558 0
M  V30 1358 C 132.779 0.239515 -2.05509 0
M  V30 1359 C 133.194 1.4333 -1.2289 0
M  V30 1360 O 132.551 1.80538 -0.266899 0
M  V30 1361 C 132.602 0.643719 -3.55723 0
M  V30 1362 O 132.323 -0.502602 -4.35207 0
M  V30 1363 C 133.824 1.29743 -4.23889 0
M  V30 1364 H 131.044 0.0442697 -0.669538 0
M  V30 1365 H 133.588 -0.509856 -1.98042 0
M  V30 1366 H 131.743 1.34302 -3.63376 0
M  V30 1367 H 132.157 -0.178172 -5.24197 0
M  V30 1368 H 133.631 1.53091 -5.30346 0
M  V30 1369 H 134.108 2.25441 -3.76926 0
M  V30 1370 H 134.714 0.639865 -4.20459 0
M  V30 1371 N 133.029 1.57378 -0.0835403 0
M  V30 1372 C 133.939 2.16897 0.894021 0
M  V30 1373 C 134.955 1.13528 1.31861 0
M  V30 1374 O 136.131 1.45848 1.3889 0
M  V30 1375 C 133.196 2.72831 2.13925 0
M  V30 1376 C 132.257 3.91115 1.76997 0
M  V30 1377 C 131.49 4.44371 2.95584 0
M  V30 1378 O 131.713 3.96596 4.09961 0
M  V30 1379 O 130.647 5.35549 2.74719 0
M  V30 1380 H 134.473 3.00814 0.417679 0
M  V30 1381 H 132.058 1.48741 0.140181 0
M  V30 1382 H 133.94 3.0863 2.86924 0
M  V30 1383 H 132.615 1.91967 2.60635 0
M  V30 1384 H 131.522 3.60148 1.01214 0
M  V30 1385 H 132.855 4.73307 1.3506 0
M  V30 1386 N 134.507 -0.190092 1.56449 0
M  V30 1387 C 135.437 -1.23816 1.97969 0
M  V30 1388 C 136.418 -1.47201 0.852395 0
M  V30 1389 O 137.603 -1.58854 1.1171 0
M  V30 1390 C 134.733 -2.5813 2.3235 0
M  V30 1391 C 133.687 -2.49348 3.47864 0
M  V30 1392 C 133.013 -3.8798 3.67934 0
M  V30 1393 C 134.313 -2.01424 4.81898 0
M  V30 1394 H 136.007 -0.89311 2.85769 0
M  V30 1395 H 133.553 -0.428177 1.37487 0
M  V30 1396 H 135.506 -3.31637 2.59991 0
M  V30 1397 H 134.23 -2.94386 1.41438 0
M  V30 1398 H 132.889 -1.78297 3.20321 0
M  V30 1399 H 132.537 -4.21597 2.74344 0
M  V30 1400 H 132.237 -3.82978 4.45648 0
M  V30 1401 H 133.761 -4.63101 3.97957 0
M  V30 1402 H 135.175 -2.64693 5.08538 0
M  V30 1403 H 133.572 -2.07413 5.63116 0
M  V30 1404 H 134.642 -0.967677 4.75146 0
M  V30 1405 N 135.985 -1.50799 -0.457987 0
M  V30 1406 C 136.895 -1.73426 -1.57989 0
M  V30 1407 C 137.911 -0.617745 -1.62665 0
M  V30 1408 O 139.087 -0.897614 -1.80291 0
M  V30 1409 C 136.152 -1.83557 -2.94122 0
M  V30 1410 C 135.213 -3.07345 -2.99729 0
M  V30 1411 C 134.446 -3.16983 -4.29368 0
M  V30 1412 O 134.669 -2.33077 -5.20607 0
M  V30 1413 O 133.603 -4.09812 -4.40837 0
M  V30 1414 H 137.429 -2.68555 -1.41817 0
M  V30 1415 H 135.014 -1.35052 -0.638859 0
M  V30 1416 H 136.896 -1.92326 -3.74952 0
M  V30 1417 H 135.571 -0.916137 -3.10465 0
M  V30 1418 H 134.478 -3.04068 -2.1793 0
M  V30 1419 H 135.811 -3.9891 -2.88326 0
M  V30 1420 N 137.463 0.71206 -1.40597 0
M  V30 1421 C 138.688 1.50617 -1.42581 0
M  V30 1422 C 139.113 1.88079 -0.0282102 0
M  V30 1423 O 138.471 1.53511 0.964579 0
M  V30 1424 C 138.519 2.7557 -2.3258 0
M  V30 1425 O 137.623 3.72414 -1.77148 0
M  V30 1426 H 136.964 0.453966 -0.484573 0
M  V30 1427 H 139.494 0.876649 -1.84868 0
M  V30 1428 H 139.504 3.2406 -2.47889 0
M  V30 1429 H 138.179 2.47639 -3.34138 0
M  V30 1430 H 136.756 3.31276 -1.71204 0
M  V30 1431 N 138.941 1.26152 0.944643 0
M  V30 1432 C 139.888 1.07408 2.04285 0
M  V30 1433 C 140.858 -0.0198413 1.66088 0
M  V30 1434 O 142.043 0.139264 1.90291 0
M  V30 1435 C 139.183 0.70945 3.37729 0
M  V30 1436 C 138.296 1.87926 3.88983 0
M  V30 1437 C 137.431 1.45807 5.10797 0
M  V30 1438 C 136.47 2.5964 5.54305 0
M  V30 1439 N 135.607 2.18226 6.67324 0
M  V30 1440 H 140.447 2.01389 2.1965 0
M  V30 1441 H 137.984 1.00275 1.07626 0
M  V30 1442 H 139.942 0.478948 4.14442 0
M  V30 1443 H 138.572 -0.193389 3.2222 0
M  V30 1444 H 137.624 2.22279 3.08701 0
M  V30 1445 H 138.936 2.73377 4.17213 0
M  V30 1446 H 138.09 1.18781 5.94959 0
M  V30 1447 H 136.829 0.574414 4.84305 0
M  V30 1448 H 135.834 2.87399 4.68702 0
M  V30 1449 H 137.059 3.48599 5.828 0
M  V30 1450 H 135.005 1.3229 6.42523 0
M  V30 1451 H 134.922 2.97221 6.95123 0
M  V30 1452 H 136.19 1.94403 7.54869 0
M  V30 1453 N 140.419 -1.14872 1.07899 0
M  V30 1454 C 141.329 -2.2341 0.715915 0
M  V30 1455 C 142.345 -1.71808 -0.275306 0
M  V30 1456 O 143.521 -2.01039 -0.120545 0
M  V30 1457 C 140.586 -3.46474 0.125168 0
M  V30 1458 C 139.647 -4.13039 1.17034 0
M  V30 1459 C 138.88 -5.30229 0.607688 0
M  V30 1460 O 139.103 -5.675 -0.574497 0
M  V30 1461 O 138.037 -5.86444 1.35526 0
M  V30 1462 H 141.863 -2.56808 1.62121 0
M  V30 1463 H 139.448 -1.22702 0.852322 0
M  V30 1464 H 141.33 -4.20917 -0.201729 0
M  V30 1465 H 140.005 -3.14811 -0.753364 0
M  V30 1466 H 138.912 -3.40493 1.54968 0
M  V30 1467 H 140.245 -4.48796 2.02097 0
M  V30 1468 N 141.898 -0.863906 -1.31812 0
M  V30 1469 C 142.828 -0.330843 -2.31144 0
M  V30 1470 C 143.809 0.575005 -1.60087 0
M  V30 1471 O 144.994 0.493304 -1.8783 0
M  V30 1472 C 142.124 0.47374 -3.44054 0
M  V30 1473 C 141.078 -0.338481 -4.26659 0
M  V30 1474 C 140.404 0.591412 -5.31419 0
M  V30 1475 C 141.704 -1.56926 -4.98168 0
M  V30 1476 H 143.398 -1.16086 -2.75979 0
M  V30 1477 H 140.944 -0.559657 -1.32679 0
M  V30 1478 H 142.897 0.857143 -4.12591 0
M  V30 1479 H 141.621 1.33721 -2.9797 0
M  V30 1480 H 140.28 -0.703754 -3.59782 0
M  V30 1481 H 139.928 1.45199 -4.81587 0
M  V30 1482 H 139.628 0.0519022 -5.87577 0
M  V30 1483 H 141.152 0.97179 -6.02817 0
M  V30 1484 H 142.566 -1.25764 -5.59336 0
M  V30 1485 H 140.963 -2.04739 -5.64094 0
M  V30 1486 H 142.033 -2.32544 -4.25501 0
M  V30 1487 N 143.376 1.44774 -0.622745 0
M  V30 1488 C 144.601 2.06999 -0.128968 0
M  V30 1489 C 145.026 1.4617 1.1839 0
M  V30 1490 O 144.384 0.560007 1.72434 0
M  V30 1491 C 144.432 3.60595 -0.0188351 0
M  V30 1492 O 143.536 3.99398 1.02739 0
M  V30 1493 H 142.877 0.659047 -0.0809544 0
M  V30 1494 H 145.407 1.85784 -0.85705 0
M  V30 1495 H 145.417 4.07627 0.174476 0
M  V30 1496 H 144.092 4.04252 -0.977384 0
M  V30 1497 H 142.669 3.64011 0.809326 0
M  V30 1498 N 144.854 0.36279 1.53368 0
M  V30 1499 C 145.817 -0.472679 2.24273 0
M  V30 1500 C 146.817 -1.012 1.24961 0
M  V30 1501 O 148.007 -0.898194 1.49259 0
M  V30 1502 C 145.139 -1.66039 2.97731 0
M  V30 1503 H 146.332 0.14773 2.99536 0
M  V30 1504 H 143.885 0.114434 1.55881 0
M  V30 1505 H 144.62 -2.31896 2.26704 0
M  V30 1506 H 144.405 -1.28066 3.70596 0
M  V30 1507 H 145.895 -2.25252 3.51641 0
M  V30 1508 N 146.332 -1.57332 0.0918853 0
M  V30 1509 C 147.56 -1.98574 -0.581048 0
M  V30 1510 C 147.975 -0.970903 -1.61923 0
M  V30 1511 O 147.332 0.0399054 -1.82456 0
M  V30 1512 C 147.383 -3.39872 -1.23164 0
M  V30 1513 O 147.104 -4.37469 -0.234989 0
M  V30 1514 C 148.605 -3.96099 -1.99049 0
M  V30 1515 H 145.825 -0.65261 -0.156018 0
M  V30 1516 H 148.369 -2.0379 0.170225 0
M  V30 1517 H 146.524 -3.35679 -1.93386 0
M  V30 1518 H 146.938 -5.19751 -0.70418 0
M  V30 1519 H 148.412 -4.97127 -2.39934 0
M  V30 1520 H 148.889 -3.3374 -2.85507 0
M  V30 1521 H 149.495 -4.03755 -1.3365 0
M  V30 1522 N 147.81 0.181792 -1.56548 0
M  V30 1523 C 149.056 0.901431 -1.81665 0
M  V30 1524 C 149.389 1.82347 -0.668075 0
M  V30 1525 O 148.664 1.91669 0.330615 0
M  V30 1526 C 148.947 1.70618 -3.17115 0
M  V30 1527 C 148.8 0.807964 -4.42484 0
M  V30 1528 C 150.119 2.67605 -3.49393 0
M  V30 1529 H 147.238 0.32627 -0.660846 0
M  V30 1530 H 149.88 0.168134 -1.89255 0
M  V30 1531 H 148.03 2.33133 -3.10775 0
M  V30 1532 H 149.702 0.19649 -4.60881 0
M  V30 1533 H 147.945 0.115411 -4.33646 0
M  V30 1534 H 148.616 1.40632 -5.33785 0
M  V30 1535 H 151.092 2.15218 -3.56118 0
M  V30 1536 H 149.968 3.20985 -4.45264 0
M  V30 1537 H 150.229 3.47298 -2.73563 0
M  V30 1538 N 149.288 1.51039 0.449983 0
M  V30 1539 C 150.251 1.70863 1.5277 0
M  V30 1540 C 151.251 0.578846 1.5002 0
M  V30 1541 O 152.441 0.846213 1.52266 0
M  V30 1542 C 149.573 1.75341 2.9235 0
M  V30 1543 H 150.766 2.67034 1.36502 0
M  V30 1544 H 148.319 1.40838 0.677812 0
M  V30 1545 H 149.054 0.809383 3.14037 0
M  V30 1546 H 148.839 2.57436 2.95752 0
M  V30 1547 H 150.329 1.92559 3.70555 0
M  V30 1548 N 150.766 -0.704594 1.40972 0
M  V30 1549 C 151.676 -1.84856 1.44448 0
M  V30 1550 C 152.692 -1.70726 0.335961 0
M  V30 1551 O 153.868 -1.92799 0.582276 0
M  V30 1552 C 150.933 -3.20758 1.31587 0
M  V30 1553 C 149.994 -3.47063 2.52677 0
M  V30 1554 C 149.227 -4.76481 2.4042 0
M  V30 1555 O 149.45 -5.52341 1.42391 0
M  V30 1556 O 148.384 -5.03367 3.30007 0
M  V30 1557 H 152.21 -1.8488 2.40942 0
M  V30 1558 H 149.795 -0.85647 1.22413 0
M  V30 1559 H 151.677 -4.01913 1.26665 0
M  V30 1560 H 150.352 -3.21438 0.382049 0
M  V30 1561 H 149.259 -2.65873 2.63177 0
M  V30 1562 H 150.592 -3.5119 3.44858 0
M  V30 1563 N 152.244 -1.26651 -0.937939 0
M  V30 1564 C 153.469 -1.15279 -1.72411 0
M  V30 1565 C 153.894 0.287866 -1.85884 0
M  V30 1566 O 153.252 1.20855 -1.35143 0
M  V30 1567 C 153.3 -1.83028 -3.10698 0
M  V30 1568 O 152.404 -1.12128 -3.96864 0
M  V30 1569 H 151.745 -0.401504 -0.528858 0
M  V30 1570 H 154.275 -1.67531 -1.1745 0
M  V30 1571 H 154.285 -1.89981 -3.6107 0
M  V30 1572 H 152.96 -2.87833 -3.00208 0
M  V30 1573 H 151.537 -1.13173 -3.55312 0
M  V30 1574 N 153.722 1.14298 -1.08507 0
M  V30 1575 C 154.655 2.18447 -0.660004 0
M  V30 1576 C 155.633 1.59242 0.328749 0
M  V30 1577 O 156.817 1.87062 0.232367 0
M  V30 1578 C 153.944 3.38688 0.0290807 0
M  V30 1579 C 152.99 4.1646 -0.919982 0
M  V30 1580 S 153.823 4.77334 -2.42718 0
M  V30 1581 C 154.979 6.00931 -1.75024 0
M  V30 1582 H 155.212 2.54166 -1.54231 0
M  V30 1583 H 152.745 1.25446 -0.900149 0
M  V30 1584 H 154.703 4.08342 0.420378 0
M  V30 1585 H 153.364 3.01289 0.887895 0
M  V30 1586 H 152.557 5.02529 -0.384751 0
M  V30 1587 H 152.159 3.52414 -1.25223 0
M  V30 1588 H 154.451 6.69017 -1.06877 0
M  V30 1589 H 155.394 6.59044 -2.58971 0
M  V30 1590 H 155.802 5.51089 -1.22317 0
M  V30 1591 N 155.201 0.870884 1.31352 0
M  V30 1592 C 156.449 0.48132 1.96285 0
M  V30 1593 C 156.77 -0.969813 1.69173 0
M  V30 1594 O 156.04 -1.67998 1.00764 0
M  V30 1595 H 154.62 0.175002 0.726212 0
M  V30 1596 H 157.282 1.11087 1.60143 0
M  V30 1597 H 156.378 0.639825 3.05471 0
M  V30 1598 N 156.679 -1.44442 0.630414 0
M  V30 1599 C 157.609 -2.33418 -0.0618083 0
M  V30 1600 C 158.59 -1.48165 -0.835541 0
M  V30 1601 O 159.775 -1.76886 -0.801564 0
M  V30 1602 C 156.905 -3.31222 -1.04449 0
M  V30 1603 C 155.859 -4.26288 -0.382436 0
M  V30 1604 C 155.185 -5.13954 -1.47497 0
M  V30 1605 C 156.485 -5.1744 0.710865 0
M  V30 1606 H 158.179 -2.91548 0.681184 0
M  V30 1607 H 155.725 -1.40191 0.329026 0
M  V30 1608 H 157.678 -3.92351 -1.53748 0
M  V30 1609 H 156.402 -2.71299 -1.81836 0
M  V30 1610 H 155.061 -3.6649 0.0899054 0
M  V30 1611 H 154.709 -4.50385 -2.2397 0
M  V30 1612 H 154.409 -5.7837 -1.03737 0
M  V30 1613 H 155.933 -5.77955 -1.96979 0
M  V30 1614 H 157.347 -5.72509 0.300996 0
M  V30 1615 H 155.744 -5.90455 1.07156 0
M  V30 1616 H 156.814 -4.58496 1.57829 0
M  V30 1617 N 158.157 -0.370918 -1.53173 0
M  V30 1618 C 159.387 0.217389 -2.05453 0
M  V30 1619 C 159.795 1.42568 -1.24382 0
M  V30 1620 O 159.138 1.81571 -0.278839 0
M  V30 1621 C 159.2 0.669827 -3.53205 0
M  V30 1622 C 158.864 -0.4225 -4.55043 0
M  V30 1623 C 159.861 -1.27407 -5.04047 0
M  V30 1624 C 157.546 -0.58427 -4.9889 0
M  V30 1625 C 159.54 -2.27271 -5.95505 0
M  V30 1626 C 157.227 -1.58627 -5.90153 0
M  V30 1627 C 158.225 -2.42892 -6.38351 0
M  V30 1628 O 157.913 -3.41382 -7.27814 0
M  V30 1629 H 157.645 0.0408171 -0.674767 0
M  V30 1630 H 160.199 -0.5292 -1.98466 0
M  V30 1631 H 158.429 1.4681 -3.57748 0
M  V30 1632 H 160.118 1.18173 -3.88317 0
M  V30 1633 H 160.884 -1.16031 -4.70916 0
M  V30 1634 H 156.763 0.061851 -4.60959 0
M  V30 1635 H 160.307 -2.93079 -6.33049 0
M  V30 1636 H 156.204 -1.70048 -6.22699 0
M  V30 1637 H 156.972 -3.37173 -7.45826 0
M  V30 1638 N 159.635 1.57281 -0.100228 0
M  V30 1639 C 160.568 2.09976 0.893612 0
M  V30 1640 C 161.546 1.01155 1.27304 0
M  V30 1641 O 162.73 1.28687 1.37739 0
M  V30 1642 C 159.857 2.58098 2.19324 0
M  V30 1643 C 158.903 3.78626 1.96328 0
M  V30 1644 S 159.736 5.21959 1.19662 0
M  V30 1645 C 160.892 5.73435 2.50844 0
M  V30 1646 H 161.125 2.93946 0.44534 0
M  V30 1647 H 158.658 1.53985 0.113167 0
M  V30 1648 H 160.616 2.8648 2.94005 0
M  V30 1649 H 159.277 1.74344 2.61272 0
M  V30 1650 H 158.47 4.10382 2.92579 0
M  V30 1651 H 158.072 3.50763 1.29775 0
M  V30 1652 H 160.364 5.82015 3.46792 0
M  V30 1653 H 161.307 6.7185 2.23659 0
M  V30 1654 H 161.715 5.01395 2.59352 0
M  V30 1655 N 161.113 -0.173488 1.56642 0
M  V30 1656 C 162.39 -0.917617 1.7274 0
M  V30 1657 C 162.77 -2.00484 0.661027 0
M  V30 1658 O 162.118 -2.26184 -0.32453 0
M  V30 1659 C 162.328 -1.48433 3.15862 0
M  V30 1660 C 163.676 -1.95809 3.76754 0
M  V30 1661 O 164.7 -1.58231 3.19126 0
M  V30 1662 O 163.559 -2.65024 4.77938 0
M  V30 1663 H 160.653 -0.431772 0.705338 0
M  V30 1664 H 163.199 -0.161487 1.6893 0
M  V30 1665 H 161.971 -0.701715 3.84957 0
M  V30 1666 H 161.594 -2.30471 3.23989 0
M  V30 1667 N 162.591 -1.51276 -0.441967 0
M  V30 1668 C 163.816 -1.67799 -1.21895 0
M  V30 1669 C 164.241 -0.372864 -1.84367 0
M  V30 1670 O 163.599 0.666501 -1.68604 0
M  V30 1671 C 163.647 -2.79199 -2.28211 0
M  V30 1672 O 162.751 -2.42479 -3.33583 0
M  V30 1673 H 162.092 -0.559649 -0.357336 0
M  V30 1674 H 164.622 -1.97815 -0.522522 0
M  V30 1675 H 164.632 -3.03146 -2.73069 0
M  V30 1676 H 163.307 -3.73906 -1.82118 0
M  V30 1677 H 161.884 -2.29087 -2.94234 0
M  V30 1678 N 164.069 0.697108 -1.41344 0
M  V30 1679 C 165.315 1.4593 -1.40827 0
M  V30 1680 C 165.648 1.94193 -0.0167098 0
M  V30 1681 O 164.923 1.69425 0.955263 0
M  V30 1682 C 165.206 2.67229 -2.41373 0
M  V30 1683 C 165.059 2.24741 -3.8963 0
M  V30 1684 C 166.378 3.69423 -2.39196 0
M  V30 1685 H 163.497 0.529303 -0.512842 0
M  V30 1686 H 166.139 0.794112 -1.72609 0
M  V30 1687 H 164.289 3.23982 -2.14401 0
M  V30 1688 H 165.961 1.73327 -4.27499 0
M  V30 1689 H 164.204 1.56542 -4.0457 0
M  V30 1690 H 164.875 3.1177 -4.55525 0
M  V30 1691 H 167.351 3.2234 -2.63128 0
M  V30 1692 H 166.227 4.51907 -3.11563 0
M  V30 1693 H 166.488 4.19012 -1.41001 0
M  V30 1694 N 165.547 1.27147 0.931209 0
M  V30 1695 C 166.963 1.04475 1.20653 0
M  V30 1696 C 167.163 -0.223885 2.00252 0
M  V30 1697 O 166.219 -0.930332 2.34736 0
M  V30 1698 C 167.532 2.28209 1.95809 0
M  V30 1699 C 169.08 2.33211 2.08762 0
M  V30 1700 C 169.555 3.56665 2.87323 0
M  V30 1701 N 171.046 3.57201 2.94892 0
M  V30 1702 C 171.781 4.49395 3.56134 0
M  V30 1703 N 171.277 5.51889 4.18796 0
M  V30 1704 N 173.07 4.37026 3.53504 0
M  V30 1705 H 165.221 2.08612 0.399333 0
M  V30 1706 H 167.484 0.917312 0.239253 0
M  V30 1707 H 167.19 3.20538 1.44736 0
M  V30 1708 H 167.064 2.33247 2.96438 0
M  V30 1709 H 169.451 1.41391 2.59023 0
M  V30 1710 H 169.532 2.32178 1.07364 0
M  V30 1711 H 169.176 4.4882 2.37746 0
M  V30 1712 H 169.106 3.54948 3.88998 0
M  V30 1713 H 171.597 2.83074 2.50354 0
M  V30 1714 H 171.91 6.18409 4.63454 0
M  V30 1715 H 170.255 5.55735 4.17353 0
M  V30 1716 H 173.446 3.56166 3.03749 0
M  V30 1717 H 173.619 5.09067 4.00942 0
M  V30 1718 N 167.025 -1.13721 1.09112 0
M  V30 1719 C 168.302 -1.81155 0.737706 0
M  V30 1720 C 168.682 -1.96253 -0.777683 0
M  V30 1721 O 168.03 -1.52807 -1.69889 0
M  V30 1722 C 168.24 -3.16392 1.47299 0
M  V30 1723 C 169.588 -3.91787 1.63671 0
M  V30 1724 O 170.612 -3.26005 1.43524 0
M  V30 1725 O 169.471 -5.0977 1.96969 0
M  V30 1726 H 166.565 -0.783518 0.26463 0
M  V30 1727 H 169.111 -1.20676 1.19312 0
M  V30 1728 H 167.883 -3.0061 2.50498 0
M  V30 1729 H 167.506 -3.8457 1.00953 0
M  V30 1730 N 168.503 -0.877838 -1.30888 0
M  V30 1731 C 169.466 -0.344265 -2.266 0
M  V30 1732 C 170.466 0.50922 -1.52524 0
M  V30 1733 O 171.656 0.317398 -1.71284 0
M  V30 1734 C 168.788 0.510198 -3.37061 0
M  V30 1735 H 169.981 -1.1893 -2.7531 0
M  V30 1736 H 167.534 -0.654088 -1.41956 0
M  V30 1737 H 168.269 1.37612 -2.93655 0
M  V30 1738 H 168.054 -0.101047 -3.9197 0
M  V30 1739 H 169.544 0.875537 -4.08319 0
M  V30 1740 N 169.982 1.44106 -0.638065 0
M  V30 1741 C 171.259 1.95453 -0.0759321 0
M  V30 1742 C 171.639 1.57984 1.40015 0
M  V30 1743 O 170.987 0.857361 2.11806 0
M  V30 1744 C 171.197 3.47655 -0.306132 0
M  V30 1745 C 172.545 4.24114 -0.203008 0
M  V30 1746 O 173.569 3.55405 -0.237871 0
M  V30 1747 O 172.428 5.46381 -0.113827 0
M  V30 1748 H 169.522 0.826797 0.0183332 0
M  V30 1749 H 172.068 1.54122 -0.710251 0
M  V30 1750 H 170.84 3.68 -1.3301 0
M  V30 1751 H 170.463 3.95949 0.361991 0
M  V30 1752 N 171.46 0.379036 1.52974 0
M  V30 1753 C 172.69 -0.20649 2.05566 0
M  V30 1754 C 173.098 -1.41906 1.25137 0
M  V30 1755 O 172.441 -1.81421 0.288464 0
M  V30 1756 C 172.503 -0.651086 3.53555 0
M  V30 1757 C 172.167 0.446626 4.54812 0
M  V30 1758 C 173.164 1.30079 5.03364 0
M  V30 1759 C 170.849 0.610719 4.98573 0
M  V30 1760 C 172.843 2.30426 5.94292 0
M  V30 1761 C 170.53 1.61754 5.89304 0
M  V30 1762 C 171.528 2.46274 6.37054 0
M  V30 1763 O 171.216 3.45237 7.25994 0
M  V30 1764 H 170.948 -0.0372381 0.674974 0
M  V30 1765 H 173.502 0.539718 1.98182 0
M  V30 1766 H 171.732 -1.44911 3.58522 0
M  V30 1767 H 173.421 -1.16112 3.88938 0
M  V30 1768 H 174.187 1.18527 4.70294 0
M  V30 1769 H 170.066 -0.0374044 4.60985 0
M  V30 1770 H 173.61 2.96432 6.31485 0
M  V30 1771 H 169.507 1.73348 6.21788 0
M  V30 1772 H 170.275 3.41124 7.44027 0
M  V30 1773 N 172.938 -1.57226 0.108567 0
M  V30 1774 C 174.163 -1.99604 -0.563303 0
M  V30 1775 C 174.588 -0.987563 -1.6009 0
M  V30 1776 O 173.946 0.0421687 -1.81251 0
M  V30 1777 C 173.994 -3.40902 -1.17552 0
M  V30 1778 O 173.098 -3.42896 -2.2912 0
M  V30 1779 H 172.439 -0.648704 -0.1417 0
M  V30 1780 H 174.969 -2.03679 0.193961 0
M  V30 1781 H 174.979 -3.78886 -1.51357 0
M  V30 1782 H 173.654 -4.1382 -0.415445 0
M  V30 1783 H 172.231 -3.1672 -1.96832 0
M  V30 1784 N 174.416 0.165178 -1.56732 0
M  V30 1785 C 175.646 0.894919 -1.86212 0
M  V30 1786 C 176.054 1.76066 -0.692627 0
M  V30 1787 O 175.397 1.80387 0.347303 0
M  V30 1788 C 175.459 1.8174 -3.10179 0
M  V30 1789 C 175.123 1.13064 -4.42793 0
M  V30 1790 C 176.12 0.493169 -5.17556 0
M  V30 1791 C 173.805 1.12556 -4.89527 0
M  V30 1792 C 175.799 -0.140209 -6.37246 0
M  V30 1793 C 173.486 0.488366 -6.09145 0
M  V30 1794 C 174.484 -0.143411 -6.82849 0
M  V30 1795 O 174.172 -0.77055 -8.00199 0
M  V30 1796 H 173.904 0.265114 -0.621844 0
M  V30 1797 H 176.458 0.168242 -2.0471 0
M  V30 1798 H 174.688 2.58455 -2.87642 0
M  V30 1799 H 176.377 2.4175 -3.26055 0
M  V30 1800 H 177.143 0.489023 -4.82528 0
M  V30 1801 H 173.022 1.60672 -4.32094 0
M  V30 1802 H 176.566 -0.633932 -6.94714 0
M  V30 1803 H 172.463 0.490116 -6.43637 0
M  V30 1804 H 173.231 -0.670408 -8.1575 0
M  V30 1805 N 175.894 1.51508 0.433938 0
M  V30 1806 C 176.804 1.75917 1.5521 0
M  V30 1807 C 177.82 0.643545 1.61662 0
M  V30 1808 O 178.996 0.926183 1.7884 0
M  V30 1809 C 176.061 1.88213 2.91164 0
M  V30 1810 C 175.122 3.12074 2.94802 0
M  V30 1811 C 174.355 3.23774 4.24271 0
M  V30 1812 O 174.578 2.4133 5.16833 0
M  V30 1813 O 173.512 4.16774 4.34262 0
M  V30 1814 H 177.338 2.70777 1.37527 0
M  V30 1815 H 174.923 1.36051 0.617293 0
M  V30 1816 H 176.805 1.98267 3.71845 0
M  V30 1817 H 175.48 0.965413 3.08968 0
M  V30 1818 H 174.387 3.07497 2.13065 0
M  V30 1819 H 175.72 4.03446 2.81943 0
M  V30 1820 N 177.372 -0.689602 1.41712 0
M  V30 1821 C 178.304 -1.815 1.39966 0
M  V30 1822 C 179.317 -1.59995 0.300917 0
M  V30 1823 O 180.506 -1.69387 0.563039 0
M  V30 1824 C 177.606 -3.18364 1.16179 0
M  V30 1825 C 176.779 -3.66847 2.38206 0
M  V30 1826 C 175.838 -4.82398 2.10186 0
M  V30 1827 O 174.864 -4.93706 2.83272 0
M  V30 1828 N 176.066 -5.70064 1.0958 0
M  V30 1829 H 178.831 -1.83488 2.36965 0
M  V30 1830 H 176.392 -0.872149 1.36401 0
M  V30 1831 H 178.384 -3.93301 0.953756 0
M  V30 1832 H 176.954 -3.11365 0.27756 0
M  V30 1833 H 176.174 -2.82751 2.74673 0
M  V30 1834 H 177.462 -3.95978 3.19498 0
M  V30 1835 H 176.86 -5.63565 0.491019 0
M  V30 1836 H 175.417 -6.44874 0.947656 0
M  V30 1837 N 178.85 -1.27639 -0.924453 0
M  V30 1838 C 179.782 -1.06442 -2.02985 0
M  V30 1839 C 180.795 -0.0194771 -1.62788 0
M  V30 1840 O 181.984 -0.261388 -1.76576 0
M  V30 1841 C 179.084 -0.59327 -3.33667 0
M  V30 1842 C 178.257 -1.71123 -4.02537 0
M  V30 1843 C 177.316 -1.23527 -5.11495 0
M  V30 1844 O 176.342 -1.93553 -5.35281 0
M  V30 1845 N 177.544 -0.0926678 -5.80426 0
M  V30 1846 H 180.309 -2.01633 -2.2173 0
M  V30 1847 H 177.87 -1.19248 -1.09505 0
M  V30 1848 H 179.862 -0.258686 -4.03872 0
M  V30 1849 H 178.432 0.265502 -3.1147 0
M  V30 1850 H 177.652 -2.21593 -3.26022 0
M  V30 1851 H 178.94 -2.46145 -4.45298 0
M  V30 1852 H 178.338 0.491741 -5.63559 0
M  V30 1853 H 176.895 0.182714 -6.51544 0
M  V30 1854 N 180.328 1.1314 -1.09713 0
M  V30 1855 C 181.276 2.20717 -0.733934 0
M  V30 1856 C 182.27 1.6729 0.266506 0
M  V30 1857 O 183.476 1.79547 0.127656 0
M  V30 1858 H 179.851 0.719292 -0.21937 0
M  V30 1859 H 181.822 2.48611 -1.6503 0
M  V30 1860 C 180.571 3.47265 -0.173849 0
M  V30 1861 H 179.894 3.88716 -0.934873 0
M  V30 1862 H 181.334 4.23979 0.0423126 0
M  V30 1863 C 179.793 3.18724 1.09164 0
M  V30 1864 O 180.323 3.37762 2.17439 0
M  V30 1865 N 178.529 2.72583 1.00732 0
M  V30 1866 H 178.076 2.57291 0.126121 0
M  V30 1867 H 178.034 2.53862 1.85476 0
M  V30 1868 N 181.806 0.884767 1.30421 0
M  V30 1869 C 182.738 0.308655 2.27112 0
M  V30 1870 C 183.751 -0.536655 1.53701 0
M  V30 1871 O 184.94 -0.35624 1.74909 0
M  V30 1872 C 182.04 -0.579782 3.33904 0
M  V30 1873 C 181.213 0.236417 4.36761 0
M  V30 1874 C 180.272 -0.582482 5.22966 0
M  V30 1875 O 179.298 -0.00525502 5.692 0
M  V30 1876 N 180.5 -1.89163 5.48815 0
M  V30 1877 H 183.265 1.13964 2.77186 0
M  V30 1878 H 180.826 0.747731 1.43599 0
M  V30 1879 H 182.818 -1.13366 3.88497 0
M  V30 1880 H 181.388 -1.31144 2.83761 0
M  V30 1881 H 180.608 0.97174 3.82035 0
M  V30 1882 H 181.896 0.795924 5.02536 0
M  V30 1883 H 181.294 -2.38352 5.13035 0
M  V30 1884 H 179.851 -2.39296 6.06284 0
M  V30 1885 N 183.284 -1.43765 0.645699 0
M  V30 1886 C 184.216 -2.29027 -0.0890605 0
M  V30 1887 C 185.229 -1.42093 -0.794563 0
M  V30 1888 O 186.418 -1.66104 -0.653575 0
M  V30 1889 C 183.518 -3.18831 -1.14891 0
M  V30 1890 C 182.691 -4.34261 -0.523043 0
M  V30 1891 C 181.75 -5.04994 -1.47878 0
M  V30 1892 O 180.776 -5.6052 -0.990277 0
M  V30 1893 N 181.978 -5.07795 -2.81291 0
M  V30 1894 H 184.743 -2.92727 0.64272 0
M  V30 1895 H 182.304 -1.54373 0.487924 0
M  V30 1896 H 184.296 -3.63015 -1.78892 0
M  V30 1897 H 182.866 -2.56782 -1.78275 0
M  V30 1898 H 182.086 -3.93088 0.295896 0
M  V30 1899 H 183.374 -5.08728 -0.0858147 0
M  V30 1900 H 182.772 -4.64042 -3.23546 0
M  V30 1901 H 181.329 -5.55721 -3.40614 0
M  V30 1902 N 184.763 -0.387143 -1.52771 0
M  V30 1903 C 186.011 0.195349 -2.01154 0
M  V30 1904 C 186.332 1.475 -1.27549 0
M  V30 1905 O 185.602 1.91878 -0.394924 0
M  V30 1906 H 184.182 0.075178 -0.743207 0
M  V30 1907 H 186.844 -0.518337 -1.87881 0
M  V30 1908 H 185.94 0.407096 -3.09434 0
M  V30 1909 N 186.241 1.57166 -0.116904 0
M  V30 1910 C 187.466 1.999 0.55271 0
M  V30 1911 C 187.891 0.996039 1.59564 0
M  V30 1912 O 187.249 -0.032556 1.81271 0
M  V30 1913 C 187.297 3.4152 1.15742 0
M  V30 1914 O 186.401 3.44106 2.27299 0
M  V30 1915 H 185.742 0.649447 0.138258 0
M  V30 1916 H 188.272 2.03573 -0.204759 0
M  V30 1917 H 188.282 3.79684 1.49346 0
M  V30 1918 H 186.957 4.14034 0.393493 0
M  V30 1919 H 185.534 3.17759 1.9515 0
M  V30 1920 N 187.719 -0.156864 1.56817 0
M  V30 1921 C 188.652 -1.22316 1.9265 0
M  V30 1922 C 189.63 -1.42059 0.791076 0
M  V30 1923 O 190.814 -1.56831 1.04576 0
M  V30 1924 C 187.941 -2.58375 2.18998 0
M  V30 1925 C 186.987 -2.55284 3.41661 0
M  V30 1926 S 187.82 -2.02946 4.95553 0
M  V30 1927 C 188.976 -3.40753 5.25013 0
M  V30 1928 H 189.209 -0.917403 2.82791 0
M  V30 1929 H 186.742 -0.362059 1.50095 0
M  V30 1930 H 188.7 -3.36677 2.34859 0
M  V30 1931 H 187.361 -2.86145 1.29538 0
M  V30 1932 H 186.554 -3.55418 3.57343 0
M  V30 1933 H 186.156 -1.85086 3.24991 0
M  V30 1934 H 188.448 -4.36819 5.17876 0
M  V30 1935 H 189.391 -3.29933 6.26538 0
M  V30 1936 H 189.799 -3.37433 4.52548 0
M  V30 1937 N 189.197 -1.51736 -0.425897 0
M  V30 1938 C 190.422 -1.69082 -1.20108 0
M  V30 1939 C 190.847 -0.392398 -1.83962 0
M  V30 1940 O 190.205 0.64858 -1.69302 0
M  V30 1941 C 190.253 -2.81604 -2.25237 0
M  V30 1942 O 189.357 -2.46004 -3.30992 0
M  V30 1943 H 188.698 -0.563408 -0.35138 0
M  V30 1944 H 191.228 -1.98358 -0.501512 0
M  V30 1945 H 191.238 -3.06025 -2.69838 0
M  V30 1946 H 189.913 -3.75817 -1.78142 0
M  V30 1947 H 188.49 -2.32195 -2.91787 0
M  V30 1948 N 190.675 0.682077 -1.42076 0
M  V30 1949 C 192.086 1.26246 -1.37546 0
M  V30 1950 C 192.437 1.96092 -0.0651481 0
M  V30 1951 O 191.562 1.99587 0.836297 0
M  V30 1952 C 192.157 2.29594 -2.49143 0
M  V30 1953 C 190.716 2.83175 -2.47969 0
M  V30 1954 C 189.863 1.57395 -2.28303 0
M  V30 1955 H 192.814 0.475937 -1.51395 0
M  V30 1956 H 192.835 3.11175 -2.18976 0
M  V30 1957 H 192.347 1.78729 -3.44496 0
M  V30 1958 H 190.448 3.3818 -1.56413 0
M  V30 1959 H 190.561 3.32687 -3.44755 0
M  V30 1960 H 188.925 1.83699 -1.76428 0
M  V30 1961 H 189.708 1.08507 -3.25701 0
M  V30 1962 N 192.153 1.28127 0.917671 0
M  V30 1963 C 193.116 1.11744 2.00115 0
M  V30 1964 C 194.116 0.0583052 1.60694 0
M  V30 1965 O 195.306 0.303755 1.71531 0
M  V30 1966 C 192.438 0.704862 3.33533 0
M  V30 1967 H 193.631 2.07966 2.16079 0
M  V30 1968 H 191.184 1.11058 1.09981 0
M  V30 1969 H 191.919 -0.258299 3.2327 0
M  V30 1970 H 191.704 1.4699 3.63505 0
M  V30 1971 H 193.194 0.612768 4.1308 0
M  V30 1972 N 193.631 -1.12557 1.10312 0
M  V30 1973 C 194.578 -2.18247 0.750781 0
M  V30 1974 C 195.548 -1.63853 -0.272293 0
M  V30 1975 O 196.733 -1.90195 -0.151862 0
M  V30 1976 C 193.873 -3.44591 0.187379 0
M  V30 1977 C 192.986 -4.13046 1.2656 0
M  V30 1978 C 192.121 -5.27034 0.663978 0
M  V30 1979 C 191.16 -5.87353 1.72287 0
M  V30 1980 N 190.297 -6.92757 1.1416 0
M  V30 1981 H 195.137 -2.47732 1.65628 0
M  V30 1982 H 192.674 -1.21629 0.827337 0
M  V30 1983 H 194.632 -4.16904 -0.157148 0
M  V30 1984 H 193.262 -3.15527 -0.681355 0
M  V30 1985 H 192.314 -3.38924 1.72727 0
M  V30 1986 H 193.626 -4.53947 2.06721 0
M  V30 1987 H 192.78 -6.06104 0.268824 0
M  V30 1988 H 191.519 -4.87407 -0.169082 0
M  V30 1989 H 190.524 -5.06971 2.12746 0
M  V30 1990 H 191.749 -6.29051 2.55875 0
M  V30 1991 H 189.695 -6.5517 0.329984 0
M  V30 1992 H 189.612 -7.3225 1.88007 0
M  V30 1993 H 190.88 -7.75658 0.772956 0
M  V30 1994 N 195.109 -0.891671 -1.2995 0
M  V30 1995 C 196.358 -0.509521 -1.95158 0
M  V30 1996 C 196.671 0.947388 -1.71125 0
M  V30 1997 O 197.877 1.43669 -2.30372 0
M  V30 1998 C 196.333 -0.860315 -3.49466 0
M  V30 1999 C 195.941 -2.33545 -3.8231 0
M  V30 2000 C 197.685 -0.547687 -4.20952 0
M  V30 2001 C 195.592 -2.62752 -5.29826 0
M  V30 2002 H 194.522 -0.18682 -0.730489 0
M  V30 2003 H 197.173 -1.08756 -1.47798 0
M  V30 2004 H 195.555 -0.211285 -3.95436 0
M  V30 2005 H 196.729 -3.02936 -3.47227 0
M  V30 2006 H 195.044 -2.61629 -3.23944 0
M  V30 2007 H 197.641 -0.742854 -5.29515 0
M  V30 2008 H 197.984 0.51332 -4.13123 0
M  V30 2009 H 198.517 -1.1542 -3.80688 0
M  V30 2010 H 195.256 -3.6762 -5.42712 0
M  V30 2011 H 194.776 -1.97977 -5.66185 0
M  V30 2012 H 196.455 -2.48601 -5.97333 0
M  V30 2013 N 196.587 1.43421 -0.653314 0
M  V30 2014 C 197.817 2.05864 -0.174238 0
M  V30 2015 C 198.225 1.49052 1.16534 0
M  V30 2016 O 197.568 0.616481 1.73047 0
M  V30 2017 C 197.63 3.59499 -0.00875873 0
M  V30 2018 C 197.294 4.38893 -1.27364 0
M  V30 2019 C 198.291 4.70947 -2.20239 0
M  V30 2020 C 195.976 4.789 -1.51525 0
M  V30 2021 C 197.97 5.41916 -3.35568 0
M  V30 2022 C 195.657 5.49614 -2.67147 0
M  V30 2023 C 196.655 5.81044 -3.58994 0
M  V30 2024 O 196.343 6.50313 -4.72597 0
M  V30 2025 H 196.075 0.670345 -0.0872549 0
M  V30 2026 H 198.629 1.84913 -0.894226 0
M  V30 2027 H 196.859 3.79025 0.7666 0
M  V30 2028 H 198.548 4.0364 0.427687 0
M  V30 2029 H 199.314 4.40558 -2.02815 0
M  V30 2030 H 195.193 4.53843 -0.809158 0
M  V30 2031 H 198.737 5.66365 -4.07279 0
M  V30 2032 H 194.634 5.79419 -2.84505 0
M  V30 2033 H 195.402 6.68795 -4.71864 0
M  V30 2034 N 198.065 0.39524 1.52563 0
M  V30 2035 C 198.997 -0.472201 2.24283 0
M  V30 2036 C 200.01 -1.02178 1.26742 0
M  V30 2037 O 201.199 -0.923097 1.52778 0
M  V30 2038 C 198.299 -1.66775 2.95024 0
M  V30 2039 C 197.472 -1.2445 4.19322 0
M  V30 2040 C 196.531 -2.30539 4.7301 0
M  V30 2041 O 195.557 -1.91702 5.35947 0
M  V30 2042 N 196.759 -3.6253 4.53379 0
M  V30 2043 H 199.524 0.142282 2.99362 0
M  V30 2044 H 197.085 0.2219 1.60372 0
M  V30 2045 H 199.077 -2.37283 3.27839 0
M  V30 2046 H 197.647 -2.18845 2.23217 0
M  V30 2047 H 196.867 -0.368069 3.92478 0
M  V30 2048 H 198.155 -0.938457 5.0007 0
M  V30 2049 H 197.553 -3.96841 4.03154 0
M  V30 2050 H 196.11 -4.29055 4.90668 0
M  V30 2051 N 199.544 -1.57102 0.125237 0
M  V30 2052 C 200.492 -2.16905 -0.839927 0
M  V30 2053 C 201.486 -1.11998 -1.27094 0
M  V30 2054 O 202.692 -1.3029 -1.24195 0
M  V30 2055 H 199.067 -0.694252 -0.288995 0
M  V30 2056 H 201.038 -2.96774 -0.311115 0
M  V30 2057 C 199.787 -2.78795 -2.07771 0
M  V30 2058 H 199.11 -3.59221 -1.755 0
M  V30 2059 H 200.55 -3.2417 -2.73295 0
M  V30 2060 C 199.009 -1.76193 -2.87155 0
M  V30 2061 O 199.539 -1.21909 -3.82755 0
M  V30 2062 N 197.745 -1.45991 -2.51267 0
M  V30 2063 H 197.292 -1.90325 -1.73592 0
M  V30 2064 H 197.25 -0.775844 -3.04677 0
M  V30 2065 N 201.022 0.148545 -1.56898 0
M  V30 2066 C 202.268 0.862694 -1.83536 0
M  V30 2067 C 202.601 1.80889 -0.706604 0
M  V30 2068 O 201.876 1.92328 0.289885 0
M  V30 2069 C 202.159 1.63853 -3.20662 0
M  V30 2070 C 202.012 0.713925 -4.44098 0
M  V30 2071 C 203.331 2.60133 -3.54991 0
M  V30 2072 H 200.45 0.312179 -0.667618 0
M  V30 2073 H 203.092 0.127953 -1.89569 0
M  V30 2074 H 201.242 2.26489 -3.1565 0
M  V30 2075 H 202.914 0.098686 -4.61194 0
M  V30 2076 H 201.157 0.0234019 -4.33794 0
M  V30 2077 H 201.828 1.29278 -5.36648 0
M  V30 2078 H 204.304 2.07616 -3.60603 0
M  V30 2079 H 203.18 3.11468 -4.51972 0
M  V30 2080 H 203.441 3.41417 -2.80868 0
M  V30 2081 N 202.5 1.5196 0.417844 0
M  V30 2082 C 203.41 1.77554 1.53336 0
M  V30 2083 C 204.426 0.660655 1.6097 0
M  V30 2084 O 205.602 0.945099 1.77848 0
M  V30 2085 C 202.667 1.91291 2.89152 0
M  V30 2086 C 201.728 3.15183 2.91475 0
M  V30 2087 C 200.961 3.28256 4.20813 0
M  V30 2088 O 201.184 2.46798 5.14244 0
M  V30 2089 O 200.118 4.21356 4.29817 0
M  V30 2090 H 203.944 2.7222 1.34647 0
M  V30 2091 H 201.529 1.36698 0.602828 0
M  V30 2092 H 203.411 2.02199 3.69721 0
M  V30 2093 H 202.086 0.998129 3.07927 0
M  V30 2094 H 200.993 3.09739 2.09791 0
M  V30 2095 H 202.326 4.06414 2.77648 0
M  V30 2096 N 203.978 -0.674533 1.42435 0
M  V30 2097 C 204.91 -1.80005 1.41883 0
M  V30 2098 C 205.923 -1.59667 0.31787 0
M  V30 2099 O 207.112 -1.68781 0.580973 0
M  V30 2100 C 204.212 -3.17114 1.19549 0
M  V30 2101 C 203.385 -3.64299 2.42084 0
M  V30 2102 C 202.444 -4.80142 2.15291 0
M  V30 2103 O 201.47 -4.90673 2.88493 0
M  V30 2104 N 202.672 -5.68869 1.1562 0
M  V30 2105 H 205.437 -1.80964 2.38898 0
M  V30 2106 H 202.998 -0.857633 1.37318 0
M  V30 2107 H 204.99 -3.92267 0.995417 0
M  V30 2108 H 203.56 -3.11053 0.310569 0
M  V30 2109 H 202.78 -2.79822 2.77657 0
M  V30 2110 H 204.068 -3.92567 3.23679 0
M  V30 2111 H 203.466 -5.63012 0.550765 0
M  V30 2112 H 202.023 -6.43833 1.016 0
M  V30 2113 N 205.456 -1.28612 -0.910864 0
M  V30 2114 C 206.386 -1.15326 -2.03032 0
M  V30 2115 C 207.367 -0.0502924 -1.70026 0
M  V30 2116 O 208.552 -0.227797 -1.92859 0
M  V30 2117 C 205.682 -0.817343 -3.37545 0
M  V30 2118 C 204.636 -1.8754 -3.84724 0
M  V30 2119 C 203.962 -1.39305 -5.16235 0
M  V30 2120 C 205.262 -3.28244 -4.06267 0
M  V30 2121 H 206.956 -2.08975 -2.14406 0
M  V30 2122 H 204.502 -1.00612 -1.03021 0
M  V30 2123 H 206.455 -0.711151 -4.15356 0
M  V30 2124 H 205.179 0.154846 -3.26233 0
M  V30 2125 H 203.838 -1.97079 -3.09121 0
M  V30 2126 H 203.486 -0.409846 -5.01328 0
M  V30 2127 H 203.186 -2.10057 -5.48771 0
M  V30 2128 H 204.71 -1.30014 -5.96598 0
M  V30 2129 H 206.124 -3.21611 -4.74594 0
M  V30 2130 H 204.521 -3.96855 -4.5014 0
M  V30 2131 H 205.591 -3.72048 -3.10979 0
M  V30 2132 N 206.934 1.1197 -1.10907 0
M  V30 2133 C 208.18 1.8386 -0.855773 0
M  V30 2134 C 208.513 1.84134 0.617103 0
M  V30 2135 O 207.788 1.29041 1.45529 0
M  V30 2136 C 208.071 3.31305 -1.411 0
M  V30 2137 C 207.924 3.39456 -2.9511 0
M  V30 2138 C 209.243 4.2721 -1.05736 0
M  V30 2139 H 206.362 0.667545 -0.312334 0
M  V30 2140 H 209.004 1.31331 -1.37303 0
M  V30 2141 H 207.154 3.76169 -0.97105 0
M  V30 2142 H 208.826 3.03191 -3.47668 0
M  V30 2143 H 207.069 2.79849 -3.31462 0
M  V30 2144 H 207.74 4.43209 -3.29044 0
M  V30 2145 H 210.216 3.90497 -1.43706 0
M  V30 2146 H 209.092 5.28775 -1.47269 0
M  V30 2147 H 209.353 4.42088 0.0325958 0
M  V30 2148 N 208.412 0.89855 1.29475 0
M  V30 2149 C 209.359 0.373819 2.27753 0
M  V30 2150 C 210.329 -0.543444 1.56958 0
M  V30 2151 O 211.514 -0.468934 1.84948 0
M  V30 2152 C 208.654 -0.393648 3.42848 0
M  V30 2153 C 207.767 0.554379 4.28428 0
M  V30 2154 C 206.902 -0.230026 5.30702 0
M  V30 2155 C 205.941 0.712599 6.07938 0
M  V30 2156 N 205.078 -0.0373283 7.0209 0
M  V30 2157 H 209.918 1.21699 2.72017 0
M  V30 2158 H 207.455 0.611456 1.33789 0
M  V30 2159 H 209.413 -0.85466 4.08352 0
M  V30 2160 H 208.043 -1.20128 2.99615 0
M  V30 2161 H 207.095 1.13391 3.63107 0
M  V30 2162 H 208.407 1.27597 4.82204 0
M  V30 2163 H 207.561 -0.752288 6.02018 0
M  V30 2164 H 206.3 -0.984758 4.77654 0
M  V30 2165 H 205.305 1.24637 5.35486 0
M  V30 2166 H 206.53 1.46664 6.63074 0
M  V30 2167 H 204.476 -0.774348 6.51414 0
M  V30 2168 H 204.393 0.624374 7.53417 0
M  V30 2169 H 205.661 -0.539891 7.77628 0
M  V30 2170 N 209.89 -1.43072 0.660911 0
M  V30 2171 C 211.137 -2.01721 0.177445 0
M  V30 2172 C 211.465 -1.5218 -1.21126 0
M  V30 2173 O 210.72 -0.708659 -1.82419 0
M  V30 2174 C 211.019 -3.57103 0.145563 0
M  V30 2175 C 210.685 -4.26021 1.47705 0
M  V30 2176 C 209.347 -4.44563 1.84165 0
M  V30 2177 C 211.699 -4.64983 2.35458 0
M  V30 2178 C 209.027 -4.99334 3.0803 0
M  V30 2179 C 211.379 -5.21127 3.58622 0
M  V30 2180 C 210.043 -5.37884 3.95268 0
M  V30 2181 H 209.313 -0.73815 0.0649317 0
M  V30 2182 H 211.96 -1.71446 0.853144 0
M  V30 2183 H 210.265 -3.86965 -0.61361 0
M  V30 2184 H 211.962 -4.00248 -0.2455 0
M  V30 2185 H 208.552 -4.11939 1.18339 0
M  V30 2186 H 212.736 -4.50343 2.08579 0
M  V30 2187 H 207.992 -5.10493 3.36462 0
M  V30 2188 H 212.166 -5.50262 4.26831 0
M  V30 2189 H 209.793 -5.80089 4.91325 0
M  V30 2190 N 211.368 -0.403325 -1.52352 0
M  V30 2191 C 212.598 0.17376 -2.05868 0
M  V30 2192 C 213.006 1.39898 -1.27378 0
M  V30 2193 O 212.349 1.80939 -0.31729 0
M  V30 2194 C 212.411 0.594756 -3.54546 0
M  V30 2195 C 212.075 -0.518926 -4.54044 0
M  V30 2196 C 213.072 -1.3807 -5.01231 0
M  V30 2197 C 210.757 -0.689961 -4.97539 0
M  V30 2198 C 212.751 -2.39852 -5.90551 0
M  V30 2199 C 210.438 -1.71109 -5.86656 0
M  V30 2200 C 211.436 -2.56378 -6.33056 0
M  V30 2201 O 211.124 -3.56743 -7.20409 0
M  V30 2202 H 210.856 0.0264951 -0.675481 0
M  V30 2203 H 213.41 -0.571179 -1.97299 0
M  V30 2204 H 211.64 1.39189 -3.60782 0
M  V30 2205 H 213.329 1.0991 -3.90736 0
M  V30 2206 H 214.095 -1.25994 -4.68349 0
M  V30 2207 H 209.974 -0.035939 -4.60986 0
M  V30 2208 H 213.518 -3.06441 -6.26689 0
M  V30 2209 H 209.415 -1.83218 -6.18952 0
M  V30 2210 H 210.183 -3.52918 -7.38506 0
M  V30 2211 N 212.846 1.57033 -0.133567 0
M  V30 2212 C 213.793 2.16074 0.811208 0
M  V30 2213 C 214.763 1.08979 1.2535 0
M  V30 2214 O 215.948 1.36958 1.32843 0
M  V30 2215 C 213.088 2.77595 2.05024 0
M  V30 2216 C 212.201 3.99042 1.65498 0
M  V30 2217 C 211.336 4.48603 2.84479 0
M  V30 2218 C 210.375 5.62547 2.41262 0
M  V30 2219 N 209.512 6.06787 3.53206 0
M  V30 2220 H 214.352 2.96477 0.300906 0
M  V30 2221 H 211.889 1.46462 0.136822 0
M  V30 2222 H 213.847 3.11402 2.77642 0
M  V30 2223 H 212.477 1.99859 2.53488 0
M  V30 2224 H 211.529 3.71302 0.826981 0
M  V30 2225 H 212.841 4.81629 1.29748 0
M  V30 2226 H 211.995 4.84395 3.65303 0
M  V30 2227 H 210.734 3.64995 3.23465 0
M  V30 2228 H 209.739 5.26345 1.58874 0
M  V30 2229 H 210.964 6.47931 2.03377 0
M  V30 2230 H 208.91 5.26117 3.91838 0
M  V30 2231 H 208.827 6.84266 3.21427 0
M  V30 2232 H 210.095 6.4722 4.34427 0
M  V30 2233 N 214.325 -0.140222 1.56975 0
M  V30 2234 C 215.573 -0.850005 1.83356 0
M  V30 2235 C 215.894 -1.81399 0.71551 0
M  V30 2236 O 215.164 -1.94136 -0.262294 0
M  V30 2237 H 213.744 -0.316886 0.676456 0
M  V30 2238 H 216.406 -0.132608 1.94448 0
M  V30 2239 H 215.502 -1.40814 2.78528 0
M  V30 2240 N 215.803 -1.52179 -0.40978 0
M  V30 2241 C 216.751 -1.76086 -1.51975 0
M  V30 2242 C 217.745 -0.627964 -1.57331 0
M  V30 2243 O 218.951 -0.809993 -1.60745 0
M  V30 2244 H 215.326 -0.556829 -0.505416 0
M  V30 2245 H 217.297 -2.69077 -1.28996 0
M  V30 2246 C 216.046 -1.92799 -2.8935 0
M  V30 2247 H 215.369 -2.79392 -2.85972 0
M  V30 2248 H 216.809 -2.13527 -3.66309 0
M  V30 2249 C 215.268 -0.694923 -3.29655 0
M  V30 2250 O 215.798 0.13751 -4.01465 0
M  V30 2251 N 214.004 -0.53101 -2.85707 0
M  V30 2252 H 213.551 -1.20952 -2.27439 0
M  V30 2253 H 213.509 0.292718 -3.13034 0
M  V30 2254 N 217.281 0.66697 -1.42791 0
M  V30 2255 C 218.529 1.42417 -1.43394 0
M  V30 2256 C 218.85 1.94925 -0.0542373 0
M  V30 2257 O 218.12 1.73564 0.908415 0
M  V30 2258 H 216.7 0.528515 -0.527902 0
M  V30 2259 H 219.362 0.787562 -1.78279 0
M  V30 2260 H 218.458 2.27333 -2.13837 0
M  V30 2261 N 218.759 1.29093 0.90403 0
M  V30 2262 C 219.709 1.10482 1.99443 0
M  V30 2263 C 220.693 0.0255401 1.6088 0
M  V30 2264 O 221.885 0.24677 1.75271 0
M  V30 2265 C 219.014 0.778882 3.34348 0
M  V30 2266 C 218.1 1.89749 3.79284 0
M  V30 2267 N 218.491 3.14045 3.96497 0
M  V30 2268 C 216.789 1.78955 4.08523 0
M  V30 2269 C 217.49 3.86996 4.34292 0
M  V30 2270 N 216.466 3.14909 4.43095 0
M  V30 2271 H 220.268 2.04778 2.10815 0
M  V30 2272 H 217.782 1.20155 1.09255 0
M  V30 2273 H 219.779 0.62661 4.12164 0
M  V30 2274 H 218.439 -0.156205 3.24324 0
M  V30 2275 H 219.45 3.49548 3.82148 0
M  V30 2276 H 216.127 0.926886 4.07081 0
M  V30 2277 H 217.517 4.93941 4.55491 0
M  V30 2278 N 220.237 -1.11381 1.11499 0
M  V30 2279 C 221.653 -1.35143 0.849031 0
M  V30 2280 C 221.853 -1.94515 -0.525938 0
M  V30 2281 O 220.909 -2.1785 -1.27662 0
M  V30 2282 C 222.222 -2.28249 1.95762 0
M  V30 2283 C 223.77 -2.41812 1.98736 0
M  V30 2284 C 224.245 -3.3824 3.088 0
M  V30 2285 N 225.736 -3.45803 3.08179 0
M  V30 2286 C 226.471 -4.20358 3.89982 0
M  V30 2287 N 225.967 -4.97884 4.8175 0
M  V30 2288 N 227.76 -4.15877 3.78157 0
M  V30 2289 H 219.911 -0.712062 2.00109 0
M  V30 2290 H 222.174 -0.376025 0.870235 0
M  V30 2291 H 221.88 -1.91817 2.94787 0
M  V30 2292 H 221.754 -3.28473 1.85433 0
M  V30 2293 H 224.141 -2.77518 1.00338 0
M  V30 2294 H 224.222 -1.41437 2.13141 0
M  V30 2295 H 223.866 -3.03261 4.07425 0
M  V30 2296 H 223.796 -4.38471 2.91635 0
M  V30 2297 H 226.287 -2.90506 2.41691 0
M  V30 2298 H 226.6 -5.52142 5.40702 0
M  V30 2299 H 224.945 -4.97043 4.85771 0
M  V30 2300 H 228.136 -3.544 3.05808 0
M  V30 2301 H 228.309 -4.73723 4.42143 0
M  V30 2302 N 221.715 -0.905404 -1.28997 0
M  V30 2303 C 223.126 -0.581953 -1.77398 0
M  V30 2304 C 223.477 0.902552 -1.74208 0
M  V30 2305 O 222.602 1.70584 -1.33154 0
M  V30 2306 C 223.197 -1.04961 -3.22131 0
M  V30 2307 C 221.756 -0.777229 -3.68288 0
M  V30 2308 C 220.903 -1.22109 -2.48967 0
M  V30 2309 H 223.854 -1.08754 -1.15578 0
M  V30 2310 H 223.875 -0.387387 -3.78523 0
M  V30 2311 H 223.387 -2.13008 -3.24421 0
M  V30 2312 H 221.488 0.290383 -3.71467 0
M  V30 2313 H 221.601 -1.37911 -4.58822 0
M  V30 2314 H 219.965 -0.639971 -2.46529 0
M  V30 2315 H 220.748 -2.30972 -2.53982 0
M  V30 2316 N 223.193 1.4272 -0.668489 0
M  V30 2317 C 224.418 2.06484 -0.194758 0
M  V30 2318 C 224.843 1.49862 1.13679 0
M  V30 2319 O 224.201 0.614582 1.70565 0
M  V30 2320 C 224.249 3.60353 -0.133546 0
M  V30 2321 O 223.353 4.02464 0.899806 0
M  V30 2322 H 222.694 0.656137 -0.10188 0
M  V30 2323 H 225.224 1.82964 -0.915722 0
M  V30 2324 H 225.234 4.07976 0.0447041 0
M  V30 2325 H 223.909 4.00938 -1.1055 0
M  V30 2326 H 222.486 3.66402 0.693109 0
M  V30 2327 N 224.671 0.411399 1.52136 0
M  V30 2328 C 225.899 -0.163076 2.06256 0
M  V30 2329 C 226.314 -1.3867 1.28125 0
M  V30 2330 O 225.671 -1.79423 0.333721 0
M  V30 2331 C 225.722 -0.511252 3.57867 0
M  V30 2332 O 225.443 0.66378 4.33042 0
M  V30 2333 C 226.944 -1.13921 4.28412 0
M  V30 2334 H 224.164 -0.0193897 0.67072 0
M  V30 2335 H 226.708 0.583007 1.96013 0
M  V30 2336 H 224.863 -1.20723 3.6811 0
M  V30 2337 H 225.277 0.372601 5.23175 0
M  V30 2338 H 226.751 -1.33302 5.35663 0
M  V30 2339 H 227.228 -2.11296 3.85033 0
M  V30 2340 H 227.834 -0.483373 4.22544 0
M  V30 2341 N 226.149 -1.5696 0.141893 0
M  V30 2342 C 227.079 -2.19516 -0.795936 0
M  V30 2343 C 228.06 -1.14187 -1.26077 0
M  V30 2344 O 229.245 -1.42511 -1.31925 0
M  V30 2345 C 226.375 -2.81272 -2.03723 0
M  V30 2346 C 225.329 -3.92384 -1.70936 0
M  V30 2347 C 224.655 -4.41052 -3.02287 0
M  V30 2348 C 225.955 -5.13403 -0.959954 0
M  V30 2349 H 227.649 -2.98138 -0.274596 0
M  V30 2350 H 225.195 -1.43406 -0.130636 0
M  V30 2351 H 227.148 -3.237 -2.69808 0
M  V30 2352 H 225.872 -1.99973 -2.58221 0
M  V30 2353 H 224.531 -3.50566 -1.07232 0
M  V30 2354 H 224.179 -3.56582 -3.54765 0
M  V30 2355 H 223.879 -5.15993 -2.81114 0
M  V30 2356 H 225.403 -4.86146 -3.69451 0
M  V30 2357 H 226.817 -5.52706 -1.52279 0
M  V30 2358 H 225.214 -5.94073 -0.848357 0
M  V30 2359 H 226.284 -4.84875 0.0492434 0
M  V30 2360 N 227.627 0.131896 -1.57047 0
M  V30 2361 C 228.852 0.860418 -1.8871 0
M  V30 2362 C 229.277 1.73251 -0.73251 0
M  V30 2363 O 228.635 1.785 0.317429 0
M  V30 2364 C 228.683 1.68047 -3.19049 0
M  V30 2365 O 227.787 2.7862 -3.04047 0
M  V30 2366 H 227.128 0.238743 -0.619595 0
M  V30 2367 H 229.658 0.118169 -2.04258 0
M  V30 2368 H 229.668 2.07238 -3.51449 0
M  V30 2369 H 228.343 1.04018 -4.02682 0
M  V30 2370 H 226.92 2.42726 -2.83088 0
M  V30 2371 N 229.106 1.52395 0.401703 0
M  V30 2372 C 230.346 1.68498 1.15705 0
M  V30 2373 C 230.71 0.409748 1.87577 0
M  V30 2374 O 231.911 0.446983 2.65058 0
M  V30 2375 C 230.182 2.87789 2.11924 0
M  V30 2376 S 231.741 3.24415 2.95466 0
M  V30 2377 H 228.559 0.593267 0.391862 0
M  V30 2378 H 231.161 1.90408 0.443282 0
M  V30 2379 H 229.865 3.7884 1.57824 0
M  V30 2380 H 229.396 2.68175 2.87829 0
M  V30 2381 H 231.411 2.73614 4.13944 0
M  V30 2382 N 230.584 -0.659388 1.43143 0
M  V30 2383 C 231.83 -1.42145 1.44647 0
M  V30 2384 C 232.163 -1.9408 0.0681907 0
M  V30 2385 O 231.438 -1.71899 -0.910007 0
M  V30 2386 C 231.721 -2.60735 2.48373 0
M  V30 2387 C 231.574 -2.14332 3.95451 0
M  V30 2388 C 232.893 -3.62951 2.48906 0
M  V30 2389 H 230.012 -0.51552 0.526696 0
M  V30 2390 H 232.654 -0.748069 1.74654 0
M  V30 2391 H 230.804 -3.18184 2.22916 0
M  V30 2392 H 232.476 -1.61932 4.31944 0
M  V30 2393 H 230.719 -1.4576 4.08578 0
M  V30 2394 H 231.39 -2.99583 4.63631 0
M  V30 2395 H 233.866 -3.1525 2.71582 0
M  V30 2396 H 232.742 -4.43487 3.23435 0
M  V30 2397 H 233.003 -4.15126 1.52061 0
M  V30 2398 N 232.062 -1.29571 -0.897171 0
M  V30 2399 C 233.01 -1.14802 -2.02295 0
M  V30 2400 C 234.004 -0.0629637 -1.69283 0
M  V30 2401 O 235.21 -0.222945 -1.78614 0
M  V30 2402 H 231.585 -0.354692 -0.663097 0
M  V30 2403 H 233.556 -2.10108 -2.11889 0
M  V30 2404 C 232.305 -0.843966 -3.37302 0
M  V30 2405 H 231.628 -1.67093 -3.63208 0
M  V30 2406 H 233.068 -0.780672 -4.16751 0
M  V30 2407 C 231.527 0.452843 -3.33843 0
M  V30 2408 O 232.057 1.47813 -3.73516 0
M  V30 2409 N 230.263 0.459601 -2.86943 0
M  V30 2410 H 229.81 -0.375213 -2.54853 0
M  V30 2411 H 229.768 1.32726 -2.85011 0
M  V30 2412 N 233.54 1.10788 -1.12088 0
M  V30 2413 C 234.768 1.86461 -0.896651 0
M  V30 2414 C 235.183 1.80492 0.553912 0
M  V30 2415 O 234.54 1.19102 1.38278 0
M  V30 2416 C 234.591 3.35006 -1.35843 0
M  V30 2417 O 234.312 3.40866 -2.75213 0
M  V30 2418 C 235.813 4.27565 -1.1706 0
M  V30 2419 H 233.033 0.589425 -0.320654 0
M  V30 2420 H 235.577 1.40076 -1.48993 0
M  V30 2421 H 233.732 3.7887 -0.808458 0
M  V30 2422 H 234.146 4.33411 -2.9539 0
M  V30 2423 H 235.62 5.30007 -1.54263 0
M  V30 2424 H 236.097 4.3906 -0.110814 0
M  V30 2425 H 236.703 3.89501 -1.70789 0
M  V30 2426 N 235.018 0.912232 1.28515 0
M  V30 2427 C 236.429 0.591352 1.77087 0
M  V30 2428 C 236.78 -0.8933 1.74684 0
M  V30 2429 O 235.905 -1.69876 1.34056 0
M  V30 2430 C 236.5 1.06668 3.2157 0
M  V30 2431 C 235.059 0.79675 3.67871 0
M  V30 2432 C 234.206 1.23427 2.48316 0
M  V30 2433 H 237.157 1.09365 1.15 0
M  V30 2434 H 237.178 0.407455 3.78312 0
M  V30 2435 H 236.69 2.14726 3.23287 0
M  V30 2436 H 234.791 -0.270679 3.71616 0
M  V30 2437 H 234.904 1.40343 4.58084 0
M  V30 2438 H 233.268 0.653036 2.46186 0
M  V30 2439 H 234.051 2.32316 2.52753 0
M  V30 2440 N 236.496 -1.42363 0.676048 0
M  V30 2441 C 237.426 -2.33497 0.0124832 0
M  V30 2442 C 238.407 -1.50748 -0.787981 0
M  V30 2443 O 239.592 -1.79346 -0.744884 0
M  V30 2444 C 236.722 -3.34377 -0.938582 0
M  V30 2445 C 235.676 -4.27289 -0.246622 0
M  V30 2446 C 235.002 -5.18386 -1.31071 0
M  V30 2447 C 236.302 -5.14916 0.875125 0
M  V30 2448 H 237.996 -2.89233 0.773593 0
M  V30 2449 H 235.542 -1.39073 0.37346 0
M  V30 2450 H 237.495 -3.97044 -1.41188 0
M  V30 2451 H 236.219 -2.76947 -1.73113 0
M  V30 2452 H 234.878 -3.66018 0.206456 0
M  V30 2453 H 234.526 -4.57282 -2.09528 0
M  V30 2454 H 234.226 -5.81378 -0.852839 0
M  V30 2455 H 235.75 -5.83929 -1.78492 0
M  V30 2456 H 237.164 -5.71262 0.482983 0
M  V30 2457 H 235.561 -5.86747 1.25887 0
M  V30 2458 H 236.631 -4.53242 1.72335 0
M  V30 2459 N 237.974 -0.419461 -1.51915 0
M  V30 2460 C 239.39 -0.0708431 -1.59443 0
M  V30 2461 C 239.59 1.41796 -1.43164 0
M  V30 2462 O 238.646 2.18596 -1.26381 0
M  V30 2463 C 239.959 -0.574991 -2.95151 0
M  V30 2464 C 241.507 -0.533867 -3.08413 0
M  V30 2465 C 241.982 -1.01469 -4.46618 0
M  V30 2466 N 243.473 -0.971939 -4.52888 0
M  V30 2467 C 244.208 -1.31505 -5.58116 0
M  V30 2468 N 243.704 -1.73014 -6.70849 0
M  V30 2469 N 245.497 -1.23436 -5.48379 0
M  V30 2470 H 237.648 -1.38836 -1.60743 0
M  V30 2471 H 239.911 -0.570998 -0.756747 0
M  V30 2472 H 239.617 -1.61597 -3.12377 0
M  V30 2473 H 239.491 0.00979777 -3.77199 0
M  V30 2474 H 241.878 0.498086 -2.90866 0
M  V30 2475 H 241.959 -1.15484 -2.28248 0
M  V30 2476 H 241.603 -2.04502 -4.6491 0
M  V30 2477 H 241.533 -0.370433 -5.25295 0
M  V30 2478 H 244.024 -0.666893 -3.71969 0
M  V30 2479 H 244.337 -1.97479 -7.47143 0
M  V30 2480 H 242.682 -1.76926 -6.72103 0
M  V30 2481 H 245.873 -0.908869 -4.59192 0
M  V30 2482 H 246.046 -1.50506 -6.30279 0
M  V30 2483 N 239.452 1.56882 -0.150215 0
M  V30 2484 C 240.677 2.01027 0.510184 0
M  V30 2485 C 241.102 1.02966 1.57415 0
M  V30 2486 O 240.46 0.00590158 1.81299 0
M  V30 2487 C 240.508 3.43899 1.08472 0
M  V30 2488 O 239.612 3.4885 2.19948 0
M  V30 2489 H 238.953 0.652233 0.124451 0
M  V30 2490 H 241.483 2.03093 -0.247894 0
M  V30 2491 H 241.493 3.82766 1.41259 0
M  V30 2492 H 240.168 4.14776 0.305582 0
M  V30 2493 H 238.745 3.21827 1.88366 0
M  V30 2494 N 240.93 -0.123565 1.57115 0
M  V30 2495 C 242.177 -0.832153 1.84612 0
M  V30 2496 C 242.505 -1.80093 0.734627 0
M  V30 2497 O 241.76 -1.93766 -0.27442 0
M  V30 2498 C 242.059 -1.62016 3.18568 0
M  V30 2499 C 241.725 -0.796084 4.43817 0
M  V30 2500 C 240.387 -0.568816 4.77826 0
M  V30 2501 C 242.739 -0.221364 5.2073 0
M  V30 2502 C 240.067 0.243499 5.86194 0
M  V30 2503 C 242.419 0.578117 6.29953 0
M  V30 2504 C 241.083 0.815744 6.62497 0
M  V30 2505 H 240.353 -0.304507 0.675542 0
M  V30 2506 H 243 -0.0947248 1.91266 0
M  V30 2507 H 241.305 -2.42837 3.0747 0
M  V30 2508 H 243.002 -2.17231 3.37064 0
M  V30 2509 H 239.592 -0.983307 4.17168 0
M  V30 2510 H 243.776 -0.384173 4.94811 0
M  V30 2511 H 239.032 0.436871 6.09837 0
M  V30 2512 H 243.206 1.03046 6.88734 0
M  V30 2513 H 240.833 1.44701 7.46301 0
M  V30 2514 N 242.408 -1.52605 -0.393616 0
M  V30 2515 C 243.341 -1.71798 -1.50202 0
M  V30 2516 C 244.319 -0.565743 -1.52441 0
M  V30 2517 O 245.503 -0.794987 -1.70916 0
M  V30 2518 C 242.63 -1.7714 -2.88685 0
M  V30 2519 C 241.676 -2.98845 -3.04292 0
M  V30 2520 S 242.509 -4.58909 -2.75976 0
M  V30 2521 C 243.665 -4.6706 -4.1666 0
M  V30 2522 H 243.898 -2.65542 -1.33696 0
M  V30 2523 H 241.431 -1.42839 -0.586195 0
M  V30 2524 H 243.389 -1.80903 -3.68489 0
M  V30 2525 H 242.05 -0.844969 -3.02521 0
M  V30 2526 H 241.243 -2.99111 -4.05646 0
M  V30 2527 H 240.845 -2.9305 -2.32374 0
M  V30 2528 H 243.137 -4.45391 -5.10523 0
M  V30 2529 H 244.08 -5.6905 -4.21412 0
M  V30 2530 H 244.488 -3.95944 -4.02354 0
M  V30 2531 N 243.887 0.651787 -1.4349 0
M  V30 2532 C 245.112 1.44434 -1.48841 0
M  V30 2533 C 245.537 1.8779 -0.107955 0
M  V30 2534 O 244.895 1.57464 0.898602 0
M  V30 2535 C 244.943 2.65458 -2.44059 0
M  V30 2536 O 244.047 3.64566 -1.92784 0
M  V30 2537 H 243.388 0.433005 -0.503391 0
M  V30 2538 H 245.918 0.797451 -1.88419 0
M  V30 2539 H 245.928 3.13255 -2.6141 0
M  V30 2540 H 244.603 2.33244 -3.4434 0
M  V30 2541 H 243.18 3.23716 -1.851 0
M  V30 2542 N 245.365 1.30045 0.890287 0
M  V30 2543 C 246.642 1.09227 1.62262 0
M  V30 2544 C 247.022 -0.360305 2.08002 0
M  V30 2545 O 246.37 -1.35084 1.84295 0
M  V30 2546 C 246.58 2.08835 2.79623 0
M  V30 2547 C 247.928 2.40266 3.50082 0
M  V30 2548 O 248.952 2.07104 2.89804 0
M  V30 2549 O 247.811 2.96967 4.58773 0
M  V30 2550 H 244.905 0.419132 0.712922 0
M  V30 2551 H 247.451 1.41451 0.937529 0
M  V30 2552 H 246.223 3.06633 2.43089 0
M  V30 2553 H 245.846 1.77397 3.55832 0
M  V30 2554 N 246.843 -1.10192 1.12674 0
M  V30 2555 C 248.068 -1.86523 0.906853 0
M  V30 2556 C 248.493 -1.80221 -0.538711 0
M  V30 2557 O 247.851 -1.17396 -1.38158 0
M  V30 2558 C 247.899 -3.32758 1.3894 0
M  V30 2559 O 247.003 -4.08449 0.5695 0
M  V30 2560 H 246.344 -0.578678 0.325619 0
M  V30 2561 H 248.874 -1.39203 1.49946 0
M  V30 2562 H 248.884 -3.83608 1.38958 0
M  V30 2563 H 247.559 -3.36661 2.44197 0
M  V30 2564 H 246.136 -3.67427 0.636528 0
M  V30 2565 N 248.321 -0.919034 -1.28029 0
M  V30 2566 C 249.569 -0.553838 -1.94363 0
M  V30 2567 C 249.89 0.906357 -1.72656 0
M  V30 2568 O 249.16 1.64143 -1.0693 0
M  V30 2569 H 247.74 -0.201834 -0.719216 0
M  V30 2570 H 250.402 -1.16954 -1.55909 0
M  V30 2571 H 249.498 -0.752758 -3.02886 0
M  V30 2572 N 249.799 1.42003 -0.683588 0
M  V30 2573 C 251.024 2.06265 -0.216647 0
M  V30 2574 C 251.449 1.51059 1.12083 0
M  V30 2575 O 250.807 0.632638 1.69904 0
M  V30 2576 C 250.855 3.60191 -0.171759 0
M  V30 2577 O 249.959 4.03396 0.857069 0
M  V30 2578 H 249.3 0.65502 -0.108834 0
M  V30 2579 H 251.83 1.81982 -0.935077 0
M  V30 2580 H 251.84 4.08 0.0014303 0
M  V30 2581 H 250.515 3.99743 -1.14796 0
M  V30 2582 H 249.092 3.67117 0.654208 0
M  V30 2583 N 251.277 0.427512 1.51691 0
M  V30 2584 C 252.502 -0.143601 2.06902 0
M  V30 2585 C 252.927 -1.36536 1.29382 0
M  V30 2586 O 252.285 -1.78289 0.329043 0
M  V30 2587 C 252.333 -0.454207 3.57728 0
M  V30 2588 O 251.437 -1.54228 3.82475 0
M  V30 2589 H 250.778 -0.00617128 0.663971 0
M  V30 2590 H 253.308 0.606014 1.95419 0
M  V30 2591 H 253.318 -0.707525 4.01818 0
M  V30 2592 H 251.993 0.438812 4.13579 0
M  V30 2593 H 250.57 -1.2797 3.50254 0
M  V30 2594 N 252.755 -1.56801 0.158532 0
M  V30 2595 C 254.001 -1.96781 -0.490405 0
M  V30 2596 C 254.334 -1.04397 -1.63753 0
M  V30 2597 O 253.609 -0.0885805 -1.94298 0
M  V30 2598 C 253.892 -3.4635 -0.985594 0
M  V30 2599 C 253.745 -4.49512 0.160824 0
M  V30 2600 C 255.064 -3.98697 -1.86355 0
M  V30 2601 H 252.183 -0.715482 -0.176788 0
M  V30 2602 H 254.825 -1.88451 0.242088 0
M  V30 2603 H 252.975 -3.53579 -1.60978 0
M  V30 2604 H 254.647 -4.54353 0.797537 0
M  V30 2605 H 252.89 -4.26013 0.818256 0
M  V30 2606 H 253.561 -5.51531 -0.227569 0
M  V30 2607 H 256.037 -3.94019 -1.33746 0
M  V30 2608 H 254.913 -5.03792 -2.17909 0
M  V30 2609 H 255.174 -3.41744 -2.8047 0
M  V30 2610 N 254.233 0.115231 -1.57178 0
M  V30 2611 C 255.181 1.16014 -2.01602 0
M  V30 2612 C 256.175 1.42653 -0.913587 0
M  V30 2613 O 257.381 1.42571 -1.09879 0
M  V30 2614 H 253.756 0.391252 -0.642204 0
M  V30 2615 H 255.727 0.758998 -2.88586 0
M  V30 2616 C 254.476 2.47767 -2.4394 0
M  V30 2617 H 253.799 2.28108 -3.28339 0
M  V30 2618 H 255.239 3.19432 -2.78818 0
M  V30 2619 C 253.698 3.10617 -1.30455 0
M  V30 2620 O 254.228 3.96846 -0.622585 0
M  V30 2621 N 252.434 2.70553 -1.06064 0
M  V30 2622 H 251.981 2.00527 -1.61699 0
M  V30 2623 H 251.939 3.12934 -0.303284 0
M  V30 2624 N 255.711 1.52812 0.385517 0
M  V30 2625 C 256.959 1.67694 1.12797 0
M  V30 2626 C 257.28 0.421115 1.90399 0
M  V30 2627 O 256.55 -0.564551 1.87589 0
M  V30 2628 H 255.13 0.618155 0.419396 0
M  V30 2629 H 257.792 1.89938 0.436972 0
M  V30 2630 H 256.888 2.52896 1.82894 0
M  V30 2631 N 257.189 -0.644168 1.43834 0
M  V30 2632 C 258.437 -1.40117 1.45642 0
M  V30 2633 C 258.758 -1.94814 0.0852413 0
M  V30 2634 O 258.028 -1.74988 -0.880688 0
M  V30 2635 H 256.608 -0.52005 0.536243 0
M  V30 2636 H 259.27 -0.7591 1.7951 0
M  V30 2637 H 258.366 -2.23902 2.17427 0
M  V30 2638 N 258.668 -1.30515 -0.883378 0
M  V30 2639 C 259.914 -1.19607 -1.63774 0
M  V30 2640 C 260.247 0.248314 -1.92606 0
M  V30 2641 O 259.522 1.17742 -1.54813 0
M  V30 2642 C 259.805 -2.02669 -2.97653 0
M  V30 2643 C 259.658 -3.55335 -2.75784 0
M  V30 2644 C 260.977 -1.86573 -3.98596 0
M  V30 2645 H 258.096 -0.435856 -0.594305 0
M  V30 2646 H 260.738 -1.60165 -1.02212 0
M  V30 2647 H 258.888 -1.68208 -3.50197 0
M  V30 2648 H 260.56 -3.99863 -2.30016 0
M  V30 2649 H 258.803 -3.79438 -2.1026 0
M  V30 2650 H 259.474 -4.08745 -3.70988 0
M  V30 2651 H 261.95 -2.16703 -3.55217 0
M  V30 2652 H 260.826 -2.47014 -4.90179 0
M  V30 2653 H 261.087 -0.825321 -4.34328 0
M  V30 2654 N 260.146 1.09593 -1.13257 0
M  V30 2655 C 261.079 2.15451 -0.752061 0
M  V30 2656 C 262.057 1.60493 0.260913 0
M  V30 2657 O 263.241 1.8788 0.152819 0
M  V30 2658 C 260.368 3.38506 -0.114594 0
M  V30 2659 C 259.414 4.12183 -1.09579 0
M  V30 2660 S 260.247 4.6661 -2.62745 0
M  V30 2661 C 261.403 5.92966 -2.00354 0
M  V30 2662 H 261.636 2.47395 -1.64872 0
M  V30 2663 H 259.169 1.21515 -0.952545 0
M  V30 2664 H 261.127 4.09757 0.246808 0
M  V30 2665 H 259.788 3.04784 0.759309 0
M  V30 2666 H 258.981 5.00445 -0.597545 0
M  V30 2667 H 258.583 3.46785 -1.40057 0
M  V30 2668 H 260.875 6.63882 -1.35156 0
M  V30 2669 H 261.818 6.47467 -2.86691 0
M  V30 2670 H 262.226 5.45405 -1.4558 0
M  V30 2671 N 261.624 0.925811 1.2754 0
M  V30 2672 C 263.04 0.625767 1.46821 0
M  V30 2673 C 263.24 -0.825506 1.83814 0
M  V30 2674 O 262.296 -1.60356 1.95044 0
M  V30 2675 C 263.609 1.57402 2.56213 0
M  V30 2676 C 265.157 1.58204 2.70075 0
M  V30 2677 C 265.632 2.51721 3.82623 0
M  V30 2678 N 267.123 2.49917 3.89994 0
M  V30 2679 C 267.858 3.18968 4.76494 0
M  V30 2680 N 267.354 3.97391 5.67496 0
M  V30 2681 N 269.147 3.07996 4.70208 0
M  V30 2682 H 261.298 1.86409 1.01811 0
M  V30 2683 H 263.561 0.800213 0.508295 0
M  V30 2684 H 263.267 2.60925 2.35819 0
M  V30 2685 H 263.141 1.31428 3.53563 0
M  V30 2686 H 265.528 0.554124 2.89851 0
M  V30 2687 H 265.609 1.88226 1.73218 0
M  V30 2688 H 265.253 3.54622 3.63601 0
M  V30 2689 H 265.183 2.18996 4.78903 0
M  V30 2690 H 267.674 1.9296 3.24923 0
M  V30 2691 H 267.987 4.4707 6.30356 0
M  V30 2692 H 266.332 4.01495 5.67298 0
M  V30 2693 H 269.523 2.46223 3.9811 0
M  V30 2694 H 269.696 3.6208 5.37403 0
M  V30 2695 N 263.102 -1.41638 0.69111 0
M  V30 2696 C 264.065 -2.29178 0.0319786 0
M  V30 2697 C 265.065 -1.44153 -0.712496 0
M  V30 2698 O 266.255 -1.65354 -0.548053 0
M  V30 2699 C 263.387 -3.26952 -0.965161 0
M  V30 2700 H 264.58 -2.88959 0.802681 0
M  V30 2701 H 262.133 -1.4955 0.454356 0
M  V30 2702 H 262.868 -2.72142 -1.76378 0
M  V30 2703 H 262.653 -3.89685 -0.434522 0
M  V30 2704 H 264.143 -3.92561 -1.42428 0
M  V30 2705 N 264.58 -0.43555 -1.51462 0
M  V30 2706 C 265.829 0.133007 -2.01261 0
M  V30 2707 C 266.142 1.43942 -1.32439 0
M  V30 2708 O 267.348 2.09081 -1.73198 0
M  V30 2709 C 265.804 0.287581 -3.58749 0
M  V30 2710 C 265.412 -1.00829 -4.36506 0
M  V30 2711 C 267.156 0.810004 -4.167 0
M  V30 2712 C 265.063 -0.819454 -5.85695 0
M  V30 2713 H 263.993 0.0534822 -0.752101 0
M  V30 2714 H 266.644 -0.565038 -1.74584 0
M  V30 2715 H 265.026 1.04859 -3.81865 0
M  V30 2716 H 266.2 -1.77749 -4.25138 0
M  V30 2717 H 264.515 -1.45911 -3.89999 0
M  V30 2718 H 267.112 0.967743 -5.2587 0
M  V30 2719 H 267.455 1.79196 -3.75758 0
M  V30 2720 H 267.988 0.107357 -3.97655 0
M  V30 2721 H 264.727 -1.77374 -6.31046 0
M  V30 2722 H 264.247 -0.0900208 -5.99732 0
M  V30 2723 H 265.926 -0.471949 -6.45276 0
M  V30 2724 N 266.058 1.56714 -0.166846 0
M  V30 2725 C 267.304 1.97039 0.479962 0
M  V30 2726 C 267.637 1.05264 1.63197 0
M  V30 2727 O 266.912 0.0988833 1.94248 0
M  V30 2728 C 267.195 3.46867 0.967212 0
M  V30 2729 C 267.048 4.49421 -0.18466 0
M  V30 2730 C 268.367 3.9968 1.84238 0
M  V30 2731 H 265.486 0.71641 0.172992 0
M  V30 2732 H 268.128 1.8832 -0.252079 0
M  V30 2733 H 266.278 3.54428 1.59101 0
M  V30 2734 H 267.95 4.53924 -0.821621 0
M  V30 2735 H 266.193 4.25573 -0.840837 0
M  V30 2736 H 266.864 5.51644 0.198317 0
M  V30 2737 H 269.34 3.94723 1.31655 0
M  V30 2738 H 268.216 5.04941 2.15234 0
M  V30 2739 H 268.477 3.43226 2.78654 0
M  V30 2740 N 267.536 -0.106894 1.57237 0
M  V30 2741 C 268.483 -1.13049 2.01217 0
M  V30 2742 C 269.453 -1.40471 0.886403 0
M  V30 2743 O 270.638 -1.52133 1.15153 0
M  V30 2744 C 267.778 -2.4487 2.43172 0
M  V30 2745 C 266.891 -2.24281 3.69218 0
M  V30 2746 C 266.026 -3.49417 4.00101 0
M  V30 2747 C 265.065 -3.24038 5.19294 0
M  V30 2748 N 264.202 -4.41409 5.45988 0
M  V30 2749 H 269.042 -0.748456 2.88448 0
M  V30 2750 H 266.579 -0.358054 1.42676 0
M  V30 2751 H 268.537 -3.21786 2.65537 0
M  V30 2752 H 267.167 -2.80944 1.58967 0
M  V30 2753 H 266.219 -1.38224 3.54398 0
M  V30 2754 H 267.531 -2.01512 4.56283 0
M  V30 2755 H 266.685 -4.34746 4.2318 0
M  V30 2756 H 265.424 -3.75229 3.11535 0
M  V30 2757 H 264.429 -2.37102 4.96047 0
M  V30 2758 H 265.654 -2.99584 6.09447 0
M  V30 2759 H 263.6 -4.67319 4.60379 0
M  V30 2760 H 263.517 -4.21788 6.274 0
M  V30 2761 H 264.785 -5.27836 5.73593 0
M  V30 2762 N 269.014 -1.53014 -0.377408 0
M  V30 2763 C 270.239 -1.72818 -1.14668 0
M  V30 2764 C 270.664 -0.450725 -1.8262 0
M  V30 2765 O 270.022 0.59439 -1.7128 0
M  V30 2766 C 270.07 -2.88627 -2.16164 0
M  V30 2767 O 269.174 -2.56409 -3.22998 0
M  V30 2768 H 268.515 -0.574301 -0.333278 0
M  V30 2769 H 271.045 -1.99853 -0.438152 0
M  V30 2770 H 271.055 -3.14455 -2.59966 0
M  V30 2771 H 269.73 -3.81294 -1.66095 0
M  V30 2772 H 268.307 -2.4136 -2.84253 0
M  V30 2773 N 270.492 0.636531 -1.44174 0
M  V30 2774 C 271.903 1.21806 -1.41493 0
M  V30 2775 C 272.254 1.95785 -0.1275 0
M  V30 2776 O 271.379 2.02147 0.772376 0
M  V30 2777 C 271.974 2.21551 -2.56321 0
M  V30 2778 C 270.533 2.75143 -2.56853 0
M  V30 2779 C 269.68 1.50052 -2.33195 0
M  V30 2780 H 272.631 0.427531 -1.52833 0
M  V30 2781 H 272.652 3.0405 -2.28765 0
M  V30 2782 H 272.164 1.67679 -3.50008 0
M  V30 2783 H 270.265 3.33033 -1.67093 0
M  V30 2784 H 270.378 3.2155 -3.55165 0
M  V30 2785 H 268.742 1.77993 -1.82183 0
M  V30 2786 H 269.525 0.980903 -3.28988 0
M  V30 2787 N 271.97 1.30982 0.876444 0
M  V30 2788 C 273.219 1.19658 1.62373 0
M  V30 2789 C 273.532 -0.245636 1.94052 0
M  V30 2790 O 274.738 -0.48049 2.67214 0
M  V30 2791 C 273.194 2.09433 2.92687 0
M  V30 2792 C 272.802 3.58613 2.68516 0
M  V30 2793 C 274.546 2.06893 3.70669 0
M  V30 2794 C 272.453 4.40416 3.94699 0
M  V30 2795 H 271.383 0.444268 0.609214 0
M  V30 2796 H 274.034 1.55791 0.969605 0
M  V30 2797 H 272.416 1.66191 3.59439 0
M  V30 2798 H 273.59 4.10058 2.10212 0
M  V30 2799 H 271.905 3.63063 2.03898 0
M  V30 2800 H 274.502 2.65258 4.64265 0
M  V30 2801 H 274.845 1.05448 4.02724 0
M  V30 2802 H 275.378 2.48301 3.10792 0
M  V30 2803 H 272.117 5.42591 3.67798 0
M  V30 2804 H 271.637 3.93731 4.52477 0
M  V30 2805 H 273.316 4.52294 4.62644 0
M  V30 2806 N 273.449 -1.08991 1.13837 0
M  V30 2807 C 274.382 -2.15049 0.763477 0
M  V30 2808 C 275.36 -1.60629 -0.252398 0
M  V30 2809 O 276.544 -1.87958 -0.142853 0
M  V30 2810 C 273.671 -3.38441 0.132545 0
M  V30 2811 C 272.717 -4.11596 1.11763 0
M  V30 2812 S 273.55 -4.6521 2.65216 0
M  V30 2813 C 274.706 -5.91896 2.03495 0
M  V30 2814 H 274.939 -2.46518 1.66182 0
M  V30 2815 H 272.472 -1.21008 0.958976 0
M  V30 2816 H 274.43 -4.09883 -0.225074 0
M  V30 2817 H 273.091 -3.05182 -0.743135 0
M  V30 2818 H 272.284 -5.00121 0.624076 0
M  V30 2819 H 271.886 -3.46038 1.41894 0
M  V30 2820 H 274.178 -6.63156 1.38675 0
M  V30 2821 H 275.121 -6.45938 2.9012 0
M  V30 2822 H 275.529 -5.44625 1.48471 0
M  V30 2823 N 274.927 -0.932562 -1.27047 0
M  V30 2824 C 276.167 -0.582919 -1.95912 0
M  V30 2825 C 276.531 0.860629 -1.71631 0
M  V30 2826 O 277.732 1.31878 -2.34225 0
M  V30 2827 C 276.003 -0.905673 -3.45734 0
M  V30 2828 S 277.562 -0.665277 -4.33727 0
M  V30 2829 H 274.38 -0.215 -0.677714 0
M  V30 2830 H 276.982 -1.20204 -1.54179 0
M  V30 2831 H 275.686 -1.95386 -3.60905 0
M  V30 2832 H 275.217 -0.275939 -3.92431 0
M  V30 2833 H 277.232 0.474635 -4.93925 0
M  V30 2834 N 276.405 1.4127 -0.698611 0
M  V30 2835 C 277.355 2.27997 -0.0119836 0
M  V30 2836 C 278.339 1.42363 0.749765 0
M  V30 2837 O 279.531 1.65607 0.624758 0
M  V30 2838 C 276.66 3.30702 0.921458 0
M  V30 2839 C 275.746 4.23814 0.155796 0
M  V30 2840 N 276.137 4.98572 -0.852015 0
M  V30 2841 C 274.435 4.44284 0.390836 0
M  V30 2842 C 275.136 5.66744 -1.3106 0
M  V30 2843 N 274.112 5.39867 -0.635944 0
M  V30 2844 H 277.914 2.83232 -0.784649 0
M  V30 2845 H 275.428 1.53518 -0.529711 0
M  V30 2846 H 277.425 3.91661 1.42854 0
M  V30 2847 H 276.085 2.77028 1.69369 0
M  V30 2848 H 277.096 5.03024 -1.23235 0
M  V30 2849 H 273.773 4.01614 1.14071 0
M  V30 2850 H 275.163 6.36672 -2.14707 0
M  V30 2851 N 277.883 0.443576 1.51229 0
M  V30 2852 C 278.793 -0.370721 2.31652 0
M  V30 2853 C 279.809 -1.02186 1.40833 0
M  V30 2854 O 280.985 -1.01586 1.73903 0
M  V30 2855 C 278.05 -1.45376 3.14749 0
M  V30 2856 C 277.111 -0.822099 4.21355 0
M  V30 2857 C 276.344 -1.85353 5.0048 0
M  V30 2858 O 276.567 -3.07656 4.80316 0
M  V30 2859 O 275.501 -1.4406 5.84406 0
M  V30 2860 H 279.327 0.286002 3.0235 0
M  V30 2861 H 276.912 0.20598 1.47973 0
M  V30 2862 H 278.794 -2.08173 3.66391 0
M  V30 2863 H 277.469 -2.09445 2.46809 0
M  V30 2864 H 276.376 -0.155909 3.73775 0
M  V30 2865 H 277.709 -0.224797 4.91686 0
M  V30 2866 N 279.361 -1.56624 0.175154 0
M  V30 2867 C 280.308 -2.18149 -0.753634 0
M  V30 2868 C 281.278 -1.12265 -1.22417 0
M  V30 2869 O 282.463 -1.40432 -1.29165 0
M  V30 2870 C 279.603 -2.82933 -1.97592 0
M  V30 2871 C 278.716 -4.03289 -1.5486 0
M  V30 2872 C 277.851 -4.55988 -2.72485 0
M  V30 2873 C 276.89 -5.68746 -2.26262 0
M  V30 2874 N 276.027 -6.15938 -3.36994 0
M  V30 2875 H 280.867 -2.9717 -0.222195 0
M  V30 2876 H 278.404 -1.46774 -0.0979422 0
M  V30 2877 H 280.362 -3.18653 -2.69288 0
M  V30 2878 H 278.992 -2.06509 -2.481 0
M  V30 2879 H 278.044 -3.73364 -0.728246 0
M  V30 2880 H 279.356 -4.849 -1.16933 0
M  V30 2881 H 278.51 -4.9391 -3.52332 0
M  V30 2882 H 277.249 -3.73443 -3.13674 0
M  V30 2883 H 276.254 -5.30372 -1.44863 0
M  V30 2884 H 277.479 -6.53095 -1.86127 0
M  V30 2885 H 275.425 -5.36321 -3.77751 0
M  V30 2886 H 275.342 -6.92548 -3.03172 0
M  V30 2887 H 276.61 -6.58511 -4.17114 0
M  V30 2888 N 280.839 0.0985539 -1.57292 0
M  V30 2889 C 282.064 0.820196 -1.90493 0
M  V30 2890 C 282.489 1.71658 -0.769094 0
M  V30 2891 O 281.847 1.79133 0.279495 0
M  V30 2892 C 281.895 1.61242 -3.22542 0
M  V30 2893 O 280.999 2.72108 -3.09888 0
M  V30 2894 H 280.34 0.225547 -0.62452 0
M  V30 2895 H 282.87 0.0748159 -2.04463 0
M  V30 2896 H 282.88 1.99737 -3.55766 0
M  V30 2897 H 281.555 0.954535 -4.04798 0
M  V30 2898 H 280.132 2.36667 -2.88172 0
M  V30 2899 N 282.317 1.53212 0.369288 0
M  V30 2900 C 283.728 1.60943 0.946276 0
M  V30 2901 C 284.079 0.47452 1.90375 0
M  V30 2902 O 283.204 -0.399597 2.12679 0
M  V30 2903 C 283.799 2.91715 1.72302 0
M  V30 2904 C 282.358 3.01792 2.24941 0
M  V30 2905 C 281.505 2.56211 1.06072 0
M  V30 2906 H 284.456 1.58007 0.148198 0
M  V30 2907 H 284.477 2.79309 2.58393 0
M  V30 2908 H 283.989 3.74295 1.0259 0
M  V30 2909 H 282.09 2.23791 2.97906 0
M  V30 2910 H 282.203 4.06803 2.53077 0
M  V30 2911 H 280.567 2.10998 1.4266 0
M  V30 2912 H 281.35 3.41206 0.378639 0
M  V30 2913 N 283.795 -0.628877 1.44509 0
M  V30 2914 C 285.02 -1.42048 1.5112 0
M  V30 2915 C 285.445 -1.87594 0.137818 0
M  V30 2916 O 284.803 -1.58873 -0.873437 0
M  V30 2917 C 284.851 -2.61541 2.48251 0
M  V30 2918 O 283.955 -3.61453 1.98559 0
M  V30 2919 H 283.296 -0.424942 0.510216 0
M  V30 2920 H 285.826 -0.767374 1.89664 0
M  V30 2921 H 285.836 -3.09057 2.66361 0
M  V30 2922 H 284.511 -2.27736 3.48007 0
M  V30 2923 H 283.088 -3.20731 1.90227 0
M  V30 2924 N 285.273 -1.31445 -0.869486 0
M  V30 2925 C 286.519 -1.21337 -1.62496 0
M  V30 2926 C 286.852 0.227872 -1.92858 0
M  V30 2927 O 286.127 1.16094 -1.56053 0
M  V30 2928 C 286.41 -2.05814 -2.95487 0
M  V30 2929 C 286.263 -3.5824 -2.72 0
M  V30 2930 C 287.582 -1.9079 -3.96594 0
M  V30 2931 H 284.701 -0.442135 -0.589649 0
M  V30 2932 H 287.343 -1.6124 -1.00507 0
M  V30 2933 H 285.493 -1.71913 -3.48394 0
M  V30 2934 H 287.165 -4.0228 -2.25762 0
M  V30 2935 H 285.408 -3.81647 -2.06224 0
M  V30 2936 H 286.079 -4.12657 -3.66631 0
M  V30 2937 H 288.555 -2.20459 -3.52898 0
M  V30 2938 H 287.431 -2.52199 -4.87531 0
M  V30 2939 H 287.692 -0.871341 -4.33428 0
M  V30 2940 N 286.751 1.08385 -1.14413 0
M  V30 2941 C 287.991 1.8238 -0.922868 0
M  V30 2942 C 288.355 1.84225 0.540842 0
M  V30 2943 O 289.556 2.53985 0.880058 0
M  V30 2944 C 287.827 3.24048 -1.50757 0
M  V30 2945 S 289.386 4.14917 -1.4279 0
M  V30 2946 H 286.204 0.628524 -0.332384 0
M  V30 2947 H 288.806 1.30278 -1.45766 0
M  V30 2948 H 287.51 3.20288 -2.56601 0
M  V30 2949 H 287.041 3.81224 -0.971178 0
M  V30 2950 H 289.056 4.94473 -0.413582 0
M  V30 2951 N 288.23 0.939286 1.26551 0
M  V30 2952 C 289.455 0.602008 1.98471 0
M  V30 2953 C 289.88 -0.815624 1.69497 0
M  V30 2954 O 289.238 -1.54912 0.941905 0
M  V30 2955 C 289.286 0.848407 3.50477 0
M  V30 2956 O 288.39 -0.0804009 4.12322 0
M  V30 2957 H 287.731 0.23049 0.622712 0
M  V30 2958 H 290.261 1.2617 1.61066 0
M  V30 2959 H 290.271 0.768553 4.00696 0
M  V30 2960 H 288.946 1.88171 3.70897 0
M  V30 2961 H 287.523 0.0503508 3.72866 0
M  V30 2962 N 289.708 -1.40897 0.706093 0
M  V30 2963 C 291.119 -1.84023 0.315052 0
M  V30 2964 C 291.47 -1.5906 -1.14866 0
M  V30 2965 O 290.595 -1.06651 -1.88293 0
M  V30 2966 C 291.19 -3.34055 0.565038 0
M  V30 2967 C 289.749 -3.7571 0.227806 0
M  V30 2968 C 288.896 -2.64204 0.842122 0
M  V30 2969 H 291.847 -1.303 0.905963 0
M  V30 2970 H 291.868 -3.80107 -0.172843 0
M  V30 2971 H 291.38 -3.52192 1.63042 0
M  V30 2972 H 289.481 -3.63172 -0.832895 0
M  V30 2973 H 289.594 -4.74103 0.690174 0
M  V30 2974 H 287.958 -2.53255 0.270893 0
M  V30 2975 H 288.741 -2.85155 1.91158 0
M  V30 2976 N 291.186 -0.45159 -1.50991 0
M  V30 2977 C 292.116 0.342898 -2.30969 0
M  V30 2978 C 293.097 1.00815 -1.37005 0
M  V30 2979 O 294.282 1.00907 -1.65926 0
M  V30 2980 C 291.412 1.43637 -3.16205 0
M  V30 2981 C 290.366 0.893818 -4.18563 0
M  V30 2982 C 289.692 2.08411 -4.92411 0
M  V30 2983 C 290.992 -0.0815568 -5.22236 0
M  V30 2984 H 292.686 -0.324556 -2.97636 0
M  V30 2985 H 290.232 -0.157531 -1.43136 0
M  V30 2986 H 292.185 1.9995 -3.70942 0
M  V30 2987 H 290.909 2.13232 -2.47386 0
M  V30 2988 H 289.568 0.352798 -3.64898 0
M  V30 2989 H 289.216 2.76658 -4.20082 0
M  V30 2990 H 288.916 1.72741 -5.61636 0
M  V30 2991 H 290.44 2.65251 -5.49976 0
M  V30 2992 H 291.854 0.391742 -5.7196 0
M  V30 2993 H 290.251 -0.351551 -5.99069 0
M  V30 2994 H 291.321 -1.01374 -4.74185 0
M  V30 2995 N 292.664 1.56529 -0.183458 0
M  V30 2996 C 293.612 2.19873 0.758845 0
M  V30 2997 C 294.606 1.16638 1.22849 0
M  V30 2998 O 295.812 1.3481 1.19274 0
M  V30 2999 H 292.187 0.7045 0.263029 0
M  V30 3000 H 294.158 2.97724 0.200755 0
M  V30 3001 C 292.907 2.86314 1.9728 0
M  V30 3002 H 292.23 3.65487 1.62047 0
M  V30 3003 H 293.67 3.3409 2.61075 0
M  V30 3004 C 292.129 1.86729 2.80418 0
M  V30 3005 O 292.659 1.36031 3.77966 0
M  V30 3006 N 290.865 1.55216 2.45675 0
M  V30 3007 H 290.412 1.96636 1.66409 0
M  V30 3008 H 290.37 0.888388 3.01588 0
M  V30 3009 N 294.142 -0.090211 1.57342 0
M  V30 3010 C 295.075 -1.14035 1.97664 0
M  V30 3011 C 296.053 -1.38576 0.850616 0
M  V30 3012 O 297.237 -1.52255 1.11134 0
M  V30 3013 C 294.364 -2.48854 2.2976 0
M  V30 3014 C 293.41 -2.40564 3.52181 0
M  V30 3015 S 294.243 -1.81745 5.03715 0
M  V30 3016 C 295.399 -3.18178 5.38993 0
M  V30 3017 H 295.632 -0.796636 2.86428 0
M  V30 3018 H 293.165 -0.298072 1.51496 0
M  V30 3019 H 295.123 -3.26413 2.48927 0
M  V30 3020 H 293.784 -2.80393 1.41558 0
M  V30 3021 H 292.977 -3.39942 3.72096 0
M  V30 3022 H 292.579 -1.71135 3.32549 0
M  V30 3023 H 294.871 -4.14461 5.35937 0
M  V30 3024 H 295.814 -3.03062 6.39968 0
M  V30 3025 H 296.222 -3.17935 4.66452 0
M  V30 3026 N 295.62 -1.53406 -0.361157 0
M  V30 3027 C 296.848 -1.73717 -1.12383 0
M  V30 3028 C 297.263 -0.468161 -1.82904 0
M  V30 3029 O 296.62 0.559198 -1.73722 0
M  V30 3030 C 296.671 -2.90558 -2.15078 0
M  V30 3031 O 296.392 -4.12549 -1.47428 0
M  V30 3032 C 297.893 -3.22777 -3.03858 0
M  V30 3033 H 295.113 -0.580896 -0.335858 0
M  V30 3034 H 297.657 -2.00167 -0.418728 0
M  V30 3035 H 295.812 -2.66489 -2.8118 0
M  V30 3036 H 296.226 -4.78009 -2.15887 0
M  V30 3037 H 297.7 -4.07927 -3.71887 0
M  V30 3038 H 298.177 -2.38329 -3.68912 0
M  V30 3039 H 298.783 -3.48787 -2.43367 0
M  V30 3040 N 297.098 0.621204 -1.44841 0
M  V30 3041 C 298.323 1.41244 -1.51871 0
M  V30 3042 C 298.748 1.87519 -0.147764 0
M  V30 3043 O 298.106 1.59334 0.865 0
M  V30 3044 C 298.154 2.60221 -2.49634 0
M  V30 3045 O 297.258 3.60395 -2.00473 0
M  V30 3046 H 296.599 0.42223 -0.512463 0
M  V30 3047 H 299.129 0.757305 -1.90069 0
M  V30 3048 H 299.139 3.0764 -2.67996 0
M  V30 3049 H 297.814 2.25887 -3.4921 0
M  V30 3050 H 296.391 3.19717 -1.91925 0
M  V30 3051 N 298.576 1.31904 0.862503 0
M  V30 3052 C 299.801 1.25135 1.65397 0
M  V30 3053 C 300.226 -0.179 1.87246 0
M  V30 3054 O 299.584 -1.1277 1.4196 0
M  V30 3055 C 299.632 2.00832 2.99498 0
M  V30 3056 O 298.736 1.35075 3.89652 0
M  V30 3057 H 298.077 0.431655 0.504549 0
M  V30 3058 H 300.607 1.74094 1.07483 0
M  V30 3059 H 300.617 2.10709 3.49379 0
M  V30 3060 H 299.292 3.04847 2.82916 0
M  V30 3061 H 297.869 1.33696 3.48109 0
M  V30 3062 N 300.054 -1.07777 1.14986 0
M  V30 3063 C 301.3 -1.80557 0.923422 0
M  V30 3064 C 301.633 -1.86298 -0.548337 0
M  V30 3065 O 300.908 -1.34354 -1.40639 0
M  V30 3066 C 301.191 -3.25839 1.53299 0
M  V30 3067 C 301.044 -3.28269 3.07505 0
M  V30 3068 C 302.363 -4.22991 1.21518 0
M  V30 3069 H 299.482 -0.655493 0.336894 0
M  V30 3070 H 302.124 -1.26144 1.42083 0
M  V30 3071 H 300.274 -3.72306 1.10999 0
M  V30 3072 H 301.946 -2.90079 3.58681 0
M  V30 3073 H 300.189 -2.67355 3.4162 0
M  V30 3074 H 300.86 -4.30691 3.45266 0
M  V30 3075 H 303.336 -3.84894 1.581 0
M  V30 3076 H 302.212 -5.22945 1.66793 0
M  V30 3077 H 302.473 -4.41904 0.131505 0
M  V30 3078 N 301.532 -0.945985 -1.26051 0
M  V30 3079 C 302.772 -0.603665 -1.95282 0
M  V30 3080 C 303.136 0.842377 -1.72534 0
M  V30 3081 O 304.337 1.29387 -2.35611 0
M  V30 3082 C 302.608 -0.942292 -3.44754 0
M  V30 3083 S 304.167 -0.711242 -4.32997 0
M  V30 3084 H 300.985 -0.222176 -0.675395 0
M  V30 3085 H 303.587 -1.21832 -1.52896 0
M  V30 3086 H 302.291 -1.99203 -3.58812 0
M  V30 3087 H 301.822 -0.317546 -3.92116 0
M  V30 3088 H 303.837 0.422221 -4.944 0
M  V30 3089 N 303.011 1.40521 -0.713556 0
M  V30 3090 C 304.236 2.05759 -0.26035 0
M  V30 3091 C 304.661 1.53403 1.08854 0
M  V30 3092 O 304.019 0.668535 1.68524 0
M  V30 3093 C 304.067 3.59745 -0.248122 0
M  V30 3094 O 303.171 4.05123 0.77131 0
M  V30 3095 H 302.512 0.652564 -0.122703 0
M  V30 3096 H 305.042 1.79958 -0.973467 0
M  V30 3097 H 305.052 4.07911 -0.0851129 0
M  V30 3098 H 303.727 3.97218 -1.2325 0
M  V30 3099 H 302.304 3.68422 0.57619 0
M  V30 3100 N 304.489 0.459591 1.5075 0
M  V30 3101 C 305.9 0.00171547 1.867 0
M  V30 3102 C 306.251 -1.39934 1.37525 0
M  V30 3103 O 305.376 -2.03523 0.735349 0
M  V30 3104 C 305.971 -0.00366298 3.388 0
M  V30 3105 C 304.53 -0.406026 3.74204 0
M  V30 3106 C 303.677 0.38673 2.7459 0
M  V30 3107 H 306.628 0.674413 1.43657 0
M  V30 3108 H 306.649 -0.808371 3.71814 0
M  V30 3109 H 306.161 1.01617 3.74561 0
M  V30 3110 H 304.262 -1.43063 3.4404 0
M  V30 3111 H 304.375 -0.115362 4.78961 0
M  V30 3112 H 302.739 -0.158019 2.54209 0
M  V30 3113 H 303.522 1.40585 3.13194 0
M  V30 3114 N 305.967 -1.56429 0.191757 0
M  V30 3115 C 306.93 -2.17707 -0.716688 0
M  V30 3116 C 307.93 -1.13061 -1.14341 0
M  V30 3117 O 309.12 -1.38464 -1.05704 0
M  V30 3118 C 306.252 -2.77644 -1.97804 0
M  V30 3119 H 307.445 -2.99342 -0.1829 0
M  V30 3120 H 304.998 -1.56193 -0.0578566 0
M  V30 3121 H 305.733 -1.99799 -2.55443 0
M  V30 3122 H 305.518 -3.54246 -1.68083 0
M  V30 3123 H 307.008 -3.24708 -2.62592 0
M  V30 3124 N 307.445 0.0818655 -1.57387 0
M  V30 3125 C 308.693 0.781368 -1.86384 0
M  V30 3126 C 309.014 1.78618 -0.782342 0
M  V30 3127 O 308.284 1.94976 0.190061 0
M  V30 3128 H 306.864 0.291562 -0.687751 0
M  V30 3129 H 309.526 0.060348 -1.94807 0
M  V30 3130 H 308.622 1.3038 -2.83562 0
M  V30 3131 N 308.923 1.53595 0.353017 0
M  V30 3132 C 310.172 1.69603 1.09168 0
M  V30 3133 C 310.485 0.460925 1.90092 0
M  V30 3134 O 311.691 0.501774 2.66823 0
M  V30 3135 C 310.147 2.99872 1.9901 0
M  V30 3136 C 309.755 4.30687 1.23339 0
M  V30 3137 C 311.499 3.25246 2.72792 0
M  V30 3138 C 309.406 5.52036 2.12156 0
M  V30 3139 H 308.336 0.631966 0.411261 0
M  V30 3140 H 310.987 1.80096 0.351802 0
M  V30 3141 H 309.369 2.83212 2.7678 0
M  V30 3142 H 310.543 4.58019 0.505456 0
M  V30 3143 H 308.858 4.11853 0.613663 0
M  V30 3144 H 311.455 4.13095 3.39495 0
M  V30 3145 H 311.798 2.41846 3.38846 0
M  V30 3146 H 312.331 3.42638 2.021 0
M  V30 3147 H 309.07 6.37951 1.50659 0
M  V30 3148 H 308.59 5.28966 2.82764 0
M  V30 3149 H 310.269 5.87313 2.71427 0
M  V30 3150 N 310.401 -0.613514 1.45168 0
M  V30 3151 C 311.349 -1.74572 1.53712 0
M  V30 3152 C 312.343 -1.64426 0.407505 0
M  V30 3153 O 313.549 -1.70291 0.583176 0
M  V30 3154 H 309.924 -0.576641 0.48269 0
M  V30 3155 H 311.895 -1.64492 2.48968 0
M  V30 3156 C 310.644 -3.12943 1.51532 0
M  V30 3157 H 309.967 -3.21407 2.37776 0
M  V30 3158 H 311.407 -3.9201 1.61569 0
M  V30 3159 C 309.866 -3.36053 0.238798 0
M  V30 3160 O 310.396 -3.95837 -0.6838 0
M  V30 3161 N 308.602 -2.9028 0.136359 0
M  V30 3162 H 308.149 -2.41811 0.887999 0
M  V30 3163 H 308.107 -3.06116 -0.716944 0
M  V30 3164 N 311.879 -1.3236 -0.855495 0
M  V30 3165 C 313.104 -1.2601 -1.64731 0
M  V30 3166 C 313.529 0.169068 -1.87339 0
M  V30 3167 O 312.887 1.12016 -1.42556 0
M  V30 3168 C 312.935 -2.02417 -2.98429 0
M  V30 3169 O 312.039 -1.3714 -3.8893 0
M  V30 3170 H 311.38 -0.434325 -0.502253 0
M  V30 3171 H 313.91 -1.74661 -1.06558 0
M  V30 3172 H 313.92 -2.12559 -3.48257 0
M  V30 3173 H 312.595 -3.06343 -2.81295 0
M  V30 3174 H 311.172 -1.3554 -3.47395 0
M  V30 3175 N 313.357 1.07166 -1.15556 0
M  V30 3176 C 314.603 1.80065 -0.932984 0
M  V30 3177 C 314.936 1.86586 0.53845 0
M  V30 3178 O 314.211 1.35098 1.39924 0
M  V30 3179 C 314.494 3.25022 -1.55025 0
M  V30 3180 C 314.347 3.26634 -3.09242 0
M  V30 3181 C 315.666 4.22341 -1.2376 0
M  V30 3182 H 312.785 0.653697 -0.340366 0
M  V30 3183 H 315.427 1.25389 -1.4275 0
M  V30 3184 H 313.577 3.71712 -1.12972 0
M  V30 3185 H 315.249 2.88173 -3.60214 0
M  V30 3186 H 313.492 2.65539 -3.43033 0
M  V30 3187 H 314.163 4.28854 -3.47546 0
M  V30 3188 H 316.639 3.8405 -1.60139 0
M  V30 3189 H 315.515 5.22053 -1.69564 0
M  V30 3190 H 315.776 4.41828 -0.154938 0
M  V30 3191 N 314.835 0.952656 1.25548 0
M  V30 3192 C 316.06 0.623025 1.97821 0
M  V30 3193 C 316.485 -0.7976 1.70352 0
M  V30 3194 O 315.843 -1.53905 0.958283 0
M  V30 3195 C 315.891 0.885532 3.49558 0
M  V30 3196 O 314.995 -0.0366641 4.12384 0
M  V30 3197 H 314.336 0.237082 0.620232 0
M  V30 3198 H 316.866 1.27871 1.59719 0
M  V30 3199 H 316.876 0.811009 3.99858 0
M  V30 3200 H 315.551 1.92094 3.6888 0
M  V30 3201 H 314.128 0.0898954 3.72792 0
M  V30 3202 N 316.313 -1.40141 0.720998 0
M  V30 3203 C 317.538 -2.05618 0.271258 0
M  V30 3204 C 317.963 -1.53978 -1.08039 0
M  V30 3205 O 317.321 -0.677463 -1.68167 0
M  V30 3206 C 317.369 -3.59609 0.267197 0
M  V30 3207 O 316.473 -4.05526 -0.749814 0
M  V30 3208 H 315.814 -0.651904 0.126162 0
M  V30 3209 H 318.344 -1.79439 0.982997 0
M  V30 3210 H 318.354 -4.0786 0.106744 0
M  V30 3211 H 317.029 -3.96559 1.25354 0
M  V30 3212 H 315.606 -3.68722 -0.556644 0
M  V30 3213 N 317.792 -0.46758 -1.50504 0
M  V30 3214 C 319.02 0.0864133 -2.06719 0
M  V30 3215 C 319.435 1.33819 -1.33184 0
M  V30 3216 O 318.792 1.78061 -0.400083 0
M  V30 3217 C 318.843 0.378079 -3.59517 0
M  V30 3218 O 318.564 -0.824044 -4.3028 0
M  V30 3219 C 320.065 0.979426 -4.32345 0
M  V30 3220 H 317.285 -0.00551697 -0.670977 0
M  V30 3221 H 319.829 -0.655354 -1.93715 0
M  V30 3222 H 317.984 1.06977 -3.72337 0
M  V30 3223 H 318.398 -0.566518 -5.21432 0
M  V30 3224 H 319.872 1.1333 -5.40241 0
M  V30 3225 H 320.349 1.9686 -3.9261 0
M  V30 3226 H 320.955 0.326216 -4.24047 0
M  V30 3227 N 319.27 1.56325 -0.20005 0
M  V30 3228 C 320.498 2.02105 0.442874 0
M  V30 3229 C 320.913 1.08014 1.5485 0
M  V30 3230 O 320.27 0.0858797 1.82298 0
M  V30 3231 C 320.321 3.47549 0.994583 0
M  V30 3232 O 320.042 4.38049 -0.0669322 0
M  V30 3233 C 321.543 4.0887 1.7129 0
M  V30 3234 H 318.763 0.661807 0.110691 0
M  V30 3235 H 321.307 2.02134 -0.310207 0
M  V30 3236 H 319.462 3.48204 1.69803 0
M  V30 3237 H 319.876 5.23368 0.344462 0
M  V30 3238 H 321.35 5.12475 2.05118 0
M  V30 3239 H 321.827 3.52615 2.61838 0
M  V30 3240 H 322.433 4.12002 1.05518 0
M  V30 3241 N 320.748 -0.0735177 1.57428 0
M  V30 3242 C 321.711 -1.07192 2.02589 0
M  V30 3243 C 322.711 -1.31695 0.922661 0
M  V30 3244 O 323.901 -1.27445 1.18758 0
M  V30 3245 C 321.033 -2.41599 2.40506 0
M  V30 3246 H 322.226 -0.682727 2.92025 0
M  V30 3247 H 319.779 -0.319193 1.53006 0
M  V30 3248 H 320.514 -2.85354 1.5409 0
M  V30 3249 H 320.299 -2.25156 3.21009 0
M  V30 3250 H 321.789 -3.13367 2.76027 0
M  V30 3251 N 322.226 -1.5378 -0.344866 0
M  V30 3252 C 323.451 -1.75211 -1.10977 0
M  V30 3253 C 323.876 -0.48936 -1.81623 0
M  V30 3254 O 323.234 0.557925 -1.72502 0
M  V30 3255 C 323.282 -2.93147 -2.09993 0
M  V30 3256 O 322.386 -2.63203 -3.17487 0
M  V30 3257 H 321.727 -0.581241 -0.321021 0
M  V30 3258 H 324.257 -2.00738 -0.395661 0
M  V30 3259 H 324.267 -3.19898 -2.53237 0
M  V30 3260 H 322.942 -3.84731 -1.5797 0
M  V30 3261 H 321.519 -2.47336 -2.79069 0
M  V30 3262 N 323.704 0.605807 -1.45491 0
M  V30 3263 C 324.951 1.36476 -1.49601 0
M  V30 3264 C 325.279 1.94007 -0.138452 0
M  V30 3265 O 324.534 1.75638 0.863114 0
M  V30 3266 C 324.833 2.53012 -2.52428 0
M  V30 3267 C 324.499 2.13617 -3.97087 0
M  V30 3268 C 323.161 2.02587 -4.36477 0
M  V30 3269 C 325.513 1.82899 -4.88055 0
M  V30 3270 C 322.841 1.59064 -5.64726 0
M  V30 3271 C 325.193 1.40861 -6.16718 0
M  V30 3272 C 323.857 1.28391 -6.55036 0
M  V30 3273 H 323.127 0.499402 -0.547429 0
M  V30 3274 H 325.774 0.684546 -1.78847 0
M  V30 3275 H 324.079 3.26379 -2.16758 0
M  V30 3276 H 325.776 3.1124 -2.52845 0
M  V30 3277 H 322.366 2.23129 -3.65939 0
M  V30 3278 H 326.55 1.90317 -4.58359 0
M  V30 3279 H 321.806 1.48034 -5.93208 0
M  V30 3280 H 325.98 1.16138 -6.86648 0
M  V30 3281 H 323.607 0.944403 -7.54311 0
M  V30 3282 N 325.182 1.32811 0.848464 0
M  V30 3283 C 326.43 1.23479 1.59991 0
M  V30 3284 C 326.751 -0.201853 1.93952 0
M  V30 3285 O 326.021 -1.12818 1.60153 0
M  V30 3286 H 324.601 0.454034 0.593179 0
M  V30 3287 H 327.263 1.66412 1.01455 0
M  V30 3288 H 326.359 1.82178 2.53412 0
M  V30 3289 N 326.66 -1.06551 1.16123 0
M  V30 3290 C 327.885 -1.83544 0.965735 0
M  V30 3291 C 328.31 -1.81843 -0.481102 0
M  V30 3292 O 327.668 -1.21732 -1.34354 0
M  V30 3293 C 327.716 -3.28169 1.49457 0
M  V30 3294 O 326.82 -4.0643 0.699157 0
M  V30 3295 H 326.161 -0.568026 0.343864 0
M  V30 3296 H 328.691 -1.34362 1.54299 0
M  V30 3297 H 328.701 -3.78992 1.51092 0
M  V30 3298 H 327.376 -3.28722 2.54784 0
M  V30 3299 H 325.953 -3.65216 0.7531 0
M  V30 3300 N 328.138 -0.959301 -1.25041 0
M  V30 3301 C 329.385 -0.616611 -1.92884 0
M  V30 3302 C 329.713 0.847036 -1.75087 0
M  V30 3303 O 328.968 1.62374 -1.09239 0
M  V30 3304 C 329.267 -0.927136 -3.45165 0
M  V30 3305 C 328.933 -2.37757 -3.83122 0
M  V30 3306 C 327.595 -2.77402 -3.93194 0
M  V30 3307 C 329.947 -3.31929 -4.01836 0
M  V30 3308 C 327.275 -4.10277 -4.19392 0
M  V30 3309 C 329.627 -4.64423 -4.29528 0
M  V30 3310 C 328.291 -5.03857 -4.37818 0
M  V30 3311 H 327.561 -0.225634 -0.705812 0
M  V30 3312 H 330.208 -1.20921 -1.48493 0
M  V30 3313 H 328.513 -0.252195 -3.90987 0
M  V30 3314 H 330.21 -0.6405 -3.95852 0
M  V30 3315 H 326.8 -2.06013 -3.75841 0
M  V30 3316 H 330.984 -3.02488 -3.93465 0
M  V30 3317 H 326.24 -4.40467 -4.24027 0
M  V30 3318 H 330.414 -5.37369 -4.42953 0
M  V30 3319 H 328.041 -6.06843 -4.57871 0
M  V30 3320 N 329.616 1.39756 -0.72842 0
M  V30 3321 C 331.027 1.83498 -0.344289 0
M  V30 3322 C 331.378 1.60868 1.12321 0
M  V30 3323 O 330.503 1.09634 1.86573 0
M  V30 3324 C 331.098 3.33114 -0.618112 0
M  V30 3325 C 329.657 3.753 -0.287549 0
M  V30 3326 C 328.804 2.62831 -0.884048 0
M  V30 3327 H 331.755 1.28842 -0.926578 0
M  V30 3328 H 331.776 3.80334 0.112349 0
M  V30 3329 H 331.288 3.49553 -1.68625 0
M  V30 3330 H 329.389 3.64451 0.775012 0
M  V30 3331 H 329.502 4.72945 -0.765512 0
M  V30 3332 H 327.866 2.52792 -0.311149 0
M  V30 3333 H 328.649 2.82078 -1.95671 0
M  V30 3334 N 331.094 0.475555 1.50254 0
M  V30 3335 C 332.34 -0.0780073 2.0265 0
M  V30 3336 C 332.673 -1.38968 1.35652 0
M  V30 3337 O 331.948 -1.8839 0.483691 0
M  V30 3338 C 332.231 -0.257161 3.59181 0
M  V30 3339 C 332.084 1.07585 4.36744 0
M  V30 3340 C 333.403 -1.00965 4.28362 0
M  V30 3341 H 330.522 -0.0268758 0.73651 0
M  V30 3342 H 333.164 0.622015 1.7953 0
M  V30 3343 H 331.314 -0.853412 3.79011 0
M  V30 3344 H 332.986 1.70902 4.28474 0
M  V30 3345 H 331.229 1.6714 4.00308 0
M  V30 3346 H 331.9 0.904088 5.44546 0
M  V30 3347 H 334.376 -0.504214 4.13034 0
M  V30 3348 H 333.252 -1.10381 5.37687 0
M  V30 3349 H 333.513 -2.04731 3.91839 0
M  V30 3350 N 332.573 -1.56217 0.208337 0
M  V30 3351 C 333.523 -2.16324 -0.720281 0
M  V30 3352 C 334.507 -1.10775 -1.16695 0
M  V30 3353 O 335.699 -1.36801 -1.12314 0
M  V30 3354 C 332.828 -2.83644 -1.93393 0
M  V30 3355 C 331.914 -3.96401 -1.50755 0
M  V30 3356 N 332.305 -4.99546 -0.792937 0
M  V30 3357 C 330.603 -4.08246 -1.79585 0
M  V30 3358 C 331.304 -5.78828 -0.577364 0
M  V30 3359 N 330.28 -5.31723 -1.1301 0
M  V30 3360 H 334.082 -2.93432 -0.165725 0
M  V30 3361 H 331.596 -1.62397 0.00906463 0
M  V30 3362 H 333.593 -3.25107 -2.60981 0
M  V30 3363 H 332.253 -2.08027 -2.49308 0
M  V30 3364 H 333.264 -5.15967 -0.447004 0
M  V30 3365 H 329.941 -3.4377 -2.36915 0
M  V30 3366 H 331.331 -6.71899 -0.00952956 0
M  V30 3367 N 334.051 0.0651679 -1.57465 0
M  V30 3368 C 335.276 0.779605 -1.9219 0
M  V30 3369 C 335.701 1.69988 -0.805333 0
M  V30 3370 O 335.059 1.79685 0.241435 0
M  V30 3371 C 335.107 1.54364 -3.2589 0
M  V30 3372 O 334.211 2.65474 -3.1559 0
M  V30 3373 H 333.552 0.212249 -0.629163 0
M  V30 3374 H 336.082 0.0314294 -2.04576 0
M  V30 3375 H 336.092 1.92146 -3.59922 0
M  V30 3376 H 334.767 0.868457 -4.06732 0
M  V30 3377 H 333.344 2.30501 -2.93128 0
M  V30 3378 N 335.529 1.53961 0.336706 0
M  V30 3379 C 336.94 1.62914 0.911925 0
M  V30 3380 C 337.291 0.514795 1.89326 0
M  V30 3381 O 336.416 -0.354395 2.13478 0
M  V30 3382 C 337.011 2.95304 1.66076 0
M  V30 3383 C 335.57 3.06496 2.18489 0
M  V30 3384 C 334.717 2.58403 1.00613 0
M  V30 3385 H 337.668 1.58285 0.114649 0
M  V30 3386 H 337.689 2.84727 2.5241 0
M  V30 3387 H 337.201 3.76387 0.946276 0
M  V30 3388 H 335.302 2.3006 2.93092 0
M  V30 3389 H 335.415 4.1208 2.44391 0
M  V30 3390 H 333.779 2.13977 1.38152 0
M  V30 3391 H 334.562 3.41932 0.306179 0
M  V30 3392 N 337.007 -0.598083 1.45811 0
M  V30 3393 C 338.256 -1.35295 1.49594 0
M  V30 3394 C 338.569 -1.95057 0.145679 0
M  V30 3395 O 339.775 -2.71431 0.0612099 0
M  V30 3396 C 338.231 -2.45124 2.63519 0
M  V30 3397 C 337.839 -1.91732 4.04899 0
M  V30 3398 C 339.583 -3.2205 2.76558 0
M  V30 3399 C 337.49 -2.991 5.1019 0
M  V30 3400 H 336.42 -0.508552 0.556679 0
M  V30 3401 H 339.071 -0.639977 1.71978 0
M  V30 3402 H 337.453 -3.19149 2.34435 0
M  V30 3403 H 338.627 -1.24352 4.43704 0
M  V30 3404 H 336.942 -1.27522 3.96393 0
M  V30 3405 H 339.539 -4.0215 3.52391 0
M  V30 3406 H 339.882 -3.73663 1.83526 0
M  V30 3407 H 340.415 -2.55127 3.05213 0
M  V30 3408 H 337.154 -2.52393 6.04961 0
M  V30 3409 H 336.674 -3.65017 4.75944 0
M  V30 3410 H 338.353 -3.63318 5.35359 0
M  V30 3411 N 338.485 -1.33259 -0.841409 0
M  V30 3412 C 339.713 -1.27605 -1.62864 0
M  V30 3413 C 340.128 0.153507 -1.88175 0
M  V30 3414 O 339.485 1.09485 -1.46011 0
M  V30 3415 C 339.536 -2.04596 -2.98031 0
M  V30 3416 O 339.257 -3.41975 -2.73834 0
M  V30 3417 C 340.758 -2.06122 -3.92465 0
M  V30 3418 H 337.978 -0.439718 -0.506842 0
M  V30 3419 H 340.522 -1.75591 -1.04824 0
M  V30 3420 H 338.677 -1.60299 -3.5268 0
M  V30 3421 H 339.091 -3.81549 -3.59889 0
M  V30 3422 H 340.565 -2.64451 -4.84531 0
M  V30 3423 H 341.042 -1.05083 -4.26444 0
M  V30 3424 H 341.648 -2.50427 -3.43753 0
M  V30 3425 N 339.963 1.05934 -1.16686 0
M  V30 3426 C 340.895 2.13468 -0.834503 0
M  V30 3427 C 341.908 1.62013 0.15984 0
M  V30 3428 O 343.097 1.7838 -0.0654228 0
M  V30 3429 C 340.197 3.3817 -0.222361 0
M  V30 3430 C 339.37 4.18928 -1.25771 0
M  V30 3431 C 338.429 5.21985 -0.664703 0
M  V30 3432 O 337.455 5.53334 -1.33453 0
M  V30 3433 N 338.657 5.77919 0.546834 0
M  V30 3434 H 341.422 2.42578 -1.75999 0
M  V30 3435 H 338.983 1.21967 -1.06469 0
M  V30 3436 H 340.975 4.04266 0.187472 0
M  V30 3437 H 339.545 3.06655 0.606758 0
M  V30 3438 H 338.765 3.48433 -1.84358 0
M  V30 3439 H 340.053 4.69687 -1.95631 0
M  V30 3440 H 339.451 5.54721 1.10912 0
M  V30 3441 H 338.008 6.45573 0.898829 0
M  V30 3442 N 341.441 0.965919 1.2453 0
M  V30 3443 C 342.689 0.625593 1.92174 0
M  V30 3444 C 343.01 -0.841652 1.75901 0
M  V30 3445 O 342.28 -1.60061 1.12948 0
M  V30 3446 H 340.86 0.228388 0.71123 0
M  V30 3447 H 343.522 1.2266 1.51461 0
M  V30 3448 H 342.618 0.864653 2.99884 0
M  V30 3449 N 342.919 -1.39368 0.735821 0
M  V30 3450 C 344.147 -2.04795 0.294393 0
M  V30 3451 C 344.562 -1.55478 -1.07107 0
M  V30 3452 O 343.919 -0.720038 -1.67695 0
M  V30 3453 C 343.97 -3.6035 0.288071 0
M  V30 3454 O 343.691 -4.07852 1.59963 0
M  V30 3455 C 345.192 -4.42976 -0.169422 0
M  V30 3456 H 342.412 -0.658571 0.128551 0
M  V30 3457 H 344.956 -1.78399 0.999701 0
M  V30 3458 H 343.111 -3.85645 -0.368355 0
M  V30 3459 H 343.525 -5.02181 1.51375 0
M  V30 3460 H 344.999 -5.51864 -0.122687 0
M  V30 3461 H 345.476 -4.22068 -1.21472 0
M  V30 3462 H 346.082 -4.22832 0.457469 0
M  V30 3463 N 344.397 -0.483516 -1.5 0
M  V30 3464 C 345.808 -0.0314176 -1.86674 0
M  V30 3465 C 346.159 1.37728 -1.39733 0
M  V30 3466 O 345.284 2.02327 -0.767635 0
M  V30 3467 C 345.879 -0.0502376 -3.38763 0
M  V30 3468 C 344.438 0.346442 -3.74802 0
M  V30 3469 C 343.585 -0.430366 -2.7394 0
M  V30 3470 H 346.536 -0.697182 -1.42566 0
M  V30 3471 H 346.557 0.749116 -3.73053 0
M  V30 3472 H 346.069 -1.07563 -3.72897 0
M  V30 3473 H 344.17 1.37572 -3.46273 0
M  V30 3474 H 344.283 0.0391486 -4.79084 0
M  V30 3475 H 342.647 0.117557 -2.54429 0
M  V30 3476 H 343.43 -1.4555 -3.10918 0
M  V30 3477 N 345.875 1.56104 -0.216619 0
M  V30 3478 C 346.805 2.23063 0.690296 0
M  V30 3479 C 347.786 1.20072 1.20485 0
M  V30 3480 O 348.971 1.48643 1.24976 0
M  V30 3481 C 346.101 2.90672 1.90072 0
M  V30 3482 C 345.055 4.00092 1.5202 0
M  V30 3483 C 344.381 4.54972 2.80899 0
M  V30 3484 C 345.681 5.17398 0.71391 0
M  V30 3485 H 347.375 2.99109 0.132038 0
M  V30 3486 H 344.921 1.43866 0.0620664 0
M  V30 3487 H 346.874 3.36204 2.54057 0
M  V30 3488 H 345.598 2.12066 2.48386 0
M  V30 3489 H 344.257 3.55283 0.903839 0
M  V30 3490 H 343.905 3.73102 3.37348 0
M  V30 3491 H 343.605 5.28817 2.56176 0
M  V30 3492 H 345.129 5.0322 3.45836 0
M  V30 3493 H 346.543 5.59342 1.25735 0
M  V30 3494 H 344.94 5.97444 0.563951 0
M  V30 3495 H 346.01 4.84088 -0.280527 0
M  V30 3496 N 347.353 -0.0568162 1.57498 0
M  V30 3497 C 348.581 -0.765626 1.92213 0
M  V30 3498 C 348.996 -1.70353 0.813961 0
M  V30 3499 O 348.353 -1.81268 -0.211701 0
M  V30 3500 C 348.404 -1.5465 3.2675 0
M  V30 3501 O 348.125 -0.646278 4.33307 0
M  V30 3502 C 349.626 -2.35497 3.75574 0
M  V30 3503 H 346.846 -0.216835 0.634999 0
M  V30 3504 H 349.39 -0.0226146 2.04487 0
M  V30 3505 H 347.545 -2.24165 3.15957 0
M  V30 3506 H 347.959 -1.19093 5.108 0
M  V30 3507 H 349.433 -2.85722 4.72299 0
M  V30 3508 H 349.91 -3.15692 3.05344 0
M  V30 3509 H 350.516 -1.7111 3.8936 0
M  V30 3510 N 348.832 -1.54138 -0.328536 0
M  V30 3511 C 350.072 -1.73827 -1.07534 0
M  V30 3512 C 350.436 -0.498777 -1.85408 0
M  V30 3513 O 351.637 -0.572937 -2.62623 0
M  V30 3514 C 349.908 -2.97573 -1.97952 0
M  V30 3515 S 351.467 -3.38143 -2.79652 0
M  V30 3516 H 348.285 -0.611287 -0.36311 0
M  V30 3517 H 350.887 -1.92306 -0.351931 0
M  V30 3518 H 349.591 -3.85939 -1.39569 0
M  V30 3519 H 349.122 -2.81603 -2.74706 0
M  V30 3520 H 351.137 -2.93052 -4.00418 0
M  V30 3521 N 350.31 0.590341 -1.46126 0
M  V30 3522 C 351.535 1.37991 -1.54833 0
M  V30 3523 C 351.96 1.87163 -0.187506 0
M  V30 3524 O 351.318 1.61133 0.831008 0
M  V30 3525 C 351.366 2.54867 -2.55098 0
M  V30 3526 O 350.47 3.56061 -2.08073 0
M  V30 3527 H 349.811 0.411265 -0.521303 0
M  V30 3528 H 352.341 0.716819 -1.91632 0
M  V30 3529 H 352.351 3.01886 -2.74461 0
M  V30 3530 H 351.026 2.18429 -3.53923 0
M  V30 3531 H 349.603 3.15574 -1.98664 0
M  V30 3532 N 351.788 1.33704 0.83433 0
M  V30 3533 C 353.199 1.22813 1.4062 0
M  V30 3534 C 353.55 -0.151107 1.95617 0
M  V30 3535 O 352.675 -1.05092 1.89168 0
M  V30 3536 C 353.27 2.22355 2.55624 0
M  V30 3537 C 351.829 2.1529 3.08751 0
M  V30 3538 C 350.976 2.09589 1.8157 0
M  V30 3539 H 353.927 1.45236 0.639702 0
M  V30 3540 H 353.948 1.83391 3.33389 0
M  V30 3541 H 353.46 3.22728 2.15566 0
M  V30 3542 H 351.561 1.18235 3.53343 0
M  V30 3543 H 351.674 3.06038 3.68616 0
M  V30 3544 H 350.038 1.55134 2.02004 0
M  V30 3545 H 350.821 3.11777 1.43701 0
M  V30 3546 N 353.266 -1.05314 1.17247 0
M  V30 3547 C 354.214 -2.15137 0.884238 0
M  V30 3548 C 355.208 -1.68729 -0.15063 0
M  V30 3549 O 356.414 -1.8 -0.00366673 0
M  V30 3550 H 352.789 -0.702471 0.2684 0
M  V30 3551 H 354.76 -2.36652 1.81764 0
M  V30 3552 C 353.509 -3.45243 0.412659 0
M  V30 3553 H 352.832 -3.81352 1.20043 0
M  V30 3554 H 354.272 -4.23263 0.249858 0
M  V30 3555 C 352.731 -3.25487 -0.86948 0
M  V30 3556 O 353.261 -3.51938 -1.93655 0
M  V30 3557 N 351.467 -2.78875 -0.817147 0
M  V30 3558 H 351.014 -2.57549 0.0514211 0
M  V30 3559 H 350.972 -2.66036 -1.67547 0
M  V30 3560 N 354.744 -0.972509 -1.24016 0
M  V30 3561 C 355.707 -0.511403 -2.23422 0
M  V30 3562 C 356.707 0.394679 -1.55881 0
M  V30 3563 O 357.897 0.189469 -1.73167 0
M  V30 3564 C 355.029 0.258769 -3.39916 0
M  V30 3565 H 356.222 -1.39024 -2.6573 0
M  V30 3566 H 353.775 -0.757585 -1.36713 0
M  V30 3567 H 354.51 1.1545 -3.03054 0
M  V30 3568 H 354.295 -0.391522 -3.9014 0
M  V30 3569 H 355.785 0.570244 -4.13688 0
M  V30 3570 N 356.222 1.38976 -0.743202 0
M  V30 3571 C 357.132 2.3434 -0.110399 0
M  V30 3572 C 358.148 1.58741 0.712559 0
M  V30 3573 O 359.324 1.9099 0.639125 0
M  V30 3574 C 356.389 3.37812 0.780012 0
M  V30 3575 C 355.45 4.29263 -0.0561319 0
M  V30 3576 C 354.683 5.27793 0.791875 0
M  V30 3577 O 354.906 5.33043 2.03031 0
M  V30 3578 O 353.84 6.01512 0.216183 0
M  V30 3579 H 357.666 2.90129 -0.897714 0
M  V30 3580 H 355.251 1.40643 -0.503966 0
M  V30 3581 H 357.133 4.01194 1.28923 0
M  V30 3582 H 355.808 2.84395 1.546 0
M  V30 3583 H 354.715 3.69076 -0.611056 0
M  V30 3584 H 356.048 4.85907 -0.784531 0
M  V30 3585 N 357.7 0.491464 1.49741 0
M  V30 3586 C 358.648 -0.305837 2.30581 0
M  V30 3587 C 359.642 -0.971642 1.38764 0
M  V30 3588 O 360.848 -0.90042 1.5586 0
M  V30 3589 H 357.223 -0.117482 0.742767 0
M  V30 3590 H 359.194 0.396093 2.95759 0
M  V30 3591 C 357.943 -1.36319 3.19863 0
M  V30 3592 H 357.266 -0.860258 3.90435 0
M  V30 3593 H 358.706 -1.89323 3.79385 0
M  V30 3594 C 357.165 -2.37621 2.38826 0
M  V30 3595 O 357.695 -3.43311 2.08567 0
M  V30 3596 N 355.901 -2.09849 2.01026 0
M  V30 3597 H 355.448 -1.23922 2.25834 0
M  V30 3598 H 355.406 -2.77859 1.47112 0
M  V30 3599 N 359.178 -1.55987 0.224894 0
M  V30 3600 C 360.594 -1.59066 -0.130426 0
M  V30 3601 C 360.794 -1.24176 -1.5869 0
M  V30 3602 O 359.85 -0.978592 -2.32766 0
M  V30 3603 C 361.163 -3.00042 0.198883 0
M  V30 3604 C 362.711 -3.1268 0.141391 0
M  V30 3605 C 363.186 -4.55839 0.444422 0
M  V30 3606 N 364.677 -4.6152 0.394115 0
M  V30 3607 C 365.412 -5.70231 0.602038 0
M  V30 3608 N 364.908 -6.87291 0.871914 0
M  V30 3609 N 366.701 -5.59555 0.534245 0
M  V30 3610 H 358.852 -1.76941 1.17497 0
M  V30 3611 H 361.115 -0.822604 0.471197 0
M  V30 3612 H 360.821 -3.30234 1.2099 0
M  V30 3613 H 360.695 -3.74075 -0.484535 0
M  V30 3614 H 363.082 -2.82283 -0.860265 0
M  V30 3615 H 363.163 -2.40969 0.858335 0
M  V30 3616 H 362.807 -4.86954 1.44353 0
M  V30 3617 H 362.737 -5.2578 -0.293752 0
M  V30 3618 H 365.228 -3.77405 0.193356 0
M  V30 3619 H 365.541 -7.66058 1.01858 0
M  V30 3620 H 363.886 -6.89028 0.909145 0
M  V30 3621 H 367.077 -4.6698 0.323612 0
M  V30 3622 H 367.25 -6.44211 0.699693 0
M  V30 3623 N 360.656 0.0484629 -1.57525 0
M  V30 3624 C 361.904 0.741657 -1.88 0
M  V30 3625 C 362.225 1.76918 -0.820054 0
M  V30 3626 O 361.495 1.95335 0.148661 0
M  V30 3627 H 360.075 0.276908 -0.69378 0
M  V30 3628 H 362.737 0.019013 -1.94891 0
M  V30 3629 H 361.833 1.24336 -2.86264 0
M  V30 3630 N 362.134 1.5431 0.320358 0
M  V30 3631 C 363.359 1.76954 1.08175 0
M  V30 3632 C 363.784 0.518193 1.80821 0
M  V30 3633 O 363.142 -0.530411 1.73368 0
M  V30 3634 C 363.19 2.96451 2.05303 0
M  V30 3635 O 362.294 2.68221 3.13259 0
M  V30 3636 H 361.635 0.586275 0.311733 0
M  V30 3637 H 364.165 2.01342 0.363676 0
M  V30 3638 H 364.175 3.23887 2.48116 0
M  V30 3639 H 362.85 3.87196 1.51829 0
M  V30 3640 H 361.427 2.51744 2.75099 0
M  V30 3641 N 363.613 -0.582584 1.46437 0
M  V30 3642 C 365.029 -0.905962 1.31394 0
M  V30 3643 C 365.229 -1.99468 0.285476 0
M  V30 3644 O 364.285 -2.50566 -0.311914 0
M  V30 3645 C 365.598 -1.3232 2.70022 0
M  V30 3646 C 367.146 -1.43604 2.78113 0
M  V30 3647 C 367.621 -1.88694 4.17323 0
M  V30 3648 N 369.112 -1.95887 4.19741 0
M  V30 3649 C 369.847 -2.32051 5.24347 0
M  V30 3650 N 369.343 -2.67006 6.39281 0
M  V30 3651 N 371.136 -2.32606 5.11713 0
M  V30 3652 H 363.287 0.1366 2.1196 0
M  V30 3653 H 365.55 -0.00155736 0.947999 0
M  V30 3654 H 365.256 -0.597242 3.46592 0
M  V30 3655 H 365.13 -2.28469 3.00136 0
M  V30 3656 H 367.517 -2.15286 2.01832 0
M  V30 3657 H 367.598 -0.457059 2.51684 0
M  V30 3658 H 367.242 -1.1759 4.941 0
M  V30 3659 H 367.172 -2.8755 4.4116 0
M  V30 3660 H 369.663 -1.71362 3.36814 0
M  V30 3661 H 369.976 -2.93554 7.14875 0
M  V30 3662 H 368.321 -2.64644 6.42642 0
M  V30 3663 H 371.512 -2.04721 4.2096 0
M  V30 3664 H 371.685 -2.60462 5.93349 0
M  V30 3665 N 365.091 -1.34144 -0.827227 0
M  V30 3666 C 366.316 -1.29476 -1.62021 0
M  V30 3667 C 366.741 0.129292 -1.87655 0
M  V30 3668 O 366.099 1.08967 -1.449 0
M  V30 3669 C 366.147 -2.08702 -2.94068 0
M  V30 3670 O 365.251 -1.45359 -3.85933 0
M  V30 3671 H 364.592 -0.444881 -0.492927 0
M  V30 3672 H 367.122 -1.76882 -1.02829 0
M  V30 3673 H 367.132 -2.19898 -3.43669 0
M  V30 3674 H 365.807 -3.12241 -2.74734 0
M  V30 3675 H 364.384 -1.42879 -3.44442 0
M  V30 3676 N 366.569 1.04691 -1.17803 0
M  V30 3677 C 367.519 2.10856 -0.867391 0
M  V30 3678 C 368.503 1.601 0.160206 0
M  V30 3679 O 369.695 1.76948 -0.042947 0
M  V30 3680 C 366.824 3.411 -0.388012 0
M  V30 3681 C 365.91 3.9864 -1.44732 0
M  V30 3682 N 366.301 4.30075 -2.66212 0
M  V30 3683 C 364.599 4.26439 -1.30637 0
M  V30 3684 C 365.3 4.76033 -3.34317 0
M  V30 3685 N 364.276 4.76462 -2.61696 0
M  V30 3686 H 368.078 2.33029 -1.79094 0
M  V30 3687 H 365.592 1.22386 -1.0675 0
M  V30 3688 H 367.589 4.16641 -0.146994 0
M  V30 3689 H 366.249 3.20357 0.529271 0
M  V30 3690 H 367.26 4.19917 -3.03134 0
M  V30 3691 H 363.937 4.15056 -0.451129 0
M  V30 3692 H 365.327 5.09427 -4.38103 0
M  V30 3693 N 368.047 0.979072 1.23499 0
M  V30 3694 C 369.272 0.664845 1.96455 0
M  V30 3695 C 369.697 -0.761287 1.72006 0
M  V30 3696 O 369.055 -1.51837 0.990713 0
M  V30 3697 C 369.103 0.959479 3.47601 0
M  V30 3698 O 368.207 0.0508168 4.12369 0
M  V30 3699 H 367.548 0.250185 0.615064 0
M  V30 3700 H 370.078 1.31231 1.5697 0
M  V30 3701 H 370.088 0.895642 3.98048 0
M  V30 3702 H 368.763 1.99876 3.64723 0
M  V30 3703 H 367.34 0.16895 3.72517 0
M  V30 3704 N 369.525 -1.3858 0.750561 0
M  V30 3705 C 370.936 -1.82927 0.373438 0
M  V30 3706 C 371.287 -1.62634 -1.09748 0
M  V30 3707 O 370.412 -1.12588 -1.84805 0
M  V30 3708 C 371.007 -3.32088 0.671029 0
M  V30 3709 C 369.566 -3.74795 0.34722 0
M  V30 3710 C 368.713 -2.61391 0.92575 0
M  V30 3711 H 371.664 -1.27351 0.946958 0
M  V30 3712 H 371.685 -3.80465 -0.0518269 0
M  V30 3713 H 371.197 -3.46826 1.74164 0
M  V30 3714 H 369.298 -3.65638 -0.716933 0
M  V30 3715 H 369.411 -4.71667 0.840656 0
M  V30 3716 H 367.775 -2.52265 0.351327 0
M  V30 3717 H 368.558 -2.78929 2.00133 0
M  V30 3718 N 371.003 -0.499398 -1.49478 0
M  V30 3719 C 371.966 0.268838 -2.27618 0
M  V30 3720 C 372.966 0.895383 -1.33565 0
M  V30 3721 O 374.156 0.760164 -1.56739 0
M  V30 3722 C 371.288 1.38559 -3.11471 0
M  V30 3723 H 372.481 -0.416812 -2.96989 0
M  V30 3724 H 370.034 -0.254313 -1.54217 0
M  V30 3725 H 370.769 2.10544 -2.46661 0
M  V30 3726 H 370.554 0.941797 -3.80621 0
M  V30 3727 H 372.044 1.92678 -3.70493 0
M  V30 3728 N 372.481 1.55866 -0.233164 0
M  V30 3729 C 373.431 2.17442 0.685774 0
M  V30 3730 C 374.415 1.12617 1.14918 0
M  V30 3731 O 375.607 1.3857 1.10124 0
M  V30 3732 C 372.736 2.86685 1.88856 0
M  V30 3733 C 371.822 3.98749 1.4443 0
M  V30 3734 N 372.213 5.00744 0.713364 0
M  V30 3735 C 370.511 4.11052 1.73068 0
M  V30 3736 C 371.212 5.79673 0.485205 0
M  V30 3737 N 370.188 5.33454 1.04536 0
M  V30 3738 H 373.99 2.93659 0.119022 0
M  V30 3739 H 371.504 1.62362 -0.0348995 0
M  V30 3740 H 373.501 3.29218 2.55776 0
M  V30 3741 H 372.161 2.11967 2.45967 0
M  V30 3742 H 373.172 5.16613 0.364861 0
M  V30 3743 H 369.849 3.47495 2.31416 0
M  V30 3744 H 371.239 6.71829 -0.097365 0
M  V30 3745 N 373.959 -0.0401083 1.57549 0
M  V30 3746 C 374.922 -1.02871 2.04817 0
M  V30 3747 C 375.922 -1.29708 0.950388 0
M  V30 3748 O 377.112 -1.24897 1.21435 0
M  V30 3749 C 374.244 -2.36443 2.45576 0
M  V30 3750 H 375.437 -0.620631 2.93408 0
M  V30 3751 H 372.99 -0.286667 1.53649 0
M  V30 3752 H 373.725 -2.82021 1.60108 0
M  V30 3753 H 373.51 -2.18296 3.25713 0
M  V30 3754 H 375 -3.07441 2.82612 0
M  V30 3755 N 375.437 -1.54477 -0.31217 0
M  V30 3756 C 376.662 -1.77526 -1.07235 0
M  V30 3757 C 377.087 -0.527775 -1.80544 0
M  V30 3758 O 376.445 0.52121 -1.73646 0
M  V30 3759 C 376.493 -2.97535 -2.03728 0
M  V30 3760 O 375.597 -2.69878 -3.11833 0
M  V30 3761 H 374.938 -0.58792 -0.30862 0
M  V30 3762 H 377.468 -2.01532 -0.352993 0
M  V30 3763 H 377.478 -3.25198 -2.46395 0
M  V30 3764 H 376.153 -3.87996 -1.49774 0
M  V30 3765 H 374.73 -2.53199 -2.7376 0
M  V30 3766 N 376.915 0.57481 -1.46744 0
M  V30 3767 C 377.863 1.70435 -1.58286 0
M  V30 3768 C 378.857 1.63287 -0.450956 0
M  V30 3769 O 380.063 1.68685 -0.628121 0
M  V30 3770 H 376.438 0.56364 -0.497809 0
M  V30 3771 H 378.409 1.57833 -2.53242 0
M  V30 3772 C 377.158 3.08815 -1.59776 0
M  V30 3773 H 376.481 3.1499 -2.46214 0
M  V30 3774 H 377.921 3.87588 -1.71905 0
M  V30 3775 C 376.38 3.35301 -0.327812 0
M  V30 3776 O 376.91 3.97511 0.57861 0
M  V30 3777 N 375.116 2.89816 -0.213274 0
M  V30 3778 H 374.663 2.39371 -0.951798 0
M  V30 3779 H 374.621 3.0791 0.63553 0
M  V30 3780 N 378.394 1.34581 0.820102 0
M  V30 3781 C 379.64 1.27285 1.57881 0
M  V30 3782 C 379.973 -0.156137 1.93571 0
M  V30 3783 O 379.248 -1.10222 1.60254 0
M  V30 3784 C 379.531 2.16639 2.87645 0
M  V30 3785 C 379.384 3.68088 2.58517 0
M  V30 3786 C 380.703 2.05378 3.8924 0
M  V30 3787 H 377.822 0.463714 0.572833 0
M  V30 3788 H 380.464 1.64859 0.944539 0
M  V30 3789 H 378.614 1.84725 3.41773 0
M  V30 3790 H 380.286 4.10382 2.10676 0
M  V30 3791 H 378.529 3.89038 1.91917 0
M  V30 3792 H 379.2 4.2598 3.51063 0
M  V30 3793 H 381.676 2.33404 3.44473 0
M  V30 3794 H 380.552 2.7012 4.77835 0
M  V30 3795 H 380.813 1.0316 4.29896 0
M  V30 3796 N 379.872 -1.04064 1.18357 0
M  V30 3797 C 381.12 -1.76915 0.977013 0
M  V30 3798 C 381.441 -1.88624 -0.494577 0
M  V30 3799 O 380.711 -1.41125 -1.3587 0
M  V30 3800 H 379.291 -0.65535 0.358504 0
M  V30 3801 H 381.953 -1.25592 1.49039 0
M  V30 3802 H 381.049 -2.78178 1.41504 0
M  V30 3803 N 381.35 -0.985608 -1.22978 0
M  V30 3804 C 382.575 -0.675254 -1.961 0
M  V30 3805 C 383 0.752154 -1.72407 0
M  V30 3806 O 382.358 1.5131 -0.998751 0
M  V30 3807 C 382.406 -0.977899 -3.47087 0
M  V30 3808 O 381.51 -0.072685 -4.12336 0
M  V30 3809 H 380.851 -0.253443 -0.613728 0
M  V30 3810 H 383.381 -1.32061 -1.56272 0
M  V30 3811 H 383.391 -0.916739 -3.97567 0
M  V30 3812 H 382.066 -2.01807 -3.63657 0
M  V30 3813 H 380.643 -0.188703 -3.72422 0
M  V30 3814 N 382.828 1.3818 -0.7579 0
M  V30 3815 C 384.239 1.82726 -0.383134 0
M  V30 3816 C 384.59 1.63214 1.08884 0
M  V30 3817 O 383.715 1.13566 1.84205 0
M  V30 3818 C 384.31 3.31728 -0.688631 0
M  V30 3819 C 382.869 3.74606 -0.367091 0
M  V30 3820 C 382.016 2.60896 -0.939599 0
M  V30 3821 H 384.967 1.26847 -0.953699 0
M  V30 3822 H 384.988 3.80487 0.0316492 0
M  V30 3823 H 384.5 3.45898 -1.76001 0
M  V30 3824 H 382.601 3.66013 0.697532 0
M  V30 3825 H 382.714 4.71215 -0.865658 0
M  V30 3826 H 381.078 2.52075 -0.3647 0
M  V30 3827 H 381.861 2.77864 -2.0161 0
M  V30 3828 N 384.306 0.507319 1.49211 0
M  V30 3829 C 385.236 -0.256939 2.32082 0
M  V30 3830 C 386.217 -0.956609 1.40652 0
M  V30 3831 O 387.402 -0.946788 1.69557 0
M  V30 3832 C 384.532 -1.31802 3.21318 0
M  V30 3833 C 383.486 -0.737855 4.21592 0
M  V30 3834 C 382.812 -1.89992 4.99807 0
M  V30 3835 C 384.112 0.275325 5.21574 0
M  V30 3836 H 385.806 0.434798 2.96226 0
M  V30 3837 H 383.352 0.210546 1.42452 0
M  V30 3838 H 385.305 -1.86045 3.78107 0
M  V30 3839 H 384.029 -2.03903 2.5513 0
M  V30 3840 H 382.688 -0.217126 3.65956 0
M  V30 3841 H 382.336 -2.60877 4.30061 0
M  V30 3842 H 382.036 -1.51777 5.6766 0
M  V30 3843 H 383.56 -2.44657 5.59442 0
M  V30 3844 H 384.974 -0.179193 5.7302 0
M  V30 3845 H 383.371 0.573649 5.97352 0
M  V30 3846 H 384.441 1.18903 4.70096 0
M  V30 3847 N 385.784 -1.5574 0.241426 0
M  V30 3848 C 387.009 -2.0366 -0.392111 0
M  V30 3849 C 387.434 -1.11969 -1.51144 0
M  V30 3850 O 386.792 -0.111594 -1.80956 0
M  V30 3851 C 386.84 -3.49638 -0.882371 0
M  V30 3852 O 385.944 -3.6108 -1.99235 0
M  V30 3853 H 385.285 -0.658379 -0.0862122 0
M  V30 3854 H 387.815 -2.01302 0.365881 0
M  V30 3855 H 387.825 -3.90351 -1.18702 0
M  V30 3856 H 386.5 -4.15852 -0.0632361 0
M  V30 3857 H 385.077 -3.32262 -1.69282 0
M  V30 3858 N 387.262 0.0317525 -1.57568 0
M  V30 3859 C 388.487 0.738664 -1.938 0
M  V30 3860 C 388.912 1.68242 -0.841208 0
M  V30 3861 O 388.27 1.80157 0.203267 0
M  V30 3862 C 388.318 1.47417 -3.29091 0
M  V30 3863 O 387.422 2.5872 -3.2115 0
M  V30 3864 H 386.763 0.198856 -0.633524 0
M  V30 3865 H 389.293 -0.0119713 -2.04596 0
M  V30 3866 H 389.303 1.84468 -3.63917 0
M  V30 3867 H 387.978 0.781988 -4.08482 0
M  V30 3868 H 386.555 2.24231 -2.97951 0
M  V30 3869 N 388.74 1.54641 0.303973 0
M  V30 3870 C 390.151 1.64811 0.877163 0
M  V30 3871 C 390.502 0.554838 1.88191 0
M  V30 3872 O 389.627 -0.309033 2.14182 0
M  V30 3873 C 390.222 2.9876 1.59775 0
M  V30 3874 C 388.781 3.11061 2.11938 0
M  V30 3875 C 387.928 2.60479 0.951097 0
M  V30 3876 H 390.879 1.58493 0.0810486 0
M  V30 3877 H 390.9 2.90017 2.46314 0
M  V30 3878 H 390.412 3.7831 0.866226 0
M  V30 3879 H 388.513 2.36225 2.88146 0
M  V30 3880 H 388.626 4.17171 2.35595 0
M  V30 3881 H 386.99 2.16859 1.33583 0
M  V30 3882 H 387.773 3.42504 0.233581 0
M  V30 3883 N 390.218 -0.567019 1.47046 0
M  V30 3884 C 391.148 -1.68482 1.61667 0
M  V30 3885 C 392.129 -1.6358 0.466418 0
M  V30 3886 O 393.314 -1.81354 0.694574 0
M  V30 3887 C 390.444 -3.07124 1.62148 0
M  V30 3888 C 389.398 -3.26867 2.76301 0
M  V30 3889 C 388.724 -4.66196 2.61849 0
M  V30 3890 C 390.024 -3.13186 4.17986 0
M  V30 3891 H 391.718 -1.56502 2.5524 0
M  V30 3892 H 389.264 -0.751486 1.22836 0
M  V30 3893 H 391.217 -3.8516 1.70968 0
M  V30 3894 H 389.941 -3.2004 0.651287 0
M  V30 3895 H 388.6 -2.51237 2.66975 0
M  V30 3896 H 388.248 -4.75898 1.62879 0
M  V30 3897 H 387.948 -4.80356 3.38425 0
M  V30 3898 H 389.472 -5.46379 2.72584 0
M  V30 3899 H 390.886 -3.81049 4.2834 0
M  V30 3900 H 389.283 -3.3886 4.95272 0
M  V30 3901 H 390.353 -2.10057 4.3704 0
M  V30 3902 N 391.696 -1.35014 -0.812953 0
M  V30 3903 C 392.921 -1.31187 -1.60639 0
M  V30 3904 C 393.346 0.109382 -1.87782 0
M  V30 3905 O 392.704 1.07424 -1.46047 0
M  V30 3906 C 392.752 -2.11809 -2.91838 0
M  V30 3907 O 391.856 -1.49444 -3.8437 0
M  V30 3908 H 391.197 -0.450084 -0.488181 0
M  V30 3909 H 393.727 -1.77963 -1.00947 0
M  V30 3910 H 393.737 -2.23531 -3.41318 0
M  V30 3911 H 392.412 -3.15137 -2.71407 0
M  V30 3912 H 390.989 -1.46524 -3.42907 0
M  V30 3913 N 393.175 1.03435 -1.18907 0
M  V30 3914 C 394.4 1.80919 -1.01406 0
M  V30 3915 C 394.825 1.83055 0.432721 0
M  V30 3916 O 394.183 1.25252 1.31079 0
M  V30 3917 C 394.231 3.24091 -1.58105 0
M  V30 3918 O 393.335 4.04434 -0.806669 0
M  V30 3919 H 392.676 0.558709 -0.358803 0
M  V30 3920 H 395.206 1.30223 -1.57807 0
M  V30 3921 H 395.216 3.74853 -1.61087 0
M  V30 3922 H 393.891 3.21851 -2.6341 0
M  V30 3923 H 392.468 3.63091 -0.849666 0
M  V30 3924 N 394.653 0.992116 1.22453 0
M  V30 3925 C 395.586 0.486701 2.22949 0
M  V30 3926 C 396.564 -0.45259 1.56174 0
M  V30 3927 O 397.748 -0.378317 1.84665 0
M  V30 3928 C 394.875 -0.294537 3.37417 0
M  V30 3929 C 393.921 0.590628 4.22391 0
M  V30 3930 S 394.754 2.04546 4.94895 0
M  V30 3931 C 395.91 1.27369 6.12803 0
M  V30 3932 H 396.143 1.33828 2.65475 0
M  V30 3933 H 393.676 0.799023 1.32117 0
M  V30 3934 H 395.634 -0.739241 4.03789 0
M  V30 3935 H 394.295 -1.12139 2.934 0
M  V30 3936 H 393.488 -0.0104375 5.03999 0
M  V30 3937 H 393.09 0.972064 3.61147 0
M  V30 3938 H 395.382 0.540943 6.75337 0
M  V30 3939 H 396.325 2.06502 6.7732 0
M  V30 3940 H 396.733 0.787324 5.58983 0
M  V30 3941 N 396.131 -1.37776 0.765217 0
M  V30 3942 C 397.078 -2.30342 0.145274 0
M  V30 3943 C 398.048 -1.5077 -0.696971 0
M  V30 3944 O 399.233 -1.79362 -0.650689 0
M  V30 3945 C 396.373 -3.37227 -0.732939 0
M  V30 3946 C 395.486 -4.31819 0.125199 0
M  V30 3947 C 394.621 -5.25777 -0.757107 0
M  V30 3948 C 393.66 -6.12012 0.103963 0
M  V30 3949 N 392.797 -6.98232 -0.735953 0
M  V30 3950 H 397.637 -2.8278 0.940195 0
M  V30 3951 H 395.174 -1.39211 0.475255 0
M  V30 3952 H 397.132 -3.97818 -1.25686 0
M  V30 3953 H 395.762 -2.86171 -1.49353 0
M  V30 3954 H 394.814 -3.7259 0.766865 0
M  V30 3955 H 396.126 -4.92509 0.789683 0
M  V30 3956 H 395.28 -5.91541 -1.34776 0
M  V30 3957 H 394.019 -4.65481 -1.45529 0
M  V30 3958 H 393.024 -5.45233 0.707197 0
M  V30 3959 H 394.249 -6.74379 0.799381 0
M  V30 3960 H 392.195 -6.40472 -1.41887 0
M  V30 3961 H 392.112 -7.55891 -0.128624 0
M  V30 3962 H 393.38 -7.68393 -1.31121 0
M  V30 3963 N 397.609 -0.515225 -1.4894 0
M  V30 3964 C 398.834 0.022727 -2.07388 0
M  V30 3965 C 399.259 1.2876 -1.37122 0
M  V30 3966 O 398.617 1.76067 -0.432431 0
M  V30 3967 C 398.665 0.244869 -3.59768 0
M  V30 3968 O 397.769 1.31667 -3.90817 0
M  V30 3969 H 397.11 -0.0325506 -0.663202 0
M  V30 3970 H 399.64 -0.718918 -1.91553 0
M  V30 3971 H 399.65 0.47205 -4.0526 0
M  V30 3972 H 398.325 -0.679194 -4.10317 0
M  V30 3973 H 396.902 1.07331 -3.5712 0
M  V30 3974 N 399.087 1.5561 -0.249682 0
M  V30 3975 C 400.312 2.03865 0.381305 0
M  V30 3976 C 400.737 1.12769 1.50548 0
M  V30 3977 O 400.095 0.121189 1.80895 0
M  V30 3978 C 400.143 3.50101 0.863816 0
M  V30 3979 O 399.247 3.62132 1.97318 0
M  V30 3980 H 398.588 0.658827 0.0827194 0
M  V30 3981 H 401.118 2.01105 -0.376552 0
M  V30 3982 H 401.128 3.90975 1.1663 0
M  V30 3983 H 399.803 4.1588 0.0411816 0
M  V30 3984 H 398.38 3.33155 1.67517 0
M  V30 3985 N 400.565 -0.0233959 1.57583 0
M  V30 3986 C 401.814 -0.712133 1.8871 0
M  V30 3987 C 402.127 -1.76217 0.848944 0
M  V30 3988 O 403.333 -2.50389 1.04964 0
M  V30 3989 C 401.789 -1.3177 3.3491 0
M  V30 3990 C 401.397 -0.303715 4.46969 0
M  V30 3991 C 403.141 -1.98598 3.75179 0
M  V30 3992 C 401.048 -0.917945 5.84233 0
M  V30 3993 H 399.978 -0.269735 0.704101 0
M  V30 3994 H 402.629 0.0333114 1.8347 0
M  V30 3995 H 401.011 -2.11304 3.34913 0
M  V30 3996 H 402.185 0.465325 4.58445 0
M  V30 3997 H 400.5 0.2628 4.1557 0
M  V30 3998 H 403.097 -2.45416 4.75053 0
M  V30 3999 H 403.44 -2.80659 3.07468 0
M  V30 4000 H 403.973 -1.25831 3.77374 0
M  V30 4001 H 400.712 -0.136633 6.55358 0
M  V30 4002 H 400.232 -1.65669 5.76467 0
M  V30 4003 H 401.911 -1.4236 6.31144 0
M  V30 4004 N 402.043 -1.548 -0.295768 0
M  V30 4005 C 403.268 -1.78653 -1.05346 0
M  V30 4006 C 403.693 -0.546894 -1.79974 0
M  V30 4007 O 403.051 0.502763 -1.7419 0
M  V30 4008 C 403.099 -2.99679 -2.00561 0
M  V30 4009 O 402.203 -2.7317 -3.08953 0
M  V30 4010 H 401.544 -0.59116 -0.302367 0
M  V30 4011 H 404.074 -2.01895 -0.331598 0
M  V30 4012 H 404.084 -3.27793 -2.42932 0
M  V30 4013 H 402.759 -3.89562 -1.4565 0
M  V30 4014 H 401.336 -2.56089 -2.71059 0
M  V30 4015 N 403.521 0.559213 -1.47345 0
M  V30 4016 C 404.746 1.34676 -1.57725 0
M  V30 4017 C 405.171 1.86723 -0.227164 0
M  V30 4018 O 404.529 1.6286 0.796642 0
M  V30 4019 C 404.577 2.49399 -2.60447 0
M  V30 4020 O 403.681 3.51567 -2.15578 0
M  V30 4021 H 403.022 0.400115 -0.52991 0
M  V30 4022 H 405.552 0.676009 -1.93109 0
M  V30 4023 H 405.562 2.95996 -2.80803 0
M  V30 4024 H 404.237 2.10873 -3.58477 0
M  V30 4025 H 402.814 3.11289 -2.05313 0
M  V30 4026 N 404.999 1.35443 0.805782 0
M  V30 4027 C 406.41 1.25768 1.37983 0
M  V30 4028 C 406.761 -0.10958 1.95894 0
M  V30 4029 O 405.886 -1.01056 1.91355 0
M  V30 4030 C 406.481 2.27727 2.5085 0
M  V30 4031 C 405.04 2.2179 3.04115 0
M  V30 4032 C 404.187 2.13393 1.77084 0
M  V30 4033 H 407.138 1.4656 0.608752 0
M  V30 4034 H 407.159 1.90422 3.29424 0
M  V30 4035 H 406.671 3.27227 2.08671 0
M  V30 4036 H 404.772 1.25703 3.50756 0
M  V30 4037 H 404.885 3.13788 3.62042 0
M  V30 4038 H 403.249 1.59384 1.98668 0
M  V30 4039 H 404.032 3.14755 1.37056 0
M  V30 4040 N 406.477 -1.02803 1.19454 0
M  V30 4041 C 407.888 -1.57667 0.999899 0
M  V30 4042 C 408.239 -1.91041 -0.446956 0
M  V30 4043 O 407.364 -1.70978 -1.32648 0
M  V30 4044 C 407.959 -2.86477 1.80877 0
M  V30 4045 C 406.518 -3.37911 1.65811 0
M  V30 4046 C 405.665 -2.11343 1.79526 0
M  V30 4047 H 408.616 -0.853214 1.33813 0
M  V30 4048 H 408.637 -3.57408 1.30536 0
M  V30 4049 H 408.149 -2.62155 2.86175 0
M  V30 4050 H 406.25 -3.67218 0.63102 0
M  V30 4051 H 406.363 -4.10885 2.46395 0
M  V30 4052 H 404.727 -2.23254 1.22596 0
M  V30 4053 H 405.51 -1.89461 2.86285 0
M  V30 4054 N 407.956 -0.998596 -1.21925 0
M  V30 4055 C 409.181 -0.696015 -1.95372 0
M  V30 4056 C 409.606 0.733826 -1.73195 0
M  V30 4057 O 408.964 1.50242 -1.01474 0
M  V30 4058 C 409.012 -1.01466 -3.4603 0
M  V30 4059 O 408.116 -0.116415 -4.12236 0
M  V30 4060 H 407.457 -0.259938 -0.611006 0
M  V30 4061 H 409.987 -1.33711 -1.54863 0
M  V30 4062 H 409.997 -0.958855 -3.96573 0
M  V30 4063 H 408.672 -2.05653 -3.61497 0
M  V30 4064 H 407.249 -0.228193 -3.72201 0
M  V30 4065 N 409.434 1.37368 -0.772513 0
M  V30 4066 C 410.384 2.27613 -0.132823 0
M  V30 4067 C 411.368 1.46138 0.673247 0
M  V30 4068 O 412.56 1.68686 0.536095 0
M  V30 4069 C 409.689 3.35122 0.744864 0
M  V30 4070 C 408.775 4.24044 -0.0690771 0
M  V30 4071 N 409.166 4.93355 -1.1151 0
M  V30 4072 C 407.464 4.45731 0.154782 0
M  V30 4073 C 408.165 5.59 -1.60917 0
M  V30 4074 N 407.141 5.35737 -0.921222 0
M  V30 4075 H 410.943 2.78675 -0.933681 0
M  V30 4076 H 408.457 1.50494 -0.610342 0
M  V30 4077 H 410.454 3.98683 1.21892 0
M  V30 4078 H 409.114 2.85616 1.54446 0
M  V30 4079 H 410.125 4.95785 -1.49726 0
M  V30 4080 H 406.802 4.07096 0.926224 0
M  V30 4081 H 408.192 6.24395 -2.48153 0
M  V30 4082 N 410.912 0.523116 1.48665 0
M  V30 4083 C 412.152 -0.0115588 2.04397 0
M  V30 4084 C 412.516 -1.32225 1.39214 0
M  V30 4085 O 413.717 -1.94253 1.85793 0
M  V30 4086 C 411.988 -0.138119 3.57133 0
M  V30 4087 S 413.547 -0.623849 4.34343 0
M  V30 4088 H 410.365 0.00877706 0.710946 0
M  V30 4089 H 412.967 0.702116 1.82457 0
M  V30 4090 H 411.671 0.820748 4.02109 0
M  V30 4091 H 411.202 -0.876377 3.83514 0
M  V30 4092 H 413.217 -1.8895 4.58816 0
M  V30 4093 N 412.39 -1.55475 0.257931 0
M  V30 4094 C 413.615 -2.04064 -0.370488 0
M  V30 4095 C 414.04 -1.13565 -1.49948 0
M  V30 4096 O 413.398 -0.130781 -1.80828 0
M  V30 4097 C 413.446 -3.50554 -0.845237 0
M  V30 4098 O 412.55 -3.63173 -1.95394 0
M  V30 4099 H 411.891 -0.659257 -0.0792243 0
M  V30 4100 H 414.421 -2.00903 0.387212 0
M  V30 4101 H 414.431 -3.91588 -1.14555 0
M  V30 4102 H 413.106 -4.15896 -0.0191259 0
M  V30 4103 H 411.683 -3.34039 -1.65748 0
M  V30 4104 N 413.868 0.0150385 -1.57593 0
M  V30 4105 C 415.114 0.704043 -1.90187 0
M  V30 4106 C 415.447 1.74249 -0.857366 0
M  V30 4107 O 414.722 1.94092 0.125843 0
M  V30 4108 C 415.005 1.36087 -3.33395 0
M  V30 4109 C 414.858 0.334981 -4.48551 0
M  V30 4110 C 416.177 2.29112 -3.7576 0
M  V30 4111 H 413.296 0.254475 -0.691673 0
M  V30 4112 H 415.938 -0.0331678 -1.89971 0
M  V30 4113 H 414.088 1.98922 -3.3371 0
M  V30 4114 H 415.76 -0.292534 -4.60372 0
M  V30 4115 H 414.003 -0.344325 -4.32431 0
M  V30 4116 H 414.674 0.833316 -5.45674 0
M  V30 4117 H 417.15 1.76308 -3.76902 0
M  V30 4118 H 416.026 2.72043 -4.76743 0
M  V30 4119 H 416.287 3.16385 -3.08793 0
M  V30 4120 N 415.346 1.54954 0.287554 0
M  V30 4121 C 416.293 1.86834 1.35505 0
M  V30 4122 C 417.263 0.718452 1.49758 0
M  V30 4123 O 418.448 0.968358 1.644 0
M  V30 4124 C 415.588 2.13303 2.71286 0
M  V30 4125 C 414.701 3.40883 2.65373 0
M  V30 4126 C 413.836 3.57125 3.93236 0
M  V30 4127 C 412.875 4.78449 3.81776 0
M  V30 4128 N 412.012 4.91426 5.01443 0
M  V30 4129 H 416.852 2.77889 1.07619 0
M  V30 4130 H 414.389 1.37593 0.520241 0
M  V30 4131 H 416.347 2.26646 3.50267 0
M  V30 4132 H 414.977 1.25499 2.97405 0
M  V30 4133 H 414.029 3.36088 1.78182 0
M  V30 4134 H 415.341 4.29993 2.52799 0
M  V30 4135 H 414.495 3.70207 4.80658 0
M  V30 4136 H 413.234 2.66173 4.0866 0
M  V30 4137 H 412.239 4.65386 2.92738 0
M  V30 4138 H 413.464 5.70822 3.67884 0
M  V30 4139 H 411.41 4.03401 5.17304 0
M  V30 4140 H 411.327 5.74559 4.91343 0
M  V30 4141 H 412.595 5.08879 5.90477 0
M  V30 4142 N 416.824 -0.551391 1.4764 0
M  V30 4143 C 418.049 -1.33837 1.58437 0
M  V30 4144 C 418.474 -1.866 0.237063 0
M  V30 4145 O 417.832 -1.6328 -0.787994 0
M  V30 4146 C 417.88 -2.48014 2.61766 0
M  V30 4147 O 416.984 -3.50419 2.1744 0
M  V30 4148 H 416.325 -0.397299 0.532024 0
M  V30 4149 H 418.855 -0.665759 1.93465 0
M  V30 4150 H 418.865 -2.94503 2.82369 0
M  V30 4151 H 417.54 -2.08969 3.5959 0
M  V30 4152 H 416.117 -3.10196 2.06961 0
M  V30 4153 N 418.302 -1.35869 -0.798587 0
M  V30 4154 C 419.713 -1.26498 -1.37314 0
M  V30 4155 C 420.064 0.0991899 -1.95949 0
M  V30 4156 O 419.189 1.0004 -1.91888 0
M  V30 4157 C 419.784 -2.29054 -2.49639 0
M  V30 4158 C 418.343 -2.234 -3.02935 0
M  V30 4159 C 417.49 -2.14329 -1.75949 0
M  V30 4160 H 420.441 -1.46881 -0.600971 0
M  V30 4161 H 420.462 -1.92166 -3.28409 0
M  V30 4162 H 419.974 -3.2833 -2.06933 0
M  V30 4163 H 418.075 -1.27562 -3.50084 0
M  V30 4164 H 418.188 -3.15703 -3.60372 0
M  V30 4165 H 416.552 -1.60435 -1.9782 0
M  V30 4166 H 417.335 -3.15477 -1.35384 0
M  V30 4167 N 419.78 1.02168 -1.19998 0
M  V30 4168 C 421.026 1.75945 -1.00852 0
M  V30 4169 C 421.359 1.88702 0.458828 0
M  V30 4170 O 420.634 1.40911 1.34069 0
M  V30 4171 C 420.917 3.18154 -1.68671 0
M  V30 4172 C 420.77 3.13224 -3.22817 0
M  V30 4173 C 422.089 4.16711 -1.41561 0
M  V30 4174 H 419.208 0.638673 -0.367785 0
M  V30 4175 H 421.85 1.19222 -1.4794 0
M  V30 4176 H 420 3.66586 -1.28636 0
M  V30 4177 H 421.672 2.72635 -3.72112 0
M  V30 4178 H 419.915 2.50751 -3.53986 0
M  V30 4179 H 420.586 4.13728 -3.65422 0
M  V30 4180 H 423.062 3.76913 -1.76284 0
M  V30 4181 H 421.938 5.14391 -1.91553 0
M  V30 4182 H 422.199 4.40774 -0.342193 0
M  V30 4183 N 421.258 1.00505 1.21394 0
M  V30 4184 C 422.483 0.706367 1.95001 0
M  V30 4185 C 422.908 -0.72463 1.73582 0
M  V30 4186 O 422.266 -1.49702 1.0227 0
M  V30 4187 C 422.314 1.03299 3.45487 0
M  V30 4188 O 421.418 0.138275 4.12168 0
M  V30 4189 H 420.759 0.263175 0.609619 0
M  V30 4190 H 423.289 1.34531 1.54151 0
M  V30 4191 H 423.299 0.979872 3.96059 0
M  V30 4192 H 421.974 2.07567 3.60401 0
M  V30 4193 H 420.551 0.247928 3.72075 0
M  V30 4194 N 422.737 -1.36956 0.779787 0
M  V30 4195 C 423.962 -2.04283 0.358224 0
M  V30 4196 C 424.387 -1.58422 -1.01411 0
M  V30 4197 O 423.745 -0.748179 -1.65142 0
M  V30 4198 C 423.793 -3.58152 0.419479 0
M  V30 4199 O 422.897 -4.08342 -0.577142 0
M  V30 4200 H 422.238 -0.645967 0.153698 0
M  V30 4201 H 424.768 -1.75108 1.05822 0
M  V30 4202 H 424.778 -4.07041 0.279636 0
M  V30 4203 H 423.453 -3.90886 1.42061 0
M  V30 4204 H 422.03 -3.70751 -0.399755 0
M  V30 4205 N 424.215 -0.530993 -1.48385 0
M  V30 4206 C 425.626 -0.0907905 -1.86479 0
M  V30 4207 C 425.977 1.33213 -1.44044 0
M  V30 4208 O 425.102 1.99783 -0.831615 0
M  V30 4209 C 425.697 -0.157987 -3.38431 0
M  V30 4210 C 424.256 0.227026 -3.75715 0
M  V30 4211 C 423.403 -0.5173 -2.72432 0
M  V30 4212 H 426.354 -0.742186 -1.40276 0
M  V30 4213 H 426.375 0.630053 -3.75247 0
M  V30 4214 H 425.887 -1.19372 -3.69286 0
M  V30 4215 H 423.988 1.26486 -3.50474 0
M  V30 4216 H 424.101 -0.113288 -4.78966 0
M  V30 4217 H 422.465 0.0365527 -2.54674 0
M  V30 4218 H 423.248 -1.55368 -3.0613 0
M  V30 4219 N 425.693 1.55336 -0.266172 0
M  V30 4220 C 426.641 2.23587 0.641228 0
M  V30 4221 C 427.635 1.22986 1.16494 0
M  V30 4222 O 428.841 1.40943 1.1196 0
M  V30 4223 H 425.216 0.717452 0.225315 0
M  V30 4224 H 427.187 2.9837 0.0426561 0
M  V30 4225 C 425.936 2.96369 1.81826 0
M  V30 4226 H 425.259 3.73563 1.42445 0
M  V30 4227 H 426.699 3.47459 2.42998 0
M  V30 4228 C 425.158 2.0133 2.70125 0
M  V30 4229 O 425.688 1.55875 3.70224 0
M  V30 4230 N 423.894 1.6802 2.37102 0
M  V30 4231 H 423.441 2.05181 1.55751 0
M  V30 4232 H 423.399 1.047 2.96454 0
M  V30 4233 N 427.171 -0.0066808 1.57599 0
M  V30 4234 C 428.119 -1.01851 2.09115 0
M  V30 4235 C 429.113 -1.36021 1.00969 0
M  V30 4236 O 430.319 -1.34663 1.19439 0
M  V30 4237 H 426.694 -0.346083 0.667631 0
M  V30 4238 H 428.665 -0.558394 2.93129 0
M  V30 4239 C 427.414 -2.30374 2.60429 0
M  V30 4240 H 426.737 -2.04947 3.43273 0
M  V30 4241 H 428.177 -2.99466 3.00161 0
M  V30 4242 C 426.636 -3.00893 1.51542 0
M  V30 4243 O 427.166 -3.91614 0.894484 0
M  V30 4244 N 425.372 -2.62603 1.2445 0
M  V30 4245 H 424.919 -1.88911 1.75129 0
M  V30 4246 H 424.877 -3.10101 0.518137 0
M  V30 4247 N 428.649 -1.55105 -0.279332 0
M  V30 4248 C 429.895 -1.75672 -1.01327 0
M  V30 4249 C 430.228 -0.552739 -1.86168 0
M  V30 4250 O 429.503 0.449827 -1.89227 0
M  V30 4251 C 429.786 -3.05825 -1.90114 0
M  V30 4252 C 429.639 -4.36565 -1.08309 0
M  V30 4253 C 430.958 -3.31975 -2.8893 0
M  V30 4254 H 428.077 -0.639149 -0.366957 0
M  V30 4255 H 430.719 -1.87833 -0.286154 0
M  V30 4256 H 428.869 -2.95588 -2.52111 0
M  V30 4257 H 430.541 -4.58751 -0.484314 0
M  V30 4258 H 428.784 -4.32076 -0.386362 0
M  V30 4259 H 429.455 -5.23946 -1.73737 0
M  V30 4260 H 431.931 -3.41963 -2.37067 0
M  V30 4261 H 430.807 -4.2432 -3.48201 0
M  V30 4262 H 431.068 -2.51309 -3.63725 0
M  V30 4263 N 430.127 0.543554 -1.4793 0
M  V30 4264 C 431.355 1.32516 -1.58894 0
M  V30 4265 C 431.77 1.87215 -0.244131 0
M  V30 4266 O 431.127 1.65709 0.764652 0
M  V30 4267 C 431.178 2.48554 -2.62494 0
M  V30 4268 O 430.899 1.96112 -3.91755 0
M  V30 4269 C 432.4 3.40572 -2.8377 0
M  V30 4270 H 429.62 0.403472 -0.536145 0
M  V30 4271 H 432.164 0.657106 -1.93655 0
M  V30 4272 H 430.319 3.1127 -2.30629 0
M  V30 4273 H 430.733 2.71967 -4.4848 0
M  V30 4274 H 432.207 4.18375 -3.60093 0
M  V30 4275 H 432.684 3.94965 -1.92092 0
M  V30 4276 H 433.29 2.8366 -3.16887 0
M  V30 4277 N 431.605 1.3629 0.791371 0
M  V30 4278 C 432.535 1.33137 1.91825 0
M  V30 4279 C 433.516 0.203168 1.68882 0
M  V30 4280 O 434.701 0.400509 1.90025 0
M  V30 4281 C 431.831 1.11793 3.28816 0
M  V30 4282 C 430.785 2.21417 3.66277 0
M  V30 4283 C 430.111 1.85218 5.01596 0
M  V30 4284 C 431.411 3.63489 3.75064 0
M  V30 4285 H 433.105 2.2743 1.9472 0
M  V30 4286 H 430.651 1.09479 0.935437 0
M  V30 4287 H 432.604 1.08222 4.07266 0
M  V30 4288 H 431.328 0.139501 3.26302 0
M  V30 4289 H 429.987 2.2411 2.90121 0
M  V30 4290 H 429.635 0.859544 4.95602 0
M  V30 4291 H 429.335 2.58611 5.27631 0
M  V30 4292 H 430.859 1.832 5.82469 0
M  V30 4293 H 432.273 3.63034 4.43711 0
M  V30 4294 H 430.67 4.35771 4.12582 0
M  V30 4295 H 431.74 3.98536 2.76219 0
M  V30 4296 N 433.083 -1.0153 1.20538 0
M  V30 4297 C 434.499 -1.27461 0.96051 0
M  V30 4298 C 434.699 -1.98273 -0.359193 0
M  V30 4299 O 433.755 -2.27886 -1.0874 0
M  V30 4300 C 435.068 -2.10837 2.14402 0
M  V30 4301 C 436.616 -2.24099 2.18515 0
M  V30 4302 C 437.091 -3.10852 3.36355 0
M  V30 4303 N 438.582 -3.18441 3.36377 0
M  V30 4304 C 439.317 -3.85795 4.24205 0
M  V30 4305 N 438.813 -4.55264 5.22213 0
M  V30 4306 N 440.606 -3.82331 4.12043 0
M  V30 4307 H 432.757 -0.539907 2.05423 0
M  V30 4308 H 435.02 -0.30092 0.898972 0
M  V30 4309 H 434.726 -1.66144 3.09983 0
M  V30 4310 H 434.6 -3.11576 2.12604 0
M  V30 4311 H 436.987 -2.68016 1.23497 0
M  V30 4312 H 437.068 -1.22865 2.24361 0
M  V30 4313 H 436.712 -2.6764 4.31661 0
M  V30 4314 H 436.642 -4.12177 3.27746 0
M  V30 4315 H 439.133 -2.68978 2.65442 0
M  V30 4316 H 439.446 -5.04331 5.85551 0
M  V30 4317 H 437.791 -4.54085 5.26148 0
M  V30 4318 H 440.982 -3.27207 3.34743 0
M  V30 4319 H 441.155 -4.34547 4.807 0
M  V30 4320 N 434.561 -1.01147 -1.20859 0
M  V30 4321 C 435.786 -0.716698 -1.94623 0
M  V30 4322 C 436.211 0.715415 -1.73964 0
M  V30 4323 O 435.569 1.49157 -1.03062 0
M  V30 4324 C 435.617 -1.0513 -3.44935 0
M  V30 4325 O 434.721 -0.160131 -4.12089 0
M  V30 4326 H 434.062 -0.266404 -0.608214 0
M  V30 4327 H 436.592 -1.35346 -1.53436 0
M  V30 4328 H 436.602 -1.00086 -3.95533 0
M  V30 4329 H 435.277 -2.09475 -3.59295 0
M  V30 4330 H 433.854 -0.267657 -3.71938 0
M  V30 4331 N 436.039 1.36541 -0.78704 0
M  V30 4332 C 437.264 2.0409 -0.369053 0
M  V30 4333 C 437.689 1.58957 1.00569 0
M  V30 4334 O 437.047 0.756926 1.64743 0
M  V30 4335 C 437.095 3.57924 -0.438466 0
M  V30 4336 O 436.199 4.08642 0.555479 0
M  V30 4337 H 435.54 0.645142 -0.157122 0
M  V30 4338 H 438.07 1.74545 -1.06749 0
M  V30 4339 H 438.08 4.06887 -0.301218 0
M  V30 4340 H 436.755 3.90127 -1.44132 0
M  V30 4341 H 435.332 3.70958 0.380088 0
M  V30 4342 N 437.518 0.538854 1.48102 0
M  V30 4343 C 438.764 0.00801365 2.02798 0
M  V30 4344 C 439.097 -1.3309 1.41424 0
M  V30 4345 O 438.372 -1.86169 0.563158 0
M  V30 4346 C 438.655 -0.104589 3.59948 0
M  V30 4347 C 438.508 1.26012 4.31788 0
M  V30 4348 C 439.827 -0.827055 4.32259 0
M  V30 4349 H 436.946 0.00438624 0.736987 0
M  V30 4350 H 439.588 0.6976 1.7673 0
M  V30 4351 H 437.738 -0.691893 3.82289 0
M  V30 4352 H 439.41 1.88922 4.2084 0
M  V30 4353 H 437.653 1.83968 3.92859 0
M  V30 4354 H 438.324 1.13424 5.40221 0
M  V30 4355 H 440.8 -0.328578 4.14801 0
M  V30 4356 H 439.676 -0.87476 5.41885 0
M  V30 4357 H 439.937 -1.87927 4.0017 0
M  V30 4358 N 438.996 -1.55193 0.274407 0
M  V30 4359 C 440.221 -2.04446 -0.348824 0
M  V30 4360 C 440.646 -1.15149 -1.48735 0
M  V30 4361 O 440.004 -0.149952 -1.80679 0
M  V30 4362 C 440.052 -3.51431 -0.808009 0
M  V30 4363 O 439.156 -3.65225 -1.91531 0
M  V30 4364 H 438.497 -0.66006 -0.0722276 0
M  V30 4365 H 441.027 -2.00481 0.408498 0
M  V30 4366 H 441.037 -3.92781 -1.10395 0
M  V30 4367 H 439.712 -4.15892 0.0249865 0
M  V30 4368 H 438.289 -3.35778 -1.62196 0
M  V30 4369 N 440.474 -0.00167713 -1.576 0
M  V30 4370 C 441.699 0.69739 -1.95323 0
M  V30 4371 C 442.124 1.6642 -0.876706 0
M  V30 4372 O 441.482 1.80548 0.165007 0
M  V30 4373 C 441.53 1.40403 -3.32144 0
M  V30 4374 O 440.634 2.5185 -3.26566 0
M  V30 4375 H 439.975 0.185373 -0.637599 0
M  V30 4376 H 442.505 -0.0553665 -2.04525 0
M  V30 4377 H 442.515 1.76707 -3.67748 0
M  V30 4378 H 441.19 0.695167 -4.10049 0
M  V30 4379 H 439.767 2.17861 -3.0264 0
M  V30 4380 N 441.952 1.55251 0.271103 0
M  V30 4381 C 443.363 1.66635 0.842007 0
M  V30 4382 C 443.714 0.594631 1.86972 0
M  V30 4383 O 442.839 -0.263532 2.14789 0
M  V30 4384 C 443.434 3.02082 1.53401 0
M  V30 4385 C 441.993 3.15487 2.05293 0
M  V30 4386 C 441.14 2.62438 0.895631 0
M  V30 4387 H 444.091 1.58629 0.0474117 0
M  V30 4388 H 444.112 2.95176 2.40107 0
M  V30 4389 H 443.624 3.80062 0.785786 0
M  V30 4390 H 441.725 2.42284 2.83071 0
M  V30 4391 H 441.838 4.22075 2.26693 0
M  V30 4392 H 440.202 2.19644 1.28953 0
M  V30 4393 H 440.985 3.42923 0.160878 0
M  V30 4394 N 443.43 -0.535701 1.48216 0
M  V30 4395 C 444.393 -1.623 1.61838 0
M  V30 4396 C 445.393 -1.53087 0.492024 0
M  V30 4397 O 446.583 -1.5686 0.757668 0
M  V30 4398 C 443.715 -3.01907 1.58319 0
M  V30 4399 H 444.908 -1.51564 2.58783 0
M  V30 4400 H 442.461 -0.757317 1.36727 0
M  V30 4401 H 443.196 -3.18155 0.628299 0
M  V30 4402 H 442.981 -3.10003 2.40085 0
M  V30 4403 H 444.471 -3.80969 1.71033 0
M  V30 4404 N 444.908 -1.36708 -0.784132 0
M  V30 4405 C 445.856 -1.31533 -1.91838 0
M  V30 4406 C 446.85 -0.206205 -1.6814 0
M  V30 4407 O 448.056 -0.373519 -1.76082 0
M  V30 4408 H 444.431 -0.409613 -0.630651 0
M  V30 4409 H 446.402 -2.2731 -1.9332 0
M  V30 4410 C 445.151 -1.12679 -3.28936 0
M  V30 4411 H 444.474 -1.97274 -3.4774 0
M  V30 4412 H 445.914 -1.13106 -4.08636 0
M  V30 4413 C 444.373 0.168281 -3.36479 0
M  V30 4414 O 444.903 1.15625 -3.84699 0
M  V30 4415 N 443.109 0.214762 -2.89805 0
M  V30 4416 H 442.656 -0.589852 -2.50756 0
M  V30 4417 H 442.614 1.08094 -2.95234 0
M  V30 4418 N 446.386 1.0089 -1.21074 0
M  V30 4419 C 447.635 1.74019 -1.01981 0
M  V30 4420 C 447.948 1.90408 0.447665 0
M  V30 4421 O 449.154 2.60707 0.757906 0
M  V30 4422 C 447.61 3.13026 -1.77603 0
M  V30 4423 C 447.218 3.04623 -3.28495 0
M  V30 4424 C 448.962 3.90312 -1.66904 0
M  V30 4425 C 446.869 4.38685 -3.96623 0
M  V30 4426 H 445.799 0.652422 -0.377971 0
M  V30 4427 H 448.45 1.12755 -1.44771 0
M  V30 4428 H 446.832 3.74878 -1.27604 0
M  V30 4429 H 448.006 2.52032 -3.85767 0
M  V30 4430 H 446.321 2.40827 -3.39693 0
M  V30 4431 H 448.918 4.8951 -2.15138 0
M  V30 4432 H 449.261 4.11558 -0.62658 0
M  V30 4433 H 449.794 3.35104 -2.14359 0
M  V30 4434 H 446.533 4.22641 -5.01054 0
M  V30 4435 H 446.053 4.91252 -3.4414 0
M  V30 4436 H 447.732 5.075 -4.01314 0
M  V30 4437 N 447.864 1.01787 1.20321 0
M  V30 4438 C 448.812 0.58254 2.25187 0
M  V30 4439 C 449.806 -0.379359 1.65098 0
M  V30 4440 O 451.012 -0.249142 1.78267 0
M  V30 4441 H 447.387 0.170078 0.732514 0
M  V30 4442 H 449.358 1.47788 2.59232 0
M  V30 4443 C 448.107 -0.0620885 3.47645 0
M  V30 4444 H 447.43 0.669069 3.94162 0
M  V30 4445 H 448.87 -0.329784 4.22716 0
M  V30 4446 C 447.329 -1.3053 3.10586 0
M  V30 4447 O 447.859 -2.39848 3.22236 0
M  V30 4448 N 446.065 -1.18988 2.65123 0
M  V30 4449 H 445.612 -0.300341 2.55843 0
M  V30 4450 H 445.57 -2.02267 2.40698 0
M  V30 4451 N 449.342 -1.36122 0.79427 0
M  V30 4452 C 450.29 -2.31871 0.184023 0
M  V30 4453 C 451.284 -1.56041 -0.659365 0
M  V30 4454 O 452.49 -1.71266 -0.553906 0
M  V30 4455 H 448.865 -0.750896 0.0407373 0
M  V30 4456 H 450.836 -2.80898 1.00693 0
M  V30 4457 C 449.585 -3.41324 -0.662813 0
M  V30 4458 H 448.908 -3.99793 -0.0231944 0
M  V30 4459 H 450.348 -4.10629 -1.05639 0
M  V30 4460 C 448.807 -2.83308 -1.82313 0
M  V30 4461 O 449.337 -2.75863 -2.91997 0
M  V30 4462 N 447.543 -2.40529 -1.63077 0
M  V30 4463 H 447.09 -2.46785 -0.738591 0
M  V30 4464 H 447.048 -2.02059 -2.40872 0
M  V30 4465 N 450.82 -0.546701 -1.47814 0
M  V30 4466 C 452.045 -0.021268 -2.07389 0
M  V30 4467 C 452.47 1.25822 -1.39822 0
M  V30 4468 O 451.828 1.75111 -0.46968 0
M  V30 4469 C 451.876 0.168502 -3.60206 0
M  V30 4470 O 450.98 1.23347 -3.93522 0
M  V30 4471 H 450.321 -0.0466108 -0.662362 0
M  V30 4472 H 452.851 -0.759387 -1.89985 0
M  V30 4473 H 452.861 0.385982 -4.0617 0
M  V30 4474 H 451.536 -0.766075 -4.08784 0
M  V30 4475 H 450.113 0.997319 -3.59316 0
M  V30 4476 N 452.299 1.55045 -0.282633 0
M  V30 4477 C 453.715 1.59441 0.0712997 0
M  V30 4478 C 453.915 1.2998 1.53972 0
M  V30 4479 O 452.971 1.06431 2.28973 0
M  V30 4480 C 454.284 2.99097 -0.310104 0
M  V30 4481 C 455.832 3.1194 -0.257343 0
M  V30 4482 C 456.307 4.53875 -0.613297 0
M  V30 4483 N 457.798 4.5974 -0.565134 0
M  V30 4484 C 458.533 5.67603 -0.81326 0
M  V30 4485 N 458.029 6.83582 -1.1264 0
M  V30 4486 N 459.822 5.57187 -0.741553 0
M  V30 4487 H 451.973 1.72458 -1.23984 0
M  V30 4488 H 454.236 0.804549 -0.501403 0
M  V30 4489 H 453.942 3.25516 -1.33163 0
M  V30 4490 H 453.816 3.75616 0.345366 0
M  V30 4491 H 456.203 2.85281 0.754905 0
M  V30 4492 H 456.284 2.37618 -0.947178 0
M  V30 4493 H 455.928 4.81261 -1.62327 0
M  V30 4494 H 455.858 5.26508 0.09841 0
M  V30 4495 H 458.349 3.76427 -0.333294 0
M  V30 4496 H 458.662 7.6175 -1.30219 0
M  V30 4497 H 457.007 6.85179 -1.16425 0
M  V30 4498 H 460.198 4.65457 -0.496705 0
M  V30 4499 H 460.371 6.41171 -0.938306 0
M  V30 4500 N 453.777 0.010035 1.57597 0
M  V30 4501 C 455.017 -0.677084 1.9286 0
M  V30 4502 C 455.381 -1.70377 0.885192 0
M  V30 4503 O 456.582 -2.44199 1.12339 0
M  V30 4504 C 454.853 -1.29452 3.33132 0
M  V30 4505 S 456.412 -2.00537 3.90295 0
M  V30 4506 H 453.23 -0.223409 0.674989 0
M  V30 4507 H 455.832 0.0691289 1.95378 0
M  V30 4508 H 454.536 -0.534593 4.06903 0
M  V30 4509 H 454.067 -2.07845 3.34012 0
M  V30 4510 H 456.082 -3.28168 3.72183 0
M  V30 4511 N 455.255 -1.55392 -0.262866 0
M  V30 4512 C 456.48 -1.80847 -1.01533 0
M  V30 4513 C 456.905 -0.584946 -1.78774 0
M  V30 4514 O 456.263 0.465701 -1.75217 0
M  V30 4515 C 456.311 -3.03866 -1.94159 0
M  V30 4516 O 455.415 -2.79662 -3.03089 0
M  V30 4517 H 454.756 -0.597441 -0.289759 0
M  V30 4518 H 457.286 -2.02553 -0.288698 0
M  V30 4519 H 457.296 -3.32872 -2.35924 0
M  V30 4520 H 455.971 -3.92564 -1.37354 0
M  V30 4521 H 454.548 -2.61781 -2.65566 0
M  V30 4522 N 456.733 0.527833 -1.48498 0
M  V30 4523 C 457.979 1.28545 -1.56857 0
M  V30 4524 C 458.312 1.92678 -0.242651 0
M  V30 4525 O 457.587 1.79394 0.751545 0
M  V30 4526 C 457.87 2.37314 -2.70839 0
M  V30 4527 C 457.723 1.77858 -4.13142 0
M  V30 4528 C 459.042 3.39068 -2.80573 0
M  V30 4529 H 456.161 0.466006 -0.570971 0
M  V30 4530 H 458.803 0.587784 -1.8068 0
M  V30 4531 H 456.953 2.96821 -2.50658 0
M  V30 4532 H 458.625 1.22385 -4.44769 0
M  V30 4533 H 456.868 1.08383 -4.20042 0
M  V30 4534 H 457.539 2.56624 -4.88721 0
M  V30 4535 H 460.015 2.89518 -2.98862 0
M  V30 4536 H 458.891 4.12566 -3.6205 0
M  V30 4537 H 459.152 3.9975 -1.88818 0
M  V30 4538 N 458.211 1.37122 0.776871 0
M  V30 4539 C 459.436 1.354 1.57104 0
M  V30 4540 C 459.861 -0.0595562 1.88006 0
M  V30 4541 O 459.219 -1.03514 1.48844 0
M  V30 4542 C 459.267 2.19472 2.8612 0
M  V30 4543 O 458.371 1.59582 3.80273 0
M  V30 4544 H 457.712 0.462869 0.476076 0
M  V30 4545 H 460.242 1.80577 0.961932 0
M  V30 4546 H 460.252 2.32502 3.35271 0
M  V30 4547 H 458.927 3.22222 2.62956 0
M  V30 4548 H 457.504 1.55564 3.38902 0
M  V30 4549 N 459.689 -1.00246 1.21608 0
M  V30 4550 C 460.914 -1.78167 1.06167 0
M  V30 4551 C 461.339 -1.84138 -0.384035 0
M  V30 4552 O 460.697 -1.28683 -1.27712 0
M  V30 4553 C 460.745 -3.19786 1.66642 0
M  V30 4554 O 459.849 -4.02153 0.913613 0
M  V30 4555 H 459.19 -0.549 0.37349 0
M  V30 4556 H 461.72 -1.25994 1.61204 0
M  V30 4557 H 461.73 -3.70451 1.70969 0
M  V30 4558 H 460.405 -3.14754 2.7185 0
M  V30 4559 H 458.982 -3.60711 0.945635 0
M  V30 4560 N 461.167 -1.02423 -1.1978 0
M  V30 4561 C 462.578 -0.748389 -1.71044 0
M  V30 4562 C 462.929 0.732398 -1.82017 0
M  V30 4563 O 462.054 1.57116 -1.48807 0
M  V30 4564 C 462.649 -1.35187 -3.1066 0
M  V30 4565 C 461.208 -1.12472 -3.59203 0
M  V30 4566 C 460.355 -1.45283 -2.36195 0
M  V30 4567 H 463.306 -1.19275 -1.04686 0
M  V30 4568 H 463.327 -0.746408 -3.73107 0
M  V30 4569 H 462.839 -2.4296 -3.02642 0
M  V30 4570 H 460.94 -0.0649983 -3.72543 0
M  V30 4571 H 461.053 -1.81016 -4.43588 0
M  V30 4572 H 459.417 -0.872034 -2.39307 0
M  V30 4573 H 460.2 -2.54129 -2.30811 0
M  V30 4574 N 462.645 1.35699 -0.801477 0
M  V30 4575 C 463.87 2.03687 -0.390678 0
M  V30 4576 C 464.295 1.60015 0.988778 0
M  V30 4577 O 463.653 0.774357 1.63931 0
M  V30 4578 C 463.701 3.57439 -0.476404 0
M  V30 4579 O 462.805 4.09208 0.512106 0
M  V30 4580 H 462.146 0.64344 -0.163956 0
M  V30 4581 H 464.676 1.73403 -1.08594 0
M  V30 4582 H 464.686 4.06544 -0.344357 0
M  V30 4583 H 463.361 3.88576 -1.48262 0
M  V30 4584 H 461.938 3.7134 0.340721 0
M  V30 4585 N 464.123 0.554532 1.47522 0
M  V30 4586 C 465.071 -0.207765 2.3167 0
M  V30 4587 C 466.065 -0.911914 1.4276 0
M  V30 4588 O 467.271 -0.833504 1.59539 0
M  V30 4589 H 463.646 -0.0858726 0.747081 0
M  V30 4590 H 465.617 0.521178 2.93813 0
M  V30 4591 C 464.366 -1.2263 3.25357 0
M  V30 4592 H 463.689 -0.693887 3.93732 0
M  V30 4593 H 465.129 -1.73062 3.87073 0
M  V30 4594 C 463.588 -2.27278 2.4869 0
M  V30 4595 O 464.118 -3.34156 2.22941 0
M  V30 4596 N 462.324 -2.01134 2.09746 0
M  V30 4597 H 461.871 -1.14232 2.30887 0
M  V30 4598 H 461.829 -2.71369 1.58765 0
M  V30 4599 N 465.601 -1.54893 0.290851 0
M  V30 4600 C 466.829 -2.04343 -0.324288 0
M  V30 4601 C 467.244 -1.16859 -1.48289 0
M  V30 4602 O 466.601 -0.192018 -1.81487 0
M  V30 4603 C 466.652 -3.52756 -0.79026 0
M  V30 4604 O 466.373 -4.36913 0.322213 0
M  V30 4605 C 467.874 -4.18161 -1.4716 0
M  V30 4606 H 465.094 -0.667135 -0.0719173 0
M  V30 4607 H 467.638 -1.99981 0.427529 0
M  V30 4608 H 465.793 -3.57511 -1.49213 0
M  V30 4609 H 466.207 -5.24486 -0.0387372 0
M  V30 4610 H 467.681 -5.23562 -1.7489 0
M  V30 4611 H 468.158 -3.67282 -2.40834 0
M  V30 4612 H 468.764 -4.17454 -0.813178 0
M  V30 4613 N 467.08 -0.0183926 -1.57589 0
M  V30 4614 C 468.028 0.985111 -2.10709 0
M  V30 4615 C 469.022 1.34397 -1.0312 0
M  V30 4616 O 470.228 1.32746 -1.21567 0
M  V30 4617 H 466.603 0.335418 -0.673052 0
M  V30 4618 H 468.574 0.511689 -2.9398 0
M  V30 4619 C 467.323 2.26202 -2.64061 0
M  V30 4620 H 466.646 1.9946 -3.4649 0
M  V30 4621 H 468.086 2.94652 -3.04887 0
M  V30 4622 C 466.545 2.98444 -1.5631 0
M  V30 4623 O 467.075 3.90142 -0.956674 0
M  V30 4624 N 465.281 2.6059 -1.28612 0
M  V30 4625 H 464.828 1.86101 -1.78112 0
M  V30 4626 H 464.786 3.09238 -0.567406 0
M  V30 4627 N 468.558 1.5553 0.254621 0
M  V30 4628 C 469.506 1.9048 1.33492 0
M  V30 4629 C 470.5 0.78304 1.50216 0
M  V30 4630 O 471.706 0.967582 1.51782 0
M  V30 4631 H 468.081 0.604846 0.44684 0
M  V30 4632 H 470.052 2.80688 1.01275 0
M  V30 4633 C 468.801 2.20928 2.68489 0
M  V30 4634 H 468.124 3.06742 2.56417 0
M  V30 4635 H 469.564 2.49291 3.42972 0
M  V30 4636 C 468.023 1.023 3.20993 0
M  V30 4637 O 468.553 0.267027 4.00811 0
M  V30 4638 N 466.759 0.815714 2.78917 0
M  V30 4639 H 466.306 1.43217 2.14119 0
M  V30 4640 H 466.264 0.0236532 3.14391 0
M  V30 4641 N 470.036 -0.519951 1.48776 0
M  V30 4642 C 471.452 -0.849418 1.35119 0
M  V30 4643 C 471.652 -1.98077 0.36982 0
M  V30 4644 O 470.708 -2.51664 -0.205359 0
M  V30 4645 C 472.021 -1.20748 2.75391 0
M  V30 4646 C 473.569 -1.31679 2.83954 0
M  V30 4647 C 474.044 -1.70824 4.24951 0
M  V30 4648 N 475.535 -1.77908 4.27672 0
M  V30 4649 C 476.27 -2.09603 5.33717 0
M  V30 4650 N 475.766 -2.39652 6.5003 0
M  V30 4651 N 477.559 -2.10694 5.21119 0
M  V30 4652 H 469.71 0.226377 2.1119 0
M  V30 4653 H 471.973 0.0386519 0.947212 0
M  V30 4654 H 471.679 -0.449703 3.48813 0
M  V30 4655 H 471.553 -2.15534 3.09556 0
M  V30 4656 H 473.94 -2.06532 2.10781 0
M  V30 4657 H 474.021 -0.3499 2.53396 0
M  V30 4658 H 473.665 -0.965282 4.98643 0
M  V30 4659 H 473.595 -2.6858 4.52959 0
M  V30 4660 H 476.086 -1.56923 3.43779 0
M  V30 4661 H 476.399 -2.6297 7.26682 0
M  V30 4662 H 474.744 -2.37149 6.53288 0
M  V30 4663 H 477.935 -1.86682 4.29264 0
M  V30 4664 H 478.108 -2.35062 6.03863 0
M  V30 4665 N 471.514 -1.37532 -0.769588 0
M  V30 4666 C 472.739 -1.36231 -1.56384 0
M  V30 4667 C 473.164 0.0495849 -1.88035 0
M  V30 4668 O 472.522 1.02723 -1.49391 0
M  V30 4669 C 472.57 -2.20986 -2.84952 0
M  V30 4670 O 471.674 -1.61597 -3.79421 0
M  V30 4671 H 471.015 -0.465387 -0.473615 0
M  V30 4672 H 473.545 -1.81085 -0.952342 0
M  V30 4673 H 473.555 -2.34277 -3.34034 0
M  V30 4674 H 472.23 -3.23612 -2.61243 0
M  V30 4675 H 470.807 -1.57359 -3.38072 0
M  V30 4676 N 472.992 0.995999 -1.22138 0
M  V30 4677 C 474.22 1.77066 -1.07029 0
M  V30 4678 C 474.635 1.8495 0.379357 0
M  V30 4679 O 473.992 1.3174 1.26297 0
M  V30 4680 C 474.043 3.20533 -1.67155 0
M  V30 4681 O 473.764 3.13082 -3.06449 0
M  V30 4682 C 475.265 4.14461 -1.5728 0
M  V30 4683 H 472.485 0.556179 -0.375374 0
M  V30 4684 H 475.029 1.25238 -1.61666 0
M  V30 4685 H 473.184 3.6944 -1.16589 0
M  V30 4686 H 473.598 4.03283 -3.35355 0
M  V30 4687 H 475.072 5.1289 -2.04078 0
M  V30 4688 H 475.549 4.36005 -0.528795 0
M  V30 4689 H 476.155 3.71449 -2.07136 0
M  V30 4690 N 474.47 1.03057 1.19235 0
M  V30 4691 C 475.4 0.633497 2.24742 0
M  V30 4692 C 476.381 -0.358335 1.66283 0
M  V30 4693 O 477.566 -0.240676 1.92703 0
M  V30 4694 C 474.696 -0.0147648 3.47297 0
M  V30 4695 C 473.65 0.899527 4.18441 0
M  V30 4696 C 472.976 0.116281 5.34574 0
M  V30 4697 C 474.276 2.21404 4.73051 0
M  V30 4698 H 475.97 1.5155 2.58211 0
M  V30 4699 H 473.516 0.73014 1.24117 0
M  V30 4700 H 475.469 -0.304202 4.20301 0
M  V30 4701 H 474.193 -0.931577 3.13032 0
M  V30 4702 H 472.852 1.17319 3.47321 0
M  V30 4703 H 472.5 -0.802619 4.96555 0
M  V30 4704 H 472.2 0.725293 5.83107 0
M  V30 4705 H 473.724 -0.166376 6.10373 0
M  V30 4706 H 475.138 1.98601 5.37802 0
M  V30 4707 H 473.535 2.77512 5.32078 0
M  V30 4708 H 474.605 2.86752 3.91026 0
M  V30 4709 N 475.948 -1.35272 0.808662 0
M  V30 4710 C 477.173 -2.03477 0.401475 0
M  V30 4711 C 477.598 -1.60537 -0.980279 0
M  V30 4712 O 476.956 -0.78304 -1.63518 0
M  V30 4713 C 477.004 -3.57181 0.495354 0
M  V30 4714 O 476.108 -4.09474 -0.490397 0
M  V30 4715 H 475.449 -0.642561 0.167366 0
M  V30 4716 H 477.979 -1.72824 1.09512 0
M  V30 4717 H 477.989 -4.06356 0.365912 0
M  V30 4718 H 476.664 -3.87784 1.5032 0
M  V30 4719 H 475.241 -3.71516 -0.321023 0
M  V30 4720 N 477.426 -0.562348 -1.47226 0
M  V30 4721 C 478.651 -0.0432632 -2.07355 0
M  V30 4722 C 479.076 1.24332 -1.41149 0
M  V30 4723 O 478.434 1.74603 -0.488226 0
M  V30 4724 C 478.482 0.130288 -3.60365 0
M  V30 4725 O 477.586 1.19166 -3.94808 0
M  V30 4726 H 476.927 -0.0536334 -0.66183 0
M  V30 4727 H 479.457 -0.779495 -1.89169 0
M  V30 4728 H 479.467 0.342881 -4.06557 0
M  V30 4729 H 478.142 -0.809389 -4.07948 0
M  V30 4730 H 476.719 0.959153 -3.60354 0
M  V30 4731 N 478.904 1.54736 -0.299062 0
M  V30 4732 C 480.315 1.8569 0.193971 0
M  V30 4733 C 480.666 1.22101 1.53577 0
M  V30 4734 O 479.791 0.51799 2.10109 0
M  V30 4735 C 480.386 3.36895 0.358733 0
M  V30 4736 C 478.945 3.67887 0.795986 0
M  V30 4737 C 478.092 2.77131 -0.096807 0
M  V30 4738 H 481.043 1.49934 -0.520134 0
M  V30 4739 H 481.064 3.61294 1.19361 0
M  V30 4740 H 480.576 3.83148 -0.617998 0
M  V30 4741 H 478.677 3.27151 1.78334 0
M  V30 4742 H 478.79 4.75114 0.616718 0
M  V30 4743 H 477.154 2.51153 0.423581 0
M  V30 4744 H 477.937 3.26204 -1.06986 0
M  V30 4745 N 480.382 0.0267497 1.57577 0
M  V30 4746 C 481.345 -0.940916 2.08996 0
M  V30 4747 C 482.345 -1.25561 1.00455 0
M  V30 4748 O 483.535 -1.19634 1.26623 0
M  V30 4749 C 480.667 -2.25814 2.55384 0
M  V30 4750 H 481.86 -0.495628 2.95776 0
M  V30 4751 H 479.413 -0.221241 1.54726 0
M  V30 4752 H 480.148 -2.74976 1.71926 0
M  V30 4753 H 479.933 -2.04285 3.34679 0
M  V30 4754 H 481.423 -2.95178 2.95398 0
M  V30 4755 N 481.861 -1.55662 -0.24637 0
M  V30 4756 C 482.824 -1.89558 -1.28842 0
M  V30 4757 C 483.824 -0.772082 -1.41052 0
M  V30 4758 O 485.014 -1.04007 -1.39743 0
M  V30 4759 C 482.146 -2.12449 -2.66605 0
M  V30 4760 H 483.339 -2.82735 -1.00004 0
M  V30 4761 H 480.892 -1.48562 -0.485684 0
M  V30 4762 H 481.627 -1.21742 -3.00582 0
M  V30 4763 H 481.412 -2.94273 -2.59125 0
M  V30 4764 H 482.902 -2.39854 -3.41847 0
M  V30 4765 N 483.339 0.512053 -1.4905 0
M  V30 4766 C 484.564 1.2959 -1.6193 0
M  V30 4767 C 484.989 1.85906 -0.286454 0
M  V30 4768 O 484.347 1.65312 0.744426 0
M  V30 4769 C 484.395 2.40987 -2.68249 0
M  V30 4770 O 483.499 3.44531 -2.26654 0
M  V30 4771 H 482.84 0.383053 -0.542371 0
M  V30 4772 H 485.37 0.614231 -1.95162 0
M  V30 4773 H 485.38 2.86913 -2.90078 0
M  V30 4774 H 484.055 1.99361 -3.65004 0
M  V30 4775 H 482.632 3.046 -2.15112 0
M  V30 4776 N 484.817 1.37938 0.762283 0
M  V30 4777 C 486.045 1.36883 1.55147 0
M  V30 4778 C 486.46 -0.0435348 1.8875 0
M  V30 4779 O 485.817 -1.00786 1.52146 0
M  V30 4780 C 485.868 2.21624 2.85596 0
M  V30 4781 O 485.589 3.57358 2.5343 0
M  V30 4782 C 487.09 2.28653 3.7978 0
M  V30 4783 H 484.31 0.468521 0.480343 0
M  V30 4784 H 486.854 1.81404 0.944079 0
M  V30 4785 H 485.009 1.80588 3.42734 0
M  V30 4786 H 485.423 4.01883 3.37032 0
M  V30 4787 H 486.897 2.9225 4.68288 0
M  V30 4788 H 487.374 1.29767 4.19592 0
M  V30 4789 H 487.98 2.70043 3.28568 0
M  V30 4790 N 486.295 -0.989507 1.22664 0
M  V30 4791 C 487.541 -1.7321 1.05481 0
M  V30 4792 C 487.874 -1.89852 -0.408635 0
M  V30 4793 O 487.149 -1.44416 -1.30285 0
M  V30 4794 C 487.432 -3.1357 1.77047 0
M  V30 4795 C 487.285 -3.04555 3.31008 0
M  V30 4796 C 488.604 -4.12812 1.5256 0
M  V30 4797 H 485.723 -0.628697 0.384589 0
M  V30 4798 H 488.365 -1.15258 1.51049 0
M  V30 4799 H 486.515 -3.63046 1.3831 0
M  V30 4800 H 488.187 -2.62674 3.7921 0
M  V30 4801 H 486.43 -2.41278 3.6051 0
M  V30 4802 H 487.101 -4.03894 3.76263 0
M  V30 4803 H 489.577 -3.72106 1.86215 0
M  V30 4804 H 488.453 -5.09132 2.05124 0
M  V30 4805 H 488.714 -4.39711 0.458936 0
M  V30 4806 N 487.773 -1.03688 -1.18687 0
M  V30 4807 C 489.021 -0.736572 -1.88199 0
M  V30 4808 C 489.342 0.737665 -1.80509 0
M  V30 4809 O 488.612 1.53204 -1.22088 0
M  V30 4810 H 487.192 -0.269466 -0.696704 0
M  V30 4811 H 489.854 -1.31282 -1.44052 0
M  V30 4812 H 488.95 -1.03802 -2.94332 0
M  V30 4813 N 489.251 1.34841 -0.815825 0
M  V30 4814 C 490.476 2.03261 -0.41226 0
M  V30 4815 C 490.901 1.61055 0.971751 0
M  V30 4816 O 490.259 0.7917 1.63101 0
M  V30 4817 C 490.307 3.56914 -0.514289 0
M  V30 4818 O 489.411 4.09728 0.468675 0
M  V30 4819 H 488.752 0.641664 -0.170771 0
M  V30 4820 H 491.282 1.72241 -1.10427 0
M  V30 4821 H 491.292 4.06156 -0.387457 0
M  V30 4822 H 489.967 3.86982 -1.52375 0
M  V30 4823 H 488.544 3.71681 0.301316 0
M  V30 4824 N 490.729 0.570148 1.46925 0
M  V30 4825 C 491.978 0.0487352 2.01641 0
M  V30 4826 C 492.291 -1.31433 1.44861 0
M  V30 4827 O 493.497 -1.92638 1.91318 0
M  V30 4828 C 491.953 0.0365817 3.59881 0
M  V30 4829 C 491.561 1.39719 4.25655 0
M  V30 4830 C 493.305 -0.431545 4.22301 0
M  V30 4831 C 491.212 1.34345 5.75939 0
M  V30 4832 H 490.142 0.0144492 0.753862 0
M  V30 4833 H 492.793 0.719928 1.68788 0
M  V30 4834 H 491.175 -0.700522 3.89755 0
M  V30 4835 H 492.349 2.15303 4.07408 0
M  V30 4836 H 490.664 1.80431 3.75278 0
M  V30 4837 H 493.261 -0.490354 5.32447 0
M  V30 4838 H 493.604 -1.44638 3.90366 0
M  V30 4839 H 494.137 0.251102 3.97007 0
M  V30 4840 H 490.876 2.33469 6.12513 0
M  V30 4841 H 490.396 0.629615 5.96486 0
M  V30 4842 H 492.075 1.051 6.38407 0
M  V30 4843 N 492.207 -1.54576 0.307264 0
M  V30 4844 C 493.447 -2.02172 -0.300962 0
M  V30 4845 C 493.811 -1.19081 -1.50611 0
M  V30 4846 O 495.012 -1.56405 -2.18612 0
M  V30 4847 C 493.283 -3.51576 -0.642591 0
M  V30 4848 S 494.842 -4.21127 -1.23279 0
M  V30 4849 H 491.66 -0.705021 -0.0920141 0
M  V30 4850 H 494.262 -1.90563 0.436594 0
M  V30 4851 H 492.966 -4.09681 0.242901 0
M  V30 4852 H 492.497 -3.67234 -1.41077 0
M  V30 4853 H 494.512 -4.27426 -2.52034 0
M  V30 4854 N 493.685 -0.035106 -1.57561 0
M  V30 4855 C 494.91 0.655802 -1.96759 0
M  V30 4856 C 495.335 1.64523 -0.911809 0
M  V30 4857 O 494.693 1.80857 0.126673 0
M  V30 4858 C 494.741 1.33326 -3.35047 0
M  V30 4859 O 493.845 2.44866 -3.31835 0
M  V30 4860 H 493.186 0.171807 -0.641388 0
M  V30 4861 H 495.716 -0.0987369 -2.04362 0
M  V30 4862 H 495.726 1.68867 -3.71413 0
M  V30 4863 H 494.401 0.608033 -4.11431 0
M  V30 4864 H 492.978 2.11392 -3.07193 0
M  V30 4865 N 495.163 1.55791 0.238111 0
M  V30 4866 C 496.574 1.68383 0.806472 0
M  V30 4867 C 496.925 0.634157 1.85669 0
M  V30 4868 O 496.05 -0.217913 2.153 0
M  V30 4869 C 496.645 3.05268 1.46959 0
M  V30 4870 C 495.204 3.1977 1.98555 0
M  V30 4871 C 494.351 2.64279 0.839763 0
M  V30 4872 H 497.302 1.58694 0.0137535 0
M  V30 4873 H 497.323 3.00203 2.33792 0
M  V30 4874 H 496.835 3.81643 0.704993 0
M  V30 4875 H 494.936 2.48234 2.77868 0
M  V30 4876 H 495.049 4.26788 2.17689 0
M  V30 4877 H 493.413 2.22329 1.24265 0
M  V30 4878 H 494.196 3.43187 0.0881032 0
M  V30 4879 N 496.642 -0.504142 1.49319 0
M  V30 4880 C 497.888 -1.26033 1.58882 0
M  V30 4881 C 498.221 -1.92268 0.273274 0
M  V30 4882 O 497.496 -1.80567 -0.72291 0
M  V30 4883 C 497.779 -2.32976 2.7458 0
M  V30 4884 C 497.632 -1.71263 4.1592 0
M  V30 4885 C 498.951 -3.34561 2.85932 0
M  V30 4886 H 496.07 -0.456863 0.578312 0
M  V30 4887 H 498.712 -0.558965 1.81592 0
M  V30 4888 H 496.862 -2.92796 2.55348 0
M  V30 4889 H 498.534 -1.15294 4.4666 0
M  V30 4890 H 496.777 -1.01686 4.21714 0
M  V30 4891 H 497.448 -2.48816 4.92742 0
M  V30 4892 H 499.924 -2.84727 3.0343 0
M  V30 4893 H 498.8 -4.06754 3.68568 0
M  V30 4894 H 499.061 -3.96695 1.95154 0
M  V30 4895 N 498.12 -1.38341 -0.754957 0
M  V30 4896 C 499.068 -1.35573 -1.89005 0
M  V30 4897 C 500.062 -0.241824 -1.67665 0
M  V30 4898 O 501.268 -0.410785 -1.7525 0
M  V30 4899 H 497.643 -0.422898 -0.621821 0
M  V30 4900 H 499.614 -2.31359 -1.88455 0
M  V30 4901 C 498.363 -1.19631 -3.26471 0
M  V30 4902 H 497.686 -2.04605 -3.43477 0
M  V30 4903 H 499.126 -1.21748 -4.06144 0
M  V30 4904 C 497.585 0.0968705 -3.36761 0
M  V30 4905 O 498.115 1.07439 -3.87066 0
M  V30 4906 N 496.321 0.153242 -2.90196 0
M  V30 4907 H 495.868 -0.642908 -2.49448 0
M  V30 4908 H 495.826 1.01807 -2.9746 0
M  V30 4909 N 499.598 0.982988 -1.23187 0
M  V30 4910 C 500.546 2.09616 -1.00817 0
M  V30 4911 C 501.54 1.6932 0.0519995 0
M  V30 4912 O 502.746 1.79715 -0.101284 0
M  V30 4913 H 499.121 0.685628 -0.308899 0
M  V30 4914 H 501.092 2.25652 -1.95253 0
M  V30 4915 C 499.841 3.42249 -0.613243 0
M  V30 4916 H 499.164 3.73705 -1.42073 0
M  V30 4917 H 500.604 4.21086 -0.496208 0
M  V30 4918 C 499.063 3.30002 0.678233 0
M  V30 4919 O 499.593 3.6263 1.72807 0
M  V30 4920 N 497.799 2.83164 0.653165 0
M  V30 4921 H 497.346 2.56811 -0.201492 0
M  V30 4922 H 497.304 2.75352 1.51752 0
M  V30 4923 N 501.076 1.04316 1.18135 0
M  V30 4924 C 502.039 0.640794 2.2006 0
M  V30 4925 C 503.039 -0.303124 1.57917 0
M  V30 4926 O 504.229 -0.0881855 1.73977 0
M  V30 4927 C 501.361 -0.060148 3.40847 0
M  V30 4928 H 502.554 1.54281 2.57172 0
M  V30 4929 H 500.107 0.836004 1.32063 0
M  V30 4930 H 500.842 -0.975845 3.0927 0
M  V30 4931 H 500.627 0.618319 3.87194 0
M  V30 4932 H 502.117 -0.328082 4.16309 0
M  V30 4933 N 502.554 -1.34406 0.822964 0
M  V30 4934 C 503.801 -1.98284 0.411057 0
M  V30 4935 C 504.129 -1.65245 -1.02588 0
M  V30 4936 O 503.384 -0.91619 -1.72929 0
M  V30 4937 C 503.683 -3.52981 0.560268 0
M  V30 4938 C 503.349 -4.05931 1.96293 0
M  V30 4939 C 502.011 -4.20103 2.34664 0
M  V30 4940 C 504.363 -4.34412 2.87985 0
M  V30 4941 C 501.691 -4.60082 3.64062 0
M  V30 4942 C 504.043 -4.75838 4.16847 0
M  V30 4943 C 502.707 -4.88215 4.55195 0
M  V30 4944 H 501.977 -0.725573 0.150416 0
M  V30 4945 H 504.624 -1.60349 1.04692 0
M  V30 4946 H 502.929 -3.91477 -0.158982 0
M  V30 4947 H 504.626 -4.00385 0.222087 0
M  V30 4948 H 501.216 -3.95363 1.65487 0
M  V30 4949 H 505.4 -4.23001 2.59584 0
M  V30 4950 H 500.656 -4.67856 3.93599 0
M  V30 4951 H 504.83 -4.96834 4.87984 0
M  V30 4952 H 502.457 -5.18952 5.55512 0
M  V30 4953 N 504.032 -0.577932 -1.46621 0
M  V30 4954 C 505.257 -0.0652536 -2.07297 0
M  V30 4955 C 505.682 1.22828 -1.4246 0
M  V30 4956 O 505.04 1.74075 -0.506718 0
M  V30 4957 C 505.088 0.0920589 -3.60482 0
M  V30 4958 O 504.192 1.14972 -3.96049 0
M  V30 4959 H 503.533 -0.06065 -0.661224 0
M  V30 4960 H 506.063 -0.799515 -1.88332 0
M  V30 4961 H 506.073 0.299741 -4.06897 0
M  V30 4962 H 504.748 -0.852612 -4.07067 0
M  V30 4963 H 503.325 0.920879 -3.61351 0
M  V30 4964 N 505.51 1.54411 -0.315457 0
M  V30 4965 C 506.74 2.04536 0.291315 0
M  V30 4966 C 507.148 1.19162 1.4696 0
M  V30 4967 O 506.491 0.213199 1.82459 0
M  V30 4968 C 506.553 3.5056 0.796725 0
M  V30 4969 C 506.217 4.5627 -0.258178 0
M  V30 4970 C 507.214 5.08312 -1.09153 0
M  V30 4971 C 504.899 5.00672 -0.404036 0
M  V30 4972 C 506.893 6.03312 -2.05655 0
M  V30 4973 C 504.58 5.95488 -1.37248 0
M  V30 4974 C 505.578 6.46693 -2.19721 0
M  V30 4975 O 505.266 7.39648 -3.14921 0
M  V30 4976 H 504.998 0.672856 0.0651165 0
M  V30 4977 H 507.552 2.00244 -0.457308 0
M  V30 4978 H 505.782 3.52223 1.59612 0
M  V30 4979 H 507.471 3.83804 1.32096 0
M  V30 4980 H 508.237 4.74793 -0.98979 0
M  V30 4981 H 504.116 4.60436 0.22799 0
M  V30 4982 H 507.66 6.43203 -2.70067 0
M  V30 4983 H 503.557 6.28424 -1.47489 0
M  V30 4984 H 504.325 7.57496 -3.10067 0
M  V30 4985 N 506.988 0.0434614 1.5754 0
M  V30 4986 C 508.216 -0.641835 1.96693 0
M  V30 4987 C 508.631 -1.64832 0.920652 0
M  V30 4988 O 507.988 -1.82247 -0.095993 0
M  V30 4989 C 508.039 -1.33557 3.35924 0
M  V30 4990 O 507.76 -0.369403 4.3654 0
M  V30 4991 C 509.261 -2.11135 3.89791 0
M  V30 4992 H 506.481 -0.176013 0.647503 0
M  V30 4993 H 509.025 0.107478 2.04217 0
M  V30 4994 H 507.18 -2.03617 3.29574 0
M  V30 4995 H 507.594 -0.863674 5.1734 0
M  V30 4996 H 509.068 -2.55107 4.89514 0
M  V30 4997 H 509.545 -2.95634 3.24803 0
M  V30 4998 H 510.151 -1.46002 3.99454 0
M  V30 4999 N 508.466 -1.55915 -0.229846 0
M  V30 5000 C 509.429 -1.90914 -1.26824 0
M  V30 5001 C 510.429 -0.786999 -1.40225 0
M  V30 5002 O 511.619 -1.05484 -1.38632 0
M  V30 5003 C 508.751 -2.15264 -2.64337 0
M  V30 5004 H 509.944 -2.8378 -0.969998 0
M  V30 5005 H 507.497 -1.49069 -0.4699 0
M  V30 5006 H 508.232 -1.24923 -2.99274 0
M  V30 5007 H 508.017 -2.97005 -2.55989 0
M  V30 5008 H 509.507 -2.43467 -3.39284 0
M  V30 5009 N 509.944 0.496216 -1.49584 0
M  V30 5010 C 511.169 1.27865 -1.63295 0
M  V30 5011 C 511.594 1.85592 -0.306156 0
M  V30 5012 O 510.952 1.66092 0.726851 0
M  V30 5013 C 511 2.38128 -2.7079 0
M  V30 5014 O 510.104 3.42108 -2.30296 0
M  V30 5015 H 509.445 0.377279 -0.546403 0
M  V30 5016 H 511.975 0.593497 -1.95803 0
M  V30 5017 H 511.985 2.8382 -2.93104 0
M  V30 5018 H 510.66 1.95479 -3.67098 0
M  V30 5019 H 509.237 3.02301 -2.18331 0
M  V30 5020 N 511.423 1.38739 0.74761 0
M  V30 5021 C 512.671 1.35007 1.50391 0
M  V30 5022 C 512.992 -0.0574274 1.94915 0
M  V30 5023 O 512.262 -1.00628 1.6808 0
M  V30 5024 H 510.842 0.496784 0.557866 0
M  V30 5025 H 513.504 1.73479 0.888319 0
M  V30 5026 H 512.6 2.00474 2.392 0
M  V30 5027 N 512.901 -0.976442 1.23707 0
M  V30 5028 C 514.129 -1.75341 1.09833 0
M  V30 5029 C 514.544 -1.8553 -0.349885 0
M  V30 5030 O 513.901 -1.33732 -1.24185 0
M  V30 5031 C 513.952 -3.17833 1.72233 0
M  V30 5032 O 513.673 -3.08167 3.11391 0
M  V30 5033 C 515.174 -4.11906 1.63853 0
M  V30 5034 H 512.394 -0.550137 0.384175 0
M  V30 5035 H 514.938 -1.2265 1.63638 0
M  V30 5036 H 513.093 -3.67538 1.22452 0
M  V30 5037 H 513.507 -3.97897 3.41729 0
M  V30 5038 H 514.981 -5.09579 2.12211 0
M  V30 5039 H 515.458 -4.35109 0.598092 0
M  V30 5040 H 516.064 -3.68107 2.13019 0
M  V30 5041 N 514.379 -1.04941 -1.1758 0
M  V30 5042 C 515.604 -0.778253 -1.92245 0
M  V30 5043 C 516.029 0.659707 -1.76152 0
M  V30 5044 O 515.387 1.45803 -1.07755 0
M  V30 5045 C 515.435 -1.16051 -3.41416 0
M  V30 5046 O 514.539 -0.291153 -4.11371 0
M  V30 5047 H 513.88 -0.285619 -0.599431 0
M  V30 5048 H 516.41 -1.40159 -1.49052 0
M  V30 5049 H 516.42 -1.12619 -3.92149 0
M  V30 5050 H 515.095 -2.208 -3.52449 0
M  V30 5051 H 513.672 -0.385851 -3.70898 0
M  V30 5052 N 515.857 1.33968 -0.830081 0
M  V30 5053 C 516.82 2.27694 -0.26235 0
M  V30 5054 C 517.82 1.50589 0.563876 0
M  V30 5055 O 519.01 1.70028 0.378941 0
M  V30 5056 C 516.142 3.35002 0.63138 0
M  V30 5057 H 517.335 2.79419 -1.08928 0
M  V30 5058 H 514.888 1.44221 -0.602486 0
M  V30 5059 H 515.623 2.88504 1.48109 0
M  V30 5060 H 515.408 3.92079 0.0403276 0
M  V30 5061 H 516.898 4.04897 1.02217 0
M  V30 5062 N 517.335 0.585699 1.46312 0
M  V30 5063 C 518.583 0.072278 2.01971 0
M  V30 5064 C 518.904 -1.29345 1.45928 0
M  V30 5065 O 518.174 -1.84973 0.645109 0
M  V30 5066 H 516.754 0.023729 0.746623 0
M  V30 5067 H 519.416 0.762155 1.7938 0
M  V30 5068 H 518.512 0.00552767 3.121 0
M  V30 5069 N 518.813 -1.54241 0.323641 0
M  V30 5070 C 520.038 -2.05452 -0.283605 0
M  V30 5071 C 520.463 -1.19823 -1.44997 0
M  V30 5072 O 519.821 -0.207358 -1.8011 0
M  V30 5073 C 519.869 -3.53823 -0.695795 0
M  V30 5074 O 518.973 -3.71134 -1.79815 0
M  V30 5075 H 518.314 -0.662024 -0.0511917 0
M  V30 5076 H 520.844 -1.99079 0.472073 0
M  V30 5077 H 520.854 -3.96094 -0.978434 0
M  V30 5078 H 519.529 -4.15602 0.157287 0
M  V30 5079 H 518.106 -3.40768 -1.51431 0
M  V30 5080 N 520.291 -0.0518155 -1.57515 0
M  V30 5081 C 521.516 0.634896 -1.97443 0
M  V30 5082 C 521.941 1.63546 -0.929207 0
M  V30 5083 O 521.299 1.80981 0.107484 0
M  V30 5084 C 521.347 1.29765 -3.36442 0
M  V30 5085 O 520.451 2.41333 -3.34413 0
M  V30 5086 H 519.792 0.164994 -0.643174 0
M  V30 5087 H 522.322 -0.120407 -2.04245 0
M  V30 5088 H 522.332 1.64918 -3.73184 0
M  V30 5089 H 521.007 0.564361 -4.12053 0
M  V30 5090 H 519.584 2.08122 -3.09418 0
M  V30 5091 N 521.769 1.56035 0.221574 0
M  V30 5092 C 522.997 1.8313 0.962864 0
M  V30 5093 C 523.412 0.630934 1.77946 0
M  V30 5094 O 522.769 -0.400519 1.78051 0
M  V30 5095 C 522.82 3.08742 1.88045 0
M  V30 5096 O 522.541 4.24147 1.09686 0
M  V30 5097 C 524.042 3.48824 2.73563 0
M  V30 5098 H 521.262 0.608775 0.282194 0
M  V30 5099 H 523.806 2.03124 0.23681 0
M  V30 5100 H 521.961 2.90723 2.56045 0
M  V30 5101 H 522.375 4.95505 1.71974 0
M  V30 5102 H 523.849 4.39752 3.3365 0
M  V30 5103 H 524.326 2.70575 3.45956 0
M  V30 5104 H 524.932 3.69282 2.10976 0
M  V30 5105 N 523.247 -0.488276 1.49845 0
M  V30 5106 C 524.177 -1.59675 1.70371 0
M  V30 5107 C 525.158 -1.60878 0.552473 0
M  V30 5108 O 526.343 -1.77417 0.78973 0
M  V30 5109 C 523.473 -2.98098 1.782 0
M  V30 5110 C 522.427 -3.11761 2.93239 0
M  V30 5111 C 521.753 -4.51661 2.86193 0
M  V30 5112 C 523.053 -2.90589 4.33999 0
M  V30 5113 H 524.747 -1.42752 2.63177 0
M  V30 5114 H 522.293 -0.685317 1.26647 0
M  V30 5115 H 524.246 -3.75555 1.91144 0
M  V30 5116 H 522.97 -3.16138 0.820018 0
M  V30 5117 H 521.629 -2.36732 2.79917 0
M  V30 5118 H 521.277 -4.66595 1.87877 0
M  V30 5119 H 520.977 -4.61742 3.63412 0
M  V30 5120 H 522.501 -5.31162 3.01163 0
M  V30 5121 H 523.915 -3.57807 4.47936 0
M  V30 5122 H 522.312 -3.1213 5.12538 0
M  V30 5123 H 523.382 -1.86595 4.4756 0
M  V30 5124 N 524.725 -1.39134 -0.740242 0
M  V30 5125 C 526.141 -1.20623 -1.0451 0
M  V30 5126 C 526.341 -0.0641651 -2.01398 0
M  V30 5127 O 525.397 0.585843 -2.4561 0
M  V30 5128 C 526.71 -2.53815 -1.6124 0
M  V30 5129 C 528.258 -2.60615 -1.73346 0
M  V30 5130 C 528.733 -3.94015 -2.33486 0
M  V30 5131 N 530.224 -3.95627 -2.40902 0
M  V30 5132 C 530.959 -4.95616 -2.88361 0
M  V30 5133 N 530.455 -6.06003 -3.35756 0
M  V30 5134 N 532.248 -4.82998 -2.87523 0
M  V30 5135 H 524.399 -2.12176 -0.0975576 0
M  V30 5136 H 526.662 -0.942066 -0.105904 0
M  V30 5137 H 526.368 -3.37911 -0.975144 0
M  V30 5138 H 526.242 -2.73162 -2.6012 0
M  V30 5139 H 528.629 -1.76906 -2.36195 0
M  V30 5140 H 528.71 -2.45123 -0.731336 0
M  V30 5141 H 528.354 -4.78153 -1.71267 0
M  V30 5142 H 528.284 -4.06825 -3.34366 0
M  V30 5143 H 530.775 -3.15903 -2.07398 0
M  V30 5144 H 531.088 -6.78215 -3.70464 0
M  V30 5145 H 529.433 -6.09604 -3.33778 0
M  V30 5146 H 532.624 -3.95866 -2.49816 0
M  V30 5147 H 532.797 -5.61072 -3.24196 0
M  V30 5148 N 526.204 0.969867 -1.24223 0
M  V30 5149 C 527.481 1.68774 -0.988664 0
M  V30 5150 C 527.861 2.05342 0.489673 0
M  V30 5151 O 527.209 1.75486 1.46345 0
M  V30 5152 C 527.419 2.92135 -1.90941 0
M  V30 5153 C 528.767 3.64422 -2.17903 0
M  V30 5154 O 529.791 3.02188 -1.88576 0
M  V30 5155 O 528.65 4.76446 -2.67697 0
M  V30 5156 H 525.744 0.737736 -0.37373 0
M  V30 5157 H 528.29 1.02415 -1.35312 0
M  V30 5158 H 527.062 2.61788 -2.90831 0
M  V30 5159 H 526.685 3.66228 -1.54798 0
M  V30 5160 N 527.682 1.05563 1.17022 0
M  V30 5161 C 528.928 0.769074 1.87652 0
M  V30 5162 C 529.261 -0.702326 1.81055 0
M  V30 5163 O 528.536 -1.5139 1.22112 0
M  V30 5164 C 528.819 1.25492 3.37526 0
M  V30 5165 C 528.672 2.78953 3.52853 0
M  V30 5166 C 529.991 0.856919 4.31677 0
M  V30 5167 H 527.11 0.280854 0.681388 0
M  V30 5168 H 529.752 1.31027 1.37593 0
M  V30 5169 H 527.902 0.794516 3.80289 0
M  V30 5170 H 529.574 3.33146 3.19079 0
M  V30 5171 H 527.817 3.18046 2.95007 0
M  V30 5172 H 528.488 3.08011 4.58076 0
M  V30 5173 H 530.964 1.25334 3.96775 0
M  V30 5174 H 529.84 1.22443 5.35069 0
M  V30 5175 H 530.101 -0.238787 4.41455 0
M  V30 5176 N 529.16 -1.33526 0.837174 0
M  V30 5177 C 530.406 -1.9813 0.432704 0
M  V30 5178 C 530.739 -1.66168 -1.00508 0
M  V30 5179 O 530.014 -0.94069 -1.70239 0
M  V30 5180 C 530.297 -3.54151 0.651834 0
M  V30 5181 C 530.15 -3.95806 2.13676 0
M  V30 5182 C 531.469 -4.39993 0.0968937 0
M  V30 5183 H 528.588 -0.719713 0.15869 0
M  V30 5184 H 531.23 -1.58193 1.05237 0
M  V30 5185 H 529.38 -3.88301 0.124369 0
M  V30 5186 H 531.052 -3.71921 2.72896 0
M  V30 5187 H 529.295 -3.45599 2.62191 0
M  V30 5188 H 529.966 -5.0447 2.24084 0
M  V30 5189 H 532.442 -4.12479 0.547733 0
M  V30 5190 H 531.318 -5.48186 0.279917 0
M  V30 5191 H 531.579 -4.3066 -0.9992 0
M  V30 5192 N 530.638 -0.59345 -1.46 0
M  V30 5193 C 532.049 -0.169801 -1.85926 0
M  V30 5194 C 532.4 1.26984 -1.49565 0
M  V30 5195 O 531.525 1.96076 -0.915602 0
M  V30 5196 C 532.12 -0.301385 -3.37457 0
M  V30 5197 C 530.679 0.0674684 -3.7634 0
M  V30 5198 C 529.826 -0.632383 -2.69993 0
M  V30 5199 H 532.777 -0.801014 -1.37002 0
M  V30 5200 H 532.798 0.470331 -3.77582 0
M  V30 5201 H 532.31 -1.34927 -3.63891 0
M  V30 5202 H 530.411 1.11507 -3.55523 0
M  V30 5203 H 530.524 -0.316332 -4.78055 0
M  V30 5204 H 528.888 -0.0714961 -2.546 0
M  V30 5205 H 529.671 -1.68212 -2.99265 0
M  V30 5206 N 532.116 1.54067 -0.331816 0
M  V30 5207 C 533.341 2.05599 0.272705 0
M  V30 5208 C 533.766 1.2059 1.44359 0
M  V30 5209 O 533.124 0.216907 1.79998 0
M  V30 5210 C 533.172 3.54188 0.677021 0
M  V30 5211 O 532.276 3.72082 1.77844 0
M  V30 5212 H 531.617 0.662286 0.0476801 0
M  V30 5213 H 534.147 1.98826 -0.482624 0
M  V30 5214 H 534.157 3.96608 0.957415 0
M  V30 5215 H 532.832 4.15513 -0.179325 0
M  V30 5216 H 531.409 3.41566 1.49622 0
M  V30 5217 N 533.594 0.0601682 1.57485 0
M  V30 5218 C 535.005 -0.474217 1.80577 0
M  V30 5219 C 535.356 -1.70365 0.973147 0
M  V30 5220 O 534.481 -2.15544 0.192306 0
M  V30 5221 C 535.076 -0.867102 3.27516 0
M  V30 5222 C 533.635 -1.34642 3.51495 0
M  V30 5223 C 532.782 -0.32594 2.75378 0
M  V30 5224 H 535.733 0.285973 1.56102 0
M  V30 5225 H 535.754 -1.72938 3.38929 0
M  V30 5226 H 535.266 0.0278927 3.8809 0
M  V30 5227 H 533.367 -2.2603 2.96212 0
M  V30 5228 H 533.48 -1.33237 4.60201 0
M  V30 5229 H 531.844 -0.800749 2.41785 0
M  V30 5230 H 532.627 0.561125 3.38683 0
M  V30 5231 N 535.072 -1.5615 -0.213296 0
M  V30 5232 C 536.349 -1.70349 -0.961281 0
M  V30 5233 C 536.729 -0.609791 -2.02101 0
M  V30 5234 O 536.077 0.381987 -2.25285 0
M  V30 5235 C 536.287 -3.11982 -1.56424 0
M  V30 5236 C 537.635 -3.71649 -2.05334 0
M  V30 5237 O 538.659 -3.14995 -1.66302 0
M  V30 5238 O 537.518 -4.71038 -2.77102 0
M  V30 5239 H 534.612 -0.694121 -0.449582 0
M  V30 5240 H 537.158 -1.68464 -0.204426 0
M  V30 5241 H 535.93 -3.83046 -0.799457 0
M  V30 5242 H 535.553 -3.18019 -2.38641 0
M  V30 5243 N 536.55 0.480323 -1.50102 0
M  V30 5244 C 537.778 1.25657 -1.64371 0
M  V30 5245 C 538.193 1.86011 -0.323316 0
M  V30 5246 O 537.55 1.68803 0.693682 0
M  V30 5247 C 537.601 2.37197 -2.728 0
M  V30 5248 O 537.322 1.7932 -3.9972 0
M  V30 5249 C 538.823 3.2823 -2.9796 0
M  V30 5250 H 536.043 0.380369 -0.552775 0
M  V30 5251 H 538.587 0.574379 -1.96268 0
M  V30 5252 H 536.742 3.01208 -2.43623 0
M  V30 5253 H 537.156 2.52701 -4.59611 0
M  V30 5254 H 538.63 4.02725 -3.77513 0
M  V30 5255 H 539.107 3.86462 -2.08671 0
M  V30 5256 H 539.713 2.69964 -3.28633 0
M  V30 5257 N 538.028 1.39524 0.732853 0
M  V30 5258 C 538.96 1.34318 1.85718 0
M  V30 5259 C 539.973 0.251576 1.60844 0
M  V30 5260 O 541.162 0.510685 1.71039 0
M  V30 5261 C 538.262 1.06334 3.21786 0
M  V30 5262 C 537.435 2.26813 3.73998 0
M  V30 5263 C 536.494 1.95253 4.88634 0
M  V30 5264 O 535.52 2.67957 5.02183 0
M  V30 5265 N 536.722 0.919984 5.73164 0
M  V30 5266 H 539.487 2.3121 1.90688 0
M  V30 5267 H 537.048 1.33654 0.91368 0
M  V30 5268 H 539.04 0.832363 3.96048 0
M  V30 5269 H 537.61 0.181682 3.12072 0
M  V30 5270 H 536.83 2.65849 2.91064 0
M  V30 5271 H 538.118 3.0717 4.05616 0
M  V30 5272 H 537.516 0.317487 5.64808 0
M  V30 5273 H 536.073 0.748905 6.47483 0
M  V30 5274 N 539.506 -0.963266 1.24736 0
M  V30 5275 C 540.416 -2.09246 1.06082 0
M  V30 5276 C 541.432 -1.74 0.000363101 0
M  V30 5277 O 542.608 -2.0041 0.199479 0
M  V30 5278 C 539.673 -3.40115 0.672498 0
M  V30 5279 C 538.734 -3.89282 1.80993 0
M  V30 5280 C 537.967 -5.13905 1.44004 0
M  V30 5281 O 538.19 -5.69434 0.331835 0
M  V30 5282 O 537.124 -5.57566 2.26723 0
M  V30 5283 H 540.95 -2.27881 2.00759 0
M  V30 5284 H 538.535 -1.07649 1.03595 0
M  V30 5285 H 540.417 -4.18797 0.467668 0
M  V30 5286 H 539.092 -3.22771 -0.245102 0
M  V30 5287 H 537.999 -3.11642 2.06955 0
M  V30 5288 H 539.332 -4.1111 2.70646 0
M  V30 5289 N 540.985 -1.06182 -1.16461 0
M  V30 5290 C 541.932 -0.671613 -2.20812 0
M  V30 5291 C 542.902 0.331186 -1.62765 0
M  V30 5292 O 544.087 0.22033 -1.89524 0
M  V30 5293 C 541.227 -0.063029 -3.45042 0
M  V30 5294 C 540.34 -1.11587 -4.1734 0
M  V30 5295 C 539.475 -0.473546 -5.29085 0
M  V30 5296 C 538.514 -1.51 -5.93182 0
M  V30 5297 N 537.651 -0.891118 -6.96422 0
M  V30 5298 H 542.491 -1.56589 -2.53542 0
M  V30 5299 H 540.028 -0.782951 -1.24532 0
M  V30 5300 H 541.986 0.307344 -4.16066 0
M  V30 5301 H 540.616 0.794663 -3.12866 0
M  V30 5302 H 539.668 -1.60396 -3.44931 0
M  V30 5303 H 540.98 -1.90221 -4.61104 0
M  V30 5304 H 540.134 -0.0501432 -6.06679 0
M  V30 5305 H 538.873 0.344687 -4.8648 0
M  V30 5306 H 537.878 -1.94331 -5.14311 0
M  V30 5307 H 539.103 -2.33031 -6.37866 0
M  V30 5308 H 537.049 -0.0935753 -6.55933 0
M  V30 5309 H 536.966 -1.61486 -7.38551 0
M  V30 5310 H 538.234 -0.492822 -7.77941 0
M  V30 5311 N 542.463 1.3308 -0.844243 0
M  V30 5312 C 543.711 1.97215 -0.441676 0
M  V30 5313 C 544.032 1.67185 1.0037 0
M  V30 5314 O 543.302 0.973588 1.69994 0
M  V30 5315 H 541.882 0.72959 -0.160335 0
M  V30 5316 H 544.544 1.62348 -1.07838 0
M  V30 5317 H 543.64 3.06698 -0.57815 0
M  V30 5318 N 543.941 0.601185 1.45683 0
M  V30 5319 C 544.904 -0.111398 2.28929 0
M  V30 5320 C 545.904 -0.801246 1.39416 0
M  V30 5321 O 547.094 -0.650383 1.61603 0
M  V30 5322 C 544.226 -1.16773 3.20276 0
M  V30 5323 H 545.419 0.620412 2.93413 0
M  V30 5324 H 542.972 0.359946 1.52099 0
M  V30 5325 H 543.707 -1.93051 2.60579 0
M  V30 5326 H 543.492 -0.677358 3.86205 0
M  V30 5327 H 544.982 -1.66698 3.82886 0
M  V30 5328 N 545.419 -1.53889 0.339982 0
M  V30 5329 C 546.351 -2.22435 -0.55275 0
M  V30 5330 C 547.364 -1.22975 -1.06681 0
M  V30 5331 O 548.553 -1.49351 -0.977575 0
M  V30 5332 C 545.653 -2.8882 -1.77302 0
M  V30 5333 C 544.826 -4.14563 -1.39486 0
M  V30 5334 C 543.885 -4.64391 -2.47442 0
M  V30 5335 O 542.911 -5.28687 -2.10899 0
M  V30 5336 N 544.113 -4.40015 -3.78639 0
M  V30 5337 H 546.878 -2.9968 0.0342669 0
M  V30 5338 H 544.439 -1.61068 0.16394 0
M  V30 5339 H 546.431 -3.19072 -2.48948 0
M  V30 5340 H 545.001 -2.15182 -2.26749 0
M  V30 5341 H 544.221 -3.90896 -0.509321 0
M  V30 5342 H 545.509 -4.96362 -1.11813 0
M  V30 5343 H 544.907 -3.88586 -4.11118 0
M  V30 5344 H 543.464 -4.74881 -4.46465 0
M  V30 5345 N 546.897 -0.0685191 -1.57451 0
M  V30 5346 C 547.807 0.914677 -2.16034 0
M  V30 5347 C 548.823 1.32938 -1.12265 0
M  V30 5348 O 549.999 1.40275 -1.44516 0
M  V30 5349 C 547.064 2.16519 -2.70777 0
M  V30 5350 C 546.125 1.80721 -3.89408 0
M  V30 5351 C 545.358 2.9981 -4.41531 0
M  V30 5352 O 545.581 4.13727 -3.92666 0
M  V30 5353 O 544.515 2.79817 -5.32903 0
M  V30 5354 H 548.341 0.446364 -3.00402 0
M  V30 5355 H 545.926 0.154367 -1.486 0
M  V30 5356 H 547.808 2.89856 -3.05878 0
M  V30 5357 H 546.483 2.62454 -1.89471 0
M  V30 5358 H 545.39 1.04646 -3.59166 0
M  V30 5359 H 546.723 1.39571 -4.71997 0
M  V30 5360 N 548.375 1.56261 0.205012 0
M  V30 5361 C 549.621 1.80306 0.9283 0
M  V30 5362 C 549.954 0.640932 1.83319 0
M  V30 5363 O 549.229 -0.359032 1.91158 0
M  V30 5364 C 549.512 3.14547 1.75306 0
M  V30 5365 C 549.365 4.41236 0.873562 0
M  V30 5366 C 550.684 3.45382 2.72762 0
M  V30 5367 H 547.803 0.655929 0.336044 0
M  V30 5368 H 550.445 1.88984 0.196211 0
M  V30 5369 H 548.595 3.0728 2.37721 0
M  V30 5370 H 550.267 4.60539 0.264887 0
M  V30 5371 H 548.51 4.33427 0.179773 0
M  V30 5372 H 549.181 5.31639 1.48541 0
M  V30 5373 H 551.657 3.52884 2.20481 0
M  V30 5374 H 550.533 4.40449 3.2756 0
M  V30 5375 H 550.794 2.68377 3.51321 0
M  V30 5376 N 549.853 -0.472356 1.50355 0
M  V30 5377 C 551.264 -1.05326 1.54154 0
M  V30 5378 C 551.615 -1.93155 0.344303 0
M  V30 5379 O 550.74 -2.09479 -0.542928 0
M  V30 5380 C 551.335 -1.91691 2.79356 0
M  V30 5381 C 549.894 -2.44892 2.8584 0
M  V30 5382 C 549.041 -1.23205 2.48426 0
M  V30 5383 H 551.992 -0.255027 1.56637 0
M  V30 5384 H 552.013 -2.76742 2.6114 0
M  V30 5385 H 551.525 -1.27741 3.66475 0
M  V30 5386 H 549.626 -3.12399 2.0307 0
M  V30 5387 H 549.739 -2.80086 3.88701 0
M  V30 5388 H 548.103 -1.56643 2.00836 0
M  V30 5389 H 548.886 -0.609194 3.37852 0
M  V30 5390 N 551.331 -1.39911 -0.725443 0
M  V30 5391 C 552.578 -1.37654 -1.48518 0
M  V30 5392 C 552.906 0.0243982 -1.94485 0
M  V30 5393 O 552.161 1.00708 -1.67799 0
M  V30 5394 C 552.46 -2.30368 -2.7325 0
M  V30 5395 C 552.126 -3.77817 -2.461 0
M  V30 5396 C 550.788 -4.17991 -2.38405 0
M  V30 5397 C 553.14 -4.71036 -2.23103 0
M  V30 5398 C 550.468 -5.49433 -2.05768 0
M  V30 5399 C 552.82 -6.02766 -1.9198 0
M  V30 5400 C 551.484 -6.41993 -1.82761 0
M  V30 5401 H 550.754 -0.503713 -0.543465 0
M  V30 5402 H 553.401 -1.7249 -0.831822 0
M  V30 5403 H 551.706 -1.88683 -3.43375 0
M  V30 5404 H 553.403 -2.2591 -3.31309 0
M  V30 5405 H 549.993 -3.45982 -2.52972 0
M  V30 5406 H 554.177 -4.40823 -2.2801 0
M  V30 5407 H 549.433 -5.78738 -1.9716 0
M  V30 5408 H 553.607 -6.74519 -1.73197 0
M  V30 5409 H 551.234 -7.43761 -1.57237 0
M  V30 5410 N 552.809 0.956637 -1.25245 0
M  V30 5411 C 554.22 1.51569 -1.09012 0
M  V30 5412 C 554.571 1.93322 0.334813 0
M  V30 5413 O 553.696 1.78421 1.22454 0
M  V30 5414 C 554.291 2.75444 -1.97271 0
M  V30 5415 C 552.85 3.27669 -1.8523 0
M  V30 5416 C 551.997 2.00517 -1.91542 0
M  V30 5417 H 554.948 0.773746 -1.3856 0
M  V30 5418 H 554.969 3.4919 -1.51151 0
M  V30 5419 H 554.481 2.45024 -3.00973 0
M  V30 5420 H 552.582 3.62914 -0.844045 0
M  V30 5421 H 552.695 3.9582 -2.69932 0
M  V30 5422 H 551.059 2.15727 -1.35404 0
M  V30 5423 H 551.842 1.72448 -2.96844 0
M  V30 5424 N 554.287 1.06798 1.15896 0
M  V30 5425 C 555.234 0.683314 2.20453 0
M  V30 5426 C 556.204 -0.32255 1.62938 0
M  V30 5427 O 557.389 -0.210276 1.89638 0
M  V30 5428 C 554.529 0.0813266 3.45004 0
M  V30 5429 C 553.642 1.13799 4.16742 0
M  V30 5430 C 552.777 0.501598 5.28826 0
M  V30 5431 C 551.816 1.54144 5.92373 0
M  V30 5432 N 550.953 0.928038 6.9594 0
M  V30 5433 H 555.793 1.57932 2.52708 0
M  V30 5434 H 553.33 0.789544 1.24115 0
M  V30 5435 H 555.288 -0.285274 4.16224 0
M  V30 5436 H 553.918 -0.77806 3.13283 0
M  V30 5437 H 552.97 1.62223 3.44075 0
M  V30 5438 H 554.282 1.92664 4.60089 0
M  V30 5439 H 553.436 0.0823162 6.06644 0
M  V30 5440 H 552.175 -0.318883 4.86656 0
M  V30 5441 H 551.18 1.97056 5.13273 0
M  V30 5442 H 552.405 2.3641 6.36621 0
M  V30 5443 H 550.351 0.12836 6.55874 0
M  V30 5444 H 550.268 1.65401 7.37685 0
M  V30 5445 H 551.536 0.534071 7.77668 0
M  V30 5446 N 555.766 -1.3263 0.851289 0
M  V30 5447 C 556.994 -2.01563 0.466899 0
M  V30 5448 C 557.409 -1.63996 -0.935447 0
M  V30 5449 O 556.766 -0.85957 -1.6099 0
M  V30 5450 C 556.817 -3.56613 0.592433 0
M  V30 5451 O 556.538 -3.92828 1.93954 0
M  V30 5452 C 558.039 -4.42818 0.206612 0
M  V30 5453 H 555.259 -0.645307 0.183902 0
M  V30 5454 H 557.803 -1.69285 1.1473 0
M  V30 5455 H 555.958 -3.87379 -0.0401936 0
M  V30 5456 H 556.372 -4.87545 1.9339 0
M  V30 5457 H 557.846 -5.50918 0.345462 0
M  V30 5458 H 558.323 -4.30844 -0.85264 0
M  V30 5459 H 558.929 -4.17434 0.814176 0
M  V30 5460 N 557.244 -0.608902 -1.45362 0
M  V30 5461 C 558.154 0.110969 -2.34337 0
M  V30 5462 C 559.17 0.859007 -1.51318 0
M  V30 5463 O 560.346 0.816296 -1.84116 0
M  V30 5464 C 557.411 1.09494 -3.28956 0
M  V30 5465 C 556.472 0.348718 -4.27881 0
M  V30 5466 C 555.705 1.28582 -5.17979 0
M  V30 5467 O 555.928 2.52369 -5.11533 0
M  V30 5468 O 554.862 0.782172 -5.96796 0
M  V30 5469 H 558.688 -0.620258 -2.97299 0
M  V30 5470 H 556.273 -0.36916 -1.44767 0
M  V30 5471 H 558.155 1.66163 -3.87257 0
M  V30 5472 H 556.83 1.80717 -2.68557 0
M  V30 5473 H 555.737 -0.260465 -3.73192 0
M  V30 5474 H 557.07 -0.323049 -4.91139 0
M  V30 5475 N 558.722 1.53707 -0.348139 0
M  V30 5476 C 559.632 2.28881 0.514857 0
M  V30 5477 C 560.648 1.34168 1.10793 0
M  V30 5478 O 561.824 1.6721 1.12262 0
M  V30 5479 C 558.889 3.05042 1.64774 0
M  V30 5480 C 557.95 4.15389 1.08398 0
M  V30 5481 C 557.183 4.87909 2.16287 0
M  V30 5482 O 557.406 4.60137 3.3709 0
M  V30 5483 O 556.34 5.74254 1.80323 0
M  V30 5484 H 560.166 3.03547 -0.0963699 0
M  V30 5485 H 557.751 1.48972 -0.113043 0
M  V30 5486 H 559.633 3.52656 2.30677 0
M  V30 5487 H 558.308 2.33228 2.24469 0
M  V30 5488 H 557.215 3.72068 0.389341 0
M  V30 5489 H 558.548 4.89318 0.531829 0
M  V30 5490 N 560.2 0.0768682 1.57412 0
M  V30 5491 C 561.446 -0.591961 1.93968 0
M  V30 5492 C 561.779 -1.68954 0.9575 0
M  V30 5493 O 561.054 -1.94496 -0.0124675 0
M  V30 5494 C 561.337 -1.16418 3.40762 0
M  V30 5495 C 561.19 -0.0728933 4.49741 0
M  V30 5496 C 562.509 -2.06814 3.88479 0
M  V30 5497 H 559.628 -0.213716 0.705333 0
M  V30 5498 H 562.27 0.14387 1.89455 0
M  V30 5499 H 560.42 -1.79128 3.4474 0
M  V30 5500 H 562.092 0.560446 4.57883 0
M  V30 5501 H 560.335 0.595859 4.29688 0
M  V30 5502 H 561.006 -0.513755 5.49604 0
M  V30 5503 H 563.482 -1.54033 3.8654 0
M  V30 5504 H 562.358 -2.43785 4.91793 0
M  V30 5505 H 562.619 -2.97844 3.26713 0
M  V30 5506 N 561.678 -1.56367 -0.196722 0
M  V30 5507 C 562.588 -1.97617 -1.2643 0
M  V30 5508 C 563.604 -0.883598 -1.49895 0
M  V30 5509 O 564.78 -1.18921 -1.62541 0
M  V30 5510 C 561.845 -2.30595 -2.58895 0
M  V30 5511 C 560.906 -3.53551 -2.43516 0
M  V30 5512 C 560.139 -3.84946 -3.69665 0
M  V30 5513 O 560.362 -3.17655 -4.73763 0
M  V30 5514 O 559.296 -4.78379 -3.65291 0
M  V30 5515 H 563.122 -2.88648 -0.944233 0
M  V30 5516 H 560.707 -1.43901 -0.401592 0
M  V30 5517 H 562.589 -2.52889 -3.37083 0
M  V30 5518 H 561.264 -1.42732 -2.90533 0
M  V30 5519 H 560.171 -3.36507 -1.63445 0
M  V30 5520 H 561.504 -4.41875 -2.16812 0
M  V30 5521 N 563.156 0.464375 -1.50603 0
M  V30 5522 C 564.381 1.24372 -1.65971 0
M  V30 5523 C 564.806 1.84901 -0.345453 0
M  V30 5524 O 564.164 1.67596 0.691457 0
M  V30 5525 C 564.212 2.32331 -2.7578 0
M  V30 5526 O 563.316 3.37146 -2.375 0
M  V30 5527 H 562.657 0.365604 -0.554283 0
M  V30 5528 H 565.187 0.55183 -1.97018 0
M  V30 5529 H 565.197 2.77539 -2.99059 0
M  V30 5530 H 563.872 1.87648 -3.71162 0
M  V30 5531 H 562.449 2.97602 -2.24694 0
M  V30 5532 N 564.634 1.40294 0.718013 0
M  V30 5533 C 565.597 1.4012 1.81381 0
M  V30 5534 C 566.597 0.295405 1.58063 0
M  V30 5535 O 567.787 0.554187 1.6515 0
M  V30 5536 C 564.919 1.19056 3.19435 0
M  V30 5537 H 566.112 2.37645 1.82933 0
M  V30 5538 H 563.665 1.26107 0.923405 0
M  V30 5539 H 564.4 0.222809 3.23534 0
M  V30 5540 H 564.185 1.99152 3.37758 0
M  V30 5541 H 565.675 1.21716 3.99468 0
M  V30 5542 N 566.112 -0.949982 1.2575 0
M  V30 5543 C 567.361 -1.68956 1.10168 0
M  V30 5544 C 567.674 -1.92327 -0.356309 0
M  V30 5545 O 568.88 -2.64026 -0.632657 0
M  V30 5546 C 567.336 -3.04196 1.92336 0
M  V30 5547 C 566.944 -2.88603 3.42655 0
M  V30 5548 C 568.688 -3.81904 1.85336 0
M  V30 5549 C 566.595 -4.19262 4.17101 0
M  V30 5550 H 565.525 -0.633645 0.408668 0
M  V30 5551 H 568.176 -1.05719 1.49986 0
M  V30 5552 H 566.558 -3.68363 1.45344 0
M  V30 5553 H 567.732 -2.3334 3.97353 0
M  V30 5554 H 566.047 -2.24345 3.50796 0
M  V30 5555 H 568.644 -4.78688 2.38248 0
M  V30 5556 H 568.987 -4.08099 0.822226 0
M  V30 5557 H 569.52 -3.24495 2.30104 0
M  V30 5558 H 566.259 -3.98254 5.20648 0
M  V30 5559 H 565.779 -4.74273 3.67186 0
M  V30 5560 H 567.458 -4.87775 4.25071 0
M  V30 5561 N 567.59 -1.07411 -1.15328 0
M  V30 5562 C 568.815 -0.818856 -1.90551 0
M  V30 5563 C 569.24 0.622194 -1.77512 0
M  V30 5564 O 568.598 1.43484 -1.10824 0
M  V30 5565 C 568.646 -1.23267 -3.38877 0
M  V30 5566 O 567.75 -0.378345 -4.10661 0
M  V30 5567 H 567.091 -0.29827 -0.593238 0
M  V30 5568 H 569.621 -1.43289 -1.46046 0
M  V30 5569 H 569.631 -1.20912 -3.89672 0
M  V30 5570 H 568.306 -2.28226 -3.47686 0
M  V30 5571 H 566.883 -0.464437 -3.69996 0
M  V30 5572 N 569.068 1.32177 -0.85831 0
M  V30 5573 C 570.016 2.30729 -0.294442 0
M  V30 5574 C 571.01 1.59009 0.584165 0
M  V30 5575 O 572.216 1.73713 0.471562 0
M  V30 5576 H 568.591 0.748097 -0.0765171 0
M  V30 5577 H 570.562 2.75774 -1.1398 0
M  V30 5578 C 569.311 3.44098 0.499208 0
M  V30 5579 H 568.634 3.99449 -0.167579 0
M  V30 5580 H 570.074 4.15202 0.859273 0
M  V30 5581 C 568.533 2.91684 1.68588 0
M  V30 5582 O 569.063 2.89481 2.78503 0
M  V30 5583 N 567.269 2.48036 1.51415 0
M  V30 5584 H 566.816 2.50027 0.620006 0
M  V30 5585 H 566.774 2.13322 2.30957 0
M  V30 5586 N 570.547 0.616602 1.45037 0
M  V30 5587 C 571.795 0.115103 2.01772 0
M  V30 5588 C 572.116 -1.2622 1.48639 0
M  V30 5589 O 571.386 -1.83563 0.684199 0
M  V30 5590 H 569.966 0.0395607 0.745952 0
M  V30 5591 H 572.628 0.800032 1.77723 0
M  V30 5592 H 571.724 0.0717274 3.12018 0
M  V30 5593 N 572.025 -1.5352 0.356285 0
M  V30 5594 C 573.271 -2.01414 -0.236653 0
M  V30 5595 C 573.604 -1.24339 -1.49176 0
M  V30 5596 O 572.879 -0.334496 -1.91602 0
M  V30 5597 C 573.162 -3.56059 -0.537982 0
M  V30 5598 C 573.015 -4.43835 0.730112 0
M  V30 5599 C 574.334 -4.19127 -1.34239 0
M  V30 5600 H 571.453 -0.732135 -0.0845386 0
M  V30 5601 H 574.095 -1.83854 0.479341 0
M  V30 5602 H 572.245 -3.71153 -1.14795 0
M  V30 5603 H 573.917 -4.40555 1.36782 0
M  V30 5604 H 572.16 -4.1218 1.3524 0
M  V30 5605 H 572.831 -5.49958 0.474358 0
M  V30 5606 H 575.307 -4.07809 -0.826498 0
M  V30 5607 H 574.183 -5.27378 -1.52198 0
M  V30 5608 H 574.444 -3.74581 -2.34822 0
M  V30 5609 N 573.503 -0.0852151 -1.57369 0
M  V30 5610 C 574.731 0.58946 -1.98325 0
M  V30 5611 C 575.146 1.62333 -0.96403 0
M  V30 5612 O 574.503 1.82438 0.0476395 0
M  V30 5613 C 574.554 1.24604 -3.39347 0
M  V30 5614 O 574.275 0.253532 -4.37366 0
M  V30 5615 C 575.776 2.00726 -3.95252 0
M  V30 5616 H 572.996 0.158783 -0.651942 0
M  V30 5617 H 575.54 -0.161584 -2.03861 0
M  V30 5618 H 573.695 1.94808 -3.34856 0
M  V30 5619 H 574.109 0.726207 -5.19448 0
M  V30 5620 H 575.583 2.42039 -4.96106 0
M  V30 5621 H 576.06 2.86919 -3.32527 0
M  V30 5622 H 576.666 1.3536 -4.03185 0
M  V30 5623 N 574.981 1.5647 0.188427 0
M  V30 5624 C 576.229 1.80655 0.905986 0
M  V30 5625 C 576.55 0.659391 1.83513 0
M  V30 5626 O 575.82 -0.321868 1.93238 0
M  V30 5627 H 574.4 0.666391 0.337538 0
M  V30 5628 H 577.062 1.93949 0.192339 0
M  V30 5629 H 576.158 2.74066 1.49313 0
M  V30 5630 N 576.459 -0.456382 1.50847 0
M  V30 5631 C 577.391 -1.57033 1.66953 0
M  V30 5632 C 578.404 -1.53207 0.550593 0
M  V30 5633 O 579.593 -1.58328 0.824285 0
M  V30 5634 C 576.693 -2.95937 1.65149 0
M  V30 5635 C 575.866 -3.24475 2.93317 0
M  V30 5636 C 574.925 -4.43007 2.83957 0
M  V30 5637 O 573.951 -4.42592 3.57912 0
M  V30 5638 N 575.153 -5.45503 1.9851 0
M  V30 5639 H 577.918 -1.43629 2.63042 0
M  V30 5640 H 575.479 -0.645037 1.48495 0
M  V30 5641 H 577.471 -3.73224 1.56481 0
M  V30 5642 H 576.041 -3.03036 0.767343 0
M  V30 5643 H 575.261 -2.35664 3.16 0
M  V30 5644 H 576.549 -3.4036 3.78196 0
M  V30 5645 H 575.947 -5.48668 1.37766 0
M  V30 5646 H 574.504 -6.21716 1.95735 0
M  V30 5647 N 577.937 -1.40673 -0.710563 0
M  V30 5648 C 578.867 -1.44095 -1.83736 0
M  V30 5649 C 579.848 -0.301286 -1.67411 0
M  V30 5650 O 581.033 -0.510618 -1.87367 0
M  V30 5651 C 578.163 -1.30773 -3.21738 0
M  V30 5652 C 577.117 -2.42395 -3.52745 0
M  V30 5653 C 576.443 -2.14147 -4.89944 0
M  V30 5654 C 577.743 -3.84738 -3.53234 0
M  V30 5655 H 579.437 -2.38396 -1.81129 0
M  V30 5656 H 576.983 -1.14746 -0.870017 0
M  V30 5657 H 578.936 -1.31783 -4.00264 0
M  V30 5658 H 577.66 -0.329507 -3.24934 0
M  V30 5659 H 576.319 -2.40643 -2.76562 0
M  V30 5660 H 575.967 -1.14703 -4.89747 0
M  V30 5661 H 575.667 -2.88934 -5.11655 0
M  V30 5662 H 577.191 -2.16848 -5.70797 0
M  V30 5663 H 578.605 -3.88286 -4.2179 0
M  V30 5664 H 577.002 -4.59085 -3.86473 0
M  V30 5665 H 578.072 -4.13962 -2.52514 0
M  V30 5666 N 579.415 0.9433 -1.26252 0
M  V30 5667 C 580.363 2.06302 -1.07434 0
M  V30 5668 C 581.357 1.694 -0.00189471 0
M  V30 5669 O 582.563 1.79302 -0.158408 0
M  V30 5670 H 578.938 0.675453 -0.330556 0
M  V30 5671 H 580.909 2.19326 -2.02333 0
M  V30 5672 C 579.658 3.40125 -0.721817 0
M  V30 5673 H 578.981 3.68996 -1.5389 0
M  V30 5674 H 580.421 4.19295 -0.629922 0
M  V30 5675 C 578.88 3.31993 0.572902 0
M  V30 5676 O 579.41 3.67945 1.61182 0
M  V30 5677 N 577.616 2.85099 0.562748 0
M  V30 5678 H 577.163 2.5604 -0.283092 0
M  V30 5679 H 577.121 2.80041 1.42915 0
M  V30 5680 N 580.893 1.08022 1.14757 0
M  V30 5681 C 582.142 0.802468 1.8505 0
M  V30 5682 C 582.455 -0.674061 1.83619 0
M  V30 5683 O 583.661 -1.06683 2.49662 0
M  V30 5684 C 582.117 1.38551 3.32162 0
M  V30 5685 C 581.725 2.89354 3.42021 0
M  V30 5686 C 583.469 1.18608 4.07594 0
M  V30 5687 C 581.376 3.40815 4.83321 0
M  V30 5688 H 580.306 0.296518 0.693248 0
M  V30 5689 H 582.957 1.30114 1.29393 0
M  V30 5690 H 581.339 0.814556 3.87532 0
M  V30 5691 H 582.513 3.52552 2.96722 0
M  V30 5692 H 580.828 3.08165 2.80041 0
M  V30 5693 H 583.425 1.54525 5.11885 0
M  V30 5694 H 583.768 0.125599 4.1611 0
M  V30 5695 H 584.301 1.72375 3.58513 0
M  V30 5696 H 581.04 4.46418 4.79991 0
M  V30 5697 H 580.56 2.82374 5.29174 0
M  V30 5698 H 582.239 3.37171 5.522 0
M  V30 5699 N 582.371 -1.3172 0.865308 0
M  V30 5700 C 583.617 -1.97168 0.474633 0
M  V30 5701 C 583.95 -1.68263 -0.969604 0
M  V30 5702 O 583.225 -0.976588 -1.68205 0
M  V30 5703 C 583.508 -3.52689 0.726808 0
M  V30 5704 C 583.361 -3.91185 2.22024 0
M  V30 5705 C 584.68 -4.39689 0.190201 0
M  V30 5706 H 581.799 -0.716185 0.17392 0
M  V30 5707 H 584.441 -1.55925 1.08569 0
M  V30 5708 H 582.591 -3.8795 0.206705 0
M  V30 5709 H 584.263 -3.66049 2.80724 0
M  V30 5710 H 582.506 -3.3996 2.69462 0
M  V30 5711 H 583.177 -4.99604 2.34735 0
M  V30 5712 H 585.653 -4.11225 0.635103 0
M  V30 5713 H 584.529 -5.47469 0.396132 0
M  V30 5714 H 584.79 -4.32683 -0.907625 0
M  V30 5715 N 583.85 -0.624285 -1.44708 0
M  V30 5716 C 584.782 0.12305 -2.28869 0
M  V30 5717 C 585.795 0.81557 -1.40898 0
M  V30 5718 O 586.984 0.678162 -1.65116 0
M  V30 5719 C 584.084 1.19612 -3.1709 0
M  V30 5720 C 583.257 0.587452 -4.33437 0
M  V30 5721 C 582.316 1.55358 -5.02743 0
M  V30 5722 O 581.341 1.07338 -5.58988 0
M  V30 5723 N 582.543 2.88798 -5.03563 0
M  V30 5724 H 585.308 -0.599193 -2.93649 0
M  V30 5725 H 582.87 -0.464954 -1.5508 0
M  V30 5726 H 584.861 1.84261 -3.60319 0
M  V30 5727 H 583.432 1.82067 -2.54107 0
M  V30 5728 H 582.652 -0.237509 -3.93484 0
M  V30 5729 H 583.94 0.161326 -5.08544 0
M  V30 5730 H 583.338 3.30399 -4.59188 0
M  V30 5731 H 581.894 3.48826 -5.50603 0
M  V30 5732 N 585.328 1.53329 -0.364422 0
M  V30 5733 C 586.558 2.05359 0.226096 0
M  V30 5734 C 586.966 1.23777 1.43094 0
M  V30 5735 O 586.309 0.271139 1.81688 0
M  V30 5736 C 586.371 3.52918 0.684794 0
M  V30 5737 C 586.035 4.55218 -0.403206 0
M  V30 5738 C 587.032 5.04583 -1.2527 0
M  V30 5739 C 584.717 4.99134 -0.563117 0
M  V30 5740 C 586.711 5.96463 -2.24745 0
M  V30 5741 C 584.398 5.9082 -1.56124 0
M  V30 5742 C 585.396 6.39375 -2.40184 0
M  V30 5743 O 585.084 7.29255 -3.38293 0
M  V30 5744 H 584.816 0.674588 0.0436772 0
M  V30 5745 H 587.37 1.98688 -0.520782 0
M  V30 5746 H 585.6 3.57122 1.48326 0
M  V30 5747 H 587.289 3.87812 1.19818 0
M  V30 5748 H 588.055 4.71403 -1.14034 0
M  V30 5749 H 583.934 4.60928 0.0813909 0
M  V30 5750 H 587.478 6.34285 -2.90393 0
M  V30 5751 H 583.375 6.23414 -1.67407 0
M  V30 5752 H 584.143 7.47249 -3.34009 0
M  V30 5753 N 586.806 0.0935595 1.57322 0
M  V30 5754 C 588.055 -0.570191 1.93473 0
M  V30 5755 C 588.368 -1.69434 0.977318 0
M  V30 5756 O 589.574 -2.41914 1.23248 0
M  V30 5757 C 588.03 -1.06564 3.43762 0
M  V30 5758 C 587.638 0.0286723 4.47991 0
M  V30 5759 C 589.382 -1.70221 3.88877 0
M  V30 5760 C 587.289 -0.482046 5.89432 0
M  V30 5761 H 586.219 -0.216764 0.72217 0
M  V30 5762 H 588.87 0.169313 1.82717 0
M  V30 5763 H 587.252 -1.85878 3.49664 0
M  V30 5764 H 588.426 0.804106 4.5373 0
M  V30 5765 H 586.741 0.570336 4.12476 0
M  V30 5766 H 589.338 -2.09502 4.91948 0
M  V30 5767 H 589.681 -2.57078 3.27439 0
M  V30 5768 H 590.214 -0.974919 3.85668 0
M  V30 5769 H 586.953 0.349871 6.54566 0
M  V30 5770 H 586.473 -1.22452 5.87167 0
M  V30 5771 H 588.152 -0.951508 6.39965 0
M  V30 5772 N 588.284 -1.56567 -0.180126 0
M  V30 5773 C 589.231 -1.95725 -1.22313 0
M  V30 5774 C 590.201 -0.819911 -1.44453 0
M  V30 5775 O 591.386 -1.07931 -1.57339 0
M  V30 5776 C 588.526 -2.31484 -2.55947 0
M  V30 5777 C 587.639 -3.58354 -2.4126 0
M  V30 5778 C 586.774 -3.83366 -3.67701 0
M  V30 5779 C 585.813 -5.03612 -3.47909 0
M  V30 5780 N 584.95 -5.24802 -4.66398 0
M  V30 5781 H 589.79 -2.84642 -0.882198 0
M  V30 5782 H 587.327 -1.4085 -0.42422 0
M  V30 5783 H 589.285 -2.50237 -3.33822 0
M  V30 5784 H 587.915 -1.45689 -2.88053 0
M  V30 5785 H 586.967 -3.47565 -1.54606 0
M  V30 5786 H 588.279 -4.46386 -2.22577 0
M  V30 5787 H 587.433 -4.02439 -4.54013 0
M  V30 5788 H 586.172 -2.93692 -3.89353 0
M  V30 5789 H 585.177 -4.84447 -2.59983 0
M  V30 5790 H 586.402 -5.94809 -3.27688 0
M  V30 5791 H 584.348 -4.38079 -4.88286 0
M  V30 5792 H 584.265 -6.07041 -4.50596 0
M  V30 5793 H 585.533 -5.48346 -5.54019 0
M  V30 5794 N 589.762 0.448376 -1.51087 0
M  V30 5795 C 591.173 1.0286 -1.5581 0
M  V30 5796 C 591.524 1.92583 -0.374989 0
M  V30 5797 O 590.649 2.10316 0.509533 0
M  V30 5798 C 591.244 1.87223 -2.8237 0
M  V30 5799 C 589.803 2.40314 -2.897 0
M  V30 5800 C 588.95 1.19238 -2.50355 0
M  V30 5801 H 591.901 0.230075 -1.57023 0
M  V30 5802 H 591.922 2.72553 -2.6551 0
M  V30 5803 H 591.434 1.21894 -3.68461 0
M  V30 5804 H 589.535 3.09129 -2.08014 0
M  V30 5805 H 589.648 2.73866 -3.93108 0
M  V30 5806 H 588.012 1.53428 -2.03303 0
M  V30 5807 H 588.795 0.555367 -3.38778 0
M  V30 5808 N 591.24 1.41047 0.703093 0
M  V30 5809 C 592.15 1.44645 1.84703 0
M  V30 5810 C 593.166 0.337778 1.7069 0
M  V30 5811 O 594.342 0.584327 1.92737 0
M  V30 5812 C 591.407 1.31928 3.20618 0
M  V30 5813 C 590.468 2.53047 3.46794 0
M  V30 5814 C 589.701 2.40927 4.76224 0
M  V30 5815 O 589.924 1.42978 5.5219 0
M  V30 5816 O 588.858 3.30543 5.03016 0
M  V30 5817 H 592.684 2.41139 1.84624 0
M  V30 5818 H 590.269 1.22504 0.855167 0
M  V30 5819 H 592.151 1.27092 4.01778 0
M  V30 5820 H 590.826 0.385469 3.21397 0
M  V30 5821 H 589.733 2.6346 2.65593 0
M  V30 5822 H 591.066 3.45231 3.50822 0
M  V30 5823 N 592.718 -0.936591 1.26751 0
M  V30 5824 C 594.129 -1.49816 1.1141 0
M  V30 5825 C 594.48 -1.9383 -0.304015 0
M  V30 5826 O 593.605 -1.80346 -1.196 0
M  V30 5827 C 594.2 -2.72271 2.01629 0
M  V30 5828 C 592.759 -3.2468 1.9042 0
M  V30 5829 C 591.906 -1.97444 1.94708 0
M  V30 5830 H 594.857 -0.751604 1.39773 0
M  V30 5831 H 594.878 -3.46741 1.56688 0
M  V30 5832 H 594.39 -2.40205 3.04833 0
M  V30 5833 H 592.491 -3.61525 0.901674 0
M  V30 5834 H 592.604 -3.91476 2.76195 0
M  V30 5835 H 590.968 -2.13545 1.38818 0
M  V30 5836 H 591.751 -1.67703 2.9955 0
M  V30 5837 N 594.196 -1.08629 -1.14182 0
M  V30 5838 C 595.473 -0.73002 -1.81466 0
M  V30 5839 C 595.853 0.785996 -1.95922 0
M  V30 5840 O 595.201 1.70535 -1.52086 0
M  V30 5841 C 595.411 -1.45957 -3.17014 0
M  V30 5842 C 596.759 -1.62008 -3.92477 0
M  V30 5843 O 597.783 -1.42141 -3.26611 0
M  V30 5844 O 596.642 -1.94806 -5.106 0
M  V30 5845 H 593.736 -0.261307 -0.784632 0
M  V30 5846 H 596.282 -1.188 -1.2118 0
M  V30 5847 H 595.054 -2.49221 -3.01669 0
M  V30 5848 H 594.677 -0.993222 -3.84995 0
M  V30 5849 N 595.674 1.31259 -0.872281 0
M  V30 5850 C 596.922 1.96233 -0.483409 0
M  V30 5851 C 597.243 1.69276 0.968012 0
M  V30 5852 O 596.513 1.00943 1.67891 0
M  V30 5853 H 595.093 0.726025 -0.175774 0
M  V30 5854 H 597.755 1.60024 -1.11258 0
M  V30 5855 H 596.851 3.05403 -0.643075 0
M  V30 5856 N 597.152 0.631951 1.44375 0
M  V30 5857 C 598.115 -0.0628142 2.29114 0
M  V30 5858 C 599.115 -0.771494 1.41084 0
M  V30 5859 O 600.305 -0.615959 1.62947 0
M  V30 5860 C 597.437 -1.09953 3.22681 0
M  V30 5861 H 598.63 0.682509 2.92031 0
M  V30 5862 H 596.183 0.392128 1.51301 0
M  V30 5863 H 596.918 -1.87481 2.64616 0
M  V30 5864 H 596.703 -0.595286 3.87555 0
M  V30 5865 H 598.193 -1.58538 3.86336 0
M  V30 5866 N 598.631 -1.53133 0.372548 0
M  V30 5867 C 599.878 -2.01356 -0.214959 0
M  V30 5868 C 600.206 -1.2596 -1.48204 0
M  V30 5869 O 599.461 -0.343511 -1.92662 0
M  V30 5870 C 599.76 -3.53206 -0.545938 0
M  V30 5871 C 599.426 -4.46511 0.627624 0
M  V30 5872 C 598.088 -4.71737 0.949615 0
M  V30 5873 C 600.44 -5.01666 1.41353 0
M  V30 5874 C 597.768 -5.4937 2.05936 0
M  V30 5875 C 600.12 -5.80511 2.51375 0
M  V30 5876 C 598.784 -6.04022 2.84101 0
M  V30 5877 H 598.054 -0.736813 -0.078659 0
M  V30 5878 H 600.701 -1.84682 0.506447 0
M  V30 5879 H 599.006 -3.67864 -1.34845 0
M  V30 5880 H 600.703 -3.87997 -1.01287 0
M  V30 5881 H 597.293 -4.27029 0.366635 0
M  V30 5882 H 601.477 -4.82117 1.17802 0
M  V30 5883 H 596.733 -5.65803 2.31682 0
M  V30 5884 H 600.907 -6.22255 3.12684 0
M  V30 5885 H 598.534 -6.63962 3.70214 0
M  V30 5886 N 600.109 -0.101901 -1.5727 0
M  V30 5887 C 601.334 0.571759 -1.99363 0
M  V30 5888 C 601.759 1.60507 -0.980768 0
M  V30 5889 O 601.117 1.81231 0.0498517 0
M  V30 5890 C 601.165 1.18996 -3.404 0
M  V30 5891 O 600.269 2.30572 -3.41922 0
M  V30 5892 H 599.61 0.144449 -0.648098 0
M  V30 5893 H 602.14 -0.185325 -2.03759 0
M  V30 5894 H 602.15 1.52962 -3.78241 0
M  V30 5895 H 600.825 0.432984 -4.1364 0
M  V30 5896 H 599.402 1.98173 -3.15883 0
M  V30 5897 N 601.587 1.56661 0.17182 0
M  V30 5898 C 602.812 1.86459 0.908165 0
M  V30 5899 C 603.237 0.688181 1.75059 0
M  V30 5900 O 602.595 -0.362753 1.77634 0
M  V30 5901 C 602.643 3.14669 1.76112 0
M  V30 5902 O 601.747 2.96858 2.86268 0
M  V30 5903 H 601.088 0.613318 0.254434 0
M  V30 5904 H 603.618 2.03892 0.170113 0
M  V30 5905 H 603.628 3.46061 2.16115 0
M  V30 5906 H 602.303 3.99905 1.14233 0
M  V30 5907 H 600.88 2.76819 2.49852 0
M  V30 5908 N 603.065 -0.440357 1.51323 0
M  V30 5909 C 604.29 -1.21716 1.67928 0
M  V30 5910 C 604.715 -1.84328 0.374826 0
M  V30 5911 O 604.073 -1.68675 -0.664706 0
M  V30 5912 C 604.121 -2.27914 2.79442 0
M  V30 5913 O 603.225 -3.33325 2.42834 0
M  V30 5914 H 602.566 -0.35674 0.560029 0
M  V30 5915 H 605.096 -0.520417 1.97871 0
M  V30 5916 H 605.106 -2.72746 3.03436 0
M  V30 5917 H 603.781 -1.8172 3.741 0
M  V30 5918 H 602.358 -2.9399 2.294 0
M  V30 5919 N 604.543 -1.41418 -0.695603 0
M  V30 5920 C 605.783 -1.42241 -1.46788 0
M  V30 5921 C 606.147 -0.0300827 -1.91976 0
M  V30 5922 O 607.348 0.0868914 -2.6866 0
M  V30 5923 C 605.619 -2.4011 -2.6473 0
M  V30 5924 S 607.178 -2.59462 -3.53871 0
M  V30 5925 H 603.996 -0.503893 -0.50161 0
M  V30 5926 H 606.598 -1.77855 -0.811654 0
M  V30 5927 H 605.302 -3.40073 -2.29736 0
M  V30 5928 H 604.833 -2.05849 -3.35246 0
M  V30 5929 H 606.848 -1.862 -4.59939 0
M  V30 5930 N 606.021 0.929856 -1.27246 0
M  V30 5931 C 606.951 2.04722 -1.12299 0
M  V30 5932 C 607.932 1.70082 -0.0250464 0
M  V30 5933 O 609.117 1.93176 -0.199141 0
M  V30 5934 C 606.247 3.38721 -0.767145 0
M  V30 5935 C 605.201 3.87466 -1.81808 0
M  V30 5936 C 604.527 5.18246 -1.31626 0
M  V30 5937 C 605.827 4.11095 -3.22177 0
M  V30 5938 H 607.521 2.17485 -2.05769 0
M  V30 5939 H 605.067 1.04503 -0.990715 0
M  V30 5940 H 607.02 4.16366 -0.649413 0
M  V30 5941 H 605.744 3.25967 0.203259 0
M  V30 5942 H 604.403 3.12012 -1.92468 0
M  V30 5943 H 604.051 5.01881 -0.335378 0
M  V30 5944 H 603.751 5.51829 -2.01887 0
M  V30 5945 H 605.275 5.98462 -1.21143 0
M  V30 5946 H 606.689 4.79316 -3.1453 0
M  V30 5947 H 605.086 4.55982 -3.90129 0
M  V30 5948 H 606.156 3.16468 -3.67391 0
M  V30 5949 N 607.499 1.09233 1.13605 0
M  V30 5950 C 608.747 0.825525 1.84471 0
M  V30 5951 C 609.068 -0.650702 1.83823 0
M  V30 5952 O 608.338 -1.47204 1.29259 0
M  V30 5953 H 606.918 0.3024 0.683054 0
M  V30 5954 H 609.58 1.38006 1.37624 0
M  V30 5955 H 608.676 1.17727 2.89045 0
M  V30 5956 N 608.977 -1.30795 0.87923 0
M  V30 5957 C 610.225 -1.95974 0.493809 0
M  V30 5958 C 610.546 -1.69787 -0.959021 0
M  V30 5959 O 609.816 -1.01832 -1.67353 0
M  V30 5960 H 608.396 -0.725083 0.179622 0
M  V30 5961 H 611.058 -1.59432 1.12105 0
M  V30 5962 H 610.154 -3.05058 0.659263 0
M  V30 5963 N 610.455 -0.639598 -1.44038 0
M  V30 5964 C 611.403 0.0723409 -2.32487 0
M  V30 5965 C 612.397 0.827129 -1.47834 0
M  V30 5966 O 613.603 0.73907 -1.64127 0
M  V30 5967 H 609.978 0.0421696 -0.750817 0
M  V30 5968 H 611.949 -0.691593 -2.90275 0
M  V30 5969 C 610.698 1.03452 -3.31953 0
M  V30 5970 H 610.021 0.46315 -3.97108 0
M  V30 5971 H 611.461 1.502 -3.96505 0
M  V30 5972 C 609.92 2.12392 -2.61518 0
M  V30 5973 O 610.45 3.2059 -2.42044 0
M  V30 5974 N 608.656 1.88563 -2.21116 0
M  V30 5975 H 608.203 1.00577 -2.37154 0
M  V30 5976 H 608.161 2.61651 -1.74316 0
M  V30 5977 N 611.933 1.52934 -0.380664 0
M  V30 5978 C 613.158 2.06363 0.207157 0
M  V30 5979 C 613.583 1.25122 1.4045 0
M  V30 5980 O 612.941 0.274062 1.79217 0
M  V30 5981 C 612.989 3.56162 0.563996 0
M  V30 5982 O 612.093 3.77552 1.65917 0
M  V30 5983 H 611.434 0.663468 0.0265859 0
M  V30 5984 H 613.964 1.9719 -0.545635 0
M  V30 5985 H 613.974 3.99453 0.830752 0
M  V30 5986 H 612.649 4.14732 -0.311427 0
M  V30 5987 H 611.226 3.46154 1.3868 0
M  V30 5988 N 613.412 0.11024 1.57214 0
M  V30 5989 C 614.359 -0.843195 2.14846 0
M  V30 5990 C 615.329 -1.26954 1.07107 0
M  V30 5991 O 616.514 -1.34861 1.34971 0
M  V30 5992 C 613.654 -2.09123 2.74521 0
M  V30 5993 C 612.767 -1.71404 3.96541 0
M  V30 5994 C 611.902 -2.91107 4.44331 0
M  V30 5995 C 610.941 -2.49586 5.58903 0
M  V30 5996 N 610.078 -3.62175 6.01477 0
M  V30 5997 H 614.918 -0.344886 2.95998 0
M  V30 5998 H 612.455 -0.15855 1.46243 0
M  V30 5999 H 614.413 -2.82234 3.07246 0
M  V30 6000 H 613.043 -2.56427 1.96074 0
M  V30 6001 H 612.095 -0.88201 3.70033 0
M  V30 6002 H 613.407 -1.36884 4.7965 0
M  V30 6003 H 612.561 -3.72454 4.78919 0
M  V30 6004 H 611.3 -3.28848 3.60153 0
M  V30 6005 H 610.305 -1.6667 5.23929 0
M  V30 6006 H 611.53 -2.12973 6.4484 0
M  V30 6007 H 609.476 -3.99605 5.20242 0
M  V30 6008 H 609.393 -3.3155 6.79419 0
M  V30 6009 H 610.661 -4.43987 6.407 0
M  V30 6010 N 614.89 -1.56749 -0.16351 0
M  V30 6011 C 616.139 -1.81626 -0.877211 0
M  V30 6012 C 616.452 -0.688791 -1.83071 0
M  V30 6013 O 617.658 -0.822697 -2.58735 0
M  V30 6014 C 616.114 -3.21858 -1.61045 0
M  V30 6015 C 615.722 -4.42494 -0.700195 0
M  V30 6016 C 617.466 -3.56021 -2.31192 0
M  V30 6017 C 615.373 -5.73748 -1.43412 0
M  V30 6018 H 614.303 -0.67731 -0.331312 0
M  V30 6019 H 616.954 -1.83039 -0.13006 0
M  V30 6020 H 615.336 -3.14784 -2.40264 0
M  V30 6021 H 616.51 -4.60766 0.0555849 0
M  V30 6022 H 614.825 -4.1626 -0.10799 0
M  V30 6023 H 617.422 -4.51333 -2.8671 0
M  V30 6024 H 617.765 -2.81277 -3.06902 0
M  V30 6025 H 618.298 -3.64682 -1.58909 0
M  V30 6026 H 615.037 -6.51543 -0.719186 0
M  V30 6027 H 614.557 -5.5944 -2.16302 0
M  V30 6028 H 616.236 -6.15975 -1.9795 0
M  V30 6029 N 616.368 0.432326 -1.51554 0
M  V30 6030 C 617.316 1.54572 -1.73811 0
M  V30 6031 C 618.31 1.58246 -0.604539 0
M  V30 6032 O 619.516 1.6193 -0.786041 0
M  V30 6033 H 615.891 0.513626 -0.549265 0
M  V30 6034 H 617.862 1.32977 -2.67132 0
M  V30 6035 C 616.611 2.92181 -1.88483 0
M  V30 6036 H 615.934 2.90088 -2.75116 0
M  V30 6037 H 617.374 3.69439 -2.08065 0
M  V30 6038 C 615.833 3.3065 -0.645909 0
M  V30 6039 O 616.363 4.01216 0.197093 0
M  V30 6040 N 614.569 2.86464 -0.488538 0
M  V30 6041 H 614.116 2.29209 -1.17562 0
M  V30 6042 H 614.074 3.12565 0.339156 0
M  V30 6043 N 617.846 1.41785 0.688094 0
M  V30 6044 C 619.071 1.45117 1.48175 0
M  V30 6045 C 619.496 0.060129 1.88004 0
M  V30 6046 O 618.854 -0.938385 1.55126 0
M  V30 6047 C 618.902 2.37224 2.71583 0
M  V30 6048 O 618.006 1.83443 3.69354 0
M  V30 6049 H 617.347 0.492208 0.445676 0
M  V30 6050 H 619.877 1.86329 0.845145 0
M  V30 6051 H 619.887 2.53353 3.19806 0
M  V30 6052 H 618.562 3.38293 2.41931 0
M  V30 6053 H 617.139 1.76802 3.28322 0
M  V30 6054 N 619.324 -0.923095 1.27737 0
M  V30 6055 C 620.601 -1.64989 1.05062 0
M  V30 6056 C 620.981 -2.07018 -0.413124 0
M  V30 6057 O 620.329 -1.80797 -1.39731 0
M  V30 6058 C 620.539 -2.84847 2.01652 0
M  V30 6059 C 621.887 -3.56083 2.31279 0
M  V30 6060 O 622.911 -2.94981 1.99662 0
M  V30 6061 O 621.77 -4.66182 2.85196 0
M  V30 6062 H 618.864 -0.723357 0.400853 0
M  V30 6063 H 621.41 -0.973224 1.3902 0
M  V30 6064 H 620.182 -2.50814 3.00347 0
M  V30 6065 H 619.805 -3.60231 1.68284 0
M  V30 6066 N 620.802 -1.09834 -1.13024 0
M  V30 6067 C 622.027 -0.85909 -1.88771 0
M  V30 6068 C 622.452 0.584402 -1.78791 0
M  V30 6069 O 621.81 1.41101 -1.13842 0
M  V30 6070 C 621.858 -1.30427 -3.36186 0
M  V30 6071 O 620.962 -0.465368 -4.09766 0
M  V30 6072 H 620.303 -0.310786 -0.586778 0
M  V30 6073 H 622.833 -1.46355 -1.42973 0
M  V30 6074 H 622.843 -1.2915 -3.8702 0
M  V30 6075 H 621.518 -2.3555 -3.42767 0
M  V30 6076 H 620.095 -0.542814 -3.68928 0
M  V30 6077 N 622.28 1.30327 -0.886154 0
M  V30 6078 C 623.505 2.0079 -0.519425 0
M  V30 6079 C 623.93 1.65979 0.885013 0
M  V30 6080 O 623.288 0.877043 1.58675 0
M  V30 6081 C 623.336 3.53686 -0.702758 0
M  V30 6082 O 622.44 4.11637 0.250828 0
M  V30 6083 H 621.781 0.63171 -0.204544 0
M  V30 6084 H 624.311 1.66145 -1.19402 0
M  V30 6085 H 624.321 4.03531 -0.602207 0
M  V30 6086 H 622.996 3.78361 -1.72673 0
M  V30 6087 H 621.573 3.72755 0.103873 0
M  V30 6088 N 623.758 0.647228 1.43697 0
M  V30 6089 C 625.005 0.158188 2.01881 0
M  V30 6090 C 625.333 -1.22573 1.51017 0
M  V30 6091 O 624.588 -1.83086 0.69122 0
M  V30 6092 C 624.887 0.111481 3.57226 0
M  V30 6093 C 624.553 1.43633 4.27411 0
M  V30 6094 C 623.215 1.79915 4.463 0
M  V30 6095 C 625.567 2.31011 4.67208 0
M  V30 6096 C 622.895 3.03251 5.02251 0
M  V30 6097 C 625.247 3.53633 5.24525 0
M  V30 6098 C 623.911 3.90118 5.41631 0
M  V30 6099 H 623.181 0.0578851 0.738736 0
M  V30 6100 H 625.828 0.836746 1.72252 0
M  V30 6101 H 624.133 -0.650507 3.86362 0
M  V30 6102 H 625.83 -0.283682 3.99995 0
M  V30 6103 H 622.42 1.14403 4.1305 0
M  V30 6104 H 626.604 2.04272 4.52313 0
M  V30 6105 H 621.86 3.31575 5.13681 0
M  V30 6106 H 626.034 4.21561 5.5431 0
M  V30 6107 H 623.661 4.85768 5.84751 0
M  V30 6108 N 625.236 -1.5273 0.388769 0
M  V30 6109 C 626.461 -2.0647 -0.19621 0
M  V30 6110 C 626.886 -1.25865 -1.39784 0
M  V30 6111 O 626.244 -0.283562 -1.79069 0
M  V30 6112 C 626.292 -3.56456 -0.5451 0
M  V30 6113 O 625.396 -3.78426 -1.63912 0
M  V30 6114 H 624.737 -0.663599 -0.023067 0
M  V30 6115 H 627.267 -1.96898 0.556084 0
M  V30 6116 H 627.277 -3.99888 -0.809557 0
M  V30 6117 H 625.952 -4.14561 0.333417 0
M  V30 6118 H 624.529 -3.46884 -1.36842 0
M  V30 6119 N 626.714 -0.118576 -1.57153 0
M  V30 6120 C 627.96 0.540326 -1.95469 0
M  V30 6121 C 628.293 1.66356 -1.00196 0
M  V30 6122 O 627.568 1.94461 -0.039104 0
M  V30 6123 C 627.851 1.07342 -3.43729 0
M  V30 6124 C 627.704 -0.0463732 -4.49776 0
M  V30 6125 C 629.023 1.96442 -3.93826 0
M  V30 6126 H 626.142 0.19494 -0.710751 0
M  V30 6127 H 628.784 -0.19405 -1.89006 0
M  V30 6128 H 626.934 1.69925 -3.49368 0
M  V30 6129 H 628.606 -0.681648 -4.56236 0
M  V30 6130 H 626.849 -0.709574 -4.27957 0
M  V30 6131 H 627.52 0.367856 -5.50773 0
M  V30 6132 H 629.996 1.43731 -3.90488 0
M  V30 6133 H 628.872 2.3066 -4.98084 0
M  V30 6134 H 629.133 2.89077 -3.34495 0
M  V30 6135 N 628.193 1.56834 0.155195 0
M  V30 6136 C 629.604 1.72421 0.716082 0
M  V30 6137 C 629.955 0.731685 1.82046 0
M  V30 6138 O 629.08 -0.103481 2.16152 0
M  V30 6139 C 629.675 3.12629 1.30571 0
M  V30 6140 C 628.234 3.29846 1.81325 0
M  V30 6141 C 627.381 2.68359 0.698494 0
M  V30 6142 H 630.332 1.58544 -0.0703861 0
M  V30 6143 H 630.353 3.12174 2.1755 0
M  V30 6144 H 629.865 3.84844 0.501701 0
M  V30 6145 H 627.966 2.62614 2.64319 0
M  V30 6146 H 628.079 4.37727 1.9476 0
M  V30 6147 H 626.443 2.28604 1.12305 0
M  V30 6148 H 627.226 3.43171 -0.0939366 0
M  V30 6149 N 629.671 -0.424282 1.51781 0
M  V30 6150 C 630.92 -1.16961 1.64326 0
M  V30 6151 C 631.233 -1.92035 0.371749 0
M  V30 6152 O 632.439 -2.68873 0.37676 0
M  V30 6153 C 630.895 -2.12782 2.90262 0
M  V30 6154 C 630.503 -1.43295 4.24465 0
M  V30 6155 C 632.247 -2.87667 3.12166 0
M  V30 6156 C 630.154 -2.37676 5.41538 0
M  V30 6157 H 629.084 -0.440293 0.612093 0
M  V30 6158 H 631.735 -0.435431 1.78259 0
M  V30 6159 H 630.117 -2.8969 2.69992 0
M  V30 6160 H 631.291 -0.718564 4.55163 0
M  V30 6161 H 629.606 -0.805118 4.08542 0
M  V30 6162 H 632.203 -3.58395 3.96808 0
M  V30 6163 H 632.546 -3.49758 2.25776 0
M  V30 6164 H 633.079 -2.17863 3.32837 0
M  V30 6165 H 629.818 -1.80255 6.30229 0
M  V30 6166 H 629.338 -3.07132 5.15199 0
M  V30 6167 H 631.017 -2.98529 5.74012 0
M  V30 6168 N 631.149 -1.42148 -0.680565 0
M  V30 6169 C 632.096 -1.45175 -1.79424 0
M  V30 6170 C 633.066 -0.304352 -1.63288 0
M  V30 6171 O 634.251 -0.507591 -1.83924 0
M  V30 6172 C 631.391 -1.35429 -3.17416 0
M  V30 6173 C 630.504 -2.60158 -3.4488 0
M  V30 6174 C 629.639 -2.42596 -4.72568 0
M  V30 6175 C 628.678 -3.62727 -4.93047 0
M  V30 6176 N 627.815 -3.44143 -6.11973 0
M  V30 6177 H 632.655 -2.40349 -1.76172 0
M  V30 6178 H 630.192 -1.19334 -0.860107 0
M  V30 6179 H 632.15 -1.27777 -3.97151 0
M  V30 6180 H 630.78 -0.438536 -3.19807 0
M  V30 6181 H 629.832 -2.78199 -2.5944 0
M  V30 6182 H 631.144 -3.49473 -3.55908 0
M  V30 6183 H 630.298 -2.32497 -5.60384 0
M  V30 6184 H 629.037 -1.50761 -4.63813 0
M  V30 6185 H 628.042 -3.73264 -4.03676 0
M  V30 6186 H 629.267 -4.55534 -5.03652 0
M  V30 6187 H 627.213 -2.5502 -6.04401 0
M  V30 6188 H 627.13 -4.27041 -6.23836 0
M  V30 6189 H 628.398 -3.37845 -7.02482 0
M  V30 6190 N 632.627 0.916307 -1.28225 0
M  V30 6191 C 633.559 2.02303 -1.07732 0
M  V30 6192 C 634.572 1.62773 -0.0298421 0
M  V30 6193 O 635.761 1.76406 -0.272626 0
M  V30 6194 C 632.861 3.33282 -0.614504 0
M  V30 6195 C 632.034 4.01439 -1.73682 0
M  V30 6196 C 631.093 5.10698 -1.26781 0
M  V30 6197 O 630.119 5.34038 -1.96958 0
M  V30 6198 N 631.321 5.80355 -0.129624 0
M  V30 6199 H 634.086 2.20442 -2.03041 0
M  V30 6200 H 631.647 1.08744 -1.19943 0
M  V30 6201 H 633.639 4.03699 -0.284397 0
M  V30 6202 H 632.209 3.11633 0.245664 0
M  V30 6203 H 631.429 3.24604 -2.23665 0
M  V30 6204 H 632.717 4.43721 -2.48976 0
M  V30 6205 H 632.115 5.6386 0.455847 0
M  V30 6206 H 630.672 6.51647 0.141224 0
M  V30 6207 N 634.105 1.10431 1.1244 0
M  V30 6208 C 635.015 0.765502 2.21759 0
M  V30 6209 C 636.031 -0.236966 1.72379 0
M  V30 6210 O 637.207 -0.0757329 2.01258 0
M  V30 6211 C 634.272 0.202316 3.46109 0
M  V30 6212 C 633.333 1.26205 4.1033 0
M  V30 6213 C 632.566 0.725648 5.28744 0
M  V30 6214 O 632.789 -0.447942 5.68638 0
M  V30 6215 O 631.723 1.48555 5.83279 0
M  V30 6216 H 635.549 1.67801 2.53133 0
M  V30 6217 H 633.134 0.879443 1.20773 0
M  V30 6218 H 635.016 -0.107918 4.21262 0
M  V30 6219 H 633.691 -0.683052 3.16411 0
M  V30 6220 H 632.598 1.62514 3.36957 0
M  V30 6221 H 633.931 2.12044 4.44183 0
M  V30 6222 N 635.583 -1.29855 0.893053 0
M  V30 6223 C 636.808 -2.00512 0.530066 0
M  V30 6224 C 637.233 -1.66446 -0.876199 0
M  V30 6225 O 636.591 -0.885446 -1.58207 0
M  V30 6226 C 636.639 -3.53308 0.721505 0
M  V30 6227 O 635.743 -4.11764 -0.228994 0
M  V30 6228 H 635.084 -0.630617 0.207891 0
M  V30 6229 H 637.614 -1.6551 1.20282 0
M  V30 6230 H 637.624 -4.03206 0.623599 0
M  V30 6231 H 636.299 -3.77439 1.74678 0
M  V30 6232 H 634.876 -3.72805 -0.0841034 0
M  V30 6233 N 637.061 -0.65484 -1.43351 0
M  V30 6234 C 638.289 -0.176685 -2.06144 0
M  V30 6235 C 638.704 1.15831 -1.49093 0
M  V30 6236 O 638.061 1.71542 -0.622868 0
M  V30 6237 C 638.112 -0.0813326 -3.61408 0
M  V30 6238 O 637.833 -1.36355 -4.1634 0
M  V30 6239 C 639.334 0.422706 -4.4128 0
M  V30 6240 H 636.554 -0.0906429 -0.66485 0
M  V30 6241 H 639.098 -0.895945 -1.83829 0
M  V30 6242 H 637.253 0.588496 -3.82904 0
M  V30 6243 H 637.667 -1.22381 -5.10023 0
M  V30 6244 H 639.141 0.438375 -5.50257 0
M  V30 6245 H 639.618 1.45432 -4.14423 0
M  V30 6246 H 640.224 -0.214687 -4.24758 0
M  V30 6247 N 638.539 1.52521 -0.396863 0
M  V30 6248 C 639.486 2.26671 0.434624 0
M  V30 6249 C 640.456 1.28584 1.05144 0
M  V30 6250 O 641.641 1.57426 1.07804 0
M  V30 6251 C 638.781 3.08234 1.55196 0
M  V30 6252 C 637.894 4.21261 0.957262 0
M  V30 6253 C 637.029 4.90205 2.04627 0
M  V30 6254 C 636.068 5.95213 1.42787 0
M  V30 6255 N 635.205 6.57723 2.45651 0
M  V30 6256 H 640.045 2.973 -0.204139 0
M  V30 6257 H 637.582 1.46669 -0.112505 0
M  V30 6258 H 639.54 3.53819 2.2106 0
M  V30 6259 H 638.17 2.398 2.16092 0
M  V30 6260 H 637.222 3.79935 0.188005 0
M  V30 6261 H 638.534 4.96624 0.465416 0
M  V30 6262 H 637.688 5.39133 2.78246 0
M  V30 6263 H 636.427 4.14383 2.57174 0
M  V30 6264 H 635.432 5.45616 0.676968 0
M  V30 6265 H 636.657 6.72972 0.910255 0
M  V30 6266 H 634.603 5.84737 2.97353 0
M  V30 6267 H 634.52 7.28723 2.01243 0
M  V30 6268 H 635.788 7.11293 3.18876 0
M  V30 6269 N 640.017 0.126909 1.57088 0
M  V30 6270 C 640.967 -0.831678 2.1229 0
M  V30 6271 C 641.951 -1.22292 1.04564 0
M  V30 6272 O 643.143 -1.19269 1.30782 0
M  V30 6273 C 640.272 -2.07866 2.73215 0
M  V30 6274 C 639.358 -1.71143 3.88035 0
M  V30 6275 N 639.749 -1.05136 4.94753 0
M  V30 6276 C 638.047 -2.00549 3.98367 0
M  V30 6277 C 638.748 -0.877257 5.75047 0
M  V30 6278 N 637.724 -1.40477 5.25135 0
M  V30 6279 H 641.526 -0.317926 2.92175 0
M  V30 6280 H 639.04 -0.0753052 1.62225 0
M  V30 6281 H 641.037 -2.77516 3.11111 0
M  V30 6282 H 639.697 -2.59778 1.94796 0
M  V30 6283 H 640.708 -0.71442 5.12949 0
M  V30 6284 H 637.385 -2.54452 3.30999 0
M  V30 6285 H 638.775 -0.358536 6.70943 0
M  V30 6286 N 641.495 -1.56914 -0.146875 0
M  V30 6287 C 642.72 -1.87881 -0.878386 0
M  V30 6288 C 643.145 -0.715945 -1.73942 0
M  V30 6289 O 642.503 0.334447 -1.78189 0
M  V30 6290 C 642.551 -3.17431 -1.71084 0
M  V30 6291 O 641.655 -3.01374 -2.81509 0
M  V30 6292 H 640.996 -0.617289 -0.244644 0
M  V30 6293 H 643.526 -2.04136 -0.137654 0
M  V30 6294 H 643.536 -3.49455 -2.10582 0
M  V30 6295 H 642.211 -4.01671 -1.07856 0
M  V30 6296 H 640.788 -2.80758 -2.45416 0
M  V30 6297 N 642.974 0.416227 -1.52004 0
M  V30 6298 C 644.214 1.17307 -1.67387 0
M  V30 6299 C 644.578 1.87959 -0.39183 0
M  V30 6300 O 645.779 2.65472 -0.421671 0
M  V30 6301 C 644.05 2.14661 -2.85754 0
M  V30 6302 S 645.609 2.98549 -3.21581 0
M  V30 6303 H 642.427 0.397505 -0.5895 0
M  V30 6304 H 645.029 0.461431 -1.89976 0
M  V30 6305 H 643.733 1.61431 -3.77317 0
M  V30 6306 H 643.264 2.90375 -2.65417 0
M  V30 6307 H 645.279 4.16536 -2.69652 0
M  V30 6308 N 644.452 1.42507 0.673017 0
M  V30 6309 C 645.677 1.4668 1.46627 0
M  V30 6310 C 646.102 0.080066 1.8793 0
M  V30 6311 O 645.46 -0.921879 1.56112 0
M  V30 6312 C 645.508 2.40091 2.69051 0
M  V30 6313 O 644.612 1.8735 3.67387 0
M  V30 6314 H 643.953 0.496908 0.44043 0
M  V30 6315 H 646.483 1.87215 0.825334 0
M  V30 6316 H 646.493 2.56731 3.17101 0
M  V30 6317 H 645.168 3.4084 2.3833 0
M  V30 6318 H 643.745 1.80274 3.26429 0
M  V30 6319 N 645.93 -0.909495 1.28709 0
M  V30 6320 C 647.178 -1.65577 1.15882 0
M  V30 6321 C 647.499 -1.928 -0.292108 0
M  V30 6322 O 646.769 -1.54716 -1.20166 0
M  V30 6323 H 645.349 -0.613714 0.425869 0
M  V30 6324 H 648.011 -1.09108 1.61498 0
M  V30 6325 H 647.107 -2.61634 1.70159 0
M  V30 6326 N 647.408 -1.11026 -1.11852 0
M  V30 6327 C 648.636 -0.878818 -1.87308 0
M  V30 6328 C 649.051 0.57111 -1.79955 0
M  V30 6329 O 648.408 1.39409 -1.17777 0
M  V30 6330 C 648.459 -1.3264 -3.36287 0
M  V30 6331 O 648.18 -2.71948 -3.43476 0
M  V30 6332 C 649.681 -1.12974 -4.28663 0
M  V30 6333 H 646.901 -0.315015 -0.592458 0
M  V30 6334 H 649.445 -1.47649 -1.41492 0
M  V30 6335 H 647.6 -0.772269 -3.79625 0
M  V30 6336 H 648.014 -2.91241 -4.3621 0
M  V30 6337 H 649.488 -1.49198 -5.31454 0
M  V30 6338 H 649.965 -0.0689127 -4.39146 0
M  V30 6339 H 650.571 -1.67064 -3.91113 0
M  V30 6340 N 648.886 1.2938 -0.899927 0
M  V30 6341 C 650.111 2.00228 -0.540692 0
M  V30 6342 C 650.536 1.66909 0.867359 0
M  V30 6343 O 649.894 0.893824 1.57735 0
M  V30 6344 C 649.942 3.52921 -0.740232 0
M  V30 6345 O 649.046 4.11879 0.207154 0
M  V30 6346 H 648.387 0.629505 -0.211233 0
M  V30 6347 H 650.917 1.6487 -1.21158 0
M  V30 6348 H 650.927 4.0287 -0.644973 0
M  V30 6349 H 649.602 3.76508 -1.76677 0
M  V30 6350 H 648.179 3.72845 0.0643315 0
M  V30 6351 N 650.364 0.662433 1.43002 0
M  V30 6352 C 651.611 0.179591 2.01702 0
M  V30 6353 C 651.939 -1.20964 1.52309 0
M  V30 6354 O 651.194 -1.82343 0.7106 0
M  V30 6355 C 651.493 0.149363 3.57088 0
M  V30 6356 C 651.159 1.48158 4.25864 0
M  V30 6357 C 649.821 1.84638 4.44367 0
M  V30 6358 C 652.173 2.35953 4.64732 0
M  V30 6359 C 649.501 3.08561 4.99006 0
M  V30 6360 C 651.853 3.59176 5.20745 0
M  V30 6361 C 650.517 3.95841 5.37463 0
M  V30 6362 H 649.787 0.0657172 0.73808 0
M  V30 6363 H 652.434 0.854968 1.71355 0
M  V30 6364 H 650.739 -0.609491 3.8703 0
M  V30 6365 H 652.436 -0.241241 4.00274 0
M  V30 6366 H 649.026 1.18777 4.11813 0
M  V30 6367 H 653.21 2.09058 4.50121 0
M  V30 6368 H 648.466 3.37005 5.10135 0
M  V30 6369 H 652.64 4.27417 5.49807 0
M  V30 6370 H 650.267 4.91942 5.79566 0
M  V30 6371 N 651.842 -1.52309 0.404946 0
M  V30 6372 C 652.789 -2.26898 -0.422597 0
M  V30 6373 C 653.759 -1.2914 -1.04461 0
M  V30 6374 O 654.944 -1.57996 -1.06967 0
M  V30 6375 C 652.084 -3.09053 -1.53559 0
M  V30 6376 C 651.197 -4.21762 -0.934908 0
M  V30 6377 C 650.332 -4.91283 -2.02025 0
M  V30 6378 C 649.371 -5.95962 -1.39628 0
M  V30 6379 N 648.508 -6.59017 -2.42159 0
M  V30 6380 H 653.348 -2.97188 0.219903 0
M  V30 6381 H 650.885 -1.46607 0.120282 0
M  V30 6382 H 652.843 -3.54987 -2.19181 0
M  V30 6383 H 651.473 -2.40942 -2.14818 0
M  V30 6384 H 650.525 -3.80029 -0.167854 0
M  V30 6385 H 651.837 -4.96864 -0.439073 0
M  V30 6386 H 650.991 -5.40601 -2.75383 0
M  V30 6387 H 649.73 -4.15741 -2.54973 0
M  V30 6388 H 648.735 -5.45968 -0.648023 0
M  V30 6389 H 649.96 -6.73445 -0.874553 0
M  V30 6390 H 647.906 -5.86306 -2.94247 0
M  V30 6391 H 647.823 -7.2978 -1.97376 0
M  V30 6392 H 649.091 -7.12974 -3.15099 0
M  V30 6393 N 653.32 -0.135238 -1.57019 0
M  V30 6394 C 654.568 0.51777 -1.95355 0
M  V30 6395 C 654.889 1.6617 -1.02042 0
M  V30 6396 O 654.159 1.95738 -0.0797343 0
M  V30 6397 H 652.739 0.194264 -0.721298 0
M  V30 6398 H 655.401 -0.207983 -1.93787 0
M  V30 6399 H 654.497 0.901675 -2.98791 0
M  V30 6400 N 654.798 1.5699 0.138552 0
M  V30 6401 C 655.746 1.99858 1.18994 0
M  V30 6402 C 656.74 0.89231 1.43994 0
M  V30 6403 O 657.946 1.0775 1.44187 0
M  V30 6404 H 654.321 0.636325 0.400743 0
M  V30 6405 H 656.292 2.87427 0.801755 0
M  V30 6406 C 655.041 2.40235 2.51361 0
M  V30 6407 H 654.364 3.24917 2.32957 0
M  V30 6408 H 655.804 2.74045 3.23535 0
M  V30 6409 C 654.263 1.25829 3.1252 0
M  V30 6410 O 654.793 0.563604 3.97727 0
M  V30 6411 N 652.999 1.02036 2.72097 0
M  V30 6412 H 652.546 1.58705 2.02905 0
M  V30 6413 H 652.504 0.256796 3.1335 0
M  V30 6414 N 656.276 -0.40816 1.52223 0
M  V30 6415 C 657.687 -0.986929 1.58482 0
M  V30 6416 C 658.038 -1.91521 0.425917 0
M  V30 6417 O 657.163 -2.11593 -0.453593 0
M  V30 6418 C 657.758 -1.7967 2.87235 0
M  V30 6419 C 656.317 -2.32549 2.9597 0
M  V30 6420 C 655.464 -1.12558 2.53428 0
M  V30 6421 H 658.415 -0.188362 1.57578 0
M  V30 6422 H 658.436 -2.65417 2.72642 0
M  V30 6423 H 657.948 -1.12082 3.71563 0
M  V30 6424 H 656.049 -3.03505 2.16137 0
M  V30 6425 H 656.162 -2.63348 4.00231 0
M  V30 6426 H 654.526 -1.47984 2.07299 0
M  V30 6427 H 655.309 -0.465351 3.40131 0
M  V30 6428 N 657.755 -1.42862 -0.66545 0
M  V30 6429 C 658.983 -1.47246 -1.45349 0
M  V30 6430 C 659.398 -0.0865944 -1.88601 0
M  V30 6431 O 658.755 0.900652 -1.58728 0
M  V30 6432 C 658.806 -2.40772 -2.6965 0
M  V30 6433 O 658.527 -3.73968 -2.2821 0
M  V30 6434 C 660.028 -2.54272 -3.63126 0
M  V30 6435 H 657.248 -0.500497 -0.446927 0
M  V30 6436 H 659.792 -1.87477 -0.816871 0
M  V30 6437 H 657.947 -2.0377 -3.29479 0
M  V30 6438 H 658.361 -4.24146 -3.08546 0
M  V30 6439 H 659.835 -3.23815 -4.47043 0
M  V30 6440 H 660.312 -1.58364 -4.09656 0
M  V30 6441 H 660.918 -2.92036 -3.09185 0
M  V30 6442 N 659.233 0.902656 -1.29189 0
M  V30 6443 C 660.479 1.65532 -1.17163 0
M  V30 6444 C 660.812 1.92216 0.276879 0
M  V30 6445 O 660.087 1.53048 1.20027 0
M  V30 6446 C 660.37 3.00629 -1.98228 0
M  V30 6447 C 660.223 2.81029 -3.51202 0
M  V30 6448 C 661.542 4.01321 -1.80635 0
M  V30 6449 H 658.661 0.60071 -0.426985 0
M  V30 6450 H 661.303 1.04578 -1.5863 0
M  V30 6451 H 659.453 3.52656 -1.62991 0
M  V30 6452 H 661.125 2.35927 -3.96404 0
M  V30 6453 H 659.368 2.1587 -3.76275 0
M  V30 6454 H 660.039 3.77014 -4.03192 0
M  V30 6455 H 662.515 3.58394 -2.11406 0
M  V30 6456 H 661.391 4.93792 -2.3971 0
M  V30 6457 H 661.652 4.35505 -0.760754 0
M  V30 6458 N 660.711 1.11618 1.11262 0
M  V30 6459 C 661.659 0.771291 2.1944 0
M  V30 6460 C 662.653 -0.238073 1.67719 0
M  V30 6461 O 663.859 -0.0971628 1.79738 0
M  V30 6462 H 660.234 0.231548 0.715465 0
M  V30 6463 H 662.205 1.69226 2.45775 0
M  V30 6464 C 660.954 0.232765 3.4692 0
M  V30 6465 H 660.277 1.00072 3.87073 0
M  V30 6466 H 661.717 0.0296561 4.2399 0
M  V30 6467 C 660.176 -1.03738 3.20531 0
M  V30 6468 O 660.706 -2.11675 3.41404 0
M  V30 6469 N 658.912 -0.960906 2.74253 0
M  V30 6470 H 658.459 -0.0824323 2.57468 0
M  V30 6471 H 658.417 -1.8114 2.56974 0
M  V30 6472 N 662.189 -1.289 0.906776 0
M  V30 6473 C 663.6 -1.77336 0.58384 0
M  V30 6474 C 663.951 -1.74304 -0.900697 0
M  V30 6475 O 663.076 -1.33335 -1.70443 0
M  V30 6476 C 663.671 -3.22019 1.05304 0
M  V30 6477 C 662.23 -3.68205 0.781148 0
M  V30 6478 C 661.377 -2.48837 1.22373 0
M  V30 6479 H 664.328 -1.15462 1.08877 0
M  V30 6480 H 664.349 -3.78481 0.391414 0
M  V30 6481 H 663.861 -3.24194 2.13353 0
M  V30 6482 H 661.962 -3.71497 -0.28643 0
M  V30 6483 H 662.075 -4.58675 1.384 0
M  V30 6484 H 660.439 -2.46461 0.642594 0
M  V30 6485 H 661.222 -2.53736 2.31242 0
M  V30 6486 N 663.667 -0.670007 -1.42649 0
M  V30 6487 C 664.914 -0.190286 -2.01604 0
M  V30 6488 C 665.242 1.20155 -1.52948 0
M  V30 6489 O 664.497 1.81964 -0.72026 0
M  V30 6490 C 664.796 -0.168298 -3.57004 0
M  V30 6491 C 664.462 -1.50415 -4.25072 0
M  V30 6492 C 663.124 -1.86992 -4.43382 0
M  V30 6493 C 665.476 -2.38414 -4.63474 0
M  V30 6494 C 662.804 -3.11203 -4.97363 0
M  V30 6495 C 665.156 -3.61933 -5.18833 0
M  V30 6496 C 663.82 -3.98685 -5.35356 0
M  V30 6497 H 663.09 -0.0696305 -0.737721 0
M  V30 6498 H 665.737 -0.864044 -1.70899 0
M  V30 6499 H 664.042 0.588958 -3.87348 0
M  V30 6500 H 665.739 0.22001 -4.00396 0
M  V30 6501 H 662.329 -1.20959 -4.11177 0
M  V30 6502 H 666.513 -2.11442 -4.49006 0
M  V30 6503 H 661.769 -3.39705 -5.08341 0
M  V30 6504 H 665.943 -4.30326 -5.47533 0
M  V30 6505 H 663.57 -4.95009 -5.76949 0
M  V30 6506 N 665.145 1.52092 -0.413018 0
M  V30 6507 C 666.556 1.86617 0.0556967 0
M  V30 6508 C 666.907 1.33156 1.44097 0
M  V30 6509 O 666.032 0.672417 2.05688 0
M  V30 6510 C 666.627 3.38628 0.107844 0
M  V30 6511 C 665.186 3.72778 0.520904 0
M  V30 6512 C 664.333 2.75649 -0.302109 0
M  V30 6513 H 667.284 1.45663 -0.629919 0
M  V30 6514 H 667.305 3.69152 0.922324 0
M  V30 6515 H 666.817 3.77508 -0.900506 0
M  V30 6516 H 664.918 3.39478 1.53575 0
M  V30 6517 H 665.031 4.7838 0.262591 0
M  V30 6518 H 663.395 2.53603 0.236115 0
M  V30 6519 H 664.178 3.17369 -1.30888 0
M  V30 6520 N 666.623 0.143563 1.56945 0
M  V30 6521 C 667.87 -0.508407 1.96014 0
M  V30 6522 C 668.198 -1.65099 1.02824 0
M  V30 6523 O 667.453 -1.95618 0.0567764 0
M  V30 6524 C 667.752 -1.05885 3.41355 0
M  V30 6525 C 667.418 -0.0350809 4.50886 0
M  V30 6526 C 666.08 0.246362 4.80569 0
M  V30 6527 C 668.432 0.661282 5.16988 0
M  V30 6528 C 665.76 1.23003 5.73661 0
M  V30 6529 C 668.112 1.63375 6.11139 0
M  V30 6530 C 666.776 1.92292 6.39203 0
M  V30 6531 H 666.046 -0.186039 0.717266 0
M  V30 6532 H 668.693 0.229667 1.90118 0
M  V30 6533 H 666.998 -1.87419 3.44066 0
M  V30 6534 H 668.695 -1.57183 3.6891 0
M  V30 6535 H 665.285 -0.264622 4.27782 0
M  V30 6536 H 669.469 0.457038 4.94191 0
M  V30 6537 H 664.725 1.46056 5.93698 0
M  V30 6538 H 668.899 2.17887 6.61436 0
M  V30 6539 H 666.526 2.68666 7.11142 0
M  V30 6540 N 668.101 -1.57061 -0.130224 0
M  V30 6541 C 669.034 -1.94698 -1.19029 0
M  V30 6542 C 670.012 -0.815074 -1.40696 0
M  V30 6543 O 671.196 -1.07223 -1.55034 0
M  V30 6544 C 668.323 -2.23352 -2.5462 0
M  V30 6545 C 667.369 -3.45945 -2.49448 0
M  V30 6546 S 668.202 -4.98927 -1.94505 0
M  V30 6547 C 669.358 -5.30721 -3.31792 0
M  V30 6548 H 669.591 -2.84308 -0.869272 0
M  V30 6549 H 667.124 -1.50688 -0.336531 0
M  V30 6550 H 669.082 -2.40539 -3.32643 0
M  V30 6551 H 667.743 -1.34376 -2.83905 0
M  V30 6552 H 666.936 -3.63324 -3.49302 0
M  V30 6553 H 666.538 -3.28086 -1.79543 0
M  V30 6554 H 668.83 -5.25215 -4.27966 0
M  V30 6555 H 669.773 -6.32048 -3.19251 0
M  V30 6556 H 670.181 -4.5821 -3.29703 0
M  V30 6557 N 669.579 0.400081 -1.52437 0
M  V30 6558 C 670.856 1.15973 -1.57511 0
M  V30 6559 C 671.236 2.0798 -0.361572 0
M  V30 6560 O 670.584 2.19032 0.650929 0
M  V30 6561 C 670.794 1.92912 -2.90837 0
M  V30 6562 C 672.142 2.48662 -3.44169 0
M  V30 6563 O 673.166 2.03081 -2.92637 0
M  V30 6564 O 672.025 3.31894 -4.34176 0
M  V30 6565 H 669.119 0.530023 -0.634827 0
M  V30 6566 H 671.665 0.40613 -1.64769 0
M  V30 6567 H 670.437 1.25564 -3.70607 0
M  V30 6568 H 670.06 2.75257 -2.86913 0
M  V30 6569 N 671.057 1.43213 0.657864 0
M  V30 6570 C 672.305 1.44298 1.41501 0
M  V30 6571 C 672.626 0.0666478 1.94886 0
M  V30 6572 O 671.896 -0.897345 1.74139 0
M  V30 6573 H 670.476 0.531257 0.525143 0
M  V30 6574 H 673.138 1.78777 0.776195 0
M  V30 6575 H 672.234 2.1528 2.25966 0
M  V30 6576 N 672.536 -0.895792 1.29666 0
M  V30 6577 C 673.761 -1.68528 1.20885 0
M  V30 6578 C 674.186 -1.8673 -0.226595 0
M  V30 6579 O 673.544 -1.39044 -1.16347 0
M  V30 6580 C 673.592 -3.04512 1.93144 0
M  V30 6581 O 672.696 -3.92963 1.25115 0
M  V30 6582 H 672.037 -0.515371 0.418675 0
M  V30 6583 H 674.567 -1.11878 1.71302 0
M  V30 6584 H 674.577 -3.54628 2.0175 0
M  V30 6585 H 673.252 -2.90582 2.97548 0
M  V30 6586 H 671.829 -3.51399 1.24794 0
M  V30 6587 N 674.014 -1.12206 -1.10668 0
M  V30 6588 C 675.244 -0.897332 -1.86095 0
M  V30 6589 C 675.652 0.556778 -1.80822 0
M  V30 6590 O 674.995 1.39658 -1.19337 0
M  V30 6591 C 675.057 -1.29095 -3.35522 0
M  V30 6592 C 674.721 -2.75586 -3.64556 0
M  V30 6593 C 675.718 -3.73785 -3.6136 0
M  V30 6594 C 673.403 -3.12432 -3.93309 0
M  V30 6595 C 675.397 -5.06845 -3.86506 0
M  V30 6596 C 673.084 -4.45675 -4.18111 0
M  V30 6597 C 674.082 -5.42691 -4.147 0
M  V30 6598 O 673.77 -6.73532 -4.38873 0
M  V30 6599 H 673.502 -0.320704 -0.595084 0
M  V30 6600 H 676.056 -1.49517 -1.40833 0
M  V30 6601 H 674.286 -0.636299 -3.81429 0
M  V30 6602 H 675.975 -1.04073 -3.92331 0
M  V30 6603 H 676.741 -3.46664 -3.39189 0
M  V30 6604 H 672.62 -2.3753 -3.95096 0
M  V30 6605 H 676.164 -5.82559 -3.83758 0
M  V30 6606 H 672.061 -4.72526 -4.39761 0
M  V30 6607 H 672.829 -6.79442 -4.564 0
M  V30 6608 N 675.492 1.28418 -0.913599 0
M  V30 6609 C 676.739 1.94981 -0.546674 0
M  V30 6610 C 677.067 1.7192 0.909606 0
M  V30 6611 O 676.322 1.03314 1.66207 0
M  V30 6612 C 676.621 3.48283 -0.802099 0
M  V30 6613 C 676.287 3.91444 -2.2379 0
M  V30 6614 C 674.949 4.02939 -2.63046 0
M  V30 6615 C 677.301 4.13542 -3.17227 0
M  V30 6616 C 674.629 4.3391 -3.94891 0
M  V30 6617 C 676.981 4.45992 -4.48636 0
M  V30 6618 C 675.645 4.55698 -4.87746 0
M  V30 6619 H 674.915 0.713487 -0.200042 0
M  V30 6620 H 677.562 1.52756 -1.15489 0
M  V30 6621 H 675.867 3.91643 -0.111076 0
M  V30 6622 H 677.564 3.97903 -0.497375 0
M  V30 6623 H 674.154 3.83024 -1.9233 0
M  V30 6624 H 678.338 4.04114 -2.88107 0
M  V30 6625 H 673.594 4.39631 -4.24894 0
M  V30 6626 H 677.768 4.62038 -5.21051 0
M  V30 6627 H 675.395 4.79451 -5.89942 0
M  V30 6628 N 676.97 0.677563 1.42291 0
M  V30 6629 C 678.195 0.207901 2.06355 0
M  V30 6630 C 678.62 -1.12723 1.50583 0
M  V30 6631 O 677.978 -1.70171 0.62543 0
M  V30 6632 C 678.026 0.156489 3.6026 0
M  V30 6633 O 677.13 -0.874162 4.03029 0
M  V30 6634 H 676.471 0.106056 0.655475 0
M  V30 6635 H 679.001 0.927354 1.82377 0
M  V30 6636 H 679.011 -0.0187258 4.07996 0
M  V30 6637 H 677.686 1.13101 4.00226 0
M  V30 6638 H 676.263 -0.669764 3.66836 0
M  V30 6639 N 678.448 -1.51871 0.421078 0
M  V30 6640 C 679.695 -2.01938 -0.15079 0
M  V30 6641 C 680.023 -1.30611 -1.44121 0
M  V30 6642 O 679.278 -0.404631 -1.91471 0
M  V30 6643 C 679.577 -3.54764 -0.433292 0
M  V30 6644 C 679.243 -4.44288 0.76936 0
M  V30 6645 C 677.905 -4.68477 1.09921 0
M  V30 6646 C 680.257 -4.96915 1.57242 0
M  V30 6647 C 677.585 -5.4254 2.2331 0
M  V30 6648 C 679.937 -5.7222 2.69716 0
M  V30 6649 C 678.601 -5.94678 3.03174 0
M  V30 6650 H 677.871 -0.738943 -0.0551781 0
M  V30 6651 H 680.518 -1.82977 0.564945 0
M  V30 6652 H 678.823 -3.71968 -1.23074 0
M  V30 6653 H 680.52 -3.91023 -0.888922 0
M  V30 6654 H 677.11 -4.25646 0.502305 0
M  V30 6655 H 681.294 -4.78125 1.3308 0
M  V30 6656 H 676.55 -5.58146 2.49565 0
M  V30 6657 H 680.724 -6.11992 3.32323 0
M  V30 6658 H 678.351 -6.51848 3.9115 0
M  V30 6659 N 679.926 -0.151884 -1.56866 0
M  V30 6660 C 680.859 0.824094 -2.128 0
M  V30 6661 C 681.837 1.2391 -1.05286 0
M  V30 6662 O 683.021 1.33433 -1.33146 0
M  V30 6663 C 680.148 2.1072 -2.65169 0
M  V30 6664 C 679.194 1.83774 -3.84876 0
M  V30 6665 S 680.027 1.02436 -5.25611 0
M  V30 6666 C 681.183 2.31855 -5.81373 0
M  V30 6667 H 681.416 0.348456 -2.95251 0
M  V30 6668 H 678.949 0.0624794 -1.54274 0
M  V30 6669 H 680.907 2.84428 -2.95992 0
M  V30 6670 H 679.568 2.55398 -1.8284 0
M  V30 6671 H 678.761 2.78929 -4.19779 0
M  V30 6672 H 678.363 1.18172 -3.5484 0
M  V30 6673 H 680.655 3.27469 -5.93102 0
M  V30 6674 H 681.598 2.01449 -6.7884 0
M  V30 6675 H 682.006 2.42727 -5.09651 0
M  V30 6676 N 681.404 1.57128 0.121893 0
M  V30 6677 C 682.681 1.75664 0.860327 0
M  V30 6678 C 683.061 0.726585 1.98202 0
M  V30 6679 O 682.409 -0.24999 2.27128 0
M  V30 6680 C 682.619 3.20571 1.37968 0
M  V30 6681 C 683.967 3.82988 1.83317 0
M  V30 6682 O 684.991 3.24156 1.47654 0
M  V30 6683 O 683.85 4.86393 2.49168 0
M  V30 6684 H 680.944 0.719153 0.408348 0
M  V30 6685 H 683.49 1.6937 0.105859 0
M  V30 6686 H 682.262 3.87056 0.57477 0
M  V30 6687 H 681.885 3.31392 2.19694 0
M  V30 6688 N 682.882 -0.391992 1.52647 0
M  V30 6689 C 684.159 -1.15136 1.58123 0
M  V30 6690 C 684.539 -2.07786 0.372597 0
M  V30 6691 O 683.887 -2.19374 -0.639304 0
M  V30 6692 C 684.097 -1.91367 2.91856 0
M  V30 6693 C 685.445 -2.46833 3.45483 0
M  V30 6694 O 686.469 -2.01527 2.9371 0
M  V30 6695 O 685.328 -3.29587 4.3593 0
M  V30 6696 H 682.422 -0.526649 0.637629 0
M  V30 6697 H 684.968 -0.397386 1.64982 0
M  V30 6698 H 683.74 -1.23597 3.71268 0
M  V30 6699 H 683.363 -2.73732 2.88369 0
M  V30 6700 N 684.36 -1.4356 -0.65026 0
M  V30 6701 C 685.307 -1.48948 -1.76304 0
M  V30 6702 C 686.277 -0.338919 -1.62605 0
M  V30 6703 O 687.462 -0.54649 -1.82806 0
M  V30 6704 C 684.602 -1.42131 -3.14472 0
M  V30 6705 C 683.715 -2.67415 -3.39284 0
M  V30 6706 C 682.85 -2.52565 -4.67316 0
M  V30 6707 C 681.889 -3.73103 -4.85243 0
M  V30 6708 N 681.026 -3.57046 -6.04535 0
M  V30 6709 H 685.866 -2.44032 -1.71034 0
M  V30 6710 H 683.403 -1.21131 -0.834601 0
M  V30 6711 H 685.361 -1.36172 -3.94351 0
M  V30 6712 H 683.991 -0.506273 -3.18805 0
M  V30 6713 H 683.043 -2.8364 -2.53481 0
M  V30 6714 H 684.355 -3.56943 -3.48415 0
M  V30 6715 H 683.509 -2.44331 -5.55326 0
M  V30 6716 H 682.248 -1.60566 -4.60511 0
M  V30 6717 H 681.253 -3.81743 -3.95667 0
M  V30 6718 H 682.478 -4.66115 -4.93876 0
M  V30 6719 H 680.424 -2.67783 -5.98856 0
M  V30 6720 H 680.341 -4.40178 -6.14638 0
M  V30 6721 H 681.609 -3.52669 -6.95158 0
M  V30 6722 N 685.838 0.888903 -1.30139 0
M  V30 6723 C 687.115 1.62145 -1.094 0
M  V30 6724 C 687.495 2.08041 0.358091 0
M  V30 6725 O 686.843 1.84438 1.34888 0
M  V30 6726 C 687.053 2.794 -2.09133 0
M  V30 6727 C 688.401 3.49826 -2.40638 0
M  V30 6728 O 689.425 2.89583 -2.07412 0
M  V30 6729 O 688.284 4.58457 -2.97455 0
M  V30 6730 H 685.378 0.712475 -0.41989 0
M  V30 6731 H 687.924 0.936023 -1.41551 0
M  V30 6732 H 686.696 2.42762 -3.06891 0
M  V30 6733 H 686.319 3.55643 -1.77776 0
M  V30 6734 N 687.317 1.12792 1.10072 0
M  V30 6735 C 688.547 0.907189 1.85617 0
M  V30 6736 C 688.955 -0.547181 1.81115 0
M  V30 6737 O 688.298 -1.39024 1.20075 0
M  V30 6738 C 688.36 1.30872 3.34832 0
M  V30 6739 C 688.024 2.77516 3.6309 0
M  V30 6740 C 689.021 3.75696 3.59373 0
M  V30 6741 C 686.706 3.14513 3.91646 0
M  V30 6742 C 688.7 5.08888 3.83812 0
M  V30 6743 C 686.387 4.47886 4.15742 0
M  V30 6744 C 687.385 5.44882 4.11816 0
M  V30 6745 O 687.073 6.7585 4.35295 0
M  V30 6746 H 686.805 0.323855 0.593375 0
M  V30 6747 H 689.359 1.50262 1.40038 0
M  V30 6748 H 687.589 0.656518 3.81086 0
M  V30 6749 H 689.278 1.06153 3.91773 0
M  V30 6750 H 690.044 3.48458 3.37345 0
M  V30 6751 H 685.923 2.39622 3.93831 0
M  V30 6752 H 689.467 5.84586 3.80663 0
M  V30 6753 H 685.364 4.74851 4.37249 0
M  V30 6754 H 686.132 6.81853 4.52791 0
M  V30 6755 N 688.795 -1.27931 0.920396 0
M  V30 6756 C 690.025 -1.98516 0.572256 0
M  V30 6757 C 690.433 -1.68912 -0.852375 0
M  V30 6758 O 689.776 -0.94203 -1.57707 0
M  V30 6759 C 689.838 -3.5243 0.709485 0
M  V30 6760 C 689.502 -4.0564 2.10489 0
M  V30 6761 C 690.499 -4.1897 3.07831 0
M  V30 6762 C 688.184 -4.40168 2.41986 0
M  V30 6763 C 690.178 -4.66093 4.34783 0
M  V30 6764 C 687.865 -4.86983 3.69176 0
M  V30 6765 C 688.863 -4.99903 4.65388 0
M  V30 6766 O 688.551 -5.45694 5.90316 0
M  V30 6767 H 688.283 -0.64047 0.216274 0
M  V30 6768 H 690.837 -1.6393 1.23758 0
M  V30 6769 H 689.067 -3.86698 -0.0129263 0
M  V30 6770 H 690.756 -4.04233 0.367474 0
M  V30 6771 H 691.522 -3.92562 2.84816 0
M  V30 6772 H 687.401 -4.29358 1.67846 0
M  V30 6773 H 690.945 -4.76092 5.09884 0
M  V30 6774 H 686.842 -5.12832 3.92012 0
M  V30 6775 H 687.61 -5.63965 5.932 0
M  V30 6776 N 690.273 -0.685099 -1.4193 0
M  V30 6777 C 691.498 -0.218842 -2.06242 0
M  V30 6778 C 691.923 1.11923 -1.51178 0
M  V30 6779 O 691.281 1.69837 -0.634446 0
M  V30 6780 C 691.329 -0.175592 -3.60172 0
M  V30 6781 O 690.433 0.852776 -4.03487 0
M  V30 6782 H 689.774 -0.109531 -0.654904 0
M  V30 6783 H 692.304 -0.937013 -1.81882 0
M  V30 6784 H 692.314 -0.00291151 -4.08 0
M  V30 6785 H 690.989 -1.15222 -3.99621 0
M  V30 6786 H 689.566 0.650301 -3.67186 0
M  V30 6787 N 691.751 1.51645 -0.429126 0
M  V30 6788 C 692.681 2.30434 0.377148 0
M  V30 6789 C 693.662 1.35493 1.02838 0
M  V30 6790 O 694.847 1.6441 1.03359 0
M  V30 6791 C 691.977 3.14038 1.48315 0
M  V30 6792 C 690.931 4.1719 0.955855 0
M  V30 6793 C 690.257 4.89263 2.15698 0
M  V30 6794 C 691.557 5.223 -0.00402136 0
M  V30 6795 H 693.251 2.98085 -0.280336 0
M  V30 6796 H 690.797 1.43354 -0.136265 0
M  V30 6797 H 692.75 3.67933 2.05435 0
M  V30 6798 H 691.474 2.44193 2.16881 0
M  V30 6799 H 690.133 3.64335 0.406929 0
M  V30 6800 H 689.781 4.15929 2.82864 0
M  V30 6801 H 689.481 5.59009 1.81059 0
M  V30 6802 H 691.005 5.45978 2.73387 0
M  V30 6803 H 692.419 5.71315 0.476607 0
M  V30 6804 H 690.816 5.99525 -0.26258 0
M  V30 6805 H 691.886 4.75638 -0.943236 0
M  V30 6806 N 693.229 0.160201 1.56784 0
M  V30 6807 C 694.454 -0.497373 2.01348 0
M  V30 6808 C 694.879 -1.56757 1.03966 0
M  V30 6809 O 694.237 -1.81292 0.0174455 0
M  V30 6810 C 694.285 -1.0628 3.44582 0
M  V30 6811 O 693.389 -2.17723 3.50244 0
M  V30 6812 H 692.73 -0.120295 0.653012 0
M  V30 6813 H 695.26 0.260821 2.02931 0
M  V30 6814 H 695.27 -1.38819 3.83658 0
M  V30 6815 H 693.945 -0.279166 4.14962 0
M  V30 6816 H 692.522 -1.86313 3.2302 0
M  V30 6817 N 694.707 -1.5719 -0.113559 0
M  V30 6818 C 695.955 -1.84772 -0.818761 0
M  V30 6819 C 696.276 -0.746196 -1.80158 0
M  V30 6820 O 695.546 0.229305 -1.94553 0
M  V30 6821 H 694.126 -0.681737 -0.305359 0
M  V30 6822 H 696.788 -1.94645 -0.0995845 0
M  V30 6823 H 695.884 -2.80878 -1.36067 0
M  V30 6824 N 696.185 0.383891 -1.52853 0
M  V30 6825 C 697.434 1.12563 -1.67369 0
M  V30 6826 C 697.747 1.90982 -0.422533 0
M  V30 6827 O 698.953 2.6778 -0.447914 0
M  V30 6828 C 697.409 2.05011 -2.95801 0
M  V30 6829 C 697.017 1.31991 -4.28115 0
M  V30 6830 C 698.761 2.79289 -3.19684 0
M  V30 6831 C 696.668 2.23235 -5.4765 0
M  V30 6832 H 695.598 0.42391 -0.623552 0
M  V30 6833 H 698.249 0.388016 -1.79351 0
M  V30 6834 H 696.631 2.82429 -2.77578 0
M  V30 6835 H 697.805 0.597633 -4.56908 0
M  V30 6836 H 696.12 0.696517 -4.10533 0
M  V30 6837 H 698.717 3.47749 -4.06171 0
M  V30 6838 H 699.06 3.43649 -2.3497 0
M  V30 6839 H 699.593 2.08962 -3.38496 0
M  V30 6840 H 696.332 1.63482 -6.34786 0
M  V30 6841 H 695.852 2.93364 -5.23161 0
M  V30 6842 H 697.531 2.83205 -5.81725 0
M  V30 6843 N 697.663 1.43903 0.642637 0
M  V30 6844 C 698.593 1.52697 1.76652 0
M  V30 6845 C 699.574 0.380816 1.65782 0
M  V30 6846 O 700.759 0.599432 1.84717 0
M  V30 6847 C 697.889 1.45975 3.15133 0
M  V30 6848 C 696.843 2.58949 3.40778 0
M  V30 6849 C 696.169 2.37279 4.79169 0
M  V30 6850 C 697.469 4.01153 3.34475 0
M  V30 6851 H 699.163 2.46766 1.69549 0
M  V30 6852 H 696.709 1.18767 0.814279 0
M  V30 6853 H 698.662 1.5073 3.93521 0
M  V30 6854 H 697.386 0.484162 3.22991 0
M  V30 6855 H 696.045 2.53564 2.64765 0
M  V30 6856 H 695.693 1.37939 4.83717 0
M  V30 6857 H 695.393 3.13016 4.97287 0
M  V30 6858 H 696.917 2.43834 5.59801 0
M  V30 6859 H 698.331 4.07968 4.02784 0
M  V30 6860 H 696.728 4.77001 3.64129 0
M  V30 6861 H 697.798 4.25539 2.32475 0
M  V30 6862 N 699.141 -0.881989 1.30609 0
M  V30 6863 C 700.389 -1.63082 1.19368 0
M  V30 6864 C 700.71 -1.93376 -0.251147 0
M  V30 6865 O 699.98 -1.5723 -1.16857 0
M  V30 6866 H 698.56 -0.604542 0.438791 0
M  V30 6867 H 701.222 -1.05658 1.63776 0
M  V30 6868 H 700.318 -2.57966 1.7567 0
M  V30 6869 N 700.619 -1.13374 -1.09472 0
M  V30 6870 C 702.03 -0.90801 -1.63132 0
M  V30 6871 C 702.381 0.555576 -1.8817 0
M  V30 6872 O 701.506 1.42218 -1.63104 0
M  V30 6873 C 702.101 -1.64182 -2.96361 0
M  V30 6874 C 700.66 -1.46197 -3.46848 0
M  V30 6875 C 699.807 -1.67134 -2.21273 0
M  V30 6876 H 702.758 -1.2871 -0.928411 0
M  V30 6877 H 702.779 -1.09863 -3.64294 0
M  V30 6878 H 702.291 -2.707 -2.78106 0
M  V30 6879 H 700.392 -0.419788 -3.70228 0
M  V30 6880 H 700.505 -2.22472 -4.24315 0
M  V30 6881 H 698.869 -1.09616 -2.29905 0
M  V30 6882 H 699.652 -2.74971 -2.05538 0
M  V30 6883 N 702.098 1.27442 -0.927168 0
M  V30 6884 C 703.509 1.76385 -0.611979 0
M  V30 6885 C 703.86 1.75715 0.872853 0
M  V30 6886 O 702.985 1.3603 1.683 0
M  V30 6887 C 703.58 3.20303 -1.10414 0
M  V30 6888 C 702.139 3.66916 -0.839628 0
M  V30 6889 C 701.286 2.46859 -1.26317 0
M  V30 6890 H 704.237 1.13716 -1.107 0
M  V30 6891 H 704.258 3.77811 -0.451578 0
M  V30 6892 H 703.77 3.20759 -2.18484 0
M  V30 6893 H 701.871 3.71906 0.227292 0
M  V30 6894 H 701.984 4.56415 -1.45679 0
M  V30 6895 H 700.348 2.45407 -0.681723 0
M  V30 6896 H 701.131 2.50025 -2.3525 0
M  V30 6897 N 703.576 0.692616 1.41565 0
M  V30 6898 C 704.822 0.222664 2.01574 0
M  V30 6899 C 705.155 -1.1737 1.54719 0
M  V30 6900 O 704.43 -1.79161 0.757084 0
M  V30 6901 C 704.713 0.277064 3.59033 0
M  V30 6902 C 704.566 1.71016 4.16021 0
M  V30 6903 C 705.885 -0.36479 4.38586 0
M  V30 6904 H 703.004 0.0823839 0.732381 0
M  V30 6905 H 705.646 0.880778 1.68352 0
M  V30 6906 H 703.796 -0.283288 3.87466 0
M  V30 6907 H 705.468 2.32413 3.98475 0
M  V30 6908 H 703.711 2.24525 3.71175 0
M  V30 6909 H 704.382 1.69978 5.25178 0
M  V30 6910 H 706.858 0.112404 4.15948 0
M  V30 6911 H 705.734 -0.296169 5.481 0
M  V30 6912 H 705.995 -1.44506 4.17816 0
M  V30 6913 N 705.054 -1.51416 0.437162 0
M  V30 6914 C 706.465 -1.86682 -0.0260005 0
M  V30 6915 C 706.816 -1.35432 -1.4196 0
M  V30 6916 O 705.941 -0.705055 -2.04592 0
M  V30 6917 C 706.536 -3.38757 -0.0539577 0
M  V30 6918 C 705.095 -3.7356 -0.461532 0
M  V30 6919 C 704.242 -2.75134 0.345924 0
M  V30 6920 H 707.193 -1.44642 0.653013 0
M  V30 6921 H 707.214 -3.70573 -0.863478 0
M  V30 6922 H 706.726 -3.76028 0.96045 0
M  V30 6923 H 704.827 -3.41878 -1.48155 0
M  V30 6924 H 704.94 -4.78737 -0.186451 0
M  V30 6925 H 703.304 -2.53947 -0.195739 0
M  V30 6926 H 704.087 -3.15247 1.35921 0
M  V30 6927 N 706.532 -0.168513 -1.56696 0
M  V30 6928 C 707.78 0.476216 -1.96409 0
M  V30 6929 C 708.101 1.63968 -1.05544 0
M  V30 6930 O 707.371 1.95525 -0.121235 0
M  V30 6931 H 705.951 0.178921 -0.725256 0
M  V30 6932 H 708.613 -0.249042 -1.93302 0
M  V30 6933 H 707.709 0.838094 -3.00637 0
M  V30 6934 N 708.01 1.57248 0.105221 0
M  V30 6935 C 709.257 1.8557 0.810552 0
M  V30 6936 C 709.585 0.755595 1.79223 0
M  V30 6937 O 708.84 -0.251788 1.94073 0
M  V30 6938 C 709.139 3.20437 1.58287 0
M  V30 6939 C 708.805 4.44716 0.744235 0
M  V30 6940 C 707.467 4.78458 0.513013 0
M  V30 6941 C 709.819 5.20953 0.160578 0
M  V30 6942 C 707.147 5.8587 -0.311894 0
M  V30 6943 C 709.499 6.29235 -0.651596 0
M  V30 6944 C 708.163 6.615 -0.893005 0
M  V30 6945 H 707.433 0.67905 0.296602 0
M  V30 6946 H 710.08 1.91363 0.0723968 0
M  V30 6947 H 708.385 3.10283 2.39232 0
M  V30 6948 H 710.082 3.39576 2.13282 0
M  V30 6949 H 706.672 4.18287 0.934555 0
M  V30 6950 H 710.856 4.95226 0.3264 0
M  V30 6951 H 706.112 6.09286 -0.508012 0
M  V30 6952 H 710.286 6.87484 -1.11077 0
M  V30 6953 H 707.913 7.44562 -1.53401 0
M  V30 6954 N 709.488 -0.375779 1.53054 0
M  V30 6955 C 710.765 -1.13453 1.59336 0
M  V30 6956 C 711.145 -2.07379 0.394614 0
M  V30 6957 O 710.493 -2.2004 -0.616 0
M  V30 6958 C 710.703 -1.8826 2.93869 0
M  V30 6959 C 712.051 -2.43155 3.48081 0
M  V30 6960 O 713.075 -1.984 2.95831 0
M  V30 6961 O 711.934 -3.24944 4.39401 0
M  V30 6962 H 709.028 -0.519856 0.643179 0
M  V30 6963 H 711.574 -0.379865 1.65394 0
M  V30 6964 H 710.346 -1.19652 3.72558 0
M  V30 6965 H 709.969 -2.70658 2.91256 0
M  V30 6966 N 710.966 -1.44241 -0.634997 0
M  V30 6967 C 712.214 -1.46531 -1.39187 0
M  V30 6968 C 712.535 -0.0976441 -1.94755 0
M  V30 6969 O 711.805 0.869528 -1.75545 0
M  V30 6970 H 710.385 -0.539544 -0.516625 0
M  V30 6971 H 713.047 -1.79989 -0.747655 0
M  V30 6972 H 712.143 -2.18848 -2.22513 0
M  V30 6973 N 712.444 0.87505 -1.31075 0
M  V30 6974 C 713.392 2.00317 -1.18219 0
M  V30 6975 C 714.386 1.69152 -0.0916872 0
M  V30 6976 O 715.592 1.7821 -0.253229 0
M  V30 6977 H 711.967 0.656981 -0.365895 0
M  V30 6978 H 713.938 2.08293 -2.13674 0
M  V30 6979 C 712.687 3.35821 -0.901095 0
M  V30 6980 H 712.01 3.6032 -1.73233 0
M  V30 6981 H 713.45 4.15366 -0.851295 0
M  V30 6982 C 711.909 3.34563 0.396114 0
M  V30 6983 O 712.439 3.75971 1.41452 0
M  V30 6984 N 710.645 2.87681 0.410832 0
M  V30 6985 H 710.192 2.54179 -0.418415 0
M  V30 6986 H 710.15 2.87223 1.27869 0
M  V30 6987 N 713.922 1.13953 1.08869 0
M  V30 6988 C 715.162 0.915128 1.8277 0
M  V30 6989 C 715.526 -0.548647 1.83994 0
M  V30 6990 O 716.727 -0.890817 2.5361 0
M  V30 6991 C 714.998 1.49382 3.24684 0
M  V30 6992 S 716.557 1.4103 4.15519 0
M  V30 6993 H 713.375 0.329716 0.629927 0
M  V30 6994 H 715.977 1.45213 1.30895 0
M  V30 6995 H 714.681 2.55241 3.21372 0
M  V30 6996 H 714.212 0.955008 3.81632 0
M  V30 6997 H 716.227 0.392617 4.94644 0
M  V30 6998 N 715.4 -1.26948 0.933913 0
M  V30 6999 C 716.31 -2.30366 0.443671 0
M  V30 7000 C 717.326 -1.67284 -0.478745 0
M  V30 7001 O 718.502 -1.98156 -0.360043 0
M  V30 7002 C 715.567 -3.45485 -0.289974 0
M  V30 7003 C 714.628 -4.24069 0.668114 0
M  V30 7004 C 713.861 -5.33691 -0.0306138 0
M  V30 7005 O 714.084 -5.5656 -1.24888 0
M  V30 7006 O 713.018 -5.98441 0.644384 0
M  V30 7007 H 716.844 -2.74349 1.30254 0
M  V30 7008 H 714.429 -1.32012 0.699506 0
M  V30 7009 H 716.311 -4.15486 -0.70353 0
M  V30 7010 H 714.986 -3.03546 -1.12435 0
M  V30 7011 H 713.893 -3.56579 1.13147 0
M  V30 7012 H 715.226 -4.69739 1.46989 0
M  V30 7013 N 716.879 -0.700114 -1.41195 0
M  V30 7014 C 718.127 -0.232546 -2.00758 0
M  V30 7015 C 718.448 1.1734 -1.55745 0
M  V30 7016 O 717.718 1.79262 -0.790058 0
M  V30 7017 H 716.298 -0.0829845 -0.742376 0
M  V30 7018 H 718.96 -0.902289 -1.72756 0
M  V30 7019 H 718.056 -0.253521 -3.11069 0
M  V30 7020 N 718.357 1.51182 -0.445186 0
M  V30 7021 C 719.582 2.07056 0.119445 0
M  V30 7022 C 720.007 1.30966 1.35016 0
M  V30 7023 O 719.365 0.349827 1.77893 0
M  V30 7024 C 719.413 3.58234 0.412428 0
M  V30 7025 O 718.517 3.84249 1.49754 0
M  V30 7026 H 717.858 0.663998 -0.00157797 0
M  V30 7027 H 720.388 1.94699 -0.628779 0
M  V30 7028 H 720.398 4.02617 0.660583 0
M  V30 7029 H 719.073 4.13038 -0.487049 0
M  V30 7030 H 717.65 3.51724 1.23873 0
M  V30 7031 N 719.835 0.176821 1.56605 0
M  V30 7032 C 721.083 -0.465793 1.96659 0
M  V30 7033 C 721.404 -1.63406 1.06412 0
M  V30 7034 O 720.674 -1.95457 0.131603 0
M  V30 7035 H 719.254 -0.175072 0.726195 0
M  V30 7036 H 721.916 0.25929 1.93168 0
M  V30 7037 H 721.012 -0.822138 3.01077 0
M  V30 7038 N 721.313 -1.57302 -0.09688 0
M  V30 7039 C 722.56 -1.85997 -0.800699 0
M  V30 7040 C 722.888 -0.765089 -1.7882 0
M  V30 7041 O 722.143 0.241492 -1.94204 0
M  V30 7042 C 722.442 -3.21272 -1.56586 0
M  V30 7043 C 722.108 -4.45104 -0.72064 0
M  V30 7044 C 720.77 -4.78723 -0.487632 0
M  V30 7045 C 723.122 -5.2103 -0.132948 0
M  V30 7046 C 720.45 -5.85697 0.34296 0
M  V30 7047 C 722.802 -6.28881 0.684957 0
M  V30 7048 C 721.466 -6.61017 0.928073 0
M  V30 7049 H 720.736 -0.680613 -0.292997 0
M  V30 7050 H 723.383 -1.91399 -0.0622474 0
M  V30 7051 H 721.688 -3.11547 -2.37583 0
M  V30 7052 H 723.385 -3.40702 -2.11478 0
M  V30 7053 H 719.975 -4.18777 -0.912359 0
M  V30 7054 H 724.159 -4.95392 -0.300132 0
M  V30 7055 H 719.415 -6.09008 0.540317 0
M  V30 7056 H 723.589 -6.86886 1.14721 0
M  V30 7057 H 721.216 -7.43738 1.57348 0
M  V30 7058 N 722.791 0.367657 -1.53252 0
M  V30 7059 C 724.202 0.944563 -1.61043 0
M  V30 7060 C 724.553 1.90325 -0.476546 0
M  V30 7061 O 723.678 2.12721 0.397333 0
M  V30 7062 C 724.273 1.71992 -2.91898 0
M  V30 7063 C 722.832 2.2462 -3.02031 0
M  V30 7064 C 721.979 1.05799 -2.56324 0
M  V30 7065 H 724.93 0.146516 -1.58022 0
M  V30 7066 H 724.951 2.58095 -2.79584 0
M  V30 7067 H 724.463 1.02192 -3.74404 0
M  V30 7068 H 722.564 2.97668 -2.24108 0
M  V30 7069 H 722.677 2.52644 -4.07073 0
M  V30 7070 H 721.041 1.42435 -2.1115 0
M  V30 7071 H 721.824 0.375008 -3.41246 0
M  V30 7072 N 724.269 1.44576 0.627338 0
M  V30 7073 C 725.515 1.47777 1.38888 0
M  V30 7074 C 725.848 0.111406 1.9388 0
M  V30 7075 O 725.123 -0.87149 1.73883 0
M  V30 7076 C 725.406 2.54119 2.55138 0
M  V30 7077 C 725.259 4.00128 2.0547 0
M  V30 7078 C 726.578 2.56929 3.57317 0
M  V30 7079 H 723.697 0.538048 0.50366 0
M  V30 7080 H 726.339 1.76277 0.708978 0
M  V30 7081 H 724.489 2.29948 3.13139 0
M  V30 7082 H 726.161 4.35444 1.5227 0
M  V30 7083 H 724.404 4.11724 1.36623 0
M  V30 7084 H 725.075 4.7019 2.89181 0
M  V30 7085 H 727.551 2.78536 3.09122 0
M  V30 7086 H 726.427 3.33234 4.36173 0
M  V30 7087 H 726.688 1.6127 4.11636 0
M  V30 7088 N 725.747 -0.868086 1.31537 0
M  V30 7089 C 726.995 -1.61807 1.21091 0
M  V30 7090 C 727.316 -1.93631 -0.230623 0
M  V30 7091 O 726.586 -1.5846 -1.15183 0
M  V30 7092 H 725.166 -0.599854 0.445178 0
M  V30 7093 H 727.828 -1.03915 1.64887 0
M  V30 7094 H 726.924 -2.56088 1.78396 0
M  V30 7095 N 727.225 -1.14528 -1.08264 0
M  V30 7096 C 728.474 -0.908992 -1.80056 0
M  V30 7097 C 728.787 0.565859 -1.87236 0
M  V30 7098 O 729.993 0.919454 -2.55457 0
M  V30 7099 C 728.449 -1.57681 -3.23519 0
M  V30 7100 C 728.057 -3.08803 -3.24569 0
M  V30 7101 C 729.801 -1.4217 -3.99985 0
M  V30 7102 C 727.708 -3.68414 -4.62629 0
M  V30 7103 H 726.638 -0.336432 -0.674781 0
M  V30 7104 H 729.289 -1.37437 -1.21587 0
M  V30 7105 H 727.671 -1.03911 -3.82124 0
M  V30 7106 H 728.845 -3.69252 -2.75663 0
M  V30 7107 H 727.16 -3.23968 -2.61598 0
M  V30 7108 H 729.757 -1.84106 -5.02005 0
M  V30 7109 H 730.1 -0.367989 -4.1467 0
M  V30 7110 H 730.633 -1.92984 -3.47853 0
M  V30 7111 H 727.372 -4.73644 -4.53147 0
M  V30 7112 H 726.892 -3.12746 -5.11811 0
M  V30 7113 H 728.571 -3.68793 -5.31602 0
M  V30 7114 N 728.703 1.26451 -0.940633 0
M  V30 7115 C 729.65 2.264 -0.448497 0
M  V30 7116 C 730.62 1.5866 0.491546 0
M  V30 7117 O 731.805 1.86389 0.407874 0
M  V30 7118 C 728.945 3.43956 0.280715 0
M  V30 7119 C 728.058 4.26374 -0.694937 0
M  V30 7120 C 727.193 5.31171 0.0554186 0
M  V30 7121 C 726.232 6.05266 -0.912091 0
M  V30 7122 N 725.369 7.01833 -0.193524 0
M  V30 7123 H 730.209 2.67869 -1.30576 0
M  V30 7124 H 727.746 1.31707 -0.655112 0
M  V30 7125 H 729.704 4.10941 0.71994 0
M  V30 7126 H 728.334 3.03403 1.10212 0
M  V30 7127 H 727.386 3.59183 -1.25267 0
M  V30 7128 H 728.698 4.77748 -1.43382 0
M  V30 7129 H 727.852 6.04166 0.553951 0
M  V30 7130 H 726.591 4.80634 0.827183 0
M  V30 7131 H 725.596 5.31099 -1.42175 0
M  V30 7132 H 726.821 6.57893 -1.68385 0
M  V30 7133 H 724.767 6.53607 0.559758 0
M  V30 7134 H 724.684 7.50957 -0.871744 0
M  V30 7135 H 725.952 7.78983 0.283932 0
M  V30 7136 N 730.181 0.707592 1.40822 0
M  V30 7137 C 731.113 0.0105968 2.29198 0
M  V30 7138 C 732.126 -0.732035 1.45414 0
M  V30 7139 O 733.315 -0.580741 1.68789 0
M  V30 7140 C 730.415 -1.00921 3.23525 0
M  V30 7141 C 729.588 -0.333747 4.36125 0
M  V30 7142 C 728.647 -1.25783 5.10945 0
M  V30 7143 O 727.673 -0.745646 5.64295 0
M  V30 7144 N 728.875 -2.58947 5.19545 0
M  V30 7145 H 731.64 0.76938 2.89656 0
M  V30 7146 H 729.201 0.554579 1.52105 0
M  V30 7147 H 731.193 -1.6294 3.70449 0
M  V30 7148 H 729.763 -1.66942 2.6429 0
M  V30 7149 H 728.983 0.466518 3.9143 0
M  V30 7150 H 730.271 0.135444 5.0862 0
M  V30 7151 H 729.669 -3.03065 4.7767 0
M  V30 7152 H 728.226 -3.16131 5.70004 0
M  V30 7153 N 731.66 -1.50943 0.453197 0
M  V30 7154 C 732.57 -2.31884 -0.355963 0
M  V30 7155 C 733.586 -1.41481 -1.01287 0
M  V30 7156 O 734.762 -1.74546 -1.00477 0
M  V30 7157 C 731.827 -3.15668 -1.43369 0
M  V30 7158 C 730.888 -4.2187 -0.795253 0
M  V30 7159 C 730.121 -5.0165 -1.82162 0
M  V30 7160 O 730.344 -4.82266 -3.04592 0
M  V30 7161 O 729.278 -5.85311 -1.40336 0
M  V30 7162 H 733.104 -3.02162 0.305248 0
M  V30 7163 H 730.689 -1.47839 0.215398 0
M  V30 7164 H 732.571 -3.67709 -2.05836 0
M  V30 7165 H 731.246 -2.48137 -2.07869 0
M  V30 7166 H 730.153 -3.73867 -0.132106 0
M  V30 7167 H 731.486 -4.9182 -0.193484 0
M  V30 7168 N 733.138 -0.185124 -1.56509 0
M  V30 7169 C 734.549 0.329221 -1.83774 0
M  V30 7170 C 734.9 1.62093 -1.10545 0
M  V30 7171 O 734.025 2.13334 -0.36298 0
M  V30 7172 C 734.62 0.604099 -3.33371 0
M  V30 7173 C 733.179 1.06284 -3.61083 0
M  V30 7174 C 732.326 0.10608 -2.77097 0
M  V30 7175 H 735.277 -0.409116 -1.53336 0
M  V30 7176 H 735.298 1.45458 -3.51599 0
M  V30 7177 H 734.81 -0.336201 -3.86641 0
M  V30 7178 H 732.911 2.01777 -3.13236 0
M  V30 7179 H 733.024 0.962453 -4.69333 0
M  V30 7180 H 731.388 0.606082 -2.47384 0
M  V30 7181 H 732.171 -0.828486 -3.33153 0
M  V30 7182 N 734.616 1.57351 0.0885366 0
M  V30 7183 C 735.893 1.77449 0.822873 0
M  V30 7184 C 736.273 0.768463 1.96616 0
M  V30 7185 O 735.621 -0.201757 2.27608 0
M  V30 7186 C 735.831 3.23425 1.31137 0
M  V30 7187 C 737.179 3.86791 1.75152 0
M  V30 7188 O 738.203 3.27215 1.40745 0
M  V30 7189 O 737.062 4.91568 2.38794 0
M  V30 7190 H 734.156 0.727653 0.393002 0
M  V30 7191 H 736.702 1.69556 0.0699095 0
M  V30 7192 H 735.474 3.88188 0.49254 0
M  V30 7193 H 735.097 3.35977 2.12615 0
M  V30 7194 N 736.094 -0.359525 1.53444 0
M  V30 7195 C 737.371 -1.11756 1.6053 0
M  V30 7196 C 737.751 -2.06949 0.416587 0
M  V30 7197 O 737.099 -2.20681 -0.592628 0
M  V30 7198 C 737.309 -1.85133 2.95849 0
M  V30 7199 C 738.657 -2.3945 3.50641 0
M  V30 7200 O 739.681 -1.95251 2.97918 0
M  V30 7201 O 738.54 -3.20266 4.42823 0
M  V30 7202 H 735.634 -0.513005 0.648656 0
M  V30 7203 H 738.18 -0.362301 1.65787 0
M  V30 7204 H 736.952 -1.15694 3.73806 0
M  V30 7205 H 736.575 -2.67554 2.9411 0
M  V30 7206 N 737.572 -1.44907 -0.619662 0
M  V30 7207 C 738.82 -1.47999 -1.37625 0
M  V30 7208 C 739.141 -0.118295 -1.94641 0
M  V30 7209 O 738.411 0.85086 -1.76457 0
M  V30 7210 H 736.991 -0.544993 -0.510873 0
M  V30 7211 H 739.653 -1.80772 -0.728522 0
M  V30 7212 H 738.749 -2.21196 -2.20179 0
M  V30 7213 N 739.05 0.861098 -1.31996 0
M  V30 7214 C 740.275 1.65264 -1.2531 0
M  V30 7215 C 740.7 1.87265 0.177007 0
M  V30 7216 O 740.058 1.4208 1.12619 0
M  V30 7217 C 740.106 2.99284 -2.0115 0
M  V30 7218 O 739.21 3.89508 -1.3549 0
M  V30 7219 H 738.551 0.50409 -0.432192 0
M  V30 7220 H 741.081 1.07297 -1.74208 0
M  V30 7221 H 741.091 3.49154 -2.11081 0
M  V30 7222 H 739.766 2.82591 -3.05148 0
M  V30 7223 H 738.343 3.47966 -1.34066 0
M  V30 7224 N 740.528 1.15101 1.07655 0
M  V30 7225 C 741.758 0.946357 1.83651 0
M  V30 7226 C 742.166 -0.508641 1.82235 0
M  V30 7227 O 741.509 -1.36445 1.22997 0
M  V30 7228 C 741.571 1.37945 3.31981 0
M  V30 7229 C 741.235 2.85155 3.57122 0
M  V30 7230 C 742.232 3.83234 3.51323 0
M  V30 7231 C 739.917 3.2275 3.84887 0
M  V30 7232 C 741.911 5.16914 3.72932 0
M  V30 7233 C 739.598 4.56604 4.06148 0
M  V30 7234 C 740.596 5.53495 4.00165 0
M  V30 7235 O 740.284 6.84931 4.20861 0
M  V30 7236 H 740.016 0.336368 0.586372 0
M  V30 7237 H 742.57 1.53198 1.36819 0
M  V30 7238 H 740.8 0.737205 3.79608 0
M  V30 7239 H 742.489 1.14439 3.89434 0
M  V30 7240 H 743.255 3.55535 3.29878 0
M  V30 7241 H 739.134 2.47921 3.88659 0
M  V30 7242 H 742.678 5.92529 3.68178 0
M  V30 7243 H 738.575 4.84019 4.27078 0
M  V30 7244 H 739.343 6.91304 4.38226 0
M  V30 7245 N 742.006 -1.2595 0.947325 0
M  V30 7246 C 743.236 -1.97258 0.614235 0
M  V30 7247 C 743.644 -1.70682 -0.816355 0
M  V30 7248 O 742.987 -0.97527 -1.55673 0
M  V30 7249 C 743.049 -3.50845 0.784081 0
M  V30 7250 C 742.713 -4.01084 2.19045 0
M  V30 7251 C 743.71 -4.12347 3.16648 0
M  V30 7252 C 741.395 -4.34936 2.51268 0
M  V30 7253 C 743.389 -4.56766 4.44572 0
M  V30 7254 C 741.076 -4.79043 3.79422 0
M  V30 7255 C 742.074 -4.89919 4.75887 0
M  V30 7256 O 741.762 -5.3305 6.01758 0
M  V30 7257 H 741.494 -0.635738 0.22981 0
M  V30 7258 H 744.048 -1.61268 1.27207 0
M  V30 7259 H 742.278 -3.86638 0.069101 0
M  V30 7260 H 743.967 -4.03363 0.453135 0
M  V30 7261 H 744.733 -3.86432 2.93079 0
M  V30 7262 H 740.612 -4.25702 1.76916 0
M  V30 7263 H 744.156 -4.6517 5.19868 0
M  V30 7264 H 740.053 -5.04402 4.02802 0
M  V30 7265 H 740.821 -5.51255 6.05029 0
M  V30 7266 N 743.484 -0.715051 -1.40445 0
M  V30 7267 C 744.895 -0.326763 -1.83818 0
M  V30 7268 C 745.246 1.13851 -1.59789 0
M  V30 7269 O 744.371 1.87611 -1.07848 0
M  V30 7270 C 744.966 -0.586297 -3.33688 0
M  V30 7271 C 743.525 -0.251724 -3.75557 0
M  V30 7272 C 742.672 -0.858928 -2.63662 0
M  V30 7273 H 745.623 -0.914241 -1.2972 0
M  V30 7274 H 745.644 0.148636 -3.8021 0
M  V30 7275 H 745.156 -1.65281 -3.51146 0
M  V30 7276 H 743.257 0.809754 -3.63695 0
M  V30 7277 H 743.37 -0.720348 -4.73654 0
M  V30 7278 H 741.734 -0.287013 -2.53078 0
M  V30 7279 H 742.517 -1.9297 -2.83932 0
M  V30 7280 N 744.962 1.50701 -0.461195 0
M  V30 7281 C 745.872 2.32069 0.343661 0
M  V30 7282 C 746.888 1.42016 1.00535 0
M  V30 7283 O 748.064 1.75077 0.995498 0
M  V30 7284 C 745.129 3.16424 1.41692 0
M  V30 7285 C 744.19 4.22286 0.772869 0
M  V30 7286 C 743.423 5.02609 1.79499 0
M  V30 7287 O 743.646 4.83874 3.0203 0
M  V30 7288 O 742.58 5.86047 1.3723 0
M  V30 7289 H 746.406 3.01996 -0.321268 0
M  V30 7290 H 743.991 1.47723 -0.223235 0
M  V30 7291 H 745.873 3.68795 2.03883 0
M  V30 7292 H 744.548 2.49236 2.0655 0
M  V30 7293 H 743.455 3.73931 0.112277 0
M  V30 7294 H 744.788 4.91915 0.167399 0
M  V30 7295 N 746.441 0.193421 1.56409 0
M  V30 7296 C 747.404 -0.714371 2.17783 0
M  V30 7297 C 748.404 -1.1422 1.13183 0
M  V30 7298 O 749.594 -1.05557 1.38576 0
M  V30 7299 C 746.726 -1.97509 2.77855 0
M  V30 7300 H 747.919 -0.179714 2.99361 0
M  V30 7301 H 745.472 -0.0561944 1.56199 0
M  V30 7302 H 746.207 -2.5523 2.0007 0
M  V30 7303 H 745.992 -1.67706 3.54425 0
M  V30 7304 H 747.482 -2.62246 3.24987 0
M  V30 7305 N 747.919 -1.57396 -0.0801906 0
M  V30 7306 C 749.144 -1.91437 -0.797909 0
M  V30 7307 C 749.569 -0.789075 -1.70749 0
M  V30 7308 O 748.927 0.25857 -1.79447 0
M  V30 7309 C 748.975 -3.24402 -1.57467 0
M  V30 7310 O 748.079 -3.13043 -2.68473 0
M  V30 7311 H 747.42 -0.627109 -0.218243 0
M  V30 7312 H 749.95 -2.04537 -0.050949 0
M  V30 7313 H 749.96 -3.58072 -1.95571 0
M  V30 7314 H 748.635 -4.05884 -0.907229 0
M  V30 7315 H 747.212 -2.90915 -2.33287 0
M  V30 7316 N 749.397 0.351382 -1.53633 0
M  V30 7317 C 750.646 1.08988 -1.69719 0
M  V30 7318 C 750.959 1.90043 -0.462948 0
M  V30 7319 O 752.165 2.66769 -0.504613 0
M  V30 7320 C 750.621 1.98691 -3.00083 0
M  V30 7321 C 750.229 1.22881 -4.30818 0
M  V30 7322 C 751.973 2.72446 -3.25536 0
M  V30 7323 C 749.88 2.11568 -5.52262 0
M  V30 7324 H 748.81 0.410588 -0.632403 0
M  V30 7325 H 751.461 0.349886 -1.80133 0
M  V30 7326 H 749.843 2.76478 -2.83506 0
M  V30 7327 H 751.017 0.500582 -4.58073 0
M  V30 7328 H 749.332 0.60928 -4.11918 0
M  V30 7329 H 751.929 3.39055 -4.13456 0
M  V30 7330 H 752.272 3.38588 -2.42206 0
M  V30 7331 H 752.805 2.01735 -3.42852 0
M  V30 7332 H 749.544 1.4998 -6.38111 0
M  V30 7333 H 749.064 2.82201 -5.29266 0
M  V30 7334 H 750.743 2.70802 -5.87601 0
M  V30 7335 N 750.875 1.45233 0.611969 0
M  V30 7336 C 752.286 1.4354 1.19387 0
M  V30 7337 C 752.637 0.160713 1.95541 0
M  V30 7338 O 751.762 -0.737954 2.03429 0
M  V30 7339 C 752.357 2.60045 2.17169 0
M  V30 7340 C 750.916 2.61486 2.70744 0
M  V30 7341 C 750.063 2.35708 1.46072 0
M  V30 7342 H 753.014 1.53536 0.401529 0
M  V30 7343 H 753.035 2.33893 3.00124 0
M  V30 7344 H 752.547 3.52803 1.61714 0
M  V30 7345 H 750.648 1.72721 3.30149 0
M  V30 7346 H 750.761 3.60572 3.15476 0
M  V30 7347 H 749.125 1.85178 1.74875 0
M  V30 7348 H 749.908 3.30606 0.924922 0
M  V30 7349 N 752.353 -0.854086 1.3245 0
M  V30 7350 C 753.578 -1.64597 1.26185 0
M  V30 7351 C 754.003 -1.87357 -0.167074 0
M  V30 7352 O 753.361 -1.42675 -1.11864 0
M  V30 7353 C 753.409 -2.98213 2.02734 0
M  V30 7354 O 752.513 -3.88784 1.37554 0
M  V30 7355 H 751.854 -0.50179 0.434859 0
M  V30 7356 H 754.384 -1.06372 1.74775 0
M  V30 7357 H 754.394 -3.4803 2.1293 0
M  V30 7358 H 753.069 -2.80969 3.06642 0
M  V30 7359 H 751.646 -3.4725 1.3591 0
M  V30 7360 N 753.831 -1.1567 -1.07043 0
M  V30 7361 C 755.056 -0.957946 -1.83952 0
M  V30 7362 C 755.481 0.488807 -1.81638 0
M  V30 7363 O 754.839 1.34869 -1.21162 0
M  V30 7364 C 754.887 -1.48064 -3.288 0
M  V30 7365 O 753.991 -0.681921 -4.06723 0
M  V30 7366 H 753.332 -0.341453 -0.569479 0
M  V30 7367 H 755.862 -1.53728 -1.35015 0
M  V30 7368 H 755.872 -1.49484 -3.7963 0
M  V30 7369 H 754.547 -2.53388 -3.29799 0
M  V30 7370 H 753.124 -0.737612 -3.65532 0
M  V30 7371 N 755.309 1.25446 -0.953992 0
M  V30 7372 C 756.272 2.24156 -0.478179 0
M  V30 7373 C 757.272 1.55278 0.417776 0
M  V30 7374 O 758.462 1.72866 0.215155 0
M  V30 7375 C 755.594 3.39495 0.309202 0
M  V30 7376 H 756.787 2.67764 -1.35064 0
M  V30 7377 H 754.34 1.37822 -0.737206 0
M  V30 7378 H 755.075 3.01307 1.19936 0
M  V30 7379 H 754.86 3.90679 -0.333562 0
M  V30 7380 H 756.35 4.12796 0.631594 0
M  V30 7381 N 756.787 0.722489 1.40064 0
M  V30 7382 C 758.036 0.261932 1.99992 0
M  V30 7383 C 758.349 -1.15358 1.57961 0
M  V30 7384 O 759.555 -1.71301 2.10637 0
M  V30 7385 C 758.011 0.41737 3.57472 0
M  V30 7386 C 757.619 1.83997 4.08472 0
M  V30 7387 C 759.363 0.0179561 4.24496 0
M  V30 7388 C 757.27 1.94563 5.5848 0
M  V30 7389 H 756.2 0.0941768 0.748095 0
M  V30 7390 H 758.851 0.894572 1.60218 0
M  V30 7391 H 757.233 -0.283965 3.94981 0
M  V30 7392 H 758.407 2.57224 3.82325 0
M  V30 7393 H 756.722 2.19147 3.54067 0
M  V30 7394 H 759.319 0.076085 5.34646 0
M  V30 7395 H 759.662 -1.02498 4.03485 0
M  V30 7396 H 760.195 0.669988 3.92117 0
M  V30 7397 H 756.934 2.97001 5.84355 0
M  V30 7398 H 756.454 1.25756 5.86469 0
M  V30 7399 H 758.133 1.72095 6.23692 0
M  V30 7400 N 758.265 -1.50454 0.469181 0
M  V30 7401 C 759.511 -2.02615 -0.0865971 0
M  V30 7402 C 759.844 -1.35062 -1.39542 0
M  V30 7403 O 759.119 -0.475701 -1.88593 0
M  V30 7404 C 759.402 -3.59068 -0.272385 0
M  V30 7405 C 759.255 -4.37196 1.05733 0
M  V30 7406 C 760.574 -4.2793 -1.0278 0
M  V30 7407 H 757.693 -0.736389 -0.0299977 0
M  V30 7408 H 760.335 -1.79792 0.614399 0
M  V30 7409 H 758.485 -3.78646 -0.869471 0
M  V30 7410 H 760.157 -4.29195 1.69084 0
M  V30 7411 H 758.4 -4.01013 1.65442 0
M  V30 7412 H 759.071 -5.44924 0.880997 0
M  V30 7413 H 761.547 -4.12816 -0.521718 0
M  V30 7414 H 760.423 -5.37214 -1.12659 0
M  V30 7415 H 760.684 -3.90968 -2.0639 0
M  V30 7416 N 759.743 -0.201713 -1.56304 0
M  V30 7417 C 760.991 0.434447 -1.97375 0
M  V30 7418 C 761.312 1.61692 -1.08998 0
M  V30 7419 O 760.582 1.95223 -0.162682 0
M  V30 7420 H 759.162 0.163497 -0.728888 0
M  V30 7421 H 761.824 -0.289988 -1.92731 0
M  V30 7422 H 760.92 0.774136 -3.02347 0
M  V30 7423 N 761.222 1.57436 0.0718424 0
M  V30 7424 C 762.468 1.87525 0.772149 0
M  V30 7425 C 762.801 0.79399 1.77227 0
M  V30 7426 O 762.076 -0.195733 1.93513 0
M  V30 7427 C 762.359 3.28272 1.48018 0
M  V30 7428 C 762.212 4.47052 0.49647 0
M  V30 7429 C 763.531 3.67256 2.42509 0
M  V30 7430 H 760.65 0.682049 0.279245 0
M  V30 7431 H 763.292 1.89967 0.03534 0
M  V30 7432 H 761.442 3.26321 2.10824 0
M  V30 7433 H 763.114 4.61127 -0.126375 0
M  V30 7434 H 761.357 4.33392 -0.188205 0
M  V30 7435 H 762.028 5.42315 1.02949 0
M  V30 7436 H 764.504 3.70301 1.89781 0
M  V30 7437 H 763.38 4.66626 2.89053 0
M  V30 7438 H 763.641 2.97186 3.27312 0
M  V30 7439 N 762.7 -0.34323 1.53817 0
M  V30 7440 C 763.648 -1.44176 1.82527 0
M  V30 7441 C 764.642 -1.54452 0.695772 0
M  V30 7442 O 765.848 -1.57072 0.879114 0
M  V30 7443 H 762.223 -0.480729 0.578277 0
M  V30 7444 H 764.194 -1.17176 2.74431 0
M  V30 7445 C 762.943 -2.80695 2.05197 0
M  V30 7446 H 762.266 -2.73554 2.91561 0
M  V30 7447 H 763.706 -3.56679 2.29251 0
M  V30 7448 C 762.165 -3.26322 0.837589 0
M  V30 7449 O 762.695 -4.01683 0.0371631 0
M  V30 7450 N 760.901 -2.83128 0.654724 0
M  V30 7451 H 760.448 -2.21965 1.30725 0
M  V30 7452 H 760.406 -3.14011 -0.156345 0
M  V30 7453 N 764.178 -1.45556 -0.604258 0
M  V30 7454 C 765.403 -1.53509 -1.39462 0
M  V30 7455 C 765.828 -0.169638 -1.87333 0
M  V30 7456 O 765.186 0.846346 -1.60333 0
M  V30 7457 C 765.234 -2.52654 -2.5729 0
M  V30 7458 O 764.338 -2.04666 -3.5803 0
M  V30 7459 H 763.679 -0.517355 -0.416221 0
M  V30 7460 H 766.209 -1.90939 -0.735072 0
M  V30 7461 H 766.219 -2.71568 -3.04491 0
M  V30 7462 H 764.894 -3.51823 -2.21797 0
M  V30 7463 H 763.471 -1.95643 -3.17456 0
M  V30 7464 N 765.656 0.84705 -1.32902 0
M  V30 7465 C 766.904 1.5986 -1.2365 0
M  V30 7466 C 767.225 1.93974 0.199789 0
M  V30 7467 O 766.495 1.60273 1.12648 0
M  V30 7468 H 765.075 0.592696 -0.454665 0
M  V30 7469 H 767.737 1.01278 -1.66519 0
M  V30 7470 H 766.833 2.53218 -1.82448 0
M  V30 7471 N 767.134 1.16236 1.06428 0
M  V30 7472 C 768.382 0.941171 1.78847 0
M  V30 7473 C 768.703 -0.53248 1.87589 0
M  V30 7474 O 767.973 -1.38686 1.38358 0
M  V30 7475 H 766.553 0.345228 0.66244 0
M  V30 7476 H 769.215 1.46479 1.28569 0
M  V30 7477 H 768.311 1.35871 2.80972 0
M  V30 7478 N 768.612 -1.24939 0.960631 0
M  V30 7479 C 769.544 -2.24879 0.442937 0
M  V30 7480 C 770.557 -1.56615 -0.444464 0
M  V30 7481 O 771.746 -1.76715 -0.251776 0
M  V30 7482 C 768.846 -3.36757 -0.380537 0
M  V30 7483 C 768.019 -4.34587 0.495283 0
M  V30 7484 C 767.078 -5.25502 -0.270995 0
M  V30 7485 O 766.104 -5.68227 0.332661 0
M  V30 7486 N 767.306 -5.59077 -1.56249 0
M  V30 7487 H 770.071 -2.69932 1.30218 0
M  V30 7488 H 767.632 -1.38907 0.83166 0
M  V30 7489 H 769.624 -3.94542 -0.90103 0
M  V30 7490 H 768.194 -2.91045 -1.14067 0
M  V30 7491 H 767.414 -3.75593 1.19682 0
M  V30 7492 H 768.702 -4.96925 1.09285 0
M  V30 7493 H 768.1 -5.2628 -2.07476 0
M  V30 7494 H 766.657 -6.19421 -2.02882 0
M  V30 7495 N 770.09 -0.729906 -1.39679 0
M  V30 7496 C 771.315 -0.284345 -2.05442 0
M  V30 7497 C 771.74 1.07056 -1.54663 0
M  V30 7498 O 771.098 1.67732 -0.688157 0
M  V30 7499 C 771.146 -0.290089 -3.59431 0
M  V30 7500 O 770.25 0.723978 -4.05995 0
M  V30 7501 H 769.591 -0.130311 -0.651088 0
M  V30 7502 H 772.121 -0.994403 -1.78809 0
M  V30 7503 H 772.131 -0.132712 -4.07784 0
M  V30 7504 H 770.806 -1.27877 -3.95753 0
M  V30 7505 H 769.383 0.533154 -3.69069 0
M  V30 7506 N 771.568 1.50203 -0.477153 0
M  V30 7507 C 772.815 2.02358 0.0757385 0
M  V30 7508 C 773.143 1.3587 1.39174 0
M  V30 7509 O 772.398 0.475415 1.89838 0
M  V30 7510 C 772.697 3.56127 0.301325 0
M  V30 7511 C 772.363 4.41126 -0.933725 0
M  V30 7512 C 771.025 4.64075 -1.27233 0
M  V30 7513 C 773.377 4.90737 -1.75576 0
M  V30 7514 C 770.705 5.33878 -2.43292 0
M  V30 7515 C 773.057 5.61816 -2.90768 0
M  V30 7516 C 771.721 5.83016 -3.25036 0
M  V30 7517 H 770.991 0.740482 0.0277147 0
M  V30 7518 H 773.638 1.80754 -0.632467 0
M  V30 7519 H 771.943 3.76279 1.09183 0
M  V30 7520 H 773.64 3.94053 0.743184 0
M  V30 7521 H 770.23 4.23489 -0.659935 0
M  V30 7522 H 774.414 4.72856 -1.50734 0
M  V30 7523 H 769.67 5.48499 -2.70109 0
M  V30 7524 H 773.844 5.99237 -3.54807 0
M  V30 7525 H 771.471 6.36881 -4.15074 0
M  V30 7526 N 773.046 0.209999 1.56195 0
M  V30 7527 C 773.996 -0.717978 2.164 0
M  V30 7528 C 774.98 -1.16577 1.10899 0
M  V30 7529 O 776.172 -1.12169 1.3692 0
M  V30 7530 C 773.301 -1.93091 2.8385 0
M  V30 7531 C 772.387 -1.50333 3.96561 0
M  V30 7532 N 772.778 -0.787621 4.9963 0
M  V30 7533 C 771.076 -1.79151 4.08437 0
M  V30 7534 C 771.777 -0.571204 5.78889 0
M  V30 7535 N 770.753 -1.12444 5.31843 0
M  V30 7536 H 774.555 -0.162603 2.9345 0
M  V30 7537 H 772.069 0.0107928 1.62396 0
M  V30 7538 H 774.066 -2.60635 3.25384 0
M  V30 7539 H 772.726 -2.49087 2.08293 0
M  V30 7540 H 773.737 -0.441513 5.16015 0
M  V30 7541 H 770.414 -2.36549 3.44022 0
M  V30 7542 H 771.804 -0.00237941 6.719 0
M  V30 7543 N 774.524 -1.57472 -0.0634922 0
M  V30 7544 C 775.754 -1.91608 -0.772645 0
M  V30 7545 C 776.162 -0.805019 -1.71219 0
M  V30 7546 O 775.505 0.229941 -1.82255 0
M  V30 7547 C 775.567 -3.21281 -1.61304 0
M  V30 7548 C 775.231 -4.49177 -0.841973 0
M  V30 7549 C 776.228 -5.19661 -0.157494 0
M  V30 7550 C 773.913 -4.9578 -0.80669 0
M  V30 7551 C 775.907 -6.35006 0.551948 0
M  V30 7552 C 773.594 -6.11028 -0.0934812 0
M  V30 7553 C 774.592 -6.80493 0.58463 0
M  V30 7554 O 774.28 -7.93542 1.28633 0
M  V30 7555 H 774.012 -0.637685 -0.224352 0
M  V30 7556 H 776.566 -2.05369 -0.0355279 0
M  V30 7557 H 774.796 -3.03752 -2.39315 0
M  V30 7558 H 776.485 -3.41003 -2.20162 0
M  V30 7559 H 777.251 -4.84681 -0.176006 0
M  V30 7560 H 773.13 -4.41579 -1.32397 0
M  V30 7561 H 776.674 -6.89161 1.0818 0
M  V30 7562 H 772.571 -6.45459 -0.0729258 0
M  V30 7563 H 773.339 -8.09708 1.19646 0
M  V30 7564 N 776.003 0.335068 -1.53997 0
M  V30 7565 C 777.419 0.678704 -1.4445 0
M  V30 7566 C 777.619 1.92106 -0.608078 0
M  V30 7567 O 776.675 2.52292 -0.102373 0
M  V30 7568 C 777.988 0.863435 -2.88037 0
M  V30 7569 C 779.536 0.961513 -2.97866 0
M  V30 7570 C 780.011 1.1785 -4.42578 0
M  V30 7571 N 781.502 1.2455 -4.46141 0
M  V30 7572 C 782.237 1.43106 -5.55255 0
M  V30 7573 N 781.733 1.5878 -6.74359 0
M  V30 7574 N 783.526 1.45722 -5.42883 0
M  V30 7575 H 775.677 -0.481656 -2.06867 0
M  V30 7576 H 777.94 -0.153615 -0.935471 0
M  V30 7577 H 777.646 0.0219511 -3.51693 0
M  V30 7578 H 777.52 1.76268 -3.33481 0
M  V30 7579 H 779.907 1.79351 -2.34344 0
M  V30 7580 H 779.988 0.0389862 -2.5577 0
M  V30 7581 H 779.632 0.351397 -5.06683 0
M  V30 7582 H 779.562 2.11472 -4.82273 0
M  V30 7583 H 782.053 1.13928 -3.60318 0
M  V30 7584 H 782.366 1.72599 -7.53279 0
M  V30 7585 H 780.711 1.559 -6.77289 0
M  V30 7586 H 783.902 1.33065 -4.48789 0
M  V30 7587 H 784.075 1.59841 -6.27977 0
M  V30 7588 N 777.481 1.45874 0.596531 0
M  V30 7589 C 778.73 1.49737 1.35135 0
M  V30 7590 C 779.043 0.147755 1.95041 0
M  V30 7591 O 780.249 0.0640984 2.71424 0
M  V30 7592 C 778.705 2.6378 2.44843 0
M  V30 7593 C 778.313 4.05102 1.91301 0
M  V30 7594 C 780.057 2.769 3.21755 0
M  V30 7595 C 777.964 5.10508 2.98557 0
M  V30 7596 H 776.894 0.557219 0.507959 0
M  V30 7597 H 779.545 1.72046 0.638147 0
M  V30 7598 H 777.927 2.34774 3.189 0
M  V30 7599 H 779.101 4.43836 1.2388 0
M  V30 7600 H 777.416 3.96528 1.271 0
M  V30 7601 H 780.013 3.52819 4.01775 0
M  V30 7602 H 780.356 1.83924 3.73467 0
M  V30 7603 H 780.889 3.05485 2.54802 0
M  V30 7604 H 777.628 6.0523 2.51749 0
M  V30 7605 H 777.148 4.76332 3.6451 0
M  V30 7606 H 778.827 5.35745 3.62748 0
M  V30 7607 N 778.959 -0.83999 1.33349 0
M  V30 7608 C 780.207 -1.59202 1.24496 0
M  V30 7609 C 780.528 -1.94077 -0.189499 0
M  V30 7610 O 779.798 -1.60868 -1.11796 0
M  V30 7611 H 778.378 -0.590276 0.457802 0
M  V30 7612 H 781.04 -1.00394 1.67054 0
M  V30 7613 H 780.136 -2.52247 1.83788 0
M  V30 7614 N 780.437 -1.16799 -1.0581 0
M  V30 7615 C 781.4 -0.881396 -2.11575 0
M  V30 7616 C 782.4 0.12574 -1.60308 0
M  V30 7617 O 783.59 -0.105716 -1.73879 0
M  V30 7618 C 780.722 -0.319037 -3.39404 0
M  V30 7619 H 781.915 -1.81907 -2.38432 0
M  V30 7620 H 779.468 -0.977597 -1.21954 0
M  V30 7621 H 780.203 0.626082 -3.18199 0
M  V30 7622 H 779.988 -1.04481 -3.77923 0
M  V30 7623 H 781.478 -0.13663 -4.17376 0
M  V30 7624 N 781.915 1.24427 -0.967243 0
M  V30 7625 C 782.847 2.24641 -0.454856 0
M  V30 7626 C 783.86 1.56849 0.436152 0
M  V30 7627 O 785.049 1.76846 0.242401 0
M  V30 7628 C 782.149 3.36954 0.362672 0
M  V30 7629 C 781.322 4.34318 -0.518324 0
M  V30 7630 C 780.381 5.25638 0.243122 0
M  V30 7631 O 779.407 5.68043 -0.362791 0
M  V30 7632 N 780.609 5.59897 1.53282 0
M  V30 7633 H 783.374 2.69238 -1.31648 0
M  V30 7634 H 780.935 1.38464 -0.839015 0
M  V30 7635 H 782.927 3.95014 0.880094 0
M  V30 7636 H 781.497 2.91646 1.12522 0
M  V30 7637 H 780.717 3.74953 -1.21672 0
M  V30 7638 H 782.005 4.96338 -1.11919 0
M  V30 7639 H 781.403 5.27373 2.04682 0
M  V30 7640 H 779.96 6.20488 1.99594 0
M  V30 7641 N 783.393 0.737304 1.3929 0
M  V30 7642 C 784.641 0.285691 2.00071 0
M  V30 7643 C 784.962 -1.13169 1.58801 0
M  V30 7644 O 784.232 -1.77104 0.837308 0
M  V30 7645 H 782.812 0.102638 0.739915 0
M  V30 7646 H 785.474 0.947775 1.70303 0
M  V30 7647 H 784.57 0.335906 3.10287 0
M  V30 7648 N 784.871 -1.49948 0.485112 0
M  V30 7649 C 786.099 -2.06806 -0.0622824 0
M  V30 7650 C 786.514 -1.34736 -1.32256 0
M  V30 7651 O 785.871 -0.420836 -1.77582 0
M  V30 7652 C 785.922 -3.59934 -0.336096 0
M  V30 7653 O 785.643 -4.29289 0.874203 0
M  V30 7654 C 787.144 -4.33459 -0.928903 0
M  V30 7655 H 784.364 -0.670867 0.0133472 0
M  V30 7656 H 786.908 -1.92937 0.677917 0
M  V30 7657 H 785.063 -3.7356 -1.02625 0
M  V30 7658 H 785.477 -5.20735 0.627332 0
M  V30 7659 H 786.951 -5.41527 -1.07017 0
M  V30 7660 H 787.428 -3.94881 -1.92265 0
M  V30 7661 H 788.034 -4.24399 -0.276705 0
M  V30 7662 N 786.349 -0.21828 -1.56081 0
M  V30 7663 C 787.598 0.414644 -1.97392 0
M  V30 7664 C 787.911 1.61132 -1.10887 0
M  V30 7665 O 789.117 2.31355 -1.42082 0
M  V30 7666 C 787.573 0.789099 -3.51143 0
M  V30 7667 C 787.181 -0.384578 -4.46346 0
M  V30 7668 C 788.925 1.38781 -4.01173 0
M  V30 7669 C 786.832 0.0121288 -5.91399 0
M  V30 7670 H 785.762 0.158691 -0.737111 0
M  V30 7671 H 788.413 -0.313974 -1.80794 0
M  V30 7672 H 786.795 1.57505 -3.6333 0
M  V30 7673 H 787.969 -1.16212 -4.45905 0
M  V30 7674 H 786.284 -0.896306 -4.06639 0
M  V30 7675 H 788.881 1.69746 -5.07041 0
M  V30 7676 H 789.224 2.30245 -3.46833 0
M  V30 7677 H 789.757 0.665364 -3.92196 0
M  V30 7678 H 786.496 -0.868917 -6.49715 0
M  V30 7679 H 786.016 0.754053 -5.95041 0
M  V30 7680 H 787.695 0.439949 -6.45502 0
M  V30 7681 N 787.827 1.57504 0.0551401 0
M  V30 7682 C 789.052 1.92682 0.767352 0
M  V30 7683 C 789.477 0.81614 1.69472 0
M  V30 7684 O 788.835 -0.229989 1.79835 0
M  V30 7685 C 788.883 3.26866 1.52286 0
M  V30 7686 O 787.987 3.17274 2.63459 0
M  V30 7687 H 787.328 0.630502 0.208238 0
M  V30 7688 H 789.858 2.04592 0.0184026 0
M  V30 7689 H 789.868 3.61138 1.8985 0
M  V30 7690 H 788.543 4.07276 0.842541 0
M  V30 7691 H 787.12 2.94589 2.2863 0
M  V30 7692 N 789.305 -0.326896 1.54172 0
M  V30 7693 C 790.235 -1.40741 1.86317 0
M  V30 7694 C 791.216 -1.54125 0.719684 0
M  V30 7695 O 792.401 -1.6806 0.973117 0
M  V30 7696 C 789.531 -2.77557 2.08757 0
M  V30 7697 C 788.485 -2.78965 3.24596 0
M  V30 7698 C 787.811 -4.18824 3.32401 0
M  V30 7699 C 789.111 -2.4301 4.62324 0
M  V30 7700 H 790.805 -1.14088 2.76811 0
M  V30 7701 H 788.351 -0.547389 1.3319 0
M  V30 7702 H 790.304 -3.53209 2.29829 0
M  V30 7703 H 789.028 -3.0568 1.15009 0
M  V30 7704 H 787.687 -2.05767 3.03406 0
M  V30 7705 H 787.335 -4.44083 2.36218 0
M  V30 7706 H 787.035 -4.20673 4.10253 0
M  V30 7707 H 788.559 -4.96294 3.55703 0
M  V30 7708 H 789.973 -3.08375 4.83299 0
M  V30 7709 H 788.37 -2.56116 5.42701 0
M  V30 7710 H 789.44 -1.38165 4.64799 0
M  V30 7711 N 790.784 -1.46188 -0.588786 0
M  V30 7712 C 792.009 -1.5498 -1.37826 0
M  V30 7713 C 792.434 -0.189498 -1.87143 0
M  V30 7714 O 791.792 0.829293 -1.61222 0
M  V30 7715 C 791.84 -2.55369 -2.54596 0
M  V30 7716 O 790.944 -2.08452 -3.55839 0
M  V30 7717 H 790.285 -0.521741 -0.41071 0
M  V30 7718 H 792.815 -1.91708 -0.714779 0
M  V30 7719 H 792.825 -2.74782 -3.01594 0
M  V30 7720 H 791.5 -3.54155 -2.18052 0
M  V30 7721 H 790.077 -1.98999 -3.15363 0
M  V30 7722 N 792.262 0.832906 -1.33792 0
M  V30 7723 C 793.678 1.1245 -1.13257 0
M  V30 7724 C 793.878 2.01369 0.0725832 0
M  V30 7725 O 792.934 2.41071 0.751082 0
M  V30 7726 C 794.247 1.78084 -2.42294 0
M  V30 7727 C 795.795 1.90624 -2.48257 0
M  V30 7728 C 796.27 2.59673 -3.77271 0
M  V30 7729 N 797.761 2.67181 -3.78376 0
M  V30 7730 C 798.496 3.21313 -4.74916 0
M  V30 7731 N 797.992 3.76086 -5.81835 0
M  V30 7732 N 799.785 3.19621 -4.62384 0
M  V30 7733 H 791.936 0.241244 -2.11026 0
M  V30 7734 H 794.199 0.169557 -0.932713 0
M  V30 7735 H 793.905 1.20209 -3.30519 0
M  V30 7736 H 793.779 2.78049 -2.5489 0
M  V30 7737 H 796.166 2.4765 -1.60478 0
M  V30 7738 H 796.247 0.89591 -2.39598 0
M  V30 7739 H 795.891 2.03304 -4.65435 0
M  V30 7740 H 795.821 3.61189 -3.8321 0
M  V30 7741 H 798.312 2.28346 -3.01108 0
M  V30 7742 H 798.625 4.15612 -6.51526 0
M  V30 7743 H 796.97 3.74357 -5.85561 0
M  V30 7744 H 800.161 2.76091 -3.7801 0
M  V30 7745 H 800.334 3.61504 -5.37791 0
M  V30 7746 N 793.74 1.17359 1.05189 0
M  V30 7747 C 794.965 0.98709 1.82404 0
M  V30 7748 C 795.39 -0.459848 1.82392 0
M  V30 7749 O 794.748 -1.32924 1.23292 0
M  V30 7750 C 794.796 1.53276 3.26403 0
M  V30 7751 O 793.9 0.746541 4.05587 0
M  V30 7752 H 793.241 0.35047 0.563974 0
M  V30 7753 H 795.771 1.55856 1.32552 0
M  V30 7754 H 795.781 1.55504 3.77203 0
M  V30 7755 H 794.456 2.58603 3.25726 0
M  V30 7756 H 793.033 0.795671 3.64312 0
M  V30 7757 N 795.218 -1.23913 0.973828 0
M  V30 7758 C 796.181 -2.23367 0.51378 0
M  V30 7759 C 797.181 -1.55923 -0.39302 0
M  V30 7760 O 798.371 -1.73187 -0.187626 0
M  V30 7761 C 795.503 -3.39944 -0.255152 0
M  V30 7762 H 796.696 -2.65581 1.39307 0
M  V30 7763 H 794.249 -1.36632 0.759039 0
M  V30 7764 H 794.984 -3.03177 -1.15127 0
M  V30 7765 H 794.769 -3.90098 0.395673 0
M  V30 7766 H 796.259 -4.13749 -0.565842 0
M  V30 7767 N 796.696 -0.74468 -1.38897 0
M  V30 7768 C 798.112 -0.421302 -1.53939 0
M  V30 7769 C 798.312 1.06668 -1.70951 0
M  V30 7770 O 797.368 1.85278 -1.71547 0
M  V30 7771 C 798.681 -1.21278 -2.75159 0
M  V30 7772 C 800.229 -1.20196 -2.89001 0
M  V30 7773 C 800.704 -1.97621 -4.13171 0
M  V30 7774 N 802.195 -1.94836 -4.2023 0
M  V30 7775 C 802.93 -2.51545 -5.15279 0
M  V30 7776 N 802.426 -3.1693 -6.16058 0
M  V30 7777 N 804.219 -2.41524 -5.07565 0
M  V30 7778 H 796.37 -1.70914 -1.26103 0
M  V30 7779 H 798.633 -0.724058 -0.611919 0
M  V30 7780 H 798.339 -2.26609 -2.68963 0
M  V30 7781 H 798.213 -0.823677 -3.68097 0
M  V30 7782 H 800.6 -0.156742 -2.94683 0
M  V30 7783 H 800.681 -1.63051 -1.97099 0
M  V30 7784 H 800.325 -3.02149 -4.0825 0
M  V30 7785 H 800.255 -1.52166 -5.04136 0
M  V30 7786 H 802.746 -1.4721 -3.48048 0
M  V30 7787 H 803.059 -3.57644 -6.85062 0
M  V30 7788 H 801.404 -3.21023 -6.16417 0
M  V30 7789 H 804.595 -1.90077 -4.27771 0
M  V30 7790 H 804.768 -2.86016 -5.81462 0
M  V30 7791 N 798.174 1.49689 -0.493057 0
M  V30 7792 C 799.451 1.9525 0.116907 0
M  V30 7793 C 799.831 1.43429 1.54892 0
M  V30 7794 O 799.179 0.644621 2.19219 0
M  V30 7795 C 799.389 3.4898 0.037705 0
M  V30 7796 C 800.737 4.24052 0.215621 0
M  V30 7797 O 801.761 3.5602 0.113266 0
M  V30 7798 O 800.62 5.44847 0.42477 0
M  V30 7799 H 797.714 0.820973 0.099662 0
M  V30 7800 H 800.26 1.60367 -0.555029 0
M  V30 7801 H 799.032 3.79309 -0.961251 0
M  V30 7802 H 798.655 3.9046 0.750137 0
M  V30 7803 N 799.652 0.226554 1.55963 0
M  V30 7804 C 800.584 -0.713907 2.17798 0
M  V30 7805 C 801.597 -1.15387 1.14846 0
M  V30 7806 O 802.786 -1.08416 1.41804 0
M  V30 7807 C 799.886 -1.97945 2.75084 0
M  V30 7808 C 799.059 -1.69424 4.03255 0
M  V30 7809 C 798.118 -2.80734 4.45056 0
M  V30 7810 O 797.144 -2.4899 5.11852 0
M  V30 7811 N 798.346 -4.09797 4.11152 0
M  V30 7812 H 801.111 -0.18494 2.99129 0
M  V30 7813 H 798.672 0.0457346 1.61835 0
M  V30 7814 H 800.664 -2.71611 3.00016 0
M  V30 7815 H 799.234 -2.41876 1.98027 0
M  V30 7816 H 798.454 -0.793767 3.86126 0
M  V30 7817 H 799.742 -1.47806 4.86858 0
M  V30 7818 H 799.14 -4.38429 3.57486 0
M  V30 7819 H 797.697 -4.79992 4.40966 0
M  V30 7820 N 801.13 -1.57531 -0.0467866 0
M  V30 7821 C 802.355 -1.93087 -0.757123 0
M  V30 7822 C 802.78 -0.825116 -1.69037 0
M  V30 7823 O 802.138 0.220449 -1.79955 0
M  V30 7824 C 802.186 -3.27669 -1.5055 0
M  V30 7825 O 801.29 -3.18667 -2.61773 0
M  V30 7826 H 800.631 -0.631597 -0.204892 0
M  V30 7827 H 803.161 -2.04599 -0.00755232 0
M  V30 7828 H 803.171 -3.6214 -1.87932 0
M  V30 7829 H 801.846 -4.07717 -0.820931 0
M  V30 7830 H 800.423 -2.95798 -2.27064 0
M  V30 7831 N 802.608 0.318715 -1.54344 0
M  V30 7832 C 803.855 1.05608 -1.72781 0
M  V30 7833 C 804.183 1.87854 -0.504083 0
M  V30 7834 O 803.438 1.88826 0.51414 0
M  V30 7835 C 803.737 2.00514 -2.95853 0
M  V30 7836 C 803.403 1.34385 -4.30409 0
M  V30 7837 C 802.065 1.16081 -4.66989 0
M  V30 7838 C 804.417 0.869627 -5.13894 0
M  V30 7839 C 801.745 0.490114 -5.84649 0
M  V30 7840 C 804.097 0.212735 -6.32242 0
M  V30 7841 C 802.761 0.0175882 -6.67498 0
M  V30 7842 H 802.031 0.386449 -0.632249 0
M  V30 7843 H 804.678 0.332729 -1.88587 0
M  V30 7844 H 802.983 2.79317 -2.74753 0
M  V30 7845 H 804.68 2.57605 -3.07312 0
M  V30 7846 H 801.27 1.49634 -4.01631 0
M  V30 7847 H 805.454 0.998809 -4.86146 0
M  V30 7848 H 800.71 0.327767 -6.10521 0
M  V30 7849 H 804.884 -0.162699 -6.9621 0
M  V30 7850 H 802.511 -0.504137 -7.58527 0
M  V30 7851 N 804.086 1.46499 0.581025 0
M  V30 7852 C 805.018 1.53225 1.70455 0
M  V30 7853 C 806.031 0.420443 1.57277 0
M  V30 7854 O 807.22 0.688888 1.64671 0
M  V30 7855 C 804.32 1.39803 3.08721 0
M  V30 7856 C 803.493 2.65132 3.47884 0
M  V30 7857 C 802.552 2.45886 4.65217 0
M  V30 7858 O 801.578 3.19615 4.70993 0
M  V30 7859 N 802.78 1.5216 5.60203 0
M  V30 7860 H 805.545 2.50098 1.65139 0
M  V30 7861 H 803.106 1.42576 0.76705 0
M  V30 7862 H 805.098 1.24697 3.8501 0
M  V30 7863 H 803.668 0.51104 3.08394 0
M  V30 7864 H 802.888 2.95169 2.61284 0
M  V30 7865 H 804.176 3.48385 3.70817 0
M  V30 7866 H 803.574 0.913646 5.58273 0
M  V30 7867 H 802.131 1.43017 6.35916 0
M  V30 7868 N 805.565 -0.825799 1.34232 0
M  V30 7869 C 806.515 -1.92533 1.22128 0
M  V30 7870 C 807.499 -1.60444 0.121002 0
M  V30 7871 O 808.691 -1.73497 0.350385 0
M  V30 7872 C 805.82 -3.29134 0.975995 0
M  V30 7873 C 804.906 -3.6735 2.11931 0
M  V30 7874 N 805.297 -3.77154 3.37029 0
M  V30 7875 C 803.595 -3.97179 2.02891 0
M  V30 7876 C 804.296 -4.10552 4.12095 0
M  V30 7877 N 803.272 -4.23619 3.40658 0
M  V30 7878 H 807.074 -1.98287 2.16932 0
M  V30 7879 H 804.588 -1.01929 1.26429 0
M  V30 7880 H 806.585 -4.07717 0.870187 0
M  V30 7881 H 805.245 -3.24679 0.036606 0
M  V30 7882 H 806.256 -3.60723 3.71618 0
M  V30 7883 H 802.933 -4.00861 1.16692 0
M  V30 7884 H 804.323 -4.25365 5.2011 0
M  V30 7885 N 807.043 -1.17915 -1.04565 0
M  V30 7886 C 807.973 -0.925033 -2.14395 0
M  V30 7887 C 808.954 0.135375 -1.6956 0
M  V30 7888 O 810.139 -0.0161774 -1.94193 0
M  V30 7889 C 807.269 -0.444469 -3.44444 0
M  V30 7890 C 806.223 -1.44478 -4.02877 0
M  V30 7891 C 805.549 -0.821933 -5.28345 0
M  V30 7892 C 806.849 -2.81995 -4.39632 0
M  V30 7893 H 808.543 -1.84354 -2.35911 0
M  V30 7894 H 806.089 -0.887806 -1.13375 0
M  V30 7895 H 808.042 -0.254078 -4.20633 0
M  V30 7896 H 806.766 0.509592 -3.226 0
M  V30 7897 H 805.425 -1.62203 -3.28764 0
M  V30 7898 H 805.073 0.139161 -5.02807 0
M  V30 7899 H 804.773 -1.48976 -5.68401 0
M  V30 7900 H 806.297 -0.641959 -6.07216 0
M  V30 7901 H 807.711 -2.67952 -5.06828 0
M  V30 7902 H 806.108 -3.45414 -4.90723 0
M  V30 7903 H 807.178 -3.35927 -3.49687 0
M  V30 7904 N 808.521 1.23394 -0.980386 0
M  V30 7905 C 809.746 1.96384 -0.666935 0
M  V30 7906 C 810.171 1.72087 0.759456 0
M  V30 7907 O 809.529 0.992328 1.51732 0
M  V30 7908 C 809.577 3.47499 -0.963177 0
M  V30 7909 O 808.681 4.12363 -0.0552051 0
M  V30 7910 H 808.022 0.614797 -0.250839 0
M  V30 7911 H 810.552 1.56831 -1.31398 0
M  V30 7912 H 810.562 3.97953 -0.899877 0
M  V30 7913 H 809.237 3.6451 -2.00264 0
M  V30 7914 H 807.814 3.72499 -0.172914 0
M  V30 7915 N 809.999 0.752036 1.385 0
M  V30 7916 C 811.224 0.316993 2.04963 0
M  V30 7917 C 811.649 -1.04582 1.56346 0
M  V30 7918 O 811.007 -1.66616 0.714755 0
M  V30 7919 C 811.055 0.347235 3.58924 0
M  V30 7920 O 810.159 -0.659296 4.07096 0
M  V30 7921 H 809.5 0.140652 0.648932 0
M  V30 7922 H 812.03 1.02272 1.77205 0
M  V30 7923 H 812.04 0.19757 4.07521 0
M  V30 7924 H 810.715 1.34157 3.93668 0
M  V30 7925 H 809.292 -0.474371 3.6987 0
M  V30 7926 N 811.477 -1.49425 0.500989 0
M  V30 7927 C 812.724 -2.02453 -0.0435355 0
M  V30 7928 C 813.052 -1.38067 -1.36995 0
M  V30 7929 O 812.307 -0.505557 -1.89057 0
M  V30 7930 C 812.606 -3.56562 -0.24463 0
M  V30 7931 C 812.272 -4.39585 1.00379 0
M  V30 7932 C 810.934 -4.61992 1.346 0
M  V30 7933 C 813.286 -4.87881 1.83361 0
M  V30 7934 C 810.614 -5.2994 2.51755 0
M  V30 7935 C 812.966 -5.57119 2.99669 0
M  V30 7936 C 811.63 -5.77771 3.3427 0
M  V30 7937 H 810.9 -0.740829 -0.0159308 0
M  V30 7938 H 813.547 -1.79725 0.661143 0
M  V30 7939 H 811.852 -3.77969 -1.03183 0
M  V30 7940 H 813.549 -3.95185 -0.6804 0
M  V30 7941 H 810.139 -4.22385 0.727225 0
M  V30 7942 H 814.323 -4.70398 1.58237 0
M  V30 7943 H 809.579 -5.44133 2.788 0
M  V30 7944 H 813.753 -5.93516 3.64296 0
M  V30 7945 H 811.38 -6.30197 4.25154 0
M  V30 7946 N 812.955 -0.234822 -1.55841 0
M  V30 7947 C 814.366 0.270588 -1.84729 0
M  V30 7948 C 814.717 1.58494 -1.15646 0
M  V30 7949 O 813.842 2.12071 -0.430667 0
M  V30 7950 C 814.437 0.497733 -3.35124 0
M  V30 7951 C 812.996 0.947428 -3.64281 0
M  V30 7952 C 812.143 0.01787 -2.77294 0
M  V30 7953 H 815.094 -0.457691 -1.51957 0
M  V30 7954 H 815.115 1.34199 -3.56049 0
M  V30 7955 H 814.627 -0.459037 -3.85376 0
M  V30 7956 H 812.728 1.91709 -3.19497 0
M  V30 7957 H 812.841 0.812651 -4.72158 0
M  V30 7958 H 811.205 0.527071 -2.49187 0
M  V30 7959 H 811.988 -0.934056 -3.30349 0
M  V30 7960 N 814.433 1.57553 0.0384317 0
M  V30 7961 C 815.844 1.77258 0.586211 0
M  V30 7962 C 816.195 0.864706 1.76117 0
M  V30 7963 O 815.32 0.057141 2.16325 0
M  V30 7964 C 815.915 3.21453 1.07021 0
M  V30 7965 C 814.474 3.42387 1.56358 0
M  V30 7966 C 813.621 2.72801 0.497508 0
M  V30 7967 H 816.572 1.57585 -0.187796 0
M  V30 7968 H 816.593 3.27451 1.93794 0
M  V30 7969 H 816.105 3.87505 0.214851 0
M  V30 7970 H 814.206 2.81497 2.44111 0
M  V30 7971 H 814.319 4.50968 1.61754 0
M  V30 7972 H 812.683 2.36305 0.95038 0
M  V30 7973 H 813.466 3.41529 -0.348234 0
M  V30 7974 N 815.911 -0.310526 1.54511 0
M  V30 7975 C 817.157 -1.04846 1.73595 0
M  V30 7976 C 817.49 -1.87244 0.515118 0
M  V30 7977 O 816.765 -1.88282 -0.48786 0
M  V30 7978 C 817.048 -1.96237 3.01932 0
M  V30 7979 C 816.901 -1.17082 4.34295 0
M  V30 7980 C 818.22 -2.9556 3.26086 0
M  V30 7981 H 815.339 -0.37976 0.631626 0
M  V30 7982 H 817.981 -0.32394 1.87218 0
M  V30 7983 H 816.131 -2.58015 2.90449 0
M  V30 7984 H 817.803 -0.576643 4.57682 0
M  V30 7985 H 816.046 -0.473336 4.3121 0
M  V30 7986 H 816.717 -1.84257 5.20339 0
M  V30 7987 H 819.193 -2.43908 3.37117 0
M  V30 7988 H 818.069 -3.5668 4.17218 0
M  V30 7989 H 818.33 -3.68715 2.4393 0
M  V30 7990 N 817.389 -1.46805 -0.573248 0
M  V30 7991 C 818.337 -1.58468 -1.70267 0
M  V30 7992 C 819.331 -0.452694 -1.63239 0
M  V30 7993 O 820.537 -0.629915 -1.68618 0
M  V30 7994 H 816.912 -0.498408 -0.56311 0
M  V30 7995 H 818.883 -2.5341 -1.57563 0
M  V30 7996 C 817.632 -1.60104 -3.08645 0
M  V30 7997 H 816.955 -2.4655 -3.14727 0
M  V30 7998 H 818.395 -1.72318 -3.87405 0
M  V30 7999 C 816.854 -0.33138 -3.35266 0
M  V30 8000 O 817.384 0.57438 -3.97572 0
M  V30 8001 N 815.59 -0.216358 -2.89793 0
M  V30 8002 H 815.137 -0.954345 -2.3927 0
M  V30 8003 H 815.095 0.632253 -3.07977 0
M  V30 8004 N 818.867 0.818669 -1.34668 0
M  V30 8005 C 820.095 1.60674 -1.30351 0
M  V30 8006 C 820.51 1.88408 0.121546 0
M  V30 8007 O 819.867 1.47849 1.06991 0
M  V30 8008 C 819.918 2.94516 -2.09625 0
M  V30 8009 O 819.639 2.6799 -3.46573 0
M  V30 8010 C 821.14 3.8891 -2.12754 0
M  V30 8011 H 818.36 0.499306 -0.448258 0
M  V30 8012 H 820.904 1.01828 -1.77345 0
M  V30 8013 H 819.059 3.49908 -1.66262 0
M  V30 8014 H 819.473 3.53361 -3.87603 0
M  V30 8015 H 820.947 4.79972 -2.72637 0
M  V30 8016 H 821.424 4.24599 -1.12306 0
M  V30 8017 H 822.03 3.39453 -2.56225 0
M  V30 8018 N 820.346 1.18468 1.03938 0
M  V30 8019 C 821.276 0.936389 2.13902 0
M  V30 8020 C 822.257 -0.126381 1.6963 0
M  V30 8021 O 823.442 0.0264757 1.94182 0
M  V30 8022 C 820.572 0.462729 3.44204 0
M  V30 8023 C 819.526 1.46613 4.02105 0
M  V30 8024 C 818.852 0.84994 5.27902 0
M  V30 8025 C 820.152 2.84323 4.3813 0
M  V30 8026 H 821.846 1.85602 2.3493 0
M  V30 8027 H 819.392 0.893806 1.12903 0
M  V30 8028 H 821.345 0.276382 4.20493 0
M  V30 8029 H 820.069 -0.492477 3.22866 0
M  V30 8030 H 818.728 1.63944 3.27899 0
M  V30 8031 H 818.376 -0.112493 5.02874 0
M  V30 8032 H 818.076 1.51988 5.67603 0
M  V30 8033 H 819.6 0.674152 6.06867 0
M  V30 8034 H 821.014 2.70636 5.054 0
M  V30 8035 H 819.411 3.48012 4.88884 0
M  V30 8036 H 820.481 3.37776 3.47901 0
M  V30 8037 N 821.824 -1.22873 0.986916 0
M  V30 8038 C 823.07 -1.91746 0.660401 0
M  V30 8039 C 823.403 -1.76738 -0.804812 0
M  V30 8040 O 822.678 -1.13246 -1.58131 0
M  V30 8041 C 822.961 -3.44156 1.05966 0
M  V30 8042 C 822.814 -3.68242 2.58298 0
M  V30 8043 C 824.133 -4.35874 0.60842 0
M  V30 8044 H 821.252 -0.696347 0.241391 0
M  V30 8045 H 823.894 -1.44867 1.22937 0
M  V30 8046 H 822.044 -3.84213 0.575534 0
M  V30 8047 H 823.716 -3.37626 3.14335 0
M  V30 8048 H 821.959 -3.12728 3.00638 0
M  V30 8049 H 822.63 -4.74956 2.81285 0
M  V30 8050 H 825.106 -4.03299 1.02417 0
M  V30 8051 H 823.982 -5.41201 0.916142 0
M  V30 8052 H 824.243 -4.39364 -0.491086 0
M  V30 8053 N 823.302 -0.75937 -1.38099 0
M  V30 8054 C 824.212 -0.13774 -2.34195 0
M  V30 8055 C 825.228 0.693985 -1.59561 0
M  V30 8056 O 826.404 0.616792 -1.91723 0
M  V30 8057 C 823.469 0.740535 -3.38699 0
M  V30 8058 C 822.53 -0.106225 -4.29169 0
M  V30 8059 C 821.763 0.730225 -5.28681 0
M  V30 8060 O 821.986 1.96796 -5.35376 0
M  V30 8061 O 820.92 0.145969 -6.01723 0
M  V30 8062 H 824.746 -0.931512 -2.89061 0
M  V30 8063 H 822.331 -0.520345 -1.40046 0
M  V30 8064 H 824.213 1.24232 -4.02672 0
M  V30 8065 H 822.888 1.51271 -2.8618 0
M  V30 8066 H 821.795 -0.654088 -3.68337 0
M  V30 8067 H 823.128 -0.841186 -4.84959 0
M  V30 8068 N 824.78 1.49157 -0.508906 0
M  V30 8069 C 826.005 2.07376 0.0315182 0
M  V30 8070 C 826.43 1.36575 1.2934 0
M  V30 8071 O 825.788 0.424963 1.76249 0
M  V30 8072 C 825.836 3.59661 0.260118 0
M  V30 8073 O 824.94 3.90255 1.33322 0
M  V30 8074 H 824.281 0.663334 -0.029739 0
M  V30 8075 H 826.811 1.91857 -0.710791 0
M  V30 8076 H 826.821 4.05056 0.489225 0
M  V30 8077 H 825.496 4.10601 -0.661794 0
M  V30 8078 H 824.073 3.56661 1.08844 0
M  V30 8079 N 826.258 0.243083 1.55714 0
M  V30 8080 C 827.504 -0.376428 1.99886 0
M  V30 8081 C 827.859 -1.55843 1.12831 0
M  V30 8082 O 827.152 -1.90724 0.182996 0
M  V30 8083 C 827.346 -0.839621 3.47398 0
M  V30 8084 C 827.175 0.295954 4.48725 0
M  V30 8085 C 825.945 0.769392 4.99408 0
M  V30 8086 C 828.143 1.12165 5.0192 0
M  V30 8087 N 826.125 1.87778 5.84477 0
M  V30 8088 C 827.496 2.07848 5.84123 0
M  V30 8089 C 829.551 1.15864 4.84231 0
M  V30 8090 C 828.254 3.06937 6.50524 0
M  V30 8091 C 830.28 2.13782 5.51409 0
M  V30 8092 C 829.642 3.08202 6.33396 0
M  V30 8093 H 825.741 -0.103809 0.775079 0
M  V30 8094 H 828.325 0.359788 1.91347 0
M  V30 8095 H 826.496 -1.54514 3.56343 0
M  V30 8096 H 828.228 -1.43376 3.78451 0
M  V30 8097 H 824.983 0.354201 4.72274 0
M  V30 8098 H 825.407 2.43462 6.31708 0
M  V30 8099 H 830.049 0.442532 4.20478 0
M  V30 8100 H 827.767 3.79499 7.13447 0
M  V30 8101 H 831.353 2.17345 5.39678 0
M  V30 8102 H 830.233 3.82732 6.8446 0
M  V30 8103 N 827.736 -1.57571 -0.0300757 0
M  V30 8104 C 828.683 -2.06492 -1.03101 0
M  V30 8105 C 829.653 -0.953862 -1.3598 0
M  V30 8106 O 830.838 -1.22436 -1.46335 0
M  V30 8107 C 827.978 -2.54826 -2.32718 0
M  V30 8108 C 827.091 -3.79718 -2.06006 0
M  V30 8109 C 826.226 -4.16668 -3.29487 0
M  V30 8110 C 825.265 -5.3448 -2.98324 0
M  V30 8111 N 824.402 -5.66867 -4.14254 0
M  V30 8112 H 829.242 -2.91755 -0.606877 0
M  V30 8113 H 826.779 -1.44252 -0.288038 0
M  V30 8114 H 828.737 -2.80916 -3.08451 0
M  V30 8115 H 827.367 -1.72481 -2.72856 0
M  V30 8116 H 826.419 -3.60718 -1.20774 0
M  V30 8117 H 827.731 -4.65569 -1.79017 0
M  V30 8118 H 826.885 -4.43881 -4.13588 0
M  V30 8119 H 825.624 -3.29466 -3.59588 0
M  V30 8120 H 824.629 -5.07021 -2.12625 0
M  V30 8121 H 825.854 -6.23334 -2.69502 0
M  V30 8122 H 823.8 -4.82625 -4.44308 0
M  V30 8123 H 823.717 -6.47226 -3.90685 0
M  V30 8124 H 824.985 -5.98656 -4.99231 0
M  V30 8125 N 829.214 0.302327 -1.54673 0
M  V30 8126 C 830.439 1.06103 -1.78205 0
M  V30 8127 C 830.864 1.80204 -0.53926 0
M  V30 8128 O 830.222 1.73975 0.510142 0
M  V30 8129 C 830.27 2.01829 -2.98827 0
M  V30 8130 O 829.374 3.10108 -2.71858 0
M  V30 8131 H 828.715 0.30487 -0.589873 0
M  V30 8132 H 831.245 0.340153 -2.01753 0
M  V30 8133 H 831.255 2.44319 -3.2676 0
M  V30 8134 H 829.93 1.473 -3.88942 0
M  V30 8135 H 828.507 2.72142 -2.54937 0
M  V30 8136 N 830.692 1.47107 0.565454 0
M  V30 8137 C 831.642 1.55384 1.66852 0
M  V30 8138 C 832.626 0.413369 1.55499 0
M  V30 8139 O 833.818 0.66281 1.64121 0
M  V30 8140 C 830.947 1.5634 3.05635 0
M  V30 8141 C 830.033 2.75742 3.22222 0
M  V30 8142 N 830.424 4.00515 3.08903 0
M  V30 8143 C 828.722 2.7233 3.53203 0
M  V30 8144 C 829.423 4.80435 3.27959 0
M  V30 8145 N 828.399 4.1261 3.53913 0
M  V30 8146 H 832.201 2.49635 1.55111 0
M  V30 8147 H 829.715 1.42986 0.769982 0
M  V30 8148 H 831.712 1.60359 3.84825 0
M  V30 8149 H 830.372 0.631785 3.18494 0
M  V30 8150 H 831.383 4.31501 2.86404 0
M  V30 8151 H 828.06 1.8827 3.7264 0
M  V30 8152 H 829.45 5.89334 3.22699 0
M  V30 8153 N 832.17 -0.811516 1.35101 0
M  V30 8154 C 833.418 -1.56525 1.27845 0
M  V30 8155 C 833.739 -1.94435 -0.14829 0
M  V30 8156 O 833.009 -1.63203 -1.08359 0
M  V30 8157 H 831.589 -0.580433 0.47022 0
M  V30 8158 H 834.251 -0.968277 1.69146 0
M  V30 8159 H 833.347 -2.48291 1.89097 0
M  V30 8160 N 833.648 -1.19017 -1.03309 0
M  V30 8161 C 834.925 -0.899659 -1.73682 0
M  V30 8162 C 835.305 0.595677 -2.02521 0
M  V30 8163 O 834.653 1.55263 -1.67648 0
M  V30 8164 C 834.863 -1.75508 -3.01659 0
M  V30 8165 C 836.211 -1.98679 -3.75249 0
M  V30 8166 O 837.235 -1.72624 -3.11576 0
M  V30 8167 O 836.094 -2.42587 -4.89708 0
M  V30 8168 H 833.188 -0.334903 -0.756154 0
M  V30 8169 H 835.734 -1.29809 -1.09305 0
M  V30 8170 H 834.506 -2.7684 -2.76542 0
M  V30 8171 H 834.129 -1.35565 -3.73775 0
M  V30 8172 N 835.127 1.22348 -0.993418 0
M  V30 8173 C 836.057 2.26584 -0.564088 0
M  V30 8174 C 837.038 1.65102 0.409298 0
M  V30 8175 O 838.223 1.91872 0.299819 0
M  V30 8176 C 835.353 3.47087 0.121554 0
M  V30 8177 C 834.307 4.21009 -0.770429 0
M  V30 8178 C 833.633 5.34678 0.0481586 0
M  V30 8179 C 834.933 4.79636 -2.06752 0
M  V30 8180 H 836.627 2.62749 -1.43538 0
M  V30 8181 H 834.173 1.26303 -0.691628 0
M  V30 8182 H 836.126 4.19166 0.433303 0
M  V30 8183 H 834.85 3.1002 1.0274 0
M  V30 8184 H 833.509 3.50764 -1.06583 0
M  V30 8185 H 833.157 4.93852 0.954933 0
M  V30 8186 H 832.857 5.85061 -0.545641 0
M  V30 8187 H 834.381 6.09573 0.353991 0
M  V30 8188 H 835.795 5.43654 -1.81969 0
M  V30 8189 H 834.192 5.4036 -2.61019 0
M  V30 8190 H 835.262 3.99659 -2.74592 0
M  V30 8191 N 836.605 0.766683 1.37694 0
M  V30 8192 C 837.83 0.338715 2.04615 0
M  V30 8193 C 838.255 -1.02918 1.57447 0
M  V30 8194 O 837.613 -1.65849 0.732386 0
M  V30 8195 C 837.661 0.385284 3.58536 0
M  V30 8196 O 836.765 -0.616081 4.07772 0
M  V30 8197 H 836.106 0.147527 0.647404 0
M  V30 8198 H 838.636 1.04146 1.7611 0
M  V30 8199 H 838.646 0.240782 4.07289 0
M  V30 8200 H 837.321 1.38325 3.92223 0
M  V30 8201 H 835.898 -0.435115 3.70353 0
M  V30 8202 N 838.083 -1.48885 0.516809 0
M  V30 8203 C 839.308 -2.0739 -0.0205201 0
M  V30 8204 C 839.733 -1.37259 -1.28614 0
M  V30 8205 O 839.091 -0.434304 -1.76021 0
M  V30 8206 C 839.139 -3.59793 -0.24104 0
M  V30 8207 O 838.243 -3.90957 -1.31251 0
M  V30 8208 H 837.584 -0.663167 0.0332564 0
M  V30 8209 H 840.114 -1.91477 0.720956 0
M  V30 8210 H 840.124 -4.0531 -0.467737 0
M  V30 8211 H 838.799 -4.10244 0.68356 0
M  V30 8212 H 837.376 -3.57234 -1.06951 0
M  V30 8213 N 839.561 -0.251338 -1.55583 0
M  V30 8214 C 840.977 0.103409 -1.59265 0
M  V30 8215 C 841.177 1.56559 -1.26852 0
M  V30 8216 O 840.233 2.31071 -1.01796 0
M  V30 8217 C 841.546 -0.249781 -2.99661 0
M  V30 8218 C 843.094 -0.194442 -3.12395 0
M  V30 8219 C 843.569 -0.521728 -4.55019 0
M  V30 8220 N 845.06 -0.472393 -4.60785 0
M  V30 8221 C 845.795 -0.698737 -5.69127 0
M  V30 8222 N 845.291 -0.988443 -6.85713 0
M  V30 8223 N 847.084 -0.629143 -5.58568 0
M  V30 8224 H 839.235 -1.20484 -1.74921 0
M  V30 8225 H 841.498 -0.485092 -0.814488 0
M  V30 8226 H 841.204 -1.26577 -3.28133 0
M  V30 8227 H 841.078 0.420973 -3.74844 0
M  V30 8228 H 843.465 0.812229 -2.83702 0
M  V30 8229 H 843.546 -0.899111 -2.39478 0
M  V30 8230 H 843.19 -1.52597 -4.84434 0
M  V30 8231 H 843.12 0.204468 -5.26203 0
M  V30 8232 H 845.611 -0.257386 -3.77022 0
M  V30 8233 H 845.924 -1.14846 -7.64219 0
M  V30 8234 H 844.269 -1.02596 -6.87386 0
M  V30 8235 H 847.46 -0.402826 -4.66364 0
M  V30 8236 H 847.633 -0.808935 -6.42931 0
M  V30 8237 N 841.039 1.57585 0.0217189 0
M  V30 8238 C 842.455 1.55072 0.377484 0
M  V30 8239 C 842.655 0.978423 1.76151 0
M  V30 8240 O 841.711 0.602688 2.45202 0
M  V30 8241 C 843.024 2.99462 0.272605 0
M  V30 8242 C 844.572 3.11047 0.349148 0
M  V30 8243 C 845.047 4.57182 0.273636 0
M  V30 8244 N 846.538 4.62007 0.332206 0
M  V30 8245 C 847.273 5.72631 0.296782 0
M  V30 8246 N 846.769 6.92472 0.21322 0
M  V30 8247 N 848.562 5.61028 0.347053 0
M  V30 8248 H 840.713 1.93133 -0.883925 0
M  V30 8249 H 842.976 0.886151 -0.33681 0
M  V30 8250 H 842.682 3.45088 -0.67878 0
M  V30 8251 H 842.556 3.61901 1.06335 0
M  V30 8252 H 844.943 2.65364 1.29097 0
M  V30 8253 H 845.024 2.51425 -0.471085 0
M  V30 8254 H 844.668 5.03534 -0.664548 0
M  V30 8255 H 844.598 5.14724 1.11207 0
M  V30 8256 H 847.089 3.75788 0.399003 0
M  V30 8257 H 847.402 7.72563 0.191492 0
M  V30 8258 H 845.747 6.94769 0.179161 0
M  V30 8259 H 848.938 4.66298 0.410378 0
M  V30 8260 H 849.111 6.47229 0.315979 0
M  V30 8261 N 842.517 -0.29412 1.54831 0
M  V30 8262 C 843.742 -1.05156 1.78765 0
M  V30 8263 C 844.167 -1.79916 0.548809 0
M  V30 8264 O 843.525 -1.74243 -0.500909 0
M  V30 8265 C 843.573 -2.00242 2.99893 0
M  V30 8266 O 842.677 -3.08662 2.73499 0
M  V30 8267 H 842.018 -0.301737 0.591482 0
M  V30 8268 H 844.548 -0.329449 2.0193 0
M  V30 8269 H 844.558 -2.42583 3.28051 0
M  V30 8270 H 843.233 -1.45235 3.89717 0
M  V30 8271 H 841.81 -2.70786 2.56377 0
M  V30 8272 N 843.995 -1.47404 -0.557645 0
M  V30 8273 C 845.272 -1.44488 -1.31843 0
M  V30 8274 C 845.652 -0.1416 -2.10625 0
M  V30 8275 O 845 0.876908 -2.11004 0
M  V30 8276 C 845.21 -2.69016 -2.22331 0
M  V30 8277 C 846.558 -3.16212 -2.83364 0
M  V30 8278 O 847.582 -2.69741 -2.32634 0
M  V30 8279 O 846.441 -3.96999 -3.75571 0
M  V30 8280 H 843.535 -0.57578 -0.593639 0
M  V30 8281 H 846.081 -1.59605 -0.576584 0
M  V30 8282 H 844.853 -3.55406 -1.63715 0
M  V30 8283 H 844.476 -2.56484 -3.03812 0
M  V30 8284 N 845.473 0.80434 -1.35529 0
M  V30 8285 C 846.721 1.55845 -1.28673 0
M  V30 8286 C 847.042 1.94511 0.137976 0
M  V30 8287 O 846.312 1.63775 1.07492 0
M  V30 8288 H 844.892 0.577931 -0.473291 0
M  V30 8289 H 847.554 0.959293 -1.69657 0
M  V30 8290 H 846.65 2.47285 -1.90411 0
M  V30 8291 N 846.951 1.19563 1.02676 0
M  V30 8292 C 848.181 1.0234 1.79472 0
M  V30 8293 C 848.589 -0.430891 1.84228 0
M  V30 8294 O 847.932 -1.31106 1.28674 0
M  V30 8295 C 847.994 1.51901 3.25832 0
M  V30 8296 C 847.658 3.00045 3.44706 0
M  V30 8297 C 848.655 3.9779 3.34752 0
M  V30 8298 C 846.34 3.38784 3.70851 0
M  V30 8299 C 848.334 5.32267 3.50672 0
M  V30 8300 C 846.021 4.73419 3.86416 0
M  V30 8301 C 847.019 5.69969 3.7633 0
M  V30 8302 O 846.707 7.02165 3.91432 0
M  V30 8303 H 846.439 0.360936 0.571578 0
M  V30 8304 H 848.993 1.58863 1.30198 0
M  V30 8305 H 847.223 0.897546 3.7614 0
M  V30 8306 H 848.912 1.30853 3.84229 0
M  V30 8307 H 849.678 3.69207 3.14502 0
M  V30 8308 H 845.557 2.64183 3.77794 0
M  V30 8309 H 849.101 6.07612 3.42715 0
M  V30 8310 H 844.998 5.01697 4.06165 0
M  V30 8311 H 845.766 7.09268 4.08511 0
M  V30 8312 N 848.429 -1.21819 0.999893 0
M  V30 8313 C 849.84 -1.72517 0.713775 0
M  V30 8314 C 850.191 -1.80505 -0.768922 0
M  V30 8315 O 849.316 -1.45611 -1.60083 0
M  V30 8316 C 849.911 -3.13321 1.28901 0
M  V30 8317 C 848.47 -3.61396 1.05212 0
M  V30 8318 C 847.617 -2.39074 1.40494 0
M  V30 8319 H 850.568 -1.07068 1.17141 0
M  V30 8320 H 850.589 -3.74535 0.671084 0
M  V30 8321 H 850.101 -3.07475 2.36814 0
M  V30 8322 H 848.202 -3.72599 -0.0100732 0
M  V30 8323 H 848.315 -4.47145 1.72042 0
M  V30 8324 H 846.679 -2.41015 0.823642 0
M  V30 8325 H 847.462 -2.35884 2.49427 0
M  V30 8326 N 849.908 -0.773975 -1.37286 0
M  V30 8327 C 851.154 -0.339809 -1.99933 0
M  V30 8328 C 851.487 1.0815 -1.61299 0
M  V30 8329 O 850.762 1.74442 -0.860252 0
M  V30 8330 C 851.045 -0.485919 -3.56806 0
M  V30 8331 C 850.898 -1.9498 -4.05343 0
M  V30 8332 C 852.217 0.108461 -4.39966 0
M  V30 8333 H 849.336 -0.124944 -0.726332 0
M  V30 8334 H 851.978 -0.977433 -1.6293 0
M  V30 8335 H 850.128 0.0569023 -3.88458 0
M  V30 8336 H 851.8 -2.5525 -3.84246 0
M  V30 8337 H 850.043 -2.45784 -3.57453 0
M  V30 8338 H 850.714 -2.00308 -5.14374 0
M  V30 8339 H 853.19 -0.354722 -4.14585 0
M  V30 8340 H 852.066 -0.0238926 -5.48895 0
M  V30 8341 H 852.327 1.19901 -4.25531 0
M  V30 8342 N 851.386 1.48609 -0.524698 0
M  V30 8343 C 852.316 2.32366 0.229837 0
M  V30 8344 C 853.297 1.41759 0.940129 0
M  V30 8345 O 854.482 1.7065 0.926936 0
M  V30 8346 C 851.612 3.22835 1.28043 0
M  V30 8347 C 850.566 4.22424 0.688603 0
M  V30 8348 C 849.892 5.0199 1.84146 0
M  V30 8349 C 851.192 5.21217 -0.336176 0
M  V30 8350 H 852.886 2.95698 -0.469339 0
M  V30 8351 H 850.432 1.42197 -0.227156 0
M  V30 8352 H 852.385 3.80253 1.8162 0
M  V30 8353 H 851.109 2.57492 2.00912 0
M  V30 8354 H 849.768 3.66185 0.174402 0
M  V30 8355 H 849.416 4.33076 2.5584 0
M  V30 8356 H 849.116 5.69392 1.45142 0
M  V30 8357 H 850.64 5.62259 2.38111 0
M  V30 8358 H 852.054 5.7319 0.112307 0
M  V30 8359 H 850.451 5.96642 -0.643324 0
M  V30 8360 H 851.521 4.68676 -1.24381 0
M  V30 8361 N 852.864 0.259585 1.55447 0
M  V30 8362 C 853.774 -0.645026 2.25558 0
M  V30 8363 C 854.79 -1.18291 1.27606 0
M  V30 8364 O 855.966 -1.21649 1.6051 0
M  V30 8365 C 853.031 -1.81964 2.9511 0
M  V30 8366 C 852.092 -1.31997 4.08504 0
M  V30 8367 C 851.325 -2.43861 4.74729 0
M  V30 8368 O 851.548 -3.62876 4.40088 0
M  V30 8369 O 850.482 -2.12898 5.6299 0
M  V30 8370 H 854.308 -0.0775399 3.03601 0
M  V30 8371 H 851.893 0.0275859 1.49375 0
M  V30 8372 H 853.775 -2.50485 3.38873 0
M  V30 8373 H 852.45 -2.37451 2.19997 0
M  V30 8374 H 851.357 -0.601676 3.6923 0
M  V30 8375 H 852.69 -0.811045 4.85472 0
M  V30 8376 N 854.342 -1.57594 -0.0133615 0
M  V30 8377 C 855.572 -1.93969 -0.711295 0
M  V30 8378 C 855.98 -0.859084 -1.68572 0
M  V30 8379 O 855.323 0.171842 -1.82894 0
M  V30 8380 C 855.385 -3.2625 -1.51001 0
M  V30 8381 C 855.049 -4.51628 -0.698645 0
M  V30 8382 C 856.046 -5.19899 0.00791185 0
M  V30 8383 C 853.731 -4.98095 -0.648553 0
M  V30 8384 C 855.725 -6.32928 0.753691 0
M  V30 8385 C 853.412 -6.11017 0.10096 0
M  V30 8386 C 854.41 -6.78289 0.800828 0
M  V30 8387 O 854.098 -7.89048 1.53814 0
M  V30 8388 H 853.83 -0.6445 -0.203951 0
M  V30 8389 H 856.384 -2.05378 0.0298267 0
M  V30 8390 H 854.614 -3.11211 -2.29531 0
M  V30 8391 H 856.303 -3.47835 -2.09202 0
M  V30 8392 H 857.069 -4.84995 -0.0217192 0
M  V30 8393 H 852.948 -4.45568 -1.18282 0
M  V30 8394 H 856.492 -6.85371 1.3005 0
M  V30 8395 H 852.389 -6.45364 0.132459 0
M  V30 8396 H 853.157 -8.05492 1.45345 0
M  V30 8397 N 855.82 0.285905 -1.54985 0
M  V30 8398 C 857.069 1.01691 -1.74189 0
M  V30 8399 C 857.382 1.87908 -0.543135 0
M  V30 8400 O 858.588 2.64389 -0.617305 0
M  V30 8401 C 857.044 1.85785 -3.0824 0
M  V30 8402 C 856.652 1.04497 -4.35642 0
M  V30 8403 C 858.396 2.58393 -3.36798 0
M  V30 8404 C 856.303 1.87955 -5.60738 0
M  V30 8405 H 855.233 0.383396 -0.649248 0
M  V30 8406 H 857.884 0.27317 -1.81455 0
M  V30 8407 H 856.266 2.64205 -2.94978 0
M  V30 8408 H 857.44 0.305847 -4.59784 0
M  V30 8409 H 855.755 0.434023 -4.14132 0
M  V30 8410 H 858.352 3.21214 -4.27464 0
M  V30 8411 H 858.695 3.28011 -2.56349 0
M  V30 8412 H 859.228 1.87012 -3.511 0
M  V30 8413 H 855.967 1.22781 -6.43898 0
M  V30 8414 H 855.487 2.59499 -5.40759 0
M  V30 8415 H 857.166 2.45636 -5.98558 0
M  V30 8416 N 857.298 1.47698 0.54982 0
M  V30 8417 C 858.709 1.48474 1.13191 0
M  V30 8418 C 859.06 0.243504 1.94683 0
M  V30 8419 O 858.185 -0.651009 2.06375 0
M  V30 8420 C 858.78 2.69022 2.05944 0
M  V30 8421 C 857.339 2.72733 2.5941 0
M  V30 8422 C 856.486 2.41691 1.35944 0
M  V30 8423 H 859.437 1.55101 0.336048 0
M  V30 8424 H 859.458 2.46412 2.89934 0
M  V30 8425 H 858.97 3.59345 1.46605 0
M  V30 8426 H 857.071 1.86568 3.22526 0
M  V30 8427 H 857.184 3.73628 2.99899 0
M  V30 8428 H 855.548 1.92428 1.66864 0
M  V30 8429 H 856.331 3.34231 0.783869 0
M  V30 8430 N 858.776 -0.797141 1.35954 0
M  V30 8431 C 859.686 -1.94088 1.31784 0
M  V30 8432 C 860.702 -1.72588 0.221227 0
M  V30 8433 O 861.878 -1.96256 0.452255 0
M  V30 8434 C 858.943 -3.28828 1.09878 0
M  V30 8435 C 858.004 -3.63158 2.28942 0
M  V30 8436 C 857.237 -4.91469 2.08072 0
M  V30 8437 O 857.46 -5.60616 1.05196 0
M  V30 8438 O 856.394 -5.24277 2.95664 0
M  V30 8439 H 860.22 -2.00554 2.28061 0
M  V30 8440 H 857.805 -0.936288 1.16422 0
M  V30 8441 H 859.687 -4.09473 0.995485 0
M  V30 8442 H 858.362 -3.23271 0.16659 0
M  V30 8443 H 857.269 -2.82851 2.44839 0
M  V30 8444 H 858.602 -3.7343 3.20641 0
M  V30 8445 N 860.254 -1.20106 -1.0204 0
M  V30 8446 C 861.202 -0.943231 -2.12617 0
M  V30 8447 C 862.196 0.104042 -1.6908 0
M  V30 8448 O 863.402 -0.0459732 -1.79941 0
M  V30 8449 H 859.777 -0.28767 -0.694802 0
M  V30 8450 H 861.748 -1.88221 -2.3155 0
M  V30 8451 C 860.497 -0.50771 -3.43973 0
M  V30 8452 H 859.82 -1.30514 -3.77897 0
M  V30 8453 H 861.26 -0.366486 -4.22413 0
M  V30 8454 C 859.719 0.77939 -3.27761 0
M  V30 8455 O 860.249 1.83876 -3.57145 0
M  V30 8456 N 858.455 0.739931 -2.81022 0
M  V30 8457 H 858.002 -0.122426 -2.57309 0
M  V30 8458 H 857.96 1.60147 -2.70556 0
M  V30 8459 N 861.732 1.21287 -1.00634 0
M  V30 8460 C 862.978 1.90671 -0.690822 0
M  V30 8461 C 863.311 1.77996 0.776592 0
M  V30 8462 O 862.586 1.15748 1.5631 0
M  V30 8463 C 862.869 3.42426 -1.11428 0
M  V30 8464 C 862.722 3.64086 -2.64124 0
M  V30 8465 C 864.041 4.34851 -0.677686 0
M  V30 8466 H 861.16 0.692419 -0.252439 0
M  V30 8467 H 863.802 1.42893 -1.25226 0
M  V30 8468 H 861.952 3.83249 -0.636586 0
M  V30 8469 H 863.624 3.32582 -3.19667 0
M  V30 8470 H 861.867 3.07906 -3.05576 0
M  V30 8471 H 862.538 4.7042 -2.88806 0
M  V30 8472 H 865.014 4.01619 -1.0882 0
M  V30 8473 H 863.89 5.39675 -1.00213 0
M  V30 8474 H 864.151 4.4009 0.421125 0
M  V30 8475 N 863.21 0.781244 1.36873 0
M  V30 8476 C 864.435 0.360398 2.04245 0
M  V30 8477 C 864.86 -1.01242 1.58529 0
M  V30 8478 O 864.218 -1.65063 0.749936 0
M  V30 8479 C 864.266 0.42329 3.58107 0
M  V30 8480 O 863.37 -0.572796 4.08403 0
M  V30 8481 H 862.711 0.154386 0.645803 0
M  V30 8482 H 865.241 1.06008 1.74996 0
M  V30 8483 H 865.251 0.283967 4.07011 0
M  V30 8484 H 863.926 1.42477 3.90734 0
M  V30 8485 H 862.503 -0.395809 3.70793 0
M  V30 8486 N 864.689 -1.48329 0.532571 0
M  V30 8487 C 865.914 -2.074 0.00147755 0
M  V30 8488 C 866.339 -1.38615 -1.27151 0
M  V30 8489 O 865.697 -0.452949 -1.75551 0
M  V30 8490 C 865.745 -3.60029 -0.202866 0
M  V30 8491 O 864.849 -3.92327 -1.27097 0
M  V30 8492 H 864.19 -0.662777 0.0402883 0
M  V30 8493 H 866.72 -1.90701 0.741224 0
M  V30 8494 H 866.73 -4.05783 -0.424722 0
M  V30 8495 H 865.405 -4.09496 0.727033 0
M  V30 8496 H 863.982 -3.58348 -1.03156 0
M  V30 8497 N 866.167 -0.267825 -1.55308 0
M  V30 8498 C 867.392 0.357487 -2.04296 0
M  V30 8499 C 867.817 1.49222 -1.14518 0
M  V30 8500 O 867.175 1.80741 -0.142292 0
M  V30 8501 C 867.223 0.822899 -3.51085 0
M  V30 8502 O 866.327 1.93078 -3.6441 0
M  V30 8503 H 865.668 0.075025 -0.659748 0
M  V30 8504 H 868.198 -0.399996 -2.00652 0
M  V30 8505 H 868.208 1.12059 -3.92309 0
M  V30 8506 H 866.883 -0.0073562 -4.15899 0
M  V30 8507 H 865.46 1.63618 -3.35087 0
M  V30 8508 N 867.645 1.57599 0.00500368 0
M  V30 8509 C 868.873 1.94626 0.702016 0
M  V30 8510 C 869.288 0.86953 1.67585 0
M  V30 8511 O 868.645 -0.15199 1.81866 0
M  V30 8512 C 868.696 3.31658 1.43824 0
M  V30 8513 O 868.417 4.35197 0.503467 0
M  V30 8514 C 869.918 3.83114 2.23021 0
M  V30 8515 H 867.138 0.641785 0.195841 0
M  V30 8516 H 869.682 2.04451 -0.0446287 0
M  V30 8517 H 867.837 3.23156 2.13655 0
M  V30 8518 H 868.251 5.1444 1.02235 0
M  V30 8519 H 869.725 4.81438 2.7004 0
M  V30 8520 H 870.202 3.15559 3.05482 0
M  V30 8521 H 870.808 3.94775 1.58216 0
M  V30 8522 N 869.123 -0.277682 1.55134 0
M  V30 8523 C 870.053 -1.34742 1.90701 0
M  V30 8524 C 871.034 -1.51757 0.768354 0
M  V30 8525 O 872.219 -1.64879 1.02609 0
M  V30 8526 C 869.349 -2.70775 2.17481 0
M  V30 8527 C 868.303 -2.68497 3.33307 0
M  V30 8528 C 867.629 -4.08037 3.45557 0
M  V30 8529 C 868.929 -2.28178 4.69821 0
M  V30 8530 H 870.623 -1.05224 2.803 0
M  V30 8531 H 868.169 -0.504738 1.34864 0
M  V30 8532 H 870.122 -3.45719 2.40949 0
M  V30 8533 H 868.846 -3.01867 1.24676 0
M  V30 8534 H 867.505 -1.9601 3.09799 0
M  V30 8535 H 867.153 -4.36344 2.50226 0
M  V30 8536 H 866.853 -4.07409 4.23429 0
M  V30 8537 H 868.377 -4.84726 3.71312 0
M  V30 8538 H 869.791 -2.92843 4.92865 0
M  V30 8539 H 868.188 -2.3872 5.50575 0
M  V30 8540 H 869.258 -1.23308 4.6896 0
M  V30 8541 N 870.601 -1.47988 -0.541979 0
M  V30 8542 C 872.017 -1.33843 -0.869383 0
M  V30 8543 C 872.217 -0.340374 -1.98604 0
M  V30 8544 O 871.273 0.242696 -2.51331 0
M  V30 8545 C 872.586 -2.73568 -1.24823 0
M  V30 8546 C 874.134 -2.81967 -1.3588 0
M  V30 8547 C 874.609 -4.22368 -1.77114 0
M  V30 8548 N 876.1 -4.24983 -1.84237 0
M  V30 8549 C 876.835 -5.30547 -2.17503 0
M  V30 8550 N 876.331 -6.46401 -2.49275 0
M  V30 8551 N 878.124 -5.17933 -2.18406 0
M  V30 8552 H 870.275 -2.11503 0.195001 0
M  V30 8553 H 872.538 -0.947681 0.0245862 0
M  V30 8554 H 872.244 -3.48107 -0.501435 0
M  V30 8555 H 872.118 -3.06322 -2.20106 0
M  V30 8556 H 874.505 -2.07692 -2.09638 0
M  V30 8557 H 874.586 -2.52848 -0.387478 0
M  V30 8558 H 874.23 -4.97155 -1.0392 0
M  V30 8559 H 874.16 -4.48922 -2.75275 0
M  V30 8560 H 876.651 -3.41411 -1.62009 0
M  V30 8561 H 876.964 -7.22698 -2.73729 0
M  V30 8562 H 875.309 -6.49696 -2.46821 0
M  V30 8563 H 878.5 -4.26445 -1.93034 0
M  V30 8564 H 878.673 -6.00307 -2.44 0
M  V30 8565 N 872.079 0.78992 -1.36375 0
M  V30 8566 C 873.304 1.58389 -1.33895 0
M  V30 8567 C 873.729 1.8794 0.0774934 0
M  V30 8568 O 873.087 1.4785 1.0493 0
M  V30 8569 C 873.135 2.88201 -2.16732 0
M  V30 8570 O 872.239 3.81778 -1.55946 0
M  V30 8571 H 871.58 0.480471 -0.458305 0
M  V30 8572 H 874.11 0.979119 -1.79651 0
M  V30 8573 H 874.12 3.37475 -2.29292 0
M  V30 8574 H 872.795 2.66019 -3.19698 0
M  V30 8575 H 871.372 3.40371 -1.52323 0
M  V30 8576 N 873.557 1.20646 1.01402 0
M  V30 8577 C 874.803 1.0197 1.753 0
M  V30 8578 C 875.136 -0.446803 1.8899 0
M  V30 8579 O 874.411 -1.33169 1.41762 0
M  V30 8580 C 874.694 1.70693 3.17074 0
M  V30 8581 C 874.547 3.24805 3.11162 0
M  V30 8582 C 875.866 1.44212 4.15802 0
M  V30 8583 H 872.985 0.371844 0.636318 0
M  V30 8584 H 875.627 1.48696 1.18277 0
M  V30 8585 H 873.777 1.30968 3.65759 0
M  V30 8586 H 875.449 3.73841 2.70261 0
M  V30 8587 H 873.692 3.55576 2.48492 0
M  V30 8588 H 874.363 3.68049 4.11393 0
M  V30 8589 H 876.839 1.7868 3.75783 0
M  V30 8590 H 875.715 1.94825 5.13161 0
M  V30 8591 H 875.976 0.370252 4.40547 0
M  V30 8592 N 875.035 -1.20752 1.01276 0
M  V30 8593 C 876.26 -1.94547 0.718769 0
M  V30 8594 C 876.685 -1.7404 -0.713563 0
M  V30 8595 O 876.043 -1.03221 -1.49047 0
M  V30 8596 C 876.091 -3.44823 1.05497 0
M  V30 8597 O 875.195 -4.12072 0.164516 0
M  V30 8598 H 874.536 -0.607931 0.267051 0
M  V30 8599 H 877.066 -1.53292 1.35509 0
M  V30 8600 H 877.076 -3.95427 1.00507 0
M  V30 8601 H 875.751 -3.59072 2.09858 0
M  V30 8602 H 874.328 -3.71909 0.271615 0
M  V30 8603 N 876.513 -0.788492 -1.36457 0
M  V30 8604 C 877.741 -0.372365 -2.03522 0
M  V30 8605 C 878.156 1.01093 -1.59454 0
M  V30 8606 O 877.513 1.64824 -0.783535 0
M  V30 8607 C 877.564 -0.425435 -3.58988 0
M  V30 8608 O 877.285 -1.75418 -4.01448 0
M  V30 8609 C 878.786 0.000180167 -4.433 0
M  V30 8610 H 876.006 -0.1536 -0.653183 0
M  V30 8611 H 878.55 -1.06708 -1.74452 0
M  V30 8612 H 876.705 0.220856 -3.8677 0
M  V30 8613 H 877.119 -1.70437 -4.96036 0
M  V30 8614 H 878.593 -0.0880919 -5.5193 0
M  V30 8615 H 879.07 1.05269 -4.26398 0
M  V30 8616 H 879.676 -0.618563 -4.20778 0
M  V30 8617 N 877.991 1.48044 -0.54043 0
M  V30 8618 C 879.239 2.02097 -0.0101367 0
M  V30 8619 C 879.56 1.41881 1.33771 0
M  V30 8620 O 878.83 0.587923 1.8687 0
M  V30 8621 H 877.41 0.747 -0.000758716 0
M  V30 8622 H 880.072 1.81639 -0.706634 0
M  V30 8623 H 879.168 3.11969 0.0904474 0
M  V30 8624 N 879.47 0.276058 1.55163 0
M  V30 8625 C 880.695 -0.346648 2.04483 0
M  V30 8626 C 881.12 -1.48613 1.15308 0
M  V30 8627 O 880.478 -1.80663 0.151875 0
M  V30 8628 C 880.526 -0.804268 3.51517 0
M  V30 8629 O 879.63 -1.91143 3.65429 0
M  V30 8630 H 878.971 -0.0715251 0.660136 0
M  V30 8631 H 881.501 0.410631 2.00437 0
M  V30 8632 H 881.511 -1.09977 3.92898 0
M  V30 8633 H 880.186 0.0294123 4.1589 0
M  V30 8634 H 878.763 -1.61839 3.3595 0
M  V30 8635 N 880.948 -1.576 0.00335426 0
M  V30 8636 C 882.173 -1.95398 -0.695311 0
M  V30 8637 C 882.598 -0.878476 -1.66326 0
M  V30 8638 O 881.956 0.163086 -1.80565 0
M  V30 8639 C 882.004 -3.32293 -1.40049 0
M  V30 8640 O 881.108 -3.26834 -2.51502 0
M  V30 8641 H 880.449 -0.637796 -0.184694 0
M  V30 8642 H 882.979 -2.04519 0.057543 0
M  V30 8643 H 882.989 -3.67936 -1.76316 0
M  V30 8644 H 881.664 -4.10123 -0.690803 0
M  V30 8645 H 880.241 -3.02872 -2.17539 0
M  V30 8646 N 882.426 0.269451 -1.5528 0
M  V30 8647 C 883.842 0.616827 -1.47199 0
M  V30 8648 C 884.042 1.89354 -0.68901 0
M  V30 8649 O 883.098 2.51631 -0.209287 0
M  V30 8650 C 884.411 0.740492 -2.9144 0
M  V30 8651 C 885.959 0.834312 -3.01676 0
M  V30 8652 C 886.434 0.989725 -4.47178 0
M  V30 8653 N 887.925 1.05516 -4.51022 0
M  V30 8654 C 888.66 1.19427 -5.60825 0
M  V30 8655 N 888.156 1.30035 -6.80487 0
M  V30 8656 N 889.949 1.22566 -5.48575 0
M  V30 8657 H 882.1 -0.568962 -2.04638 0
M  V30 8658 H 884.363 -0.193153 -0.928114 0
M  V30 8659 H 884.069 -0.127234 -3.5147 0
M  V30 8660 H 883.943 1.61965 -3.40657 0
M  V30 8661 H 886.33 1.6925 -2.4174 0
M  V30 8662 H 886.411 -0.0695298 -2.55705 0
M  V30 8663 H 886.055 0.136179 -5.07717 0
M  V30 8664 H 885.985 1.90827 -4.90808 0
M  V30 8665 H 888.476 0.985434 -3.64825 0
M  V30 8666 H 888.789 1.40494 -7.59922 0
M  V30 8667 H 887.134 1.27033 -6.83292 0
M  V30 8668 H 890.325 1.13911 -4.54029 0
M  V30 8669 H 890.498 1.33063 -6.34191 0
M  V30 8670 N 883.904 1.48273 0.534124 0
M  V30 8671 C 885.315 1.49667 1.1161 0
M  V30 8672 C 885.666 0.264139 1.94414 0
M  V30 8673 O 884.791 -0.629084 2.07054 0
M  V30 8674 C 885.386 2.71191 2.03079 0
M  V30 8675 C 883.945 2.7547 2.56502 0
M  V30 8676 C 883.092 2.43119 1.33373 0
M  V30 8677 H 886.043 1.55449 0.319578 0
M  V30 8678 H 886.064 2.49473 2.87304 0
M  V30 8679 H 885.576 3.60879 1.42785 0
M  V30 8680 H 883.677 1.89979 3.20529 0
M  V30 8681 H 883.79 3.76787 2.95919 0
M  V30 8682 H 882.154 1.94187 1.64813 0
M  V30 8683 H 882.937 3.35044 0.748375 0
M  V30 8684 N 885.382 -0.782676 1.36792 0
M  V30 8685 C 886.607 -1.57676 1.34733 0
M  V30 8686 C 887.032 -1.87979 -0.0675253 0
M  V30 8687 O 886.39 -1.48404 -1.04144 0
M  V30 8688 C 886.438 -2.87047 2.18257 0
M  V30 8689 O 885.542 -3.80946 1.57969 0
M  V30 8690 H 884.883 -0.478034 0.460846 0
M  V30 8691 H 887.413 -0.969578 1.80168 0
M  V30 8692 H 887.423 -3.36254 2.31079 0
M  V30 8693 H 886.098 -2.64319 3.21104 0
M  V30 8694 H 884.675 -3.39558 1.54126 0
M  V30 8695 N 886.86 -1.21182 -1.00761 0
M  V30 8696 C 887.807 -0.968741 -2.09485 0
M  V30 8697 C 888.777 0.104325 -1.65772 0
M  V30 8698 O 889.962 -0.0422587 -1.90753 0
M  V30 8699 C 887.102 -0.536686 -3.40901 0
M  V30 8700 C 886.215 -1.6789 -3.98041 0
M  V30 8701 C 885.35 -1.19627 -5.17555 0
M  V30 8702 C 884.389 -2.31099 -5.66798 0
M  V30 8703 N 883.526 -1.83988 -6.77564 0
M  V30 8704 H 888.366 -1.89952 -2.29613 0
M  V30 8705 H 885.903 -0.946688 -1.12589 0
M  V30 8706 H 887.861 -0.26745 -4.16342 0
M  V30 8707 H 886.491 0.357092 -3.20819 0
M  V30 8708 H 885.543 -2.06284 -3.19611 0
M  V30 8709 H 886.855 -2.51794 -4.30582 0
M  V30 8710 H 886.009 -0.883539 -6.00232 0
M  V30 8711 H 884.748 -0.327244 -4.86601 0
M  V30 8712 H 883.753 -2.63178 -4.82719 0
M  V30 8713 H 884.978 -3.18493 -5.99782 0
M  V30 8714 H 882.924 -0.994257 -6.48422 0
M  V30 8715 H 882.841 -2.61466 -7.09346 0
M  V30 8716 H 884.109 -1.55741 -7.63783 0
M  V30 8717 N 888.338 1.20213 -1.01915 0
M  V30 8718 C 889.587 1.88968 -0.705261 0
M  V30 8719 C 889.9 1.79869 0.768531 0
M  V30 8720 O 891.106 2.43783 1.19508 0
M  V30 8721 C 889.562 3.38911 -1.21109 0
M  V30 8722 C 889.17 3.5659 -2.71197 0
M  V30 8723 C 890.914 4.13204 -0.97275 0
M  V30 8724 C 888.821 5.00372 -3.15248 0
M  V30 8725 H 887.751 0.707715 -0.260107 0
M  V30 8726 H 890.402 1.35977 -1.23217 0
M  V30 8727 H 888.784 3.9124 -0.612152 0
M  V30 8728 H 889.958 3.14635 -3.36662 0
M  V30 8729 H 888.273 2.95671 -2.93202 0
M  V30 8730 H 890.87 5.19221 -1.27726 0
M  V30 8731 H 891.213 4.16201 0.09072 0
M  V30 8732 H 891.746 3.66983 -1.5352 0
M  V30 8733 H 888.485 5.02532 -4.20882 0
M  V30 8734 H 888.005 5.43127 -2.54505 0
M  V30 8735 H 889.684 5.68969 -3.08032 0
M  V30 8736 N 889.816 0.795718 1.36037 0
M  V30 8737 C 891.056 0.376514 2.00902 0
M  V30 8738 C 891.42 -1.03405 1.61776 0
M  V30 8739 O 892.621 -1.55468 2.19279 0
M  V30 8740 C 890.892 0.542086 3.53265 0
M  V30 8741 S 892.451 0.211694 4.38289 0
M  V30 8742 H 889.269 0.143527 0.696363 0
M  V30 8743 H 891.871 1.03559 1.65819 0
M  V30 8744 H 890.575 1.56888 3.79229 0
M  V30 8745 H 890.106 -0.132698 3.93176 0
M  V30 8746 H 892.121 -0.98452 4.86335 0
M  V30 8747 N 891.294 -1.47756 0.548274 0
M  V30 8748 C 892.224 -2.32702 -0.19284 0
M  V30 8749 C 893.205 -1.43237 -0.917457 0
M  V30 8750 O 894.39 -1.72103 -0.89967 0
M  V30 8751 C 891.52 -3.24831 -1.22891 0
M  V30 8752 C 890.474 -4.23466 -0.621312 0
M  V30 8753 C 889.8 -5.04856 -1.76137 0
M  V30 8754 C 891.1 -5.20616 0.419055 0
M  V30 8755 H 892.794 -2.94914 0.516323 0
M  V30 8756 H 890.34 -1.41818 0.24975 0
M  V30 8757 H 892.293 -3.83094 -1.75547 0
M  V30 8758 H 891.017 -2.60656 -1.9679 0
M  V30 8759 H 889.676 -3.66416 -0.116123 0
M  V30 8760 H 889.324 -4.37091 -2.48918 0
M  V30 8761 H 889.024 -5.71629 -1.36065 0
M  V30 8762 H 890.548 -5.65976 -2.29136 0
M  V30 8763 H 891.962 -5.73296 -0.0211034 0
M  V30 8764 H 890.359 -5.95543 0.738163 0
M  V30 8765 H 891.429 -4.66638 1.31822 0
M  V30 8766 N 892.772 -0.284283 -1.55015 0
M  V30 8767 C 894.018 0.330352 -2.00091 0
M  V30 8768 C 894.351 1.54814 -1.17244 0
M  V30 8769 O 893.626 1.92954 -0.244753 0
M  V30 8770 C 893.909 0.703492 -3.53161 0
M  V30 8771 C 893.762 -0.522275 -4.46758 0
M  V30 8772 C 895.081 1.53645 -4.12409 0
M  V30 8773 H 892.2 0.118599 -0.727395 0
M  V30 8774 H 894.842 -0.393054 -1.8589 0
M  V30 8775 H 892.992 1.31983 -3.65394 0
M  V30 8776 H 894.664 -1.16082 -4.46456 0
M  V30 8777 H 892.907 -1.15865 -4.1804 0
M  V30 8778 H 893.578 -0.217295 -5.51572 0
M  V30 8779 H 896.054 1.01583 -4.0351 0
M  V30 8780 H 894.93 1.76633 -5.19704 0
M  V30 8781 H 895.191 2.5204 -3.63219 0
M  V30 8782 N 894.251 1.57596 -0.0117121 0
M  V30 8783 C 895.491 1.92932 0.675031 0
M  V30 8784 C 895.855 0.887004 1.70283 0
M  V30 8785 O 897.056 1.12599 2.4408 0
M  V30 8786 C 895.327 3.3327 1.29098 0
M  V30 8787 S 896.886 3.90509 2.00121 0
M  V30 8788 H 893.704 0.675226 0.22269 0
M  V30 8789 H 896.306 1.9537 -0.071208 0
M  V30 8790 H 895.01 4.0696 0.530262 0
M  V30 8791 H 894.541 3.34233 2.0749 0
M  V30 8792 H 896.556 3.72532 3.27771 0
M  V30 8793 N 895.729 -0.261212 1.5542 0
M  V30 8794 C 896.977 -0.989272 1.76232 0
M  V30 8795 C 897.298 -1.86389 0.573067 0
M  V30 8796 O 896.568 -1.91526 -0.41166 0
M  V30 8797 H 895.148 -0.368256 0.64992 0
M  V30 8798 H 897.81 -0.282603 1.9284 0
M  V30 8799 H 896.906 -1.61935 2.66802 0
M  V30 8800 N 897.207 -1.48554 -0.526253 0
M  V30 8801 C 898.484 -1.47252 -1.28748 0
M  V30 8802 C 898.864 -0.186245 -2.10277 0
M  V30 8803 O 898.212 0.831954 -2.12816 0
M  V30 8804 C 898.422 -2.73672 -2.16575 0
M  V30 8805 C 899.77 -3.22151 -2.76593 0
M  V30 8806 O 900.794 -2.74614 -2.2686 0
M  V30 8807 O 899.653 -4.04877 -3.67066 0
M  V30 8808 H 896.747 -0.588242 -0.581292 0
M  V30 8809 H 899.293 -1.60792 -0.5426 0
M  V30 8810 H 898.065 -3.58798 -1.56139 0
M  V30 8811 H 897.688 -2.6287 -2.98304 0
M  V30 8812 N 898.685 0.775411 -1.37205 0
M  V30 8813 C 899.595 1.91967 -1.34855 0
M  V30 8814 C 900.611 1.72214 -0.248656 0
M  V30 8815 O 901.787 1.95512 -0.483421 0
M  V30 8816 C 898.852 3.27038 -1.15096 0
M  V30 8817 C 897.913 3.5947 -2.34691 0
M  V30 8818 C 897.146 4.88097 -2.15865 0
M  V30 8819 O 897.369 5.58871 -1.14102 0
M  V30 8820 O 896.303 5.19507 -3.03967 0
M  V30 8821 H 900.129 1.969 -2.31223 0
M  V30 8822 H 897.714 0.917647 -1.17897 0
M  V30 8823 H 899.596 4.07837 -1.0605 0
M  V30 8824 H 898.271 3.22965 -0.217999 0
M  V30 8825 H 897.178 2.7892 -2.49308 0
M  V30 8826 H 898.511 3.68282 -3.26541 0
M  V30 8827 N 900.163 1.21714 1.00117 0
M  V30 8828 C 901.126 0.981338 2.07129 0
M  V30 8829 C 902.126 -0.0491116 1.60725 0
M  V30 8830 O 903.316 0.188555 1.73177 0
M  V30 8831 C 900.448 0.480608 3.37495 0
M  V30 8832 H 901.641 1.93075 2.29482 0
M  V30 8833 H 899.194 1.03467 1.17151 0
M  V30 8834 H 899.929 -0.473552 3.20824 0
M  V30 8835 H 899.714 1.22393 3.72508 0
M  V30 8836 H 901.204 0.33561 4.16249 0
M  V30 8837 N 901.641 -1.19671 1.02551 0
M  V30 8838 C 902.866 -1.93774 0.739363 0
M  V30 8839 C 903.291 -1.74787 -0.695064 0
M  V30 8840 O 902.649 -1.04796 -1.47944 0
M  V30 8841 C 902.697 -3.43684 1.09149 0
M  V30 8842 O 901.801 -4.11874 0.208213 0
M  V30 8843 H 901.142 -0.605064 0.273484 0
M  V30 8844 H 903.672 -1.51846 1.37128 0
M  V30 8845 H 903.682 -3.94339 1.04695 0
M  V30 8846 H 902.357 -3.56826 2.13654 0
M  V30 8847 H 900.934 -3.716 0.311045 0
M  V30 8848 N 903.119 -0.802921 -1.35613 0
M  V30 8849 C 904.367 -0.380822 -1.9848 0
M  V30 8850 C 904.688 1.05464 -1.6402 0
M  V30 8851 O 903.958 1.72908 -0.920854 0
M  V30 8852 H 902.538 -0.137824 -0.734176 0
M  V30 8853 H 905.2 -1.02795 -1.65587 0
M  V30 8854 H 904.296 -0.483565 -3.08331 0
M  V30 8855 N 904.597 1.47463 -0.556102 0
M  V30 8856 C 905.837 2.04372 -0.0339743 0
M  V30 8857 C 906.201 1.42125 1.29091 0
M  V30 8858 O 907.402 1.90074 1.90066 0
M  V30 8859 C 905.673 3.57352 0.0585316 0
M  V30 8860 S 907.232 4.35625 0.526943 0
M  V30 8861 H 904.05 0.710574 -0.0246115 0
M  V30 8862 H 906.652 1.80848 -0.742585 0
M  V30 8863 H 905.356 4.00181 -0.910116 0
M  V30 8864 H 904.887 3.85371 0.790731 0
M  V30 8865 H 906.902 4.62911 1.78683 0
M  V30 8866 N 906.075 0.2925 1.54862 0
M  V30 8867 C 907.025 -0.60226 2.19902 0
M  V30 8868 C 908.009 -1.10535 1.16923 0
M  V30 8869 O 909.201 -1.04753 1.42674 0
M  V30 8870 C 906.33 -1.77774 2.93686 0
M  V30 8871 C 905.416 -1.29101 4.03972 0
M  V30 8872 N 905.807 -0.521671 5.03103 0
M  V30 8873 C 904.105 -1.57248 4.17359 0
M  V30 8874 C 904.806 -0.263545 5.81103 0
M  V30 8875 N 903.782 -0.840937 5.37056 0
M  V30 8876 H 907.584 -0.00682274 2.93899 0
M  V30 8877 H 905.098 0.0968604 1.62111 0
M  V30 8878 H 907.095 -2.43021 3.38743 0
M  V30 8879 H 905.755 -2.37696 2.21203 0
M  V30 8880 H 906.766 -0.167364 5.1763 0
M  V30 8881 H 903.443 -2.1798 3.56077 0
M  V30 8882 H 904.833 0.353783 6.70968 0
M  V30 8883 N 907.553 -1.57587 0.0200696 0
M  V30 8884 C 908.783 -1.95435 -0.669991 0
M  V30 8885 C 909.191 -0.894647 -1.66711 0
M  V30 8886 O 908.534 0.133009 -1.83218 0
M  V30 8887 C 908.596 -3.29379 -1.44047 0
M  V30 8888 C 908.26 -4.53008 -0.602691 0
M  V30 8889 C 909.257 -5.19766 0.118188 0
M  V30 8890 C 906.942 -4.99359 -0.542754 0
M  V30 8891 C 908.936 -6.31187 0.887774 0
M  V30 8892 C 906.623 -6.10665 0.230543 0
M  V30 8893 C 907.621 -6.76438 0.944522 0
M  V30 8894 O 907.309 -7.85608 1.70516 0
M  V30 8895 H 907.041 -0.648681 -0.190234 0
M  V30 8896 H 909.595 -2.05269 0.0733838 0
M  V30 8897 H 907.825 -3.1601 -2.22878 0
M  V30 8898 H 909.514 -3.52194 -2.01777 0
M  V30 8899 H 910.28 -4.84932 0.0811604 0
M  V30 8900 H 906.159 -4.47976 -1.08804 0
M  V30 8901 H 909.703 -6.82458 1.44558 0
M  V30 8902 H 905.6 -6.44938 0.26932 0
M  V30 8903 H 906.368 -8.02228 1.62398 0
M  V30 8904 N 909.032 0.252966 -1.55557 0
M  V30 8905 C 910.28 0.979912 -1.76754 0
M  V30 8906 C 910.601 1.86083 -0.582944 0
M  V30 8907 O 909.871 1.91742 0.401497 0
M  V30 8908 H 908.451 0.364805 -0.651864 0
M  V30 8909 H 911.113 0.272372 -1.92987 0
M  V30 8910 H 910.209 1.60518 -2.67657 0
M  V30 8911 N 910.51 1.48831 0.518367 0
M  V30 8912 C 911.756 1.57672 1.27543 0
M  V30 8913 C 912.089 0.254915 1.9252 0
M  V30 8914 O 911.364 -0.740107 1.79868 0
M  V30 8915 C 911.647 2.72345 2.35585 0
M  V30 8916 C 911.5 4.14267 1.75224 0
M  V30 8917 C 912.819 2.82726 3.37274 0
M  V30 8918 H 909.938 0.573926 0.462361 0
M  V30 8919 H 912.58 1.8105 0.576267 0
M  V30 8920 H 910.73 2.52543 2.95219 0
M  V30 8921 H 912.402 4.45539 1.19551 0
M  V30 8922 H 910.645 4.20724 1.05706 0
M  V30 8923 H 911.316 4.90345 2.53507 0
M  V30 8924 H 913.792 3.00699 2.8761 0
M  V30 8925 H 912.668 3.6467 4.10252 0
M  V30 8926 H 912.929 1.9136 3.9854 0
M  V30 8927 N 911.988 -0.768124 1.37614 0
M  V30 8928 C 913.234 -1.52907 1.33219 0
M  V30 8929 C 913.567 -1.94026 -0.0821218 0
M  V30 8930 O 912.842 -1.64345 -1.04023 0
M  V30 8931 C 913.125 -2.79164 2.27463 0
M  V30 8932 C 912.978 -2.44276 3.7769 0
M  V30 8933 C 914.297 -3.81115 2.20089 0
M  V30 8934 H 911.416 -0.554712 0.485246 0
M  V30 8935 H 914.058 -0.880911 1.68345 0
M  V30 8936 H 912.208 -3.34472 1.97639 0
M  V30 8937 H 913.88 -1.94855 4.18126 0
M  V30 8938 H 912.123 -1.76925 3.96081 0
M  V30 8939 H 912.794 -3.34544 4.39072 0
M  V30 8940 H 915.27 -3.35311 2.46386 0
M  V30 8941 H 914.146 -4.67174 2.88166 0
M  V30 8942 H 914.407 -4.25644 1.19498 0
M  V30 8943 N 913.466 -1.22244 -0.994698 0
M  V30 8944 C 914.694 -1.07218 -1.76952 0
M  V30 8945 C 915.109 0.377388 -1.8499 0
M  V30 8946 O 914.466 1.26157 -1.31874 0
M  V30 8947 C 914.517 -1.67496 -3.20355 0
M  V30 8948 O 914.238 -3.06782 -3.12756 0
M  V30 8949 C 915.739 -1.57721 -4.14294 0
M  V30 8950 H 912.959 -0.375966 -0.555779 0
M  V30 8951 H 915.503 -1.61799 -1.25065 0
M  V30 8952 H 913.658 -1.16982 -3.69315 0
M  V30 8953 H 914.072 -3.35784 -4.02926 0
M  V30 8954 H 915.546 -2.04623 -5.12673 0
M  V30 8955 H 916.023 -0.533434 -4.35949 0
M  V30 8956 H 916.629 -2.07531 -3.71229 0
M  V30 8957 N 914.944 1.19125 -1.03184 0
M  V30 8958 C 916.184 1.90582 -0.738785 0
M  V30 8959 C 916.548 1.78004 0.719627 0
M  V30 8960 O 917.749 2.44084 1.12589 0
M  V30 8961 C 916.02 3.37319 -1.18114 0
M  V30 8962 S 917.579 4.26962 -1.01238 0
M  V30 8963 H 914.397 0.6582 -0.268875 0
M  V30 8964 H 916.999 1.43999 -1.32229 0
M  V30 8965 H 915.703 3.43999 -2.23814 0
M  V30 8966 H 915.234 3.88935 -0.591051 0
M  V30 8967 H 917.249 4.96143 0.0753558 0
M  V30 8968 N 916.422 0.810101 1.35185 0
M  V30 8969 C 917.67 0.391343 1.98275 0
M  V30 8970 C 917.991 -1.04592 1.64577 0
M  V30 8971 O 917.261 -1.72417 0.93001 0
M  V30 8972 H 915.841 0.141715 0.733434 0
M  V30 8973 H 918.503 1.03672 1.6504 0
M  V30 8974 H 917.599 0.49991 3.0807 0
M  V30 8975 N 917.9 -1.47166 0.563914 0
M  V30 8976 C 919.125 -2.0735 0.0454698 0
M  V30 8977 C 919.55 -1.41281 -1.24182 0
M  V30 8978 O 918.908 -0.490084 -1.7455 0
M  V30 8979 C 918.956 -3.60378 -0.126453 0
M  V30 8980 O 918.06 -3.94934 -1.18746 0
M  V30 8981 H 917.401 -0.661773 0.0543377 0
M  V30 8982 H 919.931 -1.89086 0.781508 0
M  V30 8983 H 919.941 -4.06593 -0.338554 0
M  V30 8984 H 918.616 -4.07862 0.81373 0
M  V30 8985 H 917.193 -3.60455 -0.955318 0
M  V30 8986 N 919.378 -0.300708 -1.54705 0
M  V30 8987 C 920.618 0.30953 -2.02043 0
M  V30 8988 C 920.982 1.51114 -1.18442 0
M  V30 8989 O 922.183 2.19273 -1.55477 0
M  V30 8990 C 920.454 0.657489 -3.513 0
M  V30 8991 S 922.013 1.25063 -4.206 0
M  V30 8992 H 918.831 0.0950019 -0.704624 0
M  V30 8993 H 921.433 -0.428512 -1.90746 0
M  V30 8994 H 920.137 -0.225532 -4.0978 0
M  V30 8995 H 919.668 1.42633 -3.66633 0
M  V30 8996 H 921.683 2.53844 -4.26354 0
M  V30 8997 N 920.856 1.57574 -0.0284266 0
M  V30 8998 C 921.803 2.10176 0.953658 0
M  V30 8999 C 922.773 1.00367 1.32347 0
M  V30 9000 O 923.958 1.27783 1.4169 0
M  V30 9001 C 921.098 2.63287 2.231 0
M  V30 9002 C 920.211 3.87102 1.91771 0
M  V30 9003 C 919.346 4.28609 3.13795 0
M  V30 9004 C 918.385 5.45184 2.78282 0
M  V30 9005 N 917.522 5.81851 3.92929 0
M  V30 9006 H 922.362 2.93806 0.498176 0
M  V30 9007 H 919.899 1.45222 0.234302 0
M  V30 9008 H 921.857 2.9217 2.97813 0
M  V30 9009 H 920.487 1.82489 2.66266 0
M  V30 9010 H 919.539 3.64952 1.07303 0
M  V30 9011 H 920.851 4.71892 1.61615 0
M  V30 9012 H 920.005 4.58925 3.96829 0
M  V30 9013 H 918.744 3.42585 3.47112 0
M  V30 9014 H 917.749 5.14563 1.93661 0
M  V30 9015 H 918.974 6.32907 2.46182 0
M  V30 9016 H 916.92 4.98782 4.2609 0
M  V30 9017 H 916.837 6.6128 3.66395 0
M  V30 9018 H 918.105 6.16772 4.76669 0
M  V30 9019 N 922.334 -0.244713 1.55689 0
M  V30 9020 C 923.58 -0.973886 1.77886 0
M  V30 9021 C 923.913 -1.8489 0.594071 0
M  V30 9022 O 923.188 -1.90182 -0.407564 0
M  V30 9023 C 923.471 -1.83255 3.09983 0
M  V30 9024 C 923.324 -0.985571 4.3887 0
M  V30 9025 C 924.643 -2.81464 3.38329 0
M  V30 9026 H 921.762 -0.352629 0.647165 0
M  V30 9027 H 924.404 -0.244243 1.88424 0
M  V30 9028 H 922.554 -2.45464 3.01131 0
M  V30 9029 H 924.226 -0.382005 4.59716 0
M  V30 9030 H 922.469 -0.29002 4.32829 0
M  V30 9031 H 923.14 -1.62022 5.27686 0
M  V30 9032 H 925.616 -2.2939 3.47159 0
M  V30 9033 H 924.492 -3.38663 4.31971 0
M  V30 9034 H 924.753 -3.58037 2.59349 0
M  V30 9035 N 923.813 -1.49104 -0.510467 0
M  V30 9036 C 925.06 -1.58112 -1.26518 0
M  V30 9037 C 925.388 -0.263603 -1.92705 0
M  V30 9038 O 924.643 0.747743 -1.80852 0
M  V30 9039 C 924.942 -2.68259 -2.36161 0
M  V30 9040 C 924.608 -4.10069 -1.87495 0
M  V30 9041 C 923.27 -4.48662 -1.73942 0
M  V30 9042 C 925.622 -4.98859 -1.5096 0
M  V30 9043 C 922.95 -5.73829 -1.22217 0
M  V30 9044 C 925.302 -6.24535 -1.00691 0
M  V30 9045 C 923.966 -6.61967 -0.857691 0
M  V30 9046 H 923.236 -0.578574 -0.462962 0
M  V30 9047 H 925.883 -1.82899 -0.567475 0
M  V30 9048 H 924.188 -2.37407 -3.11681 0
M  V30 9049 H 925.885 -2.7244 -2.9424 0
M  V30 9050 H 922.475 -3.79601 -1.99001 0
M  V30 9051 H 926.659 -4.69706 -1.60282 0
M  V30 9052 H 921.915 -6.01539 -1.09368 0
M  V30 9053 H 926.089 -6.9272 -0.71498 0
M  V30 9054 H 923.716 -7.58839 -0.454702 0
M  V30 9055 N 925.291 0.760815 -1.38019 0
M  V30 9056 C 926.538 1.51973 -1.3383 0
M  V30 9057 C 926.866 1.9436 0.0738855 0
M  V30 9058 O 926.121 1.65181 1.04946 0
M  V30 9059 C 926.42 2.79024 -2.23339 0
M  V30 9060 C 926.086 2.55636 -3.71431 0
M  V30 9061 C 924.748 2.48966 -4.11788 0
M  V30 9062 C 927.1 2.35018 -4.65205 0
M  V30 9063 C 924.428 2.19684 -5.44018 0
M  V30 9064 C 926.78 2.07258 -5.97685 0
M  V30 9065 C 925.444 1.9904 -6.37134 0
M  V30 9066 H 924.714 0.556108 -0.489719 0
M  V30 9067 H 927.361 0.87545 -1.70318 0
M  V30 9068 H 925.666 3.48065 -1.79883 0
M  V30 9069 H 927.363 3.36951 -2.17405 0
M  V30 9070 H 923.953 2.61695 -3.39432 0
M  V30 9071 H 928.137 2.39154 -4.34878 0
M  V30 9072 H 923.393 2.11825 -5.73533 0
M  V30 9073 H 927.567 1.90307 -6.69893 0
M  V30 9074 H 925.194 1.76115 -7.39519 0
M  V30 9075 N 926.769 1.22769 0.988202 0
M  V30 9076 C 927.716 1.00195 2.07917 0
M  V30 9077 C 928.686 -0.0779391 1.65917 0
M  V30 9078 O 929.871 0.0726005 1.90662 0
M  V30 9079 C 927.011 0.590853 3.40004 0
M  V30 9080 C 926.124 1.74202 3.9532 0
M  V30 9081 C 925.259 1.27846 5.15586 0
M  V30 9082 C 924.298 2.40087 5.63049 0
M  V30 9083 N 923.435 1.94744 6.74551 0
M  V30 9084 H 928.275 1.93581 2.26562 0
M  V30 9085 H 925.812 0.96448 1.11068 0
M  V30 9086 H 927.77 0.333653 4.15864 0
M  V30 9087 H 926.4 -0.306007 3.21346 0
M  V30 9088 H 925.452 2.11342 3.16289 0
M  V30 9089 H 926.764 2.58612 4.26522 0
M  V30 9090 H 925.918 0.978919 5.9875 0
M  V30 9091 H 924.657 0.404617 4.86019 0
M  V30 9092 H 923.662 2.70824 4.78471 0
M  V30 9093 H 924.887 3.27995 5.9464 0
M  V30 9094 H 922.833 1.09729 6.46758 0
M  V30 9095 H 922.75 2.72718 7.05096 0
M  V30 9096 H 924.018 1.67873 7.61209 0
M  V30 9097 N 928.247 -1.18576 1.03814 0
M  V30 9098 C 929.663 -1.4051 0.756909 0
M  V30 9099 C 929.863 -1.9057 -0.654631 0
M  V30 9100 O 928.919 -2.0884 -1.41922 0
M  V30 9101 C 930.232 -2.4081 1.80087 0
M  V30 9102 C 931.78 -2.54541 1.82148 0
M  V30 9103 C 932.255 -3.58102 2.85529 0
M  V30 9104 N 933.746 -3.65607 2.84404 0
M  V30 9105 C 934.481 -4.45458 3.61047 0
M  V30 9106 N 933.977 -5.28937 4.47434 0
M  V30 9107 N 935.77 -4.40196 3.49548 0
M  V30 9108 H 927.921 -0.844075 1.94908 0
M  V30 9109 H 930.184 -0.433287 0.843188 0
M  V30 9110 H 929.89 -2.1107 2.81322 0
M  V30 9111 H 929.764 -3.4012 1.63089 0
M  V30 9112 H 932.151 -2.83598 0.815855 0
M  V30 9113 H 932.232 -1.55352 2.03223 0
M  V30 9114 H 931.876 -3.29786 3.86269 0
M  V30 9115 H 931.806 -4.56963 2.6171 0
M  V30 9116 H 934.297 -3.05994 2.21756 0
M  V30 9117 H 934.61 -5.8701 5.02632 0
M  V30 9118 H 932.955 -5.28366 4.51503 0
M  V30 9119 H 936.146 -3.74026 2.81464 0
M  V30 9120 H 936.319 -5.02186 4.09528 0
M  V30 9121 N 929.725 -0.817259 -1.34754 0
M  V30 9122 C 930.688 -0.240611 -2.27934 0
M  V30 9123 C 931.688 0.578219 -1.50044 0
M  V30 9124 O 932.878 0.395148 -1.69659 0
M  V30 9125 C 930.01 0.663318 -3.34384 0
M  V30 9126 H 931.203 -1.06257 -2.80445 0
M  V30 9127 H 928.756 -0.588697 -1.4479 0
M  V30 9128 H 929.491 1.50855 -2.87077 0
M  V30 9129 H 929.276 0.0777388 -3.92023 0
M  V30 9130 H 930.766 1.06076 -4.03903 0
M  V30 9131 N 931.203 1.46865 -0.571711 0
M  V30 9132 C 932.449 2.0273 -0.0531858 0
M  V30 9133 C 932.782 1.44353 1.29907 0
M  V30 9134 O 932.057 0.604488 1.84868 0
M  V30 9135 C 932.34 3.60092 0.0243831 0
M  V30 9136 C 932.193 4.28874 -1.35599 0
M  V30 9137 C 933.512 4.33994 0.730563 0
M  V30 9138 H 930.631 0.736706 -0.0208018 0
M  V30 9139 H 933.273 1.75132 -0.736794 0
M  V30 9140 H 931.423 3.83736 0.606565 0
M  V30 9141 H 933.095 4.16527 -1.98249 0
M  V30 9142 H 931.338 3.88664 -1.92674 0
M  V30 9143 H 932.009 5.37561 -1.25429 0
M  V30 9144 H 934.485 4.1543 0.236098 0
M  V30 9145 H 933.361 5.43699 0.753836 0
M  V30 9146 H 933.622 4.04257 1.78967 0
M  V30 9147 N 932.681 0.308908 1.54543 0
M  V30 9148 C 933.591 -0.572939 2.27496 0
M  V30 9149 C 934.607 -1.14171 1.31305 0
M  V30 9150 O 935.783 -1.16481 1.64299 0
M  V30 9151 C 932.848 -1.72483 3.0075 0
M  V30 9152 C 931.909 -1.18934 4.12496 0
M  V30 9153 C 931.142 -2.28634 4.82247 0
M  V30 9154 O 931.365 -3.48691 4.5141 0
M  V30 9155 O 930.299 -1.94879 5.69478 0
M  V30 9156 H 934.125 0.0190877 3.03694 0
M  V30 9157 H 931.71 0.0750943 1.49211 0
M  V30 9158 H 933.592 -2.39578 3.46671 0
M  V30 9159 H 932.267 -2.30332 2.2744 0
M  V30 9160 H 931.174 -0.483904 3.70957 0
M  V30 9161 H 932.507 -0.656185 4.87806 0
M  V30 9162 N 934.159 -1.57557 0.0367827 0
M  V30 9163 C 935.407 -1.91735 -0.63892 0
M  V30 9164 C 935.728 -0.914515 -1.72226 0
M  V30 9165 O 934.998 0.0428248 -1.95853 0
M  V30 9166 H 933.578 -0.707738 -0.23899 0
M  V30 9167 H 936.24 -1.94708 0.0863931 0
M  V30 9168 H 935.336 -2.92568 -1.08676 0
M  V30 9169 N 935.637 0.236453 -1.55816 0
M  V30 9170 C 936.569 1.31602 -1.87653 0
M  V30 9171 C 937.582 1.43782 -0.763584 0
M  V30 9172 O 938.771 1.44945 -1.04178 0
M  V30 9173 C 935.871 2.69342 -2.05689 0
M  V30 9174 C 935.044 2.79298 -3.36617 0
M  V30 9175 C 934.103 3.97952 -3.44268 0
M  V30 9176 O 933.129 3.86989 -4.17406 0
M  V30 9177 N 934.331 5.11594 -2.74321 0
M  V30 9178 H 937.096 1.04623 -2.80845 0
M  V30 9179 H 934.657 0.426534 -1.5618 0
M  V30 9180 H 936.649 3.47074 -2.08138 0
M  V30 9181 H 935.219 2.88984 -1.19192 0
M  V30 9182 H 934.439 1.8816 -3.46395 0
M  V30 9183 H 935.727 2.82908 -4.22895 0
M  V30 9184 H 935.125 5.23394 -2.14651 0
M  V30 9185 H 933.682 5.87422 -2.8245 0
M  V30 9186 N 937.115 1.49373 0.502552 0
M  V30 9187 C 938.065 1.62321 1.60112 0
M  V30 9188 C 939.049 0.47895 1.53606 0
M  V30 9189 O 940.241 0.731824 1.61162 0
M  V30 9190 C 937.37 1.69162 2.98729 0
M  V30 9191 C 936.456 2.89161 3.10237 0
M  V30 9192 N 936.847 4.13256 2.91638 0
M  V30 9193 C 935.145 2.87065 3.41335 0
M  V30 9194 C 935.846 4.93913 3.07287 0
M  V30 9195 N 934.822 4.27249 3.36094 0
M  V30 9196 H 938.624 2.55989 1.44384 0
M  V30 9197 H 936.138 1.46123 0.708644 0
M  V30 9198 H 938.135 1.76536 3.77678 0
M  V30 9199 H 936.795 0.766301 3.15528 0
M  V30 9200 H 937.806 4.4326 2.67844 0
M  V30 9201 H 934.483 2.03905 3.6432 0
M  V30 9202 H 935.873 6.02491 2.97413 0
M  V30 9203 N 938.594 -0.753485 1.38421 0
M  V30 9204 C 939.542 -1.8886 1.35774 0
M  V30 9205 C 940.536 -1.67639 0.243608 0
M  V30 9206 O 941.742 -1.75206 0.412649 0
M  V30 9207 H 938.117 -0.62137 0.42356 0
M  V30 9208 H 940.088 -1.88209 2.3156 0
M  V30 9209 C 938.837 -3.26344 1.19979 0
M  V30 9210 H 938.16 -3.43259 2.04971 0
M  V30 9211 H 939.6 -4.06015 1.22181 0
M  V30 9212 C 938.059 -3.36771 -0.0932867 0
M  V30 9213 O 938.589 -3.8718 -1.07027 0
M  V30 9214 N 936.795 -2.90212 -0.150154 0
M  V30 9215 H 936.342 -2.4938 0.645562 0
M  V30 9216 H 936.3 -2.97569 -1.0149 0
M  V30 9217 N 940.072 -1.23292 -0.981677 0
M  V30 9218 C 941.302 -1.0893 -1.7555 0
M  V30 9219 C 941.71 0.362219 -1.857 0
M  V30 9220 O 941.053 1.2624 -1.33451 0
M  V30 9221 C 941.115 -1.6389 -3.19969 0
M  V30 9222 C 940.779 -3.12632 -3.33332 0
M  V30 9223 C 941.776 -4.0994 -3.19758 0
M  V30 9224 C 939.461 -3.52314 -3.58022 0
M  V30 9225 C 941.455 -5.44915 -3.30676 0
M  V30 9226 C 939.142 -4.87434 -3.6858 0
M  V30 9227 C 940.14 -5.83544 -3.54916 0
M  V30 9228 O 939.828 -7.16209 -3.65102 0
M  V30 9229 H 939.56 -0.381901 -0.557788 0
M  V30 9230 H 942.114 -1.63586 -1.24213 0
M  V30 9231 H 940.344 -1.03653 -3.72549 0
M  V30 9232 H 942.033 -1.45023 -3.79108 0
M  V30 9233 H 942.799 -3.80625 -3.00582 0
M  V30 9234 H 938.678 -2.78022 -3.67729 0
M  V30 9235 H 942.222 -6.19913 -3.19928 0
M  V30 9236 H 938.119 -5.16426 -3.87265 0
M  V30 9237 H 938.887 -7.23941 -3.81905 0
M  V30 9238 N 941.55 1.18024 -1.04442 0
M  V30 9239 C 942.48 2.23988 -0.659683 0
M  V30 9240 C 943.461 1.6669 0.338904 0
M  V30 9241 O 944.646 1.92971 0.21817 0
M  V30 9242 C 941.776 3.4729 -0.0257672 0
M  V30 9243 C 940.73 4.17362 -0.948299 0
M  V30 9244 C 940.056 5.34401 -0.17866 0
M  V30 9245 C 941.356 4.70435 -2.26909 0
M  V30 9246 H 943.05 2.56425 -1.54553 0
M  V30 9247 H 940.596 1.23256 -0.744575 0
M  V30 9248 H 942.549 4.20627 0.255131 0
M  V30 9249 H 941.273 3.14098 0.894981 0
M  V30 9250 H 939.932 3.45928 -1.21364 0
M  V30 9251 H 939.58 4.97458 0.744614 0
M  V30 9252 H 939.28 5.8222 -0.793294 0
M  V30 9253 H 940.804 6.10526 0.0951315 0
M  V30 9254 H 942.218 5.35447 -2.04864 0
M  V30 9255 H 940.615 5.28803 -2.83703 0
M  V30 9256 H 941.685 3.87653 -2.91296 0
M  V30 9257 N 943.028 0.824394 1.34319 0
M  V30 9258 C 944.268 0.419044 2.00058 0
M  V30 9259 C 944.632 -0.999504 1.63933 0
M  V30 9260 O 945.833 -1.50781 2.22527 0
M  V30 9261 C 944.104 0.616897 3.52036 0
M  V30 9262 S 945.663 0.304614 4.37741 0
M  V30 9263 H 942.481 0.158265 0.693162 0
M  V30 9264 H 945.083 1.07053 1.63585 0
M  V30 9265 H 943.787 1.64896 3.75816 0
M  V30 9266 H 943.318 -0.0492693 3.93369 0
M  V30 9267 H 945.333 -0.88114 4.88314 0
M  V30 9268 N 944.506 -1.46559 0.579492 0
M  V30 9269 C 945.469 -2.28739 -0.145371 0
M  V30 9270 C 946.469 -1.38211 -0.821854 0
M  V30 9271 O 947.659 -1.6062 -0.674302 0
M  V30 9272 C 944.791 -3.18507 -1.21515 0
M  V30 9273 H 945.984 -2.94301 0.576786 0
M  V30 9274 H 943.537 -1.52616 0.337327 0
M  V30 9275 H 944.272 -2.57685 -1.96899 0
M  V30 9276 H 944.057 -3.85157 -0.734616 0
M  V30 9277 H 945.547 -3.80369 -1.72363 0
M  V30 9278 N 945.984 -0.3171 -1.54377 0
M  V30 9279 C 947.232 0.286842 -2.00054 0
M  V30 9280 C 947.553 1.53161 -1.20692 0
M  V30 9281 O 946.823 1.93479 -0.307045 0
M  V30 9282 H 945.403 0.108979 -0.739008 0
M  V30 9283 H 948.065 -0.432152 -1.90049 0
M  V30 9284 H 947.161 0.547729 -3.07256 0
M  V30 9285 N 947.462 1.57535 -0.0451378 0
M  V30 9286 C 948.878 1.56533 0.311373 0
M  V30 9287 C 949.078 1.05225 1.71843 0
M  V30 9288 O 948.134 0.706144 2.42425 0
M  V30 9289 C 949.447 3.00349 0.145348 0
M  V30 9290 C 950.995 3.12248 0.216908 0
M  V30 9291 C 951.47 4.57931 0.0794834 0
M  V30 9292 N 952.961 4.63 0.135954 0
M  V30 9293 C 953.696 5.73375 0.0536426 0
M  V30 9294 N 953.192 6.92753 -0.0806725 0
M  V30 9295 N 954.985 5.61995 0.108789 0
M  V30 9296 H 947.136 1.89211 -0.965044 0
M  V30 9297 H 949.399 0.871068 -0.374091 0
M  V30 9298 H 949.105 3.41898 -0.824533 0
M  V30 9299 H 948.979 3.66086 0.908903 0
M  V30 9300 H 951.366 2.70601 1.17726 0
M  V30 9301 H 951.447 2.49201 -0.577299 0
M  V30 9302 H 951.091 5.00262 -0.877516 0
M  V30 9303 H 951.021 5.18977 0.892758 0
M  V30 9304 H 953.512 3.77142 0.23926 0
M  V30 9305 H 953.825 7.7268 -0.136351 0
M  V30 9306 H 952.17 6.94904 -0.115675 0
M  V30 9307 H 955.361 4.67619 0.212235 0
M  V30 9308 H 955.534 6.47987 0.0411822 0
M  V30 9309 N 948.94 -0.228186 1.55939 0
M  V30 9310 C 949.888 -1.30239 1.92719 0
M  V30 9311 C 950.882 -1.48865 0.808424 0
M  V30 9312 O 952.088 -1.50118 0.993204 0
M  V30 9313 H 948.463 -0.436509 0.612343 0
M  V30 9314 H 950.434 -0.964965 2.82367 0
M  V30 9315 C 949.183 -2.647 2.25453 0
M  V30 9316 H 948.506 -2.51173 3.1105 0
M  V30 9317 H 949.946 -3.38691 2.55077 0
M  V30 9318 C 948.405 -3.1921 1.07734 0
M  V30 9319 O 948.935 -4.00301 0.335019 0
M  V30 9320 N 947.141 -2.77492 0.862938 0
M  V30 9321 H 946.688 -2.11657 1.4683 0
M  V30 9322 H 946.646 -3.14306 0.0770119 0
M  V30 9323 N 950.418 -1.49637 -0.494624 0
M  V30 9324 C 951.695 -1.4995 -1.25596 0
M  V30 9325 C 952.075 -0.230805 -2.09834 0
M  V30 9326 O 951.423 0.786625 -2.14533 0
M  V30 9327 C 951.633 -2.78204 -2.10721 0
M  V30 9328 C 952.981 -3.27946 -2.69698 0
M  V30 9329 O 954.005 -2.79365 -2.20984 0
M  V30 9330 O 952.864 -4.12571 -3.58395 0
M  V30 9331 H 949.958 -0.60044 -0.568684 0
M  V30 9332 H 952.504 -1.61906 -0.508371 0
M  V30 9333 H 951.276 -3.62029 -1.48494 0
M  V30 9334 H 950.899 -2.69139 -2.92661 0
M  V30 9335 N 951.896 0.746133 -1.38819 0
M  V30 9336 C 953.136 1.51821 -1.36857 0
M  V30 9337 C 953.5 1.9196 0.0391461 0
M  V30 9338 O 954.701 2.68172 0.183689 0
M  V30 9339 C 952.972 2.73214 -2.3041 0
M  V30 9340 S 954.531 3.62995 -2.46536 0
M  V30 9341 H 951.349 0.51945 -0.485482 0
M  V30 9342 H 953.951 0.875244 -1.74813 0
M  V30 9343 H 952.655 2.41847 -3.31569 0
M  V30 9344 H 952.186 3.42449 -1.9363 0
M  V30 9345 H 954.201 4.66353 -1.69498 0
M  V30 9346 N 953.375 1.23811 0.975125 0
M  V30 9347 C 954.624 1.06741 1.71141 0
M  V30 9348 C 954.937 -0.394986 1.9157 0
M  V30 9349 O 956.143 -0.685723 2.62698 0
M  V30 9350 C 954.599 1.86168 3.08009 0
M  V30 9351 C 954.207 3.36771 2.95448 0
M  V30 9352 C 955.951 1.77604 3.85561 0
M  V30 9353 C 953.858 4.0857 4.2758 0
M  V30 9354 H 952.788 0.395819 0.64175 0
M  V30 9355 H 955.439 1.47825 1.0872 0
M  V30 9356 H 953.821 1.37893 3.71216 0
M  V30 9357 H 954.995 3.92571 2.41298 0
M  V30 9358 H 953.31 3.46205 2.31368 0
M  V30 9359 H 955.907 2.28556 4.83391 0
M  V30 9360 H 956.25 0.739837 4.09673 0
M  V30 9361 H 956.783 2.23519 3.29065 0
M  V30 9362 H 953.522 5.12518 4.08663 0
M  V30 9363 H 953.042 3.57556 4.81574 0
M  V30 9364 H 954.721 4.15157 4.9624 0
M  V30 9365 N 954.853 -1.17469 1.05066 0
M  V30 9366 C 956.102 -1.87032 0.755114 0
M  V30 9367 C 956.415 -1.81844 -0.720572 0
M  V30 9368 O 957.621 -2.46866 -1.13002 0
M  V30 9369 C 956.077 -3.35581 1.30052 0
M  V30 9370 C 955.685 -3.49274 2.80556 0
M  V30 9371 C 957.429 -4.1048 1.08196 0
M  V30 9372 C 955.336 -4.91838 3.28404 0
M  V30 9373 H 954.266 -0.70057 0.278779 0
M  V30 9374 H 956.917 -1.32663 1.26779 0
M  V30 9375 H 955.299 -3.89479 0.715667 0
M  V30 9376 H 956.473 -3.05598 3.44886 0
M  V30 9377 H 954.788 -2.87793 3.00939 0
M  V30 9378 H 957.385 -5.15652 1.41447 0
M  V30 9379 H 957.728 -4.16295 0.0196603 0
M  V30 9380 H 958.261 -3.62784 1.63195 0
M  V30 9381 H 955 -4.91196 4.34058 0
M  V30 9382 H 954.52 -5.36189 2.68815 0
M  V30 9383 H 956.199 -5.60602 3.23009 0
M  V30 9384 N 956.331 -0.831506 -1.3388 0
M  V30 9385 C 957.608 -0.345907 -1.92517 0
M  V30 9386 C 957.988 1.16784 -1.75854 0
M  V30 9387 O 957.336 1.97889 -1.14245 0
M  V30 9388 C 957.546 -0.784692 -3.40064 0
M  V30 9389 C 958.894 -0.78846 -4.17215 0
M  V30 9390 O 959.918 -0.727823 -3.48685 0
M  V30 9391 O 958.777 -0.869481 -5.39539 0
M  V30 9392 H 955.871 -0.0963568 -0.821367 0
M  V30 9393 H 958.417 -0.916868 -1.42799 0
M  V30 9394 H 957.189 -1.82697 -3.46031 0
M  V30 9395 H 956.812 -0.189897 -3.97146 0
M  V30 9396 N 957.809 1.4625 -0.587256 0
M  V30 9397 C 958.756 2.30354 0.143384 0
M  V30 9398 C 959.726 1.40891 0.879716 0
M  V30 9399 O 960.911 1.69837 0.869486 0
M  V30 9400 C 958.051 3.25441 1.14815 0
M  V30 9401 C 957.164 4.30004 0.414792 0
M  V30 9402 C 956.299 5.12214 1.40748 0
M  V30 9403 C 955.338 6.08523 0.660786 0
M  V30 9404 N 954.475 6.83585 1.60176 0
M  V30 9405 H 959.315 2.92304 -0.579866 0
M  V30 9406 H 956.852 1.44055 -0.29777 0
M  V30 9407 H 958.81 3.79018 1.7436 0
M  V30 9408 H 957.44 2.6529 1.83906 0
M  V30 9409 H 956.492 3.79248 -0.295787 0
M  V30 9410 H 957.804 4.98515 -0.168738 0
M  V30 9411 H 956.958 5.70091 2.0756 0
M  V30 9412 H 955.697 4.43675 2.02494 0
M  V30 9413 H 954.702 5.49796 -0.0210864 0
M  V30 9414 H 955.927 6.79083 0.0486551 0
M  V30 9415 H 953.873 6.17752 2.20724 0
M  V30 9416 H 953.79 7.48373 1.07115 0
M  V30 9417 H 955.058 7.46016 2.26009 0
M  V30 9418 N 959.287 0.325282 1.54207 0
M  V30 9419 C 960.536 -0.27768 1.99779 0
M  V30 9420 C 960.849 -1.5311 1.21723 0
M  V30 9421 O 962.055 -2.21017 1.57682 0
M  V30 9422 C 960.511 -0.545329 3.55745 0
M  V30 9423 C 960.119 0.691143 4.42637 0
M  V30 9424 C 961.863 -1.10815 4.09781 0
M  V30 9425 C 959.77 0.395302 5.90077 0
M  V30 9426 H 958.7 -0.107536 0.746292 0
M  V30 9427 H 961.351 0.437773 1.78202 0
M  V30 9428 H 959.733 -1.32101 3.73317 0
M  V30 9429 H 960.907 1.46653 4.3684 0
M  V30 9430 H 959.222 1.1743 3.99499 0
M  V30 9431 H 961.819 -1.34414 5.1753 0
M  V30 9432 H 962.162 -2.05806 3.6187 0
M  V30 9433 H 962.695 -0.393608 3.95848 0
M  V30 9434 H 959.434 1.31443 6.42186 0
M  V30 9435 H 958.954 -0.34235 5.98822 0
M  V30 9436 H 960.633 0.00576877 6.47 0
M  V30 9437 N 960.765 -1.57509 0.0534917 0
M  V30 9438 C 962.181 -1.56696 -0.303067 0
M  V30 9439 C 962.381 -1.06135 -1.71282 0
M  V30 9440 O 961.437 -0.71899 -2.42047 0
M  V30 9441 C 962.75 -3.00421 -0.129418 0
M  V30 9442 C 964.298 -3.12358 -0.200346 0
M  V30 9443 C 964.773 -4.57967 -0.0551971 0
M  V30 9444 N 966.264 -4.63066 -0.111398 0
M  V30 9445 C 966.999 -5.73395 -0.0232344 0
M  V30 9446 N 966.495 -6.92701 0.11741 0
M  V30 9447 N 968.288 -5.62045 -0.078984 0
M  V30 9448 H 960.439 -1.88696 0.975064 0
M  V30 9449 H 962.702 -0.869072 0.378706 0
M  V30 9450 H 962.408 -3.41456 0.842653 0
M  V30 9451 H 962.282 -3.66563 -0.889476 0
M  V30 9452 H 964.669 -2.71221 -1.16289 0
M  V30 9453 H 964.75 -2.48891 0.590506 0
M  V30 9454 H 964.394 -4.9979 0.904034 0
M  V30 9455 H 964.324 -5.19443 -0.865223 0
M  V30 9456 H 966.815 -3.77263 -0.219256 0
M  V30 9457 H 967.128 -7.72597 0.177326 0
M  V30 9458 H 965.473 -6.94833 0.152526 0
M  V30 9459 H 968.664 -4.67725 -0.187434 0
M  V30 9460 H 968.837 -6.48 -0.00681731 0
M  V30 9461 N 962.243 0.219913 -1.56058 0
M  V30 9462 C 963.659 0.569685 -1.49086 0
M  V30 9463 C 963.859 1.87066 -0.748903 0
M  V30 9464 O 962.915 2.50838 -0.289235 0
M  V30 9465 C 964.228 0.647397 -2.93648 0
M  V30 9466 C 965.776 0.737914 -3.04177 0
M  V30 9467 C 966.251 0.846957 -4.50101 0
M  V30 9468 N 967.742 0.911136 -4.5415 0
M  V30 9469 C 968.477 1.01525 -5.64341 0
M  V30 9470 N 967.973 1.0832 -6.8428 0
M  V30 9471 N 969.766 1.05051 -5.52196 0
M  V30 9472 H 961.917 -0.633778 -2.02724 0
M  V30 9473 H 964.18 -0.222583 -0.921499 0
M  V30 9474 H 963.886 -0.238987 -3.50887 0
M  V30 9475 H 963.76 1.51046 -3.45637 0
M  V30 9476 H 966.147 1.61474 -2.47002 0
M  V30 9477 H 966.228 -0.150845 -2.55355 0
M  V30 9478 H 965.872 -0.0254166 -5.07894 0
M  V30 9479 H 965.802 1.75116 -4.96631 0
M  V30 9480 H 968.293 0.868869 -3.67776 0
M  V30 9481 H 968.606 1.16247 -7.64007 0
M  V30 9482 H 966.951 1.05231 -6.86987 0
M  V30 9483 H 970.142 0.994086 -4.57423 0
M  V30 9484 H 970.315 1.12819 -6.38103 0
M  V30 9485 N 963.721 1.49897 0.486681 0
M  V30 9486 C 964.668 1.67619 1.58658 0
M  V30 9487 C 965.638 0.517537 1.57831 0
M  V30 9488 O 966.823 0.746272 1.756 0
M  V30 9489 C 963.963 1.762 2.96728 0
M  V30 9490 C 963.076 3.03465 3.07462 0
M  V30 9491 C 962.211 3.02937 4.36351 0
M  V30 9492 C 961.25 4.24721 4.4077 0
M  V30 9493 N 960.387 4.22021 5.61108 0
M  V30 9494 H 965.227 2.61528 1.42853 0
M  V30 9495 H 962.764 1.29657 0.694807 0
M  V30 9496 H 964.722 1.79156 3.76774 0
M  V30 9497 H 963.352 0.857452 3.11203 0
M  V30 9498 H 962.404 3.10054 2.20387 0
M  V30 9499 H 963.716 3.93454 3.06586 0
M  V30 9500 H 962.87 3.04536 5.24731 0
M  V30 9501 H 961.609 2.10751 4.39813 0
M  V30 9502 H 960.614 4.23352 3.5079 0
M  V30 9503 H 961.839 5.18116 4.39013 0
M  V30 9504 H 959.785 3.3268 5.65385 0
M  V30 9505 H 959.702 5.05761 5.61909 0
M  V30 9506 H 960.97 4.27743 6.51656 0
M  V30 9507 N 965.199 -0.738761 1.39212 0
M  V30 9508 C 966.147 -1.8741 1.3777 0
M  V30 9509 C 967.141 -1.67371 0.261375 0
M  V30 9510 O 968.347 -1.74759 0.431209 0
M  V30 9511 H 964.722 -0.616843 0.430126 0
M  V30 9512 H 966.693 -1.85742 2.33543 0
M  V30 9513 C 965.442 -3.25053 1.23433 0
M  V30 9514 H 964.765 -3.41066 2.086 0
M  V30 9515 H 966.205 -4.04696 1.2648 0
M  V30 9516 C 964.664 -3.36851 -0.0575624 0
M  V30 9517 O 965.194 -3.88293 -1.02915 0
M  V30 9518 N 963.4 -2.90355 -0.119364 0
M  V30 9519 H 962.947 -2.48681 0.671976 0
M  V30 9520 H 962.905 -2.98628 -0.983286 0
M  V30 9521 N 966.677 -1.24326 -0.968545 0
M  V30 9522 C 967.917 -1.09434 -1.72637 0
M  V30 9523 C 968.281 0.360781 -1.8858 0
M  V30 9524 O 969.482 0.631188 -2.61284 0
M  V30 9525 C 967.753 -1.81285 -3.08011 0
M  V30 9526 S 969.312 -1.82113 -3.99225 0
M  V30 9527 H 966.13 -0.391409 -0.593565 0
M  V30 9528 H 968.732 -1.57643 -1.15624 0
M  V30 9529 H 967.436 -2.86274 -2.94067 0
M  V30 9530 H 966.967 -1.33405 -3.7009 0
M  V30 9531 H 968.982 -0.888196 -4.88186 0
M  V30 9532 N 968.156 1.1691 -1.05688 0
M  V30 9533 C 969.567 1.68915 -0.795273 0
M  V30 9534 C 969.918 1.83968 0.681925 0
M  V30 9535 O 969.043 1.53083 1.52953 0
M  V30 9536 C 969.638 3.06814 -1.43703 0
M  V30 9537 C 968.197 3.55965 -1.22335 0
M  V30 9538 C 967.344 2.32099 -1.51741 0
M  V30 9539 H 970.295 1.01357 -1.22116 0
M  V30 9540 H 970.316 3.70907 -0.849016 0
M  V30 9541 H 969.828 2.95826 -2.51214 0
M  V30 9542 H 967.929 3.72222 -0.16771 0
M  V30 9543 H 968.042 4.38427 -1.9318 0
M  V30 9544 H 966.406 2.36811 -0.937696 0
M  V30 9545 H 967.189 2.23715 -2.60397 0
M  V30 9546 N 969.634 0.838594 1.33437 0
M  V30 9547 C 970.597 0.276843 2.27522 0
M  V30 9548 C 971.597 -0.554275 1.50945 0
M  V30 9549 O 972.787 -0.368107 1.70266 0
M  V30 9550 C 969.919 -0.610036 3.35397 0
M  V30 9551 H 971.112 1.10705 2.78719 0
M  V30 9552 H 968.665 0.611657 1.43835 0
M  V30 9553 H 969.4 -1.46269 2.89441 0
M  V30 9554 H 969.185 -0.0153615 3.92097 0
M  V30 9555 H 970.675 -0.996368 4.05539 0
M  V30 9556 N 971.112 -1.45937 0.595003 0
M  V30 9557 C 972.352 -2.0421 0.0881479 0
M  V30 9558 C 972.716 -1.45498 -1.25277 0
M  V30 9559 O 973.917 -1.95047 -1.8496 0
M  V30 9560 C 972.188 -3.57382 0.0362346 0
M  V30 9561 S 973.747 -4.36869 -0.41126 0
M  V30 9562 H 970.565 -0.709672 0.0434424 0
M  V30 9563 H 973.167 -1.78815 0.790273 0
M  V30 9564 H 971.871 -3.97628 1.0159 0
M  V30 9565 H 971.402 -3.87332 -0.688278 0
M  V30 9566 H 973.417 -4.67486 -1.66347 0
M  V30 9567 N 972.59 -0.333456 -1.54032 0
M  V30 9568 C 974.006 0.0188405 -1.59589 0
M  V30 9569 C 974.206 1.49615 -1.34972 0
M  V30 9570 O 973.262 2.2535 -1.13901 0
M  V30 9571 C 974.575 -0.408273 -2.97915 0
M  V30 9572 C 976.123 -0.359763 -3.10926 0
M  V30 9573 C 976.598 -0.76219 -4.51613 0
M  V30 9574 N 978.089 -0.715981 -4.57633 0
M  V30 9575 C 978.824 -0.999436 -5.64623 0
M  V30 9576 N 978.32 -1.35053 -6.79509 0
M  V30 9577 N 980.113 -0.924343 -5.54448 0
M  V30 9578 H 972.264 -1.29587 -1.68289 0
M  V30 9579 H 974.527 -0.527584 -0.787629 0
M  V30 9580 H 974.233 -1.43793 -3.20962 0
M  V30 9581 H 974.107 0.221685 -3.76548 0
M  V30 9582 H 976.494 0.660703 -2.87609 0
M  V30 9583 H 976.575 -1.02479 -2.34375 0
M  V30 9584 H 976.219 -1.78062 -4.75664 0
M  V30 9585 H 976.149 -0.0747478 -5.26547 0
M  V30 9586 H 978.64 -0.456875 -3.75128 0
M  V30 9587 H 978.953 -1.55194 -7.57057 0
M  V30 9588 H 977.298 -1.38889 -6.80981 0
M  V30 9589 H 980.489 -0.649469 -4.63573 0
M  V30 9590 H 980.662 -1.1486 -6.37739 0
M  V30 9591 N 974.068 1.57479 -0.061844 0
M  V30 9592 C 974.998 2.15181 0.9066 0
M  V30 9593 C 975.979 1.07624 1.31724 0
M  V30 9594 O 977.164 1.35614 1.39006 0
M  V30 9595 C 974.294 2.70542 2.17771 0
M  V30 9596 C 973.248 3.83178 1.9068 0
M  V30 9597 C 972.574 4.25099 3.24337 0
M  V30 9598 C 973.874 5.07853 1.21994 0
M  V30 9599 H 975.568 2.96355 0.42594 0
M  V30 9600 H 973.114 1.42556 0.203435 0
M  V30 9601 H 975.067 3.09552 2.85929 0
M  V30 9602 H 973.791 1.86575 2.68062 0
M  V30 9603 H 972.45 3.44656 1.24931 0
M  V30 9604 H 972.098 3.38069 3.72449 0
M  V30 9605 H 971.798 5.01021 3.07005 0
M  V30 9606 H 973.322 4.66718 3.93709 0
M  V30 9607 H 974.736 5.44242 1.80204 0
M  V30 9608 H 973.133 5.88987 1.14954 0
M  V30 9609 H 974.203 4.84497 0.197536 0
M  V30 9610 N 975.546 -0.211634 1.56173 0
M  V30 9611 C 976.478 -1.286 1.89723 0
M  V30 9612 C 977.491 -1.42549 0.786361 0
M  V30 9613 O 978.68 -1.4327 1.06471 0
M  V30 9614 C 975.78 -2.66036 2.09948 0
M  V30 9615 C 974.953 -2.73908 3.41018 0
M  V30 9616 C 974.012 -3.92425 3.50555 0
M  V30 9617 O 973.038 -3.803 4.2351 0
M  V30 9618 N 974.24 -5.07165 2.82426 0
M  V30 9619 H 977.005 -1.00142 2.82474 0
M  V30 9620 H 974.566 -0.401633 1.56839 0
M  V30 9621 H 976.558 -3.43719 2.13634 0
M  V30 9622 H 975.128 -2.87052 1.23774 0
M  V30 9623 H 974.348 -1.82625 3.49345 0
M  V30 9624 H 975.636 -2.76145 4.27342 0
M  V30 9625 H 975.034 -5.19913 2.2295 0
M  V30 9626 H 973.591 -5.82855 2.9176 0
M  V30 9627 N 977.024 -1.50153 -0.478725 0
M  V30 9628 C 977.971 -1.68458 -1.57767 0
M  V30 9629 C 978.941 -0.5259 -1.57555 0
M  V30 9630 O 980.126 -0.755574 -1.75202 0
M  V30 9631 C 977.266 -1.77772 -2.95789 0
M  V30 9632 C 976.379 -3.05092 -3.05848 0
M  V30 9633 C 975.514 -3.05247 -4.34739 0
M  V30 9634 C 974.553 -4.27053 -4.38512 0
M  V30 9635 N 973.69 -4.24991 -5.58862 0
M  V30 9636 H 978.53 -2.62282 -1.41464 0
M  V30 9637 H 976.067 -1.30023 -0.687921 0
M  V30 9638 H 978.025 -1.81152 -3.75819 0
M  V30 9639 H 976.655 -0.873944 -3.10744 0
M  V30 9640 H 975.707 -3.11219 -2.1874 0
M  V30 9641 H 977.019 -3.95075 -3.04495 0
M  V30 9642 H 976.173 -3.07314 -5.23109 0
M  V30 9643 H 974.912 -2.13081 -4.38689 0
M  V30 9644 H 973.917 -4.25206 -3.4854 0
M  V30 9645 H 975.142 -5.20437 -4.36259 0
M  V30 9646 H 973.088 -3.35674 -5.63612 0
M  V30 9647 H 973.005 -5.08734 -5.59219 0
M  V30 9648 H 974.273 -4.31193 -6.49379 0
M  V30 9649 N 978.502 0.731368 -1.39602 0
M  V30 9650 C 979.742 1.5036 -1.3846 0
M  V30 9651 C 980.106 1.91991 0.018784 0
M  V30 9652 O 981.307 2.68351 0.155236 0
M  V30 9653 C 979.578 2.70755 -2.33295 0
M  V30 9654 S 981.137 3.6036 -2.50372 0
M  V30 9655 H 977.955 0.514271 -0.490964 0
M  V30 9656 H 980.557 0.856654 -1.75732 0
M  V30 9657 H 979.261 2.38316 -3.34116 0
M  V30 9658 H 978.792 3.40376 -1.97251 0
M  V30 9659 H 980.807 4.64529 -1.74435 0
M  V30 9660 N 979.98 1.24838 0.961938 0
M  V30 9661 C 980.91 1.07053 2.07514 0
M  V30 9662 C 981.891 -0.0182465 1.7009 0
M  V30 9663 O 983.076 0.149915 1.9362 0
M  V30 9664 C 980.206 0.680693 3.40564 0
M  V30 9665 C 979.16 1.71889 3.91967 0
M  V30 9666 C 978.486 1.18395 5.21428 0
M  V30 9667 C 979.786 3.1161 4.19161 0
M  V30 9668 H 981.48 2.00167 2.22651 0
M  V30 9669 H 979.026 0.963799 1.0699 0
M  V30 9670 H 980.979 0.54324 4.17884 0
M  V30 9671 H 979.703 -0.28615 3.25344 0
M  V30 9672 H 978.362 1.84465 3.16809 0
M  V30 9673 H 978.01 0.207543 5.02572 0
M  V30 9674 H 977.71 1.87778 5.56788 0
M  V30 9675 H 979.234 1.05873 6.01351 0
M  V30 9676 H 980.648 3.0223 4.87165 0
M  V30 9677 H 979.045 3.78398 4.65763 0
M  V30 9678 H 980.115 3.59218 3.25715 0
M  V30 9679 N 981.458 -1.16348 1.06306 0
M  V30 9680 C 982.39 -2.20316 0.631929 0
M  V30 9681 C 983.403 -1.59819 -0.310133 0
M  V30 9682 O 984.592 -1.78213 -0.101103 0
M  V30 9683 C 981.692 -3.3877 -0.0937645 0
M  V30 9684 C 980.865 -4.28826 0.861816 0
M  V30 9685 C 979.924 -5.25908 0.175346 0
M  V30 9686 O 978.95 -5.63363 0.813039 0
M  V30 9687 N 980.152 -5.70307 -1.08305 0
M  V30 9688 H 982.917 -2.57925 1.52626 0
M  V30 9689 H 980.478 -1.31358 0.946392 0
M  V30 9690 H 982.47 -4.00759 -0.563412 0
M  V30 9691 H 981.04 -2.99666 -0.889904 0
M  V30 9692 H 980.26 -3.64098 1.51083 0
M  V30 9693 H 981.548 -4.85875 1.51007 0
M  V30 9694 H 980.946 -5.4197 -1.62127 0
M  V30 9695 H 979.503 -6.34387 -1.49656 0
M  V30 9696 N 982.937 -0.845659 -1.3299 0
M  V30 9697 C 983.9 -0.288905 -2.27372 0
M  V30 9698 C 984.9 0.546263 -1.51237 0
M  V30 9699 O 986.09 0.359072 -1.70459 0
M  V30 9700 C 983.222 0.59224 -3.35716 0
M  V30 9701 H 984.415 -1.12181 -2.78128 0
M  V30 9702 H 981.968 -0.619276 -1.43508 0
M  V30 9703 H 982.703 1.44732 -2.90212 0
M  V30 9704 H 982.488 -0.00543255 -3.921 0
M  V30 9705 H 983.978 0.974848 -4.06062 0
M  V30 9706 N 984.415 1.45619 -0.602734 0
M  V30 9707 C 985.663 2.01873 -0.095844 0
M  V30 9708 C 985.984 1.47427 1.27633 0
M  V30 9709 O 985.254 0.666652 1.84208 0
M  V30 9710 H 983.834 0.746295 -0.0324408 0
M  V30 9711 H 986.496 1.78478 -0.783037 0
M  V30 9712 H 985.592 3.12072 -0.0419507 0
M  V30 9713 N 985.893 0.34162 1.53853 0
M  V30 9714 C 986.826 -0.559051 2.21246 0
M  V30 9715 C 987.804 -1.10179 1.1958 0
M  V30 9716 O 988.988 -1.16242 1.48392 0
M  V30 9717 C 986.115 -1.7689 2.88838 0
M  V30 9718 C 985.161 -1.3558 4.04377 0
M  V30 9719 S 985.994 -0.377225 5.3417 0
M  V30 9720 C 987.15 -1.59395 6.05264 0
M  V30 9721 H 987.383 0.013373 2.97297 0
M  V30 9722 H 984.916 0.125694 1.53888 0
M  V30 9723 H 986.874 -2.463 3.284 0
M  V30 9724 H 985.535 -2.31254 2.12557 0
M  V30 9725 H 984.728 -2.25781 4.50599 0
M  V30 9726 H 984.33 -0.741197 3.66582 0
M  V30 9727 H 986.622 -2.52872 6.2854 0
M  V30 9728 H 987.565 -1.17356 6.98307 0
M  V30 9729 H 987.973 -1.78913 5.35397 0
M  V30 9730 N 987.371 -1.57444 0.0701946 0
M  V30 9731 C 988.319 -2.13834 -0.915302 0
M  V30 9732 C 989.313 -1.07483 -1.30934 0
M  V30 9733 O 990.519 -1.25865 -1.28678 0
M  V30 9734 H 986.894 -0.683716 -0.313108 0
M  V30 9735 H 988.865 -2.95503 -0.414758 0
M  V30 9736 C 987.614 -2.71355 -2.17398 0
M  V30 9737 H 986.937 -3.52861 -1.87961 0
M  V30 9738 H 988.377 -3.1441 -2.84469 0
M  V30 9739 C 986.836 -1.66038 -2.93143 0
M  V30 9740 O 987.366 -1.08443 -3.86786 0
M  V30 9741 N 985.572 -1.3711 -2.56221 0
M  V30 9742 H 985.119 -1.84135 -1.80145 0
M  V30 9743 H 985.077 -0.66877 -3.07205 0
M  V30 9744 N 988.849 0.203349 -1.56283 0
M  V30 9745 C 989.779 1.2549 -1.96912 0
M  V30 9746 C 990.76 1.47919 -0.839884 0
M  V30 9747 O 991.945 1.59795 -1.10359 0
M  V30 9748 C 989.075 2.6009 -2.30153 0
M  V30 9749 C 988.029 2.52289 -3.45738 0
M  V30 9750 C 987.355 3.91086 -3.64632 0
M  V30 9751 C 988.655 2.05503 -4.80173 0
M  V30 9752 H 990.349 0.917306 -2.85002 0
M  V30 9753 H 987.895 0.439818 -1.37119 0
M  V30 9754 H 989.848 3.33829 -2.5717 0
M  V30 9755 H 988.572 2.95574 -1.38937 0
M  V30 9756 H 987.231 1.81006 -3.18798 0
M  V30 9757 H 986.879 4.23908 -2.7076 0
M  V30 9758 H 986.579 3.86742 -4.42385 0
M  V30 9759 H 988.103 4.66459 -3.94016 0
M  V30 9760 H 989.517 2.68995 -5.06275 0
M  V30 9761 H 987.914 2.1218 -5.61337 0
M  V30 9762 H 988.984 1.00793 -4.74309 0
M  V30 9763 N 990.327 1.50405 0.470755 0
M  V30 9764 C 991.575 1.61092 1.2204 0
M  V30 9765 C 991.896 0.313487 1.92464 0
M  V30 9766 O 991.166 -0.669043 1.84121 0
M  V30 9767 H 989.746 0.593618 0.45346 0
M  V30 9768 H 992.408 1.87184 0.542985 0
M  V30 9769 H 991.504 2.42222 1.96812 0
M  V30 9770 N 991.805 -0.723954 1.39988 0
M  V30 9771 C 992.768 -1.81973 1.3935 0
M  V30 9772 C 993.768 -1.58187 0.288702 0
M  V30 9773 O 994.958 -1.65383 0.547181 0
M  V30 9774 C 992.09 -3.19937 1.177 0
M  V30 9775 H 993.283 -1.83939 2.36868 0
M  V30 9776 H 990.836 -0.928742 1.25714 0
M  V30 9777 H 991.571 -3.23625 0.209093 0
M  V30 9778 H 991.356 -3.386 1.97719 0
M  V30 9779 H 992.846 -3.99981 1.20022 0
M  V30 9780 N 993.283 -1.25346 -0.955304 0
M  V30 9781 C 994.699 -1.02154 -1.22625 0
M  V30 9782 C 994.899 0.26206 -1.99789 0
M  V30 9783 O 993.955 0.974958 -2.32918 0
M  V30 9784 C 995.268 -2.2443 -2.00129 0
M  V30 9785 C 996.816 -2.29185 -2.13174 0
M  V30 9786 C 997.291 -3.51117 -2.94077 0
M  V30 9787 N 998.782 -3.51509 -3.01655 0
M  V30 9788 C 999.517 -4.42517 -3.64645 0
M  V30 9789 N 999.013 -5.43796 -4.29252 0
M  V30 9790 N 1000.81 -4.302 -3.61779 0
M  V30 9791 H 992.957 -2.07812 -0.439071 0
M  V30 9792 H 995.22 -0.91258 -0.256715 0
M  V30 9793 H 994.926 -3.17717 -1.50827 0
M  V30 9794 H 994.8 -2.27548 -3.00835 0
M  V30 9795 H 997.187 -1.36422 -2.61674 0
M  V30 9796 H 997.268 -2.30087 -1.11775 0
M  V30 9797 H 996.912 -4.44201 -2.46268 0
M  V30 9798 H 996.842 -3.4746 -3.95701 0
M  V30 9799 H 999.333 -2.78245 -2.55711 0
M  V30 9800 H 999.646 -6.09453 -4.75171 0
M  V30 9801 H 997.991 -5.4767 -4.27882 0
M  V30 9802 H 1001.18 -3.50304 -3.10491 0
M  V30 9803 H 1001.36 -5.01323 -4.10584 0
M  V30 9804 N 994.761 1.15782 -1.06922 0
M  V30 9805 C 995.708 2.2038 -0.685659 0
M  V30 9806 C 996.678 1.62972 0.320816 0
M  V30 9807 O 997.863 1.8966 0.208258 0
M  V30 9808 C 995.003 3.44995 -0.084998 0
M  V30 9809 C 994.116 4.16621 -1.14242 0
M  V30 9810 C 993.251 5.28773 -0.507226 0
M  V30 9811 C 992.29 5.92209 -1.54774 0
M  V30 9812 N 991.427 6.9584 -0.935443 0
M  V30 9813 H 996.267 2.5254 -1.58201 0
M  V30 9814 H 993.804 1.24031 -0.790864 0
M  V30 9815 H 995.762 4.16254 0.280845 0
M  V30 9816 H 994.392 3.13365 0.774725 0
M  V30 9817 H 993.444 3.43903 -1.62589 0
M  V30 9818 H 994.756 4.59884 -1.93154 0
M  V30 9819 H 993.91 6.06635 -0.0887719 0
M  V30 9820 H 992.649 4.8669 0.313704 0
M  V30 9821 H 991.654 5.13063 -1.97602 0
M  V30 9822 H 992.879 6.3637 -2.37088 0
M  V30 9823 H 990.825 6.5586 -0.135339 0
M  V30 9824 H 990.742 7.37508 -1.66186 0
M  V30 9825 H 992.01 7.77611 -0.542346 0
M  V30 9826 N 996.239 0.8527 1.3254 0
M  V30 9827 C 997.464 0.468157 2.02047 0
M  V30 9828 C 997.889 -0.926967 1.63673 0
M  V30 9829 O 997.247 -1.60855 0.836378 0
M  V30 9830 C 997.295 0.612519 3.5536 0
M  V30 9831 O 996.399 -0.355506 4.10865 0
M  V30 9832 H 995.74 0.188401 0.636711 0
M  V30 9833 H 998.27 1.15135 1.6913 0
M  V30 9834 H 998.28 0.499315 4.04933 0
M  V30 9835 H 996.955 1.62988 3.82632 0
M  V30 9836 H 995.532 -0.198703 3.7237 0
M  V30 9837 N 997.718 -1.45297 0.610449 0
M  V30 9838 C 998.665 -2.30553 -0.106718 0
M  V30 9839 C 999.635 -1.42272 -0.85719 0
M  V30 9840 O 1000.82 -1.71199 -0.842357 0
M  V30 9841 C 997.96 -3.27226 -1.09623 0
M  V30 9842 C 997.073 -4.3061 -0.346329 0
M  V30 9843 C 996.208 -5.14389 -1.32581 0
M  V30 9844 C 995.247 -6.09497 -0.563892 0
M  V30 9845 N 994.384 -6.86047 -1.4928 0
M  V30 9846 H 999.224 -2.91344 0.626296 0
M  V30 9847 H 996.761 -1.43563 0.32065 0
M  V30 9848 H 998.719 -3.81744 -1.68308 0
M  V30 9849 H 997.349 -2.68182 -1.79662 0
M  V30 9850 H 996.401 -3.7873 0.356084 0
M  V30 9851 H 997.713 -4.98183 0.248026 0
M  V30 9852 H 996.867 -5.73321 -1.98464 0
M  V30 9853 H 995.606 -4.4684 -1.9541 0
M  V30 9854 H 994.611 -5.49693 0.108551 0
M  V30 9855 H 995.836 -6.79074 0.0593872 0
M  V30 9856 H 993.782 -6.21185 -2.10868 0
M  V30 9857 H 993.699 -7.49983 -0.951953 0
M  V30 9858 H 994.967 -7.49518 -2.14112 0
M  V30 9859 N 999.196 -0.349774 -1.5367 0
M  V30 9860 C 1000.14 0.504121 -2.25227 0
M  V30 9861 C 1001.11 1.09048 -1.2529 0
M  V30 9862 O 1002.3 1.12594 -1.54037 0
M  V30 9863 C 999.438 1.64601 -3.03316 0
M  V30 9864 C 998.551 1.08635 -4.18118 0
M  V30 9865 C 997.686 2.19605 -4.83681 0
M  V30 9866 C 996.725 1.61023 -5.90541 0
M  V30 9867 N 995.862 2.6576 -6.49858 0
M  V30 9868 H 1000.7 -0.112621 -2.97787 0
M  V30 9869 H 998.239 -0.0673503 -1.46946 0
M  V30 9870 H 1000.2 2.31836 -3.46854 0
M  V30 9871 H 998.827 2.23364 -2.33041 0
M  V30 9872 H 997.879 0.304748 -3.79177 0
M  V30 9873 H 999.191 0.617911 -4.94958 0
M  V30 9874 H 998.345 2.94693 -5.30322 0
M  V30 9875 H 997.084 2.69795 -4.06278 0
M  V30 9876 H 996.089 0.844428 -5.43277 0
M  V30 9877 H 997.314 1.11677 -6.69855 0
M  V30 9878 H 995.26 3.15193 -5.75317 0
M  V30 9879 H 995.177 2.23557 -7.2219 0
M  V30 9880 H 996.445 3.40598 -7.01151 0
M  V30 9881 N 1000.67 1.57404 -0.0785433 0
M  V30 9882 C 1001.6 2.16131 0.883726 0
M  V30 9883 C 1002.58 1.09015 1.30575 0
M  V30 9884 O 1003.77 1.3708 1.37559 0
M  V30 9885 C 1000.9 2.72836 2.1489 0
M  V30 9886 C 999.854 3.85178 1.86605 0
M  V30 9887 C 999.18 4.28516 3.1981 0
M  V30 9888 C 1000.48 5.09118 1.16601 0
M  V30 9889 H 1002.17 2.9679 0.394484 0
M  V30 9890 H 999.72 1.42763 0.188304 0
M  V30 9891 H 1001.67 3.12567 2.8263 0
M  V30 9892 H 1000.4 1.89408 2.66068 0
M  V30 9893 H 999.056 3.45962 1.21268 0
M  V30 9894 H 998.704 3.42 3.68843 0
M  V30 9895 H 998.404 5.04249 3.01674 0
M  V30 9896 H 999.928 4.70868 3.88737 0
M  V30 9897 H 1001.34 5.46123 1.74422 0
M  V30 9898 H 999.739 5.90173 1.087 0
M  V30 9899 H 1000.81 4.8468 0.146138 0
M  V30 9900 N 1002.15 -0.195058 1.56388 0
M  V30 9901 C 1003.4 -0.913636 1.8027 0
M  V30 9902 C 1003.72 -1.83791 0.651606 0
M  V30 9903 O 1002.99 -1.931 -0.330057 0
M  V30 9904 H 1001.57 -0.34036 0.664954 0
M  V30 9905 H 1004.23 -0.200559 1.93865 0
M  V30 9906 H 1003.33 -1.50473 2.7343 0
M  V30 9907 N 1003.63 -1.50653 -0.462772 0
M  V30 9908 C 1004.58 -1.70122 -1.55971 0
M  V30 9909 C 1005.55 -0.542581 -1.56988 0
M  V30 9910 O 1006.73 -0.774114 -1.74391 0
M  V30 9911 C 1003.87 -1.80899 -2.93887 0
M  V30 9912 C 1002.98 -3.08318 -3.02595 0
M  V30 9913 C 1002.12 -3.09841 -4.31477 0
M  V30 9914 C 1001.16 -4.3168 -4.33957 0
M  V30 9915 N 1000.3 -4.30894 -5.54323 0
M  V30 9916 H 1005.14 -2.63768 -1.38674 0
M  V30 9917 H 1002.67 -1.30746 -0.674091 0
M  V30 9918 H 1004.63 -1.85128 -3.73876 0
M  V30 9919 H 1003.26 -0.906854 -3.098 0
M  V30 9920 H 1002.31 -3.13521 -2.15427 0
M  V30 9921 H 1003.62 -3.98282 -3.00288 0
M  V30 9922 H 1002.78 -3.12845 -5.1982 0
M  V30 9923 H 1001.52 -2.17722 -4.36404 0
M  V30 9924 H 1000.52 -4.28879 -3.4401 0
M  V30 9925 H 1001.75 -5.25035 -4.30715 0
M  V30 9926 H 999.694 -3.41633 -5.6002 0
M  V30 9927 H 999.611 -5.14636 -5.53792 0
M  V30 9928 H 1000.88 -4.38056 -6.44769 0
M  V30 9929 N 1005.11 0.71652 -1.4037 0
M  V30 9930 C 1006.04 1.84345 -1.43315 0
M  V30 9931 C 1007.02 1.67537 -0.294186 0
M  V30 9932 O 1008.2 1.87582 -0.502671 0
M  V30 9933 C 1005.33 3.2229 -1.29408 0
M  V30 9934 C 1004.29 3.53769 -2.40897 0
M  V30 9935 C 1003.61 4.90847 -2.12068 0
M  V30 9936 C 1004.91 3.54862 -3.83237 0
M  V30 9937 H 1006.61 1.82138 -2.37626 0
M  V30 9938 H 1004.15 0.874873 -1.14376 0
M  V30 9939 H 1006.11 4.00819 -1.30085 0
M  V30 9940 H 1004.83 3.2507 -0.31573 0
M  V30 9941 H 1003.49 2.77579 -2.39469 0
M  V30 9942 H 1003.14 4.90229 -1.12626 0
M  V30 9943 H 1002.84 5.12875 -2.86762 0
M  V30 9944 H 1004.36 5.71711 -2.14426 0
M  V30 9945 H 1005.78 4.23432 -3.86494 0
M  V30 9946 H 1004.17 3.88416 -4.57442 0
M  V30 9947 H 1005.24 2.54266 -4.12888 0
M  V30 9948 N 1006.59 1.25851 0.948643 0
M  V30 9949 C 1007.53 1.06759 2.04625 0
M  V30 9950 C 1008.5 -0.0251144 1.66081 0
M  V30 9951 O 1009.69 0.133221 1.90334 0
M  V30 9952 C 1006.83 0.698724 3.37952 0
M  V30 9953 C 1005.94 1.8669 3.89578 0
M  V30 9954 C 1005.08 1.44184 5.11258 0
M  V30 9955 C 1004.12 2.57878 5.55126 0
M  V30 9956 N 1003.25 2.16106 6.68014 0
M  V30 9957 H 1008.09 2.00691 2.20289 0
M  V30 9958 H 1005.63 0.999327 1.07944 0
M  V30 9959 H 1007.59 0.465788 4.14592 0
M  V30 9960 H 1006.22 -0.203618 3.22157 0
M  V30 9961 H 1005.27 2.21298 3.09405 0
M  V30 9962 H 1006.58 2.72051 4.18079 0
M  V30 9963 H 1005.74 1.16891 5.95333 0
M  V30 9964 H 1004.47 0.559035 4.84485 0
M  V30 9965 H 1003.48 2.85909 4.69612 0
M  V30 9966 H 1004.7 3.46747 5.83904 0
M  V30 9967 H 1002.65 1.3025 6.42939 0
M  V30 9968 H 1002.57 2.95012 6.96063 0
M  V30 9969 H 1003.84 1.92005 7.55483 0
M  V30 9970 N 1008.06 -1.15214 1.07534 0
M  V30 9971 C 1009.31 -1.85676 0.79805 0
M  V30 9972 C 1009.63 -1.82837 -0.677919 0
M  V30 9973 O 1008.9 -1.27059 -1.49107 0
M  V30 9974 H 1007.48 -0.687468 0.292227 0
M  V30 9975 H 1010.15 -1.39658 1.35947 0
M  V30 9976 H 1009.24 -2.9076 1.13423 0
M  V30 9977 N 1009.54 -0.859717 -1.32086 0
M  V30 9978 C 1010.79 -0.461779 -1.96343 0
M  V30 9979 C 1011.1 0.988837 -1.68764 0
M  V30 9980 O 1012.31 1.49244 -2.268 0
M  V30 9981 C 1010.77 -0.77484 -3.5146 0
M  V30 9982 C 1010.37 -2.24153 -3.87891 0
M  V30 9983 C 1012.12 -0.444873 -4.22162 0
M  V30 9984 C 1010.03 -2.49754 -5.36075 0
M  V30 9985 H 1008.96 -0.168951 -0.734828 0
M  V30 9986 H 1011.61 -1.0512 -1.50406 0
M  V30 9987 H 1009.99 -0.114792 -3.95834 0
M  V30 9988 H 1011.16 -2.94378 -3.54511 0
M  V30 9989 H 1009.48 -2.53651 -3.30227 0
M  V30 9990 H 1012.07 -0.613508 -5.31169 0
M  V30 9991 H 1012.42 0.61391 -4.11749 0
M  V30 9992 H 1012.95 -1.06103 -3.83389 0
M  V30 9993 H 1009.69 -3.54276 -5.51515 0
M  V30 9994 H 1009.21 -1.84112 -5.70844 0
M  V30 9995 H 1010.89 -2.3396 -6.03218 0
M  V30 9996 N 1011.02 1.44971 -0.618145 0
M  V30 9997 C 1011.97 2.27704 0.116119 0
M  V30 9998 C 1012.95 1.37927 0.828558 0
M  V30 9999 O 1014.15 1.61836 0.716806 0
M  V30 10000 C 1011.28 3.25004 1.10578 0
M  V30 10001 C 1010.36 4.22269 0.39364 0
M  V30 10002 N 1010.75 5.02571 -0.570581 0
M  V30 10003 C 1009.05 4.41387 0.639809 0
M  V30 10004 C 1009.75 5.73211 -0.990144 0
M  V30 10005 N 1008.73 5.42587 -0.331653 0
M  V30 10006 H 1012.53 2.87193 -0.624295 0
M  V30 10007 H 1010.04 1.56252 -0.442631 0
M  V30 10008 H 1012.04 3.83017 1.64631 0
M  V30 10009 H 1010.7 2.67075 1.84664 0
M  V30 10010 H 1011.71 5.09153 -0.947814 0
M  V30 10011 H 1008.39 3.94572 1.36453 0
M  V30 10012 H 1009.78 6.47728 -1.78601 0
M  V30 10013 N 1012.5 0.357919 1.53482 0
M  V30 10014 C 1013.41 -0.500273 2.29204 0
M  V30 10015 C 1014.42 -1.09936 1.3487 0
M  V30 10016 O 1015.6 -1.11195 1.67921 0
M  V30 10017 C 1012.67 -1.62828 3.06085 0
M  V30 10018 C 1011.73 -1.05751 4.16071 0
M  V30 10019 C 1010.96 -2.13176 4.89277 0
M  V30 10020 O 1011.18 -3.34153 4.62274 0
M  V30 10021 O 1010.12 -1.76663 5.7539 0
M  V30 10022 H 1013.94 0.115696 3.0348 0
M  V30 10023 H 1011.53 0.122527 1.48897 0
M  V30 10024 H 1013.41 -2.28427 3.54117 0
M  V30 10025 H 1012.08 -2.22979 2.34653 0
M  V30 10026 H 1010.99 -0.365642 3.72309 0
M  V30 10027 H 1012.32 -0.500661 4.89647 0
M  V30 10028 N 1013.98 -1.5736 0.0868897 0
M  V30 10029 C 1014.89 -2.17087 -0.889402 0
M  V30 10030 C 1015.9 -1.13809 -1.31619 0
M  V30 10031 O 1017.08 -1.46143 -1.38579 0
M  V30 10032 C 1014.14 -2.73286 -2.13344 0
M  V30 10033 C 1013.2 -3.91491 -1.76164 0
M  V30 10034 C 1012.44 -4.45 -2.94637 0
M  V30 10035 O 1012.66 -3.97467 -4.09116 0
M  V30 10036 O 1011.59 -5.36133 -2.73579 0
M  V30 10037 H 1015.42 -3.00902 -0.411275 0
M  V30 10038 H 1013.01 -1.4877 -0.137015 0
M  V30 10039 H 1014.89 -3.0924 -2.86266 0
M  V30 10040 H 1013.56 -1.92521 -2.60225 0
M  V30 10041 H 1012.47 -3.60363 -1.00447 0
M  V30 10042 H 1013.8 -4.73593 -1.34053 0
M  V30 10043 N 1015.45 0.186762 -1.56489 0
M  V30 10044 C 1016.39 1.25565 -1.91745 0
M  V30 10045 C 1017.4 1.4128 -0.80894 0
M  V30 10046 O 1018.59 1.41558 -1.08737 0
M  V30 10047 C 1015.69 2.62662 -2.14154 0
M  V30 10048 C 1014.86 2.68448 -3.45333 0
M  V30 10049 C 1013.92 3.86798 -3.56754 0
M  V30 10050 O 1012.95 3.73514 -4.29507 0
M  V30 10051 N 1014.15 5.02607 -2.90459 0
M  V30 10052 H 1016.91 0.956351 -2.84032 0
M  V30 10053 H 1014.47 0.376631 -1.57458 0
M  V30 10054 H 1016.47 3.40277 -2.19075 0
M  V30 10055 H 1015.04 2.85046 -1.28326 0
M  V30 10056 H 1014.26 1.77044 -3.52206 0
M  V30 10057 H 1015.54 2.69311 -4.31682 0
M  V30 10058 H 1014.94 5.163 -2.31194 0
M  V30 10059 H 1013.5 5.78139 -3.00996 0
M  V30 10060 N 1016.93 1.50896 0.454776 0
M  V30 10061 C 1018.34 1.55372 1.0352 0
M  V30 10062 C 1018.69 0.366822 1.9274 0
M  V30 10063 O 1017.82 -0.518444 2.10098 0
M  V30 10064 C 1018.41 2.81574 1.88418 0
M  V30 10065 C 1016.97 2.88679 2.4154 0
M  V30 10066 C 1016.12 2.49847 1.20298 0
M  V30 10067 H 1019.07 1.56924 0.236729 0
M  V30 10068 H 1019.09 2.64352 2.73676 0
M  V30 10069 H 1018.6 3.67941 1.23455 0
M  V30 10070 H 1016.71 2.06702 3.10008 0
M  V30 10071 H 1016.82 3.91944 2.7553 0
M  V30 10072 H 1015.18 2.02651 1.54288 0
M  V30 10073 H 1015.97 3.3854 0.569723 0
M  V30 10074 N 1018.41 -0.709066 1.40748 0
M  V30 10075 C 1019.34 -1.83412 1.37451 0
M  V30 10076 C 1020.36 -1.60394 0.27884 0
M  V30 10077 O 1021.54 -1.70147 0.539642 0
M  V30 10078 C 1018.64 -3.19935 1.1178 0
M  V30 10079 C 1017.82 -3.70095 2.33128 0
M  V30 10080 C 1016.88 -4.85249 2.03518 0
M  V30 10081 O 1015.9 -4.97563 2.76442 0
M  V30 10082 N 1017.1 -5.7152 1.01714 0
M  V30 10083 H 1019.87 -1.86736 2.34414 0
M  V30 10084 H 1017.43 -0.890863 1.35186 0
M  V30 10085 H 1019.42 -3.94578 0.899464 0
M  V30 10086 H 1017.99 -3.11718 0.234624 0
M  V30 10087 H 1017.21 -2.8651 2.70751 0
M  V30 10088 H 1018.5 -4.00344 3.1401 0
M  V30 10089 H 1017.9 -5.64188 0.413307 0
M  V30 10090 H 1016.46 -6.46119 0.858696 0
M  V30 10091 N 1019.89 -1.26353 -0.941956 0
M  V30 10092 C 1020.82 -1.03634 -2.04432 0
M  V30 10093 C 1021.83 0.00295864 -1.628 0
M  V30 10094 O 1023.02 -0.237029 -1.76919 0
M  V30 10095 C 1020.12 -0.547231 -3.34453 0
M  V30 10096 C 1019.3 -1.65559 -4.04857 0
M  V30 10097 C 1018.36 -1.16466 -5.13149 0
M  V30 10098 O 1017.38 -1.86158 -5.37898 0
M  V30 10099 N 1018.58 -0.0126703 -5.80499 0
M  V30 10100 H 1021.35 -1.98558 -2.24488 0
M  V30 10101 H 1018.91 -1.17728 -1.11138 0
M  V30 10102 H 1020.9 -0.203004 -4.04191 0
M  V30 10103 H 1019.47 0.308401 -3.11075 0
M  V30 10104 H 1018.69 -2.17079 -3.29044 0
M  V30 10105 H 1019.98 -2.39985 -4.48647 0
M  V30 10106 H 1019.38 0.569358 -5.62828 0
M  V30 10107 H 1017.93 0.272486 -6.5123 0
M  V30 10108 N 1021.37 1.14642 -1.08144 0
M  V30 10109 C 1022.3 2.19283 -0.6669 0
M  V30 10110 C 1023.31 1.60292 0.284668 0
M  V30 10111 O 1024.5 1.78352 0.0727383 0
M  V30 10112 C 1021.6 3.38877 0.0398572 0
M  V30 10113 C 1020.77 4.274 -0.929929 0
M  V30 10114 C 1019.83 5.25562 -0.258991 0
M  V30 10115 O 1018.86 5.61999 -0.902563 0
M  V30 10116 N 1020.06 5.71958 0.992177 0
M  V30 10117 H 1022.83 2.55464 -1.5671 0
M  V30 10118 H 1020.39 1.29836 -0.96717 0
M  V30 10119 H 1022.38 4.01605 0.499583 0
M  V30 10120 H 1020.95 3.01043 0.842118 0
M  V30 10121 H 1020.17 3.61649 -1.56857 0
M  V30 10122 H 1021.46 4.83411 -1.58717 0
M  V30 10123 H 1020.86 5.44481 1.53484 0
M  V30 10124 H 1019.41 6.36687 1.39544 0
M  V30 10125 N 1022.85 0.866709 1.31628 0
M  V30 10126 C 1023.78 0.277328 2.27516 0
M  V30 10127 C 1024.79 -0.557786 1.52946 0
M  V30 10128 O 1025.98 -0.38031 1.74402 0
M  V30 10129 C 1023.08 -0.625742 3.33073 0
M  V30 10130 C 1022.25 0.176204 4.37045 0
M  V30 10131 C 1021.31 -0.654497 5.22114 0
M  V30 10132 O 1020.34 -0.0836961 5.69138 0
M  V30 10133 N 1021.54 -1.96708 5.46156 0
M  V30 10134 H 1024.3 1.10133 2.78731 0
M  V30 10135 H 1021.87 0.72787 1.44616 0
M  V30 10136 H 1023.86 -1.18709 3.86898 0
M  V30 10137 H 1022.43 -1.35042 2.81926 0
M  V30 10138 H 1021.65 0.918999 3.83338 0
M  V30 10139 H 1022.94 0.726594 5.03585 0
M  V30 10140 H 1022.33 -2.454 5.09701 0
M  V30 10141 H 1020.89 -2.47629 6.02929 0
M  V30 10142 N 1024.32 -1.44642 0.625825 0
M  V30 10143 C 1025.73 -1.85502 0.211175 0
M  V30 10144 C 1026.09 -1.52356 -1.2362 0
M  V30 10145 O 1025.21 -0.959051 -1.93988 0
M  V30 10146 C 1025.81 -3.36702 0.37648 0
M  V30 10147 C 1024.36 -3.76396 0.0163795 0
M  V30 10148 C 1023.51 -2.68517 0.692368 0
M  V30 10149 H 1026.46 -1.35183 0.831333 0
M  V30 10150 H 1026.48 -3.78536 -0.386106 0
M  V30 10151 H 1026 -3.60795 1.42999 0
M  V30 10152 H 1024.1 -3.57919 -1.0356 0
M  V30 10153 H 1024.21 -4.77231 0.422742 0
M  V30 10154 H 1022.57 -2.54377 0.128191 0
M  V30 10155 H 1023.36 -2.95444 1.74837 0
M  V30 10156 N 1025.8 -0.366053 -1.5329 0
M  V30 10157 C 1027.21 0.113056 -1.86357 0
M  V30 10158 C 1027.56 1.48123 -1.28662 0
M  V30 10159 O 1026.69 2.07658 -0.608849 0
M  V30 10160 C 1027.28 0.211923 -3.38137 0
M  V30 10161 C 1025.84 0.635289 -3.71 0
M  V30 10162 C 1024.99 -0.217203 -2.76448 0
M  V30 10163 H 1027.94 -0.584829 -1.47531 0
M  V30 10164 H 1027.96 1.0354 -3.66142 0
M  V30 10165 H 1027.47 -0.783994 -3.80099 0
M  V30 10166 H 1025.57 1.63942 -3.34595 0
M  V30 10167 H 1025.69 0.409571 -4.77346 0
M  V30 10168 H 1024.05 0.313988 -2.52757 0
M  V30 10169 H 1024.83 -1.21067 -3.21244 0
M  V30 10170 N 1027.28 1.57312 -0.0952337 0
M  V30 10171 C 1028.69 1.81589 0.433875 0
M  V30 10172 C 1029.04 1.01086 1.68155 0
M  V30 10173 O 1028.17 0.240272 2.15062 0
M  V30 10174 C 1028.76 3.29366 0.793931 0
M  V30 10175 C 1027.32 3.54407 1.26778 0
M  V30 10176 C 1026.47 2.76035 0.264518 0
M  V30 10177 H 1029.42 1.55426 -0.320675 0
M  V30 10178 H 1029.44 3.42697 1.65345 0
M  V30 10179 H 1028.95 3.87932 -0.114334 0
M  V30 10180 H 1027.05 3.01173 2.19376 0
M  V30 10181 H 1027.17 4.63055 1.22952 0
M  V30 10182 H 1025.53 2.43509 0.746691 0
M  V30 10183 H 1026.31 3.37349 -0.636429 0
M  V30 10184 N 1028.76 -0.17846 1.56586 0
M  V30 10185 C 1030.17 -0.741599 1.71339 0
M  V30 10186 C 1030.52 -1.83112 0.704579 0
M  V30 10187 O 1029.64 -2.15975 -0.135557 0
M  V30 10188 C 1030.24 -1.35198 3.10656 0
M  V30 10189 C 1028.8 -1.86202 3.27118 0
M  V30 10190 C 1027.95 -0.738255 2.67292 0
M  V30 10191 H 1030.9 0.0468424 1.58631 0
M  V30 10192 H 1030.92 -2.2216 3.0891 0
M  V30 10193 H 1030.43 -0.558776 3.84056 0
M  V30 10194 H 1028.53 -2.68188 2.58661 0
M  V30 10195 H 1028.64 -2.01237 4.34788 0
M  V30 10196 H 1027.01 -1.15686 2.26912 0
M  V30 10197 H 1027.79 0.0429821 3.43273 0
M  V30 10198 N 1030.24 -1.51135 -0.446768 0
M  V30 10199 C 1031.65 -1.55919 -1.02694 0
M  V30 10200 C 1032 -0.377038 -1.92543 0
M  V30 10201 O 1031.12 0.507295 -2.1037 0
M  V30 10202 C 1031.72 -2.8257 -1.86922 0
M  V30 10203 C 1030.28 -2.89956 -2.40005 0
M  V30 10204 C 1029.42 -2.50482 -1.18971 0
M  V30 10205 H 1032.37 -1.57048 -0.228403 0
M  V30 10206 H 1032.4 -2.65799 -2.7227 0
M  V30 10207 H 1031.91 -3.6859 -1.21502 0
M  V30 10208 H 1030.01 -2.08343 -3.08907 0
M  V30 10209 H 1030.12 -3.93399 -2.73448 0
M  V30 10210 H 1028.49 -2.03466 -1.53211 0
M  V30 10211 H 1029.27 -3.38837 -0.551762 0
M  V30 10212 N 1031.71 0.701592 -1.41122 0
M  V30 10213 C 1033.12 1.28129 -1.35793 0
M  V30 10214 C 1033.48 1.96163 -0.0381185 0
M  V30 10215 O 1032.6 1.98416 0.863723 0
M  V30 10216 C 1033.2 2.33005 -2.45955 0
M  V30 10217 C 1031.75 2.86566 -2.44043 0
M  V30 10218 C 1030.9 1.60526 -2.26112 0
M  V30 10219 H 1033.85 0.496756 -1.50725 0
M  V30 10220 H 1033.87 3.14163 -2.14667 0
M  V30 10221 H 1033.39 1.8346 -3.42 0
M  V30 10222 H 1031.49 3.40304 -1.51737 0
M  V30 10223 H 1031.6 3.37406 -3.40138 0
M  V30 10224 H 1029.96 1.86113 -1.7388 0
M  V30 10225 H 1030.75 1.12985 -3.24175 0
M  V30 10226 N 1033.19 1.2685 0.935242 0
M  V30 10227 C 1034.6 1.11569 1.49697 0
M  V30 10228 C 1034.95 -0.301952 1.93863 0
M  V30 10229 O 1034.08 -1.19408 1.80473 0
M  V30 10230 C 1034.67 2.01918 2.72056 0
M  V30 10231 C 1033.23 1.90765 3.24477 0
M  V30 10232 C 1032.38 1.94918 1.97237 0
M  V30 10233 H 1035.33 1.39853 0.750116 0
M  V30 10234 H 1035.35 1.57056 3.46574 0
M  V30 10235 H 1034.86 3.05088 2.39881 0
M  V30 10236 H 1032.96 0.905521 3.61429 0
M  V30 10237 H 1033.08 2.76611 3.91182 0
M  V30 10238 H 1031.44 1.39046 2.13397 0
M  V30 10239 H 1032.22 2.99729 1.67385 0
M  V30 10240 N 1034.67 -1.14067 1.0875 0
M  V30 10241 C 1036.08 -1.66747 0.839778 0
M  V30 10242 C 1036.43 -1.85711 -0.632909 0
M  V30 10243 O 1035.56 -1.57084 -1.48841 0
M  V30 10244 C 1036.15 -3.02896 1.51787 0
M  V30 10245 C 1034.71 -3.52596 1.3173 0
M  V30 10246 C 1033.86 -2.27994 1.57841 0
M  V30 10247 H 1036.81 -0.980838 1.24761 0
M  V30 10248 H 1036.83 -3.68526 0.947057 0
M  V30 10249 H 1036.34 -2.89062 2.58969 0
M  V30 10250 H 1034.44 -3.71647 0.266339 0
M  V30 10251 H 1034.56 -4.33151 2.04736 0
M  V30 10252 H 1032.92 -2.34241 1.00015 0
M  V30 10253 H 1033.7 -2.16732 2.66237 0
M  V30 10254 N 1036.15 -0.873678 -1.31166 0
M  V30 10255 C 1037.08 -0.289389 -2.27366 0
M  V30 10256 C 1038.09 0.549667 -1.5324 0
M  V30 10257 O 1039.28 0.371056 -1.74601 0
M  V30 10258 C 1036.38 0.60807 -3.334 0
M  V30 10259 C 1035.56 -0.199379 -4.36945 0
M  V30 10260 C 1034.61 0.626798 -5.22454 0
M  V30 10261 O 1033.64 0.0535121 -5.69175 0
M  V30 10262 N 1034.84 1.93809 -5.47191 0
M  V30 10263 H 1037.61 -1.1161 -2.78143 0
M  V30 10264 H 1035.17 -0.735529 -1.44228 0
M  V30 10265 H 1037.16 1.16656 -3.87522 0
M  V30 10266 H 1035.73 1.33545 -2.82638 0
M  V30 10267 H 1034.95 -0.939316 -3.82845 0
M  V30 10268 H 1036.24 -0.75329 -5.03193 0
M  V30 10269 H 1035.64 2.42693 -5.10995 0
M  V30 10270 H 1034.19 2.44428 -6.04234 0
M  V30 10271 N 1037.63 1.44308 -0.633487 0
M  V30 10272 C 1038.85 2.06897 -0.144347 0
M  V30 10273 C 1039.28 1.47045 1.173 0
M  V30 10274 O 1038.63 0.572806 1.72013 0
M  V30 10275 C 1038.68 3.60571 -0.0456324 0
M  V30 10276 O 1037.79 4.0015 0.997682 0
M  V30 10277 H 1037.13 0.658427 -0.0858499 0
M  V30 10278 H 1039.66 1.85142 -0.870833 0
M  V30 10279 H 1039.67 4.07745 0.144178 0
M  V30 10280 H 1038.34 4.03515 -1.0074 0
M  V30 10281 H 1036.92 3.64603 0.782252 0
M  V30 10282 N 1039.1 0.374177 1.53094 0
M  V30 10283 C 1040.52 -0.103172 1.86415 0
M  V30 10284 C 1040.87 -1.47439 1.29446 0
M  V30 10285 O 1039.99 -2.07333 0.619853 0
M  V30 10286 C 1040.59 -0.193988 3.38244 0
M  V30 10287 C 1039.15 -0.615605 3.71332 0
M  V30 10288 C 1038.29 0.23186 2.76329 0
M  V30 10289 H 1041.24 0.592644 1.47219 0
M  V30 10290 H 1041.26 -1.01597 3.66686 0
M  V30 10291 H 1040.78 0.80414 3.79678 0
M  V30 10292 H 1038.88 -1.62165 3.3546 0
M  V30 10293 H 1038.99 -0.38425 4.77557 0
M  V30 10294 H 1037.35 -0.300579 2.5292 0
M  V30 10295 H 1038.14 1.22769 3.20597 0
M  V30 10296 N 1040.58 -1.57259 0.103575 0
M  V30 10297 C 1041.49 -2.18018 -0.866327 0
M  V30 10298 C 1042.51 -1.15198 -1.30404 0
M  V30 10299 O 1043.68 -1.47605 -1.37021 0
M  V30 10300 C 1040.75 -2.75533 -2.10434 0
M  V30 10301 C 1039.81 -3.93337 -1.72002 0
M  V30 10302 C 1039.04 -4.481 -2.89901 0
M  V30 10303 O 1039.27 -4.01784 -4.04877 0
M  V30 10304 O 1038.2 -5.39004 -2.67877 0
M  V30 10305 H 1042.03 -3.01322 -0.379338 0
M  V30 10306 H 1039.61 -1.48907 -0.121228 0
M  V30 10307 H 1041.49 -3.12259 -2.8297 0
M  V30 10308 H 1040.17 -1.9527 -2.58169 0
M  V30 10309 H 1039.08 -3.61408 -0.966193 0
M  V30 10310 H 1040.41 -4.74989 -1.29022 0
M  V30 10311 N 1042.06 0.170153 -1.56679 0
M  V30 10312 C 1042.97 1.23057 -1.99735 0
M  V30 10313 C 1043.99 1.48374 -0.908912 0
M  V30 10314 O 1045.16 1.60499 -1.21663 0
M  V30 10315 C 1042.23 2.54944 -2.34956 0
M  V30 10316 C 1041.29 2.3748 -3.57634 0
M  V30 10317 C 1040.52 3.63078 -3.91165 0
M  V30 10318 O 1040.74 4.68304 -3.2565 0
M  V30 10319 O 1039.68 3.57119 -4.8451 0
M  V30 10320 H 1043.5 0.895104 -2.9021 0
M  V30 10321 H 1041.09 0.377109 -1.44562 0
M  V30 10322 H 1042.97 3.32742 -2.58574 0
M  V30 10323 H 1041.65 2.88068 -1.47643 0
M  V30 10324 H 1040.55 1.57709 -3.39232 0
M  V30 10325 H 1041.89 2.0928 -4.45491 0
M  V30 10326 N 1043.54 1.5137 0.438746 0
M  V30 10327 C 1044.79 1.63645 1.18595 0
M  V30 10328 C 1045.11 0.354241 1.91755 0
M  V30 10329 O 1044.38 -0.629838 1.85499 0
M  V30 10330 H 1042.96 0.603103 0.440767 0
M  V30 10331 H 1045.62 1.88293 0.503159 0
M  V30 10332 H 1044.72 2.46342 1.9163 0
M  V30 10333 N 1045.02 -0.694098 1.41492 0
M  V30 10334 C 1046.24 -1.48286 1.44288 0
M  V30 10335 C 1046.66 -1.88737 0.0485783 0
M  V30 10336 O 1046.02 -1.56881 -0.932449 0
M  V30 10337 C 1046.07 -2.74446 2.3529 0
M  V30 10338 O 1045.79 -2.35698 3.69294 0
M  V30 10339 C 1047.29 -3.68175 2.46905 0
M  V30 10340 H 1044.51 -0.45692 0.491391 0
M  V30 10341 H 1047.05 -0.854477 1.85793 0
M  V30 10342 H 1045.21 -3.33518 1.9709 0
M  V30 10343 H 1045.62 -3.17029 4.17843 0
M  V30 10344 H 1047.1 -4.53476 3.14743 0
M  V30 10345 H 1047.57 -4.12763 1.50078 0
M  V30 10346 H 1048.18 -3.15006 2.85747 0
M  V30 10347 N 1046.49 -1.27344 -0.928501 0
M  V30 10348 C 1047.72 -1.16447 -1.7102 0
M  V30 10349 C 1048.14 0.278799 -1.8673 0
M  V30 10350 O 1047.49 1.18989 -1.38376 0
M  V30 10351 C 1047.55 -1.84242 -3.11026 0
M  V30 10352 O 1047.27 -3.2293 -2.96054 0
M  V30 10353 C 1048.77 -1.7946 -4.05351 0
M  V30 10354 H 1045.99 -0.404898 -0.535069 0
M  V30 10355 H 1048.53 -1.68201 -1.16313 0
M  V30 10356 H 1046.69 -1.36395 -3.62595 0
M  V30 10357 H 1047.1 -3.5667 -3.8456 0
M  V30 10358 H 1048.57 -2.31511 -5.01105 0
M  V30 10359 H 1049.05 -0.763771 -4.32508 0
M  V30 10360 H 1049.66 -2.26918 -3.59706 0
M  V30 10361 N 1047.97 1.13488 -1.09353 0
M  V30 10362 C 1049.2 1.88319 -0.849681 0
M  V30 10363 C 1049.61 1.79347 0.602616 0
M  V30 10364 O 1048.95 1.15744 1.4265 0
M  V30 10365 C 1049.02 3.38698 -1.20514 0
M  V30 10366 C 1048.68 3.71452 -2.66219 0
M  V30 10367 C 1049.68 3.70755 -3.64467 0
M  V30 10368 C 1047.36 4.01132 -3.02321 0
M  V30 10369 C 1049.36 3.9928 -4.96845 0
M  V30 10370 C 1047.04 4.29318 -4.3489 0
M  V30 10371 C 1048.04 4.28376 -5.31961 0
M  V30 10372 O 1047.73 4.55872 -6.62145 0
M  V30 10373 H 1047.46 0.603053 -0.305455 0
M  V30 10374 H 1050.01 1.44592 -1.45884 0
M  V30 10375 H 1048.24 3.82925 -0.539022 0
M  V30 10376 H 1049.93 3.94852 -0.940552 0
M  V30 10377 H 1050.7 3.47901 -3.3792 0
M  V30 10378 H 1046.58 4.01013 -2.27398 0
M  V30 10379 H 1050.12 3.9846 -5.72604 0
M  V30 10380 H 1046.02 4.51644 -4.61181 0
M  V30 10381 H 1046.79 4.73544 -6.67607 0
M  V30 10382 N 1049.45 0.880621 1.30701 0
M  V30 10383 C 1050.7 0.492957 1.95583 0
M  V30 10384 C 1051.01 -0.961863 1.70316 0
M  V30 10385 O 1052.22 -1.45617 2.29146 0
M  V30 10386 C 1050.68 0.830656 3.50183 0
M  V30 10387 C 1050.28 2.30295 3.84276 0
M  V30 10388 C 1052.03 0.511979 4.21401 0
M  V30 10389 C 1049.93 2.58251 5.32034 0
M  V30 10390 H 1048.86 0.18062 0.732047 0
M  V30 10391 H 1051.52 1.075 1.48715 0
M  V30 10392 H 1049.9 0.177752 3.95601 0
M  V30 10393 H 1051.07 2.99981 3.49783 0
M  V30 10394 H 1049.39 2.58873 3.2615 0
M  V30 10395 H 1051.98 0.697935 5.30125 0
M  V30 10396 H 1052.33 -0.548327 4.12673 0
M  V30 10397 H 1052.86 1.12189 3.81652 0
M  V30 10398 H 1049.6 3.63005 5.45809 0
M  V30 10399 H 1049.12 1.9317 5.67843 0
M  V30 10400 H 1050.8 2.43527 5.99419 0
M  V30 10401 N 1050.93 -1.4397 0.641131 0
M  V30 10402 C 1051.89 -2.29149 -0.0482243 0
M  V30 10403 C 1052.89 -1.41572 -0.762495 0
M  V30 10404 O 1054.08 -1.63335 -0.605571 0
M  V30 10405 C 1051.21 -3.23375 -1.07896 0
M  V30 10406 H 1052.41 -2.9159 0.70109 0
M  V30 10407 H 1049.96 -1.51048 0.401754 0
M  V30 10408 H 1050.7 -2.65804 -1.85792 0
M  V30 10409 H 1050.48 -3.87926 -0.570597 0
M  V30 10410 H 1051.97 -3.87337 -1.56075 0
M  V30 10411 N 1052.41 -0.382291 -1.52893 0
M  V30 10412 C 1053.82 0.0932841 -1.86467 0
M  V30 10413 C 1054.17 1.4675 -1.30226 0
M  V30 10414 O 1053.29 2.07001 -0.63084 0
M  V30 10415 C 1053.89 0.176048 -3.38342 0
M  V30 10416 C 1052.45 0.595904 -3.71653 0
M  V30 10417 C 1051.6 -0.246511 -2.76202 0
M  V30 10418 H 1054.55 -0.600443 -1.46903 0
M  V30 10419 H 1054.57 0.996512 -3.67219 0
M  V30 10420 H 1054.08 -0.824264 -3.79246 0
M  V30 10421 H 1052.18 1.60384 -3.36315 0
M  V30 10422 H 1052.29 0.358919 -4.77754 0
M  V30 10423 H 1050.66 0.287162 -2.53076 0
M  V30 10424 H 1051.44 -1.24467 -3.19942 0
M  V30 10425 N 1053.89 1.57202 -0.111913 0
M  V30 10426 C 1054.85 2.13778 0.826534 0
M  V30 10427 C 1055.85 1.07097 1.19945 0
M  V30 10428 O 1057.04 1.32906 1.12613 0
M  V30 10429 C 1054.17 2.6722 2.11675 0
M  V30 10430 H 1055.36 2.98023 0.334975 0
M  V30 10431 H 1052.92 1.55696 0.137256 0
M  V30 10432 H 1053.65 1.86542 2.65278 0
M  V30 10433 H 1053.44 3.45235 1.8589 0
M  V30 10434 H 1054.93 3.10926 2.78774 0
M  V30 10435 N 1055.36 -0.161842 1.56767 0
M  V30 10436 C 1056.31 -1.2002 1.97139 0
M  V30 10437 C 1057.28 -1.43486 0.836713 0
M  V30 10438 O 1058.47 -1.56069 1.0976 0
M  V30 10439 C 1055.61 -2.53228 2.34456 0
M  V30 10440 C 1054.72 -2.37062 3.61145 0
M  V30 10441 C 1053.85 -3.63202 3.87631 0
M  V30 10442 C 1052.89 -3.42008 5.07638 0
M  V30 10443 N 1052.03 -4.60242 5.30209 0
M  V30 10444 H 1056.87 -0.848918 2.85653 0
M  V30 10445 H 1054.41 -0.407753 1.41336 0
M  V30 10446 H 1056.36 -3.30879 2.54116 0
M  V30 10447 H 1054.99 -2.86333 1.4904 0
M  V30 10448 H 1054.05 -1.50539 3.49345 0
M  V30 10449 H 1055.36 -2.17353 4.48953 0
M  V30 10450 H 1054.51 -4.49285 4.0771 0
M  V30 10451 H 1053.25 -3.85899 2.98216 0
M  V30 10452 H 1052.26 -2.54312 4.87448 0
M  V30 10453 H 1053.48 -3.20724 5.98593 0
M  V30 10454 H 1051.43 -4.8314 4.43747 0
M  V30 10455 H 1051.34 -4.43481 6.12259 0
M  V30 10456 H 1052.61 -5.47581 5.54775 0
M  V30 10457 N 1056.84 -1.516 -0.430713 0
M  V30 10458 C 1057.75 -1.76247 -1.54836 0
M  V30 10459 C 1058.77 -0.646985 -1.61524 0
M  V30 10460 O 1059.94 -0.929987 -1.78643 0
M  V30 10461 C 1057.01 -1.88833 -2.90763 0
M  V30 10462 C 1056.07 -3.12701 -2.94137 0
M  V30 10463 C 1055.3 -3.24676 -4.23581 0
M  V30 10464 O 1055.53 -2.42429 -5.16318 0
M  V30 10465 O 1054.46 -4.17697 -4.33374 0
M  V30 10466 H 1058.29 -2.71069 -1.3695 0
M  V30 10467 H 1055.87 -1.36182 -0.614396 0
M  V30 10468 H 1057.75 -1.99057 -3.71422 0
M  V30 10469 H 1056.43 -0.971987 -3.08762 0
M  V30 10470 H 1055.33 -3.0795 -2.1241 0
M  V30 10471 H 1056.67 -4.04045 -2.81084 0
M  V30 10472 N 1058.32 0.686584 -1.41858 0
M  V30 10473 C 1059.73 1.26682 -1.37145 0
M  V30 10474 C 1060.08 1.96112 -0.058922 0
M  V30 10475 O 1059.21 1.99321 0.842629 0
M  V30 10476 C 1059.8 2.30383 -2.48413 0
M  V30 10477 C 1058.36 2.83961 -2.47069 0
M  V30 10478 C 1057.51 1.58119 -2.27802 0
M  V30 10479 H 1060.46 0.480742 -1.51243 0
M  V30 10480 H 1060.48 3.11868 -2.17987 0
M  V30 10481 H 1059.99 1.79822 -3.43927 0
M  V30 10482 H 1058.09 3.38675 -1.55338 0
M  V30 10483 H 1058.21 3.3378 -3.43697 0
M  V30 10484 H 1056.57 1.84258 -1.75844 0
M  V30 10485 H 1057.35 1.09541 -3.25355 0
M  V30 10486 N 1059.8 1.27835 0.921735 0
M  V30 10487 C 1061.02 1.17465 1.70929 0
M  V30 10488 C 1061.45 -0.264171 1.86236 0
M  V30 10489 O 1060.81 -1.19124 1.36671 0
M  V30 10490 C 1060.85 1.8697 3.08342 0
M  V30 10491 O 1059.96 1.17173 3.95404 0
M  V30 10492 H 1059.3 0.408206 0.523702 0
M  V30 10493 H 1061.83 1.69013 1.15307 0
M  V30 10494 H 1061.84 1.94564 3.58621 0
M  V30 10495 H 1060.51 2.91633 2.96518 0
M  V30 10496 H 1059.09 1.17688 3.53842 0
M  V30 10497 N 1061.28 -1.12907 1.09954 0
M  V30 10498 C 1062.52 -1.84579 0.840155 0
M  V30 10499 C 1062.85 -1.83605 -0.632692 0
M  V30 10500 O 1062.13 -1.27803 -1.46617 0
M  V30 10501 C 1062.41 -3.32489 1.38286 0
M  V30 10502 C 1062.27 -3.41946 2.92221 0
M  V30 10503 C 1063.58 -4.28091 1.0211 0
M  V30 10504 H 1060.7 -0.670169 0.306663 0
M  V30 10505 H 1063.35 -1.3249 1.36185 0
M  V30 10506 H 1061.5 -3.76978 0.939123 0
M  V30 10507 H 1063.17 -3.06128 3.45085 0
M  V30 10508 H 1061.41 -2.8265 3.29077 0
M  V30 10509 H 1062.08 -4.45983 3.25274 0
M  V30 10510 H 1064.56 -3.91701 1.4039 0
M  V30 10511 H 1063.43 -5.30005 1.42781 0
M  V30 10512 H 1063.69 -4.42044 -0.0700753 0
M  V30 10513 N 1062.75 -0.88754 -1.30232 0
M  V30 10514 C 1063.7 -0.345765 -2.30016 0
M  V30 10515 C 1064.7 0.5486 -1.60271 0
M  V30 10516 O 1065.9 0.43275 -1.74721 0
M  V30 10517 H 1062.28 -0.0931623 -0.746207 0
M  V30 10518 H 1064.25 -1.20095 -2.73166 0
M  V30 10519 C 1063 0.422435 -3.45124 0
M  V30 10520 H 1062.32 -0.256516 -3.98976 0
M  V30 10521 H 1063.76 0.766572 -4.17013 0
M  V30 10522 C 1062.22 1.62049 -2.95367 0
M  V30 10523 O 1062.75 2.71985 -2.95613 0
M  V30 10524 N 1060.95 1.45852 -2.51347 0
M  V30 10525 H 1060.5 0.564158 -2.51346 0
M  V30 10526 H 1060.46 2.26148 -2.18413 0
M  V30 10527 N 1064.23 1.43628 -0.648757 0
M  V30 10528 C 1065.46 2.06217 -0.167945 0
M  V30 10529 C 1065.88 1.486 1.16462 0
M  V30 10530 O 1065.23 0.61559 1.71804 0
M  V30 10531 C 1065.28 3.6144 -0.0660114 0
M  V30 10532 O 1065 4.16914 -1.34589 0
M  V30 10533 C 1066.51 4.41097 0.441408 0
M  V30 10534 H 1063.73 0.665228 -0.0878237 0
M  V30 10535 H 1066.27 1.84207 -0.888144 0
M  V30 10536 H 1064.42 3.82651 0.604722 0
M  V30 10537 H 1064.84 5.10537 -1.20218 0
M  V30 10538 H 1066.31 5.50066 0.461697 0
M  V30 10539 H 1066.79 4.13803 1.47187 0
M  V30 10540 H 1067.4 4.24845 -0.19668 0
M  V30 10541 N 1065.71 0.390394 1.52688 0
M  V30 10542 C 1066.67 -0.432149 2.25089 0
M  V30 10543 C 1067.67 -0.989296 1.26766 0
M  V30 10544 O 1068.86 -0.871126 1.50854 0
M  V30 10545 C 1066 -1.60642 3.00678 0
M  V30 10546 H 1067.19 0.201734 2.99221 0
M  V30 10547 H 1064.74 0.142531 1.55649 0
M  V30 10548 H 1065.48 -2.2777 2.3085 0
M  V30 10549 H 1065.26 -1.21361 3.72846 0
M  V30 10550 H 1066.75 -2.18873 3.55647 0
M  V30 10551 N 1067.19 -1.57141 0.120249 0
M  V30 10552 C 1068.12 -2.18398 -0.826112 0
M  V30 10553 C 1069.1 -1.12439 -1.27638 0
M  V30 10554 O 1070.28 -1.40679 -1.33877 0
M  V30 10555 C 1067.41 -2.78438 -2.0758 0
M  V30 10556 C 1066.37 -3.89991 -1.76327 0
M  V30 10557 C 1065.69 -4.36844 -3.08336 0
M  V30 10558 C 1066.99 -5.12031 -1.03062 0
M  V30 10559 H 1068.69 -2.97731 -0.315656 0
M  V30 10560 H 1066.23 -1.43213 -0.150387 0
M  V30 10561 H 1068.19 -3.19951 -2.74243 0
M  V30 10562 H 1066.91 -1.96396 -2.60953 0
M  V30 10563 H 1065.57 -3.49055 -1.12053 0
M  V30 10564 H 1065.22 -3.51659 -3.59646 0
M  V30 10565 H 1064.92 -5.1207 -2.88199 0
M  V30 10566 H 1066.44 -4.81009 -3.76116 0
M  V30 10567 H 1067.86 -5.50555 -1.59881 0
M  V30 10568 H 1066.25 -5.92848 -0.930146 0
M  V30 10569 H 1067.32 -4.84897 -0.017582 0
M  V30 10570 N 1068.67 0.153526 -1.5685 0
M  V30 10571 C 1069.91 0.868517 -1.83261 0
M  V30 10572 C 1070.25 1.81112 -0.700857 0
M  V30 10573 O 1069.52 1.92235 0.295989 0
M  V30 10574 C 1069.8 1.6487 -3.2014 0
M  V30 10575 C 1069.66 0.728021 -4.43869 0
M  V30 10576 C 1070.98 2.61259 -3.54163 0
M  V30 10577 H 1068.09 0.314297 -0.666623 0
M  V30 10578 H 1070.74 0.133971 -1.89527 0
M  V30 10579 H 1068.89 2.2749 -3.1493 0
M  V30 10580 H 1070.56 0.113328 -4.61161 0
M  V30 10581 H 1068.8 0.0371744 -4.33784 0
M  V30 10582 H 1069.47 1.30981 -5.36235 0
M  V30 10583 H 1071.95 2.0876 -3.59942 0
M  V30 10584 H 1070.82 3.12902 -4.50981 0
M  V30 10585 H 1071.09 3.42307 -2.79782 0
M  V30 10586 N 1070.14 1.51827 0.422667 0
M  V30 10587 C 1071.56 1.57533 1.00201 0
M  V30 10588 C 1071.91 0.407623 1.91919 0
M  V30 10589 O 1071.03 -0.473763 2.1115 0
M  V30 10590 C 1071.63 2.85508 1.82403 0
M  V30 10591 C 1070.19 2.93737 2.35362 0
M  V30 10592 C 1069.33 2.52343 1.14971 0
M  V30 10593 H 1072.28 1.57391 0.20339 0
M  V30 10594 H 1072.3 2.70097 2.68007 0
M  V30 10595 H 1071.82 3.70477 1.15623 0
M  V30 10596 H 1069.92 2.13231 3.05554 0
M  V30 10597 H 1070.03 3.977 2.67155 0
M  V30 10598 H 1068.39 2.05878 1.49955 0
M  V30 10599 H 1069.18 3.39672 0.497786 0
M  V30 10600 N 1071.62 -0.679052 1.4222 0
M  V30 10601 C 1072.55 -1.80455 1.41311 0
M  V30 10602 C 1073.57 -1.59767 0.312799 0
M  V30 10603 O 1074.76 -1.68964 0.575612 0
M  V30 10604 C 1071.86 -3.17492 1.18541 0
M  V30 10605 C 1071.03 -3.65066 2.40926 0
M  V30 10606 C 1070.09 -4.80823 2.13765 0
M  V30 10607 O 1069.11 -4.91587 2.86934 0
M  V30 10608 N 1070.32 -5.69233 1.13813 0
M  V30 10609 H 1073.08 -1.81722 2.38322 0
M  V30 10610 H 1070.64 -0.861988 1.37045 0
M  V30 10611 H 1072.63 -3.92581 0.982958 0
M  V30 10612 H 1071.2 -3.1115 0.300691 0
M  V30 10613 H 1070.42 -2.80702 2.76767 0
M  V30 10614 H 1071.71 -3.93593 3.22431 0
M  V30 10615 H 1071.11 -5.63185 0.532887 0
M  V30 10616 H 1069.67 -6.44152 0.995554 0
M  V30 10617 N 1073.1 -1.28322 -0.914942 0
M  V30 10618 C 1074.03 -1.14681 -2.03398 0
M  V30 10619 C 1075.01 -0.0448939 -1.70041 0
M  V30 10620 O 1076.2 -0.221672 -1.92931 0
M  V30 10621 C 1073.33 -0.806623 -3.37803 0
M  V30 10622 C 1072.28 -1.86318 -3.85318 0
M  V30 10623 C 1071.61 -1.37665 -5.16674 0
M  V30 10624 C 1072.91 -3.26953 -4.07307 0
M  V30 10625 H 1074.6 -2.08293 -2.15068 0
M  V30 10626 H 1072.15 -1.00284 -1.03339 0
M  V30 10627 H 1074.1 -0.69796 -4.1558 0
M  V30 10628 H 1072.82 0.165203 -3.26182 0
M  V30 10629 H 1071.48 -1.96096 -3.09745 0
M  V30 10630 H 1071.13 -0.393927 -5.01455 0
M  V30 10631 H 1070.83 -2.08313 -5.49435 0
M  V30 10632 H 1072.35 -1.28119 -5.97007 0
M  V30 10633 H 1073.77 -3.20102 -4.75613 0
M  V30 10634 H 1072.17 -3.95424 -4.51398 0
M  V30 10635 H 1073.24 -3.71059 -3.12159 0
M  V30 10636 N 1074.58 1.12322 -1.10551 0
M  V30 10637 C 1075.8 1.8822 -0.871093 0
M  V30 10638 C 1076.23 1.7916 0.573005 0
M  V30 10639 O 1075.59 1.14738 1.40374 0
M  V30 10640 C 1075.63 3.35349 -1.32565 0
M  V30 10641 O 1074.74 4.09461 -0.49145 0
M  V30 10642 H 1074.08 0.584787 -0.314516 0
M  V30 10643 H 1076.61 1.42039 -1.47262 0
M  V30 10644 H 1076.62 3.86189 -1.31612 0
M  V30 10645 H 1075.29 3.4126 -2.37728 0
M  V30 10646 H 1073.87 3.68575 -0.566294 0
M  V30 10647 N 1076.06 0.894434 1.2976 0
M  V30 10648 C 1077.28 0.532916 1.99919 0
M  V30 10649 C 1077.7 -0.881022 1.66983 0
M  V30 10650 O 1077.06 -1.58076 0.912035 0
M  V30 10651 C 1077.11 0.70936 3.54472 0
M  V30 10652 O 1076.83 2.06764 3.86239 0
M  V30 10653 C 1078.33 0.352089 4.419 0
M  V30 10654 H 1075.55 0.205019 0.638912 0
M  V30 10655 H 1078.09 1.20233 1.65421 0
M  V30 10656 H 1076.25 0.0871901 3.87302 0
M  V30 10657 H 1076.66 2.09315 4.80924 0
M  V30 10658 H 1078.14 0.526405 5.49484 0
M  V30 10659 H 1078.61 -0.710527 4.33415 0
M  V30 10660 H 1079.22 0.950979 4.14532 0
M  V30 10661 N 1077.53 -1.43282 0.656365 0
M  V30 10662 C 1078.78 -2.00996 0.168354 0
M  V30 10663 C 1079.1 -1.52408 -1.22601 0
M  V30 10664 O 1080.3 -2.02417 -1.80941 0
M  V30 10665 C 1078.76 -3.5903 0.250161 0
M  V30 10666 C 1078.37 -4.1661 1.64742 0
M  V30 10667 C 1080.11 -4.24118 -0.180084 0
M  V30 10668 C 1078.02 -5.66948 1.68299 0
M  V30 10669 H 1076.95 -0.751674 0.0591769 0
M  V30 10670 H 1079.6 -1.64216 0.818859 0
M  V30 10671 H 1077.98 -3.93226 -0.467908 0
M  V30 10672 H 1079.15 -3.93908 2.3911 0
M  V30 10673 H 1077.47 -3.63905 2.02391 0
M  V30 10674 H 1080.07 -5.34419 -0.173401 0
M  V30 10675 H 1080.41 -3.98264 -1.21208 0
M  V30 10676 H 1080.94 -3.94816 0.486343 0
M  V30 10677 H 1077.68 -5.97573 2.69419 0
M  V30 10678 H 1077.2 -5.91697 0.98261 0
M  V30 10679 H 1078.88 -6.31041 1.42813 0
M  V30 10680 N 1079.01 -0.398486 -1.52479 0
M  V30 10681 C 1080.24 0.183059 -2.06591 0
M  V30 10682 C 1080.66 1.3898 -1.26753 0
M  V30 10683 O 1080.02 1.78885 -0.294959 0
M  V30 10684 C 1080.07 0.522392 -3.56796 0
M  V30 10685 O 1079.17 1.61499 -3.79462 0
M  V30 10686 H 1078.51 0.0188411 -0.663733 0
M  V30 10687 H 1081.04 -0.56861 -1.9654 0
M  V30 10688 H 1081.05 0.784078 -4.00395 0
M  V30 10689 H 1079.73 -0.359807 -4.14341 0
M  V30 10690 H 1078.31 1.3463 -3.47749 0
M  V30 10691 N 1080.49 1.57075 -0.12858 0
M  V30 10692 C 1081.91 1.57964 0.227961 0
M  V30 10693 C 1082.11 1.14186 1.66023 0
M  V30 10694 O 1081.16 0.833655 2.38341 0
M  V30 10695 C 1082.48 3.00697 -0.0140648 0
M  V30 10696 C 1084.02 3.12958 0.0510876 0
M  V30 10697 C 1084.5 4.57709 -0.163368 0
M  V30 10698 N 1085.99 4.6307 -0.109663 0
M  V30 10699 C 1086.73 5.72853 -0.250366 0
M  V30 10700 N 1086.22 6.91351 -0.447772 0
M  V30 10701 N 1088.01 5.61781 -0.189265 0
M  V30 10702 H 1080.17 1.83829 -1.06398 0
M  V30 10703 H 1082.43 0.850014 -0.419739 0
M  V30 10704 H 1082.13 3.37047 -1.00461 0
M  V30 10705 H 1082.01 3.70389 0.713571 0
M  V30 10706 H 1084.4 2.7646 1.03216 0
M  V30 10707 H 1084.48 2.4579 -0.708583 0
M  V30 10708 H 1084.12 4.94907 -1.14146 0
M  V30 10709 H 1084.05 5.2298 0.616405 0
M  V30 10710 H 1086.54 3.7788 0.0390086 0
M  V30 10711 H 1086.85 7.70871 -0.54574 0
M  V30 10712 H 1085.2 6.93314 -0.483866 0
M  V30 10713 H 1088.39 4.68086 -0.0359374 0
M  V30 10714 H 1088.56 6.47294 -0.302359 0
M  V30 10715 N 1081.97 -0.145205 1.5693 0
M  V30 10716 C 1082.93 -1.16316 1.97492 0
M  V30 10717 C 1083.93 -1.35764 0.861668 0
M  V30 10718 O 1085.12 -1.32726 1.12825 0
M  V30 10719 C 1082.25 -2.52311 2.29242 0
M  V30 10720 H 1083.45 -0.815138 2.8861 0
M  V30 10721 H 1081 -0.38861 1.51392 0
M  V30 10722 H 1081.74 -2.92081 1.40922 0
M  V30 10723 H 1081.52 -2.39555 3.10412 0
M  V30 10724 H 1083.01 -3.25624 2.61456 0
M  V30 10725 N 1083.45 -1.52049 -0.414609 0
M  V30 10726 C 1084.38 -1.77956 -1.51175 0
M  V30 10727 C 1085.36 -0.630282 -1.57992 0
M  V30 10728 O 1086.54 -0.875324 -1.73354 0
M  V30 10729 C 1083.67 -1.92527 -2.89051 0
M  V30 10730 C 1082.63 -3.08096 -2.97087 0
M  V30 10731 C 1081.95 -3.07882 -4.37164 0
M  V30 10732 C 1083.25 -4.47656 -2.69075 0
M  V30 10733 H 1084.95 -2.69827 -1.29746 0
M  V30 10734 H 1082.49 -1.29839 -0.62273 0
M  V30 10735 H 1084.45 -2.09234 -3.65786 0
M  V30 10736 H 1083.17 -0.973235 -3.11762 0
M  V30 10737 H 1081.83 -2.91131 -2.22797 0
M  V30 10738 H 1081.48 -2.10411 -4.56877 0
M  V30 10739 H 1081.18 -3.85501 -4.43467 0
M  V30 10740 H 1082.7 -3.26712 -5.15841 0
M  V30 10741 H 1084.12 -4.64855 -3.35534 0
M  V30 10742 H 1082.51 -5.27151 -2.8676 0
M  V30 10743 H 1083.58 -4.56129 -1.64544 0
M  V30 10744 N 1084.93 0.6715 -1.42579 0
M  V30 10745 C 1086.15 1.45972 -1.46628 0
M  V30 10746 C 1086.57 1.88636 -0.0785986 0
M  V30 10747 O 1085.93 1.58345 0.907372 0
M  V30 10748 C 1085.98 2.70668 -2.39627 0
M  V30 10749 O 1085.7 2.29793 -3.72997 0
M  V30 10750 C 1087.2 3.64201 -2.52731 0
M  V30 10751 H 1084.42 0.449044 -0.498598 0
M  V30 10752 H 1086.96 0.824811 -1.87129 0
M  V30 10753 H 1085.12 3.3034 -2.02371 0
M  V30 10754 H 1085.53 3.10341 -4.22834 0
M  V30 10755 H 1087.01 4.48412 -3.21918 0
M  V30 10756 H 1087.48 4.10323 -1.56626 0
M  V30 10757 H 1088.09 3.1042 -2.90722 0
M  V30 10758 N 1086.4 1.28806 0.908124 0
M  V30 10759 C 1087.81 1.14719 1.47297 0
M  V30 10760 C 1088.17 -0.260763 1.94459 0
M  V30 10761 O 1087.29 -1.15553 1.82966 0
M  V30 10762 C 1087.89 2.07643 2.67712 0
M  V30 10763 C 1086.44 1.97605 3.20358 0
M  V30 10764 C 1085.59 1.99058 1.93058 0
M  V30 10765 H 1088.54 1.41413 0.720283 0
M  V30 10766 H 1088.56 1.64372 3.43165 0
M  V30 10767 H 1088.08 3.10108 2.33355 0
M  V30 10768 H 1086.18 0.981982 3.59427 0
M  V30 10769 H 1086.29 2.84846 3.85226 0
M  V30 10770 H 1084.65 1.43541 2.104 0
M  V30 10771 H 1085.44 3.03212 1.60989 0
M  V30 10772 N 1087.88 -1.11734 1.11145 0
M  V30 10773 C 1089.11 -1.87755 0.881062 0
M  V30 10774 C 1089.53 -1.79461 -0.563496 0
M  V30 10775 O 1088.89 -1.15481 -1.39763 0
M  V30 10776 C 1088.94 -3.34641 1.34342 0
M  V30 10777 O 1088.04 -4.09195 0.513157 0
M  V30 10778 H 1087.38 -0.583111 0.317613 0
M  V30 10779 H 1089.91 -1.41256 1.48013 0
M  V30 10780 H 1089.92 -3.85486 1.33658 0
M  V30 10781 H 1088.6 -3.39994 2.39534 0
M  V30 10782 H 1087.17 -3.68269 0.585833 0
M  V30 10783 N 1089.36 -0.901303 -1.29284 0
M  V30 10784 C 1090.77 -0.576317 -1.77582 0
M  V30 10785 C 1091.12 0.908078 -1.73921 0
M  V30 10786 O 1090.25 1.71006 -1.32611 0
M  V30 10787 C 1090.84 -1.03938 -3.22463 0
M  V30 10788 C 1089.4 -0.765533 -3.68533 0
M  V30 10789 C 1088.55 -1.21318 -2.49354 0
M  V30 10790 H 1091.5 -1.08386 -1.15923 0
M  V30 10791 H 1091.52 -0.375367 -3.78644 0
M  V30 10792 H 1091.03 -2.11977 -3.25096 0
M  V30 10793 H 1089.13 0.302176 -3.71373 0
M  V30 10794 H 1089.25 -1.36454 -4.59257 0
M  V30 10795 H 1087.61 -0.632141 -2.46731 0
M  V30 10796 H 1088.39 -2.30165 -2.54714 0
M  V30 10797 N 1090.84 1.42931 -0.663954 0
M  V30 10798 C 1092.08 2.01982 -0.182007 0
M  V30 10799 C 1092.42 1.52323 1.20463 0
M  V30 10800 O 1091.69 0.720834 1.80649 0
M  V30 10801 C 1091.97 3.59518 -0.204671 0
M  V30 10802 C 1091.83 4.19382 -1.62599 0
M  V30 10803 C 1093.15 4.37762 0.45308 0
M  V30 10804 H 1090.27 0.733892 -0.0676115 0
M  V30 10805 H 1092.91 1.70092 -0.84668 0
M  V30 10806 H 1091.06 3.86816 0.361295 0
M  V30 10807 H 1092.73 4.03076 -2.24337 0
M  V30 10808 H 1090.97 3.75623 -2.17001 0
M  V30 10809 H 1091.64 5.28496 -1.59362 0
M  V30 10810 H 1094.12 4.1609 -0.0285774 0
M  V30 10811 H 1093 5.47392 0.406538 0
M  V30 10812 H 1093.26 4.1482 1.52895 0
M  V30 10813 N 1092.32 0.406567 1.52266 0
M  V30 10814 C 1093.25 -0.464709 2.23418 0
M  V30 10815 C 1094.23 -1.05008 1.24146 0
M  V30 10816 O 1095.41 -1.09843 1.53188 0
M  V30 10817 C 1092.54 -1.64481 2.96081 0
M  V30 10818 C 1091.58 -1.18307 4.09763 0
M  V30 10819 S 1092.42 -0.150326 5.35289 0
M  V30 10820 C 1093.57 -1.3358 6.11479 0
M  V30 10821 H 1093.81 0.139455 2.96973 0
M  V30 10822 H 1091.34 0.19085 1.53216 0
M  V30 10823 H 1093.3 -2.3215 3.38551 0
M  V30 10824 H 1091.96 -2.22031 2.22174 0
M  V30 10825 H 1091.15 -2.06466 4.59769 0
M  V30 10826 H 1090.75 -0.58505 3.69396 0
M  V30 10827 H 1093.04 -2.25986 6.38699 0
M  V30 10828 H 1093.99 -0.876328 7.02656 0
M  V30 10829 H 1094.4 -1.56044 5.42504 0
M  V30 10830 N 1093.79 -1.57004 0.136909 0
M  V30 10831 C 1095.04 -1.96087 -0.517477 0
M  V30 10832 C 1095.37 -1.0213 -1.65176 0
M  V30 10833 O 1094.65 -0.0617958 -1.94402 0
M  V30 10834 C 1094.93 -3.44958 -1.03323 0
M  V30 10835 C 1094.78 -4.49691 0.0988609 0
M  V30 10836 C 1096.1 -3.96091 -1.91832 0
M  V30 10837 H 1093.22 -0.712978 -0.186632 0
M  V30 10838 H 1095.86 -1.88767 0.216095 0
M  V30 10839 H 1094.01 -3.51327 -1.65836 0
M  V30 10840 H 1095.69 -4.55409 0.734847 0
M  V30 10841 H 1093.93 -4.271 0.75947 0
M  V30 10842 H 1094.6 -5.51165 -0.303554 0
M  V30 10843 H 1097.08 -3.92139 -1.39164 0
M  V30 10844 H 1095.95 -5.00742 -2.24831 0
M  V30 10845 H 1096.21 -3.37846 -2.85153 0
M  V30 10846 N 1095.27 0.136881 -1.57004 0
M  V30 10847 C 1096.2 1.17026 -2.02057 0
M  V30 10848 C 1097.18 1.44223 -0.901866 0
M  V30 10849 O 1098.37 1.54971 -1.17037 0
M  V30 10850 C 1095.5 2.50095 -2.40977 0
M  V30 10851 C 1094.45 2.37398 -3.56127 0
M  V30 10852 C 1093.78 3.75268 -3.80891 0
M  V30 10853 C 1095.08 1.84952 -4.88457 0
M  V30 10854 H 1096.77 0.795601 -2.88636 0
M  V30 10855 H 1094.32 0.381266 -1.38861 0
M  V30 10856 H 1096.27 3.22621 -2.71097 0
M  V30 10857 H 1095 2.89416 -1.51348 0
M  V30 10858 H 1093.65 1.67322 -3.26188 0
M  V30 10859 H 1093.3 4.12043 -2.88496 0
M  V30 10860 H 1093 3.67631 -4.5839 0
M  V30 10861 H 1094.53 4.49327 -4.13446 0
M  V30 10862 H 1095.94 2.4728 -5.17229 0
M  V30 10863 H 1094.34 1.88181 -5.69832 0
M  V30 10864 H 1095.41 0.805848 -4.78157 0
M  V30 10865 N 1096.75 1.52266 0.40654 0
M  V30 10866 C 1097.66 1.78688 1.52012 0
M  V30 10867 C 1098.68 0.6726 1.60475 0
M  V30 10868 O 1099.85 0.95829 1.77141 0
M  V30 10869 C 1096.92 1.93434 2.87722 0
M  V30 10870 C 1095.98 3.17341 2.89125 0
M  V30 10871 C 1095.21 3.31374 4.18362 0
M  V30 10872 O 1095.43 2.50613 5.12396 0
M  V30 10873 O 1094.37 4.24539 4.26674 0
M  V30 10874 H 1098.19 2.73213 1.3262 0
M  V30 10875 H 1095.78 1.37142 0.592653 0
M  V30 10876 H 1097.66 2.04941 3.68208 0
M  V30 10877 H 1096.34 1.02099 3.07177 0
M  V30 10878 H 1095.24 3.1129 2.07483 0
M  V30 10879 H 1096.58 4.08466 2.7462 0
M  V30 10880 N 1098.23 -0.663929 1.42933 0
M  V30 10881 C 1099.18 -1.79843 1.4751 0
M  V30 10882 C 1100.17 -1.65751 0.349727 0
M  V30 10883 O 1101.38 -1.72227 0.523239 0
M  V30 10884 H 1097.75 -0.593176 0.462219 0
M  V30 10885 H 1099.72 -1.73102 2.4306 0
M  V30 10886 C 1098.47 -3.18053 1.4049 0
M  V30 10887 H 1097.79 -3.29529 2.26386 0
M  V30 10888 H 1099.23 -3.97423 1.47754 0
M  V30 10889 C 1097.69 -3.36682 0.121076 0
M  V30 10890 O 1098.22 -3.93202 -0.821874 0
M  V30 10891 N 1096.43 -2.90579 0.0347141 0
M  V30 10892 H 1095.98 -2.44769 0.802852 0
M  V30 10893 H 1095.93 -3.03421 -0.823607 0
M  V30 10894 N 1099.71 -1.29285 -0.901281 0
M  V30 10895 C 1100.96 -1.16538 -1.64626 0
M  V30 10896 C 1101.27 0.282623 -1.93547 0
M  V30 10897 O 1102.47 0.531396 -2.66249 0
M  V30 10898 C 1100.93 -2.03809 -2.96631 0
M  V30 10899 C 1100.54 -3.53423 -2.75311 0
M  V30 10900 C 1102.28 -1.99782 -3.7455 0
M  V30 10901 C 1100.19 -4.32804 -4.03032 0
M  V30 10902 H 1099.12 -0.432561 -0.617581 0
M  V30 10903 H 1101.77 -1.53912 -0.999159 0
M  V30 10904 H 1100.15 -1.59302 -3.62545 0
M  V30 10905 H 1101.33 -4.05971 -2.18 0
M  V30 10906 H 1099.64 -3.59106 -2.10789 0
M  V30 10907 H 1102.24 -2.5635 -4.69243 0
M  V30 10908 H 1102.58 -0.97743 -4.04663 0
M  V30 10909 H 1103.11 -2.42324 -3.15474 0
M  V30 10910 H 1099.85 -5.35473 -3.78086 0
M  V30 10911 H 1099.37 -3.85025 -4.59909 0
M  V30 10912 H 1101.05 -4.43383 -4.71191 0
M  V30 10913 N 1101.18 1.11143 -1.11736 0
M  V30 10914 C 1102.09 2.20851 -0.791331 0
M  V30 10915 C 1103.11 1.72644 0.216833 0
M  V30 10916 O 1104.29 2.01332 0.0522401 0
M  V30 10917 C 1101.35 3.4585 -0.242694 0
M  V30 10918 C 1100.41 4.08829 -1.30986 0
M  V30 10919 C 1099.65 5.27861 -0.787305 0
M  V30 10920 O 1099.87 5.69122 0.381549 0
M  V30 10921 O 1098.8 5.81506 -1.55352 0
M  V30 10922 H 1102.63 2.51158 -1.70744 0
M  V30 10923 H 1100.21 1.19739 -0.893478 0
M  V30 10924 H 1102.1 4.21359 0.0587472 0
M  V30 10925 H 1100.77 3.17187 0.646079 0
M  V30 10926 H 1099.68 3.35037 -1.66436 0
M  V30 10927 H 1101.01 4.41678 -2.17213 0
M  V30 10928 N 1102.66 0.908147 1.28804 0
M  V30 10929 C 1104.07 0.585727 1.77274 0
M  V30 10930 C 1104.42 -0.898842 1.744 0
M  V30 10931 O 1103.55 -1.70301 1.33516 0
M  V30 10932 C 1104.14 1.05647 3.21907 0
M  V30 10933 C 1102.7 0.785066 3.68122 0
M  V30 10934 C 1101.85 1.22638 2.48707 0
M  V30 10935 H 1104.8 1.09 1.15346 0
M  V30 10936 H 1104.82 0.395442 3.7844 0
M  V30 10937 H 1104.33 2.13698 3.23967 0
M  V30 10938 H 1102.44 -0.282477 3.71528 0
M  V30 10939 H 1102.55 1.38888 4.58527 0
M  V30 10940 H 1100.91 0.645217 2.46392 0
M  V30 10941 H 1101.7 2.31512 2.5349 0
M  V30 10942 N 1104.14 -1.42577 0.671525 0
M  V30 10943 C 1105.05 -2.34598 -0.00898225 0
M  V30 10944 C 1106.07 -1.54909 -0.792407 0
M  V30 10945 O 1107.24 -1.87491 -0.735477 0
M  V30 10946 C 1104.31 -3.33405 -0.950888 0
M  V30 10947 C 1103.37 -4.28993 -0.16236 0
M  V30 10948 C 1102.6 -5.2308 -1.0594 0
M  V30 10949 O 1102.82 -5.22022 -2.2989 0
M  V30 10950 O 1101.76 -5.99632 -0.521966 0
M  V30 10951 H 1105.58 -2.94321 0.748927 0
M  V30 10952 H 1103.17 -1.43025 0.43175 0
M  V30 10953 H 1105.05 -3.94115 -1.49169 0
M  V30 10954 H 1103.73 -2.7616 -1.68871 0
M  V30 10955 H 1102.63 -3.71707 0.42247 0
M  V30 10956 H 1103.97 -4.8927 0.536274 0
M  V30 10957 N 1105.62 -0.414636 -1.52048 0
M  V30 10958 C 1106.87 0.16073 -2.01059 0
M  V30 10959 C 1107.18 1.45753 -1.30443 0
M  V30 10960 O 1108.39 2.11448 -1.703 0
M  V30 10961 C 1106.84 0.336993 -3.58319 0
M  V30 10962 C 1106.45 -0.948037 -4.37854 0
M  V30 10963 C 1108.19 0.867353 -4.15545 0
M  V30 10964 C 1106.1 -0.738662 -5.86769 0
M  V30 10965 H 1105.03 0.0638419 -0.751292 0
M  V30 10966 H 1107.68 -0.540925 -1.75346 0
M  V30 10967 H 1106.06 1.10111 -3.80383 0
M  V30 10968 H 1107.24 -1.71873 -4.27547 0
M  V30 10969 H 1105.55 -1.40522 -3.91972 0
M  V30 10970 H 1108.15 1.04012 -5.24486 0
M  V30 10971 H 1108.49 1.84358 -3.73253 0
M  V30 10972 H 1109.03 0.162148 -3.97469 0
M  V30 10973 H 1105.77 -1.6866 -6.3343 0
M  V30 10974 H 1105.29 -0.00736294 -5.998 0
M  V30 10975 H 1106.96 -0.382978 -6.45866 0
M  V30 10976 N 1107.1 1.56929 -0.145233 0
M  V30 10977 C 1108.34 1.96358 0.50707 0
M  V30 10978 C 1108.68 1.03005 1.64632 0
M  V30 10979 O 1107.95 0.0721045 1.94366 0
M  V30 10980 C 1108.23 3.45502 1.01492 0
M  V30 10981 C 1108.09 4.49633 -0.122708 0
M  V30 10982 C 1109.41 3.97103 1.89729 0
M  V30 10983 H 1106.52 0.713958 0.182848 0
M  V30 10984 H 1109.17 1.8865 -0.226102 0
M  V30 10985 H 1107.32 3.52202 1.6397 0
M  V30 10986 H 1108.99 4.55013 -0.758988 0
M  V30 10987 H 1107.23 4.26691 -0.782109 0
M  V30 10988 H 1107.9 5.51318 0.27432 0
M  V30 10989 H 1110.38 3.92871 1.37082 0
M  V30 10990 H 1109.25 5.01927 2.22173 0
M  V30 10991 H 1109.52 3.39354 2.83357 0
M  V30 10992 N 1108.58 -0.128553 1.57075 0
M  V30 10993 C 1109.81 -0.851214 1.8825 0
M  V30 10994 C 1110.21 -1.74402 0.733531 0
M  V30 10995 O 1109.56 -1.81149 -0.305108 0
M  V30 10996 C 1109.62 -1.74451 3.14336 0
M  V30 10997 C 1109.28 -1.02699 4.45311 0
M  V30 10998 C 1110.28 -0.37224 5.18566 0
M  V30 10999 C 1107.96 -1.01101 4.9202 0
M  V30 11000 C 1109.96 0.2889 6.36745 0
M  V30 11001 C 1107.65 -0.346063 6.10119 0
M  V30 11002 C 1108.64 0.302744 6.82329 0
M  V30 11003 O 1108.33 0.9571 7.98182 0
M  V30 11004 H 1108.06 -0.250529 0.627863 0
M  V30 11005 H 1110.62 -0.120418 2.05047 0
M  V30 11006 H 1108.85 -2.51671 2.93596 0
M  V30 11007 H 1110.54 -2.34075 3.31608 0
M  V30 11008 H 1111.3 -0.376271 4.83538 0
M  V30 11009 H 1107.18 -1.50543 4.35727 0
M  V30 11010 H 1110.73 0.795901 6.93045 0
M  V30 11011 H 1106.62 -0.339762 6.44605 0
M  V30 11012 H 1107.39 0.860616 8.13963 0
M  V30 11013 N 1110.05 -1.5248 -0.398459 0
M  V30 11014 C 1111.02 -1.75949 -1.46883 0
M  V30 11015 C 1112.02 -0.629431 -1.47969 0
M  V30 11016 O 1113.21 -0.897407 -1.49306 0
M  V30 11017 C 1110.34 -1.85162 -2.8623 0
M  V30 11018 H 1111.53 -2.71513 -1.2736 0
M  V30 11019 H 1109.08 -1.43058 -0.629619 0
M  V30 11020 H 1109.82 -0.915505 -3.11109 0
M  V30 11021 H 1109.6 -2.67326 -2.86844 0
M  V30 11022 H 1111.09 -2.05025 -3.63805 0
M  V30 11023 N 1111.53 0.65634 -1.43283 0
M  V30 11024 C 1112.78 1.41347 -1.44449 0
M  V30 11025 C 1113.1 1.94879 -0.0687217 0
M  V30 11026 O 1112.37 1.74235 0.895492 0
M  V30 11027 H 1110.95 0.524578 -0.531815 0
M  V30 11028 H 1113.61 0.774292 -1.7886 0
M  V30 11029 H 1112.71 2.25737 -2.15521 0
M  V30 11030 N 1113.01 1.29761 0.894412 0
M  V30 11031 C 1114.24 1.20765 1.67629 0
M  V30 11032 C 1114.65 -0.233434 1.87754 0
M  V30 11033 O 1113.99 -1.16747 1.4183 0
M  V30 11034 C 1114.05 1.85542 3.07919 0
M  V30 11035 C 1113.72 3.34852 3.11004 0
M  V30 11036 C 1114.71 4.30994 2.90758 0
M  V30 11037 C 1112.4 3.76141 3.32901 0
M  V30 11038 C 1114.39 5.664 2.92352 0
M  V30 11039 C 1112.08 5.11667 3.34126 0
M  V30 11040 C 1113.08 6.06607 3.13874 0
M  V30 11041 O 1112.77 7.39659 3.14897 0
M  V30 11042 H 1112.5 0.419418 0.530155 0
M  V30 11043 H 1115.05 1.71754 1.12648 0
M  V30 11044 H 1113.28 1.29071 3.64524 0
M  V30 11045 H 1114.97 1.70795 3.68217 0
M  V30 11046 H 1115.74 4.00427 2.73648 0
M  V30 11047 H 1111.62 3.02694 3.47703 0
M  V30 11048 H 1115.16 6.40479 2.76464 0
M  V30 11049 H 1111.06 5.41877 3.50769 0
M  V30 11050 H 1111.82 7.4853 3.31127 0
M  V30 11051 N 1114.49 -1.10549 1.12324 0
M  V30 11052 C 1115.76 -1.78968 0.789287 0
M  V30 11053 C 1116.14 -1.984 -0.721156 0
M  V30 11054 O 1115.49 -1.5761 -1.65443 0
M  V30 11055 C 1115.7 -3.12044 1.563 0
M  V30 11056 C 1117.05 -3.86939 1.74825 0
M  V30 11057 O 1118.07 -3.21761 1.52802 0
M  V30 11058 O 1116.93 -5.0392 2.11488 0
M  V30 11059 H 1114.03 -0.775617 0.286962 0
M  V30 11060 H 1116.57 -1.17209 1.2272 0
M  V30 11061 H 1115.35 -2.93313 2.59005 0
M  V30 11062 H 1114.97 -3.81521 1.11926 0
M  V30 11063 N 1115.97 -0.914965 -1.28321 0
M  V30 11064 C 1117.19 -0.564023 -1.99583 0
M  V30 11065 C 1117.62 0.847821 -1.6791 0
M  V30 11066 O 1116.97 1.56682 -0.912171 0
M  V30 11067 C 1117.02 -0.781368 -3.52033 0
M  V30 11068 O 1116.13 0.159072 -4.12093 0
M  V30 11069 H 1115.47 -0.218565 -0.626997 0
M  V30 11070 H 1118 -1.23074 -1.63444 0
M  V30 11071 H 1118.01 -0.691946 -4.0209 0
M  V30 11072 H 1116.68 -1.81059 -3.7442 0
M  V30 11073 H 1115.26 0.0208145 -3.72894 0
M  V30 11074 N 1117.44 1.42219 -0.679077 0
M  V30 11075 C 1118.67 2.06333 -0.210097 0
M  V30 11076 C 1119.09 1.50703 1.12562 0
M  V30 11077 O 1118.45 0.627241 1.70104 0
M  V30 11078 C 1118.5 3.60243 -0.160322 0
M  V30 11079 O 1117.6 4.03122 0.869872 0
M  V30 11080 H 1116.94 0.655362 -0.106754 0
M  V30 11081 H 1119.47 1.82278 -0.929294 0
M  V30 11082 H 1119.48 4.07997 0.014384 0
M  V30 11083 H 1118.16 4.00106 -1.13526 0
M  V30 11084 H 1116.74 3.66907 0.66586 0
M  V30 11085 N 1118.92 0.422693 1.51826 0
M  V30 11086 C 1119.87 -0.396088 2.27376 0
M  V30 11087 C 1120.84 -1.02946 1.30351 0
M  V30 11088 O 1122.02 -1.05116 1.59233 0
M  V30 11089 C 1119.16 -1.49942 3.10824 0
M  V30 11090 C 1118.28 -0.885623 4.22825 0
M  V30 11091 C 1117.41 -1.96278 4.93608 0
M  V30 11092 C 1116.45 -1.32664 5.97551 0
M  V30 11093 N 1115.59 -2.34452 6.61798 0
M  V30 11094 H 1120.43 0.254571 2.96911 0
M  V30 11095 H 1117.96 0.137383 1.46457 0
M  V30 11096 H 1119.92 -2.15023 3.57521 0
M  V30 11097 H 1118.55 -2.11991 2.43433 0
M  V30 11098 H 1117.6 -0.123491 3.80199 0
M  V30 11099 H 1118.92 -0.381057 4.97342 0
M  V30 11100 H 1118.07 -2.69055 5.43778 0
M  V30 11101 H 1116.81 -2.50103 4.18688 0
M  V30 11102 H 1115.81 -0.584262 5.46687 0
M  V30 11103 H 1117.04 -0.7959 6.7442 0
M  V30 11104 H 1114.99 -2.87385 5.897 0
M  V30 11105 H 1114.9 -1.88845 7.32034 0
M  V30 11106 H 1116.17 -3.06757 7.16603 0
M  V30 11107 N 1120.4 -1.5685 0.153553 0
M  V30 11108 C 1121.81 -1.83074 -0.36618 0
M  V30 11109 C 1122.16 -1.07257 -1.64288 0
M  V30 11110 O 1121.29 -0.319925 -2.14022 0
M  V30 11111 C 1121.88 -3.32086 -0.671142 0
M  V30 11112 C 1120.44 -3.58868 -1.13537 0
M  V30 11113 C 1119.59 -2.76827 -0.161887 0
M  V30 11114 H 1122.54 -1.54129 0.378139 0
M  V30 11115 H 1122.56 -3.48598 -1.52512 0
M  V30 11116 H 1122.07 -3.8724 0.258234 0
M  V30 11117 H 1120.17 -3.09107 -2.08047 0
M  V30 11118 H 1120.29 -4.67299 -1.05682 0
M  V30 11119 H 1118.65 -2.46112 -0.6558 0
M  V30 11120 H 1119.43 -3.34755 0.761195 0
M  V30 11121 N 1121.88 0.120221 -1.57141 0
M  V30 11122 C 1123.15 0.858458 -1.75755 0
M  V30 11123 C 1123.53 1.98124 -0.728693 0
M  V30 11124 O 1122.88 2.27155 0.247573 0
M  V30 11125 C 1123.09 1.37627 -3.20718 0
M  V30 11126 C 1124.44 1.82909 -3.83183 0
M  V30 11127 O 1125.46 1.47309 -3.24312 0
M  V30 11128 O 1124.32 2.4865 -4.86657 0
M  V30 11129 H 1121.42 0.407583 -0.719587 0
M  V30 11130 H 1123.96 0.104057 -1.69381 0
M  V30 11131 H 1122.74 0.570651 -3.87117 0
M  V30 11132 H 1122.36 2.19341 -3.31625 0
M  V30 11133 N 1123.36 1.52689 0.390367 0
M  V30 11134 C 1124.58 1.71541 1.15678 0
M  V30 11135 C 1125 0.433171 1.83764 0
M  V30 11136 O 1124.36 -0.592248 1.72623 0
M  V30 11137 C 1124.41 2.864 2.20584 0
M  V30 11138 O 1124.13 4.0966 1.55274 0
M  V30 11139 C 1125.63 3.1692 3.09962 0
M  V30 11140 H 1122.85 0.574381 0.346883 0
M  V30 11141 H 1125.39 1.99332 0.456851 0
M  V30 11142 H 1123.55 2.61075 2.86214 0
M  V30 11143 H 1123.96 4.73802 2.2497 0
M  V30 11144 H 1125.44 4.00755 3.79604 0
M  V30 11145 H 1125.91 2.31245 3.73393 0
M  V30 11146 H 1126.52 3.4408 2.49979 0
M  V30 11147 N 1124.83 -0.648732 1.43629 0
M  V30 11148 C 1125.8 -1.74331 1.488 0
M  V30 11149 C 1126.8 -1.56434 0.372147 0
M  V30 11150 O 1127.99 -1.6225 0.634078 0
M  V30 11151 C 1125.12 -3.13248 1.34494 0
M  V30 11152 H 1126.31 -1.71125 2.46285 0
M  V30 11153 H 1123.87 -0.860798 1.30461 0
M  V30 11154 H 1124.6 -3.22062 0.380345 0
M  V30 11155 H 1124.39 -3.27643 2.15389 0
M  V30 11156 H 1125.88 -3.93056 1.41055 0
M  V30 11157 N 1126.31 -1.30234 -0.887518 0
M  V30 11158 C 1127.22 -1.18316 -2.02579 0
M  V30 11159 C 1128.24 -0.103658 -1.73691 0
M  V30 11160 O 1129.41 -0.3181 -1.98872 0
M  V30 11161 C 1126.48 -0.873222 -3.35523 0
M  V30 11162 C 1125.54 -2.03783 -3.7785 0
M  V30 11163 C 1124.77 -1.74258 -5.0445 0
M  V30 11164 O 1125 -0.669295 -5.6646 0
M  V30 11165 O 1123.93 -2.59423 -5.43124 0
M  V30 11166 H 1127.76 -2.13933 -2.15561 0
M  V30 11167 H 1125.34 -1.09803 -1.0131 0
M  V30 11168 H 1127.22 -0.715463 -4.15282 0
M  V30 11169 H 1125.9 0.053056 -3.23657 0
M  V30 11170 H 1124.81 -2.2509 -2.98806 0
M  V30 11171 H 1126.14 -2.94574 -3.94318 0
M  V30 11172 N 1127.79 1.09952 -1.12909 0
M  V30 11173 C 1128.74 2.18525 -0.796849 0
M  V30 11174 C 1129.73 1.67985 0.218483 0
M  V30 11175 O 1130.94 1.79839 0.07618 0
M  V30 11176 H 1127.31 0.712714 -0.239882 0
M  V30 11177 H 1129.28 2.43783 -1.72083 0
M  V30 11178 C 1128.03 3.46625 -0.273237 0
M  V30 11179 H 1127.36 3.85879 -1.04582 0
M  V30 11180 H 1128.8 4.23926 -0.0791355 0
M  V30 11181 C 1127.26 3.2172 0.999903 0
M  V30 11182 O 1127.79 3.43851 2.07676 0
M  V30 11183 N 1125.99 2.75356 0.928833 0
M  V30 11184 H 1125.54 2.57547 0.052379 0
M  V30 11185 H 1125.5 2.5907 1.78129 0
M  V30 11186 N 1129.27 0.921757 1.27833 0
M  V30 11187 C 1130.2 0.433466 2.29441 0
M  V30 11188 C 1131.18 -0.503133 1.62489 0
M  V30 11189 O 1132.36 -0.409156 1.89841 0
M  V30 11190 C 1129.49 -0.320029 3.45822 0
M  V30 11191 C 1128.45 0.528178 4.24728 0
M  V30 11192 C 1127.77 -0.354132 5.33526 0
M  V30 11193 C 1129.07 1.78959 4.90684 0
M  V30 11194 H 1130.77 1.28263 2.70535 0
M  V30 11195 H 1128.31 0.618197 1.30055 0
M  V30 11196 H 1130.27 -0.672526 4.15999 0
M  V30 11197 H 1128.99 -1.20317 3.0363 0
M  V30 11198 H 1127.65 0.863302 3.5629 0
M  V30 11199 H 1127.3 -1.23605 4.87576 0
M  V30 11200 H 1127 0.209855 5.87225 0
M  V30 11201 H 1128.52 -0.702333 6.06547 0
M  V30 11202 H 1129.94 1.50552 5.53179 0
M  V30 11203 H 1128.33 2.29661 5.54415 0
M  V30 11204 H 1129.4 2.51265 4.14721 0
M  V30 11205 N 1130.75 -1.41857 0.686609 0
M  V30 11206 C 1131.68 -2.33481 0.0298353 0
M  V30 11207 C 1132.66 -1.51329 -0.776756 0
M  V30 11208 O 1133.84 -1.79895 -0.731535 0
M  V30 11209 C 1130.97 -3.35065 -0.913707 0
M  V30 11210 C 1129.93 -4.2746 -0.214861 0
M  V30 11211 C 1129.25 -5.19346 -1.27215 0
M  V30 11212 C 1130.55 -5.14252 0.913367 0
M  V30 11213 H 1132.25 -2.8865 0.795067 0
M  V30 11214 H 1129.79 -1.38792 0.383785 0
M  V30 11215 H 1131.75 -3.98082 -1.38234 0
M  V30 11216 H 1130.47 -2.78226 -1.7105 0
M  V30 11217 H 1129.13 -3.65855 0.233651 0
M  V30 11218 H 1128.78 -4.58827 -2.06124 0
M  V30 11219 H 1128.48 -5.81996 -0.80961 0
M  V30 11220 H 1130 -5.85239 -1.74147 0
M  V30 11221 H 1131.41 -5.70887 0.525424 0
M  V30 11222 H 1129.81 -5.85796 1.30244 0
M  V30 11223 H 1130.88 -4.51949 1.75699 0
M  V30 11224 N 1132.22 -0.430739 -1.51599 0
M  V30 11225 C 1133.45 0.139197 -2.06932 0
M  V30 11226 C 1133.87 1.3626 -1.29672 0
M  V30 11227 O 1133.23 1.78219 -0.332836 0
M  V30 11228 C 1133.28 0.446593 -3.57824 0
M  V30 11229 O 1132.38 1.53414 -3.82803 0
M  V30 11230 H 1131.73 0.00475812 -0.663983 0
M  V30 11231 H 1134.26 -0.610171 -1.9529 0
M  V30 11232 H 1134.27 0.698972 -4.01968 0
M  V30 11233 H 1132.94 -0.447613 -4.13484 0
M  V30 11234 H 1131.52 1.27224 -3.50526 0
M  V30 11235 N 1133.7 1.56767 -0.161869 0
M  V30 11236 C 1134.93 2.00964 0.492027 0
M  V30 11237 C 1135.35 1.04206 1.57437 0
M  V30 11238 O 1134.7 0.0413998 1.82453 0
M  V30 11239 C 1134.75 3.4502 1.07904 0
M  V30 11240 O 1134.47 4.38082 0.0399085 0
M  V30 11241 C 1135.98 4.04572 1.81209 0
M  V30 11242 H 1133.2 0.658911 0.126797 0
M  V30 11243 H 1135.74 2.0283 -0.260824 0
M  V30 11244 H 1133.89 3.43959 1.78243 0
M  V30 11245 H 1134.31 5.22372 0.471985 0
M  V30 11246 H 1135.78 5.07321 2.17554 0
M  V30 11247 H 1136.26 3.46126 2.70359 0
M  V30 11248 H 1136.87 4.09307 1.15534 0
M  V30 11249 N 1135.18 -0.111886 1.57202 0
M  V30 11250 C 1136.11 -1.13796 2.03894 0
M  V30 11251 C 1137.09 -1.4277 0.924696 0
M  V30 11252 O 1138.28 -1.53089 1.19488 0
M  V30 11253 C 1135.41 -2.46229 2.44925 0
M  V30 11254 C 1134.36 -2.31702 3.59859 0
M  V30 11255 C 1133.69 -3.69161 3.86813 0
M  V30 11256 C 1134.99 -1.77158 4.91337 0
M  V30 11257 H 1136.68 -0.749581 2.89865 0
M  V30 11258 H 1134.23 -0.359126 1.3945 0
M  V30 11259 H 1136.18 -3.18267 2.76195 0
M  V30 11260 H 1134.9 -2.86971 1.55933 0
M  V30 11261 H 1133.56 -1.62112 3.28809 0
M  V30 11262 H 1133.21 -4.07401 2.95015 0
M  V30 11263 H 1132.91 -3.60292 4.6418 0
M  V30 11264 H 1134.43 -4.42693 4.20542 0
M  V30 11265 H 1135.85 -2.3902 5.21097 0
M  V30 11266 H 1134.25 -1.79091 5.72753 0
M  V30 11267 H 1135.32 -0.729675 4.79379 0
M  V30 11268 N 1136.66 -1.52894 -0.382264 0
M  V30 11269 C 1137.61 -1.78799 -1.48774 0
M  V30 11270 C 1138.6 -0.65624 -1.56173 0
M  V30 11271 O 1139.81 -0.838856 -1.59258 0
M  V30 11272 H 1136.18 -0.565855 -0.49529 0
M  V30 11273 H 1138.15 -2.7136 -1.24122 0
M  V30 11274 C 1136.9 -1.97987 -2.85826 0
M  V30 11275 H 1136.22 -2.84505 -2.80886 0
M  V30 11276 H 1137.66 -2.20099 -3.62398 0
M  V30 11277 C 1136.12 -0.75427 -3.28348 0
M  V30 11278 O 1136.65 0.0650749 -4.01647 0
M  V30 11279 N 1134.86 -0.582457 -2.84703 0
M  V30 11280 H 1134.41 -1.25034 -2.2522 0
M  V30 11281 H 1134.36 0.236208 -3.13511 0
M  V30 11282 N 1138.14 0.641106 -1.43971 0
M  V30 11283 C 1139.55 0.958161 -1.27638 0
M  V30 11284 C 1139.75 2.00456 -0.204885 0
M  V30 11285 O 1138.81 2.49106 0.412606 0
M  V30 11286 C 1140.12 1.43091 -2.64472 0
M  V30 11287 C 1141.67 1.54692 -2.72102 0
M  V30 11288 C 1142.15 2.05353 -4.09382 0
M  V30 11289 N 1143.64 2.12638 -4.11509 0
M  V30 11290 C 1144.37 2.52987 -5.14573 0
M  V30 11291 N 1143.87 2.92544 -6.28005 0
M  V30 11292 N 1145.66 2.53033 -5.01927 0
M  V30 11293 H 1137.81 -0.0510973 -2.12339 0
M  V30 11294 H 1140.07 0.039748 -0.947166 0
M  V30 11295 H 1139.78 0.736389 -3.43904 0
M  V30 11296 H 1139.65 2.40375 -2.90688 0
M  V30 11297 H 1142.04 2.23242 -1.92994 0
M  V30 11298 H 1142.12 0.558083 -2.49638 0
M  V30 11299 H 1141.77 1.37401 -4.88962 0
M  V30 11300 H 1141.7 3.0509 -4.29218 0
M  V30 11301 H 1144.19 1.84792 -3.29636 0
M  V30 11302 H 1144.5 3.22116 -7.02468 0
M  V30 11303 H 1142.85 2.90319 -6.31458 0
M  V30 11304 H 1146.04 2.21514 -4.1237 0
M  V30 11305 H 1146.21 2.84155 -5.82375 0
M  V30 11306 N 1139.62 1.30703 0.880598 0
M  V30 11307 C 1140.55 1.20033 2.00286 0
M  V30 11308 C 1141.53 0.0899614 1.69862 0
M  V30 11309 O 1142.71 0.272747 1.92275 0
M  V30 11310 C 1139.84 0.895902 3.35546 0
M  V30 11311 C 1138.8 1.96468 3.80242 0
M  V30 11312 C 1138.12 1.51316 5.12843 0
M  V30 11313 C 1139.42 3.37637 3.98496 0
M  V30 11314 H 1141.12 2.13922 2.0947 0
M  V30 11315 H 1138.66 1.02989 1.00644 0
M  V30 11316 H 1140.61 0.807899 4.13583 0
M  V30 11317 H 1139.34 -0.0786636 3.26505 0
M  V30 11318 H 1138 2.0424 3.04437 0
M  V30 11319 H 1137.65 0.52674 5.00234 0
M  V30 11320 H 1137.35 2.22807 5.43719 0
M  V30 11321 H 1138.87 1.43903 5.93401 0
M  V30 11322 H 1140.28 3.326 4.66959 0
M  V30 11323 H 1138.68 4.07253 4.40755 0
M  V30 11324 H 1139.75 3.79205 3.02211 0
M  V30 11325 N 1141.09 -1.09351 1.1349 0
M  V30 11326 C 1142.06 -2.14185 0.815919 0
M  V30 11327 C 1143.06 -1.59845 -0.174976 0
M  V30 11328 O 1144.25 -1.74122 0.0521971 0
M  V30 11329 C 1141.38 -3.40224 0.214517 0
M  V30 11330 H 1142.57 -2.43913 1.74489 0
M  V30 11331 H 1140.12 -1.24902 0.939634 0
M  V30 11332 H 1140.86 -3.16123 -0.723634 0
M  V30 11333 H 1140.64 -3.80958 0.928102 0
M  V30 11334 H 1142.13 -4.17599 0.00821999 0
M  V30 11335 N 1142.57 -0.928524 -1.27343 0
M  V30 11336 C 1143.82 -0.568267 -1.93946 0
M  V30 11337 C 1144.14 0.893501 -1.73325 0
M  V30 11338 O 1143.41 1.63344 -1.08147 0
M  V30 11339 H 1141.99 -0.207173 -0.717696 0
M  V30 11340 H 1144.65 -1.1811 -1.55036 0
M  V30 11341 H 1143.75 -0.775246 -3.02318 0
M  V30 11342 N 1144.05 1.41491 -0.694123 0
M  V30 11343 C 1145 2.30783 -0.0278824 0
M  V30 11344 C 1145.97 1.47028 0.772783 0
M  V30 11345 O 1147.15 1.75819 0.74111 0
M  V30 11346 C 1144.29 3.33061 0.903579 0
M  V30 11347 C 1143.4 4.31896 0.0946823 0
M  V30 11348 C 1142.54 5.21243 1.02365 0
M  V30 11349 C 1141.58 6.11748 0.207578 0
M  V30 11350 N 1140.72 6.93583 1.09028 0
M  V30 11351 H 1145.56 2.87197 -0.795092 0
M  V30 11352 H 1143.09 1.41449 -0.403806 0
M  V30 11353 H 1145.05 3.90907 1.45765 0
M  V30 11354 H 1143.68 2.782 1.6372 0
M  V30 11355 H 1142.73 3.76009 -0.576289 0
M  V30 11356 H 1144.04 4.95889 -0.538059 0
M  V30 11357 H 1143.2 5.83917 1.647 0
M  V30 11358 H 1141.94 4.57473 1.69025 0
M  V30 11359 H 1140.94 5.48125 -0.428854 0
M  V30 11360 H 1142.17 6.77573 -0.455206 0
M  V30 11361 H 1140.11 6.32422 1.74292 0
M  V30 11362 H 1140.03 7.54257 0.513073 0
M  V30 11363 H 1141.3 7.60726 1.70048 0
M  V30 11364 N 1145.53 0.438773 1.51369 0
M  V30 11365 C 1146.46 -0.407771 2.25543 0
M  V30 11366 C 1147.47 -0.985065 1.29616 0
M  V30 11367 O 1148.66 -0.878961 1.55359 0
M  V30 11368 C 1145.76 -1.58257 2.9968 0
M  V30 11369 C 1144.93 -1.12389 4.22714 0
M  V30 11370 C 1143.99 -2.16897 4.79418 0
M  V30 11371 O 1143.02 -1.76273 5.41218 0
M  V30 11372 N 1144.22 -3.49396 4.63576 0
M  V30 11373 H 1146.99 0.227963 2.98832 0
M  V30 11374 H 1144.55 0.267741 1.59671 0
M  V30 11375 H 1146.54 -2.27796 3.34501 0
M  V30 11376 H 1145.11 -2.12362 2.29393 0
M  V30 11377 H 1144.33 -0.255509 3.93371 0
M  V30 11378 H 1145.62 -0.794848 5.02553 0
M  V30 11379 H 1145.02 -3.85132 4.14355 0
M  V30 11380 H 1143.57 -4.14826 5.02755 0
M  V30 11381 N 1147.01 -1.56678 0.170181 0
M  V30 11382 C 1147.94 -2.13747 -0.799203 0
M  V30 11383 C 1148.92 -1.06725 -1.22673 0
M  V30 11384 O 1150.1 -1.34694 -1.3187 0
M  V30 11385 C 1147.23 -2.67611 -2.07611 0
M  V30 11386 C 1146.27 -3.86994 -1.7927 0
M  V30 11387 S 1147.11 -5.26771 -0.962951 0
M  V30 11388 C 1148.26 -5.84039 -2.25054 0
M  V30 11389 H 1148.5 -2.95637 -0.313976 0
M  V30 11390 H 1146.03 -1.54336 -0.0444708 0
M  V30 11391 H 1147.99 -2.99291 -2.80954 0
M  V30 11392 H 1146.65 -1.85808 -2.53247 0
M  V30 11393 H 1145.84 -4.23006 -2.74011 0
M  V30 11394 H 1145.44 -3.56195 -1.14023 0
M  V30 11395 H 1147.73 -5.96883 -3.20525 0
M  V30 11396 H 1148.68 -6.81145 -1.93513 0
M  V30 11397 H 1149.09 -5.12449 -2.36763 0
M  V30 11398 N 1148.48 0.103547 -1.57259 0
M  V30 11399 C 1149.73 0.807231 -1.84842 0
M  V30 11400 C 1150.05 1.80308 -0.758181 0
M  V30 11401 O 1151.25 2.55406 -0.920877 0
M  V30 11402 C 1149.71 1.4864 -3.27771 0
M  V30 11403 C 1149.32 0.53075 -4.44845 0
M  V30 11404 C 1151.06 2.17431 -3.64587 0
M  V30 11405 C 1148.97 1.21403 -5.78805 0
M  V30 11406 H 1147.9 0.305212 -0.689465 0
M  V30 11407 H 1150.55 0.0600855 -1.83402 0
M  V30 11408 H 1148.93 2.28071 -3.23728 0
M  V30 11409 H 1150.1 -0.231455 -4.60218 0
M  V30 11410 H 1148.42 -0.0510078 -4.16369 0
M  V30 11411 H 1151.02 2.6927 -4.6195 0
M  V30 11412 H 1151.36 2.9594 -2.92789 0
M  V30 11413 H 1151.89 1.4487 -3.70483 0
M  V30 11414 H 1148.63 0.469918 -6.53813 0
M  V30 11415 H 1148.15 1.94787 -5.6729 0
M  V30 11416 H 1149.83 1.74289 -6.23083 0
M  V30 11417 N 1149.96 1.53094 0.37415 0
M  V30 11418 C 1150.89 1.75199 1.47776 0
M  V30 11419 C 1151.91 0.632627 1.50006 0
M  V30 11420 O 1153.1 0.908688 1.5364 0
M  V30 11421 C 1150.2 1.80909 2.86575 0
M  V30 11422 C 1149.37 3.10432 3.08141 0
M  V30 11423 C 1148.43 3.07495 4.27005 0
M  V30 11424 O 1147.45 3.81319 4.22592 0
M  V30 11425 N 1148.66 2.27715 5.33972 0
M  V30 11426 H 1151.42 2.70423 1.29196 0
M  V30 11427 H 1148.98 1.51766 0.563802 0
M  V30 11428 H 1150.97 1.76432 3.64217 0
M  V30 11429 H 1149.54 0.930074 2.98443 0
M  V30 11430 H 1148.76 3.2828 2.18233 0
M  V30 11431 H 1150.05 3.96047 3.19413 0
M  V30 11432 H 1149.45 1.67231 5.40417 0
M  V30 11433 H 1148.01 2.29065 6.10223 0
M  V30 11434 N 1151.44 -0.633461 1.44309 0
M  V30 11435 C 1152.69 -1.39513 1.47187 0
M  V30 11436 C 1153.02 -1.93926 0.103186 0
M  V30 11437 O 1152.29 -1.73512 -0.878853 0
M  V30 11438 C 1152.58 -2.56213 2.53036 0
M  V30 11439 C 1152.43 -2.07164 3.99253 0
M  V30 11440 C 1153.75 -3.58403 2.55412 0
M  V30 11441 H 1150.87 -0.505936 0.535908 0
M  V30 11442 H 1153.51 -0.716445 1.75975 0
M  V30 11443 H 1151.66 -3.14111 2.28619 0
M  V30 11444 H 1153.33 -1.54115 4.34795 0
M  V30 11445 H 1151.57 -1.38367 4.11141 0
M  V30 11446 H 1152.25 -2.91172 4.6896 0
M  V30 11447 H 1154.72 -3.103 2.77224 0
M  V30 11448 H 1153.6 -4.37581 3.31382 0
M  V30 11449 H 1153.86 -4.12316 1.59523 0
M  V30 11450 N 1152.92 -1.31168 -0.873655 0
M  V30 11451 C 1154.16 -1.20821 -1.62881 0
M  V30 11452 C 1154.5 0.233994 -1.92785 0
M  V30 11453 O 1153.77 1.16588 -1.55684 0
M  V30 11454 C 1154.06 -2.04875 -2.96139 0
M  V30 11455 C 1153.91 -3.57375 -2.73136 0
M  V30 11456 C 1155.23 -1.8953 -3.97198 0
M  V30 11457 H 1152.35 -0.44026 -0.59105 0
M  V30 11458 H 1154.99 -1.6092 -1.01019 0
M  V30 11459 H 1153.14 -1.70806 -3.48938 0
M  V30 11460 H 1154.81 -4.01561 -2.27038 0
M  V30 11461 H 1153.05 -3.8099 -2.07434 0
M  V30 11462 H 1153.72 -4.1149 -3.6794 0
M  V30 11463 H 1156.2 -2.19337 -3.53596 0
M  V30 11464 H 1155.08 -2.5065 -4.8833 0
M  V30 11465 H 1155.34 -0.857576 -4.33703 0
M  V30 11466 N 1154.4 1.08748 -1.14068 0
M  V30 11467 C 1155.34 2.15573 -0.824425 0
M  V30 11468 C 1156.31 1.64683 0.216522 0
M  V30 11469 O 1157.5 1.90601 0.0872193 0
M  V30 11470 C 1154.64 3.43756 -0.30423 0
M  V30 11471 C 1153.75 4.08512 -1.40506 0
M  V30 11472 C 1152.89 5.24477 -0.842479 0
M  V30 11473 C 1151.93 5.81167 -1.92123 0
M  V30 11474 N 1151.06 6.88483 -1.37608 0
M  V30 11475 H 1155.9 2.41968 -1.73941 0
M  V30 11476 H 1153.44 1.18751 -0.868143 0
M  V30 11477 H 1155.4 4.17197 0.0155546 0
M  V30 11478 H 1154.03 3.17658 0.573868 0
M  V30 11479 H 1153.08 3.32866 -1.84131 0
M  V30 11480 H 1154.39 4.46669 -2.2201 0
M  V30 11481 H 1153.55 6.04842 -0.474389 0
M  V30 11482 H 1152.28 4.877 0.00355212 0
M  V30 11483 H 1151.29 4.99458 -2.29831 0
M  V30 11484 H 1152.51 6.20003 -2.77079 0
M  V30 11485 H 1150.46 6.53672 -0.552168 0
M  V30 11486 H 1150.38 7.25446 -2.12752 0
M  V30 11487 H 1151.65 7.72588 -1.03578 0
M  V30 11488 N 1155.87 0.935264 1.26849 0
M  V30 11489 C 1157.12 0.590057 1.94653 0
M  V30 11490 C 1157.48 -0.860481 1.72086 0
M  V30 11491 O 1156.77 -1.60672 1.04379 0
M  V30 11492 C 1156.96 0.861098 3.46872 0
M  V30 11493 C 1156.79 2.33643 3.84241 0
M  V30 11494 C 1155.56 2.99052 4.07303 0
M  V30 11495 C 1157.76 3.3145 3.9325 0
M  V30 11496 N 1155.74 4.36659 4.31511 0
M  V30 11497 C 1157.11 4.54294 4.21921 0
M  V30 11498 C 1159.17 3.26555 3.75854 0
M  V30 11499 C 1157.87 5.72854 4.35006 0
M  V30 11500 C 1159.9 4.44435 3.90168 0
M  V30 11501 C 1159.26 5.66059 4.19233 0
M  V30 11502 H 1155.36 0.266182 0.735303 0
M  V30 11503 H 1157.94 1.20345 1.53053 0
M  V30 11504 H 1156.11 0.276803 3.87412 0
M  V30 11505 H 1157.84 0.477757 4.0187 0
M  V30 11506 H 1154.6 2.49692 4.02431 0
M  V30 11507 H 1155.02 5.07869 4.47658 0
M  V30 11508 H 1159.67 2.33585 3.52417 0
M  V30 11509 H 1157.38 6.66283 4.57266 0
M  V30 11510 H 1160.97 4.42174 3.78119 0
M  V30 11511 H 1159.85 6.55753 4.30068 0
M  V30 11512 N 1157.35 -1.41121 0.701616 0
M  V30 11513 C 1158.32 -2.29148 0.0490091 0
M  V30 11514 C 1159.32 -1.44679 -0.701763 0
M  V30 11515 O 1160.51 -1.65757 -0.53575 0
M  V30 11516 C 1157.64 -3.2766 -0.940837 0
M  V30 11517 H 1158.83 -2.88354 0.824133 0
M  V30 11518 H 1156.38 -1.49209 0.465457 0
M  V30 11519 H 1157.12 -2.73445 -1.74351 0
M  V30 11520 H 1156.9 -3.89997 -0.405551 0
M  V30 11521 H 1158.39 -3.93609 -1.39507 0
M  V30 11522 N 1158.83 -0.446794 -1.51134 0
M  V30 11523 C 1159.78 0.359865 -2.27977 0
M  V30 11524 C 1160.75 1.0086 -1.31972 0
M  V30 11525 O 1161.93 1.02569 -1.60886 0
M  V30 11526 C 1159.07 1.44978 -3.1317 0
M  V30 11527 C 1158.19 0.818243 -4.2418 0
M  V30 11528 C 1157.32 1.884 -4.96668 0
M  V30 11529 C 1156.36 1.2314 -5.99586 0
M  V30 11530 N 1155.5 2.23894 -6.65444 0
M  V30 11531 H 1160.34 -0.301775 -2.96468 0
M  V30 11532 H 1157.87 -0.160666 -1.4622 0
M  V30 11533 H 1159.83 2.09308 -3.60896 0
M  V30 11534 H 1158.46 2.08092 -2.46775 0
M  V30 11535 H 1157.51 0.0629889 -3.80348 0
M  V30 11536 H 1158.83 0.301885 -4.97886 0
M  V30 11537 H 1157.98 2.6037 -5.4799 0
M  V30 11538 H 1156.72 2.43411 -4.22614 0
M  V30 11539 H 1155.72 0.497215 -5.47547 0
M  V30 11540 H 1156.95 0.688505 -6.75601 0
M  V30 11541 H 1154.89 2.77967 -5.94197 0
M  V30 11542 H 1154.81 1.77176 -7.34945 0
M  V30 11543 H 1156.08 2.95318 -7.21393 0
M  V30 11544 N 1160.31 1.56586 -0.178487 0
M  V30 11545 C 1161.55 1.9739 0.465306 0
M  V30 11546 C 1161.89 1.06474 1.6241 0
M  V30 11547 O 1161.16 0.113316 1.9417 0
M  V30 11548 C 1161.45 3.47577 0.941408 0
M  V30 11549 C 1161.3 4.49271 -0.218054 0
M  V30 11550 C 1162.62 4.01038 1.81263 0
M  V30 11551 H 1159.74 0.717676 0.167663 0
M  V30 11552 H 1162.38 1.88128 -0.266067 0
M  V30 11553 H 1160.53 3.556 1.56463 0
M  V30 11554 H 1162.2 4.53301 -0.855332 0
M  V30 11555 H 1160.44 4.24936 -0.872441 0
M  V30 11556 H 1161.11 5.51776 0.157315 0
M  V30 11557 H 1163.59 3.9569 1.28718 0
M  V30 11558 H 1162.47 5.06526 2.11476 0
M  V30 11559 H 1162.73 3.45288 2.76096 0
M  V30 11560 N 1161.79 -0.095206 1.57312 0
M  V30 11561 C 1162.72 -1.11627 2.05089 0
M  V30 11562 C 1163.7 -1.41782 0.939787 0
M  V30 11563 O 1164.88 -1.51813 1.21105 0
M  V30 11564 C 1162.01 -2.43618 2.47523 0
M  V30 11565 C 1160.97 -2.27872 3.62296 0
M  V30 11566 C 1160.29 -3.65038 3.90706 0
M  V30 11567 C 1161.59 -1.71936 4.93189 0
M  V30 11568 H 1163.29 -0.718795 2.90644 0
M  V30 11569 H 1160.83 -0.344315 1.39823 0
M  V30 11570 H 1162.79 -3.1532 2.79556 0
M  V30 11571 H 1161.51 -2.85301 1.58968 0
M  V30 11572 H 1160.17 -1.58615 3.3051 0
M  V30 11573 H 1159.82 -4.04249 2.99319 0
M  V30 11574 H 1159.52 -3.55349 4.67976 0
M  V30 11575 H 1161.04 -4.38208 4.25213 0
M  V30 11576 H 1162.45 -2.33479 5.23603 0
M  V30 11577 H 1160.85 -1.73006 5.74621 0
M  V30 11578 H 1161.92 -0.678789 4.80125 0
M  V30 11579 N 1163.26 -1.53291 -0.366026 0
M  V30 11580 C 1164.68 -1.61144 -0.942849 0
M  V30 11581 C 1165.03 -0.478571 -1.90274 0
M  V30 11582 O 1164.15 0.395069 -2.12763 0
M  V30 11583 C 1164.75 -2.92081 -1.71681 0
M  V30 11584 C 1163.31 -3.0227 -2.24298 0
M  V30 11585 C 1162.45 -2.56436 -1.05526 0
M  V30 11586 H 1165.4 -1.58038 -0.144835 0
M  V30 11587 H 1165.42 -2.79858 -2.57798 0
M  V30 11588 H 1164.94 -3.74513 -1.01793 0
M  V30 11589 H 1163.04 -2.24425 -2.97429 0
M  V30 11590 H 1163.15 -4.07341 -2.5221 0
M  V30 11591 H 1161.51 -2.11301 -1.42211 0
M  V30 11592 H 1162.3 -3.41285 -0.371376 0
M  V30 11593 N 1164.74 0.6258 -1.44643 0
M  V30 11594 C 1165.99 1.38251 -1.47414 0
M  V30 11595 C 1166.31 1.94689 -0.110043 0
M  V30 11596 O 1165.58 1.76095 0.858333 0
M  V30 11597 H 1164.16 0.513179 -0.542823 0
M  V30 11598 H 1166.82 0.736179 -1.80462 0
M  V30 11599 H 1165.92 2.21115 -2.2026 0
M  V30 11600 N 1166.22 1.31629 0.866686 0
M  V30 11601 C 1167.47 1.21503 1.61998 0
M  V30 11602 C 1167.8 -0.226044 1.93182 0
M  V30 11603 O 1167.05 -1.17573 1.56445 0
M  V30 11604 C 1167.35 2.00775 2.95676 0
M  V30 11605 C 1167.02 3.50245 2.83971 0
M  V30 11606 C 1165.68 3.91 2.80485 0
M  V30 11607 C 1168.03 4.45347 2.70769 0
M  V30 11608 C 1165.36 5.25119 2.61661 0
M  V30 11609 C 1167.71 5.79595 2.53481 0
M  V30 11610 C 1166.37 6.19567 2.48381 0
M  V30 11611 H 1165.64 0.44461 0.592792 0
M  V30 11612 H 1168.29 1.62929 1.00629 0
M  V30 11613 H 1166.6 1.52039 3.61097 0
M  V30 11614 H 1168.29 1.90318 3.52959 0
M  V30 11615 H 1164.88 3.17869 2.87502 0
M  V30 11616 H 1169.07 4.14789 2.72514 0
M  V30 11617 H 1164.32 5.5516 2.5614 0
M  V30 11618 H 1168.5 6.5291 2.42243 0
M  V30 11619 H 1166.12 7.23434 2.33554 0
M  V30 11620 N 1167.7 -1.08142 1.14644 0
M  V30 11621 C 1168.65 -2.15133 0.835845 0
M  V30 11622 C 1169.62 -1.64795 -0.207785 0
M  V30 11623 O 1170.8 -1.90644 -0.07711 0
M  V30 11624 C 1167.94 -3.4359 0.322456 0
M  V30 11625 C 1167.05 -4.07761 1.42671 0
M  V30 11626 C 1166.19 -5.24022 0.870281 0
M  V30 11627 C 1165.23 -5.8014 1.95202 0
M  V30 11628 N 1164.37 -6.87743 1.41257 0
M  V30 11629 H 1169.21 -2.41042 1.75222 0
M  V30 11630 H 1166.74 -1.18288 0.874428 0
M  V30 11631 H 1168.7 -4.17199 0.00657059 0
M  V30 11632 H 1167.33 -3.17958 -0.557014 0
M  V30 11633 H 1166.38 -3.31885 1.85893 0
M  V30 11634 H 1167.69 -4.45485 2.24375 0
M  V30 11635 H 1166.85 -6.04582 0.506459 0
M  V30 11636 H 1165.59 -4.87695 0.0223118 0
M  V30 11637 H 1164.59 -4.98232 2.32476 0
M  V30 11638 H 1165.82 -6.18525 2.80363 0
M  V30 11639 H 1163.76 -6.5337 0.586826 0
M  V30 11640 H 1163.68 -7.24308 2.16596 0
M  V30 11641 H 1164.95 -7.72028 1.07674 0
M  V30 11642 N 1169.18 -0.941978 -1.26351 0
M  V30 11643 C 1170.13 -0.443011 -2.28342 0
M  V30 11644 C 1171.12 0.48013 -1.62453 0
M  V30 11645 O 1172.33 0.358255 -1.76399 0
M  V30 11646 H 1168.7 -0.124728 -0.741584 0
M  V30 11647 H 1170.67 -1.31573 -2.67827 0
M  V30 11648 C 1169.42 0.275675 -3.46605 0
M  V30 11649 H 1168.74 -0.425504 -3.97529 0
M  V30 11650 H 1170.18 0.589012 -4.19889 0
M  V30 11651 C 1168.64 1.49376 -3.01974 0
M  V30 11652 O 1169.17 2.59203 -3.06883 0
M  V30 11653 N 1167.38 1.35061 -2.57307 0
M  V30 11654 H 1166.93 0.457045 -2.53513 0
M  V30 11655 H 1166.88 2.16681 -2.27809 0
M  V30 11656 N 1170.66 1.40747 -0.709091 0
M  V30 11657 C 1171.59 2.33404 -0.0669763 0
M  V30 11658 C 1172.57 1.52546 0.752582 0
M  V30 11659 O 1173.75 1.81036 0.702823 0
M  V30 11660 C 1170.88 3.36476 0.860285 0
M  V30 11661 C 1169.84 4.27748 0.146828 0
M  V30 11662 C 1169.16 5.21304 1.18937 0
M  V30 11663 C 1170.46 5.12734 -0.995064 0
M  V30 11664 H 1172.16 2.87349 -0.840888 0
M  V30 11665 H 1169.7 1.38163 -0.405817 0
M  V30 11666 H 1171.65 4.00231 1.31883 0
M  V30 11667 H 1170.38 2.80912 1.66602 0
M  V30 11668 H 1169.04 3.65437 -0.291826 0
M  V30 11669 H 1168.69 4.62048 1.98798 0
M  V30 11670 H 1168.39 5.8321 0.716917 0
M  V30 11671 H 1169.91 5.87936 1.64815 0
M  V30 11672 H 1171.32 5.69979 -0.61618 0
M  V30 11673 H 1169.72 5.83649 -1.39547 0
M  V30 11674 H 1170.79 4.49097 -1.82867 0
M  V30 11675 N 1172.13 0.454803 1.50895 0
M  V30 11676 C 1173.54 -0.00421212 1.867 0
M  V30 11677 C 1173.9 -1.4037 1.3708 0
M  V30 11678 O 1173.02 -2.03755 0.728884 0
M  V30 11679 C 1173.62 -0.0144196 3.38797 0
M  V30 11680 C 1172.17 -0.417905 3.74073 0
M  V30 11681 C 1171.32 0.37801 2.74711 0
M  V30 11682 H 1174.27 0.669849 1.4387 0
M  V30 11683 H 1174.29 -0.820172 3.71555 0
M  V30 11684 H 1173.81 1.00427 3.74881 0
M  V30 11685 H 1171.91 -1.44155 3.43584 0
M  V30 11686 H 1172.02 -0.130568 4.78922 0
M  V30 11687 H 1170.38 -0.166089 2.54158 0
M  V30 11688 H 1171.17 1.3959 3.13639 0
M  V30 11689 N 1173.61 -1.56489 0.186789 0
M  V30 11690 C 1174.54 -2.21705 -0.732739 0
M  V30 11691 C 1175.52 -1.17751 -1.22755 0
M  V30 11692 O 1176.71 -1.46231 -1.27789 0
M  V30 11693 C 1173.84 -2.86992 -1.95584 0
M  V30 11694 C 1172.79 -3.97118 -1.59628 0
M  V30 11695 C 1172.12 -4.49529 -2.89531 0
M  V30 11696 C 1173.42 -5.15941 -0.812518 0
M  V30 11697 H 1175.11 -2.98802 -0.189094 0
M  V30 11698 H 1172.66 -1.43722 -0.0895099 0
M  V30 11699 H 1174.61 -3.31295 -2.60426 0
M  V30 11700 H 1173.33 -2.07287 -2.52388 0
M  V30 11701 H 1171.99 -3.53494 -0.971475 0
M  V30 11702 H 1171.64 -3.66596 -3.44407 0
M  V30 11703 H 1171.34 -5.23832 -2.66221 0
M  V30 11704 H 1172.87 -4.96528 -3.55376 0
M  V30 11705 H 1174.28 -5.56841 -1.36386 0
M  V30 11706 H 1172.68 -5.96259 -0.677862 0
M  V30 11707 H 1173.75 -4.84535 0.188095 0
M  V30 11708 N 1175.09 0.086862 -1.5736 0
M  V30 11709 C 1176 1.12297 -2.05977 0
M  V30 11710 C 1177.02 1.43347 -0.986284 0
M  V30 11711 O 1178.19 1.53825 -1.3 0
M  V30 11712 C 1175.26 2.42131 -2.4814 0
M  V30 11713 C 1174.32 2.18189 -3.69719 0
M  V30 11714 C 1173.55 3.41833 -4.09861 0
M  V30 11715 O 1173.77 4.50383 -3.50016 0
M  V30 11716 O 1172.71 3.30934 -5.02759 0
M  V30 11717 H 1176.53 0.740012 -2.94546 0
M  V30 11718 H 1174.12 0.29995 -1.46358 0
M  V30 11719 H 1176 3.18568 -2.75848 0
M  V30 11720 H 1174.68 2.79837 -1.62705 0
M  V30 11721 H 1173.58 1.39506 -3.47115 0
M  V30 11722 H 1174.92 1.85372 -4.55959 0
M  V30 11723 N 1176.57 1.53483 0.357892 0
M  V30 11724 C 1177.84 1.60649 1.11585 0
M  V30 11725 C 1178.22 0.418789 2.06904 0
M  V30 11726 O 1177.57 -0.590279 2.20744 0
M  V30 11727 C 1177.78 2.96046 1.84818 0
M  V30 11728 C 1179.13 3.50895 2.39076 0
M  V30 11729 O 1180.15 2.98126 1.94934 0
M  V30 11730 O 1179.01 4.43163 3.19794 0
M  V30 11731 H 1176.11 0.649202 0.512315 0
M  V30 11732 H 1178.65 1.65826 0.360537 0
M  V30 11733 H 1177.43 3.73929 1.15296 0
M  V30 11734 H 1177.05 2.94395 2.6724 0
M  V30 11735 N 1178.05 -0.61812 1.44973 0
M  V30 11736 C 1178.98 -1.74299 1.48837 0
M  V30 11737 C 1179.99 -1.58296 0.38028 0
M  V30 11738 O 1181.18 -1.66371 0.646757 0
M  V30 11739 C 1178.28 -3.12179 1.31901 0
M  V30 11740 C 1177.45 -3.54519 2.56193 0
M  V30 11741 C 1176.51 -4.71324 2.33966 0
M  V30 11742 O 1175.54 -4.78975 3.07525 0
M  V30 11743 N 1176.74 -5.63894 1.37854 0
M  V30 11744 H 1179.5 -1.7145 2.45815 0
M  V30 11745 H 1177.07 -0.803087 1.40578 0
M  V30 11746 H 1179.06 -3.88059 1.14858 0
M  V30 11747 H 1177.63 -3.09595 0.43239 0
M  V30 11748 H 1176.85 -2.68711 2.88423 0
M  V30 11749 H 1178.14 -3.79563 3.38835 0
M  V30 11750 H 1177.53 -5.60418 0.771273 0
M  V30 11751 H 1176.09 -6.3935 1.26787 0
M  V30 11752 N 1179.52 -1.32087 -0.859693 0
M  V30 11753 C 1180.77 -1.21716 -1.60836 0
M  V30 11754 C 1181.09 0.220904 -1.94349 0
M  V30 11755 O 1182.29 0.446422 -2.67805 0
M  V30 11756 C 1180.75 -2.13143 -2.89997 0
M  V30 11757 C 1180.36 -3.62003 -2.63928 0
M  V30 11758 C 1182.1 -2.11596 -3.68004 0
M  V30 11759 C 1180.01 -4.45407 -3.89059 0
M  V30 11760 H 1178.94 -0.45199 -0.603507 0
M  V30 11761 H 1181.59 -1.57013 -0.949687 0
M  V30 11762 H 1179.97 -1.70755 -3.57294 0
M  V30 11763 H 1181.14 -4.12701 -2.04974 0
M  V30 11764 H 1179.46 -3.6563 -1.99258 0
M  V30 11765 H 1182.06 -2.71149 -4.6085 0
M  V30 11766 H 1182.4 -1.10568 -4.01348 0
M  V30 11767 H 1182.93 -2.52238 -3.07605 0
M  V30 11768 H 1179.67 -5.4723 -3.60859 0
M  V30 11769 H 1179.19 -3.99462 -4.47427 0
M  V30 11770 H 1180.87 -4.58149 -4.56846 0
M  V30 11771 N 1181 1.07532 -1.15215 0
M  V30 11772 C 1182.23 1.83817 -0.949687 0
M  V30 11773 C 1182.64 1.82004 0.501991 0
M  V30 11774 O 1182 1.23014 1.34811 0
M  V30 11775 C 1182.05 3.30978 -1.45382 0
M  V30 11776 O 1181.77 3.32844 -2.84863 0
M  V30 11777 C 1183.27 4.24037 -1.29257 0
M  V30 11778 H 1180.49 0.58 -0.337404 0
M  V30 11779 H 1183.04 1.35752 -1.52944 0
M  V30 11780 H 1181.19 3.76399 -0.916638 0
M  V30 11781 H 1181.61 4.24773 -3.07682 0
M  V30 11782 H 1183.08 5.25371 -1.69379 0
M  V30 11783 H 1183.56 4.38563 -0.236519 0
M  V30 11784 H 1184.16 3.8445 -1.81874 0
M  V30 11785 N 1182.48 0.948665 1.2585 0
M  V30 11786 C 1183.41 0.482036 2.2847 0
M  V30 11787 C 1184.39 -0.468553 1.63519 0
M  V30 11788 O 1185.58 -0.368796 1.90666 0
M  V30 11789 C 1182.71 -0.246603 3.46423 0
M  V30 11790 C 1181.66 0.61815 4.23513 0
M  V30 11791 C 1180.99 -0.240884 5.34157 0
M  V30 11792 C 1182.29 1.89327 4.86778 0
M  V30 11793 H 1183.98 1.33973 2.67753 0
M  V30 11794 H 1181.53 0.645645 1.28715 0
M  V30 11795 H 1183.48 -0.584135 4.17332 0
M  V30 11796 H 1182.2 -1.13849 3.06114 0
M  V30 11797 H 1180.86 0.938682 3.54379 0
M  V30 11798 H 1180.51 -1.13235 4.90089 0
M  V30 11799 H 1180.21 0.334367 5.86648 0
M  V30 11800 H 1181.73 -0.573517 6.07901 0
M  V30 11801 H 1183.15 1.62252 5.49861 0
M  V30 11802 H 1181.55 2.41369 5.49419 0
M  V30 11803 H 1182.62 2.60006 4.09298 0
M  V30 11804 N 1183.96 -1.40369 0.716545 0
M  V30 11805 C 1185.21 -2.00101 0.253452 0
M  V30 11806 C 1185.52 -1.57471 -1.16027 0
M  V30 11807 O 1186.73 -2.09909 -1.72193 0
M  V30 11808 C 1185.18 -3.57645 0.402213 0
M  V30 11809 C 1184.79 -4.09248 1.82264 0
M  V30 11810 C 1186.53 -4.245 -3.88526e-05 0
M  V30 11811 C 1184.44 -5.59299 1.92193 0
M  V30 11812 H 1183.37 -0.748488 0.0910047 0
M  V30 11813 H 1186.02 -1.60595 0.887772 0
M  V30 11814 H 1184.4 -3.94857 -0.300706 0
M  V30 11815 H 1185.58 -3.83412 2.55601 0
M  V30 11816 H 1183.89 -3.54993 2.17644 0
M  V30 11817 H 1186.49 -5.34673 0.0534202 0
M  V30 11818 H 1186.83 -4.03046 -1.04208 0
M  V30 11819 H 1187.37 -3.92398 0.65336 0
M  V30 11820 H 1184.11 -5.85608 2.94522 0
M  V30 11821 H 1183.63 -5.86997 1.23268 0
M  V30 11822 H 1185.3 -6.24416 1.6945 0
M  V30 11823 N 1185.44 -0.462799 -1.50652 0
M  V30 11824 C 1186.37 0.371837 -2.26164 0
M  V30 11825 C 1187.38 0.96432 -1.31167 0
M  V30 11826 O 1188.57 0.854134 -1.56738 0
M  V30 11827 C 1185.67 1.53469 -3.0216 0
M  V30 11828 C 1184.84 1.0565 -4.24449 0
M  V30 11829 C 1183.9 2.09243 -4.82808 0
M  V30 11830 O 1182.93 1.67641 -5.43953 0
M  V30 11831 N 1184.13 3.41976 -4.69076 0
M  V30 11832 H 1186.9 -0.275476 -2.98431 0
M  V30 11833 H 1184.46 -0.293109 -1.59225 0
M  V30 11834 H 1186.45 2.22446 -3.38083 0
M  V30 11835 H 1185.02 2.08685 -2.32743 0
M  V30 11836 H 1184.24 0.192895 -3.93728 0
M  V30 11837 H 1185.53 0.714796 -5.03754 0
M  V30 11838 H 1184.92 3.78491 -4.20429 0
M  V30 11839 H 1183.48 4.06775 -5.09291 0
M  V30 11840 N 1186.91 1.56388 -0.195085 0
M  V30 11841 C 1188.14 2.0167 0.448637 0
M  V30 11842 C 1188.55 1.07439 1.55736 0
M  V30 11843 O 1187.9 0.071441 1.83561 0
M  V30 11844 C 1187.96 3.43348 1.06547 0
M  V30 11845 C 1187.62 4.569 0.0954901 0
M  V30 11846 C 1188.62 5.15232 -0.695116 0
M  V30 11847 C 1186.3 5.02298 -0.0155889 0
M  V30 11848 C 1188.3 6.1741 -1.58377 0
M  V30 11849 C 1185.98 6.0432 -0.907799 0
M  V30 11850 C 1186.98 6.6175 -1.69045 0
M  V30 11851 O 1186.67 7.6179 -2.56771 0
M  V30 11852 H 1186.4 0.665805 0.116962 0
M  V30 11853 H 1188.96 2.03182 -0.301062 0
M  V30 11854 H 1187.19 3.38823 1.86376 0
M  V30 11855 H 1188.88 3.72438 1.61385 0
M  V30 11856 H 1189.64 4.81026 -0.619604 0
M  V30 11857 H 1185.52 4.57293 0.583424 0
M  V30 11858 H 1189.06 6.62164 -2.1951 0
M  V30 11859 H 1184.96 6.37949 -0.984427 0
M  V30 11860 H 1185.73 7.79209 -2.50551 0
M  V30 11861 N 1188.39 -0.0785156 1.57404 0
M  V30 11862 C 1189.62 -0.795871 1.91522 0
M  V30 11863 C 1190.04 -1.70665 0.790892 0
M  V30 11864 O 1189.4 -1.79474 -0.25666 0
M  V30 11865 C 1189.45 -1.57121 3.24569 0
M  V30 11866 O 1188.55 -2.6814 3.13328 0
M  V30 11867 H 1187.89 -0.217575 0.627341 0
M  V30 11868 H 1190.42 -0.0487724 2.04542 0
M  V30 11869 H 1190.43 -1.9519 3.5828 0
M  V30 11870 H 1189.11 -0.902909 4.05981 0
M  V30 11871 H 1187.69 -2.32978 2.91163 0
M  V30 11872 N 1189.87 -1.5367 -0.349747 0
M  V30 11873 C 1191.12 -1.71813 -1.08866 0
M  V30 11874 C 1191.47 -0.472299 -1.86513 0
M  V30 11875 O 1190.76 0.534996 -1.83979 0
M  V30 11876 C 1190.96 -2.91753 -2.06434 0
M  V30 11877 C 1190.79 -4.27881 -1.38377 0
M  V30 11878 C 1189.56 -4.92475 -1.13122 0
M  V30 11879 C 1191.76 -5.0783 -0.813198 0
M  V30 11880 N 1189.74 -6.1249 -0.415806 0
M  V30 11881 C 1191.11 -6.19581 -0.228008 0
M  V30 11882 C 1193.16 -4.92762 -0.713436 0
M  V30 11883 C 1191.87 -7.17908 0.447232 0
M  V30 11884 C 1193.89 -5.91377 -0.051947 0
M  V30 11885 C 1193.25 -7.02461 0.522299 0
M  V30 11886 H 1189.35 -0.681804 -0.382971 0
M  V30 11887 H 1191.94 -1.91093 -0.373029 0
M  V30 11888 H 1190.11 -2.73984 -2.75295 0
M  V30 11889 H 1191.84 -2.98644 -2.73118 0
M  V30 11890 H 1188.6 -4.51915 -1.41669 0
M  V30 11891 H 1189.02 -6.76961 -0.0730052 0
M  V30 11892 H 1193.66 -4.07053 -1.14315 0
M  V30 11893 H 1191.38 -8.03197 0.888855 0
M  V30 11894 H 1194.97 -5.81795 0.0245295 0
M  V30 11895 H 1193.85 -7.77459 1.02605 0
M  V30 11896 N 1191.35 0.610423 -1.45298 0
M  V30 11897 C 1192.28 1.73493 -1.48241 0
M  V30 11898 C 1193.26 1.59025 -0.339065 0
M  V30 11899 O 1194.44 1.80625 -0.539144 0
M  V30 11900 C 1191.57 3.11291 -1.33476 0
M  V30 11901 C 1190.62 3.44355 -2.51638 0
M  V30 11902 S 1191.45 3.39512 -4.14116 0
M  V30 11903 C 1192.61 4.79895 -4.01811 0
M  V30 11904 H 1192.84 1.70734 -2.43387 0
M  V30 11905 H 1190.37 0.786833 -1.32847 0
M  V30 11906 H 1192.33 3.90799 -1.25644 0
M  V30 11907 H 1190.99 3.11568 -0.39805 0
M  V30 11908 H 1190.18 4.44679 -2.37226 0
M  V30 11909 H 1189.79 2.72356 -2.56317 0
M  V30 11910 H 1192.08 5.6963 -3.6678 0
M  V30 11911 H 1193.02 4.99363 -5.02038 0
M  V30 11912 H 1193.43 4.55443 -3.33515 0
M  V30 11913 N 1192.83 1.32541 0.852676 0
M  V30 11914 C 1194.07 1.24532 1.62083 0
M  V30 11915 C 1194.43 -0.189531 1.91062 0
M  V30 11916 O 1195.63 -0.393382 2.65906 0
M  V30 11917 C 1193.9 2.0828 2.90438 0
M  V30 11918 S 1195.46 2.17317 3.81207 0
M  V30 11919 H 1192.28 0.443261 0.555915 0
M  V30 11920 H 1194.88 1.67413 1.00961 0
M  V30 11921 H 1193.59 3.11587 2.67099 0
M  V30 11922 H 1193.12 1.66184 3.56576 0
M  V30 11923 H 1195.13 1.32412 4.78207 0
M  V30 11924 N 1194.3 -1.0692 1.15784 0
M  V30 11925 C 1195.23 -2.16216 0.881649 0
M  V30 11926 C 1196.22 -1.69253 -0.16951 0
M  V30 11927 O 1197.4 -1.94186 -0.0229511 0
M  V30 11928 C 1194.53 -3.4527 0.374982 0
M  V30 11929 C 1193.48 -4.05706 1.36332 0
M  V30 11930 C 1192.81 -5.29894 0.715317 0
M  V30 11931 C 1194.11 -4.45224 2.7308 0
M  V30 11932 H 1195.8 -2.39577 1.79563 0
M  V30 11933 H 1193.35 -1.15141 0.864784 0
M  V30 11934 H 1195.3 -4.2106 0.169279 0
M  V30 11935 H 1194.03 -3.21508 -0.574485 0
M  V30 11936 H 1192.69 -3.31965 1.55546 0
M  V30 11937 H 1192.33 -5.02425 -0.240436 0
M  V30 11938 H 1192.03 -5.71287 1.37494 0
M  V30 11939 H 1193.56 -6.08386 0.519489 0
M  V30 11940 H 1194.97 -5.12124 2.57686 0
M  V30 11941 H 1193.37 -4.97583 3.35457 0
M  V30 11942 H 1194.44 -3.56384 3.28813 0
M  V30 11943 N 1195.78 -0.955326 -1.25345 0
M  V30 11944 C 1197.01 -0.627233 -1.97688 0
M  V30 11945 C 1197.43 0.793973 -1.70522 0
M  V30 11946 O 1196.79 1.537 -0.961556 0
M  V30 11947 C 1196.84 -0.892969 -3.49369 0
M  V30 11948 O 1195.94 0.0278871 -4.12391 0
M  V30 11949 H 1195.28 -0.238402 -0.619726 0
M  V30 11950 H 1197.81 -1.28211 -1.59446 0
M  V30 11951 H 1197.82 -0.819517 -3.99685 0
M  V30 11952 H 1196.5 -1.92879 -3.6847 0
M  V30 11953 H 1195.08 -0.0978295 -3.72772 0
M  V30 11954 N 1197.26 1.39987 -0.723979 0
M  V30 11955 C 1198.49 2.0556 -0.275634 0
M  V30 11956 C 1198.91 1.54207 1.07711 0
M  V30 11957 O 1198.27 0.681041 1.68022 0
M  V30 11958 C 1198.32 3.59551 -0.27485 0
M  V30 11959 O 1197.42 4.05685 0.741182 0
M  V30 11960 H 1196.76 0.651634 -0.12755 0
M  V30 11961 H 1199.29 1.79229 -0.986814 0
M  V30 11962 H 1199.3 4.07837 -0.115425 0
M  V30 11963 H 1197.98 3.96291 -1.26198 0
M  V30 11964 H 1196.55 3.6884 0.548795 0
M  V30 11965 N 1198.74 0.470782 1.50404 0
M  V30 11966 C 1199.99 -0.084316 2.02324 0
M  V30 11967 C 1200.31 -1.39749 1.35279 0
M  V30 11968 O 1199.57 -1.90037 0.467364 0
M  V30 11969 C 1199.87 -0.316419 3.55997 0
M  V30 11970 C 1199.53 0.915017 4.41518 0
M  V30 11971 C 1198.2 1.25265 4.6461 0
M  V30 11972 C 1200.55 1.73494 4.91477 0
M  V30 11973 C 1197.88 2.41027 5.34905 0
M  V30 11974 C 1200.23 2.88384 5.63043 0
M  V30 11975 C 1198.89 3.22562 5.84389 0
M  V30 11976 H 1198.16 -0.0308534 0.740357 0
M  V30 11977 H 1200.81 0.624799 1.81021 0
M  V30 11978 H 1199.11 -1.10778 3.75813 0
M  V30 11979 H 1200.81 -0.759882 3.93734 0
M  V30 11980 H 1197.4 0.641977 4.23765 0
M  V30 11981 H 1201.59 1.48728 4.73491 0
M  V30 11982 H 1196.84 2.67781 5.49639 0
M  V30 11983 H 1201.02 3.52264 6.00735 0
M  V30 11984 H 1198.64 4.1237 6.38635 0
M  V30 11985 N 1200.22 -1.56282 0.203376 0
M  V30 11986 C 1201.18 -2.18233 -0.700489 0
M  V30 11987 C 1202.18 -1.13908 -1.13497 0
M  V30 11988 O 1203.37 -1.39246 -1.04672 0
M  V30 11989 C 1200.5 -2.79107 -1.95735 0
M  V30 11990 H 1201.7 -2.99469 -0.160649 0
M  V30 11991 H 1199.25 -1.56232 -0.0462475 0
M  V30 11992 H 1199.98 -2.01691 -2.53951 0
M  V30 11993 H 1199.77 -3.55486 -1.65446 0
M  V30 11994 H 1201.26 -3.2665 -2.60172 0
M  V30 11995 N 1201.7 0.070167 -1.57444 0
M  V30 11996 C 1202.63 1.08351 -2.06839 0
M  V30 11997 C 1203.61 1.40269 -0.962224 0
M  V30 11998 O 1204.79 1.49867 -1.23505 0
M  V30 11999 C 1201.92 2.39649 -2.51368 0
M  V30 12000 C 1200.88 2.22079 -3.65875 0
M  V30 12001 C 1200.2 3.58776 -3.96464 0
M  V30 12002 C 1201.5 1.64069 -4.95862 0
M  V30 12003 H 1203.2 0.672465 -2.9175 0
M  V30 12004 H 1200.74 0.322027 -1.40353 0
M  V30 12005 H 1202.69 3.10833 -2.84537 0
M  V30 12006 H 1201.42 2.82736 -1.63487 0
M  V30 12007 H 1200.08 1.53337 -3.32992 0
M  V30 12008 H 1199.73 3.99436 -3.05712 0
M  V30 12009 H 1199.43 3.47859 -4.7357 0
M  V30 12010 H 1200.95 4.31387 -4.32131 0
M  V30 12011 H 1202.36 2.2512 -5.27251 0
M  V30 12012 H 1200.76 1.63843 -5.773 0
M  V30 12013 H 1201.83 0.60232 -4.81145 0
M  V30 12014 N 1203.17 1.53854 0.341593 0
M  V30 12015 C 1204.4 1.75447 1.10604 0
M  V30 12016 C 1204.82 0.493225 1.81518 0
M  V30 12017 O 1204.18 -0.554253 1.7262 0
M  V30 12018 C 1204.23 2.93593 2.09369 0
M  V30 12019 O 1203.33 2.63878 3.16926 0
M  V30 12020 H 1202.67 0.581923 0.319783 0
M  V30 12021 H 1205.2 2.00822 0.391388 0
M  V30 12022 H 1205.21 3.20437 2.52556 0
M  V30 12023 H 1203.89 3.85067 1.57151 0
M  V30 12024 H 1202.47 2.47929 2.78542 0
M  V30 12025 N 1204.65 -0.602709 1.4562 0
M  V30 12026 C 1205.9 -1.36159 1.51103 0
M  V30 12027 C 1206.25 -1.91794 0.152552 0
M  V30 12028 O 1205.55 -1.7239 -0.836201 0
M  V30 12029 C 1205.74 -2.52474 2.52966 0
M  V30 12030 C 1205.57 -2.0823 3.98585 0
M  V30 12031 C 1204.34 -1.94175 4.66502 0
M  V30 12032 C 1206.54 -1.65402 4.86977 0
M  V30 12033 N 1204.52 -1.43792 5.96822 0
M  V30 12034 C 1205.89 -1.26469 6.06964 0
M  V30 12035 C 1207.94 -1.53038 4.73797 0
M  V30 12036 C 1206.65 -0.764065 7.1523 0
M  V30 12037 C 1208.67 -1.04379 5.82116 0
M  V30 12038 C 1208.04 -0.664136 7.01262 0
M  V30 12039 H 1204.13 -0.491974 0.607853 0
M  V30 12040 H 1206.72 -0.688472 1.82121 0
M  V30 12041 H 1204.89 -3.17375 2.23891 0
M  V30 12042 H 1206.62 -3.19369 2.48567 0
M  V30 12043 H 1203.38 -2.1551 4.21726 0
M  V30 12044 H 1203.8 -1.2082 6.66132 0
M  V30 12045 H 1208.44 -1.81014 3.82091 0
M  V30 12046 H 1206.16 -0.471858 8.06721 0
M  V30 12047 H 1209.75 -0.952316 5.73953 0
M  V30 12048 H 1208.63 -0.293412 7.83651 0
M  V30 12049 N 1206.13 -1.32992 -0.845635 0
M  V30 12050 C 1207.55 -1.12179 -1.13526 0
M  V30 12051 C 1207.75 0.091795 -2.01291 0
M  V30 12052 O 1206.8 0.774051 -2.40343 0
M  V30 12053 C 1208.11 -2.40584 -1.80388 0
M  V30 12054 C 1209.66 -2.46427 -1.92984 0
M  V30 12055 C 1210.14 -3.74776 -2.63261 0
M  V30 12056 N 1211.63 -3.75809 -2.7078 0
M  V30 12057 C 1212.36 -4.71829 -3.2583 0
M  V30 12058 N 1211.86 -5.78219 -3.81621 0
M  V30 12059 N 1213.65 -4.59313 -3.24018 0
M  V30 12060 H 1205.8 -2.10786 -0.261369 0
M  V30 12061 H 1208.07 -0.931053 -0.17845 0
M  V30 12062 H 1207.77 -3.29357 -1.23357 0
M  V30 12063 H 1207.65 -2.52225 -2.80468 0
M  V30 12064 H 1210.03 -1.58108 -2.4917 0
M  V30 12065 H 1210.11 -2.38732 -0.918732 0
M  V30 12066 H 1209.76 -4.63474 -2.07736 0
M  V30 12067 H 1209.69 -3.79746 -3.6483 0
M  V30 12068 H 1212.18 -2.98916 -2.31209 0
M  V30 12069 H 1212.49 -6.47531 -4.2181 0
M  V30 12070 H 1210.84 -5.81962 -3.79927 0
M  V30 12071 H 1214.03 -3.75358 -2.79685 0
M  V30 12072 H 1214.2 -5.34316 -3.6662 0
M  V30 12073 N 1207.61 1.06304 -1.1635 0
M  V30 12074 C 1208.83 1.83338 -0.969639 0
M  V30 12075 C 1209.26 1.81945 0.477231 0
M  V30 12076 O 1208.62 1.22018 1.34094 0
M  V30 12077 C 1208.66 3.2785 -1.50155 0
M  V30 12078 O 1207.77 4.06281 -0.707805 0
M  V30 12079 H 1207.11 0.567293 -0.345072 0
M  V30 12080 H 1209.64 1.34033 -1.54584 0
M  V30 12081 H 1209.65 3.7867 -1.51898 0
M  V30 12082 H 1208.32 3.28179 -2.55483 0
M  V30 12083 H 1206.9 3.65055 -0.760872 0
M  V30 12084 N 1209.09 0.96196 1.24836 0
M  V30 12085 C 1210.32 0.637214 1.96528 0
M  V30 12086 C 1210.72 -0.79638 1.71623 0
M  V30 12087 O 1210.07 -1.54524 0.993372 0
M  V30 12088 C 1210.13 0.824972 3.49906 0
M  V30 12089 C 1209.79 2.23711 3.985 0
M  V30 12090 C 1210.79 3.21439 4.08623 0
M  V30 12091 C 1208.47 2.56327 4.31974 0
M  V30 12092 C 1210.47 4.49872 4.51546 0
M  V30 12093 C 1208.16 3.84987 4.74582 0
M  V30 12094 C 1209.15 4.81572 4.84332 0
M  V30 12095 O 1208.84 6.07938 5.25991 0
M  V30 12096 H 1208.57 0.237214 0.633013 0
M  V30 12097 H 1211.13 1.29081 1.59773 0
M  V30 12098 H 1209.36 0.114219 3.86531 0
M  V30 12099 H 1211.05 0.500179 4.02806 0
M  V30 12100 H 1211.81 2.97569 3.82985 0
M  V30 12101 H 1207.69 1.81872 4.23608 0
M  V30 12102 H 1211.24 5.25261 4.59071 0
M  V30 12103 H 1207.13 4.08661 4.99666 0
M  V30 12104 H 1207.9 6.11421 5.44157 0
M  V30 12105 N 1210.56 -1.39601 0.731392 0
M  V30 12106 C 1211.51 -2.30628 0.0890606 0
M  V30 12107 C 1212.48 -1.49025 -0.73353 0
M  V30 12108 O 1213.67 -1.77722 -0.694234 0
M  V30 12109 C 1210.81 -3.35339 -0.814956 0
M  V30 12110 C 1209.92 -4.31995 0.0198606 0
M  V30 12111 C 1209.05 -5.23774 -0.885095 0
M  V30 12112 C 1208.09 -6.12083 -0.045311 0
M  V30 12113 N 1207.23 -6.9623 -0.906002 0
M  V30 12114 H 1212.07 -2.84988 0.870958 0
M  V30 12115 H 1209.61 -1.40329 0.441166 0
M  V30 12116 H 1211.56 -3.94634 -1.3535 0
M  V30 12117 H 1210.19 -2.82443 -1.56287 0
M  V30 12118 H 1209.25 -3.74349 0.675778 0
M  V30 12119 H 1210.56 -4.94289 0.669346 0
M  V30 12120 H 1209.71 -5.88078 -1.49161 0
M  V30 12121 H 1208.45 -4.61794 -1.56837 0
M  V30 12122 H 1207.46 -5.46795 0.574028 0
M  V30 12123 H 1208.68 -6.76128 0.634692 0
M  V30 12124 H 1206.63 -6.36821 -1.57463 0
M  V30 12125 H 1206.54 -7.55352 -0.312914 0
M  V30 12126 H 1207.81 -7.64967 -1.49819 0
M  V30 12127 N 1212.04 -0.478751 -1.50152 0
M  V30 12128 C 1212.99 0.330224 -2.25596 0
M  V30 12129 C 1213.98 0.954871 -1.29503 0
M  V30 12130 O 1215.17 0.866153 -1.54359 0
M  V30 12131 C 1212.3 1.40719 -3.13134 0
M  V30 12132 C 1211.38 0.789896 -4.16679 0
M  V30 12133 N 1211.77 -0.094345 -5.05712 0
M  V30 12134 C 1210.07 1.05299 -4.33391 0
M  V30 12135 C 1210.77 -0.445458 -5.79992 0
M  V30 12136 N 1209.75 0.181237 -5.43298 0
M  V30 12137 H 1213.55 -0.350824 -2.91799 0
M  V30 12138 H 1211.07 -0.293386 -1.59728 0
M  V30 12139 H 1213.06 1.99999 -3.65795 0
M  V30 12140 H 1211.72 2.09015 -2.48481 0
M  V30 12141 H 1212.73 -0.463695 -5.1582 0
M  V30 12142 H 1209.41 1.73036 -3.79954 0
M  V30 12143 H 1210.8 -1.16754 -6.61678 0
M  V30 12144 N 1213.52 1.56172 -0.211661 0
M  V30 12145 C 1214.75 2.02428 0.427843 0
M  V30 12146 C 1215.16 1.09162 1.54043 0
M  V30 12147 O 1214.52 0.0994249 1.82229 0
M  V30 12148 C 1214.57 3.48279 0.968728 0
M  V30 12149 O 1214.29 4.37987 -0.0994841 0
M  V30 12150 C 1215.79 4.10132 1.68246 0
M  V30 12151 H 1213.01 0.662611 0.10577 0
M  V30 12152 H 1215.56 2.01897 -0.32522 0
M  V30 12153 H 1213.71 3.49456 1.6721 0
M  V30 12154 H 1214.13 5.23609 0.305558 0
M  V30 12155 H 1215.6 5.13985 2.01304 0
M  V30 12156 H 1216.08 3.54552 2.5921 0
M  V30 12157 H 1216.68 4.12775 1.02453 0
M  V30 12158 N 1215 -0.0618163 1.57479 0
M  V30 12159 C 1215.95 -1.09105 2.05424 0
M  V30 12160 C 1216.94 -1.3947 0.961479 0
M  V30 12161 O 1218.15 -1.3876 1.14655 0
M  V30 12162 H 1214.52 -0.36923 0.655113 0
M  V30 12163 H 1216.49 -0.66061 2.90996 0
M  V30 12164 C 1215.24 -2.39345 2.52209 0
M  V30 12165 H 1214.56 -2.16832 3.35893 0
M  V30 12166 H 1216 -3.09784 2.89499 0
M  V30 12167 C 1214.46 -3.06011 1.40922 0
M  V30 12168 O 1214.99 -3.94504 0.756921 0
M  V30 12169 N 1213.2 -2.66797 1.15186 0
M  V30 12170 H 1212.75 -1.94923 1.68412 0
M  V30 12171 H 1212.7 -3.11724 0.409324 0
M  V30 12172 N 1216.48 -1.54033 -0.333429 0
M  V30 12173 C 1217.7 -1.76031 -1.09672 0
M  V30 12174 C 1218.13 -0.502844 -1.81254 0
M  V30 12175 O 1217.48 0.54509 -1.72912 0
M  V30 12176 C 1217.53 -2.947 -2.07809 0
M  V30 12177 O 1216.64 -2.65555 -3.15522 0
M  V30 12178 H 1215.98 -0.583611 -0.316692 0
M  V30 12179 H 1218.51 -2.01026 -0.380732 0
M  V30 12180 H 1218.52 -3.21771 -2.50853 0
M  V30 12181 H 1217.19 -3.85895 -1.55106 0
M  V30 12182 H 1215.77 -2.49403 -2.77223 0
M  V30 12183 N 1217.95 0.594978 -1.45938 0
M  V30 12184 C 1218.89 1.71909 -1.51591 0
M  V30 12185 C 1219.9 1.57671 -0.405416 0
M  V30 12186 O 1221.09 1.65321 -0.673144 0
M  V30 12187 C 1218.19 3.10041 -1.3685 0
M  V30 12188 C 1217.36 3.50399 -2.61801 0
M  V30 12189 C 1216.42 4.67542 -2.41435 0
M  V30 12190 O 1215.45 4.74022 -3.15106 0
M  V30 12191 N 1216.65 5.6163 -1.46808 0
M  V30 12192 H 1219.41 1.67518 -2.48511 0
M  V30 12193 H 1216.97 0.78062 -1.41838 0
M  V30 12194 H 1218.97 3.86183 -1.21017 0
M  V30 12195 H 1217.54 3.08868 -0.481589 0
M  V30 12196 H 1216.76 2.64088 -2.92662 0
M  V30 12197 H 1218.04 3.74125 -3.44831 0
M  V30 12198 H 1217.44 5.5912 -0.860333 0
M  V30 12199 H 1216 6.37252 -1.36942 0
M  V30 12200 N 1219.43 1.33438 0.838571 0
M  V30 12201 C 1220.68 1.24912 1.59384 0
M  V30 12202 C 1221.01 -0.185017 1.93618 0
M  V30 12203 O 1220.26 -1.14229 1.58904 0
M  V30 12204 C 1220.56 2.07002 2.9135 0
M  V30 12205 C 1220.23 3.5619 2.76477 0
M  V30 12206 C 1218.89 3.96862 2.72129 0
M  V30 12207 C 1221.24 4.5099 2.61261 0
M  V30 12208 C 1218.57 5.30551 2.50464 0
M  V30 12209 C 1220.92 5.84841 2.4113 0
M  V30 12210 C 1219.59 6.24696 2.35183 0
M  V30 12211 H 1218.86 0.457084 0.583228 0
M  V30 12212 H 1221.5 1.65027 0.971506 0
M  V30 12213 H 1219.81 1.59665 3.57791 0
M  V30 12214 H 1221.5 1.97762 3.48843 0
M  V30 12215 H 1218.09 3.23896 2.80695 0
M  V30 12216 H 1222.28 4.20476 2.63655 0
M  V30 12217 H 1217.53 5.60468 2.44307 0
M  V30 12218 H 1221.71 6.57901 2.2834 0
M  V30 12219 H 1219.34 7.28225 2.18156 0
M  V30 12220 N 1220.91 -1.05686 1.16912 0
M  V30 12221 C 1221.84 -2.15268 0.904532 0
M  V30 12222 C 1222.82 -1.69424 -0.151548 0
M  V30 12223 O 1224.01 -1.942 -0.00235371 0
M  V30 12224 C 1221.14 -3.44853 0.411581 0
M  V30 12225 C 1220.09 -4.04237 1.40628 0
M  V30 12226 C 1219.42 -5.29105 0.771479 0
M  V30 12227 C 1220.72 -4.42303 2.77787 0
M  V30 12228 H 1222.41 -2.37659 1.82094 0
M  V30 12229 H 1219.96 -1.14217 0.876947 0
M  V30 12230 H 1221.91 -4.20857 0.213929 0
M  V30 12231 H 1220.63 -3.22099 -0.540352 0
M  V30 12232 H 1219.29 -3.30297 1.59058 0
M  V30 12233 H 1218.94 -5.02652 -0.187133 0
M  V30 12234 H 1218.64 -5.69797 1.43545 0
M  V30 12235 H 1220.16 -6.07801 0.583988 0
M  V30 12236 H 1221.58 -5.09362 2.63103 0
M  V30 12237 H 1219.98 -4.93997 3.40716 0
M  V30 12238 H 1221.05 -3.52877 3.32575 0
M  V30 12239 N 1222.39 -0.968567 -1.24324 0
M  V30 12240 C 1223.62 -0.647628 -1.96187 0
M  V30 12241 C 1224.03 0.787267 -1.72043 0
M  V30 12242 O 1223.37 1.53996 -1.00155 0
M  V30 12243 C 1223.43 -0.843517 -3.49464 0
M  V30 12244 C 1223.1 -2.25822 -3.97308 0
M  V30 12245 C 1224.09 -3.23602 -4.06913 0
M  V30 12246 C 1221.78 -2.58614 -4.30609 0
M  V30 12247 C 1223.77 -4.5226 -4.49154 0
M  V30 12248 C 1221.46 -3.87499 -4.72534 0
M  V30 12249 C 1222.46 -4.84134 -4.81771 0
M  V30 12250 O 1222.14 -6.10719 -5.2276 0
M  V30 12251 H 1221.88 -0.240568 -0.631746 0
M  V30 12252 H 1224.43 -1.29926 -1.59086 0
M  V30 12253 H 1222.66 -0.134716 -3.86465 0
M  V30 12254 H 1224.35 -0.521533 -4.02536 0
M  V30 12255 H 1225.12 -2.99596 -3.81402 0
M  V30 12256 H 1220.99 -1.84116 -4.22637 0
M  V30 12257 H 1224.54 -5.27689 -4.56279 0
M  V30 12258 H 1220.44 -4.11305 -4.97492 0
M  V30 12259 H 1221.2 -6.14298 -5.40906 0
M  V30 12260 N 1223.87 1.39211 -0.738786 0
M  V30 12261 C 1225.11 2.00436 -0.28839 0
M  V30 12262 C 1225.44 1.58626 1.12552 0
M  V30 12263 O 1224.7 0.808154 1.78234 0
M  V30 12264 C 1225 3.55758 -0.342224 0
M  V30 12265 C 1224.66 4.1723 -1.70968 0
M  V30 12266 C 1223.32 4.33734 -2.08395 0
M  V30 12267 C 1225.68 4.51294 -2.60736 0
M  V30 12268 C 1223 4.81592 -3.35091 0
M  V30 12269 C 1225.36 5.00562 -3.86808 0
M  V30 12270 C 1224.02 5.15274 -4.24322 0
M  V30 12271 H 1223.29 0.733447 -0.105529 0
M  V30 12272 H 1225.94 1.66481 -0.94637 0
M  V30 12273 H 1224.24 3.8976 0.399331 0
M  V30 12274 H 1225.94 4.00993 0.0244582 0
M  V30 12275 H 1222.53 4.04788 -1.4087 0
M  V30 12276 H 1226.71 4.38158 -2.3309 0
M  V30 12277 H 1221.97 4.91167 -3.64095 0
M  V30 12278 H 1226.14 5.25892 -4.5652 0
M  V30 12279 H 1223.77 5.52119 -5.2256 0
M  V30 12280 N 1225.34 0.486708 1.49896 0
M  V30 12281 C 1226.31 -0.288126 2.27382 0
M  V30 12282 C 1227.31 -0.906675 1.32801 0
M  V30 12283 O 1228.5 -0.773425 1.56089 0
M  V30 12284 C 1225.63 -1.41194 3.10285 0
M  V30 12285 H 1226.82 0.391618 2.97332 0
M  V30 12286 H 1224.38 0.24123 1.54427 0
M  V30 12287 H 1225.11 -2.12627 2.44868 0
M  V30 12288 H 1224.9 -0.974033 3.79809 0
M  V30 12289 H 1226.39 -1.95812 3.68846 0
M  V30 12290 N 1226.82 -1.56058 0.219941 0
M  V30 12291 C 1228.23 -1.84462 -0.288203 0
M  V30 12292 C 1228.59 -1.14128 -1.59591 0
M  V30 12293 O 1227.71 -0.410411 -2.12473 0
M  V30 12294 C 1228.31 -3.34634 -0.529689 0
M  V30 12295 C 1226.86 -3.63361 -0.982145 0
M  V30 12296 C 1226.01 -2.77265 -0.0443292 0
M  V30 12297 H 1228.96 -1.52387 0.44317 0
M  V30 12298 H 1228.98 -3.54752 -1.3759 0
M  V30 12299 H 1228.5 -3.85796 0.422243 0
M  V30 12300 H 1226.6 -3.17653 -1.94749 0
M  V30 12301 H 1226.71 -4.71361 -0.857668 0
M  V30 12302 H 1225.07 -2.48672 -0.550825 0
M  V30 12303 H 1225.86 -3.31225 0.902491 0
M  V30 12304 N 1228.3 0.053464 -1.57509 0
M  V30 12305 C 1229.58 0.783141 -1.79238 0
M  V30 12306 C 1229.96 1.94855 -0.812069 0
M  V30 12307 O 1229.31 2.28 0.151006 0
M  V30 12308 C 1229.52 1.239 -3.26266 0
M  V30 12309 C 1230.86 1.66492 -3.90596 0
M  V30 12310 O 1231.89 1.33421 -3.30269 0
M  V30 12311 O 1230.75 2.27785 -4.96766 0
M  V30 12312 H 1227.84 0.376696 -0.736226 0
M  V30 12313 H 1230.39 0.0321229 -1.6967 0
M  V30 12314 H 1229.16 0.405948 -3.89189 0
M  V30 12315 H 1228.78 2.05078 -3.4063 0
M  V30 12316 N 1229.78 1.54207 0.325255 0
M  V30 12317 C 1230.71 1.86467 1.40543 0
M  V30 12318 C 1231.69 0.721324 1.54048 0
M  V30 12319 O 1232.88 0.974905 1.67956 0
M  V30 12320 C 1230.01 2.09052 2.77335 0
M  V30 12321 C 1228.96 3.24893 2.78619 0
M  V30 12322 C 1228.29 3.32846 4.1847 0
M  V30 12323 C 1229.59 4.62582 2.42518 0
M  V30 12324 H 1231.28 2.76932 1.13794 0
M  V30 12325 H 1228.83 1.33248 0.545971 0
M  V30 12326 H 1230.78 2.30204 3.52964 0
M  V30 12327 H 1229.5 1.15335 3.05558 0
M  V30 12328 H 1228.16 3.03625 2.05444 0
M  V30 12329 H 1227.81 2.3669 4.43832 0
M  V30 12330 H 1227.51 4.10701 4.20237 0
M  V30 12331 H 1229.03 3.56231 4.95915 0
M  V30 12332 H 1230.45 4.83627 3.07861 0
M  V30 12333 H 1228.84 5.42974 2.55538 0
M  V30 12334 H 1229.91 4.64946 1.3767 0
M  V30 12335 N 1231.26 -0.58723 1.46251 0
M  V30 12336 C 1232.5 -1.3476 1.51551 0
M  V30 12337 C 1232.84 -1.93499 0.16483 0
M  V30 12338 O 1232.11 -1.7622 -0.823207 0
M  V30 12339 C 1232.39 -2.48033 2.61059 0
M  V30 12340 C 1232.25 -1.94358 4.05642 0
M  V30 12341 C 1233.57 -3.50096 2.66685 0
M  V30 12342 H 1230.69 -0.48863 0.551733 0
M  V30 12343 H 1233.33 -0.660097 1.78165 0
M  V30 12344 H 1231.48 -3.06679 2.38496 0
M  V30 12345 H 1233.15 -1.40204 4.39478 0
M  V30 12346 H 1231.39 -1.25217 4.15335 0
M  V30 12347 H 1232.06 -2.76105 4.77986 0
M  V30 12348 H 1234.54 -3.01324 2.86955 0
M  V30 12349 H 1233.42 -4.26817 3.45135 0
M  V30 12350 H 1233.68 -4.07032 1.7256 0
M  V30 12351 N 1232.74 -1.33881 -0.831482 0
M  V30 12352 C 1233.98 -1.25755 -1.58719 0
M  V30 12353 C 1234.31 0.174746 -1.93713 0
M  V30 12354 O 1233.57 1.13384 -1.59507 0
M  V30 12355 C 1233.86 -2.08544 -2.90249 0
M  V30 12356 C 1233.53 -3.57651 -2.74585 0
M  V30 12357 C 1232.19 -3.983 -2.7002 0
M  V30 12358 C 1234.54 -4.52369 -2.58866 0
M  V30 12359 C 1231.87 -5.31872 -2.47647 0
M  V30 12360 C 1234.22 -5.86112 -2.38025 0
M  V30 12361 C 1232.89 -6.25934 -2.31867 0
M  V30 12362 H 1232.16 -0.460171 -0.580796 0
M  V30 12363 H 1234.81 -1.6554 -0.96274 0
M  V30 12364 H 1233.11 -1.6156 -3.56939 0
M  V30 12365 H 1234.81 -1.99609 -3.47789 0
M  V30 12366 H 1231.4 -3.2538 -2.78973 0
M  V30 12367 H 1235.58 -4.21868 -2.61421 0
M  V30 12368 H 1230.84 -5.61756 -2.41331 0
M  V30 12369 H 1235.01 -6.59103 -2.24847 0
M  V30 12370 H 1232.64 -7.29372 -2.14291 0
M  V30 12371 N 1234.21 1.05064 -1.1747 0
M  V30 12372 C 1235.16 2.14948 -0.888815 0
M  V30 12373 C 1236.16 1.68761 0.147038 0
M  V30 12374 O 1237.36 1.8 -0.000164278 0
M  V30 12375 H 1233.74 0.701898 -0.269894 0
M  V30 12376 H 1235.71 2.36265 -1.82268 0
M  V30 12377 C 1234.46 3.45154 -0.420006 0
M  V30 12378 H 1233.78 3.81096 -1.20854 0
M  V30 12379 H 1235.22 4.23209 -0.258866 0
M  V30 12380 C 1233.68 3.25671 0.862551 0
M  V30 12381 O 1234.21 3.5235 1.92906 0
M  V30 12382 N 1232.41 2.79048 0.81121 0
M  V30 12383 H 1231.96 2.57537 -0.0569025 0
M  V30 12384 H 1231.92 2.66392 1.66981 0
M  V30 12385 N 1235.69 0.975146 1.23809 0
M  V30 12386 C 1236.6 0.51917 2.28783 0
M  V30 12387 C 1237.62 -0.423487 1.68768 0
M  V30 12388 O 1238.79 -0.294699 1.99232 0
M  V30 12389 C 1235.86 -0.176229 3.46252 0
M  V30 12390 C 1234.92 0.807177 4.21643 0
M  V30 12391 C 1234.15 0.144869 5.33503 0
M  V30 12392 O 1234.38 -1.06522 5.60365 0
M  V30 12393 O 1233.31 0.84079 5.95999 0
M  V30 12394 H 1237.14 1.39204 2.69919 0
M  V30 12395 H 1234.72 0.74253 1.29641 0
M  V30 12396 H 1236.6 -0.566547 4.17574 0
M  V30 12397 H 1235.28 -1.02394 3.07078 0
M  V30 12398 H 1234.18 1.2481 3.52666 0
M  V30 12399 H 1235.52 1.62354 4.64653 0
M  V30 12400 N 1237.17 -1.38817 0.746158 0
M  V30 12401 C 1238.08 -2.34316 0.115386 0
M  V30 12402 C 1239.1 -1.58892 -0.709179 0
M  V30 12403 O 1240.27 -1.91126 -0.635059 0
M  V30 12404 C 1237.34 -3.37977 -0.772821 0
M  V30 12405 C 1236.4 -4.2925 0.0652679 0
M  V30 12406 C 1235.63 -5.2796 -0.78064 0
M  V30 12407 O 1235.85 -5.33474 -2.01896 0
M  V30 12408 O 1234.79 -6.01556 -0.20338 0
M  V30 12409 H 1238.61 -2.89937 0.903887 0
M  V30 12410 H 1236.2 -1.40536 0.506958 0
M  V30 12411 H 1238.08 -4.01468 -1.28068 0
M  V30 12412 H 1236.76 -2.84723 -1.53994 0
M  V30 12413 H 1235.66 -3.68945 0.61891 0
M  V30 12414 H 1237 -4.85739 0.794871 0
M  V30 12415 N 1238.65 -0.49465 -1.49636 0
M  V30 12416 C 1239.59 0.287153 -2.29007 0
M  V30 12417 C 1240.56 0.966099 -1.35114 0
M  V30 12418 O 1241.75 0.973991 -1.64067 0
M  V30 12419 C 1238.89 1.34941 -3.17624 0
M  V30 12420 C 1238 0.682879 -4.26569 0
M  V30 12421 C 1237.14 1.72503 -5.0241 0
M  V30 12422 C 1236.18 1.04003 -6.032 0
M  V30 12423 N 1235.31 2.0261 -6.7223 0
M  V30 12424 H 1240.15 -0.395941 -2.95358 0
M  V30 12425 H 1237.69 -0.207103 -1.45635 0
M  V30 12426 H 1239.65 1.9772 -3.67372 0
M  V30 12427 H 1238.28 2.00135 -2.5327 0
M  V30 12428 H 1237.33 -0.0580477 -3.80356 0
M  V30 12429 H 1238.64 0.143334 -4.98594 0
M  V30 12430 H 1237.8 2.42804 -5.55996 0
M  V30 12431 H 1236.54 2.29843 -4.30144 0
M  V30 12432 H 1235.54 0.322765 -5.48852 0
M  V30 12433 H 1236.77 0.473219 -6.77449 0
M  V30 12434 H 1234.71 2.58922 -6.0274 0
M  V30 12435 H 1234.63 1.53704 -7.4021 0
M  V30 12436 H 1235.9 2.72218 -7.30423 0
M  V30 12437 N 1240.13 1.55939 -0.228214 0
M  V30 12438 C 1241.06 2.16566 0.719321 0
M  V30 12439 C 1242.04 1.11204 1.18627 0
M  V30 12440 O 1243.22 1.39495 1.2678 0
M  V30 12441 C 1240.35 2.75132 1.97536 0
M  V30 12442 C 1239.39 3.93381 1.64783 0
M  V30 12443 S 1240.23 5.29982 0.76678 0
M  V30 12444 C 1241.38 5.91989 2.03223 0
M  V30 12445 H 1241.62 2.96599 0.204035 0
M  V30 12446 H 1239.15 1.54395 -0.0128406 0
M  V30 12447 H 1241.11 3.09512 2.69652 0
M  V30 12448 H 1239.77 1.95079 2.46176 0
M  V30 12449 H 1238.96 4.32884 2.58122 0
M  V30 12450 H 1238.56 3.60181 1.00724 0
M  V30 12451 H 1240.85 6.08368 2.98152 0
M  V30 12452 H 1241.8 6.87858 1.68099 0
M  V30 12453 H 1242.21 5.20883 2.1758 0
M  V30 12454 N 1241.6 -0.0451101 1.57535 0
M  V30 12455 C 1242.55 -1.05817 2.01958 0
M  V30 12456 C 1243.54 -1.32963 0.906077 0
M  V30 12457 O 1244.73 -1.32816 1.16999 0
M  V30 12458 C 1241.86 -2.36414 2.48924 0
M  V30 12459 C 1240.95 -2.12428 3.67063 0
M  V30 12460 N 1241.34 -1.58448 4.80341 0
M  V30 12461 C 1239.63 -2.42785 3.74128 0
M  V30 12462 C 1240.34 -1.49896 5.62055 0
M  V30 12463 N 1239.31 -1.96892 5.0669 0
M  V30 12464 H 1243.11 -0.634569 2.86968 0
M  V30 12465 H 1240.63 -0.251719 1.60437 0
M  V30 12466 H 1242.62 -3.09781 2.79001 0
M  V30 12467 H 1241.28 -2.79467 1.65313 0
M  V30 12468 H 1242.3 -1.26939 5.02102 0
M  V30 12469 H 1238.97 -2.89022 3.01285 0
M  V30 12470 H 1240.36 -1.08788 6.63035 0
M  V30 12471 N 1243.08 -1.54377 -0.317073 0
M  V30 12472 C 1244.01 -1.80563 -1.41172 0
M  V30 12473 C 1245.03 -0.687865 -1.47554 0
M  V30 12474 O 1246.22 -0.965084 -1.50161 0
M  V30 12475 C 1243.32 -1.9142 -2.79663 0
M  V30 12476 C 1242.49 -3.21655 -2.96407 0
M  V30 12477 C 1241.55 -3.23131 -4.15298 0
M  V30 12478 O 1240.57 -3.96741 -4.08149 0
M  V30 12479 N 1241.78 -2.47376 -5.25153 0
M  V30 12480 H 1244.54 -2.75032 -1.1907 0
M  V30 12481 H 1242.1 -1.53754 -0.507086 0
M  V30 12482 H 1244.09 -1.89828 -3.57418 0
M  V30 12483 H 1242.66 -1.0402 -2.94786 0
M  V30 12484 H 1241.88 -3.36154 -2.05899 0
M  V30 12485 H 1243.17 -4.07629 -3.04494 0
M  V30 12486 H 1242.57 -1.87173 -5.33838 0
M  V30 12487 H 1241.13 -2.51555 -6.01301 0
M  V30 12488 N 1244.56 0.579466 -1.4656 0
M  V30 12489 C 1245.79 1.36837 -1.55854 0
M  V30 12490 C 1246.21 1.87019 -0.20141 0
M  V30 12491 O 1245.57 1.61746 0.81901 0
M  V30 12492 C 1245.62 2.52965 -2.56985 0
M  V30 12493 O 1244.72 3.54505 -2.10713 0
M  V30 12494 H 1244.06 0.407379 -0.524345 0
M  V30 12495 H 1246.59 0.702558 -1.9216 0
M  V30 12496 H 1246.6 2.99838 -2.76697 0
M  V30 12497 H 1245.28 2.15793 -3.55536 0
M  V30 12498 H 1243.85 3.14089 -2.01003 0
M  V30 12499 N 1246.04 1.3432 0.824371 0
M  V30 12500 C 1247 1.25672 1.91675 0
M  V30 12501 C 1248 0.172269 1.59875 0
M  V30 12502 O 1249.19 0.424794 1.68941 0
M  V30 12503 C 1246.32 0.939928 3.27686 0
M  V30 12504 H 1247.52 2.22785 2.00766 0
M  V30 12505 H 1245.07 1.18587 1.01817 0
M  V30 12506 H 1245.8 -0.0280898 3.24288 0
M  V30 12507 H 1245.59 1.72432 3.5215 0
M  V30 12508 H 1247.08 0.904553 4.07686 0
M  V30 12509 N 1247.52 -1.0444 1.18026 0
M  V30 12510 C 1248.45 -2.11888 0.847277 0
M  V30 12511 C 1249.43 -1.61496 -0.189171 0
M  V30 12512 O 1250.61 -1.88374 -0.0689859 0
M  V30 12513 C 1247.74 -3.3766 0.26525 0
M  V30 12514 C 1246.78 -4.06893 1.27829 0
M  V30 12515 S 1247.62 -4.54445 2.83267 0
M  V30 12516 C 1248.77 -5.83454 2.26565 0
M  V30 12517 H 1249.01 -2.39806 1.75727 0
M  V30 12518 H 1246.54 -1.17152 1.00572 0
M  V30 12519 H 1248.5 -4.1045 -0.0640578 0
M  V30 12520 H 1247.16 -3.07864 -0.622806 0
M  V30 12521 H 1246.35 -4.97287 0.819849 0
M  V30 12522 H 1245.95 -3.40203 1.55364 0
M  V30 12523 H 1248.25 -6.57203 1.64591 0
M  V30 12524 H 1249.19 -6.34056 3.15244 0
M  V30 12525 H 1249.6 -5.3838 1.69728 0
M  V30 12526 N 1248.99 -0.981699 -1.2329 0
M  V30 12527 C 1250.22 -0.668399 -1.95489 0
M  V30 12528 C 1250.63 0.768976 -1.72868 0
M  V30 12529 O 1249.98 1.52925 -1.01783 0
M  V30 12530 C 1250.04 -0.880535 -3.4855 0
M  V30 12531 C 1249.7 -2.30023 -3.9489 0
M  V30 12532 C 1250.7 -3.27899 -4.03458 0
M  V30 12533 C 1248.38 -2.63167 -4.27842 0
M  V30 12534 C 1250.38 -4.56999 -4.44332 0
M  V30 12535 C 1248.06 -3.92489 -4.68397 0
M  V30 12536 C 1249.06 -4.89216 -4.76609 0
M  V30 12537 O 1248.75 -6.16229 -5.16253 0
M  V30 12538 H 1248.48 -0.247255 -0.629159 0
M  V30 12539 H 1251.04 -1.31606 -1.57699 0
M  V30 12540 H 1249.27 -0.175698 -3.86301 0
M  V30 12541 H 1250.96 -0.564198 -4.0196 0
M  V30 12542 H 1251.72 -3.03624 -3.78203 0
M  V30 12543 H 1247.6 -1.88588 -4.20661 0
M  V30 12544 H 1251.14 -5.32498 -4.50656 0
M  V30 12545 H 1247.04 -4.16558 -4.93102 0
M  V30 12546 H 1247.81 -6.20001 -5.34361 0
M  V30 12547 N 1250.47 1.3842 -0.753509 0
M  V30 12548 C 1251.38 2.34252 -0.127811 0
M  V30 12549 C 1252.4 1.59266 0.700743 0
M  V30 12550 O 1253.57 1.9146 0.624914 0
M  V30 12551 C 1250.64 3.38382 0.754886 0
M  V30 12552 C 1249.7 4.2921 -0.0880312 0
M  V30 12553 C 1248.93 5.28367 0.75263 0
M  V30 12554 O 1249.16 5.34537 1.99064 0
M  V30 12555 O 1248.09 6.01656 0.171475 0
M  V30 12556 H 1251.92 2.89454 -0.91925 0
M  V30 12557 H 1249.5 1.40265 -0.514404 0
M  V30 12558 H 1251.38 4.02141 1.25938 0
M  V30 12559 H 1250.06 2.85536 1.52482 0
M  V30 12560 H 1248.97 3.68611 -0.638468 0
M  V30 12561 H 1250.3 4.85311 -0.82062 0
M  V30 12562 N 1251.95 0.502579 1.49372 0
M  V30 12563 C 1252.88 -0.264307 2.31999 0
M  V30 12564 C 1253.86 -0.96107 1.40348 0
M  V30 12565 O 1255.05 -0.952167 1.69255 0
M  V30 12566 C 1252.18 -1.32822 3.20898 0
M  V30 12567 C 1251.13 -0.751236 4.21355 0
M  V30 12568 C 1250.46 -1.91578 4.99201 0
M  V30 12569 C 1251.76 0.258764 5.21659 0
M  V30 12570 H 1253.45 0.425391 2.96363 0
M  V30 12571 H 1251 0.206022 1.42519 0
M  V30 12572 H 1252.95 -1.87245 3.77515 0
M  V30 12573 H 1251.67 -2.04712 2.54481 0
M  V30 12574 H 1250.33 -0.228743 3.65886 0
M  V30 12575 H 1249.98 -2.62241 4.2923 0
M  V30 12576 H 1249.68 -1.53578 5.67175 0
M  V30 12577 H 1251.2 -2.46432 5.58663 0
M  V30 12578 H 1252.62 -0.197385 5.7296 0
M  V30 12579 H 1251.02 0.554681 5.97531 0
M  V30 12580 H 1252.09 1.1741 4.70471 0
M  V30 12581 N 1253.43 -1.55816 0.23648 0
M  V30 12582 C 1254.67 -2.0059 -0.39281 0
M  V30 12583 C 1255.03 -1.12092 -1.55883 0
M  V30 12584 O 1256.23 -1.46277 -2.25514 0
M  V30 12585 C 1254.5 -3.48281 -0.80219 0
M  V30 12586 S 1256.06 -4.15069 -1.42348 0
M  V30 12587 H 1252.88 -0.700093 -0.124057 0
M  V30 12588 H 1255.48 -1.92355 0.349272 0
M  V30 12589 H 1254.19 -4.10362 0.0558941 0
M  V30 12590 H 1253.72 -3.60421 -1.57671 0
M  V30 12591 H 1255.73 -4.15493 -2.71257 0
M  V30 12592 N 1254.91 0.036755 -1.57557 0
M  V30 12593 C 1255.84 1.06718 -2.0284 0
M  V30 12594 C 1256.85 1.32926 -0.939917 0
M  V30 12595 O 1258.04 1.30549 -1.21734 0
M  V30 12596 C 1255.14 2.41054 -2.38214 0
M  V30 12597 C 1254.31 2.3431 -3.69347 0
M  V30 12598 C 1253.37 3.51034 -3.91997 0
M  V30 12599 O 1252.4 3.30875 -4.63152 0
M  V30 12600 N 1253.6 4.72634 -3.37042 0
M  V30 12601 H 1256.37 0.681275 -2.91854 0
M  V30 12602 H 1253.93 0.224836 -1.60331 0
M  V30 12603 H 1255.92 3.17847 -2.5051 0
M  V30 12604 H 1254.49 2.71517 -1.5491 0
M  V30 12605 H 1253.71 1.42668 -3.67477 0
M  V30 12606 H 1255 2.2694 -4.55385 0
M  V30 12607 H 1254.39 4.91914 -2.79352 0
M  V30 12608 H 1252.95 5.46818 -3.5473 0
M  V30 12609 N 1256.39 1.54543 0.308881 0
M  V30 12610 C 1257.63 1.73107 1.043 0
M  V30 12611 C 1257.95 0.515481 1.88063 0
M  V30 12612 O 1257.22 -0.47036 1.90169 0
M  V30 12613 H 1255.8 0.638289 0.388068 0
M  V30 12614 H 1258.47 1.9188 0.341769 0
M  V30 12615 H 1257.56 2.61697 1.70063 0
M  V30 12616 N 1257.86 -0.571685 1.46866 0
M  V30 12617 C 1258.8 -1.69502 1.52788 0
M  V30 12618 C 1259.77 -1.58071 0.381109 0
M  V30 12619 O 1260.96 -1.79132 0.586844 0
M  V30 12620 C 1258.09 -3.07642 1.41682 0
M  V30 12621 C 1257.13 -3.37562 2.6068 0
M  V30 12622 S 1257.96 -3.28413 4.22971 0
M  V30 12623 C 1259.12 -4.69073 4.14393 0
M  V30 12624 H 1259.35 -1.64221 2.47828 0
M  V30 12625 H 1256.89 -0.751334 1.34886 0
M  V30 12626 H 1258.84 -3.8733 1.35962 0
M  V30 12627 H 1257.51 -3.10403 0.480517 0
M  V30 12628 H 1256.7 -4.38233 2.48933 0
M  V30 12629 H 1256.3 -2.65464 2.63448 0
M  V30 12630 H 1258.59 -5.59706 3.81754 0
M  V30 12631 H 1259.54 -4.85877 5.15101 0
M  V30 12632 H 1259.94 -4.4644 3.45473 0
M  V30 12633 N 1259.34 -1.34755 -0.817236 0
M  V30 12634 C 1260.29 -1.23351 -1.91751 0
M  V30 12635 C 1261.28 -0.131215 -1.60364 0
M  V30 12636 O 1262.47 -0.361425 -1.73271 0
M  V30 12637 C 1259.6 -0.996932 -3.28506 0
M  V30 12638 C 1258.68 -2.14265 -3.65993 0
M  V30 12639 N 1259.07 -3.39424 -3.75 0
M  V30 12640 C 1257.37 -2.05416 -3.95879 0
M  V30 12641 C 1258.07 -4.14701 -4.07919 0
M  V30 12642 N 1257.05 -3.43349 -4.21441 0
M  V30 12643 H 1260.85 -2.18191 -1.96901 0
M  V30 12644 H 1258.36 -1.27075 -1.01122 0
M  V30 12645 H 1260.36 -0.89613 -4.07155 0
M  V30 12646 H 1259.02 -0.0572789 -3.24649 0
M  V30 12647 H 1260.03 -3.73907 -3.58349 0
M  V30 12648 H 1256.71 -1.19242 -4.0011 0
M  V30 12649 H 1258.1 -5.22808 -4.22044 0
M  V30 12650 N 1260.82 1.03812 -1.18578 0
M  V30 12651 C 1261.75 2.11928 -0.872871 0
M  V30 12652 C 1262.76 1.62275 0.130592 0
M  V30 12653 O 1263.95 1.78233 -0.0975869 0
M  V30 12654 C 1261.05 3.37714 -0.283321 0
M  V30 12655 C 1260.23 4.16591 -1.33307 0
M  V30 12656 C 1259.29 5.20701 -0.758746 0
M  V30 12657 O 1258.31 5.50837 -1.43412 0
M  V30 12658 N 1259.51 5.78811 0.442505 0
M  V30 12659 H 1262.28 2.39364 -1.80346 0
M  V30 12660 H 1259.84 1.20027 -1.08652 0
M  V30 12661 H 1261.83 4.04538 0.114524 0
M  V30 12662 H 1260.4 3.07699 0.551347 0
M  V30 12663 H 1259.62 3.45051 -1.90613 0
M  V30 12664 H 1260.91 4.66082 -2.04071 0
M  V30 12665 H 1260.31 5.56631 1.00889 0
M  V30 12666 H 1258.86 6.47089 0.78224 0
M  V30 12667 N 1262.3 0.988223 1.22768 0
M  V30 12668 C 1263.55 0.656941 1.90702 0
M  V30 12669 C 1263.86 -0.814058 1.77855 0
M  V30 12670 O 1265.07 -1.25673 2.40663 0
M  V30 12671 C 1263.52 1.12445 3.41883 0
M  V30 12672 C 1263.13 2.62034 3.63376 0
M  V30 12673 C 1264.87 0.867277 4.15546 0
M  V30 12674 C 1262.78 3.02412 5.08233 0
M  V30 12675 H 1261.71 0.242012 0.714105 0
M  V30 12676 H 1264.36 1.19716 1.39069 0
M  V30 12677 H 1262.74 0.512386 3.92671 0
M  V30 12678 H 1263.92 3.28546 3.23101 0
M  V30 12679 H 1262.23 2.85583 3.03037 0
M  V30 12680 H 1264.83 1.14471 5.22303 0
M  V30 12681 H 1265.17 -0.196611 4.15835 0
M  V30 12682 H 1265.71 1.4413 3.70771 0
M  V30 12683 H 1262.44 4.07957 5.1308 0
M  V30 12684 H 1261.96 2.406 5.49429 0
M  V30 12685 H 1263.64 2.93452 5.76624 0
M  V30 12686 N 1263.78 -1.38018 0.760839 0
M  V30 12687 C 1265 -2.04757 0.330038 0
M  V30 12688 C 1265.43 -1.57009 -1.03585 0
M  V30 12689 O 1264.78 -0.725349 -1.66158 0
M  V30 12690 C 1264.83 -3.58696 0.370082 0
M  V30 12691 O 1263.94 -4.07507 -0.633361 0
M  V30 12692 H 1263.28 -0.648023 0.144782 0
M  V30 12693 H 1265.81 -1.7655 1.03399 0
M  V30 12694 H 1265.82 -4.07387 0.223515 0
M  V30 12695 H 1264.49 -3.92806 1.36661 0
M  V30 12696 H 1263.07 -3.70165 -0.45081 0
M  V30 12697 N 1265.25 -0.510493 -1.49103 0
M  V30 12698 C 1266.18 0.251999 -2.32136 0
M  V30 12699 C 1267.16 0.953613 -1.40855 0
M  V30 12700 O 1268.35 0.943178 -1.69758 0
M  V30 12701 C 1265.48 1.31118 -3.21598 0
M  V30 12702 C 1264.43 0.72888 -4.21748 0
M  V30 12703 C 1263.76 1.88928 -5.0021 0
M  V30 12704 C 1265.06 -0.286425 -5.21514 0
M  V30 12705 H 1266.75 -0.441102 -2.96133 0
M  V30 12706 H 1264.3 -0.213577 -1.42407 0
M  V30 12707 H 1266.25 1.8524 -3.78503 0
M  V30 12708 H 1264.98 2.0336 -2.55563 0
M  V30 12709 H 1263.64 0.209336 -3.66002 0
M  V30 12710 H 1263.28 2.59961 -4.30615 0
M  V30 12711 H 1262.98 1.50568 -5.67981 0
M  V30 12712 H 1264.51 2.43465 -5.59962 0
M  V30 12713 H 1265.92 0.166997 -5.73057 0
M  V30 12714 H 1264.32 -0.586361 -5.97228 0
M  V30 12715 H 1265.39 -1.19904 -4.69842 0
M  V30 12716 N 1266.73 1.55688 -0.24474 0
M  V30 12717 C 1267.66 2.18616 0.68844 0
M  V30 12718 C 1268.68 1.16185 1.14039 0
M  V30 12719 O 1269.87 1.43059 1.06754 0
M  V30 12720 C 1266.97 2.77375 1.94721 0
M  V30 12721 C 1266.14 4.05204 1.64706 0
M  V30 12722 C 1265.2 4.48302 2.75521 0
M  V30 12723 O 1264.22 5.14723 2.42999 0
M  V30 12724 N 1265.43 4.15907 4.04971 0
M  V30 12725 H 1268.19 2.99324 0.150018 0
M  V30 12726 H 1265.75 1.61771 -0.0646183 0
M  V30 12727 H 1267.74 3.03165 2.68091 0
M  V30 12728 H 1266.31 2.00837 2.39548 0
M  V30 12729 H 1265.53 3.87026 0.74865 0
M  V30 12730 H 1266.82 4.8855 1.42114 0
M  V30 12731 H 1266.22 3.62579 4.34227 0
M  V30 12732 H 1264.78 4.46538 4.74813 0
M  V30 12733 N 1268.21 -0.0283989 1.57574 0
M  V30 12734 C 1269.46 -0.719077 1.89303 0
M  V30 12735 C 1269.78 -1.75325 0.84211 0
M  V30 12736 O 1269.04 -1.95071 -0.15683 0
M  V30 12737 C 1269.34 -1.4247 3.27776 0
M  V30 12738 C 1269 -0.526442 4.47816 0
M  V30 12739 C 1267.67 -0.279038 4.8039 0
M  V30 12740 C 1270.02 0.0937038 5.21116 0
M  V30 12741 C 1267.35 0.597277 5.83652 0
M  V30 12742 C 1269.7 0.957725 6.25308 0
M  V30 12743 C 1268.36 1.21458 6.56357 0
M  V30 12744 H 1267.63 -0.263129 0.692708 0
M  V30 12745 H 1270.28 0.0210252 1.91488 0
M  V30 12746 H 1268.58 -2.23813 3.21582 0
M  V30 12747 H 1270.28 -1.96466 3.49574 0
M  V30 12748 H 1266.87 -0.729426 4.22347 0
M  V30 12749 H 1271.06 -0.084469 4.96228 0
M  V30 12750 H 1266.31 0.804582 6.06083 0
M  V30 12751 H 1270.49 1.44476 6.81249 0
M  V30 12752 H 1268.11 1.89534 7.36193 0
M  V30 12753 N 1269.69 -1.54705 -0.300681 0
M  V30 12754 C 1270.93 -1.74259 -1.03738 0
M  V30 12755 C 1271.27 -0.52703 -1.86912 0
M  V30 12756 O 1270.54 0.475862 -1.88589 0
M  V30 12757 C 1270.82 -3.03175 -1.94311 0
M  V30 12758 C 1270.68 -4.35031 -1.14315 0
M  V30 12759 C 1272 -3.27962 -2.93478 0
M  V30 12760 H 1269.12 -0.634031 -0.37573 0
M  V30 12761 H 1271.76 -1.87421 -0.312012 0
M  V30 12762 H 1269.91 -2.92086 -2.5616 0
M  V30 12763 H 1271.58 -4.5804 -0.547489 0
M  V30 12764 H 1269.82 -4.31503 -0.44587 0
M  V30 12765 H 1270.49 -5.21502 -1.80941 0
M  V30 12766 H 1272.97 -3.38663 -2.41757 0
M  V30 12767 H 1271.85 -4.19481 -3.54016 0
M  V30 12768 H 1272.11 -2.46273 -3.67154 0
M  V30 12769 N 1271.17 0.563888 -1.47167 0
M  V30 12770 C 1272.58 0.889156 -1.32537 0
M  V30 12771 C 1272.78 1.99088 -0.310854 0
M  V30 12772 O 1271.84 2.50943 0.27998 0
M  V30 12773 C 1273.15 1.28871 -2.71685 0
M  V30 12774 C 1274.7 1.40051 -2.79919 0
M  V30 12775 C 1275.17 1.83364 -4.19692 0
M  V30 12776 N 1276.67 1.90526 -4.22201 0
M  V30 12777 C 1277.4 2.25355 -5.2726 0
M  V30 12778 N 1276.9 2.58844 -6.42629 0
M  V30 12779 N 1278.69 2.26071 -5.14634 0
M  V30 12780 H 1270.84 -0.163581 -2.11769 0
M  V30 12781 H 1273.1 -0.0105151 -0.947942 0
M  V30 12782 H 1272.81 0.553057 -3.47324 0
M  V30 12783 H 1272.68 2.24629 -3.03021 0
M  V30 12784 H 1275.07 2.12698 -2.04557 0
M  V30 12785 H 1275.15 0.424971 -2.52245 0
M  V30 12786 H 1274.8 1.11289 -4.95557 0
M  V30 12787 H 1274.73 2.81909 -4.44786 0
M  V30 12788 H 1277.22 1.67059 -3.38968 0
M  V30 12789 H 1277.53 2.84427 -7.18555 0
M  V30 12790 H 1275.87 2.56439 -6.4596 0
M  V30 12791 H 1279.07 1.99343 -4.23533 0
M  V30 12792 H 1279.24 2.52885 -5.96618 0
M  V30 12793 N 1272.64 1.35187 0.810078 0
M  V30 12794 C 1273.57 1.30481 1.93641 0
M  V30 12795 C 1274.56 0.179875 1.69146 0
M  V30 12796 O 1275.74 0.374284 1.90559 0
M  V30 12797 C 1272.87 1.07251 3.30325 0
M  V30 12798 C 1271.82 2.16348 3.69293 0
M  V30 12799 C 1271.15 1.78288 5.04101 0
M  V30 12800 C 1272.45 3.58285 3.80038 0
M  V30 12801 H 1274.14 2.24725 1.97836 0
M  V30 12802 H 1271.69 1.08179 0.950436 0
M  V30 12803 H 1273.64 1.02599 4.08719 0
M  V30 12804 H 1272.37 0.0945203 3.26463 0
M  V30 12805 H 1271.03 2.2009 2.93182 0
M  V30 12806 H 1270.67 0.791163 4.96739 0
M  V30 12807 H 1270.37 2.51315 5.31144 0
M  V30 12808 H 1271.9 1.75155 5.84938 0
M  V30 12809 H 1273.31 3.56884 4.48672 0
M  V30 12810 H 1271.71 4.30044 4.18548 0
M  V30 12811 H 1272.78 3.94691 2.81685 0
M  V30 12812 N 1274.12 -1.03182 1.19127 0
M  V30 12813 C 1275.05 -2.11462 0.884098 0
M  V30 12814 C 1276.07 -1.62342 -0.121984 0
M  V30 12815 O 1277.26 -1.78179 0.107038 0
M  V30 12816 C 1274.36 -3.37559 0.301227 0
M  V30 12817 C 1273.53 -4.15878 1.35514 0
M  V30 12818 C 1272.59 -5.20291 0.786349 0
M  V30 12819 O 1271.61 -5.50069 1.46331 0
M  V30 12820 N 1272.82 -5.79038 -0.411803 0
M  V30 12821 H 1275.58 -2.38405 1.81613 0
M  V30 12822 H 1273.14 -1.19449 1.09287 0
M  V30 12823 H 1275.13 -4.04593 -0.0930685 0
M  V30 12824 H 1273.7 -3.07987 -0.535022 0
M  V30 12825 H 1272.92 -3.44036 1.9244 0
M  V30 12826 H 1274.21 -4.64993 2.06539 0
M  V30 12827 H 1273.61 -5.57158 -0.979353 0
M  V30 12828 H 1272.17 -6.47495 -0.747912 0
M  V30 12829 N 1275.6 -0.99472 -1.22242 0
M  V30 12830 C 1276.53 -0.566499 -2.26524 0
M  V30 12831 C 1277.51 0.407541 -1.65146 0
M  V30 12832 O 1278.7 0.297777 -1.91903 0
M  V30 12833 C 1275.83 0.11786 -3.471 0
M  V30 12834 C 1274.78 -0.774908 -4.20927 0
M  V30 12835 C 1274.11 0.0424687 -5.34683 0
M  V30 12836 C 1275.41 -2.07263 -4.79416 0
M  V30 12837 H 1277.1 -1.43818 -2.62596 0
M  V30 12838 H 1274.65 -0.692971 -1.2623 0
M  V30 12839 H 1276.6 0.428842 -4.19212 0
M  V30 12840 H 1275.32 1.0241 -3.10129 0
M  V30 12841 H 1273.98 -1.06956 -3.50651 0
M  V30 12842 H 1273.63 0.949677 -4.93954 0
M  V30 12843 H 1273.33 -0.551867 -5.85003 0
M  V30 12844 H 1274.85 0.347504 -6.0961 0
M  V30 12845 H 1276.27 -1.82548 -5.4346 0
M  V30 12846 H 1274.67 -2.61594 -5.40082 0
M  V30 12847 H 1275.74 -2.75017 -3.99366 0
M  V30 12848 N 1277.08 1.37613 -0.768148 0
M  V30 12849 C 1278.31 2.04052 -0.342111 0
M  V30 12850 C 1278.72 1.57936 1.03449 0
M  V30 12851 O 1278.08 0.758981 1.65969 0
M  V30 12852 C 1278.13 3.5958 -0.372096 0
M  V30 12853 O 1277.85 4.04008 -1.69439 0
M  V30 12854 C 1279.35 4.43251 0.0659884 0
M  V30 12855 H 1276.57 0.655391 -0.143886 0
M  V30 12856 H 1279.12 1.76017 -1.04107 0
M  V30 12857 H 1277.27 3.86399 0.278248 0
M  V30 12858 H 1277.68 4.98511 -1.63054 0
M  V30 12859 H 1279.16 5.52 -0.00614775 0
M  V30 12860 H 1279.64 4.24788 1.11588 0
M  V30 12861 H 1280.24 4.2165 -0.55603 0
M  V30 12862 N 1278.56 0.518393 1.4883 0
M  V30 12863 C 1279.8 -0.0199053 2.0249 0
M  V30 12864 C 1280.13 -1.35375 1.39657 0
M  V30 12865 O 1279.39 -1.88454 0.527586 0
M  V30 12866 C 1279.69 -0.203001 3.56823 0
M  V30 12867 C 1279.35 1.05502 4.38384 0
M  V30 12868 C 1278.01 1.39982 4.60389 0
M  V30 12869 C 1280.37 1.89042 4.85708 0
M  V30 12870 C 1277.69 2.57922 5.26966 0
M  V30 12871 C 1280.05 3.06151 5.53583 0
M  V30 12872 C 1278.71 3.40991 5.73831 0
M  V30 12873 H 1277.98 -0.00728388 0.740964 0
M  V30 12874 H 1280.63 0.682073 1.78941 0
M  V30 12875 H 1278.93 -0.987653 3.79147 0
M  V30 12876 H 1280.63 -0.634234 3.95953 0
M  V30 12877 H 1277.22 0.77647 4.21508 0
M  V30 12878 H 1281.4 1.63716 4.6852 0
M  V30 12879 H 1276.66 2.85132 5.40842 0
M  V30 12880 H 1280.83 3.71198 5.89224 0
M  V30 12881 H 1278.46 4.32479 6.25193 0
M  V30 12882 N 1280.03 -1.55556 0.252993 0
M  V30 12883 C 1280.94 -2.25283 -0.654581 0
M  V30 12884 C 1281.96 -1.27103 -1.18831 0
M  V30 12885 O 1283.14 -1.59993 -1.22329 0
M  V30 12886 C 1280.2 -2.94336 -1.83214 0
M  V30 12887 C 1279.26 -4.0794 -1.33728 0
M  V30 12888 C 1278.5 -4.73691 -2.45871 0
M  V30 12889 O 1278.72 -4.38545 -3.64738 0
M  V30 12890 O 1277.65 -5.62083 -2.15283 0
M  V30 12891 H 1281.48 -3.03565 -0.0904091 0
M  V30 12892 H 1279.06 -1.49385 0.0212535 0
M  V30 12893 H 1280.95 -3.37808 -2.5192 0
M  V30 12894 H 1279.62 -2.18989 -2.38381 0
M  V30 12895 H 1278.53 -3.68971 -0.617323 0
M  V30 12896 H 1279.86 -4.85124 -0.831617 0
M  V30 12897 N 1281.51 0.0200419 -1.57587 0
M  V30 12898 C 1282.42 1.0346 -2.10555 0
M  V30 12899 C 1283.44 1.39035 -1.0462 0
M  V30 12900 O 1284.61 1.48172 -1.36407 0
M  V30 12901 C 1281.68 2.31389 -2.58186 0
M  V30 12902 C 1280.74 2.02311 -3.7864 0
M  V30 12903 C 1279.97 3.24141 -4.23991 0
M  V30 12904 O 1280.2 4.35132 -3.68803 0
M  V30 12905 O 1279.13 3.09312 -5.16342 0
M  V30 12906 H 1282.96 0.614419 -2.9742 0
M  V30 12907 H 1280.54 0.237604 -1.47498 0
M  V30 12908 H 1282.42 3.06582 -2.89112 0
M  V30 12909 H 1281.1 2.72684 -1.74428 0
M  V30 12910 H 1280.01 1.24658 -3.5272 0
M  V30 12911 H 1281.34 1.65866 -4.6341 0
M  V30 12912 N 1282.99 1.54862 0.292472 0
M  V30 12913 C 1284.22 1.78291 1.04383 0
M  V30 12914 C 1284.63 0.546703 1.81129 0
M  V30 12915 O 1283.97 -0.493286 1.76953 0
M  V30 12916 C 1284.03 2.94321 2.06435 0
M  V30 12917 C 1283.7 4.32095 1.48806 0
M  V30 12918 C 1284.69 5.11808 0.91369 0
M  V30 12919 C 1282.38 4.78714 1.52112 0
M  V30 12920 C 1284.37 6.36266 0.380053 0
M  V30 12921 C 1282.06 6.03132 0.983613 0
M  V30 12922 C 1283.06 6.81744 0.41406 0
M  V30 12923 O 1282.75 8.03817 -0.115268 0
M  V30 12924 H 1282.48 0.598147 0.314954 0
M  V30 12925 H 1285.03 2.02655 0.334661 0
M  V30 12926 H 1283.26 2.65602 2.81056 0
M  V30 12927 H 1284.95 3.05249 2.67541 0
M  V30 12928 H 1285.72 4.76931 0.880988 0
M  V30 12929 H 1281.6 4.17549 1.95382 0
M  V30 12930 H 1285.14 6.9757 -0.0651481 0
M  V30 12931 H 1281.04 6.37494 1.01349 0
M  V30 12932 H 1281.81 8.185 -0.00277496 0
M  V30 12933 N 1284.47 -0.556076 1.47464 0
M  V30 12934 C 1285.7 -1.33858 1.57764 0
M  V30 12935 C 1286.11 -1.87415 0.22825 0
M  V30 12936 O 1285.47 -1.65054 -0.778674 0
M  V30 12937 C 1285.52 -2.5077 2.60378 0
M  V30 12938 O 1285.24 -1.99426 3.90078 0
M  V30 12939 C 1286.74 -3.42965 2.80873 0
M  V30 12940 H 1283.96 -0.408003 0.532705 0
M  V30 12941 H 1286.51 -0.673501 1.93091 0
M  V30 12942 H 1284.66 -3.13214 2.27982 0
M  V30 12943 H 1285.07 -2.75759 4.46158 0
M  V30 12944 H 1286.55 -4.21412 3.56533 0
M  V30 12945 H 1287.03 -3.96579 1.88737 0
M  V30 12946 H 1287.63 -2.86336 3.14471 0
M  V30 12947 N 1285.95 -1.35615 -0.802897 0
M  V30 12948 C 1287.2 -1.28428 -1.55528 0
M  V30 12949 C 1287.51 0.138275 -1.95111 0
M  V30 12950 O 1288.72 0.332435 -2.69457 0
M  V30 12951 C 1287.17 -2.25251 -2.80696 0
M  V30 12952 C 1286.78 -3.72871 -2.48336 0
M  V30 12953 C 1288.52 -2.27014 -3.58699 0
M  V30 12954 C 1286.43 -4.61507 -3.69817 0
M  V30 12955 H 1285.36 -0.47718 -0.583794 0
M  V30 12956 H 1288.01 -1.609 -0.882238 0
M  V30 12957 H 1286.39 -1.85755 -3.4973 0
M  V30 12958 H 1287.57 -4.21024 -1.87285 0
M  V30 12959 H 1285.88 -3.73752 -1.83571 0
M  V30 12960 H 1288.48 -2.90451 -4.48935 0
M  V30 12961 H 1288.82 -1.27491 -3.96298 0
M  V30 12962 H 1289.36 -2.65058 -2.9663 0
M  V30 12963 H 1286.09 -5.62043 -3.37324 0
M  V30 12964 H 1285.61 -4.18079 -4.30081 0
M  V30 12965 H 1287.29 -4.77113 -4.37004 0
M  V30 12966 N 1287.43 1.02549 -1.19673 0
M  V30 12967 C 1288.36 2.10513 -0.880879 0
M  V30 12968 C 1289.34 1.61776 0.163455 0
M  V30 12969 O 1290.52 1.8846 0.0390085 0
M  V30 12970 C 1287.65 3.37195 -0.318936 0
M  V30 12971 C 1286.69 4.04808 -1.34286 0
M  V30 12972 S 1287.53 4.49881 -2.90461 0
M  V30 12973 C 1288.68 5.79776 -2.35819 0
M  V30 12974 H 1288.92 2.3698 -1.7952 0
M  V30 12975 H 1286.45 1.15537 -1.02423 0
M  V30 12976 H 1288.41 4.105 -0.00124931 0
M  V30 12977 H 1287.07 3.08815 0.573749 0
M  V30 12978 H 1286.26 4.9592 -0.898859 0
M  V30 12979 H 1285.86 3.37688 -1.60756 0
M  V30 12980 H 1288.15 6.54501 -1.75026 0
M  V30 12981 H 1289.1 6.2896 -3.25292 0
M  V30 12982 H 1289.51 5.35611 -1.78272 0
M  V30 12983 N 1288.9 1.00119 1.21713 0
M  V30 12984 C 1289.85 0.558388 2.23943 0
M  V30 12985 C 1290.82 -0.413576 1.60869 0
M  V30 12986 O 1292.01 -0.316478 1.88157 0
M  V30 12987 C 1289.15 -0.112618 3.44916 0
M  V30 12988 C 1288.26 0.902071 4.22477 0
M  V30 12989 C 1287.39 0.203722 5.30809 0
M  V30 12990 C 1286.43 1.20622 6.00097 0
M  V30 12991 N 1285.57 0.535607 7.00054 0
M  V30 12992 H 1290.41 1.43486 2.61182 0
M  V30 12993 H 1287.95 0.718572 1.28355 0
M  V30 12994 H 1289.9 -0.51865 4.13964 0
M  V30 12995 H 1288.53 -0.952827 3.08417 0
M  V30 12996 H 1287.59 1.42637 3.52645 0
M  V30 12997 H 1288.9 1.66513 4.70186 0
M  V30 12998 H 1288.05 -0.258614 6.06149 0
M  V30 12999 H 1286.79 -0.591773 4.84096 0
M  V30 13000 H 1285.8 1.6791 5.23532 0
M  V30 13001 H 1287.02 2.00273 6.48897 0
M  V30 13002 H 1284.97 -0.2403 6.5556 0
M  V30 13003 H 1284.88 1.23698 7.45812 0
M  V30 13004 H 1286.15 0.0963489 7.7944 0
M  V30 13005 N 1290.38 -1.37203 0.775435 0
M  V30 13006 C 1291.63 -1.99897 0.341936 0
M  V30 13007 C 1291.96 -1.61414 -1.07978 0
M  V30 13008 O 1291.24 -0.862108 -1.7435 0
M  V30 13009 C 1291.52 -3.56755 0.489715 0
M  V30 13010 C 1291.37 -4.05135 1.95411 0
M  V30 13011 C 1292.69 -4.39978 -0.103779 0
M  V30 13012 H 1289.81 -0.726199 0.125717 0
M  V30 13013 H 1292.45 -1.62826 0.979167 0
M  V30 13014 H 1290.6 -3.88464 -0.0527684 0
M  V30 13015 H 1292.27 -3.83975 2.55658 0
M  V30 13016 H 1290.52 -3.57192 2.46164 0
M  V30 13017 H 1291.19 -5.14161 2.00855 0
M  V30 13018 H 1293.66 -4.14547 0.359134 0
M  V30 13019 H 1292.54 -5.48892 0.0297337 0
M  V30 13020 H 1292.8 -4.25658 -1.19448 0
M  V30 13021 N 1291.86 -0.526279 -1.48553 0
M  V30 13022 C 1292.79 0.227364 -2.3239 0
M  V30 13023 C 1293.77 0.93862 -1.41859 0
M  V30 13024 O 1294.96 0.925119 -1.70749 0
M  V30 13025 C 1292.09 1.277 -3.22971 0
M  V30 13026 C 1291.04 0.684107 -4.22497 0
M  V30 13027 C 1290.37 1.83612 -5.02186 0
M  V30 13028 C 1291.67 -0.341723 -5.21181 0
M  V30 13029 H 1293.36 -0.472486 -2.95648 0
M  V30 13030 H 1290.91 -0.228669 -1.42173 0
M  V30 13031 H 1292.86 1.81215 -3.80446 0
M  V30 13032 H 1291.58 2.00638 -2.57705 0
M  V30 13033 H 1290.24 0.170505 -3.66203 0
M  V30 13034 H 1289.89 2.55379 -4.33348 0
M  V30 13035 H 1289.59 1.44536 -5.69547 0
M  V30 13036 H 1291.11 2.37513 -5.62512 0
M  V30 13037 H 1292.53 0.106207 -5.73202 0
M  V30 13038 H 1290.92 -0.649673 -5.96573 0
M  V30 13039 H 1291.99 -1.2488 -4.68543 0
M  V30 13040 N 1293.34 1.5542 -0.261239 0
M  V30 13041 C 1294.27 2.24949 0.626126 0
M  V30 13042 C 1295.25 1.23474 1.16997 0
M  V30 13043 O 1296.43 1.52161 1.20667 0
M  V30 13044 C 1293.56 2.95996 1.81669 0
M  V30 13045 C 1292.52 4.04282 1.40499 0
M  V30 13046 C 1291.84 4.62831 2.67753 0
M  V30 13047 C 1293.14 5.1923 0.56543 0
M  V30 13048 H 1294.84 2.99364 0.0463164 0
M  V30 13049 H 1292.38 1.43985 0.0208366 0
M  V30 13050 H 1294.34 3.43343 2.44323 0
M  V30 13051 H 1293.06 2.19093 2.42211 0
M  V30 13052 H 1291.72 3.57726 0.801712 0
M  V30 13053 H 1291.37 3.82611 3.26524 0
M  V30 13054 H 1291.07 5.35938 2.40925 0
M  V30 13055 H 1292.59 5.12918 3.31281 0
M  V30 13056 H 1294.01 5.62714 1.09663 0
M  V30 13057 H 1292.4 5.98814 0.392607 0
M  V30 13058 H 1293.47 4.83086 -0.419059 0
M  V30 13059 N 1294.82 -0.0116844 1.57596 0
M  V30 13060 C 1295.75 -1.00599 2.10718 0
M  V30 13061 C 1296.73 -1.36601 1.01362 0
M  V30 13062 O 1297.91 -1.4518 1.28982 0
M  V30 13063 C 1295.04 -2.30155 2.60089 0
M  V30 13064 C 1294 -2.08347 3.73866 0
M  V30 13065 C 1293.32 -3.43814 4.09507 0
M  V30 13066 C 1294.62 -1.45552 5.01609 0
M  V30 13067 H 1296.32 -0.563721 2.94045 0
M  V30 13068 H 1293.86 -0.269714 1.41452 0
M  V30 13069 H 1295.81 -3.00058 2.95877 0
M  V30 13070 H 1294.54 -2.76473 1.73868 0
M  V30 13071 H 1293.2 -1.40872 3.38453 0
M  V30 13072 H 1292.85 -3.87814 3.20326 0
M  V30 13073 H 1292.55 -3.30043 4.86154 0
M  V30 13074 H 1294.07 -4.15052 4.47844 0
M  V30 13075 H 1295.48 -2.05396 5.35243 0
M  V30 13076 H 1293.88 -1.42304 5.82983 0
M  V30 13077 H 1294.95 -0.423331 4.83049 0
M  V30 13078 N 1296.29 -1.55015 -0.284256 0
M  V30 13079 C 1297.22 -1.90128 -1.3555 0
M  V30 13080 C 1298.2 -0.761914 -1.52082 0
M  V30 13081 O 1299.39 -1.01909 -1.65312 0
M  V30 13082 C 1296.52 -2.16332 -2.71695 0
M  V30 13083 C 1295.47 -3.32166 -2.69907 0
M  V30 13084 C 1294.8 -3.43824 -4.09498 0
M  V30 13085 C 1296.1 -4.6885 -2.30168 0
M  V30 13086 H 1297.79 -2.79852 -1.06411 0
M  V30 13087 H 1295.34 -1.34649 -0.510451 0
M  V30 13088 H 1297.29 -2.39482 -3.46737 0
M  V30 13089 H 1296.02 -1.23395 -3.02392 0
M  V30 13090 H 1294.68 -3.08965 -1.97322 0
M  V30 13091 H 1294.32 -2.48375 -4.374 0
M  V30 13092 H 1294.02 -4.21698 -4.092 0
M  V30 13093 H 1295.55 -3.69254 -4.86296 0
M  V30 13094 H 1296.96 -4.91619 -2.9493 0
M  V30 13095 H 1295.36 -5.49558 -2.41052 0
M  V30 13096 H 1296.43 -4.68433 -1.25294 0
M  V30 13097 N 1297.77 0.548248 -1.47757 0
M  V30 13098 C 1299 1.335 -1.58722 0
M  V30 13099 C 1299.42 1.86549 -0.241034 0
M  V30 13100 O 1298.78 1.63447 0.784517 0
M  V30 13101 C 1298.83 2.47457 -2.62293 0
M  V30 13102 O 1297.93 3.49956 -2.18185 0
M  V30 13103 H 1297.27 0.396166 -0.532868 0
M  V30 13104 H 1299.8 0.66164 -1.93607 0
M  V30 13105 H 1299.81 2.93901 -2.82995 0
M  V30 13106 H 1298.49 2.08203 -3.60034 0
M  V30 13107 H 1297.06 3.09755 -2.0762 0
M  V30 13108 N 1299.25 1.36039 0.795694 0
M  V30 13109 C 1300.48 1.33059 1.58439 0
M  V30 13110 C 1300.89 -0.0895496 1.88588 0
M  V30 13111 O 1300.25 -1.04466 1.49643 0
M  V30 13112 C 1300.3 2.14594 2.90915 0
M  V30 13113 O 1300.02 3.51072 2.62069 0
M  V30 13114 C 1301.52 2.19324 3.85242 0
M  V30 13115 H 1298.74 0.456668 0.491625 0
M  V30 13116 H 1301.29 1.79048 0.988035 0
M  V30 13117 H 1299.44 1.72177 3.47036 0
M  V30 13118 H 1299.86 3.93545 3.46732 0
M  V30 13119 H 1301.33 2.80744 4.75276 0
M  V30 13120 H 1301.81 1.19496 4.22631 0
M  V30 13121 H 1302.41 2.6195 3.35056 0
M  V30 13122 N 1300.73 -1.01913 1.20215 0
M  V30 13123 C 1301.98 -1.74878 1.00502 0
M  V30 13124 C 1302.29 -1.90022 -0.463792 0
M  V30 13125 O 1303.5 -2.60055 -0.779982 0
M  V30 13126 C 1301.95 -3.1452 1.74943 0
M  V30 13127 C 1301.56 -3.07397 3.259 0
M  V30 13128 C 1303.3 -3.91713 1.63589 0
M  V30 13129 C 1301.21 -4.42032 3.92889 0
M  V30 13130 H 1300.14 -0.655603 0.372426 0
M  V30 13131 H 1302.79 -1.13978 1.4381 0
M  V30 13132 H 1301.17 -3.75946 1.24421 0
M  V30 13133 H 1302.35 -2.55294 3.83617 0
M  V30 13134 H 1300.66 -2.43698 3.37639 0
M  V30 13135 H 1303.26 -4.91316 2.1098 0
M  V30 13136 H 1303.6 -4.12074 0.591665 0
M  V30 13137 H 1304.14 -3.3691 2.11511 0
M  V30 13138 H 1300.88 -4.26874 4.97453 0
M  V30 13139 H 1300.4 -4.94151 3.39962 0
M  V30 13140 H 1302.07 -5.10884 3.96997 0
M  V30 13141 N 1302.21 -1.00763 -1.2118 0
M  V30 13142 C 1303.62 -0.724746 -1.72059 0
M  V30 13143 C 1303.97 0.757413 -1.80991 0
M  V30 13144 O 1303.09 1.59152 -1.46627 0
M  V30 13145 C 1303.69 -1.30893 -3.12494 0
M  V30 13146 C 1302.25 -1.07511 -3.60719 0
M  V30 13147 C 1301.39 -1.42014 -2.38175 0
M  V30 13148 H 1304.35 -1.17821 -1.0632 0
M  V30 13149 H 1304.37 -0.694919 -3.741 0
M  V30 13150 H 1303.88 -2.38767 -3.05961 0
M  V30 13151 H 1301.98 -0.0136518 -3.72597 0
M  V30 13152 H 1302.09 -1.74885 -4.4604 0
M  V30 13153 H 1300.46 -0.838972 -2.40486 0
M  V30 13154 H 1301.24 -2.50924 -2.34291 0
M  V30 13155 N 1303.68 1.3679 -0.7827 0
M  V30 13156 C 1304.63 2.30139 -0.174595 0
M  V30 13157 C 1305.6 1.51645 0.677714 0
M  V30 13158 O 1306.79 1.80176 0.627796 0
M  V30 13159 C 1303.93 3.38133 0.689936 0
M  V30 13160 C 1303.04 4.31624 -0.180179 0
M  V30 13161 C 1302.17 5.26698 0.69009 0
M  V30 13162 C 1301.21 6.1183 -0.181891 0
M  V30 13163 N 1300.35 6.99113 0.646977 0
M  V30 13164 H 1305.19 2.81559 -0.97613 0
M  V30 13165 H 1302.73 1.38595 -0.492944 0
M  V30 13166 H 1304.69 3.99386 1.2061 0
M  V30 13167 H 1303.32 2.88049 1.45696 0
M  V30 13168 H 1302.37 3.71583 -0.81425 0
M  V30 13169 H 1303.68 4.91464 -0.852337 0
M  V30 13170 H 1302.83 5.93209 1.27232 0
M  V30 13171 H 1301.57 4.67297 1.3959 0
M  V30 13172 H 1300.58 5.44288 -0.776572 0
M  V30 13173 H 1301.8 6.73306 -0.885195 0
M  V30 13174 H 1299.75 6.42227 1.3372 0
M  V30 13175 H 1299.67 7.55993 0.0323547 0
M  V30 13176 H 1300.93 7.7 1.21325 0
M  V30 13177 N 1305.16 0.53415 1.48272 0
M  V30 13178 C 1306.44 -0.0630181 1.95498 0
M  V30 13179 C 1306.82 -1.50877 1.47646 0
M  V30 13180 O 1306.17 -2.17358 0.704829 0
M  V30 13181 C 1306.38 0.0585475 3.48951 0
M  V30 13182 C 1307.73 -0.0985978 4.24486 0
M  V30 13183 O 1308.75 -0.0150438 3.56197 0
M  V30 13184 O 1307.61 -0.274356 5.45811 0
M  V30 13185 H 1304.7 -0.0769841 0.823409 0
M  V30 13186 H 1307.25 0.599043 1.58775 0
M  V30 13187 H 1306.02 1.06549 3.76514 0
M  V30 13188 H 1305.64 -0.642175 3.9238 0
M  V30 13189 N 1306.64 -1.55279 0.269478 0
M  V30 13190 C 1307.89 -1.99077 -0.348224 0
M  V30 13191 C 1308.21 -1.15925 -1.568 0
M  V30 13192 O 1307.48 -0.247404 -1.94331 0
M  V30 13193 H 1306.06 -0.735307 -0.131653 0
M  V30 13194 H 1308.72 -1.91288 0.373506 0
M  V30 13195 H 1307.82 -3.05427 -0.641953 0
M  V30 13196 N 1308.12 0.00332656 -1.576 0
M  V30 13197 C 1309.05 0.994803 -2.11248 0
M  V30 13198 C 1310.03 1.36061 -1.02085 0
M  V30 13199 O 1311.21 1.44494 -1.2975 0
M  V30 13200 C 1308.34 2.28772 -2.61306 0
M  V30 13201 C 1307.3 2.06362 -3.74965 0
M  V30 13202 C 1306.62 3.41638 -4.11324 0
M  V30 13203 C 1307.92 1.4289 -5.02374 0
M  V30 13204 H 1309.62 0.548119 -2.9434 0
M  V30 13205 H 1307.16 0.262208 -1.41593 0
M  V30 13206 H 1309.12 2.98485 -2.97464 0
M  V30 13207 H 1307.84 2.75547 -1.75332 0
M  V30 13208 H 1306.5 1.39076 -3.39195 0
M  V30 13209 H 1306.15 3.8611 -3.22379 0
M  V30 13210 H 1305.85 3.2746 -4.87897 0
M  V30 13211 H 1307.37 4.12671 -4.50039 0
M  V30 13212 H 1308.79 2.02555 -5.36325 0
M  V30 13213 H 1307.18 1.3921 -5.8373 0
M  V30 13214 H 1308.25 0.397708 -4.83266 0
M  V30 13215 N 1309.6 1.55164 0.276031 0
M  V30 13216 C 1310.54 1.87836 1.34113 0
M  V30 13217 C 1311.51 0.729562 1.4922 0
M  V30 13218 O 1312.7 0.980549 1.63676 0
M  V30 13219 C 1309.84 2.15313 2.69693 0
M  V30 13220 C 1308.95 3.42845 2.62833 0
M  V30 13221 C 1308.09 3.60038 3.90572 0
M  V30 13222 C 1307.13 4.81273 3.7821 0
M  V30 13223 N 1306.26 4.95139 4.97777 0
M  V30 13224 H 1311.1 2.78681 1.0555 0
M  V30 13225 H 1308.64 1.37976 0.510001 0
M  V30 13226 H 1310.6 2.29243 3.48573 0
M  V30 13227 H 1309.23 1.27706 2.96464 0
M  V30 13228 H 1308.28 3.37403 1.75679 0
M  V30 13229 H 1309.59 4.3186 2.49597 0
M  V30 13230 H 1308.75 3.73769 4.77893 0
M  V30 13231 H 1307.48 2.69203 4.06671 0
M  V30 13232 H 1306.49 4.67549 2.89271 0
M  V30 13233 H 1307.71 5.7354 3.63632 0
M  V30 13234 H 1305.66 4.07234 5.14292 0
M  V30 13235 H 1305.58 5.78194 4.8706 0
M  V30 13236 H 1306.85 5.13253 5.86679 0
M  V30 13237 N 1311.07 -0.540404 1.48045 0
M  V30 13238 C 1312.3 -1.32656 1.59427 0
M  V30 13239 C 1312.72 -1.86419 0.250924 0
M  V30 13240 O 1312.08 -1.63861 -0.775838 0
M  V30 13241 C 1312.13 -2.46062 2.63602 0
M  V30 13242 O 1311.23 -3.48794 2.20038 0
M  V30 13243 H 1310.58 -0.393334 0.534962 0
M  V30 13244 H 1313.11 -0.651363 1.93955 0
M  V30 13245 H 1313.12 -2.92396 2.84549 0
M  V30 13246 H 1311.79 -2.06291 3.61133 0
M  V30 13247 H 1310.37 -3.0865 2.0926 0
M  V30 13248 N 1312.55 -1.36459 -0.788468 0
M  V30 13249 C 1313.48 -1.26727 -1.90979 0
M  V30 13250 C 1314.5 -0.186572 -1.61727 0
M  V30 13251 O 1315.69 -0.441364 -1.72957 0
M  V30 13252 C 1312.79 -0.932838 -3.25809 0
M  V30 13253 C 1311.96 -2.11562 -3.82832 0
M  V30 13254 C 1311.02 -1.75409 -4.96103 0
M  V30 13255 O 1310.04 -2.47508 -5.1257 0
M  V30 13256 N 1311.25 -0.688327 -5.76405 0
M  V30 13257 H 1314.01 -2.2334 -1.99848 0
M  V30 13258 H 1311.57 -1.29865 -0.966784 0
M  V30 13259 H 1313.56 -0.672131 -3.9908 0
M  V30 13260 H 1312.13 -0.0558103 -3.1255 0
M  V30 13261 H 1311.35 -2.53907 -3.01538 0
M  V30 13262 H 1312.64 -2.9058 -4.17661 0
M  V30 13263 H 1312.04 -0.0896854 -5.65629 0
M  V30 13264 H 1310.6 -0.487446 -6.49975 0
M  V30 13265 N 1314.03 1.01274 -1.20754 0
M  V30 13266 C 1314.99 2.08056 -0.961528 0
M  V30 13267 C 1315.99 1.60671 0.0644461 0
M  V30 13268 O 1317.18 1.73349 -0.172022 0
M  V30 13269 C 1314.32 3.37938 -0.448381 0
M  V30 13270 H 1315.51 2.31314 -1.90877 0
M  V30 13271 H 1313.06 1.18133 -1.02344 0
M  V30 13272 H 1313.8 3.20357 0.504144 0
M  V30 13273 H 1313.58 3.73659 -1.18833 0
M  V30 13274 H 1315.07 4.16551 -0.295876 0
M  V30 13275 N 1315.51 1.01404 1.20644 0
M  V30 13276 C 1316.47 0.586941 2.21557 0
M  V30 13277 C 1317.47 -0.341543 1.57131 0
M  V30 13278 O 1318.66 -0.130585 1.7371 0
M  V30 13279 C 1315.79 -0.143248 3.40599 0
M  V30 13280 H 1316.99 1.47964 2.60858 0
M  V30 13281 H 1314.54 0.803551 1.34063 0
M  V30 13282 H 1315.28 -1.05097 3.06798 0
M  V30 13283 H 1315.06 0.523716 3.88587 0
M  V30 13284 H 1316.55 -0.429504 4.15385 0
M  V30 13285 N 1316.99 -1.36373 0.789944 0
M  V30 13286 C 1318.23 -1.99227 0.362582 0
M  V30 13287 C 1318.56 -1.62694 -1.06587 0
M  V30 13288 O 1317.82 -0.873748 -1.75112 0
M  V30 13289 C 1318.12 -3.54243 0.474025 0
M  V30 13290 C 1317.78 -4.10597 1.86336 0
M  V30 13291 C 1316.44 -4.257 2.24349 0
M  V30 13292 C 1318.8 -4.41306 2.77306 0
M  V30 13293 C 1316.12 -4.68824 3.52734 0
M  V30 13294 C 1318.48 -4.85861 4.05119 0
M  V30 13295 C 1317.14 -4.9917 4.43154 0
M  V30 13296 H 1316.41 -0.729025 0.132678 0
M  V30 13297 H 1319.06 -1.62854 1.00751 0
M  V30 13298 H 1317.36 -3.90973 -0.254399 0
M  V30 13299 H 1319.06 -4.00807 0.124384 0
M  V30 13300 H 1315.65 -3.99281 1.55797 0
M  V30 13301 H 1319.83 -4.29205 2.49191 0
M  V30 13302 H 1315.09 -4.77315 3.82073 0
M  V30 13303 H 1319.26 -5.08587 4.75723 0
M  V30 13304 H 1316.89 -5.32344 5.42692 0
M  V30 13305 N 1318.47 -0.542005 -1.47987 0
M  V30 13306 C 1319.38 0.217677 -2.33588 0
M  V30 13307 C 1320.39 0.927093 -1.47245 0
M  V30 13308 O 1321.57 0.899378 -1.80203 0
M  V30 13309 C 1318.63 1.24376 -3.23622 0
M  V30 13310 C 1317.69 0.543407 -4.25847 0
M  V30 13311 C 1316.93 1.5206 -5.11579 0
M  V30 13312 O 1317.15 2.75425 -4.99497 0
M  V30 13313 O 1316.08 1.05341 -5.9261 0
M  V30 13314 H 1319.91 -0.484089 -2.99817 0
M  V30 13315 H 1317.49 -0.302783 -1.463 0
M  V30 13316 H 1319.38 1.83644 -3.7928 0
M  V30 13317 H 1318.05 1.92772 -2.6004 0
M  V30 13318 H 1316.96 -0.090074 -3.73992 0
M  V30 13319 H 1318.29 -0.0988264 -4.92101 0
M  V30 13320 N 1319.94 1.55134 -0.277709 0
M  V30 13321 C 1320.85 2.26296 0.618658 0
M  V30 13322 C 1321.87 1.28978 1.16794 0
M  V30 13323 O 1323.05 1.61918 1.19768 0
M  V30 13324 C 1320.11 2.97214 1.78508 0
M  V30 13325 C 1319.17 4.10016 1.27221 0
M  V30 13326 C 1318.4 4.77543 2.38304 0
M  V30 13327 O 1318.63 4.44293 3.57715 0
M  V30 13328 O 1317.56 5.65437 2.06313 0
M  V30 13329 H 1321.39 3.03671 0.0421031 0
M  V30 13330 H 1318.97 1.49332 -0.0450166 0
M  V30 13331 H 1320.85 3.41773 2.46513 0
M  V30 13332 H 1319.53 2.22753 2.34867 0
M  V30 13333 H 1318.44 3.69907 0.558544 0
M  V30 13334 H 1319.77 4.86385 0.754333 0
M  V30 13335 N 1321.42 0.00503138 1.57599 0
M  V30 13336 C 1322.35 -1.01883 2.04194 0
M  V30 13337 C 1323.33 -1.33183 0.9328 0
M  V30 13338 O 1324.52 -1.45261 1.20131 0
M  V30 13339 C 1321.64 -2.34515 2.44377 0
M  V30 13340 C 1320.69 -2.18843 3.66074 0
M  V30 13341 S 1321.52 -1.50975 5.13777 0
M  V30 13342 C 1322.68 -2.85027 5.57235 0
M  V30 13343 H 1322.91 -0.622099 2.90718 0
M  V30 13344 H 1320.44 -0.205983 1.5302 0
M  V30 13345 H 1322.4 -3.10775 2.68196 0
M  V30 13346 H 1321.06 -2.71327 1.58243 0
M  V30 13347 H 1320.26 -3.16836 3.91958 0
M  V30 13348 H 1319.86 -1.50727 3.42283 0
M  V30 13349 H 1322.15 -3.81318 5.60002 0
M  V30 13350 H 1323.09 -2.63837 6.57112 0
M  V30 13351 H 1323.5 -2.89168 4.84812 0
M  V30 13352 N 1322.9 -1.55308 -0.267798 0
M  V30 13353 C 1324.32 -1.47264 -0.61526 0
M  V30 13354 C 1324.52 -0.691025 -1.8928 0
M  V30 13355 O 1323.57 -0.211964 -2.51609 0
M  V30 13356 C 1324.88 -2.91519 -0.73739 0
M  V30 13357 C 1326.43 -3.01764 -0.831102 0
M  V30 13358 C 1326.91 -4.47283 -0.984965 0
M  V30 13359 N 1328.4 -4.51134 -1.05036 0
M  V30 13360 C 1329.13 -5.60952 -1.1883 0
M  V30 13361 N 1328.63 -6.80625 -1.29311 0
M  V30 13362 N 1330.42 -5.48705 -1.21982 0
M  V30 13363 H 1322.57 -2.04577 0.57114 0
M  V30 13364 H 1324.84 -0.927908 0.194141 0
M  V30 13365 H 1324.54 -3.51456 0.130974 0
M  V30 13366 H 1324.42 -3.40829 -1.61603 0
M  V30 13367 H 1326.8 -2.4192 -1.68993 0
M  V30 13368 H 1326.88 -2.55698 0.0722509 0
M  V30 13369 H 1326.53 -5.07732 -0.130776 0
M  V30 13370 H 1326.46 -4.91011 -1.90305 0
M  V30 13371 H 1328.95 -3.6493 -0.981551 0
M  V30 13372 H 1329.26 -7.60071 -1.39685 0
M  V30 13373 H 1327.61 -6.83426 -1.26306 0
M  V30 13374 H 1330.8 -4.5415 -1.13428 0
M  V30 13375 H 1330.97 -6.34332 -1.32388 0
M  V30 13376 N 1324.38 0.532545 -1.4833 0
M  V30 13377 C 1325.61 1.31331 -1.59874 0
M  V30 13378 C 1326.02 1.87028 -0.258037 0
M  V30 13379 O 1325.38 1.66272 0.752317 0
M  V30 13380 C 1325.43 2.46596 -2.64334 0
M  V30 13381 O 1325.15 1.93195 -3.93201 0
M  V30 13382 C 1326.65 3.38454 -2.86294 0
M  V30 13383 H 1323.87 0.399476 -0.539129 0
M  V30 13384 H 1326.41 0.642696 -1.94138 0
M  V30 13385 H 1324.57 3.09548 -2.32936 0
M  V30 13386 H 1324.98 2.68627 -4.50489 0
M  V30 13387 H 1326.46 4.15687 -3.63192 0
M  V30 13388 H 1326.93 3.93526 -1.95022 0
M  V30 13389 H 1327.54 2.81297 -3.18986 0
M  V30 13390 N 1325.86 1.36875 0.78122 0
M  V30 13391 C 1326.8 1.31941 1.91557 0
M  V30 13392 C 1327.8 0.209783 1.68096 0
M  V30 13393 O 1329 0.377266 1.76002 0
M  V30 13394 H 1325.38 0.410955 0.629778 0
M  V30 13395 H 1327.35 2.27721 1.92836 0
M  V30 13396 C 1326.1 1.13379 3.28695 0
M  V30 13397 H 1325.42 1.98013 3.47319 0
M  V30 13398 H 1326.86 1.13976 4.08394 0
M  V30 13399 C 1325.32 -0.161119 3.36515 0
M  V30 13400 O 1325.85 -1.14806 3.84945 0
M  V30 13401 N 1324.06 -0.208594 2.8985 0
M  V30 13402 H 1323.6 0.595187 2.5063 0
M  V30 13403 H 1323.56 -1.07465 2.95463 0
M  V30 13404 N 1327.33 -1.00632 1.21289 0
M  V30 13405 C 1328.56 -1.77709 1.05371 0
M  V30 13406 C 1328.97 -1.84933 -0.39956 0
M  V30 13407 O 1328.31 -1.30881 -1.28903 0
M  V30 13408 C 1328.38 -3.23206 1.5741 0
M  V30 13409 C 1328.04 -3.39563 3.05852 0
M  V30 13410 C 1329.04 -3.27952 4.03415 0
M  V30 13411 C 1326.72 -3.65048 3.4503 0
M  V30 13412 C 1328.72 -3.41587 5.38142 0
M  V30 13413 C 1326.4 -3.78325 4.7991 0
M  V30 13414 C 1327.4 -3.66601 5.76275 0
M  V30 13415 O 1327.09 -3.79458 7.08708 0
M  V30 13416 H 1326.82 -0.565369 0.370585 0
M  V30 13417 H 1329.38 -1.27483 1.6105 0
M  V30 13418 H 1327.61 -3.74562 0.96126 0
M  V30 13419 H 1329.29 -3.81953 1.37356 0
M  V30 13420 H 1330.06 -3.0819 3.74492 0
M  V30 13421 H 1325.94 -3.73256 2.70557 0
M  V30 13422 H 1329.48 -3.32353 6.13341 0
M  V30 13423 H 1325.38 -3.97591 5.08519 0
M  V30 13424 H 1326.15 -3.96413 7.161 0
M  V30 13425 N 1328.81 -1.02043 -1.20104 0
M  V30 13426 C 1330.06 -0.707271 -1.88893 0
M  V30 13427 C 1330.37 0.766617 -1.79951 0
M  V30 13428 O 1331.58 1.19248 -2.4391 0
M  V30 13429 C 1330.04 -1.2147 -3.38782 0
M  V30 13430 C 1329.64 -2.71576 -3.56301 0
M  V30 13431 C 1331.39 -0.977146 -4.13101 0
M  V30 13432 C 1329.29 -3.15781 -5.00037 0
M  V30 13433 H 1328.22 -0.26086 -0.707438 0
M  V30 13434 H 1330.88 -1.23361 -1.35846 0
M  V30 13435 H 1329.26 -0.616315 -3.91175 0
M  V30 13436 H 1330.43 -3.36997 -3.14276 0
M  V30 13437 H 1328.75 -2.93517 -2.95359 0
M  V30 13438 H 1331.34 -1.28278 -5.19085 0
M  V30 13439 H 1331.69 0.0862909 -4.16211 0
M  V30 13440 H 1332.22 -1.5391 -3.6682 0
M  V30 13441 H 1328.96 -4.21417 -5.02084 0
M  V30 13442 H 1328.48 -2.55083 -5.42856 0
M  V30 13443 H 1330.16 -3.08637 -5.6864 0
M  V30 13444 N 1330.29 1.35952 -0.797165 0
M  V30 13445 C 1331.24 2.29941 -0.198995 0
M  V30 13446 C 1332.21 1.52355 0.661592 0
M  V30 13447 O 1333.39 1.80832 0.60865 0
M  V30 13448 C 1330.53 3.38846 0.654033 0
M  V30 13449 C 1329.65 4.31409 -0.225949 0
M  V30 13450 C 1328.78 5.27401 0.634188 0
M  V30 13451 C 1327.82 6.11602 -0.246773 0
M  V30 13452 N 1326.96 6.9976 0.57279 0
M  V30 13453 H 1331.8 2.80508 -1.00594 0
M  V30 13454 H 1329.33 1.38064 -0.507617 0
M  V30 13455 H 1331.29 4.00643 1.16367 0
M  V30 13456 H 1329.92 2.89578 1.42633 0
M  V30 13457 H 1328.97 3.70699 -0.853616 0
M  V30 13458 H 1330.29 4.90532 -0.904416 0
M  V30 13459 H 1329.44 5.94525 1.20933 0
M  V30 13460 H 1328.18 4.68751 1.34625 0
M  V30 13461 H 1327.18 5.43434 -0.834258 0
M  V30 13462 H 1328.41 6.72329 -0.956559 0
M  V30 13463 H 1326.35 6.43609 1.26901 0
M  V30 13464 H 1326.27 7.55985 -0.0478303 0
M  V30 13465 H 1327.54 7.71244 1.13151 0
M  V30 13466 N 1331.77 0.549846 1.47697 0
M  V30 13467 C 1332.68 -0.205286 2.337 0
M  V30 13468 C 1333.69 -0.919271 1.47734 0
M  V30 13469 O 1334.87 -0.889808 1.80678 0
M  V30 13470 C 1331.94 -1.22658 3.24278 0
M  V30 13471 C 1331 -0.520815 4.26129 0
M  V30 13472 C 1330.23 -1.49345 5.12378 0
M  V30 13473 O 1330.45 -2.72772 5.00951 0
M  V30 13474 O 1329.39 -1.02197 5.93161 0
M  V30 13475 H 1333.21 0.499982 2.99556 0
M  V30 13476 H 1330.8 0.310538 1.46137 0
M  V30 13477 H 1332.68 -1.8163 3.80248 0
M  V30 13478 H 1331.35 -1.9139 2.61059 0
M  V30 13479 H 1330.26 0.109906 3.73939 0
M  V30 13480 H 1331.59 0.124922 4.92041 0
M  V30 13481 N 1333.25 -1.54984 0.285932 0
M  V30 13482 C 1334.18 -2.25916 -0.590259 0
M  V30 13483 C 1335.16 -1.25319 -1.15018 0
M  V30 13484 O 1336.34 -1.54062 -1.18231 0
M  V30 13485 C 1333.47 -2.98849 -1.76936 0
M  V30 13486 C 1332.43 -4.06466 -1.3405 0
M  V30 13487 C 1331.75 -4.67032 -2.60356 0
M  V30 13488 C 1333.05 -5.20064 -0.482754 0
M  V30 13489 H 1334.75 -2.994 0.00131571 0
M  V30 13490 H 1332.29 -1.44 0.00207281 0
M  V30 13491 H 1334.25 -3.47186 -2.3883 0
M  V30 13492 H 1332.97 -2.22918 -2.38694 0
M  V30 13493 H 1331.63 -3.58957 -0.7447 0
M  V30 13494 H 1331.28 -3.87757 -3.20396 0
M  V30 13495 H 1330.98 -5.39703 -2.32368 0
M  V30 13496 H 1332.5 -5.18124 -3.23079 0
M  V30 13497 H 1333.91 -5.64387 -1.00697 0
M  V30 13498 H 1332.31 -5.99363 -0.297291 0
M  V30 13499 H 1333.38 -4.82358 0.495861 0
M  V30 13500 N 1334.72 -0.0133892 -1.57594 0
M  V30 13501 C 1336.14 0.342848 -1.55874 0
M  V30 13502 C 1336.34 1.73928 -1.01742 0
M  V30 13503 O 1335.4 2.43798 -0.657158 0
M  V30 13504 C 1336.71 0.205831 -2.99995 0
M  V30 13505 C 1338.26 0.279774 -3.11747 0
M  V30 13506 C 1338.73 0.171729 -4.57678 0
M  V30 13507 N 1340.22 0.22921 -4.62633 0
M  V30 13508 C 1340.96 0.169153 -5.7315 0
M  V30 13509 N 1340.45 0.0589166 -6.92775 0
M  V30 13510 N 1342.25 0.221995 -5.61661 0
M  V30 13511 H 1334.4 -0.926727 -1.91117 0
M  V30 13512 H 1336.66 -0.356466 -0.878428 0
M  V30 13513 H 1336.37 -0.755482 -3.4349 0
M  V30 13514 H 1336.24 0.982476 -3.6418 0
M  V30 13515 H 1338.63 1.23154 -2.68174 0
M  V30 13516 H 1338.71 -0.526974 -2.50313 0
M  V30 13517 H 1338.35 -0.776547 -5.01928 0
M  V30 13518 H 1338.28 0.997138 -5.17073 0
M  V30 13519 H 1340.77 0.315196 -3.76583 0
M  V30 13520 H 1341.09 0.0193526 -7.72798 0
M  V30 13521 H 1339.43 0.0243543 -6.94996 0
M  V30 13522 H 1342.62 0.306406 -4.67096 0
M  V30 13523 H 1342.8 0.171727 -6.47772 0
M  V30 13524 N 1336.2 1.55448 0.259558 0
M  V30 13525 C 1337.15 1.89248 1.32113 0
M  V30 13526 C 1338.12 0.745348 1.48438 0
M  V30 13527 O 1339.3 0.997854 1.62627 0
M  V30 13528 C 1336.44 2.18161 2.67394 0
M  V30 13529 C 1335.56 3.45614 2.59182 0
M  V30 13530 C 1334.69 3.6416 3.86731 0
M  V30 13531 C 1333.73 4.85258 3.73084 0
M  V30 13532 N 1332.87 5.00391 4.92497 0
M  V30 13533 H 1337.71 2.79785 1.02589 0
M  V30 13534 H 1335.25 1.38509 0.495338 0
M  V30 13535 H 1337.2 2.32927 3.46122 0
M  V30 13536 H 1335.83 1.30843 2.95093 0
M  V30 13537 H 1334.89 3.39248 1.72091 0
M  V30 13538 H 1336.2 4.34483 2.45002 0
M  V30 13539 H 1335.35 3.78817 4.73902 0
M  V30 13540 H 1334.09 2.73501 4.03793 0
M  V30 13541 H 1333.1 4.70591 2.84296 0
M  V30 13542 H 1334.32 5.77365 3.57528 0
M  V30 13543 H 1332.27 4.12666 5.09944 0
M  V30 13544 H 1332.18 5.83328 4.809 0
M  V30 13545 H 1333.45 5.19446 5.81202 0
M  V30 13546 N 1337.68 -0.524672 1.4861 0
M  V30 13547 C 1338.61 -1.64555 1.58104 0
M  V30 13548 C 1339.59 -1.56778 0.431205 0
M  V30 13549 O 1340.78 -1.77175 0.643537 0
M  V30 13550 C 1337.9 -3.02979 1.51398 0
M  V30 13551 C 1336.95 -3.29098 2.71287 0
M  V30 13552 S 1337.78 -3.14791 4.33206 0
M  V30 13553 C 1338.94 -4.55652 4.29107 0
M  V30 13554 H 1339.17 -1.56254 2.52927 0
M  V30 13555 H 1336.7 -0.708041 1.37208 0
M  V30 13556 H 1338.66 -3.82809 1.48215 0
M  V30 13557 H 1337.32 -3.08717 0.579026 0
M  V30 13558 H 1336.52 -4.30092 2.62749 0
M  V30 13559 H 1336.12 -2.56949 2.7176 0
M  V30 13560 H 1338.41 -5.47277 3.99367 0
M  V30 13561 H 1339.35 -4.69244 5.30298 0
M  V30 13562 H 1339.76 -4.35223 3.59501 0
M  V30 13563 N 1339.16 -1.37287 -0.77395 0
M  V30 13564 C 1340.4 -1.3257 -1.5347 0
M  V30 13565 C 1340.74 0.090346 -1.9399 0
M  V30 13566 O 1340.01 1.04719 -1.63903 0
M  V30 13567 C 1340.3 -2.26277 -2.80126 0
M  V30 13568 C 1340.15 -3.76651 -2.45874 0
M  V30 13569 C 1341.47 -2.18471 -3.82045 0
M  V30 13570 H 1338.59 -0.48289 -0.556764 0
M  V30 13571 H 1341.23 -1.6797 -0.888039 0
M  V30 13572 H 1339.38 -1.96219 -3.35306 0
M  V30 13573 H 1341.05 -4.17296 -1.96626 0
M  V30 13574 H 1339.29 -3.95327 -1.78602 0
M  V30 13575 H 1339.96 -4.3765 -3.36403 0
M  V30 13576 H 1342.44 -2.44962 -3.36352 0
M  V30 13577 H 1341.32 -2.86183 -4.68392 0
M  V30 13578 H 1341.58 -1.17692 -4.26147 0
M  V30 13579 N 1340.64 0.999871 -1.21821 0
M  V30 13580 C 1341.86 1.77405 -1.06467 0
M  V30 13581 C 1342.28 1.84828 0.385227 0
M  V30 13582 O 1341.64 1.31338 1.26714 0
M  V30 13583 C 1341.69 3.21062 -1.66137 0
M  V30 13584 O 1341.41 3.14054 -3.05454 0
M  V30 13585 C 1342.91 4.14958 -1.55963 0
M  V30 13586 H 1340.13 0.557368 -0.373607 0
M  V30 13587 H 1342.67 1.2575 -1.61267 0
M  V30 13588 H 1340.83 3.69808 -1.15416 0
M  V30 13589 H 1341.24 4.04346 -3.34073 0
M  V30 13590 H 1342.72 5.13536 -2.02448 0
M  V30 13591 H 1343.19 4.36171 -0.514949 0
M  V30 13592 H 1343.8 3.72105 -2.05956 0
M  V30 13593 N 1342.11 1.02678 1.19562 0
M  V30 13594 C 1343.06 0.605764 2.22709 0
M  V30 13595 C 1344.03 -0.37936 1.6171 0
M  V30 13596 O 1345.22 -0.276496 1.88786 0
M  V30 13597 C 1342.36 -0.0394312 3.45077 0
M  V30 13598 C 1341.47 0.991481 4.20468 0
M  V30 13599 C 1340.6 0.316269 5.30258 0
M  V30 13600 C 1339.64 1.33324 5.97404 0
M  V30 13601 N 1338.78 0.683979 6.9876 0
M  V30 13602 H 1343.62 1.48994 2.58079 0
M  V30 13603 H 1341.16 0.745636 1.26802 0
M  V30 13604 H 1343.12 -0.430726 4.14971 0
M  V30 13605 H 1341.75 -0.887193 3.10369 0
M  V30 13606 H 1340.8 1.50085 3.49541 0
M  V30 13607 H 1342.11 1.76449 4.66548 0
M  V30 13608 H 1341.26 -0.129983 6.06561 0
M  V30 13609 H 1340 -0.488956 4.85243 0
M  V30 13610 H 1339.01 1.78977 5.19853 0
M  V30 13611 H 1340.23 2.13992 6.44503 0
M  V30 13612 H 1338.18 -0.101192 6.55922 0
M  V30 13613 H 1338.1 1.3949 7.4302 0
M  V30 13614 H 1339.36 0.261658 7.79061 0
M  V30 13615 N 1343.59 -1.35528 0.804364 0
M  V30 13616 C 1344.83 -2.00658 0.389299 0
M  V30 13617 C 1345.2 -1.62431 -1.02373 0
M  V30 13618 O 1346.4 -2.20264 -1.54068 0
M  V30 13619 C 1344.67 -3.52913 0.564569 0
M  V30 13620 S 1346.23 -4.38145 0.239597 0
M  V30 13621 H 1343.05 -0.695435 0.147958 0
M  V30 13622 H 1345.65 -1.65156 1.04613 0
M  V30 13623 H 1344.35 -3.78222 1.59299 0
M  V30 13624 H 1343.88 -3.93253 -0.10766 0
M  V30 13625 H 1345.9 -4.86952 -0.953533 0
M  V30 13626 N 1345.07 -0.557671 -1.47404 0
M  V30 13627 C 1346.48 -0.124411 -1.86285 0
M  V30 13628 C 1346.83 1.30593 -1.46424 0
M  V30 13629 O 1345.96 1.9825 -0.867515 0
M  V30 13630 C 1346.55 -0.219005 -3.38091 0
M  V30 13631 C 1345.11 0.159221 -3.76063 0
M  V30 13632 C 1344.26 -0.566355 -2.71455 0
M  V30 13633 H 1347.21 -0.767367 -1.38914 0
M  V30 13634 H 1347.23 0.562267 -3.76323 0
M  V30 13635 H 1346.74 -1.26013 -3.67073 0
M  V30 13636 H 1344.84 1.20144 -3.52698 0
M  V30 13637 H 1344.96 -0.199662 -4.78684 0
M  V30 13638 H 1343.32 -0.00938921 -2.54698 0
M  V30 13639 H 1344.1 -1.60865 -3.03278 0
M  V30 13640 N 1346.55 1.54831 -0.294147 0
M  V30 13641 C 1347.5 2.24707 0.600795 0
M  V30 13642 C 1348.49 1.25067 1.14257 0
M  V30 13643 O 1349.7 1.42939 1.094 0
M  V30 13644 H 1346.07 0.721399 0.212338 0
M  V30 13645 H 1348.04 2.98398 -0.0111682 0
M  V30 13646 C 1346.79 2.996 1.76451 0
M  V30 13647 H 1346.12 3.76072 1.35684 0
M  V30 13648 H 1347.56 3.51785 2.36692 0
M  V30 13649 C 1346.01 2.0617 2.6645 0
M  V30 13650 O 1346.54 1.62527 3.67353 0
M  V30 13651 N 1344.75 1.7227 2.34033 0
M  V30 13652 H 1344.3 2.07957 1.52025 0
M  V30 13653 H 1344.26 1.10031 2.94518 0
M  V30 13654 N 1348.03 0.0217466 1.57585 0
M  V30 13655 C 1348.98 -0.980624 2.10918 0
M  V30 13656 C 1349.97 -1.34178 1.03406 0
M  V30 13657 O 1351.18 -1.32487 1.21849 0
M  V30 13658 H 1347.55 -0.333984 0.673764 0
M  V30 13659 H 1349.52 -0.505431 2.94088 0
M  V30 13660 C 1348.27 -2.25639 2.64542 0
M  V30 13661 H 1347.59 -1.98722 3.46914 0
M  V30 13662 H 1349.03 -2.94003 3.05513 0
M  V30 13663 C 1347.49 -2.98111 1.56945 0
M  V30 13664 O 1348.02 -3.89937 0.964975 0
M  V30 13665 N 1346.23 -2.60316 1.29166 0
M  V30 13666 H 1345.78 -1.85722 1.78508 0
M  V30 13667 H 1345.73 -3.09116 0.573987 0
M  V30 13668 N 1349.51 -1.55583 -0.251311 0
M  V30 13669 C 1350.73 -1.81597 -1.00186 0
M  V30 13670 C 1351.16 -0.598216 -1.78334 0
M  V30 13671 O 1350.51 0.452667 -1.75558 0
M  V30 13672 C 1350.56 -3.05301 -1.91895 0
M  V30 13673 O 1349.67 -2.81907 -3.01002 0
M  V30 13674 H 1349.01 -0.599578 -0.285311 0
M  V30 13675 H 1351.54 -2.02762 -0.273638 0
M  V30 13676 H 1351.55 -3.34616 -2.33444 0
M  V30 13677 H 1350.22 -3.93574 -1.34433 0
M  V30 13678 H 1348.8 -2.63747 -2.63613 0
M  V30 13679 N 1350.98 0.516783 -1.48886 0
M  V30 13680 C 1352.23 1.26936 -1.57263 0
M  V30 13681 C 1352.55 1.93337 -0.254156 0
M  V30 13682 O 1351.82 1.81977 0.725345 0
M  V30 13683 H 1350.4 0.4715 -0.579393 0
M  V30 13684 H 1353.06 0.600289 -1.85425 0
M  V30 13685 H 1352.16 2.04167 -2.36055 0
M  V30 13686 N 1352.46 1.37696 0.766659 0
M  V30 13687 C 1353.39 1.2975 1.88938 0
M  V30 13688 C 1354.41 0.212278 1.6141 0
M  V30 13689 O 1355.6 0.468825 1.72233 0
M  V30 13690 C 1352.7 0.984553 3.24283 0
M  V30 13691 C 1351.87 2.17625 3.79418 0
M  V30 13692 C 1350.93 1.83279 4.9325 0
M  V30 13693 O 1349.95 2.55631 5.08568 0
M  V30 13694 N 1351.16 0.779941 5.75237 0
M  V30 13695 H 1353.92 2.26492 1.96269 0
M  V30 13696 H 1351.48 1.31387 0.946001 0
M  V30 13697 H 1353.47 0.735536 3.9796 0
M  V30 13698 H 1352.04 0.105527 3.12422 0
M  V30 13699 H 1351.26 2.58672 2.9746 0
M  V30 13700 H 1352.55 2.97187 4.12986 0
M  V30 13701 H 1351.95 0.179661 5.65415 0
M  V30 13702 H 1350.51 0.59079 6.49117 0
M  V30 13703 N 1353.94 -0.993397 1.22349 0
M  V30 13704 C 1355.16 -1.77373 1.07488 0
M  V30 13705 C 1355.59 -1.84418 -0.37034 0
M  V30 13706 O 1354.95 -1.29629 -1.26752 0
M  V30 13707 C 1355 -3.18538 1.69014 0
M  V30 13708 O 1354.1 -4.01463 0.943474 0
M  V30 13709 H 1353.44 -0.546209 0.37756 0
M  V30 13710 H 1355.97 -1.24792 1.62136 0
M  V30 13711 H 1355.98 -3.6917 1.73717 0
M  V30 13712 H 1354.66 -3.12725 2.74182 0
M  V30 13713 H 1353.23 -3.59998 0.972415 0
M  V30 13714 N 1355.42 -1.03311 -1.19015 0
M  V30 13715 C 1356.66 -0.742872 -1.89349 0
M  V30 13716 C 1357.02 0.721012 -1.78379 0
M  V30 13717 O 1356.31 1.51869 -1.16817 0
M  V30 13718 C 1356.51 -1.13402 -3.38932 0
M  V30 13719 C 1356.33 -2.63438 -3.64459 0
M  V30 13720 C 1355.1 -3.30473 -3.82251 0
M  V30 13721 C 1357.3 -3.61652 -3.65667 0
M  V30 13722 N 1355.28 -4.69569 -3.95447 0
M  V30 13723 C 1356.66 -4.86385 -3.84486 0
M  V30 13724 C 1358.71 -3.5539 -3.48715 0
M  V30 13725 C 1357.41 -6.05611 -3.88108 0
M  V30 13726 C 1359.44 -4.74035 -3.53617 0
M  V30 13727 C 1358.8 -5.97584 -3.72925 0
M  V30 13728 H 1354.9 -0.323772 -0.711826 0
M  V30 13729 H 1357.48 -1.32127 -1.43006 0
M  V30 13730 H 1355.66 -0.583786 -3.83988 0
M  V30 13731 H 1357.39 -0.795592 -3.96803 0
M  V30 13732 H 1354.14 -2.80882 -3.81317 0
M  V30 13733 H 1354.57 -5.41836 -4.05885 0
M  V30 13734 H 1359.21 -2.60852 -3.32741 0
M  V30 13735 H 1356.93 -7.00513 -4.02874 0
M  V30 13736 H 1360.51 -4.70823 -3.41786 0
M  V30 13737 H 1359.39 -6.87854 -3.76598 0
M  V30 13738 N 1356.9 1.35099 -0.81154 0
M  V30 13739 C 1357.83 2.28468 -0.183012 0
M  V30 13740 C 1358.84 1.50509 0.620553 0
M  V30 13741 O 1360.03 1.7268 0.4521 0
M  V30 13742 C 1357.13 3.30201 0.762933 0
M  V30 13743 C 1356.3 4.374 0.00466561 0
M  V30 13744 C 1355.36 5.18961 0.869832 0
M  V30 13745 O 1354.39 5.68306 0.318964 0
M  V30 13746 N 1355.59 5.37555 2.19123 0
M  V30 13747 H 1358.35 2.83046 -0.985132 0
M  V30 13748 H 1355.92 1.47502 -0.667449 0
M  V30 13749 H 1357.91 3.81659 1.34606 0
M  V30 13750 H 1356.48 2.76101 1.46584 0
M  V30 13751 H 1355.7 3.8681 -0.759702 0
M  V30 13752 H 1356.99 5.06159 -0.517739 0
M  V30 13753 H 1356.38 4.99118 2.66266 0
M  V30 13754 H 1354.94 5.92174 2.72348 0
M  V30 13755 N 1358.37 0.56548 1.47106 0
M  V30 13756 C 1359.79 0.225855 1.57994 0
M  V30 13757 C 1359.99 -1.27173 1.56299 0
M  V30 13758 O 1359.05 -2.05242 1.47078 0
M  V30 13759 C 1360.36 0.859829 2.88145 0
M  V30 13760 C 1361.91 0.831821 3.01744 0
M  V30 13761 C 1362.38 1.44502 4.34607 0
M  V30 13762 N 1363.87 1.40857 4.41263 0
M  V30 13763 C 1364.61 1.85258 5.42648 0
M  V30 13764 N 1364.1 2.37553 6.508 0
M  V30 13765 N 1365.9 1.76279 5.33744 0
M  V30 13766 H 1358.05 1.53837 1.46451 0
M  V30 13767 H 1360.31 0.642013 0.697512 0
M  V30 13768 H 1360.02 1.91264 2.95146 0
M  V30 13769 H 1359.89 0.357762 3.755 0
M  V30 13770 H 1362.28 -0.212319 2.94335 0
M  V30 13771 H 1362.36 1.37173 2.1591 0
M  V30 13772 H 1362 2.48827 4.42773 0
M  V30 13773 H 1361.93 0.880479 5.19187 0
M  V30 13774 H 1364.42 1.02614 3.63702 0
M  V30 13775 H 1364.74 2.69335 7.24347 0
M  V30 13776 H 1363.08 2.41569 6.51667 0
M  V30 13777 H 1366.27 1.35195 4.48152 0
M  V30 13778 H 1366.45 2.11199 6.12616 0
M  V30 13779 N 1359.85 -1.54672 0.302354 0
M  V30 13780 C 1361.1 -2.00167 -0.306524 0
M  V30 13781 C 1361.43 -1.19073 -1.53791 0
M  V30 13782 O 1360.68 -0.255328 -1.94027 0
M  V30 13783 C 1360.98 -3.5035 -0.70638 0
M  V30 13784 C 1360.65 -4.48907 0.423429 0
M  V30 13785 C 1359.31 -4.75575 0.733586 0
M  V30 13786 C 1361.66 -5.07588 1.18338 0
M  V30 13787 C 1358.99 -5.58186 1.80679 0
M  V30 13788 C 1361.34 -5.91367 2.24651 0
M  V30 13789 C 1360.01 -6.16345 2.56272 0
M  V30 13790 H 1359.28 -0.732462 -0.112165 0
M  V30 13791 H 1361.92 -1.86798 0.421732 0
M  V30 13792 H 1360.23 -3.61335 -1.51474 0
M  V30 13793 H 1361.92 -3.82977 -1.18869 0
M  V30 13794 H 1358.51 -4.28256 0.171591 0
M  V30 13795 H 1362.7 -4.86985 0.957018 0
M  V30 13796 H 1357.95 -5.75776 2.05649 0
M  V30 13797 H 1362.13 -6.35862 2.83994 0
M  V30 13798 H 1359.76 -6.80148 3.39563 0
M  V30 13799 N 1361.33 -0.0301034 -1.57571 0
M  V30 13800 C 1362.56 0.657533 -1.95857 0
M  V30 13801 C 1362.97 1.66138 -0.905244 0
M  V30 13802 O 1362.31 1.83299 0.12134 0
M  V30 13803 C 1362.37 1.41946 -3.3029 0
M  V30 13804 C 1362.04 0.573834 -4.53383 0
M  V30 13805 C 1363.03 -0.151282 -5.1968 0
M  V30 13806 C 1360.72 0.510947 -4.99695 0
M  V30 13807 C 1362.71 -0.927947 -6.30609 0
M  V30 13808 C 1360.4 -0.269422 -6.10506 0
M  V30 13809 C 1361.4 -0.987575 -6.75822 0
M  V30 13810 O 1361.09 -1.75515 -7.84506 0
M  V30 13811 H 1360.82 0.1861 -0.649879 0
M  V30 13812 H 1363.37 -0.0864526 -2.05218 0
M  V30 13813 H 1361.6 2.20861 -3.17423 0
M  V30 13814 H 1363.29 1.9953 -3.53472 0
M  V30 13815 H 1364.06 -0.112036 -4.84871 0
M  V30 13816 H 1359.94 1.05949 -4.4866 0
M  V30 13817 H 1363.48 -1.48901 -6.81524 0
M  V30 13818 H 1359.38 -0.310381 -6.44753 0
M  V30 13819 H 1360.15 -1.67503 -8.01177 0
M  V30 13820 N 1362.81 1.55714 0.243056 0
M  V30 13821 C 1363.74 1.87093 1.32396 0
M  V30 13822 C 1364.75 0.757482 1.44104 0
M  V30 13823 O 1365.94 1.03563 1.45386 0
M  V30 13824 C 1363.04 2.04546 2.70212 0
M  V30 13825 C 1362.22 3.3543 2.80723 0
M  V30 13826 C 1361.27 3.42578 3.99408 0
M  V30 13827 O 1360.3 4.15762 3.88755 0
M  V30 13828 N 1361.5 2.7215 5.12752 0
M  V30 13829 H 1364.27 2.80399 1.05813 0
M  V30 13830 H 1361.83 1.55998 0.433151 0
M  V30 13831 H 1363.82 2.06665 3.47954 0
M  V30 13832 H 1362.39 1.17966 2.89487 0
M  V30 13833 H 1361.61 3.45594 1.89626 0
M  V30 13834 H 1362.9 4.21692 2.84698 0
M  V30 13835 H 1362.3 2.1243 5.24299 0
M  V30 13836 H 1360.85 2.79957 5.88615 0
M  V30 13837 N 1364.29 -0.50888 1.49158 0
M  V30 13838 C 1365.22 -1.62008 1.68154 0
M  V30 13839 C 1366.2 -1.61624 0.53025 0
M  V30 13840 O 1367.38 -1.78489 0.765205 0
M  V30 13841 C 1364.51 -3.00525 1.74075 0
M  V30 13842 C 1363.47 -3.15773 2.88915 0
M  V30 13843 C 1362.79 -4.55562 2.79942 0
M  V30 13844 C 1364.09 -2.96542 4.29953 0
M  V30 13845 H 1365.79 -1.46365 2.61185 0
M  V30 13846 H 1363.33 -0.702705 1.2569 0
M  V30 13847 H 1365.29 -3.78154 1.8595 0
M  V30 13848 H 1364.01 -3.17238 0.776373 0
M  V30 13849 H 1362.67 -2.40567 2.76628 0
M  V30 13850 H 1362.32 -4.6914 1.81429 0
M  V30 13851 H 1362.02 -4.66706 3.57015 0
M  V30 13852 H 1363.54 -5.35262 2.93814 0
M  V30 13853 H 1364.95 -3.63947 4.42963 0
M  V30 13854 H 1363.35 -3.19164 5.08187 0
M  V30 13855 H 1364.42 -1.92745 4.44946 0
M  V30 13856 N 1365.76 -1.381 -0.759346 0
M  V30 13857 C 1366.99 -1.37213 -1.54855 0
M  V30 13858 C 1367.41 0.0395175 -1.88759 0
M  V30 13859 O 1366.76 1.00462 -1.5236 0
M  V30 13860 C 1366.82 -2.22232 -2.85123 0
M  V30 13861 O 1366.54 -3.57897 -2.52668 0
M  V30 13862 C 1368.04 -2.29461 -3.79292 0
M  V30 13863 H 1365.26 -0.469542 -0.479345 0
M  V30 13864 H 1367.8 -1.81604 -0.940216 0
M  V30 13865 H 1365.96 -1.81317 -3.42349 0
M  V30 13866 H 1366.37 -4.02599 -3.36176 0
M  V30 13867 H 1367.84 -2.93246 -4.67665 0
M  V30 13868 H 1368.32 -1.3066 -4.19315 0
M  V30 13869 H 1368.93 -2.70741 -3.27993 0
M  V30 13870 N 1367.24 0.986894 -1.22875 0
M  V30 13871 C 1368.19 2.07811 -1.00416 0
M  V30 13872 C 1369.16 1.65925 0.0761734 0
M  V30 13873 O 1370.34 1.90654 -0.0746294 0
M  V30 13874 C 1367.48 3.39941 -0.594471 0
M  V30 13875 C 1366.6 3.95134 -1.74622 0
M  V30 13876 C 1365.73 5.1545 -1.28394 0
M  V30 13877 C 1364.77 5.62794 -2.40686 0
M  V30 13878 N 1363.91 6.74343 -1.95462 0
M  V30 13879 H 1368.75 2.26356 -1.93822 0
M  V30 13880 H 1366.29 1.10966 -0.965661 0
M  V30 13881 H 1368.24 4.15828 -0.338078 0
M  V30 13882 H 1366.87 3.21379 0.302587 0
M  V30 13883 H 1365.93 3.16064 -2.11679 0
M  V30 13884 H 1367.24 4.26247 -2.59066 0
M  V30 13885 H 1366.39 5.98646 -0.98529 0
M  V30 13886 H 1365.13 4.85975 -0.409789 0
M  V30 13887 H 1364.14 4.78182 -2.71333 0
M  V30 13888 H 1365.36 5.9429 -3.28627 0
M  V30 13889 H 1363.31 6.46641 -1.10417 0
M  V30 13890 H 1363.22 7.04806 -2.73469 0
M  V30 13891 H 1364.49 7.6103 -1.68683 0
M  V30 13892 N 1368.72 1.0394 1.18466 0
M  V30 13893 C 1369.65 0.650182 2.24265 0
M  V30 13894 C 1370.63 -0.345968 1.66545 0
M  V30 13895 O 1371.82 -0.226348 1.92876 0
M  V30 13896 C 1368.95 0.0110451 3.47298 0
M  V30 13897 C 1367.9 0.930599 4.17761 0
M  V30 13898 C 1367.23 0.156005 5.34472 0
M  V30 13899 C 1368.53 2.24913 4.71393 0
M  V30 13900 H 1370.22 1.53465 2.57078 0
M  V30 13901 H 1367.77 0.739343 1.23571 0
M  V30 13902 H 1369.72 -0.272959 4.20515 0
M  V30 13903 H 1368.44 -0.908288 3.13716 0
M  V30 13904 H 1367.1 1.19897 3.4644 0
M  V30 13905 H 1366.75 -0.765695 4.97138 0
M  V30 13906 H 1366.45 0.768606 5.82551 0
M  V30 13907 H 1367.97 -0.121011 6.1048 0
M  V30 13908 H 1369.39 2.02592 5.36311 0
M  V30 13909 H 1367.79 2.81459 5.30001 0
M  V30 13910 H 1368.86 2.8965 3.88884 0
M  V30 13911 N 1370.2 -1.34667 0.818693 0
M  V30 13912 C 1371.13 -2.32134 0.252239 0
M  V30 13913 C 1372.11 -1.58044 -0.628982 0
M  V30 13914 O 1373.29 -1.86049 -0.55674 0
M  V30 13915 C 1370.42 -3.42249 -0.590183 0
M  V30 13916 C 1369.38 -4.27562 0.193547 0
M  V30 13917 C 1368.7 -5.29107 -0.771349 0
M  V30 13918 C 1370 -5.03205 1.39936 0
M  V30 13919 H 1371.7 -2.79758 1.06657 0
M  V30 13920 H 1369.24 -1.34502 0.514325 0
M  V30 13921 H 1371.2 -4.09445 -0.996616 0
M  V30 13922 H 1369.92 -2.93262 -1.43752 0
M  V30 13923 H 1368.58 -3.61962 0.581297 0
M  V30 13924 H 1368.23 -4.76384 -1.61453 0
M  V30 13925 H 1367.93 -5.87063 -0.251201 0
M  V30 13926 H 1369.45 -5.99174 -1.17573 0
M  V30 13927 H 1370.87 -5.6328 1.06717 0
M  V30 13928 H 1369.26 -5.70715 1.85485 0
M  V30 13929 H 1370.33 -4.33145 2.17976 0
M  V30 13930 N 1371.68 -0.573274 -1.46804 0
M  V30 13931 C 1372.95 0.011163 -1.95597 0
M  V30 13932 C 1373.33 1.4691 -1.51594 0
M  V30 13933 O 1372.68 2.15413 -0.76221 0
M  V30 13934 C 1372.89 -0.151045 -3.48673 0
M  V30 13935 C 1374.24 -0.0139817 -4.24598 0
M  V30 13936 O 1375.26 -0.0794008 -3.56111 0
M  V30 13937 O 1374.12 0.129547 -5.46346 0
M  V30 13938 H 1371.22 0.0551258 -0.825161 0
M  V30 13939 H 1373.76 -0.640928 -1.57131 0
M  V30 13940 H 1372.53 -1.16494 -3.73557 0
M  V30 13941 H 1372.16 0.537917 -3.93944 0
M  V30 13942 N 1373.15 1.5451 -0.310553 0
M  V30 13943 C 1374.38 2.05204 0.301013 0
M  V30 13944 C 1374.8 1.1859 1.46007 0
M  V30 13945 O 1374.16 0.192081 1.8028 0
M  V30 13946 C 1374.21 3.53221 0.725767 0
M  V30 13947 O 1373.31 3.69596 1.82955 0
M  V30 13948 H 1372.66 0.661566 0.0568026 0
M  V30 13949 H 1375.19 1.99473 -0.455178 0
M  V30 13950 H 1375.2 3.9525 1.01198 0
M  V30 13951 H 1373.87 4.15721 -0.122046 0
M  V30 13952 H 1372.45 3.39472 1.54315 0
M  V30 13953 N 1374.63 0.0384594 1.57553 0
M  V30 13954 C 1375.57 -0.975285 2.06309 0
M  V30 13955 C 1376.54 -1.31174 0.96084 0
M  V30 13956 O 1377.73 -1.4268 1.23185 0
M  V30 13957 C 1374.86 -2.29279 2.49297 0
M  V30 13958 C 1373.9 -2.11028 3.70634 0
M  V30 13959 S 1374.73 -1.40043 5.16864 0
M  V30 13960 C 1375.89 -2.73143 5.63155 0
M  V30 13961 H 1376.12 -0.560293 2.91973 0
M  V30 13962 H 1373.66 -0.173479 1.53422 0
M  V30 13963 H 1375.61 -3.05016 2.74728 0
M  V30 13964 H 1374.28 -2.67909 1.63962 0
M  V30 13965 H 1373.47 -3.08451 3.9859 0
M  V30 13966 H 1373.07 -1.43433 3.45403 0
M  V30 13967 H 1375.36 -3.69354 5.67965 0
M  V30 13968 H 1376.31 -2.49839 6.6256 0
M  V30 13969 H 1376.71 -2.78819 4.90836 0
M  V30 13970 N 1376.11 -1.55841 -0.234795 0
M  V30 13971 C 1377.06 -1.8772 -1.29403 0
M  V30 13972 C 1378.05 -0.739087 -1.42921 0
M  V30 13973 O 1379.24 -1.00125 -1.45959 0
M  V30 13974 C 1376.37 -2.18592 -2.64712 0
M  V30 13975 C 1375.45 -3.38761 -2.55151 0
M  V30 13976 N 1375.84 -4.57723 -2.15229 0
M  V30 13977 C 1374.14 -3.42112 -2.86138 0
M  V30 13978 C 1374.84 -5.39872 -2.16595 0
M  V30 13979 N 1373.82 -4.79242 -2.5657 0
M  V30 13980 H 1377.62 -2.77219 -0.976067 0
M  V30 13981 H 1375.13 -1.5623 -0.443396 0
M  V30 13982 H 1377.13 -2.39599 -3.41171 0
M  V30 13983 H 1375.79 -1.30398 -2.97366 0
M  V30 13984 H 1376.8 -4.83126 -1.86575 0
M  V30 13985 H 1373.48 -2.64224 -3.23252 0
M  V30 13986 H 1374.87 -6.45072 -1.87967 0
M  V30 13987 N 1377.59 0.500963 -1.49426 0
M  V30 13988 C 1378.87 1.26231 -1.49416 0
M  V30 13989 C 1379.25 2.0993 -0.221908 0
M  V30 13990 O 1378.59 2.14198 0.795712 0
M  V30 13991 C 1378.8 2.11899 -2.77308 0
M  V30 13992 C 1380.15 2.71086 -3.26799 0
M  V30 13993 O 1381.18 2.22166 -2.78425 0
M  V30 13994 O 1380.04 3.60141 -4.11049 0
M  V30 13995 H 1377.13 0.571224 -0.598024 0
M  V30 13996 H 1379.68 0.51523 -1.61689 0
M  V30 13997 H 1378.45 1.50027 -3.61397 0
M  V30 13998 H 1378.07 2.93799 -2.67896 0
M  V30 13999 N 1379.07 1.38501 0.752011 0
M  V30 14000 C 1380 1.38577 1.87933 0
M  V30 14001 C 1380.98 0.251454 1.68231 0
M  V30 14002 O 1382.16 0.45477 1.888 0
M  V30 14003 C 1379.29 1.21164 3.25479 0
M  V30 14004 C 1378.25 2.31816 3.59785 0
M  V30 14005 C 1377.57 1.99508 4.96085 0
M  V30 14006 C 1378.87 3.74082 3.645 0
M  V30 14007 H 1380.57 2.32913 1.88127 0
M  V30 14008 H 1378.11 1.12113 0.903698 0
M  V30 14009 H 1380.07 1.19842 4.04 0
M  V30 14010 H 1378.79 0.232899 3.25769 0
M  V30 14011 H 1377.45 2.32327 2.83584 0
M  V30 14012 H 1377.1 1.00114 4.92936 0
M  V30 14013 H 1376.8 2.73617 5.20007 0
M  V30 14014 H 1378.32 1.99807 5.76983 0
M  V30 14015 H 1379.74 3.75593 4.33131 0
M  V30 14016 H 1378.13 4.47409 3.99931 0
M  V30 14017 H 1379.2 4.06284 2.64692 0
M  V30 14018 N 1380.55 -0.980364 1.23396 0
M  V30 14019 C 1381.79 -1.72421 1.06765 0
M  V30 14020 C 1382.12 -1.90151 -0.394515 0
M  V30 14021 O 1381.4 -1.4538 -1.29209 0
M  V30 14022 C 1381.68 -3.12246 1.79372 0
M  V30 14023 C 1381.54 -3.02087 3.33262 0
M  V30 14024 C 1382.85 -4.11667 1.55624 0
M  V30 14025 H 1379.97 -0.625822 0.389251 0
M  V30 14026 H 1382.62 -1.14132 1.51901 0
M  V30 14027 H 1380.77 -3.62008 1.41004 0
M  V30 14028 H 1382.44 -2.59848 3.81152 0
M  V30 14029 H 1380.68 -2.38592 3.62293 0
M  V30 14030 H 1381.35 -4.01087 3.79254 0
M  V30 14031 H 1383.83 -3.70712 1.88975 0
M  V30 14032 H 1382.7 -5.07593 2.08902 0
M  V30 14033 H 1382.96 -4.39358 0.491601 0
M  V30 14034 N 1382.02 -1.04567 -1.17913 0
M  V30 14035 C 1383.25 -0.772146 -1.92491 0
M  V30 14036 C 1383.67 0.665297 -1.75942 0
M  V30 14037 O 1383.03 1.46144 -1.07292 0
M  V30 14038 C 1383.08 -1.14966 -3.41782 0
M  V30 14039 O 1382.18 -0.278091 -4.11461 0
M  V30 14040 H 1381.52 -0.283715 -0.600335 0
M  V30 14041 H 1384.05 -1.39685 -1.49496 0
M  V30 14042 H 1384.06 -1.11374 -3.92505 0
M  V30 14043 H 1382.74 -2.1968 -3.53148 0
M  V30 14044 H 1381.32 -0.374073 -3.71019 0
M  V30 14045 N 1383.5 1.34231 -0.825823 0
M  V30 14046 C 1384.78 1.92662 -0.337743 0
M  V30 14047 C 1385.16 1.75358 1.17529 0
M  V30 14048 O 1384.51 1.13405 1.98372 0
M  V30 14049 C 1384.72 3.40394 -0.770269 0
M  V30 14050 C 1386.06 4.17546 -0.770767 0
M  V30 14051 O 1387.09 3.4899 -0.713035 0
M  V30 14052 O 1385.95 5.39903 -0.846602 0
M  V30 14053 H 1383.04 0.821768 -0.0928741 0
M  V30 14054 H 1385.59 1.43187 -0.910807 0
M  V30 14055 H 1384.36 3.46802 -1.81228 0
M  V30 14056 H 1383.98 3.97223 -0.17306 0
M  V30 14057 N 1384.98 0.581051 1.46498 0
M  V30 14058 C 1385.91 -0.140957 2.33074 0
M  V30 14059 C 1386.89 -0.885323 1.45245 0
M  V30 14060 O 1388.08 -0.86111 1.74065 0
M  V30 14061 C 1385.21 -1.15625 3.27488 0
M  V30 14062 C 1384.16 -0.526829 4.24745 0
M  V30 14063 C 1383.49 -1.64847 5.08655 0
M  V30 14064 C 1384.79 0.53492 5.19554 0
M  V30 14065 H 1386.48 0.581888 2.93691 0
M  V30 14066 H 1384.03 0.281278 1.41226 0
M  V30 14067 H 1385.98 -1.6697 3.8691 0
M  V30 14068 H 1384.7 -1.90935 2.64974 0
M  V30 14069 H 1383.36 -0.0344738 3.66584 0
M  V30 14070 H 1383.01 -2.3912 4.42528 0
M  V30 14071 H 1382.71 -1.23298 5.74518 0
M  V30 14072 H 1384.23 -2.16472 5.7094 0
M  V30 14073 H 1385.65 0.106606 5.73201 0
M  V30 14074 H 1384.04 0.870639 5.93751 0
M  V30 14075 H 1385.11 1.42184 4.63586 0
M  V30 14076 N 1386.46 -1.54343 0.318742 0
M  V30 14077 C 1387.39 -2.27118 -0.542206 0
M  V30 14078 C 1388.37 -1.27731 -1.12334 0
M  V30 14079 O 1389.55 -1.56535 -1.14937 0
M  V30 14080 C 1386.68 -3.02535 -1.70558 0
M  V30 14081 C 1385.64 -4.09218 -1.25398 0
M  V30 14082 C 1384.96 -4.72449 -2.50391 0
M  V30 14083 C 1386.26 -5.20971 -0.372332 0
M  V30 14084 H 1387.96 -2.9933 0.0648226 0
M  V30 14085 H 1385.5 -1.43963 0.0326168 0
M  V30 14086 H 1387.46 -3.52174 -2.31412 0
M  V30 14087 H 1386.18 -2.27931 -2.33912 0
M  V30 14088 H 1384.84 -3.60455 -0.668392 0
M  V30 14089 H 1384.49 -3.94466 -3.12099 0
M  V30 14090 H 1384.19 -5.4451 -2.20868 0
M  V30 14091 H 1385.71 -5.2486 -3.12016 0
M  V30 14092 H 1387.13 -5.66396 -0.887029 0
M  V30 14093 H 1385.52 -5.99859 -0.17009 0
M  V30 14094 H 1386.59 -4.81198 0.598064 0
M  V30 14095 N 1387.94 -0.0468143 -1.5753 0
M  V30 14096 C 1388.85 0.944362 -2.14753 0
M  V30 14097 C 1389.86 1.34473 -1.10422 0
M  V30 14098 O 1391.04 1.42254 -1.42569 0
M  V30 14099 C 1388.1 2.2023 -2.67768 0
M  V30 14100 C 1387.16 1.8607 -3.8688 0
M  V30 14101 C 1386.4 3.05867 -4.37357 0
M  V30 14102 O 1386.62 4.19099 -3.86927 0
M  V30 14103 O 1385.55 2.87134 -5.28997 0
M  V30 14104 H 1389.38 0.48772 -2.99758 0
M  V30 14105 H 1386.96 0.174831 -1.48374 0
M  V30 14106 H 1388.85 2.94044 -3.01855 0
M  V30 14107 H 1387.52 2.65041 -1.85836 0
M  V30 14108 H 1386.43 1.09586 -3.5769 0
M  V30 14109 H 1387.76 1.46062 -4.70028 0
M  V30 14110 N 1389.41 1.55964 0.226527 0
M  V30 14111 C 1390.66 1.78745 0.95165 0
M  V30 14112 C 1390.99 0.614714 1.84531 0
M  V30 14113 O 1390.24 -0.401137 1.91545 0
M  V30 14114 C 1390.54 3.07235 1.82597 0
M  V30 14115 C 1390.21 4.37627 1.08596 0
M  V30 14116 C 1388.87 4.73057 0.881531 0
M  V30 14117 C 1391.22 5.1815 0.563019 0
M  V30 14118 C 1388.55 5.86528 0.142172 0
M  V30 14119 C 1390.9 6.3239 -0.162972 0
M  V30 14120 C 1389.57 6.66425 -0.378704 0
M  V30 14121 H 1388.84 0.654075 0.348233 0
M  V30 14122 H 1391.48 1.9023 0.220187 0
M  V30 14123 H 1389.79 2.9085 2.62514 0
M  V30 14124 H 1391.49 3.22063 2.38907 0
M  V30 14125 H 1388.08 4.09806 1.25527 0
M  V30 14126 H 1392.26 4.91218 0.708446 0
M  V30 14127 H 1387.52 6.1139 -0.0352481 0
M  V30 14128 H 1391.69 6.94016 -0.575719 0
M  V30 14129 H 1389.32 7.54196 -0.953549 0
M  V30 14130 N 1390.89 -0.493031 1.4969 0
M  V30 14131 C 1392.13 -1.25673 1.61201 0
M  V30 14132 C 1392.5 -1.8971 0.295685 0
M  V30 14133 O 1393.7 -2.67274 0.286046 0
M  V30 14134 C 1391.97 -2.28923 2.74462 0
M  V30 14135 S 1393.53 -3.14525 3.05973 0
M  V30 14136 H 1390.35 -0.426985 0.568511 0
M  V30 14137 H 1392.95 -0.557497 1.87383 0
M  V30 14138 H 1391.65 -1.80421 3.68614 0
M  V30 14139 H 1391.18 -3.03504 2.50298 0
M  V30 14140 H 1393.2 -4.29717 2.48108 0
M  V30 14141 N 1392.37 -1.38898 -0.744656 0
M  V30 14142 C 1393.62 -1.35595 -1.50401 0
M  V30 14143 C 1393.95 0.0511979 -1.94433 0
M  V30 14144 O 1393.2 1.03011 -1.66395 0
M  V30 14145 C 1393.5 -2.2658 -2.76398 0
M  V30 14146 C 1393.17 -3.74389 -2.51283 0
M  V30 14147 C 1391.83 -4.14666 -2.44143 0
M  V30 14148 C 1394.18 -4.67916 -2.29573 0
M  V30 14149 C 1391.51 -5.46545 -2.1332 0
M  V30 14150 C 1393.86 -6.00063 -2.00269 0
M  V30 14151 C 1392.52 -6.39413 -1.91591 0
M  V30 14152 H 1391.79 -0.496176 -0.550355 0
M  V30 14153 H 1394.44 -1.71328 -0.855514 0
M  V30 14154 H 1392.75 -1.83933 -3.45942 0
M  V30 14155 H 1394.44 -2.21323 -3.34391 0
M  V30 14156 H 1391.03 -3.42463 -2.57715 0
M  V30 14157 H 1395.22 -4.37639 -2.34063 0
M  V30 14158 H 1390.47 -5.75966 -2.05117 0
M  V30 14159 H 1394.65 -6.72068 -1.82476 0
M  V30 14160 H 1392.27 -7.41524 -1.67472 0
M  V30 14161 N 1393.85 0.973806 -1.23914 0
M  V30 14162 C 1395.08 1.74853 -1.10046 0
M  V30 14163 C 1395.49 1.85927 0.350388 0
M  V30 14164 O 1394.83 1.34252 1.25388 0
M  V30 14165 C 1394.89 3.18919 -1.65924 0
M  V30 14166 C 1394.56 3.31335 -3.14748 0
M  V30 14167 C 1395.55 3.17141 -4.11968 0
M  V30 14168 C 1393.24 3.55772 -3.54587 0
M  V30 14169 C 1395.23 3.27199 -5.47009 0
M  V30 14170 C 1392.92 3.65468 -4.89771 0
M  V30 14171 C 1393.92 3.51193 -5.85792 0
M  V30 14172 O 1393.6 3.60534 -7.18519 0
M  V30 14173 H 1393.34 0.555345 -0.385445 0
M  V30 14174 H 1395.89 1.23168 -1.64374 0
M  V30 14175 H 1394.12 3.71882 -1.06023 0
M  V30 14176 H 1395.81 3.78177 -1.47434 0
M  V30 14177 H 1396.58 2.98153 -3.82531 0
M  V30 14178 H 1392.45 3.65951 -2.80358 0
M  V30 14179 H 1396 3.15974 -6.21937 0
M  V30 14180 H 1391.9 3.83969 -5.18882 0
M  V30 14181 H 1392.66 3.77288 -7.26358 0
M  V30 14182 N 1395.33 1.05191 1.17357 0
M  V30 14183 C 1396.55 0.782373 1.91537 0
M  V30 14184 C 1396.97 -0.661935 1.76816 0
M  V30 14185 O 1396.33 -1.45221 1.10531 0
M  V30 14186 C 1396.38 1.15357 3.426 0
M  V30 14187 O 1396.1 2.54119 3.56869 0
M  V30 14188 C 1397.6 0.910167 4.33856 0
M  V30 14189 H 1394.82 0.284461 0.607719 0
M  V30 14190 H 1397.36 1.40259 1.48821 0
M  V30 14191 H 1395.52 0.578107 3.83062 0
M  V30 14192 H 1395.93 2.68668 4.50464 0
M  V30 14193 H 1397.41 1.21964 5.38358 0
M  V30 14194 H 1397.88 -0.154624 4.38928 0
M  V30 14195 H 1398.49 1.46947 3.99107 0
M  V30 14196 N 1396.8 -1.33791 0.83293 0
M  V30 14197 C 1398.05 -1.97973 0.425781 0
M  V30 14198 C 1398.38 -1.66003 -1.01357 0
M  V30 14199 O 1397.63 -0.929016 -1.72243 0
M  V30 14200 C 1397.93 -3.52555 0.586485 0
M  V30 14201 C 1397.6 -4.04461 1.99304 0
M  V30 14202 C 1396.26 -4.18347 2.37779 0
M  V30 14203 C 1398.61 -4.3226 2.91206 0
M  V30 14204 C 1395.94 -4.57364 3.67471 0
M  V30 14205 C 1398.29 -4.72727 4.20371 0
M  V30 14206 C 1396.96 -4.84819 4.5881 0
M  V30 14207 H 1396.23 -0.724435 0.155804 0
M  V30 14208 H 1398.87 -1.59567 1.05881 0
M  V30 14209 H 1397.18 -3.91585 -0.129885 0
M  V30 14210 H 1398.88 -4.00208 0.251835 0
M  V30 14211 H 1395.47 -3.94122 1.68421 0
M  V30 14212 H 1399.65 -4.2106 2.6272 0
M  V30 14213 H 1394.91 -4.64918 3.97065 0
M  V30 14214 H 1399.08 -4.93194 4.91663 0
M  V30 14215 H 1396.71 -5.14809 5.59353 0
M  V30 14216 N 1398.28 -0.588812 -1.46187 0
M  V30 14217 C 1399.7 -0.250962 -1.57615 0
M  V30 14218 C 1399.9 1.2467 -1.58302 0
M  V30 14219 O 1398.95 2.02876 -1.50325 0
M  V30 14220 C 1400.27 -0.905561 -2.8674 0
M  V30 14221 C 1401.82 -0.879721 -3.00383 0
M  V30 14222 C 1402.29 -1.51398 -4.32253 0
M  V30 14223 N 1403.78 -1.4786 -4.38967 0
M  V30 14224 C 1404.52 -1.93868 -5.39632 0
M  V30 14225 N 1404.01 -2.47876 -6.46938 0
M  V30 14226 N 1405.81 -1.84748 -5.30872 0
M  V30 14227 H 1397.96 -1.56148 -1.43985 0
M  V30 14228 H 1400.22 -0.653028 -0.68721 0
M  V30 14229 H 1399.93 -1.95935 -2.92066 0
M  V30 14230 H 1399.8 -0.417456 -3.74883 0
M  V30 14231 H 1402.19 0.165466 -2.94636 0
M  V30 14232 H 1402.27 -1.40591 -2.137 0
M  V30 14233 H 1401.91 -2.55839 -4.38758 0
M  V30 14234 H 1401.84 -0.962965 -5.17721 0
M  V30 14235 H 1404.33 -1.08387 -3.62023 0
M  V30 14236 H 1404.65 -2.80824 -7.1997 0
M  V30 14237 H 1402.99 -2.51905 -6.47741 0
M  V30 14238 H 1406.18 -1.42307 -4.45944 0
M  V30 14239 H 1406.35 -2.20919 -6.09179 0
M  V30 14240 N 1399.76 1.54172 -0.326923 0
M  V30 14241 C 1400.67 2.28149 0.546351 0
M  V30 14242 C 1401.69 1.32628 1.12631 0
M  V30 14243 O 1402.86 1.65647 1.14556 0
M  V30 14244 C 1399.93 3.02742 1.68962 0
M  V30 14245 C 1398.99 4.13856 1.14112 0
M  V30 14246 C 1398.22 4.84882 2.2299 0
M  V30 14247 O 1398.44 4.55448 3.43399 0
M  V30 14248 O 1397.38 5.71714 1.8822 0
M  V30 14249 H 1401.2 3.03651 -0.0545288 0
M  V30 14250 H 1398.79 1.49113 -0.0925027 0
M  V30 14251 H 1400.67 3.49443 2.35515 0
M  V30 14252 H 1399.35 2.30113 2.27662 0
M  V30 14253 H 1398.25 3.71497 0.440579 0
M  V30 14254 H 1399.59 4.88539 0.599211 0
M  V30 14255 N 1401.24 0.0551678 1.57503 0
M  V30 14256 C 1402.46 -0.630692 1.97578 0
M  V30 14257 C 1402.89 -1.63348 0.932686 0
M  V30 14258 O 1402.25 -1.81004 -0.103632 0
M  V30 14259 C 1402.29 -1.29049 3.36718 0
M  V30 14260 O 1401.4 -2.40621 3.34926 0
M  V30 14261 H 1400.74 -0.163625 0.643524 0
M  V30 14262 H 1403.27 0.124753 2.04219 0
M  V30 14263 H 1403.28 -1.64124 3.73534 0
M  V30 14264 H 1401.95 -0.55559 4.12172 0
M  V30 14265 H 1400.53 -2.07463 3.0986 0
M  V30 14266 N 1402.72 -1.56081 -0.218252 0
M  V30 14267 C 1403.67 -1.89082 -1.27405 0
M  V30 14268 C 1404.65 -0.754204 -1.42129 0
M  V30 14269 O 1405.84 -1.01668 -1.44888 0
M  V30 14270 C 1402.97 -2.21387 -2.62379 0
M  V30 14271 C 1402.06 -3.41448 -2.51543 0
M  V30 14272 N 1402.45 -4.5998 -2.10362 0
M  V30 14273 C 1400.75 -3.45128 -2.82494 0
M  V30 14274 C 1401.45 -5.42139 -2.10857 0
M  V30 14275 N 1400.42 -4.81936 -2.51472 0
M  V30 14276 H 1404.23 -2.78238 -0.946609 0
M  V30 14277 H 1401.74 -1.56691 -0.426801 0
M  V30 14278 H 1403.74 -2.43205 -3.38611 0
M  V30 14279 H 1402.4 -1.33545 -2.95966 0
M  V30 14280 H 1403.41 -4.85077 -1.8144 0
M  V30 14281 H 1400.08 -2.67638 -3.20431 0
M  V30 14282 H 1401.47 -6.47029 -1.81114 0
M  V30 14283 N 1404.2 0.485086 -1.49949 0
M  V30 14284 C 1405.16 1.56713 -1.67253 0
M  V30 14285 C 1406.16 1.51329 -0.543701 0
M  V30 14286 O 1407.35 1.54198 -0.810472 0
M  V30 14287 C 1404.48 2.9636 -1.68475 0
M  V30 14288 H 1405.67 1.42693 -2.63778 0
M  V30 14289 H 1403.23 0.710473 -1.39219 0
M  V30 14290 H 1403.96 3.1584 -0.735924 0
M  V30 14291 H 1403.75 3.01675 -2.50469 0
M  V30 14292 H 1405.24 3.74945 -1.83865 0
M  V30 14293 N 1405.67 1.39291 0.737279 0
M  V30 14294 C 1406.6 1.40562 1.86452 0
M  V30 14295 C 1407.58 0.269283 1.67955 0
M  V30 14296 O 1408.77 0.474769 1.88307 0
M  V30 14297 C 1405.9 1.2461 3.24175 0
M  V30 14298 C 1404.85 2.35619 3.57306 0
M  V30 14299 C 1404.18 2.04758 4.93941 0
M  V30 14300 C 1405.48 3.77927 3.60512 0
M  V30 14301 H 1407.17 2.34896 1.85646 0
M  V30 14302 H 1404.72 1.13065 0.891756 0
M  V30 14303 H 1406.67 1.2412 4.02706 0
M  V30 14304 H 1405.4 0.267438 3.25503 0
M  V30 14305 H 1404.06 2.35322 2.81104 0
M  V30 14306 H 1403.7 1.05336 4.91847 0
M  V30 14307 H 1403.4 2.79117 5.17076 0
M  V30 14308 H 1404.93 2.05915 5.74832 0
M  V30 14309 H 1406.34 3.80166 4.29123 0
M  V30 14310 H 1404.74 4.51626 3.95164 0
M  V30 14311 H 1405.81 4.09068 2.60368 0
M  V30 14312 N 1407.15 -0.967221 1.24429 0
M  V30 14313 C 1408.1 -2.06187 1.03709 0
M  V30 14314 C 1409.07 -1.66025 -0.0497665 0
M  V30 14315 O 1410.25 -1.90511 0.104951 0
M  V30 14316 C 1407.39 -3.38952 0.648477 0
M  V30 14317 C 1406.51 -3.92306 1.80886 0
M  V30 14318 C 1405.64 -5.13342 1.36579 0
M  V30 14319 C 1404.68 -5.58893 2.49609 0
M  V30 14320 N 1403.82 -6.71148 2.06165 0
M  V30 14321 H 1408.66 -2.23244 1.97399 0
M  V30 14322 H 1406.19 -1.09415 0.983192 0
M  V30 14323 H 1408.15 -4.15237 0.40419 0
M  V30 14324 H 1406.78 -3.21819 -0.25142 0
M  V30 14325 H 1405.83 -3.12656 2.1668 0
M  V30 14326 H 1407.15 -4.22071 2.65815 0
M  V30 14327 H 1406.3 -5.97003 1.0804 0
M  V30 14328 H 1405.04 -4.85262 0.487051 0
M  V30 14329 H 1404.04 -4.73805 2.78906 0
M  V30 14330 H 1405.27 -5.88987 3.3804 0
M  V30 14331 H 1403.22 -6.44802 1.20691 0
M  V30 14332 H 1403.13 -7.00366 2.84647 0
M  V30 14333 H 1404.4 -7.5825 1.80769 0
M  V30 14334 N 1408.63 -1.05812 -1.16797 0
M  V30 14335 C 1409.88 -0.773066 -1.87487 0
M  V30 14336 C 1410.21 0.698471 -1.81204 0
M  V30 14337 O 1409.48 1.51129 -1.22434 0
M  V30 14338 C 1409.77 -1.2621 -3.37258 0
M  V30 14339 C 1409.62 -2.79704 -3.52258 0
M  V30 14340 C 1410.94 -0.866104 -4.31494 0
M  V30 14341 H 1408.06 -0.282304 -0.680789 0
M  V30 14342 H 1410.7 -1.3132 -1.37314 0
M  V30 14343 H 1408.85 -0.802608 -3.80119 0
M  V30 14344 H 1410.52 -3.33824 -3.1837 0
M  V30 14345 H 1408.76 -3.18673 -2.94329 0
M  V30 14346 H 1409.44 -3.08985 -4.57419 0
M  V30 14347 H 1411.91 -1.26178 -3.96508 0
M  V30 14348 H 1410.79 -1.23581 -5.34807 0
M  V30 14349 H 1411.05 0.229391 -4.41504 0
M  V30 14350 N 1410.11 1.33347 -0.840014 0
M  V30 14351 C 1411.02 2.32965 -0.276527 0
M  V30 14352 C 1412.03 1.634 0.598037 0
M  V30 14353 O 1413.21 1.95046 0.501888 0
M  V30 14354 C 1410.27 3.42498 0.53816 0
M  V30 14355 C 1409.34 4.27781 -0.360814 0
M  V30 14356 C 1408.57 5.32083 0.415085 0
M  V30 14357 O 1408.79 5.46115 1.64666 0
M  V30 14358 O 1407.73 6.01528 -0.211503 0
M  V30 14359 H 1411.55 2.83022 -1.10147 0
M  V30 14360 H 1409.14 1.3671 -0.602566 0
M  V30 14361 H 1411.02 4.09336 1.00108 0
M  V30 14362 H 1409.69 2.94655 1.34015 0
M  V30 14363 H 1408.6 3.63805 -0.871598 0
M  V30 14364 H 1409.93 4.7911 -1.1276 0
M  V30 14365 N 1411.59 0.596556 1.45873 0
M  V30 14366 C 1412.83 0.0874583 2.02311 0
M  V30 14367 C 1413.16 -1.27781 1.46636 0
M  V30 14368 O 1412.42 -1.85393 0.62674 0
M  V30 14369 C 1412.71 -0.0135714 3.57397 0
M  V30 14370 C 1412.38 1.28591 4.32175 0
M  V30 14371 C 1411.04 1.6419 4.52322 0
M  V30 14372 C 1413.39 2.14523 4.75005 0
M  V30 14373 C 1410.72 2.85493 5.12553 0
M  V30 14374 C 1413.07 3.35065 5.36577 0
M  V30 14375 C 1411.74 3.70929 5.54949 0
M  V30 14376 H 1411.01 0.0320033 0.740309 0
M  V30 14377 H 1413.66 0.775967 1.75074 0
M  V30 14378 H 1411.96 -0.785287 3.8385 0
M  V30 14379 H 1413.66 -0.423456 3.98758 0
M  V30 14380 H 1410.25 0.99881 4.16799 0
M  V30 14381 H 1414.43 1.88321 4.59183 0
M  V30 14382 H 1409.69 3.134 5.24967 0
M  V30 14383 H 1413.86 4.01909 5.6872 0
M  V30 14384 H 1411.49 4.65011 6.01389 0
M  V30 14385 N 1413.06 -1.53996 0.335095 0
M  V30 14386 C 1414.47 -1.86092 -0.15058 0
M  V30 14387 C 1414.83 -1.25652 -1.50685 0
M  V30 14388 O 1413.95 -0.566887 -2.08843 0
M  V30 14389 C 1414.55 -3.37641 -0.280007 0
M  V30 14390 C 1413.1 -3.69645 -0.709907 0
M  V30 14391 C 1412.25 -2.7683 0.161461 0
M  V30 14392 H 1415.2 -1.4868 0.554986 0
M  V30 14393 H 1415.22 -3.63981 -1.10896 0
M  V30 14394 H 1414.74 -3.81601 0.707254 0
M  V30 14395 H 1412.84 -3.31224 -1.7065 0
M  V30 14396 H 1412.95 -4.76424 -0.505661 0
M  V30 14397 H 1411.31 -2.52073 -0.364849 0
M  V30 14398 H 1412.1 -3.23618 1.1457 0
M  V30 14399 N 1414.54 -0.0635198 -1.57472 0
M  V30 14400 C 1415.5 0.891881 -2.11135 0
M  V30 14401 C 1416.5 1.23182 -1.03358 0
M  V30 14402 O 1417.69 1.16646 -1.2938 0
M  V30 14403 C 1414.83 2.19792 -2.60584 0
M  V30 14404 H 1416.02 0.426461 -2.96852 0
M  V30 14405 H 1413.57 0.185069 -1.552 0
M  V30 14406 H 1414.31 2.70889 -1.78297 0
M  V30 14407 H 1414.09 1.96419 -3.39355 0
M  V30 14408 H 1415.58 2.88203 -3.02206 0
M  V30 14409 N 1416.02 1.56195 0.209972 0
M  V30 14410 C 1416.95 1.88389 1.28781 0
M  V30 14411 C 1417.93 0.742429 1.44661 0
M  V30 14412 O 1419.11 0.991955 1.60289 0
M  V30 14413 C 1416.24 2.10107 2.65655 0
M  V30 14414 C 1415.29 3.32804 2.66728 0
M  V30 14415 S 1416.12 4.88384 2.1964 0
M  V30 14416 C 1417.28 5.13151 3.58367 0
M  V30 14417 H 1417.51 2.79517 1.01281 0
M  V30 14418 H 1415.04 1.4878 0.412768 0
M  V30 14419 H 1417 2.23302 3.44451 0
M  V30 14420 H 1415.66 1.19756 2.90374 0
M  V30 14421 H 1414.85 3.4508 3.67336 0
M  V30 14422 H 1414.46 3.18525 1.96004 0
M  V30 14423 H 1416.75 5.02759 4.54136 0
M  V30 14424 H 1417.69 6.14985 3.50998 0
M  V30 14425 H 1418.1 4.4084 3.52591 0
M  V30 14426 N 1417.5 -0.477127 1.50204 0
M  V30 14427 C 1418.43 -1.58405 1.71552 0
M  V30 14428 C 1419.41 -1.60463 0.564413 0
M  V30 14429 O 1420.59 -1.76826 0.802893 0
M  V30 14430 C 1417.72 -2.96765 1.8041 0
M  V30 14431 C 1416.68 -3.09573 2.95548 0
M  V30 14432 C 1416 -4.49522 2.89542 0
M  V30 14433 C 1417.3 -2.87356 4.36147 0
M  V30 14434 H 1419 -1.40792 2.64231 0
M  V30 14435 H 1416.54 -0.675886 1.27153 0
M  V30 14436 H 1418.5 -3.74125 1.9393 0
M  V30 14437 H 1417.22 -3.1552 0.843489 0
M  V30 14438 H 1415.88 -2.34645 2.81669 0
M  V30 14439 H 1415.53 -4.65186 1.91339 0
M  V30 14440 H 1415.23 -4.59028 3.66834 0
M  V30 14441 H 1416.75 -5.28909 3.05102 0
M  V30 14442 H 1418.17 -3.54469 4.50583 0
M  V30 14443 H 1416.56 -3.08313 5.14843 0
M  V30 14444 H 1417.63 -1.83264 4.48935 0
M  V30 14445 N 1418.98 -1.3968 -0.729882 0
M  V30 14446 C 1420.22 -1.37385 -1.49175 0
M  V30 14447 C 1420.56 0.0285839 -1.94179 0
M  V30 14448 O 1419.83 0.994516 -1.67152 0
M  V30 14449 C 1420.11 -2.35075 -2.72785 0
M  V30 14450 C 1419.97 -3.84282 -2.33767 0
M  V30 14451 C 1421.29 -2.30515 -3.74901 0
M  V30 14452 H 1418.4 -0.500359 -0.541119 0
M  V30 14453 H 1421.05 -1.7071 -0.834152 0
M  V30 14454 H 1419.2 -2.06787 -3.28894 0
M  V30 14455 H 1420.87 -4.2334 -1.8325 0
M  V30 14456 H 1419.11 -4.00809 -1.65935 0
M  V30 14457 H 1419.78 -4.48131 -3.22309 0
M  V30 14458 H 1422.26 -2.55539 -3.28389 0
M  V30 14459 H 1421.13 -3.00939 -4.5905 0
M  V30 14460 H 1421.4 -1.3119 -4.22187 0
M  V30 14461 N 1420.45 0.960609 -1.2494 0
M  V30 14462 C 1421.36 2.0902 -1.06527 0
M  V30 14463 C 1422.38 1.74 -0.00406641 0
M  V30 14464 O 1423.56 2.00367 -0.203744 0
M  V30 14465 C 1420.62 3.39971 -0.679736 0
M  V30 14466 C 1419.68 3.88895 -1.81821 0
M  V30 14467 C 1418.92 5.13597 -1.45098 0
M  V30 14468 O 1419.14 5.69362 -0.343954 0
M  V30 14469 O 1418.07 5.57083 -2.27909 0
M  V30 14470 H 1421.9 2.27453 -2.01243 0
M  V30 14471 H 1419.48 1.07429 -1.03824 0
M  V30 14472 H 1421.37 4.18696 -0.47658 0
M  V30 14473 H 1420.04 3.22822 0.238231 0
M  V30 14474 H 1418.95 3.11201 -2.07617 0
M  V30 14475 H 1420.28 4.10533 -2.7152 0
M  V30 14476 N 1421.93 1.0643 1.16234 0
M  V30 14477 C 1423.18 0.77689 1.86138 0
M  V30 14478 C 1423.49 -0.699301 1.82672 0
M  V30 14479 O 1424.7 -1.10113 2.48168 0
M  V30 14480 C 1423.16 1.3396 3.3404 0
M  V30 14481 C 1422.76 2.84613 3.45976 0
M  V30 14482 C 1424.51 1.12979 4.09189 0
M  V30 14483 C 1422.42 3.34122 4.87972 0
M  V30 14484 H 1421.35 0.286936 0.697269 0
M  V30 14485 H 1424 1.28318 1.31174 0
M  V30 14486 H 1422.38 0.761073 3.88618 0
M  V30 14487 H 1423.55 3.48429 3.01552 0
M  V30 14488 H 1421.87 3.04277 2.84262 0
M  V30 14489 H 1424.46 1.47456 5.13966 0
M  V30 14490 H 1424.81 0.0682424 4.16244 0
M  V30 14491 H 1425.34 1.67418 3.60855 0
M  V30 14492 H 1422.08 4.39761 4.86097 0
M  V30 14493 H 1421.6 2.75055 5.33015 0
M  V30 14494 H 1423.28 3.29529 5.56794 0
M  V30 14495 N 1423.41 -1.329 0.847073 0
M  V30 14496 C 1424.66 -1.96774 0.443022 0
M  V30 14497 C 1424.97 -1.67813 -1.0049 0
M  V30 14498 O 1426.18 -2.25366 -1.51402 0
M  V30 14499 C 1424.63 -3.52184 0.741268 0
M  V30 14500 C 1424.24 -3.90013 2.20441 0
M  V30 14501 C 1425.99 -4.22568 0.404569 0
M  V30 14502 C 1423.89 -5.38434 2.44627 0
M  V30 14503 H 1422.82 -0.736406 0.161932 0
M  V30 14504 H 1425.47 -1.51402 1.0368 0
M  V30 14505 H 1423.86 -3.95925 0.0770158 0
M  V30 14506 H 1425.03 -3.57304 2.90982 0
M  V30 14507 H 1423.35 -3.32633 2.50489 0
M  V30 14508 H 1425.94 -5.3173 0.562795 0
M  V30 14509 H 1426.29 -4.11144 -0.653172 0
M  V30 14510 H 1426.82 -3.84384 1.0244 0
M  V30 14511 H 1423.56 -5.5487 3.48997 0
M  V30 14512 H 1423.08 -5.72575 1.78656 0
M  V30 14513 H 1424.76 -6.05423 2.28194 0
M  V30 14514 N 1424.89 -0.604284 -1.45555 0
M  V30 14515 C 1426.11 -0.102634 -2.07146 0
M  V30 14516 C 1426.54 1.20239 -1.44652 0
M  V30 14517 O 1425.9 1.73133 -0.538033 0
M  V30 14518 C 1425.94 0.0270231 -3.6059 0
M  V30 14519 O 1425.05 1.0781 -3.98059 0
M  V30 14520 H 1424.39 -0.0725667 -0.660023 0
M  V30 14521 H 1426.92 -0.833355 -1.86859 0
M  V30 14522 H 1426.93 0.226299 -4.07372 0
M  V30 14523 H 1425.6 -0.925896 -4.05463 0
M  V30 14524 H 1424.18 0.855552 -3.62953 0
M  V30 14525 N 1426.37 1.53816 -0.343257 0
M  V30 14526 C 1427.64 1.9315 0.308609 0
M  V30 14527 C 1428.02 1.27479 1.68263 0
M  V30 14528 O 1427.37 0.425614 2.24501 0
M  V30 14529 C 1427.58 3.46912 0.381176 0
M  V30 14530 C 1428.93 4.19868 0.632153 0
M  V30 14531 O 1429.95 3.53174 0.463303 0
M  V30 14532 O 1428.81 5.38016 0.959237 0
M  V30 14533 H 1425.91 0.807169 0.180022 0
M  V30 14534 H 1428.45 1.65053 -0.394412 0
M  V30 14535 H 1427.22 3.86932 -0.583058 0
M  V30 14536 H 1426.85 3.81175 1.13099 0
M  V30 14537 N 1427.84 0.0718701 1.57436 0
M  V30 14538 C 1428.78 -0.924911 2.09709 0
M  V30 14539 C 1429.79 -1.26136 1.02925 0
M  V30 14540 O 1430.98 -1.21853 1.30438 0
M  V30 14541 C 1428.08 -2.24072 2.54254 0
M  V30 14542 C 1427.25 -2.0831 3.84611 0
M  V30 14543 C 1426.31 -3.23196 4.15248 0
M  V30 14544 O 1425.34 -2.98184 4.84846 0
M  V30 14545 N 1426.54 -4.48293 3.688 0
M  V30 14546 H 1429.3 -0.478605 2.95854 0
M  V30 14547 H 1426.86 -0.113853 1.61499 0
M  V30 14548 H 1428.86 -2.99835 2.71811 0
M  V30 14549 H 1427.43 -2.60201 1.73246 0
M  V30 14550 H 1426.65 -1.17014 3.76432 0
M  V30 14551 H 1427.93 -1.9503 4.69937 0
M  V30 14552 H 1427.33 -4.71501 3.12575 0
M  V30 14553 H 1425.89 -5.21082 3.91556 0
M  V30 14554 N 1429.32 -1.56304 -0.201686 0
M  V30 14555 C 1430.25 -1.97046 -1.25281 0
M  V30 14556 C 1431.23 -0.841458 -1.47829 0
M  V30 14557 O 1432.42 -1.10529 -1.59678 0
M  V30 14558 C 1429.55 -2.30429 -2.59845 0
M  V30 14559 C 1428.5 -3.46006 -2.5192 0
M  V30 14560 C 1427.83 -3.65047 -3.90697 0
M  V30 14561 C 1429.13 -4.80391 -2.04992 0
M  V30 14562 H 1430.82 -2.85099 -0.914272 0
M  V30 14563 H 1428.37 -1.37166 -0.438359 0
M  V30 14564 H 1430.32 -2.57525 -3.33555 0
M  V30 14565 H 1429.05 -1.39251 -2.95426 0
M  V30 14566 H 1427.7 -3.18991 -1.80667 0
M  V30 14567 H 1427.35 -2.71211 -4.2362 0
M  V30 14568 H 1427.05 -4.42796 -3.86271 0
M  V30 14569 H 1428.58 -3.94512 -4.66039 0
M  V30 14570 H 1429.99 -5.06561 -2.68456 0
M  V30 14571 H 1428.39 -5.61563 -2.11582 0
M  V30 14572 H 1429.46 -4.74416 -1.00288 0
M  V30 14573 N 1430.8 0.469154 -1.50455 0
M  V30 14574 C 1432.21 1.04997 -1.54378 0
M  V30 14575 C 1432.56 1.93082 -0.348414 0
M  V30 14576 O 1431.69 2.09594 0.538469 0
M  V30 14577 C 1432.28 1.91096 -2.79764 0
M  V30 14578 C 1430.84 2.44283 -2.86361 0
M  V30 14579 C 1429.99 1.22676 -2.48688 0
M  V30 14580 H 1432.94 0.251692 -1.56691 0
M  V30 14581 H 1432.96 2.76186 -2.61728 0
M  V30 14582 H 1432.47 1.26961 -3.66746 0
M  V30 14583 H 1430.57 3.11966 -2.03735 0
M  V30 14584 H 1430.69 2.79258 -3.89297 0
M  V30 14585 H 1429.05 1.56215 -2.01169 0
M  V30 14586 H 1429.83 0.602002 -3.37981 0
M  V30 14587 N 1432.28 1.40065 0.722464 0
M  V30 14588 C 1433.23 1.39784 1.83655 0
M  V30 14589 C 1434.2 0.255743 1.64119 0
M  V30 14590 O 1435.38 0.452766 1.8535 0
M  V30 14591 C 1432.52 1.25946 3.21297 0
M  V30 14592 C 1431.63 2.49805 3.52451 0
M  V30 14593 C 1430.77 2.2846 4.79562 0
M  V30 14594 C 1429.81 3.4793 5.03598 0
M  V30 14595 N 1428.94 3.25823 6.21919 0
M  V30 14596 H 1433.78 2.35013 1.83229 0
M  V30 14597 H 1431.32 1.16728 0.895154 0
M  V30 14598 H 1433.28 1.15931 4.00769 0
M  V30 14599 H 1431.91 0.343402 3.20968 0
M  V30 14600 H 1430.96 2.70375 2.67585 0
M  V30 14601 H 1432.27 3.38753 3.66126 0
M  V30 14602 H 1431.43 2.15758 5.67039 0
M  V30 14603 H 1430.17 1.36926 4.68084 0
M  V30 14604 H 1429.17 3.61116 4.14579 0
M  V30 14605 H 1430.4 4.40382 5.16953 0
M  V30 14606 H 1428.34 2.36965 6.11705 0
M  V30 14607 H 1428.26 4.08333 6.36239 0
M  V30 14608 H 1429.53 3.16841 7.12202 0
M  V30 14609 N 1433.76 -0.95397 1.25448 0
M  V30 14610 C 1435 -1.70118 1.10399 0
M  V30 14611 C 1435.34 -1.90945 -0.354093 0
M  V30 14612 O 1434.61 -1.48088 -1.26096 0
M  V30 14613 C 1434.89 -3.08371 1.85955 0
M  V30 14614 C 1434.75 -2.9495 3.39595 0
M  V30 14615 C 1436.07 -4.08273 1.64321 0
M  V30 14616 H 1433.19 -0.617424 0.402438 0
M  V30 14617 H 1435.83 -1.10884 1.54288 0
M  V30 14618 H 1433.98 -3.58936 1.48651 0
M  V30 14619 H 1435.65 -2.51705 3.86578 0
M  V30 14620 H 1433.89 -2.30853 3.67273 0
M  V30 14621 H 1434.56 -3.92952 3.87676 0
M  V30 14622 H 1437.04 -3.6662 1.96796 0
M  V30 14623 H 1435.92 -5.03048 2.19622 0
M  V30 14624 H 1436.18 -4.38217 0.584685 0
M  V30 14625 N 1435.24 -1.07045 -1.15668 0
M  V30 14626 C 1436.15 -0.699332 -2.23934 0
M  V30 14627 C 1437.16 0.288036 -1.71599 0
M  V30 14628 O 1438.34 0.135447 -2.00944 0
M  V30 14629 C 1435.4 -0.0994775 -3.46557 0
M  V30 14630 C 1434.46 -1.13968 -4.13896 0
M  V30 14631 C 1433.7 -0.56836 -5.30665 0
M  V30 14632 O 1433.92 0.616556 -5.67058 0
M  V30 14633 O 1432.85 -1.31174 -5.87432 0
M  V30 14634 H 1436.68 -1.60212 -2.58003 0
M  V30 14635 H 1434.26 -0.843202 -1.23331 0
M  V30 14636 H 1436.15 0.23293 -4.20756 0
M  V30 14637 H 1434.82 0.776684 -3.14244 0
M  V30 14638 H 1433.73 -1.5244 -3.41633 0
M  V30 14639 H 1435.06 -1.98764 -4.50282 0
M  V30 14640 N 1436.71 1.32449 -0.85411 0
M  V30 14641 C 1437.94 2.01997 -0.470307 0
M  V30 14642 C 1438.36 1.63772 0.925225 0
M  V30 14643 O 1437.72 0.838089 1.60766 0
M  V30 14644 C 1437.77 3.55294 -0.616301 0
M  V30 14645 O 1436.87 4.10902 0.351133 0
M  V30 14646 H 1436.21 0.63651 -0.189079 0
M  V30 14647 H 1438.74 1.69008 -1.15315 0
M  V30 14648 H 1438.75 4.0488 -0.503624 0
M  V30 14649 H 1437.43 3.82459 -1.63396 0
M  V30 14650 H 1436.01 3.72391 0.194741 0
M  V30 14651 N 1438.19 0.611994 1.45232 0
M  V30 14652 C 1439.44 0.108696 2.01807 0
M  V30 14653 C 1439.76 -1.26692 1.48237 0
M  V30 14654 O 1439.03 -1.8378 0.678368 0
M  V30 14655 H 1437.61 0.0371921 0.746074 0
M  V30 14656 H 1440.27 0.794386 1.77976 0
M  V30 14657 H 1439.37 0.0618207 3.12039 0
M  V30 14658 N 1439.67 -1.53632 0.351409 0
M  V30 14659 C 1440.62 -2.26782 -0.516983 0
M  V30 14660 C 1441.61 -1.29222 -1.09536 0
M  V30 14661 O 1442.82 -1.46901 -1.04019 0
M  V30 14662 H 1439.19 -0.728783 -0.185417 0
M  V30 14663 H 1441.16 -2.98151 0.121909 0
M  V30 14664 C 1439.91 -3.05943 -1.6521 0
M  V30 14665 H 1439.24 -3.80848 -1.21633 0
M  V30 14666 H 1440.68 -3.60328 -2.23472 0
M  V30 14667 C 1439.13 -2.15917 -2.58614 0
M  V30 14668 O 1439.66 -1.76049 -3.61067 0
M  V30 14669 N 1437.87 -1.80837 -2.27478 0
M  V30 14670 H 1437.42 -2.13456 -1.44202 0
M  V30 14671 H 1437.38 -1.20886 -2.90231 0
M  V30 14672 N 1441.15 -0.0802183 -1.57396 0
M  V30 14673 C 1442.11 0.869437 -2.12069 0
M  V30 14674 C 1443.11 1.22079 -1.04658 0
M  V30 14675 O 1444.3 1.15267 -1.3061 0
M  V30 14676 C 1441.43 2.17016 -2.62901 0
M  V30 14677 H 1442.63 0.394952 -2.97288 0
M  V30 14678 H 1440.18 0.168597 -1.55388 0
M  V30 14679 H 1440.91 2.68983 -1.8116 0
M  V30 14680 H 1440.7 1.92808 -3.4142 0
M  V30 14681 H 1442.19 2.84982 -3.05246 0
M  V30 14682 N 1442.63 1.56409 0.193394 0
M  V30 14683 C 1443.57 1.94681 1.23968 0
M  V30 14684 C 1444.54 0.807634 1.45143 0
M  V30 14685 O 1445.73 1.06593 1.58248 0
M  V30 14686 C 1442.87 2.29306 2.57901 0
M  V30 14687 C 1441.98 3.56296 2.4429 0
M  V30 14688 C 1441.12 3.80235 3.70938 0
M  V30 14689 C 1440.15 5.00645 3.52167 0
M  V30 14690 N 1439.29 5.20829 4.70831 0
M  V30 14691 H 1444.13 2.83884 0.906298 0
M  V30 14692 H 1441.67 1.40486 0.436146 0
M  V30 14693 H 1443.63 2.47398 3.35932 0
M  V30 14694 H 1442.26 1.43241 2.89278 0
M  V30 14695 H 1441.31 3.46241 1.57547 0
M  V30 14696 H 1442.62 4.44483 2.26354 0
M  V30 14697 H 1441.77 3.98575 4.57408 0
M  V30 14698 H 1440.51 2.90381 3.91829 0
M  V30 14699 H 1439.52 4.82225 2.64081 0
M  V30 14700 H 1440.74 5.92009 3.32719 0
M  V30 14701 H 1438.69 4.33923 4.91983 0
M  V30 14702 H 1438.61 6.03199 4.55726 0
M  V30 14703 H 1439.87 5.4363 5.58648 0
M  V30 14704 N 1444.1 -0.461169 1.50702 0
M  V30 14705 C 1445.51 -1.04177 1.54932 0
M  V30 14706 C 1445.87 -1.92894 0.358648 0
M  V30 14707 O 1444.99 -2.09876 -0.527346 0
M  V30 14708 C 1445.59 -1.8961 2.80773 0
M  V30 14709 C 1444.14 -2.42761 2.87652 0
M  V30 14710 C 1443.29 -1.21356 2.49335 0
M  V30 14711 H 1446.24 -0.243379 1.56823 0
M  V30 14712 H 1446.26 -2.74794 2.63189 0
M  V30 14713 H 1445.78 -1.25014 3.67414 0
M  V30 14714 H 1443.88 -3.10881 2.05386 0
M  V30 14715 H 1443.99 -2.77189 3.90772 0
M  V30 14716 H 1442.35 -1.55146 2.01995 0
M  V30 14717 H 1443.14 -0.584069 3.38295 0
M  V30 14718 N 1445.58 -1.40446 -0.715026 0
M  V30 14719 C 1446.51 -1.43511 -1.84193 0
M  V30 14720 C 1447.49 -0.295969 -1.67505 0
M  V30 14721 O 1448.68 -0.504667 -1.87528 0
M  V30 14722 C 1445.81 -1.29751 -3.22152 0
M  V30 14723 C 1444.76 -2.41274 -3.53512 0
M  V30 14724 C 1444.09 -2.12591 -4.90621 0
M  V30 14725 C 1445.39 -3.83614 -3.54454 0
M  V30 14726 H 1447.08 -2.37819 -1.81885 0
M  V30 14727 H 1444.63 -1.14469 -0.873655 0
M  V30 14728 H 1446.58 -1.30511 -4.0068 0
M  V30 14729 H 1445.3 -0.319189 -3.25037 0
M  V30 14730 H 1443.96 -2.39764 -2.77324 0
M  V30 14731 H 1443.61 -1.13148 -4.90109 0
M  V30 14732 H 1443.31 -2.87308 -5.1257 0
M  V30 14733 H 1444.84 -2.15034 -5.71483 0
M  V30 14734 H 1446.25 -3.86945 -4.23021 0
M  V30 14735 H 1444.65 -4.57855 -3.87929 0
M  V30 14736 H 1445.72 -4.13159 -2.53827 0
M  V30 14737 N 1447.06 0.947303 -1.25952 0
M  V30 14738 C 1448.29 1.72479 -1.1373 0
M  V30 14739 C 1448.7 1.86629 0.310871 0
M  V30 14740 O 1448.04 1.36882 1.22512 0
M  V30 14741 C 1448.1 3.15328 -1.72651 0
M  V30 14742 C 1447.77 3.24584 -3.21705 0
M  V30 14743 C 1448.76 3.08331 -4.18602 0
M  V30 14744 C 1446.45 3.4817 -3.62054 0
M  V30 14745 C 1448.44 3.15523 -5.53827 0
M  V30 14746 C 1446.13 3.54997 -4.97413 0
M  V30 14747 C 1447.13 3.38689 -5.93109 0
M  V30 14748 O 1446.82 3.45212 -7.26005 0
M  V30 14749 H 1446.55 0.547044 -0.397138 0
M  V30 14750 H 1449.1 1.19654 -1.66949 0
M  V30 14751 H 1447.33 3.69549 -1.13887 0
M  V30 14752 H 1449.02 3.74965 -1.55423 0
M  V30 14753 H 1449.79 2.89971 -3.88769 0
M  V30 14754 H 1445.67 3.59922 -2.88057 0
M  V30 14755 H 1449.21 3.02711 -6.285 0
M  V30 14756 H 1445.11 3.72876 -5.26909 0
M  V30 14757 H 1445.87 3.61796 -7.34198 0
M  V30 14758 N 1448.54 1.07657 1.15099 0
M  V30 14759 C 1449.79 0.801609 1.85958 0
M  V30 14760 C 1450.11 -0.672415 1.82507 0
M  V30 14761 O 1449.37 -1.50958 1.2454 0
M  V30 14762 C 1449.67 1.25903 3.3449 0
M  V30 14763 C 1449.33 2.73954 3.58134 0
M  V30 14764 C 1448 3.14392 3.64296 0
M  V30 14765 C 1450.35 3.69502 3.67584 0
M  V30 14766 C 1447.68 4.49187 3.77422 0
M  V30 14767 C 1450.03 5.04063 3.82235 0
M  V30 14768 C 1448.69 5.44117 3.86643 0
M  V30 14769 H 1447.96 0.293329 0.68047 0
M  V30 14770 H 1450.61 1.34814 1.36005 0
M  V30 14771 H 1448.91 0.631943 3.8667 0
M  V30 14772 H 1450.61 1.02314 3.87728 0
M  V30 14773 H 1447.2 2.41652 3.53981 0
M  V30 14774 H 1451.38 3.39385 3.62121 0
M  V30 14775 H 1446.64 4.79685 3.79094 0
M  V30 14776 H 1450.81 5.7797 3.88489 0
M  V30 14777 H 1448.44 6.48567 3.96567 0
M  V30 14778 N 1450.02 -1.31994 0.861122 0
M  V30 14779 C 1450.97 -2.26248 0.282123 0
M  V30 14780 C 1451.95 -1.50246 -0.57575 0
M  V30 14781 O 1453.14 -1.71845 -0.424075 0
M  V30 14782 C 1450.27 -3.39293 -0.523011 0
M  V30 14783 C 1449.36 -4.22673 0.34761 0
M  V30 14784 N 1449.75 -4.8496 1.43692 0
M  V30 14785 C 1448.05 -4.45785 0.138488 0
M  V30 14786 C 1448.75 -5.47215 1.97307 0
M  V30 14787 N 1447.72 -5.28525 1.27132 0
M  V30 14788 H 1451.53 -2.71936 1.11481 0
M  V30 14789 H 1449.04 -1.46158 0.707928 0
M  V30 14790 H 1451.04 -4.05832 -0.954269 0
M  V30 14791 H 1449.7 -2.95149 -1.35341 0
M  V30 14792 H 1450.71 -4.84873 1.81985 0
M  V30 14793 H 1447.38 -4.12303 -0.656677 0
M  V30 14794 H 1448.77 -6.06737 2.88652 0
M  V30 14795 N 1451.49 -0.619688 -1.44906 0
M  V30 14796 C 1452.91 -0.284338 -1.57047 0
M  V30 14797 C 1453.11 1.21284 -1.60911 0
M  V30 14798 O 1452.17 1.99642 -1.54594 0
M  V30 14799 C 1453.48 -0.966179 -2.84755 0
M  V30 14800 C 1455.03 -0.943239 -2.98449 0
M  V30 14801 C 1455.5 -1.60532 -4.28945 0
M  V30 14802 N 1456.99 -1.57138 -4.35732 0
M  V30 14803 C 1457.73 -2.05271 -5.35399 0
M  V30 14804 N 1457.22 -2.61543 -6.41535 0
M  V30 14805 N 1459.02 -1.95967 -5.26833 0
M  V30 14806 H 1451.17 -1.59167 -1.40641 0
M  V30 14807 H 1453.43 -0.667458 -0.673204 0
M  V30 14808 H 1453.14 -2.02086 -2.87844 0
M  V30 14809 H 1453.01 -0.49688 -3.73913 0
M  V30 14810 H 1455.4 0.102932 -2.9492 0
M  V30 14811 H 1455.48 -1.45092 -2.1067 0
M  V30 14812 H 1455.12 -2.65088 -4.33233 0
M  V30 14813 H 1455.05 -1.07256 -5.15561 0
M  V30 14814 H 1457.54 -1.16042 -3.59643 0
M  V30 14815 H 1457.86 -2.96033 -7.13852 0
M  V30 14816 H 1456.2 -2.65588 -6.42252 0
M  V30 14817 H 1459.39 -1.51734 -4.42825 0
M  V30 14818 H 1459.57 -2.33791 -6.04356 0
M  V30 14819 N 1452.97 1.53444 -0.359552 0
M  V30 14820 C 1453.92 2.25544 0.48977 0
M  V30 14821 C 1454.89 1.25982 1.08248 0
M  V30 14822 O 1456.07 1.54751 1.1161 0
M  V30 14823 C 1453.21 3.04358 1.62666 0
M  V30 14824 C 1452.33 4.18801 1.0597 0
M  V30 14825 C 1451.46 4.85069 2.1652 0
M  V30 14826 C 1450.5 5.91554 1.57259 0
M  V30 14827 N 1449.64 6.51537 2.61617 0
M  V30 14828 H 1454.48 2.97709 -0.13158 0
M  V30 14829 H 1452.02 1.469 -0.0767056 0
M  V30 14830 H 1453.97 3.48324 2.29623 0
M  V30 14831 H 1452.6 2.34459 2.21876 0
M  V30 14832 H 1451.66 3.79364 0.280599 0
M  V30 14833 H 1452.97 4.95341 0.586383 0
M  V30 14834 H 1452.12 5.32187 2.9131 0
M  V30 14835 H 1450.86 4.07988 2.67202 0
M  V30 14836 H 1449.87 5.43803 0.809818 0
M  V30 14837 H 1451.09 6.70552 1.07409 0
M  V30 14838 H 1449.04 5.77312 3.11523 0
M  V30 14839 H 1448.95 7.23599 2.18954 0
M  V30 14840 H 1450.22 7.03306 3.36127 0
M  V30 14841 O 1454.49 0.228504 1.59875 0
M  V30 14842 H 1455.18 -0.350657 1.905 0
M  V30 END ATOM
M  V30 BEGIN BOND
M  V30 END BOND
M  V30 END CTAB
M  END
$$$$
