drugbank_target|P00367 Glutamate dehydrogenase 1, mitochondrial (DB00142; DB00157; DB00756; DB04137; DB11081)
 OpenBabel12092119263D

  0  0  0     0  0            999 V3000
M  V30 BEGIN CTAB
M  V30 COUNTS 8608 8702 0 0 0
M  V30 BEGIN ATOM
M  V30 1 H -0.908 1.98254 -0.117106 0
M  V30 2 N 0 1.576 0 0
M  V30 3 C 0.933 2.03868 1.02534 0
M  V30 4 C 1.911 0.928543 1.3348 0
M  V30 5 O 3.095 1.19667 1.45644 0
M  V30 6 C 0.222 2.43627 2.35294 0
M  V30 7 C -0.732 3.65373 2.2001 0
M  V30 8 S 0.101 5.13292 1.52614 0
M  V30 9 C 1.257 5.56322 2.86805 0
M  V30 10 H 1.49 2.90518 0.631377 0
M  V30 11 H -0.977 1.52953 0.210867 0
M  V30 12 H 0.981 2.67203 3.11629 0
M  V30 13 H -0.358 1.57376 2.7183 0
M  V30 14 H -1.165 3.90944 3.18086 0
M  V30 15 H -1.563 3.418 1.51819 0
M  V30 16 H 0.729 5.58782 3.83104 0
M  V30 17 H 1.672 6.56266 2.65933 0
M  V30 18 H 2.08 4.83886 2.90714 0
M  V30 19 N 1.4781 -0.272755 1.55222 0
M  V30 20 C 2.7081 -1.02107 1.79604 0
M  V30 21 C 3.1161 -1.80419 0.569693 0
M  V30 22 O 2.4591 -1.77566 -0.470743 0
M  V30 23 C 2.5211 -2.02675 2.96922 0
M  V30 24 C 2.1851 -1.43299 4.33952 0
M  V30 25 C 3.1821 -0.84853 5.12929 0
M  V30 26 C 0.8671 -1.46012 4.8061 0
M  V30 27 C 2.8611 -0.299109 6.36698 0
M  V30 28 C 0.5481 -0.906833 6.04334 0
M  V30 29 C 1.5461 -0.32733 6.82215 0
M  V30 30 O 1.2341 0.217479 8.03606 0
M  V30 31 H 0.9661 -0.307322 0.602104 0
M  V30 32 H 3.5201 -0.308862 2.03065 0
M  V30 33 H 1.7501 -2.77656 2.69155 0
M  V30 34 H 3.4391 -2.63637 3.08626 0
M  V30 35 H 4.2051 -0.820265 4.78013 0
M  V30 36 H 0.0841 -1.90056 4.2 0
M  V30 37 H 3.6281 0.153852 6.9743 0
M  V30 38 H -0.4749 -0.932339 6.38731 0
M  V30 39 H 0.2931 0.106863 8.1843 0
M  V30 40 N 2.9562 -1.48159 -0.537278 0
M  V30 41 C 4.3722 -1.34118 -0.865129 0
M  V30 42 C 4.5722 -0.346678 -1.98495 0
M  V30 43 O 3.6282 0.234715 -2.51407 0
M  V30 44 C 4.9412 -2.73963 -1.23954 0
M  V30 45 C 6.4892 -2.82397 -1.34984 0
M  V30 46 C 6.9642 -4.22928 -1.75772 0
M  V30 47 N 8.4552 -4.25566 -1.82887 0
M  V30 48 C 9.1902 -5.31235 -2.15817 0
M  V30 49 N 8.6862 -6.47189 -2.47222 0
M  V30 50 N 10.4792 -5.18624 -2.16761 0
M  V30 51 H 2.6302 -2.1144 0.201715 0
M  V30 52 H 4.8932 -0.947598 0.0275949 0
M  V30 53 H 4.5992 -3.48264 -0.490381 0
M  V30 54 H 4.4732 -3.0702 -2.19132 0
M  V30 55 H 6.8602 -2.08356 -2.08978 0
M  V30 56 H 6.9412 -2.5297 -0.379448 0
M  V30 57 H 6.5852 -4.97482 -1.02341 0
M  V30 58 H 6.5152 -4.49794 -2.73848 0
M  V30 59 H 9.0062 -3.41924 -1.60924 0
M  V30 60 H 9.3192 -7.23564 -2.71433 0
M  V30 61 H 7.6642 -6.50476 -2.44757 0
M  V30 62 H 10.8552 -4.27056 -1.91679 0
M  V30 63 H 11.0282 -6.01078 -2.42093 0
M  V30 64 N 4.4343 0.785586 -1.36625 0
M  V30 65 C 5.6643 1.5722 -1.34036 0
M  V30 66 C 6.0723 1.89033 0.0795062 0
M  V30 67 O 5.4153 1.50881 1.04789 0
M  V30 68 C 5.4773 2.91759 -2.10041 0
M  V30 69 C 5.1413 2.82654 -3.59104 0
M  V30 70 C 6.1383 2.54634 -4.53274 0
M  V30 71 C 3.8233 3.01111 -4.02042 0
M  V30 72 C 5.8173 2.45177 -5.88359 0
M  V30 73 C 3.5043 2.91276 -5.37216 0
M  V30 74 C 4.5023 2.63348 -6.30188 0
M  V30 75 O 4.1903 2.53514 -7.6288 0
M  V30 76 H 3.9223 0.494177 -0.461265 0
M  V30 77 H 6.4763 0.982632 -1.8037 0
M  V30 78 H 4.7063 3.52781 -1.58375 0
M  V30 79 H 6.3953 3.53059 -2.00261 0
M  V30 80 H 7.1613 2.40073 -4.21414 0
M  V30 81 H 3.0403 3.21854 -3.30047 0
M  V30 82 H 6.5843 2.23299 -6.60896 0
M  V30 83 H 2.4813 3.054 -5.68684 0
M  V30 84 H 3.2493 2.68967 -7.73045 0
M  V30 85 N 5.9124 1.20967 1.01018 0
M  V30 86 C 6.8424 0.988272 2.11555 0
M  V30 87 C 7.8234 -0.0849778 1.69888 0
M  V30 88 O 9.0084 0.0738202 1.9406 0
M  V30 89 C 6.1384 0.546528 3.42973 0
M  V30 90 C 5.0924 1.56375 3.9841 0
M  V30 91 C 4.4184 0.97842 5.25672 0
M  V30 92 C 5.7184 2.94922 4.31066 0
M  V30 93 H 7.4124 1.91276 2.30334 0
M  V30 94 H 4.9584 0.921073 1.1069 0
M  V30 95 H 6.9114 0.378839 4.19694 0
M  V30 96 H 5.6354 -0.413598 3.23971 0
M  V30 97 H 4.2944 1.71891 3.23804 0
M  V30 98 H 3.9424 0.0101688 5.02999 0
M  V30 99 H 3.6424 1.65784 5.63728 0
M  V30 100 H 5.1664 0.821939 6.05043 0
M  V30 101 H 6.5804 2.8288 4.9865 0
M  V30 102 H 4.9774 3.5983 4.80253 0
M  V30 103 H 6.0474 3.4616 3.39561 0
M  V30 104 N 7.3905 -1.2043 1.01659 0
M  V30 105 C 8.6385 -1.89423 0.704522 0
M  V30 106 C 8.9595 -1.79231 -0.768197 0
M  V30 107 O 8.2295 -1.1947 -1.55254 0
M  V30 108 H 6.8095 -0.701178 0.257602 0
M  V30 109 H 9.4715 -1.4626 1.28818 0
M  V30 110 H 8.5675 -2.96052 0.987916 0
M  V30 111 N 8.8686 -0.792821 -1.36206 0
M  V30 112 C 9.7786 -0.194808 -2.3379 0
M  V30 113 C 10.7946 0.654869 -1.61206 0
M  V30 114 O 11.9706 0.569856 -1.9317 0
M  V30 115 C 9.0356 0.657721 -3.40404 0
M  V30 116 C 8.0966 -0.210849 -4.28782 0
M  V30 117 C 7.3296 0.601086 -5.30304 0
M  V30 118 O 7.5526 1.83682 -5.40016 0
M  V30 119 O 6.4866 -0.000808277 -6.019 0
M  V30 120 H 10.3126 -1.00172 -2.86704 0
M  V30 121 H 7.8976 -0.554341 -1.38735 0
M  V30 122 H 9.7796 1.14375 -4.05581 0
M  V30 123 H 8.4546 1.44247 -2.89784 0
M  V30 124 H 7.3616 -0.743714 -3.66633 0
M  V30 125 H 8.6946 -0.959195 -4.82763 0
M  V30 126 N 10.3467 1.47872 -0.545128 0
M  V30 127 C 11.3097 2.28337 0.198717 0
M  V30 128 C 12.3097 1.36255 0.853888 0
M  V30 129 O 13.4997 1.59003 0.711606 0
M  V30 130 C 10.6317 3.15585 1.28915 0
M  V30 131 H 11.8247 2.95567 -0.507941 0
M  V30 132 H 9.3777 1.53362 -0.301616 0
M  V30 133 H 10.1127 2.53019 2.02859 0
M  V30 134 H 9.8977 3.83337 0.824309 0
M  V30 135 H 11.3877 3.76243 1.81194 0
M  V30 136 N 11.8248 0.280983 1.55075 0
M  V30 137 C 12.7548 -0.597469 2.25727 0
M  V30 138 C 13.7358 -1.15417 1.24952 0
M  V30 139 O 14.9208 -1.18722 1.53684 0
M  V30 140 C 12.0508 -1.7789 2.98283 0
M  V30 141 C 11.0048 -1.35347 4.06036 0
M  V30 142 C 10.3308 -2.61846 4.66198 0
M  V30 143 C 11.6308 -0.499354 5.19907 0
M  V30 144 H 13.3248 -0.00824265 2.99399 0
M  V30 145 H 10.8708 -0.0025244 1.44 0
M  V30 146 H 12.8238 -2.39937 3.46422 0
M  V30 147 H 11.5478 -2.39405 2.22155 0
M  V30 148 H 10.2068 -0.756156 3.58717 0
M  V30 149 H 9.8548 -3.21632 3.86732 0
M  V30 150 H 9.5548 -2.3409 5.38958 0
M  V30 151 H 11.0788 -3.24732 5.1709 0
M  V30 152 H 12.4928 -1.02498 5.64063 0
M  V30 153 H 10.8898 -0.316424 5.99265 0
M  V30 154 H 11.9598 0.480459 4.82514 0
M  V30 155 N 13.3029 -1.57598 0.00835791 0
M  V30 156 C 14.2329 -2.1198 -0.979113 0
M  V30 157 C 15.2139 -1.03091 -1.35301 0
M  V30 158 O 16.3989 -1.30818 -1.43528 0
M  V30 159 C 13.5289 -2.62995 -2.26828 0
M  V30 160 C 12.4829 -3.76485 -2.03576 0
M  V30 161 C 11.8089 -4.13846 -3.38579 0
M  V30 162 C 13.1089 -5.0342 -1.39161 0
M  V30 163 H 14.8029 -2.94738 -0.526281 0
M  V30 164 H 12.3489 -1.41783 -0.251704 0
M  V30 165 H 14.3019 -2.99669 -2.96271 0
M  V30 166 H 13.0259 -1.7737 -2.7424 0
M  V30 167 H 11.6849 -3.40217 -1.36557 0
M  V30 168 H 11.3329 -3.25232 -3.83709 0
M  V30 169 H 11.0329 -4.90312 -3.23834 0
M  V30 170 H 12.5569 -4.53086 -4.09323 0
M  V30 171 H 13.9709 -5.37812 -1.98573 0
M  V30 172 H 12.3679 -5.84746 -1.34878 0
M  V30 173 H 13.4379 -4.83548 -0.361868 0
M  V30 174 N 14.781 0.264519 -1.55364 0
M  V30 175 C 15.711 1.33121 -1.91836 0
M  V30 176 C 16.692 1.51101 -0.781192 0
M  V30 177 O 17.877 1.64003 -1.04003 0
M  V30 178 C 15.007 2.68921 -2.19769 0
M  V30 179 C 13.961 2.65661 -3.35571 0
M  V30 180 C 13.287 4.05093 -3.49004 0
M  V30 181 C 14.587 2.24187 -4.71739 0
M  V30 182 H 16.281 1.02844 -2.81182 0
M  V30 183 H 13.827 0.493286 -1.35287 0
M  V30 184 H 15.78 3.43663 -2.43872 0
M  V30 185 H 14.504 3.00799 -1.27231 0
M  V30 186 H 13.163 1.93377 -3.1145 0
M  V30 187 H 12.811 4.34206 -2.53917 0
M  V30 188 H 12.511 4.03804 -4.26868 0
M  V30 189 H 14.035 4.81561 -3.75408 0
M  V30 190 H 15.449 2.88654 -4.9533 0
M  V30 191 H 13.846 2.34044 -5.52579 0
M  V30 192 H 14.916 1.19327 -4.69988 0
M  V30 193 N 16.2591 1.48442 0.529413 0
M  V30 194 C 17.4841 1.60406 1.31471 0
M  V30 195 C 17.9091 0.264738 1.86228 0
M  V30 196 O 17.2671 -0.763668 1.64432 0
M  V30 197 C 17.3151 2.65419 2.44101 0
M  V30 198 O 16.4191 2.22618 3.47153 0
M  V30 199 H 15.7601 0.537863 0.389357 0
M  V30 200 H 18.2901 1.94432 0.636965 0
M  V30 201 H 18.3001 2.86709 2.90279 0
M  V30 202 H 16.9751 3.62652 2.03608 0
M  V30 203 H 15.5521 2.11543 3.0709 0
M  V30 204 N 17.7372 -0.778329 1.37039 0
M  V30 205 C 19.1532 -1.07796 1.17695 0
M  V30 206 C 19.3532 -2.01498 0.00860115 0
M  V30 207 O 18.4092 -2.43901 -0.653352 0
M  V30 208 C 19.7222 -1.68178 2.49272 0
M  V30 209 C 21.2702 -1.80467 2.55735 0
M  V30 210 C 21.7452 -2.44263 3.87427 0
M  V30 211 N 23.2362 -2.51721 3.88833 0
M  V30 212 C 23.9712 -3.01919 4.87476 0
M  V30 213 N 23.4672 -3.5234 5.96513 0
M  V30 214 N 25.2602 -3.00733 4.74885 0
M  V30 215 H 17.4112 -0.156032 2.11826 0
M  V30 216 H 19.6742 -0.131844 0.938787 0
M  V30 217 H 19.3802 -1.06796 3.35093 0
M  V30 218 H 19.2542 -2.67554 2.65885 0
M  V30 219 H 21.6412 -2.40984 1.70325 0
M  V30 220 H 21.7222 -0.798656 2.43013 0
M  V30 221 H 21.3662 -1.84388 4.73248 0
M  V30 222 H 21.2962 -3.45458 3.9745 0
M  V30 223 H 23.7872 -2.1603 3.10063 0
M  V30 224 H 24.1002 -3.89027 6.67741 0
M  V30 225 H 22.4452 -3.50462 6.00168 0
M  V30 226 H 25.6362 -2.60638 3.88826 0
M  V30 227 H 25.8092 -3.39545 5.51918 0
M  V30 228 N 19.2153 -1.21501 -1.00376 0
M  V30 229 C 20.1783 -0.976927 -2.07337 0
M  V30 230 C 21.1783 0.0525322 -1.60714 0
M  V30 231 O 22.3683 -0.184869 -1.73216 0
M  V30 232 C 19.5003 -0.473423 -3.37597 0
M  V30 233 H 20.6933 -1.92587 -2.29892 0
M  V30 234 H 18.2463 -1.03217 -1.17371 0
M  V30 235 H 18.9813 0.480379 -3.20722 0
M  V30 236 H 18.7663 -1.216 -3.72768 0
M  V30 237 H 20.2563 -0.32675 -4.1632 0
M  V30 238 N 20.6934 1.19889 -1.02296 0
M  V30 239 C 21.9414 1.89046 -0.714558 0
M  V30 240 C 22.2624 1.79636 0.758681 0
M  V30 241 O 21.5324 1.20292 1.54618 0
M  V30 242 H 20.1124 0.699802 -0.261317 0
M  V30 243 H 22.7744 1.45574 -1.29592 0
M  V30 244 H 21.8704 2.95524 -1.0036 0
M  V30 245 N 22.1715 0.800033 1.35784 0
M  V30 246 C 23.5825 0.439142 1.81462 0
M  V30 247 C 23.9335 -1.03813 1.66485 0
M  V30 248 O 23.0585 -1.80626 1.19177 0
M  V30 249 C 23.6535 0.790314 3.29453 0
M  V30 250 C 22.2125 0.482111 3.733 0
M  V30 251 C 21.3595 1.01938 2.57883 0
M  V30 252 H 24.3105 0.992254 1.23855 0
M  V30 253 H 24.3315 0.0853677 3.80404 0
M  V30 254 H 23.8435 1.86554 3.40322 0
M  V30 255 H 21.9445 -0.584652 3.67984 0
M  V30 256 H 22.0575 1.01015 4.6833 0
M  V30 257 H 20.4215 0.442043 2.50835 0
M  V30 258 H 21.2045 2.10059 2.71533 0
M  V30 259 N 23.6496 -1.47581 0.552962 0
M  V30 260 C 24.6126 -2.28439 -0.186605 0
M  V30 261 C 25.6126 -1.36706 -0.84665 0
M  V30 262 O 26.8026 -1.59378 -0.703164 0
M  V30 263 C 23.9346 -3.16264 -1.2724 0
M  V30 264 H 25.1276 -2.95294 0.523609 0
M  V30 265 H 22.6806 -1.532 0.309745 0
M  V30 266 H 23.4156 -2.54091 -2.01514 0
M  V30 267 H 23.2006 -3.83769 -0.803968 0
M  V30 268 H 24.6906 -3.77198 -1.79196 0
M  V30 269 N 25.1277 -0.289203 -1.54924 0
M  V30 270 C 26.0907 0.579144 -2.21762 0
M  V30 271 C 27.0907 1.07047 -1.1999 0
M  V30 272 O 28.2807 0.968384 -1.44803 0
M  V30 273 C 25.4127 1.80055 -2.8947 0
M  V30 274 H 26.6057 -0.00464908 -2.999 0
M  V30 275 H 24.1587 -0.0399306 -1.56249 0
M  V30 276 H 24.8937 2.42449 -2.15381 0
M  V30 277 H 24.6787 1.45602 -3.64064 0
M  V30 278 H 26.1687 2.41773 -3.40493 0
M  V30 279 N 26.6058 1.57591 -0.0167156 0
M  V30 280 C 27.5358 2.12496 0.967858 0
M  V30 281 C 28.5168 1.03807 1.34752 0
M  V30 282 O 29.7018 1.31577 1.42833 0
M  V30 283 C 26.8318 2.64194 2.25431 0
M  V30 284 C 25.7858 3.77559 2.01576 0
M  V30 285 C 25.1118 4.15636 3.36379 0
M  V30 286 C 26.4118 5.04151 1.36489 0
M  V30 287 H 28.1058 2.95013 0.510643 0
M  V30 288 H 25.6518 1.41915 0.244181 0
M  V30 289 H 27.6048 3.01236 2.94678 0
M  V30 290 H 26.3288 1.78821 2.73296 0
M  V30 291 H 24.9878 3.40937 1.34751 0
M  V30 292 H 24.6358 3.27263 3.81979 0
M  V30 293 H 24.3358 4.92022 3.21229 0
M  V30 294 H 25.8598 4.5525 4.06915 0
M  V30 295 H 27.2738 5.38857 1.95718 0
M  V30 296 H 25.6708 5.85453 1.31776 0
M  V30 297 H 26.7408 4.83733 0.336219 0
M  V30 298 N 28.0839 -0.256276 1.55502 0
M  V30 299 C 29.3319 -0.983672 1.76545 0
M  V30 300 C 29.6529 -1.86206 0.578982 0
M  V30 301 O 28.9229 -1.91656 -0.405577 0
M  V30 302 H 27.5029 -0.366191 0.651086 0
M  V30 303 H 30.1649 -0.276479 1.92929 0
M  V30 304 H 29.2609 -1.61087 2.67315 0
M  V30 305 N 29.562 -1.4872 -0.521534 0
M  V30 306 C 30.787 -1.61101 -1.30618 0
M  V30 307 C 31.212 -0.274611 -1.86085 0
M  V30 308 O 30.57 0.754937 -1.64834 0
M  V30 309 C 30.618 -2.66709 -2.4269 0
M  V30 310 O 29.722 -2.24456 -3.45967 0
M  V30 311 H 29.063 -0.539921 -0.386499 0
M  V30 312 H 31.593 -1.94767 -0.626645 0
M  V30 313 H 31.603 -2.88245 -2.88754 0
M  V30 314 H 30.278 -3.63727 -2.01682 0
M  V30 315 H 28.855 -2.13168 -3.05964 0
M  V30 316 N 31.0401 0.771051 -1.3745 0
M  V30 317 C 32.0031 1.86598 -1.33093 0
M  V30 318 C 33.0031 1.59076 -0.234845 0
M  V30 319 O 34.1931 1.67145 -0.490732 0
M  V30 320 C 31.3251 3.23747 -1.06773 0
M  V30 321 H 32.5181 1.91873 -2.30488 0
M  V30 322 H 30.0711 0.970876 -1.2249 0
M  V30 323 H 30.8061 3.24148 -0.099129 0
M  V30 324 H 30.5911 3.45115 -1.86112 0
M  V30 325 H 32.0811 4.03824 -1.06377 0
M  V30 326 N 32.5182 1.22032 0.997298 0
M  V30 327 C 33.7432 1.06921 1.77715 0
M  V30 328 C 34.1682 -0.376226 1.84299 0
M  V30 329 O 33.5262 -1.27165 1.29223 0
M  V30 330 C 33.5742 1.67996 3.19076 0
M  V30 331 O 32.6782 0.930653 4.01762 0
M  V30 332 H 32.0192 0.375814 0.547412 0
M  V30 333 H 34.5492 1.61737 1.25309 0
M  V30 334 H 34.5592 1.72538 3.69723 0
M  V30 335 H 33.2342 2.73182 3.13599 0
M  V30 336 H 31.8112 0.960917 3.60307 0
M  V30 337 N 33.9963 -1.19345 1.0293 0
M  V30 338 C 34.9593 -2.20793 0.615069 0
M  V30 339 C 35.9593 -1.57553 -0.321533 0
M  V30 340 O 37.1493 -1.73862 -0.108483 0
M  V30 341 C 34.2813 -3.40754 -0.0999222 0
M  V30 342 H 35.4743 -2.58955 1.51269 0
M  V30 343 H 33.0273 -1.3303 0.820534 0
M  V30 344 H 33.7623 -3.0811 -1.01187 0
M  V30 345 H 33.5473 -3.87889 0.57309 0
M  V30 346 H 35.0373 -4.15898 -0.376645 0
M  V30 347 N 35.4744 -0.807222 -1.35358 0
M  V30 348 C 36.7514 -0.311126 -1.9311 0
M  V30 349 C 37.1314 1.19937 -1.73719 0
M  V30 350 O 36.4794 1.99918 -1.10657 0
M  V30 351 C 36.6894 -0.723226 -3.41424 0
M  V30 352 C 38.0374 -0.713078 -4.18569 0
M  V30 353 O 39.0614 -0.664811 -3.49941 0
M  V30 354 O 37.9204 -0.772022 -5.41019 0
M  V30 355 H 35.0144 -0.081526 -0.822972 0
M  V30 356 H 37.5604 -0.890962 -1.4443 0
M  V30 357 H 36.3324 -1.76426 -3.4927 0
M  V30 358 H 35.9554 -0.118232 -3.97424 0
M  V30 359 N 36.9525 1.47285 -0.560781 0
M  V30 360 C 38.1775 2.07359 -0.0410566 0
M  V30 361 C 38.6025 1.41017 1.24483 0
M  V30 362 O 37.9605 0.486368 1.74654 0
M  V30 363 C 38.0085 3.6035 0.134123 0
M  V30 364 O 37.1125 3.94681 1.19587 0
M  V30 365 H 36.4535 0.661887 -0.0529291 0
M  V30 366 H 38.9835 1.89252 -0.777482 0
M  V30 367 H 38.9935 4.0652 0.347207 0
M  V30 368 H 37.6685 4.08034 -0.805047 0
M  V30 369 H 36.2455 3.60251 0.962987 0
M  V30 370 N 38.4306 0.297415 1.54768 0
M  V30 371 C 39.3936 -0.567375 2.22066 0
M  V30 372 C 40.3936 -1.06409 1.20556 0
M  V30 373 O 41.5836 -0.960691 1.45315 0
M  V30 374 C 38.7156 -1.78517 2.90421 0
M  V30 375 H 39.9086 0.0205534 2.99893 0
M  V30 376 H 37.4616 0.0482163 1.56226 0
M  V30 377 H 38.1966 -2.41303 2.16664 0
M  V30 378 H 37.9816 -1.43669 3.64831 0
M  V30 379 H 39.4716 -2.39964 3.41771 0
M  V30 380 N 39.9087 -1.5758 0.0250728 0
M  V30 381 C 40.8717 -2.08896 -0.943139 0
M  V30 382 C 41.8717 -1.00321 -1.25668 0
M  V30 383 O 43.0617 -1.26495 -1.19769 0
M  V30 384 C 40.1937 -2.55143 -2.26086 0
M  V30 385 H 41.3867 -2.95723 -0.498775 0
M  V30 386 H 38.9397 -1.54703 -0.222888 0
M  V30 387 H 39.6747 -1.71633 -2.75159 0
M  V30 388 H 39.4597 -3.34461 -2.04641 0
M  V30 389 H 40.9497 -2.95083 -2.95492 0
M  V30 390 N 41.3868 0.248026 -1.55636 0
M  V30 391 C 42.3168 1.31079 -1.93237 0
M  V30 392 C 43.2978 1.50264 -0.797174 0
M  V30 393 O 44.4828 1.62891 -1.05737 0
M  V30 394 C 41.6128 2.66575 -2.22609 0
M  V30 395 C 40.5668 2.62087 -3.3837 0
M  V30 396 C 39.8928 4.01369 -3.53281 0
M  V30 397 C 41.1928 2.19171 -4.7409 0
M  V30 398 H 42.8868 0.998556 -2.82257 0
M  V30 399 H 40.4328 0.47891 -1.35803 0
M  V30 400 H 42.3858 3.41057 -2.47503 0
M  V30 401 H 41.1098 2.99432 -1.30414 0
M  V30 402 H 39.7688 1.90063 -3.13483 0
M  V30 403 H 39.4168 4.31489 -2.58508 0
M  V30 404 H 39.1168 3.99254 -4.31127 0
M  V30 405 H 40.6408 4.77552 -3.80495 0
M  V30 406 H 42.0548 2.83384 -4.98363 0
M  V30 407 H 40.4518 2.2817 -5.5503 0
M  V30 408 H 41.5218 1.14336 -4.71227 0
M  V30 409 N 42.8649 1.48995 0.513639 0
M  V30 410 C 43.7949 1.67636 1.62544 0
M  V30 411 C 44.7759 0.525087 1.61793 0
M  V30 412 O 45.9609 0.759502 1.78732 0
M  V30 413 C 43.0909 1.73114 3.01079 0
M  V30 414 C 42.0449 2.87905 3.16693 0
M  V30 415 C 41.3709 2.78486 4.56453 0
M  V30 416 C 42.6709 4.29005 2.97913 0
M  V30 417 H 44.3649 2.60716 1.47198 0
M  V30 418 H 41.9109 1.25465 0.706714 0
M  V30 419 H 43.8639 1.84742 3.78746 0
M  V30 420 H 42.5879 0.766241 3.17484 0
M  V30 421 H 41.2469 2.75859 2.41448 0
M  V30 422 H 40.8949 1.7993 4.69717 0
M  V30 423 H 40.5949 3.55523 4.67843 0
M  V30 424 H 42.1189 2.92104 5.36197 0
M  V30 425 H 43.5329 4.41798 3.65359 0
M  V30 426 H 41.9299 5.07166 3.20785 0
M  V30 427 H 42.9999 4.44329 1.94165 0
M  V30 428 N 44.343 -0.763751 1.37857 0
M  V30 429 C 45.591 -1.51957 1.33243 0
M  V30 430 C 45.912 -1.94835 -0.0801709 0
M  V30 431 O 45.182 -1.66894 -1.02582 0
M  V30 432 H 43.762 -0.563626 0.49024 0
M  V30 433 H 46.424 -0.908504 1.7243 0
M  V30 434 H 45.52 -2.41523 1.97669 0
M  V30 435 N 45.8211 -1.22559 -0.990812 0
M  V30 436 C 47.0671 -1.06303 -1.73411 0
M  V30 437 C 47.4221 0.397442 -1.8825 0
M  V30 438 O 46.7151 1.29062 -1.41611 0
M  V30 439 C 46.9091 -1.71011 -3.13831 0
M  V30 440 C 46.7381 -3.232 -3.12685 0
M  V30 441 C 45.5081 -3.92314 -3.18461 0
M  V30 442 C 47.7061 -4.20107 -2.96673 0
M  V30 443 N 45.6881 -5.31571 -3.07091 0
M  V30 444 C 47.0591 -5.46208 -2.93354 0
M  V30 445 C 49.1141 -4.10973 -2.8108 0
M  V30 446 C 47.8171 -6.64225 -2.76039 0
M  V30 447 C 49.8431 -5.28642 -2.65126 0
M  V30 448 C 49.2051 -6.53663 -2.62496 0
M  V30 449 H 45.3041 -0.443441 -0.644115 0
M  V30 450 H 47.8881 -1.55131 -1.17654 0
M  V30 451 H 46.0591 -1.2473 -3.67827 0
M  V30 452 H 47.7911 -1.47828 -3.76735 0
M  V30 453 H 44.5461 -3.43326 -3.26227 0
M  V30 454 H 44.9701 -6.0455 -3.0471 0
M  V30 455 H 49.6121 -3.15098 -2.8191 0
M  V30 456 H 47.3301 -7.60246 -2.73954 0
M  V30 457 H 50.9161 -5.23407 -2.54039 0
M  V30 458 H 49.7961 -7.43182 -2.50302 0
M  V30 459 N 47.2992 1.18797 -1.03562 0
M  V30 460 C 48.2622 2.20464 -0.626769 0
M  V30 461 C 49.2622 1.57721 0.313173 0
M  V30 462 O 50.4522 1.73917 0.0992615 0
M  V30 463 C 47.5842 3.40802 0.0818498 0
M  V30 464 H 48.7772 2.58149 -1.5264 0
M  V30 465 H 46.3302 1.32593 -0.827578 0
M  V30 466 H 47.0652 3.08642 0.995518 0
M  V30 467 H 46.8502 3.8758 -0.593652 0
M  V30 468 H 48.3402 4.16092 0.354584 0
M  V30 469 N 48.7773 0.814389 1.34928 0
M  V30 470 C 50.1933 0.499084 1.51596 0
M  V30 471 C 50.3933 -0.978319 1.76157 0
M  V30 472 O 49.4493 -1.76309 1.80752 0
M  V30 473 C 50.7623 1.35121 2.68631 0
M  V30 474 C 52.3103 1.34746 2.82511 0
M  V30 475 C 52.7853 2.18388 4.0258 0
M  V30 476 N 54.2763 2.15966 4.09772 0
M  V30 477 C 55.0113 2.77437 5.01813 0
M  V30 478 N 54.5073 3.47866 5.99134 0
M  V30 479 N 56.3003 2.67037 4.94619 0
M  V30 480 H 48.4513 1.7711 1.17243 0
M  V30 481 H 50.7143 0.754256 0.574284 0
M  V30 482 H 50.4203 2.40001 2.57085 0
M  V30 483 H 50.2943 1.00991 3.63429 0
M  V30 484 H 52.6813 0.30648 2.93504 0
M  V30 485 H 52.7623 1.72869 1.88547 0
M  V30 486 H 52.4063 3.2253 3.92347 0
M  V30 487 H 52.3363 1.77621 4.9574 0
M  V30 488 H 54.8273 1.64729 3.40107 0
M  V30 489 H 55.1403 3.92038 6.65977 0
M  V30 490 H 53.4853 3.51972 5.99284 0
M  V30 491 H 56.6763 2.11597 4.17546 0
M  V30 492 H 56.8493 3.15232 5.66156 0
M  V30 493 N 50.2554 -1.46986 0.568584 0
M  V30 494 C 51.5034 -2.02041 0.0487022 0
M  V30 495 C 51.8244 -1.44408 -1.31039 0
M  V30 496 O 51.0944 -0.623477 -1.85714 0
M  V30 497 H 49.6744 -0.746849 0.015014 0
M  V30 498 H 52.3364 -1.80257 0.741168 0
M  V30 499 H 51.4324 -3.12085 -0.0308961 0
M  V30 500 N 51.7335 -0.305618 -1.54608 0
M  V30 501 C 52.6655 0.602161 -2.21149 0
M  V30 502 C 53.6785 1.09394 -1.20569 0
M  V30 503 O 54.8675 1.0106 -1.47136 0
M  V30 504 C 51.9675 1.83692 -2.84799 0
M  V30 505 C 51.1405 1.48686 -4.11353 0
M  V30 506 C 50.1995 2.57725 -4.58764 0
M  V30 507 O 49.2255 2.22623 -5.23858 0
M  V30 508 N 50.4275 3.88346 -4.31471 0
M  V30 509 H 53.1925 0.0324966 -2.99682 0
M  V30 510 H 50.7535 -0.128021 -1.61393 0
M  V30 511 H 52.7455 2.55994 -3.13448 0
M  V30 512 H 51.3155 2.31486 -2.10078 0
M  V30 513 H 50.5355 0.596269 -3.89664 0
M  V30 514 H 51.8235 1.22842 -4.93748 0
M  V30 515 H 51.2215 4.19671 -3.79331 0
M  V30 516 H 49.7785 4.56932 -4.64818 0
M  V30 517 N 53.2116 1.57565 -0.0334293 0
M  V30 518 C 54.6226 1.79746 0.504798 0
M  V30 519 C 54.9736 0.944091 1.71992 0
M  V30 520 O 54.0986 0.155694 2.15839 0
M  V30 521 C 54.6936 3.25997 0.922567 0
M  V30 522 C 53.2526 3.49159 1.40588 0
M  V30 523 C 52.3996 2.74785 0.372633 0
M  V30 524 H 55.3506 1.56565 -0.259436 0
M  V30 525 H 55.3716 3.35945 1.78666 0
M  V30 526 H 54.8836 3.88081 0.0379825 0
M  V30 527 H 52.9846 2.92332 2.31025 0
M  V30 528 H 53.0976 4.57873 1.41028 0
M  V30 529 H 51.4616 2.40391 0.841672 0
M  V30 530 H 52.2446 3.39587 -0.503559 0
M  V30 531 N 54.6897 -0.239769 1.55765 0
M  V30 532 C 55.6527 -1.28038 1.90103 0
M  V30 533 C 56.6527 -1.40723 0.778055 0
M  V30 534 O 57.8427 -1.39301 1.04599 0
M  V30 535 C 54.9747 -2.65702 2.13577 0
M  V30 536 H 56.1677 -0.988048 2.83157 0
M  V30 537 H 53.7207 -0.479382 1.48767 0
M  V30 538 H 54.4557 -3.00063 1.23015 0
M  V30 539 H 54.2407 -2.57875 2.95369 0
M  V30 540 H 55.7307 -3.40828 2.41301 0
M  V30 541 N 56.1678 -1.49265 -0.50573 0
M  V30 542 C 57.1308 -1.65075 -1.59006 0
M  V30 543 C 58.1308 -0.522768 -1.52065 0
M  V30 544 O 59.3208 -0.789117 -1.55302 0
M  V30 545 C 56.4528 -1.64369 -2.98656 0
M  V30 546 H 57.6458 -2.61784 -1.46319 0
M  V30 547 H 55.1988 -1.38226 -0.729616 0
M  V30 548 H 55.9338 -0.692272 -3.16825 0
M  V30 549 H 55.7188 -2.46282 -3.05103 0
M  V30 550 H 57.2088 -1.78674 -3.77446 0
M  V30 551 N 57.6459 0.756429 -1.3826 0
M  V30 552 C 58.6089 1.85176 -1.35065 0
M  V30 553 C 59.6089 1.58818 -0.251703 0
M  V30 554 O 60.7989 1.66615 -0.508433 0
M  V30 555 C 57.9309 3.22596 -1.10201 0
M  V30 556 H 59.1239 1.89417 -2.3251 0
M  V30 557 H 56.6769 0.95783 -1.23512 0
M  V30 558 H 57.4119 3.24025 -0.133504 0
M  V30 559 H 57.1969 3.43122 -1.89762 0
M  V30 560 H 58.6869 4.02673 -1.10654 0
M  V30 561 N 59.124 1.23083 0.984299 0
M  V30 562 C 60.535 1.05609 1.5396 0
M  V30 563 C 60.886 -0.377793 1.92528 0
M  V30 564 O 60.011 -1.26398 1.75649 0
M  V30 565 C 60.606 1.91087 2.7977 0
M  V30 566 C 59.165 1.77885 3.31713 0
M  V30 567 C 58.312 1.87028 2.04733 0
M  V30 568 H 61.263 1.36802 0.804419 0
M  V30 569 H 61.284 1.43336 3.5247 0
M  V30 570 H 60.796 2.9544 2.51668 0
M  V30 571 H 58.897 0.762995 3.64704 0
M  V30 572 H 59.01 2.61047 4.01735 0
M  V30 573 H 57.374 1.30565 2.18689 0
M  V30 574 H 58.157 2.92929 1.79017 0
M  V30 575 N 60.6021 -1.18246 1.0419 0
M  V30 576 C 61.5341 -2.2142 0.592088 0
M  V30 577 C 62.5471 -1.59233 -0.338909 0
M  V30 578 O 63.7361 -1.78002 -0.133231 0
M  V30 579 C 60.8361 -3.38546 -0.154854 0
M  V30 580 C 60.0091 -4.3031 0.784328 0
M  V30 581 C 59.0681 -5.26138 0.0804583 0
M  V30 582 O 58.0941 -5.64738 0.711292 0
M  V30 583 N 59.2961 -5.68261 -1.18574 0
M  V30 584 H 62.0611 -2.60636 1.47949 0
M  V30 585 H 59.6221 -1.33044 0.922544 0
M  V30 586 H 61.6141 -3.99678 -0.635606 0
M  V30 587 H 60.1841 -2.98012 -0.943811 0
M  V30 588 H 59.4041 -3.66764 1.44491 0
M  V30 589 H 60.6921 -4.8852 1.42218 0
M  V30 590 H 60.0901 -5.38957 -1.71876 0
M  V30 591 H 58.6471 -6.31584 -1.61074 0
M  V30 592 N 62.0802 -0.821533 -1.34494 0
M  V30 593 C 63.4912 -0.467956 -1.8074 0
M  V30 594 C 63.8422 1.01151 -1.68116 0
M  V30 595 O 62.9672 1.78707 -1.22036 0
M  V30 596 C 63.5622 -0.842627 -3.28154 0
M  V30 597 C 62.1212 -0.541439 -3.72485 0
M  V30 598 C 61.2682 -1.06028 -2.56229 0
M  V30 599 H 64.2192 -1.01183 -1.22261 0
M  V30 600 H 64.2402 -0.145876 -3.8022 0
M  V30 601 H 63.7522 -1.91945 -3.37311 0
M  V30 602 H 61.8532 0.526034 -3.68868 0
M  V30 603 H 61.9662 -1.08453 -4.66663 0
M  V30 604 H 60.3302 -0.481892 -2.501 0
M  V30 605 H 61.1132 -2.14352 -2.68157 0
M  V30 606 N 63.5583 1.46682 -0.576371 0
M  V30 607 C 64.8063 2.02013 -0.0594163 0
M  V30 608 C 65.1273 1.45101 1.30271 0
M  V30 609 O 64.3973 0.633317 1.8538 0
M  V30 610 H 62.9773 0.746759 -0.0189745 0
M  V30 611 H 65.6393 1.79862 -0.750717 0
M  V30 612 H 64.7353 3.12097 0.014345 0
M  V30 613 N 65.0364 0.313813 1.54444 0
M  V30 614 C 65.9664 -0.549454 2.26943 0
M  V30 615 C 66.9474 -1.12741 1.27372 0
M  V30 616 O 68.1324 -1.15436 1.56167 0
M  V30 617 C 65.2624 -1.71523 3.01989 0
M  V30 618 C 64.2164 -1.26703 4.08816 0
M  V30 619 C 63.5424 -2.51898 4.71647 0
M  V30 620 C 64.8424 -0.388962 5.2085 0
M  V30 621 H 66.5364 0.0552661 2.99349 0
M  V30 622 H 64.0824 0.0280207 1.43973 0
M  V30 623 H 66.0354 -2.32535 3.51433 0
M  V30 624 H 64.7594 -2.34639 2.27183 0
M  V30 625 H 63.4184 -0.679896 3.6024 0
M  V30 626 H 63.0664 -3.13356 3.93468 0
M  V30 627 H 62.7664 -2.22605 5.43802 0
M  V30 628 H 64.2904 -3.1369 5.23861 0
M  V30 629 H 65.7044 -0.905107 5.6611 0
M  V30 630 H 64.1014 -0.18924 5.99802 0
M  V30 631 H 65.1714 0.582699 4.81386 0
M  V30 632 N 66.5145 -1.57545 0.0417849 0
M  V30 633 C 67.4775 -2.09885 -0.92093 0
M  V30 634 C 68.4775 -1.01648 -1.24596 0
M  V30 635 O 69.6675 -1.27759 -1.1842 0
M  V30 636 C 66.7995 -2.57527 -2.23367 0
M  V30 637 H 67.9925 -2.96236 -0.467382 0
M  V30 638 H 65.5455 -1.5493 -0.206467 0
M  V30 639 H 66.2805 -1.74542 -2.73323 0
M  V30 640 H 66.0655 -3.36613 -2.01083 0
M  V30 641 H 67.5555 -2.98201 -2.92346 0
M  V30 642 N 67.9926 0.231505 -1.5589 0
M  V30 643 C 68.9226 1.29022 -1.94617 0
M  V30 644 C 69.9036 1.4941 -0.813067 0
M  V30 645 O 71.0886 1.6176 -1.07459 0
M  V30 646 C 68.2186 2.64199 -2.25424 0
M  V30 647 C 67.1726 2.58484 -3.41131 0
M  V30 648 C 66.4986 3.97599 -3.57518 0
M  V30 649 C 67.7986 2.1413 -4.76388 0
M  V30 650 H 69.4926 0.968563 -2.83301 0
M  V30 651 H 67.0386 0.464479 -1.36303 0
M  V30 652 H 68.9916 3.38413 -2.51107 0
M  V30 653 H 67.7156 2.98032 -1.33583 0
M  V30 654 H 66.3746 1.86727 -3.15481 0
M  V30 655 H 66.0226 4.28723 -2.6307 0
M  V30 656 H 65.7226 3.94659 -4.35337 0
M  V30 657 H 67.2466 4.7349 -3.85538 0
M  V30 658 H 68.6606 2.78083 -5.01341 0
M  V30 659 H 67.0576 2.2227 -5.57419 0
M  V30 660 H 68.1276 1.09331 -4.72414 0
M  V30 661 N 69.4707 1.49531 0.497807 0
M  V30 662 C 70.4337 1.65916 1.58128 0
M  V30 663 C 71.4337 0.530825 1.51786 0
M  V30 664 O 72.6237 0.797342 1.54881 0
M  V30 665 C 69.7557 1.65951 2.9778 0
M  V30 666 H 70.9487 2.62556 1.44929 0
M  V30 667 H 68.5017 1.38611 0.722275 0
M  V30 668 H 69.2367 0.709065 3.16453 0
M  V30 669 H 69.0217 2.47897 3.03792 0
M  V30 670 H 70.5117 1.80673 3.76493 0
M  V30 671 N 70.9488 -0.749086 1.3866 0
M  V30 672 C 71.9118 -1.84457 1.36045 0
M  V30 673 C 72.9118 -1.58682 0.260122 0
M  V30 674 O 74.1018 -1.66343 0.517261 0
M  V30 675 C 71.2338 -3.22008 1.11911 0
M  V30 676 H 72.4268 -1.88182 2.33512 0
M  V30 677 H 69.9798 -0.951266 1.24019 0
M  V30 678 H 70.7148 -3.2395 0.150686 0
M  V30 679 H 70.4998 -3.42111 1.91579 0
M  V30 680 H 71.9898 -4.0208 1.12788 0
M  V30 681 N 72.4269 -1.23603 -0.977757 0
M  V30 682 C 73.8429 -0.999251 -1.24447 0
M  V30 683 C 74.0429 0.298053 -1.99283 0
M  V30 684 O 73.0989 1.01681 -2.31122 0
M  V30 685 C 74.4119 -2.20784 -2.04144 0
M  V30 686 C 75.9599 -2.25303 -2.17273 0
M  V30 687 C 76.4349 -3.45755 -3.00362 0
M  V30 688 N 77.9259 -3.4601 -3.07947 0
M  V30 689 C 78.6609 -4.35868 -3.72568 0
M  V30 690 N 78.1569 -5.35966 -4.38991 0
M  V30 691 N 79.9499 -4.23605 -3.6948 0
M  V30 692 H 72.1009 -2.06986 -0.476483 0
M  V30 693 H 74.3639 -0.907801 -0.273134 0
M  V30 694 H 74.0699 -3.14945 -1.56533 0
M  V30 695 H 73.9439 -2.22085 -3.04891 0
M  V30 696 H 76.3309 -1.3168 -2.64092 0
M  V30 697 H 76.4119 -2.28033 -1.15907 0
M  V30 698 H 76.0559 -4.39687 -2.5424 0
M  V30 699 H 75.9859 -3.40266 -4.01904 0
M  V30 700 H 78.4769 -2.73588 -2.60688 0
M  V30 701 H 78.7899 -6.00783 -4.86086 0
M  V30 702 H 77.1349 -5.39863 -4.37691 0
M  V30 703 H 80.3259 -3.44647 -3.16759 0
M  V30 704 H 80.4989 -4.93836 -4.1956 0
M  V30 705 N 73.905 1.17692 -1.04816 0
M  V30 706 C 75.321 1.39863 -0.768794 0
M  V30 707 C 75.521 1.91118 0.638451 0
M  V30 708 O 74.577 2.10036 1.40146 0
M  V30 709 C 75.89 2.39274 -1.82122 0
M  V30 710 C 77.438 2.52987 -1.843 0
M  V30 711 C 77.913 3.55669 -2.88555 0
M  V30 712 N 79.404 3.63183 -2.87493 0
M  V30 713 C 80.139 4.42381 -3.64811 0
M  V30 714 N 79.635 5.25125 -4.51903 0
M  V30 715 N 81.428 4.37217 -3.53267 0
M  V30 716 H 73.579 0.82752 -1.95617 0
M  V30 717 H 75.842 0.426123 -0.846831 0
M  V30 718 H 75.548 2.08678 -2.83102 0
M  V30 719 H 75.422 3.38725 -1.65967 0
M  V30 720 H 77.809 2.82896 -0.839869 0
M  V30 721 H 77.89 1.53623 -2.04532 0
M  V30 722 H 77.534 3.26499 -3.89051 0
M  V30 723 H 77.464 4.54728 -2.65575 0
M  V30 724 H 79.955 3.04103 -2.24343 0
M  V30 725 H 80.268 5.82728 -5.07591 0
M  V30 726 H 78.613 5.24519 -4.55966 0
M  V30 727 H 81.804 3.71626 -2.84625 0
M  V30 728 H 81.977 4.98696 -4.13771 0
M  V30 729 N 75.3831 0.828654 1.34056 0
M  V30 730 C 76.3331 0.226828 2.26869 0
M  V30 731 C 77.3171 -0.612243 1.48796 0
M  V30 732 O 78.5091 -0.465884 1.70759 0
M  V30 733 C 75.6381 -0.605654 3.37915 0
M  V30 734 C 74.7241 0.244361 4.23395 0
M  V30 735 N 75.1151 1.31815 4.88322 0
M  V30 736 C 73.4131 0.0296616 4.4599 0
M  V30 737 C 74.1141 1.83895 5.51867 0
M  V30 738 N 73.0901 1.14196 5.3147 0
M  V30 739 H 76.8921 1.04811 2.74576 0
M  V30 740 H 74.4061 0.67205 1.47842 0
M  V30 741 H 76.4031 -1.05302 4.03382 0
M  V30 742 H 75.0631 -1.42504 2.91758 0
M  V30 743 H 76.0741 1.70099 4.8917 0
M  V30 744 H 72.7511 -0.757097 4.10578 0
M  V30 745 H 74.1411 2.7376 6.136 0
M  V30 746 N 76.8612 -1.46375 0.584142 0
M  V30 747 C 78.0912 -2.06461 0.0758195 0
M  V30 748 C 78.4992 -1.43322 -1.23512 0
M  V30 749 O 77.8422 -0.533216 -1.75791 0
M  V30 750 C 77.9042 -3.59131 -0.162773 0
M  V30 751 C 77.5682 -4.4447 1.06279 0
M  V30 752 C 78.5652 -4.80918 1.97519 0
M  V30 753 C 76.2502 -4.85584 1.28504 0
M  V30 754 C 78.2442 -5.57309 3.09331 0
M  V30 755 C 75.9312 -5.61734 2.4062 0
M  V30 756 C 76.9292 -5.9751 3.30863 0
M  V30 757 O 76.6172 -6.72121 4.41032 0
M  V30 758 H 76.3492 -0.673745 0.0551725 0
M  V30 759 H 78.9032 -1.88969 0.804984 0
M  V30 760 H 77.1332 -3.74936 -0.946565 0
M  V30 761 H 78.8222 -4.0114 -0.619782 0
M  V30 762 H 79.5882 -4.49732 1.81565 0
M  V30 763 H 75.4672 -4.57187 0.591702 0
M  V30 764 H 79.0112 -5.85152 3.79793 0
M  V30 765 H 74.9082 -5.92334 2.56537 0
M  V30 766 H 75.6762 -6.90547 4.39417 0
M  V30 767 N 78.3393 -0.321999 -1.54275 0
M  V30 768 C 79.5643 0.285791 -2.05422 0
M  V30 769 C 79.9893 1.45124 -1.19669 0
M  V30 770 O 79.3473 1.80132 -0.205441 0
M  V30 771 C 79.3953 0.69956 -3.53749 0
M  V30 772 O 78.4993 1.8021 -3.70942 0
M  V30 773 H 77.8403 0.0518962 -0.661969 0
M  V30 774 H 80.3703 -0.469954 -1.9913 0
M  V30 775 H 80.3803 0.982649 -3.9599 0
M  V30 776 H 79.0553 -0.152864 -4.15619 0
M  V30 777 H 77.6323 1.51794 -3.40607 0
M  V30 778 N 79.8174 1.5752 -0.0501392 0
M  V30 779 C 80.7274 2.14952 0.939827 0
M  V30 780 C 81.7434 1.10706 1.34239 0
M  V30 781 O 82.9194 1.42869 1.41952 0
M  V30 782 C 79.9844 2.68232 2.19665 0
M  V30 783 C 79.0454 3.87272 1.85253 0
M  V30 784 C 78.2784 4.38002 3.04943 0
M  V30 785 O 78.5014 3.87811 4.18281 0
M  V30 786 O 77.4354 5.29602 2.86017 0
M  V30 787 H 81.2614 2.9986 0.481392 0
M  V30 788 H 78.8464 1.4841 0.171699 0
M  V30 789 H 80.7284 3.02475 2.93406 0
M  V30 790 H 79.4034 1.86395 2.64648 0
M  V30 791 H 78.3104 3.5792 1.0883 0
M  V30 792 H 79.6434 4.70336 1.4507 0
M  V30 793 N 81.2955 -0.223234 1.56011 0
M  V30 794 C 82.2585 -1.26014 1.9145 0
M  V30 795 C 83.2585 -1.3989 0.792937 0
M  V30 796 O 84.4485 -1.38184 1.0607 0
M  V30 797 C 81.5805 -2.63422 2.16383 0
M  V30 798 H 82.7735 -0.95796 2.84189 0
M  V30 799 H 80.3265 -0.463576 1.49267 0
M  V30 800 H 81.0615 -2.98741 1.2619 0
M  V30 801 H 80.8465 -2.54728 2.98088 0
M  V30 802 H 82.3365 -3.38249 2.44903 0
M  V30 803 N 82.7736 -1.49793 -0.48987 0
M  V30 804 C 84.0196 -1.60078 -1.24511 0
M  V30 805 C 84.3526 -0.291608 -1.91998 0
M  V30 806 O 83.6276 0.705647 -1.81248 0
M  V30 807 C 83.9106 -2.76791 -2.30345 0
M  V30 808 C 83.7636 -4.17535 -1.67286 0
M  V30 809 C 85.0826 -2.89111 -3.31817 0
M  V30 810 H 82.2016 -0.582645 -0.451324 0
M  V30 811 H 84.8436 -1.82117 -0.541612 0
M  V30 812 H 82.9936 -2.5813 -2.90346 0
M  V30 813 H 84.6656 -4.4774 -1.11026 0
M  V30 814 H 82.9086 -4.22665 -0.976577 0
M  V30 815 H 83.5796 -4.95094 -2.44103 0
M  V30 816 H 86.0556 -3.06133 -2.81819 0
M  V30 817 H 84.9316 -3.72433 -4.03219 0
M  V30 818 H 85.1926 -1.9893 -3.94815 0
M  V30 819 N 84.2517 0.741722 -1.39055 0
M  V30 820 C 85.2147 1.83733 -1.37021 0
M  V30 821 C 86.2147 1.58542 -0.268534 0
M  V30 822 O 87.4047 1.66067 -0.526076 0
M  V30 823 C 84.5367 3.2141 -1.13617 0
M  V30 824 H 85.7297 1.86941 -2.34506 0
M  V30 825 H 83.2827 0.944676 -1.24521 0
M  V30 826 H 84.0177 3.23865 -0.167863 0
M  V30 827 H 83.8027 3.4109 -1.93391 0
M  V30 828 H 85.2927 4.01477 -1.14918 0
M  V30 829 N 85.7298 1.2412 0.971189 0
M  V30 830 C 87.0068 0.986867 1.6888 0
M  V30 831 C 87.3868 -0.491857 2.0529 0
M  V30 832 O 86.7348 -1.46531 1.75331 0
M  V30 833 C 86.9448 1.9063 2.92338 0
M  V30 834 C 88.2928 2.17515 3.64654 0
M  V30 835 O 89.3168 1.88254 3.02388 0
M  V30 836 O 88.1758 2.6719 4.7673 0
M  V30 837 H 85.2698 0.372944 0.738134 0
M  V30 838 H 87.8158 1.35203 1.02559 0
M  V30 839 H 86.5878 2.90552 2.62097 0
M  V30 840 H 86.2108 1.54408 3.66393 0
M  V30 841 N 87.2079 -1.17134 1.05439 0
M  V30 842 C 88.6239 -1.39454 0.776201 0
M  V30 843 C 88.8239 -1.91454 -0.628307 0
M  V30 844 O 87.8799 -2.10777 -1.39031 0
M  V30 845 C 89.1929 -2.38305 1.83388 0
M  V30 846 C 90.7409 -2.52006 1.85639 0
M  V30 847 C 91.2159 -3.54133 2.90437 0
M  V30 848 N 92.7069 -3.61653 2.89415 0
M  V30 849 C 93.4419 -4.4044 3.67152 0
M  V30 850 N 92.9379 -5.22721 4.54681 0
M  V30 851 N 94.7309 -4.35337 3.55581 0
M  V30 852 H 86.8819 -0.817134 1.96053 0
M  V30 853 H 89.1449 -0.421626 0.849079 0
M  V30 854 H 88.8509 -2.07173 2.84204 0
M  V30 855 H 88.7249 -3.37841 1.67761 0
M  V30 856 H 91.1119 -2.82447 0.85486 0
M  V30 857 H 91.1929 -1.52537 2.05344 0
M  V30 858 H 90.8369 -3.24431 3.90777 0
M  V30 859 H 90.7669 -4.53313 2.67983 0
M  V30 860 H 93.2579 -3.02909 2.25952 0
M  V30 861 H 93.5709 -5.80027 5.10674 0
M  V30 862 H 91.9159 -5.22093 4.58741 0
M  V30 863 H 95.1069 -3.70112 2.86592 0
M  V30 864 H 95.2799 -4.96494 4.1641 0
M  V30 865 N 88.686 -0.835752 -1.33615 0
M  V30 866 C 89.596 -0.269088 -2.33052 0
M  V30 867 C 90.612 0.603251 -1.63208 0
M  V30 868 O 91.788 0.508112 -1.94885 0
M  V30 869 C 88.853 0.549091 -3.42324 0
M  V30 870 C 87.914 -0.347156 -4.27894 0
M  V30 871 C 87.147 0.43207 -5.31948 0
M  V30 872 O 87.37 1.66409 -5.45586 0
M  V30 873 O 86.304 -0.192298 -6.01593 0
M  V30 874 H 90.13 -1.09243 -2.83372 0
M  V30 875 H 87.715 -0.598198 -1.36901 0
M  V30 876 H 89.597 1.01414 -4.09015 0
M  V30 877 H 88.272 1.34955 -2.94226 0
M  V30 878 H 87.179 -0.859979 -3.64081 0
M  V30 879 H 88.512 -1.1123 -4.79467 0
M  V30 880 N 90.1641 1.46063 -0.591896 0
M  V30 881 C 91.4411 1.95595 -0.0137119 0
M  V30 882 C 91.8211 1.5345 1.4497 0
M  V30 883 O 91.1691 0.789543 2.14426 0
M  V30 884 C 91.3791 3.48453 -0.195373 0
M  V30 885 C 92.7271 4.24546 -0.0679765 0
M  V30 886 O 93.7511 3.55982 -0.124681 0
M  V30 887 O 92.6101 5.46467 0.0600579 0
M  V30 888 H 89.7041 0.825795 0.0446279 0
M  V30 889 H 92.2501 1.56303 -0.660859 0
M  V30 890 H 91.0221 3.72045 -1.21235 0
M  V30 891 H 90.6451 3.94597 0.487775 0
M  V30 892 N 91.6422 0.330177 1.54103 0
M  V30 893 C 92.9192 -0.325007 1.92881 0
M  V30 894 C 93.2992 -1.6934 1.26045 0
M  V30 895 O 92.6472 -2.24855 0.406526 0
M  V30 896 C 92.8572 -0.410634 3.46576 0
M  V30 897 C 94.2052 -0.667801 4.19316 0
M  V30 898 O 95.2292 -0.49329 3.52768 0
M  V30 899 O 94.0882 -1.00491 5.37181 0
M  V30 900 H 91.1822 -0.186873 0.80561 0
M  V30 901 H 93.7282 0.380376 1.65382 0
M  V30 902 H 92.5002 0.550164 3.87413 0
M  V30 903 H 92.1232 -1.16333 3.802 0
M  V30 904 N 93.1203 -1.57491 0.0584922 0
M  V30 905 C 94.5313 -1.80526 -0.476138 0
M  V30 906 C 94.8823 -0.971334 -1.70469 0
M  V30 907 O 94.0073 -0.190012 -2.15564 0
M  V30 908 C 94.6023 -3.27424 -0.870587 0
M  V30 909 C 93.1613 -3.51351 -1.35015 0
M  V30 910 C 92.3083 -2.75343 -0.32887 0
M  V30 911 H 95.2593 -1.56133 0.284312 0
M  V30 912 H 95.2803 -3.38745 -1.73299 0
M  V30 913 H 94.7923 -3.88093 0.0237627 0
M  V30 914 H 92.8933 -2.95971 -2.26345 0
M  V30 915 H 93.0063 -4.60059 -1.33726 0
M  V30 916 H 91.3703 -2.417 -0.803321 0
M  V30 917 H 92.1533 -3.38743 0.557521 0
M  V30 918 N 94.5984 0.214957 -1.56127 0
M  V30 919 C 95.5464 1.28601 -1.93816 0
M  V30 920 C 96.5404 1.48175 -0.821016 0
M  V30 921 O 97.7464 1.49271 -1.0059 0
M  V30 922 H 94.1214 0.431302 -0.616022 0
M  V30 923 H 96.0924 0.940991 -2.83175 0
M  V30 924 C 94.8414 2.62779 -2.27689 0
M  V30 925 H 94.1644 2.48527 -3.13168 0
M  V30 926 H 95.6044 3.36517 -2.57939 0
M  V30 927 C 94.0634 3.18285 -1.10436 0
M  V30 928 O 94.5934 4.00002 -0.368945 0
M  V30 929 N 92.7994 2.7675 -0.886433 0
M  V30 930 H 92.3464 2.10404 -1.48619 0
M  V30 931 H 92.3044 3.14229 -0.103656 0
M  V30 932 N 96.0765 1.50051 0.48192 0
M  V30 933 C 97.3235 1.60498 1.23477 0
M  V30 934 C 97.6515 0.300331 1.92167 0
M  V30 935 O 96.9065 -0.713094 1.82246 0
M  V30 936 C 97.2055 2.72717 2.30998 0
M  V30 937 C 96.8715 4.13572 1.79636 0
M  V30 938 C 95.5335 4.519 1.65348 0
M  V30 939 C 97.8855 5.01649 1.41412 0
M  V30 940 C 95.2135 5.76057 1.11244 0
M  V30 941 C 97.5655 6.26343 0.887538 0
M  V30 942 C 96.2295 6.63483 0.731207 0
M  V30 943 H 95.4995 0.587303 0.451836 0
M  V30 944 H 98.1465 1.83948 0.532468 0
M  V30 945 H 96.4515 2.43312 3.07094 0
M  V30 946 H 98.1485 2.78006 2.88988 0
M  V30 947 H 94.7385 3.83329 1.91721 0
M  V30 948 H 98.9225 4.72679 1.51289 0
M  V30 949 H 94.1785 6.03516 0.978686 0
M  V30 950 H 98.3525 6.93958 0.582654 0
M  V30 951 H 95.9795 7.59568 0.309806 0
M  V30 952 N 97.5546 -0.734337 1.39446 0
M  V30 953 C 98.8016 -1.49391 1.36706 0
M  V30 954 C 99.1296 -1.94465 -0.0367813 0
M  V30 955 O 98.3846 -1.67154 -1.01774 0
M  V30 956 C 98.6836 -2.74711 2.28623 0
M  V30 957 C 98.3496 -2.48501 3.76242 0
M  V30 958 C 97.0116 -2.41062 4.16464 0
M  V30 959 C 99.3636 -2.26098 4.69606 0
M  V30 960 C 96.6916 -2.09262 5.48112 0
M  V30 961 C 99.0436 -1.95814 6.01531 0
M  V30 962 C 97.7076 -1.86845 6.40816 0
M  V30 963 H 96.9776 -0.546661 0.500243 0
M  V30 964 H 99.6246 -0.842788 1.71957 0
M  V30 965 H 97.9296 -3.44569 1.86492 0
M  V30 966 H 99.6266 -3.32741 2.23796 0
M  V30 967 H 96.2166 -2.55169 3.44364 0
M  V30 968 H 100.401 -2.30812 4.39363 0
M  V30 969 H 95.6566 -2.00841 5.77471 0
M  V30 970 H 99.8306 -1.77488 6.73403 0
M  V30 971 H 97.4576 -1.6197 7.42745 0
M  V30 972 N 99.0327 -1.24633 -0.964593 0
M  V30 973 C 99.9797 -1.04144 -2.05968 0
M  V30 974 C 100.95 0.046262 -1.66036 0
M  V30 975 O 102.135 -0.108972 -1.90489 0
M  V30 976 C 99.2747 -0.65563 -3.38815 0
M  V30 977 C 98.3877 -1.81714 -3.91923 0
M  V30 978 C 97.5227 -1.37662 -5.13052 0
M  V30 979 C 96.5617 -2.50788 -5.58365 0
M  V30 980 N 95.6987 -2.07582 -6.70712 0
M  V30 981 H 100.539 -1.9787 -2.22827 0
M  V30 982 H 98.0757 -0.9855 -1.09208 0
M  V30 983 H 100.034 -0.412954 -4.15151 0
M  V30 984 H 98.6637 0.244627 -3.21872 0
M  V30 985 H 97.7157 -2.1734 -3.12198 0
M  V30 986 H 99.0277 -2.66705 -4.21509 0
M  V30 987 H 98.1817 -1.093 -5.96773 0
M  V30 988 H 96.9207 -0.497293 -4.85158 0
M  V30 989 H 95.9257 -2.79906 -4.73215 0
M  V30 990 H 97.1507 -3.39283 -5.88272 0
M  V30 991 H 95.0967 -1.22051 -6.44546 0
M  V30 992 H 95.0137 -2.86125 -6.99763 0
M  V30 993 H 96.2817 -1.82369 -7.57867 0
M  V30 994 N 100.511 1.16574 -1.06058 0
M  V30 995 C 101.444 2.19798 -0.61352 0
M  V30 996 C 102.422 1.58509 0.362453 0
M  V30 997 O 103.606 1.86527 0.271994 0
M  V30 998 C 100.733 3.3855 0.100915 0
M  V30 999 C 99.7788 4.18317 -0.831438 0
M  V30 1000 S 100.612 4.82375 -2.32539 0
M  V30 1001 C 101.768 6.04508 -1.62238 0
M  V30 1002 H 102.001 2.5738 -1.48805 0
M  V30 1003 H 99.5338 1.27327 -0.873338 0
M  V30 1004 H 101.492 4.07358 0.506898 0
M  V30 1005 H 100.153 2.99338 0.951604 0
M  V30 1006 H 99.3458 5.03232 -0.278071 0
M  V30 1007 H 98.9478 3.5499 -1.17719 0
M  V30 1008 H 101.24 6.71133 -0.926622 0
M  V30 1009 H 102.183 6.64389 -2.44934 0
M  V30 1010 H 102.591 5.53559 -1.106 0
M  V30 1011 N 101.989 0.842826 1.3317 0
M  V30 1012 C 103.235 0.441099 1.97945 0
M  V30 1013 C 103.568 -0.998024 1.66593 0
M  V30 1014 O 102.843 -1.69839 0.947898 0
M  V30 1015 C 103.126 0.666841 3.53872 0
M  V30 1016 C 102.979 2.15352 3.94897 0
M  V30 1017 C 104.298 0.115544 4.39948 0
M  V30 1018 H 101.417 0.161739 0.719034 0
M  V30 1019 H 104.059 1.05907 1.57746 0
M  V30 1020 H 102.209 0.140828 3.88245 0
M  V30 1021 H 103.881 2.7447 3.70761 0
M  V30 1022 H 102.124 2.63653 3.44484 0
M  V30 1023 H 102.795 2.26221 5.03516 0
M  V30 1024 H 105.271 0.565213 4.12243 0
M  V30 1025 H 104.147 0.303152 5.48062 0
M  V30 1026 H 104.408 -0.980935 4.3108 0
M  V30 1027 N 103.467 -1.45747 0.599634 0
M  V30 1028 C 104.377 -2.34262 -0.125888 0
M  V30 1029 C 105.393 -1.50768 -0.868625 0
M  V30 1030 O 106.569 -1.83592 -0.828003 0
M  V30 1031 C 103.634 -3.28252 -1.11587 0
M  V30 1032 C 102.695 -4.27651 -0.375956 0
M  V30 1033 C 101.928 -5.1715 -1.31877 0
M  V30 1034 O 102.151 -5.09916 -2.55621 0
M  V30 1035 O 101.085 -5.96286 -0.820157 0
M  V30 1036 H 104.911 -2.97688 0.601315 0
M  V30 1037 H 102.496 -1.44999 0.359934 0
M  V30 1038 H 104.378 -3.86191 -1.68626 0
M  V30 1039 H 103.053 -2.67401 -1.82424 0
M  V30 1040 H 101.96 -3.7335 0.236698 0
M  V30 1041 H 103.293 -4.91334 0.29177 0
M  V30 1042 N 104.945 -0.338344 -1.53925 0
M  V30 1043 C 106.193 0.259245 -2.0043 0
M  V30 1044 C 106.514 1.51484 -1.22791 0
M  V30 1045 O 105.784 1.93037 -0.33368 0
M  V30 1046 H 104.364 0.0987845 -0.740439 0
M  V30 1047 H 107.026 -0.458302 -1.89435 0
M  V30 1048 H 106.122 0.505334 -3.07982 0
M  V30 1049 N 106.423 1.57458 -0.0668435 0
M  V30 1050 C 107.67 1.93301 0.603406 0
M  V30 1051 C 107.998 0.946486 1.69917 0
M  V30 1052 O 107.253 -0.0387021 1.95662 0
M  V30 1053 C 107.552 3.35784 1.22409 0
M  V30 1054 C 107.218 4.50179 0.254955 0
M  V30 1055 C 105.88 4.81199 -0.0116746 0
M  V30 1056 C 108.232 5.19598 -0.408338 0
M  V30 1057 C 105.56 5.78978 -0.94877 0
M  V30 1058 C 107.912 6.18381 -1.33372 0
M  V30 1059 C 106.576 6.47821 -1.60887 0
M  V30 1060 H 105.846 0.707338 0.220802 0
M  V30 1061 H 108.493 1.91012 -0.136665 0
M  V30 1062 H 106.798 3.34515 2.03978 0
M  V30 1063 H 108.495 3.60804 1.74989 0
M  V30 1064 H 105.085 4.25983 0.472954 0
M  V30 1065 H 109.269 4.95832 -0.215456 0
M  V30 1066 H 104.525 6.00115 -1.16925 0
M  V30 1067 H 108.699 6.71277 -1.85367 0
M  V30 1068 H 106.326 7.23399 -2.33661 0
M  V30 1069 N 107.901 -0.206675 1.56239 0
M  V30 1070 C 109.148 -0.928842 1.79941 0
M  V30 1071 C 109.476 -1.83734 0.638131 0
M  V30 1072 O 108.731 -1.92039 -0.376746 0
M  V30 1073 C 109.03 -1.78675 3.09532 0
M  V30 1074 C 108.696 -1.03022 4.38973 0
M  V30 1075 C 107.358 -0.821302 4.74139 0
M  V30 1076 C 109.71 -0.497081 5.18824 0
M  V30 1077 C 107.038 -0.0675719 5.86661 0
M  V30 1078 C 109.39 0.24338 6.32132 0
M  V30 1079 C 108.054 0.463422 6.65889 0
M  V30 1080 H 107.324 -0.339887 0.658451 0
M  V30 1081 H 109.971 -0.195977 1.90495 0
M  V30 1082 H 108.276 -2.58794 2.94165 0
M  V30 1083 H 109.973 -2.34792 3.25075 0
M  V30 1084 H 106.563 -1.20306 4.11369 0
M  V30 1085 H 110.747 -0.645921 4.92079 0
M  V30 1086 H 106.003 0.112995 6.11296 0
M  V30 1087 H 110.177 0.66393 6.93228 0
M  V30 1088 H 107.804 1.04938 7.52922 0
M  V30 1089 N 109.379 -1.50304 -0.473955 0
M  V30 1090 C 110.656 -1.51667 -1.23518 0
M  V30 1091 C 111.036 -0.259701 -2.09496 0
M  V30 1092 O 110.384 0.756986 -2.15597 0
M  V30 1093 C 110.594 -2.81082 -2.06868 0
M  V30 1094 C 111.942 -3.31631 -2.65153 0
M  V30 1095 O 112.966 -2.82384 -2.17113 0
M  V30 1096 O 111.825 -4.17471 -3.52675 0
M  V30 1097 H 108.919 -0.60822 -0.560355 0
M  V30 1098 H 111.465 -1.62592 -0.486011 0
M  V30 1099 H 110.237 -3.64041 -1.4349 0
M  V30 1100 H 109.86 -2.73146 -2.88924 0
M  V30 1101 N 110.857 0.726932 -1.39834 0
M  V30 1102 C 112.273 1.03354 -1.21615 0
M  V30 1103 C 112.473 2.01327 -0.08338 0
M  V30 1104 O 111.529 2.46158 0.56238 0
M  V30 1105 C 112.842 1.58811 -2.55342 0
M  V30 1106 C 114.39 1.70851 -2.62257 0
M  V30 1107 C 114.865 2.29716 -3.96225 0
M  V30 1108 N 116.356 2.37116 -3.97907 0
M  V30 1109 C 117.091 2.83619 -4.98345 0
M  V30 1110 N 116.587 3.29958 -6.09179 0
M  V30 1111 N 118.38 2.82901 -4.8572 0
M  V30 1112 H 110.531 0.0773069 -2.12259 0
M  V30 1113 H 112.794 0.0969102 -0.943034 0
M  V30 1114 H 112.5 0.942855 -3.38826 0
M  V30 1115 H 112.374 2.57502 -2.75632 0
M  V30 1116 H 114.761 2.34497 -1.79152 0
M  V30 1117 H 114.842 0.707913 -2.45809 0
M  V30 1118 H 114.486 1.66696 -4.79765 0
M  V30 1119 H 114.416 3.30469 -4.09997 0
M  V30 1120 H 116.907 2.04374 -3.17868 0
M  V30 1121 H 117.22 3.63976 -6.8172 0
M  V30 1122 H 115.565 3.27946 -6.12761 0
M  V30 1123 H 118.756 2.46027 -3.98231 0
M  V30 1124 H 118.929 3.18827 -5.6414 0
M  V30 1125 N 112.336 1.25143 0.95797 0
M  V30 1126 C 113.584 1.09476 1.69881 0
M  V30 1127 C 113.905 -0.365502 1.91544 0
M  V30 1128 O 113.175 -1.25985 1.50015 0
M  V30 1129 H 111.755 0.402128 0.629525 0
M  V30 1130 H 114.417 1.57214 1.15194 0
M  V30 1131 H 113.513 1.60046 2.6794 0
M  V30 1132 N 113.814 -1.1601 1.06675 0
M  V30 1133 C 114.777 -2.18724 0.685001 0
M  V30 1134 C 115.777 -1.58496 -0.271246 0
M  V30 1135 O 116.967 -1.74119 -0.0531156 0
M  V30 1136 C 114.099 -3.40899 0.00853648 0
M  V30 1137 H 115.292 -2.54011 1.59431 0
M  V30 1138 H 112.845 -1.30352 0.862441 0
M  V30 1139 H 113.58 -3.11173 -0.913337 0
M  V30 1140 H 113.365 -3.8587 0.696204 0
M  V30 1141 H 114.855 -4.16886 -0.24414 0
M  V30 1142 N 115.292 -0.849877 -1.32721 0
M  V30 1143 C 116.517 -0.463856 -2.02146 0
M  V30 1144 C 116.942 0.930449 -1.63476 0
M  V30 1145 O 116.3 1.61033 -0.832952 0
M  V30 1146 C 116.348 -0.604955 -3.55489 0
M  V30 1147 O 115.452 0.36425 -4.10788 0
M  V30 1148 H 114.793 -0.187046 -0.637111 0
M  V30 1149 H 117.323 -1.14775 -1.69375 0
M  V30 1150 H 117.333 -0.490696 -4.05038 0
M  V30 1151 H 116.008 -1.62174 -3.82978 0
M  V30 1152 H 114.585 0.206628 -3.72327 0
M  V30 1153 N 116.77 1.45427 -0.607355 0
M  V30 1154 C 118.019 2.01452 -0.100036 0
M  V30 1155 C 118.332 1.48159 1.27704 0
M  V30 1156 O 119.538 1.96159 1.87707 0
M  V30 1157 C 117.994 3.59672 -0.128158 0
M  V30 1158 C 117.602 4.21962 -1.50507 0
M  V30 1159 C 119.346 4.23262 0.323932 0
M  V30 1160 C 117.253 5.72333 -1.48959 0
M  V30 1161 H 116.183 0.75325 -0.0336299 0
M  V30 1162 H 118.834 1.66901 -0.76265 0
M  V30 1163 H 117.216 3.91411 0.601105 0
M  V30 1164 H 118.39 4.01796 -2.25602 0
M  V30 1165 H 116.705 3.70565 -1.89923 0
M  V30 1166 H 119.302 5.33522 0.354691 0
M  V30 1167 H 119.645 3.93921 1.34656 0
M  V30 1168 H 120.178 3.96239 -0.352056 0
M  V30 1169 H 116.917 6.06373 -2.48981 0
M  V30 1170 H 116.437 5.94691 -0.781214 0
M  V30 1171 H 118.116 6.35525 -1.21313 0
M  V30 1172 N 118.248 0.346503 1.53744 0
M  V30 1173 C 119.494 -0.249473 2.0126 0
M  V30 1174 C 119.827 -1.49965 1.23386 0
M  V30 1175 O 119.102 -1.91811 0.32229 0
M  V30 1176 C 119.385 -0.560643 3.55709 0
M  V30 1177 C 119.238 0.701836 4.44291 0
M  V30 1178 C 120.557 -1.36905 4.18264 0
M  V30 1179 H 117.676 -0.0891987 0.731582 0
M  V30 1180 H 120.318 0.467624 1.84156 0
M  V30 1181 H 118.468 -1.17156 3.70414 0
M  V30 1182 H 120.14 1.33974 4.41417 0
M  V30 1183 H 118.383 1.32612 4.13033 0
M  V30 1184 H 119.054 0.43933 5.50249 0
M  V30 1185 H 121.53 -0.852448 4.07275 0
M  V30 1186 H 120.406 -1.55553 5.26398 0
M  V30 1187 H 120.667 -2.37203 3.73078 0
M  V30 1188 N 119.726 -1.57421 0.075193 0
M  V30 1189 C 120.636 -2.1642 -0.905511 0
M  V30 1190 C 121.652 -1.12828 -1.32461 0
M  V30 1191 O 122.828 -1.45109 -1.39661 0
M  V30 1192 C 119.893 -2.71693 -2.15369 0
M  V30 1193 C 118.954 -3.90171 -1.79068 0
M  V30 1194 C 118.187 -4.42798 -2.97936 0
M  V30 1195 O 118.41 -3.94416 -4.12058 0
M  V30 1196 O 117.344 -5.34085 -2.77555 0
M  V30 1197 H 121.17 -3.00588 -0.433626 0
M  V30 1198 H 118.755 -1.48664 -0.148067 0
M  V30 1199 H 120.637 -3.07104 -2.88557 0
M  V30 1200 H 119.312 -1.90582 -2.61649 0
M  V30 1201 H 118.219 -3.59606 -1.03122 0
M  V30 1202 H 119.552 -4.72584 -1.37569 0
M  V30 1203 N 121.204 0.198386 -1.56346 0
M  V30 1204 C 122.481 0.944982 -1.71258 0
M  V30 1205 C 122.861 2.0151 -0.629048 0
M  V30 1206 O 122.209 2.25639 0.360473 0
M  V30 1207 C 122.419 1.5344 -3.1346 0
M  V30 1208 C 123.767 2.01778 -3.73591 0
M  V30 1209 O 124.791 1.63288 -3.16568 0
M  V30 1210 O 123.65 2.72594 -4.73661 0
M  V30 1211 H 120.744 0.442939 -0.69838 0
M  V30 1212 H 123.29 0.188342 -1.68652 0
M  V30 1213 H 122.062 0.762869 -3.83792 0
M  V30 1214 H 121.685 2.35596 -3.20282 0
M  V30 1215 N 122.682 1.50554 0.465978 0
M  V30 1216 C 123.629 1.6979 1.56333 0
M  V30 1217 C 124.599 0.539239 1.57103 0
M  V30 1218 O 125.784 0.770401 1.74555 0
M  V30 1219 C 122.924 1.80273 2.94271 0
M  V30 1220 C 122.037 3.07674 3.0325 0
M  V30 1221 C 121.172 3.08922 4.32135 0
M  V30 1222 C 120.211 4.30755 4.34875 0
M  V30 1223 N 119.348 4.29714 5.55239 0
M  V30 1224 H 124.188 2.63472 1.39235 0
M  V30 1225 H 121.725 1.30602 0.676873 0
M  V30 1226 H 123.683 1.84332 3.74269 0
M  V30 1227 H 122.313 0.900258 3.09992 0
M  V30 1228 H 121.365 3.13062 2.16094 0
M  V30 1229 H 122.677 3.97642 3.01135 0
M  V30 1230 H 121.831 3.11738 5.20485 0
M  V30 1231 H 120.57 2.16792 4.36866 0
M  V30 1232 H 119.575 4.28146 3.44922 0
M  V30 1233 H 120.8 5.24117 4.31831 0
M  V30 1234 H 118.746 3.4044 5.60746 0
M  V30 1235 H 118.663 5.13456 5.54886 0
M  V30 1236 H 119.931 4.36683 6.457 0
M  V30 1237 N 124.16 -0.719506 1.40217 0
M  V30 1238 C 125.09 -1.8465 1.42922 0
M  V30 1239 C 126.071 -1.67599 0.29062 0
M  V30 1240 O 127.256 -1.87688 0.498677 0
M  V30 1241 C 124.386 -3.22565 1.28722 0
M  V30 1242 C 123.34 -3.54281 2.40144 0
M  V30 1243 C 122.666 -4.91298 2.11023 0
M  V30 1244 C 123.966 -3.55676 3.82481 0
M  V30 1245 H 125.66 -1.82644 2.37237 0
M  V30 1246 H 123.206 -0.877305 1.1419 0
M  V30 1247 H 125.159 -4.01095 1.29232 0
M  V30 1248 H 123.883 -3.25137 0.308811 0
M  V30 1249 H 122.542 -2.78088 2.38877 0
M  V30 1250 H 122.19 -4.90468 1.11582 0
M  V30 1251 H 121.89 -5.13485 2.8567 0
M  V30 1252 H 123.414 -5.72166 2.13209 0
M  V30 1253 H 124.828 -4.24254 3.85592 0
M  V30 1254 H 123.225 -3.89388 4.56614 0
M  V30 1255 H 124.295 -2.55144 4.12346 0
M  V30 1256 N 125.638 -1.25649 -0.95132 0
M  V30 1257 C 126.884 -1.10757 -1.69884 0
M  V30 1258 C 127.217 0.350061 -1.91019 0
M  V30 1259 O 126.492 1.25783 -1.48354 0
M  V30 1260 C 126.775 -1.86606 -3.07978 0
M  V30 1261 C 126.628 -3.40217 -2.94232 0
M  V30 1262 C 127.947 -1.65182 -4.07925 0
M  V30 1263 H 125.066 -0.40374 -0.616574 0
M  V30 1264 H 127.708 -1.54521 -1.10558 0
M  V30 1265 H 125.858 -1.49409 -3.58621 0
M  V30 1266 H 127.53 -3.87108 -2.50889 0
M  V30 1267 H 125.773 -3.67759 -2.30078 0
M  V30 1268 H 126.444 -3.88505 -3.92133 0
M  V30 1269 H 128.92 -1.9757 -3.66204 0
M  V30 1270 H 127.796 -2.20683 -5.02583 0
M  V30 1271 H 128.057 -0.593933 -4.38092 0
M  V30 1272 N 127.117 1.15442 -1.07289 0
M  V30 1273 C 128.027 2.23786 -0.704057 0
M  V30 1274 C 129.043 1.7166 0.284413 0
M  V30 1275 O 130.219 2.00972 0.131205 0
M  V30 1276 C 127.284 3.46535 -0.106792 0
M  V30 1277 C 126.345 4.13654 -1.14842 0
M  V30 1278 C 125.578 5.30544 -0.57956 0
M  V30 1279 O 125.801 5.67187 0.604585 0
M  V30 1280 O 124.735 5.87154 -1.32414 0
M  V30 1281 H 128.561 2.57664 -1.60757 0
M  V30 1282 H 126.146 1.23152 -0.845803 0
M  V30 1283 H 128.028 4.20804 0.224048 0
M  V30 1284 H 126.703 3.14407 0.770049 0
M  V30 1285 H 125.61 3.4131 -1.5316 0
M  V30 1286 H 126.943 4.49861 -1.99714 0
M  V30 1287 N 128.595 0.856903 1.32268 0
M  V30 1288 C 129.872 0.382583 1.91822 0
M  V30 1289 C 130.252 -1.13407 1.78051 0
M  V30 1290 O 129.6 -1.95673 1.18001 0
M  V30 1291 C 129.81 0.849446 3.38505 0
M  V30 1292 C 131.158 0.867936 4.15634 0
M  V30 1293 O 132.182 0.794232 3.47232 0
M  V30 1294 O 131.041 0.972286 5.37781 0
M  V30 1295 H 128.135 0.112014 0.819379 0
M  V30 1296 H 130.681 0.943952 1.41024 0
M  V30 1297 H 129.453 1.89267 3.42482 0
M  V30 1298 H 129.076 0.265652 3.96712 0
M  V30 1299 N 130.073 -1.45103 0.615059 0
M  V30 1300 C 131.003 -2.33339 -0.0865619 0
M  V30 1301 C 131.984 -1.4727 -0.851209 0
M  V30 1302 O 133.169 -1.76026 -0.820281 0
M  V30 1303 C 130.299 -3.30095 -1.07956 0
M  V30 1304 C 129.253 -4.25858 -0.427628 0
M  V30 1305 C 128.579 -5.12361 -1.5294 0
M  V30 1306 C 129.879 -5.18165 0.655944 0
M  V30 1307 H 131.573 -2.92254 0.650224 0
M  V30 1308 H 129.119 -1.40532 0.314138 0
M  V30 1309 H 131.072 -3.90698 -1.57901 0
M  V30 1310 H 129.796 -2.69355 -1.84703 0
M  V30 1311 H 128.455 -3.66564 0.0510292 0
M  V30 1312 H 128.103 -4.47984 -2.28734 0
M  V30 1313 H 127.803 -5.77238 -1.09865 0
M  V30 1314 H 129.327 -5.75833 -2.03098 0
M  V30 1315 H 130.741 -5.72796 0.240257 0
M  V30 1316 H 129.138 -5.91559 1.00888 0
M  V30 1317 H 130.208 -4.60144 1.52957 0
M  V30 1318 N 131.551 -0.354651 -1.53558 0
M  V30 1319 C 132.967 -0.00315426 -1.596 0
M  V30 1320 C 133.167 1.47741 -1.37021 0
M  V30 1321 O 132.223 2.23759 -1.16996 0
M  V30 1322 C 133.536 -0.44929 -2.97325 0
M  V30 1323 C 135.084 -0.402578 -3.104 0
M  V30 1324 C 135.559 -0.824355 -4.5052 0
M  V30 1325 N 137.05 -0.778979 -4.56603 0
M  V30 1326 C 137.785 -1.07715 -5.63192 0
M  V30 1327 N 137.281 -1.44405 -6.77583 0
M  V30 1328 N 139.074 -1.00066 -5.53121 0
M  V30 1329 H 131.225 -1.31893 -1.66487 0
M  V30 1330 H 133.488 -0.538388 -0.780284 0
M  V30 1331 H 133.194 -1.48202 -3.1895 0
M  V30 1332 H 133.068 0.169772 -3.76818 0
M  V30 1333 H 135.455 0.621004 -2.88492 0
M  V30 1334 H 135.536 -1.05699 -2.32941 0
M  V30 1335 H 135.18 -1.846 -4.73165 0
M  V30 1336 H 135.11 -0.147304 -5.26394 0
M  V30 1337 H 137.601 -0.508528 -3.74463 0
M  V30 1338 H 137.914 -1.65612 -7.54846 0
M  V30 1339 H 136.259 -1.4826 -6.79002 0
M  V30 1340 H 139.45 -0.713293 -4.62633 0
M  V30 1341 H 139.623 -1.23638 -6.36096 0
M  V30 1342 N 133.029 1.57378 -0.0835403 0
M  V30 1343 C 134.257 1.98263 0.59157 0
M  V30 1344 C 134.672 0.962302 1.62435 0
M  V30 1345 O 134.029 -0.049581 1.82433 0
M  V30 1346 C 134.08 3.39214 1.24965 0
M  V30 1347 O 133.801 4.37339 0.258186 0
M  V30 1348 C 135.302 3.95038 2.01147 0
M  V30 1349 H 132.522 0.651773 0.159477 0
M  V30 1350 H 135.066 2.03878 -0.159415 0
M  V30 1351 H 133.221 3.34649 1.95164 0
M  V30 1352 H 133.635 5.19371 0.731734 0
M  V30 1353 H 135.109 4.95848 2.42567 0
M  V30 1354 H 135.586 3.32222 2.87272 0
M  V30 1355 H 136.192 4.0304 1.35789 0
M  V30 1356 N 134.507 -0.190092 1.56449 0
M  V30 1357 C 135.923 -0.54113 1.50146 0
M  V30 1358 C 136.123 -1.85603 0.784465 0
M  V30 1359 O 135.179 -2.5024 0.337051 0
M  V30 1360 C 136.492 -0.591241 2.9483 0
M  V30 1361 C 138.04 -0.679732 3.0553 0
M  V30 1362 C 138.515 -0.760908 4.51635 0
M  V30 1363 N 140.006 -0.824302 4.55806 0
M  V30 1364 C 140.741 -0.907365 5.66175 0
M  V30 1365 N 140.237 -0.952422 6.86222 0
M  V30 1366 N 142.03 -0.94494 5.541 0
M  V30 1367 H 134.181 0.67235 2.01478 0
M  V30 1368 H 136.444 0.240127 0.917084 0
M  V30 1369 H 136.15 0.305905 3.50367 0
M  V30 1370 H 136.024 -1.44422 3.48457 0
M  V30 1371 H 138.411 -1.56731 2.50039 0
M  V30 1372 H 138.492 0.199549 2.5502 0
M  V30 1373 H 138.136 0.122336 5.07753 0
M  V30 1374 H 138.066 -1.65606 4.99882 0
M  V30 1375 H 140.557 -0.798526 3.69367 0
M  V30 1376 H 140.87 -1.01645 7.66086 0
M  V30 1377 H 139.215 -0.921014 6.8887 0
M  V30 1378 H 142.406 -0.906612 4.59236 0
M  V30 1379 H 142.579 -1.00622 6.4014 0
M  V30 1380 N 135.985 -1.50799 -0.457987 0
M  V30 1381 C 136.895 -1.73426 -1.57989 0
M  V30 1382 C 137.911 -0.617745 -1.62665 0
M  V30 1383 O 139.087 -0.897614 -1.80291 0
M  V30 1384 C 136.152 -1.83557 -2.94122 0
M  V30 1385 C 135.213 -3.07345 -2.99729 0
M  V30 1386 C 134.446 -3.16983 -4.29368 0
M  V30 1387 O 134.669 -2.33077 -5.20607 0
M  V30 1388 O 133.603 -4.09812 -4.40837 0
M  V30 1389 H 137.429 -2.68555 -1.41817 0
M  V30 1390 H 135.014 -1.35052 -0.638859 0
M  V30 1391 H 136.896 -1.92326 -3.74952 0
M  V30 1392 H 135.571 -0.916137 -3.10465 0
M  V30 1393 H 134.478 -3.04068 -2.1793 0
M  V30 1394 H 135.811 -3.9891 -2.88326 0
M  V30 1395 N 137.463 0.71206 -1.40597 0
M  V30 1396 C 138.688 1.50617 -1.42581 0
M  V30 1397 C 139.113 1.88079 -0.0282102 0
M  V30 1398 O 138.471 1.53511 0.964579 0
M  V30 1399 C 138.519 2.7557 -2.3258 0
M  V30 1400 O 137.623 3.72414 -1.77148 0
M  V30 1401 H 136.964 0.453966 -0.484573 0
M  V30 1402 H 139.494 0.876649 -1.84868 0
M  V30 1403 H 139.504 3.2406 -2.47889 0
M  V30 1404 H 138.179 2.47639 -3.34138 0
M  V30 1405 H 136.756 3.31276 -1.71204 0
M  V30 1406 N 138.941 1.26152 0.944643 0
M  V30 1407 C 139.851 1.09176 2.07648 0
M  V30 1408 C 140.867 0.0261935 1.7398 0
M  V30 1409 O 142.043 0.229208 2.00091 0
M  V30 1410 C 139.108 0.722915 3.39079 0
M  V30 1411 C 138.169 1.86752 3.86552 0
M  V30 1412 C 137.402 1.51617 5.11711 0
M  V30 1413 O 137.625 0.416331 5.68879 0
M  V30 1414 O 136.559 2.34975 5.54139 0
M  V30 1415 H 140.385 2.0412 2.24875 0
M  V30 1416 H 137.97 1.05182 1.061 0
M  V30 1417 H 139.852 0.529787 4.18056 0
M  V30 1418 H 138.527 -0.197159 3.23099 0
M  V30 1419 H 137.434 2.11558 3.08535 0
M  V30 1420 H 138.767 2.76719 4.07047 0
M  V30 1421 N 140.419 -1.14872 1.07899 0
M  V30 1422 C 141.329 -2.2341 0.715915 0
M  V30 1423 C 142.345 -1.71808 -0.275306 0
M  V30 1424 O 143.521 -2.01039 -0.120545 0
M  V30 1425 C 140.586 -3.46474 0.125168 0
M  V30 1426 C 139.647 -4.13039 1.17034 0
M  V30 1427 C 138.88 -5.30229 0.607688 0
M  V30 1428 O 139.103 -5.675 -0.574497 0
M  V30 1429 O 138.037 -5.86444 1.35526 0
M  V30 1430 H 141.863 -2.56808 1.62121 0
M  V30 1431 H 139.448 -1.22702 0.852322 0
M  V30 1432 H 141.33 -4.20917 -0.201729 0
M  V30 1433 H 140.005 -3.14811 -0.753364 0
M  V30 1434 H 138.912 -3.40493 1.54968 0
M  V30 1435 H 140.245 -4.48796 2.02097 0
M  V30 1436 N 141.898 -0.863906 -1.31812 0
M  V30 1437 C 142.83 -0.272485 -2.27575 0
M  V30 1438 C 143.843 0.56104 -1.52827 0
M  V30 1439 O 145.032 0.384021 -1.7432 0
M  V30 1440 C 142.132 0.63283 -3.32939 0
M  V30 1441 C 141.305 -0.166902 -4.37081 0
M  V30 1442 C 140.364 0.665608 -5.21973 0
M  V30 1443 O 139.39 0.0958091 -5.69119 0
M  V30 1444 N 140.592 1.9787 -5.45736 0
M  V30 1445 H 143.357 -1.0954 -2.78964 0
M  V30 1446 H 140.918 -0.724791 -1.4477 0
M  V30 1447 H 142.91 1.19532 -3.86645 0
M  V30 1448 H 141.48 1.35642 -2.81638 0
M  V30 1449 H 140.7 -0.910838 -3.83533 0
M  V30 1450 H 141.988 -0.715874 -5.03739 0
M  V30 1451 H 141.386 2.46484 -5.09178 0
M  V30 1452 H 139.943 2.48911 -6.024 0
M  V30 1453 N 143.376 1.44774 -0.622745 0
M  V30 1454 C 144.323 2.30635 0.0871679 0
M  V30 1455 C 145.293 1.42994 0.845097 0
M  V30 1456 O 146.478 1.71907 0.827812 0
M  V30 1457 C 143.618 3.28144 1.06844 0
M  V30 1458 C 142.731 4.30888 0.309809 0
M  V30 1459 C 141.866 5.15494 1.28215 0
M  V30 1460 C 140.905 6.09953 0.512198 0
M  V30 1461 N 140.042 6.87287 1.43458 0
M  V30 1462 H 144.882 2.90803 -0.650974 0
M  V30 1463 H 142.419 1.43286 -0.33281 0
M  V30 1464 H 144.377 3.83157 1.65066 0
M  V30 1465 H 143.007 2.69695 1.77382 0
M  V30 1466 H 142.059 3.78414 -0.388181 0
M  V30 1467 H 143.371 4.97955 -0.290254 0
M  V30 1468 H 142.525 5.74983 1.93596 0
M  V30 1469 H 141.264 4.48481 1.91614 0
M  V30 1470 H 140.269 5.49581 -0.155151 0
M  V30 1471 H 141.494 6.78999 -0.116958 0
M  V30 1472 H 139.44 6.2295 2.05594 0
M  V30 1473 H 139.357 7.50763 0.888335 0
M  V30 1474 H 140.625 7.51306 2.07749 0
M  V30 1475 N 144.854 0.36279 1.53368 0
M  V30 1476 C 146.27 0.0116182 1.59596 0
M  V30 1477 C 146.47 -1.47012 1.37803 0
M  V30 1478 O 145.526 -2.23136 1.18181 0
M  V30 1479 C 146.839 0.465052 2.97082 0
M  V30 1480 C 148.387 0.419033 3.10182 0
M  V30 1481 C 148.862 0.848235 4.50077 0
M  V30 1482 N 150.353 0.803183 4.56183 0
M  V30 1483 C 151.088 1.107 5.62613 0
M  V30 1484 N 150.584 1.47996 6.76808 0
M  V30 1485 N 152.377 1.02998 5.52583 0
M  V30 1486 H 144.528 1.32775 1.65785 0
M  V30 1487 H 146.791 0.542518 0.777417 0
M  V30 1488 H 146.497 1.49892 3.18159 0
M  V30 1489 H 146.371 -0.149786 3.76902 0
M  V30 1490 H 148.758 -0.605696 2.88817 0
M  V30 1491 H 148.839 1.06933 2.32377 0
M  V30 1492 H 148.483 1.87107 4.7218 0
M  V30 1493 H 148.413 0.175218 5.26308 0
M  V30 1494 H 150.904 0.52838 3.74188 0
M  V30 1495 H 151.217 1.69613 7.53957 0
M  V30 1496 H 149.562 1.51859 6.78206 0
M  V30 1497 H 152.753 0.737817 4.62249 0
M  V30 1498 H 152.926 1.2701 6.35431 0
M  V30 1499 N 146.332 -1.57332 0.0918853 0
M  V30 1500 C 147.28 -2.15075 -0.885747 0
M  V30 1501 C 148.274 -1.09277 -1.29441 0
M  V30 1502 O 149.48 -1.27627 -1.26931 0
M  V30 1503 H 145.855 -0.687966 -0.303656 0
M  V30 1504 H 147.826 -2.96047 -0.373995 0
M  V30 1505 C 146.575 -2.74325 -2.13638 0
M  V30 1506 H 145.898 -3.55418 -1.8308 0
M  V30 1507 H 147.338 -3.183 -2.80109 0
M  V30 1508 C 145.797 -1.70062 -2.90827 0
M  V30 1509 O 146.327 -1.13763 -3.85254 0
M  V30 1510 N 144.533 -1.40628 -2.54307 0
M  V30 1511 H 144.08 -1.866 -1.7759 0
M  V30 1512 H 144.038 -0.711043 -3.06254 0
M  V30 1513 N 147.81 0.181792 -1.56548 0
M  V30 1514 C 149.226 0.53316 -1.50431 0
M  V30 1515 C 149.426 1.85184 -0.794297 0
M  V30 1516 O 148.482 2.50058 -0.350318 0
M  V30 1517 C 149.795 0.575597 -2.9514 0
M  V30 1518 C 151.343 0.663519 -3.05886 0
M  V30 1519 C 151.818 0.736946 -4.52032 0
M  V30 1520 N 153.309 0.800118 -4.56237 0
M  V30 1521 C 154.044 0.877327 -5.66649 0
M  V30 1522 N 153.54 0.916016 -6.86718 0
M  V30 1523 N 155.333 0.915542 -5.54594 0
M  V30 1524 H 147.484 -0.683025 -2.01118 0
M  V30 1525 H 149.747 -0.244988 -0.915797 0
M  V30 1526 H 149.453 -0.324482 -3.502 0
M  V30 1527 H 149.327 1.42572 -3.49218 0
M  V30 1528 H 151.714 1.55403 -2.50867 0
M  V30 1529 H 151.795 -0.21307 -2.54911 0
M  V30 1530 H 151.439 -0.149262 -5.07681 0
M  V30 1531 H 151.369 1.62953 -5.00753 0
M  V30 1532 H 153.86 0.778926 -3.69785 0
M  V30 1533 H 154.173 0.975813 -7.66614 0
M  V30 1534 H 152.518 0.884469 -6.89349 0
M  V30 1535 H 155.709 0.882245 -4.59711 0
M  V30 1536 H 155.882 0.972253 -6.40665 0
M  V30 1537 N 149.288 1.51039 0.449983 0
M  V30 1538 C 150.534 1.63322 1.20223 0
M  V30 1539 C 150.867 0.34241 1.91158 0
M  V30 1540 O 150.142 -0.657344 1.83055 0
M  V30 1541 C 150.425 2.82801 2.22925 0
M  V30 1542 C 150.278 4.21823 1.56157 0
M  V30 1543 C 151.597 2.97807 3.24035 0
M  V30 1544 H 148.716 0.594407 0.435718 0
M  V30 1545 H 151.358 1.83489 0.493136 0
M  V30 1546 H 149.508 2.65738 2.834 0
M  V30 1547 H 151.18 4.50526 0.991162 0
M  V30 1548 H 149.423 4.25105 0.864172 0
M  V30 1549 H 150.094 5.01391 2.30891 0
M  V30 1550 H 152.57 3.13497 2.73603 0
M  V30 1551 H 151.446 3.82992 3.93202 0
M  V30 1552 H 151.707 2.09328 3.89402 0
M  V30 1553 N 150.766 -0.704594 1.40972 0
M  V30 1554 C 152.182 -1.01406 1.23244 0
M  V30 1555 C 152.382 -2.01169 0.115399 0
M  V30 1556 O 151.438 -2.47021 -0.523147 0
M  V30 1557 C 152.751 -1.54728 2.57836 0
M  V30 1558 C 154.299 -1.66658 2.64942 0
M  V30 1559 C 154.774 -2.23383 3.9983 0
M  V30 1560 N 156.265 -2.30756 4.01629 0
M  V30 1561 C 157 -2.75655 5.02794 0
M  V30 1562 N 156.496 -3.20225 6.14352 0
M  V30 1563 N 158.289 -2.75138 4.90159 0
M  V30 1564 H 150.44 -0.0435285 2.12355 0
M  V30 1565 H 152.703 -0.0818951 0.944456 0
M  V30 1566 H 152.409 -0.888832 3.40283 0
M  V30 1567 H 152.283 -2.53084 2.79693 0
M  V30 1568 H 154.67 -2.31617 1.8286 0
M  V30 1569 H 154.751 -0.668717 2.46904 0
M  V30 1570 H 154.395 -1.59043 4.82357 0
M  V30 1571 H 154.325 -3.23904 4.15203 0
M  V30 1572 H 156.816 -1.99291 3.21079 0
M  V30 1573 H 157.129 -3.53084 6.87424 0
M  V30 1574 H 155.474 -3.18156 6.17901 0
M  V30 1575 H 158.665 -2.39661 4.02095 0
M  V30 1576 H 158.838 -3.09812 5.6914 0
M  V30 1577 N 152.244 -1.26651 -0.937939 0
M  V30 1578 C 153.492 -1.12165 -1.68118 0
M  V30 1579 C 153.813 0.334983 -1.92101 0
M  V30 1580 O 153.083 1.23583 -1.52 0
M  V30 1581 H 151.663 -0.412093 -0.623048 0
M  V30 1582 H 154.325 -1.59027 -1.12678 0
M  V30 1583 H 153.421 -1.64289 -2.6536 0
M  V30 1584 N 153.722 1.14298 -1.08507 0
M  V30 1585 C 154.971 1.84708 -0.810305 0
M  V30 1586 C 155.284 1.83903 0.666271 0
M  V30 1587 O 156.49 2.50112 1.05624 0
M  V30 1588 C 154.946 3.31572 -1.39957 0
M  V30 1589 C 154.554 3.40791 -2.90801 0
M  V30 1590 C 156.298 4.07087 -1.20334 0
M  V30 1591 C 154.205 4.81872 -3.4286 0
M  V30 1592 H 153.135 0.691985 -0.299454 0
M  V30 1593 H 155.786 1.28841 -1.30661 0
M  V30 1594 H 154.168 3.87183 -0.830976 0
M  V30 1595 H 155.342 2.95225 -3.53806 0
M  V30 1596 H 153.657 2.78732 -3.0935 0
M  V30 1597 H 156.254 5.11225 -1.56693 0
M  V30 1598 H 156.597 4.16054 -0.143237 0
M  V30 1599 H 157.13 3.57779 -1.73893 0
M  V30 1600 H 153.869 4.78094 -4.48449 0
M  V30 1601 H 153.389 5.27972 -2.84615 0
M  V30 1602 H 155.068 5.50765 -3.39509 0
M  V30 1603 N 155.201 0.870884 1.31352 0
M  V30 1604 C 156.131 0.343096 2.30966 0
M  V30 1605 C 157.112 -0.566507 1.60389 0
M  V30 1606 O 158.297 -0.483336 1.88089 0
M  V30 1607 C 155.427 -0.455487 3.443 0
M  V30 1608 C 154.381 0.361103 4.26474 0
M  V30 1609 C 153.707 -0.563221 5.31725 0
M  V30 1610 C 155.007 1.59566 4.97329 0
M  V30 1611 H 156.701 1.17548 2.75359 0
M  V30 1612 H 154.247 0.566686 1.32381 0
M  V30 1613 H 156.2 -0.83525 4.13039 0
M  V30 1614 H 154.924 -1.32139 2.98675 0
M  V30 1615 H 153.583 0.722825 3.59403 0
M  V30 1616 H 153.231 -1.42643 4.82351 0
M  V30 1617 H 152.931 -0.0207409 5.87596 0
M  V30 1618 H 154.455 -0.939808 6.03324 0
M  V30 1619 H 155.869 1.28728 5.58661 0
M  V30 1620 H 154.266 2.07728 5.63 0
M  V30 1621 H 155.336 2.34798 4.24262 0
M  V30 1622 N 156.679 -1.44442 0.630414 0
M  V30 1623 C 158.095 -1.56832 0.295973 0
M  V30 1624 C 158.295 -1.61806 -1.20088 0
M  V30 1625 O 157.351 -1.5607 -1.9849 0
M  V30 1626 C 158.664 -2.84031 0.987264 0
M  V30 1627 C 160.212 -2.97742 0.96534 0
M  V30 1628 C 160.687 -4.27743 1.63708 0
M  V30 1629 N 162.178 -4.34555 1.60364 0
M  V30 1630 C 162.913 -5.33862 2.09234 0
M  V30 1631 N 162.409 -6.39578 2.66292 0
M  V30 1632 N 164.202 -5.25366 1.99867 0
M  V30 1633 H 156.353 -1.39457 1.60205 0
M  V30 1634 H 158.616 -0.668237 0.672431 0
M  V30 1635 H 158.322 -2.86338 2.04215 0
M  V30 1636 H 158.196 -3.73534 0.524588 0
M  V30 1637 H 160.583 -2.94989 -0.0810639 0
M  V30 1638 H 160.664 -2.09589 1.4665 0
M  V30 1639 H 160.308 -4.31255 2.68293 0
M  V30 1640 H 160.238 -5.14752 1.11076 0
M  V30 1641 H 162.729 -3.58772 1.18705 0
M  V30 1642 H 163.042 -7.11637 3.01317 0
M  V30 1643 H 161.387 -6.40265 2.70343 0
M  V30 1644 H 164.578 -4.41688 1.55013 0
M  V30 1645 H 164.751 -6.02606 2.38265 0
M  V30 1646 N 158.157 -0.370918 -1.53173 0
M  V30 1647 C 159.406 0.218249 -2.00516 0
M  V30 1648 C 159.719 1.49429 -1.26215 0
M  V30 1649 O 160.925 2.16239 -1.64174 0
M  V30 1650 C 159.381 0.43948 -3.57207 0
M  V30 1651 C 158.989 -0.822244 -4.4039 0
M  V30 1652 C 160.733 0.986012 -4.1289 0
M  V30 1653 C 158.64 -0.570304 -5.88644 0
M  V30 1654 H 157.57 0.0853333 -0.749156 0
M  V30 1655 H 160.221 -0.490483 -1.76823 0
M  V30 1656 H 158.603 1.20961 -3.77074 0
M  V30 1657 H 159.777 -1.59557 -4.32294 0
M  V30 1658 H 158.092 -1.29238 -3.95836 0
M  V30 1659 H 160.689 1.18991 -5.21292 0
M  V30 1660 H 161.032 1.94972 -3.6782 0
M  V30 1661 H 161.565 0.27592 -3.96842 0
M  V30 1662 H 158.304 -1.50449 -6.38001 0
M  V30 1663 H 157.824 0.164427 -5.99575 0
M  V30 1664 H 159.503 -0.19784 -6.46697 0
M  V30 1665 N 159.635 1.57281 -0.100228 0
M  V30 1666 C 160.884 1.93713 0.561984 0
M  V30 1667 C 161.197 0.984492 1.69018 0
M  V30 1668 O 162.403 1.24273 2.41389 0
M  V30 1669 C 160.859 3.4421 1.05106 0
M  V30 1670 C 160.467 4.47975 -0.0476628 0
M  V30 1671 C 162.211 3.89595 1.68571 0
M  V30 1672 C 160.118 5.89631 0.457055 0
M  V30 1673 H 159.048 0.723082 0.2137 0
M  V30 1674 H 161.699 1.82644 -0.177057 0
M  V30 1675 H 160.081 3.50449 1.84395 0
M  V30 1676 H 161.255 4.53385 -0.823333 0
M  V30 1677 H 159.57 4.1223 -0.587816 0
M  V30 1678 H 162.167 4.92832 2.07414 0
M  V30 1679 H 162.51 3.28526 2.55688 0
M  V30 1680 H 163.043 3.86078 0.958562 0
M  V30 1681 H 159.782 6.54411 -0.377616 0
M  V30 1682 H 159.302 5.87681 1.19962 0
M  V30 1683 H 160.981 6.40363 0.92437 0
M  V30 1684 N 161.113 -0.173488 1.56642 0
M  V30 1685 C 162.06 -1.21482 1.96242 0
M  V30 1686 C 163.03 -1.44104 0.826027 0
M  V30 1687 O 164.215 -1.5688 1.08597 0
M  V30 1688 C 161.355 -2.54964 2.32567 0
M  V30 1689 C 160.468 -2.39739 3.59373 0
M  V30 1690 C 159.603 -3.66072 3.84921 0
M  V30 1691 C 158.642 -3.45771 5.05083 0
M  V30 1692 N 157.779 -4.64169 5.26775 0
M  V30 1693 H 162.619 -0.870123 2.85014 0
M  V30 1694 H 160.156 -0.418245 1.41029 0
M  V30 1695 H 162.114 -3.32758 2.5165 0
M  V30 1696 H 160.744 -2.87433 1.46908 0
M  V30 1697 H 159.796 -1.53131 3.48217 0
M  V30 1698 H 161.108 -2.20683 4.47326 0
M  V30 1699 H 160.262 -4.52303 4.0436 0
M  V30 1700 H 159.001 -3.88105 2.9534 0
M  V30 1701 H 158.006 -2.57927 4.85545 0
M  V30 1702 H 159.231 -3.25163 5.96193 0
M  V30 1703 H 157.177 -4.86425 4.40144 0
M  V30 1704 H 157.094 -4.48019 6.08946 0
M  V30 1705 H 158.362 -5.51689 5.5069 0
M  V30 1706 N 162.591 -1.51276 -0.441967 0
M  V30 1707 C 164.002 -1.56244 -1.02199 0
M  V30 1708 C 164.353 -0.383149 -1.92422 0
M  V30 1709 O 163.478 0.500613 -2.1053 0
M  V30 1710 C 164.073 -2.83162 -1.86024 0
M  V30 1711 C 162.632 -2.90716 -2.39084 0
M  V30 1712 C 161.779 -2.50858 -1.18175 0
M  V30 1713 H 164.73 -1.5712 -0.223416 0
M  V30 1714 H 164.751 -2.66663 -2.71425 0
M  V30 1715 H 164.263 -3.68974 -1.20331 0
M  V30 1716 H 162.364 -2.09323 -3.08244 0
M  V30 1717 H 162.477 -3.94266 -2.72198 0
M  V30 1718 H 160.841 -2.03951 -1.52565 0
M  V30 1719 H 161.624 -3.3901 -0.541001 0
M  V30 1720 N 164.069 0.697108 -1.41344 0
M  V30 1721 C 165.309 1.46939 -1.42085 0
M  V30 1722 C 165.673 1.9198 -0.0280397 0
M  V30 1723 O 166.874 2.6865 0.0897504 0
M  V30 1724 C 165.145 2.64985 -2.39828 0
M  V30 1725 S 166.704 3.54147 -2.59085 0
M  V30 1726 H 163.522 0.502146 -0.503359 0
M  V30 1727 H 166.124 0.813546 -1.77769 0
M  V30 1728 H 164.828 2.30098 -3.39828 0
M  V30 1729 H 164.359 3.35464 -2.05493 0
M  V30 1730 H 166.374 4.60137 -1.85711 0
M  V30 1731 N 165.547 1.27147 0.931209 0
M  V30 1732 C 166.495 1.09398 2.05268 0
M  V30 1733 C 167.489 0.0180591 1.6939 0
M  V30 1734 O 168.695 0.17551 1.79142 0
M  V30 1735 H 165.07 0.336986 0.672268 0
M  V30 1736 H 167.041 2.04416 2.17386 0
M  V30 1737 C 165.79 0.75424 3.39421 0
M  V30 1738 H 165.113 1.57404 3.67511 0
M  V30 1739 H 166.553 0.669903 4.18674 0
M  V30 1740 C 165.012 -0.541197 3.32525 0
M  V30 1741 O 165.542 -1.57664 3.69466 0
M  V30 1742 N 163.748 -0.535517 2.85623 0
M  V30 1743 H 163.295 0.307511 2.55758 0
M  V30 1744 H 163.253 -1.40236 2.81392 0
M  V30 1745 N 167.025 -1.13721 1.09112 0
M  V30 1746 C 167.975 -2.17082 0.697091 0
M  V30 1747 C 168.959 -1.58321 -0.286923 0
M  V30 1748 O 170.151 -1.7673 -0.0978008 0
M  V30 1749 C 167.28 -3.43105 0.115729 0
M  V30 1750 C 166.366 -4.0888 1.12596 0
M  V30 1751 N 166.757 -4.4987 2.31195 0
M  V30 1752 C 165.055 -4.35471 0.963366 0
M  V30 1753 C 165.756 -5.01094 2.95431 0
M  V30 1754 N 164.732 -4.95751 2.23006 0
M  V30 1755 H 168.534 -2.46524 1.6001 0
M  V30 1756 H 166.048 -1.30481 0.966869 0
M  V30 1757 H 168.045 -4.16491 -0.184555 0
M  V30 1758 H 166.705 -3.15138 -0.78217 0
M  V30 1759 H 167.716 -4.42678 2.68806 0
M  V30 1760 H 164.393 -4.17328 0.119878 0
M  V30 1761 H 165.783 -5.4263 3.96236 0
M  V30 1762 N 168.503 -0.877838 -1.30888 0
M  V30 1763 C 169.749 -0.493426 -1.96706 0
M  V30 1764 C 170.082 0.953504 -1.6918 0
M  V30 1765 O 169.357 1.67266 -0.992594 0
M  V30 1766 C 169.64 -0.760429 -3.51979 0
M  V30 1767 C 169.493 -2.25747 -3.89048 0
M  V30 1768 C 170.812 -0.232148 -4.39487 0
M  V30 1769 H 167.931 -0.180746 -0.714493 0
M  V30 1770 H 170.573 -1.10052 -1.54882 0
M  V30 1771 H 168.723 -0.243715 -3.87735 0
M  V30 1772 H 170.395 -2.84204 -3.63354 0
M  V30 1773 H 168.638 -2.72694 -3.37373 0
M  V30 1774 H 169.309 -2.39491 -4.97341 0
M  V30 1775 H 171.785 -0.674314 -4.106 0
M  V30 1776 H 170.661 -0.448355 -5.47066 0
M  V30 1777 H 170.922 0.866297 -4.33529 0
M  V30 1778 N 169.982 1.44106 -0.638065 0
M  V30 1779 C 170.912 2.33448 0.0494287 0
M  V30 1780 C 171.893 1.48606 0.827672 0
M  V30 1781 O 173.078 1.77308 0.792173 0
M  V30 1782 C 170.208 3.31771 1.02691 0
M  V30 1783 C 169.162 4.26485 0.359823 0
M  V30 1784 C 168.488 5.14729 1.44769 0
M  V30 1785 C 169.788 5.17056 -0.738296 0
M  V30 1786 H 171.482 2.91183 -0.696636 0
M  V30 1787 H 169.028 1.40014 -0.336456 0
M  V30 1788 H 170.981 3.93161 1.51666 0
M  V30 1789 H 169.705 2.7226 1.80395 0
M  V30 1790 H 168.364 3.66437 -0.10934 0
M  V30 1791 H 168.012 4.51566 2.21578 0
M  V30 1792 H 167.712 5.78913 1.00668 0
M  V30 1793 H 169.236 5.78991 1.93911 0
M  V30 1794 H 170.65 5.72342 -0.331354 0
M  V30 1795 H 169.047 5.89879 -1.10286 0
M  V30 1796 H 170.117 4.57652 -1.60258 0
M  V30 1797 N 171.46 0.379036 1.52974 0
M  V30 1798 C 172.685 -0.209353 2.06341 0
M  V30 1799 C 173.11 -1.40583 1.24972 0
M  V30 1800 O 172.468 -1.79246 0.272155 0
M  V30 1801 C 172.516 -0.567786 3.56102 0
M  V30 1802 O 171.62 -1.66318 3.77375 0
M  V30 1803 H 170.961 -0.0272919 0.663439 0
M  V30 1804 H 173.491 0.543536 1.97248 0
M  V30 1805 H 173.501 -0.835003 3.99364 0
M  V30 1806 H 172.176 0.307013 4.14765 0
M  V30 1807 H 170.753 -1.39048 3.46006 0
M  V30 1808 N 172.938 -1.57226 0.108567 0
M  V30 1809 C 173.868 -2.17778 -0.84232 0
M  V30 1810 C 174.849 -1.11487 -1.2847 0
M  V30 1811 O 176.034 -1.39681 -1.34918 0
M  V30 1812 C 173.164 -2.76888 -2.09644 0
M  V30 1813 C 172.118 -3.88669 -1.79221 0
M  V30 1814 C 171.444 -4.34541 -3.11574 0
M  V30 1815 C 172.744 -5.11251 -1.06864 0
M  V30 1816 H 174.438 -2.97489 -0.337774 0
M  V30 1817 H 171.984 -1.43097 -0.161025 0
M  V30 1818 H 173.937 -3.17904 -2.76614 0
M  V30 1819 H 172.661 -1.94451 -2.62405 0
M  V30 1820 H 171.32 -3.48213 -1.14644 0
M  V30 1821 H 170.968 -3.48977 -3.62249 0
M  V30 1822 H 170.668 -5.09914 -2.91996 0
M  V30 1823 H 172.192 -4.782 -3.7968 0
M  V30 1824 H 173.606 -5.49352 -1.63968 0
M  V30 1825 H 172.003 -5.9214 -0.974178 0
M  V30 1826 H 173.073 -4.8487 -0.0536168 0
M  V30 1827 N 174.416 0.165178 -1.56732 0
M  V30 1828 C 175.641 0.900253 -1.86843 0
M  V30 1829 C 176.066 1.74766 -0.695596 0
M  V30 1830 O 175.424 1.77786 0.35522 0
M  V30 1831 C 175.472 1.74777 -3.15413 0
M  V30 1832 O 174.576 2.85007 -2.98068 0
M  V30 1833 H 173.917 0.251832 -0.614391 0
M  V30 1834 H 176.447 0.161468 -2.03962 0
M  V30 1835 H 176.457 2.14646 -3.46974 0
M  V30 1836 H 175.132 1.12537 -4.00385 0
M  V30 1837 H 173.709 2.48676 -2.77875 0
M  V30 1838 N 175.894 1.51508 0.433938 0
M  V30 1839 C 177.141 1.64345 1.18309 0
M  V30 1840 C 177.469 0.361315 1.91115 0
M  V30 1841 O 176.724 -0.654753 1.84422 0
M  V30 1842 C 177.023 2.79928 2.22205 0
M  V30 1843 C 176.689 4.19078 1.66387 0
M  V30 1844 C 175.351 4.56932 1.50887 0
M  V30 1845 C 177.703 5.05894 1.25381 0
M  V30 1846 C 175.031 5.79305 0.928608 0
M  V30 1847 C 177.383 6.2885 0.687823 0
M  V30 1848 C 176.047 6.65473 0.519755 0
M  V30 1849 H 175.317 0.601381 0.432923 0
M  V30 1850 H 177.964 1.85549 0.473676 0
M  V30 1851 H 176.269 2.52959 2.99197 0
M  V30 1852 H 177.966 2.87059 2.79997 0
M  V30 1853 H 174.556 3.89234 1.79428 0
M  V30 1854 H 178.74 4.77253 1.36175 0
M  V30 1855 H 173.996 6.06324 0.786186 0
M  V30 1856 H 178.17 6.95461 0.361581 0
M  V30 1857 H 175.797 7.6017 0.0679979 0
M  V30 1858 N 177.372 -0.689602 1.41712 0
M  V30 1859 C 178.783 -1.26973 1.36875 0
M  V30 1860 C 179.134 -1.96124 0.054748 0
M  V30 1861 O 178.259 -1.99141 -0.84687 0
M  V30 1862 C 178.854 -2.30912 2.47922 0
M  V30 1863 C 177.413 -2.84486 2.46464 0
M  V30 1864 C 176.56 -1.58603 2.27465 0
M  V30 1865 H 179.511 -0.48396 1.51141 0
M  V30 1866 H 179.532 -3.12331 2.17323 0
M  V30 1867 H 179.044 -1.80554 3.43543 0
M  V30 1868 H 177.145 -3.39005 1.54617 0
M  V30 1869 H 177.258 -3.34511 3.42986 0
M  V30 1870 H 175.622 -1.84632 1.75451 0
M  V30 1871 H 176.405 -1.10233 3.25121 0
M  V30 1872 N 178.85 -1.27639 -0.924453 0
M  V30 1873 C 180.099 -1.13549 -1.66702 0
M  V30 1874 C 180.412 0.317487 -1.93006 0
M  V30 1875 O 181.618 0.579333 -2.65247 0
M  V30 1876 C 180.074 -1.98426 -3.00259 0
M  V30 1877 C 179.682 -3.484 -2.81641 0
M  V30 1878 C 181.426 -1.92993 -3.78092 0
M  V30 1879 C 179.333 -4.25464 -4.10773 0
M  V30 1880 H 178.263 -0.421351 -0.625283 0
M  V30 1881 H 180.914 -1.52085 -1.02676 0
M  V30 1882 H 179.296 -1.52736 -3.6536 0
M  V30 1883 H 180.47 -4.01973 -2.25287 0
M  V30 1884 H 178.785 -3.55245 -2.17232 0
M  V30 1885 H 181.382 -2.47844 -4.7379 0
M  V30 1886 H 181.725 -0.904281 -4.0636 0
M  V30 1887 H 182.258 -2.36595 -3.19793 0
M  V30 1888 H 178.997 -5.28566 -3.87683 0
M  V30 1889 H 178.517 -3.76667 -4.66779 0
M  V30 1890 H 180.196 -4.34812 -4.79111 0
M  V30 1891 N 180.328 1.1314 -1.09713 0
M  V30 1892 C 181.744 1.36477 -0.827423 0
M  V30 1893 C 181.944 1.93654 0.556817 0
M  V30 1894 O 181 2.15791 1.31112 0
M  V30 1895 C 182.313 2.31334 -1.92106 0
M  V30 1896 C 183.861 2.44943 -1.94864 0
M  V30 1897 C 184.336 3.4311 -3.0338 0
M  V30 1898 N 185.827 3.50662 -3.02639 0
M  V30 1899 C 186.562 4.2651 -3.83246 0
M  V30 1900 N 186.058 5.05485 -4.73768 0
M  V30 1901 N 187.851 4.2184 -3.71493 0
M  V30 1902 H 180.002 0.743807 -1.9895 0
M  V30 1903 H 182.265 0.389823 -0.864143 0
M  V30 1904 H 181.971 1.96483 -2.91698 0
M  V30 1905 H 181.845 3.31381 -1.80184 0
M  V30 1906 H 184.232 2.79079 -0.959099 0
M  V30 1907 H 184.313 1.4481 -2.10864 0
M  V30 1908 H 183.957 3.09704 -4.02549 0
M  V30 1909 H 183.887 4.43055 -2.84622 0
M  V30 1910 H 186.378 2.94315 -2.37039 0
M  V30 1911 H 186.691 5.60675 -5.3185 0
M  V30 1912 H 185.036 5.04708 -4.77802 0
M  V30 1913 H 188.227 3.5922 -3.00131 0
M  V30 1914 H 188.4 4.80697 -4.3455 0
M  V30 1915 N 181.806 0.884767 1.30421 0
M  V30 1916 C 183.222 0.57874 1.48737 0
M  V30 1917 C 183.422 -0.883567 1.81095 0
M  V30 1918 O 182.478 -1.6648 1.89844 0
M  V30 1919 C 183.791 1.49171 2.61091 0
M  V30 1920 C 185.339 1.49532 2.74971 0
M  V30 1921 C 185.814 2.39421 3.90438 0
M  V30 1922 N 187.305 2.37383 3.97748 0
M  V30 1923 C 188.04 3.03647 4.86401 0
M  V30 1924 N 187.536 3.79136 5.79852 0
M  V30 1925 N 189.329 2.9288 4.79768 0
M  V30 1926 H 181.48 1.83075 1.0769 0
M  V30 1927 H 183.743 0.783637 0.533495 0
M  V30 1928 H 183.449 2.53291 2.44001 0
M  V30 1929 H 183.323 1.20113 3.57565 0
M  V30 1930 H 185.71 0.46163 2.91467 0
M  V30 1931 H 185.791 1.8262 1.79119 0
M  V30 1932 H 185.435 3.42874 3.74699 0
M  V30 1933 H 185.365 2.03649 4.85628 0
M  V30 1934 H 187.856 1.82525 3.30897 0
M  V30 1935 H 188.169 4.26789 6.4426 0
M  V30 1936 H 186.514 3.83243 5.79784 0
M  V30 1937 H 189.705 2.33433 4.05742 0
M  V30 1938 H 189.878 3.448 5.4865 0
M  V30 1939 N 183.284 -1.43765 0.645699 0
M  V30 1940 C 184.561 -1.9541 0.0862963 0
M  V30 1941 C 184.941 -1.58725 -1.39175 0
M  V30 1942 O 184.289 -0.868581 -2.11348 0
M  V30 1943 C 184.499 -3.47488 0.324565 0
M  V30 1944 C 185.847 -4.24001 0.225497 0
M  V30 1945 O 186.871 -3.55274 0.256715 0
M  V30 1946 O 185.73 -5.46313 0.142801 0
M  V30 1947 H 182.824 -0.826882 -0.0139483 0
M  V30 1948 H 185.37 -1.53743 0.718415 0
M  V30 1949 H 184.142 -3.67289 1.3496 0
M  V30 1950 H 183.765 -3.96135 -0.340987 0
M  V30 1951 N 184.763 -0.387143 -1.52771 0
M  V30 1952 C 186.04 0.253197 -1.93954 0
M  V30 1953 C 186.42 1.64545 -1.32243 0
M  V30 1954 O 185.768 2.23191 -0.489699 0
M  V30 1955 C 185.978 0.281722 -3.47861 0
M  V30 1956 C 187.326 0.511715 -4.21505 0
M  V30 1957 O 188.35 0.362023 -3.54356 0
M  V30 1958 O 187.209 0.804847 -5.40541 0
M  V30 1959 H 184.303 0.156845 -0.811991 0
M  V30 1960 H 186.849 -0.441494 -1.63856 0
M  V30 1961 H 185.621 -0.693571 -3.85104 0
M  V30 1962 H 185.244 1.02142 -3.84256 0
M  V30 1963 N 186.241 1.57166 -0.116904 0
M  V30 1964 C 187.489 1.94737 0.540533 0
M  V30 1965 C 187.81 1.00096 1.67349 0
M  V30 1966 O 187.08 0.0568854 1.95817 0
M  V30 1967 H 185.66 0.718981 0.202669 0
M  V30 1968 H 188.322 1.94017 -0.185353 0
M  V30 1969 H 187.418 2.97719 0.936483 0
M  V30 1970 N 187.719 -0.156864 1.56817 0
M  V30 1971 C 188.944 -0.890331 1.87318 0
M  V30 1972 C 189.369 -1.74394 0.704855 0
M  V30 1973 O 188.727 -1.77972 -0.345786 0
M  V30 1974 C 188.775 -1.73102 3.16336 0
M  V30 1975 O 187.879 -2.83422 2.99576 0
M  V30 1976 H 187.22 -0.24857 0.615718 0
M  V30 1977 H 189.75 -0.150649 2.04045 0
M  V30 1978 H 189.76 -2.12803 3.48107 0
M  V30 1979 H 188.435 -1.10412 4.00976 0
M  V30 1980 H 187.012 -2.47199 2.7919 0
M  V30 1981 N 189.197 -1.51736 -0.425897 0
M  V30 1982 C 190.443 -1.66174 -1.17294 0
M  V30 1983 C 190.798 -0.37876 -1.88635 0
M  V30 1984 O 190.091 0.626021 -1.81084 0
M  V30 1985 C 190.285 -2.81103 -2.20717 0
M  V30 1986 C 190.114 -4.20453 -1.59529 0
M  V30 1987 C 188.884 -4.86225 -1.37525 0
M  V30 1988 C 191.082 -5.03146 -1.06528 0
M  V30 1989 N 189.064 -6.09657 -0.720537 0
M  V30 1990 C 190.435 -6.17674 -0.536506 0
M  V30 1991 C 192.49 -4.88594 -0.958127 0
M  V30 1992 C 191.193 -7.19245 0.0888917 0
M  V30 1993 C 193.219 -5.90383 -0.346608 0
M  V30 1994 C 192.581 -7.04191 0.171564 0
M  V30 1995 H 188.68 -0.661871 -0.416475 0
M  V30 1996 H 191.264 -1.88997 -0.467801 0
M  V30 1997 H 189.435 -2.59924 -2.88607 0
M  V30 1998 H 191.167 -2.84662 -2.87663 0
M  V30 1999 H 187.922 -4.44293 -1.64015 0
M  V30 2000 H 188.346 -6.75756 -0.410292 0
M  V30 2001 H 192.988 -4.0085 -1.34459 0
M  V30 2002 H 190.706 -8.06628 0.48746 0
M  V30 2003 H 194.292 -5.81194 -0.265451 0
M  V30 2004 H 193.172 -7.81606 0.637309 0
M  V30 2005 N 190.675 0.682077 -1.42076 0
M  V30 2006 C 191.585 1.82535 -1.47371 0
M  V30 2007 C 192.601 1.7017 -0.363079 0
M  V30 2008 O 193.777 1.91848 -0.612875 0
M  V30 2009 C 190.842 3.18624 -1.36674 0
M  V30 2010 C 189.903 3.42999 -2.58167 0
M  V30 2011 C 189.136 4.72595 -2.4797 0
M  V30 2012 O 189.359 5.50006 -1.5116 0
M  V30 2013 O 188.293 4.98054 -3.37974 0
M  V30 2014 H 192.119 1.81023 -2.43853 0
M  V30 2015 H 189.704 0.836887 -1.2376 0
M  V30 2016 H 191.586 3.99847 -1.33043 0
M  V30 2017 H 190.261 3.20789 -0.433138 0
M  V30 2018 H 189.168 2.61653 -2.67373 0
M  V30 2019 H 190.501 3.45659 -3.50401 0
M  V30 2020 N 192.153 1.28127 0.917671 0
M  V30 2021 C 193.399 1.15223 1.66888 0
M  V30 2022 C 193.732 -0.299293 1.9188 0
M  V30 2023 O 193.007 -1.21805 1.51637 0
M  V30 2024 C 193.29 1.94706 3.02922 0
M  V30 2025 C 193.143 3.47898 2.85109 0
M  V30 2026 C 194.462 1.75939 4.03402 0
M  V30 2027 H 191.581 0.419946 0.605652 0
M  V30 2028 H 194.223 1.57398 1.06423 0
M  V30 2029 H 192.373 1.58864 3.54534 0
M  V30 2030 H 194.045 3.93624 2.40537 0
M  V30 2031 H 192.288 3.7373 2.20246 0
M  V30 2032 H 192.959 3.98765 3.81694 0
M  V30 2033 H 195.435 2.07209 3.60837 0
M  V30 2034 H 194.311 2.33931 4.96556 0
M  V30 2035 H 194.572 0.709877 4.36364 0
M  V30 2036 N 193.631 -1.12557 1.10312 0
M  V30 2037 C 194.88 -1.83395 0.839588 0
M  V30 2038 C 195.193 -1.84939 -0.636929 0
M  V30 2039 O 196.399 -2.51761 -1.01631 0
M  V30 2040 C 194.855 -3.29303 1.45215 0
M  V30 2041 C 194.463 -3.36122 2.96186 0
M  V30 2042 C 196.207 -4.05121 1.26796 0
M  V30 2043 C 194.114 -4.76357 3.50483 0
M  V30 2044 H 193.044 -0.687133 0.310425 0
M  V30 2045 H 195.695 -1.26746 1.32694 0
M  V30 2046 H 194.077 -3.85812 0.892469 0
M  V30 2047 H 195.251 -2.89559 3.58458 0
M  V30 2048 H 193.566 -2.73776 3.13745 0
M  V30 2049 H 196.163 -5.08668 1.64806 0
M  V30 2050 H 196.506 -4.15773 0.209409 0
M  V30 2051 H 197.039 -3.54967 1.79563 0
M  V30 2052 H 193.778 -4.70899 4.55998 0
M  V30 2053 H 193.298 -5.23377 2.92978 0
M  V30 2054 H 194.977 -5.45294 3.48228 0
M  V30 2055 N 195.109 -0.891671 -1.2995 0
M  V30 2056 C 196.019 -0.367691 -2.31701 0
M  V30 2057 C 197.035 0.533486 -1.6562 0
M  V30 2058 O 198.211 0.424997 -1.96865 0
M  V30 2059 C 195.276 0.403406 -3.44345 0
M  V30 2060 C 194.337 -0.528328 -4.26037 0
M  V30 2061 C 193.57 0.206063 -5.33302 0
M  V30 2062 O 193.793 1.43119 -5.52153 0
M  V30 2063 O 192.727 -0.447281 -6.00236 0
M  V30 2064 H 196.553 -1.21163 -2.78484 0
M  V30 2065 H 194.138 -0.655725 -1.34241 0
M  V30 2066 H 196.02 0.839753 -4.12948 0
M  V30 2067 H 194.695 1.22354 -2.99685 0
M  V30 2068 H 193.602 -1.01362 -3.60106 0
M  V30 2069 H 194.935 -1.31465 -4.74318 0
M  V30 2070 N 196.587 1.43421 -0.653314 0
M  V30 2071 C 197.835 2.01414 -0.166415 0
M  V30 2072 C 198.156 1.51803 1.22397 0
M  V30 2073 O 197.426 0.730693 1.81763 0
M  V30 2074 H 196.006 0.744703 -0.0585319 0
M  V30 2075 H 198.668 1.75629 -0.845003 0
M  V30 2076 H 197.764 3.11734 -0.151111 0
M  V30 2077 N 198.065 0.39524 1.52563 0
M  V30 2078 C 199.295 -0.184675 2.05773 0
M  V30 2079 C 199.703 -1.40571 1.26635 0
M  V30 2080 O 199.046 -1.81105 0.30769 0
M  V30 2081 C 199.108 -0.613551 3.54226 0
M  V30 2082 C 198.772 0.49484 4.54313 0
M  V30 2083 C 199.769 1.3541 5.01956 0
M  V30 2084 C 197.454 0.663565 4.97898 0
M  V30 2085 C 199.448 2.36716 5.91814 0
M  V30 2086 C 197.135 1.67996 5.87555 0
M  V30 2087 C 198.133 2.53017 6.34406 0
M  V30 2088 O 197.821 3.52917 7.22291 0
M  V30 2089 H 197.553 -0.030077 0.675331 0
M  V30 2090 H 200.107 0.560708 1.97599 0
M  V30 2091 H 198.337 -1.411 3.60038 0
M  V30 2092 H 200.026 -1.11981 3.90148 0
M  V30 2093 H 200.792 1.23509 4.6901 0
M  V30 2094 H 196.671 0.0114913 4.60999 0
M  V30 2095 H 200.215 3.03113 6.28306 0
M  V30 2096 H 196.112 1.79933 6.19915 0
M  V30 2097 H 196.88 3.48996 7.40367 0
M  V30 2098 N 199.544 -1.57102 0.125237 0
M  V30 2099 C 200.96 -1.57915 -0.231322 0
M  V30 2100 C 201.16 -1.13833 -1.66266 0
M  V30 2101 O 200.216 -0.828581 -2.38518 0
M  V30 2102 C 201.529 -3.00699 0.00766489 0
M  V30 2103 C 203.077 -3.12947 -0.0577483 0
M  V30 2104 C 203.552 -4.57742 0.153626 0
M  V30 2105 N 205.043 -4.63092 0.0998073 0
M  V30 2106 C 205.778 -5.72905 0.238174 0
M  V30 2107 N 205.274 -6.91445 0.433057 0
M  V30 2108 N 207.067 -5.6182 0.177308 0
M  V30 2109 H 199.218 -1.84055 1.06007 0
M  V30 2110 H 201.481 -0.850905 0.417929 0
M  V30 2111 H 201.187 -3.3726 0.997431 0
M  V30 2112 H 201.061 -3.70236 -0.721452 0
M  V30 2113 H 203.448 -2.7624 -1.03804 0
M  V30 2114 H 203.529 -2.4594 0.70335 0
M  V30 2115 H 203.173 -4.95149 1.13092 0
M  V30 2116 H 203.103 -5.22848 -0.627534 0
M  V30 2117 H 205.594 -3.77871 -0.047051 0
M  V30 2118 H 205.907 -7.70985 0.529332 0
M  V30 2119 H 204.252 -6.93415 0.469109 0
M  V30 2120 H 207.443 -4.68093 0.0259748 0
M  V30 2121 H 207.616 -6.47357 0.288582 0
M  V30 2122 N 201.022 0.148545 -1.56898 0
M  V30 2123 C 201.985 1.16736 -1.97244 0
M  V30 2124 C 202.985 1.35947 -0.858777 0
M  V30 2125 O 204.175 1.32966 -1.12542 0
M  V30 2126 C 201.307 2.52798 -2.28705 0
M  V30 2127 H 202.5 0.821279 -2.88435 0
M  V30 2128 H 200.053 0.391831 -1.51309 0
M  V30 2129 H 200.788 2.92381 -1.403 0
M  V30 2130 H 200.573 2.40216 -3.09901 0
M  V30 2131 H 202.063 3.26179 -2.60762 0
M  V30 2132 N 202.5 1.5196 0.417844 0
M  V30 2133 C 203.432 1.70895 1.52733 0
M  V30 2134 C 204.445 0.589405 1.51756 0
M  V30 2135 O 205.634 0.864312 1.56179 0
M  V30 2136 C 202.734 1.72627 2.91639 0
M  V30 2137 C 201.907 3.01479 3.16905 0
M  V30 2138 C 200.966 2.95139 4.35637 0
M  V30 2139 O 199.992 3.69059 4.3334 0
M  V30 2140 N 201.194 2.12328 5.40275 0
M  V30 2141 H 203.959 2.66612 1.36888 0
M  V30 2142 H 201.52 1.50089 0.607037 0
M  V30 2143 H 203.512 1.65928 3.6912 0
M  V30 2144 H 202.082 0.844216 3.00985 0
M  V30 2145 H 201.302 3.21895 2.27546 0
M  V30 2146 H 202.59 3.86736 3.30625 0
M  V30 2147 H 201.988 1.51685 5.44985 0
M  V30 2148 H 200.545 2.11494 6.16534 0
M  V30 2149 N 203.978 -0.674533 1.42435 0
M  V30 2150 C 204.928 -1.7807 1.4239 0
M  V30 2151 C 205.912 -1.58169 0.295202 0
M  V30 2152 O 207.104 -1.68643 0.537449 0
M  V30 2153 C 204.233 -3.16532 1.32901 0
M  V30 2154 C 203.319 -3.42055 2.50717 0
M  V30 2155 N 203.71 -3.38162 3.76139 0
M  V30 2156 C 202.008 -3.72692 2.44983 0
M  V30 2157 C 202.709 -3.63177 4.54398 0
M  V30 2158 N 201.685 -3.83954 3.84812 0
M  V30 2159 H 205.487 -1.73454 2.37257 0
M  V30 2160 H 203.001 -0.875381 1.36788 0
M  V30 2161 H 204.998 -3.958 1.30951 0
M  V30 2162 H 203.658 -3.22345 0.390363 0
M  V30 2163 H 204.669 -3.18057 4.0873 0
M  V30 2164 H 201.346 -3.85749 1.59699 0
M  V30 2165 H 202.736 -3.66125 5.63384 0
M  V30 2166 N 205.456 -1.28612 -0.910864 0
M  V30 2167 C 206.681 -1.1891 -1.69927 0
M  V30 2168 C 207.106 0.248372 -1.86453 0
M  V30 2169 O 206.464 1.17961 -1.37676 0
M  V30 2170 C 206.512 -1.89578 -3.06745 0
M  V30 2171 O 205.616 -1.20521 -3.94396 0
M  V30 2172 H 204.957 -0.412632 -0.520222 0
M  V30 2173 H 207.487 -1.69985 -1.1387 0
M  V30 2174 H 207.497 -1.97597 -3.56958 0
M  V30 2175 H 206.172 -2.94136 -2.94035 0
M  V30 2176 H 204.749 -1.20684 -3.52831 0
M  V30 2177 N 206.934 1.1197 -1.10907 0
M  V30 2178 C 207.866 2.17592 -0.720175 0
M  V30 2179 C 208.879 1.60938 0.245495 0
M  V30 2180 O 210.068 1.78476 0.0292245 0
M  V30 2181 C 207.168 3.38873 -0.0427917 0
M  V30 2182 C 206.341 4.25006 -1.03388 0
M  V30 2183 C 205.4 5.24774 -0.387075 0
M  V30 2184 O 204.426 5.59631 -1.03934 0
M  V30 2185 N 205.628 5.74208 0.852407 0
M  V30 2186 H 208.393 2.51567 -1.62893 0
M  V30 2187 H 205.954 1.27439 -0.998543 0
M  V30 2188 H 207.946 4.02703 0.401501 0
M  V30 2189 H 206.516 3.03007 0.768456 0
M  V30 2190 H 205.736 3.57716 -1.65629 0
M  V30 2191 H 207.024 4.79397 -1.70458 0
M  V30 2192 H 206.422 5.48062 1.40161 0
M  V30 2193 H 204.979 6.39901 1.23977 0
M  V30 2194 N 208.412 0.89855 1.29475 0
M  V30 2195 C 209.362 0.346767 2.25348 0
M  V30 2196 C 210.346 -0.532509 1.51833 0
M  V30 2197 O 211.538 -0.374714 1.72988 0
M  V30 2198 C 208.667 -0.425681 3.40651 0
M  V30 2199 C 207.753 0.46845 4.21505 0
M  V30 2200 N 208.144 1.57514 4.80648 0
M  V30 2201 C 206.442 0.26603 4.45206 0
M  V30 2202 C 207.143 2.12889 5.41344 0
M  V30 2203 N 206.119 1.42208 5.24669 0
M  V30 2204 H 209.921 1.19219 2.68634 0
M  V30 2205 H 207.435 0.749473 1.44072 0
M  V30 2206 H 209.432 -0.837716 4.08397 0
M  V30 2207 H 208.092 -1.26838 2.98902 0
M  V30 2208 H 209.103 1.95789 4.79465 0
M  V30 2209 H 205.78 -0.538394 4.14014 0
M  V30 2210 H 207.17 3.05901 5.98226 0
M  V30 2211 N 209.89 -1.43072 0.660911 0
M  V30 2212 C 211.306 -1.56169 0.329173 0
M  V30 2213 C 211.506 -1.64317 -1.16629 0
M  V30 2214 O 210.562 -1.60245 -1.95135 0
M  V30 2215 C 211.875 -2.81873 1.04729 0
M  V30 2216 C 213.423 -2.95627 1.02828 0
M  V30 2217 C 213.898 -4.24174 1.72744 0
M  V30 2218 N 215.389 -4.31055 1.69545 0
M  V30 2219 C 216.124 -5.29304 2.20511 0
M  V30 2220 N 215.62 -6.33786 2.79799 0
M  V30 2221 N 217.413 -5.21008 2.10966 0
M  V30 2222 H 209.564 -1.36027 1.63127 0
M  V30 2223 H 211.827 -0.653823 0.686454 0
M  V30 2224 H 211.533 -2.81942 2.10242 0
M  V30 2225 H 211.407 -3.72338 0.603702 0
M  V30 2226 H 213.794 -2.95094 -0.0184742 0
M  V30 2227 H 213.875 -2.06431 1.51063 0
M  V30 2228 H 213.519 -4.25467 2.7738 0
M  V30 2229 H 213.449 -5.1228 1.2197 0
M  V30 2230 H 215.94 -3.56174 1.26288 0
M  V30 2231 H 216.253 -7.05086 3.16344 0
M  V30 2232 H 214.598 -6.34387 2.83863 0
M  V30 2233 H 217.789 -4.38301 1.64347 0
M  V30 2234 H 217.962 -5.97416 2.50993 0
M  V30 2235 N 211.368 -0.403325 -1.52352 0
M  V30 2236 C 212.596 0.174012 -2.06167 0
M  V30 2237 C 213.011 1.39347 -1.27388 0
M  V30 2238 O 212.368 1.79597 -0.324201 0
M  V30 2239 C 212.419 0.530223 -3.5759 0
M  V30 2240 O 212.14 -0.640806 -4.33388 0
M  V30 2241 C 213.641 1.16192 -4.27802 0
M  V30 2242 H 210.861 0.0229464 -0.670608 0
M  V30 2243 H 213.405 -0.572604 -1.9632 0
M  V30 2244 H 211.56 1.22673 -3.67464 0
M  V30 2245 H 211.974 -0.344851 -5.23365 0
M  V30 2246 H 213.448 1.36141 -5.34948 0
M  V30 2247 H 213.925 2.13335 -3.83907 0
M  V30 2248 H 214.531 0.505775 -4.22282 0
M  V30 2249 N 212.846 1.57033 -0.133567 0
M  V30 2250 C 214.257 1.82593 0.389464 0
M  V30 2251 C 214.608 1.05156 1.6564 0
M  V30 2252 O 213.733 0.292644 2.14412 0
M  V30 2253 C 214.328 3.31204 0.713377 0
M  V30 2254 C 212.887 3.57393 1.18098 0
M  V30 2255 C 212.034 2.76598 0.197126 0
M  V30 2256 H 214.985 1.54598 -0.358481 0
M  V30 2257 H 215.006 3.46627 1.56939 0
M  V30 2258 H 214.518 3.87537 -0.2089 0
M  V30 2259 H 212.619 3.06433 2.11966 0
M  V30 2260 H 212.732 4.65915 1.11624 0
M  V30 2261 H 211.096 2.45257 0.687088 0
M  V30 2262 H 211.879 3.35697 -0.718504 0
M  V30 2263 N 214.325 -0.140222 1.56975 0
M  V30 2264 C 215.565 -0.857823 1.85528 0
M  V30 2265 C 215.929 -1.78039 0.718768 0
M  V30 2266 O 217.13 -2.53795 0.885521 0
M  V30 2267 C 215.401 -1.60615 3.19277 0
M  V30 2268 S 216.96 -2.36824 3.69405 0
M  V30 2269 H 213.778 -0.286727 0.650622 0
M  V30 2270 H 216.38 -0.117408 1.95147 0
M  V30 2271 H 215.084 -0.919994 3.99955 0
M  V30 2272 H 214.615 -2.38735 3.12681 0
M  V30 2273 H 216.63 -3.62148 3.3921 0
M  V30 2274 N 215.803 -1.52179 -0.40978 0
M  V30 2275 C 216.75 -1.75475 -1.49924 0
M  V30 2276 C 217.72 -0.597175 -1.54994 0
M  V30 2277 O 218.905 -0.834655 -1.71575 0
M  V30 2278 C 216.045 -1.9107 -2.87378 0
M  V30 2279 C 215.158 -3.18717 -2.91622 0
M  V30 2280 C 214.293 -3.24747 -4.20372 0
M  V30 2281 C 213.332 -4.46598 -4.18588 0
M  V30 2282 N 212.469 -4.50025 -5.38908 0
M  V30 2283 H 217.309 -2.68458 -1.29361 0
M  V30 2284 H 214.846 -1.33024 -0.627934 0
M  V30 2285 H 216.804 -1.98096 -3.6717 0
M  V30 2286 H 215.434 -1.01469 -3.06437 0
M  V30 2287 H 214.486 -3.20866 -2.04326 0
M  V30 2288 H 215.798 -4.08544 -2.86169 0
M  V30 2289 H 214.952 -3.30841 -5.08556 0
M  V30 2290 H 213.691 -2.32857 -4.28519 0
M  V30 2291 H 212.696 -4.40652 -3.28794 0
M  V30 2292 H 213.921 -5.39783 -4.12081 0
M  V30 2293 H 211.867 -3.61017 -5.47725 0
M  V30 2294 H 211.784 -5.33697 -5.35447 0
M  V30 2295 H 213.052 -4.60347 -6.29048 0
M  V30 2296 N 217.281 0.66697 -1.42791 0
M  V30 2297 C 218.529 1.42417 -1.43394 0
M  V30 2298 C 218.85 1.94925 -0.0542373 0
M  V30 2299 O 218.12 1.73564 0.908415 0
M  V30 2300 H 216.7 0.528515 -0.527902 0
M  V30 2301 H 219.362 0.787562 -1.78279 0
M  V30 2302 H 218.458 2.27333 -2.13837 0
M  V30 2303 N 218.759 1.29093 0.90403 0
M  V30 2304 C 220.007 1.16583 1.65085 0
M  V30 2305 C 220.328 -0.283933 1.92922 0
M  V30 2306 O 219.598 -1.19509 1.55224 0
M  V30 2307 H 218.178 0.428467 0.611903 0
M  V30 2308 H 220.84 1.61959 1.08422 0
M  V30 2309 H 219.936 1.71266 2.6091 0
M  V30 2310 N 220.237 -1.11381 1.11499 0
M  V30 2311 C 221.486 -1.82494 0.858993 0
M  V30 2312 C 221.799 -1.85605 -0.617278 0
M  V30 2313 O 223.005 -2.52824 -0.989552 0
M  V30 2314 C 221.461 -3.27745 1.48699 0
M  V30 2315 C 221.069 -3.32961 2.99735 0
M  V30 2316 C 222.813 -4.03754 1.31085 0
M  V30 2317 C 220.72 -4.72612 3.55516 0
M  V30 2318 H 219.65 -0.683802 0.317696 0
M  V30 2319 H 222.301 -1.25331 1.34031 0
M  V30 2320 H 220.683 -3.84844 0.933339 0
M  V30 2321 H 221.857 -2.85741 3.61509 0
M  V30 2322 H 220.172 -2.70433 3.16631 0
M  V30 2323 H 222.769 -5.06891 1.70192 0
M  V30 2324 H 223.112 -4.15527 0.253496 0
M  V30 2325 H 223.645 -3.53043 1.83318 0
M  V30 2326 H 220.384 -4.66036 4.60967 0
M  V30 2327 H 219.904 -5.2024 2.98513 0
M  V30 2328 H 221.583 -5.4157 3.53992 0
M  V30 2329 N 221.715 -0.905404 -1.28997 0
M  V30 2330 C 223.131 -0.60233 -1.47798 0
M  V30 2331 C 223.331 0.854645 -1.82478 0
M  V30 2332 O 222.387 1.63439 -1.92468 0
M  V30 2333 C 223.7 -1.53306 -2.58685 0
M  V30 2334 C 225.248 -1.53887 -2.72558 0
M  V30 2335 C 225.723 -2.45602 -3.86579 0
M  V30 2336 N 227.214 -2.43681 -3.93921 0
M  V30 2337 C 227.949 -3.11347 -4.81509 0
M  V30 2338 N 227.445 -3.88313 -5.73746 0
M  V30 2339 N 229.238 -3.00476 -4.75048 0
M  V30 2340 H 221.389 -1.84765 -1.04764 0
M  V30 2341 H 223.652 -0.792025 -0.520961 0
M  V30 2342 H 223.358 -2.57141 -2.39941 0
M  V30 2343 H 223.232 -1.25787 -3.55609 0
M  V30 2344 H 225.619 -0.507941 -2.90696 0
M  V30 2345 H 225.7 -1.85447 -1.76191 0
M  V30 2346 H 225.344 -3.48792 -3.69197 0
M  V30 2347 H 225.274 -2.11349 -4.82327 0
M  V30 2348 H 227.765 -1.87767 -3.27951 0
M  V30 2349 H 228.078 -4.36985 -6.37389 0
M  V30 2350 H 226.423 -3.92419 -5.73614 0
M  V30 2351 H 229.614 -2.39858 -4.01977 0
M  V30 2352 H 229.787 -3.53485 -5.43095 0
M  V30 2353 N 223.193 1.4272 -0.668489 0
M  V30 2354 C 224.423 2.05668 -0.196063 0
M  V30 2355 C 224.831 1.5028 1.14946 0
M  V30 2356 O 224.174 0.6348 1.72383 0
M  V30 2357 C 224.236 3.59469 -0.0468879 0
M  V30 2358 C 223.9 4.37518 -1.32012 0
M  V30 2359 C 224.897 4.68584 -2.25222 0
M  V30 2360 C 222.582 4.77266 -1.56596 0
M  V30 2361 C 224.576 5.38326 -3.41297 0
M  V30 2362 C 222.263 5.4675 -2.72962 0
M  V30 2363 C 223.261 5.77204 -3.65137 0
M  V30 2364 O 222.949 6.45264 -4.79468 0
M  V30 2365 H 222.681 0.669382 -0.0943599 0
M  V30 2366 H 225.235 1.83954 -0.913788 0
M  V30 2367 H 223.465 3.79817 0.726357 0
M  V30 2368 H 225.154 4.04071 0.384852 0
M  V30 2369 H 225.92 4.38382 -2.07477 0
M  V30 2370 H 221.799 4.52959 -0.857249 0
M  V30 2371 H 225.343 5.62014 -4.13263 0
M  V30 2372 H 221.24 5.76369 -2.90635 0
M  V30 2373 H 222.008 6.63753 -4.78931 0
M  V30 2374 N 224.671 0.411399 1.52136 0
M  V30 2375 C 225.896 -0.165538 2.06738 0
M  V30 2376 C 226.321 -1.379 1.27926 0
M  V30 2377 O 225.679 -1.78628 0.310114 0
M  V30 2378 C 225.727 -0.492124 3.57226 0
M  V30 2379 O 224.831 -1.58276 3.80818 0
M  V30 2380 H 224.172 -0.0132132 0.663869 0
M  V30 2381 H 226.702 0.585253 1.96051 0
M  V30 2382 H 226.712 -0.750104 4.01045 0
M  V30 2383 H 225.387 0.394922 4.14021 0
M  V30 2384 H 223.964 -1.31677 3.48877 0
M  V30 2385 N 226.149 -1.5696 0.141893 0
M  V30 2386 C 227.377 -2.00322 -0.517579 0
M  V30 2387 C 227.792 -1.02193 -1.58752 0
M  V30 2388 O 227.149 -0.0181619 -1.82491 0
M  V30 2389 C 227.2 -3.43618 -1.12289 0
M  V30 2390 O 226.921 -4.37995 -0.0956929 0
M  V30 2391 C 228.422 -4.02231 -1.86347 0
M  V30 2392 H 225.642 -0.657243 -0.135177 0
M  V30 2393 H 228.186 -2.03146 0.234973 0
M  V30 2394 H 226.341 -3.41662 -1.82609 0
M  V30 2395 H 226.755 -5.21729 -0.538469 0
M  V30 2396 H 228.229 -5.04509 -2.23997 0
M  V30 2397 H 228.706 -3.42655 -2.74744 0
M  V30 2398 H 229.312 -4.07802 -1.20737 0
M  V30 2399 N 227.627 0.131896 -1.57047 0
M  V30 2400 C 228.904 0.871495 -1.75112 0
M  V30 2401 C 229.284 1.9866 -0.713949 0
M  V30 2402 O 228.632 2.26965 0.264447 0
M  V30 2403 C 228.842 1.40007 -3.19686 0
M  V30 2404 C 230.19 1.85752 -3.81813 0
M  V30 2405 O 231.214 1.49715 -3.23209 0
M  V30 2406 O 230.073 2.5226 -4.84796 0
M  V30 2407 H 227.167 0.412919 -0.716538 0
M  V30 2408 H 229.713 0.116641 -1.69299 0
M  V30 2409 H 228.485 0.599404 -3.86682 0
M  V30 2410 H 228.108 2.218 -3.29986 0
M  V30 2411 N 229.106 1.52395 0.401703 0
M  V30 2412 C 230.352 1.67065 1.14966 0
M  V30 2413 C 230.685 0.403052 1.89971 0
M  V30 2414 O 229.96 -0.598774 1.85054 0
M  V30 2415 C 230.243 2.8975 2.13815 0
M  V30 2416 C 230.096 4.26578 1.42658 0
M  V30 2417 C 231.415 3.07965 3.14397 0
M  V30 2418 H 228.534 0.607968 0.416587 0
M  V30 2419 H 231.176 1.84965 0.434511 0
M  V30 2420 H 229.326 2.74619 2.74803 0
M  V30 2421 H 230.998 4.53451 0.847329 0
M  V30 2422 H 229.241 4.27639 0.72849 0
M  V30 2423 H 229.912 5.08483 2.14823 0
M  V30 2424 H 232.388 3.22043 2.63491 0
M  V30 2425 H 231.264 3.95308 3.80819 0
M  V30 2426 H 231.525 2.21611 3.82545 0
M  V30 2427 N 230.584 -0.659388 1.43143 0
M  V30 2428 C 231.809 -1.45221 1.48073 0
M  V30 2429 C 232.234 -1.87845 0.097995 0
M  V30 2430 O 231.592 -1.56985 -0.90694 0
M  V30 2431 C 231.64 -2.66748 2.42647 0
M  V30 2432 O 230.744 -3.65583 1.90848 0
M  V30 2433 H 230.085 -0.435669 0.501088 0
M  V30 2434 H 232.615 -0.807432 1.87994 0
M  V30 2435 H 232.625 -3.14637 2.59745 0
M  V30 2436 H 231.3 -2.35067 3.43098 0
M  V30 2437 H 229.877 -3.24693 1.83381 0
M  V30 2438 N 232.062 -1.29571 -0.897171 0
M  V30 2439 C 233.308 -1.17863 -1.65034 0
M  V30 2440 C 233.641 0.268729 -1.92332 0
M  V30 2441 O 232.916 1.19378 -1.53555 0
M  V30 2442 C 233.199 -1.995 -2.99786 0
M  V30 2443 C 233.052 -3.5239 -2.79538 0
M  V30 2444 C 234.371 -1.82335 -4.00552 0
M  V30 2445 H 231.49 -0.429528 -0.598895 0
M  V30 2446 H 234.132 -1.59072 -1.03905 0
M  V30 2447 H 232.282 -1.64485 -3.51962 0
M  V30 2448 H 233.954 -3.97401 -2.34244 0
M  V30 2449 H 232.197 -3.77187 -2.14273 0
M  V30 2450 H 232.868 -4.04787 -3.75302 0
M  V30 2451 H 235.344 -2.12924 -3.57495 0
M  V30 2452 H 234.22 -2.41801 -4.92771 0
M  V30 2453 H 234.481 -0.779209 -4.35179 0
M  V30 2454 N 233.54 1.10788 -1.12088 0
M  V30 2455 C 234.817 1.79136 -0.785476 0
M  V30 2456 C 235.197 1.98246 0.725377 0
M  V30 2457 O 234.545 1.57258 1.65778 0
M  V30 2458 C 234.755 3.12375 -1.55636 0
M  V30 2459 C 236.103 3.8731 -1.74001 0
M  V30 2460 O 237.127 3.22085 -1.52117 0
M  V30 2461 O 235.986 5.04369 -2.10415 0
M  V30 2462 H 233.08 0.776226 -0.285311 0
M  V30 2463 H 235.626 1.1747 -1.2247 0
M  V30 2464 H 234.398 2.93863 -2.5838 0
M  V30 2465 H 234.021 3.81758 -1.11114 0
M  V30 2466 N 235.018 0.912232 1.28515 0
M  V30 2467 C 235.928 0.404506 2.31086 0
M  V30 2468 C 236.944 -0.50707 1.66448 0
M  V30 2469 O 238.12 -0.393624 1.97516 0
M  V30 2470 C 235.185 -0.348572 3.44943 0
M  V30 2471 C 234.246 0.59604 4.25142 0
M  V30 2472 C 233.479 -0.121194 5.33562 0
M  V30 2473 O 233.702 -1.34317 5.5436 0
M  V30 2474 O 232.636 0.542716 5.99448 0
M  V30 2475 H 236.462 1.25579 2.76521 0
M  V30 2476 H 234.047 0.676998 1.33181 0
M  V30 2477 H 235.929 -0.77395 4.14232 0
M  V30 2478 H 234.604 -1.17571 3.01594 0
M  V30 2479 H 233.511 1.07079 3.58448 0
M  V30 2480 H 234.844 1.38995 4.72167 0
M  V30 2481 N 236.496 -1.42363 0.676048 0
M  V30 2482 C 237.742 -2.0182 0.199125 0
M  V30 2483 C 238.075 -1.53339 -1.19168 0
M  V30 2484 O 237.35 -0.736124 -1.80032 0
M  V30 2485 C 237.633 -3.59331 0.235144 0
M  V30 2486 C 237.486 -4.17989 1.66149 0
M  V30 2487 C 238.805 -4.3813 -0.41595 0
M  V30 2488 H 235.924 -0.733293 0.0738311 0
M  V30 2489 H 238.566 -1.69368 0.86107 0
M  V30 2490 H 236.716 -3.87109 -0.328487 0
M  V30 2491 H 238.388 -4.0116 2.27747 0
M  V30 2492 H 236.631 -3.7377 2.20178 0
M  V30 2493 H 237.302 -5.27126 1.63837 0
M  V30 2494 H 239.778 -4.16051 0.0638529 0
M  V30 2495 H 238.654 -5.47717 -0.360115 0
M  V30 2496 H 238.915 -4.16101 -1.49373 0
M  V30 2497 N 237.974 -0.419461 -1.51915 0
M  V30 2498 C 238.921 0.400927 -2.27291 0
M  V30 2499 C 239.891 1.03224 -1.30131 0
M  V30 2500 O 241.076 1.05455 -1.59009 0
M  V30 2501 C 238.216 1.50603 -3.10504 0
M  V30 2502 C 237.329 0.89462 -4.22635 0
M  V30 2503 C 236.464 1.97328 -4.93189 0
M  V30 2504 C 235.503 1.33935 -5.97267 0
M  V30 2505 N 234.64 2.3586 -6.61298 0
M  V30 2506 H 239.48 -0.248251 -2.96964 0
M  V30 2507 H 237.017 -0.134266 -1.46486 0
M  V30 2508 H 238.975 2.15783 -3.57062 0
M  V30 2509 H 237.605 2.12509 -2.42981 0
M  V30 2510 H 236.657 0.131583 -3.80172 0
M  V30 2511 H 237.969 0.391641 -4.9726 0
M  V30 2512 H 237.123 2.70211 -5.43204 0
M  V30 2513 H 235.862 2.50994 -4.18155 0
M  V30 2514 H 234.867 0.595896 -5.46561 0
M  V30 2515 H 236.092 0.810252 -6.74249 0
M  V30 2516 H 234.038 2.88639 -5.89087 0
M  V30 2517 H 233.955 1.90403 -7.3163 0
M  V30 2518 H 235.223 3.08282 -7.15949 0
M  V30 2519 N 239.452 1.56882 -0.150215 0
M  V30 2520 C 240.415 2.1573 0.774157 0
M  V30 2521 C 241.415 1.0999 1.17298 0
M  V30 2522 O 242.605 1.35613 1.09338 0
M  V30 2523 C 239.737 2.72302 2.05096 0
M  V30 2524 H 240.93 2.98752 0.262201 0
M  V30 2525 H 238.483 1.55985 0.099248 0
M  V30 2526 H 239.218 1.92956 2.6065 0
M  V30 2527 H 239.003 3.49665 1.77416 0
M  V30 2528 H 240.493 3.17632 2.71109 0
M  V30 2529 N 240.93 -0.123565 1.57115 0
M  V30 2530 C 241.86 -1.15309 2.03042 0
M  V30 2531 C 242.841 -1.43454 0.914061 0
M  V30 2532 O 244.026 -1.53973 1.18347 0
M  V30 2533 C 241.156 -2.48043 2.43089 0
M  V30 2534 C 240.11 -2.3437 3.58127 0
M  V30 2535 C 239.436 -3.72026 3.84059 0
M  V30 2536 C 240.736 -1.80804 4.90007 0
M  V30 2537 H 242.43 -0.771102 2.893 0
M  V30 2538 H 239.976 -0.369479 1.39179 0
M  V30 2539 H 241.929 -3.20311 2.73823 0
M  V30 2540 H 240.653 -2.88122 1.53796 0
M  V30 2541 H 239.312 -1.64551 3.27595 0
M  V30 2542 H 238.96 -4.09582 2.91979 0
M  V30 2543 H 238.66 -3.63732 4.6149 0
M  V30 2544 H 240.184 -4.45806 4.1724 0
M  V30 2545 H 241.598 -2.42886 5.19307 0
M  V30 2546 H 239.995 -1.83343 5.71407 0
M  V30 2547 H 241.065 -0.76528 4.78823 0
M  V30 2548 N 242.408 -1.52605 -0.393616 0
M  V30 2549 C 243.371 -1.76415 -1.46323 0
M  V30 2550 C 244.371 -0.634126 -1.47768 0
M  V30 2551 O 245.561 -0.902142 -1.4902 0
M  V30 2552 C 242.693 -1.8607 -2.85641 0
M  V30 2553 H 243.886 -2.71916 -1.26498 0
M  V30 2554 H 241.439 -1.43257 -0.625073 0
M  V30 2555 H 242.174 -0.925378 -3.10817 0
M  V30 2556 H 241.959 -2.68235 -2.85993 0
M  V30 2557 H 243.449 -2.06179 -3.63153 0
M  V30 2558 N 243.887 0.651787 -1.4349 0
M  V30 2559 C 245.112 1.44434 -1.48841 0
M  V30 2560 C 245.537 1.8779 -0.107955 0
M  V30 2561 O 244.895 1.57464 0.898602 0
M  V30 2562 C 244.943 2.65458 -2.44059 0
M  V30 2563 O 244.047 3.64566 -1.92784 0
M  V30 2564 H 243.388 0.433005 -0.503391 0
M  V30 2565 H 245.918 0.797451 -1.88419 0
M  V30 2566 H 245.928 3.13255 -2.6141 0
M  V30 2567 H 244.603 2.33244 -3.4434 0
M  V30 2568 H 243.18 3.23716 -1.851 0
M  V30 2569 N 245.365 1.30045 0.890287 0
M  V30 2570 C 246.295 1.18541 2.01172 0
M  V30 2571 C 247.276 0.0773356 1.69924 0
M  V30 2572 O 248.461 0.25845 1.92473 0
M  V30 2573 C 245.591 0.870941 3.36202 0
M  V30 2574 C 244.545 1.93637 3.81692 0
M  V30 2575 C 243.871 1.475 5.13953 0
M  V30 2576 C 245.171 3.34666 4.00994 0
M  V30 2577 H 246.865 2.12359 2.11054 0
M  V30 2578 H 244.411 1.02238 1.01407 0
M  V30 2579 H 246.364 0.777141 4.14172 0
M  V30 2580 H 245.088 -0.102926 3.26438 0
M  V30 2581 H 243.747 2.01972 3.05946 0
M  V30 2582 H 243.395 0.489551 5.00612 0
M  V30 2583 H 243.095 2.1876 5.4536 0
M  V30 2584 H 244.619 1.39489 5.94454 0
M  V30 2585 H 246.033 3.2912 4.69417 0
M  V30 2586 H 244.43 4.03966 4.43769 0
M  V30 2587 H 245.5 3.76949 3.05021 0
M  V30 2588 N 246.843 -1.10192 1.12674 0
M  V30 2589 C 247.776 -2.15847 0.740625 0
M  V30 2590 C 248.754 -1.60352 -0.269421 0
M  V30 2591 O 249.938 -1.87796 -0.16278 0
M  V30 2592 C 247.065 -3.38562 0.096641 0
M  V30 2593 C 246.111 -4.12758 1.07391 0
M  V30 2594 S 246.944 -4.67997 2.60267 0
M  V30 2595 C 248.1 -5.94021 1.97206 0
M  V30 2596 H 248.333 -2.48266 1.63558 0
M  V30 2597 H 245.866 -1.22019 0.946087 0
M  V30 2598 H 247.824 -4.09621 -0.268535 0
M  V30 2599 H 246.485 -3.04377 -0.775462 0
M  V30 2600 H 245.678 -5.00755 0.570997 0
M  V30 2601 H 245.28 -3.47523 1.38216 0
M  V30 2602 H 247.572 -6.64589 1.31634 0
M  V30 2603 H 248.515 -6.48979 2.83253 0
M  V30 2604 H 248.923 -5.46169 1.42686 0
M  V30 2605 N 248.321 -0.919034 -1.28029 0
M  V30 2606 C 249.549 -0.570971 -1.98866 0
M  V30 2607 C 249.964 0.848996 -1.68634 0
M  V30 2608 O 249.321 1.56307 -0.942036 0
M  V30 2609 C 249.372 -0.776876 -3.53054 0
M  V30 2610 O 249.093 -2.14097 -3.82222 0
M  V30 2611 C 250.594 -0.436356 -4.41147 0
M  V30 2612 H 247.814 -0.217175 -0.634883 0
M  V30 2613 H 250.358 -1.23368 -1.63097 0
M  V30 2614 H 248.513 -0.161085 -3.87065 0
M  V30 2615 H 248.927 -2.18455 -4.76841 0
M  V30 2616 H 250.401 -0.63117 -5.4838 0
M  V30 2617 H 250.878 0.627686 -4.34692 0
M  V30 2618 H 251.484 -1.02991 -4.12641 0
M  V30 2619 N 249.799 1.42003 -0.683588 0
M  V30 2620 C 251.029 2.05448 -0.217866 0
M  V30 2621 C 251.437 1.51491 1.13346 0
M  V30 2622 O 250.78 0.653048 1.717 0
M  V30 2623 C 250.842 3.59399 -0.0850118 0
M  V30 2624 C 250.506 4.36093 -1.36645 0
M  V30 2625 C 251.503 4.66169 -2.30179 0
M  V30 2626 C 249.188 4.75578 -1.61649 0
M  V30 2627 C 251.182 5.34676 -3.46988 0
M  V30 2628 C 248.869 5.43824 -2.78745 0
M  V30 2629 C 249.867 5.73299 -3.71238 0
M  V30 2630 O 249.555 6.40142 -4.86285 0
M  V30 2631 H 249.287 0.668344 -0.101454 0
M  V30 2632 H 251.841 1.82974 -0.933248 0
M  V30 2633 H 250.071 3.80566 0.686031 0
M  V30 2634 H 251.76 4.04457 0.341973 0
M  V30 2635 H 252.526 4.36156 -2.12115 0
M  V30 2636 H 248.405 4.52025 -0.905243 0
M  V30 2637 H 251.949 5.57599 -4.19201 0
M  V30 2638 H 247.846 5.73254 -2.96732 0
M  V30 2639 H 248.614 6.58636 -4.85944 0
M  V30 2640 N 251.277 0.427512 1.51691 0
M  V30 2641 C 252.224 -0.388867 2.275 0
M  V30 2642 C 253.194 -1.02532 1.30677 0
M  V30 2643 O 254.379 -1.0461 1.59566 0
M  V30 2644 C 251.519 -1.48954 3.11298 0
M  V30 2645 C 250.632 -0.872194 4.23104 0
M  V30 2646 C 249.767 -1.94709 4.94228 0
M  V30 2647 C 248.806 -1.30766 5.97969 0
M  V30 2648 N 247.943 -2.32349 6.62539 0
M  V30 2649 H 252.783 0.263997 2.96828 0
M  V30 2650 H 250.32 0.142033 1.46413 0
M  V30 2651 H 252.278 -2.13887 3.58201 0
M  V30 2652 H 250.908 -2.11217 2.44105 0
M  V30 2653 H 249.96 -0.111419 3.80237 0
M  V30 2654 H 251.272 -0.365264 4.97461 0
M  V30 2655 H 250.426 -2.67327 5.44629 0
M  V30 2656 H 249.165 -2.48773 4.1948 0
M  V30 2657 H 248.17 -0.566902 5.4687 0
M  V30 2658 H 249.395 -0.774483 6.74669 0
M  V30 2659 H 247.341 -2.85511 5.90609 0
M  V30 2660 H 247.258 -1.8652 7.3263 0
M  V30 2661 H 248.526 -3.04481 7.17574 0
M  V30 2662 N 252.755 -1.56801 0.158532 0
M  V30 2663 C 253.995 -1.98383 -0.49229 0
M  V30 2664 C 254.359 -1.04184 -1.61275 0
M  V30 2665 O 255.56 -1.34856 -2.32524 0
M  V30 2666 C 253.831 -3.4385 -0.974766 0
M  V30 2667 S 255.39 -4.07459 -1.62857 0
M  V30 2668 H 252.208 -0.693041 -0.158794 0
M  V30 2669 H 254.81 -1.93856 0.252974 0
M  V30 2670 H 253.514 -4.10131 -0.148688 0
M  V30 2671 H 253.045 -3.52115 -1.75438 0
M  V30 2672 H 255.06 -4.01458 -2.91627 0
M  V30 2673 N 254.233 0.115231 -1.57178 0
M  V30 2674 C 255.196 1.12526 -1.99676 0
M  V30 2675 C 256.196 1.34095 -0.88742 0
M  V30 2676 O 257.386 1.30548 -1.15337 0
M  V30 2677 C 254.518 2.4789 -2.34015 0
M  V30 2678 H 255.711 0.759912 -2.90113 0
M  V30 2679 H 253.264 0.359648 -1.52106 0
M  V30 2680 H 253.999 2.89339 -1.4647 0
M  V30 2681 H 253.784 2.33588 -3.14927 0
M  V30 2682 H 255.274 3.20575 -2.67622 0
M  V30 2683 N 255.711 1.52812 0.385517 0
M  V30 2684 C 256.957 1.68275 1.13188 0
M  V30 2685 C 257.29 0.423179 1.89533 0
M  V30 2686 O 256.565 -0.579113 1.85679 0
M  V30 2687 C 256.848 2.92001 2.1073 0
M  V30 2688 C 256.701 4.28067 1.38125 0
M  V30 2689 C 258.02 3.11283 3.11113 0
M  V30 2690 H 255.139 0.612352 0.410115 0
M  V30 2691 H 257.781 1.85415 0.414869 0
M  V30 2692 H 255.931 2.77519 2.71874 0
M  V30 2693 H 257.603 4.54324 0.799187 0
M  V30 2694 H 255.846 4.28388 0.683092 0
M  V30 2695 H 256.517 5.10733 2.09417 0
M  V30 2696 H 258.993 3.2482 2.6006 0
M  V30 2697 H 257.869 3.99325 3.76605 0
M  V30 2698 H 258.13 2.25656 3.80173 0
M  V30 2699 N 257.189 -0.644168 1.43834 0
M  V30 2700 C 258.435 -1.40603 1.46146 0
M  V30 2701 C 258.768 -1.93997 0.0887717 0
M  V30 2702 O 258.043 -1.72854 -0.891724 0
M  V30 2703 C 258.326 -2.58086 2.51124 0
M  V30 2704 C 258.179 -2.10126 3.97702 0
M  V30 2705 C 259.498 -3.60291 2.52742 0
M  V30 2706 H 256.617 -0.509905 0.532134 0
M  V30 2707 H 259.259 -0.729502 1.75437 0
M  V30 2708 H 257.409 -3.15801 2.26278 0
M  V30 2709 H 259.081 -1.57342 4.33637 0
M  V30 2710 H 257.324 -1.41419 4.10101 0
M  V30 2711 H 257.995 -2.94649 4.66783 0
M  V30 2712 H 260.471 -3.12352 2.7491 0
M  V30 2713 H 259.347 -4.40032 3.28121 0
M  V30 2714 H 259.608 -4.1349 1.56455 0
M  V30 2715 N 258.668 -1.30515 -0.883378 0
M  V30 2716 C 259.945 -1.10086 -1.6168 0
M  V30 2717 C 260.325 0.349269 -2.08191 0
M  V30 2718 O 259.673 1.34105 -1.85008 0
M  V30 2719 C 259.883 -2.10315 -2.78511 0
M  V30 2720 C 261.231 -2.42119 -3.48803 0
M  V30 2721 O 262.255 -2.08638 -2.88702 0
M  V30 2722 O 261.114 -2.99396 -4.57192 0
M  V30 2723 H 258.208 -0.422907 -0.710689 0
M  V30 2724 H 260.754 -1.41947 -0.930015 0
M  V30 2725 H 259.526 -3.07917 -2.41459 0
M  V30 2726 H 259.149 -1.79282 -3.54886 0
M  V30 2727 N 260.146 1.09593 -1.13257 0
M  V30 2728 C 261.392 1.82003 -0.89458 0
M  V30 2729 C 261.725 1.85402 0.577906 0
M  V30 2730 O 261 1.32099 1.42759 0
M  V30 2731 C 261.283 3.28237 -1.48096 0
M  V30 2732 C 261.136 3.3312 -3.02244 0
M  V30 2733 C 262.455 4.24871 -1.14774 0
M  V30 2734 H 259.574 0.66077 -0.326424 0
M  V30 2735 H 262.216 1.28389 -1.40058 0
M  V30 2736 H 260.366 3.74024 -1.05062 0
M  V30 2737 H 262.038 2.95748 -3.54021 0
M  V30 2738 H 260.281 2.72756 -3.37323 0
M  V30 2739 H 260.952 4.3613 -3.38371 0
M  V30 2740 H 263.428 3.87361 -1.51957 0
M  V30 2741 H 262.304 5.25532 -1.58452 0
M  V30 2742 H 262.565 4.42058 -0.0611849 0
M  V30 2743 N 261.624 0.925811 1.2754 0
M  V30 2744 C 263.035 0.610102 1.7645 0
M  V30 2745 C 263.386 -0.874723 1.75622 0
M  V30 2746 O 262.511 -1.68444 1.35851 0
M  V30 2747 C 263.106 1.10073 3.20421 0
M  V30 2748 C 261.665 0.835723 3.67005 0
M  V30 2749 C 260.812 1.26054 2.46993 0
M  V30 2750 H 263.763 1.10579 1.13833 0
M  V30 2751 H 263.784 0.447557 3.77859 0
M  V30 2752 H 263.296 2.18143 3.20991 0
M  V30 2753 H 261.397 -0.231249 3.71882 0
M  V30 2754 H 261.51 1.45193 4.56569 0
M  V30 2755 H 259.874 0.679111 2.45479 0
M  V30 2756 H 260.657 2.34984 2.50275 0
M  V30 2757 N 263.102 -1.41638 0.69111 0
M  V30 2758 C 264.349 -2.01299 0.220193 0
M  V30 2759 C 264.677 -1.54715 -1.17871 0
M  V30 2760 O 263.932 -0.747193 -1.80874 0
M  V30 2761 C 264.231 -3.56714 0.221277 0
M  V30 2762 C 263.897 -4.22792 1.56709 0
M  V30 2763 C 262.559 -4.40557 1.93554 0
M  V30 2764 C 264.911 -4.59883 2.45268 0
M  V30 2765 C 262.239 -4.92688 3.18552 0
M  V30 2766 C 264.591 -5.13403 3.69595 0
M  V30 2767 C 263.255 -5.29379 4.06589 0
M  V30 2768 H 262.525 -0.736606 0.0805743 0
M  V30 2769 H 265.172 -1.69598 0.889319 0
M  V30 2770 H 263.477 -3.8818 -0.531391 0
M  V30 2771 H 265.174 -4.00678 -0.160547 0
M  V30 2772 H 261.764 -4.09336 1.2705 0
M  V30 2773 H 265.948 -4.45817 2.18084 0
M  V30 2774 H 261.204 -5.03242 3.47214 0
M  V30 2775 H 265.378 -5.41084 4.38407 0
M  V30 2776 H 263.005 -5.69537 5.03519 0
M  V30 2777 N 264.58 -0.43555 -1.51462 0
M  V30 2778 C 265.828 0.131254 -2.01673 0
M  V30 2779 C 266.149 1.43368 -1.32177 0
M  V30 2780 O 265.419 1.90524 -0.455769 0
M  V30 2781 H 263.999 0.0514954 -0.745223 0
M  V30 2782 H 266.661 -0.577847 -1.86137 0
M  V30 2783 H 265.757 0.308446 -3.10572 0
M  V30 2784 N 266.058 1.56714 -0.166846 0
M  V30 2785 C 267.306 1.96358 0.478305 0
M  V30 2786 C 267.627 1.0537 1.6408 0
M  V30 2787 O 266.897 0.119154 1.95537 0
M  V30 2788 H 265.477 0.725065 0.179692 0
M  V30 2789 H 268.139 1.93329 -0.246985 0
M  V30 2790 H 267.235 3.00547 0.841292 0
M  V30 2791 N 267.536 -0.106894 1.57237 0
M  V30 2792 C 268.499 -1.11466 2.0027 0
M  V30 2793 C 269.499 -1.33623 0.894519 0
M  V30 2794 O 270.689 -1.29935 1.16028 0
M  V30 2795 C 267.821 -2.46646 2.35327 0
M  V30 2796 H 269.014 -0.744516 2.90512 0
M  V30 2797 H 266.567 -0.351576 1.52295 0
M  V30 2798 H 267.302 -2.88558 1.48003 0
M  V30 2799 H 267.087 -2.31915 3.16161 0
M  V30 2800 H 268.577 -3.19151 2.69318 0
M  V30 2801 N 269.014 -1.53014 -0.377408 0
M  V30 2802 C 269.961 -1.78616 -1.46168 0
M  V30 2803 C 270.931 -0.629917 -1.53692 0
M  V30 2804 O 272.116 -0.870861 -1.69766 0
M  V30 2805 C 269.256 -1.97123 -2.8326 0
M  V30 2806 C 268.369 -3.24831 -2.84796 0
M  V30 2807 C 267.504 -3.33591 -4.13389 0
M  V30 2808 C 266.543 -4.55377 -4.09021 0
M  V30 2809 N 265.68 -4.61355 -5.29241 0
M  V30 2810 H 270.52 -2.71142 -1.23637 0
M  V30 2811 H 268.057 -1.34326 -0.599577 0
M  V30 2812 H 270.015 -2.05839 -3.62886 0
M  V30 2813 H 268.645 -1.07946 -3.04216 0
M  V30 2814 H 267.697 -3.25128 -1.97474 0
M  V30 2815 H 269.009 -4.14523 -2.77439 0
M  V30 2816 H 268.163 -3.41554 -5.01424 0
M  V30 2817 H 266.902 -2.41894 -4.23484 0
M  V30 2818 H 265.907 -4.47527 -3.19373 0
M  V30 2819 H 267.132 -5.48402 -4.00539 0
M  V30 2820 H 265.078 -3.72554 -5.39944 0
M  V30 2821 H 264.995 -5.44935 -5.24006 0
M  V30 2822 H 266.263 -4.73586 -6.19141 0
M  V30 2823 N 270.492 0.636531 -1.44174 0
M  V30 2824 C 271.455 1.73063 -1.50273 0
M  V30 2825 C 272.455 1.56113 -0.385397 0
M  V30 2826 O 273.645 1.61707 -0.64781 0
M  V30 2827 C 270.777 3.12096 -1.37145 0
M  V30 2828 H 271.97 1.69031 -2.47727 0
M  V30 2829 H 269.523 0.849706 -1.31186 0
M  V30 2830 H 270.258 3.21728 -0.407636 0
M  V30 2831 H 270.043 3.25805 -2.18159 0
M  V30 2832 H 271.533 3.91846 -1.44382 0
M  V30 2833 N 271.97 1.30982 0.876444 0
M  V30 2834 C 273.218 1.20058 1.62575 0
M  V30 2835 C 273.539 -0.242947 1.93481 0
M  V30 2836 O 272.809 -1.1619 1.57724 0
M  V30 2837 H 271.389 0.44135 0.602677 0
M  V30 2838 H 274.051 1.64222 1.04962 0
M  V30 2839 H 273.147 1.76762 2.57219 0
M  V30 2840 N 273.449 -1.08991 1.13837 0
M  V30 2841 C 274.695 -1.81526 0.90422 0
M  V30 2842 C 275.028 -1.85706 -0.568066 0
M  V30 2843 O 274.303 -1.32855 -1.42056 0
M  V30 2844 C 274.586 -3.27447 1.49835 0
M  V30 2845 C 274.439 -3.31512 3.04006 0
M  V30 2846 C 275.758 -4.24256 1.17025 0
M  V30 2847 H 272.877 -0.659029 0.329923 0
M  V30 2848 H 275.519 -1.27644 1.40737 0
M  V30 2849 H 273.669 -3.73462 1.07044 0
M  V30 2850 H 275.341 -2.93867 3.55584 0
M  V30 2851 H 273.584 -2.70963 3.38765 0
M  V30 2852 H 274.255 -4.34329 3.40679 0
M  V30 2853 H 276.731 -3.86549 1.54009 0
M  V30 2854 H 275.607 -5.24684 1.61237 0
M  V30 2855 H 275.868 -4.42019 0.0846274 0
M  V30 2856 N 274.927 -0.932562 -1.27047 0
M  V30 2857 C 275.874 -0.434072 -2.26681 0
M  V30 2858 C 276.844 0.501639 -1.58344 0
M  V30 2859 O 278.029 0.419734 -1.86126 0
M  V30 2860 C 275.169 0.30261 -3.43771 0
M  V30 2861 C 274.282 -0.667774 -4.26808 0
M  V30 2862 C 273.417 0.0892393 -5.31125 0
M  V30 2863 C 272.456 -0.873532 -6.05835 0
M  V30 2864 N 271.593 -0.148832 -7.01942 0
M  V30 2865 H 276.433 -1.28868 -2.68695 0
M  V30 2866 H 273.97 -0.646713 -1.32121 0
M  V30 2867 H 275.928 0.746092 -4.10474 0
M  V30 2868 H 274.558 1.12142 -3.02695 0
M  V30 2869 H 273.61 -1.22978 -3.59973 0
M  V30 2870 H 274.922 -1.40337 -4.78651 0
M  V30 2871 H 274.076 0.592409 -6.03801 0
M  V30 2872 H 272.815 0.85777 -4.80097 0
M  V30 2873 H 271.82 -1.38791 -5.31994 0
M  V30 2874 H 273.045 -1.64193 -6.58952 0
M  V30 2875 H 270.991 0.601365 -6.53238 0
M  V30 2876 H 270.908 -0.82391 -7.51497 0
M  V30 2877 H 272.176 0.333527 -7.78786 0
M  V30 2878 N 276.405 1.4127 -0.698611 0
M  V30 2879 C 277.654 2.00408 -0.227949 0
M  V30 2880 C 277.967 1.55981 1.18023 0
M  V30 2881 O 279.173 2.07699 1.74852 0
M  V30 2882 C 277.629 3.58129 -0.356636 0
M  V30 2883 C 277.237 4.11536 -1.77037 0
M  V30 2884 C 278.981 4.24466 0.0540969 0
M  V30 2885 C 276.888 5.61701 -1.85055 0
M  V30 2886 H 275.818 0.749586 -0.0814657 0
M  V30 2887 H 278.469 1.61713 -0.867249 0
M  V30 2888 H 276.851 3.94442 0.350965 0
M  V30 2889 H 278.025 3.86636 -2.50698 0
M  V30 2890 H 276.34 3.57736 -2.13105 0
M  V30 2891 H 278.937 5.34698 0.0146723 0
M  V30 2892 H 279.28 4.01687 1.09332 0
M  V30 2893 H 279.813 3.93198 -0.603337 0
M  V30 2894 H 276.552 5.89312 -2.8704 0
M  V30 2895 H 276.072 5.88519 -1.15783 0
M  V30 2896 H 277.751 6.26524 -1.61484 0
M  V30 2897 N 277.883 0.443576 1.51229 0
M  V30 2898 C 278.831 -0.37904 2.29491 0
M  V30 2899 C 279.825 -1.0153 1.35603 0
M  V30 2900 O 281.031 -0.94955 1.52917 0
M  V30 2901 H 277.406 -0.141053 0.738653 0
M  V30 2902 H 279.377 0.301799 2.9687 0
M  V30 2903 C 278.126 -1.46426 3.15364 0
M  V30 2904 H 277.449 -0.984037 3.87501 0
M  V30 2905 H 278.889 -2.01297 3.7317 0
M  V30 2906 C 277.348 -2.45099 2.31146 0
M  V30 2907 O 277.878 -3.49773 1.9754 0
M  V30 2908 N 276.084 -2.16139 1.94249 0
M  V30 2909 H 275.631 -1.31044 2.21777 0
M  V30 2910 H 275.589 -2.82398 1.38198 0
M  V30 2911 N 279.361 -1.56624 0.175154 0
M  V30 2912 C 280.772 -1.83561 -0.340916 0
M  V30 2913 C 281.123 -1.09511 -1.62794 0
M  V30 2914 O 280.248 -0.349389 -2.13561 0
M  V30 2915 C 280.843 -3.32979 -0.625313 0
M  V30 2916 C 279.402 -3.60399 -1.08581 0
M  V30 2917 C 278.549 -2.77024 -0.123722 0
M  V30 2918 H 281.5 -1.53593 0.399344 0
M  V30 2919 H 281.521 -3.50666 -1.47694 0
M  V30 2920 H 281.033 -3.86847 0.311575 0
M  V30 2921 H 279.134 -3.11945 -2.03767 0
M  V30 2922 H 279.247 -4.68711 -0.992317 0
M  V30 2923 H 277.611 -2.46993 -0.621821 0
M  V30 2924 H 278.394 -3.33674 0.807256 0
M  V30 2925 N 280.839 0.0985539 -1.57292 0
M  V30 2926 C 281.786 1.11981 -2.01814 0
M  V30 2927 C 282.756 1.39999 -0.89384 0
M  V30 2928 O 283.941 1.5152 -1.15958 0
M  V30 2929 C 281.081 2.43577 -2.44467 0
M  V30 2930 C 280.194 2.2232 -3.70402 0
M  V30 2931 C 279.329 3.4729 -4.01949 0
M  V30 2932 C 278.368 3.2128 -5.21005 0
M  V30 2933 N 277.505 4.38507 -5.48321 0
M  V30 2934 H 282.345 0.733149 -2.88841 0
M  V30 2935 H 279.882 0.350482 -1.42864 0
M  V30 2936 H 281.84 3.20373 -2.6724 0
M  V30 2937 H 280.47 2.80097 -1.60455 0
M  V30 2938 H 279.522 1.36343 -3.55126 0
M  V30 2939 H 280.834 1.99089 -4.57345 0
M  V30 2940 H 279.988 4.32495 -4.25479 0
M  V30 2941 H 278.727 3.73572 -3.13521 0
M  V30 2942 H 277.732 2.34468 -4.97298 0
M  V30 2943 H 278.957 2.96348 -6.11028 0
M  V30 2944 H 276.903 4.64871 -4.62851 0
M  V30 2945 H 276.82 4.18455 -6.29628 0
M  V30 2946 H 278.088 5.24787 -5.76385 0
M  V30 2947 N 282.317 1.53212 0.369288 0
M  V30 2948 C 283.265 1.80054 1.47253 0
M  V30 2949 C 284.259 0.669456 1.55611 0
M  V30 2950 O 285.465 0.852328 1.58541 0
M  V30 2951 H 281.84 0.570034 0.490475 0
M  V30 2952 H 283.811 2.72403 1.21817 0
M  V30 2953 C 282.56 2.00403 2.84137 0
M  V30 2954 H 281.883 2.86876 2.78464 0
M  V30 2955 H 283.323 2.23164 3.60519 0
M  V30 2956 C 281.782 0.782081 3.27697 0
M  V30 2957 O 282.312 -0.0310205 4.01688 0
M  V30 2958 N 280.518 0.606573 2.84199 0
M  V30 2959 H 280.065 1.26939 2.24152 0
M  V30 2960 H 280.023 -0.20962 3.137 0
M  V30 2961 N 283.795 -0.628877 1.44509 0
M  V30 2962 C 285.025 -1.41349 1.50678 0
M  V30 2963 C 285.433 -1.88745 0.131075 0
M  V30 2964 O 284.776 -1.61592 -0.87371 0
M  V30 2965 C 284.838 -2.66608 2.41165 0
M  V30 2966 C 284.502 -2.40993 3.88293 0
M  V30 2967 C 285.499 -2.0268 4.78766 0
M  V30 2968 C 283.184 -2.54563 4.33016 0
M  V30 2969 C 285.178 -1.78269 6.11963 0
M  V30 2970 C 282.865 -2.29766 5.6626 0
M  V30 2971 C 283.863 -1.91678 6.55552 0
M  V30 2972 O 283.551 -1.67158 7.86329 0
M  V30 2973 H 283.283 -0.439851 0.51333 0
M  V30 2974 H 285.837 -0.776084 1.90174 0
M  V30 2975 H 284.067 -3.32994 1.96601 0
M  V30 2976 H 285.756 -3.28615 2.38259 0
M  V30 2977 H 286.522 -1.91751 4.45485 0
M  V30 2978 H 282.401 -2.83179 3.63773 0
M  V30 2979 H 285.945 -1.48465 6.81619 0
M  V30 2980 H 281.842 -2.40306 5.99102 0
M  V30 2981 H 282.61 -1.81386 7.98149 0
M  V30 2982 N 285.273 -1.31445 -0.869486 0
M  V30 2983 C 286.501 -1.24122 -1.65534 0
M  V30 2984 C 286.916 0.193387 -1.87807 0
M  V30 2985 O 286.273 1.12557 -1.43656 0
M  V30 2986 C 286.324 -1.98229 -3.02304 0
M  V30 2987 O 286.045 -3.3609 -2.81026 0
M  V30 2988 C 287.546 -1.97751 -3.96749 0
M  V30 2989 H 284.766 -0.428868 -0.516055 0
M  V30 2990 H 287.31 -1.73328 -1.08525 0
M  V30 2991 H 285.465 -1.52782 -3.56001 0
M  V30 2992 H 285.879 -3.7383 -3.67902 0
M  V30 2993 H 287.353 -2.54114 -4.90031 0
M  V30 2994 H 287.83 -0.960137 -4.28577 0
M  V30 2995 H 288.436 -2.43079 -3.48988 0
M  V30 2996 N 286.751 1.08385 -1.14413 0
M  V30 2997 C 288.028 1.77429 -0.823297 0
M  V30 2998 C 288.408 1.9974 0.683163 0
M  V30 2999 O 287.756 1.60739 1.62405 0
M  V30 3000 C 287.966 3.09004 -1.62227 0
M  V30 3001 C 289.314 3.83532 -1.82177 0
M  V30 3002 O 290.338 3.18786 -1.58915 0
M  V30 3003 O 289.197 4.99792 -2.21067 0
M  V30 3004 H 286.291 0.769999 -0.301712 0
M  V30 3005 H 288.837 1.14846 -1.24934 0
M  V30 3006 H 287.609 2.88316 -2.64555 0
M  V30 3007 H 287.232 3.79316 -1.19187 0
M  V30 3008 N 288.23 0.939286 1.26551 0
M  V30 3009 C 289.178 0.43815 2.28436 0
M  V30 3010 C 290.172 -0.483587 1.62351 0
M  V30 3011 O 291.378 -0.362009 1.76322 0
M  V30 3012 H 287.753 0.123149 0.741848 0
M  V30 3013 H 289.724 1.31002 2.68106 0
M  V30 3014 C 288.473 -0.283052 3.46546 0
M  V30 3015 H 287.796 0.417043 3.97619 0
M  V30 3016 H 289.236 -0.597948 4.19763 0
M  V30 3017 C 287.695 -1.50018 3.01656 0
M  V30 3018 O 288.225 -2.59855 3.0633 0
M  V30 3019 N 286.431 -1.35608 2.57019 0
M  V30 3020 H 285.978 -0.46244 2.53415 0
M  V30 3021 H 285.936 -2.17165 2.27347 0
M  V30 3022 N 289.708 -1.40897 0.706093 0
M  V30 3023 C 290.618 -2.3455 0.0482286 0
M  V30 3024 C 291.634 -1.56796 -0.754396 0
M  V30 3025 O 292.81 -1.89228 -0.689538 0
M  V30 3026 C 289.875 -3.35625 -0.869303 0
M  V30 3027 C 288.936 -4.29261 -0.0576994 0
M  V30 3028 C 288.169 -5.25508 -0.931531 0
M  V30 3029 O 288.392 -5.27472 -2.17092 0
M  V30 3030 O 287.326 -6.00727 -0.375587 0
M  V30 3031 H 291.152 -2.92407 0.820476 0
M  V30 3032 H 288.737 -1.4193 0.4665 0
M  V30 3033 H 290.619 -3.97635 -1.39514 0
M  V30 3034 H 289.294 -2.80196 -1.62086 0
M  V30 3035 H 288.201 -3.70566 0.512988 0
M  V30 3036 H 289.534 -4.87817 0.655426 0
M  V30 3037 N 291.186 -0.45159 -1.50991 0
M  V30 3038 C 292.116 0.342898 -2.30969 0
M  V30 3039 C 293.097 1.00815 -1.37005 0
M  V30 3040 O 294.282 1.00907 -1.65926 0
M  V30 3041 C 291.412 1.43637 -3.16205 0
M  V30 3042 C 290.366 0.893818 -4.18563 0
M  V30 3043 C 289.692 2.08411 -4.92411 0
M  V30 3044 C 290.992 -0.0815568 -5.22236 0
M  V30 3045 H 292.686 -0.324556 -2.97636 0
M  V30 3046 H 290.232 -0.157531 -1.43136 0
M  V30 3047 H 292.185 1.9995 -3.70942 0
M  V30 3048 H 290.909 2.13232 -2.47386 0
M  V30 3049 H 289.568 0.352798 -3.64898 0
M  V30 3050 H 289.216 2.76658 -4.20082 0
M  V30 3051 H 288.916 1.72741 -5.61636 0
M  V30 3052 H 290.44 2.65251 -5.49976 0
M  V30 3053 H 291.854 0.391742 -5.7196 0
M  V30 3054 H 290.251 -0.351551 -5.99069 0
M  V30 3055 H 291.321 -1.01374 -4.74185 0
M  V30 3056 N 292.664 1.56529 -0.183458 0
M  V30 3057 C 293.574 2.22144 0.754272 0
M  V30 3058 C 294.59 1.21684 1.24374 0
M  V30 3059 O 295.766 1.54385 1.29333 0
M  V30 3060 C 292.831 2.85884 1.96141 0
M  V30 3061 C 291.892 4.01579 1.51765 0
M  V30 3062 C 291.125 4.6227 2.66725 0
M  V30 3063 O 291.348 4.21865 3.83909 0
M  V30 3064 O 290.282 5.51936 2.40104 0
M  V30 3065 H 294.108 3.02861 0.225527 0
M  V30 3066 H 291.693 1.49331 0.0453032 0
M  V30 3067 H 293.575 3.26253 2.66715 0
M  V30 3068 H 292.25 2.08154 2.47899 0
M  V30 3069 H 291.157 3.65856 0.781049 0
M  V30 3070 H 292.49 4.80938 1.04686 0
M  V30 3071 N 294.142 -0.090211 1.57342 0
M  V30 3072 C 295.089 -1.10909 2.02405 0
M  V30 3073 C 296.059 -1.39523 0.901252 0
M  V30 3074 O 297.244 -1.50903 1.1676 0
M  V30 3075 C 294.384 -2.42277 2.45755 0
M  V30 3076 C 293.497 -2.20352 3.71576 0
M  V30 3077 C 292.632 -3.45154 4.03785 0
M  V30 3078 C 291.671 -3.18512 5.22701 0
M  V30 3079 N 290.808 -4.35593 5.50639 0
M  V30 3080 H 295.648 -0.71782 2.89225 0
M  V30 3081 H 293.185 -0.342901 1.43048 0
M  V30 3082 H 295.143 -3.18951 2.68935 0
M  V30 3083 H 293.773 -2.79242 1.61938 0
M  V30 3084 H 292.825 -1.34458 3.55844 0
M  V30 3085 H 294.137 -1.96661 4.58395 0
M  V30 3086 H 293.291 -4.30233 4.27767 0
M  V30 3087 H 292.03 -3.71904 3.15498 0
M  V30 3088 H 291.035 -2.31827 4.98534 0
M  V30 3089 H 292.26 -2.93103 6.12591 0
M  V30 3090 H 290.206 -4.6241 4.6531 0
M  V30 3091 H 290.123 -4.1511 6.31838 0
M  V30 3092 H 291.391 -5.21723 5.7916 0
M  V30 3093 N 295.62 -1.53406 -0.361157 0
M  V30 3094 C 296.869 -1.69022 -1.10066 0
M  V30 3095 C 297.182 -0.450838 -1.90333 0
M  V30 3096 O 298.388 -0.487617 -2.67085 0
M  V30 3097 C 296.844 -2.98812 -2.00598 0
M  V30 3098 C 296.452 -4.30027 -1.25621 0
M  V30 3099 C 298.196 -3.23795 -2.74513 0
M  V30 3100 C 296.103 -5.50903 -2.1508 0
M  V30 3101 H 295.033 -0.629776 -0.414606 0
M  V30 3102 H 297.684 -1.79907 -0.361348 0
M  V30 3103 H 296.066 -2.8174 -2.78278 0
M  V30 3104 H 297.24 -4.57745 -0.529739 0
M  V30 3105 H 295.555 -4.11522 -0.635496 0
M  V30 3106 H 298.152 -4.11289 -3.41681 0
M  V30 3107 H 298.495 -2.40045 -3.40123 0
M  V30 3108 H 299.028 -3.41561 -2.03914 0
M  V30 3109 H 295.767 -6.37143 -1.54041 0
M  V30 3110 H 295.287 -5.27459 -2.85565 0
M  V30 3111 H 296.966 -5.85865 -2.74538 0
M  V30 3112 N 297.098 0.621204 -1.44841 0
M  V30 3113 C 298.326 1.40752 -1.51646 0
M  V30 3114 C 298.741 1.88246 -0.144549 0
M  V30 3115 O 298.098 1.61422 0.851416 0
M  V30 3116 C 298.149 2.62119 -2.4895 0
M  V30 3117 O 297.87 2.16602 -3.80808 0
M  V30 3118 C 299.371 3.55135 -2.65319 0
M  V30 3119 H 296.591 0.431325 -0.514004 0
M  V30 3120 H 299.135 0.758835 -1.899 0
M  V30 3121 H 297.29 3.23058 -2.13805 0
M  V30 3122 H 297.704 2.95358 -4.33433 0
M  V30 3123 H 299.178 4.36874 -3.37409 0
M  V30 3124 H 299.655 4.04592 -1.70886 0
M  V30 3125 H 300.261 3.00058 -3.01405 0
M  V30 3126 N 298.576 1.31904 0.862503 0
M  V30 3127 C 299.992 1.10724 1.14945 0
M  V30 3128 C 300.192 -0.117421 2.01158 0
M  V30 3129 O 299.248 -0.804595 2.39338 0
M  V30 3130 C 300.561 2.38267 1.83437 0
M  V30 3131 C 302.109 2.43949 1.96106 0
M  V30 3132 C 302.584 3.71394 2.68013 0
M  V30 3133 N 304.075 3.72331 2.75543 0
M  V30 3134 C 304.81 4.67641 3.31812 0
M  V30 3135 N 304.306 5.73313 3.88953 0
M  V30 3136 N 306.099 4.5515 3.29841 0
M  V30 3137 H 298.25 2.10436 0.288191 0
M  V30 3138 H 300.513 0.928705 0.190292 0
M  V30 3139 H 300.219 3.27759 1.27542 0
M  V30 3140 H 300.093 2.48633 2.83657 0
M  V30 3141 H 302.48 1.54922 2.51164 0
M  V30 3142 H 302.561 2.37543 0.949059 0
M  V30 3143 H 302.205 4.60791 2.13621 0
M  V30 3144 H 302.135 3.75069 3.69636 0
M  V30 3145 H 304.626 2.95947 2.34997 0
M  V30 3146 H 304.939 6.42107 4.30022 0
M  V30 3147 H 303.284 5.77077 3.87308 0
M  V30 3148 H 306.475 3.71766 2.84443 0
M  V30 3149 H 306.648 5.29604 3.73394 0
M  V30 3150 N 300.054 -1.07777 1.14986 0
M  V30 3151 C 301.47 -1.32373 0.891596 0
M  V30 3152 C 301.67 -1.9609 -0.463788 0
M  V30 3153 O 300.726 -2.21801 -1.20667 0
M  V30 3154 C 302.039 -2.21905 2.02925 0
M  V30 3155 C 303.587 -2.35367 2.06329 0
M  V30 3156 C 304.062 -3.28245 3.19405 0
M  V30 3157 N 305.553 -3.35824 3.19024 0
M  V30 3158 C 306.288 -4.07739 4.03158 0
M  V30 3159 N 305.784 -4.82306 4.97346 0
M  V30 3160 N 307.577 -4.03635 3.91197 0
M  V30 3161 H 299.728 -0.648039 2.02273 0
M  V30 3162 H 301.991 -0.348149 0.881757 0
M  V30 3163 H 301.697 -1.82342 3.0074 0
M  V30 3164 H 301.571 -3.22407 1.95789 0
M  V30 3165 H 303.958 -2.74186 1.09116 0
M  V30 3166 H 304.039 -1.34585 2.17533 0
M  V30 3167 H 303.683 -2.90146 4.16867 0
M  V30 3168 H 303.613 -4.28971 3.05437 0
M  V30 3169 H 306.104 -2.8267 2.50811 0
M  V30 3170 H 306.417 -5.34661 5.57994 0
M  V30 3171 H 304.762 -4.81337 5.01338 0
M  V30 3172 H 307.953 -3.44491 3.16928 0
M  V30 3173 H 308.126 -4.59417 4.5699 0
M  V30 3174 N 301.532 -0.945985 -1.26051 0
M  V30 3175 C 302.779 -0.596118 -1.93527 0
M  V30 3176 C 303.107 0.865559 -1.74179 0
M  V30 3177 O 302.362 1.63524 -1.0751 0
M  V30 3178 C 302.661 -0.890475 -3.46129 0
M  V30 3179 C 302.327 -2.3368 -3.85622 0
M  V30 3180 C 300.989 -2.73216 -3.96114 0
M  V30 3181 C 303.341 -3.27648 -4.05334 0
M  V30 3182 C 300.669 -4.05806 -4.2372 0
M  V30 3183 C 303.021 -4.59841 -4.3443 0
M  V30 3184 C 301.685 -4.99185 -4.43137 0
M  V30 3185 H 300.955 -0.218135 -0.708165 0
M  V30 3186 H 303.602 -1.1934 -1.49768 0
M  V30 3187 H 301.907 -0.210711 -3.91233 0
M  V30 3188 H 303.604 -0.598478 -3.96509 0
M  V30 3189 H 300.194 -2.02015 -3.78005 0
M  V30 3190 H 304.378 -2.98298 -3.96651 0
M  V30 3191 H 299.634 -4.35945 -4.28675 0
M  V30 3192 H 303.808 -5.32641 -4.48628 0
M  V30 3193 H 301.435 -6.01952 -4.64282 0
M  V30 3194 N 303.011 1.40521 -0.713556 0
M  V30 3195 C 304.239 2.05237 -0.261775 0
M  V30 3196 C 304.654 1.53755 1.09567 0
M  V30 3197 O 304.011 0.693268 1.6882 0
M  V30 3198 C 304.062 3.60763 -0.230706 0
M  V30 3199 O 303.783 4.10345 -1.53455 0
M  V30 3200 C 305.284 4.42651 0.239874 0
M  V30 3201 H 302.504 0.660533 -0.118057 0
M  V30 3202 H 305.048 1.79967 -0.971192 0
M  V30 3203 H 303.203 3.8501 0.429661 0
M  V30 3204 H 303.617 5.04526 -1.43366 0
M  V30 3205 H 305.091 5.51599 0.210468 0
M  V30 3206 H 305.568 4.20082 1.28171 0
M  V30 3207 H 306.174 4.23507 -0.390142 0
M  V30 3208 N 304.489 0.459591 1.5075 0
M  V30 3209 C 305.422 -0.386257 2.24907 0
M  V30 3210 C 306.4 -1.006 1.27744 0
M  V30 3211 O 307.584 -1.04416 1.56938 0
M  V30 3212 C 304.711 -1.54021 3.01654 0
M  V30 3213 C 303.757 -1.03898 4.13651 0
M  V30 3214 S 304.59 0.0370501 5.35487 0
M  V30 3215 C 305.746 -1.12105 6.15779 0
M  V30 3216 H 305.979 0.243272 2.96303 0
M  V30 3217 H 303.512 0.244339 1.52454 0
M  V30 3218 H 305.47 -2.20163 3.46466 0
M  V30 3219 H 304.131 -2.14121 2.29806 0
M  V30 3220 H 303.324 -1.90254 4.66711 0
M  V30 3221 H 302.926 -0.45545 3.71216 0
M  V30 3222 H 305.218 -2.03501 6.46215 0
M  V30 3223 H 306.161 -0.62995 7.05292 0
M  V30 3224 H 306.569 -1.36967 5.47631 0
M  V30 3225 N 305.967 -1.56429 0.191757 0
M  V30 3226 C 306.877 -2.22541 -0.742481 0
M  V30 3227 C 307.893 -1.22342 -1.23727 0
M  V30 3228 O 309.069 -1.55069 -1.28513 0
M  V30 3229 C 306.134 -2.8692 -1.94623 0
M  V30 3230 C 305.195 -4.02378 -1.49633 0
M  V30 3231 C 304.428 -4.63678 -2.6427 0
M  V30 3232 O 304.651 -4.23895 -3.81666 0
M  V30 3233 O 303.585 -5.53202 -2.37174 0
M  V30 3234 H 307.411 -3.02977 -0.209462 0
M  V30 3235 H 304.996 -1.49353 -0.0373832 0
M  V30 3236 H 306.878 -3.27663 -2.64982 0
M  V30 3237 H 305.553 -2.09466 -2.46791 0
M  V30 3238 H 304.46 -3.66265 -0.761636 0
M  V30 3239 H 305.793 -4.81487 -1.02134 0
M  V30 3240 N 307.445 0.0818655 -1.57387 0
M  V30 3241 C 308.375 1.09885 -2.06028 0
M  V30 3242 C 309.356 1.4098 -0.951774 0
M  V30 3243 O 310.541 1.50781 -1.22387 0
M  V30 3244 C 307.671 2.4151 -2.4958 0
M  V30 3245 C 306.625 2.24792 -3.64215 0
M  V30 3246 C 305.951 3.61712 -3.93787 0
M  V30 3247 C 307.251 1.67749 -4.94629 0
M  V30 3248 H 308.945 0.694128 -2.91243 0
M  V30 3249 H 306.491 0.332448 -1.4011 0
M  V30 3250 H 308.444 3.12939 -2.82219 0
M  V30 3251 H 307.168 2.83943 -1.61381 0
M  V30 3252 H 305.827 1.55807 -3.31843 0
M  V30 3253 H 305.475 4.01697 -3.02735 0
M  V30 3254 H 305.175 3.51368 -4.70971 0
M  V30 3255 H 306.699 4.34587 -4.28913 0
M  V30 3256 H 308.113 2.29032 -5.25564 0
M  V30 3257 H 306.51 1.68128 -5.76067 0
M  V30 3258 H 307.58 0.638059 -4.80684 0
M  V30 3259 N 308.923 1.53595 0.353017 0
M  V30 3260 C 309.886 1.80232 1.41594 0
M  V30 3261 C 310.886 0.673081 1.46035 0
M  V30 3262 O 312.076 0.941335 1.46576 0
M  V30 3263 C 309.208 1.93578 2.80607 0
M  V30 3264 H 310.401 2.75174 1.19244 0
M  V30 3265 H 307.954 1.44864 0.586872 0
M  V30 3266 H 308.689 1.00746 3.08254 0
M  V30 3267 H 308.474 2.75724 2.78781 0
M  V30 3268 H 309.964 2.15735 3.57558 0
M  V30 3269 N 310.401 -0.613514 1.45168 0
M  V30 3270 C 311.348 -1.72456 1.53387 0
M  V30 3271 C 312.318 -1.6169 0.380191 0
M  V30 3272 O 313.503 -1.81356 0.592836 0
M  V30 3273 C 310.643 -3.10753 1.50088 0
M  V30 3274 C 309.756 -3.32368 2.75963 0
M  V30 3275 C 308.891 -4.60737 2.64376 0
M  V30 3276 C 307.93 -4.7559 3.85332 0
M  V30 3277 N 307.067 -5.95253 3.72315 0
M  V30 3278 H 311.907 -1.64768 2.48305 0
M  V30 3279 H 309.444 -0.803503 1.23216 0
M  V30 3280 H 311.402 -3.90758 1.46164 0
M  V30 3281 H 310.032 -3.17413 0.587243 0
M  V30 3282 H 309.084 -2.4618 2.89999 0
M  V30 3283 H 310.396 -3.39218 3.65695 0
M  V30 3284 H 309.55 -5.48928 2.58385 0
M  V30 3285 H 308.289 -4.56275 1.72233 0
M  V30 3286 H 307.294 -3.85824 3.91688 0
M  V30 3287 H 308.519 -4.81854 4.78533 0
M  V30 3288 H 306.465 -5.91847 2.82937 0
M  V30 3289 H 306.382 -6.03236 4.55677 0
M  V30 3290 H 307.65 -6.85958 3.70246 0
M  V30 3291 N 311.879 -1.3236 -0.855495 0
M  V30 3292 C 312.826 -1.21225 -1.964 0
M  V30 3293 C 313.796 -0.0946204 -1.6583 0
M  V30 3294 O 314.981 -0.27002 -1.8888 0
M  V30 3295 C 312.121 -0.940419 -3.32039 0
M  V30 3296 C 311.234 -2.14276 -3.75113 0
M  V30 3297 C 310.369 -1.80648 -4.9954 0
M  V30 3298 C 309.408 -2.97208 -5.35102 0
M  V30 3299 N 308.545 -2.63678 -6.50706 0
M  V30 3300 H 313.385 -2.16042 -2.05255 0
M  V30 3301 H 310.922 -1.07451 -1.00463 0
M  V30 3302 H 312.88 -0.763311 -4.10158 0
M  V30 3303 H 311.51 -0.0290413 -3.22787 0
M  V30 3304 H 310.562 -2.43017 -2.92655 0
M  V30 3305 H 311.874 -3.01468 -3.97389 0
M  V30 3306 H 311.028 -1.59484 -5.85363 0
M  V30 3307 H 309.767 -0.906678 -4.79198 0
M  V30 3308 H 308.772 -3.19004 -4.47791 0
M  V30 3309 H 309.997 -3.87918 -5.57401 0
M  V30 3310 H 307.943 -1.76238 -6.31883 0
M  V30 3311 H 307.86 -3.444 -6.72997 0
M  V30 3312 H 309.128 -2.45942 -7.39684 0
M  V30 3313 N 313.357 1.07166 -1.15556 0
M  V30 3314 C 314.605 1.79443 -0.929764 0
M  V30 3315 C 314.926 1.87246 0.544414 0
M  V30 3316 O 314.196 1.37473 1.39564 0
M  V30 3317 H 312.776 0.664625 -0.341003 0
M  V30 3318 H 315.438 1.29499 -1.45657 0
M  V30 3319 H 314.534 2.81832 -1.34079 0
M  V30 3320 N 314.835 0.952656 1.25548 0
M  V30 3321 C 316.082 0.606373 1.93208 0
M  V30 3322 C 316.41 -0.85631 1.74636 0
M  V30 3323 O 315.665 -1.62951 1.08376 0
M  V30 3324 C 315.964 0.908818 3.45652 0
M  V30 3325 C 315.63 2.35722 3.84378 0
M  V30 3326 C 314.292 2.75312 3.9466 0
M  V30 3327 C 316.644 3.29793 4.03591 0
M  V30 3328 C 313.972 4.08047 4.21562 0
M  V30 3329 C 316.324 4.62138 4.31985 0
M  V30 3330 C 314.988 5.01528 4.40484 0
M  V30 3331 H 314.258 0.221888 0.706998 0
M  V30 3332 H 316.905 1.20132 1.49133 0
M  V30 3333 H 315.21 0.231456 3.91116 0
M  V30 3334 H 316.907 0.619498 3.96186 0
M  V30 3335 H 313.497 2.04017 3.76928 0
M  V30 3336 H 317.681 3.00397 3.95064 0
M  V30 3337 H 312.937 4.38212 4.26357 0
M  V30 3338 H 317.111 5.35012 4.45797 0
M  V30 3339 H 314.738 6.04406 4.61083 0
M  V30 3340 N 316.313 -1.40141 0.720998 0
M  V30 3341 C 317.562 -2.0002 0.259804 0
M  V30 3342 C 317.875 -1.57839 -1.15526 0
M  V30 3343 O 319.081 -2.10455 -1.71525 0
M  V30 3344 C 317.537 -3.57516 0.413566 0
M  V30 3345 C 317.145 -4.08667 1.83562 0
M  V30 3346 C 318.889 -4.24498 0.0134387 0
M  V30 3347 C 316.796 -5.58686 1.93968 0
M  V30 3348 H 315.726 -0.748195 0.0933806 0
M  V30 3349 H 318.377 -1.60313 0.892866 0
M  V30 3350 H 316.759 -3.9495 -0.288169 0
M  V30 3351 H 317.933 -3.82598 2.56817 0
M  V30 3352 H 316.248 -3.543 2.1877 0
M  V30 3353 H 318.845 -5.34654 0.0703954 0
M  V30 3354 H 319.188 -4.03375 -1.02927 0
M  V30 3355 H 319.721 -3.92188 0.665815 0
M  V30 3356 H 316.46 -5.8467 2.96379 0
M  V30 3357 H 315.98 -5.86602 1.25131 0
M  V30 3358 H 317.659 -6.23875 1.71431 0
M  V30 3359 N 317.792 -0.46758 -1.50504 0
M  V30 3360 C 319.04 0.0884469 -2.01906 0
M  V30 3361 C 319.361 1.40532 -1.35188 0
M  V30 3362 O 318.631 1.89515 -0.496079 0
M  V30 3363 H 317.211 0.0356765 -0.746148 0
M  V30 3364 H 319.873 -0.6172 -1.84869 0
M  V30 3365 H 318.969 0.2425 -3.11156 0
M  V30 3366 N 319.27 1.56325 -0.20005 0
M  V30 3367 C 320.681 1.8408 0.31167 0
M  V30 3368 C 321.032 1.12087 1.61031 0
M  V30 3369 O 320.157 0.38332 2.12978 0
M  V30 3370 C 320.752 3.33932 0.57226 0
M  V30 3371 C 319.311 3.6208 1.02834 0
M  V30 3372 C 318.458 2.77186 0.079634 0
M  V30 3373 H 321.409 1.52939 -0.423729 0
M  V30 3374 H 321.43 3.52971 1.42096 0
M  V30 3375 H 320.942 3.86303 -0.37308 0
M  V30 3376 H 319.043 3.15147 1.98778 0
M  V30 3377 H 319.156 4.7023 0.917624 0
M  V30 3378 H 317.52 2.47951 0.582448 0
M  V30 3379 H 318.303 3.32347 -0.860238 0
M  V30 3380 N 320.748 -0.0735177 1.57428 0
M  V30 3381 C 321.996 -0.771472 1.86796 0
M  V30 3382 C 322.317 -1.78201 0.791804 0
M  V30 3383 O 321.587 -1.95074 -0.179718 0
M  V30 3384 H 320.167 -0.28791 0.689287 0
M  V30 3385 H 322.829 -0.0500161 1.94836 0
M  V30 3386 H 321.925 -1.28874 2.8425 0
M  V30 3387 N 322.226 -1.5378 -0.344866 0
M  V30 3388 C 323.475 -1.7018 -1.08267 0
M  V30 3389 C 323.788 -0.471 -1.89845 0
M  V30 3390 O 324.994 -0.515917 -2.66553 0
M  V30 3391 C 323.45 -3.00923 -1.97417 0
M  V30 3392 C 323.058 -4.31335 -1.21053 0
M  V30 3393 C 324.802 -3.26688 -2.71063 0
M  V30 3394 C 322.709 -5.53153 -2.09225 0
M  V30 3395 H 321.639 -0.634138 -0.407903 0
M  V30 3396 H 324.29 -1.8028 -0.342246 0
M  V30 3397 H 322.672 -2.84676 -2.75274 0
M  V30 3398 H 323.846 -4.58281 -0.481159 0
M  V30 3399 H 322.161 -4.12173 -0.591813 0
M  V30 3400 H 324.758 -4.1489 -3.37299 0
M  V30 3401 H 325.101 -2.43639 -3.37558 0
M  V30 3402 H 325.634 -3.43705 -2.0028 0
M  V30 3403 H 322.373 -6.38741 -1.47274 0
M  V30 3404 H 321.893 -5.30458 -2.79955 0
M  V30 3405 H 323.572 -5.88744 -2.68308 0
M  V30 3406 N 323.704 0.605807 -1.45491 0
M  V30 3407 C 324.981 1.36522 -1.40075 0
M  V30 3408 C 325.361 2.10976 -0.0722744 0
M  V30 3409 O 324.709 2.08007 0.945808 0
M  V30 3410 C 324.919 2.31056 -2.61561 0
M  V30 3411 C 326.267 2.93608 -3.06724 0
M  V30 3412 O 327.291 2.41376 -2.61946 0
M  V30 3413 O 326.15 3.88421 -3.84437 0
M  V30 3414 H 323.244 0.612248 -0.555951 0
M  V30 3415 H 325.79 0.628747 -1.57623 0
M  V30 3416 H 324.562 1.75311 -3.49831 0
M  V30 3417 H 324.185 3.12081 -2.46356 0
M  V30 3418 N 325.182 1.32811 0.848464 0
M  V30 3419 C 326.428 1.23907 1.60546 0
M  V30 3420 C 326.761 -0.197161 1.93197 0
M  V30 3421 O 326.036 -1.13596 1.5788 0
M  V30 3422 C 326.319 2.10489 2.92175 0
M  V30 3423 C 326.172 3.62522 2.66266 0
M  V30 3424 C 327.491 1.97075 3.93509 0
M  V30 3425 H 324.61 0.451459 0.58254 0
M  V30 3426 H 327.252 1.62818 0.979296 0
M  V30 3427 H 325.402 1.77434 3.45614 0
M  V30 3428 H 327.074 4.05821 2.19334 0
M  V30 3429 H 325.317 3.84879 2.00126 0
M  V30 3430 H 325.988 4.18437 3.6002 0
M  V30 3431 H 328.464 2.26045 3.49346 0
M  V30 3432 H 327.34 2.59923 4.83457 0
M  V30 3433 H 327.601 0.940186 4.31987 0
M  V30 3434 N 326.66 -1.06551 1.16123 0
M  V30 3435 C 328.071 -1.60768 0.949232 0
M  V30 3436 C 328.422 -1.89523 -0.507508 0
M  V30 3437 O 327.547 -1.66671 -1.38021 0
M  V30 3438 C 328.142 -2.92086 1.71671 0
M  V30 3439 C 326.701 -3.43015 1.54977 0
M  V30 3440 C 325.848 -2.16947 1.72711 0
M  V30 3441 H 328.799 -0.895354 1.31031 0
M  V30 3442 H 328.82 -3.6138 1.19099 0
M  V30 3443 H 328.332 -2.71127 2.7769 0
M  V30 3444 H 326.433 -3.69039 0.513873 0
M  V30 3445 H 326.546 -4.18516 2.33198 0
M  V30 3446 H 324.91 -2.27041 1.15431 0
M  V30 3447 H 325.693 -1.98473 2.80113 0
M  V30 3448 N 328.138 -0.959301 -1.25041 0
M  V30 3449 C 329.101 -0.487677 -2.23952 0
M  V30 3450 C 330.101 0.41119 -1.55454 0
M  V30 3451 O 331.291 0.207825 -1.72956 0
M  V30 3452 C 328.423 0.294807 -3.39623 0
M  V30 3453 H 329.616 -1.36198 -2.67189 0
M  V30 3454 H 327.169 -0.743042 -1.37508 0
M  V30 3455 H 327.904 1.18658 -3.01813 0
M  V30 3456 H 327.689 -0.35012 -3.90534 0
M  V30 3457 H 329.179 0.614089 -4.1306 0
M  V30 3458 N 329.616 1.39756 -0.72842 0
M  V30 3459 C 331.027 1.83498 -0.344289 0
M  V30 3460 C 331.378 1.60868 1.12321 0
M  V30 3461 O 330.503 1.09634 1.86573 0
M  V30 3462 C 331.098 3.33114 -0.618112 0
M  V30 3463 C 329.657 3.753 -0.287549 0
M  V30 3464 C 328.804 2.62831 -0.884048 0
M  V30 3465 H 331.755 1.28842 -0.926578 0
M  V30 3466 H 331.776 3.80334 0.112349 0
M  V30 3467 H 331.288 3.49553 -1.68625 0
M  V30 3468 H 329.389 3.64451 0.775012 0
M  V30 3469 H 329.502 4.72945 -0.765512 0
M  V30 3470 H 327.866 2.52792 -0.311149 0
M  V30 3471 H 328.649 2.82078 -1.95671 0
M  V30 3472 N 331.094 0.475555 1.50254 0
M  V30 3473 C 332.371 -0.139685 1.95101 0
M  V30 3474 C 332.751 -1.56555 1.41611 0
M  V30 3475 O 332.099 -2.19956 0.618993 0
M  V30 3476 C 332.309 -0.0784298 3.48912 0
M  V30 3477 C 333.657 -0.265095 4.23772 0
M  V30 3478 O 334.681 -0.154808 3.55863 0
M  V30 3479 O 333.54 -0.488327 5.44314 0
M  V30 3480 H 330.634 -0.109236 0.819754 0
M  V30 3481 H 333.18 0.536276 1.61004 0
M  V30 3482 H 331.952 0.916918 3.80405 0
M  V30 3483 H 331.575 -0.795655 3.89558 0
M  V30 3484 N 332.573 -1.56217 0.208337 0
M  V30 3485 C 333.506 -2.15633 -0.746842 0
M  V30 3486 C 334.484 -1.09685 -1.20034 0
M  V30 3487 O 335.668 -1.3787 -1.28547 0
M  V30 3488 C 332.795 -2.72594 -2.01023 0
M  V30 3489 C 331.841 -3.91251 -1.69779 0
M  V30 3490 S 332.674 -5.28962 -0.834209 0
M  V30 3491 C 333.83 -5.89353 -2.10745 0
M  V30 3492 H 334.063 -2.96315 -0.241789 0
M  V30 3493 H 331.596 -1.54398 -0.00682183 0
M  V30 3494 H 333.554 -3.06053 -2.73572 0
M  V30 3495 H 332.215 -1.91929 -2.48641 0
M  V30 3496 H 331.408 -4.29562 -2.63614 0
M  V30 3497 H 331.01 -3.58869 -1.05303 0
M  V30 3498 H 333.302 -6.04522 -3.05875 0
M  V30 3499 H 334.245 -6.85661 -1.76845 0
M  V30 3500 H 334.653 -5.1807 -2.24196 0
M  V30 3501 N 334.051 0.0651679 -1.57465 0
M  V30 3502 C 335.276 0.779605 -1.9219 0
M  V30 3503 C 335.701 1.69988 -0.805333 0
M  V30 3504 O 335.059 1.79685 0.241435 0
M  V30 3505 C 335.107 1.54364 -3.2589 0
M  V30 3506 O 334.211 2.65474 -3.1559 0
M  V30 3507 H 333.552 0.212249 -0.629163 0
M  V30 3508 H 336.082 0.0314294 -2.04576 0
M  V30 3509 H 336.092 1.92146 -3.59922 0
M  V30 3510 H 334.767 0.868457 -4.06732 0
M  V30 3511 H 333.344 2.30501 -2.93128 0
M  V30 3512 N 335.529 1.53961 0.336706 0
M  V30 3513 C 336.757 1.75483 1.09605 0
M  V30 3514 C 337.172 0.4972 1.82136 0
M  V30 3515 O 336.529 -0.53149 1.74589 0
M  V30 3516 C 336.58 2.93943 2.10428 0
M  V30 3517 O 336.301 4.14842 1.40846 0
M  V30 3518 C 337.802 3.27571 2.98684 0
M  V30 3519 H 335.022 0.586166 0.326574 0
M  V30 3520 H 337.566 2.00808 0.38683 0
M  V30 3521 H 335.721 2.70929 2.76905 0
M  V30 3522 H 336.135 4.81383 2.08255 0
M  V30 3523 H 337.609 4.13791 3.6535 0
M  V30 3524 H 338.086 2.44168 3.65074 0
M  V30 3525 H 338.692 3.52615 2.37787 0
M  V30 3526 N 337.007 -0.598083 1.45811 0
M  V30 3527 C 338.255 -1.35413 1.50026 0
M  V30 3528 C 338.576 -1.94444 0.147177 0
M  V30 3529 O 337.846 -1.77701 -0.824571 0
M  V30 3530 H 336.426 -0.502727 0.552517 0
M  V30 3531 H 339.088 -0.701606 1.81834 0
M  V30 3532 H 338.184 -2.16871 2.2444 0
M  V30 3533 N 338.485 -1.33259 -0.841409 0
M  V30 3534 C 339.395 -1.25332 -1.98316 0
M  V30 3535 C 340.411 -0.164364 -1.73222 0
M  V30 3536 O 341.587 -0.387486 -1.97637 0
M  V30 3537 C 338.652 -0.990078 -3.32262 0
M  V30 3538 C 337.713 -2.16879 -3.70489 0
M  V30 3539 C 336.946 -1.91801 -4.98044 0
M  V30 3540 O 337.169 -0.867075 -5.63771 0
M  V30 3541 O 336.103 -2.78267 -5.33714 0
M  V30 3542 H 339.929 -2.21344 -2.07944 0
M  V30 3543 H 337.514 -1.1328 -0.974058 0
M  V30 3544 H 339.396 -0.860321 -4.12524 0
M  V30 3545 H 338.071 -0.0602155 -3.23644 0
M  V30 3546 H 336.978 -2.35407 -2.90748 0
M  V30 3547 H 338.311 -3.0819 -3.8377 0
M  V30 3548 N 339.963 1.05934 -1.16686 0
M  V30 3549 C 341.379 1.30938 -0.912542 0
M  V30 3550 C 341.579 1.96803 0.432533 0
M  V30 3551 O 340.635 2.23693 1.17123 0
M  V30 3552 C 341.948 2.18649 -2.06429 0
M  V30 3553 C 343.496 2.32055 -2.10047 0
M  V30 3554 C 343.971 3.23122 -3.24586 0
M  V30 3555 N 345.462 3.30706 -3.24327 0
M  V30 3556 C 346.197 4.01273 -4.09594 0
M  V30 3557 N 345.693 4.74332 -5.04956 0
M  V30 3558 N 347.486 3.97361 -3.97569 0
M  V30 3559 H 339.637 0.615777 -2.03278 0
M  V30 3560 H 341.9 0.334077 -0.887185 0
M  V30 3561 H 341.606 1.77534 -3.03603 0
M  V30 3562 H 341.48 3.19252 -2.00894 0
M  V30 3563 H 343.867 2.72415 -1.13464 0
M  V30 3564 H 343.948 1.31107 -2.19647 0
M  V30 3565 H 343.592 2.83477 -4.2143 0
M  V30 3566 H 343.522 4.24057 -3.12223 0
M  V30 3567 H 346.013 2.78644 -2.55276 0
M  V30 3568 H 346.326 5.25716 -5.6643 0
M  V30 3569 H 344.671 4.733 -5.08933 0
M  V30 3570 H 347.862 3.39405 -3.22369 0
M  V30 3571 H 348.035 4.52089 -4.64241 0
M  V30 3572 N 341.441 0.965919 1.2453 0
M  V30 3573 C 342.351 0.502154 2.29163 0
M  V30 3574 C 343.367 -0.436017 1.68448 0
M  V30 3575 O 344.543 -0.309497 1.99008 0
M  V30 3576 C 341.608 -0.201956 3.46111 0
M  V30 3577 C 340.669 0.775821 4.22232 0
M  V30 3578 C 339.902 0.105217 5.33596 0
M  V30 3579 O 340.125 -1.10683 5.59558 0
M  V30 3580 O 339.059 0.796475 5.96607 0
M  V30 3581 H 342.885 1.37194 2.70946 0
M  V30 3582 H 340.47 0.732875 1.30189 0
M  V30 3583 H 342.352 -0.597564 4.17142 0
M  V30 3584 H 341.027 -1.04673 3.06309 0
M  V30 3585 H 339.934 1.22185 3.53584 0
M  V30 3586 H 341.267 1.58896 4.65846 0
M  V30 3587 N 342.919 -1.39368 0.735821 0
M  V30 3588 C 343.852 -2.28155 0.0451175 0
M  V30 3589 C 344.83 -1.44433 -0.746852 0
M  V30 3590 O 346.014 -1.73823 -0.729237 0
M  V30 3591 C 343.141 -3.253 -0.943266 0
M  V30 3592 C 342.187 -4.25826 -0.239685 0
M  V30 3593 S 343.02 -5.25166 1.04693 0
M  V30 3594 C 344.176 -6.2587 0.0611639 0
M  V30 3595 H 344.409 -2.86388 0.79807 0
M  V30 3596 H 341.942 -1.45104 0.527653 0
M  V30 3597 H 343.9 -3.81789 -1.50824 0
M  V30 3598 H 342.561 -2.66085 -1.66906 0
M  V30 3599 H 341.754 -4.94229 -0.987596 0
M  V30 3600 H 341.356 -3.73141 0.253274 0
M  V30 3601 H 343.648 -6.73007 -0.778941 0
M  V30 3602 H 344.591 -7.04508 0.712362 0
M  V30 3603 H 344.999 -5.63639 -0.311602 0
M  V30 3604 N 344.397 -0.483516 -1.5 0
M  V30 3605 C 345.622 0.0667119 -2.07293 0
M  V30 3606 C 346.047 1.3164 -1.3436 0
M  V30 3607 O 345.405 1.76945 -0.394987 0
M  V30 3608 C 345.453 0.321126 -3.59167 0
M  V30 3609 O 344.557 1.39927 -3.87936 0
M  V30 3610 H 343.898 -0.0184758 -0.663743 0
M  V30 3611 H 346.428 -0.678125 -1.93035 0
M  V30 3612 H 346.438 0.557906 -4.04168 0
M  V30 3613 H 345.113 -0.592007 -4.11665 0
M  V30 3614 H 343.69 1.14882 -3.54763 0
M  V30 3615 N 345.875 1.56104 -0.216619 0
M  V30 3616 C 347.121 1.99219 0.410301 0
M  V30 3617 C 347.476 1.10169 1.57735 0
M  V30 3618 O 346.769 0.150598 1.91007 0
M  V30 3619 C 346.963 3.45923 0.898464 0
M  V30 3620 C 346.792 4.49163 -0.219748 0
M  V30 3621 C 345.562 5.00642 -0.684516 0
M  V30 3622 C 347.76 5.03751 -1.03629 0
M  V30 3623 N 345.742 5.87579 -1.7783 0
M  V30 3624 C 347.113 5.87566 -1.97904 0
M  V30 3625 C 349.168 4.86128 -1.07629 0
M  V30 3626 C 347.871 6.5564 -2.95851 0
M  V30 3627 C 349.897 5.54958 -2.04392 0
M  V30 3628 C 349.259 6.38536 -2.97407 0
M  V30 3629 H 345.358 0.773206 0.11695 0
M  V30 3630 H 347.942 1.9193 -0.327258 0
M  V30 3631 H 346.113 3.53669 1.6054 0
M  V30 3632 H 347.845 3.75963 1.49779 0
M  V30 3633 H 344.6 4.72807 -0.27399 0
M  V30 3634 H 345.024 6.3575 -2.32705 0
M  V30 3635 H 349.666 4.21168 -0.371099 0
M  V30 3636 H 347.384 7.19785 -3.67335 0
M  V30 3637 H 350.97 5.43289 -2.08154 0
M  V30 3638 H 349.85 6.90858 -3.71059 0
M  V30 3639 N 347.353 -0.0568162 1.57498 0
M  V30 3640 C 348.602 -0.752001 1.87157 0
M  V30 3641 C 348.915 -1.77978 0.811375 0
M  V30 3642 O 350.121 -2.52559 0.996293 0
M  V30 3643 C 348.577 -1.38844 3.3204 0
M  V30 3644 C 348.185 -0.398456 4.46225 0
M  V30 3645 C 349.929 -2.06512 3.70882 0
M  V30 3646 C 347.836 -1.04166 5.82154 0
M  V30 3647 H 346.766 -0.28461 0.698222 0
M  V30 3648 H 349.417 -0.00561272 1.83499 0
M  V30 3649 H 347.799 -2.1836 3.30356 0
M  V30 3650 H 348.973 0.367977 4.59328 0
M  V30 3651 H 347.288 0.174592 4.16034 0
M  V30 3652 H 349.885 -2.55437 4.6974 0
M  V30 3653 H 350.228 -2.87117 3.01445 0
M  V30 3654 H 350.761 -1.33808 3.7462 0
M  V30 3655 H 347.5 -0.275614 6.5492 0
M  V30 3656 H 347.02 -1.7786 5.72823 0
M  V30 3657 H 348.699 -1.55715 6.27982 0
M  V30 3658 N 348.832 -1.54138 -0.328536 0
M  V30 3659 C 349.795 -1.82462 -1.38709 0
M  V30 3660 C 350.795 -0.696229 -1.44946 0
M  V30 3661 O 351.985 -0.964535 -1.4506 0
M  V30 3662 C 349.117 -1.98018 -2.77492 0
M  V30 3663 H 350.31 -2.77037 -1.14851 0
M  V30 3664 H 347.863 -1.45779 -0.563751 0
M  V30 3665 H 348.598 -1.05637 -3.06613 0
M  V30 3666 H 348.383 -2.80124 -2.74359 0
M  V30 3667 H 349.873 -2.21396 -3.54081 0
M  V30 3668 N 350.31 0.590341 -1.46126 0
M  V30 3669 C 351.587 1.35029 -1.41515 0
M  V30 3670 C 351.967 2.10888 -0.0946472 0
M  V30 3671 O 351.315 2.08998 0.923693 0
M  V30 3672 C 351.525 2.28269 -2.63997 0
M  V30 3673 C 352.873 2.90338 -3.09821 0
M  V30 3674 O 353.897 2.38585 -2.64492 0
M  V30 3675 O 352.756 3.84321 -3.88535 0
M  V30 3676 H 349.85 0.606317 -0.562413 0
M  V30 3677 H 352.396 0.611994 -1.58281 0
M  V30 3678 H 351.168 1.71591 -3.51671 0
M  V30 3679 H 350.791 3.0945 -2.49652 0
M  V30 3680 N 351.788 1.33704 0.83433 0
M  V30 3681 C 353.016 1.28467 1.62185 0
M  V30 3682 C 353.431 -0.143526 1.88254 0
M  V30 3683 O 352.788 -1.08709 1.4659 0
M  V30 3684 C 352.839 2.06174 2.96942 0
M  V30 3685 O 352.56 3.43422 2.72016 0
M  V30 3686 C 354.061 2.08201 3.91366 0
M  V30 3687 H 351.281 0.4424 0.504503 0
M  V30 3688 H 353.825 1.76145 1.03891 0
M  V30 3689 H 351.98 1.62167 3.51825 0
M  V30 3690 H 352.394 3.83453 3.57861 0
M  V30 3691 H 353.868 2.67017 4.83121 0
M  V30 3692 H 354.345 1.07343 4.2588 0
M  V30 3693 H 354.951 2.52246 3.42421 0
M  V30 3694 N 353.266 -1.05314 1.17247 0
M  V30 3695 C 354.496 -1.81707 0.983166 0
M  V30 3696 C 354.904 -1.83222 -0.471822 0
M  V30 3697 O 354.247 -1.25721 -1.3394 0
M  V30 3698 C 354.309 -3.29134 1.44606 0
M  V30 3699 C 353.973 -3.51304 2.92292 0
M  V30 3700 C 354.97 -3.4353 3.90235 0
M  V30 3701 C 352.655 -3.78306 3.30439 0
M  V30 3702 C 354.649 -3.62442 5.24323 0
M  V30 3703 C 352.336 -3.96866 4.64694 0
M  V30 3704 C 353.334 -3.88933 5.61445 0
M  V30 3705 O 353.022 -4.06976 6.93272 0
M  V30 3706 H 352.754 -0.579476 0.348114 0
M  V30 3707 H 355.308 -1.33705 1.55924 0
M  V30 3708 H 353.538 -3.78046 0.813537 0
M  V30 3709 H 355.227 -3.87049 1.22262 0
M  V30 3710 H 355.993 -3.22648 3.62109 0
M  V30 3711 H 351.872 -3.83585 2.55702 0
M  V30 3712 H 355.416 -3.56165 5.99827 0
M  V30 3713 H 351.313 -4.1724 4.92525 0
M  V30 3714 H 352.081 -4.24209 6.99992 0
M  V30 3715 N 354.744 -0.972509 -1.24016 0
M  V30 3716 C 355.707 -0.511403 -2.23422 0
M  V30 3717 C 356.707 0.394679 -1.55881 0
M  V30 3718 O 357.897 0.189469 -1.73167 0
M  V30 3719 C 355.029 0.258769 -3.39916 0
M  V30 3720 H 356.222 -1.39024 -2.6573 0
M  V30 3721 H 353.775 -0.757585 -1.36713 0
M  V30 3722 H 354.51 1.1545 -3.03054 0
M  V30 3723 H 354.295 -0.391522 -3.9014 0
M  V30 3724 H 355.785 0.570244 -4.13688 0
M  V30 3725 N 356.222 1.38976 -0.743202 0
M  V30 3726 C 357.447 2.05161 -0.303936 0
M  V30 3727 C 357.872 1.55677 1.05576 0
M  V30 3728 O 357.23 0.704131 1.67068 0
M  V30 3729 C 357.278 3.59138 -0.324373 0
M  V30 3730 O 356.382 4.06668 0.685204 0
M  V30 3731 H 355.723 0.649815 -0.136518 0
M  V30 3732 H 358.253 1.77852 -1.01142 0
M  V30 3733 H 358.263 4.07639 -0.171618 0
M  V30 3734 H 356.938 3.94515 -1.31647 0
M  V30 3735 H 355.515 3.69561 0.497913 0
M  V30 3736 N 357.7 0.491464 1.49741 0
M  V30 3737 C 358.928 -0.0535151 2.06831 0
M  V30 3738 C 359.343 -1.31683 1.35296 0
M  V30 3739 O 358.7 -1.77402 0.42836 0
M  V30 3740 C 358.751 -0.320835 3.60073 0
M  V30 3741 O 358.472 0.892394 4.28915 0
M  V30 3742 C 359.973 -0.910519 4.33848 0
M  V30 3743 H 357.193 0.0161909 0.670805 0
M  V30 3744 H 359.737 0.68609 1.92647 0
M  V30 3745 H 357.892 -1.0104 3.73991 0
M  V30 3746 H 358.306 0.649401 5.20464 0
M  V30 3747 H 359.78 -1.04721 5.41976 0
M  V30 3748 H 360.257 -1.90589 3.95692 0
M  V30 3749 H 360.863 -0.258712 4.24512 0
M  V30 3750 N 359.178 -1.55987 0.224894 0
M  V30 3751 C 360.427 -1.97566 -0.406273 0
M  V30 3752 C 360.74 -1.11569 -1.6066 0
M  V30 3753 O 361.946 -1.43062 -2.3075 0
M  V30 3754 C 360.402 -3.51474 -0.774207 0
M  V30 3755 C 360.01 -4.46179 0.403496 0
M  V30 3756 C 361.754 -4.01758 -1.37079 0
M  V30 3757 C 359.661 -5.91399 0.0129412 0
M  V30 3758 H 358.591 -0.737777 -0.155565 0
M  V30 3759 H 361.242 -1.80659 0.321635 0
M  V30 3760 H 359.624 -3.63994 -1.55963 0
M  V30 3761 H 360.798 -4.45409 1.18101 0
M  V30 3762 H 359.113 -4.06255 0.913536 0
M  V30 3763 H 361.71 -5.07756 -1.67596 0
M  V30 3764 H 362.053 -3.47805 -2.28773 0
M  V30 3765 H 362.586 -3.92475 -0.648733 0
M  V30 3766 H 359.325 -6.49341 0.896451 0
M  V30 3767 H 358.845 -5.95356 -0.728821 0
M  V30 3768 H 360.524 -6.45683 -0.412582 0
M  V30 3769 N 360.656 0.0484629 -1.57525 0
M  V30 3770 C 361.904 0.741657 -1.88 0
M  V30 3771 C 362.225 1.76918 -0.820054 0
M  V30 3772 O 361.495 1.95335 0.148661 0
M  V30 3773 H 360.075 0.276908 -0.69378 0
M  V30 3774 H 362.737 0.019013 -1.94891 0
M  V30 3775 H 361.833 1.24336 -2.86264 0
M  V30 3776 N 362.134 1.5431 0.320358 0
M  V30 3777 C 363.084 1.803 1.39556 0
M  V30 3778 C 364.068 0.659166 1.46778 0
M  V30 3779 O 365.26 0.91926 1.51257 0
M  V30 3780 C 362.389 2.03665 2.76361 0
M  V30 3781 C 361.475 3.24178 2.73439 0
M  V30 3782 N 361.866 4.4516 2.40137 0
M  V30 3783 C 360.164 3.25816 3.04565 0
M  V30 3784 C 360.865 5.27109 2.4603 0
M  V30 3785 N 359.841 4.64368 2.82601 0
M  V30 3786 H 363.643 2.71416 1.12742 0
M  V30 3787 H 361.157 1.53548 0.528856 0
M  V30 3788 H 363.154 2.20425 3.53862 0
M  V30 3789 H 361.814 1.13805 3.04103 0
M  V30 3790 H 362.825 4.72104 2.12927 0
M  V30 3791 H 359.502 2.46001 3.37328 0
M  V30 3792 H 360.892 6.33728 2.23246 0
M  V30 3793 N 363.613 -0.582584 1.46437 0
M  V30 3794 C 364.843 -1.36484 1.55099 0
M  V30 3795 C 365.251 -1.88233 0.191056 0
M  V30 3796 O 364.594 -1.6429 -0.821858 0
M  V30 3797 C 364.656 -2.588 2.49525 0
M  V30 3798 C 364.32 -2.28517 3.95764 0
M  V30 3799 C 365.317 -1.87346 4.84972 0
M  V30 3800 C 363.002 -2.40658 4.40896 0
M  V30 3801 C 364.996 -1.5871 6.17325 0
M  V30 3802 C 362.683 -2.11635 5.73284 0
M  V30 3803 C 363.681 -1.70725 6.61318 0
M  V30 3804 O 363.369 -1.42057 7.91249 0
M  V30 3805 H 363.101 -0.423297 0.527063 0
M  V30 3806 H 365.655 -0.715188 1.92547 0
M  V30 3807 H 363.885 -3.26571 2.07095 0
M  V30 3808 H 365.574 -3.20868 2.48593 0
M  V30 3809 H 366.34 -1.77481 4.5136 0
M  V30 3810 H 362.219 -2.71463 3.72598 0
M  V30 3811 H 365.763 -1.26704 6.85997 0
M  V30 3812 H 361.66 -2.21124 6.06444 0
M  V30 3813 H 362.428 -1.55901 8.03515 0
M  V30 3814 N 365.091 -1.34144 -0.827227 0
M  V30 3815 C 366.368 -1.16844 -1.56865 0
M  V30 3816 C 366.748 0.260654 -2.09485 0
M  V30 3817 O 366.096 1.26138 -1.9053 0
M  V30 3818 C 366.306 -2.21939 -2.6934 0
M  V30 3819 C 367.654 -2.56695 -3.3822 0
M  V30 3820 O 368.678 -2.20695 -2.79593 0
M  V30 3821 O 367.537 -3.18518 -4.44082 0
M  V30 3822 H 364.631 -0.452669 -0.692112 0
M  V30 3823 H 367.177 -1.45763 -0.868973 0
M  V30 3824 H 365.949 -3.17882 -2.28182 0
M  V30 3825 H 365.572 -1.94172 -3.46962 0
M  V30 3826 N 366.569 1.04691 -1.17803 0
M  V30 3827 C 367.818 1.77176 -0.963931 0
M  V30 3828 C 368.131 1.88888 0.508015 0
M  V30 3829 O 369.337 2.58164 0.840465 0
M  V30 3830 C 367.793 3.18518 -1.67555 0
M  V30 3831 C 367.401 3.14919 -3.18637 0
M  V30 3832 C 369.145 3.95424 -1.54402 0
M  V30 3833 C 367.052 4.51081 -3.82466 0
M  V30 3834 H 365.982 0.664116 -0.357023 0
M  V30 3835 H 368.633 1.17303 -1.4111 0
M  V30 3836 H 367.015 3.78748 -1.15613 0
M  V30 3837 H 368.189 2.64178 -3.77554 0
M  V30 3838 H 366.504 2.51512 -3.31859 0
M  V30 3839 H 369.101 4.96106 -1.99456 0
M  V30 3840 H 369.444 4.13343 -0.495329 0
M  V30 3841 H 369.977 3.41754 -2.0359 0
M  V30 3842 H 366.716 4.38368 -4.87354 0
M  V30 3843 H 366.236 5.01951 -3.28337 0
M  V30 3844 H 367.915 5.2001 -3.84965 0
M  V30 3845 N 368.047 0.979072 1.23499 0
M  V30 3846 C 368.995 0.510604 2.26926 0
M  V30 3847 C 369.989 -0.431691 1.63807 0
M  V30 3848 O 371.195 -0.30573 1.77385 0
M  V30 3849 H 367.57 0.146688 0.737554 0
M  V30 3850 H 369.541 1.39466 2.63803 0
M  V30 3851 C 368.29 -0.172658 3.47271 0
M  V30 3852 H 367.613 0.543331 3.96091 0
M  V30 3853 H 369.053 -0.464101 4.21452 0
M  V30 3854 C 367.512 -1.40345 3.06276 0
M  V30 3855 O 368.042 -2.49978 3.14442 0
M  V30 3856 N 366.248 -1.27362 2.61203 0
M  V30 3857 H 365.795 -0.381584 2.54758 0
M  V30 3858 H 365.753 -2.09822 2.34141 0
M  V30 3859 N 369.525 -1.3858 0.750561 0
M  V30 3860 C 370.488 -2.28836 0.129152 0
M  V30 3861 C 371.488 -1.47045 -0.650714 0
M  V30 3862 O 372.678 -1.6753 -0.477428 0
M  V30 3863 C 369.81 -3.30751 -0.825622 0
M  V30 3864 H 371.003 -2.85294 0.924516 0
M  V30 3865 H 368.556 -1.47489 0.517376 0
M  V30 3866 H 369.291 -2.79378 -1.64677 0
M  V30 3867 H 369.076 -3.91177 -0.268852 0
M  V30 3868 H 370.566 -3.98249 -1.2565 0
M  V30 3869 N 371.003 -0.499398 -1.49478 0
M  V30 3870 C 371.953 0.299103 -2.2603 0
M  V30 3871 C 372.937 0.936934 -1.30807 0
M  V30 3872 O 374.129 0.844798 -1.55538 0
M  V30 3873 C 371.258 1.36391 -3.15044 0
M  V30 3874 C 370.344 0.732398 -4.17728 0
M  V30 3875 N 370.735 -0.164028 -5.05534 0
M  V30 3876 C 369.033 0.993162 -4.34801 0
M  V30 3877 C 369.734 -0.525345 -5.79323 0
M  V30 3878 N 368.71 0.106348 -5.43496 0
M  V30 3879 H 372.512 -0.391003 -2.91287 0
M  V30 3880 H 370.026 -0.31537 -1.59308 0
M  V30 3881 H 372.023 1.94939 -3.68516 0
M  V30 3882 H 370.683 2.05571 -2.51338 0
M  V30 3883 H 371.694 -0.534736 -5.15132 0
M  V30 3884 H 368.371 1.67783 -3.82302 0
M  V30 3885 H 369.761 -1.25862 -6.60006 0
M  V30 3886 N 372.481 1.55866 -0.233164 0
M  V30 3887 C 373.444 2.1953 0.658715 0
M  V30 3888 C 374.444 1.16053 1.11303 0
M  V30 3889 O 375.634 1.41218 1.01996 0
M  V30 3890 C 372.766 2.82791 1.90373 0
M  V30 3891 H 373.959 2.99721 0.10347 0
M  V30 3892 H 371.512 1.56291 0.0164245 0
M  V30 3893 H 372.247 2.06501 2.50056 0
M  V30 3894 H 372.032 3.58578 1.58632 0
M  V30 3895 H 373.522 3.31556 2.53891 0
M  V30 3896 N 373.959 -0.0401083 1.57549 0
M  V30 3897 C 375.199 -0.738098 1.90608 0
M  V30 3898 C 375.563 -1.73107 0.830539 0
M  V30 3899 O 376.764 -2.4765 1.04513 0
M  V30 3900 C 375.035 -1.39985 3.28845 0
M  V30 3901 S 376.594 -2.12852 3.83718 0
M  V30 3902 H 373.412 -0.24477 0.667539 0
M  V30 3903 H 376.014 0.00693599 1.95499 0
M  V30 3904 H 374.718 -0.663775 4.04997 0
M  V30 3905 H 374.249 -2.18366 3.2723 0
M  V30 3906 H 376.264 -3.39842 3.61555 0
M  V30 3907 N 375.437 -1.54477 -0.31217 0
M  V30 3908 C 376.683 -1.73483 -1.0503 0
M  V30 3909 C 377.016 -0.513125 -1.87298 0
M  V30 3910 O 376.291 0.489864 -1.8823 0
M  V30 3911 C 376.574 -3.01723 -1.96558 0
M  V30 3912 C 376.427 -4.3417 -1.17545 0
M  V30 3913 C 377.746 -3.25772 -2.95907 0
M  V30 3914 H 374.865 -0.631222 -0.380432 0
M  V30 3915 H 377.507 -1.87184 -0.325932 0
M  V30 3916 H 375.657 -2.90174 -2.58324 0
M  V30 3917 H 377.329 -4.5762 -0.581513 0
M  V30 3918 H 375.572 -4.31159 -0.477925 0
M  V30 3919 H 376.243 -5.20143 -1.84811 0
M  V30 3920 H 378.719 -3.36857 -2.44267 0
M  V30 3921 H 377.595 -4.16838 -3.57123 0
M  V30 3922 H 377.856 -2.43537 -3.68974 0
M  V30 3923 N 376.915 0.57481 -1.46744 0
M  V30 3924 C 378.143 1.35856 -1.56047 0
M  V30 3925 C 378.558 1.87691 -0.204365 0
M  V30 3926 O 377.915 1.64049 0.79963 0
M  V30 3927 C 377.966 2.54066 -2.57163 0
M  V30 3928 O 377.687 2.04377 -3.87507 0
M  V30 3929 C 379.188 3.46514 -2.76483 0
M  V30 3930 H 376.408 0.414754 -0.527466 0
M  V30 3931 H 378.952 0.698035 -1.92218 0
M  V30 3932 H 377.107 3.16092 -2.23974 0
M  V30 3933 H 377.521 2.81419 -4.4261 0
M  V30 3934 H 378.995 4.25919 -3.51137 0
M  V30 3935 H 379.472 3.98951 -1.83671 0
M  V30 3936 H 380.078 2.90318 -3.10799 0
M  V30 3937 N 378.394 1.34581 0.820102 0
M  V30 3938 C 379.642 1.26845 1.57336 0
M  V30 3939 C 379.963 -0.160667 1.94337 0
M  V30 3940 O 379.233 -1.09396 1.6251 0
M  V30 3941 H 377.813 0.466514 0.583415 0
M  V30 3942 H 380.475 1.68526 0.979027 0
M  V30 3943 H 379.571 1.87513 2.4949 0
M  V30 3944 N 379.872 -1.04064 1.18357 0
M  V30 3945 C 380.819 -2.12077 0.910603 0
M  V30 3946 C 381.789 -1.65421 -0.15 0
M  V30 3947 O 382.974 -1.90797 -0.0103614 0
M  V30 3948 C 380.114 -3.42252 0.442472 0
M  V30 3949 C 379.227 -4.0252 1.5685 0
M  V30 3950 C 378.362 -5.20657 1.05309 0
M  V30 3951 C 377.401 -5.72955 2.1538 0
M  V30 3952 N 376.538 -6.8238 1.65233 0
M  V30 3953 H 381.378 -2.34764 1.83548 0
M  V30 3954 H 378.915 -1.15157 0.915279 0
M  V30 3955 H 380.873 -4.16921 0.152534 0
M  V30 3956 H 379.503 -3.19712 -0.445428 0
M  V30 3957 H 378.555 -3.25178 1.97391 0
M  V30 3958 H 379.867 -4.37362 2.39824 0
M  V30 3959 H 379.021 -6.0244 0.717677 0
M  V30 3960 H 377.76 -4.87318 0.19293 0
M  V30 3961 H 376.765 -4.89793 2.49766 0
M  V30 3962 H 377.99 -6.08337 3.01832 0
M  V30 3963 H 375.936 -6.50917 0.815064 0
M  V30 3964 H 375.853 -7.16286 2.41805 0
M  V30 3965 H 377.121 -7.67788 1.34619 0
M  V30 3966 N 381.35 -0.985608 -1.22978 0
M  V30 3967 C 382.761 -0.693593 -1.73338 0
M  V30 3968 C 383.112 0.789935 -1.79595 0
M  V30 3969 O 382.237 1.61771 -1.43733 0
M  V30 3970 C 382.832 -1.25235 -3.14804 0
M  V30 3971 C 381.391 -1.00987 -3.626 0
M  V30 3972 C 380.538 -1.37695 -2.40698 0
M  V30 3973 H 383.489 -1.15884 -1.08428 0
M  V30 3974 H 383.51 -0.627329 -3.75293 0
M  V30 3975 H 383.022 -2.33209 -3.10218 0
M  V30 3976 H 381.123 0.0535565 -3.72562 0
M  V30 3977 H 381.236 -1.66812 -4.49122 0
M  V30 3978 H 379.6 -0.795459 -2.4196 0
M  V30 3979 H 380.383 -2.46657 -2.38779 0
M  V30 3980 N 382.828 1.3818 -0.7579 0
M  V30 3981 C 384.077 1.99261 -0.312744 0
M  V30 3982 C 384.39 1.60846 1.11301 0
M  V30 3983 O 385.596 2.14929 1.65885 0
M  V30 3984 C 384.052 3.56294 -0.50821 0
M  V30 3985 C 383.66 4.03657 -1.94333 0
M  V30 3986 C 385.404 4.24313 -0.125982 0
M  V30 3987 C 383.311 5.53347 -2.08712 0
M  V30 3988 H 382.241 0.745456 -0.113185 0
M  V30 3989 H 384.892 1.57889 -0.935056 0
M  V30 3990 H 383.274 3.95575 0.183353 0
M  V30 3991 H 384.448 3.75655 -2.66871 0
M  V30 3992 H 382.763 3.48376 -2.28086 0
M  V30 3993 H 385.36 5.34279 -0.212125 0
M  V30 3994 H 385.703 4.05962 0.921964 0
M  V30 3995 H 386.236 3.90285 -0.769563 0
M  V30 3996 H 382.975 5.76607 -3.11777 0
M  V30 3997 H 382.495 5.83078 -1.4064 0
M  V30 3998 H 384.174 6.19111 -1.87912 0
M  V30 3999 N 384.306 0.507319 1.49211 0
M  V30 4000 C 385.531 -0.033725 2.07373 0
M  V30 4001 C 385.956 -1.29485 1.36437 0
M  V30 4002 O 385.314 -1.76294 0.423087 0
M  V30 4003 C 385.362 -0.263945 3.59633 0
M  V30 4004 O 384.466 -1.33737 3.90113 0
M  V30 4005 H 383.807 0.0290331 0.663365 0
M  V30 4006 H 386.337 0.708749 1.91932 0
M  V30 4007 H 386.347 -0.493536 4.05004 0
M  V30 4008 H 385.022 0.657424 4.10671 0
M  V30 4009 H 383.599 -1.09224 3.56545 0
M  V30 4010 N 385.784 -1.5574 0.241426 0
M  V30 4011 C 386.716 -2.18469 -0.693091 0
M  V30 4012 C 387.729 -1.15942 -1.14286 0
M  V30 4013 O 388.918 -1.42832 -1.07058 0
M  V30 4014 C 386.018 -2.7696 -1.95311 0
M  V30 4015 C 385.191 -4.04853 -1.65568 0
M  V30 4016 C 384.25 -4.47715 -2.76474 0
M  V30 4017 O 383.276 -5.14205 -2.44094 0
M  V30 4018 N 384.478 -4.15044 -4.05855 0
M  V30 4019 H 387.243 -2.99292 -0.156388 0
M  V30 4020 H 384.804 -1.61784 0.0611752 0
M  V30 4021 H 386.796 -3.02594 -2.68736 0
M  V30 4022 H 385.366 -2.00326 -2.39975 0
M  V30 4023 H 384.586 -3.86865 -0.756886 0
M  V30 4024 H 385.874 -4.88246 -1.43153 0
M  V30 4025 H 385.272 -3.61654 -4.34998 0
M  V30 4026 H 383.829 -4.45526 -4.75762 0
M  V30 4027 N 387.262 0.0317525 -1.57568 0
M  V30 4028 C 388.51 0.721676 -1.88776 0
M  V30 4029 C 388.831 1.76039 -0.838772 0
M  V30 4030 O 388.101 1.95482 0.127935 0
M  V30 4031 H 386.681 0.269534 -0.696678 0
M  V30 4032 H 389.343 -0.00165879 -1.949 0
M  V30 4033 H 388.439 1.21293 -2.87566 0
M  V30 4034 N 388.74 1.54641 0.303973 0
M  V30 4035 C 389.988 1.73437 1.0375 0
M  V30 4036 C 390.309 0.521449 1.87899 0
M  V30 4037 O 389.579 -0.46432 1.90318 0
M  V30 4038 H 388.159 0.639518 0.386039 0
M  V30 4039 H 390.821 1.91988 0.335675 0
M  V30 4040 H 389.917 2.62235 1.69231 0
M  V30 4041 N 390.218 -0.567019 1.47046 0
M  V30 4042 C 391.467 -1.32091 1.5243 0
M  V30 4043 C 391.78 -1.94704 0.187021 0
M  V30 4044 O 392.986 -2.7124 0.118771 0
M  V30 4045 C 391.442 -2.39479 2.68659 0
M  V30 4046 C 391.05 -1.831 4.08874 0
M  V30 4047 C 392.794 -3.16111 2.83327 0
M  V30 4048 C 390.701 -2.8821 5.16419 0
M  V30 4049 H 389.631 -0.496629 0.56734 0
M  V30 4050 H 392.282 -0.603354 1.73297 0
M  V30 4051 H 390.664 -3.14105 2.41152 0
M  V30 4052 H 391.838 -1.14913 4.46242 0
M  V30 4053 H 390.153 -1.19085 3.99008 0
M  V30 4054 H 392.75 -3.94585 3.60842 0
M  V30 4055 H 393.093 -3.69686 1.91411 0
M  V30 4056 H 393.626 -2.48595 3.10556 0
M  V30 4057 H 390.365 -2.39504 6.10179 0
M  V30 4058 H 389.885 -3.54839 4.8358 0
M  V30 4059 H 391.564 -3.51881 5.42945 0
M  V30 4060 N 391.696 -1.35014 -0.812953 0
M  V30 4061 C 392.646 -1.23959 -1.91359 0
M  V30 4062 C 393.63 -0.136306 -1.60322 0
M  V30 4063 O 394.822 -0.366925 -1.73155 0
M  V30 4064 C 391.951 -1.00736 -3.28188 0
M  V30 4065 C 391.037 -2.15426 -3.65311 0
M  V30 4066 N 391.428 -3.40612 -3.73921 0
M  V30 4067 C 389.726 -2.06672 -3.95225 0
M  V30 4068 C 390.427 -4.15994 -4.06601 0
M  V30 4069 N 389.403 -3.44685 -4.20349 0
M  V30 4070 H 393.205 -2.18815 -1.96208 0
M  V30 4071 H 390.719 -1.27395 -1.00718 0
M  V30 4072 H 392.716 -0.909052 -4.06868 0
M  V30 4073 H 391.376 -0.067586 -3.2463 0
M  V30 4074 H 392.387 -3.75043 -3.5716 0
M  V30 4075 H 389.064 -1.20511 -3.99729 0
M  V30 4076 H 390.454 -5.24145 -4.20382 0
M  V30 4077 N 393.175 1.03435 -1.18907 0
M  V30 4078 C 394.423 1.76394 -0.986382 0
M  V30 4079 C 394.744 1.88883 0.484567 0
M  V30 4080 O 394.014 1.41843 1.3512 0
M  V30 4081 H 392.594 0.65344 -0.361975 0
M  V30 4082 H 395.256 1.248 -1.49703 0
M  V30 4083 H 394.352 2.77424 -1.42978 0
M  V30 4084 N 394.653 0.992116 1.22453 0
M  V30 4085 C 396.069 0.702713 1.43297 0
M  V30 4086 C 396.269 -0.726909 1.87932 0
M  V30 4087 O 395.325 -1.49792 2.0327 0
M  V30 4088 C 396.638 1.70762 2.47509 0
M  V30 4089 C 398.186 1.72298 2.61309 0
M  V30 4090 C 398.661 2.71649 3.68742 0
M  V30 4091 N 400.152 2.70239 3.76199 0
M  V30 4092 C 400.887 3.43778 4.58917 0
M  V30 4093 N 400.383 4.26914 5.45633 0
M  V30 4094 N 402.176 3.32487 4.5322 0
M  V30 4095 H 394.327 1.91543 0.917871 0
M  V30 4096 H 396.59 0.826031 0.465162 0
M  V30 4097 H 396.296 2.73059 2.21657 0
M  V30 4098 H 396.17 1.49985 3.46099 0
M  V30 4099 H 398.557 0.706989 2.86506 0
M  V30 4100 H 398.638 1.97143 1.62997 0
M  V30 4101 H 398.282 3.73397 3.44292 0
M  V30 4102 H 398.212 2.44074 4.66622 0
M  V30 4103 H 400.703 2.09912 3.14237 0
M  V30 4104 H 401.016 4.79855 6.05771 0
M  V30 4105 H 399.361 4.31002 5.45218 0
M  V30 4106 H 402.552 2.6698 3.84499 0
M  V30 4107 H 402.725 3.90058 5.17454 0
M  V30 4108 N 396.131 -1.37776 0.765217 0
M  V30 4109 C 397.38 -1.99092 0.323307 0
M  V30 4110 C 397.693 -1.61434 -1.10446 0
M  V30 4111 O 398.899 -2.15805 -1.64743 0
M  V30 4112 C 397.355 -3.56019 0.527098 0
M  V30 4113 C 396.963 -4.0262 1.96471 0
M  V30 4114 C 398.707 -4.2424 0.148483 0
M  V30 4115 C 396.614 -5.52233 2.11644 0
M  V30 4116 H 395.544 -0.744846 0.117137 0
M  V30 4117 H 398.195 -1.57391 0.943417 0
M  V30 4118 H 396.577 -3.95667 -0.162372 0
M  V30 4119 H 397.751 -3.74234 2.68859 0
M  V30 4120 H 396.066 -3.47161 2.29931 0
M  V30 4121 H 398.663 -5.34159 0.240456 0
M  V30 4122 H 399.006 -4.06446 -0.900422 0
M  V30 4123 H 399.539 -3.89872 0.79025 0
M  V30 4124 H 396.278 -5.74945 3.1483 0
M  V30 4125 H 395.798 -5.82324 1.4373 0
M  V30 4126 H 397.477 -6.18106 1.91193 0
M  V30 4127 N 397.609 -0.515225 -1.4894 0
M  V30 4128 C 398.834 0.022727 -2.07388 0
M  V30 4129 C 399.259 1.2876 -1.37122 0
M  V30 4130 O 398.617 1.76067 -0.432431 0
M  V30 4131 C 398.665 0.244869 -3.59768 0
M  V30 4132 O 397.769 1.31667 -3.90817 0
M  V30 4133 H 397.11 -0.0325506 -0.663202 0
M  V30 4134 H 399.64 -0.718918 -1.91553 0
M  V30 4135 H 399.65 0.47205 -4.0526 0
M  V30 4136 H 398.325 -0.679194 -4.10317 0
M  V30 4137 H 396.902 1.07331 -3.5712 0
M  V30 4138 N 399.087 1.5561 -0.249682 0
M  V30 4139 C 400.05 2.20217 0.635394 0
M  V30 4140 C 401.05 1.17227 1.10066 0
M  V30 4141 O 402.24 1.42292 1.00492 0
M  V30 4142 C 399.372 2.84794 1.87363 0
M  V30 4143 H 400.565 2.99814 0.0716752 0
M  V30 4144 H 398.118 1.563 -0.000153234 0
M  V30 4145 H 398.853 2.09142 2.47851 0
M  V30 4146 H 398.638 3.60241 1.5482 0
M  V30 4147 H 400.128 3.3423 2.5036 0
M  V30 4148 N 400.565 -0.0233959 1.57583 0
M  V30 4149 C 401.793 -0.724682 1.93794 0
M  V30 4150 C 402.208 -1.68588 0.849912 0
M  V30 4151 O 401.565 -1.81676 -0.173204 0
M  V30 4152 C 401.616 -1.47684 3.29957 0
M  V30 4153 O 401.337 -0.554222 4.3458 0
M  V30 4154 C 402.838 -2.27477 3.80485 0
M  V30 4155 H 400.058 -0.203317 0.639455 0
M  V30 4156 H 402.602 0.0207653 2.04489 0
M  V30 4157 H 400.757 -2.17412 3.20641 0
M  V30 4158 H 401.171 -1.08232 5.13212 0
M  V30 4159 H 402.645 -2.7564 4.78254 0
M  V30 4160 H 403.122 -3.09144 3.11972 0
M  V30 4161 H 403.728 -1.62813 3.92902 0
M  V30 4162 N 402.043 -1.548 -0.295768 0
M  V30 4163 C 403.291 -1.73985 -1.02828 0
M  V30 4164 C 403.612 -0.531406 -1.87619 0
M  V30 4165 O 402.882 0.454221 -1.90561 0
M  V30 4166 H 401.462 -0.641556 -0.382642 0
M  V30 4167 H 404.124 -1.92163 -0.325489 0
M  V30 4168 H 403.22 -2.63129 -1.67838 0
M  V30 4169 N 403.521 0.559213 -1.47345 0
M  V30 4170 C 404.937 0.884943 -1.32819 0
M  V30 4171 C 405.137 1.98988 -0.317173 0
M  V30 4172 O 404.193 2.51031 0.272011 0
M  V30 4173 C 405.506 1.28007 -2.72093 0
M  V30 4174 C 407.054 1.39161 -2.80363 0
M  V30 4175 C 407.529 1.82031 -4.20272 0
M  V30 4176 N 409.02 1.89185 -4.22804 0
M  V30 4177 C 409.755 2.2368 -5.27973 0
M  V30 4178 N 409.251 2.56802 -6.43447 0
M  V30 4179 N 411.044 2.24436 -5.15349 0
M  V30 4180 H 403.195 -0.170304 -2.11716 0
M  V30 4181 H 405.458 -0.0135247 -0.947904 0
M  V30 4182 H 405.164 0.542027 -3.47498 0
M  V30 4183 H 405.038 2.23665 -3.03733 0
M  V30 4184 H 407.425 2.12048 -2.05231 0
M  V30 4185 H 407.506 0.41696 -2.52379 0
M  V30 4186 H 407.15 1.09715 -4.95908 0
M  V30 4187 H 407.08 2.80495 -4.45679 0
M  V30 4188 H 409.571 1.65982 -3.39497 0
M  V30 4189 H 409.884 2.82144 -7.19454 0
M  V30 4190 H 408.229 2.54387 -6.46771 0
M  V30 4191 H 411.42 1.97998 -4.24163 0
M  V30 4192 H 411.593 2.50989 -5.97418 0
M  V30 4193 N 404.999 1.35443 0.805782 0
M  V30 4194 C 406.247 1.28507 1.55982 0
M  V30 4195 C 406.568 -0.140046 1.94496 0
M  V30 4196 O 405.838 -1.07666 1.63661 0
M  V30 4197 H 404.418 0.472676 0.578434 0
M  V30 4198 H 407.08 1.69555 0.961098 0
M  V30 4199 H 406.176 1.90148 2.47488 0
M  V30 4200 N 406.477 -1.02803 1.19454 0
M  V30 4201 C 407.723 -1.76478 0.999171 0
M  V30 4202 C 408.056 -1.88456 -0.468828 0
M  V30 4203 O 407.331 -1.40198 -1.34814 0
M  V30 4204 C 407.614 -3.19044 1.66981 0
M  V30 4205 C 407.467 -3.14932 3.21151 0
M  V30 4206 C 408.786 -4.17456 1.39349 0
M  V30 4207 H 405.905 -0.640614 0.364393 0
M  V30 4208 H 408.547 -1.20005 1.47305 0
M  V30 4209 H 406.697 -3.67263 1.2669 0
M  V30 4210 H 408.369 -2.74605 3.70661 0
M  V30 4211 H 406.612 -2.52625 3.52652 0
M  V30 4212 H 407.283 -4.1566 3.63223 0
M  V30 4213 H 409.759 -3.77842 1.74283 0
M  V30 4214 H 408.635 -5.154 1.88823 0
M  V30 4215 H 408.896 -4.40949 0.318813 0
M  V30 4216 N 407.956 -0.998596 -1.21925 0
M  V30 4217 C 409.203 -0.677663 -1.90824 0
M  V30 4218 C 409.531 0.790905 -1.77693 0
M  V30 4219 O 408.786 1.58817 -1.14349 0
M  V30 4220 C 409.085 -1.03648 -3.42041 0
M  V30 4221 C 408.751 -2.49825 -3.75364 0
M  V30 4222 C 407.413 -2.8977 -3.8417 0
M  V30 4223 C 409.765 -3.44545 -3.91073 0
M  V30 4224 C 407.093 -4.23412 -4.06127 0
M  V30 4225 C 409.445 -4.77853 -4.14535 0
M  V30 4226 C 408.109 -5.17531 -4.21566 0
M  V30 4227 H 407.379 -0.247975 -0.698276 0
M  V30 4228 H 410.026 -1.25584 -1.44571 0
M  V30 4229 H 408.331 -0.376457 -3.89987 0
M  V30 4230 H 410.028 -0.766113 -3.93614 0
M  V30 4231 H 406.618 -2.17866 -3.69097 0
M  V30 4232 H 410.802 -3.14853 -3.83642 0
M  V30 4233 H 406.058 -4.53734 -4.09799 0
M  V30 4234 H 410.232 -5.51189 -4.25633 0
M  V30 4235 H 407.859 -6.21102 -4.38333 0
M  V30 4236 N 409.434 1.37368 -0.772513 0
M  V30 4237 C 410.384 2.27613 -0.132823 0
M  V30 4238 C 411.368 1.46138 0.673247 0
M  V30 4239 O 412.56 1.68686 0.536095 0
M  V30 4240 C 409.689 3.35122 0.744864 0
M  V30 4241 C 408.775 4.24044 -0.0690771 0
M  V30 4242 N 409.166 4.93355 -1.1151 0
M  V30 4243 C 407.464 4.45731 0.154782 0
M  V30 4244 C 408.165 5.59 -1.60917 0
M  V30 4245 N 407.141 5.35737 -0.921222 0
M  V30 4246 H 410.943 2.78675 -0.933681 0
M  V30 4247 H 408.457 1.50494 -0.610342 0
M  V30 4248 H 410.454 3.98683 1.21892 0
M  V30 4249 H 409.114 2.85616 1.54446 0
M  V30 4250 H 410.125 4.95785 -1.49726 0
M  V30 4251 H 406.802 4.07096 0.926224 0
M  V30 4252 H 408.192 6.24395 -2.48153 0
M  V30 4253 N 410.912 0.523116 1.48665 0
M  V30 4254 C 412.16 -0.0134497 2.02096 0
M  V30 4255 C 412.481 -1.35418 1.40311 0
M  V30 4256 O 411.751 -1.87543 0.566074 0
M  V30 4257 H 410.331 -0.00795915 0.746958 0
M  V30 4258 H 412.993 0.685388 1.82451 0
M  V30 4259 H 412.089 -0.126849 3.11842 0
M  V30 4260 N 412.39 -1.55475 0.257931 0
M  V30 4261 C 413.639 -1.98383 -0.364275 0
M  V30 4262 C 413.952 -1.14952 -1.58258 0
M  V30 4263 O 415.158 -1.47924 -2.27664 0
M  V30 4264 C 413.614 -3.53037 -0.699479 0
M  V30 4265 C 413.222 -4.45223 0.498046 0
M  V30 4266 C 414.966 -4.04575 -1.28526 0
M  V30 4267 C 412.873 -5.91238 0.138383 0
M  V30 4268 H 411.803 -0.740911 -0.13988 0
M  V30 4269 H 414.454 -1.79936 0.359883 0
M  V30 4270 H 412.836 -3.6722 -1.48207 0
M  V30 4271 H 414.01 -4.42803 1.27522 0
M  V30 4272 H 412.325 -4.04226 0.999503 0
M  V30 4273 H 414.922 -5.11196 -1.56788 0
M  V30 4274 H 415.265 -3.5258 -2.21344 0
M  V30 4275 H 415.798 -3.93762 -0.565337 0
M  V30 4276 H 412.537 -6.47294 1.03398 0
M  V30 4277 H 412.057 -5.96768 -0.602374 0
M  V30 4278 H 413.736 -6.46413 -0.27553 0
M  V30 4279 N 413.868 0.0150385 -1.57593 0
M  V30 4280 C 414.778 1.02791 -2.10882 0
M  V30 4281 C 415.794 1.38702 -1.0506 0
M  V30 4282 O 416.97 1.47739 -1.36877 0
M  V30 4283 C 414.035 2.30568 -2.58919 0
M  V30 4284 C 413.096 2.01108 -3.79281 0
M  V30 4285 C 412.329 3.22794 -4.25018 0
M  V30 4286 O 412.552 4.33959 -3.70183 0
M  V30 4287 O 411.486 3.07672 -5.17322 0
M  V30 4288 H 415.312 0.604973 -2.97613 0
M  V30 4289 H 412.897 0.23292 -1.47573 0
M  V30 4290 H 414.779 3.05662 -2.90084 0
M  V30 4291 H 413.454 2.72129 -1.75293 0
M  V30 4292 H 412.361 1.23537 -3.53114 0
M  V30 4293 H 413.694 1.64394 -4.63935 0
M  V30 4294 N 415.346 1.54954 0.287554 0
M  V30 4295 C 416.294 1.87606 1.37502 0
M  V30 4296 C 417.288 0.751001 1.51843 0
M  V30 4297 O 418.494 0.935169 1.53801 0
M  V30 4298 H 414.869 0.595231 0.459569 0
M  V30 4299 H 416.84 2.78477 1.07206 0
M  V30 4300 C 415.589 2.15183 2.73115 0
M  V30 4301 H 414.912 3.01234 2.62866 0
M  V30 4302 H 416.352 2.4196 3.48183 0
M  V30 4303 C 414.811 0.954686 3.2309 0
M  V30 4304 O 415.341 0.181949 4.01288 0
M  V30 4305 N 413.547 0.756368 2.80584 0
M  V30 4306 H 413.094 1.38643 2.17108 0
M  V30 4307 H 413.052 -0.0430391 3.14371 0
M  V30 4308 N 416.824 -0.551391 1.4764 0
M  V30 4309 C 418.071 -1.3083 1.54563 0
M  V30 4310 C 418.399 -1.93359 0.210361 0
M  V30 4311 O 417.654 -1.78721 -0.797332 0
M  V30 4312 C 417.953 -2.43469 2.61644 0
M  V30 4313 C 417.619 -1.98732 4.04742 0
M  V30 4314 C 416.281 -1.86248 4.43695 0
M  V30 4315 C 418.633 -1.64659 4.94507 0
M  V30 4316 C 415.961 -1.37995 5.70241 0
M  V30 4317 C 418.313 -1.17875 6.21521 0
M  V30 4318 C 416.977 -1.03992 6.5935 0
M  V30 4319 H 416.247 -0.478741 0.565587 0
M  V30 4320 H 418.894 -0.617697 1.81264 0
M  V30 4321 H 417.199 -3.18109 2.28722 0
M  V30 4322 H 418.896 -3.01642 2.64222 0
M  V30 4323 H 415.486 -2.09393 3.73968 0
M  V30 4324 H 419.67 -1.73174 4.65107 0
M  V30 4325 H 414.926 -1.25915 5.98294 0
M  V30 4326 H 419.1 -0.905739 6.90485 0
M  V30 4327 H 416.727 -0.663794 7.57296 0
M  V30 4328 N 418.302 -1.35869 -0.798587 0
M  V30 4329 C 419.551 -1.28921 -1.5512 0
M  V30 4330 C 419.864 0.13208 -1.95154 0
M  V30 4331 O 421.07 0.323879 -2.69561 0
M  V30 4332 C 419.526 -2.26141 -2.79979 0
M  V30 4333 C 419.134 -3.73658 -2.47151 0
M  V30 4334 C 420.878 -2.28152 -3.57976 0
M  V30 4335 C 418.785 -4.62679 -3.6835 0
M  V30 4336 H 417.715 -0.479031 -0.582276 0
M  V30 4337 H 420.366 -1.61179 -0.877125 0
M  V30 4338 H 418.748 -1.86865 -3.49138 0
M  V30 4339 H 419.922 -4.21616 -1.85947 0
M  V30 4340 H 418.237 -3.74333 -1.82383 0
M  V30 4341 H 420.834 -2.91875 -4.4801 0
M  V30 4342 H 421.177 -1.28748 -3.95891 0
M  V30 4343 H 421.71 -2.65998 -2.95787 0
M  V30 4344 H 418.449 -5.63111 -3.35538 0
M  V30 4345 H 417.969 -4.19442 -4.28752 0
M  V30 4346 H 419.648 -4.78498 -4.35487 0
M  V30 4347 N 419.78 1.02168 -1.19998 0
M  V30 4348 C 420.728 2.12717 -0.940967 0
M  V30 4349 C 421.722 1.69069 0.105841 0
M  V30 4350 O 422.928 1.79946 -0.0440583 0
M  V30 4351 H 419.303 0.695108 -0.28693 0
M  V30 4352 H 421.274 2.3175 -1.87975 0
M  V30 4353 C 420.023 3.44027 -0.504049 0
M  V30 4354 H 419.346 3.78036 -1.30112 0
M  V30 4355 H 420.786 4.22452 -0.361991 0
M  V30 4356 C 419.245 3.27678 0.782878 0
M  V30 4357 O 419.775 3.56949 1.84256 0
M  V30 4358 N 417.981 2.80943 0.742921 0
M  V30 4359 H 417.528 2.57322 -0.119687 0
M  V30 4360 H 417.486 2.70385 1.60435 0
M  V30 4361 N 421.258 1.00505 1.21394 0
M  V30 4362 C 422.168 0.574806 2.27449 0
M  V30 4363 C 423.184 -0.382206 1.6975 0
M  V30 4364 O 424.36 -0.246027 1.99892 0
M  V30 4365 C 421.425 -0.0917414 3.46579 0
M  V30 4366 C 420.486 0.909758 4.1955 0
M  V30 4367 C 419.719 0.274924 5.32991 0
M  V30 4368 O 419.942 -0.928254 5.62796 0
M  V30 4369 O 418.876 0.985877 5.93771 0
M  V30 4370 H 422.702 1.45744 2.66444 0
M  V30 4371 H 420.287 0.773923 1.27792 0
M  V30 4372 H 422.169 -0.464551 4.18832 0
M  V30 4373 H 420.844 -0.948755 3.09484 0
M  V30 4374 H 419.751 1.33372 3.49518 0
M  V30 4375 H 421.084 1.73636 4.60555 0
M  V30 4376 N 422.737 -1.36956 0.779787 0
M  V30 4377 C 423.7 -2.2851 0.177662 0
M  V30 4378 C 424.7 -1.48393 -0.619377 0
M  V30 4379 O 425.89 -1.68505 -0.441785 0
M  V30 4380 C 423.022 -3.32428 -0.755279 0
M  V30 4381 H 424.215 -2.83269 0.984823 0
M  V30 4382 H 421.768 -1.46358 0.548544 0
M  V30 4383 H 422.503 -2.82808 -1.58714 0
M  V30 4384 H 422.288 -3.91659 -0.185817 0
M  V30 4385 H 423.778 -4.00824 -1.17174 0
M  V30 4386 N 424.215 -0.530993 -1.48385 0
M  V30 4387 C 425.44 0.000729535 -2.074 0
M  V30 4388 C 425.865 1.27298 -1.3848 0
M  V30 4389 O 425.223 1.75599 -0.451081 0
M  V30 4390 C 425.271 0.206697 -3.60007 0
M  V30 4391 O 424.375 1.27514 -3.92191 0
M  V30 4392 H 423.716 -0.039583 -0.662819 0
M  V30 4393 H 426.246 -0.739194 -1.9078 0
M  V30 4394 H 426.256 0.42904 -4.05738 0
M  V30 4395 H 424.931 -0.722675 -4.09573 0
M  V30 4396 H 423.508 1.03537 -3.58238 0
M  V30 4397 N 425.693 1.55336 -0.266172 0
M  V30 4398 C 426.923 2.03506 0.356239 0
M  V30 4399 C 427.331 1.14426 1.50676 0
M  V30 4400 O 426.674 0.155043 1.83045 0
M  V30 4401 C 426.736 3.47848 0.90785 0
M  V30 4402 C 426.4 4.56861 -0.112888 0
M  V30 4403 C 427.397 5.11528 -0.929264 0
M  V30 4404 C 425.082 5.01704 -0.244546 0
M  V30 4405 C 427.076 6.09549 -1.86357 0
M  V30 4406 C 424.763 5.99553 -1.18234 0
M  V30 4407 C 425.761 6.53356 -1.99036 0
M  V30 4408 O 425.449 7.49293 -2.91231 0
M  V30 4409 H 425.181 0.670444 0.08649 0
M  V30 4410 H 427.735 2.01598 -0.39337 0
M  V30 4411 H 425.965 3.46967 1.70737 0
M  V30 4412 H 427.654 3.79407 1.44239 0
M  V30 4413 H 428.42 4.77701 -0.838237 0
M  V30 4414 H 424.299 4.59477 0.374359 0
M  V30 4415 H 427.843 6.51469 -2.49467 0
M  V30 4416 H 423.74 6.32799 -1.27421 0
M  V30 4417 H 424.508 7.66978 -2.8581 0
M  V30 4418 N 427.171 -0.0066808 1.57599 0
M  V30 4419 C 428.104 -1.03397 2.03431 0
M  V30 4420 C 429.082 -1.33872 0.922877 0
M  V30 4421 O 430.266 -1.4615 1.19048 0
M  V30 4422 C 427.393 -2.36325 2.42628 0
M  V30 4423 C 426.439 -2.21557 3.64438 0
M  V30 4424 S 427.272 -1.54789 5.12641 0
M  V30 4425 C 428.428 -2.8916 5.55101 0
M  V30 4426 H 428.661 -0.643687 2.90248 0
M  V30 4427 H 426.194 -0.217349 1.52863 0
M  V30 4428 H 428.152 -3.12759 2.65879 0
M  V30 4429 H 426.813 -2.72495 1.56222 0
M  V30 4430 H 426.006 -3.1974 3.89592 0
M  V30 4431 H 425.608 -1.53267 3.41153 0
M  V30 4432 H 427.9 -3.8547 5.57153 0
M  V30 4433 H 428.843 -2.68713 6.55133 0
M  V30 4434 H 429.251 -2.92762 4.82649 0
M  V30 4435 N 428.649 -1.55105 -0.279332 0
M  V30 4436 C 429.874 -1.7976 -1.03446 0
M  V30 4437 C 430.299 -0.565952 -1.79384 0
M  V30 4438 O 429.657 0.484259 -1.74713 0
M  V30 4439 C 429.705 -3.0179 -1.97371 0
M  V30 4440 O 428.809 -2.76432 -3.06038 0
M  V30 4441 H 428.15 -0.594334 -0.29608 0
M  V30 4442 H 430.68 -2.02235 -0.310165 0
M  V30 4443 H 430.69 -3.30351 -2.39441 0
M  V30 4444 H 429.365 -3.91085 -1.4151 0
M  V30 4445 H 427.942 -2.58949 -2.68328 0
M  V30 4446 N 430.127 0.543554 -1.4793 0
M  V30 4447 C 431.376 1.29649 -1.54512 0
M  V30 4448 C 431.689 1.94382 -0.217973 0
M  V30 4449 O 432.895 2.71017 -0.161908 0
M  V30 4450 C 431.351 2.35175 -2.72435 0
M  V30 4451 C 430.959 1.76572 -4.11736 0
M  V30 4452 C 432.703 3.11564 -2.8832 0
M  V30 4453 C 430.61 2.79958 -5.20939 0
M  V30 4454 H 429.54 0.487541 -0.57517 0
M  V30 4455 H 432.191 0.575708 -1.74235 0
M  V30 4456 H 430.573 3.10229 -2.46118 0
M  V30 4457 H 431.747 1.07799 -4.48013 0
M  V30 4458 H 430.062 1.12722 -4.00852 0
M  V30 4459 H 432.659 3.88794 -3.67074 0
M  V30 4460 H 433.002 3.66594 -1.97268 0
M  V30 4461 H 433.535 2.43623 -3.14472 0
M  V30 4462 H 430.274 2.29766 -6.13912 0
M  V30 4463 H 429.794 3.47101 -4.89164 0
M  V30 4464 H 431.473 3.43198 -5.48474 0
M  V30 4465 N 431.605 1.3629 0.791371 0
M  V30 4466 C 432.535 1.33137 1.91825 0
M  V30 4467 C 433.516 0.203168 1.68882 0
M  V30 4468 O 434.701 0.400509 1.90025 0
M  V30 4469 C 431.831 1.11793 3.28816 0
M  V30 4470 C 430.785 2.21417 3.66277 0
M  V30 4471 C 430.111 1.85218 5.01596 0
M  V30 4472 C 431.411 3.63489 3.75064 0
M  V30 4473 H 433.105 2.2743 1.9472 0
M  V30 4474 H 430.651 1.09479 0.935437 0
M  V30 4475 H 432.604 1.08222 4.07266 0
M  V30 4476 H 431.328 0.139501 3.26302 0
M  V30 4477 H 429.987 2.2411 2.90121 0
M  V30 4478 H 429.635 0.859544 4.95602 0
M  V30 4479 H 429.335 2.58611 5.27631 0
M  V30 4480 H 430.859 1.832 5.82469 0
M  V30 4481 H 432.273 3.63034 4.43711 0
M  V30 4482 H 430.67 4.35771 4.12582 0
M  V30 4483 H 431.74 3.98536 2.76219 0
M  V30 4484 N 433.083 -1.0153 1.20538 0
M  V30 4485 C 434.331 -1.74803 1.01432 0
M  V30 4486 C 434.652 -1.8963 -0.454456 0
M  V30 4487 O 433.922 -1.43975 -1.32846 0
M  V30 4488 H 432.502 -0.647598 0.372324 0
M  V30 4489 H 435.164 -1.22402 1.5167 0
M  V30 4490 H 434.26 -2.75114 1.47373 0
M  V30 4491 N 434.561 -1.01147 -1.20859 0
M  V30 4492 C 435.494 -0.522108 -2.22147 0
M  V30 4493 C 436.472 0.427686 -1.56874 0
M  V30 4494 O 437.656 0.34889 -1.85243 0
M  V30 4495 C 434.783 0.240819 -3.37843 0
M  V30 4496 C 433.829 -0.657752 -4.21398 0
M  V30 4497 S 434.662 -2.12393 -4.91578 0
M  V30 4498 C 435.818 -1.37102 -6.10699 0
M  V30 4499 H 436.051 -1.38035 -2.63313 0
M  V30 4500 H 433.584 -0.819941 -1.30829 0
M  V30 4501 H 435.542 0.674908 -4.04914 0
M  V30 4502 H 434.203 1.07457 -2.95147 0
M  V30 4503 H 433.396 -0.0697456 -5.03952 0
M  V30 4504 H 432.998 -1.0294 -3.59555 0
M  V30 4505 H 435.29 -0.648315 -6.74391 0
M  V30 4506 H 436.233 -2.17252 -6.73949 0
M  V30 4507 H 436.641 -0.876154 -5.57659 0
M  V30 4508 N 436.039 1.36541 -0.78704 0
M  V30 4509 C 437.267 2.03561 -0.370199 0
M  V30 4510 C 437.682 1.59347 1.01263 0
M  V30 4511 O 437.039 0.781781 1.64907 0
M  V30 4512 C 437.09 3.59033 -0.421614 0
M  V30 4513 O 436.811 4.01634 -1.7499 0
M  V30 4514 C 438.312 4.433 0.00489763 0
M  V30 4515 H 435.532 0.653346 -0.152904 0
M  V30 4516 H 438.076 1.74566 -1.06522 0
M  V30 4517 H 436.231 3.86746 0.224971 0
M  V30 4518 H 436.645 4.96217 -1.69909 0
M  V30 4519 H 438.119 5.51939 -0.0822184 0
M  V30 4520 H 438.596 4.26285 1.05723 0
M  V30 4521 H 439.202 4.20843 -0.614085 0
M  V30 4522 N 437.518 0.538854 1.48102 0
M  V30 4523 C 438.929 0.100679 1.86428 0
M  V30 4524 C 439.28 -1.32447 1.44749 0
M  V30 4525 O 438.405 -1.99339 0.842199 0
M  V30 4526 C 439 0.175933 3.38343 0
M  V30 4527 C 437.559 -0.207098 3.7583 0
M  V30 4528 C 436.706 0.531741 2.72154 0
M  V30 4529 H 439.657 0.749614 1.3988 0
M  V30 4530 H 439.678 -0.610144 3.75576 0
M  V30 4531 H 439.19 1.21328 3.68648 0
M  V30 4532 H 437.291 -1.24626 3.5114 0
M  V30 4533 H 437.404 0.138687 4.78899 0
M  V30 4534 H 435.768 -0.0230462 2.5469 0
M  V30 4535 H 436.551 1.56989 3.05302 0
M  V30 4536 N 438.996 -1.55193 0.274407 0
M  V30 4537 C 440.244 -1.99187 -0.341902 0
M  V30 4538 C 440.565 -1.16422 -1.56431 0
M  V30 4539 O 439.835 -0.253573 -1.94252 0
M  V30 4540 H 438.415 -0.735721 -0.129317 0
M  V30 4541 H 441.077 -1.91168 0.379578 0
M  V30 4542 H 440.173 -3.05629 -0.632253 0
M  V30 4543 N 440.474 -0.00167713 -1.576 0
M  V30 4544 C 441.721 0.68282 -1.90641 0
M  V30 4545 C 442.049 1.73686 -0.875415 0
M  V30 4546 O 441.304 1.95334 0.119575 0
M  V30 4547 C 441.603 1.36189 -3.30435 0
M  V30 4548 C 441.269 0.440887 -4.48739 0
M  V30 4549 C 439.931 0.187312 -4.80835 0
M  V30 4550 C 442.283 -0.193134 -5.20842 0
M  V30 4551 C 439.611 -0.70855 -5.82406 0
M  V30 4552 C 441.963 -1.07688 -6.23367 0
M  V30 4553 C 440.627 -1.33962 -6.53919 0
M  V30 4554 H 439.897 0.249862 -0.697603 0
M  V30 4555 H 442.544 -0.0575642 -1.91413 0
M  V30 4556 H 440.849 2.17636 -3.25794 0
M  V30 4557 H 442.546 1.89759 -3.5326 0
M  V30 4558 H 439.136 0.648694 -4.23663 0
M  V30 4559 H 443.32 -0.0102445 -4.96299 0
M  V30 4560 H 438.576 -0.920097 -6.04437 0
M  V30 4561 H 442.75 -1.57451 -6.78367 0
M  V30 4562 H 440.377 -2.03549 -7.32442 0
M  V30 4563 N 441.952 1.55251 0.271103 0
M  V30 4564 C 443.2 1.75599 1.00047 0
M  V30 4565 C 443.521 0.561188 1.8675 0
M  V30 4566 O 442.791 -0.423846 1.9126 0
M  V30 4567 H 441.371 0.647562 0.372387 0
M  V30 4568 H 444.033 1.92656 0.294876 0
M  V30 4569 H 443.129 2.65766 1.6363 0
M  V30 4570 N 443.43 -0.535701 1.48216 0
M  V30 4571 C 444.707 -1.29683 1.46429 0
M  V30 4572 C 445.087 -2.10391 0.172852 0
M  V30 4573 O 444.435 -2.12282 -0.845488 0
M  V30 4574 C 444.645 -2.18313 2.72287 0
M  V30 4575 C 445.993 -2.78639 3.20383 0
M  V30 4576 O 447.017 -2.28604 2.73164 0
M  V30 4577 O 445.876 -3.69636 4.02531 0
M  V30 4578 H 442.97 -0.585026 0.584529 0
M  V30 4579 H 445.516 -0.552827 1.60443 0
M  V30 4580 H 444.288 -1.58421 3.57797 0
M  V30 4581 H 443.911 -2.99971 2.60966 0
M  V30 4582 N 444.908 -1.36708 -0.784132 0
M  V30 4583 C 445.855 -1.31466 -1.89698 0
M  V30 4584 C 446.825 -0.18239 -1.65096 0
M  V30 4585 O 448.01 -0.369762 -1.87183 0
M  V30 4586 C 445.15 -1.1151 -3.26588 0
M  V30 4587 C 444.263 -2.33859 -3.63227 0
M  V30 4588 C 443.398 -2.06873 -4.89262 0
M  V30 4589 C 442.437 -3.25154 -5.18595 0
M  V30 4590 N 441.574 -2.978 -6.35814 0
M  V30 4591 H 446.414 -2.26619 -1.93515 0
M  V30 4592 H 443.951 -1.12625 -0.946256 0
M  V30 4593 H 445.909 -0.979653 -4.05535 0
M  V30 4594 H 444.539 -0.200103 -3.22179 0
M  V30 4595 H 443.591 -2.58188 -2.79362 0
M  V30 4596 H 444.903 -3.22109 -3.8085 0
M  V30 4597 H 444.057 -1.90289 -5.76086 0
M  V30 4598 H 442.796 -1.15942 -4.73718 0
M  V30 4599 H 441.801 -3.42292 -4.30251 0
M  V30 4600 H 443.026 -4.1692 -5.36055 0
M  V30 4601 H 440.972 -2.09485 -6.21653 0
M  V30 4602 H 440.889 -3.7959 -6.53794 0
M  V30 4603 H 442.157 -2.84805 -7.25607 0
M  V30 4604 N 446.386 1.0089 -1.21074 0
M  V30 4605 C 447.614 1.78191 -1.05145 0
M  V30 4606 C 448.029 1.84537 0.398952 0
M  V30 4607 O 447.386 1.30393 1.27687 0
M  V30 4608 C 447.437 3.22288 -1.63746 0
M  V30 4609 O 447.158 3.16315 -3.03111 0
M  V30 4610 C 448.659 4.16106 -1.52875 0
M  V30 4611 H 445.879 0.560129 -0.369454 0
M  V30 4612 H 448.423 1.26945 -1.60328 0
M  V30 4613 H 446.578 3.70655 -1.12664 0
M  V30 4614 H 446.992 4.06817 -3.31059 0
M  V30 4615 H 448.466 5.15026 -1.98626 0
M  V30 4616 H 448.943 4.36541 -0.482521 0
M  V30 4617 H 449.549 3.73625 -2.03185 0
M  V30 4618 N 447.864 1.01787 1.20321 0
M  V30 4619 C 449.111 0.707936 1.89722 0
M  V30 4620 C 449.439 -0.762535 1.78929 0
M  V30 4621 O 448.694 -1.56977 1.16861 0
M  V30 4622 C 448.993 1.09076 3.40349 0
M  V30 4623 C 448.659 2.55765 3.71342 0
M  V30 4624 C 447.321 2.95845 3.79511 0
M  V30 4625 C 449.673 3.50723 3.85542 0
M  V30 4626 C 447.001 4.2982 3.99339 0
M  V30 4627 C 449.353 4.84387 4.06881 0
M  V30 4628 C 448.017 5.24172 4.1328 0
M  V30 4629 H 447.287 0.259052 0.694243 0
M  V30 4630 H 449.934 1.27868 1.42555 0
M  V30 4631 H 448.239 0.438453 3.89339 0
M  V30 4632 H 449.936 0.828636 3.92345 0
M  V30 4633 H 446.526 2.2371 3.65584 0
M  V30 4634 H 450.71 3.20916 3.78585 0
M  V30 4635 H 445.966 4.60196 4.02529 0
M  V30 4636 H 450.14 5.57891 4.1681 0
M  V30 4637 H 447.767 6.27997 4.28396 0
M  V30 4638 N 449.342 -1.36122 0.79427 0
M  V30 4639 C 450.588 -1.99406 0.369452 0
M  V30 4640 C 450.921 -1.62886 -1.05743 0
M  V30 4641 O 450.196 -0.886053 -1.73145 0
M  V30 4642 C 450.479 -3.56046 0.538833 0
M  V30 4643 C 450.332 -4.02404 2.00976 0
M  V30 4644 C 451.651 -4.40079 -0.0431359 0
M  V30 4645 H 448.77 -0.724397 0.135712 0
M  V30 4646 H 451.412 -1.61461 1.00151 0
M  V30 4647 H 449.562 -3.885 0.000771004 0
M  V30 4648 H 451.234 -3.80415 2.60926 0
M  V30 4649 H 449.477 -3.53765 2.51063 0
M  V30 4650 H 450.148 -5.11344 2.07922 0
M  V30 4651 H 452.624 -4.14013 0.416228 0
M  V30 4652 H 451.5 -5.48799 0.105374 0
M  V30 4653 H 451.761 -4.27264 -1.13571 0
M  V30 4654 N 450.82 -0.546701 -1.47814 0
M  V30 4655 C 452.066 -0.0187684 -2.02791 0
M  V30 4656 C 452.399 1.32338 -1.42128 0
M  V30 4657 O 451.674 1.85867 -0.573023 0
M  V30 4658 C 451.957 0.0854985 -3.59998 0
M  V30 4659 C 451.81 -1.283 -4.31114 0
M  V30 4660 C 453.129 0.80412 -4.32691 0
M  V30 4661 H 450.248 -0.0082946 -0.736953 0
M  V30 4662 H 452.89 -0.706962 -1.76358 0
M  V30 4663 H 451.04 0.671609 -3.82651 0
M  V30 4664 H 452.712 -1.91151 -4.19832 0
M  V30 4665 H 450.955 -1.86049 -3.91878 0
M  V30 4666 H 451.626 -1.16287 -5.39612 0
M  V30 4667 H 454.102 0.306576 -4.14969 0
M  V30 4668 H 452.978 0.846011 -5.42341 0
M  V30 4669 H 453.239 1.85802 -4.01161 0
M  V30 4670 N 452.299 1.55045 -0.282633 0
M  V30 4671 C 453.231 2.2023 0.634924 0
M  V30 4672 C 454.244 1.18931 1.11172 0
M  V30 4673 O 455.433 1.4562 1.03233 0
M  V30 4674 C 452.533 2.82041 1.87899 0
M  V30 4675 C 451.706 4.091 1.54776 0
M  V30 4676 C 450.765 4.54887 2.64507 0
M  V30 4677 O 449.791 5.20496 2.30375 0
M  V30 4678 N 450.993 4.25659 3.94709 0
M  V30 4679 H 453.758 2.99601 0.0769811 0
M  V30 4680 H 451.319 1.61565 -0.104048 0
M  V30 4681 H 453.311 3.09613 2.60619 0
M  V30 4682 H 451.881 2.06618 2.3458 0
M  V30 4683 H 451.101 3.88736 0.654049 0
M  V30 4684 H 452.389 4.9187 1.30158 0
M  V30 4685 H 451.787 3.7306 4.25256 0
M  V30 4686 H 450.344 4.57984 4.63782 0
M  V30 4687 N 453.777 0.010035 1.57597 0
M  V30 4688 C 455.025 -0.671371 1.90623 0
M  V30 4689 C 455.346 -1.73753 0.885151 0
M  V30 4690 O 454.616 -1.95752 -0.0760611 0
M  V30 4691 H 453.196 -0.250968 0.703579 0
M  V30 4692 H 455.858 0.0533325 1.94827 0
M  V30 4693 H 454.954 -1.13626 2.90681 0
M  V30 4694 N 455.255 -1.55392 -0.262866 0
M  V30 4695 C 456.502 -1.76476 -0.993109 0
M  V30 4696 C 456.83 -0.571479 -1.85915 0
M  V30 4697 O 456.085 0.445733 -1.90556 0
M  V30 4698 C 456.384 -3.02889 -1.89718 0
M  V30 4699 C 456.05 -4.34974 -1.18781 0
M  V30 4700 C 454.712 -4.7087 -0.991699 0
M  V30 4701 C 457.064 -5.16695 -0.683798 0
M  V30 4702 C 454.392 -5.86036 -0.279024 0
M  V30 4703 C 456.744 -6.32598 0.0153327 0
M  V30 4704 C 455.408 -6.67127 0.223062 0
M  V30 4705 H 454.678 -0.64577 -0.363404 0
M  V30 4706 H 457.325 -1.89664 -0.264525 0
M  V30 4707 H 455.63 -2.84644 -2.6923 0
M  V30 4708 H 457.327 -3.16399 -2.46359 0
M  V30 4709 H 453.917 -4.06765 -1.35058 0
M  V30 4710 H 458.101 -4.8943 -0.8229 0
M  V30 4711 H 453.357 -6.11306 -0.107456 0
M  V30 4712 H 457.531 -6.95171 0.413584 0
M  V30 4713 H 455.158 -7.56216 0.777265 0
M  V30 4714 N 456.733 0.527833 -1.48498 0
M  V30 4715 C 457.981 1.28101 -1.56316 0
M  V30 4716 C 458.302 1.9352 -0.239781 0
M  V30 4717 O 457.572 1.81433 0.738849 0
M  V30 4718 H 456.152 0.475793 -0.575873 0
M  V30 4719 H 458.814 0.614052 -1.84974 0
M  V30 4720 H 457.91 2.05916 -2.34532 0
M  V30 4721 N 458.211 1.37122 0.776871 0
M  V30 4722 C 459.159 1.32549 1.91138 0
M  V30 4723 C 460.153 0.215119 1.68029 0
M  V30 4724 O 461.359 0.382852 1.75881 0
M  V30 4725 H 457.734 0.412952 0.62847 0
M  V30 4726 H 459.705 2.28332 1.92112 0
M  V30 4727 C 458.454 1.14422 3.28333 0
M  V30 4728 H 457.777 1.99115 3.46689 0
M  V30 4729 H 459.217 1.15272 4.0803 0
M  V30 4730 C 457.676 -0.150434 3.36564 0
M  V30 4731 O 458.206 -1.13584 3.85307 0
M  V30 4732 N 456.412 -0.19939 2.89915 0
M  V30 4733 H 455.959 0.603142 2.5044 0
M  V30 4734 H 455.917 -1.06526 2.95803 0
M  V30 4735 N 459.689 -1.00246 1.21608 0
M  V30 4736 C 460.935 -1.74319 1.03638 0
M  V30 4737 C 461.268 -1.89408 -0.428749 0
M  V30 4738 O 460.543 -1.43026 -1.3181 0
M  V30 4739 C 460.826 -3.15431 1.73711 0
M  V30 4740 C 460.679 -3.08049 3.27759 0
M  V30 4741 C 461.998 -4.14407 1.48173 0
M  V30 4742 H 459.117 -0.632741 0.377899 0
M  V30 4743 H 461.759 -1.16853 1.49818 0
M  V30 4744 H 459.909 -3.64493 1.34452 0
M  V30 4745 H 461.581 -2.66681 3.76403 0
M  V30 4746 H 459.824 -2.45088 3.57931 0
M  V30 4747 H 460.495 -4.07862 3.71958 0
M  V30 4748 H 462.971 -3.74061 1.82258 0
M  V30 4749 H 461.847 -5.11279 1.99713 0
M  V30 4750 H 462.108 -4.40174 0.412273 0
M  V30 4751 N 461.167 -1.02423 -1.1978 0
M  V30 4752 C 462.415 -0.716569 -1.8897 0
M  V30 4753 C 462.736 0.756769 -1.79716 0
M  V30 4754 O 462.006 1.5449 -1.20456 0
M  V30 4755 H 460.586 -0.262062 -0.699523 0
M  V30 4756 H 463.248 -1.29747 -1.45436 0
M  V30 4757 H 462.344 -1.00675 -2.95417 0
M  V30 4758 N 462.645 1.35699 -0.801477 0
M  V30 4759 C 463.575 2.32436 -0.222658 0
M  V30 4760 C 464.556 1.5723 0.649057 0
M  V30 4761 O 465.741 1.85324 0.580387 0
M  V30 4762 C 462.871 3.41469 0.633719 0
M  V30 4763 C 461.825 4.27774 -0.139083 0
M  V30 4764 C 461.151 5.28082 0.838666 0
M  V30 4765 C 462.451 5.04946 -1.33517 0
M  V30 4766 H 464.145 2.81094 -1.03086 0
M  V30 4767 H 461.691 1.35146 -0.497155 0
M  V30 4768 H 463.644 4.08143 1.04868 0
M  V30 4769 H 462.368 2.91408 1.47475 0
M  V30 4770 H 461.027 3.62673 -0.535156 0
M  V30 4771 H 460.675 4.7429 1.67506 0
M  V30 4772 H 460.375 5.86695 0.32594 0
M  V30 4773 H 461.899 5.97628 1.25194 0
M  V30 4774 H 463.313 5.64593 -0.995349 0
M  V30 4775 H 461.71 5.7303 -1.78202 0
M  V30 4776 H 462.78 4.35886 -2.12442 0
M  V30 4777 N 464.123 0.554532 1.47522 0
M  V30 4778 C 465.073 -0.215008 2.26984 0
M  V30 4779 C 466.057 -0.88774 1.34194 0
M  V30 4780 O 467.249 -0.786489 1.58567 0
M  V30 4781 C 464.378 -1.24604 3.19889 0
M  V30 4782 C 463.464 -0.576857 4.20159 0
M  V30 4783 N 463.855 0.351541 5.04577 0
M  V30 4784 C 462.153 -0.831104 4.38188 0
M  V30 4785 C 462.854 0.739995 5.76974 0
M  V30 4786 N 461.83 0.0954407 5.43516 0
M  V30 4787 H 465.632 0.498843 2.89636 0
M  V30 4788 H 463.146 0.374279 1.58028 0
M  V30 4789 H 465.143 -1.81128 3.75498 0
M  V30 4790 H 463.803 -1.96101 2.58794 0
M  V30 4791 H 464.814 0.725556 5.12792 0
M  V30 4792 H 461.491 -1.53479 3.88266 0
M  V30 4793 H 462.881 1.50271 6.5488 0
M  V30 4794 N 465.601 -1.54893 0.290851 0
M  V30 4795 C 466.826 -2.04804 -0.32712 0
M  V30 4796 C 467.251 -1.16721 -1.47506 0
M  V30 4797 O 466.609 -0.169107 -1.8051 0
M  V30 4798 C 466.657 -3.52268 -0.770689 0
M  V30 4799 O 465.761 -3.67236 -1.87647 0
M  V30 4800 H 465.102 -0.660789 -0.0652227 0
M  V30 4801 H 467.632 -2.00036 0.429739 0
M  V30 4802 H 467.642 -3.9393 -1.06223 0
M  V30 4803 H 466.317 -4.15843 0.069096 0
M  V30 4804 H 464.894 -3.37479 -1.58626 0
M  V30 4805 N 467.08 -0.0183926 -1.57589 0
M  V30 4806 C 468.013 1.00148 -2.0505 0
M  V30 4807 C 468.991 1.32387 -0.944058 0
M  V30 4808 O 470.175 1.44237 -1.21358 0
M  V30 4809 C 467.302 2.32435 -2.46357 0
M  V30 4810 C 466.348 2.15731 -3.67916 0
M  V30 4811 S 467.181 1.46613 -5.15039 0
M  V30 4812 C 468.337 2.80293 -5.59631 0
M  V30 4813 H 468.57 0.597429 -2.91235 0
M  V30 4814 H 466.103 0.193002 -1.53189 0
M  V30 4815 H 468.061 3.0849 -2.70822 0
M  V30 4816 H 466.722 2.69975 -1.60537 0
M  V30 4817 H 465.915 3.13502 -3.9463 0
M  V30 4818 H 465.517 1.4782 -3.43548 0
M  V30 4819 H 467.809 3.76557 -5.63215 0
M  V30 4820 H 468.752 2.58256 -6.59325 0
M  V30 4821 H 469.16 2.85047 -4.87246 0
M  V30 4822 N 468.558 1.5553 0.254621 0
M  V30 4823 C 469.974 1.4778 0.602753 0
M  V30 4824 C 470.174 0.707047 1.88688 0
M  V30 4825 O 469.23 0.233288 2.5142 0
M  V30 4826 C 470.543 2.92133 0.712648 0
M  V30 4827 C 472.091 3.02458 0.805488 0
M  V30 4828 C 472.566 4.48102 0.947009 0
M  V30 4829 N 474.057 4.52008 1.01207 0
M  V30 4830 C 474.792 5.61939 1.1407 0
M  V30 4831 N 474.288 6.81697 1.23536 0
M  V30 4832 N 476.081 5.49719 1.17325 0
M  V30 4833 H 468.232 2.04085 -0.588463 0
M  V30 4834 H 470.495 0.926229 -0.202001 0
M  V30 4835 H 470.201 3.51332 -0.160766 0
M  V30 4836 H 470.075 3.42187 1.58707 0
M  V30 4837 H 472.462 2.43344 1.66936 0
M  V30 4838 H 472.543 2.55627 -0.0939266 0
M  V30 4839 H 472.187 5.07824 0.087725 0
M  V30 4840 H 472.117 4.92607 1.86135 0
M  V30 4841 H 474.608 3.65749 0.950577 0
M  V30 4842 H 474.921 7.61228 1.33236 0
M  V30 4843 H 473.266 6.84473 1.20508 0
M  V30 4844 H 476.457 4.55095 1.09573 0
M  V30 4845 H 476.63 6.35432 1.27005 0
M  V30 4846 N 470.036 -0.519951 1.48776 0
M  V30 4847 C 471.266 -1.29783 1.60748 0
M  V30 4848 C 471.674 -1.87253 0.27072 0
M  V30 4849 O 471.017 -1.67628 -0.751438 0
M  V30 4850 C 471.079 -2.47984 2.60277 0
M  V30 4851 C 470.743 -2.11526 4.051 0
M  V30 4852 C 471.74 -1.66608 4.92481 0
M  V30 4853 C 469.425 -2.21742 4.50706 0
M  V30 4854 C 471.419 -1.32384 6.23501 0
M  V30 4855 C 469.106 -1.87129 5.81744 0
M  V30 4856 C 470.104 -1.42523 6.67964 0
M  V30 4857 O 469.792 -1.0837 7.96562 0
M  V30 4858 H 469.524 -0.400562 0.544542 0
M  V30 4859 H 472.078 -0.632879 1.95407 0
M  V30 4860 H 470.308 -3.17493 2.2076 0
M  V30 4861 H 471.997 -3.10036 2.61978 0
M  V30 4862 H 472.763 -1.58178 4.58481 0
M  V30 4863 H 468.642 -2.55415 3.83776 0
M  V30 4864 H 472.186 -0.974949 6.90754 0
M  V30 4865 H 468.083 -1.95204 6.15277 0
M  V30 4866 H 468.851 -1.21681 8.09405 0
M  V30 4867 N 471.514 -1.37532 -0.769588 0
M  V30 4868 C 472.444 -1.36172 -1.89682 0
M  V30 4869 C 473.425 -0.23001 -1.68538 0
M  V30 4870 O 474.61 -0.43069 -1.89364 0
M  V30 4871 C 471.74 -1.1701 -3.26995 0
M  V30 4872 C 470.694 -2.27216 -3.62708 0
M  V30 4873 C 470.02 -1.93174 -4.98586 0
M  V30 4874 C 471.32 -3.6941 -3.69234 0
M  V30 4875 H 473.014 -2.30499 -1.91078 0
M  V30 4876 H 470.56 -1.10953 -0.917902 0
M  V30 4877 H 472.513 -1.14688 -4.05493 0
M  V30 4878 H 471.237 -0.191395 -3.26039 0
M  V30 4879 H 469.896 -2.28697 -2.86519 0
M  V30 4880 H 469.544 -0.938281 -4.94171 0
M  V30 4881 H 469.244 -2.66973 -5.23449 0
M  V30 4882 H 470.768 -1.92443 -5.79481 0
M  V30 4883 H 472.182 -3.70047 -4.37879 0
M  V30 4884 H 470.579 -4.4228 -4.05597 0
M  V30 4885 H 471.649 -4.0288 -2.69844 0
M  V30 4886 N 472.992 0.995999 -1.22138 0
M  V30 4887 C 473.942 2.06988 -0.956042 0
M  V30 4888 C 474.926 1.60636 0.0921576 0
M  V30 4889 O 476.118 1.76607 -0.117958 0
M  V30 4890 C 473.247 3.39148 -0.532335 0
M  V30 4891 C 472.333 3.92142 -1.61509 0
M  V30 4892 N 472.724 4.18397 -2.84214 0
M  V30 4893 C 471.022 4.20514 -1.48606 0
M  V30 4894 C 471.723 4.61425 -3.54206 0
M  V30 4895 N 470.699 4.64934 -2.81669 0
M  V30 4896 H 474.501 2.25223 -1.88816 0
M  V30 4897 H 472.015 1.17748 -1.11845 0
M  V30 4898 H 474.012 4.15642 -0.323574 0
M  V30 4899 H 472.672 3.22314 0.392921 0
M  V30 4900 H 473.683 4.06682 -3.20671 0
M  V30 4901 H 470.36 4.12769 -0.626762 0
M  V30 4902 H 471.75 4.90387 -4.59315 0
M  V30 4903 N 474.47 1.03057 1.19235 0
M  V30 4904 C 475.886 0.747947 1.40989 0
M  V30 4905 C 476.086 -0.666752 1.90149 0
M  V30 4906 O 475.142 -1.43249 2.07933 0
M  V30 4907 C 476.455 1.7855 2.41951 0
M  V30 4908 C 478.003 1.80524 2.55695 0
M  V30 4909 C 478.478 2.83243 3.59913 0
M  V30 4910 N 479.969 2.8207 3.67411 0
M  V30 4911 C 480.704 3.58204 4.47747 0
M  V30 4912 N 480.2 4.44057 5.31775 0
M  V30 4913 N 481.993 3.46738 4.42413 0
M  V30 4914 H 474.144 1.94367 0.856468 0
M  V30 4915 H 476.407 0.840412 0.438647 0
M  V30 4916 H 476.113 2.79973 2.12857 0
M  V30 4917 H 475.987 1.6092 3.41152 0
M  V30 4918 H 478.374 0.79778 2.84112 0
M  V30 4919 H 478.455 2.02229 1.56643 0
M  V30 4920 H 478.099 3.84161 3.32239 0
M  V30 4921 H 478.029 2.58795 4.5862 0
M  V30 4922 H 480.52 2.19803 3.074 0
M  V30 4923 H 480.833 4.98884 5.90199 0
M  V30 4924 H 479.178 4.48129 5.3123 0
M  V30 4925 H 482.369 2.79077 3.75811 0
M  V30 4926 H 482.542 4.06322 5.04783 0
M  V30 4927 N 475.948 -1.35272 0.808662 0
M  V30 4928 C 477.195 -1.98709 0.390003 0
M  V30 4929 C 477.523 -1.64148 -1.04335 0
M  V30 4930 O 476.778 -0.897797 -1.73891 0
M  V30 4931 C 477.077 -3.53556 0.522798 0
M  V30 4932 C 476.743 -4.0799 1.91977 0
M  V30 4933 C 475.405 -4.22568 2.30195 0
M  V30 4934 C 477.757 -4.37442 2.83361 0
M  V30 4935 C 475.085 -4.63918 3.59162 0
M  V30 4936 C 477.437 -4.80232 4.11776 0
M  V30 4937 C 476.101 -4.93016 4.49991 0
M  V30 4938 H 475.371 -0.727127 0.142712 0
M  V30 4939 H 478.018 -1.6145 1.02985 0
M  V30 4940 H 476.323 -3.91287 -0.200494 0
M  V30 4941 H 478.02 -4.00598 0.179608 0
M  V30 4942 H 474.61 -3.97096 1.61284 0
M  V30 4943 H 478.794 -4.25731 2.55083 0
M  V30 4944 H 474.05 -4.72005 3.88615 0
M  V30 4945 H 478.224 -5.01982 4.82687 0
M  V30 4946 H 475.851 -5.24814 5.49976 0
M  V30 4947 N 477.426 -0.562348 -1.47226 0
M  V30 4948 C 478.674 -0.0401371 -2.0206 0
M  V30 4949 C 478.995 1.3165 -1.43852 0
M  V30 4950 O 478.265 1.85976 -0.615599 0
M  V30 4951 H 476.845 -0.0118479 -0.746906 0
M  V30 4952 H 479.507 -0.73352 -1.8057 0
M  V30 4953 H 478.603 0.0441254 -3.12069 0
M  V30 4954 N 478.904 1.54736 -0.299062 0
M  V30 4955 C 479.867 2.22127 0.565012 0
M  V30 4956 C 480.867 1.20669 1.06281 0
M  V30 4957 O 482.057 1.45417 0.959145 0
M  V30 4958 C 479.189 2.90611 1.78208 0
M  V30 4959 H 480.382 2.99891 -0.0237448 0
M  V30 4960 H 477.935 1.5622 -0.0498788 0
M  V30 4961 H 478.67 2.16921 2.41072 0
M  V30 4962 H 478.455 3.64984 1.43281 0
M  V30 4963 H 479.945 3.42026 2.396 0
M  V30 4964 N 480.382 0.0267497 1.57577 0
M  V30 4965 C 481.329 -0.955894 2.10075 0
M  V30 4966 C 482.299 -1.32453 1.00226 0
M  V30 4967 O 483.484 -1.41826 1.27632 0
M  V30 4968 C 480.624 -2.2338 2.6305 0
M  V30 4969 C 479.737 -1.92183 3.86898 0
M  V30 4970 C 478.872 -3.14251 4.28275 0
M  V30 4971 C 477.911 -2.78862 5.44888 0
M  V30 4972 N 477.048 -3.93548 5.81433 0
M  V30 4973 H 481.888 -0.501303 2.93753 0
M  V30 4974 H 479.425 -0.235847 1.45197 0
M  V30 4975 H 481.383 -2.98124 2.91853 0
M  V30 4976 H 480.013 -2.6646 1.82205 0
M  V30 4977 H 479.065 -1.07692 3.64838 0
M  V30 4978 H 480.377 -1.62117 4.7172 0
M  V30 4979 H 479.531 -3.97317 4.58502 0
M  V30 4980 H 478.27 -3.47476 3.42215 0
M  V30 4981 H 477.275 -1.94208 5.14357 0
M  V30 4982 H 478.5 -2.46855 6.32645 0
M  V30 4983 H 476.446 -4.2662 4.98328 0
M  V30 4984 H 476.363 -3.67098 6.6089 0
M  V30 4985 H 477.631 -4.77325 6.16264 0
M  V30 4986 N 481.861 -1.55662 -0.24637 0
M  V30 4987 C 483.101 -1.79283 -0.981685 0
M  V30 4988 C 483.465 -0.596356 -1.82504 0
M  V30 4989 O 484.666 -0.711342 -2.59217 0
M  V30 4990 C 482.937 -3.07648 -1.819 0
M  V30 4991 S 484.496 -3.52491 -2.61334 0
M  V30 4992 H 481.314 -0.629676 -0.330196 0
M  V30 4993 H 483.916 -1.93901 -0.249498 0
M  V30 4994 H 482.62 -3.92794 -1.18915 0
M  V30 4995 H 482.151 -2.95768 -2.59393 0
M  V30 4996 H 484.166 -3.13866 -3.84321 0
M  V30 4997 N 483.339 0.512053 -1.4905 0
M  V30 4998 C 484.588 1.26343 -1.57227 0
M  V30 4999 C 484.901 1.93876 -0.259155 0
M  V30 5000 O 486.107 2.70612 -0.219358 0
M  V30 5001 C 484.563 2.29343 -2.77362 0
M  V30 5002 C 484.171 1.67799 -4.15388 0
M  V30 5003 C 485.915 3.05378 -2.94864 0
M  V30 5004 C 483.822 2.68845 -5.2676 0
M  V30 5005 H 482.752 0.475231 -0.585382 0
M  V30 5006 H 485.403 0.53862 -1.75417 0
M  V30 5007 H 483.785 3.04938 -2.52643 0
M  V30 5008 H 484.959 0.982715 -4.50199 0
M  V30 5009 H 483.274 1.04194 -4.03153 0
M  V30 5010 H 485.871 3.80921 -3.75238 0
M  V30 5011 H 486.214 3.62327 -2.05 0
M  V30 5012 H 486.747 2.36898 -3.19569 0
M  V30 5013 H 483.486 2.16692 -6.18647 0
M  V30 5014 H 483.006 3.36647 -4.96416 0
M  V30 5015 H 484.685 3.31487 -5.5563 0
M  V30 5016 N 484.817 1.37938 0.762283 0
M  V30 5017 C 485.78 1.34279 1.85747 0
M  V30 5018 C 486.78 0.244969 1.58923 0
M  V30 5019 O 487.97 0.501365 1.66829 0
M  V30 5020 C 485.102 1.08833 3.23061 0
M  V30 5021 H 486.295 2.31705 1.90401 0
M  V30 5022 H 483.848 1.23105 0.963057 0
M  V30 5023 H 484.583 0.119767 3.24079 0
M  V30 5024 H 484.368 1.88306 3.43923 0
M  V30 5025 H 485.858 1.08946 4.03138 0
M  V30 5026 N 486.295 -0.989507 1.22664 0
M  V30 5027 C 487.541 -1.7321 1.05481 0
M  V30 5028 C 487.874 -1.89852 -0.408635 0
M  V30 5029 O 487.149 -1.44416 -1.30285 0
M  V30 5030 C 487.432 -3.1357 1.77047 0
M  V30 5031 C 487.285 -3.04555 3.31008 0
M  V30 5032 C 488.604 -4.12812 1.5256 0
M  V30 5033 H 485.723 -0.628697 0.384589 0
M  V30 5034 H 488.365 -1.15258 1.51049 0
M  V30 5035 H 486.515 -3.63046 1.3831 0
M  V30 5036 H 488.187 -2.62674 3.7921 0
M  V30 5037 H 486.43 -2.41278 3.6051 0
M  V30 5038 H 487.101 -4.03894 3.76263 0
M  V30 5039 H 489.577 -3.72106 1.86215 0
M  V30 5040 H 488.453 -5.09132 2.05124 0
M  V30 5041 H 488.714 -4.39711 0.458936 0
M  V30 5042 N 487.773 -1.03688 -1.18687 0
M  V30 5043 C 489.021 -0.736572 -1.88199 0
M  V30 5044 C 489.342 0.737665 -1.80509 0
M  V30 5045 O 488.612 1.53204 -1.22088 0
M  V30 5046 H 487.192 -0.269466 -0.696704 0
M  V30 5047 H 489.854 -1.31282 -1.44052 0
M  V30 5048 H 488.95 -1.03802 -2.94332 0
M  V30 5049 N 489.251 1.34841 -0.815825 0
M  V30 5050 C 490.161 2.33425 -0.234462 0
M  V30 5051 C 491.177 1.62295 0.627413 0
M  V30 5052 O 492.353 1.94109 0.536987 0
M  V30 5053 C 489.418 3.41471 0.599849 0
M  V30 5054 C 488.479 4.28362 -0.283596 0
M  V30 5055 C 487.712 5.31248 0.51099 0
M  V30 5056 O 487.935 5.43056 1.7449 0
M  V30 5057 O 486.869 6.01812 -0.10297 0
M  V30 5058 H 490.695 2.84962 -1.05024 0
M  V30 5059 H 488.28 1.37774 -0.577809 0
M  V30 5060 H 490.162 4.07464 1.07475 0
M  V30 5061 H 488.837 2.9219 1.39308 0
M  V30 5062 H 487.744 3.65318 -0.805836 0
M  V30 5063 H 489.077 4.81066 -1.041 0
M  V30 5064 N 490.729 0.570148 1.46925 0
M  V30 5065 C 491.954 0.0542592 2.07329 0
M  V30 5066 C 492.379 -1.23582 1.41806 0
M  V30 5067 O 491.737 -1.74341 0.497479 0
M  V30 5068 C 491.785 -0.111175 3.60429 0
M  V30 5069 O 490.889 -1.17071 3.95434 0
M  V30 5070 H 490.23 0.0571425 0.661537 0
M  V30 5071 H 492.76 0.789516 1.88753 0
M  V30 5072 H 492.77 -0.321315 4.06733 0
M  V30 5073 H 491.445 0.831012 4.07513 0
M  V30 5074 H 490.022 -0.940029 3.60857 0
M  V30 5075 N 492.207 -1.54576 0.307264 0
M  V30 5076 C 493.484 -1.92377 -0.353605 0
M  V30 5077 C 493.864 -1.23517 -1.71192 0
M  V30 5078 O 493.212 -0.373101 -2.25433 0
M  V30 5079 C 493.422 -3.45928 -0.462039 0
M  V30 5080 C 494.77 -4.18278 -0.729975 0
M  V30 5081 O 495.794 -3.51997 -0.545605 0
M  V30 5082 O 494.653 -5.3563 -1.08454 0
M  V30 5083 H 491.747 -0.802747 -0.198812 0
M  V30 5084 H 494.293 -1.65929 0.355783 0
M  V30 5085 H 493.065 -3.88187 0.492592 0
M  V30 5086 H 492.688 -3.78431 -1.21965 0
M  V30 5087 N 493.685 -0.035106 -1.57561 0
M  V30 5088 C 494.933 0.64096 -1.91667 0
M  V30 5089 C 495.254 1.72323 -0.912681 0
M  V30 5090 O 494.524 1.95849 0.0449089 0
M  V30 5091 H 493.104 0.239743 -0.707483 0
M  V30 5092 H 495.766 -0.084321 -1.94718 0
M  V30 5093 H 494.862 1.08987 -2.92452 0
M  V30 5094 N 495.163 1.55791 0.238111 0
M  V30 5095 C 496.388 1.8244 0.986432 0
M  V30 5096 C 496.813 0.613314 1.7782 0
M  V30 5097 O 496.171 -0.437767 1.75935 0
M  V30 5098 C 496.219 3.06917 1.893 0
M  V30 5099 O 495.323 2.84449 2.98601 0
M  V30 5100 H 494.664 0.601975 0.280218 0
M  V30 5101 H 497.194 2.02987 0.256437 0
M  V30 5102 H 497.204 3.36583 2.30598 0
M  V30 5103 H 495.879 3.947 1.31091 0
M  V30 5104 H 494.456 2.65972 2.61368 0
M  V30 5105 N 496.642 -0.504142 1.49319 0
M  V30 5106 C 497.891 -1.25507 1.57895 0
M  V30 5107 C 498.204 -1.93735 0.269433 0
M  V30 5108 O 499.41 -2.70492 0.233706 0
M  V30 5109 C 497.866 -2.27869 2.78574 0
M  V30 5110 C 497.474 -1.65594 4.16272 0
M  V30 5111 C 499.218 -3.0381 2.96479 0
M  V30 5112 C 497.125 -2.66048 5.28178 0
M  V30 5113 H 496.055 -0.47212 0.587894 0
M  V30 5114 H 498.706 -0.52931 1.757 0
M  V30 5115 H 497.088 -3.03594 2.54257 0
M  V30 5116 H 498.262 -0.958826 4.50714 0
M  V30 5117 H 496.577 -1.02055 4.037 0
M  V30 5118 H 499.174 -3.78925 3.77253 0
M  V30 5119 H 499.517 -3.61235 2.06918 0
M  V30 5120 H 500.05 -2.352 3.20821 0
M  V30 5121 H 496.789 -2.13408 6.19788 0
M  V30 5122 H 496.309 -3.34009 4.98195 0
M  V30 5123 H 497.988 -3.28536 5.57381 0
M  V30 5124 N 498.12 -1.38341 -0.754957 0
M  V30 5125 C 499.366 -1.35678 -1.51536 0
M  V30 5126 C 499.721 0.0533985 -1.92326 0
M  V30 5127 O 499.014 1.01573 -1.6246 0
M  V30 5128 C 499.208 -2.2452 -2.78075 0
M  V30 5129 C 499.037 -3.74035 -2.49655 0
M  V30 5130 C 497.807 -4.43066 -2.42942 0
M  V30 5131 C 500.005 -4.665 -2.16523 0
M  V30 5132 N 497.987 -5.78026 -2.06783 0
M  V30 5133 C 499.358 -5.89962 -1.90644 0
M  V30 5134 C 501.413 -4.54718 -2.02821 0
M  V30 5135 C 500.116 -7.0296 -1.52444 0
M  V30 5136 C 502.142 -5.67618 -1.66023 0
M  V30 5137 C 501.504 -6.90141 -1.41015 0
M  V30 5138 H 497.603 -0.551764 -0.554148 0
M  V30 5139 H 500.187 -1.73716 -0.879258 0
M  V30 5140 H 498.358 -1.88673 -3.39496 0
M  V30 5141 H 500.09 -2.12993 -3.44116 0
M  V30 5142 H 496.845 -3.96264 -2.59367 0
M  V30 5143 H 497.269 -6.49394 -1.91353 0
M  V30 5144 H 501.911 -3.60546 -2.20831 0
M  V30 5145 H 499.629 -7.97051 -1.33174 0
M  V30 5146 H 503.215 -5.6048 -1.56055 0
M  V30 5147 H 502.095 -7.76021 -1.12965 0
M  V30 5148 N 499.598 0.982988 -1.23187 0
M  V30 5149 C 500.546 2.09616 -1.00817 0
M  V30 5150 C 501.54 1.6932 0.0519995 0
M  V30 5151 O 502.746 1.79715 -0.101284 0
M  V30 5152 H 499.121 0.685628 -0.308899 0
M  V30 5153 H 501.092 2.25652 -1.95253 0
M  V30 5154 C 499.841 3.42249 -0.613243 0
M  V30 5155 H 499.164 3.73705 -1.42073 0
M  V30 5156 H 500.604 4.21086 -0.496208 0
M  V30 5157 C 499.063 3.30002 0.678233 0
M  V30 5158 O 499.593 3.6263 1.72807 0
M  V30 5159 N 497.799 2.83164 0.653165 0
M  V30 5160 H 497.346 2.56811 -0.201492 0
M  V30 5161 H 497.304 2.75352 1.51752 0
M  V30 5162 N 501.076 1.04316 1.18135 0
M  V30 5163 C 502.487 0.775505 1.69832 0
M  V30 5164 C 502.838 -0.703348 1.8316 0
M  V30 5165 O 501.963 -1.54729 1.51287 0
M  V30 5166 C 502.558 1.40112 3.0847 0
M  V30 5167 C 501.117 1.18172 3.57368 0
M  V30 5168 C 500.264 1.49022 2.33854 0
M  V30 5169 H 503.215 1.20925 1.02775 0
M  V30 5170 H 503.236 0.805672 3.71873 0
M  V30 5171 H 502.748 2.47744 2.98738 0
M  V30 5172 H 500.849 0.124258 3.72393 0
M  V30 5173 H 500.962 1.8805 4.40652 0
M  V30 5174 H 499.326 0.909995 2.37889 0
M  V30 5175 H 500.109 2.57768 2.26738 0
M  V30 5176 N 502.554 -1.34406 0.822964 0
M  V30 5177 C 503.831 -1.92733 0.333641 0
M  V30 5178 C 504.211 -1.75107 -1.17901 0
M  V30 5179 O 503.559 -1.12983 -1.98613 0
M  V30 5180 C 503.769 -3.40557 0.763023 0
M  V30 5181 C 505.117 -4.17709 0.761879 0
M  V30 5182 O 506.141 -3.49141 0.705606 0
M  V30 5183 O 505 -5.40082 0.835109 0
M  V30 5184 H 502.094 -0.821964 0.0911249 0
M  V30 5185 H 504.64 -1.4338 0.907757 0
M  V30 5186 H 503.412 -3.47187 1.8049 0
M  V30 5187 H 503.035 -3.97259 0.164605 0
M  V30 5188 N 504.032 -0.577932 -1.46621 0
M  V30 5189 C 505.28 -0.061566 -2.02006 0
M  V30 5190 C 505.601 1.30117 -1.4524 0
M  V30 5191 O 504.871 1.85313 -0.63529 0
M  V30 5192 H 503.451 -0.0197692 -0.746738 0
M  V30 5193 H 506.113 -0.752631 -1.79782 0
M  V30 5194 H 505.209 0.0110238 -3.12098 0
M  V30 5195 N 505.51 1.54411 -0.315457 0
M  V30 5196 C 506.759 1.99599 0.290395 0
M  V30 5197 C 507.072 1.20746 1.53882 0
M  V30 5198 O 508.278 1.56272 2.22017 0
M  V30 5199 C 506.734 3.5539 0.56797 0
M  V30 5200 C 506.342 4.43068 -0.662945 0
M  V30 5201 C 508.086 4.09067 1.13422 0
M  V30 5202 C 505.993 5.90317 -0.357722 0
M  V30 5203 H 504.923 0.745592 0.112286 0
M  V30 5204 H 507.574 1.78477 -0.426418 0
M  V30 5205 H 505.956 3.72468 1.34476 0
M  V30 5206 H 507.13 4.37765 -1.43869 0
M  V30 5207 H 505.445 4.00238 -1.14884 0
M  V30 5208 H 508.042 5.16663 1.37707 0
M  V30 5209 H 508.385 3.60552 2.08106 0
M  V30 5210 H 508.918 3.95589 0.418805 0
M  V30 5211 H 505.657 6.4301 -1.27351 0
M  V30 5212 H 505.177 5.98592 0.380472 0
M  V30 5213 H 506.856 6.4699 0.0354284 0
M  V30 5214 N 506.988 0.0434614 1.5754 0
M  V30 5215 C 508.265 -0.671479 1.83713 0
M  V30 5216 C 508.645 -1.89495 0.930315 0
M  V30 5217 O 507.993 -2.28498 -0.0105639 0
M  V30 5218 C 508.203 -1.0361 3.33266 0
M  V30 5219 C 509.551 -1.42167 4.00092 0
M  V30 5220 O 510.575 -1.12866 3.37846 0
M  V30 5221 O 509.434 -1.96817 5.09829 0
M  V30 5222 H 506.528 -0.330726 0.75799 0
M  V30 5223 H 509.074 0.0722373 1.69546 0
M  V30 5224 H 507.846 -0.165938 3.90948 0
M  V30 5225 H 507.469 -1.83751 3.52592 0
M  V30 5226 N 508.466 -1.55915 -0.229846 0
M  V30 5227 C 509.877 -1.68809 -0.797531 0
M  V30 5228 C 510.228 -0.643995 -1.8533 0
M  V30 5229 O 509.353 0.206492 -2.15413 0
M  V30 5230 C 509.948 -3.06043 -1.45338 0
M  V30 5231 C 508.507 -3.20819 -1.96856 0
M  V30 5232 C 507.654 -2.6472 -0.825736 0
M  V30 5233 H 510.605 -1.58699 -0.00533733 0
M  V30 5234 H 510.626 -3.01438 -2.32196 0
M  V30 5235 H 510.138 -3.82012 -0.684743 0
M  V30 5236 H 508.239 -2.49704 -2.76548 0
M  V30 5237 H 508.352 -4.27937 -2.15423 0
M  V30 5238 H 506.716 -2.22985 -1.23084 0
M  V30 5239 H 507.499 -3.43229 -0.0699019 0
M  V30 5240 N 509.944 0.496216 -1.49584 0
M  V30 5241 C 510.891 1.59722 -1.66606 0
M  V30 5242 C 511.861 1.58158 -0.507477 0
M  V30 5243 O 513.046 1.76072 -0.735076 0
M  V30 5244 C 510.186 2.97844 -1.74308 0
M  V30 5245 C 509.299 3.09388 -3.01502 0
M  V30 5246 C 508.434 4.38271 -3.00153 0
M  V30 5247 C 507.473 4.43466 -4.21906 0
M  V30 5248 N 506.61 5.63784 -4.1844 0
M  V30 5249 H 511.45 1.44515 -2.60613 0
M  V30 5250 H 508.987 0.703048 -1.29212 0
M  V30 5251 H 510.945 3.77907 -1.76754 0
M  V30 5252 H 509.575 3.11743 -0.837619 0
M  V30 5253 H 508.627 2.22357 -3.08645 0
M  V30 5254 H 509.939 3.09085 -3.91494 0
M  V30 5255 H 509.093 5.2666 -3.01188 0
M  V30 5256 H 507.832 4.41146 -2.07947 0
M  V30 5257 H 506.837 3.53478 -4.21109 0
M  V30 5258 H 508.062 4.42303 -5.1531 0
M  V30 5259 H 506.008 5.67491 -3.29074 0
M  V30 5260 H 505.925 5.65118 -5.02173 0
M  V30 5261 H 507.193 6.54367 -4.23585 0
M  V30 5262 N 511.423 1.38739 0.74761 0
M  V30 5263 C 512.333 1.38696 1.89211 0
M  V30 5264 C 513.349 0.283303 1.71678 0
M  V30 5265 O 514.525 0.522713 1.94498 0
M  V30 5266 C 511.59 1.21662 3.24653 0
M  V30 5267 C 510.651 2.41886 3.54669 0
M  V30 5268 C 509.884 2.25655 4.83648 0
M  V30 5269 O 510.107 1.25339 5.56459 0
M  V30 5270 O 509.041 3.14372 5.13277 0
M  V30 5271 H 512.867 2.35143 1.92202 0
M  V30 5272 H 510.452 1.19721 0.893708 0
M  V30 5273 H 512.334 1.14246 4.05618 0
M  V30 5274 H 511.009 0.283024 3.2246 0
M  V30 5275 H 509.916 2.54877 2.73841 0
M  V30 5276 H 511.249 3.33895 3.61628 0
M  V30 5277 N 512.901 -0.976442 1.23707 0
M  V30 5278 C 513.831 -2.08749 1.04624 0
M  V30 5279 C 514.812 -1.70057 -0.0380956 0
M  V30 5280 O 515.997 -1.93782 0.127308 0
M  V30 5281 C 513.127 -3.41335 0.640902 0
M  V30 5282 C 512.081 -3.93947 1.67302 0
M  V30 5283 C 511.407 -5.22774 1.12301 0
M  V30 5284 C 512.707 -4.22769 3.06697 0
M  V30 5285 H 514.401 -2.24972 1.97555 0
M  V30 5286 H 511.947 -1.08108 0.951247 0
M  V30 5287 H 513.9 -4.18489 0.494434 0
M  V30 5288 H 512.624 -3.24988 -0.324099 0
M  V30 5289 H 511.283 -3.18941 1.80755 0
M  V30 5290 H 510.931 -5.0278 0.148877 0
M  V30 5291 H 510.631 -5.58942 1.81267 0
M  V30 5292 H 512.155 -6.02546 0.988479 0
M  V30 5293 H 513.569 -4.90659 2.96524 0
M  V30 5294 H 511.966 -4.70147 3.72937 0
M  V30 5295 H 513.036 -3.29885 3.55392 0
M  V30 5296 N 514.379 -1.04941 -1.1758 0
M  V30 5297 C 515.289 -0.658826 -2.25159 0
M  V30 5298 C 516.305 0.318941 -1.71052 0
M  V30 5299 O 517.481 0.171669 -2.00667 0
M  V30 5300 C 514.546 -0.0369522 -3.4668 0
M  V30 5301 C 513.607 -1.06484 -4.15884 0
M  V30 5302 C 512.84 -0.472551 -5.31604 0
M  V30 5303 O 513.063 0.718736 -5.65854 0
M  V30 5304 O 511.997 -1.20557 -5.89703 0
M  V30 5305 H 515.823 -1.55533 -2.60851 0
M  V30 5306 H 513.408 -0.820819 -1.24832 0
M  V30 5307 H 515.29 0.308784 -4.20267 0
M  V30 5308 H 513.965 0.833238 -3.12792 0
M  V30 5309 H 512.872 -1.46253 -3.44327 0
M  V30 5310 H 514.205 -1.9061 -4.53794 0
M  V30 5311 N 515.857 1.33968 -0.830081 0
M  V30 5312 C 517.134 1.92554 -0.343858 0
M  V30 5313 C 517.514 1.7573 1.16971 0
M  V30 5314 O 516.862 1.14035 1.98011 0
M  V30 5315 C 517.072 3.40147 -0.781073 0
M  V30 5316 C 518.42 4.17299 -0.78402 0
M  V30 5317 O 519.444 3.48762 -0.724112 0
M  V30 5318 O 518.303 5.39631 -0.863739 0
M  V30 5319 H 515.397 0.821469 -0.0954827 0
M  V30 5320 H 517.943 1.42897 -0.915348 0
M  V30 5321 H 516.715 3.46225 -1.82329 0
M  V30 5322 H 516.338 3.97166 -0.18567 0
M  V30 5323 N 517.335 0.585699 1.46312 0
M  V30 5324 C 518.582 0.0724211 2.0237 0
M  V30 5325 C 518.91 -1.28868 1.45683 0
M  V30 5326 O 518.165 -1.85853 0.612945 0
M  V30 5327 C 518.464 -0.0401312 3.57377 0
M  V30 5328 C 518.13 1.25376 4.33119 0
M  V30 5329 C 516.792 1.60824 4.5353 0
M  V30 5330 C 519.144 2.10987 4.76586 0
M  V30 5331 C 516.472 2.81676 5.14661 0
M  V30 5332 C 518.824 3.31068 5.39052 0
M  V30 5333 C 517.488 3.66794 5.5769 0
M  V30 5334 H 516.758 0.0265007 0.740526 0
M  V30 5335 H 519.405 0.762935 1.75646 0
M  V30 5336 H 517.71 -0.813791 3.83255 0
M  V30 5337 H 519.407 -0.453078 3.98432 0
M  V30 5338 H 515.997 0.967808 4.1753 0
M  V30 5339 H 520.181 1.84904 4.60569 0
M  V30 5340 H 515.437 3.0949 5.27282 0
M  V30 5341 H 519.611 3.97672 5.71691 0
M  V30 5342 H 517.238 4.60529 6.04828 0
M  V30 5343 N 518.813 -1.54241 0.323641 0
M  V30 5344 C 519.76 -2.24339 -0.542277 0
M  V30 5345 C 520.73 -1.23421 -1.11159 0
M  V30 5346 O 521.915 -1.52104 -1.15192 0
M  V30 5347 C 519.055 -3.00479 -1.69725 0
M  V30 5348 C 518.168 -4.16214 -1.15716 0
M  V30 5349 C 517.303 -4.79884 -2.27783 0
M  V30 5350 C 516.342 -5.87722 -1.71023 0
M  V30 5351 N 515.479 -6.45254 -2.76752 0
M  V30 5352 H 520.319 -2.97935 0.0620613 0
M  V30 5353 H 517.856 -1.47039 0.0423993 0
M  V30 5354 H 519.814 -3.42869 -2.3769 0
M  V30 5355 H 518.444 -2.29217 -2.27288 0
M  V30 5356 H 517.496 -3.78605 -0.369063 0
M  V30 5357 H 518.808 -4.93838 -0.701832 0
M  V30 5358 H 517.962 -5.25243 -3.03651 0
M  V30 5359 H 516.701 -4.01641 -2.76652 0
M  V30 5360 H 515.706 -5.41765 -0.936518 0
M  V30 5361 H 516.931 -6.67863 -1.2303 0
M  V30 5362 H 514.877 -5.69884 -3.24912 0
M  V30 5363 H 514.794 -7.18292 -2.35782 0
M  V30 5364 H 516.062 -6.95269 -3.5245 0
M  V30 5365 N 520.291 -0.0518155 -1.57515 0
M  V30 5366 C 521.221 0.920283 -2.146 0
M  V30 5367 C 522.202 1.32406 -1.06783 0
M  V30 5368 O 523.387 1.39866 -1.34726 0
M  V30 5369 C 520.517 2.1949 -2.6915 0
M  V30 5370 C 519.471 1.93116 -3.81956 0
M  V30 5371 C 518.797 3.27037 -4.23026 0
M  V30 5372 C 520.097 1.25225 -5.07066 0
M  V30 5373 H 521.791 0.444801 -2.96077 0
M  V30 5374 H 519.337 0.212508 -1.42423 0
M  V30 5375 H 521.29 2.87894 -3.07725 0
M  V30 5376 H 520.014 2.69244 -1.84865 0
M  V30 5377 H 518.673 1.27123 -3.43854 0
M  V30 5378 H 518.321 3.74595 -3.3569 0
M  V30 5379 H 518.021 3.10189 -4.99056 0
M  V30 5380 H 519.545 3.96673 -4.64202 0
M  V30 5381 H 520.959 1.83666 -5.43083 0
M  V30 5382 H 519.356 1.18702 -5.88243 0
M  V30 5383 H 520.426 0.228382 -4.84362 0
M  V30 5384 N 521.769 1.56035 0.221574 0
M  V30 5385 C 522.701 1.889 1.29805 0
M  V30 5386 C 523.714 0.777269 1.43047 0
M  V30 5387 O 524.903 1.05557 1.43945 0
M  V30 5388 C 522.003 2.0825 2.67367 0
M  V30 5389 C 521.176 3.39267 2.76073 0
M  V30 5390 C 520.235 3.48049 3.94649 0
M  V30 5391 O 519.261 4.2108 3.82988 0
M  V30 5392 N 520.463 2.79191 5.08953 0
M  V30 5393 H 523.228 2.81831 1.01938 0
M  V30 5394 H 520.789 1.5658 0.411612 0
M  V30 5395 H 522.781 2.11441 3.45072 0
M  V30 5396 H 521.351 1.21944 2.87834 0
M  V30 5397 H 520.571 3.48175 1.84846 0
M  V30 5398 H 521.859 4.25575 2.7886 0
M  V30 5399 H 521.257 2.19635 5.21322 0
M  V30 5400 H 519.814 2.88043 5.84701 0
M  V30 5401 N 523.247 -0.488276 1.49845 0
M  V30 5402 C 524.197 -1.58556 1.63842 0
M  V30 5403 C 525.181 -1.53142 0.493586 0
M  V30 5404 O 526.373 -1.60457 0.747169 0
M  V30 5405 C 523.502 -2.97101 1.72005 0
M  V30 5406 C 522.588 -3.07463 2.92108 0
M  V30 5407 N 522.979 -2.87681 4.16021 0
M  V30 5408 C 521.277 -3.3858 2.90309 0
M  V30 5409 C 521.978 -3.0256 4.96822 0
M  V30 5410 N 520.954 -3.32002 4.30437 0
M  V30 5411 H 524.756 -1.41935 2.57355 0
M  V30 5412 H 522.27 -0.694668 1.46793 0
M  V30 5413 H 524.267 -3.75976 1.80132 0
M  V30 5414 H 522.927 -3.14782 0.796375 0
M  V30 5415 H 523.938 -2.63603 4.45796 0
M  V30 5416 H 520.615 -3.62357 2.07372 0
M  V30 5417 H 522.005 -2.9165 6.05301 0
M  V30 5418 N 524.725 -1.39134 -0.740242 0
M  V30 5419 C 525.973 -1.35803 -1.49673 0
M  V30 5420 C 526.294 0.0470897 -1.94943 0
M  V30 5421 O 525.564 0.997347 -1.68611 0
M  V30 5422 H 524.144 -0.499736 -0.555224 0
M  V30 5423 H 526.806 -1.73947 -0.879107 0
M  V30 5424 H 525.902 -2.0174 -2.38133 0
M  V30 5425 N 526.204 0.969867 -1.24223 0
M  V30 5426 C 527.429 1.75289 -1.10853 0
M  V30 5427 C 527.854 1.85091 0.335079 0
M  V30 5428 O 527.212 1.32024 1.24255 0
M  V30 5429 C 527.26 3.15255 -1.75062 0
M  V30 5430 O 526.364 3.99589 -1.01992 0
M  V30 5431 H 525.705 0.538904 -0.387915 0
M  V30 5432 H 528.235 1.21675 -1.64488 0
M  V30 5433 H 528.245 3.65787 -1.80731 0
M  V30 5434 H 526.92 3.07436 -2.801 0
M  V30 5435 H 525.497 3.58077 -1.04094 0
M  V30 5436 N 527.682 1.05563 1.17022 0
M  V30 5437 C 528.931 0.763036 1.8671 0
M  V30 5438 C 529.244 -0.712857 1.82147 0
M  V30 5439 O 530.45 -1.11955 2.47343 0
M  V30 5440 C 528.906 1.31474 3.35026 0
M  V30 5441 C 528.514 2.82034 3.48081 0
M  V30 5442 C 530.258 1.09935 4.10018 0
M  V30 5443 C 528.165 3.30486 4.90442 0
M  V30 5444 H 527.095 0.281747 0.699382 0
M  V30 5445 H 529.746 1.2734 1.32124 0
M  V30 5446 H 528.128 0.732171 3.89173 0
M  V30 5447 H 529.302 3.46178 3.04133 0
M  V30 5448 H 527.617 3.02156 2.86515 0
M  V30 5449 H 530.214 1.43632 5.15048 0
M  V30 5450 H 530.557 0.0373072 4.16283 0
M  V30 5451 H 531.09 1.64732 3.62089 0
M  V30 5452 H 527.829 4.36137 4.89352 0
M  V30 5453 H 527.349 2.71086 5.35044 0
M  V30 5454 H 529.028 3.25382 5.59227 0
M  V30 5455 N 529.16 -1.33526 0.837174 0
M  V30 5456 C 530.09 -2.31764 0.284206 0
M  V30 5457 C 531.071 -1.58896 -0.607142 0
M  V30 5458 O 532.256 -1.86798 -0.531047 0
M  V30 5459 C 529.386 -3.43029 -0.542962 0
M  V30 5460 C 528.34 -4.27255 0.252451 0
M  V30 5461 C 527.666 -5.3012 -0.69836 0
M  V30 5462 C 528.966 -5.01229 1.46858 0
M  V30 5463 H 530.66 -2.78262 1.10502 0
M  V30 5464 H 528.206 -1.3378 0.532812 0
M  V30 5465 H 530.159 -4.1078 -0.940096 0
M  V30 5466 H 528.883 -2.95216 -1.39697 0
M  V30 5467 H 527.542 -3.61127 0.631124 0
M  V30 5468 H 527.19 -4.78564 -1.54872 0
M  V30 5469 H 526.89 -5.87353 -0.170274 0
M  V30 5470 H 528.414 -6.00737 -1.09305 0
M  V30 5471 H 529.828 -5.61756 1.14469 0
M  V30 5472 H 528.225 -5.68104 1.93333 0
M  V30 5473 H 529.295 -4.301 2.23924 0
M  V30 5474 N 530.638 -0.59345 -1.46 0
M  V30 5475 C 531.886 -0.082988 -2.0193 0
M  V30 5476 C 532.207 1.28569 -1.46612 0
M  V30 5477 O 531.477 1.84629 -0.654909 0
M  V30 5478 H 530.057 -0.0276882 -0.746487 0
M  V30 5479 H 532.719 -0.771657 -1.78973 0
M  V30 5480 H 531.815 -0.022079 -3.12092 0
M  V30 5481 N 532.116 1.54067 -0.331816 0
M  V30 5482 C 533.363 2.00715 0.268269 0
M  V30 5483 C 533.691 1.21986 1.51491 0
M  V30 5484 O 532.946 0.292309 1.93505 0
M  V30 5485 C 533.245 3.51634 0.639392 0
M  V30 5486 C 532.911 4.48018 -0.509019 0
M  V30 5487 C 531.573 4.74089 -0.824209 0
M  V30 5488 C 533.925 5.05237 -1.28003 0
M  V30 5489 C 531.253 5.54637 -1.91298 0
M  V30 5490 C 533.605 5.86972 -2.35895 0
M  V30 5491 C 532.269 6.11342 -2.67987 0
M  V30 5492 H 531.539 0.734469 0.0981667 0
M  V30 5493 H 534.186 1.8596 -0.457304 0
M  V30 5494 H 532.491 3.6416 1.44551 0
M  V30 5495 H 534.188 3.85175 1.11539 0
M  V30 5496 H 530.778 4.27851 -0.253287 0
M  V30 5497 H 534.962 4.8507 -1.04978 0
M  V30 5498 H 530.218 5.71747 -2.16599 0
M  V30 5499 H 534.392 6.30327 -2.96076 0
M  V30 5500 H 532.019 6.73544 -3.5248 0
M  V30 5501 N 533.594 0.0601682 1.57485 0
M  V30 5502 C 535.005 -0.474217 1.80577 0
M  V30 5503 C 535.356 -1.70365 0.973147 0
M  V30 5504 O 534.481 -2.15544 0.192306 0
M  V30 5505 C 535.076 -0.867102 3.27516 0
M  V30 5506 C 533.635 -1.34642 3.51495 0
M  V30 5507 C 532.782 -0.32594 2.75378 0
M  V30 5508 H 535.733 0.285973 1.56102 0
M  V30 5509 H 535.754 -1.72938 3.38929 0
M  V30 5510 H 535.266 0.0278927 3.8809 0
M  V30 5511 H 533.367 -2.2603 2.96212 0
M  V30 5512 H 533.48 -1.33237 4.60201 0
M  V30 5513 H 531.844 -0.800749 2.41785 0
M  V30 5514 H 532.627 0.561125 3.38683 0
M  V30 5515 N 535.072 -1.5615 -0.213296 0
M  V30 5516 C 536.019 -1.93086 -1.26437 0
M  V30 5517 C 536.989 -0.789086 -1.4616 0
M  V30 5518 O 538.174 -1.04569 -1.59593 0
M  V30 5519 C 535.314 -2.26003 -2.608 0
M  V30 5520 C 534.427 -3.53156 -2.48807 0
M  V30 5521 C 533.562 -3.7548 -3.7575 0
M  V30 5522 C 532.601 -4.96119 -3.58514 0
M  V30 5523 N 531.738 -5.14791 -4.77425 0
M  V30 5524 H 536.578 -2.82707 -0.942376 0
M  V30 5525 H 534.115 -1.39919 -0.454001 0
M  V30 5526 H 536.073 -2.431 -3.39055 0
M  V30 5527 H 534.703 -1.39546 -2.91079 0
M  V30 5528 H 533.755 -3.44207 -1.61944 0
M  V30 5529 H 535.067 -4.41565 -2.31996 0
M  V30 5530 H 534.221 -3.92718 -4.62447 0
M  V30 5531 H 532.96 -2.85368 -3.95495 0
M  V30 5532 H 531.965 -4.78823 -2.70201 0
M  V30 5533 H 533.19 -5.87724 -3.40231 0
M  V30 5534 H 531.136 -4.27623 -4.97468 0
M  V30 5535 H 531.053 -5.97347 -4.63371 0
M  V30 5536 H 532.321 -5.36471 -5.65525 0
M  V30 5537 N 536.55 0.480323 -1.50102 0
M  V30 5538 C 537.513 1.56181 -1.6775 0
M  V30 5539 C 538.513 1.51156 -0.548503 0
M  V30 5540 O 539.703 1.5394 -0.815363 0
M  V30 5541 C 536.835 2.95823 -1.69415 0
M  V30 5542 H 538.028 1.41855 -2.6423 0
M  V30 5543 H 535.581 0.70605 -1.39444 0
M  V30 5544 H 536.316 3.15604 -0.745948 0
M  V30 5545 H 536.101 3.00878 -2.51425 0
M  V30 5546 H 537.591 3.74359 -1.85054 0
M  V30 5547 N 538.028 1.39524 0.732853 0
M  V30 5548 C 538.975 1.38416 1.84688 0
M  V30 5549 C 539.945 0.243539 1.64305 0
M  V30 5550 O 541.13 0.438979 1.85681 0
M  V30 5551 C 538.27 1.23555 3.22224 0
M  V30 5552 C 537.383 2.47179 3.54298 0
M  V30 5553 C 536.518 2.2489 4.81246 0
M  V30 5554 C 535.557 3.44178 5.0617 0
M  V30 5555 N 534.694 3.21192 6.24323 0
M  V30 5556 H 539.534 2.33645 1.84971 0
M  V30 5557 H 537.071 1.16059 0.903804 0
M  V30 5558 H 539.029 1.12949 4.0162 0
M  V30 5559 H 537.659 0.31954 3.21215 0
M  V30 5560 H 536.711 2.68379 2.69587 0
M  V30 5561 H 538.023 3.36022 3.68633 0
M  V30 5562 H 537.177 2.11538 5.68627 0
M  V30 5563 H 535.916 1.33443 4.69089 0
M  V30 5564 H 534.921 3.58025 4.17251 0
M  V30 5565 H 536.146 4.36528 5.20212 0
M  V30 5566 H 534.092 2.32413 6.1345 0
M  V30 5567 H 534.009 4.03594 6.39256 0
M  V30 5568 H 535.277 3.1154 7.14537 0
M  V30 5569 N 539.506 -0.963266 1.24736 0
M  V30 5570 C 540.917 -1.52145 1.08207 0
M  V30 5571 C 541.268 -1.93142 -0.345061 0
M  V30 5572 O 540.393 -1.77769 -1.23399 0
M  V30 5573 C 540.988 -2.76486 1.95808 0
M  V30 5574 C 539.547 -3.28646 1.8349 0
M  V30 5575 C 538.694 -2.01529 1.90476 0
M  V30 5576 H 541.645 -0.781083 1.38148 0
M  V30 5577 H 541.666 -3.49986 1.49297 0
M  V30 5578 H 541.178 -2.46617 2.99669 0
M  V30 5579 H 539.279 -3.63357 0.824787 0
M  V30 5580 H 539.392 -3.97246 2.67829 0
M  V30 5581 H 537.756 -2.16442 1.34258 0
M  V30 5582 H 538.539 -1.7402 2.95926 0
M  V30 5583 N 540.985 -1.06182 -1.16461 0
M  V30 5584 C 542.215 -0.797425 -1.9059 0
M  V30 5585 C 542.623 0.651845 -1.77616 0
M  V30 5586 O 541.966 1.45788 -1.11766 0
M  V30 5587 C 542.028 -1.11128 -3.41893 0
M  V30 5588 C 541.692 -2.55874 -3.78652 0
M  V30 5589 C 542.689 -3.54104 -3.80665 0
M  V30 5590 C 540.374 -2.91144 -4.09317 0
M  V30 5591 C 542.368 -4.85645 -4.12829 0
M  V30 5592 C 540.055 -4.22885 -4.41148 0
M  V30 5593 C 541.053 -5.19945 -4.42883 0
M  V30 5594 O 540.741 -6.49322 -4.73959 0
M  V30 5595 H 540.473 -0.288709 -0.611247 0
M  V30 5596 H 543.027 -1.41841 -1.4856 0
M  V30 5597 H 541.257 -0.433217 -3.84266 0
M  V30 5598 H 542.946 -0.831306 -3.97296 0
M  V30 5599 H 543.712 -3.28197 -3.57088 0
M  V30 5600 H 539.591 -2.16252 -4.07131 0
M  V30 5601 H 543.135 -5.61398 -4.14099 0
M  V30 5602 H 539.032 -4.48551 -4.6419 0
M  V30 5603 H 539.8 -6.54294 -4.91774 0
M  V30 5604 N 542.463 1.3308 -0.844243 0
M  V30 5605 C 543.373 2.32876 -0.283922 0
M  V30 5606 C 544.389 1.63589 0.592846 0
M  V30 5607 O 545.565 1.95205 0.495693 0
M  V30 5608 C 542.63 3.42667 0.527283 0
M  V30 5609 C 541.691 4.27664 -0.374394 0
M  V30 5610 C 540.924 5.32212 0.39819 0
M  V30 5611 O 541.147 5.46635 1.62932 0
M  V30 5612 O 540.081 6.01458 -0.2306 0
M  V30 5613 H 543.907 2.82671 -1.11045 0
M  V30 5614 H 541.492 1.36518 -0.606903 0
M  V30 5615 H 543.374 4.09652 0.988078 0
M  V30 5616 H 542.049 2.95079 1.33078 0
M  V30 5617 H 540.956 3.63526 -0.883144 0
M  V30 5618 H 542.289 4.78749 -1.1428 0
M  V30 5619 N 543.941 0.601185 1.45683 0
M  V30 5620 C 545.189 0.0936957 2.01883 0
M  V30 5621 C 545.51 -1.2779 1.47291 0
M  V30 5622 O 544.78 -1.84279 0.664691 0
M  V30 5623 H 543.36 0.0316466 0.746329 0
M  V30 5624 H 546.022 0.781137 1.78562 0
M  V30 5625 H 545.118 0.0386297 3.12076 0
M  V30 5626 N 545.419 -1.53889 0.339982 0
M  V30 5627 C 546.644 -2.05741 -0.261798 0
M  V30 5628 C 547.069 -1.21354 -1.43718 0
M  V30 5629 O 546.427 -0.22645 -1.7988 0
M  V30 5630 C 546.475 -3.54542 -0.658228 0
M  V30 5631 O 545.579 -3.7302 -1.75869 0
M  V30 5632 H 544.92 -0.662529 -0.0441672 0
M  V30 5633 H 547.45 -1.98568 0.493161 0
M  V30 5634 H 547.46 -3.9711 -0.936368 0
M  V30 5635 H 546.135 -4.15412 0.201358 0
M  V30 5636 H 544.712 -3.42355 -1.47809 0
M  V30 5637 N 546.897 -0.0685191 -1.57451 0
M  V30 5638 C 548.146 0.600898 -1.92541 0
M  V30 5639 C 548.459 1.70967 -0.950239 0
M  V30 5640 O 549.665 2.43844 -1.19384 0
M  V30 5641 C 548.121 1.12019 -3.42023 0
M  V30 5642 C 547.729 0.0426028 -4.4798 0
M  V30 5643 C 549.473 1.76386 -3.86119 0
M  V30 5644 C 547.38 0.575759 -5.88591 0
M  V30 5645 H 546.31 0.228225 -0.71863 0
M  V30 5646 H 548.961 -0.140223 -1.82963 0
M  V30 5647 H 547.343 1.91418 -3.46663 0
M  V30 5648 H 548.517 -0.73182 -4.54952 0
M  V30 5649 H 546.832 -0.504642 -4.13331 0
M  V30 5650 H 549.429 2.17302 -4.88553 0
M  V30 5651 H 549.772 2.62255 -3.23308 0
M  V30 5652 H 550.305 1.03615 -3.84069 0
M  V30 5653 H 547.044 -0.245691 -6.55039 0
M  V30 5654 H 546.564 1.31778 -5.85145 0
M  V30 5655 H 548.243 1.0532 -6.3837 0
M  V30 5656 N 548.375 1.56261 0.205012 0
M  V30 5657 C 549.305 1.96779 1.257 0
M  V30 5658 C 550.286 0.838309 1.48008 0
M  V30 5659 O 551.471 1.10189 1.59913 0
M  V30 5660 C 548.601 2.29876 2.60335 0
M  V30 5661 C 547.555 3.45469 2.52656 0
M  V30 5662 C 546.881 3.64215 3.91473 0
M  V30 5663 C 548.181 4.79954 2.06014 0
M  V30 5664 H 549.875 2.84904 0.920338 0
M  V30 5665 H 547.421 1.37072 0.441277 0
M  V30 5666 H 549.374 2.56814 3.34102 0
M  V30 5667 H 548.098 1.38622 2.95722 0
M  V30 5668 H 546.757 3.18605 1.81345 0
M  V30 5669 H 546.405 2.70309 4.24196 0
M  V30 5670 H 546.105 4.41973 3.87213 0
M  V30 5671 H 547.629 3.93519 4.66878 0
M  V30 5672 H 549.043 5.05989 2.69533 0
M  V30 5673 H 547.44 5.61111 2.12777 0
M  V30 5674 H 548.51 4.74201 1.01297 0
M  V30 5675 N 549.853 -0.472356 1.50355 0
M  V30 5676 C 550.763 -1.59637 1.7191 0
M  V30 5677 C 551.779 -1.63247 0.602195 0
M  V30 5678 O 552.955 -1.81139 0.880369 0
M  V30 5679 C 550.02 -2.9586 1.80742 0
M  V30 5680 C 549.081 -3.02649 3.04471 0
M  V30 5681 C 548.314 -4.32374 3.12872 0
M  V30 5682 O 548.537 -5.22807 2.28099 0
M  V30 5683 O 547.471 -4.44728 4.05587 0
M  V30 5684 H 551.297 -1.44373 2.67189 0
M  V30 5685 H 548.882 -0.651717 1.34436 0
M  V30 5686 H 550.764 -3.7677 1.88739 0
M  V30 5687 H 549.439 -3.11325 0.88647 0
M  V30 5688 H 548.346 -2.20821 3.01975 0
M  V30 5689 H 549.679 -2.92119 3.9614 0
M  V30 5690 N 551.331 -1.39911 -0.725443 0
M  V30 5691 C 552.294 -1.39156 -1.82121 0
M  V30 5692 C 553.294 -0.287018 -1.58218 0
M  V30 5693 O 554.484 -0.545421 -1.65441 0
M  V30 5694 C 551.616 -1.1736 -3.20062 0
M  V30 5695 H 552.809 -2.36672 -1.84191 0
M  V30 5696 H 550.362 -1.25615 -0.930079 0
M  V30 5697 H 551.097 -0.205648 -3.23647 0
M  V30 5698 H 550.882 -1.97358 -3.3881 0
M  V30 5699 H 552.372 -1.19596 -4.00108 0
M  V30 5700 N 552.809 0.956637 -1.25245 0
M  V30 5701 C 554.086 1.67716 -1.00651 0
M  V30 5702 C 554.466 2.0585 0.467866 0
M  V30 5703 O 553.814 1.77029 1.44475 0
M  V30 5704 C 554.024 2.90093 -1.94028 0
M  V30 5705 C 555.372 3.6209 -2.21756 0
M  V30 5706 O 556.396 3.00171 -1.9177 0
M  V30 5707 O 555.255 4.7358 -2.72735 0
M  V30 5708 H 552.349 0.733731 -0.381533 0
M  V30 5709 H 554.895 1.00974 -1.3639 0
M  V30 5710 H 553.667 2.58689 -2.93591 0
M  V30 5711 H 553.29 3.64566 -1.58674 0
M  V30 5712 N 554.287 1.06798 1.15896 0
M  V30 5713 C 555.527 0.797041 1.8822 0
M  V30 5714 C 555.891 -0.664549 1.80133 0
M  V30 5715 O 557.092 -1.0503 2.47431 0
M  V30 5716 C 555.363 1.28431 3.33527 0
M  V30 5717 S 556.922 1.14319 4.23647 0
M  V30 5718 H 553.74 0.288988 0.649621 0
M  V30 5719 H 556.342 1.36594 1.39865 0
M  V30 5720 H 555.046 2.34286 3.36954 0
M  V30 5721 H 554.577 0.710371 3.86933 0
M  V30 5722 H 556.592 0.0772467 4.9614 0
M  V30 5723 N 555.766 -1.3263 0.851289 0
M  V30 5724 C 557.043 -1.91982 0.374448 0
M  V30 5725 C 557.423 -1.77568 -1.14161 0
M  V30 5726 O 556.771 -1.1717 -1.96172 0
M  V30 5727 C 556.981 -3.38862 0.835088 0
M  V30 5728 C 558.329 -4.15999 0.850309 0
M  V30 5729 O 559.353 -3.47566 0.779505 0
M  V30 5730 O 558.212 -5.38189 0.949481 0
M  V30 5731 H 555.306 -0.819846 0.10854 0
M  V30 5732 H 557.852 -1.41422 0.937966 0
M  V30 5733 H 556.624 -3.43281 1.87814 0
M  V30 5734 H 556.247 -3.96821 0.248833 0
M  V30 5735 N 557.244 -0.608902 -1.45362 0
M  V30 5736 C 558.493 -0.10218 -2.01441 0
M  V30 5737 C 558.806 1.27546 -1.48295 0
M  V30 5738 O 560.012 1.87498 -1.96359 0
M  V30 5739 C 558.468 -0.131985 -3.59658 0
M  V30 5740 C 558.076 -1.50956 -4.21801 0
M  V30 5741 C 559.82 0.319427 -4.23296 0
M  V30 5742 C 557.727 -1.49568 -5.72174 0
M  V30 5743 H 556.657 -0.0344314 -0.753213 0
M  V30 5744 H 559.308 -0.764426 -1.6682 0
M  V30 5745 H 557.69 0.596939 -3.91475 0
M  V30 5746 H 558.864 -2.26029 -4.01556 0
M  V30 5747 H 557.179 -1.90318 -3.70362 0
M  V30 5748 H 559.776 0.349013 -5.3356 0
M  V30 5749 H 560.119 1.34237 -3.94064 0
M  V30 5750 H 560.652 -0.356273 -3.96201 0
M  V30 5751 H 557.391 -2.49626 -6.06108 0
M  V30 5752 H 556.911 -0.787542 -5.94607 0
M  V30 5753 H 558.59 -1.21989 -6.35396 0
M  V30 5754 N 558.722 1.53707 -0.348139 0
M  V30 5755 C 559.652 2.28111 0.498766 0
M  V30 5756 C 560.633 1.29851 1.09876 0
M  V30 5757 O 561.818 1.587 1.11928 0
M  V30 5758 C 558.948 3.05735 1.64753 0
M  V30 5759 C 557.902 4.11537 1.17565 0
M  V30 5760 C 557.228 4.77142 2.4133 0
M  V30 5761 C 558.528 5.21587 0.272844 0
M  V30 5762 H 560.222 2.99152 -0.121934 0
M  V30 5763 H 557.768 1.43875 -0.0600842 0
M  V30 5764 H 559.721 3.56526 2.24649 0
M  V30 5765 H 558.445 2.32354 2.2952 0
M  V30 5766 H 557.104 3.61665 0.599483 0
M  V30 5767 H 556.752 4.0035 3.04514 0
M  V30 5768 H 556.452 5.48626 2.10436 0
M  V30 5769 H 557.976 5.30719 3.01943 0
M  V30 5770 H 559.39 5.67986 0.778779 0
M  V30 5771 H 557.787 6.00074 0.0555849 0
M  V30 5772 H 558.857 4.79969 -0.689785 0
M  V30 5773 N 560.2 0.0768682 1.57412 0
M  V30 5774 C 561.449 -0.590679 1.92857 0
M  V30 5775 C 561.762 -1.70461 0.959293 0
M  V30 5776 O 562.968 -2.43207 1.20675 0
M  V30 5777 C 561.424 -1.10204 3.42612 0
M  V30 5778 C 561.032 -0.0188447 4.47996 0
M  V30 5779 C 562.776 -1.74336 3.87049 0
M  V30 5780 C 560.683 -0.544536 5.88888 0
M  V30 5781 H 559.613 -0.224411 0.71983 0
M  V30 5782 H 562.264 0.149924 1.82887 0
M  V30 5783 H 560.646 -1.89577 3.47673 0
M  V30 5784 H 561.82 0.755936 4.54557 0
M  V30 5785 H 560.135 0.526555 4.13057 0
M  V30 5786 H 562.732 -2.14708 4.89699 0
M  V30 5787 H 563.075 -2.60537 3.24694 0
M  V30 5788 H 563.608 -1.01577 3.84613 0
M  V30 5789 H 560.347 0.280426 6.549 0
M  V30 5790 H 559.867 -1.28673 5.85836 0
M  V30 5791 H 561.546 -1.01933 6.3892 0
M  V30 5792 N 561.678 -1.56367 -0.196722 0
M  V30 5793 C 563.089 -1.70462 -0.761545 0
M  V30 5794 C 563.44 -0.683161 -1.83922 0
M  V30 5795 O 562.565 0.160753 -2.15802 0
M  V30 5796 C 563.16 -3.09057 -1.38814 0
M  V30 5797 C 561.719 -3.24922 -1.90007 0
M  V30 5798 C 560.866 -2.66412 -0.769399 0
M  V30 5799 H 563.817 -1.58675 0.0283263 0
M  V30 5800 H 563.838 -3.06296 -2.2575 0
M  V30 5801 H 563.35 -3.83378 -0.603559 0
M  V30 5802 H 561.451 -2.55514 -2.71189 0
M  V30 5803 H 561.564 -4.3241 -2.06297 0
M  V30 5804 H 559.928 -2.25546 -1.18326 0
M  V30 5805 H 560.711 -3.433 0.00291773 0
M  V30 5806 N 563.156 0.464375 -1.50603 0
M  V30 5807 C 564.119 1.54393 -1.69397 0
M  V30 5808 C 565.119 1.50566 -0.564504 0
M  V30 5809 O 566.309 1.53066 -0.831645 0
M  V30 5810 C 563.441 2.9401 -1.72543 0
M  V30 5811 H 564.634 1.39044 -2.65719 0
M  V30 5812 H 562.187 0.69122 -1.40185 0
M  V30 5813 H 562.922 3.14795 -0.77938 0
M  V30 5814 H 562.707 2.98195 -2.54602 0
M  V30 5815 H 564.197 3.72375 -1.89015 0
M  V30 5816 N 564.634 1.40294 0.718013 0
M  V30 5817 C 565.597 1.4012 1.81381 0
M  V30 5818 C 566.597 0.295405 1.58063 0
M  V30 5819 O 567.787 0.554187 1.6515 0
M  V30 5820 C 564.919 1.19056 3.19435 0
M  V30 5821 H 566.112 2.37645 1.82933 0
M  V30 5822 H 563.665 1.26107 0.923405 0
M  V30 5823 H 564.4 0.222809 3.23534 0
M  V30 5824 H 564.185 1.99152 3.37758 0
M  V30 5825 H 565.675 1.21716 3.99468 0
M  V30 5826 N 566.112 -0.949982 1.2575 0
M  V30 5827 C 567.337 -1.73503 1.13628 0
M  V30 5828 C 567.762 -1.85601 -0.30559 0
M  V30 5829 O 567.12 -1.33984 -1.22139 0
M  V30 5830 C 567.168 -3.1243 1.80055 0
M  V30 5831 O 566.272 -3.97916 1.08336 0
M  V30 5832 H 565.613 -0.532665 0.396439 0
M  V30 5833 H 568.143 -1.19043 1.66403 0
M  V30 5834 H 568.153 -3.62866 1.86527 0
M  V30 5835 H 566.828 -3.02941 2.84956 0
M  V30 5836 H 565.405 -3.56375 1.09777 0
M  V30 5837 N 567.59 -1.07411 -1.15328 0
M  V30 5838 C 568.5 -0.706438 -2.23711 0
M  V30 5839 C 569.516 0.282586 -1.7169 0
M  V30 5840 O 570.692 0.129066 -2.00986 0
M  V30 5841 C 567.757 -0.11048 -3.46524 0
M  V30 5842 C 566.818 -1.15282 -4.13532 0
M  V30 5843 C 566.051 -0.585205 -5.30482 0
M  V30 5844 O 566.274 0.598549 -5.67251 0
M  V30 5845 O 565.208 -1.33039 -5.87013 0
M  V30 5846 H 569.034 -1.61031 -2.57493 0
M  V30 5847 H 566.619 -0.847113 -1.23062 0
M  V30 5848 H 568.501 0.21957 -4.20828 0
M  V30 5849 H 567.176 0.766703 -3.14489 0
M  V30 5850 H 566.083 -1.53523 -3.41147 0
M  V30 5851 H 567.416 -2.00192 -4.49649 0
M  V30 5852 N 569.068 1.32177 -0.85831 0
M  V30 5853 C 570.015 2.28794 -0.303607 0
M  V30 5854 C 570.985 1.55213 0.591453 0
M  V30 5855 O 572.17 1.83418 0.525585 0
M  V30 5856 C 569.31 3.41475 0.49889 0
M  V30 5857 C 568.423 4.2993 -0.422373 0
M  V30 5858 C 567.558 5.29743 0.393111 0
M  V30 5859 C 566.597 6.09842 -0.525317 0
M  V30 5860 N 565.734 7.01643 0.253208 0
M  V30 5861 H 570.574 2.75631 -1.13276 0
M  V30 5862 H 568.111 1.35606 -0.570026 0
M  V30 5863 H 570.069 4.05531 0.979826 0
M  V30 5864 H 568.699 2.95779 1.29284 0
M  V30 5865 H 567.751 3.66422 -1.02171 0
M  V30 5866 H 569.063 4.85899 -1.12709 0
M  V30 5867 H 568.217 5.9942 0.937056 0
M  V30 5868 H 566.956 4.744 1.13117 0
M  V30 5869 H 565.961 5.39066 -1.08112 0
M  V30 5870 H 567.186 6.6727 -1.26205 0
M  V30 5871 H 565.132 6.48725 0.974295 0
M  V30 5872 H 565.049 7.54981 -0.392398 0
M  V30 5873 H 566.317 7.756 0.778761 0
M  V30 5874 N 570.547 0.616602 1.45037 0
M  V30 5875 C 571.479 -0.135186 2.28801 0
M  V30 5876 C 572.492 -0.82303 1.40464 0
M  V30 5877 O 573.681 -0.686909 1.64754 0
M  V30 5878 C 570.781 -1.21292 3.16451 0
M  V30 5879 C 569.954 -0.61043 4.3312 0
M  V30 5880 C 569.013 -1.58022 5.01912 0
M  V30 5881 O 568.039 -1.10301 5.58411 0
M  V30 5882 N 569.241 -2.91464 5.02025 0
M  V30 5883 H 572.006 0.583612 2.93963 0
M  V30 5884 H 569.567 0.456723 1.55324 0
M  V30 5885 H 571.559 -1.86169 3.59337 0
M  V30 5886 H 570.129 -1.83412 2.53138 0
M  V30 5887 H 569.349 0.216638 3.93604 0
M  V30 5888 H 570.637 -0.188293 5.08451 0
M  V30 5889 H 570.035 -3.32829 4.57429 0
M  V30 5890 H 568.592 -3.51741 5.48745 0
M  V30 5891 N 572.025 -1.5352 0.356285 0
M  V30 5892 C 572.955 -2.28372 -0.486661 0
M  V30 5893 C 573.936 -1.30432 -1.09185 0
M  V30 5894 O 575.121 -1.59291 -1.11085 0
M  V30 5895 C 572.251 -3.06604 -1.63129 0
M  V30 5896 C 571.205 -4.12154 -1.15381 0
M  V30 5897 C 570.531 -4.78415 -2.38796 0
M  V30 5898 C 571.831 -5.21724 -0.245179 0
M  V30 5899 H 573.525 -2.99083 0.137797 0
M  V30 5900 H 571.071 -1.43841 0.0677134 0
M  V30 5901 H 573.024 -3.57712 -2.22755 0
M  V30 5902 H 571.748 -2.33568 -2.28284 0
M  V30 5903 H 570.407 -3.61978 -0.580294 0
M  V30 5904 H 570.055 -4.01959 -3.02387 0
M  V30 5905 H 569.755 -5.49734 -2.07524 0
M  V30 5906 H 571.279 -5.32313 -2.99125 0
M  V30 5907 H 572.693 -5.68391 -0.748646 0
M  V30 5908 H 571.09 -6.00095 -0.0237608 0
M  V30 5909 H 572.16 -4.79596 0.715229 0
M  V30 5910 N 573.503 -0.0852151 -1.57369 0
M  V30 5911 C 574.731 0.58946 -1.98325 0
M  V30 5912 C 575.146 1.62333 -0.96403 0
M  V30 5913 O 574.503 1.82438 0.0476395 0
M  V30 5914 C 574.554 1.24604 -3.39347 0
M  V30 5915 O 574.275 0.253532 -4.37366 0
M  V30 5916 C 575.776 2.00726 -3.95252 0
M  V30 5917 H 572.996 0.158783 -0.651942 0
M  V30 5918 H 575.54 -0.161584 -2.03861 0
M  V30 5919 H 573.695 1.94808 -3.34856 0
M  V30 5920 H 574.109 0.726207 -5.19448 0
M  V30 5921 H 575.583 2.42039 -4.96106 0
M  V30 5922 H 576.06 2.86919 -3.32527 0
M  V30 5923 H 576.666 1.3536 -4.03185 0
M  V30 5924 N 574.981 1.5647 0.188427 0
M  V30 5925 C 575.928 1.95073 1.23349 0
M  V30 5926 C 576.898 0.812238 1.44886 0
M  V30 5927 O 578.083 1.07095 1.57909 0
M  V30 5928 C 575.223 2.30124 2.57171 0
M  V30 5929 C 574.336 3.57069 2.43157 0
M  V30 5930 C 573.471 3.81411 3.69729 0
M  V30 5931 C 572.51 5.0176 3.50575 0
M  V30 5932 N 571.647 5.22321 4.69175 0
M  V30 5933 H 576.487 2.84171 0.89728 0
M  V30 5934 H 574.024 1.40623 0.431683 0
M  V30 5935 H 575.982 2.48463 3.35145 0
M  V30 5936 H 574.612 1.44159 2.88822 0
M  V30 5937 H 573.664 3.4674 1.56447 0
M  V30 5938 H 574.976 4.452 2.24942 0
M  V30 5939 H 574.13 4.00026 4.56141 0
M  V30 5940 H 572.869 2.91624 3.90905 0
M  V30 5941 H 571.874 4.83061 2.62549 0
M  V30 5942 H 573.099 5.93063 3.30837 0
M  V30 5943 H 571.045 4.35483 4.90602 0
M  V30 5944 H 570.962 6.04643 4.53809 0
M  V30 5945 H 572.23 5.45401 5.56919 0
M  V30 5946 N 576.459 -0.456382 1.50847 0
M  V30 5947 C 577.684 -1.2349 1.66628 0
M  V30 5948 C 578.109 -1.84715 0.355254 0
M  V30 5949 O 577.467 -1.67961 -0.682559 0
M  V30 5950 C 577.515 -2.30865 2.77009 0
M  V30 5951 O 576.619 -3.35882 2.39285 0
M  V30 5952 H 575.96 -0.36266 0.556214 0
M  V30 5953 H 578.49 -0.541374 1.97308 0
M  V30 5954 H 578.5 -2.75949 3.00526 0
M  V30 5955 H 577.175 -1.85677 3.72152 0
M  V30 5956 H 575.752 -2.96406 2.26269 0
M  V30 5957 N 577.937 -1.40673 -0.710563 0
M  V30 5958 C 578.885 -1.41517 -1.84596 0
M  V30 5959 C 579.879 -0.295043 -1.66811 0
M  V30 5960 O 581.085 -0.466331 -1.73854 0
M  V30 5961 H 577.46 -0.442467 -0.608052 0
M  V30 5962 H 579.431 -2.37238 -1.80999 0
M  V30 5963 C 578.18 -1.29957 -3.225 0
M  V30 5964 H 577.503 -2.15429 -3.36794 0
M  V30 5965 H 578.943 -1.34608 -4.02066 0
M  V30 5966 C 577.402 -0.0103164 -3.36898 0
M  V30 5967 O 577.932 0.950707 -3.90288 0
M  V30 5968 N 576.138 0.0608409 -2.90536 0
M  V30 5969 H 575.685 -0.721943 -2.47277 0
M  V30 5970 H 575.643 0.92292 -3.00549 0
M  V30 5971 N 579.415 0.9433 -1.26252 0
M  V30 5972 C 580.378 2.02326 -1.07689 0
M  V30 5973 C 581.378 1.60779 -0.0259174 0
M  V30 5974 O 582.568 1.72108 -0.269134 0
M  V30 5975 C 579.7 3.34886 -0.63752 0
M  V30 5976 H 580.893 2.20225 -2.0357 0
M  V30 5977 H 578.446 1.12197 -1.08819 0
M  V30 5978 H 579.181 3.22684 0.323377 0
M  V30 5979 H 578.966 3.66393 -1.39637 0
M  V30 5980 H 580.456 4.14231 -0.529418 0
M  V30 5981 N 580.893 1.08022 1.14757 0
M  V30 5982 C 582.304 0.829144 1.67279 0
M  V30 5983 C 582.655 -0.644721 1.85305 0
M  V30 5984 O 581.78 -1.49838 1.56133 0
M  V30 5985 C 582.375 1.49855 3.03857 0
M  V30 5986 C 580.934 1.29482 3.53428 0
M  V30 5987 C 580.081 1.56386 2.28995 0
M  V30 5988 H 583.032 1.24134 0.988762 0
M  V30 5989 H 583.053 0.923572 3.69121 0
M  V30 5990 H 582.565 2.57123 2.90705 0
M  V30 5991 H 580.666 0.242669 3.71809 0
M  V30 5992 H 580.779 2.01974 4.34446 0
M  V30 5993 H 579.143 0.985217 2.34874 0
M  V30 5994 H 579.926 2.64851 2.18423 0
M  V30 5995 N 582.371 -1.3172 0.865308 0
M  V30 5996 C 583.787 -1.4958 0.556596 0
M  V30 5997 C 583.987 -1.79763 -0.910353 0
M  V30 5998 O 583.043 -1.87351 -1.6928 0
M  V30 5999 C 584.356 -2.63277 1.45279 0
M  V30 6000 C 585.904 -2.77161 1.45433 0
M  V30 6001 C 586.379 -3.93949 2.33598 0
M  V30 6002 N 587.87 -4.01228 2.31453 0
M  V30 6003 C 588.605 -4.90855 2.96393 0
M  V30 6004 N 588.101 -5.85416 3.70486 0
M  V30 6005 N 589.894 -4.84063 2.85726 0
M  V30 6006 H 582.045 -1.10396 1.81456 0
M  V30 6007 H 584.308 -0.54507 0.775631 0
M  V30 6008 H 584.014 -2.47734 2.49641 0
M  V30 6009 H 583.888 -3.59309 1.14792 0
M  V30 6010 H 586.275 -2.9212 0.41831 0
M  V30 6011 H 586.356 -1.8181 1.79941 0
M  V30 6012 H 586 -3.79748 3.37274 0
M  V30 6013 H 585.93 -4.88598 1.96417 0
M  V30 6014 H 588.421 -3.3357 1.77593 0
M  V30 6015 H 588.734 -6.50525 4.17178 0
M  V30 6016 H 587.079 -5.85409 3.74594 0
M  V30 6017 H 590.27 -4.09163 2.27384 0
M  V30 6018 H 590.443 -5.53708 3.36617 0
M  V30 6019 N 583.85 -0.624285 -1.44708 0
M  V30 6020 C 585.096 -0.126237 -2.02407 0
M  V30 6021 C 585.428 1.24618 -1.48943 0
M  V30 6022 O 584.704 1.82569 -0.670742 0
M  V30 6023 C 584.986 -0.105449 -3.59946 0
M  V30 6024 C 584.84 -1.50972 -4.23707 0
M  V30 6025 C 586.159 0.573629 -4.36346 0
M  V30 6026 H 583.278 -0.0473472 -0.735478 0
M  V30 6027 H 585.92 -0.799452 -1.72362 0
M  V30 6028 H 584.07 0.46783 -3.85673 0
M  V30 6029 H 585.742 -2.13136 -4.0911 0
M  V30 6030 H 583.985 -2.0656 -3.81465 0
M  V30 6031 H 584.656 -1.44727 -5.32689 0
M  V30 6032 H 587.132 0.0861787 -4.16011 0
M  V30 6033 H 586.008 0.557338 -5.46063 0
M  V30 6034 H 586.269 1.64276 -4.10446 0
M  V30 6035 N 585.328 1.53329 -0.364422 0
M  V30 6036 C 586.275 2.25698 0.482607 0
M  V30 6037 C 587.245 1.26325 1.07848 0
M  V30 6038 O 588.43 1.55104 1.11119 0
M  V30 6039 C 585.57 3.04873 1.61699 0
M  V30 6040 C 584.683 4.19135 1.0464 0
M  V30 6041 C 583.818 4.85754 2.14979 0
M  V30 6042 C 582.857 5.9205 1.5538 0
M  V30 6043 N 581.994 6.52365 2.59547 0
M  V30 6044 H 586.834 2.97666 -0.141032 0
M  V30 6045 H 584.371 1.46875 -0.0813692 0
M  V30 6046 H 586.329 3.49051 2.28516 0
M  V30 6047 H 584.959 2.35162 2.2113 0
M  V30 6048 H 584.011 3.79451 0.268553 0
M  V30 6049 H 585.323 4.95525 0.570653 0
M  V30 6050 H 584.477 5.3311 2.89619 0
M  V30 6051 H 583.216 4.08834 2.65906 0
M  V30 6052 H 582.221 5.44058 0.792549 0
M  V30 6053 H 583.446 6.7089 1.0528 0
M  V30 6054 H 581.392 5.78298 3.09689 0
M  V30 6055 H 581.309 7.2429 2.16655 0
M  V30 6056 H 582.577 7.0437 3.33892 0
M  V30 6057 N 586.806 0.0935595 1.57322 0
M  V30 6058 C 587.769 -0.851426 2.12799 0
M  V30 6059 C 588.769 -1.21187 1.0569 0
M  V30 6060 O 589.959 -1.14156 1.31583 0
M  V30 6061 C 587.091 -2.14779 2.64731 0
M  V30 6062 H 588.284 -0.369733 2.97612 0
M  V30 6063 H 585.837 -0.155417 1.55525 0
M  V30 6064 H 586.572 -2.67437 1.83434 0
M  V30 6065 H 586.357 -1.89907 3.43042 0
M  V30 6066 H 587.847 -2.82383 3.07651 0
M  V30 6067 N 588.284 -1.56567 -0.180126 0
M  V30 6068 C 589.231 -1.95725 -1.22313 0
M  V30 6069 C 590.201 -0.819911 -1.44453 0
M  V30 6070 O 591.386 -1.07931 -1.57339 0
M  V30 6071 C 588.526 -2.31484 -2.55947 0
M  V30 6072 C 587.639 -3.58354 -2.4126 0
M  V30 6073 C 586.774 -3.83366 -3.67701 0
M  V30 6074 C 585.813 -5.03612 -3.47909 0
M  V30 6075 N 584.95 -5.24802 -4.66398 0
M  V30 6076 H 589.79 -2.84642 -0.882198 0
M  V30 6077 H 587.327 -1.4085 -0.42422 0
M  V30 6078 H 589.285 -2.50237 -3.33822 0
M  V30 6079 H 587.915 -1.45689 -2.88053 0
M  V30 6080 H 586.967 -3.47565 -1.54606 0
M  V30 6081 H 588.279 -4.46386 -2.22577 0
M  V30 6082 H 587.433 -4.02439 -4.54013 0
M  V30 6083 H 586.172 -2.93692 -3.89353 0
M  V30 6084 H 585.177 -4.84447 -2.59983 0
M  V30 6085 H 586.402 -5.94809 -3.27688 0
M  V30 6086 H 584.348 -4.38079 -4.88286 0
M  V30 6087 H 584.265 -6.07041 -4.50596 0
M  V30 6088 H 585.533 -5.48346 -5.54019 0
M  V30 6089 N 589.762 0.448376 -1.51087 0
M  V30 6090 C 591.011 1.19561 -1.62444 0
M  V30 6091 C 591.324 1.92602 -0.341151 0
M  V30 6092 O 592.53 2.69439 -0.333936 0
M  V30 6093 C 590.986 2.17373 -2.8684 0
M  V30 6094 C 590.594 1.5003 -4.22131 0
M  V30 6095 C 592.338 2.92597 -3.0755 0
M  V30 6096 C 590.245 2.46262 -5.37689 0
M  V30 6097 H 589.175 0.449975 -0.605011 0
M  V30 6098 H 591.826 0.463735 -1.77544 0
M  V30 6099 H 590.208 2.93948 -2.65349 0
M  V30 6100 H 591.382 0.790886 -4.53962 0
M  V30 6101 H 589.697 0.870011 -4.0721 0
M  V30 6102 H 592.294 3.64663 -3.91056 0
M  V30 6103 H 592.637 3.53306 -2.20183 0
M  V30 6104 H 593.17 2.23131 -3.29329 0
M  V30 6105 H 589.909 1.90258 -6.27281 0
M  V30 6106 H 589.429 3.15289 -5.10248 0
M  V30 6107 H 591.108 3.07623 -5.6919 0
M  V30 6108 N 591.24 1.41047 0.703093 0
M  V30 6109 C 592.489 1.39301 1.4587 0
M  V30 6110 C 592.802 0.00267077 1.956 0
M  V30 6111 O 594.008 -0.137414 2.71152 0
M  V30 6112 C 592.464 2.44891 2.63735 0
M  V30 6113 C 592.072 3.89796 2.20824 0
M  V30 6114 C 593.816 2.5227 3.41409 0
M  V30 6115 C 591.723 4.86955 3.35602 0
M  V30 6116 H 590.653 0.518005 0.547893 0
M  V30 6117 H 593.304 1.66839 0.764009 0
M  V30 6118 H 591.686 2.10472 3.35436 0
M  V30 6119 H 592.86 4.33424 1.56461 0
M  V30 6120 H 591.175 3.86008 1.56163 0
M  V30 6121 H 593.772 3.22044 4.26839 0
M  V30 6122 H 594.115 1.55714 3.86081 0
M  V30 6123 H 594.648 2.85742 2.7676 0
M  V30 6124 H 591.387 5.84888 2.9595 0
M  V30 6125 H 590.907 4.47982 3.98839 0
M  V30 6126 H 592.586 5.07361 4.01489 0
M  V30 6127 N 592.718 -0.936591 1.26751 0
M  V30 6128 C 593.681 -2.01752 1.08761 0
M  V30 6129 C 594.681 -1.60763 0.0344435 0
M  V30 6130 O 595.871 -1.71963 0.278258 0
M  V30 6131 C 593.003 -3.34543 0.655271 0
M  V30 6132 H 594.196 -2.19143 2.04735 0
M  V30 6133 H 591.749 -1.11618 1.09413 0
M  V30 6134 H 592.484 -3.22851 -0.30626 0
M  V30 6135 H 592.269 -3.65647 1.41578 0
M  V30 6136 H 593.759 -4.13944 0.551378 0
M  V30 6137 N 594.196 -1.08629 -1.14182 0
M  V30 6138 C 595.106 -0.730126 -2.22949 0
M  V30 6139 C 596.122 0.26436 -1.7198 0
M  V30 6140 O 597.298 0.107742 -2.01112 0
M  V30 6141 C 594.363 -0.147227 -3.46387 0
M  V30 6142 C 593.424 -1.19662 -4.12286 0
M  V30 6143 C 592.657 -0.641437 -5.29831 0
M  V30 6144 O 592.88 0.538351 -5.67854 0
M  V30 6145 O 591.814 -1.39257 -5.85569 0
M  V30 6146 H 595.64 -1.63753 -2.55771 0
M  V30 6147 H 593.225 -0.860118 -1.22157 0
M  V30 6148 H 595.107 0.174923 -4.21037 0
M  V30 6149 H 593.782 0.733304 -3.15285 0
M  V30 6150 H 592.689 -1.57133 -3.395 0
M  V30 6151 H 594.022 -2.0495 -4.475 0
M  V30 6152 N 595.674 1.31259 -0.872281 0
M  V30 6153 C 596.922 1.96233 -0.483409 0
M  V30 6154 C 597.243 1.69276 0.968012 0
M  V30 6155 O 596.513 1.00943 1.67891 0
M  V30 6156 H 595.093 0.726025 -0.175774 0
M  V30 6157 H 597.755 1.60024 -1.11258 0
M  V30 6158 H 596.851 3.05403 -0.643075 0
M  V30 6159 N 597.152 0.631951 1.44375 0
M  V30 6160 C 598.115 -0.0628142 2.29114 0
M  V30 6161 C 599.115 -0.771494 1.41084 0
M  V30 6162 O 600.305 -0.615959 1.62947 0
M  V30 6163 C 597.437 -1.09953 3.22681 0
M  V30 6164 H 598.63 0.682509 2.92031 0
M  V30 6165 H 596.183 0.392128 1.51301 0
M  V30 6166 H 596.918 -1.87481 2.64616 0
M  V30 6167 H 596.703 -0.595286 3.87555 0
M  V30 6168 H 598.193 -1.58538 3.86336 0
M  V30 6169 N 598.631 -1.53133 0.372548 0
M  V30 6170 C 599.579 -2.27473 -0.485681 0
M  V30 6171 C 600.573 -1.30719 -1.07745 0
M  V30 6172 O 601.779 -1.48321 -1.01985 0
M  V30 6173 H 598.154 -0.731269 -0.175356 0
M  V30 6174 H 600.125 -2.97955 0.162986 0
M  V30 6175 C 598.874 -3.08191 -1.60978 0
M  V30 6176 H 598.197 -3.82488 -1.16373 0
M  V30 6177 H 599.637 -3.63373 -2.18485 0
M  V30 6178 C 598.096 -2.19461 -2.55614 0
M  V30 6179 O 598.626 -1.81008 -3.58607 0
M  V30 6180 N 596.832 -1.83955 -2.24965 0
M  V30 6181 H 596.379 -2.15423 -1.41247 0
M  V30 6182 H 596.337 -1.24874 -2.88538 0
M  V30 6183 N 600.109 -0.101901 -1.5727 0
M  V30 6184 C 601.357 0.559091 -1.94213 0
M  V30 6185 C 601.678 1.68297 -0.984948 0
M  V30 6186 O 600.948 1.95863 -0.0381975 0
M  V30 6187 H 599.528 0.20952 -0.717015 0
M  V30 6188 H 602.19 -0.166831 -1.94185 0
M  V30 6189 H 601.286 0.96485 -2.96811 0
M  V30 6190 N 601.587 1.56661 0.17182 0
M  V30 6191 C 602.998 1.71652 0.734329 0
M  V30 6192 C 603.349 0.712335 1.82812 0
M  V30 6193 O 602.474 -0.126401 2.16031 0
M  V30 6194 C 603.069 3.11226 1.3388 0
M  V30 6195 C 601.628 3.27904 1.84813 0
M  V30 6196 C 600.775 2.67603 0.726917 0
M  V30 6197 H 603.726 1.5861 -0.0535665 0
M  V30 6198 H 603.747 3.09849 2.20849 0
M  V30 6199 H 603.259 3.8429 0.54249 0
M  V30 6200 H 601.36 2.59796 2.6709 0
M  V30 6201 H 601.473 4.35637 1.99392 0
M  V30 6202 H 599.837 2.274 1.14723 0
M  V30 6203 H 600.62 3.43252 -0.0575334 0
M  V30 6204 N 603.065 -0.440357 1.51323 0
M  V30 6205 C 604.293 -1.21255 1.67645 0
M  V30 6206 C 604.708 -1.85088 0.37252 0
M  V30 6207 O 604.065 -1.70582 -0.648683 0
M  V30 6208 C 604.116 -2.29881 2.78993 0
M  V30 6209 O 603.837 -1.68659 4.04334 0
M  V30 6210 C 605.338 -3.20214 3.06558 0
M  V30 6211 H 602.558 -0.36558 0.562666 0
M  V30 6212 H 605.102 -0.52214 1.97722 0
M  V30 6213 H 603.257 -2.94643 2.51524 0
M  V30 6214 H 603.671 -2.40426 4.6615 0
M  V30 6215 H 605.145 -3.92575 3.88058 0
M  V30 6216 H 605.622 -3.80794 2.18844 0
M  V30 6217 H 606.228 -2.61156 3.35675 0
M  V30 6218 N 604.543 -1.41418 -0.695603 0
M  V30 6219 C 605.771 -1.4413 -1.48439 0
M  V30 6220 C 606.186 -0.0465698 -1.88743 0
M  V30 6221 O 605.543 0.934117 -1.56782 0
M  V30 6222 C 605.594 -2.34998 -2.74696 0
M  V30 6223 O 605.315 -3.69043 -2.36091 0
M  V30 6224 C 606.816 -2.46513 -3.68438 0
M  V30 6225 H 604.036 -0.490905 -0.457442 0
M  V30 6226 H 606.58 -1.85702 -0.856454 0
M  V30 6227 H 604.735 -1.96735 -3.33728 0
M  V30 6228 H 605.149 -4.17505 -3.17474 0
M  V30 6229 H 606.623 -3.1426 -4.53811 0
M  V30 6230 H 607.1 -1.49638 -4.12922 0
M  V30 6231 H 607.706 -2.85412 -3.1531 0
M  V30 6232 N 606.021 0.929856 -1.27246 0
M  V30 6233 C 607.432 1.49223 -1.12203 0
M  V30 6234 C 607.783 1.93989 0.293731 0
M  V30 6235 O 606.908 1.80978 1.18642 0
M  V30 6236 C 607.503 2.71198 -2.0307 0
M  V30 6237 C 606.062 3.23666 -1.92139 0
M  V30 6238 C 605.209 1.96409 -1.95752 0
M  V30 6239 H 608.16 0.744181 -1.4017 0
M  V30 6240 H 608.181 3.45905 -1.58524 0
M  V30 6241 H 607.693 2.38585 -3.06102 0
M  V30 6242 H 605.794 3.61042 -0.920834 0
M  V30 6243 H 605.907 3.90006 -2.78267 0
M  V30 6244 H 604.271 2.12806 -1.39949 0
M  V30 6245 H 605.054 1.66113 -3.00436 0
M  V30 6246 N 607.499 1.09233 1.13605 0
M  V30 6247 C 608.409 0.741939 2.22559 0
M  V30 6248 C 609.425 -0.255236 1.72118 0
M  V30 6249 O 610.601 -0.0970747 2.01166 0
M  V30 6250 C 607.666 0.165595 3.46304 0
M  V30 6251 C 606.727 1.21846 4.11645 0
M  V30 6252 C 605.96 0.669526 5.29484 0
M  V30 6253 O 606.183 -0.508228 5.68131 0
M  V30 6254 O 605.117 1.42361 5.84822 0
M  V30 6255 H 608.943 1.65107 2.54899 0
M  V30 6256 H 606.528 0.866584 1.21699 0
M  V30 6257 H 608.41 -0.152592 4.21124 0
M  V30 6258 H 607.085 -0.716573 3.15669 0
M  V30 6259 H 605.992 1.58931 3.38662 0
M  V30 6260 H 607.325 2.07321 4.46407 0
M  V30 6261 N 608.977 -1.30795 0.87923 0
M  V30 6262 C 609.94 -2.26563 0.346676 0
M  V30 6263 C 610.94 -1.52578 -0.507597 0
M  V30 6264 O 612.13 -1.71318 -0.315575 0
M  V30 6265 C 609.262 -3.37115 -0.506611 0
M  V30 6266 H 610.455 -2.75183 1.19223 0
M  V30 6267 H 608.008 -1.41886 0.655598 0
M  V30 6268 H 608.743 -2.93802 -1.37299 0
M  V30 6269 H 608.528 -3.91959 0.105218 0
M  V30 6270 H 610.018 -4.08412 -0.871192 0
M  V30 6271 N 610.455 -0.639598 -1.44038 0
M  V30 6272 C 611.732 -0.078012 -1.95444 0
M  V30 6273 C 612.112 1.39847 -1.58133 0
M  V30 6274 O 611.46 2.11714 -0.859614 0
M  V30 6275 C 611.67 -0.309832 -3.47622 0
M  V30 6276 C 613.018 -0.207521 -4.24093 0
M  V30 6277 O 614.042 -0.241653 -3.55379 0
M  V30 6278 O 612.901 -0.119641 -5.46369 0
M  V30 6279 H 609.995 0.0174534 -0.826816 0
M  V30 6280 H 612.541 -0.711891 -1.54046 0
M  V30 6281 H 611.313 -1.33401 -3.67858 0
M  V30 6282 H 610.936 0.357777 -3.95987 0
M  V30 6283 N 611.933 1.52934 -0.380664 0
M  V30 6284 C 612.88 2.26197 0.458641 0
M  V30 6285 C 613.85 1.27462 1.06502 0
M  V30 6286 O 615.035 1.56274 1.09467 0
M  V30 6287 C 612.175 3.06571 1.58456 0
M  V30 6288 C 611.288 4.20222 1.00189 0
M  V30 6289 C 610.423 4.88007 2.09815 0
M  V30 6290 C 609.462 5.93665 1.49092 0
M  V30 6291 N 608.599 6.55081 2.52613 0
M  V30 6292 H 613.439 2.975 -0.172595 0
M  V30 6293 H 610.976 1.4678 -0.0969426 0
M  V30 6294 H 612.934 3.51455 2.24801 0
M  V30 6295 H 611.564 2.37494 2.18624 0
M  V30 6296 H 610.616 3.79714 0.228292 0
M  V30 6297 H 611.928 4.96102 0.518064 0
M  V30 6298 H 611.082 5.36151 2.83948 0
M  V30 6299 H 609.821 4.11632 2.61555 0
M  V30 6300 H 608.826 5.44868 0.7348 0
M  V30 6301 H 610.051 6.71969 0.981582 0
M  V30 6302 H 607.997 5.8155 3.03538 0
M  V30 6303 H 607.914 7.26548 2.08961 0
M  V30 6304 H 609.182 7.07871 3.26402 0
M  V30 6305 N 613.412 0.11024 1.57214 0
M  V30 6306 C 614.661 -0.549638 1.94067 0
M  V30 6307 C 614.974 -1.68388 0.995234 0
M  V30 6308 O 616.18 -2.40593 1.25807 0
M  V30 6309 C 614.636 -1.02912 3.44873 0
M  V30 6310 C 614.244 0.0761861 4.47935 0
M  V30 6311 C 615.988 -1.66087 3.9066 0
M  V30 6312 C 613.895 -0.419502 5.8991 0
M  V30 6313 H 612.825 -0.209092 0.724428 0
M  V30 6314 H 615.476 0.188683 1.82527 0
M  V30 6315 H 613.858 -1.82159 3.51616 0
M  V30 6316 H 615.032 0.852185 4.52851 0
M  V30 6317 H 613.347 0.614052 4.11847 0
M  V30 6318 H 615.944 -2.04272 4.94143 0
M  V30 6319 H 616.287 -2.53591 3.30148 0
M  V30 6320 H 616.82 -0.933959 3.86681 0
M  V30 6321 H 613.559 0.419277 6.54158 0
M  V30 6322 H 613.079 -1.16217 5.88433 0
M  V30 6323 H 614.758 -0.883577 6.40938 0
M  V30 6324 N 614.89 -1.56749 -0.16351 0
M  V30 6325 C 616.137 -1.82434 -0.878866 0
M  V30 6326 C 616.465 -0.688557 -1.81904 0
M  V30 6327 O 615.72 0.323644 -1.93005 0
M  V30 6328 C 616.019 -3.14342 -1.70071 0
M  V30 6329 C 615.685 -4.41647 -0.908775 0
M  V30 6330 C 614.347 -4.76224 -0.690236 0
M  V30 6331 C 616.699 -5.19998 -0.353815 0
M  V30 6332 C 614.027 -5.86624 0.0942374 0
M  V30 6333 C 616.379 -6.3122 0.41761 0
M  V30 6334 C 615.043 -6.64358 0.646879 0
M  V30 6335 H 614.313 -0.667574 -0.3216 0
M  V30 6336 H 616.96 -1.90963 -0.14337 0
M  V30 6337 H 615.265 -3.0119 -2.50583 0
M  V30 6338 H 616.962 -3.31426 -2.25738 0
M  V30 6339 H 613.552 -4.1453 -1.08916 0
M  V30 6340 H 617.736 -4.93673 -0.509975 0
M  V30 6341 H 612.992 -6.10751 0.281529 0
M  V30 6342 H 617.166 -6.91133 0.854849 0
M  V30 6343 H 614.793 -7.49742 1.25662 0
M  V30 6344 N 616.368 0.432326 -1.51554 0
M  V30 6345 C 617.298 1.53242 -1.76179 0
M  V30 6346 C 618.279 1.58717 -0.611801 0
M  V30 6347 O 619.464 1.74364 -0.855033 0
M  V30 6348 C 616.594 2.91278 -1.89141 0
M  V30 6349 C 615.548 3.00663 -3.04608 0
M  V30 6350 C 614.874 4.40728 -3.02759 0
M  V30 6351 C 616.174 2.74281 -4.44485 0
M  V30 6352 H 617.868 1.32886 -2.68294 0
M  V30 6353 H 615.414 0.637841 -1.29103 0
M  V30 6354 H 617.367 3.68203 -2.04951 0
M  V30 6355 H 616.091 3.12877 -0.936785 0
M  V30 6356 H 614.75 2.26179 -2.88511 0
M  V30 6357 H 614.398 4.59301 -2.05065 0
M  V30 6358 H 614.098 4.47936 -3.80299 0
M  V30 6359 H 615.622 5.19619 -3.20669 0
M  V30 6360 H 617.036 3.40936 -4.60907 0
M  V30 6361 H 615.433 2.92893 -5.23769 0
M  V30 6362 H 616.503 1.69856 -4.54177 0
M  V30 6363 N 617.846 1.41785 0.688094 0
M  V30 6364 C 618.756 1.46596 1.83158 0
M  V30 6365 C 619.772 0.355862 1.70322 0
M  V30 6366 O 620.948 0.604737 1.92106 0
M  V30 6367 C 618.013 1.35322 3.192 0
M  V30 6368 C 617.074 2.56711 3.4409 0
M  V30 6369 C 616.307 2.45965 4.73642 0
M  V30 6370 O 616.53 1.48827 5.50642 0
M  V30 6371 O 615.464 3.35859 4.99482 0
M  V30 6372 H 619.29 2.43083 1.82056 0
M  V30 6373 H 616.875 1.23404 0.842126 0
M  V30 6374 H 618.757 1.31347 4.00407 0
M  V30 6375 H 617.432 0.419536 3.2097 0
M  V30 6376 H 616.339 2.66262 2.62784 0
M  V30 6377 H 617.672 3.48933 3.47141 0
M  V30 6378 N 619.324 -0.923095 1.27737 0
M  V30 6379 C 620.74 -1.19985 1.05241 0
M  V30 6380 C 620.94 -2.00391 -0.21113 0
M  V30 6381 O 619.996 -2.35324 -0.915366 0
M  V30 6382 C 621.309 -1.94352 2.29451 0
M  V30 6383 C 622.857 -2.07273 2.34536 0
M  V30 6384 C 623.332 -2.85046 3.58487 0
M  V30 6385 N 624.823 -2.92612 3.59072 0
M  V30 6386 C 625.558 -3.53266 4.51654 0
M  V30 6387 N 625.054 -4.15274 5.54545 0
M  V30 6388 N 626.847 -3.50714 4.39268 0
M  V30 6389 H 618.998 -0.386042 2.08862 0
M  V30 6390 H 621.261 -0.233407 0.918817 0
M  V30 6391 H 620.967 -1.42692 3.21453 0
M  V30 6392 H 620.841 -2.94947 2.3513 0
M  V30 6393 H 623.228 -2.58117 1.43037 0
M  V30 6394 H 623.309 -1.05884 2.32857 0
M  V30 6395 H 622.953 -2.34884 4.50324 0
M  V30 6396 H 622.883 -3.8673 3.57418 0
M  V30 6397 H 625.374 -2.48547 2.84663 0
M  V30 6398 H 625.687 -4.59507 6.21348 0
M  V30 6399 H 624.032 -4.13806 5.58382 0
M  V30 6400 H 627.223 -3.01475 3.58093 0
M  V30 6401 H 627.396 -3.97693 5.1161 0
M  V30 6402 N 620.802 -1.09834 -1.13024 0
M  V30 6403 C 621.75 -0.736283 -2.20639 0
M  V30 6404 C 622.744 0.264725 -1.67319 0
M  V30 6405 O 623.95 0.125745 -1.7956 0
M  V30 6406 H 620.325 -0.220136 -0.719058 0
M  V30 6407 H 622.296 -1.65295 -2.48436 0
M  V30 6408 C 621.045 -0.177544 -3.47246 0
M  V30 6409 H 620.368 -0.939009 -3.88616 0
M  V30 6410 H 621.808 0.0378007 -4.23983 0
M  V30 6411 C 620.267 1.08824 -3.1884 0
M  V30 6412 O 620.797 2.1708 -3.37993 0
M  V30 6413 N 619.003 1.00442 -2.7269 0
M  V30 6414 H 618.55 0.123383 -2.57304 0
M  V30 6415 H 618.508 1.85206 -2.5406 0
M  V30 6416 N 622.28 1.30327 -0.886154 0
M  V30 6417 C 623.529 1.95373 -0.501243 0
M  V30 6418 C 623.842 1.70722 0.954634 0
M  V30 6419 O 625.048 2.29761 1.44644 0
M  V30 6420 C 623.504 3.49828 -0.845493 0
M  V30 6421 C 623.112 3.83296 -2.31922 0
M  V30 6422 C 624.856 4.2118 -0.529838 0
M  V30 6423 C 622.763 5.30935 -2.60504 0
M  V30 6424 H 621.693 0.731274 -0.183722 0
M  V30 6425 H 624.344 1.48258 -1.08129 0
M  V30 6426 H 622.726 3.95522 -0.19452 0
M  V30 6427 H 623.9 3.48508 -3.01461 0
M  V30 6428 H 622.215 3.2505 -2.60253 0
M  V30 6429 H 624.812 5.29825 -0.720401 0
M  V30 6430 H 625.155 4.12902 0.530828 0
M  V30 6431 H 625.688 3.81173 -1.13806 0
M  V30 6432 H 622.427 5.44265 -3.65316 0
M  V30 6433 H 621.947 5.67019 -1.95575 0
M  V30 6434 H 623.626 5.98381 -2.46066 0
M  V30 6435 N 623.758 0.647228 1.43697 0
M  V30 6436 C 624.691 -0.097646 2.27991 0
M  V30 6437 C 625.669 -0.83571 1.3948 0
M  V30 6438 O 626.853 -0.836509 1.68922 0
M  V30 6439 C 623.98 -1.14484 3.18765 0
M  V30 6440 C 623.026 -0.505503 4.23494 0
M  V30 6441 S 623.859 0.716471 5.30685 0
M  V30 6442 C 625.015 -0.330339 6.25028 0
M  V30 6443 H 625.248 0.617417 2.90818 0
M  V30 6444 H 622.781 0.435881 1.4812 0
M  V30 6445 H 624.739 -1.74403 3.7161 0
M  V30 6446 H 623.4 -1.83219 2.55127 0
M  V30 6447 H 622.593 -1.29473 4.87086 0
M  V30 6448 H 622.195 0.0194377 3.73995 0
M  V30 6449 H 624.487 -1.19828 6.66819 0
M  V30 6450 H 625.43 0.270409 7.07583 0
M  V30 6451 H 625.838 -0.663459 5.60588 0
M  V30 6452 N 625.236 -1.5273 0.388769 0
M  V30 6453 C 626.482 -2.01871 -0.193877 0
M  V30 6454 C 626.815 -1.27475 -1.46505 0
M  V30 6455 O 626.09 -0.375063 -1.90849 0
M  V30 6456 C 626.373 -3.5712 -0.462336 0
M  V30 6457 C 626.226 -4.42186 0.824091 0
M  V30 6458 C 627.545 -4.21881 -1.25319 0
M  V30 6459 H 624.664 -0.733764 -0.0689899 0
M  V30 6460 H 627.306 -1.82796 0.518231 0
M  V30 6461 H 625.456 -3.73504 -1.06896 0
M  V30 6462 H 627.128 -4.37554 1.46096 0
M  V30 6463 H 625.371 -4.09219 1.43952 0
M  V30 6464 H 626.042 -5.48828 0.590905 0
M  V30 6465 H 628.518 -4.0947 -0.73981 0
M  V30 6466 H 627.394 -5.30487 -1.40977 0
M  V30 6467 H 627.655 -3.79478 -2.26824 0
M  V30 6468 N 626.714 -0.118576 -1.57153 0
M  V30 6469 C 627.963 0.539339 -1.94355 0
M  V30 6470 C 628.276 1.67858 -1.00415 0
M  V30 6471 O 629.482 2.39922 -1.27081 0
M  V30 6472 C 627.938 1.01082 -3.45414 0
M  V30 6473 C 627.546 -0.0999402 -4.47889 0
M  V30 6474 C 629.29 1.64013 -3.91535 0
M  V30 6475 C 627.197 0.388212 -5.90124 0
M  V30 6476 H 626.127 0.205247 -0.725527 0
M  V30 6477 H 628.778 -0.19836 -1.82425 0
M  V30 6478 H 627.16 1.80292 -3.52577 0
M  V30 6479 H 628.334 -0.876189 -4.52393 0
M  V30 6480 H 626.649 -0.635885 -4.11516 0
M  V30 6481 H 629.246 2.01649 -4.95219 0
M  V30 6482 H 629.589 2.51836 -3.31488 0
M  V30 6483 H 630.122 0.913439 -3.87171 0
M  V30 6484 H 626.861 -0.453963 -6.53926 0
M  V30 6485 H 626.381 1.13095 -5.89041 0
M  V30 6486 H 628.06 0.849574 -6.41398 0
M  V30 6487 N 628.193 1.56834 0.155195 0
M  V30 6488 C 629.604 1.72421 0.716082 0
M  V30 6489 C 629.955 0.731685 1.82046 0
M  V30 6490 O 629.08 -0.103481 2.16152 0
M  V30 6491 C 629.675 3.12629 1.30571 0
M  V30 6492 C 628.234 3.29846 1.81325 0
M  V30 6493 C 627.381 2.68359 0.698494 0
M  V30 6494 H 630.332 1.58544 -0.0703861 0
M  V30 6495 H 630.353 3.12174 2.1755 0
M  V30 6496 H 629.865 3.84844 0.501701 0
M  V30 6497 H 627.966 2.62614 2.64319 0
M  V30 6498 H 628.079 4.37727 1.9476 0
M  V30 6499 H 626.443 2.28604 1.12305 0
M  V30 6500 H 627.226 3.43171 -0.0939366 0
M  V30 6501 N 629.671 -0.424282 1.51781 0
M  V30 6502 C 630.948 -1.18464 1.55646 0
M  V30 6503 C 631.328 -2.08529 0.328438 0
M  V30 6504 O 630.676 -2.17969 -0.685693 0
M  V30 6505 C 630.886 -1.97514 2.87731 0
M  V30 6506 C 632.234 -2.54106 3.40169 0
M  V30 6507 O 633.258 -2.07711 2.89369 0
M  V30 6508 O 632.117 -3.38759 4.28841 0
M  V30 6509 H 629.211 -0.540055 0.626314 0
M  V30 6510 H 631.757 -0.432291 1.64102 0
M  V30 6511 H 630.529 -1.31444 3.68562 0
M  V30 6512 H 630.152 -2.79787 2.82498 0
M  V30 6513 N 631.149 -1.42148 -0.680565 0
M  V30 6514 C 632.079 -1.4796 -1.80638 0
M  V30 6515 C 633.06 -0.336728 -1.66734 0
M  V30 6516 O 634.245 -0.550247 -1.86242 0
M  V30 6517 C 631.375 -1.37569 -3.18892 0
M  V30 6518 C 630.329 -2.49823 -3.47524 0
M  V30 6519 C 629.655 -2.24491 -4.85291 0
M  V30 6520 C 630.955 -3.92144 -3.44994 0
M  V30 6521 H 632.649 -2.42184 -1.76032 0
M  V30 6522 H 630.195 -1.16566 -0.845481 0
M  V30 6523 H 632.148 -1.40243 -3.97379 0
M  V30 6524 H 630.872 -0.398357 -3.24162 0
M  V30 6525 H 629.531 -2.46455 -2.71395 0
M  V30 6526 H 629.179 -1.25066 -4.87204 0
M  V30 6527 H 628.879 -2.99722 -5.05411 0
M  V30 6528 H 630.403 -2.28906 -5.66069 0
M  V30 6529 H 631.817 -3.97145 -4.13459 0
M  V30 6530 H 630.214 -4.67179 -3.76648 0
M  V30 6531 H 631.284 -4.19225 -2.43676 0
M  V30 6532 N 632.627 0.916307 -1.28225 0
M  V30 6533 C 633.857 1.69654 -1.17902 0
M  V30 6534 C 634.265 1.87331 0.265268 0
M  V30 6535 O 633.608 1.39828 1.19137 0
M  V30 6536 C 633.67 3.11024 -1.80289 0
M  V30 6537 C 633.334 3.16643 -3.29525 0
M  V30 6538 C 634.331 2.98032 -4.25997 0
M  V30 6539 C 632.016 3.39238 -3.70436 0
M  V30 6540 C 634.01 3.01924 -5.61356 0
M  V30 6541 C 631.697 3.42762 -5.05922 0
M  V30 6542 C 632.695 3.24125 -6.01192 0
M  V30 6543 O 632.383 3.27406 -7.34208 0
M  V30 6544 H 632.115 0.537197 -0.41036 0
M  V30 6545 H 634.669 1.15547 -1.69817 0
M  V30 6546 H 632.899 3.66662 -1.22865 0
M  V30 6547 H 634.588 3.71063 -1.6452 0
M  V30 6548 H 635.354 2.80405 -3.95725 0
M  V30 6549 H 631.233 3.52791 -2.96749 0
M  V30 6550 H 634.777 2.87295 -6.35694 0
M  V30 6551 H 630.674 3.59916 -5.35846 0
M  V30 6552 H 631.442 3.43784 -7.42802 0
M  V30 6553 N 634.105 1.10431 1.1244 0
M  V30 6554 C 635.035 0.775143 2.20258 0
M  V30 6555 C 636.016 -0.25186 1.68225 0
M  V30 6556 O 637.201 -0.117637 1.93843 0
M  V30 6557 C 634.331 0.206133 3.46688 0
M  V30 6558 C 633.285 1.16382 4.11873 0
M  V30 6559 C 632.611 0.456014 5.32752 0
M  V30 6560 C 633.911 2.5104 4.58013 0
M  V30 6561 H 635.605 1.67665 2.4805 0
M  V30 6562 H 633.151 0.807595 1.19222 0
M  V30 6563 H 635.104 -0.036291 4.21384 0
M  V30 6564 H 633.828 -0.730614 3.18323 0
M  V30 6565 H 632.487 1.39169 3.39157 0
M  V30 6566 H 632.135 -0.485203 5.00654 0
M  V30 6567 H 631.835 1.09466 5.77314 0
M  V30 6568 H 633.359 0.222135 6.10196 0
M  V30 6569 H 634.773 2.32401 5.24083 0
M  V30 6570 H 633.17 3.10789 5.13352 0
M  V30 6571 H 634.24 3.11039 3.71998 0
M  V30 6572 N 635.583 -1.29855 0.893053 0
M  V30 6573 C 636.531 -2.29867 0.355512 0
M  V30 6574 C 637.525 -1.60502 -0.541801 0
M  V30 6575 O 638.731 -1.74902 -0.425339 0
M  V30 6576 H 635.106 -0.745805 0.0963247 0
M  V30 6577 H 637.077 -2.72655 1.21252 0
M  V30 6578 C 635.826 -3.453 -0.407801 0
M  V30 6579 H 635.149 -3.98864 0.273426 0
M  V30 6580 H 636.589 -4.17334 -0.748887 0
M  V30 6581 C 635.048 -2.96051 -1.60795 0
M  V30 6582 O 635.578 -2.96763 -2.7073 0
M  V30 6583 N 633.784 -2.51963 -1.44786 0
M  V30 6584 H 633.331 -2.51583 -0.553498 0
M  V30 6585 H 633.289 -2.1937 -2.2522 0
M  V30 6586 N 637.061 -0.65484 -1.43351 0
M  V30 6587 C 638.024 0.0263562 -2.29185 0
M  V30 6588 C 639.024 0.748951 -1.42293 0
M  V30 6589 O 640.214 0.589957 -1.63906 0
M  V30 6590 C 637.346 1.04806 -3.2439 0
M  V30 6591 H 638.539 -0.728883 -2.90908 0
M  V30 6592 H 636.092 -0.416149 -1.50658 0
M  V30 6593 H 636.827 1.83247 -2.67565 0
M  V30 6594 H 636.612 0.533554 -3.88453 0
M  V30 6595 H 638.102 1.52372 -3.88809 0
M  V30 6596 N 638.539 1.52521 -0.396863 0
M  V30 6597 C 639.787 2.01274 0.182536 0
M  V30 6598 C 640.108 1.28485 1.46685 0
M  V30 6599 O 639.378 0.407134 1.91623 0
M  V30 6600 H 637.958 0.743671 0.0704442 0
M  V30 6601 H 640.62 1.87547 -0.530289 0
M  V30 6602 H 639.716 3.09687 0.387385 0
M  V30 6603 N 640.017 0.126909 1.57088 0
M  V30 6604 C 641.265 -0.528123 1.95078 0
M  V30 6605 C 641.586 -1.66708 1.0116 0
M  V30 6606 O 640.856 -1.95777 0.0693527 0
M  V30 6607 H 639.436 -0.198087 0.720257 0
M  V30 6608 H 642.098 0.197703 1.93895 0
M  V30 6609 H 641.194 -0.917507 2.98309 0
M  V30 6610 N 641.495 -1.56914 -0.146875 0
M  V30 6611 C 642.741 -1.83628 -0.860741 0
M  V30 6612 C 643.074 -0.708528 -1.80813 0
M  V30 6613 O 642.349 0.287838 -1.92358 0
M  V30 6614 C 642.632 -3.20836 -1.63511 0
M  V30 6615 C 642.485 -4.44174 -0.709199 0
M  V30 6616 C 643.804 -3.55268 -2.59756 0
M  V30 6617 H 640.923 -0.667949 -0.311468 0
M  V30 6618 H 643.565 -1.89582 -0.125936 0
M  V30 6619 H 641.715 -3.15891 -2.26153 0
M  V30 6620 H 643.387 -4.61205 -0.0937781 0
M  V30 6621 H 641.63 -4.33796 -0.0187856 0
M  V30 6622 H 642.301 -5.36785 -1.28707 0
M  V30 6623 H 644.777 -3.60824 -2.07232 0
M  V30 6624 H 643.653 -4.52303 -3.10987 0
M  V30 6625 H 643.914 -2.81231 -3.41118 0
M  V30 6626 N 642.974 0.416227 -1.52004 0
M  V30 6627 C 644.202 1.18573 -1.69553 0
M  V30 6628 C 644.617 1.84472 -0.401919 0
M  V30 6629 O 643.974 1.71593 0.621463 0
M  V30 6630 C 644.025 2.25413 -2.82615 0
M  V30 6631 O 643.746 1.62205 -4.06966 0
M  V30 6632 C 645.247 3.15297 -3.11613 0
M  V30 6633 H 642.467 0.356582 -0.56841 0
M  V30 6634 H 645.011 0.490618 -1.98528 0
M  V30 6635 H 643.166 2.90604 -2.56179 0
M  V30 6636 H 643.58 2.3298 -4.69916 0
M  V30 6637 H 645.054 3.86351 -3.94255 0
M  V30 6638 H 645.531 3.77264 -2.24874 0
M  V30 6639 H 646.137 2.55783 -3.39787 0
M  V30 6640 N 644.452 1.42507 0.673017 0
M  V30 6641 C 645.698 1.43284 1.43519 0
M  V30 6642 C 646.031 0.049668 1.94136 0
M  V30 6643 O 645.306 -0.926369 1.71022 0
M  V30 6644 C 645.589 2.45874 2.63093 0
M  V30 6645 C 645.442 3.93388 2.18096 0
M  V30 6646 C 646.761 2.45431 3.6531 0
M  V30 6647 H 643.88 0.521752 0.520522 0
M  V30 6648 H 646.522 1.73932 0.764701 0
M  V30 6649 H 644.672 2.19869 3.20296 0
M  V30 6650 H 646.344 4.30379 1.66046 0
M  V30 6651 H 644.587 4.07169 1.49652 0
M  V30 6652 H 645.258 4.60752 3.03993 0
M  V30 6653 H 647.734 2.68561 3.17827 0
M  V30 6654 H 646.61 3.19189 4.46553 0
M  V30 6655 H 646.871 1.48092 4.16559 0
M  V30 6656 N 645.93 -0.909495 1.28709 0
M  V30 6657 C 647.155 -1.69801 1.1909 0
M  V30 6658 C 647.58 -1.86479 -0.246388 0
M  V30 6659 O 646.938 -1.37802 -1.17815 0
M  V30 6660 C 646.986 -3.06543 1.89904 0
M  V30 6661 O 646.09 -3.94268 1.2094 0
M  V30 6662 H 645.431 -0.519783 0.413185 0
M  V30 6663 H 647.961 -1.13689 1.70106 0
M  V30 6664 H 647.971 -3.56748 1.97977 0
M  V30 6665 H 646.646 -2.93722 2.94449 0
M  V30 6666 H 645.223 -3.52702 1.2106 0
M  V30 6667 N 647.408 -1.11026 -1.11852 0
M  V30 6668 C 648.638 -0.877544 -1.87037 0
M  V30 6669 C 649.046 0.575925 -1.80221 0
M  V30 6670 O 648.389 1.40916 -1.17849 0
M  V30 6671 C 648.451 -1.25529 -3.36872 0
M  V30 6672 C 648.115 -2.71704 -3.67459 0
M  V30 6673 C 649.112 -3.69931 -3.65304 0
M  V30 6674 C 646.797 -3.08243 -3.966 0
M  V30 6675 C 648.791 -5.02717 -3.9186 0
M  V30 6676 C 646.478 -4.41215 -4.22815 0
M  V30 6677 C 647.476 -5.38262 -4.20432 0
M  V30 6678 O 647.164 -6.68839 -4.45992 0
M  V30 6679 H 646.896 -0.314374 -0.598452 0
M  V30 6680 H 649.45 -1.48015 -1.42411 0
M  V30 6681 H 647.68 -0.595808 -3.82082 0
M  V30 6682 H 649.369 -0.999064 -3.93413 0
M  V30 6683 H 650.135 -3.43047 -3.42846 0
M  V30 6684 H 646.014 -2.33326 -3.97593 0
M  V30 6685 H 649.558 -5.78456 -3.89916 0
M  V30 6686 H 645.455 -4.67835 -4.44748 0
M  V30 6687 H 646.223 -6.74563 -4.63581 0
M  V30 6688 N 648.886 1.2938 -0.899927 0
M  V30 6689 C 650.133 1.9555 -0.525963 0
M  V30 6690 C 650.461 1.70945 0.927789 0
M  V30 6691 O 649.716 1.01545 1.67293 0
M  V30 6692 C 650.015 3.49114 -0.765113 0
M  V30 6693 C 649.681 3.93796 -2.19626 0
M  V30 6694 C 648.343 4.05707 -2.58758 0
M  V30 6695 C 650.695 4.16883 -3.12823 0
M  V30 6696 C 648.023 4.38074 -3.90267 0
M  V30 6697 C 650.375 4.50725 -4.4388 0
M  V30 6698 C 649.039 4.60845 -4.82885 0
M  V30 6699 H 648.309 0.715569 -0.192463 0
M  V30 6700 H 650.956 1.53972 -1.13863 0
M  V30 6701 H 649.261 3.91738 -0.069531 0
M  V30 6702 H 650.958 3.98409 -0.455144 0
M  V30 6703 H 647.548 3.85042 -1.88256 0
M  V30 6704 H 651.732 4.07147 -2.83804 0
M  V30 6705 H 646.988 4.44112 -4.20207 0
M  V30 6706 H 651.162 4.67538 -5.16121 0
M  V30 6707 H 648.789 4.85681 -5.84823 0
M  V30 6708 N 650.364 0.662433 1.43002 0
M  V30 6709 C 651.274 -0.0239199 2.34588 0
M  V30 6710 C 652.29 -0.802255 1.54402 0
M  V30 6711 O 653.466 -0.747401 1.87018 0
M  V30 6712 C 650.531 -0.972098 3.32793 0
M  V30 6713 C 649.592 -0.189673 4.28881 0
M  V30 6714 C 648.825 -1.09269 5.22395 0
M  V30 6715 O 649.048 -2.33209 5.20547 0
M  V30 6716 O 647.982 -0.560136 5.99288 0
M  V30 6717 H 651.808 0.730171 2.94792 0
M  V30 6718 H 649.393 0.422635 1.43297 0
M  V30 6719 H 651.275 -1.51676 3.93157 0
M  V30 6720 H 649.95 -1.70626 2.75079 0
M  V30 6721 H 648.857 0.398794 3.71968 0
M  V30 6722 H 650.19 0.50511 4.89601 0
M  V30 6723 N 651.842 -1.52309 0.404946 0
M  V30 6724 C 653.088 -2.02731 -0.164857 0
M  V30 6725 C 653.443 -1.28543 -1.43159 0
M  V30 6726 O 652.736 -0.381883 -1.87756 0
M  V30 6727 C 652.93 -3.54284 -0.470895 0
M  V30 6728 C 652.759 -4.43152 0.764625 0
M  V30 6729 C 651.529 -4.88594 1.28858 0
M  V30 6730 C 653.727 -4.874 1.64152 0
M  V30 6731 N 651.709 -5.61577 2.48001 0
M  V30 6732 C 653.08 -5.59121 2.67924 0
M  V30 6733 C 655.135 -4.69421 1.65978 0
M  V30 6734 C 653.838 -6.14772 3.73427 0
M  V30 6735 C 655.864 -5.25966 2.70396 0
M  V30 6736 C 655.226 -5.97606 3.7289 0
M  V30 6737 H 651.325 -0.78169 -0.0220025 0
M  V30 6738 H 653.909 -1.86522 0.558354 0
M  V30 6739 H 652.08 -3.70574 -1.16315 0
M  V30 6740 H 653.812 -3.91394 -1.02921 0
M  V30 6741 H 650.567 -4.6596 0.847232 0
M  V30 6742 H 650.991 -6.02712 3.08329 0
M  V30 6743 H 655.633 -4.13524 0.88079 0
M  V30 6744 H 653.351 -6.69743 4.52184 0
M  V30 6745 H 656.937 -5.13926 2.72711 0
M  V30 6746 H 655.817 -6.40577 4.52361 0
M  V30 6747 N 653.32 -0.135238 -1.57019 0
M  V30 6748 C 654.25 0.805235 -2.19176 0
M  V30 6749 C 655.231 1.2656 -1.13651 0
M  V30 6750 O 656.416 1.32528 -1.4195 0
M  V30 6751 C 653.546 2.04914 -2.80406 0
M  V30 6752 C 652.5 1.72598 -3.91655 0
M  V30 6753 C 651.826 3.04154 -4.39766 0
M  V30 6754 C 653.126 0.981709 -5.12991 0
M  V30 6755 H 654.82 0.287232 -2.98019 0
M  V30 6756 H 652.366 0.136714 -1.4335 0
M  V30 6757 H 654.319 2.71178 -3.22553 0
M  V30 6758 H 653.043 2.59067 -1.98877 0
M  V30 6759 H 651.702 1.08717 -3.50109 0
M  V30 6760 H 651.35 3.56274 -3.55075 0
M  V30 6761 H 651.05 2.83299 -5.14796 0
M  V30 6762 H 652.574 3.71509 -4.84576 0
M  V30 6763 H 653.988 1.5462 -5.52056 0
M  V30 6764 H 652.385 0.873533 -5.93708 0
M  V30 6765 H 653.455 -0.0286887 -4.84892 0
M  V30 6766 N 654.798 1.5699 0.138552 0
M  V30 6767 C 655.745 1.98899 1.17081 0
M  V30 6768 C 656.715 0.857922 1.42228 0
M  V30 6769 O 657.9 1.12065 1.54422 0
M  V30 6770 C 655.04 2.38189 2.4972 0
M  V30 6771 C 654.153 3.64624 2.31674 0
M  V30 6772 C 653.288 3.9298 3.57407 0
M  V30 6773 C 652.327 5.1266 3.34435 0
M  V30 6774 N 651.464 5.36983 4.5232 0
M  V30 6775 H 656.304 2.86881 0.80642 0
M  V30 6776 H 653.841 1.41925 0.386727 0
M  V30 6777 H 655.799 2.59 3.2707 0
M  V30 6778 H 654.429 1.53275 2.84089 0
M  V30 6779 H 653.481 3.51542 1.45337 0
M  V30 6780 H 654.793 4.52131 2.10664 0
M  V30 6781 H 653.947 4.14335 4.43183 0
M  V30 6782 H 652.686 3.03912 3.8143 0
M  V30 6783 H 651.691 4.9117 2.47048 0
M  V30 6784 H 652.916 6.03288 3.11802 0
M  V30 6785 H 650.862 4.50871 4.76499 0
M  V30 6786 H 650.779 6.18775 4.34343 0
M  V30 6787 H 652.047 5.62842 5.39285 0
M  V30 6788 N 656.276 -0.40816 1.52223 0
M  V30 6789 C 657.224 -1.51788 1.76248 0
M  V30 6790 C 658.218 -1.57264 0.629638 0
M  V30 6791 O 659.424 -1.60659 0.811704 0
M  V30 6792 H 655.799 -0.504823 0.557367 0
M  V30 6793 H 657.77 -1.2871 2.69214 0
M  V30 6794 C 656.519 -2.89145 1.93107 0
M  V30 6795 H 655.842 -2.85674 2.79697 0
M  V30 6796 H 657.282 -3.66082 2.13916 0
M  V30 6797 C 655.741 -3.29581 0.698431 0
M  V30 6798 O 656.271 -4.01479 -0.133238 0
M  V30 6799 N 654.477 -2.85651 0.53405 0
M  V30 6800 H 654.024 -2.2731 1.21194 0
M  V30 6801 H 653.982 -3.13065 -0.289387 0
M  V30 6802 N 657.755 -1.42862 -0.66545 0
M  V30 6803 C 658.685 -1.49867 -1.79059 0
M  V30 6804 C 659.666 -0.354394 -1.66367 0
M  V30 6805 O 660.851 -0.569969 -1.85647 0
M  V30 6806 C 657.981 -1.40943 -3.17415 0
M  V30 6807 C 656.935 -2.53495 -3.44854 0
M  V30 6808 C 656.261 -2.29626 -4.82883 0
M  V30 6809 C 657.561 -3.95781 -3.40815 0
M  V30 6810 H 659.255 -2.44037 -1.73453 0
M  V30 6811 H 656.801 -1.17456 -0.833071 0
M  V30 6812 H 658.754 -1.4445 -3.95869 0
M  V30 6813 H 657.478 -0.432716 -3.23721 0
M  V30 6814 H 656.137 -2.4932 -2.68766 0
M  V30 6815 H 655.785 -1.30226 -4.8585 0
M  V30 6816 H 655.485 -3.05065 -5.02204 0
M  V30 6817 H 657.009 -2.34897 -5.63609 0
M  V30 6818 H 658.423 -4.01508 -4.09224 0
M  V30 6819 H 656.82 -4.71148 -3.71672 0
M  V30 6820 H 657.89 -4.21786 -2.39216 0
M  V30 6821 N 659.233 0.902656 -1.29189 0
M  V30 6822 C 660.181 2.0278 -1.13943 0
M  V30 6823 C 661.175 1.69308 -0.055787 0
M  V30 6824 O 662.381 1.78707 -0.215371 0
M  V30 6825 H 658.756 0.664595 -0.351877 0
M  V30 6826 H 660.727 2.12778 -2.09208 0
M  V30 6827 C 659.476 3.37657 -0.82966 0
M  V30 6828 H 658.799 3.63913 -1.65551 0
M  V30 6829 H 660.239 4.17078 -0.762998 0
M  V30 6830 C 658.698 3.33648 0.466991 0
M  V30 6831 O 659.228 3.72886 1.49395 0
M  V30 6832 N 657.434 2.86745 0.471761 0
M  V30 6833 H 656.981 2.55009 -0.364406 0
M  V30 6834 H 656.939 2.84446 1.33933 0
M  V30 6835 N 660.711 1.11618 1.11262 0
M  V30 6836 C 661.661 0.745274 2.15475 0
M  V30 6837 C 662.645 -0.251585 1.58921 0
M  V30 6838 O 663.837 -0.0584093 1.76904 0
M  V30 6839 C 660.966 0.192128 3.42762 0
M  V30 6840 C 660.052 1.21676 4.0627 0
M  V30 6841 N 660.443 2.41158 4.44608 0
M  V30 6842 C 658.741 1.06013 4.33217 0
M  V30 6843 C 659.442 3.0652 4.94389 0
M  V30 6844 N 658.418 2.33994 4.9066 0
M  V30 6845 H 662.22 1.65462 2.42898 0
M  V30 6846 H 659.734 0.995695 1.28295 0
M  V30 6847 H 661.731 -0.0917339 4.16799 0
M  V30 6848 H 660.391 -0.711778 3.16802 0
M  V30 6849 H 661.402 2.786 4.3658 0
M  V30 6850 H 658.079 0.212809 4.16957 0
M  V30 6851 H 659.469 4.08225 5.33669 0
M  V30 6852 N 662.189 -1.289 0.906776 0
M  V30 6853 C 663.435 -1.95558 0.53712 0
M  V30 6854 C 663.768 -1.71262 -0.915582 0
M  V30 6855 O 663.043 -1.02961 -1.65013 0
M  V30 6856 C 663.326 -3.50198 0.838645 0
M  V30 6857 C 663.179 -3.83923 2.34357 0
M  V30 6858 C 664.498 -4.38861 0.329988 0
M  V30 6859 H 661.617 -0.710289 0.196617 0
M  V30 6860 H 664.259 -1.52392 1.13475 0
M  V30 6861 H 662.409 -3.87096 0.330024 0
M  V30 6862 H 664.081 -3.56933 2.92227 0
M  V30 6863 H 662.324 -3.31215 2.80141 0
M  V30 6864 H 662.995 -4.91883 2.5051 0
M  V30 6865 H 665.471 -4.08996 0.765609 0
M  V30 6866 H 664.347 -5.45931 0.570105 0
M  V30 6867 H 664.608 -4.35352 -0.769511 0
M  V30 6868 N 663.667 -0.670007 -1.42649 0
M  V30 6869 C 664.892 -0.196955 -2.06463 0
M  V30 6870 C 665.317 1.1352 -1.49983 0
M  V30 6871 O 664.675 1.705 -0.616397 0
M  V30 6872 C 664.723 -0.137381 -3.60338 0
M  V30 6873 O 663.827 0.895523 -4.02559 0
M  V30 6874 H 663.168 -0.102579 -0.656029 0
M  V30 6875 H 665.698 -0.917669 -1.82866 0
M  V30 6876 H 665.708 0.0403625 -4.0798 0
M  V30 6877 H 664.383 -1.10977 -4.0082 0
M  V30 6878 H 662.96 0.689209 -3.66476 0
M  V30 6879 N 665.145 1.52092 -0.413018 0
M  V30 6880 C 666.375 2.05974 0.160648 0
M  V30 6881 C 666.783 1.28267 1.39084 0
M  V30 6882 O 666.126 0.328805 1.80733 0
M  V30 6883 C 666.188 3.54918 0.572169 0
M  V30 6884 C 665.852 4.53705 -0.547826 0
M  V30 6885 C 666.849 5.00342 -1.41259 0
M  V30 6886 C 664.534 4.97089 -0.721627 0
M  V30 6887 C 666.528 5.89011 -2.43607 0
M  V30 6888 C 664.215 5.85554 -1.74841 0
M  V30 6889 C 665.213 6.3141 -2.60403 0
M  V30 6890 O 664.901 7.18123 -3.61323 0
M  V30 6891 H 664.633 0.675636 0.0221936 0
M  V30 6892 H 667.187 1.96931 -0.58373 0
M  V30 6893 H 665.417 3.61661 1.36889 0
M  V30 6894 H 667.106 3.91428 1.0742 0
M  V30 6895 H 667.872 4.67537 -1.28974 0
M  V30 6896 H 663.751 4.60954 -0.0652911 0
M  V30 6897 H 667.295 6.24725 -3.10425 0
M  V30 6898 H 663.192 6.17773 -1.87156 0
M  V30 6899 H 663.96 7.36244 -3.57613 0
M  V30 6900 N 666.623 0.143563 1.56945 0
M  V30 6901 C 667.871 -0.507402 1.95627 0
M  V30 6902 C 668.192 -1.65626 1.02922 0
M  V30 6903 O 667.462 -1.95693 0.0901136 0
M  V30 6904 H 666.042 -0.190436 0.722318 0
M  V30 6905 H 668.704 0.218257 1.93674 0
M  V30 6906 H 667.8 -0.885816 2.99265 0
M  V30 6907 N 668.101 -1.57061 -0.130224 0
M  V30 6908 C 669.517 -1.52103 -0.483413 0
M  V30 6909 C 669.717 -0.854752 -1.82473 0
M  V30 6910 O 668.773 -0.432342 -2.48771 0
M  V30 6911 C 670.086 -2.96872 -0.47825 0
M  V30 6912 C 671.634 -3.07902 -0.562592 0
M  V30 6913 C 672.109 -4.54211 -0.587929 0
M  V30 6914 N 673.6 -4.58621 -0.649684 0
M  V30 6915 C 674.335 -5.69227 -0.690551 0
M  V30 6916 N 673.831 -6.89358 -0.689743 0
M  V30 6917 N 675.624 -5.57304 -0.732708 0
M  V30 6918 H 667.775 -1.98764 0.748779 0
M  V30 6919 H 670.038 -0.907248 0.274965 0
M  V30 6920 H 669.744 -3.48944 0.439444 0
M  V30 6921 H 669.618 -3.53716 -1.31013 0
M  V30 6922 H 672.005 -2.5584 -1.47071 0
M  V30 6923 H 672.086 -2.54073 0.296764 0
M  V30 6924 H 671.73 -5.06915 0.316096 0
M  V30 6925 H 671.66 -5.0584 -1.46401 0
M  V30 6926 H 674.151 -3.72146 -0.656927 0
M  V30 6927 H 674.464 -7.69408 -0.723239 0
M  V30 6928 H 672.809 -6.91884 -0.657347 0
M  V30 6929 H 676 -4.62363 -0.730625 0
M  V30 6930 H 676.173 -6.43515 -0.76109 0
M  V30 6931 N 669.579 0.400081 -1.52437 0
M  V30 6932 C 670.509 1.4947 -1.7939 0
M  V30 6933 C 671.49 1.57383 -0.645329 0
M  V30 6934 O 672.675 1.72511 -0.891826 0
M  V30 6935 C 669.805 2.87201 -1.95276 0
M  V30 6936 C 668.759 2.94134 -3.10917 0
M  V30 6937 C 668.085 4.34207 -3.1204 0
M  V30 6938 C 669.385 2.64791 -4.50203 0
M  V30 6939 H 671.079 1.27165 -2.71052 0
M  V30 6940 H 668.625 0.610312 -1.30427 0
M  V30 6941 H 670.578 3.63772 -2.12715 0
M  V30 6942 H 669.302 3.10819 -1.00294 0
M  V30 6943 H 667.961 2.20009 -2.93243 0
M  V30 6944 H 667.609 4.54848 -2.14761 0
M  V30 6945 H 667.309 4.39768 -3.89715 0
M  V30 6946 H 668.833 5.127 -3.31619 0
M  V30 6947 H 670.247 3.31083 -4.68035 0
M  V30 6948 H 668.644 2.81717 -5.29864 0
M  V30 6949 H 669.714 1.60184 -4.57678 0
M  V30 6950 N 671.057 1.43213 0.657864 0
M  V30 6951 C 672.285 1.48015 1.44566 0
M  V30 6952 C 672.7 0.0965951 1.88553 0
M  V30 6953 O 672.057 -0.892221 1.59203 0
M  V30 6954 C 672.108 2.42199 2.68369 0
M  V30 6955 O 671.829 3.75173 2.26223 0
M  V30 6956 C 673.33 2.56195 3.61772 0
M  V30 6957 H 670.55 0.502861 0.444266 0
M  V30 6958 H 673.094 1.87907 0.806917 0
M  V30 6959 H 671.249 2.05514 3.28394 0
M  V30 6960 H 671.663 4.25776 3.06293 0
M  V30 6961 H 673.137 3.26182 4.4532 0
M  V30 6962 H 673.614 1.60534 4.0881 0
M  V30 6963 H 674.22 2.93671 3.07632 0
M  V30 6964 N 672.536 -0.895792 1.29666 0
M  V30 6965 C 673.783 -1.64664 1.17864 0
M  V30 6966 C 674.111 -1.92631 -0.26902 0
M  V30 6967 O 673.366 -1.53787 -1.21029 0
M  V30 6968 C 673.665 -3.00075 1.94139 0
M  V30 6969 C 673.331 -2.91702 3.43833 0
M  V30 6970 C 671.993 -2.89126 3.84656 0
M  V30 6971 C 674.345 -2.80622 4.39205 0
M  V30 6972 C 671.673 -2.73293 5.1916 0
M  V30 6973 C 674.025 -2.66329 5.73805 0
M  V30 6974 C 672.689 -2.62121 6.1388 0
M  V30 6975 H 671.959 -0.602549 0.431295 0
M  V30 6976 H 674.606 -1.04234 1.60648 0
M  V30 6977 H 672.911 -3.64394 1.43958 0
M  V30 6978 H 674.608 -3.57111 1.82408 0
M  V30 6979 H 671.198 -2.94511 3.11386 0
M  V30 6980 H 675.382 -2.81686 4.08615 0
M  V30 6981 H 670.638 -2.68443 5.49316 0
M  V30 6982 H 674.812 -2.56727 6.47352 0
M  V30 6983 H 672.439 -2.49611 7.18052 0
M  V30 6984 N 674.014 -1.12206 -1.10668 0
M  V30 6985 C 674.961 -0.787716 -2.16942 0
M  V30 6986 C 675.931 0.244442 -1.64291 0
M  V30 6987 O 677.116 0.119558 -1.90425 0
M  V30 6988 C 674.256 -0.24584 -3.44223 0
M  V30 6989 C 673.369 -1.33552 -4.10838 0
M  V30 6990 C 672.504 -0.753337 -5.25831 0
M  V30 6991 C 671.543 -1.82231 -5.84344 0
M  V30 6992 N 670.68 -1.25902 -6.90719 0
M  V30 6993 H 675.52 -1.69809 -2.44885 0
M  V30 6994 H 673.057 -0.847862 -1.20207 0
M  V30 6995 H 675.015 0.0863639 -4.17111 0
M  V30 6996 H 673.645 0.627702 -3.16638 0
M  V30 6997 H 672.697 -1.78454 -3.35944 0
M  V30 6998 H 674.009 -2.14396 -4.50373 0
M  V30 6999 H 673.163 -0.37166 -6.05561 0
M  V30 7000 H 671.902 0.0863297 -4.87624 0
M  V30 7001 H 670.907 -2.2132 -5.03287 0
M  V30 7002 H 672.132 -2.66515 -6.24617 0
M  V30 7003 H 670.078 -0.44114 -6.54515 0
M  V30 7004 H 669.995 -2.00408 -7.28953 0
M  V30 7005 H 671.263 -0.904498 -7.74235 0
M  V30 7006 N 675.492 1.28418 -0.913599 0
M  V30 7007 C 676.722 1.98817 -0.56172 0
M  V30 7008 C 677.13 1.68457 0.861321 0
M  V30 7009 O 676.473 0.933653 1.58204 0
M  V30 7010 C 676.535 3.52801 -0.690785 0
M  V30 7011 C 676.199 4.0675 -2.08334 0
M  V30 7012 C 677.196 4.20597 -3.05604 0
M  V30 7013 C 674.881 4.41445 -2.39648 0
M  V30 7014 C 676.875 4.68392 -4.32305 0
M  V30 7015 C 674.562 4.88934 -3.66588 0
M  V30 7016 C 675.56 5.02364 -4.6273 0
M  V30 7017 O 675.248 5.48817 -5.87414 0
M  V30 7018 H 674.98 0.641608 -0.212874 0
M  V30 7019 H 677.534 1.64584 -1.22887 0
M  V30 7020 H 675.764 3.86686 0.0334336 0
M  V30 7021 H 677.453 4.04422 -0.346031 0
M  V30 7022 H 678.219 3.94067 -2.8273 0
M  V30 7023 H 674.098 4.30242 -1.65567 0
M  V30 7024 H 677.642 4.7879 -5.07352 0
M  V30 7025 H 673.539 5.14904 -3.89287 0
M  V30 7026 H 674.307 5.67103 -5.90201 0
M  V30 7027 N 676.97 0.677563 1.42291 0
M  V30 7028 C 677.88 0.000962654 2.346 0
M  V30 7029 C 678.896 -0.785833 1.55244 0
M  V30 7030 O 680.072 -0.727523 1.87801 0
M  V30 7031 C 677.137 -0.936746 3.33805 0
M  V30 7032 C 676.198 -0.144173 4.29058 0
M  V30 7033 C 675.431 -1.03722 5.23524 0
M  V30 7034 O 675.654 -2.27675 5.22992 0
M  V30 7035 O 674.588 -0.496542 5.99848 0
M  V30 7036 H 678.414 0.761397 2.94001 0
M  V30 7037 H 675.999 0.43781 1.42841 0
M  V30 7038 H 677.881 -1.47497 3.94744 0
M  V30 7039 H 676.556 -1.67698 2.76874 0
M  V30 7040 H 675.463 0.438224 3.71524 0
M  V30 7041 H 676.796 0.55701 4.89038 0
M  V30 7042 N 678.448 -1.51871 0.421078 0
M  V30 7043 C 679.864 -1.59435 0.0725398 0
M  V30 7044 C 680.064 -1.43315 -1.41644 0
M  V30 7045 O 679.12 -1.26614 -2.18461 0
M  V30 7046 C 680.433 -2.9509 0.578132 0
M  V30 7047 C 681.981 -3.08356 0.537149 0
M  V30 7048 C 682.456 -4.4651 1.01945 0
M  V30 7049 N 683.947 -4.52784 0.976758 0
M  V30 7050 C 684.682 -5.57976 1.32099 0
M  V30 7051 N 684.178 -6.70664 1.73727 0
M  V30 7052 N 685.971 -5.48248 1.2402 0
M  V30 7053 H 678.122 -1.60595 1.39007 0
M  V30 7054 H 680.385 -0.756138 0.571803 0
M  V30 7055 H 680.091 -3.12205 1.61929 0
M  V30 7056 H 679.965 -3.772 -0.00578374 0
M  V30 7057 H 682.352 -2.90919 -0.494991 0
M  V30 7058 H 682.433 -2.28125 1.15727 0
M  V30 7059 H 682.077 -4.64692 2.04997 0
M  V30 7060 H 682.007 -5.25256 0.376023 0
M  V30 7061 H 684.498 -3.71898 0.670851 0
M  V30 7062 H 684.811 -7.46932 1.98274 0
M  V30 7063 H 683.156 -6.71914 1.77641 0
M  V30 7064 H 686.347 -4.59095 0.913756 0
M  V30 7065 H 686.52 -6.30119 1.51176 0
M  V30 7066 N 679.926 -0.151884 -1.56866 0
M  V30 7067 C 681.203 0.543328 -1.87902 0
M  V30 7068 C 681.583 1.82636 -1.05864 0
M  V30 7069 O 680.931 2.28028 -0.146868 0
M  V30 7070 C 681.141 0.804056 -3.39611 0
M  V30 7071 C 682.489 1.14267 -4.08935 0
M  V30 7072 O 683.513 0.893248 -3.44818 0
M  V30 7073 O 682.372 1.61229 -5.22176 0
M  V30 7074 H 679.466 0.277724 -0.778973 0
M  V30 7075 H 682.012 -0.188862 -1.68646 0
M  V30 7076 H 680.784 -0.103772 -3.91162 0
M  V30 7077 H 680.407 1.59025 -3.64413 0
M  V30 7078 N 681.404 1.57128 0.121893 0
M  V30 7079 C 682.629 1.89254 0.848385 0
M  V30 7080 C 683.054 0.743527 1.72781 0
M  V30 7081 O 682.412 -0.306056 1.78698 0
M  V30 7082 C 682.46 3.20113 1.66012 0
M  V30 7083 O 681.564 3.05815 2.76679 0
M  V30 7084 H 680.905 0.621103 0.234793 0
M  V30 7085 H 683.435 2.0433 0.10516 0
M  V30 7086 H 683.445 3.52761 2.04996 0
M  V30 7087 H 682.12 4.03336 1.01452 0
M  V30 7088 H 680.697 2.84627 2.40918 0
M  V30 7089 N 682.882 -0.391992 1.52647 0
M  V30 7090 C 683.83 -1.4991 1.77848 0
M  V30 7091 C 684.824 -1.56587 0.646282 0
M  V30 7092 O 686.03 -1.59789 0.828698 0
M  V30 7093 H 682.405 -0.498883 0.56269 0
M  V30 7094 H 684.376 -1.25847 2.70564 0
M  V30 7095 C 683.125 -2.87081 1.96163 0
M  V30 7096 H 682.448 -2.82692 2.82711 0
M  V30 7097 H 683.888 -3.63792 2.17787 0
M  V30 7098 C 682.347 -3.28822 0.733348 0
M  V30 7099 O 682.877 -4.01598 -0.0906481 0
M  V30 7100 N 681.083 -2.85068 0.564317 0
M  V30 7101 H 680.63 -2.26012 1.23598 0
M  V30 7102 H 680.588 -3.13355 -0.256166 0
M  V30 7103 N 684.36 -1.4356 -0.65026 0
M  V30 7104 C 685.59 -1.48563 -1.4357 0
M  V30 7105 C 685.998 -0.103041 -1.88919 0
M  V30 7106 O 685.341 0.897602 -1.60277 0
M  V30 7107 C 685.403 -2.37181 -2.70158 0
M  V30 7108 C 685.067 -3.84673 -2.4673 0
M  V30 7109 C 686.064 -4.75704 -2.09765 0
M  V30 7110 C 683.749 -4.29189 -2.60963 0
M  V30 7111 C 685.743 -6.09249 -1.87334 0
M  V30 7112 C 683.43 -5.62787 -2.38147 0
M  V30 7113 C 684.428 -6.52634 -2.01389 0
M  V30 7114 O 684.116 -7.83761 -1.78813 0
M  V30 7115 H 683.848 -0.506743 -0.447423 0
M  V30 7116 H 686.402 -1.89001 -0.80423 0
M  V30 7117 H 684.632 -1.91636 -3.35876 0
M  V30 7118 H 686.321 -2.33354 -3.32116 0
M  V30 7119 H 687.087 -4.42589 -1.98343 0
M  V30 7120 H 682.966 -3.59529 -2.88548 0
M  V30 7121 H 686.51 -6.7934 -1.58567 0
M  V30 7122 H 682.407 -5.95469 -2.49173 0
M  V30 7123 H 683.175 -7.95368 -1.93214 0
M  V30 7124 N 685.838 0.888903 -1.30139 0
M  V30 7125 C 686.788 1.9814 -1.12803 0
M  V30 7126 C 687.772 1.60839 -0.0443137 0
M  V30 7127 O 688.964 1.74971 -0.267208 0
M  V30 7128 C 686.093 3.33416 -0.817849 0
M  V30 7129 C 685.179 3.77043 -1.94163 0
M  V30 7130 N 685.57 3.92805 -3.18651 0
M  V30 7131 C 683.868 4.06407 -1.8371 0
M  V30 7132 C 684.569 4.29746 -3.92038 0
M  V30 7133 N 683.545 4.3939 -3.20059 0
M  V30 7134 H 687.347 2.08411 -2.07225 0
M  V30 7135 H 684.861 1.07845 -1.21421 0
M  V30 7136 H 686.858 4.11405 -0.674668 0
M  V30 7137 H 685.518 3.24484 0.118344 0
M  V30 7138 H 686.529 3.78042 -3.53984 0
M  V30 7139 H 683.206 4.05972 -0.974331 0
M  V30 7140 H 684.596 4.49695 -4.99223 0
M  V30 7141 N 687.317 1.12792 1.10072 0
M  V30 7142 C 688.247 0.821688 2.18565 0
M  V30 7143 C 689.228 -0.21612 1.68721 0
M  V30 7144 O 690.413 -0.0764932 1.94049 0
M  V30 7145 C 687.543 0.279624 3.46172 0
M  V30 7146 C 686.497 1.25092 4.09312 0
M  V30 7147 C 685.823 0.568916 5.31665 0
M  V30 7148 C 687.123 2.60699 4.52585 0
M  V30 7149 H 688.817 1.72888 2.44438 0
M  V30 7150 H 686.363 0.832702 1.17482 0
M  V30 7151 H 688.316 0.053099 4.21367 0
M  V30 7152 H 687.04 -0.662929 3.19801 0
M  V30 7153 H 685.699 1.46332 3.36129 0
M  V30 7154 H 685.347 -0.378898 5.01571 0
M  V30 7155 H 685.047 1.21687 5.74862 0
M  V30 7156 H 686.571 0.351517 6.09587 0
M  V30 7157 H 687.985 2.43465 5.19035 0
M  V30 7158 H 686.382 3.21608 5.06644 0
M  V30 7159 H 687.452 3.1886 3.65317 0
M  V30 7160 N 688.795 -1.27931 0.920396 0
M  V30 7161 C 689.725 -2.29487 0.431024 0
M  V30 7162 C 690.706 -1.62435 -0.504861 0
M  V30 7163 O 691.891 -1.89797 -0.411176 0
M  V30 7164 C 689.021 -3.45788 -0.323709 0
M  V30 7165 C 687.975 -4.24784 0.523658 0
M  V30 7166 C 687.301 -5.33488 -0.359809 0
M  V30 7167 C 688.601 -4.90874 1.78437 0
M  V30 7168 H 690.295 -2.70671 1.27975 0
M  V30 7169 H 687.841 -1.30121 0.616813 0
M  V30 7170 H 689.794 -4.15927 -0.676952 0
M  V30 7171 H 688.518 -3.03502 -1.2064 0
M  V30 7172 H 687.177 -3.56382 0.85951 0
M  V30 7173 H 686.825 -4.87445 -1.24124 0
M  V30 7174 H 686.525 -5.87247 0.203605 0
M  V30 7175 H 688.049 -6.06472 -0.708787 0
M  V30 7176 H 689.463 -5.53339 1.49963 0
M  V30 7177 H 687.86 -5.54659 2.29071 0
M  V30 7178 H 688.93 -4.14988 2.50824 0
M  V30 7179 N 690.273 -0.685099 -1.4193 0
M  V30 7180 C 691.206 0.0371639 -2.2817 0
M  V30 7181 C 692.184 0.798436 -1.41647 0
M  V30 7182 O 693.368 0.791428 -1.71081 0
M  V30 7183 C 690.495 1.05993 -3.21688 0
M  V30 7184 C 689.541 0.393043 -4.24685 0
M  V30 7185 S 690.374 -0.856921 -5.28599 0
M  V30 7186 C 691.53 0.164508 -6.25684 0
M  V30 7187 H 691.763 -0.694305 -2.89079 0
M  V30 7188 H 689.296 -0.474999 -1.46912 0
M  V30 7189 H 691.254 1.64489 -3.76103 0
M  V30 7190 H 689.915 1.7639 -2.59895 0
M  V30 7191 H 689.108 1.16513 -4.90348 0
M  V30 7192 H 688.71 -0.118589 -3.73812 0
M  V30 7193 H 691.002 1.02106 -6.69762 0
M  V30 7194 H 691.945 -0.457917 -7.06618 0
M  V30 7195 H 692.353 0.514596 -5.6215 0
M  V30 7196 N 691.751 1.51645 -0.429126 0
M  V30 7197 C 692.976 2.06917 0.141399 0
M  V30 7198 C 693.401 1.29527 1.36398 0
M  V30 7199 O 692.759 0.33094 1.78254 0
M  V30 7200 C 692.807 3.57776 0.4504 0
M  V30 7201 O 691.911 3.82639 1.53821 0
M  V30 7202 H 691.252 0.663978 0.0054647 0
M  V30 7203 H 693.782 1.95355 -0.608093 0
M  V30 7204 H 693.792 4.01894 0.703249 0
M  V30 7205 H 692.467 4.13532 -0.443213 0
M  V30 7206 H 691.044 3.5039 1.27597 0
M  V30 7207 N 693.229 0.160201 1.56784 0
M  V30 7208 C 694.475 -0.48831 1.96833 0
M  V30 7209 C 694.808 -1.63641 1.04571 0
M  V30 7210 O 694.083 -1.94289 0.0906481 0
M  V30 7211 C 694.366 -0.981908 3.46454 0
M  V30 7212 C 694.219 0.165607 4.49495 0
M  V30 7213 C 695.538 -1.85931 3.98896 0
M  V30 7214 H 692.657 -0.176027 0.71567 0
M  V30 7215 H 695.299 0.244093 1.88426 0
M  V30 7216 H 693.449 -1.60602 3.5375 0
M  V30 7217 H 695.121 0.802372 4.54268 0
M  V30 7218 H 693.364 0.822789 4.25926 0
M  V30 7219 H 694.035 -0.221699 5.51555 0
M  V30 7220 H 696.511 -1.33327 3.94161 0
M  V30 7221 H 695.387 -2.17373 5.04024 0
M  V30 7222 H 695.648 -2.80106 3.42042 0
M  V30 7223 N 694.707 -1.5719 -0.113559 0
M  V30 7224 C 695.639 -1.97393 -1.16484 0
M  V30 7225 C 696.652 -0.873964 -1.37352 0
M  V30 7226 O 697.841 -1.15222 -1.36331 0
M  V30 7227 C 694.941 -2.26174 -2.52386 0
M  V30 7228 C 694.114 -3.57479 -2.52046 0
M  V30 7229 C 693.173 -3.74409 -3.69735 0
M  V30 7230 O 692.199 -4.46463 -3.53071 0
M  V30 7231 N 693.401 -3.13588 -4.88511 0
M  V30 7232 H 696.166 -2.88184 -0.822814 0
M  V30 7233 H 693.727 -1.59044 -0.302769 0
M  V30 7234 H 695.719 -2.3471 -3.29687 0
M  V30 7235 H 694.289 -1.41483 -2.7875 0
M  V30 7236 H 693.509 -3.60081 -1.60421 0
M  V30 7237 H 694.797 -4.43775 -2.48881 0
M  V30 7238 H 694.195 -2.55026 -5.04953 0
M  V30 7239 H 692.752 -3.27637 -5.63469 0
M  V30 7240 N 696.185 0.383891 -1.52853 0
M  V30 7241 C 697.095 1.49343 -1.80925 0
M  V30 7242 C 698.111 1.59458 -0.696348 0
M  V30 7243 O 699.287 1.75698 -0.984481 0
M  V30 7244 C 696.352 2.84819 -1.97684 0
M  V30 7245 C 695.413 2.84382 -3.21598 0
M  V30 7246 C 694.646 4.13397 -3.37548 0
M  V30 7247 O 694.869 5.08619 -2.58192 0
M  V30 7248 O 693.803 4.20325 -4.30826 0
M  V30 7249 H 697.629 1.2855 -2.75152 0
M  V30 7250 H 695.214 0.572229 -1.38007 0
M  V30 7251 H 697.096 3.65125 -2.10385 0
M  V30 7252 H 695.771 3.05627 -1.06647 0
M  V30 7253 H 694.678 2.0284 -3.14336 0
M  V30 7254 H 696.011 2.68526 -4.12498 0
M  V30 7255 N 697.663 1.43903 0.642637 0
M  V30 7256 C 698.888 1.49758 1.43483 0
M  V30 7257 C 699.313 0.119911 1.87717 0
M  V30 7258 O 698.671 -0.888558 1.58033 0
M  V30 7259 C 698.719 2.45744 2.63898 0
M  V30 7260 O 697.823 1.95101 3.63331 0
M  V30 7261 H 697.164 0.506138 0.429791 0
M  V30 7262 H 699.694 1.88923 0.785438 0
M  V30 7263 H 699.704 2.63399 3.11584 0
M  V30 7264 H 698.379 3.45818 2.31046 0
M  V30 7265 H 696.956 1.87158 3.22531 0
M  V30 7266 N 699.141 -0.881989 1.30609 0
M  V30 7267 C 700.071 -2.00413 1.1982 0
M  V30 7268 C 701.052 -1.69871 0.0881538 0
M  V30 7269 O 702.237 -1.92304 0.2707 0
M  V30 7270 C 699.367 -3.35641 0.89233 0
M  V30 7271 C 698.321 -3.80451 1.96064 0
M  V30 7272 C 697.647 -5.13003 1.5077 0
M  V30 7273 C 698.947 -3.98855 3.37213 0
M  V30 7274 H 700.641 -2.09698 2.13699 0
M  V30 7275 H 698.187 -1.00754 1.02882 0
M  V30 7276 H 700.14 -4.13669 0.803497 0
M  V30 7277 H 698.864 -3.26497 -0.0821381 0
M  V30 7278 H 697.523 -3.04654 2.03916 0
M  V30 7279 H 697.171 -5.0029 0.521417 0
M  V30 7280 H 696.871 -5.43956 2.22229 0
M  V30 7281 H 698.395 -5.93554 1.43271 0
M  V30 7282 H 699.809 -4.67312 3.32103 0
M  V30 7283 H 698.206 -4.41188 4.06784 0
M  V30 7284 H 699.276 -3.02614 3.78883 0
M  V30 7285 N 700.619 -1.13374 -1.09472 0
M  V30 7286 C 701.529 -0.824029 -2.19652 0
M  V30 7287 C 702.545 0.19118 -1.72947 0
M  V30 7288 O 703.721 0.0223464 -2.01388 0
M  V30 7289 C 700.786 -0.294009 -3.45451 0
M  V30 7290 C 699.847 -1.3704 -4.0684 0
M  V30 7291 C 699.08 -0.86558 -5.26634 0
M  V30 7292 O 699.303 0.29702 -5.69626 0
M  V30 7293 O 698.237 -1.63968 -5.79136 0
M  V30 7294 H 702.063 -1.74454 -2.48595 0
M  V30 7295 H 699.648 -0.911155 -1.18399 0
M  V30 7296 H 701.53 -0.00381039 -4.214 0
M  V30 7297 H 700.205 0.598921 -3.18111 0
M  V30 7298 H 699.112 -1.71391 -3.3253 0
M  V30 7299 H 700.445 -2.23746 -4.38405 0
M  V30 7300 N 702.098 1.27442 -0.927168 0
M  V30 7301 C 703.514 1.46754 -0.627329 0
M  V30 7302 C 703.714 1.83902 0.823549 0
M  V30 7303 O 702.77 1.95215 1.60148 0
M  V30 7304 C 704.083 2.56045 -1.57674 0
M  V30 7305 C 705.631 2.69906 -1.58491 0
M  V30 7306 C 706.106 3.82355 -2.52128 0
M  V30 7307 N 707.597 3.89728 -2.50332 0
M  V30 7308 C 708.332 4.76155 -3.19475 0
M  V30 7309 N 707.828 5.67073 -3.97995 0
M  V30 7310 N 709.621 4.6988 -3.08496 0
M  V30 7311 H 701.772 1.01613 -1.86517 0
M  V30 7312 H 704.035 0.507443 -0.800753 0
M  V30 7313 H 703.741 2.35542 -2.61176 0
M  V30 7314 H 703.615 3.53423 -1.31804 0
M  V30 7315 H 706.002 2.89792 -0.557208 0
M  V30 7316 H 706.083 1.73018 -1.8841 0
M  V30 7317 H 705.727 3.63224 -3.55008 0
M  V30 7318 H 705.657 4.7867 -2.19505 0
M  V30 7319 H 708.148 3.24717 -1.93306 0
M  V30 7320 H 708.461 6.2988 -4.4774 0
M  V30 7321 H 706.806 5.6687 -4.02098 0
M  V30 7322 H 709.997 3.97848 -2.46646 0
M  V30 7323 H 710.17 5.37017 -3.62652 0
M  V30 7324 N 703.576 0.692616 1.41565 0
M  V30 7325 C 704.523 0.0254264 2.30786 0
M  V30 7326 C 705.493 -0.774347 1.46946 0
M  V30 7327 O 706.678 -0.742981 1.7574 0
M  V30 7328 C 703.818 -0.907123 3.32964 0
M  V30 7329 C 702.931 -0.0992784 4.31886 0
M  V30 7330 C 702.066 -1.0292 5.21134 0
M  V30 7331 C 701.105 -0.214088 6.11725 0
M  V30 7332 N 700.242 -1.09766 6.93467 0
M  V30 7333 H 705.082 0.792036 2.87282 0
M  V30 7334 H 702.619 0.4023 1.41492 0
M  V30 7335 H 704.577 -1.46181 3.90752 0
M  V30 7336 H 703.207 -1.64016 2.78026 0
M  V30 7337 H 702.259 0.572287 3.76071 0
M  V30 7338 H 703.571 0.532782 4.95946 0
M  V30 7339 H 702.725 -1.65321 5.83741 0
M  V30 7340 H 701.464 -1.69512 4.57293 0
M  V30 7341 H 700.469 0.42302 5.4817 0
M  V30 7342 H 701.694 0.447995 6.77621 0
M  V30 7343 H 699.64 -1.74965 6.32237 0
M  V30 7344 H 699.557 -0.521099 7.54202 0
M  V30 7345 H 700.825 -1.70858 7.60544 0
M  V30 7346 N 705.054 -1.51416 0.437162 0
M  V30 7347 C 706.301 -2.02086 -0.129364 0
M  V30 7348 C 706.629 -1.32133 -1.42728 0
M  V30 7349 O 705.884 -0.424916 -1.91031 0
M  V30 7350 C 706.183 -3.55203 -0.39564 0
M  V30 7351 C 705.849 -4.43447 0.81644 0
M  V30 7352 C 704.511 -4.67285 1.14884 0
M  V30 7353 C 706.863 -4.95219 1.62503 0
M  V30 7354 C 704.191 -5.40141 2.29052 0
M  V30 7355 C 706.543 -5.69327 2.7577 0
M  V30 7356 C 705.207 -5.91429 3.09464 0
M  V30 7357 H 704.477 -0.739486 -0.0473375 0
M  V30 7358 H 707.124 -1.82368 0.584321 0
M  V30 7359 H 705.429 -3.73252 -1.19121 0
M  V30 7360 H 707.126 -3.91944 -0.847399 0
M  V30 7361 H 703.716 -4.2509 0.547422 0
M  V30 7362 H 707.9 -4.76686 1.38144 0
M  V30 7363 H 703.156 -5.55468 2.55471 0
M  V30 7364 H 707.33 -6.08433 3.38795 0
M  V30 7365 H 704.957 -6.47662 3.98042 0
M  V30 7366 N 706.532 -0.168513 -1.56696 0
M  V30 7367 C 707.78 0.476216 -1.96409 0
M  V30 7368 C 708.101 1.63968 -1.05544 0
M  V30 7369 O 707.371 1.95525 -0.121235 0
M  V30 7370 H 705.951 0.178921 -0.725256 0
M  V30 7371 H 708.613 -0.249042 -1.93302 0
M  V30 7372 H 707.709 0.838094 -3.00637 0
M  V30 7373 N 708.01 1.57248 0.105221 0
M  V30 7374 C 708.957 2.01338 1.12835 0
M  V30 7375 C 709.927 0.887897 1.40377 0
M  V30 7376 O 711.112 1.15315 1.5201 0
M  V30 7377 C 708.252 2.43432 2.44611 0
M  V30 7378 C 707.365 3.69457 2.23888 0
M  V30 7379 C 706.5 4.00473 3.48991 0
M  V30 7380 C 705.539 5.19638 3.23485 0
M  V30 7381 N 704.676 5.46457 4.40828 0
M  V30 7382 H 709.516 2.88527 0.745386 0
M  V30 7383 H 707.053 1.42714 0.356535 0
M  V30 7384 H 709.011 2.65879 3.21503 0
M  V30 7385 H 707.641 1.59266 2.80774 0
M  V30 7386 H 706.693 3.54545 1.37847 0
M  V30 7387 H 708.005 4.56497 2.01026 0
M  V30 7388 H 707.159 4.23642 4.34295 0
M  V30 7389 H 705.898 3.11935 3.74897 0
M  V30 7390 H 704.903 4.96299 2.36574 0
M  V30 7391 H 706.128 6.09766 2.98935 0
M  V30 7392 H 704.074 4.60876 4.66829 0
M  V30 7393 H 703.991 6.27849 4.2112 0
M  V30 7394 H 705.259 5.74155 5.27225 0
M  V30 7395 N 709.488 -0.375779 1.53054 0
M  V30 7396 C 710.438 -1.45965 1.75152 0
M  V30 7397 C 711.422 -1.49059 0.605823 0
M  V30 7398 O 712.614 -1.54472 0.864133 0
M  V30 7399 C 709.743 -2.83524 1.93569 0
M  V30 7400 C 708.829 -2.84949 3.1411 0
M  V30 7401 N 709.22 -2.56029 4.36214 0
M  V30 7402 C 707.518 -3.16113 3.14625 0
M  V30 7403 C 708.219 -2.64873 5.17897 0
M  V30 7404 N 707.195 -2.99159 4.53878 0
M  V30 7405 H 710.997 -1.22454 2.67175 0
M  V30 7406 H 708.511 -0.583867 1.51541 0
M  V30 7407 H 710.508 -3.61578 2.07525 0
M  V30 7408 H 709.168 -3.08008 1.02768 0
M  V30 7409 H 710.179 -2.29808 4.64121 0
M  V30 7410 H 706.856 -3.45977 2.3368 0
M  V30 7411 H 708.246 -2.45947 6.25268 0
M  V30 7412 N 710.966 -1.44241 -0.634997 0
M  V30 7413 C 712.214 -1.46531 -1.39187 0
M  V30 7414 C 712.535 -0.0976441 -1.94755 0
M  V30 7415 O 711.805 0.869528 -1.75545 0
M  V30 7416 H 710.385 -0.539544 -0.516625 0
M  V30 7417 H 713.047 -1.79989 -0.747655 0
M  V30 7418 H 712.143 -2.18848 -2.22513 0
M  V30 7419 N 712.444 0.87505 -1.31075 0
M  V30 7420 C 713.692 1.62447 -1.20231 0
M  V30 7421 C 714.013 1.93506 0.240888 0
M  V30 7422 O 713.283 1.57847 1.16022 0
M  V30 7423 H 711.863 0.602207 -0.441991 0
M  V30 7424 H 714.525 1.04788 -1.64334 0
M  V30 7425 H 713.621 2.57031 -1.77036 0
M  V30 7426 N 713.922 1.13953 1.08869 0
M  V30 7427 C 715.15 0.92817 1.84912 0
M  V30 7428 C 715.565 -0.523197 1.81406 0
M  V30 7429 O 714.922 -1.36237 1.21432 0
M  V30 7430 C 714.973 1.41509 3.32652 0
M  V30 7431 O 714.694 2.80959 3.36145 0
M  V30 7432 C 716.195 1.243 4.25517 0
M  V30 7433 H 713.415 0.330612 0.583898 0
M  V30 7434 H 715.959 1.51349 1.37527 0
M  V30 7435 H 714.114 0.872648 3.77444 0
M  V30 7436 H 714.528 3.02704 4.28335 0
M  V30 7437 H 716.002 1.63237 5.27312 0
M  V30 7438 H 716.479 0.18532 4.38809 0
M  V30 7439 H 717.085 1.77375 3.86546 0
M  V30 7440 N 715.4 -1.26948 0.933913 0
M  V30 7441 C 716.649 -1.93378 0.573409 0
M  V30 7442 C 716.962 -1.74148 -0.890614 0
M  V30 7443 O 718.168 -2.34971 -1.36017 0
M  V30 7444 C 716.624 -3.46449 0.974747 0
M  V30 7445 C 716.232 -3.74425 2.45988 0
M  V30 7446 C 717.976 -4.18924 0.685791 0
M  V30 7447 C 715.883 -5.209 2.8003 0
M  V30 7448 H 714.813 -0.723952 0.210736 0
M  V30 7449 H 717.464 -1.44143 1.13557 0
M  V30 7450 H 715.846 -3.94528 0.341181 0
M  V30 7451 H 717.02 -3.37079 3.14188 0
M  V30 7452 H 715.335 -3.15167 2.72138 0
M  V30 7453 H 717.932 -5.26786 0.916546 0
M  V30 7454 H 718.275 -4.14587 -0.377217 0
M  V30 7455 H 718.808 -3.76687 1.27874 0
M  V30 7456 H 715.547 -5.30332 3.85264 0
M  V30 7457 H 715.067 -5.59369 2.16485 0
M  V30 7458 H 716.746 -5.88837 2.68105 0
M  V30 7459 N 716.879 -0.700114 -1.41195 0
M  V30 7460 C 718.29 -0.307249 -1.84154 0
M  V30 7461 C 718.641 1.15539 -1.58572 0
M  V30 7462 O 717.766 1.88744 -1.05852 0
M  V30 7463 C 718.361 -0.550872 -3.34292 0
M  V30 7464 C 716.92 -0.211877 -3.75803 0
M  V30 7465 C 716.067 -0.830915 -2.64558 0
M  V30 7466 H 719.018 -0.900431 -1.30683 0
M  V30 7467 H 719.039 0.188954 -3.80031 0
M  V30 7468 H 718.551 -1.61548 -3.5288 0
M  V30 7469 H 716.652 0.848283 -3.62815 0
M  V30 7470 H 716.765 -0.67007 -4.74391 0
M  V30 7471 H 715.129 -0.260155 -2.53368 0
M  V30 7472 H 715.912 -1.89948 -2.85963 0
M  V30 7473 N 718.357 1.51182 -0.445186 0
M  V30 7474 C 719.606 2.01342 0.120189 0
M  V30 7475 C 719.919 1.33353 1.43095 0
M  V30 7476 O 721.125 1.74525 2.07974 0
M  V30 7477 C 719.581 3.58925 0.264732 0
M  V30 7478 C 719.189 4.35855 -1.03606 0
M  V30 7479 C 720.933 4.17208 0.783455 0
M  V30 7480 C 718.84 5.85162 -0.856731 0
M  V30 7481 H 717.77 0.752426 0.0486922 0
M  V30 7482 H 720.421 1.74221 -0.576143 0
M  V30 7483 H 718.803 3.82525 1.02425 0
M  V30 7484 H 719.977 4.23997 -1.80452 0
M  V30 7485 H 718.292 3.89062 -1.48391 0
M  V30 7486 H 720.889 5.26475 0.934239 0
M  V30 7487 H 721.232 3.76892 1.768 0
M  V30 7488 H 721.765 3.97715 0.0820346 0
M  V30 7489 H 718.504 6.29904 -1.81388 0
M  V30 7490 H 718.024 5.99663 -0.128206 0
M  V30 7491 H 719.703 6.44963 -0.513027 0
M  V30 7492 N 719.835 0.176821 1.56605 0
M  V30 7493 C 721.081 -0.467406 1.9734 0
M  V30 7494 C 721.414 -1.62523 1.06301 0
M  V30 7495 O 720.689 -1.94182 0.11125 0
M  V30 7496 C 720.972 -0.945106 3.47476 0
M  V30 7497 C 720.825 0.213273 4.49294 0
M  V30 7498 C 722.144 -1.8169 4.00845 0
M  V30 7499 H 719.263 -0.168426 0.717497 0
M  V30 7500 H 721.905 0.264065 1.88156 0
M  V30 7501 H 720.055 -1.56841 3.55434 0
M  V30 7502 H 721.727 0.850508 4.53392 0
M  V30 7503 H 719.97 0.867918 4.25029 0
M  V30 7504 H 720.641 -0.163187 5.51759 0
M  V30 7505 H 723.117 -1.29139 3.95553 0
M  V30 7506 H 721.993 -2.12015 5.06301 0
M  V30 7507 H 722.254 -2.76463 3.44994 0
M  V30 7508 N 721.313 -1.57302 -0.09688 0
M  V30 7509 C 722.724 -1.7496 -0.651595 0
M  V30 7510 C 723.075 -0.798746 -1.79205 0
M  V30 7511 O 722.2 0.0231858 -2.16388 0
M  V30 7512 C 722.795 -3.17259 -1.18878 0
M  V30 7513 C 721.354 -3.36348 -1.68958 0
M  V30 7514 C 720.501 -2.70766 -0.598413 0
M  V30 7515 H 723.452 -1.58173 0.12918 0
M  V30 7516 H 723.473 -3.20033 -2.05814 0
M  V30 7517 H 722.985 -3.8644 -0.358523 0
M  V30 7518 H 721.086 -2.72243 -2.5439 0
M  V30 7519 H 721.199 -4.44654 -1.7838 0
M  V30 7520 H 719.563 -2.32615 -1.03743 0
M  V30 7521 H 720.346 -3.42586 0.221238 0
M  V30 7522 N 722.791 0.367657 -1.53252 0
M  V30 7523 C 724.019 1.13119 -1.73239 0
M  V30 7524 C 724.434 1.831 -0.460404 0
M  V30 7525 O 723.791 1.73483 0.566557 0
M  V30 7526 C 723.842 2.16308 -2.89643 0
M  V30 7527 O 723.563 1.49175 -4.1192 0
M  V30 7528 C 725.064 3.05224 -3.21486 0
M  V30 7529 H 722.284 0.338318 -0.579467 0
M  V30 7530 H 724.828 0.42721 -1.99988 0
M  V30 7531 H 722.983 2.82307 -2.65295 0
M  V30 7532 H 723.397 2.17912 -4.7709 0
M  V30 7533 H 724.871 3.73613 -4.06346 0
M  V30 7534 H 725.348 3.69919 -2.36763 0
M  V30 7535 H 725.954 2.44843 -3.47753 0
M  V30 7536 N 724.269 1.44576 0.627338 0
M  V30 7537 C 725.232 1.51372 1.72102 0
M  V30 7538 C 726.232 0.395329 1.55865 0
M  V30 7539 O 727.422 0.658094 1.61291 0
M  V30 7540 C 724.554 1.39129 3.11217 0
M  V30 7541 H 725.747 2.48798 1.6745 0
M  V30 7542 H 723.3 1.31724 0.841336 0
M  V30 7543 H 724.035 0.428114 3.21462 0
M  V30 7544 H 723.82 2.20229 3.24409 0
M  V30 7545 H 725.31 1.46874 3.90919 0
M  V30 7546 N 725.747 -0.868086 1.31537 0
M  V30 7547 C 726.657 -2.00801 1.21311 0
M  V30 7548 C 727.673 -1.73518 0.129431 0
M  V30 7549 O 728.849 -1.98378 0.347588 0
M  V30 7550 C 725.914 -3.3419 0.922935 0
M  V30 7551 C 724.975 -3.74783 2.0937 0
M  V30 7552 C 724.208 -5.01807 1.81728 0
M  V30 7553 O 724.431 -5.65404 0.753313 0
M  V30 7554 O 723.365 -5.39213 2.67457 0
M  V30 7555 H 727.191 -2.12361 2.17109 0
M  V30 7556 H 724.776 -0.996684 1.11295 0
M  V30 7557 H 726.658 -4.14174 0.777033 0
M  V30 7558 H 725.333 -3.237 -0.00500301 0
M  V30 7559 H 724.24 -2.95432 2.29501 0
M  V30 7560 H 725.573 -3.89902 3.00396 0
M  V30 7561 N 727.225 -1.14528 -1.08264 0
M  V30 7562 C 728.472 -0.914405 -1.80679 0
M  V30 7563 C 728.8 0.558952 -1.86295 0
M  V30 7564 O 728.055 1.43017 -1.33584 0
M  V30 7565 C 728.354 -1.46226 -3.26117 0
M  V30 7566 C 728.02 -2.95451 -3.40616 0
M  V30 7567 C 726.682 -3.36191 -3.4428 0
M  V30 7568 C 729.034 -3.91399 -3.44175 0
M  V30 7569 C 726.362 -4.71539 -3.49096 0
M  V30 7570 C 728.714 -5.26606 -3.50526 0
M  V30 7571 C 727.378 -5.66856 -3.52464 0
M  V30 7572 H 726.648 -0.334604 -0.661151 0
M  V30 7573 H 729.295 -1.4292 -1.27461 0
M  V30 7574 H 727.6 -0.868442 -3.82054 0
M  V30 7575 H 729.297 -1.25955 -3.80705 0
M  V30 7576 H 725.887 -2.62955 -3.38456 0
M  V30 7577 H 730.071 -3.61004 -3.40573 0
M  V30 7578 H 725.327 -5.02082 -3.4889 0
M  V30 7579 H 729.501 -6.00758 -3.52225 0
M  V30 7580 H 727.128 -6.71718 -3.55948 0
M  V30 7581 N 728.703 1.26451 -0.940633 0
M  V30 7582 C 729.635 2.25556 -0.407104 0
M  V30 7583 C 730.648 1.55888 0.469324 0
M  V30 7584 O 731.837 1.76292 0.279858 0
M  V30 7585 C 728.937 3.36109 0.434064 0
M  V30 7586 C 728.11 4.3532 -0.426082 0
M  V30 7587 C 727.169 5.25004 0.354563 0
M  V30 7588 O 726.195 5.68684 -0.242219 0
M  V30 7589 N 727.397 5.5652 1.65123 0
M  V30 7590 H 730.162 2.7197 -1.25907 0
M  V30 7591 H 727.723 1.40212 -0.809456 0
M  V30 7592 H 729.715 3.93059 0.963684 0
M  V30 7593 H 728.285 2.89194 1.18683 0
M  V30 7594 H 727.505 3.77449 -1.13692 0
M  V30 7595 H 728.793 4.986 -1.01366 0
M  V30 7596 H 728.191 5.22912 2.15822 0
M  V30 7597 H 726.748 6.16115 2.12711 0
M  V30 7598 N 730.181 0.707592 1.40822 0
M  V30 7599 C 731.458 0.171172 1.9485 0
M  V30 7600 C 731.838 -1.32143 1.64625 0
M  V30 7601 O 731.186 -2.07372 0.959647 0
M  V30 7602 C 731.396 0.475334 3.45748 0
M  V30 7603 C 732.744 0.409625 4.22619 0
M  V30 7604 O 733.768 0.410934 3.53822 0
M  V30 7605 O 732.627 0.380185 5.45176 0
M  V30 7606 H 729.721 0.022015 0.826707 0
M  V30 7607 H 732.267 0.784577 1.50474 0
M  V30 7608 H 731.039 1.50801 3.61075 0
M  V30 7609 H 730.662 -0.168439 3.97243 0
M  V30 7610 N 731.66 -1.50943 0.453197 0
M  V30 7611 C 733.076 -1.59245 0.106342 0
M  V30 7612 C 733.276 -1.46287 -1.38572 0
M  V30 7613 O 732.332 -1.31219 -2.15726 0
M  V30 7614 C 733.645 -2.93797 0.640595 0
M  V30 7615 C 735.193 -3.07148 0.602435 0
M  V30 7616 C 735.668 -4.44247 1.11393 0
M  V30 7617 N 737.159 -4.50611 1.07258 0
M  V30 7618 C 737.894 -5.55049 1.43905 0
M  V30 7619 N 737.39 -6.66828 1.87914 0
M  V30 7620 N 739.183 -5.45494 1.35621 0
M  V30 7621 H 731.334 -1.5761 1.42382 0
M  V30 7622 H 733.597 -0.74384 0.587713 0
M  V30 7623 H 733.303 -3.087 1.68515 0
M  V30 7624 H 733.177 -3.77127 0.0742272 0
M  V30 7625 H 735.564 -2.91903 -0.433171 0
M  V30 7626 H 735.645 -2.25619 1.20539 0
M  V30 7627 H 735.289 -4.60239 2.14808 0
M  V30 7628 H 735.219 -5.2434 0.487353 0
M  V30 7629 H 737.71 -3.70391 0.749585 0
M  V30 7630 H 738.023 -7.42558 2.14072 0
M  V30 7631 H 736.368 -6.67995 1.91853 0
M  V30 7632 H 739.559 -4.57053 1.01093 0
M  V30 7633 H 739.732 -6.2677 1.64508 0
M  V30 7634 N 733.138 -0.185124 -1.56509 0
M  V30 7635 C 734.387 0.456421 -1.96468 0
M  V30 7636 C 734.7 1.63448 -1.07444 0
M  V30 7637 O 735.906 2.34316 -1.37143 0
M  V30 7638 C 734.362 0.863404 -3.4939 0
M  V30 7639 C 733.97 -0.289815 -4.47062 0
M  V30 7640 C 735.714 1.47259 -3.98139 0
M  V30 7641 C 733.621 0.137571 -5.9124 0
M  V30 7642 H 732.551 0.17429 -0.733579 0
M  V30 7643 H 735.202 -0.275554 -1.81419 0
M  V30 7644 H 733.584 1.65176 -3.59907 0
M  V30 7645 H 734.758 -1.06728 -4.4827 0
M  V30 7646 H 733.073 -0.809851 -4.08449 0
M  V30 7647 H 735.67 1.80463 -5.03326 0
M  V30 7648 H 736.013 2.3755 -3.41871 0
M  V30 7649 H 736.546 0.748405 -3.90696 0
M  V30 7650 H 733.285 -0.730907 -6.51412 0
M  V30 7651 H 732.805 0.8801 -5.93308 0
M  V30 7652 H 734.484 0.576771 -6.44424 0
M  V30 7653 N 734.616 1.57351 0.0885366 0
M  V30 7654 C 735.841 1.91011 0.80805 0
M  V30 7655 C 736.266 0.780009 1.71165 0
M  V30 7656 O 735.624 -0.268083 1.79307 0
M  V30 7657 C 735.672 3.23562 1.59185 0
M  V30 7658 O 734.776 3.11615 2.7013 0
M  V30 7659 H 734.117 0.625943 0.221565 0
M  V30 7660 H 736.647 2.04507 0.0617954 0
M  V30 7661 H 736.657 3.5703 1.97468 0
M  V30 7662 H 735.332 4.05398 0.928741 0
M  V30 7663 H 733.909 2.89673 2.34827 0
M  V30 7664 N 736.094 -0.359525 1.53444 0
M  V30 7665 C 737.342 -1.09935 1.69584 0
M  V30 7666 C 737.663 -1.89656 0.453371 0
M  V30 7667 O 736.933 -1.8852 -0.53263 0
M  V30 7668 H 735.513 -0.408843 0.625185 0
M  V30 7669 H 738.175 -0.40467 1.90653 0
M  V30 7670 H 737.271 -1.78575 2.55964 0
M  V30 7671 N 737.572 -1.44907 -0.619662 0
M  V30 7672 C 738.535 -1.52282 -1.71297 0
M  V30 7673 C 739.535 -0.40359 -1.55653 0
M  V30 7674 O 740.725 -0.666638 -1.6094 0
M  V30 7675 C 737.857 -1.40778 -3.10474 0
M  V30 7676 H 739.05 -2.49683 -1.66128 0
M  V30 7677 H 736.603 -1.32168 -0.834339 0
M  V30 7678 H 737.338 -0.445156 -3.2123 0
M  V30 7679 H 737.123 -2.21947 -3.23237 0
M  V30 7680 H 738.613 -1.48946 -3.90135 0
M  V30 7681 N 739.05 0.861098 -1.31996 0
M  V30 7682 C 740.275 1.65264 -1.2531 0
M  V30 7683 C 740.7 1.87265 0.177007 0
M  V30 7684 O 740.058 1.4208 1.12619 0
M  V30 7685 C 740.106 2.99284 -2.0115 0
M  V30 7686 O 739.21 3.89508 -1.3549 0
M  V30 7687 H 738.551 0.50409 -0.432192 0
M  V30 7688 H 741.081 1.07297 -1.74208 0
M  V30 7689 H 741.091 3.49154 -2.11081 0
M  V30 7690 H 739.766 2.82591 -3.05148 0
M  V30 7691 H 738.343 3.47966 -1.34066 0
M  V30 7692 N 740.528 1.15101 1.07655 0
M  V30 7693 C 741.438 0.858869 2.18313 0
M  V30 7694 C 742.454 -0.163641 1.73229 0
M  V30 7695 O 743.63 0.00969541 2.01398 0
M  V30 7696 C 740.695 0.34893 3.4494 0
M  V30 7697 C 739.756 1.43495 4.04608 0
M  V30 7698 C 738.989 0.949253 5.2519 0
M  V30 7699 O 739.212 -0.20636 5.70027 0
M  V30 7700 O 738.146 1.73161 5.76454 0
M  V30 7701 H 741.972 1.78386 2.45788 0
M  V30 7702 H 739.557 0.929876 1.16934 0
M  V30 7703 H 741.439 0.070851 4.2134 0
M  V30 7704 H 740.114 -0.548237 3.19024 0
M  V30 7705 H 739.021 1.7666 3.29761 0
M  V30 7706 H 740.354 2.30692 4.3479 0
M  V30 7707 N 742.006 -1.2595 0.947325 0
M  V30 7708 C 742.953 -2.26159 0.460497 0
M  V30 7709 C 743.923 -1.58919 -0.483125 0
M  V30 7710 O 745.108 -1.86603 -0.397983 0
M  V30 7711 C 742.248 -3.441 -0.26247 0
M  V30 7712 C 741.361 -4.25999 0.717539 0
M  V30 7713 C 740.496 -5.31193 -0.0272486 0
M  V30 7714 C 739.535 -6.04774 0.944177 0
M  V30 7715 N 738.672 -7.01721 0.230741 0
M  V30 7716 H 743.512 -2.67173 1.31995 0
M  V30 7717 H 741.049 -1.31358 0.662088 0
M  V30 7718 H 743.007 -4.11317 -0.698137 0
M  V30 7719 H 741.637 -3.03983 -1.08602 0
M  V30 7720 H 740.689 -3.58513 1.27171 0
M  V30 7721 H 742.001 -4.76981 1.45913 0
M  V30 7722 H 741.155 -6.04451 -0.521903 0
M  V30 7723 H 739.894 -4.81066 -0.801682 0
M  V30 7724 H 738.899 -5.30338 1.4499 0
M  V30 7725 H 740.124 -6.56991 1.71872 0
M  V30 7726 H 738.07 -6.53895 -0.525088 0
M  V30 7727 H 737.987 -7.50484 0.911556 0
M  V30 7728 H 739.255 -7.79122 -0.242616 0
M  V30 7729 N 743.484 -0.715051 -1.40445 0
M  V30 7730 C 744.761 -0.181503 -1.94756 0
M  V30 7731 C 745.141 1.31268 -1.65324 0
M  V30 7732 O 744.489 2.0686 -0.970631 0
M  V30 7733 C 744.699 -0.493663 -3.45491 0
M  V30 7734 C 746.047 -0.432032 -4.22396 0
M  V30 7735 O 747.071 -0.429692 -3.53599 0
M  V30 7736 O 745.93 -0.409091 -5.44967 0
M  V30 7737 H 743.024 -0.0263989 -0.826579 0
M  V30 7738 H 745.57 -0.792546 -1.50056 0
M  V30 7739 H 744.342 -1.52713 -3.6027 0
M  V30 7740 H 743.965 0.14737 -3.97327 0
M  V30 7741 N 744.962 1.50701 -0.461195 0
M  V30 7742 C 746.211 2.01458 0.0988277 0
M  V30 7743 C 746.524 1.34863 1.41673 0
M  V30 7744 O 747.73 1.76721 2.06111 0
M  V30 7745 C 746.186 3.59186 0.226648 0
M  V30 7746 C 745.794 4.34732 -1.08223 0
M  V30 7747 C 747.538 4.18015 0.73916 0
M  V30 7748 C 745.445 5.8422 -0.918747 0
M  V30 7749 H 744.375 0.7529 0.040709 0
M  V30 7750 H 747.026 1.736 -0.594589 0
M  V30 7751 H 745.408 3.83589 0.983621 0
M  V30 7752 H 746.582 4.22059 -1.84939 0
M  V30 7753 H 744.897 3.87466 -1.52509 0
M  V30 7754 H 747.494 5.27436 0.878347 0
M  V30 7755 H 747.837 3.78746 1.72793 0
M  V30 7756 H 748.37 3.9778 0.0398469 0
M  V30 7757 H 745.109 6.27944 -1.88059 0
M  V30 7758 H 744.629 5.99493 -0.191801 0
M  V30 7759 H 746.308 6.44382 -0.581405 0
M  V30 7760 N 746.441 0.193421 1.56409 0
M  V30 7761 C 747.687 -0.446449 1.97825 0
M  V30 7762 C 748.02 -1.61386 1.08019 0
M  V30 7763 O 747.295 -1.94053 0.131839 0
M  V30 7764 C 747.578 -0.908199 3.48459 0
M  V30 7765 C 747.431 0.260914 4.49043 0
M  V30 7766 C 748.75 -1.77428 4.0275 0
M  V30 7767 H 745.869 -0.160807 0.719243 0
M  V30 7768 H 748.511 0.284006 1.87865 0
M  V30 7769 H 746.661 -1.53062 3.57077 0
M  V30 7770 H 748.333 0.898548 4.52464 0
M  V30 7771 H 746.576 0.912949 4.24085 0
M  V30 7772 H 747.247 -0.104657 5.51901 0
M  V30 7773 H 749.723 -1.24936 3.96901 0
M  V30 7774 H 748.599 -2.06633 5.08521 0
M  V30 7775 H 748.86 -2.72788 3.47907 0
M  V30 7776 N 747.919 -1.57396 -0.0801906 0
M  V30 7777 C 748.869 -1.9955 -1.10289 0
M  V30 7778 C 749.853 -0.876234 -1.34948 0
M  V30 7779 O 751.045 -1.14012 -1.35389 0
M  V30 7780 C 748.174 -2.43596 -2.419 0
M  V30 7781 C 747.26 -3.6224 -2.20551 0
M  V30 7782 N 747.651 -4.76693 -1.69109 0
M  V30 7783 C 745.949 -3.68627 -2.51059 0
M  V30 7784 C 746.65 -5.58577 -1.62379 0
M  V30 7785 N 745.626 -5.02178 -2.0813 0
M  V30 7786 H 749.428 -2.85483 -0.698335 0
M  V30 7787 H 746.942 -1.59837 -0.287395 0
M  V30 7788 H 748.939 -2.72031 -3.15919 0
M  V30 7789 H 747.599 -1.59047 -2.8308 0
M  V30 7790 H 748.61 -4.9915 -1.38092 0
M  V30 7791 H 745.287 -2.94772 -2.95661 0
M  V30 7792 H 746.677 -6.60447 -1.2353 0
M  V30 7793 N 749.397 0.351382 -1.53633 0
M  V30 7794 C 750.622 1.11718 -1.74739 0
M  V30 7795 C 751.047 1.81829 -0.481657 0
M  V30 7796 O 750.405 1.72264 0.565233 0
M  V30 7797 C 750.453 2.11234 -2.92254 0
M  V30 7798 O 749.557 3.186 -2.61855 0
M  V30 7799 H 748.898 0.323482 -0.579875 0
M  V30 7800 H 751.428 0.404167 -2.00568 0
M  V30 7801 H 751.438 2.54591 -3.18822 0
M  V30 7802 H 750.113 1.59599 -3.84058 0
M  V30 7803 H 748.69 2.80115 -2.4615 0
M  V30 7804 N 750.875 1.45233 0.611969 0
M  V30 7805 C 752.123 1.48727 1.36838 0
M  V30 7806 C 752.444 0.128616 1.94575 0
M  V30 7807 O 751.714 -0.84149 1.76906 0
M  V30 7808 H 750.294 0.547695 0.507976 0
M  V30 7809 H 752.956 1.81156 0.718925 0
M  V30 7810 H 752.052 2.2236 2.19003 0
M  V30 7811 N 752.353 -0.854086 1.3245 0
M  V30 7812 C 753.283 -1.97827 1.24044 0
M  V30 7813 C 754.264 -1.69646 0.124166 0
M  V30 7814 O 755.449 -1.91687 0.31143 0
M  V30 7815 C 752.579 -3.33673 0.963324 0
M  V30 7816 C 751.533 -3.76207 2.04089 0
M  V30 7817 C 750.859 -5.0969 1.61618 0
M  V30 7818 C 752.159 -3.91612 3.45597 0
M  V30 7819 H 753.853 -2.05118 2.18099 0
M  V30 7820 H 751.399 -0.985489 1.04996 0
M  V30 7821 H 753.352 -4.11871 0.891061 0
M  V30 7822 H 752.076 -3.26597 -0.0128649 0
M  V30 7823 H 750.735 -3.0026 2.10332 0
M  V30 7824 H 750.383 -4.99072 0.627418 0
M  V30 7825 H 750.083 -5.3912 2.33717 0
M  V30 7826 H 751.607 -5.90381 1.55829 0
M  V30 7827 H 753.021 -4.60163 3.4194 0
M  V30 7828 H 751.418 -4.3246 4.16051 0
M  V30 7829 H 752.488 -2.9451 3.85217 0
M  V30 7830 N 753.831 -1.1567 -1.07043 0
M  V30 7831 C 754.794 -0.858906 -2.12498 0
M  V30 7832 C 755.794 0.142735 -1.60165 0
M  V30 7833 O 756.984 -0.0872678 -1.73981 0
M  V30 7834 C 754.116 -0.283021 -3.39723 0
M  V30 7835 H 755.309 -1.79368 -2.40348 0
M  V30 7836 H 752.862 -0.964608 -1.22984 0
M  V30 7837 H 753.597 0.659796 -3.17517 0
M  V30 7838 H 753.382 -1.00467 -3.7901 0
M  V30 7839 H 754.872 -0.0923543 -4.17498 0
M  V30 7840 N 755.309 1.25446 -0.953992 0
M  V30 7841 C 756.539 1.96929 -0.624688 0
M  V30 7842 C 756.947 1.71112 0.807292 0
M  V30 7843 O 756.29 0.983512 1.55154 0
M  V30 7844 C 756.352 3.50425 -0.802676 0
M  V30 7845 C 756.016 3.99916 -2.21169 0
M  V30 7846 C 757.013 4.10662 -3.18831 0
M  V30 7847 C 754.698 4.33598 -2.53571 0
M  V30 7848 C 756.692 4.54401 -4.46988 0
M  V30 7849 C 754.379 4.77024 -3.81958 0
M  V30 7850 C 755.377 4.87388 -4.78478 0
M  V30 7851 O 755.065 5.29851 -6.04577 0
M  V30 7852 H 754.797 0.634511 -0.233179 0
M  V30 7853 H 757.351 1.60591 -1.28061 0
M  V30 7854 H 755.581 3.86596 -0.0896044 0
M  V30 7855 H 757.27 4.03117 -0.47452 0
M  V30 7856 H 758.036 3.84872 -2.95124 0
M  V30 7857 H 753.915 4.24757 -1.79171 0
M  V30 7858 H 757.459 4.62406 -5.22328 0
M  V30 7859 H 753.356 5.02258 -4.05471 0
M  V30 7860 H 754.124 5.48039 -6.07944 0
M  V30 7861 N 756.787 0.722489 1.40064 0
M  V30 7862 C 758.015 0.274838 2.05066 0
M  V30 7863 C 758.43 -1.08586 1.54449 0
M  V30 7864 O 757.787 -1.68375 0.704003 0
M  V30 7865 C 757.838 0.253673 3.60609 0
M  V30 7866 O 757.559 1.56064 4.0936 0
M  V30 7867 C 759.06 -0.211684 4.42794 0
M  V30 7868 H 756.28 0.12226 0.659768 0
M  V30 7869 H 758.824 0.982632 1.79345 0
M  V30 7870 H 756.979 -0.405137 3.85276 0
M  V30 7871 H 757.393 1.46576 5.03603 0
M  V30 7872 H 758.867 -0.175341 5.51721 0
M  V30 7873 H 759.344 -1.25493 4.2089 0
M  V30 7874 H 759.95 0.4171 4.2325 0
M  V30 7875 N 758.265 -1.50454 0.469181 0
M  V30 7876 C 759.198 -2.25149 -0.371928 0
M  V30 7877 C 760.176 -1.28382 -0.997845 0
M  V30 7878 O 761.36 -1.57599 -1.03415 0
M  V30 7879 C 758.487 -3.02629 -1.52097 0
M  V30 7880 C 757.533 -4.14305 -1.01262 0
M  V30 7881 S 758.366 -5.35453 0.0711459 0
M  V30 7882 C 759.522 -6.1648 -1.08181 0
M  V30 7883 H 759.755 -2.96142 0.262134 0
M  V30 7884 H 757.288 -1.52296 0.254042 0
M  V30 7885 H 759.246 -3.47861 -2.17952 0
M  V30 7886 H 757.907 -2.31165 -2.12654 0
M  V30 7887 H 757.1 -4.67913 -1.87278 0
M  V30 7888 H 756.702 -3.71499 -0.431804 0
M  V30 7889 H 758.994 -6.47497 -1.99382 0
M  V30 7890 H 759.937 -7.05679 -0.585028 0
M  V30 7891 H 760.345 -5.48492 -1.33478 0
M  V30 7892 N 759.743 -0.201713 -1.56304 0
M  V30 7893 C 760.653 0.728296 -2.23009 0
M  V30 7894 C 761.669 1.22945 -1.23128 0
M  V30 7895 O 762.845 1.27523 -1.55884 0
M  V30 7896 C 759.91 1.92792 -2.88153 0
M  V30 7897 C 758.971 1.47068 -4.03323 0
M  V30 7898 C 758.204 2.61312 -4.65351 0
M  V30 7899 O 758.427 3.7896 -4.26317 0
M  V30 7900 O 757.361 2.33646 -5.54701 0
M  V30 7901 H 761.187 0.190166 -3.03104 0
M  V30 7902 H 758.772 0.0278725 -1.49374 0
M  V30 7903 H 760.654 2.6289 -3.29343 0
M  V30 7904 H 759.329 2.45452 -2.11033 0
M  V30 7905 H 758.236 0.738299 -3.66742 0
M  V30 7906 H 759.569 0.990666 -4.82127 0
M  V30 7907 N 761.222 1.57436 0.0718424 0
M  V30 7908 C 762.638 1.53792 0.426628 0
M  V30 7909 C 762.838 0.921887 1.79174 0
M  V30 7910 O 761.894 0.524374 2.46995 0
M  V30 7911 C 763.207 2.98443 0.367739 0
M  V30 7912 C 764.755 3.09778 0.447928 0
M  V30 7913 C 765.23 4.5608 0.418946 0
M  V30 7914 N 766.721 4.60716 0.479022 0
M  V30 7915 C 767.456 5.71397 0.47881 0
M  V30 7916 N 766.952 6.91443 0.433417 0
M  V30 7917 N 768.745 5.59639 0.525364 0
M  V30 7918 H 760.896 1.95848 -0.822033 0
M  V30 7919 H 763.159 0.896418 -0.308447 0
M  V30 7920 H 762.865 3.47072 -0.56865 0
M  V30 7921 H 762.739 3.58335 1.17795 0
M  V30 7922 H 765.126 2.61122 1.37474 0
M  V30 7923 H 765.207 2.52796 -0.390857 0
M  V30 7924 H 764.851 5.05393 -0.504016 0
M  V30 7925 H 764.781 5.10925 1.27526 0
M  V30 7926 H 767.272 3.74328 0.518355 0
M  V30 7927 H 767.585 7.71562 0.43718 0
M  V30 7928 H 765.93 6.93847 0.400106 0
M  V30 7929 H 769.121 4.64756 0.558519 0
M  V30 7930 H 769.294 6.45896 0.52173 0
M  V30 7931 N 762.7 -0.34323 1.53817 0
M  V30 7932 C 763.925 -1.1079 1.75329 0
M  V30 7933 C 764.35 -1.81571 0.491293 0
M  V30 7934 O 763.708 -1.72561 -0.556089 0
M  V30 7935 C 763.756 -2.09681 2.9337 0
M  V30 7936 O 762.86 -3.17207 2.63541 0
M  V30 7937 H 762.201 -0.320402 0.581583 0
M  V30 7938 H 764.731 -0.393525 2.0078 0
M  V30 7939 H 764.741 -2.52897 3.20168 0
M  V30 7940 H 763.416 -1.5756 3.84899 0
M  V30 7941 H 761.993 -2.78806 2.47632 0
M  V30 7942 N 764.178 -1.45556 -0.604258 0
M  V30 7943 C 765.141 -1.54091 -1.69672 0
M  V30 7944 C 766.141 -0.420076 -1.55216 0
M  V30 7945 O 767.331 -0.683671 -1.60224 0
M  V30 7946 C 764.463 -1.44063 -3.08964 0
M  V30 7947 H 765.656 -2.51431 -1.6347 0
M  V30 7948 H 763.209 -1.33046 -0.820273 0
M  V30 7949 H 763.944 -0.479201 -3.2074 0
M  V30 7950 H 763.729 -2.25362 -3.20865 0
M  V30 7951 H 765.219 -1.53075 -3.88533 0
M  V30 7952 N 765.656 0.84705 -1.32902 0
M  V30 7953 C 767.072 1.13645 -1.12058 0
M  V30 7954 C 767.272 2.01281 0.093937 0
M  V30 7955 O 766.328 2.4026 0.776608 0
M  V30 7956 C 767.641 1.80644 -2.40392 0
M  V30 7957 C 769.189 1.93246 -2.46221 0
M  V30 7958 C 769.664 2.6366 -3.74496 0
M  V30 7959 N 771.155 2.71179 -3.75521 0
M  V30 7960 C 771.89 3.26332 -4.71482 0
M  V30 7961 N 771.386 3.82236 -5.77813 0
M  V30 7962 N 773.179 3.24507 -4.58968 0
M  V30 7963 H 765.33 0.263612 -2.10758 0
M  V30 7964 H 767.593 0.17944 -0.930863 0
M  V30 7965 H 767.299 1.23708 -3.29225 0
M  V30 7966 H 767.173 2.80736 -2.51926 0
M  V30 7967 H 769.56 2.49338 -1.57843 0
M  V30 7968 H 769.641 0.921272 -2.38634 0
M  V30 7969 H 769.285 2.08229 -4.63253 0
M  V30 7970 H 769.215 3.65234 -3.79357 0
M  V30 7971 H 771.706 2.31527 -2.9867 0
M  V30 7972 H 772.019 4.22499 -6.47082 0
M  V30 7973 H 770.364 3.80546 -5.81558 0
M  V30 7974 H 773.555 2.80085 -3.7506 0
M  V30 7975 H 773.728 3.67188 -5.33926 0
M  V30 7976 N 767.134 1.16236 1.06428 0
M  V30 7977 C 768.066 0.825446 2.1382 0
M  V30 7978 C 769.079 -0.166707 1.61944 0
M  V30 7979 O 770.268 0.0578606 1.78406 0
M  V30 7980 C 767.368 0.208023 3.38261 0
M  V30 7981 C 766.541 1.23994 4.19457 0
M  V30 7982 C 765.6 0.642569 5.22262 0
M  V30 7983 O 764.626 1.31106 5.53895 0
M  V30 7984 N 765.828 -0.571327 5.77682 0
M  V30 7985 H 768.593 1.7497 2.43322 0
M  V30 7986 H 766.154 1.05951 1.22417 0
M  V30 7987 H 768.146 -0.204608 4.04182 0
M  V30 7988 H 766.716 -0.619752 3.06395 0
M  V30 7989 H 765.936 1.82879 3.49212 0
M  V30 7990 H 767.224 1.93638 4.70512 0
M  V30 7991 H 766.622 -1.13263 5.54245 0
M  V30 7992 H 765.179 -0.926187 6.45186 0
M  V30 7993 N 768.612 -1.24939 0.960631 0
M  V30 7994 C 769.861 -1.92118 0.614298 0
M  V30 7995 C 770.174 -1.75998 -0.853474 0
M  V30 7996 O 771.38 -2.37804 -1.31003 0
M  V30 7997 C 769.836 -3.44303 1.04801 0
M  V30 7998 C 769.444 -3.69123 2.53875 0
M  V30 7999 C 771.188 -4.17375 0.774497 0
M  V30 8000 C 769.095 -5.14843 2.91016 0
M  V30 8001 H 768.025 -0.719319 0.226045 0
M  V30 8002 H 770.676 -1.41701 1.16589 0
M  V30 8003 H 769.058 -3.93715 0.42479 0
M  V30 8004 H 770.232 -3.30339 3.21267 0
M  V30 8005 H 768.547 -3.09323 2.78762 0
M  V30 8006 H 771.144 -5.24723 1.02808 0
M  V30 8007 H 771.487 -4.15294 -0.289192 0
M  V30 8008 H 772.02 -3.7389 1.35835 0
M  V30 8009 H 768.759 -5.2204 3.96427 0
M  V30 8010 H 768.279 -5.54652 2.28302 0
M  V30 8011 H 769.958 -5.83017 2.80535 0
M  V30 8012 N 770.09 -0.729906 -1.39679 0
M  V30 8013 C 771.023 -0.0354454 -2.28172 0
M  V30 8014 C 772.001 0.752968 -1.44115 0
M  V30 8015 O 773.185 0.736599 -1.73512 0
M  V30 8016 C 770.312 0.957047 -3.24897 0
M  V30 8017 C 769.358 0.257734 -4.25721 0
M  V30 8018 S 770.191 -1.02466 -5.25605 0
M  V30 8019 C 771.347 -0.0346322 -6.2589 0
M  V30 8020 H 771.58 -0.785922 -2.86724 0
M  V30 8021 H 769.113 -0.521497 -1.45326 0
M  V30 8022 H 771.071 1.52441 -3.81146 0
M  V30 8023 H 769.732 1.68033 -2.65375 0
M  V30 8024 H 768.925 1.00854 -4.93806 0
M  V30 8025 H 768.527 -0.237454 -3.73245 0
M  V30 8026 H 770.819 0.807464 -6.72671 0
M  V30 8027 H 771.762 -0.682491 -7.04803 0
M  V30 8028 H 772.17 0.335492 -5.63502 0
M  V30 8029 N 771.568 1.50203 -0.477153 0
M  V30 8030 C 772.984 1.59056 -0.131663 0
M  V30 8031 C 773.184 1.48473 1.36227 0
M  V30 8032 O 772.24 1.34635 2.13611 0
M  V30 8033 C 773.553 2.92741 -0.687254 0
M  V30 8034 C 775.101 3.0615 -0.651223 0
M  V30 8035 C 775.576 4.42419 -1.18446 0
M  V30 8036 N 777.067 4.48847 -1.14413 0
M  V30 8037 C 777.802 5.52689 -1.52717 0
M  V30 8038 N 777.298 6.63754 -1.98499 0
M  V30 8039 N 779.091 5.43267 -1.44282 0
M  V30 8040 H 771.242 1.55325 -1.44872 0
M  V30 8041 H 773.505 0.734395 -0.599473 0
M  V30 8042 H 773.211 3.0598 -1.73405 0
M  V30 8043 H 773.085 3.76961 -0.134215 0
M  V30 8044 H 775.472 2.92556 0.386677 0
M  V30 8045 H 775.553 2.23673 -1.24114 0
M  V30 8046 H 775.197 4.56763 -2.22103 0
M  V30 8047 H 775.127 5.23498 -0.570709 0
M  V30 8048 H 777.618 3.69152 -0.808416 0
M  V30 8049 H 777.931 7.39059 -2.25859 0
M  V30 8050 H 776.276 6.64858 -2.02456 0
M  V30 8051 H 779.467 4.55387 -1.08352 0
M  V30 8052 H 779.64 6.24074 -1.74459 0
M  V30 8053 N 773.046 0.209999 1.56195 0
M  V30 8054 C 774.274 -0.429996 2.02382 0
M  V30 8055 C 774.689 -1.54159 1.08998 0
M  V30 8056 O 774.046 -1.82239 0.0974856 0
M  V30 8057 C 774.097 -0.972433 3.48175 0
M  V30 8058 O 773.818 0.0948231 4.37997 0
M  V30 8059 C 775.319 -1.68683 4.09952 0
M  V30 8060 H 772.539 -0.106475 0.662498 0
M  V30 8061 H 775.083 0.323072 2.01932 0
M  V30 8062 H 773.238 -1.67582 3.49278 0
M  V30 8063 H 773.652 -0.31113 5.23576 0
M  V30 8064 H 775.126 -2.01851 5.13771 0
M  V30 8065 H 775.603 -2.59587 3.54276 0
M  V30 8066 H 776.209 -1.02893 4.12666 0
M  V30 8067 N 774.524 -1.57472 -0.0634922 0
M  V30 8068 C 775.487 -2.03268 -1.059 0
M  V30 8069 C 776.487 -0.931028 -1.31105 0
M  V30 8070 O 777.677 -1.19567 -1.26686 0
M  V30 8071 C 774.809 -2.42039 -2.40062 0
M  V30 8072 H 776.002 -2.92454 -0.664119 0
M  V30 8073 H 773.555 -1.53206 -0.309444 0
M  V30 8074 H 774.29 -1.55904 -2.84367 0
M  V30 8075 H 774.075 -3.22437 -2.23108 0
M  V30 8076 H 775.565 -2.78017 -3.11603 0
M  V30 8077 N 776.003 0.335068 -1.53997 0
M  V30 8078 C 776.936 1.43533 -1.77407 0
M  V30 8079 C 777.914 1.5017 -0.623529 0
M  V30 8080 O 779.098 1.67756 -0.85966 0
M  V30 8081 C 776.225 2.81712 -1.88033 0
M  V30 8082 C 775.271 2.92661 -3.10245 0
M  V30 8083 S 776.104 2.58254 -4.69111 0
M  V30 8084 C 777.26 3.98525 -4.82627 0
M  V30 8085 H 777.493 1.2346 -2.70453 0
M  V30 8086 H 775.026 0.531234 -1.44973 0
M  V30 8087 H 776.984 3.61314 -1.9484 0
M  V30 8088 H 775.645 2.99075 -0.959849 0
M  V30 8089 H 774.838 3.93931 -3.14379 0
M  V30 8090 H 774.44 2.21017 -3.01708 0
M  V30 8091 H 776.732 4.93146 -4.64557 0
M  V30 8092 H 777.675 3.9938 -5.84723 0
M  V30 8093 H 778.083 3.86945 -4.11016 0
M  V30 8094 N 777.481 1.45874 0.596531 0
M  V30 8095 C 778.428 1.55389 1.70655 0
M  V30 8096 C 779.398 0.399036 1.61236 0
M  V30 8097 O 780.583 0.61396 1.80652 0
M  V30 8098 C 777.723 1.53705 3.0898 0
M  V30 8099 C 776.836 2.79823 3.29125 0
M  V30 8100 C 775.971 2.69735 4.5762 0
M  V30 8101 C 775.01 3.90856 4.71061 0
M  V30 8102 N 774.147 3.79237 5.90867 0
M  V30 8103 H 778.987 2.50211 1.61859 0
M  V30 8104 H 776.524 1.24146 0.789069 0
M  V30 8105 H 778.482 1.50715 3.89026 0
M  V30 8106 H 777.112 0.624247 3.16706 0
M  V30 8107 H 776.164 2.92852 2.42779 0
M  V30 8108 H 777.476 3.69628 3.34927 0
M  V30 8109 H 776.63 2.64773 5.45875 0
M  V30 8110 H 775.369 1.77547 4.54234 0
M  V30 8111 H 774.374 3.96164 3.81227 0
M  V30 8112 H 775.599 4.84124 4.76236 0
M  V30 8113 H 773.545 2.89825 5.88504 0
M  V30 8114 H 773.462 4.62686 5.97877 0
M  V30 8115 H 774.73 3.78227 6.8159 0
M  V30 8116 N 778.959 -0.83999 1.33349 0
M  V30 8117 C 780.189 -1.62492 1.27593 0
M  V30 8118 C 780.597 -1.88559 -0.155597 0
M  V30 8119 O 779.94 -1.46537 -1.10782 0
M  V30 8120 C 780.002 -2.99984 1.98116 0
M  V30 8121 C 779.666 -2.96892 3.47425 0
M  V30 8122 C 780.663 -2.72688 4.42648 0
M  V30 8123 C 778.348 -3.17063 3.89585 0
M  V30 8124 C 780.342 -2.68681 5.78004 0
M  V30 8125 C 778.029 -3.12682 5.25046 0
M  V30 8126 C 779.027 -2.88522 6.19067 0
M  V30 8127 O 778.715 -2.84042 7.52047 0
M  V30 8128 H 778.447 -0.512358 0.440982 0
M  V30 8129 H 781.001 -1.0545 1.76265 0
M  V30 8130 H 779.231 -3.58875 1.44034 0
M  V30 8131 H 780.92 -3.6084 1.85875 0
M  V30 8132 H 781.686 -2.56856 4.114 0
M  V30 8133 H 777.565 -3.34889 3.16813 0
M  V30 8134 H 781.109 -2.49743 6.51363 0
M  V30 8135 H 777.006 -3.28063 5.55918 0
M  V30 8136 H 777.774 -2.99892 7.61582 0
M  V30 8137 N 780.437 -1.16799 -1.0581 0
M  V30 8138 C 781.385 -0.875111 -2.1551 0
M  V30 8139 C 782.379 0.157781 -1.68664 0
M  V30 8140 O 783.585 0.011297 -1.79996 0
M  V30 8141 H 779.96 -0.26542 -0.703602 0
M  V30 8142 H 781.931 -1.8076 -2.37421 0
M  V30 8143 C 780.68 -0.39802 -3.45414 0
M  V30 8144 H 780.003 -1.18425 -3.81858 0
M  V30 8145 H 781.443 -0.231913 -4.23365 0
M  V30 8146 C 779.902 0.88327 -3.25115 0
M  V30 8147 O 780.432 1.95145 -3.51114 0
M  V30 8148 N 778.638 0.828961 -2.78526 0
M  V30 8149 H 778.185 -0.0405029 -2.57568 0
M  V30 8150 H 778.143 1.68673 -2.65324 0
M  V30 8151 N 781.915 1.24427 -0.967243 0
M  V30 8152 C 782.845 2.2773 -0.515899 0
M  V30 8153 C 783.826 1.64197 0.444227 0
M  V30 8154 O 785.011 1.91193 0.340451 0
M  V30 8155 C 782.141 3.46751 0.195149 0
M  V30 8156 C 781.095 4.22548 -0.680953 0
M  V30 8157 C 780.421 5.34456 0.161561 0
M  V30 8158 C 781.721 4.83914 -1.96532 0
M  V30 8159 H 783.415 2.65735 -1.37933 0
M  V30 8160 H 780.961 1.27742 -0.664681 0
M  V30 8161 H 782.914 4.18153 0.522117 0
M  V30 8162 H 781.638 3.07771 1.09292 0
M  V30 8163 H 780.297 3.52946 -0.991186 0
M  V30 8164 H 779.945 4.91716 1.05947 0
M  V30 8165 H 779.645 5.86087 -0.421418 0
M  V30 8166 H 781.169 6.08685 0.483211 0
M  V30 8167 H 782.583 5.47392 -1.70396 0
M  V30 8168 H 780.98 5.45775 -2.49499 0
M  V30 8169 H 782.05 4.05393 -2.66053 0
M  V30 8170 N 783.393 0.737304 1.3929 0
M  V30 8171 C 784.641 0.285691 2.00071 0
M  V30 8172 C 784.962 -1.13169 1.58801 0
M  V30 8173 O 784.232 -1.77104 0.837308 0
M  V30 8174 H 782.812 0.102638 0.739915 0
M  V30 8175 H 785.474 0.947775 1.70303 0
M  V30 8176 H 784.57 0.335906 3.10287 0
M  V30 8177 N 784.871 -1.49948 0.485112 0
M  V30 8178 C 785.801 -2.31675 -0.291364 0
M  V30 8179 C 786.782 -1.39216 -0.977383 0
M  V30 8180 O 787.967 -1.68133 -0.971855 0
M  V30 8181 C 785.097 -3.19326 -1.36558 0
M  V30 8182 C 784.051 -4.2045 -0.800359 0
M  V30 8183 C 783.377 -4.96931 -1.97391 0
M  V30 8184 C 784.677 -5.21925 0.197867 0
M  V30 8185 H 786.371 -2.96839 0.390775 0
M  V30 8186 H 783.917 -1.42749 0.189375 0
M  V30 8187 H 785.87 -3.75304 -1.91638 0
M  V30 8188 H 784.594 -2.52074 -2.07668 0
M  V30 8189 H 783.253 -3.65594 -0.271428 0
M  V30 8190 H 782.901 -4.26141 -2.67232 0
M  V30 8191 H 782.601 -5.65344 -1.60187 0
M  V30 8192 H 784.125 -5.55749 -2.52935 0
M  V30 8193 H 785.539 -5.72691 -0.264239 0
M  V30 8194 H 783.936 -5.98138 0.484908 0
M  V30 8195 H 785.006 -4.71809 1.11912 0
M  V30 8196 N 786.349 -0.21828 -1.56081 0
M  V30 8197 C 787.626 0.463143 -1.90038 0
M  V30 8198 C 788.006 1.77982 -1.13515 0
M  V30 8199 O 787.354 2.27199 -0.24345 0
M  V30 8200 C 787.564 0.659292 -3.42716 0
M  V30 8201 C 788.912 0.968203 -4.13414 0
M  V30 8202 O 789.936 0.746195 -3.48296 0
M  V30 8203 O 788.795 1.38936 -5.28544 0
M  V30 8204 H 785.889 0.244435 -0.790051 0
M  V30 8205 H 788.435 -0.260221 -1.67693 0
M  V30 8206 H 787.207 -0.269584 -3.9037 0
M  V30 8207 H 786.83 1.43426 -3.7083 0
M  V30 8208 N 787.827 1.57504 0.0551401 0
M  V30 8209 C 788.757 2.07864 1.06372 0
M  V30 8210 C 789.738 0.975565 1.39344 0
M  V30 8211 O 790.923 1.24929 1.48682 0
M  V30 8212 C 788.053 2.53643 2.3724 0
M  V30 8213 C 787.007 3.67978 2.18578 0
M  V30 8214 C 786.333 3.9987 3.54976 0
M  V30 8215 C 787.633 4.97405 1.59329 0
M  V30 8216 H 789.327 2.92379 0.644595 0
M  V30 8217 H 786.873 1.40654 0.308619 0
M  V30 8218 H 788.826 2.8749 3.08103 0
M  V30 8219 H 787.55 1.66177 2.81163 0
M  V30 8220 H 786.209 3.3444 1.50152 0
M  V30 8221 H 785.857 3.0951 3.965 0
M  V30 8222 H 785.557 4.76867 3.43324 0
M  V30 8223 H 787.081 4.36228 4.27244 0
M  V30 8224 H 788.495 5.29375 2.20078 0
M  V30 8225 H 786.892 5.78837 1.58327 0
M  V30 8226 H 787.962 4.81697 0.55638 0
M  V30 8227 N 789.305 -0.326896 1.54172 0
M  V30 8228 C 790.721 -0.671034 1.44808 0
M  V30 8229 C 790.921 -1.91781 0.618258 0
M  V30 8230 O 789.977 -2.52235 0.115751 0
M  V30 8231 C 791.29 -0.848147 2.88491 0
M  V30 8232 C 792.838 -0.945702 2.98371 0
M  V30 8233 C 793.313 -1.15501 4.43197 0
M  V30 8234 N 794.804 -1.22183 4.46795 0
M  V30 8235 C 795.539 -1.4016 5.56006 0
M  V30 8236 N 795.035 -1.55202 6.75192 0
M  V30 8237 N 796.828 -1.42841 5.43648 0
M  V30 8238 H 788.979 0.49262 2.06608 0
M  V30 8239 H 791.242 0.158574 0.934643 0
M  V30 8240 H 790.948 -0.00329969 3.517 0
M  V30 8241 H 790.822 -1.74497 3.34411 0
M  V30 8242 H 793.209 -1.78106 2.35292 0
M  V30 8243 H 793.29 -0.0254215 2.55787 0
M  V30 8244 H 792.934 -0.324521 5.06862 0
M  V30 8245 H 792.864 -2.08911 4.83388 0
M  V30 8246 H 795.355 -1.12016 3.60917 0
M  V30 8247 H 795.668 -1.68601 7.54184 0
M  V30 8248 H 794.013 -1.52306 6.78106 0
M  V30 8249 H 797.204 -1.30683 4.49488 0
M  V30 8250 H 797.377 -1.56509 6.28816 0
M  V30 8251 N 790.784 -1.46188 -0.588786 0
M  V30 8252 C 792.012 -1.54743 -1.37339 0
M  V30 8253 C 792.427 -0.186446 -1.87877 0
M  V30 8254 O 791.784 0.815247 -1.63279 0
M  V30 8255 C 791.835 -2.54727 -2.56508 0
M  V30 8256 O 791.556 -3.85539 -2.08066 0
M  V30 8257 C 793.057 -2.73163 -3.49137 0
M  V30 8258 H 790.277 -0.523484 -0.419768 0
M  V30 8259 H 792.821 -1.91543 -0.716345 0
M  V30 8260 H 790.976 -2.20948 -3.18215 0
M  V30 8261 H 791.39 -4.39905 -2.85629 0
M  V30 8262 H 792.864 -3.47057 -4.2925 0
M  V30 8263 H 793.341 -1.79856 -4.00685 0
M  V30 8264 H 793.947 -3.08014 -2.9327 0
M  V30 8265 N 792.262 0.832906 -1.33792 0
M  V30 8266 C 793.225 1.92471 -1.24449 0
M  V30 8267 C 794.225 1.59981 -0.162085 0
M  V30 8268 O 795.415 1.69208 -0.414029 0
M  V30 8269 C 792.547 3.28278 -0.919044 0
M  V30 8270 H 793.74 2.0218 -2.21502 0
M  V30 8271 H 791.293 1.0257 -1.17936 0
M  V30 8272 H 792.028 3.24263 0.048738 0
M  V30 8273 H 791.813 3.53241 -1.70187 0
M  V30 8274 H 793.303 4.08253 -0.878576 0
M  V30 8275 N 793.74 1.17359 1.05189 0
M  V30 8276 C 794.703 0.892604 2.11105 0
M  V30 8277 C 795.703 -0.117236 1.60372 0
M  V30 8278 O 796.893 0.114936 1.7382 0
M  V30 8279 C 794.025 0.337032 3.3923 0
M  V30 8280 H 795.218 1.83169 2.37464 0
M  V30 8281 H 792.771 0.984051 1.21434 0
M  V30 8282 H 793.506 -0.609198 3.18527 0
M  V30 8283 H 793.291 1.06484 3.77364 0
M  V30 8284 H 794.781 0.158763 4.17298 0
M  V30 8285 N 795.218 -1.23913 0.973828 0
M  V30 8286 C 796.448 -1.95911 0.655938 0
M  V30 8287 C 796.856 -1.72375 -0.779967 0
M  V30 8288 O 796.199 -1.00807 -1.5357 0
M  V30 8289 C 796.261 -3.49103 0.858324 0
M  V30 8290 C 795.925 -3.96347 2.27504 0
M  V30 8291 C 796.922 -4.05537 3.25324 0
M  V30 8292 C 794.607 -4.29509 2.60437 0
M  V30 8293 C 796.601 -4.47233 4.5416 0
M  V30 8294 C 794.288 -4.70887 3.89498 0
M  V30 8295 C 795.286 -4.79714 4.86172 0
M  V30 8296 O 794.974 -5.20166 6.1293 0
M  V30 8297 H 794.706 -0.630721 0.243244 0
M  V30 8298 H 797.26 -1.58534 1.30599 0
M  V30 8299 H 795.49 -3.86405 0.151097 0
M  V30 8300 H 797.179 -4.02311 0.538592 0
M  V30 8301 H 797.945 -3.80128 3.0121 0
M  V30 8302 H 793.824 -4.21853 1.85906 0
M  V30 8303 H 797.368 -4.54038 5.29618 0
M  V30 8304 H 793.265 -4.95744 4.1341 0
M  V30 8305 H 794.033 -5.38298 6.16586 0
M  V30 8306 N 796.696 -0.74468 -1.38897 0
M  V30 8307 C 797.942 -0.297324 -2.00609 0
M  V30 8308 C 798.275 1.11547 -1.58968 0
M  V30 8309 O 797.55 1.76227 -0.823057 0
M  V30 8310 C 797.833 -0.410125 -3.57757 0
M  V30 8311 C 797.686 -1.86338 -4.09387 0
M  V30 8312 C 799.005 0.20176 -4.39637 0
M  V30 8313 H 796.124 -0.109509 -0.728819 0
M  V30 8314 H 798.766 -0.942653 -1.64967 0
M  V30 8315 H 796.916 0.139287 -3.8825 0
M  V30 8316 H 798.588 -2.47042 -3.89574 0
M  V30 8317 H 796.831 -2.38146 -3.62586 0
M  V30 8318 H 797.502 -1.89352 -5.18507 0
M  V30 8319 H 799.978 -0.266703 -4.15244 0
M  V30 8320 H 798.854 0.0925415 -5.48822 0
M  V30 8321 H 799.115 1.289 -4.22891 0
M  V30 8322 N 798.174 1.49689 -0.493057 0
M  V30 8323 C 799.122 2.30613 0.303383 0
M  V30 8324 C 800.116 1.38867 0.970165 0
M  V30 8325 O 801.322 1.55956 0.898761 0
M  V30 8326 H 797.697 0.742891 0.116691 0
M  V30 8327 H 799.668 2.95717 -0.39924 0
M  V30 8328 C 798.417 3.20008 1.35978 0
M  V30 8329 H 797.74 3.90526 0.856103 0
M  V30 8330 H 799.18 3.79586 1.88919 0
M  V30 8331 C 797.639 2.39079 2.37367 0
M  V30 8332 O 798.169 2.08933 3.43089 0
M  V30 8333 N 796.375 2.0125 2.09635 0
M  V30 8334 H 795.922 2.25966 1.23682 0
M  V30 8335 H 795.88 1.47408 2.77702 0
M  V30 8336 N 799.652 0.226554 1.55963 0
M  V30 8337 C 800.615 -0.668015 2.19249 0
M  V30 8338 C 801.615 -1.11794 1.1558 0
M  V30 8339 O 802.805 -1.02593 1.40784 0
M  V30 8340 C 799.937 -1.91571 2.81981 0
M  V30 8341 H 801.13 -0.116175 2.99675 0
M  V30 8342 H 798.683 -0.0230497 1.56283 0
M  V30 8343 H 799.418 -2.50929 2.05439 0
M  V30 8344 H 799.203 -1.6015 3.57903 0
M  V30 8345 H 800.693 -2.55294 3.30477 0
M  V30 8346 N 801.13 -1.57531 -0.0467866 0
M  V30 8347 C 802.379 -1.87632 -0.740069 0
M  V30 8348 C 802.692 -0.822691 -1.77457 0
M  V30 8349 O 803.898 -1.01235 -2.5192 0
M  V30 8350 C 802.354 -3.32917 -1.36727 0
M  V30 8351 C 801.962 -4.46469 -0.370035 0
M  V30 8352 C 803.706 -3.72189 -2.04146 0
M  V30 8353 C 801.613 -5.82806 -1.00457 0
M  V30 8354 H 800.543 -0.70002 -0.280158 0
M  V30 8355 H 803.194 -1.83499 0.00607151 0
M  V30 8356 H 801.576 -3.31739 -2.16252 0
M  V30 8357 H 802.75 -4.59085 0.397217 0
M  V30 8358 H 801.065 -4.15914 0.201079 0
M  V30 8359 H 803.662 -4.71357 -2.52441 0
M  V30 8360 H 804.005 -3.03268 -2.85192 0
M  V30 8361 H 804.538 -3.75465 -1.3142 0
M  V30 8362 H 801.277 -6.55083 -0.233907 0
M  V30 8363 H 800.797 -5.73944 -1.74209 0
M  V30 8364 H 802.476 -6.28961 -1.51713 0
M  V30 8365 N 802.608 0.318715 -1.54344 0
M  V30 8366 C 803.518 1.41535 -1.87097 0
M  V30 8367 C 804.534 1.56361 -0.763353 0
M  V30 8368 O 805.71 1.71365 -1.05811 0
M  V30 8369 C 802.775 2.76178 -2.09587 0
M  V30 8370 C 801.836 2.70486 -3.3337 0
M  V30 8371 C 801.069 3.98708 -3.54778 0
M  V30 8372 O 801.292 4.9721 -2.79532 0
M  V30 8373 O 800.226 4.01674 -4.48266 0
M  V30 8374 H 804.052 1.16764 -2.80357 0
M  V30 8375 H 801.637 0.51318 -1.4031 0
M  V30 8376 H 803.519 3.55873 -2.25682 0
M  V30 8377 H 802.194 3.00829 -1.19514 0
M  V30 8378 H 801.101 1.89325 -3.22656 0
M  V30 8379 H 802.434 2.50789 -4.23516 0
M  V30 8380 N 804.086 1.46499 0.581025 0
M  V30 8381 C 805.033 1.5719 1.68997 0
M  V30 8382 C 806.003 0.416114 1.60803 0
M  V30 8383 O 807.188 0.633086 1.79991 0
M  V30 8384 C 804.328 1.56973 3.07333 0
M  V30 8385 C 803.441 2.83298 3.26139 0
M  V30 8386 C 802.576 2.74574 4.54734 0
M  V30 8387 C 801.615 3.9583 4.66889 0
M  V30 8388 N 800.752 3.85482 5.86811 0
M  V30 8389 H 805.592 2.51914 1.59196 0
M  V30 8390 H 803.129 1.24975 0.775857 0
M  V30 8391 H 805.087 1.54832 3.87405 0
M  V30 8392 H 803.717 0.657803 3.16027 0
M  V30 8393 H 802.769 2.95411 2.3966 0
M  V30 8394 H 804.081 3.7316 3.30988 0
M  V30 8395 H 803.235 2.70548 5.43036 0
M  V30 8396 H 801.974 1.82354 4.52325 0
M  V30 8397 H 800.979 4.00186 3.77003 0
M  V30 8398 H 802.204 4.89148 4.71075 0
M  V30 8399 H 800.15 2.96051 5.85397 0
M  V30 8400 H 800.067 4.69002 5.92936 0
M  V30 8401 H 801.335 3.85434 6.7754 0
M  V30 8402 N 805.565 -0.825799 1.34232 0
M  V30 8403 C 806.811 -1.58419 1.26614 0
M  V30 8404 C 807.144 -1.93503 -0.164341 0
M  V30 8405 O 806.419 -1.59785 -1.109 0
M  V30 8406 C 806.702 -2.8856 2.15418 0
M  V30 8407 C 806.555 -2.60075 3.66989 0
M  V30 8408 C 807.874 -3.90107 2.03726 0
M  V30 8409 H 804.993 -0.574794 0.461282 0
M  V30 8410 H 807.635 -0.951519 1.64457 0
M  V30 8411 H 805.785 -3.42553 1.83275 0
M  V30 8412 H 807.457 -2.12414 4.09485 0
M  V30 8413 H 805.7 -1.93565 3.88221 0
M  V30 8414 H 806.371 -3.52866 4.24488 0
M  V30 8415 H 808.847 -3.45459 2.31942 0
M  V30 8416 H 807.723 -4.78976 2.68092 0
M  V30 8417 H 807.984 -4.30329 1.01337 0
M  V30 8418 N 807.043 -1.17915 -1.04565 0
M  V30 8419 C 808.29 -0.971424 -1.77678 0
M  V30 8420 C 808.618 0.499401 -1.87979 0
M  V30 8421 O 807.873 1.38695 -1.38066 0
M  V30 8422 C 808.172 -1.56528 -3.213 0
M  V30 8423 C 807.838 -3.06138 -3.31044 0
M  V30 8424 C 806.5 -3.46974 -3.33411 0
M  V30 8425 C 808.852 -4.02151 -3.31548 0
M  V30 8426 C 806.18 -4.82406 -3.33918 0
M  V30 8427 C 808.532 -5.37492 -3.33595 0
M  V30 8428 C 807.196 -5.77782 -3.34251 0
M  V30 8429 H 806.466 -0.355469 -0.650171 0
M  V30 8430 H 809.113 -1.46902 -1.22849 0
M  V30 8431 H 807.418 -0.98955 -3.79098 0
M  V30 8432 H 809.115 -1.38003 -3.76505 0
M  V30 8433 H 805.705 -2.73589 -3.29919 0
M  V30 8434 H 809.889 -3.71656 -3.28916 0
M  V30 8435 H 805.145 -5.12927 -3.3274 0
M  V30 8436 H 809.319 -6.1166 -3.32934 0
M  V30 8437 H 806.946 -6.82702 -3.34397 0
M  V30 8438 N 808.521 1.23394 -0.980386 0
M  V30 8439 C 809.468 2.24859 -0.520298 0
M  V30 8440 C 810.438 1.60144 0.440821 0
M  V30 8441 O 811.623 1.87593 0.348369 0
M  V30 8442 C 808.763 3.44675 0.171145 0
M  V30 8443 C 807.876 4.23947 -0.830233 0
M  V30 8444 C 807.011 5.31079 -0.113597 0
M  V30 8445 C 806.05 6.02058 -1.10419 0
M  V30 8446 N 805.187 7.00862 -0.416709 0
M  V30 8447 H 810.027 2.63579 -1.39032 0
M  V30 8448 H 807.564 1.29556 -0.696682 0
M  V30 8449 H 809.522 4.13024 0.588838 0
M  V30 8450 H 808.152 3.06755 1.00504 0
M  V30 8451 H 807.204 3.55016 -1.36631 0
M  V30 8452 H 808.516 4.72945 -1.58508 0
M  V30 8453 H 807.67 6.05622 0.36146 0
M  V30 8454 H 806.409 4.83022 0.673854 0
M  V30 8455 H 805.414 5.26307 -1.59 0
M  V30 8456 H 806.639 6.52203 -1.8923 0
M  V30 8457 H 804.585 6.55057 0.351535 0
M  V30 8458 H 804.502 7.47804 -1.11021 0
M  V30 8459 H 805.77 7.79492 0.0359606 0
M  V30 8460 N 809.999 0.752036 1.385 0
M  V30 8461 C 811.245 0.307958 2.00448 0
M  V30 8462 C 811.578 -1.10702 1.59558 0
M  V30 8463 O 810.853 -1.75788 0.832391 0
M  V30 8464 C 811.136 0.429092 3.57534 0
M  V30 8465 C 810.989 1.88507 4.08393 0
M  V30 8466 C 812.308 -0.178442 4.39738 0
M  V30 8467 H 809.427 0.113373 0.728228 0
M  V30 8468 H 812.069 0.951389 1.64465 0
M  V30 8469 H 810.219 -0.118695 3.88319 0
M  V30 8470 H 811.891 2.49104 3.88259 0
M  V30 8471 H 810.134 2.40066 3.61318 0
M  V30 8472 H 810.805 1.92099 5.17496 0
M  V30 8473 H 813.281 0.28872 4.15097 0
M  V30 8474 H 812.157 -0.0634349 5.48863 0
M  V30 8475 H 812.418 -1.26655 4.23569 0
M  V30 8476 N 811.477 -1.49425 0.500989 0
M  V30 8477 C 812.707 -2.06561 -0.0402858 0
M  V30 8478 C 813.115 -1.36157 -1.31369 0
M  V30 8479 O 812.458 -0.433618 -1.78509 0
M  V30 8480 C 812.52 -3.5765 -0.364269 0
M  V30 8481 C 812.184 -4.49739 0.811417 0
M  V30 8482 C 813.181 -4.91255 1.7019 0
M  V30 8483 C 810.866 -4.92036 1.01022 0
M  V30 8484 C 812.86 -5.73806 2.77534 0
M  V30 8485 C 810.547 -5.74364 2.08683 0
M  V30 8486 C 811.545 -6.15154 2.96774 0
M  V30 8487 O 811.233 -6.95836 4.02577 0
M  V30 8488 H 810.965 -0.67578 0.0172357 0
M  V30 8489 H 813.519 -1.93193 0.697553 0
M  V30 8490 H 811.749 -3.69026 -1.1557 0
M  V30 8491 H 813.438 -3.97025 -0.844156 0
M  V30 8492 H 814.204 -4.59222 1.56013 0
M  V30 8493 H 810.083 -4.59789 0.333929 0
M  V30 8494 H 813.627 -6.05564 3.4632 0
M  V30 8495 H 809.524 -6.0581 2.22855 0
M  V30 8496 H 810.292 -7.14142 3.9993 0
M  V30 8497 N 812.955 -0.234822 -1.55841 0
M  V30 8498 C 813.903 0.686145 -2.22249 0
M  V30 8499 C 814.897 1.18948 -1.20614 0
M  V30 8500 O 816.103 1.14777 -1.38659 0
M  V30 8501 H 812.478 0.239724 -0.712767 0
M  V30 8502 H 814.449 0.102762 -2.98223 0
M  V30 8503 C 813.198 1.8776 -2.92646 0
M  V30 8504 H 812.521 1.49943 -3.70617 0
M  V30 8505 H 813.961 2.4995 -3.42493 0
M  V30 8506 C 812.42 2.74127 -1.95847 0
M  V30 8507 O 812.95 3.7329 -1.48384 0
M  V30 8508 N 811.156 2.4044 -1.63209 0
M  V30 8509 H 810.703 1.59854 -2.02001 0
M  V30 8510 H 810.661 2.98504 -0.987063 0
M  V30 8511 N 814.433 1.57553 0.0384317 0
M  V30 8512 C 815.343 2.09333 1.0591 0
M  V30 8513 C 816.359 1.0299 1.40247 0
M  V30 8514 O 817.535 1.34669 1.49754 0
M  V30 8515 C 814.6 2.55468 2.34386 0
M  V30 8516 C 813.661 3.76254 2.06716 0
M  V30 8517 C 812.894 4.20179 3.29067 0
M  V30 8518 O 813.117 3.637 4.39407 0
M  V30 8519 O 812.051 5.12697 3.15317 0
M  V30 8520 H 815.877 2.96683 0.649087 0
M  V30 8521 H 813.462 1.47211 0.254802 0
M  V30 8522 H 815.344 2.85514 3.09935 0
M  V30 8523 H 814.019 1.71234 2.74701 0
M  V30 8524 H 812.926 3.51241 1.28766 0
M  V30 8525 H 814.259 4.61443 1.71263 0
M  V30 8526 N 815.911 -0.310526 1.54511 0
M  V30 8527 C 816.874 -1.3657 1.84068 0
M  V30 8528 C 817.874 -1.44123 0.713097 0
M  V30 8529 O 819.064 -1.43924 0.981399 0
M  V30 8530 C 816.196 -2.75162 2.01243 0
M  V30 8531 H 817.389 -1.1161 2.78358 0
M  V30 8532 H 814.942 -0.546699 1.46427 0
M  V30 8533 H 815.677 -3.05359 1.09208 0
M  V30 8534 H 815.462 -2.71071 2.83307 0
M  V30 8535 H 816.952 -3.51473 2.25514 0
M  V30 8536 N 817.389 -1.46805 -0.573248 0
M  V30 8537 C 818.637 -1.52302 -1.32847 0
M  V30 8538 C 818.958 -0.180159 -1.94166 0
M  V30 8539 O 818.228 0.794291 -1.79075 0
M  V30 8540 H 816.808 -0.56097 -0.493276 0
M  V30 8541 H 819.47 -1.82998 -0.670642 0
M  V30 8542 H 818.566 -2.28089 -2.13031 0
M  V30 8543 N 818.867 0.818669 -1.34668 0
M  V30 8544 C 820.113 1.57746 -1.27453 0
M  V30 8545 C 820.446 1.93588 0.154077 0
M  V30 8546 O 819.721 1.60371 1.10051 0
M  V30 8547 C 820.004 2.87414 -2.16945 0
M  V30 8548 C 819.857 2.58125 -3.68363 0
M  V30 8549 C 821.176 3.89021 -2.05792 0
M  V30 8550 H 818.295 0.572339 -0.464324 0
M  V30 8551 H 820.937 0.942784 -1.64959 0
M  V30 8552 H 819.087 3.41576 -1.85089 0
M  V30 8553 H 820.759 2.10239 -4.10606 0
M  V30 8554 H 819.002 1.91503 -3.89242 0
M  V30 8555 H 819.673 3.5061 -4.26353 0
M  V30 8556 H 822.149 3.44224 -2.33771 0
M  V30 8557 H 821.025 4.77548 -2.70628 0
M  V30 8558 H 821.286 4.29786 -1.03618 0
M  V30 8559 N 820.346 1.18468 1.03938 0
M  V30 8560 C 821.574 1.00576 1.80809 0
M  V30 8561 C 821.989 -0.445786 1.83462 0
M  V30 8562 O 821.346 -1.30964 1.27101 0
M  V30 8563 C 821.397 1.55491 3.26351 0
M  V30 8564 O 821.118 2.94963 3.23926 0
M  V30 8565 C 822.619 1.42236 4.19862 0
M  V30 8566 H 819.839 0.35508 0.56935 0
M  V30 8567 H 822.383 1.57046 1.30984 0
M  V30 8568 H 820.538 1.03195 3.73403 0
M  V30 8569 H 820.952 3.20598 4.15111 0
M  V30 8570 H 822.426 1.85455 5.19914 0
M  V30 8571 H 822.903 0.371267 4.37628 0
M  V30 8572 H 823.509 1.9361 3.78675 0
M  V30 8573 N 821.824 -1.22873 0.986916 0
M  V30 8574 C 823.071 -1.91462 0.659424 0
M  V30 8575 C 823.399 -1.76931 -0.807825 0
M  V30 8576 O 822.654 -1.12829 -1.59901 0
M  V30 8577 C 822.953 -3.43014 1.00379 0
M  V30 8578 C 822.619 -3.77731 2.46232 0
M  V30 8579 C 821.281 -3.86918 2.86091 0
M  V30 8580 C 823.633 -3.94343 3.40798 0
M  V30 8581 C 820.961 -4.10149 4.19518 0
M  V30 8582 C 823.313 -4.19076 4.73875 0
M  V30 8583 C 821.977 -4.26486 5.13484 0
M  V30 8584 H 821.247 -0.700611 0.2413 0
M  V30 8585 H 823.894 -1.45763 1.24199 0
M  V30 8586 H 822.199 -3.90329 0.339226 0
M  V30 8587 H 823.896 -3.94327 0.728518 0
M  V30 8588 H 820.486 -3.71159 2.14334 0
M  V30 8589 H 824.67 -3.86629 3.11178 0
M  V30 8590 H 819.926 -4.1411 4.49803 0
M  V30 8591 H 824.1 -4.30873 5.47102 0
M  V30 8592 H 821.727 -4.4424 6.16891 0
M  V30 8593 N 823.302 -0.75937 -1.38099 0
M  V30 8594 C 824.53 -0.329111 -2.04266 0
M  V30 8595 C 824.945 1.04453 -1.57274 0
M  V30 8596 O 824.302 1.66449 -0.748397 0
M  V30 8597 C 824.353 -0.349192 -3.5981 0
M  V30 8598 O 824.074 -1.66863 -4.05078 0
M  V30 8599 C 825.575 0.0942106 -4.432 0
M  V30 8600 H 822.795 -0.13971 -0.656294 0
M  V30 8601 H 825.339 -1.02984 -1.76677 0
M  V30 8602 H 823.494 0.302846 -3.86214 0
M  V30 8603 H 823.908 -1.59877 -4.9954 0
M  V30 8604 H 825.382 0.0290004 -5.51992 0
M  V30 8605 H 825.859 1.1429 -4.24069 0
M  V30 8606 H 826.465 -0.529171 -4.21995 0
M  V30 8607 O 824.819 1.47821 -0.650476 0
M  V30 8608 H 825.51 1.92907 -0.175142 0
M  V30 END ATOM
M  V30 BEGIN BOND
M  V30 END BOND
M  V30 END CTAB
M  END
$$$$
