drugbank_target|P77836 Pyrimidine-nucleoside phosphorylase (DB03419)
 OpenBabel12092120273D

  0  0  0     0  0            999 V3000
M  V30 BEGIN CTAB
M  V30 COUNTS 6573 6612 0 0 0
M  V30 BEGIN ATOM
M  V30 1 H -0.908 1.98254 -0.117106 0
M  V30 2 N 0 1.576 0 0
M  V30 3 C 0.933 2.03868 1.02534 0
M  V30 4 C 1.911 0.928543 1.3348 0
M  V30 5 O 3.095 1.19667 1.45644 0
M  V30 6 C 0.222 2.43627 2.35294 0
M  V30 7 C -0.732 3.65373 2.2001 0
M  V30 8 S 0.101 5.13292 1.52614 0
M  V30 9 C 1.257 5.56322 2.86805 0
M  V30 10 H 1.49 2.90518 0.631377 0
M  V30 11 H -0.977 1.52953 0.210867 0
M  V30 12 H 0.981 2.67203 3.11629 0
M  V30 13 H -0.358 1.57376 2.7183 0
M  V30 14 H -1.165 3.90944 3.18086 0
M  V30 15 H -1.563 3.418 1.51819 0
M  V30 16 H 0.729 5.58782 3.83104 0
M  V30 17 H 1.672 6.56266 2.65933 0
M  V30 18 H 2.08 4.83886 2.90714 0
M  V30 19 N 1.4781 -0.272755 1.55222 0
M  V30 20 C 2.8941 -0.619959 1.47067 0
M  V30 21 C 3.0941 -1.895 0.684978 0
M  V30 22 O 2.1501 -2.51675 0.203931 0
M  V30 23 C 3.4631 -0.746693 2.91282 0
M  V30 24 C 5.0111 -0.840731 3.01497 0
M  V30 25 C 5.4861 -0.99924 4.46967 0
M  V30 26 N 6.9771 -1.06476 4.50796 0
M  V30 27 C 7.7121 -1.20621 5.6057 0
M  V30 28 N 7.2081 -1.31483 6.80209 0
M  V30 29 N 9.0011 -1.23733 5.48312 0
M  V30 30 H 1.1521 0.564606 2.04758 0
M  V30 31 H 3.4151 0.191177 0.928523 0
M  V30 32 H 3.1211 0.119753 3.51496 0
M  V30 33 H 2.9951 -1.6269 3.40311 0
M  V30 34 H 5.3821 -1.69764 2.41379 0
M  V30 35 H 5.4631 0.0640874 2.5572 0
M  V30 36 H 5.1071 -0.146984 5.07687 0
M  V30 37 H 5.0371 -1.91871 4.90401 0
M  V30 38 H 7.5281 -0.993196 3.64615 0
M  V30 39 H 7.8411 -1.42111 7.59621 0
M  V30 40 H 6.1861 -1.28487 6.8302 0
M  V30 41 H 9.3771 -1.14877 4.53785 0
M  V30 42 H 9.5501 -1.34412 6.33906 0
M  V30 43 N 2.9562 -1.48159 -0.537278 0
M  V30 44 C 3.8892 -1.567 -1.65893 0
M  V30 45 C 4.8672 -0.41787 -1.57139 0
M  V30 46 O 6.0512 -0.628461 -1.77715 0
M  V30 47 C 3.1782 -1.48818 -3.04255 0
M  V30 48 C 2.2242 -2.68482 -3.31391 0
M  V30 49 S 3.0572 -4.30516 -3.1846 0
M  V30 50 C 4.2132 -4.2522 -4.59281 0
M  V30 51 H 4.4462 -2.5159 -1.58397 0
M  V30 52 H 1.9792 -1.36602 -0.719672 0
M  V30 53 H 3.9372 -1.44958 -3.84054 0
M  V30 54 H 2.5982 -0.552777 -3.09198 0
M  V30 55 H 1.7912 -2.59085 -4.32309 0
M  V30 56 H 1.3932 -2.69567 -2.59248 0
M  V30 57 H 3.6852 -3.94703 -5.5065 0
M  V30 58 H 4.6282 -5.26292 -4.73732 0
M  V30 59 H 5.0362 -3.55791 -4.38261 0
M  V30 60 N 4.4343 0.785586 -1.36625 0
M  V30 61 C 5.6803 1.54591 -1.31261 0
M  V30 62 C 6.0133 1.93906 0.106823 0
M  V30 63 O 5.2883 1.63007 1.06108 0
M  V30 64 C 5.5713 2.82038 -2.23889 0
M  V30 65 C 5.4243 2.49066 -3.74548 0
M  V30 66 C 6.7433 3.83887 -2.15217 0
M  V30 67 H 3.8623 0.560846 -0.478143 0
M  V30 68 H 6.5043 0.902278 -1.67209 0
M  V30 69 H 4.6543 3.36961 -1.93363 0
M  V30 70 H 6.3263 2.00164 -4.15611 0
M  V30 71 H 4.5693 1.81954 -3.93796 0
M  V30 72 H 5.2403 3.40109 -4.34776 0
M  V30 73 H 7.7163 3.38421 -2.42096 0
M  V30 74 H 6.5923 4.70806 -2.82193 0
M  V30 75 H 6.8533 4.27131 -1.14068 0
M  V30 76 N 5.9124 1.20967 1.01018 0
M  V30 77 C 7.1894 0.93264 1.71934 0
M  V30 78 C 7.5694 -0.55692 2.03621 0
M  V30 79 O 6.9174 -1.52035 1.7058 0
M  V30 80 C 7.1274 1.81233 2.98254 0
M  V30 81 C 8.4754 2.05804 3.71389 0
M  V30 82 O 9.4994 1.78539 3.08225 0
M  V30 83 O 8.3584 2.51888 4.84989 0
M  V30 84 H 5.4524 0.349272 0.749625 0
M  V30 85 H 7.9984 1.31871 1.06808 0
M  V30 86 H 6.7704 2.82067 2.71208 0
M  V30 87 H 6.3934 1.42674 3.7112 0
M  V30 88 N 7.3905 -1.2043 1.01659 0
M  V30 89 C 8.3205 -2.25466 0.607226 0
M  V30 90 C 9.3015 -1.65853 -0.377716 0
M  V30 91 O 10.4865 -1.92409 -0.263149 0
M  V30 92 C 7.6165 -3.47256 -0.0552949 0
M  V30 93 C 6.5705 -4.19462 0.850632 0
M  V30 94 C 5.8965 -5.34673 0.0538859 0
M  V30 95 C 7.1965 -4.75603 2.15868 0
M  V30 96 H 8.8905 -2.59962 1.48526 0
M  V30 97 H 6.4365 -1.2496 0.715605 0
M  V30 98 H 8.3895 -4.19917 -0.353233 0
M  V30 99 H 7.1135 -3.11924 -0.968045 0
M  V30 100 H 5.7725 -3.48667 1.13257 0
M  V30 101 H 5.4205 -4.95585 -0.860514 0
M  V30 102 H 5.1205 -5.83913 0.657192 0
M  V30 103 H 6.6445 -6.10138 -0.237598 0
M  V30 104 H 8.0585 -5.40083 1.92311 0
M  V30 105 H 6.4555 -5.3528 2.71284 0
M  V30 106 H 7.5255 -3.94346 2.82169 0
M  V30 107 N 8.8686 -0.792821 -1.36206 0
M  V30 108 C 10.1176 -0.363353 -1.984 0
M  V30 109 C 10.4306 1.07172 -1.63626 0
M  V30 110 O 11.6366 1.60362 -2.19081 0
M  V30 111 C 10.0926 -0.59872 -3.54885 0
M  V30 112 C 9.7006 -2.04543 -3.9858 0
M  V30 113 C 11.4446 -0.233926 -4.23855 0
M  V30 114 C 9.3516 -2.22727 -5.47856 0
M  V30 115 H 8.2816 -0.13212 -0.742334 0
M  V30 116 H 10.9326 -0.974935 -1.55458 0
M  V30 117 H 9.3146 0.0826222 -3.95914 0
M  V30 118 H 10.4886 -2.76345 -3.68741 0
M  V30 119 H 8.8036 -2.36879 -3.42458 0
M  V30 120 H 11.4006 -0.348027 -5.33566 0
M  V30 121 H 11.7436 0.818351 -4.08177 0
M  V30 122 H 12.2766 -0.868639 -3.882 0
M  V30 123 H 9.0156 -3.2635 -5.68486 0
M  V30 124 H 8.5356 -1.55434 -5.7931 0
M  V30 125 H 10.2146 -2.03607 -6.14128 0
M  V30 126 N 10.3467 1.47872 -0.545128 0
M  V30 127 C 11.2567 2.33633 0.212746 0
M  V30 128 C 12.2727 1.4744 0.923983 0
M  V30 129 O 13.4487 1.80393 0.895572 0
M  V30 130 C 10.5137 3.23884 1.23693 0
M  V30 131 C 9.5747 4.25961 0.534417 0
M  V30 132 C 8.8077 5.11899 1.5098 0
M  V30 133 O 9.0307 5.00077 2.7437 0
M  V30 134 O 7.9647 5.92831 1.0409 0
M  V30 135 H 11.7907 2.99714 -0.490416 0
M  V30 136 H 9.3757 1.46235 -0.305871 0
M  V30 137 H 11.2577 3.79666 1.82843 0
M  V30 138 H 9.9327 2.60446 1.92222 0
M  V30 139 H 8.8397 3.73972 -0.0979679 0
M  V30 140 H 10.1727 4.92079 -0.109213 0
M  V30 141 N 11.8248 0.280983 1.55075 0
M  V30 142 C 12.7718 -0.603937 2.22758 0
M  V30 143 C 13.7418 -1.1452 1.20309 0
M  V30 144 O 14.9268 -1.19343 1.48869 0
M  V30 145 C 12.0668 -1.77947 2.95684 0
M  V30 146 C 11.1798 -1.2715 4.12864 0
M  V30 147 C 10.3148 -2.4093 4.7342 0
M  V30 148 C 9.3538 -1.87165 5.82783 0
M  V30 149 N 8.4908 -2.94441 6.37377 0
M  V30 150 H 13.3308 -0.020124 2.97993 0
M  V30 151 H 10.8678 0.00183425 1.471 0
M  V30 152 H 12.8258 -2.47055 3.36184 0
M  V30 153 H 11.4558 -2.33522 2.22861 0
M  V30 154 H 10.5078 -0.473331 3.77444 0
M  V30 155 H 11.8198 -0.837751 4.91715 0
M  V30 156 H 10.9738 -3.18021 5.1667 0
M  V30 157 H 9.7128 -2.87623 3.93859 0
M  V30 158 H 8.7178 -1.08556 5.38976 0
M  V30 159 H 9.9428 -1.41401 6.64216 0
M  V30 160 H 7.8888 -3.40505 5.60707 0
M  V30 161 H 7.8058 -2.55501 7.11516 0
M  V30 162 H 9.0738 -3.71489 6.85285 0
M  V30 163 N 13.3029 -1.57598 0.00835791 0
M  V30 164 C 14.2499 -2.08945 -0.980346 0
M  V30 165 C 15.2199 -0.986738 -1.33614 0
M  V30 166 O 16.4049 -1.25968 -1.43306 0
M  V30 167 C 13.5449 -2.60425 -2.26435 0
M  V30 168 C 12.6579 -3.84628 -1.96685 0
M  V30 169 C 11.7929 -4.24579 -3.19228 0
M  V30 170 C 10.8319 -5.41596 -2.85202 0
M  V30 171 N 9.9689 -5.768 -4.00307 0
M  V30 172 H 14.8089 -2.93148 -0.535551 0
M  V30 173 H 12.3459 -1.44912 -0.252776 0
M  V30 174 H 14.3039 -2.88354 -3.01509 0
M  V30 175 H 12.9339 -1.79083 -2.68568 0
M  V30 176 H 11.9859 -3.63556 -1.11942 0
M  V30 177 H 13.2979 -4.69796 -1.67611 0
M  V30 178 H 12.4519 -4.53834 -4.02641 0
M  V30 179 H 11.1909 -3.38137 -3.51447 0
M  V30 180 H 10.1959 -5.12056 -2.00198 0
M  V30 181 H 11.4209 -6.29721 -2.54222 0
M  V30 182 H 9.3669 -4.93316 -4.32407 0
M  V30 183 H 9.2839 -6.5656 -3.74786 0
M  V30 184 H 10.5519 -6.10652 -4.84484 0
M  V30 185 N 14.781 0.264519 -1.55364 0
M  V30 186 C 16.197 0.61215 -1.47394 0
M  V30 187 C 16.397 1.89134 -0.695018 0
M  V30 188 O 15.453 2.51563 -0.217275 0
M  V30 189 C 16.766 0.731235 -2.91674 0
M  V30 190 C 18.314 0.82473 -3.01939 0
M  V30 191 C 18.789 0.975522 -4.4749 0
M  V30 192 N 20.28 1.04083 -4.51354 0
M  V30 193 C 21.015 1.17646 -5.61201 0
M  V30 194 N 20.511 1.27874 -6.80896 0
M  V30 195 N 22.304 1.20823 -5.48961 0
M  V30 196 H 14.455 -0.575456 -2.04456 0
M  V30 197 H 16.718 -0.196099 -0.927496 0
M  V30 198 H 16.424 -0.138392 -3.51428 0
M  V30 199 H 16.298 1.60883 -3.41169 0
M  V30 200 H 18.685 1.68482 -2.42276 0
M  V30 201 H 18.766 -0.0776479 -2.55682 0
M  V30 202 H 18.41 0.120058 -5.07758 0
M  V30 203 H 18.34 1.89268 -4.91412 0
M  V30 204 H 20.831 0.973846 -3.65136 0
M  V30 205 H 21.144 1.38081 -7.60364 0
M  V30 206 H 19.489 1.24863 -6.83692 0
M  V30 207 H 22.68 1.12469 -4.54388 0
M  V30 208 H 22.853 1.31049 -6.3461 0
M  V30 209 N 16.2591 1.48442 0.529413 0
M  V30 210 C 17.5361 1.46978 1.29062 0
M  V30 211 C 17.9161 0.181769 2.10316 0
M  V30 212 O 17.2641 -0.836481 2.12639 0
M  V30 213 C 17.4741 2.7321 2.17157 0
M  V30 214 C 18.8221 3.21562 2.77278 0
M  V30 215 O 19.8461 2.74131 2.27444 0
M  V30 216 O 18.7051 4.04094 3.67927 0
M  V30 217 H 15.7991 0.587003 0.582543 0
M  V30 218 H 18.3451 1.60676 0.546021 0
M  V30 219 H 17.1171 3.58465 1.56903 0
M  V30 220 H 16.7401 2.62235 2.98862 0
M  V30 221 N 17.7372 -0.778329 1.37039 0
M  V30 222 C 18.9852 -1.53361 1.31623 0
M  V30 223 C 19.3062 -1.94739 -0.100831 0
M  V30 224 O 18.5762 -1.65797 -1.04347 0
M  V30 225 H 17.1562 -0.568794 0.484234 0
M  V30 226 H 19.8182 -0.926742 1.71457 0
M  V30 227 H 18.9142 -2.43606 1.95096 0
M  V30 228 N 19.2153 -1.21501 -1.00376 0
M  V30 229 C 20.1653 -0.942843 -2.07592 0
M  V30 230 C 21.1493 0.102384 -1.60574 0
M  V30 231 O 22.3413 -0.10671 -1.76678 0
M  V30 232 C 19.4703 -0.510729 -3.3948 0
M  V30 233 C 18.5563 -1.59009 -3.93163 0
M  V30 234 N 18.9473 -2.81544 -4.20198 0
M  V30 235 C 17.2453 -1.45925 -4.21452 0
M  V30 236 C 17.9463 -3.51261 -4.63671 0
M  V30 237 N 16.9223 -2.78703 -4.66718 0
M  V30 238 H 20.7243 -1.87378 -2.26421 0
M  V30 239 H 18.2383 -1.11093 -1.18458 0
M  V30 240 H 20.2353 -0.297101 -4.1584 0
M  V30 241 H 18.8953 0.413436 -3.22057 0
M  V30 242 H 19.9063 -3.18075 -4.08716 0
M  V30 243 H 16.5833 -0.600467 -4.13159 0
M  V30 244 H 17.9733 -4.56183 -4.93302 0
M  V30 245 N 20.6934 1.19889 -1.02296 0
M  V30 246 C 21.6564 2.21116 -0.603351 0
M  V30 247 C 22.6564 1.5738 0.329884 0
M  V30 248 O 23.8464 1.73802 0.117702 0
M  V30 249 C 20.9784 3.40696 0.117992 0
M  V30 250 H 22.1714 2.59754 -1.49893 0
M  V30 251 H 19.7244 1.33463 -0.813468 0
M  V30 252 H 20.4594 3.07569 1.0282 0
M  V30 253 H 20.2444 3.88188 -0.552511 0
M  V30 254 H 21.7344 4.15692 0.398696 0
M  V30 255 N 22.1715 0.800033 1.35784 0
M  V30 256 C 23.1015 0.220184 2.3246 0
M  V30 257 C 24.0825 -0.65073 1.57161 0
M  V30 258 O 25.2675 -0.582359 1.85263 0
M  V30 259 C 22.3975 -0.637353 3.41402 0
M  V30 260 C 21.3515 0.134531 4.27789 0
M  V30 261 C 20.6775 -0.844285 5.27992 0
M  V30 262 C 21.9775 1.32979 5.05088 0
M  V30 263 H 23.6715 1.02787 2.81203 0
M  V30 264 H 21.2175 0.495717 1.35199 0
M  V30 265 H 23.1705 -1.05302 4.08031 0
M  V30 266 H 21.8945 -1.47785 2.91251 0
M  V30 267 H 20.5535 0.531296 3.6273 0
M  V30 268 H 20.2015 -1.68011 4.74111 0
M  V30 269 H 19.9015 -0.332184 5.8666 0
M  V30 270 H 21.4255 -1.2583 5.97494 0
M  V30 271 H 22.8395 0.98934 5.64699 0
M  V30 272 H 21.2365 1.77593 5.7322 0
M  V30 273 H 22.3065 2.11978 4.36111 0
M  V30 274 N 23.6496 -1.47581 0.552962 0
M  V30 275 C 24.8776 -2.06875 0.0320556 0
M  V30 276 C 25.2926 -1.40625 -1.25976 0
M  V30 277 O 24.6496 -0.501349 -1.75479 0
M  V30 278 C 24.7006 -3.61092 -0.17167 0
M  V30 279 O 24.4216 -4.24858 1.06899 0
M  V30 280 C 25.9226 -4.37242 -0.730344 0
M  V30 281 H 23.1426 -0.669561 0.043915 0
M  V30 282 H 25.6866 -1.89646 0.765163 0
M  V30 283 H 23.8416 -3.7785 -0.854894 0
M  V30 284 H 24.2556 -5.17334 0.864059 0
M  V30 285 H 25.7296 -5.45842 -0.822203 0
M  V30 286 H 26.2066 -4.03235 -1.74064 0
M  V30 287 H 26.8126 -4.25219 -0.0829543 0
M  V30 288 N 25.1277 -0.289203 -1.54924 0
M  V30 289 C 26.0747 0.592115 -2.23075 0
M  V30 290 C 27.0447 1.13881 -1.20915 0
M  V30 291 O 28.2297 1.18551 -1.495 0
M  V30 292 C 25.3697 1.76376 -2.96623 0
M  V30 293 C 24.4827 1.24959 -4.13533 0
M  V30 294 C 23.6177 2.38416 -4.74691 0
M  V30 295 C 22.6567 1.84072 -5.83767 0
M  V30 296 N 21.7937 2.91057 -6.38929 0
M  V30 297 H 26.6337 0.00432038 -2.98 0
M  V30 298 H 24.1707 -0.00963529 -1.47097 0
M  V30 299 H 26.1287 2.45268 -3.3749 0
M  V30 300 H 24.7587 2.32337 -2.24097 0
M  V30 301 H 23.8107 0.453307 -3.77689 0
M  V30 302 H 25.1227 0.811662 -4.92152 0
M  V30 303 H 24.2767 3.15276 -5.18349 0
M  V30 304 H 23.0157 2.8553 -3.95378 0
M  V30 305 H 22.0207 1.05697 -5.39545 0
M  V30 306 H 23.2457 1.37877 -6.64956 0
M  V30 307 H 21.1917 3.37526 -5.62505 0
M  V30 308 H 21.1087 2.51724 -7.12861 0
M  V30 309 H 22.3767 3.6785 -6.87246 0
M  V30 310 N 26.6058 1.57591 -0.0167156 0
M  V30 311 C 27.5158 2.1291 0.98521 0
M  V30 312 C 28.5318 1.07834 1.36557 0
M  V30 313 O 29.7078 1.39826 1.44951 0
M  V30 314 C 26.7728 2.63512 2.25305 0
M  V30 315 C 25.8338 3.83256 1.93426 0
M  V30 316 C 25.0668 4.31435 3.14165 0
M  V30 317 O 25.2898 3.78851 4.26413 0
M  V30 318 O 24.2238 5.23416 2.97186 0
M  V30 319 H 28.0498 2.98772 0.544888 0
M  V30 320 H 25.6348 1.48012 0.203141 0
M  V30 321 H 27.5168 2.96183 2.99756 0
M  V30 322 H 26.1918 1.8074 2.68542 0
M  V30 323 H 25.0988 3.55531 1.16398 0
M  V30 324 H 26.4318 4.67153 1.55013 0
M  V30 325 N 28.0839 -0.256276 1.55502 0
M  V30 326 C 28.9939 -1.33882 1.92647 0
M  V30 327 C 30.0099 -1.53159 0.825727 0
M  V30 328 O 31.1859 -1.66963 1.12629 0
M  V30 329 C 28.2509 -2.6751 2.20543 0
M  V30 330 C 27.3119 -2.56836 3.43997 0
M  V30 331 C 26.5449 -3.84092 3.70553 0
M  V30 332 O 26.7679 -4.85545 2.99336 0
M  V30 333 O 25.7019 -3.83288 4.64084 0
M  V30 334 H 29.5279 -1.05374 2.84833 0
M  V30 335 H 27.1129 -0.456237 1.42263 0
M  V30 336 H 28.9949 -3.46492 2.39835 0
M  V30 337 H 27.6699 -2.9577 1.31536 0
M  V30 338 H 26.5769 -1.76172 3.30021 0
M  V30 339 H 27.9099 -2.33523 4.33275 0
M  V30 340 N 29.562 -1.4872 -0.521534 0
M  V30 341 C 30.811 -1.56419 -1.27341 0
M  V30 342 C 31.124 -0.246805 -1.94037 0
M  V30 343 O 32.33 -0.202122 -2.70747 0
M  V30 344 C 30.786 -2.75896 -2.31105 0
M  V30 345 C 30.394 -4.14311 -1.70441 0
M  V30 346 C 32.138 -2.92913 -3.07249 0
M  V30 347 C 30.045 -5.25038 -2.72194 0
M  V30 348 H 28.975 -0.582344 -0.478949 0
M  V30 349 H 31.626 -1.75071 -0.549779 0
M  V30 350 H 30.008 -2.50697 -3.06541 0
M  V30 351 H 31.182 -4.49564 -1.01136 0
M  V30 352 H 29.497 -4.02482 -1.06759 0
M  V30 353 H 32.094 -3.72805 -3.83302 0
M  V30 354 H 32.437 -2.02689 -3.63625 0
M  V30 355 H 32.97 -3.18054 -2.38928 0
M  V30 356 H 29.709 -6.17255 -2.20627 0
M  V30 357 H 29.229 -4.94263 -3.39801 0
M  V30 358 H 30.908 -5.53508 -3.35019 0
M  V30 359 N 31.0401 0.771051 -1.3745 0
M  V30 360 C 31.9721 1.89352 -1.29146 0
M  V30 361 C 32.9851 1.61477 -0.207124 0
M  V30 362 O 34.1741 1.72382 -0.463324 0
M  V30 363 C 31.2741 3.24596 -0.974195 0
M  V30 364 C 30.4471 3.80111 -2.16413 0
M  V30 365 C 29.5061 4.93832 -1.81703 0
M  V30 366 O 28.5321 5.09382 -2.54006 0
M  V30 367 N 29.7341 5.75483 -0.761573 0
M  V30 368 H 32.4991 1.96991 -2.25864 0
M  V30 369 H 30.0601 0.950191 -1.31084 0
M  V30 370 H 32.0521 3.98193 -0.722828 0
M  V30 371 H 30.6221 3.12454 -0.0955527 0
M  V30 372 H 29.8421 2.98284 -2.57721 0
M  V30 373 H 31.1301 4.13932 -2.95867 0
M  V30 374 H 30.5281 5.65469 -0.161609 0
M  V30 375 H 29.0851 6.49302 -0.570064 0
M  V30 376 N 32.5182 1.22032 0.997298 0
M  V30 377 C 33.7652 1.04222 1.73621 0
M  V30 378 C 34.0932 -0.423264 1.89839 0
M  V30 379 O 33.3482 -1.3302 1.43542 0
M  V30 380 C 33.6472 1.69345 3.14733 0
M  V30 381 C 33.3132 3.19226 3.18442 0
M  V30 382 C 31.9752 3.60124 3.19161 0
M  V30 383 C 34.3272 4.15181 3.15078 0
M  V30 384 C 31.6552 4.95467 3.14212 0
M  V30 385 C 34.0072 5.50495 3.1167 0
M  V30 386 C 32.6712 5.90779 3.10703 0
M  V30 387 H 31.9412 0.381374 0.635323 0
M  V30 388 H 34.5882 1.51732 1.16831 0
M  V30 389 H 32.8932 1.14147 3.74803 0
M  V30 390 H 34.5902 1.53059 3.7064 0
M  V30 391 H 31.1802 2.86659 3.18629 0
M  V30 392 H 35.3642 3.84605 3.13676 0
M  V30 393 H 30.6202 5.25916 3.11805 0
M  V30 394 H 34.7942 6.24576 3.08022 0
M  V30 395 H 32.4212 6.9562 3.06622 0
M  V30 396 N 33.9963 -1.19345 1.0293 0
M  V30 397 C 35.2453 -1.88363 0.721256 0
M  V30 398 C 35.5583 -1.80514 -0.753254 0
M  V30 399 O 36.7643 -2.44788 -1.17436 0
M  V30 400 C 35.2203 -3.37872 1.23978 0
M  V30 401 C 34.8283 -3.54278 2.74211 0
M  V30 402 C 36.5723 -4.12365 1.00775 0
M  V30 403 C 34.4793 -4.97682 3.19479 0
M  V30 404 H 33.4093 -0.705484 0.266098 0
M  V30 405 H 36.0603 -1.34928 1.24365 0
M  V30 406 H 34.4423 -3.90707 0.6453 0
M  V30 407 H 35.6163 -3.11769 3.39318 0
M  V30 408 H 33.9313 -2.93174 2.95699 0
M  V30 409 H 36.5283 -5.18119 1.32123 0
M  V30 410 H 36.8713 -4.16263 -0.0554308 0
M  V30 411 H 37.4043 -3.65668 1.56625 0
M  V30 412 H 34.1433 -4.98945 4.25128 0
M  V30 413 H 33.6633 -5.4095 2.591 0
M  V30 414 H 35.3423 -5.66337 3.12845 0
M  V30 415 N 35.4744 -0.807222 -1.35358 0
M  V30 416 C 36.7234 -0.384376 -1.98004 0
M  V30 417 C 37.0364 1.0543 -1.64754 0
M  V30 418 O 38.2424 1.58029 -2.20769 0
M  V30 419 C 36.6984 -0.636326 -3.5423 0
M  V30 420 C 36.3064 -2.08759 -3.96388 0
M  V30 421 C 38.0504 -0.278869 -4.23583 0
M  V30 422 C 35.9574 -2.28525 -5.45463 0
M  V30 423 H 34.8874 -0.139986 -0.740891 0
M  V30 424 H 37.5384 -0.991369 -1.54415 0
M  V30 425 H 35.9204 0.0406256 -3.95979 0
M  V30 426 H 37.0944 -2.8024 -3.6579 0
M  V30 427 H 35.4094 -2.40497 -3.39926 0
M  V30 428 H 38.0064 -0.404599 -5.33167 0
M  V30 429 H 38.3494 0.775012 -4.09022 0
M  V30 430 H 38.8824 -0.909764 -3.87257 0
M  V30 431 H 35.6214 -3.32361 -5.64992 0
M  V30 432 H 35.1414 -1.61569 -5.77629 0
M  V30 433 H 36.8204 -2.10109 -6.11934 0
M  V30 434 N 36.9525 1.47285 -0.560781 0
M  V30 435 C 37.8625 2.33846 0.187954 0
M  V30 436 C 38.8785 1.48412 0.908293 0
M  V30 437 O 40.0545 1.81332 0.876388 0
M  V30 438 C 37.1195 3.25178 1.2025 0
M  V30 439 C 36.1805 4.26504 0.489208 0
M  V30 440 C 35.4135 5.13472 1.45542 0
M  V30 441 O 35.6365 5.02959 2.6905 0
M  V30 442 O 34.5705 5.93902 0.977963 0
M  V30 443 H 38.3965 2.99177 -0.522177 0
M  V30 444 H 35.9815 1.45903 -0.321364 0
M  V30 445 H 37.8635 3.81584 1.78805 0
M  V30 446 H 36.5385 2.6247 1.89449 0
M  V30 447 H 35.4455 3.73847 -0.137627 0
M  V30 448 H 36.7785 4.91935 -0.161399 0
M  V30 449 N 38.4306 0.297415 1.54768 0
M  V30 450 C 39.6786 -0.312295 1.99673 0
M  V30 451 C 39.9996 -1.54686 1.18732 0
M  V30 452 O 39.2696 -1.93854 0.282382 0
M  V30 453 H 37.8496 -0.118381 0.73756 0
M  V30 454 H 40.5116 0.407915 1.90583 0
M  V30 455 H 39.6076 -0.586813 3.06534 0
M  V30 456 N 39.9087 -1.5758 0.0250728 0
M  V30 457 C 41.1387 -1.95646 -0.663783 0
M  V30 458 C 41.5467 -0.899935 -1.66427 0
M  V30 459 O 40.8897 0.127191 -1.83259 0
M  V30 460 C 40.9517 -3.29835 -1.43 0
M  V30 461 C 40.6157 -4.53197 -0.588305 0
M  V30 462 C 41.6127 -5.19726 0.13469 0
M  V30 463 C 39.2977 -4.99529 -0.526897 0
M  V30 464 C 41.2917 -6.30902 0.90781 0
M  V30 465 C 38.9787 -6.10589 0.24993 0
M  V30 466 C 39.9767 -6.76134 0.965994 0
M  V30 467 O 39.6647 -7.85062 1.7301 0
M  V30 468 H 39.3967 -0.649282 -0.188174 0
M  V30 469 H 41.9507 -2.05245 0.0799006 0
M  V30 470 H 40.1807 -3.16716 -2.21873 0
M  V30 471 H 41.8697 -3.52833 -2.00658 0
M  V30 472 H 42.6357 -4.84904 0.0965562 0
M  V30 473 H 38.5147 -4.48319 -1.07381 0
M  V30 474 H 42.0587 -6.81995 1.46724 0
M  V30 475 H 37.9557 -6.44849 0.289795 0
M  V30 476 H 38.7237 -8.01708 1.64944 0
M  V30 477 N 41.3868 0.248026 -1.55636 0
M  V30 478 C 42.6148 0.993808 -1.81469 0
M  V30 479 C 43.0298 1.78991 -0.60064 0
M  V30 480 O 42.3868 1.77345 0.430682 0
M  V30 481 C 42.4378 1.93258 -3.05506 0
M  V30 482 O 42.1588 1.16869 -4.22224 0
M  V30 483 C 43.6598 2.79444 -3.4413 0
M  V30 484 H 40.8798 0.292486 -0.603898 0
M  V30 485 H 43.4238 0.271253 -2.02693 0
M  V30 486 H 41.5788 2.60943 -2.86335 0
M  V30 487 H 41.9928 1.80359 -4.92515 0
M  V30 488 H 43.4668 3.41066 -4.34026 0
M  V30 489 H 43.9438 3.50499 -2.64665 0
M  V30 490 H 44.5498 2.17214 -3.65648 0
M  V30 491 N 42.8649 1.48995 0.513639 0
M  V30 492 C 43.8119 1.6473 1.61656 0
M  V30 493 C 44.7819 0.488984 1.58739 0
M  V30 494 O 45.9669 0.714478 1.76918 0
M  V30 495 C 43.1069 1.7082 2.99858 0
M  V30 496 C 42.2199 2.9787 3.12885 0
M  V30 497 C 41.3549 2.95017 4.41744 0
M  V30 498 C 40.3939 4.16702 4.48359 0
M  V30 499 N 39.5309 4.11832 5.68629 0
M  V30 500 H 44.3709 2.58909 1.47547 0
M  V30 501 H 41.9079 1.28382 0.71808 0
M  V30 502 H 43.8659 1.72331 3.79944 0
M  V30 503 H 42.4959 0.801181 3.12699 0
M  V30 504 H 41.5479 3.06029 2.25944 0
M  V30 505 H 42.8599 3.8786 3.13633 0
M  V30 506 H 42.0139 2.95021 5.30139 0
M  V30 507 H 40.7529 2.02784 4.43542 0
M  V30 508 H 39.7579 4.16955 3.58369 0
M  V30 509 H 40.9829 5.10113 4.48287 0
M  V30 510 H 38.9289 3.22428 5.71293 0
M  V30 511 H 38.8459 4.95543 5.7094 0
M  V30 512 H 40.1139 4.1592 6.59266 0
M  V30 513 N 44.343 -0.763751 1.37857 0
M  V30 514 C 45.591 -1.51957 1.33243 0
M  V30 515 C 45.912 -1.94835 -0.0801709 0
M  V30 516 O 45.182 -1.66894 -1.02582 0
M  V30 517 H 43.762 -0.563626 0.49024 0
M  V30 518 H 46.424 -0.908504 1.7243 0
M  V30 519 H 45.52 -2.41523 1.97669 0
M  V30 520 N 45.8211 -1.22559 -0.990812 0
M  V30 521 C 47.0981 -0.959875 -1.70428 0
M  V30 522 C 47.4781 0.524455 -2.04481 0
M  V30 523 O 46.8261 1.49302 -1.72977 0
M  V30 524 C 47.0361 -1.85955 -2.95333 0
M  V30 525 C 48.3841 -2.11687 -3.68068 0
M  V30 526 O 49.4081 -1.8342 -3.05345 0
M  V30 527 O 48.2671 -2.59572 -4.80921 0
M  V30 528 H 45.3611 -0.361154 -0.743974 0
M  V30 529 H 47.9071 -1.33554 -1.04697 0
M  V30 530 H 46.6791 -2.86346 -2.66687 0
M  V30 531 H 46.3021 -1.4856 -3.68803 0
M  V30 532 N 47.2992 1.18797 -1.03562 0
M  V30 533 C 48.5482 1.87978 -0.731235 0
M  V30 534 C 48.8612 1.80911 0.743671 0
M  V30 535 O 50.0672 2.45407 1.16137 0
M  V30 536 C 48.5232 3.3721 -1.25768 0
M  V30 537 C 48.1312 3.52818 -2.76085 0
M  V30 538 C 49.8752 4.11825 -1.0296 0
M  V30 539 C 47.7822 4.9598 -3.22114 0
M  V30 540 H 46.7122 0.704063 -0.269835 0
M  V30 541 H 49.3632 1.34266 -1.25079 0
M  V30 542 H 47.7452 3.90359 -0.666011 0
M  V30 543 H 48.9192 3.09965 -3.40966 0
M  V30 544 H 47.2342 2.91602 -2.97249 0
M  V30 545 H 49.8312 5.17411 -1.34869 0
M  V30 546 H 50.1742 4.16287 0.0333546 0
M  V30 547 H 50.7072 3.64833 -1.58562 0
M  V30 548 H 47.4462 4.96684 -4.27768 0
M  V30 549 H 46.9662 5.39569 -2.61965 0
M  V30 550 H 48.6452 5.6467 -3.15844 0
M  V30 551 N 48.7773 0.814389 1.34928 0
M  V30 552 C 50.1883 0.458364 1.80986 0
M  V30 553 C 50.5393 -1.02042 1.67577 0
M  V30 554 O 49.6643 -1.79352 1.21086 0
M  V30 555 C 50.2593 0.825212 3.28597 0
M  V30 556 C 48.8183 0.521677 3.72767 0
M  V30 557 C 47.9653 1.04668 2.56788 0
M  V30 558 H 50.9163 1.00533 1.22795 0
M  V30 559 H 50.9373 0.12571 3.80292 0
M  V30 560 H 50.4493 1.90154 3.38324 0
M  V30 561 H 48.5503 -0.545589 3.68584 0
M  V30 562 H 48.6633 1.05977 4.67232 0
M  V30 563 H 47.0273 0.468622 2.50352 0
M  V30 564 H 47.8103 2.12927 2.6929 0
M  V30 565 N 50.2554 -1.46986 0.568584 0
M  V30 566 C 51.5324 -1.95592 -0.0174074 0
M  V30 567 C 51.9124 -1.51124 -1.47393 0
M  V30 568 O 51.2604 -0.755329 -2.15655 0
M  V30 569 C 51.4704 -3.48719 0.139913 0
M  V30 570 C 52.8184 -4.246 0.000426376 0
M  V30 571 O 53.8424 -3.56135 0.0680316 0
M  V30 572 O 52.7014 -5.46302 -0.146988 0
M  V30 573 H 49.7954 -0.82498 -0.0577599 0
M  V30 574 H 52.3414 -1.57335 0.635909 0
M  V30 575 H 51.1134 -3.73927 1.15301 0
M  V30 576 H 50.7364 -3.93771 -0.550491 0
M  V30 577 N 51.7335 -0.305618 -1.54608 0
M  V30 578 C 52.9635 0.304333 -2.04346 0
M  V30 579 C 53.3715 1.47715 -1.18224 0
M  V30 580 O 52.7145 1.82591 -0.201577 0
M  V30 581 C 52.7765 0.819031 -3.50046 0
M  V30 582 C 52.4405 -0.22912 -4.56425 0
M  V30 583 C 53.4375 -1.05914 -5.08997 0
M  V30 584 C 51.1225 -0.372148 -5.0092 0
M  V30 585 C 53.1165 -2.01809 -6.04609 0
M  V30 586 C 50.8035 -1.33454 -5.9635 0
M  V30 587 C 51.8015 -2.15599 -6.48079 0
M  V30 588 O 51.4895 -3.10205 -7.41639 0
M  V30 589 H 51.2215 0.0693996 -0.672428 0
M  V30 590 H 53.7755 -0.444548 -2.00532 0
M  V30 591 H 52.0055 1.61852 -3.51199 0
M  V30 592 H 53.6945 1.34537 -3.82955 0
M  V30 593 H 54.4605 -0.959538 -4.75413 0
M  V30 594 H 50.3395 0.257304 -4.60281 0
M  V30 595 H 53.8835 -2.65966 -6.44909 0
M  V30 596 H 49.7805 -1.43485 -6.29351 0
M  V30 597 H 50.5485 -3.05237 -7.59455 0
M  V30 598 N 53.2116 1.57565 -0.0334293 0
M  V30 599 C 54.1436 2.0739 0.975811 0
M  V30 600 C 55.1566 0.998166 1.2861 0
M  V30 601 O 56.3456 1.27426 1.25 0
M  V30 602 C 53.4456 2.4871 2.30209 0
M  V30 603 C 52.6186 3.79413 2.17634 0
M  V30 604 C 51.6776 4.07237 3.33233 0
M  V30 605 O 50.7036 4.77425 3.09927 0
M  V30 606 N 51.9056 3.5775 4.5716 0
M  V30 607 H 54.6706 2.94598 0.55066 0
M  V30 608 H 52.2316 1.61173 0.15323 0
M  V30 609 H 54.2236 2.64413 3.06378 0
M  V30 610 H 52.7936 1.66845 2.64351 0
M  V30 611 H 52.0136 3.73465 1.26165 0
M  V30 612 H 53.3016 4.65038 2.0644 0
M  V30 613 H 52.6996 3.00976 4.78989 0
M  V30 614 H 51.2566 3.78724 5.30482 0
M  V30 615 N 54.6897 -0.239769 1.55765 0
M  V30 616 C 55.6227 -1.32356 1.85895 0
M  V30 617 C 56.6007 -1.46053 0.714662 0
M  V30 618 O 57.7847 -1.62154 0.961157 0
M  V30 619 C 54.9117 -2.6962 2.04994 0
M  V30 620 C 53.9577 -2.73036 3.27648 0
M  V30 621 S 54.7907 -2.28929 4.84099 0
M  V30 622 C 55.9467 -3.68103 5.06212 0
M  V30 623 H 56.1797 -1.06601 2.77531 0
M  V30 624 H 53.7127 -0.441112 1.47965 0
M  V30 625 H 55.6707 -3.48653 2.16682 0
M  V30 626 H 54.3317 -2.92609 1.14188 0
M  V30 627 H 53.5247 -3.7386 3.38 0
M  V30 628 H 53.1267 -2.02052 3.14723 0
M  V30 629 H 55.4187 -4.63656 4.93993 0
M  V30 630 H 56.3617 -3.6268 6.08168 0
M  V30 631 H 56.7697 -3.60947 4.34025 0
M  V30 632 N 56.1678 -1.49265 -0.50573 0
M  V30 633 C 57.3928 -1.62478 -1.28902 0
M  V30 634 C 57.8178 -0.294332 -1.85783 0
M  V30 635 O 57.1758 0.737412 -1.65626 0
M  V30 636 C 57.2238 -2.69268 -2.39848 0
M  V30 637 O 56.3278 -2.28113 -3.43567 0
M  V30 638 H 55.6688 -0.54399 -0.380751 0
M  V30 639 H 58.1988 -1.95421 -0.605952 0
M  V30 640 H 58.2088 -2.91291 -2.85681 0
M  V30 641 H 56.8838 -3.65846 -1.97812 0
M  V30 642 H 55.4608 -2.16401 -3.03685 0
M  V30 643 N 57.6459 0.756429 -1.3826 0
M  V30 644 C 58.6089 1.85176 -1.35065 0
M  V30 645 C 59.6089 1.58818 -0.251703 0
M  V30 646 O 60.7989 1.66615 -0.508433 0
M  V30 647 C 57.9309 3.22596 -1.10201 0
M  V30 648 H 59.1239 1.89417 -2.3251 0
M  V30 649 H 56.6769 0.95783 -1.23512 0
M  V30 650 H 57.4119 3.24025 -0.133504 0
M  V30 651 H 57.1969 3.43122 -1.89762 0
M  V30 652 H 58.6869 4.02673 -1.10654 0
M  V30 653 N 59.124 1.23083 0.984299 0
M  V30 654 C 60.054 1.03292 2.09411 0
M  V30 655 C 61.035 -0.048923 1.7003 0
M  V30 656 O 62.22 0.114967 1.93859 0
M  V30 657 C 59.35 0.619155 3.41736 0
M  V30 658 C 58.304 1.64791 3.95004 0
M  V30 659 C 57.63 1.0897 5.23478 0
M  V30 660 C 58.93 3.03999 4.24714 0
M  V30 661 H 60.624 1.96119 2.26225 0
M  V30 662 H 58.17 0.944344 1.08711 0
M  V30 663 H 60.123 0.467777 4.18796 0
M  V30 664 H 58.847 -0.344786 3.24775 0
M  V30 665 H 57.506 1.78721 3.20085 0
M  V30 666 H 57.154 0.11686 5.02864 0
M  V30 667 H 56.854 1.77704 5.60085 0
M  V30 668 H 58.378 0.950093 6.03163 0
M  V30 669 H 59.792 2.93393 4.92538 0
M  V30 670 H 58.189 3.69936 4.72512 0
M  V30 671 H 59.259 3.53285 3.32142 0
M  V30 672 N 60.6021 -1.18246 1.0419 0
M  V30 673 C 61.5651 -2.20128 0.638452 0
M  V30 674 C 62.5651 -1.57885 -0.304805 0
M  V30 675 O 63.7551 -1.73967 -0.0900369 0
M  V30 676 C 60.8871 -3.4084 -0.0637751 0
M  V30 677 H 62.0801 -2.57336 1.54007 0
M  V30 678 H 59.6331 -1.32152 0.834598 0
M  V30 679 H 60.3681 -3.09166 -0.979136 0
M  V30 680 H 60.1531 -3.8726 0.614198 0
M  V30 681 H 61.6431 -4.16274 -0.332512 0
M  V30 682 N 62.0802 -0.821533 -1.34494 0
M  V30 683 C 63.0132 -0.187704 -2.27427 0
M  V30 684 C 63.9912 0.65507 -1.48821 0
M  V30 685 O 65.1752 0.619111 -1.78043 0
M  V30 686 C 62.3022 0.737996 -3.30562 0
M  V30 687 C 61.3482 -0.0270713 -4.26491 0
M  V30 688 S 62.1812 -1.37329 -5.17592 0
M  V30 689 C 63.3372 -0.452427 -6.24263 0
M  V30 690 H 63.5702 -0.975598 -2.80837 0
M  V30 691 H 61.1032 -0.61736 -1.4152 0
M  V30 692 H 63.0612 1.26654 -3.90473 0
M  V30 693 H 61.7222 1.4994 -2.76001 0
M  V30 694 H 60.9152 0.6766 -4.99438 0
M  V30 695 H 60.5172 -0.48612 -3.70827 0
M  V30 696 H 62.8092 0.356557 -6.76561 0
M  V30 697 H 63.7522 -1.15153 -6.98674 0
M  V30 698 H 64.1602 -0.0414755 -5.64485 0
M  V30 699 N 63.5583 1.46682 -0.576371 0
M  V30 700 C 64.5213 2.28707 0.150239 0
M  V30 701 C 65.5213 1.38035 0.824794 0
M  V30 702 O 66.7113 1.60476 0.677719 0
M  V30 703 C 63.8433 3.18248 1.22192 0
M  V30 704 H 65.0363 2.94423 -0.570521 0
M  V30 705 H 62.5893 1.52688 -0.334078 0
M  V30 706 H 63.3243 2.57265 1.97447 0
M  V30 707 H 63.1093 3.85 0.742812 0
M  V30 708 H 64.5993 3.80001 1.73172 0
M  V30 709 N 65.0364 0.313813 1.54444 0
M  V30 710 C 66.2854 -0.292519 1.99568 0
M  V30 711 C 66.5984 -1.54011 1.20582 0
M  V30 712 O 67.8044 -2.22183 1.56035 0
M  V30 713 C 66.2604 -0.571752 3.55329 0
M  V30 714 C 65.8684 0.658229 4.43138 0
M  V30 715 C 67.6124 -1.13857 4.08946 0
M  V30 716 C 65.5194 0.351439 5.90355 0
M  V30 717 H 64.4494 -0.113079 0.745472 0
M  V30 718 H 67.1004 0.424518 1.78522 0
M  V30 719 H 65.4824 -1.34872 3.72325 0
M  V30 720 H 66.6564 1.43403 4.37918 0
M  V30 721 H 64.9714 1.14458 4.0036 0
M  V30 722 H 67.5684 -1.38257 5.16516 0
M  V30 723 H 67.9114 -2.08489 3.6033 0
M  V30 724 H 68.4444 -0.423015 3.95544 0
M  V30 725 H 65.1834 1.26667 6.43145 0
M  V30 726 H 64.7034 -0.386842 5.98551 0
M  V30 727 H 66.3824 -0.0423134 6.46986 0
M  V30 728 N 66.5145 -1.57545 0.0417849 0
M  V30 729 C 67.7615 -1.92317 -0.634082 0
M  V30 730 C 68.0895 -0.919334 -1.71402 0
M  V30 731 O 67.3445 0.0698253 -1.95575 0
M  V30 732 C 67.6435 -3.33794 -1.27735 0
M  V30 733 C 67.3095 -4.49716 -0.326543 0
M  V30 734 C 65.9715 -4.81156 -0.0648814 0
M  V30 735 C 68.3235 -5.20182 0.325623 0
M  V30 736 C 65.6515 -5.80414 0.856539 0
M  V30 737 C 68.0035 -6.20424 1.23518 0
M  V30 738 C 66.6675 -6.50298 1.5056 0
M  V30 739 H 65.9375 -0.703736 -0.232027 0
M  V30 740 H 68.5845 -1.91205 0.106259 0
M  V30 741 H 66.8895 -3.31228 -2.09274 0
M  V30 742 H 68.5865 -3.57975 -1.80707 0
M  V30 743 H 65.1765 -4.25176 -0.540665 0
M  V30 744 H 69.3605 -4.96112 0.136546 0
M  V30 745 H 64.6165 -6.019 1.07363 0
M  V30 746 H 68.7905 -6.74141 1.74664 0
M  V30 747 H 66.4175 -7.27025 2.22123 0
M  V30 748 N 67.9926 0.231505 -1.5589 0
M  V30 749 C 69.2396 0.957352 -1.78441 0
M  V30 750 C 69.5676 1.84726 -0.60882 0
M  V30 751 O 68.8226 1.91416 0.40725 0
M  V30 752 C 69.1216 1.83577 -3.0665 0
M  V30 753 C 68.7876 1.09993 -4.37278 0
M  V30 754 C 67.4496 0.896629 -4.72773 0
M  V30 755 C 69.8016 0.579558 -5.17968 0
M  V30 756 C 67.1296 0.160896 -5.86479 0
M  V30 757 C 69.4816 -0.142783 -6.32439 0
M  V30 758 C 68.1456 -0.357427 -6.66542 0
M  V30 759 H 67.4156 0.35032 -0.65296 0
M  V30 760 H 70.0626 0.226259 -1.90159 0
M  V30 761 H 68.3676 2.63441 -2.90011 0
M  V30 762 H 70.0646 2.39934 -3.21298 0
M  V30 763 H 66.6546 1.26835 -4.09403 0
M  V30 764 H 70.8386 0.724125 -4.90989 0
M  V30 765 H 66.0946 -0.0157293 -6.11398 0
M  V30 766 H 70.2686 -0.553559 -6.94196 0
M  V30 767 H 67.8956 -0.929466 -7.54497 0
M  V30 768 N 69.4707 1.49531 0.497807 0
M  V30 769 C 70.8867 1.36365 0.829266 0
M  V30 770 C 71.0867 0.399184 1.97506 0
M  V30 771 O 70.1427 -0.167977 2.51941 0
M  V30 772 C 71.4557 2.77153 1.16647 0
M  V30 773 C 73.0037 2.85877 1.27449 0
M  V30 774 C 73.4787 4.2744 1.64497 0
M  V30 775 N 74.9697 4.30265 1.7154 0
M  V30 776 C 75.7047 5.3677 2.01656 0
M  V30 777 N 75.2007 6.53516 2.29976 0
M  V30 778 N 76.9937 5.24189 2.02934 0
M  V30 779 H 69.1447 2.10831 -0.257703 0
M  V30 780 H 71.4077 0.946534 -0.0527091 0
M  V30 781 H 71.1137 3.49442 0.397872 0
M  V30 782 H 70.9877 3.12722 2.10915 0
M  V30 783 H 73.3747 2.13824 2.0338 0
M  V30 784 H 73.4557 2.53887 0.312244 0
M  V30 785 H 73.0997 5.00021 0.891151 0
M  V30 786 H 73.0297 4.56896 2.61827 0
M  V30 787 H 75.5207 3.4607 1.51802 0
M  V30 788 H 75.8337 7.30506 2.52153 0
M  V30 789 H 74.1787 6.56737 2.27425 0
M  V30 790 H 77.3697 4.31988 1.80289 0
M  V30 791 H 77.5427 6.07286 2.26071 0
M  V30 792 N 70.9488 -0.749086 1.3866 0
M  V30 793 C 72.1968 -1.50535 1.34847 0
M  V30 794 C 72.5178 -1.94909 -0.0595016 0
M  V30 795 O 71.7878 -1.67973 -1.00806 0
M  V30 796 H 70.3678 -0.558395 0.49619 0
M  V30 797 H 73.0298 -0.890165 1.73384 0
M  V30 798 H 72.1258 -2.39413 2.00219 0
M  V30 799 N 72.4269 -1.23603 -0.977757 0
M  V30 800 C 73.3599 -0.962772 -2.06896 0
M  V30 801 C 74.3379 0.0998743 -1.62293 0
M  V30 802 O 75.5219 -0.0349421 -1.88468 0
M  V30 803 C 72.6489 -0.45095 -3.35685 0
M  V30 804 C 71.6949 -1.50061 -3.99229 0
M  V30 805 S 72.5279 -3.07884 -4.38142 0
M  V30 806 C 73.6839 -2.58378 -5.7008 0
M  V30 807 H 73.9169 -1.88677 -2.29757 0
M  V30 808 H 71.4499 -1.06876 -1.11431 0
M  V30 809 H 73.4079 -0.162261 -4.10179 0
M  V30 810 H 72.0689 0.452179 -3.10828 0
M  V30 811 H 71.2619 -1.09269 -4.92013 0
M  V30 812 H 70.8639 -1.73878 -3.31123 0
M  V30 813 H 73.1559 -2.00563 -6.47133 0
M  V30 814 H 74.0989 -3.49711 -6.15717 0
M  V30 815 H 74.5069 -1.99143 -5.28207 0
M  V30 816 N 73.905 1.17692 -1.04816 0
M  V30 817 C 74.853 2.23632 -0.63966 0
M  V30 818 C 75.847 1.6601 0.337219 0
M  V30 819 O 77.053 1.78844 0.203693 0
M  V30 820 H 73.428 0.727949 -0.188665 0
M  V30 821 H 75.399 2.55387 -1.54337 0
M  V30 822 C 74.148 3.4769 -0.0264051 0
M  V30 823 H 73.471 3.92331 -0.769164 0
M  V30 824 H 74.911 4.23418 0.222098 0
M  V30 825 C 73.37 3.13807 1.22584 0
M  V30 826 O 73.9 3.28236 2.31569 0
M  V30 827 N 72.106 2.68065 1.12202 0
M  V30 828 H 71.653 2.56525 0.235133 0
M  V30 829 H 71.611 2.45767 1.96076 0
M  V30 830 N 75.3831 0.828654 1.34056 0
M  V30 831 C 76.2931 0.256725 2.33191 0
M  V30 832 C 77.3091 -0.611898 1.62886 0
M  V30 833 O 78.4851 -0.51844 1.94613 0
M  V30 834 C 75.5501 -0.567238 3.42028 0
M  V30 835 C 74.6111 0.324458 4.28072 0
M  V30 836 C 73.8441 -0.460274 5.31712 0
M  V30 837 O 74.0671 -1.693 5.44696 0
M  V30 838 O 73.0011 0.160391 6.01686 0
M  V30 839 H 76.8271 1.07739 2.83947 0
M  V30 840 H 74.4121 0.59093 1.37217 0
M  V30 841 H 76.2941 -1.03582 4.08471 0
M  V30 842 H 74.9691 -1.36513 2.93506 0
M  V30 843 H 73.8761 0.840659 3.64532 0
M  V30 844 H 75.2091 1.08685 4.8005 0
M  V30 845 N 76.8612 -1.46375 0.584142 0
M  V30 846 C 77.7712 -2.34115 -0.150728 0
M  V30 847 C 78.7872 -1.49838 -0.884567 0
M  V30 848 O 79.9632 -1.82704 -0.847429 0
M  V30 849 C 77.0282 -3.2705 -1.15062 0
M  V30 850 C 76.0892 -4.27228 -0.421293 0
M  V30 851 C 75.3222 -5.15722 -1.37355 0
M  V30 852 O 75.5452 -5.07176 -2.61014 0
M  V30 853 O 74.4792 -5.95383 -0.883355 0
M  V30 854 H 78.3052 -2.98309 0.569708 0
M  V30 855 H 75.8902 -1.45373 0.344535 0
M  V30 856 H 77.7722 -3.84381 -1.72712 0
M  V30 857 H 76.4472 -2.65451 -1.8525 0
M  V30 858 H 75.3542 -3.7358 0.197085 0
M  V30 859 H 76.6872 -4.91616 0.239641 0
M  V30 860 N 78.3393 -0.321999 -1.54275 0
M  V30 861 C 79.2493 0.553631 -2.27974 0
M  V30 862 C 80.2653 1.13054 -1.32268 0
M  V30 863 O 81.4413 1.15084 -1.6528 0
M  V30 864 C 78.5063 1.69927 -3.02201 0
M  V30 865 C 77.5673 1.15433 -4.1349 0
M  V30 866 C 76.8003 2.24537 -4.84168 0
M  V30 867 O 77.0233 3.44852 -4.5435 0
M  V30 868 O 75.9573 1.90044 -5.7111 0
M  V30 869 H 79.7833 -0.0448345 -3.03667 0
M  V30 870 H 77.3683 -0.0877418 -1.49142 0
M  V30 871 H 79.2503 2.3663 -3.48689 0
M  V30 872 H 77.9253 2.28395 -2.29385 0
M  V30 873 H 76.8323 0.452436 -3.71354 0
M  V30 874 H 78.1653 0.614805 -4.88345 0
M  V30 875 N 79.8174 1.5752 -0.0501392 0
M  V30 876 C 81.0454 1.96963 0.633492 0
M  V30 877 C 81.4604 0.927631 1.6444 0
M  V30 878 O 80.8174 -0.0882665 1.82286 0
M  V30 879 C 80.8684 3.36487 1.32132 0
M  V30 880 O 80.5894 4.36693 0.350894 0
M  V30 881 C 82.0904 3.90682 2.09481 0
M  V30 882 H 79.3104 0.648244 0.173266 0
M  V30 883 H 81.8544 2.0417 -0.116134 0
M  V30 884 H 80.0094 3.30434 2.02218 0
M  V30 885 H 80.4234 5.17702 0.841735 0
M  V30 886 H 81.8974 4.90591 2.5303 0
M  V30 887 H 82.3744 3.26053 2.94255 0
M  V30 888 H 82.9804 4.00069 1.44307 0
M  V30 889 N 81.2955 -0.223234 1.56011 0
M  V30 890 C 82.2585 -1.26014 1.9145 0
M  V30 891 C 83.2585 -1.3989 0.792937 0
M  V30 892 O 84.4485 -1.38184 1.0607 0
M  V30 893 C 81.5805 -2.63422 2.16383 0
M  V30 894 H 82.7735 -0.95796 2.84189 0
M  V30 895 H 80.3265 -0.463576 1.49267 0
M  V30 896 H 81.0615 -2.98741 1.2619 0
M  V30 897 H 80.8465 -2.54728 2.98088 0
M  V30 898 H 82.3365 -3.38249 2.44903 0
M  V30 899 N 82.7736 -1.49793 -0.48987 0
M  V30 900 C 83.6836 -1.70036 -1.61632 0
M  V30 901 C 84.6996 -0.583102 -1.63939 0
M  V30 902 O 85.8756 -0.859169 -1.82154 0
M  V30 903 C 82.9406 -1.77277 -2.97949 0
M  V30 904 C 82.0016 -3.00918 -3.06181 0
M  V30 905 C 81.2346 -3.07804 -4.35996 0
M  V30 906 O 81.4576 -2.21982 -5.25433 0
M  V30 907 O 80.3916 -4.00369 -4.49431 0
M  V30 908 H 84.2176 -2.65486 -1.47482 0
M  V30 909 H 81.8026 -1.33666 -0.667362 0
M  V30 910 H 83.6846 -1.84329 -3.78947 0
M  V30 911 H 82.3596 -0.850076 -3.12339 0
M  V30 912 H 81.2666 -2.99377 -2.2433 0
M  V30 913 H 82.5996 -3.92704 -2.96723 0
M  V30 914 N 84.2517 0.741722 -1.39055 0
M  V30 915 C 85.1817 1.869 -1.39966 0
M  V30 916 C 86.1627 1.6804 -0.26392 0
M  V30 917 O 87.3477 1.88458 -0.468755 0
M  V30 918 C 84.4777 3.24572 -1.23574 0
M  V30 919 C 83.4317 3.58056 -2.34477 0
M  V30 920 C 82.7577 4.94593 -2.0318 0
M  V30 921 C 84.0577 3.61716 -3.76774 0
M  V30 922 H 85.7517 1.86395 -2.34302 0
M  V30 923 H 83.2977 0.895361 -1.1278 0
M  V30 924 H 85.2507 4.031 -1.22834 0
M  V30 925 H 83.9747 3.25587 -0.257045 0
M  V30 926 H 82.6337 2.81854 -2.34423 0
M  V30 927 H 82.2817 4.92181 -1.03765 0
M  V30 928 H 81.9817 5.17964 -2.77465 0
M  V30 929 H 83.5057 5.75486 -2.04079 0
M  V30 930 H 84.9197 4.30335 -3.78794 0
M  V30 931 H 83.3167 3.96603 -4.50362 0
M  V30 932 H 84.3867 2.61672 -4.08235 0
M  V30 933 N 85.7298 1.2412 0.971189 0
M  V30 934 C 86.9578 1.10575 1.74874 0
M  V30 935 C 87.3728 -0.342017 1.85676 0
M  V30 936 O 86.7298 -1.23617 1.34258 0
M  V30 937 C 86.7808 1.73579 3.171 0
M  V30 938 O 86.5018 3.12695 3.06844 0
M  V30 939 C 88.0028 1.65598 4.11208 0
M  V30 940 H 85.2228 0.386504 0.548503 0
M  V30 941 H 87.7668 1.64156 1.21955 0
M  V30 942 H 85.9218 1.24009 3.67016 0
M  V30 943 H 86.3358 3.43412 3.96445 0
M  V30 944 H 87.8098 2.1437 5.08674 0
M  V30 945 H 88.2868 0.616532 4.34851 0
M  V30 946 H 88.8928 2.14578 3.67201 0
M  V30 947 N 87.2079 -1.17134 1.05439 0
M  V30 948 C 88.1409 -2.2012 0.601855 0
M  V30 949 C 89.1189 -1.58314 -0.370854 0
M  V30 950 O 90.3029 -1.8638 -0.281882 0
M  V30 951 C 87.4299 -3.38491 -0.118868 0
M  V30 952 C 86.4759 -4.18752 0.809242 0
M  V30 953 S 87.3089 -4.83602 2.29977 0
M  V30 954 C 88.4649 -6.0536 1.59029 0
M  V30 955 H 88.6979 -2.58165 1.47438 0
M  V30 956 H 86.2309 -1.27788 0.866573 0
M  V30 957 H 88.1889 -4.07084 -0.528495 0
M  V30 958 H 86.8499 -2.98829 -0.967465 0
M  V30 959 H 86.0429 -5.03373 0.251379 0
M  V30 960 H 85.6449 -3.5561 1.15835 0
M  V30 961 H 87.9369 -6.71615 0.891017 0
M  V30 962 H 88.8799 -6.65679 2.41407 0
M  V30 963 H 89.2879 -5.54138 1.07663 0
M  V30 964 N 88.686 -0.835752 -1.33615 0
M  V30 965 C 89.649 -0.272 -2.2758 0
M  V30 966 C 90.649 0.557487 -1.50827 0
M  V30 967 O 91.839 0.37173 -1.70188 0
M  V30 968 C 88.971 0.617173 -3.35267 0
M  V30 969 H 90.164 -1.10111 -2.78954 0
M  V30 970 H 87.717 -0.608594 -1.43965 0
M  V30 971 H 88.452 1.46884 -2.89129 0
M  V30 972 H 88.237 0.0237066 -3.92093 0
M  V30 973 H 89.727 1.005 -4.05326 0
M  V30 974 N 90.1641 1.46063 -0.591896 0
M  V30 975 C 91.0971 2.27452 0.184617 0
M  V30 976 C 92.0751 1.36188 0.888351 0
M  V30 977 O 93.2591 1.65606 0.90039 0
M  V30 978 C 90.3861 3.14162 1.26571 0
M  V30 979 C 89.4321 4.21255 0.666814 0
M  V30 980 S 90.2651 5.33034 -0.513345 0
M  V30 981 C 91.4211 6.23311 0.56872 0
M  V30 982 H 91.6541 2.92963 -0.505939 0
M  V30 983 H 89.1871 1.49676 -0.379014 0
M  V30 984 H 91.1451 3.6468 1.88463 0
M  V30 985 H 89.8061 2.47946 1.92826 0
M  V30 986 H 88.9991 4.81788 1.47974 0
M  V30 987 H 88.6011 3.73797 0.123359 0
M  V30 988 H 90.8931 6.61758 1.45198 0
M  V30 989 H 91.8361 7.081 -7.23824e-05 0
M  V30 990 H 92.2441 5.57646 0.876996 0
M  V30 991 N 91.6422 0.330177 1.54103 0
M  V30 992 C 92.8882 -0.270806 2.00984 0
M  V30 993 C 93.2212 -1.51265 1.21789 0
M  V30 994 O 92.4962 -1.92142 0.301927 0
M  V30 995 C 92.7792 -0.598339 3.55094 0
M  V30 996 C 92.6322 0.654674 4.4501 0
M  V30 997 C 93.9512 -1.41334 4.16789 0
M  V30 998 H 91.0702 -0.0969531 0.730595 0
M  V30 999 H 93.7122 0.448066 1.84641 0
M  V30 1000 H 91.8622 -1.21078 3.69151 0
M  V30 1001 H 93.5342 1.29285 4.42813 0
M  V30 1002 H 91.7772 1.28224 4.14416 0
M  V30 1003 H 92.4482 0.380944 5.50684 0
M  V30 1004 H 94.9242 -0.895597 4.06347 0
M  V30 1005 H 93.8002 -1.61127 5.24718 0
M  V30 1006 H 94.0612 -2.41146 3.70541 0
M  V30 1007 N 93.1203 -1.57491 0.0584922 0
M  V30 1008 C 94.0703 -2.08474 -0.923188 0
M  V30 1009 C 95.0543 -0.991479 -1.26722 0
M  V30 1010 O 96.2463 -1.25473 -1.24842 0
M  V30 1011 C 93.3753 -2.6392 -2.19548 0
M  V30 1012 C 92.4613 -3.80227 -1.87852 0
M  V30 1013 N 92.8523 -4.89714 -1.26546 0
M  V30 1014 C 91.1503 -3.89271 -2.17679 0
M  V30 1015 C 91.8513 -5.70689 -1.12644 0
M  V30 1016 N 90.8273 -5.18531 -1.63176 0
M  V30 1017 H 94.6293 -2.90517 -0.444653 0
M  V30 1018 H 92.1433 -1.61745 -0.145764 0
M  V30 1019 H 94.1403 -2.98752 -2.9078 0
M  V30 1020 H 92.8003 -1.83318 -2.68001 0
M  V30 1021 H 93.8113 -5.09358 -0.936757 0
M  V30 1022 H 90.4883 -3.19623 -2.68602 0
M  V30 1023 H 91.8783 -6.6875 -0.6499 0
M  V30 1024 N 94.5984 0.214957 -1.56127 0
M  V30 1025 C 95.8234 0.95924 -1.83884 0
M  V30 1026 C 96.2484 1.7689 -0.639644 0
M  V30 1027 O 95.6064 1.76566 0.411601 0
M  V30 1028 C 95.6544 1.84723 -3.09693 0
M  V30 1029 O 94.7584 2.94346 -2.8885 0
M  V30 1030 H 94.0994 0.27125 -0.606069 0
M  V30 1031 H 96.6294 0.226276 -2.03345 0
M  V30 1032 H 96.6394 2.25576 -3.39969 0
M  V30 1033 H 95.3144 1.25218 -3.96602 0
M  V30 1034 H 93.8914 2.57391 -2.69823 0
M  V30 1035 N 96.0765 1.50051 0.48192 0
M  V30 1036 C 97.3245 1.60181 1.23234 0
M  V30 1037 C 97.6455 0.299176 1.92691 0
M  V30 1038 O 96.9155 -0.682708 1.83619 0
M  V30 1039 H 95.4955 0.590232 0.457859 0
M  V30 1040 H 98.1575 1.86775 0.556881 0
M  V30 1041 H 97.2535 2.40753 1.98607 0
M  V30 1042 N 97.5546 -0.734337 1.39446 0
M  V30 1043 C 98.8316 -1.48579 1.27215 0
M  V30 1044 C 99.2116 -2.1077 -0.117968 0
M  V30 1045 O 98.5596 -1.98646 -1.12924 0
M  V30 1046 C 98.7696 -2.53667 2.39696 0
M  V30 1047 C 100.118 -3.20031 2.79044 0
M  V30 1048 O 101.142 -2.6398 2.39151 0
M  V30 1049 O 100.001 -4.21455 3.47905 0
M  V30 1050 H 97.0946 -0.659816 0.49857 0
M  V30 1051 H 99.6406 -0.768106 1.51322 0
M  V30 1052 H 98.4126 -2.06096 3.32626 0
M  V30 1053 H 98.0356 -3.32994 2.17258 0
M  V30 1054 N 99.0327 -1.24633 -0.964593 0
M  V30 1055 C 100.261 -1.11501 -1.74285 0
M  V30 1056 C 100.676 0.332165 -1.85855 0
M  V30 1057 O 100.033 1.22903 -1.34911 0
M  V30 1058 C 100.084 -1.75258 -3.16175 0
M  V30 1059 O 99.8047 -3.14318 -3.05182 0
M  V30 1060 C 101.306 -1.67776 -4.10324 0
M  V30 1061 H 98.5257 -0.389407 -0.546446 0
M  V30 1062 H 101.07 -1.64801 -1.21083 0
M  V30 1063 H 99.2247 -1.25954 -3.66353 0
M  V30 1064 H 99.6387 -3.4551 -3.94618 0
M  V30 1065 H 101.113 -2.17064 -5.0753 0
M  V30 1066 H 101.59 -0.639584 -4.34518 0
M  V30 1067 H 102.196 -2.16522 -3.66058 0
M  V30 1068 N 100.511 1.16574 -1.06058 0
M  V30 1069 C 101.76 1.86385 -0.770944 0
M  V30 1070 C 102.073 1.82448 0.705129 0
M  V30 1071 O 103.279 2.47815 1.10905 0
M  V30 1072 C 101.735 3.34466 -1.32893 0
M  V30 1073 C 101.343 3.46883 -2.83507 0
M  V30 1074 C 103.087 4.09548 -1.11672 0
M  V30 1075 C 100.994 4.89036 -3.32562 0
M  V30 1076 H 99.9238 0.698181 -0.284709 0
M  V30 1077 H 102.575 1.31583 -1.27899 0
M  V30 1078 H 100.957 3.88859 -0.748662 0
M  V30 1079 H 102.131 3.02663 -3.47465 0
M  V30 1080 H 100.446 2.85232 -3.03368 0
M  V30 1081 H 103.043 5.14434 -1.45814 0
M  V30 1082 H 103.386 4.16264 -0.0549535 0
M  V30 1083 H 103.919 3.61387 -1.66265 0
M  V30 1084 H 100.658 4.87499 -4.38207 0
M  V30 1085 H 100.178 5.3389 -2.73351 0
M  V30 1086 H 101.857 5.57843 -3.2775 0
M  V30 1087 N 101.989 0.842826 1.3317 0
M  V30 1088 C 103.266 0.362216 1.92217 0
M  V30 1089 C 103.646 -1.15289 1.76838 0
M  V30 1090 O 102.994 -1.96914 1.15919 0
M  V30 1091 C 103.204 0.813495 3.39387 0
M  V30 1092 C 104.552 0.823804 4.16532 0
M  V30 1093 O 105.576 0.757358 3.48055 0
M  V30 1094 O 104.435 0.915193 5.38782 0
M  V30 1095 H 101.529 0.103317 0.820521 0
M  V30 1096 H 104.075 0.928942 1.42017 0
M  V30 1097 H 102.847 1.85624 3.4447 0
M  V30 1098 H 102.47 0.223561 3.96971 0
M  V30 1099 N 103.467 -1.45747 0.599634 0
M  V30 1100 C 104.397 -2.33235 -0.111306 0
M  V30 1101 C 105.378 -1.46359 -0.866781 0
M  V30 1102 O 106.563 -1.75146 -0.838904 0
M  V30 1103 C 103.693 -3.28932 -1.11451 0
M  V30 1104 C 102.647 -4.25381 -0.472772 0
M  V30 1105 C 101.973 -5.1071 -1.58365 0
M  V30 1106 C 103.273 -5.18831 0.600948 0
M  V30 1107 H 104.967 -2.92927 0.61919 0
M  V30 1108 H 102.513 -1.40857 0.299215 0
M  V30 1109 H 104.466 -3.89002 -1.62036 0
M  V30 1110 H 103.19 -2.67381 -1.8755 0
M  V30 1111 H 101.849 -3.66598 0.0121472 0
M  V30 1112 H 101.497 -4.45533 -2.33473 0
M  V30 1113 H 101.197 -5.7604 -1.15982 0
M  V30 1114 H 102.721 -5.73647 -2.09194 0
M  V30 1115 H 104.135 -5.73019 0.179491 0
M  V30 1116 H 102.532 -5.92595 0.946076 0
M  V30 1117 H 103.602 -4.6174 1.48068 0
M  V30 1118 N 104.945 -0.338344 -1.53925 0
M  V30 1119 C 106.17 0.263987 -2.05713 0
M  V30 1120 C 106.595 1.43847 -1.21201 0
M  V30 1121 O 105.953 1.79904 -0.224535 0
M  V30 1122 C 106.001 0.662 -3.54471 0
M  V30 1123 O 105.105 1.76265 -3.72833 0
M  V30 1124 H 104.446 0.0448722 -0.662482 0
M  V30 1125 H 106.976 -0.491048 -1.9862 0
M  V30 1126 H 106.986 0.940594 -3.9701 0
M  V30 1127 H 105.661 -0.196937 -4.15433 0
M  V30 1128 H 104.238 1.48173 -3.42198 0
M  V30 1129 N 106.423 1.57458 -0.0668435 0
M  V30 1130 C 107.839 1.56947 0.289772 0
M  V30 1131 C 108.039 1.07584 1.70376 0
M  V30 1132 O 107.095 0.739486 2.41429 0
M  V30 1133 C 108.408 3.0052 0.103943 0
M  V30 1134 C 109.956 3.12517 0.173857 0
M  V30 1135 C 110.431 4.57997 0.0163682 0
M  V30 1136 N 111.922 4.63144 0.0721352 0
M  V30 1137 C 112.657 5.73394 -0.0253794 0
M  V30 1138 N 112.153 6.92576 -0.176133 0
M  V30 1139 N 113.946 5.62091 0.0313305 0
M  V30 1140 H 106.097 1.87863 -0.991027 0
M  V30 1141 H 108.36 0.86583 -0.38606 0
M  V30 1142 H 108.066 3.40729 -0.871572 0
M  V30 1143 H 107.94 3.67304 0.858366 0
M  V30 1144 H 110.327 2.72197 1.13985 0
M  V30 1145 H 110.408 2.48381 -0.611586 0
M  V30 1146 H 110.052 4.99005 -0.946374 0
M  V30 1147 H 109.982 5.20158 0.821153 0
M  V30 1148 H 112.473 3.77436 0.187263 0
M  V30 1149 H 112.786 7.72418 -0.242821 0
M  V30 1150 H 111.131 6.94678 -0.211429 0
M  V30 1151 H 114.322 4.67867 0.147773 0
M  V30 1152 H 114.495 6.47982 -0.048121 0
M  V30 1153 N 107.901 -0.206675 1.56239 0
M  V30 1154 C 109.15 -0.926964 1.79138 0
M  V30 1155 C 109.463 -1.84901 0.638043 0
M  V30 1156 O 110.669 -2.60906 0.751033 0
M  V30 1157 C 109.125 -1.6986 3.17294 0
M  V30 1158 C 108.733 -0.821956 4.40395 0
M  V30 1159 C 110.477 -2.40922 3.4951 0
M  V30 1160 C 108.384 -1.59179 5.69575 0
M  V30 1161 H 107.314 -0.349864 0.667915 0
M  V30 1162 H 109.965 -0.180487 1.8261 0
M  V30 1163 H 108.347 -2.48853 3.08039 0
M  V30 1164 H 109.521 -0.0715019 4.60745 0
M  V30 1165 H 107.836 -0.222741 4.15804 0
M  V30 1166 H 110.433 -2.99047 4.43255 0
M  V30 1167 H 110.776 -3.14542 2.72707 0
M  V30 1168 H 111.309 -1.68905 3.60161 0
M  V30 1169 H 108.048 -0.898589 6.49312 0
M  V30 1170 H 107.568 -2.31648 5.53262 0
M  V30 1171 H 109.247 -2.14862 6.10281 0
M  V30 1172 N 109.379 -1.50304 -0.473955 0
M  V30 1173 C 110.289 -1.7174 -1.5982 0
M  V30 1174 C 111.305 -0.600457 -1.63311 0
M  V30 1175 O 112.481 -0.878441 -1.81233 0
M  V30 1176 C 109.546 -1.80427 -2.96052 0
M  V30 1177 C 108.607 -3.04148 -3.02972 0
M  V30 1178 C 107.84 -3.12411 -4.32706 0
M  V30 1179 O 108.063 -2.27542 -5.23049 0
M  V30 1180 O 106.997 -4.05113 -4.45159 0
M  V30 1181 H 110.823 -2.67035 -1.44657 0
M  V30 1182 H 108.408 -1.34366 -0.653148 0
M  V30 1183 H 110.29 -1.88338 -3.7697 0
M  V30 1184 H 108.965 -0.883156 -3.11419 0
M  V30 1185 H 107.872 -3.0174 -2.21142 0
M  V30 1186 H 109.205 -3.95829 -2.92541 0
M  V30 1187 N 110.857 0.726932 -1.39834 0
M  V30 1188 C 112.105 1.4837 -1.37225 0
M  V30 1189 C 112.426 1.94979 0.0284857 0
M  V30 1190 O 111.696 1.69555 0.981213 0
M  V30 1191 H 110.276 0.55043 -0.505011 0
M  V30 1192 H 112.938 0.862468 -1.74778 0
M  V30 1193 H 112.034 2.36198 -2.04003 0
M  V30 1194 N 112.336 1.25143 0.95797 0
M  V30 1195 C 113.585 1.0909 1.69654 0
M  V30 1196 C 113.898 -0.368548 1.92097 0
M  V30 1197 O 115.104 -0.649455 2.63618 0
M  V30 1198 C 113.56 1.90395 3.05414 0
M  V30 1199 C 113.168 3.4081 2.90779 0
M  V30 1200 C 114.912 1.82901 3.83076 0
M  V30 1201 C 112.819 4.14423 4.21909 0
M  V30 1202 H 111.749 0.404625 0.636235 0
M  V30 1203 H 114.4 1.4931 1.06672 0
M  V30 1204 H 112.782 1.42996 3.69281 0
M  V30 1205 H 113.956 3.95859 2.35865 0
M  V30 1206 H 112.271 3.49361 2.26575 0
M  V30 1207 H 114.868 2.35196 4.80195 0
M  V30 1208 H 115.211 0.796224 4.08615 0
M  V30 1209 H 115.744 2.28033 3.25954 0
M  V30 1210 H 112.483 5.18102 4.01561 0
M  V30 1211 H 112.003 3.64159 4.76601 0
M  V30 1212 H 113.682 4.21956 4.90471 0
M  V30 1213 N 113.814 -1.1601 1.06675 0
M  V30 1214 C 114.761 -2.20525 0.680967 0
M  V30 1215 C 115.731 -1.62904 -0.324283 0
M  V30 1216 O 116.916 -1.89615 -0.212294 0
M  V30 1217 C 114.056 -3.45013 0.0776551 0
M  V30 1218 C 113.169 -4.16863 1.13355 0
M  V30 1219 C 112.304 -5.2888 0.49597 0
M  V30 1220 C 111.343 -5.92537 1.53513 0
M  V30 1221 N 110.48 -6.96038 0.920631 0
M  V30 1222 H 115.32 -2.52876 1.57663 0
M  V30 1223 H 112.857 -1.24199 0.788223 0
M  V30 1224 H 114.815 -4.16193 -0.289704 0
M  V30 1225 H 113.445 -3.132 -0.781393 0
M  V30 1226 H 112.497 -3.44248 1.61857 0
M  V30 1227 H 113.809 -4.60294 1.92174 0
M  V30 1228 H 112.963 -6.06653 0.0758604 0
M  V30 1229 H 111.702 -4.86622 -0.324062 0
M  V30 1230 H 110.707 -5.13482 1.9651 0
M  V30 1231 H 111.932 -6.36873 2.35733 0
M  V30 1232 H 109.878 -6.55888 0.12138 0
M  V30 1233 H 109.795 -7.3786 1.64616 0
M  V30 1234 H 111.063 -7.77725 0.525795 0
M  V30 1235 N 115.292 -0.849877 -1.32721 0
M  V30 1236 C 116.538 -0.451591 -1.97708 0
M  V30 1237 C 116.871 0.989175 -1.6712 0
M  V30 1238 O 116.146 1.69334 -0.956891 0
M  V30 1239 C 116.429 -0.685598 -3.53513 0
M  V30 1240 C 116.282 -2.17444 -3.93749 0
M  V30 1241 C 117.601 -0.138874 -4.39881 0
M  V30 1242 H 114.72 -0.16555 -0.718166 0
M  V30 1243 H 117.362 -1.06742 -1.57182 0
M  V30 1244 H 115.512 -0.161416 -3.88165 0
M  V30 1245 H 117.184 -2.76433 -3.693 0
M  V30 1246 H 115.427 -2.65476 -3.43081 0
M  V30 1247 H 116.098 -2.28888 -5.02309 0
M  V30 1248 H 118.574 -0.587068 -4.11938 0
M  V30 1249 H 117.45 -0.332213 -5.47894 0
M  V30 1250 H 117.711 0.95806 -4.31594 0
M  V30 1251 N 116.77 1.45427 -0.607355 0
M  V30 1252 C 118.047 1.9557 -0.0344566 0
M  V30 1253 C 118.427 1.54979 1.43334 0
M  V30 1254 O 117.775 0.812241 2.13576 0
M  V30 1255 C 117.985 3.48226 -0.232321 0
M  V30 1256 C 119.333 4.2445 -0.113001 0
M  V30 1257 O 120.357 3.55829 -0.162431 0
M  V30 1258 O 119.216 5.465 0.00209442 0
M  V30 1259 H 116.31 0.826222 0.0358667 0
M  V30 1260 H 118.856 1.55594 -0.6774 0
M  V30 1261 H 117.628 3.70739 -1.25174 0
M  V30 1262 H 117.251 3.95092 0.445896 0
M  V30 1263 N 118.248 0.346503 1.53744 0
M  V30 1264 C 119.195 -0.508914 2.25119 0
M  V30 1265 C 120.165 -1.09315 1.25058 0
M  V30 1266 O 121.35 -1.12921 1.53797 0
M  V30 1267 C 118.49 -1.65246 3.02965 0
M  V30 1268 C 117.603 -1.09525 4.17886 0
M  V30 1269 C 116.738 -2.20634 4.83212 0
M  V30 1270 C 115.777 -1.62279 5.90196 0
M  V30 1271 N 114.914 -2.67143 6.49291 0
M  V30 1272 H 119.754 0.106283 2.9781 0
M  V30 1273 H 117.291 0.0642227 1.4696 0
M  V30 1274 H 119.249 -2.32574 3.4636 0
M  V30 1275 H 117.879 -2.2386 2.32565 0
M  V30 1276 H 116.931 -0.312818 3.79112 0
M  V30 1277 H 118.243 -0.628444 4.94825 0
M  V30 1278 H 117.397 -2.95821 5.29693 0
M  V30 1279 H 116.136 -2.70659 4.05703 0
M  V30 1280 H 115.141 -0.855989 5.43096 0
M  V30 1281 H 116.366 -1.13102 6.69615 0
M  V30 1282 H 114.312 -3.16417 5.74645 0
M  V30 1283 H 114.229 -2.25093 7.21713 0
M  V30 1284 H 115.497 -3.4209 7.00425 0
M  V30 1285 N 119.726 -1.57421 0.075193 0
M  V30 1286 C 120.676 -2.09441 -0.901025 0
M  V30 1287 C 121.66 -1.00486 -1.25663 0
M  V30 1288 O 122.852 -1.2679 -1.23504 0
M  V30 1289 C 119.981 -2.66233 -2.16737 0
M  V30 1290 C 119.067 -3.82198 -1.83808 0
M  V30 1291 N 119.458 -4.91028 -1.21345 0
M  V30 1292 C 117.756 -3.91558 -2.13538 0
M  V30 1293 C 118.457 -5.71852 -1.06585 0
M  V30 1294 N 117.433 -5.20233 -1.57667 0
M  V30 1295 H 121.235 -2.90972 -0.413815 0
M  V30 1296 H 118.749 -1.6189 -0.128601 0
M  V30 1297 H 120.746 -3.01819 -2.87595 0
M  V30 1298 H 119.406 -1.8615 -2.66042 0
M  V30 1299 H 120.417 -5.10323 -0.88268 0
M  V30 1300 H 117.094 -3.22454 -2.65197 0
M  V30 1301 H 118.484 -6.69401 -0.578933 0
M  V30 1302 N 121.204 0.198386 -1.56346 0
M  V30 1303 C 122.429 0.939682 -1.84891 0
M  V30 1304 C 122.854 1.76202 -0.658369 0
M  V30 1305 O 122.212 1.76993 0.392851 0
M  V30 1306 C 122.26 1.81428 -3.11635 0
M  V30 1307 O 121.364 2.91265 -2.91956 0
M  V30 1308 H 120.705 0.264807 -0.608912 0
M  V30 1309 H 123.235 0.204695 -2.03573 0
M  V30 1310 H 123.245 2.21958 -3.42343 0
M  V30 1311 H 121.92 1.21004 -3.97908 0
M  V30 1312 H 120.497 2.54514 -2.72538 0
M  V30 1313 N 122.682 1.50554 0.465978 0
M  V30 1314 C 123.91 1.65563 1.24083 0
M  V30 1315 C 124.325 0.341051 1.85694 0
M  V30 1316 O 123.682 -0.677543 1.69457 0
M  V30 1317 C 123.733 2.75051 2.34583 0
M  V30 1318 O 123.454 4.01413 1.75497 0
M  V30 1319 C 124.955 3.01078 3.25372 0
M  V30 1320 H 122.175 0.55638 0.375077 0
M  V30 1321 H 124.719 1.96807 0.555624 0
M  V30 1322 H 122.874 2.46486 2.9887 0
M  V30 1323 H 123.288 4.62002 2.48303 0
M  V30 1324 H 124.762 3.81339 3.99105 0
M  V30 1325 H 125.239 2.12349 3.84453 0
M  V30 1326 H 125.845 3.31194 2.66816 0
M  V30 1327 N 124.16 -0.719506 1.40217 0
M  V30 1328 C 125.408 -1.47641 1.3801 0
M  V30 1329 C 125.729 -1.94992 -0.018145 0
M  V30 1330 O 124.999 -1.70073 -0.972207 0
M  V30 1331 H 123.579 -0.547744 0.507923 0
M  V30 1332 H 126.241 -0.853187 1.75233 0
M  V30 1333 H 125.337 -2.35112 2.05253 0
M  V30 1334 N 125.638 -1.25649 -0.95132 0
M  V30 1335 C 126.886 -1.10375 -1.69298 0
M  V30 1336 C 127.207 0.355339 -1.91735 0
M  V30 1337 O 126.477 1.25188 -1.50681 0
M  V30 1338 H 125.057 -0.405461 -0.627384 0
M  V30 1339 H 127.719 -1.57823 -1.14358 0
M  V30 1340 H 126.815 -1.61465 -2.67087 0
M  V30 1341 N 127.117 1.15442 -1.07289 0
M  V30 1342 C 128.363 1.86489 -0.796846 0
M  V30 1343 C 128.696 1.82078 0.675371 0
M  V30 1344 O 127.971 1.24346 1.4956 0
M  V30 1345 C 128.254 3.35626 -1.30489 0
M  V30 1346 C 128.107 3.48673 -2.84161 0
M  V30 1347 C 129.426 4.30357 -0.920907 0
M  V30 1348 H 126.545 0.677144 -0.290939 0
M  V30 1349 H 129.187 1.35633 -1.33056 0
M  V30 1350 H 127.337 3.79068 -0.850883 0
M  V30 1351 H 129.009 3.14099 -3.37846 0
M  V30 1352 H 127.252 2.90253 -3.22391 0
M  V30 1353 H 127.923 4.53453 -3.14777 0
M  V30 1354 H 130.399 3.94871 -1.3121 0
M  V30 1355 H 129.275 5.33193 -1.30372 0
M  V30 1356 H 129.536 4.4176 0.173226 0
M  V30 1357 N 128.595 0.856903 1.32268 0
M  V30 1358 C 129.843 0.460474 1.96784 0
M  V30 1359 C 130.164 -0.987701 1.68135 0
M  V30 1360 O 129.434 -1.69058 0.989765 0
M  V30 1361 H 128.014 0.167289 0.728027 0
M  V30 1362 H 130.676 1.09383 1.61312 0
M  V30 1363 H 129.772 0.60739 3.06133 0
M  V30 1364 N 130.073 -1.45103 0.615059 0
M  V30 1365 C 131.35 -1.95549 0.0448276 0
M  V30 1366 C 131.73 -1.55737 -1.4251 0
M  V30 1367 O 131.078 -0.823556 -2.13143 0
M  V30 1368 C 131.288 -3.48098 0.250785 0
M  V30 1369 C 132.636 -4.24384 0.135509 0
M  V30 1370 O 133.66 -3.55738 0.181299 0
M  V30 1371 O 132.519 -5.46493 0.0268878 0
M  V30 1372 H 129.613 -0.8264 -0.0314845 0
M  V30 1373 H 132.159 -1.55232 0.685642 0
M  V30 1374 H 130.931 -3.7007 1.27139 0
M  V30 1375 H 130.554 -3.95323 -0.424937 0
M  V30 1376 N 131.551 -0.354651 -1.53558 0
M  V30 1377 C 132.779 0.239515 -2.05509 0
M  V30 1378 C 133.194 1.4333 -1.2289 0
M  V30 1379 O 132.551 1.80538 -0.266899 0
M  V30 1380 C 132.602 0.643719 -3.55723 0
M  V30 1381 O 132.323 -0.502602 -4.35207 0
M  V30 1382 C 133.824 1.29743 -4.23889 0
M  V30 1383 H 131.044 0.0442697 -0.669538 0
M  V30 1384 H 133.588 -0.509856 -1.98042 0
M  V30 1385 H 131.743 1.34302 -3.63376 0
M  V30 1386 H 132.157 -0.178172 -5.24197 0
M  V30 1387 H 133.631 1.53091 -5.30346 0
M  V30 1388 H 134.108 2.25441 -3.76926 0
M  V30 1389 H 134.714 0.639865 -4.20459 0
M  V30 1390 N 133.029 1.57378 -0.0835403 0
M  V30 1391 C 134.257 1.98263 0.59157 0
M  V30 1392 C 134.672 0.962302 1.62435 0
M  V30 1393 O 134.029 -0.049581 1.82433 0
M  V30 1394 C 134.08 3.39214 1.24965 0
M  V30 1395 O 133.801 4.37339 0.258186 0
M  V30 1396 C 135.302 3.95038 2.01147 0
M  V30 1397 H 132.522 0.651773 0.159477 0
M  V30 1398 H 135.066 2.03878 -0.159415 0
M  V30 1399 H 133.221 3.34649 1.95164 0
M  V30 1400 H 133.635 5.19371 0.731734 0
M  V30 1401 H 135.109 4.95848 2.42567 0
M  V30 1402 H 135.586 3.32222 2.87272 0
M  V30 1403 H 136.192 4.0304 1.35789 0
M  V30 1404 N 134.507 -0.190092 1.56449 0
M  V30 1405 C 135.735 -0.925772 1.85033 0
M  V30 1406 C 136.15 -1.76638 0.666658 0
M  V30 1407 O 135.507 -1.78822 -0.364565 0
M  V30 1408 C 135.558 -1.81786 3.12468 0
M  V30 1409 O 135.279 -1.01118 4.26271 0
M  V30 1410 C 136.78 -2.6648 3.54265 0
M  V30 1411 H 134 -0.269872 0.614337 0
M  V30 1412 H 136.544 -0.195837 2.0356 0
M  V30 1413 H 134.699 -2.50136 2.95822 0
M  V30 1414 H 135.113 -1.61956 4.98869 0
M  V30 1415 H 136.587 -3.24722 4.46385 0
M  V30 1416 H 137.064 -3.40434 2.77491 0
M  V30 1417 H 137.67 -2.03493 3.73458 0
M  V30 1418 N 135.985 -1.50799 -0.457987 0
M  V30 1419 C 136.915 -1.73553 -1.5621 0
M  V30 1420 C 137.896 -0.584774 -1.59732 0
M  V30 1421 O 139.081 -0.825314 -1.7579 0
M  V30 1422 C 136.211 -1.84169 -2.94447 0
M  V30 1423 C 135.165 -2.99461 -3.0579 0
M  V30 1424 C 134.491 -2.95235 -4.45803 0
M  V30 1425 C 135.791 -4.39766 -2.81786 0
M  V30 1426 H 137.485 -2.66 -1.37421 0
M  V30 1427 H 135.031 -1.28002 -0.659662 0
M  V30 1428 H 136.984 -1.98672 -3.71628 0
M  V30 1429 H 135.708 -0.883545 -3.14422 0
M  V30 1430 H 134.367 -2.8463 -2.31044 0
M  V30 1431 H 134.015 -1.97239 -4.62715 0
M  V30 1432 H 133.715 -3.72642 -4.54326 0
M  V30 1433 H 135.239 -3.11803 -5.24987 0
M  V30 1434 H 136.653 -4.55054 -3.4871 0
M  V30 1435 H 135.05 -5.18722 -3.0174 0
M  V30 1436 H 136.12 -4.51229 -1.7754 0
M  V30 1437 N 137.463 0.71206 -1.40597 0
M  V30 1438 C 138.709 1.47416 -1.39271 0
M  V30 1439 C 139.042 1.942 0.00388791 0
M  V30 1440 O 138.317 1.68403 0.973179 0
M  V30 1441 C 138.6 2.69774 -2.38525 0
M  V30 1442 C 138.453 2.28861 -3.87224 0
M  V30 1443 C 139.772 3.71939 -2.35264 0
M  V30 1444 H 136.891 0.534713 -0.5072 0
M  V30 1445 H 139.533 0.812375 -1.71757 0
M  V30 1446 H 137.683 3.26238 -2.10953 0
M  V30 1447 H 139.355 1.77852 -4.25636 0
M  V30 1448 H 137.598 1.60824 -4.02887 0
M  V30 1449 H 138.269 3.16584 -4.52193 0
M  V30 1450 H 140.745 3.25113 -2.59694 0
M  V30 1451 H 139.621 4.55186 -3.06753 0
M  V30 1452 H 139.882 4.20484 -1.36549 0
M  V30 1453 N 138.941 1.26152 0.944643 0
M  V30 1454 C 139.871 1.09902 2.06019 0
M  V30 1455 C 140.852 0.00519538 1.70099 0
M  V30 1456 O 142.037 0.176583 1.93396 0
M  V30 1457 C 139.167 0.727562 3.39594 0
M  V30 1458 C 138.121 1.77274 3.89561 0
M  V30 1459 C 137.447 1.25569 5.19747 0
M  V30 1460 C 138.747 3.17357 4.14827 0
M  V30 1461 H 140.441 2.03217 2.19871 0
M  V30 1462 H 137.987 0.978452 1.05652 0
M  V30 1463 H 139.94 0.600777 4.17095 0
M  V30 1464 H 138.664 -0.241287 3.25707 0
M  V30 1465 H 137.323 1.88814 3.14237 0
M  V30 1466 H 136.971 0.276783 5.02238 0
M  V30 1467 H 136.671 1.95433 5.54148 0
M  V30 1468 H 138.195 1.1415 5.99835 0
M  V30 1469 H 139.609 3.08914 4.82954 0
M  V30 1470 H 138.006 3.84781 4.60504 0
M  V30 1471 H 139.076 3.63673 3.20734 0
M  V30 1472 N 140.419 -1.14872 1.07899 0
M  V30 1473 C 141.667 -1.85422 0.803941 0
M  V30 1474 C 141.988 -1.83051 -0.67211 0
M  V30 1475 O 141.258 -1.27532 -1.48703 0
M  V30 1476 H 139.838 -0.686537 0.294408 0
M  V30 1477 H 142.5 -1.39226 1.3639 0
M  V30 1478 H 141.596 -2.90399 1.14346 0
M  V30 1479 N 141.898 -0.863906 -1.31812 0
M  V30 1480 C 143.309 -0.52522 -1.7916 0
M  V30 1481 C 143.66 0.957518 -1.71248 0
M  V30 1482 O 142.785 1.74734 -1.27659 0
M  V30 1483 C 143.38 -0.9466 -3.25307 0
M  V30 1484 C 141.939 -0.659668 -3.70574 0
M  V30 1485 C 141.086 -1.14126 -2.52726 0
M  V30 1486 H 144.037 -1.05022 -1.1898 0
M  V30 1487 H 144.058 -0.266766 -3.79564 0
M  V30 1488 H 143.57 -2.02579 -3.31034 0
M  V30 1489 H 141.671 0.408416 -3.70355 0
M  V30 1490 H 141.784 -1.23245 -4.62977 0
M  V30 1491 H 140.148 -0.561216 -2.4844 0
M  V30 1492 H 140.931 -2.22775 -2.61201 0
M  V30 1493 N 143.376 1.44774 -0.622745 0
M  V30 1494 C 144.306 2.33382 0.0741861 0
M  V30 1495 C 145.287 1.47719 0.843387 0
M  V30 1496 O 146.472 1.76458 0.810934 0
M  V30 1497 C 143.602 3.30663 1.06204 0
M  V30 1498 C 142.556 4.26079 0.405037 0
M  V30 1499 C 141.882 5.13165 1.5022 0
M  V30 1500 C 143.182 5.1781 -0.683414 0
M  V30 1501 H 144.876 2.91905 -0.665713 0
M  V30 1502 H 142.422 1.40363 -0.321587 0
M  V30 1503 H 144.375 3.9153 1.55827 0
M  V30 1504 H 143.099 2.70331 1.83272 0
M  V30 1505 H 141.758 3.66532 -0.0704683 0
M  V30 1506 H 141.406 4.49191 2.26355 0
M  V30 1507 H 141.106 5.77812 1.06803 0
M  V30 1508 H 142.63 5.76902 2.00041 0
M  V30 1509 H 144.044 5.72661 -0.270631 0
M  V30 1510 H 142.441 5.91015 -1.04023 0
M  V30 1511 H 143.511 4.59326 -1.55395 0
M  V30 1512 N 144.854 0.36279 1.53368 0
M  V30 1513 C 146.1 -0.228113 2.01513 0
M  V30 1514 C 146.433 -1.48648 1.2497 0
M  V30 1515 O 145.708 -1.91459 0.342616 0
M  V30 1516 C 145.991 -0.522884 3.56284 0
M  V30 1517 C 145.844 0.74892 4.43521 0
M  V30 1518 C 147.163 -1.32461 4.19693 0
M  V30 1519 H 144.282 -0.0814343 0.732487 0
M  V30 1520 H 146.924 0.48713 1.83649 0
M  V30 1521 H 145.074 -1.1322 3.71636 0
M  V30 1522 H 146.746 1.38648 4.39971 0
M  V30 1523 H 144.989 1.36986 4.11603 0
M  V30 1524 H 145.66 0.497667 5.49752 0
M  V30 1525 H 148.136 -0.809203 4.08156 0
M  V30 1526 H 147.012 -1.49961 5.28018 0
M  V30 1527 H 147.273 -2.33232 3.75573 0
M  V30 1528 N 146.332 -1.57332 0.0918853 0
M  V30 1529 C 147.295 -2.12708 -0.85369 0
M  V30 1530 C 148.295 -1.05561 -1.213 0
M  V30 1531 O 149.485 -1.31461 -1.14296 0
M  V30 1532 C 146.617 -2.64503 -2.15061 0
M  V30 1533 H 147.81 -2.97573 -0.3729 0
M  V30 1534 H 145.363 -1.55509 -0.157072 0
M  V30 1535 H 146.098 -1.83149 -2.67632 0
M  V30 1536 H 145.883 -3.4284 -1.90272 0
M  V30 1537 H 147.373 -3.07351 -2.82711 0
M  V30 1538 N 147.81 0.181792 -1.56548 0
M  V30 1539 C 149.035 0.920019 -1.85877 0
M  V30 1540 C 149.46 1.75494 -0.677021 0
M  V30 1541 O 148.818 1.77399 0.374056 0
M  V30 1542 C 148.866 1.78112 -3.13542 0
M  V30 1543 O 147.97 2.88152 -2.95029 0
M  V30 1544 H 147.311 0.258334 -0.611686 0
M  V30 1545 H 149.841 0.183092 -2.03779 0
M  V30 1546 H 149.851 2.18314 -3.44678 0
M  V30 1547 H 148.526 1.16777 -3.99169 0
M  V30 1548 H 147.103 2.51609 -2.75222 0
M  V30 1549 N 149.288 1.51039 0.449983 0
M  V30 1550 C 150.534 1.63322 1.20223 0
M  V30 1551 C 150.867 0.34241 1.91158 0
M  V30 1552 O 150.142 -0.657344 1.83055 0
M  V30 1553 C 150.425 2.82801 2.22925 0
M  V30 1554 C 150.278 4.21823 1.56157 0
M  V30 1555 C 151.597 2.97807 3.24035 0
M  V30 1556 H 148.716 0.594407 0.435718 0
M  V30 1557 H 151.358 1.83489 0.493136 0
M  V30 1558 H 149.508 2.65738 2.834 0
M  V30 1559 H 151.18 4.50526 0.991162 0
M  V30 1560 H 149.423 4.25105 0.864172 0
M  V30 1561 H 150.094 5.01391 2.30891 0
M  V30 1562 H 152.57 3.13497 2.73603 0
M  V30 1563 H 151.446 3.82992 3.93202 0
M  V30 1564 H 151.707 2.09328 3.89402 0
M  V30 1565 N 150.766 -0.704594 1.40972 0
M  V30 1566 C 152.014 -1.46169 1.39568 0
M  V30 1567 C 152.335 -1.95 0.00253745 0
M  V30 1568 O 151.605 -1.71095 -0.954114 0
M  V30 1569 H 150.185 -0.542326 0.513704 0
M  V30 1570 H 152.847 -0.834553 1.76128 0
M  V30 1571 H 151.943 -2.32922 2.07735 0
M  V30 1572 N 152.244 -1.26651 -0.937939 0
M  V30 1573 C 153.49 -1.12553 -1.687 0
M  V30 1574 C 153.823 0.329782 -1.91379 0
M  V30 1575 O 153.098 1.24202 -1.4968 0
M  V30 1576 C 153.381 -1.89862 -3.05981 0
M  V30 1577 C 153.234 -3.43318 -2.90607 0
M  V30 1578 C 154.553 -1.69499 -4.0615 0
M  V30 1579 H 151.672 -0.410257 -0.612257 0
M  V30 1580 H 154.314 -1.55685 -1.08913 0
M  V30 1581 H 152.464 -1.53204 -3.57017 0
M  V30 1582 H 154.136 -3.89747 -2.46769 0
M  V30 1583 H 152.379 -3.70179 -2.26164 0
M  V30 1584 H 153.05 -3.92642 -3.8799 0
M  V30 1585 H 155.526 -2.01442 -3.64088 0
M  V30 1586 H 154.402 -2.26002 -5.00214 0
M  V30 1587 H 154.663 -0.640365 -4.37438 0
M  V30 1588 N 153.722 1.14298 -1.08507 0
M  V30 1589 C 155.133 1.66926 -0.836227 0
M  V30 1590 C 155.484 1.85576 0.63686 0
M  V30 1591 O 154.609 1.56767 1.49175 0
M  V30 1592 C 155.204 3.03219 -1.51142 0
M  V30 1593 C 153.763 3.52876 -1.30979 0
M  V30 1594 C 152.91 2.2833 -1.57356 0
M  V30 1595 H 155.861 0.983491 -1.24552 0
M  V30 1596 H 155.882 3.68726 -0.939211 0
M  V30 1597 H 155.394 2.89612 -2.58353 0
M  V30 1598 H 153.495 3.71703 -0.258429 0
M  V30 1599 H 153.608 4.33586 -2.03814 0
M  V30 1600 H 151.972 2.34454 -0.995164 0
M  V30 1601 H 152.755 2.17298 -2.65775 0
M  V30 1602 N 155.201 0.870884 1.31352 0
M  V30 1603 C 156.447 0.482987 1.96965 0
M  V30 1604 C 156.78 -0.962462 1.68672 0
M  V30 1605 O 156.055 -1.6779 0.98371 0
M  V30 1606 C 156.338 0.741752 3.52378 0
M  V30 1607 C 156.191 2.2368 3.9024 0
M  V30 1608 C 157.51 0.208838 4.39604 0
M  V30 1609 H 154.629 0.176955 0.715441 0
M  V30 1610 H 157.271 1.09229 1.55464 0
M  V30 1611 H 155.421 0.223149 3.87859 0
M  V30 1612 H 157.093 2.82273 3.64856 0
M  V30 1613 H 155.336 2.70901 3.38814 0
M  V30 1614 H 156.007 2.3685 4.98604 0
M  V30 1615 H 158.483 0.652529 4.10952 0
M  V30 1616 H 157.359 0.419336 5.47296 0
M  V30 1617 H 157.62 -0.889275 4.33064 0
M  V30 1618 N 156.679 -1.44442 0.630414 0
M  V30 1619 C 157.642 -2.29107 -0.0652523 0
M  V30 1620 C 158.642 -1.41002 -0.772995 0
M  V30 1621 O 159.832 -1.62881 -0.617692 0
M  V30 1622 C 156.964 -3.22564 -1.10296 0
M  V30 1623 H 158.157 -2.92103 0.679401 0
M  V30 1624 H 155.71 -1.51343 0.390517 0
M  V30 1625 H 156.445 -2.64416 -1.87762 0
M  V30 1626 H 156.23 -3.87491 -0.59941 0
M  V30 1627 H 157.72 -3.86167 -1.5895 0
M  V30 1628 N 158.157 -0.370918 -1.53173 0
M  V30 1629 C 159.104 0.473035 -2.259 0
M  V30 1630 C 160.074 1.07311 -1.26781 0
M  V30 1631 O 161.259 1.1046 -1.55574 0
M  V30 1632 C 158.399 1.60405 -3.05556 0
M  V30 1633 C 157.512 1.02863 -4.19575 0
M  V30 1634 C 156.647 2.12918 -4.86661 0
M  V30 1635 C 155.686 1.52869 -5.92704 0
M  V30 1636 N 154.823 2.56779 -6.53459 0
M  V30 1637 H 159.663 -0.153649 -2.97604 0
M  V30 1638 H 157.2 -0.0875946 -1.46839 0
M  V30 1639 H 159.158 2.27034 -3.50016 0
M  V30 1640 H 157.788 2.20131 -2.36097 0
M  V30 1641 H 156.84 0.252465 -3.79561 0
M  V30 1642 H 158.152 0.549642 -4.95762 0
M  V30 1643 H 157.306 2.87356 -5.34333 0
M  V30 1644 H 156.045 2.6417 -4.09958 0
M  V30 1645 H 155.05 0.769479 -5.44389 0
M  V30 1646 H 156.275 1.02435 -6.7133 0
M  V30 1647 H 154.221 3.07235 -5.79606 0
M  V30 1648 H 154.138 2.13583 -7.25202 0
M  V30 1649 H 155.406 3.30903 -7.05779 0
M  V30 1650 N 159.635 1.57281 -0.100228 0
M  V30 1651 C 160.568 2.09976 0.893612 0
M  V30 1652 C 161.546 1.01155 1.27304 0
M  V30 1653 O 162.73 1.28687 1.37739 0
M  V30 1654 C 159.857 2.58098 2.19324 0
M  V30 1655 C 158.903 3.78626 1.96328 0
M  V30 1656 S 159.736 5.21959 1.19662 0
M  V30 1657 C 160.892 5.73435 2.50844 0
M  V30 1658 H 161.125 2.93946 0.44534 0
M  V30 1659 H 158.658 1.53985 0.113167 0
M  V30 1660 H 160.616 2.8648 2.94005 0
M  V30 1661 H 159.277 1.74344 2.61272 0
M  V30 1662 H 158.47 4.10382 2.92579 0
M  V30 1663 H 158.072 3.50763 1.29775 0
M  V30 1664 H 160.364 5.82015 3.46792 0
M  V30 1665 H 161.307 6.7185 2.23659 0
M  V30 1666 H 161.715 5.01395 2.59352 0
M  V30 1667 N 161.113 -0.173488 1.56642 0
M  V30 1668 C 162.338 -0.910149 1.86363 0
M  V30 1669 C 162.763 -1.75132 0.686318 0
M  V30 1670 O 162.121 -1.77595 -0.364643 0
M  V30 1671 C 162.169 -1.76447 3.14482 0
M  V30 1672 O 161.273 -2.86584 2.96553 0
M  V30 1673 H 160.614 -0.255086 0.613047 0
M  V30 1674 H 163.144 -0.172283 2.03873 0
M  V30 1675 H 163.154 -2.16483 3.45831 0
M  V30 1676 H 161.829 -1.14658 3.99783 0
M  V30 1677 H 160.406 -2.50146 2.76553 0
M  V30 1678 N 162.591 -1.51276 -0.441967 0
M  V30 1679 C 163.839 -1.63392 -1.18943 0
M  V30 1680 C 164.16 -0.350159 -1.9183 0
M  V30 1681 O 163.43 0.633784 -1.85364 0
M  V30 1682 H 162.01 -0.602164 -0.442049 0
M  V30 1683 H 164.672 -1.88186 -0.507165 0
M  V30 1684 H 163.768 -2.45934 -1.92154 0
M  V30 1685 N 164.069 0.697108 -1.41344 0
M  V30 1686 C 165.485 1.00751 -1.2378 0
M  V30 1687 C 165.685 2.01105 -0.126066 0
M  V30 1688 O 164.741 2.47295 0.51004 0
M  V30 1689 C 166.054 1.53359 -2.58653 0
M  V30 1690 C 167.602 1.6525 -2.65822 0
M  V30 1691 C 168.077 2.2126 -4.01009 0
M  V30 1692 N 169.568 2.28622 -4.02847 0
M  V30 1693 C 170.303 2.72984 -5.04249 0
M  V30 1694 N 169.799 3.16962 -6.16041 0
M  V30 1695 N 171.592 2.72534 -4.91611 0
M  V30 1696 H 163.743 0.0322662 -2.12375 0
M  V30 1697 H 166.006 0.0768853 -0.944877 0
M  V30 1698 H 165.712 0.870773 -3.4075 0
M  V30 1699 H 165.586 2.51597 -2.81032 0
M  V30 1700 H 167.973 2.30644 -1.84086 0
M  V30 1701 H 168.054 0.655614 -2.47256 0
M  V30 1702 H 167.698 1.56482 -4.83193 0
M  V30 1703 H 167.628 3.21698 -4.16915 0
M  V30 1704 H 170.119 1.97585 -3.22131 0
M  V30 1705 H 170.432 3.49434 -6.89287 0
M  V30 1706 H 168.777 3.14875 -6.1958 0
M  V30 1707 H 171.968 2.37525 -4.0336 0
M  V30 1708 H 172.141 3.06789 -5.70775 0
M  V30 1709 N 165.547 1.27147 0.931209 0
M  V30 1710 C 166.795 1.13055 1.6752 0
M  V30 1711 C 167.116 -0.324791 1.92276 0
M  V30 1712 O 166.386 -1.22775 1.52654 0
M  V30 1713 H 164.966 0.415391 0.620854 0
M  V30 1714 H 167.628 1.59623 1.11833 0
M  V30 1715 H 166.724 1.65694 2.64485 0
M  V30 1716 N 167.025 -1.13721 1.09112 0
M  V30 1717 C 167.955 -2.21148 0.749385 0
M  V30 1718 C 168.936 -1.6792 -0.271475 0
M  V30 1719 O 170.121 -1.93693 -0.140251 0
M  V30 1720 C 167.251 -3.46905 0.165659 0
M  V30 1721 C 166.205 -4.13203 1.11567 0
M  V30 1722 C 165.531 -5.33248 0.393809 0
M  V30 1723 C 166.831 -4.60912 2.45678 0
M  V30 1724 H 168.525 -2.4999 1.64758 0
M  V30 1725 H 166.071 -1.20156 0.793626 0
M  V30 1726 H 168.024 -4.21313 -0.085466 0
M  V30 1727 H 166.748 -3.17449 -0.767714 0
M  V30 1728 H 165.407 -3.40758 1.35202 0
M  V30 1729 H 165.055 -5.00054 -0.543599 0
M  V30 1730 H 164.755 -5.78552 1.02721 0
M  V30 1731 H 166.279 -6.10413 0.150908 0
M  V30 1732 H 167.693 -5.26759 2.26269 0
M  V30 1733 H 166.09 -5.16944 3.04776 0
M  V30 1734 H 167.16 -3.75603 3.06677 0
M  V30 1735 N 168.503 -0.877838 -1.30888 0
M  V30 1736 C 169.751 -0.491723 -1.96027 0
M  V30 1737 C 170.072 0.960827 -1.69685 0
M  V30 1738 O 169.342 1.67462 -1.01654 0
M  V30 1739 H 167.922 -0.17885 -0.725273 0
M  V30 1740 H 170.584 -1.11935 -1.59551 0
M  V30 1741 H 169.68 -0.656016 -3.05128 0
M  V30 1742 N 169.982 1.44106 -0.638065 0
M  V30 1743 C 170.932 2.27843 0.0847285 0
M  V30 1744 C 171.916 1.39055 0.809471 0
M  V30 1745 O 173.108 1.62808 0.694435 0
M  V30 1746 C 170.237 3.26497 1.06089 0
M  V30 1747 C 169.323 4.22772 0.33541 0
M  V30 1748 N 169.714 5.01737 -0.639787 0
M  V30 1749 C 168.012 4.42227 0.578921 0
M  V30 1750 C 168.713 5.71792 -1.06904 0
M  V30 1751 N 167.689 5.42079 -0.406395 0
M  V30 1752 H 171.491 2.86305 -0.663814 0
M  V30 1753 H 169.005 1.55627 -0.464122 0
M  V30 1754 H 171.002 3.8525 1.59337 0
M  V30 1755 H 169.662 2.69595 1.80966 0
M  V30 1756 H 170.673 5.07799 -1.01789 0
M  V30 1757 H 167.35 3.96415 1.31003 0
M  V30 1758 H 168.74 6.45205 -1.8751 0
M  V30 1759 N 171.46 0.379036 1.52974 0
M  V30 1760 C 172.688 -0.20679 2.05864 0
M  V30 1761 C 173.103 -1.41356 1.25155 0
M  V30 1762 O 172.46 -1.8009 0.295588 0
M  V30 1763 C 172.511 -0.587045 3.56702 0
M  V30 1764 O 172.232 0.571776 4.34353 0
M  V30 1765 C 173.733 -1.22983 4.25899 0
M  V30 1766 H 170.953 -0.0336123 0.670158 0
M  V30 1767 H 173.497 0.541298 1.97206 0
M  V30 1768 H 171.652 -1.28504 3.65466 0
M  V30 1769 H 172.066 0.261544 5.23847 0
M  V30 1770 H 173.54 -1.44635 5.32715 0
M  V30 1771 H 174.017 -2.19416 3.80465 0
M  V30 1772 H 174.623 -0.572892 4.21424 0
M  V30 1773 N 172.938 -1.57226 0.108567 0
M  V30 1774 C 174.186 -1.94448 -0.550853 0
M  V30 1775 C 174.507 -0.992074 -1.67878 0
M  V30 1776 O 173.777 -0.0465 -1.95845 0
M  V30 1777 H 172.357 -0.717897 -0.206479 0
M  V30 1778 H 175.019 -1.94112 0.175062 0
M  V30 1779 H 174.115 -2.97218 -0.952259 0
M  V30 1780 N 174.416 0.165178 -1.56732 0
M  V30 1781 C 175.664 0.879068 -1.8198 0
M  V30 1782 C 175.985 1.82514 -0.686561 0
M  V30 1783 O 175.255 1.93694 0.293146 0
M  V30 1784 H 173.835 0.327608 -0.671329 0
M  V30 1785 H 176.497 0.163526 -1.94213 0
M  V30 1786 H 175.593 1.45228 -2.76252 0
M  V30 1787 N 175.894 1.51508 0.433938 0
M  V30 1788 C 177.122 1.68157 1.20543 0
M  V30 1789 C 177.537 0.380362 1.84929 0
M  V30 1790 O 176.894 -0.641446 1.70856 0
M  V30 1791 C 176.945 2.79965 2.28696 0
M  V30 1792 O 176.666 4.05045 1.66943 0
M  V30 1793 C 178.167 3.07912 3.18912 0
M  V30 1794 H 175.387 0.56421 0.363191 0
M  V30 1795 H 177.931 1.97941 0.513754 0
M  V30 1796 H 176.086 2.5277 2.93574 0
M  V30 1797 H 176.5 4.67165 2.38448 0
M  V30 1798 H 177.974 3.89719 3.90926 0
M  V30 1799 H 178.451 2.20456 3.79863 0
M  V30 1800 H 179.057 3.36779 2.59731 0
M  V30 1801 N 177.372 -0.689602 1.41712 0
M  V30 1802 C 178.621 -1.44534 1.40686 0
M  V30 1803 C 178.934 -1.95588 0.0213352 0
M  V30 1804 O 180.14 -2.71271 -0.111534 0
M  V30 1805 C 178.596 -2.61387 2.47396 0
M  V30 1806 C 178.204 -2.17094 3.91885 0
M  V30 1807 C 179.948 -3.38986 2.55517 0
M  V30 1808 C 177.855 -3.3094 4.90135 0
M  V30 1809 H 176.785 -0.542925 0.52321 0
M  V30 1810 H 179.436 -0.748054 1.6756 0
M  V30 1811 H 177.818 -3.33412 2.13664 0
M  V30 1812 H 178.992 -1.52318 4.34897 0
M  V30 1813 H 177.307 -1.52473 3.8748 0
M  V30 1814 H 179.904 -4.23747 3.26102 0
M  V30 1815 H 180.247 -3.84578 1.59391 0
M  V30 1816 H 180.78 -2.74021 2.8837 0
M  V30 1817 H 177.519 -2.90355 5.87685 0
M  V30 1818 H 177.039 -3.94546 4.51767 0
M  V30 1819 H 178.718 -3.9663 5.11169 0
M  V30 1820 N 178.85 -1.27639 -0.924453 0
M  V30 1821 C 180.127 -1.04887 -1.651 0
M  V30 1822 C 180.507 0.415327 -2.06974 0
M  V30 1823 O 179.855 1.39923 -1.80648 0
M  V30 1824 C 180.065 -2.01348 -2.85061 0
M  V30 1825 C 181.413 -2.30899 -3.56329 0
M  V30 1826 O 182.437 -1.99348 -2.95193 0
M  V30 1827 O 181.296 -2.84699 -4.66485 0
M  V30 1828 H 178.39 -0.400083 -0.723784 0
M  V30 1829 H 180.936 -1.38916 -0.974703 0
M  V30 1830 H 179.708 -3.0008 -2.51133 0
M  V30 1831 H 179.331 -1.679 -3.6041 0
M  V30 1832 N 180.328 1.1314 -1.09713 0
M  V30 1833 C 181.275 2.18642 -0.739196 0
M  V30 1834 C 182.245 1.63706 0.280978 0
M  V30 1835 O 183.43 1.90111 0.161946 0
M  V30 1836 C 180.57 3.44685 -0.169102 0
M  V30 1837 C 179.683 4.13711 -1.24367 0
M  V30 1838 C 178.818 5.27379 -0.636019 0
M  V30 1839 C 177.857 5.88259 -1.69169 0
M  V30 1840 N 176.994 6.93352 -1.10485 0
M  V30 1841 H 181.834 2.48607 -1.64312 0
M  V30 1842 H 179.371 1.22066 -0.820875 0
M  V30 1843 H 181.329 4.16815 0.179256 0
M  V30 1844 H 179.959 3.15161 0.698079 0
M  V30 1845 H 179.011 3.39835 -1.70927 0
M  V30 1846 H 180.323 4.55037 -2.04311 0
M  V30 1847 H 179.477 6.06238 -0.236677 0
M  V30 1848 H 178.216 4.8731 0.194928 0
M  V30 1849 H 177.221 5.08092 -2.10055 0
M  V30 1850 H 178.446 6.30399 -2.52536 0
M  V30 1851 H 176.392 6.55335 -0.295234 0
M  V30 1852 H 176.309 7.33236 -1.84121 0
M  V30 1853 H 177.577 7.76057 -0.73181 0
M  V30 1854 N 181.806 0.884767 1.30421 0
M  V30 1855 C 182.736 0.367574 2.30589 0
M  V30 1856 C 183.717 -0.549464 1.60981 0
M  V30 1857 O 184.902 -0.46336 1.88591 0
M  V30 1858 C 182.032 -0.418944 3.44764 0
M  V30 1859 C 180.986 0.406316 4.26067 0
M  V30 1860 C 180.312 -0.506793 5.32293 0
M  V30 1861 C 181.612 1.64832 4.95608 0
M  V30 1862 H 183.306 1.20462 2.74097 0
M  V30 1863 H 180.852 0.580695 1.31772 0
M  V30 1864 H 182.805 -0.791395 4.13902 0
M  V30 1865 H 181.529 -1.28964 3.0006 0
M  V30 1866 H 180.188 0.760903 3.58617 0
M  V30 1867 H 179.836 -1.37519 4.83836 0
M  V30 1868 H 179.536 0.0415828 5.87585 0
M  V30 1869 H 181.06 -0.875764 6.04287 0
M  V30 1870 H 182.474 1.34646 5.57264 0
M  V30 1871 H 180.871 2.13688 5.60765 0
M  V30 1872 H 181.941 2.39284 4.21748 0
M  V30 1873 N 183.284 -1.43765 0.645699 0
M  V30 1874 C 184.194 -2.34544 -0.0512957 0
M  V30 1875 C 185.21 -1.53455 -0.82022 0
M  V30 1876 O 186.386 -1.86133 -0.769176 0
M  V30 1877 C 183.451 -3.31636 -1.01087 0
M  V30 1878 C 182.512 -4.2863 -0.239712 0
M  V30 1879 C 181.745 -5.21084 -1.15358 0
M  V30 1880 O 181.968 -5.1779 -2.39269 0
M  V30 1881 O 180.902 -5.98593 -0.630038 0
M  V30 1882 H 184.728 -2.95624 0.695718 0
M  V30 1883 H 182.313 -1.43781 0.405882 0
M  V30 1884 H 184.195 -3.9136 -1.56254 0
M  V30 1885 H 182.87 -2.73069 -1.73824 0
M  V30 1886 H 181.777 -3.72408 0.355356 0
M  V30 1887 H 183.11 -4.90157 0.447936 0
M  V30 1888 N 184.763 -0.387143 -1.52771 0
M  V30 1889 C 185.988 0.198407 -2.06449 0
M  V30 1890 C 186.413 1.39918 -1.25716 0
M  V30 1891 O 185.771 1.79099 -0.281657 0
M  V30 1892 C 185.819 0.548893 -3.56398 0
M  V30 1893 O 184.923 1.64315 -3.78252 0
M  V30 1894 H 184.264 0.0237731 -0.663574 0
M  V30 1895 H 186.794 -0.553989 -1.96957 0
M  V30 1896 H 186.804 0.813812 -3.99801 0
M  V30 1897 H 185.479 -0.329005 -4.14597 0
M  V30 1898 H 184.056 1.37211 -3.46738 0
M  V30 1899 N 186.241 1.57166 -0.116904 0
M  V30 1900 C 187.487 1.95412 0.542405 0
M  V30 1901 C 187.82 1.00019 1.66463 0
M  V30 1902 O 187.095 0.0370346 1.94465 0
M  V30 1903 C 187.378 3.43615 1.07708 0
M  V30 1904 C 187.231 4.49781 -0.0415868 0
M  V30 1905 C 188.55 3.93616 1.96861 0
M  V30 1906 H 185.669 0.710543 0.195696 0
M  V30 1907 H 188.311 1.89027 -0.192038 0
M  V30 1908 H 186.461 3.49187 1.70296 0
M  V30 1909 H 188.133 4.56308 -0.676793 0
M  V30 1910 H 186.376 4.28033 -0.705019 0
M  V30 1911 H 187.047 5.50733 0.373717 0
M  V30 1912 H 189.523 3.90335 1.44146 0
M  V30 1913 H 188.399 4.97838 2.3119 0
M  V30 1914 H 188.66 3.34188 2.89432 0
M  V30 1915 N 187.719 -0.156864 1.56817 0
M  V30 1916 C 189.13 -0.717916 1.72345 0
M  V30 1917 C 189.481 -1.82124 0.729747 0
M  V30 1918 O 188.606 -2.16141 -0.105781 0
M  V30 1919 C 189.201 -1.30904 3.12489 0
M  V30 1920 C 187.76 -1.81676 3.29653 0
M  V30 1921 C 186.907 -0.701349 2.68284 0
M  V30 1922 H 189.858 0.0686989 1.58551 0
M  V30 1923 H 189.879 -2.17882 3.11942 0
M  V30 1924 H 189.391 -0.505796 3.8479 0
M  V30 1925 H 187.492 -2.64598 2.62333 0
M  V30 1926 H 187.605 -1.95226 4.3752 0
M  V30 1927 H 185.969 -1.12548 2.28484 0
M  V30 1928 H 186.752 0.0902846 3.43181 0
M  V30 1929 N 189.197 -1.51736 -0.425897 0
M  V30 1930 C 190.445 -1.64644 -1.17204 0
M  V30 1931 C 190.766 -0.370486 -1.91448 0
M  V30 1932 O 190.036 0.614088 -1.86026 0
M  V30 1933 H 188.616 -0.606819 -0.435638 0
M  V30 1934 H 191.278 -1.88713 -0.487177 0
M  V30 1935 H 190.374 -2.47958 -1.89534 0
M  V30 1936 N 190.675 0.682077 -1.42076 0
M  V30 1937 C 191.922 1.44215 -1.42156 0
M  V30 1938 C 192.25 1.94468 -0.0354186 0
M  V30 1939 O 191.505 1.70816 0.955002 0
M  V30 1940 C 191.804 2.66036 -2.38662 0
M  V30 1941 C 191.47 2.34366 -3.85206 0
M  V30 1942 C 190.132 2.25439 -4.25124 0
M  V30 1943 C 192.484 2.08513 -4.77673 0
M  V30 1944 C 189.812 1.88775 -5.55501 0
M  V30 1945 C 192.164 1.73354 -6.08384 0
M  V30 1946 C 190.828 1.62933 -6.47309 0
M  V30 1947 H 190.098 0.527718 -0.520187 0
M  V30 1948 H 192.745 0.778387 -1.74967 0
M  V30 1949 H 191.05 3.3741 -1.99152 0
M  V30 1950 H 192.747 3.24205 -2.35991 0
M  V30 1951 H 189.337 2.42213 -3.53597 0
M  V30 1952 H 193.521 2.14346 -4.47626 0
M  V30 1953 H 188.777 1.7927 -5.84527 0
M  V30 1954 H 192.951 1.52373 -6.79526 0
M  V30 1955 H 190.578 1.34292 -7.48244 0
M  V30 1956 N 192.153 1.28127 0.917671 0
M  V30 1957 C 193.103 1.08361 2.00604 0
M  V30 1958 C 194.087 0.00847518 1.60898 0
M  V30 1959 O 195.279 0.228167 1.75523 0
M  V30 1960 C 192.408 0.743376 3.35155 0
M  V30 1961 C 191.494 1.85716 3.81275 0
M  V30 1962 N 191.885 3.09822 3.99805 0
M  V30 1963 C 190.183 1.74612 4.10398 0
M  V30 1964 C 190.884 3.82368 4.38372 0
M  V30 1965 N 189.86 3.10192 4.4641 0
M  V30 1966 H 193.662 2.02531 2.12975 0
M  V30 1967 H 191.176 1.18989 1.10523 0
M  V30 1968 H 193.173 0.582859 4.12805 0
M  V30 1969 H 191.833 -0.190595 3.2414 0
M  V30 1970 H 192.844 3.45475 3.85833 0
M  V30 1971 H 189.521 0.883657 4.08041 0
M  V30 1972 H 190.911 4.89082 4.60704 0
M  V30 1973 N 193.631 -1.12557 1.10312 0
M  V30 1974 C 194.877 -1.84311 0.846011 0
M  V30 1975 C 195.21 -1.83805 -0.626859 0
M  V30 1976 O 194.485 -1.28268 -1.46211 0
M  V30 1977 C 194.768 -3.32048 1.39341 0
M  V30 1978 C 194.621 -3.41016 2.93305 0
M  V30 1979 C 195.94 -4.27764 1.03468 0
M  V30 1980 H 193.059 -0.669192 0.30879 0
M  V30 1981 H 195.701 -1.32057 1.36605 0
M  V30 1982 H 193.851 -3.76678 0.951087 0
M  V30 1983 H 195.523 -3.05031 3.46055 0
M  V30 1984 H 193.766 -2.81603 3.29973 0
M  V30 1985 H 194.437 -4.44948 3.26689 0
M  V30 1986 H 196.913 -3.91253 1.41633 0
M  V30 1987 H 195.789 -5.29549 1.44463 0
M  V30 1988 H 196.05 -4.42064 -0.0560404 0
M  V30 1989 N 195.109 -0.891671 -1.2995 0
M  V30 1990 C 196.019 -0.367691 -2.31701 0
M  V30 1991 C 197.035 0.533486 -1.6562 0
M  V30 1992 O 198.211 0.424997 -1.96865 0
M  V30 1993 C 195.276 0.403406 -3.44345 0
M  V30 1994 C 194.337 -0.528328 -4.26037 0
M  V30 1995 C 193.57 0.206063 -5.33302 0
M  V30 1996 O 193.793 1.43119 -5.52153 0
M  V30 1997 O 192.727 -0.447281 -6.00236 0
M  V30 1998 H 196.553 -1.21163 -2.78484 0
M  V30 1999 H 194.138 -0.655725 -1.34241 0
M  V30 2000 H 196.02 0.839753 -4.12948 0
M  V30 2001 H 194.695 1.22354 -2.99685 0
M  V30 2002 H 193.602 -1.01362 -3.60106 0
M  V30 2003 H 194.935 -1.31465 -4.74318 0
M  V30 2004 N 196.587 1.43421 -0.653314 0
M  V30 2005 C 197.836 2.01032 -0.164076 0
M  V30 2006 C 198.149 1.52147 1.22926 0
M  V30 2007 O 199.355 2.02031 1.81371 0
M  V30 2008 C 197.811 3.59082 -0.24252 0
M  V30 2009 C 197.419 4.1696 -1.63855 0
M  V30 2010 C 199.163 4.24079 0.18911 0
M  V30 2011 C 197.07 5.67304 -1.67092 0
M  V30 2012 H 196 0.751798 -0.0575769 0
M  V30 2013 H 198.651 1.6439 -0.815362 0
M  V30 2014 H 197.033 3.93125 0.476276 0
M  V30 2015 H 198.207 3.94416 -2.38271 0
M  V30 2016 H 196.522 3.64335 -2.01616 0
M  V30 2017 H 199.119 5.34381 0.184775 0
M  V30 2018 H 199.462 3.98005 1.22056 0
M  V30 2019 H 199.995 3.94918 -0.477938 0
M  V30 2020 H 196.734 5.98145 -2.68146 0
M  V30 2021 H 196.254 5.91904 -0.970014 0
M  V30 2022 H 197.933 6.31344 -1.4147 0
M  V30 2023 N 198.065 0.39524 1.52563 0
M  V30 2024 C 199.293 -0.184943 2.06072 0
M  V30 2025 C 199.708 -1.40021 1.26647 0
M  V30 2026 O 199.065 -1.79767 0.314672 0
M  V30 2027 C 199.116 -0.549179 3.57304 0
M  V30 2028 O 198.837 0.617813 4.33722 0
M  V30 2029 C 200.338 -1.18459 4.2718 0
M  V30 2030 H 197.558 -0.0265025 0.670476 0
M  V30 2031 H 200.102 0.562184 1.96621 0
M  V30 2032 H 198.257 -1.2462 3.66809 0
M  V30 2033 H 198.671 0.317091 5.23541 0
M  V30 2034 H 200.145 -1.38976 5.34219 0
M  V30 2035 H 200.622 -2.15368 3.82771 0
M  V30 2036 H 201.228 -0.528163 4.22008 0
M  V30 2037 N 199.544 -1.57102 0.125237 0
M  V30 2038 C 200.492 -2.16905 -0.839927 0
M  V30 2039 C 201.486 -1.11998 -1.27094 0
M  V30 2040 O 202.692 -1.3029 -1.24195 0
M  V30 2041 H 199.067 -0.694252 -0.288995 0
M  V30 2042 H 201.038 -2.96774 -0.311115 0
M  V30 2043 C 199.787 -2.78795 -2.07771 0
M  V30 2044 H 199.11 -3.59221 -1.755 0
M  V30 2045 H 200.55 -3.2417 -2.73295 0
M  V30 2046 C 199.009 -1.76193 -2.87155 0
M  V30 2047 O 199.539 -1.21909 -3.82755 0
M  V30 2048 N 197.745 -1.45991 -2.51267 0
M  V30 2049 H 197.292 -1.90325 -1.73592 0
M  V30 2050 H 197.25 -0.775844 -3.04677 0
M  V30 2051 N 201.022 0.148545 -1.56898 0
M  V30 2052 C 202.299 0.890019 -1.74178 0
M  V30 2053 C 202.679 1.99407 -0.692839 0
M  V30 2054 O 202.027 2.26671 0.288505 0
M  V30 2055 C 202.237 1.43389 -3.18183 0
M  V30 2056 C 203.585 1.89791 -3.79822 0
M  V30 2057 O 204.609 1.53134 -3.21603 0
M  V30 2058 O 203.468 2.57387 -4.82093 0
M  V30 2059 H 200.562 0.420496 -0.712118 0
M  V30 2060 H 203.108 0.134591 -1.69165 0
M  V30 2061 H 201.88 0.640383 -3.86024 0
M  V30 2062 H 201.503 2.25287 -3.27615 0
M  V30 2063 N 202.5 1.5196 0.417844 0
M  V30 2064 C 203.41 1.77554 1.53336 0
M  V30 2065 C 204.426 0.660655 1.6097 0
M  V30 2066 O 205.602 0.945099 1.77848 0
M  V30 2067 C 202.667 1.91291 2.89152 0
M  V30 2068 C 201.728 3.15183 2.91475 0
M  V30 2069 C 200.961 3.28256 4.20813 0
M  V30 2070 O 201.184 2.46798 5.14244 0
M  V30 2071 O 200.118 4.21356 4.29817 0
M  V30 2072 H 203.944 2.7222 1.34647 0
M  V30 2073 H 201.529 1.36698 0.602828 0
M  V30 2074 H 203.411 2.02199 3.69721 0
M  V30 2075 H 202.086 0.998129 3.07927 0
M  V30 2076 H 200.993 3.09739 2.09791 0
M  V30 2077 H 202.326 4.06414 2.77648 0
M  V30 2078 N 203.978 -0.674533 1.42435 0
M  V30 2079 C 205.225 -1.43459 1.42919 0
M  V30 2080 C 205.553 -1.94446 0.0457312 0
M  V30 2081 O 204.808 -1.7132 -0.94593 0
M  V30 2082 C 205.107 -2.64767 2.40069 0
M  V30 2083 C 204.773 -2.3232 3.86443 0
M  V30 2084 C 203.435 -2.23182 4.26314 0
M  V30 2085 C 205.787 -2.05977 4.78773 0
M  V30 2086 C 203.115 -1.85827 5.56494 0
M  V30 2087 C 205.467 -1.70125 6.09295 0
M  V30 2088 C 204.131 -1.59498 6.48164 0
M  V30 2089 H 203.401 -0.524952 0.522978 0
M  V30 2090 H 206.048 -0.769097 1.75377 0
M  V30 2091 H 204.353 -3.36349 2.00939 0
M  V30 2092 H 206.05 -3.22949 2.37707 0
M  V30 2093 H 202.64 -2.40334 3.54877 0
M  V30 2094 H 206.824 -2.11969 4.48757 0
M  V30 2095 H 202.08 -1.76168 5.8547 0
M  V30 2096 H 206.254 -1.48767 6.80324 0
M  V30 2097 H 203.881 -1.30322 7.48946 0
M  V30 2098 N 205.456 -1.28612 -0.910864 0
M  V30 2099 C 206.705 -1.15311 -1.65488 0
M  V30 2100 C 207.018 0.296999 -1.93332 0
M  V30 2101 O 208.224 0.551168 -2.65847 0
M  V30 2102 C 206.68 -2.01599 -2.98137 0
M  V30 2103 C 206.288 -3.51367 -2.7793 0
M  V30 2104 C 208.032 -1.96993 -3.76024 0
M  V30 2105 C 205.939 -4.29797 -4.06237 0
M  V30 2106 H 204.869 -0.42796 -0.620779 0
M  V30 2107 H 207.52 -1.53166 -1.01057 0
M  V30 2108 H 205.902 -1.56603 -3.63719 0
M  V30 2109 H 207.076 -4.0434 -2.21011 0
M  V30 2110 H 205.391 -3.57529 -2.13452 0
M  V30 2111 H 207.988 -2.52856 -4.71135 0
M  V30 2112 H 208.331 -0.94733 -4.05378 0
M  V30 2113 H 208.864 -2.39973 -3.17266 0
M  V30 2114 H 205.603 -5.32648 -3.82055 0
M  V30 2115 H 205.123 -3.81596 -4.62757 0
M  V30 2116 H 206.802 -4.39869 -4.74473 0
M  V30 2117 N 206.934 1.1197 -1.10907 0
M  V30 2118 C 208.211 1.79959 -0.766432 0
M  V30 2119 C 208.591 1.97466 0.746363 0
M  V30 2120 O 207.939 1.55491 1.67436 0
M  V30 2121 C 208.149 3.14009 -1.52314 0
M  V30 2122 C 209.497 3.89134 -1.69883 0
M  V30 2123 O 210.521 3.2368 -1.48692 0
M  V30 2124 O 209.38 5.06572 -2.05054 0
M  V30 2125 H 206.474 0.779208 -0.277062 0
M  V30 2126 H 209.02 1.18762 -1.21217 0
M  V30 2127 H 207.792 2.96587 -2.55249 0
M  V30 2128 H 207.415 3.82915 -1.07059 0
M  V30 2129 N 208.412 0.89855 1.29475 0
M  V30 2130 C 209.342 0.39201 2.30186 0
M  V30 2131 C 210.323 -0.532359 1.61555 0
M  V30 2132 O 211.508 -0.443331 1.89072 0
M  V30 2133 C 208.638 -0.382353 3.45189 0
M  V30 2134 C 207.592 0.451483 4.25612 0
M  V30 2135 C 206.918 -0.450307 5.328 0
M  V30 2136 C 208.218 1.70079 4.93832 0
M  V30 2137 H 209.912 1.23362 2.72804 0
M  V30 2138 H 207.458 0.594638 1.31149 0
M  V30 2139 H 209.411 -0.747451 4.14718 0
M  V30 2140 H 208.135 -1.25774 3.01411 0
M  V30 2141 H 206.794 0.798897 3.57789 0
M  V30 2142 H 206.442 -1.32379 4.85268 0
M  V30 2143 H 206.142 0.103902 5.87508 0
M  V30 2144 H 207.666 -0.811623 6.05182 0
M  V30 2145 H 209.08 1.40549 5.55805 0
M  V30 2146 H 207.477 2.19623 5.58467 0
M  V30 2147 H 208.547 2.43744 4.19186 0
M  V30 2148 N 209.89 -1.43072 0.660911 0
M  V30 2149 C 211.136 -2.0202 0.177708 0
M  V30 2150 C 211.469 -1.52066 -1.20787 0
M  V30 2151 O 210.744 -0.716987 -1.80802 0
M  V30 2152 C 211.027 -3.59561 0.197019 0
M  V30 2153 C 210.88 -4.19727 1.61706 0
M  V30 2154 C 212.199 -4.37664 -0.462396 0
M  V30 2155 H 209.318 -0.734034 0.0660494 0
M  V30 2156 H 211.96 -1.70272 0.843058 0
M  V30 2157 H 210.11 -3.86739 -0.369527 0
M  V30 2158 H 211.782 -4.03553 2.23479 0
M  V30 2159 H 210.025 -3.76084 2.16201 0
M  V30 2160 H 210.696 -5.28834 1.58237 0
M  V30 2161 H 213.172 -4.16095 0.0197215 0
M  V30 2162 H 212.048 -5.47305 -0.418188 0
M  V30 2163 H 212.309 -4.14493 -1.53778 0
M  V30 2164 N 211.368 -0.403325 -1.52352 0
M  V30 2165 C 212.316 0.439752 -2.28405 0
M  V30 2166 C 213.31 1.05089 -1.32863 0
M  V30 2167 O 214.516 0.989759 -1.50345 0
M  V30 2168 H 210.891 0.160587 -0.734653 0
M  V30 2169 H 212.862 -0.222983 -2.97566 0
M  V30 2170 C 211.611 1.54736 -3.11371 0
M  V30 2171 H 210.934 1.08643 -3.84755 0
M  V30 2172 H 212.374 2.1112 -3.67701 0
M  V30 2173 C 210.833 2.51141 -2.24566 0
M  V30 2174 O 211.363 3.54887 -1.88196 0
M  V30 2175 N 209.569 2.21213 -1.8845 0
M  V30 2176 H 209.116 1.36878 -2.18225 0
M  V30 2177 H 209.074 2.85963 -1.30662 0
M  V30 2178 N 212.846 1.57033 -0.133567 0
M  V30 2179 C 213.793 2.16074 0.811208 0
M  V30 2180 C 214.763 1.08979 1.2535 0
M  V30 2181 O 215.948 1.36958 1.32843 0
M  V30 2182 C 213.088 2.77595 2.05024 0
M  V30 2183 C 212.201 3.99042 1.65498 0
M  V30 2184 C 211.336 4.48603 2.84479 0
M  V30 2185 C 210.375 5.62547 2.41262 0
M  V30 2186 N 209.512 6.06787 3.53206 0
M  V30 2187 H 214.352 2.96477 0.300906 0
M  V30 2188 H 211.889 1.46462 0.136822 0
M  V30 2189 H 213.847 3.11402 2.77642 0
M  V30 2190 H 212.477 1.99859 2.53488 0
M  V30 2191 H 211.529 3.71302 0.826981 0
M  V30 2192 H 212.841 4.81629 1.29748 0
M  V30 2193 H 211.995 4.84395 3.65303 0
M  V30 2194 H 210.734 3.64995 3.23465 0
M  V30 2195 H 209.739 5.26345 1.58874 0
M  V30 2196 H 210.964 6.47931 2.03377 0
M  V30 2197 H 208.91 5.26117 3.91838 0
M  V30 2198 H 208.827 6.84266 3.21427 0
M  V30 2199 H 210.095 6.4722 4.34427 0
M  V30 2200 N 214.325 -0.140222 1.56975 0
M  V30 2201 C 215.273 -1.19207 1.99731 0
M  V30 2202 C 216.267 -1.44089 0.890777 0
M  V30 2203 O 217.473 -1.44301 1.07597 0
M  V30 2204 H 213.848 -0.40142 0.635898 0
M  V30 2205 H 215.819 -0.804813 2.87342 0
M  V30 2206 C 214.568 -2.51617 2.39967 0
M  V30 2207 H 213.891 -2.33303 3.24669 0
M  V30 2208 H 215.331 -3.23827 2.73701 0
M  V30 2209 C 213.79 -3.12654 1.25496 0
M  V30 2210 O 214.32 -3.97786 0.559371 0
M  V30 2211 N 212.526 -2.72206 1.01746 0
M  V30 2212 H 212.073 -2.03074 1.58489 0
M  V30 2213 H 212.031 -3.13377 0.253461 0
M  V30 2214 N 215.803 -1.52179 -0.40978 0
M  V30 2215 C 216.75 -1.75475 -1.49924 0
M  V30 2216 C 217.72 -0.597175 -1.54994 0
M  V30 2217 O 218.905 -0.834655 -1.71575 0
M  V30 2218 C 216.045 -1.9107 -2.87378 0
M  V30 2219 C 215.158 -3.18717 -2.91622 0
M  V30 2220 C 214.293 -3.24747 -4.20372 0
M  V30 2221 C 213.332 -4.46598 -4.18588 0
M  V30 2222 N 212.469 -4.50025 -5.38908 0
M  V30 2223 H 217.309 -2.68458 -1.29361 0
M  V30 2224 H 214.846 -1.33024 -0.627934 0
M  V30 2225 H 216.804 -1.98096 -3.6717 0
M  V30 2226 H 215.434 -1.01469 -3.06437 0
M  V30 2227 H 214.486 -3.20866 -2.04326 0
M  V30 2228 H 215.798 -4.08544 -2.86169 0
M  V30 2229 H 214.952 -3.30841 -5.08556 0
M  V30 2230 H 213.691 -2.32857 -4.28519 0
M  V30 2231 H 212.696 -4.40652 -3.28794 0
M  V30 2232 H 213.921 -5.39783 -4.12081 0
M  V30 2233 H 211.867 -3.61017 -5.47725 0
M  V30 2234 H 211.784 -5.33697 -5.35447 0
M  V30 2235 H 213.052 -4.60347 -6.29048 0
M  V30 2236 N 217.281 0.66697 -1.42791 0
M  V30 2237 C 218.53 1.42278 -1.42968 0
M  V30 2238 C 218.843 1.9553 -0.0524489 0
M  V30 2239 O 220.049 2.71414 0.068363 0
M  V30 2240 C 218.505 2.57418 -2.51524 0
M  V30 2241 C 218.113 2.10832 -3.9529 0
M  V30 2242 C 219.857 3.34878 -2.60877 0
M  V30 2243 C 217.764 3.23101 -4.95338 0
M  V30 2244 H 216.694 0.534533 -0.531781 0
M  V30 2245 H 219.345 0.721302 -1.68729 0
M  V30 2246 H 217.727 3.29971 -2.18941 0
M  V30 2247 H 218.901 1.4538 -4.37266 0
M  V30 2248 H 217.216 1.46289 -3.89857 0
M  V30 2249 H 219.813 4.18505 -3.32802 0
M  V30 2250 H 220.156 3.81993 -1.6549 0
M  V30 2251 H 220.689 2.69398 -2.92693 0
M  V30 2252 H 217.428 2.80969 -5.9223 0
M  V30 2253 H 216.948 3.87309 -4.57987 0
M  V30 2254 H 218.627 3.88447 -5.17415 0
M  V30 2255 N 218.759 1.29093 0.90403 0
M  V30 2256 C 219.722 1.1386 1.98919 0
M  V30 2257 C 220.722 0.0753457 1.60623 0
M  V30 2258 O 221.912 0.321931 1.71199 0
M  V30 2259 C 219.044 0.740198 3.32767 0
M  V30 2260 H 220.237 2.10246 2.13861 0
M  V30 2261 H 217.79 1.12218 1.08797 0
M  V30 2262 H 218.525 -0.223997 3.23525 0
M  V30 2263 H 218.31 1.50838 3.61926 0
M  V30 2264 H 219.8 0.656546 4.12407 0
M  V30 2265 N 220.237 -1.11381 1.11499 0
M  V30 2266 C 221.483 -1.83403 0.865512 0
M  V30 2267 C 221.816 -1.84459 -0.607329 0
M  V30 2268 O 221.091 -1.29811 -1.44842 0
M  V30 2269 C 221.374 -3.30552 1.42855 0
M  V30 2270 C 221.227 -3.37886 2.96906 0
M  V30 2271 C 222.546 -4.26643 1.08 0
M  V30 2272 H 219.665 -0.665879 0.31587 0
M  V30 2273 H 222.307 -1.30601 1.37998 0
M  V30 2274 H 220.457 -3.75648 0.990985 0
M  V30 2275 H 222.129 -3.01343 3.49271 0
M  V30 2276 H 220.372 -2.78088 3.32941 0
M  V30 2277 H 221.043 -4.41458 3.31389 0
M  V30 2278 H 223.519 -3.89729 1.45775 0
M  V30 2279 H 222.395 -5.27986 1.50072 0
M  V30 2280 H 222.656 -4.42099 -0.00915037 0
M  V30 2281 N 221.715 -0.905404 -1.28997 0
M  V30 2282 C 222.961 -0.535039 -1.95615 0
M  V30 2283 C 223.294 0.917404 -1.71165 0
M  V30 2284 O 222.569 1.65123 -1.02785 0
M  V30 2285 C 222.852 -0.834918 -3.50287 0
M  V30 2286 C 222.705 -2.33948 -3.84172 0
M  V30 2287 C 224.024 -0.325318 -4.38896 0
M  V30 2288 H 221.143 -0.195861 -0.710498 0
M  V30 2289 H 223.785 -1.13313 -1.52513 0
M  V30 2290 H 221.935 -0.325904 -3.87131 0
M  V30 2291 H 223.607 -2.91847 -3.57243 0
M  V30 2292 H 221.85 -2.79789 -3.31513 0
M  V30 2293 H 222.521 -2.49987 -4.92149 0
M  V30 2294 H 224.997 -0.761256 -4.09077 0
M  V30 2295 H 223.873 -0.564295 -5.45992 0
M  V30 2296 H 224.134 0.774144 -4.35269 0
M  V30 2297 N 223.193 1.4272 -0.668489 0
M  V30 2298 C 224.441 2.01226 -0.187769 0
M  V30 2299 C 224.762 1.53092 1.2078 0
M  V30 2300 O 224.032 0.74993 1.80977 0
M  V30 2301 H 222.612 0.744041 -0.0664272 0
M  V30 2302 H 225.274 1.74723 -0.863583 0
M  V30 2303 H 224.37 3.11556 -0.184166 0
M  V30 2304 N 224.671 0.411399 1.52136 0
M  V30 2305 C 225.603 -0.448386 2.24771 0
M  V30 2306 C 226.616 -1.00828 1.27818 0
M  V30 2307 O 227.805 -0.906841 1.53749 0
M  V30 2308 C 224.905 -1.63636 2.96777 0
M  V30 2309 C 224.078 -1.19995 4.20618 0
M  V30 2310 C 223.137 -2.25509 4.75428 0
M  V30 2311 O 222.163 -1.86007 5.3795 0
M  V30 2312 N 223.365 -3.577 4.57199 0
M  V30 2313 H 226.13 0.174025 2.99194 0
M  V30 2314 H 223.691 0.238897 1.60128 0
M  V30 2315 H 225.683 -2.33793 3.30338 0
M  V30 2316 H 224.253 -2.16465 2.25526 0
M  V30 2317 H 223.473 -0.326421 3.92846 0
M  V30 2318 H 224.761 -0.885365 5.01038 0
M  V30 2319 H 224.159 -3.92543 4.07341 0
M  V30 2320 H 222.716 -4.23827 4.95191 0
M  V30 2321 N 226.149 -1.5696 0.141893 0
M  V30 2322 C 227.374 -2.00754 -0.520838 0
M  V30 2323 C 227.799 -1.0213 -1.57959 0
M  V30 2324 O 227.157 0.00371324 -1.813 0
M  V30 2325 C 227.205 -3.43318 -1.10294 0
M  V30 2326 O 226.309 -3.47679 -2.21795 0
M  V30 2327 H 225.65 -0.651564 -0.127908 0
M  V30 2328 H 228.18 -2.03221 0.23712 0
M  V30 2329 H 228.19 -3.82012 -1.43287 0
M  V30 2330 H 226.865 -4.14608 -0.327574 0
M  V30 2331 H 225.442 -3.20824 -1.9007 0
M  V30 2332 N 227.627 0.131896 -1.57047 0
M  V30 2333 C 228.875 0.840269 -1.83804 0
M  V30 2334 C 229.196 1.81017 -0.72512 0
M  V30 2335 O 228.466 1.94272 0.251995 0
M  V30 2336 H 227.046 0.313294 -0.678127 0
M  V30 2337 H 229.708 0.122294 -1.94516 0
M  V30 2338 H 228.804 1.39335 -2.79271 0
M  V30 2339 N 229.106 1.52395 0.401703 0
M  V30 2340 C 230.054 1.7689 1.51039 0
M  V30 2341 C 231.048 0.636298 1.56996 0
M  V30 2342 O 232.254 0.818507 1.60314 0
M  V30 2343 H 228.629 0.559502 0.502456 0
M  V30 2344 H 230.6 2.69757 1.27568 0
M  V30 2345 C 229.349 1.94331 2.88324 0
M  V30 2346 H 228.672 2.80905 2.84486 0
M  V30 2347 H 230.112 2.15466 3.65172 0
M  V30 2348 C 228.571 0.712396 3.29282 0
M  V30 2349 O 229.101 -0.116218 4.01532 0
M  V30 2350 N 227.307 0.546154 2.85422 0
M  V30 2351 H 226.854 1.22156 2.26794 0
M  V30 2352 H 226.812 -0.276113 3.13185 0
M  V30 2353 N 230.584 -0.659388 1.43143 0
M  V30 2354 C 231.514 -1.78422 1.50625 0
M  V30 2355 C 232.495 -1.66216 0.361443 0
M  V30 2356 O 233.68 -1.85404 0.577834 0
M  V30 2357 C 230.81 -3.16815 1.42287 0
M  V30 2358 C 229.764 -3.43777 2.54954 0
M  V30 2359 C 229.09 -4.81905 2.31671 0
M  V30 2360 C 230.39 -3.39134 3.97222 0
M  V30 2361 H 232.084 -1.72417 2.44771 0
M  V30 2362 H 229.63 -0.828084 1.17808 0
M  V30 2363 H 231.583 -3.95253 1.46127 0
M  V30 2364 H 230.307 -3.23534 0.446435 0
M  V30 2365 H 228.966 -2.67707 2.50457 0
M  V30 2366 H 228.614 -4.85294 1.32284 0
M  V30 2367 H 228.314 -5.00906 3.07192 0
M  V30 2368 H 229.838 -5.62609 2.37284 0
M  V30 2369 H 231.252 -4.07518 4.03239 0
M  V30 2370 H 229.649 -3.69671 4.72719 0
M  V30 2371 H 230.719 -2.37426 4.22797 0
M  V30 2372 N 232.062 -1.29571 -0.897171 0
M  V30 2373 C 233.29 -1.20583 -1.68129 0
M  V30 2374 C 233.705 0.233181 -1.87354 0
M  V30 2375 O 233.062 1.15579 -1.41236 0
M  V30 2376 C 233.113 -1.91772 -3.06441 0
M  V30 2377 O 232.834 -3.30053 -2.88091 0
M  V30 2378 C 234.335 -1.89291 -4.00854 0
M  V30 2379 H 231.555 -0.417826 -0.525036 0
M  V30 2380 H 234.099 -1.70987 -1.12177 0
M  V30 2381 H 232.254 -1.45196 -3.59161 0
M  V30 2382 H 232.668 -3.65942 -3.75748 0
M  V30 2383 H 234.142 -2.43662 -4.95311 0
M  V30 2384 H 234.619 -0.869014 -4.30517 0
M  V30 2385 H 235.225 -2.35622 -3.54066 0
M  V30 2386 N 233.54 1.10788 -1.12088 0
M  V30 2387 C 234.951 1.64181 -0.88891 0
M  V30 2388 C 235.302 1.87508 0.577498 0
M  V30 2389 O 234.427 1.61434 1.44112 0
M  V30 2390 C 235.022 2.98257 -1.60712 0
M  V30 2391 C 233.581 3.4853 -1.42139 0
M  V30 2392 C 232.728 2.23208 -1.6454 0
M  V30 2393 H 235.679 0.943368 -1.27618 0
M  V30 2394 H 235.7 3.65552 -1.05604 0
M  V30 2395 H 235.212 2.81246 -2.67436 0
M  V30 2396 H 233.313 3.70692 -0.376552 0
M  V30 2397 H 233.426 4.26882 -2.17505 0
M  V30 2398 H 231.79 2.31169 -1.06925 0
M  V30 2399 H 232.573 2.08733 -2.72554 0
M  V30 2400 N 235.018 0.912232 1.28515 0
M  V30 2401 C 235.981 0.404223 2.25607 0
M  V30 2402 C 236.981 -0.468602 1.53821 0
M  V30 2403 O 238.171 -0.271873 1.72065 0
M  V30 2404 C 235.303 -0.420653 3.38295 0
M  V30 2405 H 236.496 1.26188 2.7206 0
M  V30 2406 H 234.049 0.691495 1.40171 0
M  V30 2407 H 234.784 -1.29777 2.97201 0
M  V30 2408 H 234.569 0.204935 3.91564 0
M  V30 2409 H 236.059 -0.766971 4.10496 0
M  V30 2410 N 236.496 -1.42363 0.676048 0
M  V30 2411 C 237.773 -1.95183 0.127726 0
M  V30 2412 C 238.153 -1.61641 -1.35777 0
M  V30 2413 O 237.501 -0.913216 -2.09458 0
M  V30 2414 C 237.711 -3.46721 0.398199 0
M  V30 2415 C 239.059 -4.23427 0.315383 0
M  V30 2416 O 240.083 -3.54649 0.332016 0
M  V30 2417 O 238.942 -5.45888 0.25865 0
M  V30 2418 H 236.036 -0.826992 0.00359427 0
M  V30 2419 H 238.582 -1.52184 0.750864 0
M  V30 2420 H 237.354 -3.64344 1.4272 0
M  V30 2421 H 236.977 -3.96769 -0.256885 0
M  V30 2422 N 237.974 -0.419461 -1.51915 0
M  V30 2423 C 238.921 0.400927 -2.27291 0
M  V30 2424 C 239.891 1.03224 -1.30131 0
M  V30 2425 O 241.076 1.05455 -1.59009 0
M  V30 2426 C 238.216 1.50603 -3.10504 0
M  V30 2427 C 237.329 0.89462 -4.22635 0
M  V30 2428 C 236.464 1.97328 -4.93189 0
M  V30 2429 C 235.503 1.33935 -5.97267 0
M  V30 2430 N 234.64 2.3586 -6.61298 0
M  V30 2431 H 239.48 -0.248251 -2.96964 0
M  V30 2432 H 237.017 -0.134266 -1.46486 0
M  V30 2433 H 238.975 2.15783 -3.57062 0
M  V30 2434 H 237.605 2.12509 -2.42981 0
M  V30 2435 H 236.657 0.131583 -3.80172 0
M  V30 2436 H 237.969 0.391641 -4.9726 0
M  V30 2437 H 237.123 2.70211 -5.43204 0
M  V30 2438 H 235.862 2.50994 -4.18155 0
M  V30 2439 H 234.867 0.595896 -5.46561 0
M  V30 2440 H 236.092 0.810252 -6.74249 0
M  V30 2441 H 234.038 2.88639 -5.89087 0
M  V30 2442 H 233.955 1.90403 -7.3163 0
M  V30 2443 H 235.223 3.08282 -7.15949 0
M  V30 2444 N 239.452 1.56882 -0.150215 0
M  V30 2445 C 240.399 2.16922 0.788244 0
M  V30 2446 C 241.369 1.10303 1.24187 0
M  V30 2447 O 242.554 1.38359 1.31383 0
M  V30 2448 C 239.694 2.79754 2.02068 0
M  V30 2449 C 238.807 4.00775 1.61257 0
M  V30 2450 C 237.942 4.51595 2.79705 0
M  V30 2451 C 236.981 5.65074 2.35282 0
M  V30 2452 N 236.118 6.10499 3.4675 0
M  V30 2453 H 240.958 2.96779 0.269444 0
M  V30 2454 H 238.495 1.46599 0.12128 0
M  V30 2455 H 240.453 3.14329 2.74323 0
M  V30 2456 H 239.083 2.02536 2.51354 0
M  V30 2457 H 238.135 3.72158 0.787553 0
M  V30 2458 H 239.447 4.82978 1.24633 0
M  V30 2459 H 238.601 4.88242 3.60145 0
M  V30 2460 H 237.34 3.68406 3.19576 0
M  V30 2461 H 236.345 5.28 1.53283 0
M  V30 2462 H 237.57 6.50052 1.96493 0
M  V30 2463 H 235.516 5.30243 3.86236 0
M  V30 2464 H 235.433 6.87637 3.14152 0
M  V30 2465 H 236.701 6.51791 4.27537 0
M  V30 2466 N 240.93 -0.123565 1.57115 0
M  V30 2467 C 241.86 -1.15309 2.03042 0
M  V30 2468 C 242.841 -1.43454 0.914061 0
M  V30 2469 O 244.026 -1.53973 1.18347 0
M  V30 2470 C 241.156 -2.48043 2.43089 0
M  V30 2471 C 240.11 -2.3437 3.58127 0
M  V30 2472 C 239.436 -3.72026 3.84059 0
M  V30 2473 C 240.736 -1.80804 4.90007 0
M  V30 2474 H 242.43 -0.771102 2.893 0
M  V30 2475 H 239.976 -0.369479 1.39179 0
M  V30 2476 H 241.929 -3.20311 2.73823 0
M  V30 2477 H 240.653 -2.88122 1.53796 0
M  V30 2478 H 239.312 -1.64551 3.27595 0
M  V30 2479 H 238.96 -4.09582 2.91979 0
M  V30 2480 H 238.66 -3.63732 4.6149 0
M  V30 2481 H 240.184 -4.45806 4.1724 0
M  V30 2482 H 241.598 -2.42886 5.19307 0
M  V30 2483 H 239.995 -1.83343 5.71407 0
M  V30 2484 H 241.065 -0.76528 4.78823 0
M  V30 2485 N 242.408 -1.52605 -0.393616 0
M  V30 2486 C 243.638 -1.71046 -1.15874 0
M  V30 2487 C 244.046 -0.426483 -1.84331 0
M  V30 2488 O 243.389 0.608513 -1.73329 0
M  V30 2489 C 243.451 -2.80118 -2.25332 0
M  V30 2490 C 243.115 -4.21381 -1.76881 0
M  V30 2491 C 244.112 -5.04697 -1.24808 0
M  V30 2492 C 241.797 -4.67683 -1.83244 0
M  V30 2493 C 243.791 -6.32393 -0.797387 0
M  V30 2494 C 241.478 -5.95364 -1.37787 0
M  V30 2495 C 242.476 -6.77549 -0.861208 0
M  V30 2496 O 242.164 -8.02837 -0.413252 0
M  V30 2497 H 241.896 -0.576155 -0.353583 0
M  V30 2498 H 244.45 -2.00018 -0.467123 0
M  V30 2499 H 242.68 -2.46557 -2.97904 0
M  V30 2500 H 244.369 -2.87006 -2.87023 0
M  V30 2501 H 245.135 -4.70111 -1.19252 0
M  V30 2502 H 241.014 -4.03805 -2.22401 0
M  V30 2503 H 244.558 -6.9649 -0.393437 0
M  V30 2504 H 240.455 -6.29455 -1.43026 0
M  V30 2505 H 241.223 -8.16749 -0.53515 0
M  V30 2506 N 243.887 0.651787 -1.4349 0
M  V30 2507 C 244.85 1.74647 -1.48429 0
M  V30 2508 C 245.85 1.56513 -0.368817 0
M  V30 2509 O 247.04 1.62385 -0.630623 0
M  V30 2510 C 244.172 3.13533 -1.33827 0
M  V30 2511 H 245.365 1.71649 -2.4592 0
M  V30 2512 H 242.918 0.863573 -1.30277 0
M  V30 2513 H 243.653 3.22142 -0.37349 0
M  V30 2514 H 243.438 3.28101 -2.14691 0
M  V30 2515 H 244.928 3.93356 -1.40218 0
M  V30 2516 N 245.365 1.30045 0.890287 0
M  V30 2517 C 246.295 1.18541 2.01172 0
M  V30 2518 C 247.276 0.0773356 1.69924 0
M  V30 2519 O 248.461 0.25845 1.92473 0
M  V30 2520 C 245.591 0.870941 3.36202 0
M  V30 2521 C 244.545 1.93637 3.81692 0
M  V30 2522 C 243.871 1.475 5.13953 0
M  V30 2523 C 245.171 3.34666 4.00994 0
M  V30 2524 H 246.865 2.12359 2.11054 0
M  V30 2525 H 244.411 1.02238 1.01407 0
M  V30 2526 H 246.364 0.777141 4.14172 0
M  V30 2527 H 245.088 -0.102926 3.26438 0
M  V30 2528 H 243.747 2.01972 3.05946 0
M  V30 2529 H 243.395 0.489551 5.00612 0
M  V30 2530 H 243.095 2.1876 5.4536 0
M  V30 2531 H 244.619 1.39489 5.94454 0
M  V30 2532 H 246.033 3.2912 4.69417 0
M  V30 2533 H 244.43 4.03966 4.43769 0
M  V30 2534 H 245.5 3.76949 3.05021 0
M  V30 2535 N 246.843 -1.10192 1.12674 0
M  V30 2536 C 248.259 -1.34235 0.863317 0
M  V30 2537 C 248.459 -1.95062 -0.505277 0
M  V30 2538 O 247.515 -2.19192 -1.25345 0
M  V30 2539 C 248.828 -2.2616 1.98172 0
M  V30 2540 C 250.376 -2.3969 2.0129 0
M  V30 2541 C 250.851 -3.34946 3.1237 0
M  V30 2542 N 252.342 -3.42515 3.11829 0
M  V30 2543 C 253.077 -4.16199 3.94419 0
M  V30 2544 N 252.573 -4.92747 4.87004 0
M  V30 2545 N 254.366 -4.11843 3.82547 0
M  V30 2546 H 246.517 -0.690798 2.00853 0
M  V30 2547 H 248.78 -0.366774 0.874174 0
M  V30 2548 H 248.486 -1.8868 2.96804 0
M  V30 2549 H 248.36 -3.26488 1.88906 0
M  V30 2550 H 250.747 -2.76438 1.03276 0
M  V30 2551 H 250.828 -1.39169 2.14629 0
M  V30 2552 H 250.472 -2.98923 4.10619 0
M  V30 2553 H 250.402 -4.35353 2.96269 0
M  V30 2554 H 252.893 -2.87926 2.44759 0
M  V30 2555 H 253.206 -5.46376 5.46528 0
M  V30 2556 H 251.551 -4.91862 4.91016 0
M  V30 2557 H 254.742 -3.51136 3.0955 0
M  V30 2558 H 254.915 -4.69007 4.47142 0
M  V30 2559 N 248.321 -0.919034 -1.28029 0
M  V30 2560 C 249.598 -0.473668 -1.89778 0
M  V30 2561 C 249.978 1.04783 -1.83259 0
M  V30 2562 O 249.326 1.8982 -1.27202 0
M  V30 2563 C 249.536 -1.00998 -3.34066 0
M  V30 2564 C 250.884 -1.06525 -4.1102 0
M  V30 2565 O 251.908 -0.958996 -3.43048 0
M  V30 2566 O 250.767 -1.22776 -5.3253 0
M  V30 2567 H 247.861 -0.15098 -0.813101 0
M  V30 2568 H 250.407 -1.01016 -1.36359 0
M  V30 2569 H 249.179 -2.05392 -3.33061 0
M  V30 2570 H 248.802 -0.454626 -3.94992 0
M  V30 2571 N 249.799 1.42003 -0.683588 0
M  V30 2572 C 251.045 2.01712 -0.209825 0
M  V30 2573 C 251.378 1.53968 1.18353 0
M  V30 2574 O 250.653 0.745661 1.79639 0
M  V30 2575 C 250.936 3.59202 -0.254197 0
M  V30 2576 C 250.789 4.17102 -1.68363 0
M  V30 2577 C 252.108 4.38344 0.392709 0
M  V30 2578 H 249.227 0.732891 -0.0777189 0
M  V30 2579 H 251.869 1.68909 -0.87004 0
M  V30 2580 H 250.019 3.87278 0.307954 0
M  V30 2581 H 251.691 3.99946 -2.29871 0
M  V30 2582 H 249.934 3.72597 -2.22157 0
M  V30 2583 H 250.605 5.26249 -1.6663 0
M  V30 2584 H 253.081 4.16011 -0.0859162 0
M  V30 2585 H 251.957 5.47901 0.331063 0
M  V30 2586 H 252.218 4.16887 1.47164 0
M  V30 2587 N 251.277 0.427512 1.51691 0
M  V30 2588 C 252.505 -0.141191 2.06418 0
M  V30 2589 C 252.92 -1.37303 1.29589 0
M  V30 2590 O 252.277 -1.79059 0.352732 0
M  V30 2591 C 252.328 -0.473266 3.58389 0
M  V30 2592 O 252.049 0.709673 4.32314 0
M  V30 2593 C 253.55 -1.09371 4.29596 0
M  V30 2594 H 250.77 -0.0122747 0.670888 0
M  V30 2595 H 253.314 0.603764 1.95384 0
M  V30 2596 H 251.469 -1.16812 3.69369 0
M  V30 2597 H 251.883 0.42807 5.2275 0
M  V30 2598 H 253.357 -1.27613 5.37046 0
M  V30 2599 H 253.834 -2.072 3.87253 0
M  V30 2600 H 254.44 -0.43853 4.23033 0
M  V30 2601 N 252.755 -1.56801 0.158532 0
M  V30 2602 C 253.718 -2.16138 -0.762705 0
M  V30 2603 C 254.718 -1.1061 -1.16713 0
M  V30 2604 O 255.908 -1.36191 -1.08617 0
M  V30 2605 C 253.04 -2.73386 -2.03649 0
M  V30 2606 H 254.233 -2.98886 -0.246354 0
M  V30 2607 H 251.786 -1.56035 -0.0909744 0
M  V30 2608 H 252.521 -1.94335 -2.59623 0
M  V30 2609 H 252.306 -3.50601 -1.75559 0
M  V30 2610 H 253.796 -3.19065 -2.6942 0
M  V30 2611 N 254.233 0.115231 -1.57178 0
M  V30 2612 C 255.461 0.836437 -1.89239 0
M  V30 2613 C 255.876 1.73256 -0.750175 0
M  V30 2614 O 255.233 1.80357 0.278832 0
M  V30 2615 C 255.284 1.66671 -3.20785 0
M  V30 2616 O 255.005 0.806652 -4.3061 0
M  V30 2617 C 256.506 2.49274 -3.66575 0
M  V30 2618 H 253.726 0.240253 -0.626514 0
M  V30 2619 H 256.27 0.0984932 -2.04263 0
M  V30 2620 H 254.425 2.35737 -3.0742 0
M  V30 2621 H 254.839 1.37969 -5.06028 0
M  V30 2622 H 256.313 3.03055 -4.6137 0
M  V30 2623 H 256.79 3.26807 -2.93417 0
M  V30 2624 H 257.396 1.85443 -3.82741 0
M  V30 2625 N 255.711 1.52812 0.385517 0
M  V30 2626 C 256.957 1.68275 1.13188 0
M  V30 2627 C 257.29 0.423179 1.89533 0
M  V30 2628 O 256.565 -0.579113 1.85679 0
M  V30 2629 C 256.848 2.92001 2.1073 0
M  V30 2630 C 256.701 4.28067 1.38125 0
M  V30 2631 C 258.02 3.11283 3.11113 0
M  V30 2632 H 255.139 0.612352 0.410115 0
M  V30 2633 H 257.781 1.85415 0.414869 0
M  V30 2634 H 255.931 2.77519 2.71874 0
M  V30 2635 H 257.603 4.54324 0.799187 0
M  V30 2636 H 255.846 4.28388 0.683092 0
M  V30 2637 H 256.517 5.10733 2.09417 0
M  V30 2638 H 258.993 3.2482 2.6006 0
M  V30 2639 H 257.869 3.99325 3.76605 0
M  V30 2640 H 258.13 2.25656 3.80173 0
M  V30 2641 N 257.189 -0.644168 1.43834 0
M  V30 2642 C 258.137 -1.77793 1.49974 0
M  V30 2643 C 259.131 -1.65253 0.372536 0
M  V30 2644 O 260.337 -1.7149 0.546924 0
M  V30 2645 H 256.712 -0.58675 0.47035 0
M  V30 2646 H 258.683 -1.69736 2.45423 0
M  V30 2647 C 257.432 -3.16087 1.4486 0
M  V30 2648 H 256.755 -3.26378 2.30905 0
M  V30 2649 H 258.195 -3.95349 1.53217 0
M  V30 2650 C 256.654 -3.36484 0.167463 0
M  V30 2651 O 257.184 -3.94298 -0.767609 0
M  V30 2652 N 255.39 -2.90504 0.0747556 0
M  V30 2653 H 254.937 -2.4364 0.836507 0
M  V30 2654 H 254.895 -3.04527 -0.781714 0
M  V30 2655 N 258.668 -1.30515 -0.883378 0
M  V30 2656 C 259.893 -1.22487 -1.67367 0
M  V30 2657 C 260.318 0.208767 -1.86938 0
M  V30 2658 O 259.676 1.15015 -1.40148 0
M  V30 2659 C 259.724 -1.96041 -3.02655 0
M  V30 2660 O 258.828 -1.28859 -3.91751 0
M  V30 2661 H 258.169 -0.423573 -0.511353 0
M  V30 2662 H 260.699 -1.72362 -1.10239 0
M  V30 2663 H 260.709 -2.05124 -3.52687 0
M  V30 2664 H 259.384 -3.00307 -2.8773 0
M  V30 2665 H 257.961 -1.28141 -3.50192 0
M  V30 2666 N 260.146 1.09593 -1.13257 0
M  V30 2667 C 261.395 1.81105 -0.887917 0
M  V30 2668 C 261.708 1.86563 0.587672 0
M  V30 2669 O 262.914 2.54367 0.949204 0
M  V30 2670 C 261.37 3.25338 -1.53895 0
M  V30 2671 C 260.978 3.28151 -3.04994 0
M  V30 2672 C 262.722 4.01617 -1.37492 0
M  V30 2673 C 260.629 4.66897 -3.6299 0
M  V30 2674 H 259.559 0.678661 -0.328534 0
M  V30 2675 H 262.21 1.23183 -1.36008 0
M  V30 2676 H 260.592 3.8331 -0.994446 0
M  V30 2677 H 261.766 2.79953 -3.66009 0
M  V30 2678 H 260.081 2.65361 -3.20893 0
M  V30 2679 H 262.678 5.04119 -1.78235 0
M  V30 2680 H 263.021 4.15072 -0.31957 0
M  V30 2681 H 263.554 3.50082 -1.88912 0
M  V30 2682 H 260.293 4.58643 -4.68323 0
M  V30 2683 H 259.813 5.15426 -3.06752 0
M  V30 2684 H 261.492 5.3587 -3.62563 0
M  V30 2685 N 261.624 0.925811 1.2754 0
M  V30 2686 C 263.035 0.610102 1.7645 0
M  V30 2687 C 263.386 -0.874723 1.75622 0
M  V30 2688 O 262.511 -1.68444 1.35851 0
M  V30 2689 C 263.106 1.10073 3.20421 0
M  V30 2690 C 261.665 0.835723 3.67005 0
M  V30 2691 C 260.812 1.26054 2.46993 0
M  V30 2692 H 263.763 1.10579 1.13833 0
M  V30 2693 H 263.784 0.447557 3.77859 0
M  V30 2694 H 263.296 2.18143 3.20991 0
M  V30 2695 H 261.397 -0.231249 3.71882 0
M  V30 2696 H 261.51 1.45193 4.56569 0
M  V30 2697 H 259.874 0.679111 2.45479 0
M  V30 2698 H 260.657 2.34984 2.50275 0
M  V30 2699 N 263.102 -1.41638 0.69111 0
M  V30 2700 C 264.032 -2.3347 0.037248 0
M  V30 2701 C 265.013 -1.51575 -0.771947 0
M  V30 2702 O 266.198 -1.80126 -0.72582 0
M  V30 2703 C 263.328 -3.35354 -0.903064 0
M  V30 2704 C 262.282 -4.27526 -0.201288 0
M  V30 2705 C 261.608 -5.19747 -1.25565 0
M  V30 2706 C 262.908 -5.13959 0.929689 0
M  V30 2707 H 264.602 -2.88397 0.804227 0
M  V30 2708 H 262.148 -1.38669 0.388189 0
M  V30 2709 H 264.101 -3.98519 -1.36969 0
M  V30 2710 H 262.825 -2.78767 -1.70166 0
M  V30 2711 H 261.484 -3.65779 0.245265 0
M  V30 2712 H 261.132 -4.59479 -2.04666 0
M  V30 2713 H 260.832 -5.8225 -0.791128 0
M  V30 2714 H 262.356 -5.85789 -1.72288 0
M  V30 2715 H 263.77 -5.70718 0.543546 0
M  V30 2716 H 262.167 -5.85379 1.32103 0
M  V30 2717 H 263.237 -4.51389 1.77133 0
M  V30 2718 N 264.58 -0.43555 -1.51462 0
M  V30 2719 C 265.829 0.133007 -2.01261 0
M  V30 2720 C 266.142 1.43942 -1.32439 0
M  V30 2721 O 267.348 2.09081 -1.73198 0
M  V30 2722 C 265.804 0.287581 -3.58749 0
M  V30 2723 C 265.412 -1.00829 -4.36506 0
M  V30 2724 C 267.156 0.810004 -4.167 0
M  V30 2725 C 265.063 -0.819454 -5.85695 0
M  V30 2726 H 263.993 0.0534822 -0.752101 0
M  V30 2727 H 266.644 -0.565038 -1.74584 0
M  V30 2728 H 265.026 1.04859 -3.81865 0
M  V30 2729 H 266.2 -1.77749 -4.25138 0
M  V30 2730 H 264.515 -1.45911 -3.89999 0
M  V30 2731 H 267.112 0.967743 -5.2587 0
M  V30 2732 H 267.455 1.79196 -3.75758 0
M  V30 2733 H 267.988 0.107357 -3.97655 0
M  V30 2734 H 264.727 -1.77374 -6.31046 0
M  V30 2735 H 264.247 -0.0900208 -5.99732 0
M  V30 2736 H 265.926 -0.471949 -6.45276 0
M  V30 2737 N 266.058 1.56714 -0.166846 0
M  V30 2738 C 267.021 2.16539 0.751232 0
M  V30 2739 C 268.021 1.11228 1.16125 0
M  V30 2740 O 269.211 1.36765 1.07894 0
M  V30 2741 C 266.343 2.74462 2.02196 0
M  V30 2742 H 267.536 2.99013 0.230499 0
M  V30 2743 H 265.089 1.56081 0.0826982 0
M  V30 2744 H 265.824 1.95709 2.58589 0
M  V30 2745 H 265.609 3.51527 1.73698 0
M  V30 2746 H 267.099 3.20489 2.67725 0
M  V30 2747 N 267.536 -0.106894 1.57237 0
M  V30 2748 C 268.761 -0.830287 1.90055 0
M  V30 2749 C 269.186 -1.72064 0.75998 0
M  V30 2750 O 268.544 -1.78982 -0.288991 0
M  V30 2751 C 268.592 -1.6295 3.21683 0
M  V30 2752 O 267.696 -2.73748 3.08441 0
M  V30 2753 H 267.037 -0.228855 0.623315 0
M  V30 2754 H 269.567 -0.085658 2.04421 0
M  V30 2755 H 269.577 -2.01621 3.54701 0
M  V30 2756 H 268.252 -0.975989 4.04286 0
M  V30 2757 H 266.829 -2.38192 2.86913 0
M  V30 2758 N 269.014 -1.53014 -0.377408 0
M  V30 2759 C 270.239 -1.72818 -1.14668 0
M  V30 2760 C 270.664 -0.450725 -1.8262 0
M  V30 2761 O 270.022 0.59439 -1.7128 0
M  V30 2762 C 270.07 -2.88627 -2.16164 0
M  V30 2763 O 269.174 -2.56409 -3.22998 0
M  V30 2764 H 268.515 -0.574301 -0.333278 0
M  V30 2765 H 271.045 -1.99853 -0.438152 0
M  V30 2766 H 271.055 -3.14455 -2.59966 0
M  V30 2767 H 269.73 -3.81294 -1.66095 0
M  V30 2768 H 268.307 -2.4136 -2.84253 0
M  V30 2769 N 270.492 0.636531 -1.44174 0
M  V30 2770 C 271.741 1.39213 -1.45954 0
M  V30 2771 C 272.054 1.95374 -0.0939119 0
M  V30 2772 O 273.26 2.71498 0.0107767 0
M  V30 2773 C 271.716 2.52025 -2.56927 0
M  V30 2774 C 271.324 2.024 -3.99673 0
M  V30 2775 C 273.068 3.29269 -2.67922 0
M  V30 2776 C 270.975 3.12521 -5.0208 0
M  V30 2777 H 269.905 0.523132 -0.542999 0
M  V30 2778 H 272.556 0.685349 -1.70221 0
M  V30 2779 H 270.938 3.25253 -2.25891 0
M  V30 2780 H 272.112 1.36073 -4.40251 0
M  V30 2781 H 270.427 1.37987 -3.92872 0
M  V30 2782 H 273.024 4.11352 -3.41605 0
M  V30 2783 H 273.367 3.78397 -1.73555 0
M  V30 2784 H 273.9 2.63129 -2.98342 0
M  V30 2785 H 270.639 2.68343 -5.98057 0
M  V30 2786 H 270.159 3.77507 -4.66099 0
M  V30 2787 H 271.838 3.77385 -5.25538 0
M  V30 2788 N 271.97 1.30982 0.876444 0
M  V30 2789 C 272.903 1.12414 1.98591 0
M  V30 2790 C 273.881 0.0294078 1.62573 0
M  V30 2791 O 275.065 0.184598 1.87594 0
M  V30 2792 C 272.192 0.716276 3.3104 0
M  V30 2793 C 271.238 1.81311 3.86042 0
M  V30 2794 S 272.071 3.41727 4.1229 0
M  V30 2795 C 273.227 3.02863 5.47745 0
M  V30 2796 H 273.46 2.06338 2.14037 0
M  V30 2797 H 270.993 1.15393 1.02586 0
M  V30 2798 H 272.951 0.487697 4.07593 0
M  V30 2799 H 271.612 -0.203749 3.13438 0
M  V30 2800 H 270.805 1.48021 4.81774 0
M  V30 2801 H 270.407 1.99641 3.16259 0
M  V30 2802 H 272.699 2.51353 6.29148 0
M  V30 2803 H 273.642 3.97533 5.8598 0
M  V30 2804 H 274.05 2.40487 5.10711 0
M  V30 2805 N 273.449 -1.08991 1.13837 0
M  V30 2806 C 274.674 -1.85551 0.926585 0
M  V30 2807 C 275.099 -1.80782 -0.519566 0
M  V30 2808 O 274.457 -1.18855 -1.36906 0
M  V30 2809 C 274.505 -3.31266 1.42462 0
M  V30 2810 O 273.609 -4.07822 0.612789 0
M  V30 2811 H 272.95 -0.575192 0.331738 0
M  V30 2812 H 275.48 -1.37604 1.51414 0
M  V30 2813 H 275.49 -3.82112 1.43019 0
M  V30 2814 H 274.165 -3.34052 2.47754 0
M  V30 2815 H 272.742 -3.66731 0.675463 0
M  V30 2816 N 274.927 -0.932562 -1.27047 0
M  V30 2817 C 275.874 -0.434072 -2.26681 0
M  V30 2818 C 276.844 0.501639 -1.58344 0
M  V30 2819 O 278.029 0.419734 -1.86126 0
M  V30 2820 C 275.169 0.30261 -3.43771 0
M  V30 2821 C 274.282 -0.667774 -4.26808 0
M  V30 2822 C 273.417 0.0892393 -5.31125 0
M  V30 2823 C 272.456 -0.873532 -6.05835 0
M  V30 2824 N 271.593 -0.148832 -7.01942 0
M  V30 2825 H 276.433 -1.28868 -2.68695 0
M  V30 2826 H 273.97 -0.646713 -1.32121 0
M  V30 2827 H 275.928 0.746092 -4.10474 0
M  V30 2828 H 274.558 1.12142 -3.02695 0
M  V30 2829 H 273.61 -1.22978 -3.59973 0
M  V30 2830 H 274.922 -1.40337 -4.78651 0
M  V30 2831 H 274.076 0.592409 -6.03801 0
M  V30 2832 H 272.815 0.85777 -4.80097 0
M  V30 2833 H 271.82 -1.38791 -5.31994 0
M  V30 2834 H 273.045 -1.64193 -6.58952 0
M  V30 2835 H 270.991 0.601365 -6.53238 0
M  V30 2836 H 270.908 -0.82391 -7.51497 0
M  V30 2837 H 272.176 0.333527 -7.78786 0
M  V30 2838 N 276.405 1.4127 -0.698611 0
M  V30 2839 C 277.352 2.30773 -0.0352094 0
M  V30 2840 C 278.322 1.47273 0.768111 0
M  V30 2841 O 279.507 1.76053 0.735524 0
M  V30 2842 C 276.647 3.33346 0.893 0
M  V30 2843 C 275.76 4.31924 0.0809695 0
M  V30 2844 C 274.895 5.21566 1.0071 0
M  V30 2845 C 273.934 6.11811 0.188155 0
M  V30 2846 N 273.071 6.93926 1.06825 0
M  V30 2847 H 277.911 2.86943 -0.804207 0
M  V30 2848 H 275.448 1.4132 -0.408294 0
M  V30 2849 H 277.406 3.91368 1.44523 0
M  V30 2850 H 276.036 2.78719 1.62836 0
M  V30 2851 H 275.088 3.75825 -0.588224 0
M  V30 2852 H 276.4 4.95716 -0.553801 0
M  V30 2853 H 275.554 5.84437 1.62845 0
M  V30 2854 H 274.293 4.58008 1.67572 0
M  V30 2855 H 273.298 5.47986 -0.446254 0
M  V30 2856 H 274.523 6.77425 -0.476716 0
M  V30 2857 H 272.469 6.32973 1.72283 0
M  V30 2858 H 272.386 7.54416 0.489123 0
M  V30 2859 H 273.654 7.61262 1.67632 0
M  V30 2860 N 277.883 0.443576 1.51229 0
M  V30 2861 C 279.132 -0.122332 2.01329 0
M  V30 2862 C 279.445 -1.43237 1.33201 0
M  V30 2863 O 280.651 -2.0816 1.74304 0
M  V30 2864 C 279.107 -0.268551 3.58897 0
M  V30 2865 C 278.715 1.03142 4.35965 0
M  V30 2866 C 280.459 -0.787894 4.17124 0
M  V30 2867 C 278.366 0.850504 5.85252 0
M  V30 2868 H 277.296 -0.0494929 0.752374 0
M  V30 2869 H 279.947 0.574289 1.74282 0
M  V30 2870 H 278.329 -1.02832 3.82415 0
M  V30 2871 H 279.503 1.80001 4.24189 0
M  V30 2872 H 277.818 1.47977 3.89219 0
M  V30 2873 H 280.415 -0.939841 5.26375 0
M  V30 2874 H 280.758 -1.77201 3.76703 0
M  V30 2875 H 281.291 -0.0862669 3.97706 0
M  V30 2876 H 278.03 1.80718 6.30096 0
M  V30 2877 H 277.55 0.121825 5.99676 0
M  V30 2878 H 279.229 0.506163 6.45017 0
M  V30 2879 N 279.361 -1.56624 0.175154 0
M  V30 2880 C 280.324 -2.16934 -0.739738 0
M  V30 2881 C 281.324 -1.11842 -1.15533 0
M  V30 2882 O 282.514 -1.37335 -1.07167 0
M  V30 2883 C 279.646 -2.75531 -2.00738 0
M  V30 2884 H 280.839 -2.99131 -0.214639 0
M  V30 2885 H 278.392 -1.56123 -0.0744197 0
M  V30 2886 H 279.127 -1.97078 -2.57548 0
M  V30 2887 H 278.912 -3.52444 -1.71831 0
M  V30 2888 H 280.402 -3.21904 -2.66021 0
M  V30 2889 N 280.839 0.0985539 -1.57292 0
M  V30 2890 C 281.802 1.10402 -2.00858 0
M  V30 2891 C 282.802 1.33146 -0.901593 0
M  V30 2892 O 283.992 1.29318 -1.16716 0
M  V30 2893 C 281.124 2.45394 -2.36632 0
M  V30 2894 H 282.317 0.729099 -2.90902 0
M  V30 2895 H 279.87 0.343495 -1.52479 0
M  V30 2896 H 280.605 2.87769 -1.49531 0
M  V30 2897 H 280.39 2.30235 -3.17387 0
M  V30 2898 H 281.88 3.17718 -2.71007 0
M  V30 2899 N 282.317 1.53212 0.369288 0
M  V30 2900 C 283.565 1.68881 1.11012 0
M  V30 2901 C 283.886 0.441285 1.89941 0
M  V30 2902 O 283.156 -0.544623 1.88177 0
M  V30 2903 H 281.736 0.622569 0.412816 0
M  V30 2904 H 284.398 1.90391 0.416802 0
M  V30 2905 H 283.494 2.54822 1.80201 0
M  V30 2906 N 283.795 -0.628877 1.44509 0
M  V30 2907 C 284.758 -1.72263 1.51188 0
M  V30 2908 C 285.758 -1.55907 0.39367 0
M  V30 2909 O 286.948 -1.61361 0.656377 0
M  V30 2910 C 284.08 -3.11365 1.38798 0
M  V30 2911 H 285.273 -1.67714 2.4862 0
M  V30 2912 H 282.826 -0.842737 1.31634 0
M  V30 2913 H 283.561 -3.21507 0.424693 0
M  V30 2914 H 283.346 -3.24644 2.19884 0
M  V30 2915 H 284.836 -3.91075 1.46458 0
M  V30 2916 N 285.273 -1.31445 -0.869486 0
M  V30 2917 C 286.55 -1.11795 -1.60503 0
M  V30 2918 C 286.93 0.327168 -2.08549 0
M  V30 2919 O 286.278 1.32135 -1.8642 0
M  V30 2920 C 286.488 -2.13258 -2.76265 0
M  V30 2921 C 287.836 -2.45805 -3.46215 0
M  V30 2922 O 288.86 -2.11688 -2.86473 0
M  V30 2923 O 287.719 -3.04228 -4.5399 0
M  V30 2924 H 284.813 -0.430421 -0.706163 0
M  V30 2925 H 287.359 -1.42925 -0.914907 0
M  V30 2926 H 286.131 -3.10461 -2.3818 0
M  V30 2927 H 285.754 -1.83035 -3.52964 0
M  V30 2928 N 286.751 1.08385 -1.14413 0
M  V30 2929 C 287.714 2.13486 -0.834048 0
M  V30 2930 C 288.714 1.59988 0.161418 0
M  V30 2931 O 289.904 1.74071 -0.0669575 0
M  V30 2932 C 287.036 3.4003 -0.243354 0
M  V30 2933 H 288.229 2.42425 -1.7655 0
M  V30 2934 H 285.782 1.24101 -0.950189 0
M  V30 2935 H 286.517 3.16726 0.696807 0
M  V30 2936 H 286.302 3.80157 -0.960367 0
M  V30 2937 H 287.792 4.17577 -0.0436242 0
M  V30 2938 N 288.23 0.939286 1.26551 0
M  V30 2939 C 289.479 0.581601 1.93133 0
M  V30 2940 C 289.792 -0.883224 1.74524 0
M  V30 2941 O 290.998 -1.3502 2.35546 0
M  V30 2942 C 289.454 0.989425 3.46032 0
M  V30 2943 C 289.062 2.47573 3.73379 0
M  V30 2944 C 290.806 0.703544 4.18629 0
M  V30 2945 C 288.713 2.82235 5.19709 0
M  V30 2946 H 287.643 0.213803 0.723052 0
M  V30 2947 H 290.294 1.14167 1.4366 0
M  V30 2948 H 288.676 0.357902 3.94379 0
M  V30 2949 H 289.85 3.15614 3.35744 0
M  V30 2950 H 288.165 2.73471 3.1401 0
M  V30 2951 H 290.762 0.938869 5.26393 0
M  V30 2952 H 291.105 -0.359639 4.14744 0
M  V30 2953 H 291.638 1.2947 3.76141 0
M  V30 2954 H 288.377 3.87509 5.28694 0
M  V30 2955 H 287.897 2.18854 5.58447 0
M  V30 2956 H 289.576 2.70599 5.87695 0
M  V30 2957 N 289.708 -1.40897 0.706093 0
M  V30 2958 C 290.954 -2.01352 0.241889 0
M  V30 2959 C 291.287 -1.55832 -1.15888 0
M  V30 2960 O 290.562 -0.774145 -1.7843 0
M  V30 2961 C 290.845 -3.58752 0.311311 0
M  V30 2962 C 290.698 -4.1437 1.74978 0
M  V30 2963 C 292.017 -4.38914 -0.322922 0
M  V30 2964 H 289.136 -0.731562 0.0893687 0
M  V30 2965 H 291.778 -1.67504 0.896802 0
M  V30 2966 H 289.928 -3.87718 -0.246302 0
M  V30 2967 H 291.6 -3.96239 2.36205 0
M  V30 2968 H 289.843 -3.69016 2.28057 0
M  V30 2969 H 290.514 -5.23532 1.74981 0
M  V30 2970 H 292.99 -4.15822 0.152089 0
M  V30 2971 H 291.866 -5.48358 -0.243855 0
M  V30 2972 H 292.127 -4.19176 -1.40513 0
M  V30 2973 N 291.186 -0.45159 -1.50991 0
M  V30 2974 C 292.116 0.342898 -2.30969 0
M  V30 2975 C 293.097 1.00815 -1.37005 0
M  V30 2976 O 294.282 1.00907 -1.65926 0
M  V30 2977 C 291.412 1.43637 -3.16205 0
M  V30 2978 C 290.366 0.893818 -4.18563 0
M  V30 2979 C 289.692 2.08411 -4.92411 0
M  V30 2980 C 290.992 -0.0815568 -5.22236 0
M  V30 2981 H 292.686 -0.324556 -2.97636 0
M  V30 2982 H 290.232 -0.157531 -1.43136 0
M  V30 2983 H 292.185 1.9995 -3.70942 0
M  V30 2984 H 290.909 2.13232 -2.47386 0
M  V30 2985 H 289.568 0.352798 -3.64898 0
M  V30 2986 H 289.216 2.76658 -4.20082 0
M  V30 2987 H 288.916 1.72741 -5.61636 0
M  V30 2988 H 290.44 2.65251 -5.49976 0
M  V30 2989 H 291.854 0.391742 -5.7196 0
M  V30 2990 H 290.251 -0.351551 -5.99069 0
M  V30 2991 H 291.321 -1.01374 -4.74185 0
M  V30 2992 N 292.664 1.56529 -0.183458 0
M  V30 2993 C 293.941 1.88959 0.50536 0
M  V30 2994 C 294.321 1.09523 1.80466 0
M  V30 2995 O 293.669 0.19278 2.27685 0
M  V30 2996 C 293.879 3.41162 0.73547 0
M  V30 2997 C 295.227 4.11155 1.06005 0
M  V30 2998 O 296.251 3.46548 0.823594 0
M  V30 2999 O 295.11 5.25318 1.50675 0
M  V30 3000 H 292.204 0.78441 0.261973 0
M  V30 3001 H 294.75 1.68231 -0.222802 0
M  V30 3002 H 293.522 3.90874 -0.182561 0
M  V30 3003 H 293.145 3.67543 1.51651 0
M  V30 3004 N 294.142 -0.090211 1.57342 0
M  V30 3005 C 295.388 -0.793982 1.86611 0
M  V30 3006 C 295.721 -1.78142 0.773252 0
M  V30 3007 O 294.996 -1.93271 -0.218304 0
M  V30 3008 C 295.279 -1.51839 3.26523 0
M  V30 3009 C 295.132 -0.548609 4.46442 0
M  V30 3010 C 296.451 -2.46779 3.64401 0
M  V30 3011 H 293.57 -0.287186 0.678744 0
M  V30 3012 H 296.212 -0.0575076 1.89913 0
M  V30 3013 H 294.362 -2.14617 3.23839 0
M  V30 3014 H 296.034 0.0725513 4.61243 0
M  V30 3015 H 294.277 0.137614 4.33582 0
M  V30 3016 H 294.948 -1.09271 5.41076 0
M  V30 3017 H 297.424 -1.94089 3.68061 0
M  V30 3018 H 296.3 -2.94479 4.63221 0
M  V30 3019 H 296.561 -3.30758 2.93346 0
M  V30 3020 N 295.62 -1.53406 -0.361157 0
M  V30 3021 C 296.567 -1.80156 -1.44265 0
M  V30 3022 C 297.537 -0.646183 -1.53015 0
M  V30 3023 O 298.722 -0.888818 -1.68833 0
M  V30 3024 C 295.862 -2.00116 -2.81154 0
M  V30 3025 C 294.975 -3.27833 -2.81335 0
M  V30 3026 C 294.11 -3.37957 -4.09828 0
M  V30 3027 C 293.149 -4.59689 -4.04168 0
M  V30 3028 N 292.286 -4.66942 -5.24318 0
M  V30 3029 H 297.126 -2.72438 -1.20754 0
M  V30 3030 H 294.663 -1.34954 -0.585296 0
M  V30 3031 H 296.621 -2.09677 -3.60682 0
M  V30 3032 H 295.251 -1.11167 -3.03054 0
M  V30 3033 H 294.303 -3.27204 -1.94014 0
M  V30 3034 H 295.615 -4.17442 -2.73027 0
M  V30 3035 H 294.769 -3.46853 -4.97773 0
M  V30 3036 H 293.508 -2.46372 -4.20894 0
M  V30 3037 H 292.513 -4.50889 -3.14609 0
M  V30 3038 H 293.738 -5.5262 -3.947 0
M  V30 3039 H 291.684 -3.7826 -5.35962 0
M  V30 3040 H 291.601 -5.50462 -5.18197 0
M  V30 3041 H 292.869 -4.80127 -6.14084 0
M  V30 3042 N 297.098 0.621204 -1.44841 0
M  V30 3043 C 298.326 1.40752 -1.51646 0
M  V30 3044 C 298.741 1.88246 -0.144549 0
M  V30 3045 O 298.098 1.61422 0.851416 0
M  V30 3046 C 298.149 2.62119 -2.4895 0
M  V30 3047 O 297.87 2.16602 -3.80808 0
M  V30 3048 C 299.371 3.55135 -2.65319 0
M  V30 3049 H 296.591 0.431325 -0.514004 0
M  V30 3050 H 299.135 0.758835 -1.899 0
M  V30 3051 H 297.29 3.23058 -2.13805 0
M  V30 3052 H 297.704 2.95358 -4.33433 0
M  V30 3053 H 299.178 4.36874 -3.37409 0
M  V30 3054 H 299.655 4.04592 -1.70886 0
M  V30 3055 H 300.261 3.00058 -3.01405 0
M  V30 3056 N 298.576 1.31904 0.862503 0
M  V30 3057 C 299.824 1.21776 1.61292 0
M  V30 3058 C 300.145 -0.222413 1.93727 0
M  V30 3059 O 299.415 -1.1451 1.58947 0
M  V30 3060 H 297.995 0.447717 0.597962 0
M  V30 3061 H 300.657 1.65326 1.03215 0
M  V30 3062 H 299.753 1.7948 2.5533 0
M  V30 3063 N 300.054 -1.07777 1.14986 0
M  V30 3064 C 301.3 -1.80557 0.923422 0
M  V30 3065 C 301.633 -1.86298 -0.548337 0
M  V30 3066 O 300.908 -1.34354 -1.40639 0
M  V30 3067 C 301.191 -3.25839 1.53299 0
M  V30 3068 C 301.044 -3.28269 3.07505 0
M  V30 3069 C 302.363 -4.22991 1.21518 0
M  V30 3070 H 299.482 -0.655493 0.336894 0
M  V30 3071 H 302.124 -1.26144 1.42083 0
M  V30 3072 H 300.274 -3.72306 1.10999 0
M  V30 3073 H 301.946 -2.90079 3.58681 0
M  V30 3074 H 300.189 -2.67355 3.4162 0
M  V30 3075 H 300.86 -4.30691 3.45266 0
M  V30 3076 H 303.336 -3.84894 1.581 0
M  V30 3077 H 302.212 -5.22945 1.66793 0
M  V30 3078 H 302.473 -4.41904 0.131505 0
M  V30 3079 N 301.532 -0.945985 -1.26051 0
M  V30 3080 C 302.78 -0.594941 -1.93145 0
M  V30 3081 C 303.101 0.86953 -1.7454 0
M  V30 3082 O 302.371 1.61838 -1.10387 0
M  V30 3083 H 300.951 -0.217044 -0.714773 0
M  V30 3084 H 303.613 -1.20235 -1.53393 0
M  V30 3085 H 302.709 -0.816835 -3.01221 0
M  V30 3086 N 303.011 1.40521 -0.713556 0
M  V30 3087 C 303.974 2.29098 -0.0684347 0
M  V30 3088 C 304.974 1.45268 0.689472 0
M  V30 3089 O 306.164 1.66205 0.521677 0
M  V30 3090 C 303.296 3.28446 0.913024 0
M  V30 3091 H 304.489 2.87645 -0.84855 0
M  V30 3092 H 302.042 1.48809 -0.47809 0
M  V30 3093 H 302.777 2.74913 1.72027 0
M  V30 3094 H 302.562 3.90327 0.372472 0
M  V30 3095 H 304.052 3.94777 1.36165 0
M  V30 3096 N 304.489 0.459591 1.5075 0
M  V30 3097 C 305.736 -0.0993495 2.02256 0
M  V30 3098 C 306.064 -1.40751 1.34237 0
M  V30 3099 O 305.319 -1.90379 0.453228 0
M  V30 3100 C 305.618 -0.342866 3.55752 0
M  V30 3101 C 305.284 0.88218 4.42186 0
M  V30 3102 C 303.946 1.21808 4.65528 0
M  V30 3103 C 306.298 1.69837 4.92752 0
M  V30 3104 C 303.626 2.37045 5.36681 0
M  V30 3105 C 305.978 2.84192 5.65171 0
M  V30 3106 C 304.642 3.1821 5.8677 0
M  V30 3107 H 303.912 -0.0363545 0.740108 0
M  V30 3108 H 306.559 0.611329 1.8148 0
M  V30 3109 H 304.864 -1.13567 3.7498 0
M  V30 3110 H 306.561 -0.789121 3.93159 0
M  V30 3111 H 303.151 0.610467 4.2423 0
M  V30 3112 H 307.335 1.45205 4.74583 0
M  V30 3113 H 302.591 2.63689 5.51614 0
M  V30 3114 H 306.765 3.4779 6.03337 0
M  V30 3115 H 304.392 4.07613 6.41682 0
M  V30 3116 N 305.967 -1.56429 0.191757 0
M  V30 3117 C 306.9 -2.14829 -0.76967 0
M  V30 3118 C 307.878 -1.08405 -1.2119 0
M  V30 3119 O 309.062 -1.36498 -1.30002 0
M  V30 3120 C 306.189 -2.70446 -2.03903 0
M  V30 3121 C 305.235 -3.89428 -1.7392 0
M  V30 3122 S 306.068 -5.28048 -0.890265 0
M  V30 3123 C 307.224 -5.87085 -2.16984 0
M  V30 3124 H 307.457 -2.96042 -0.273204 0
M  V30 3125 H 304.99 -1.54383 -0.0231975 0
M  V30 3126 H 306.948 -3.03134 -2.76803 0
M  V30 3127 H 305.609 -1.89281 -2.50662 0
M  V30 3128 H 304.802 -4.26742 -2.68155 0
M  V30 3129 H 304.404 -3.57732 -1.09103 0
M  V30 3130 H 306.696 -6.01244 -3.12269 0
M  V30 3131 H 307.639 -6.83747 -1.84108 0
M  V30 3132 H 308.047 -5.15663 -2.29678 0
M  V30 3133 N 307.445 0.0818655 -1.57387 0
M  V30 3134 C 308.392 1.09834 -2.0299 0
M  V30 3135 C 309.362 1.39043 -0.908639 0
M  V30 3136 O 310.547 1.50282 -1.17559 0
M  V30 3137 C 307.687 2.40971 -2.47037 0
M  V30 3138 C 306.8 2.18379 -3.7274 0
M  V30 3139 C 305.935 3.43008 -4.0561 0
M  V30 3140 C 304.974 3.15736 -5.24383 0
M  V30 3141 N 304.111 4.32667 -5.52941 0
M  V30 3142 H 308.951 0.702472 -2.89602 0
M  V30 3143 H 306.488 0.33531 -1.43227 0
M  V30 3144 H 308.446 3.1752 -2.70623 0
M  V30 3145 H 307.076 2.78379 -1.63417 0
M  V30 3146 H 306.128 1.32569 -3.56552 0
M  V30 3147 H 307.44 1.94227 -4.59431 0
M  V30 3148 H 306.594 4.27958 -4.30043 0
M  V30 3149 H 305.333 3.70225 -3.17466 0
M  V30 3150 H 304.338 2.2918 -4.99757 0
M  V30 3151 H 305.563 2.8985 -6.14136 0
M  V30 3152 H 303.509 4.59935 -4.67756 0
M  V30 3153 H 303.426 4.11753 -6.34031 0
M  V30 3154 H 304.694 5.18644 -5.81918 0
M  V30 3155 N 308.923 1.53595 0.353017 0
M  V30 3156 C 310.2 1.61002 1.11075 0
M  V30 3157 C 310.58 0.425356 2.0677 0
M  V30 3158 O 309.928 -0.583267 2.2093 0
M  V30 3159 C 310.138 2.96631 1.83877 0
M  V30 3160 C 311.486 3.51653 2.37961 0
M  V30 3161 O 312.51 2.98743 1.93987 0
M  V30 3162 O 311.369 4.44177 3.18386 0
M  V30 3163 H 308.463 0.650825 0.510251 0
M  V30 3164 H 311.009 1.6594 0.35527 0
M  V30 3165 H 309.781 3.74293 1.14108 0
M  V30 3166 H 309.404 2.95242 2.66304 0
M  V30 3167 N 310.401 -0.613514 1.45168 0
M  V30 3168 C 311.331 -1.7354 1.56225 0
M  V30 3169 C 312.312 -1.64981 0.41414 0
M  V30 3170 O 313.497 -1.83472 0.636526 0
M  V30 3171 C 310.627 -3.12128 1.52295 0
M  V30 3172 C 309.581 -3.35491 2.65762 0
M  V30 3173 C 308.907 -4.74291 2.46885 0
M  V30 3174 C 310.207 -3.26325 4.0781 0
M  V30 3175 H 311.901 -1.64543 2.50132 0
M  V30 3176 H 309.447 -0.790185 1.20383 0
M  V30 3177 H 311.4 -3.90404 1.58628 0
M  V30 3178 H 310.124 -3.2195 0.549139 0
M  V30 3179 H 308.783 -2.59603 2.58847 0
M  V30 3180 H 308.431 -4.80839 1.47657 0
M  V30 3181 H 308.131 -4.9088 3.22972 0
M  V30 3182 H 309.655 -5.54775 2.55063 0
M  V30 3183 H 311.069 -3.94483 4.16 0
M  V30 3184 H 309.466 -3.54445 4.8424 0
M  V30 3185 H 310.536 -2.23855 4.30136 0
M  V30 3186 N 311.879 -1.3236 -0.855495 0
M  V30 3187 C 312.827 -1.2118 -1.9854 0
M  V30 3188 C 313.821 -0.116788 -1.68997 0
M  V30 3189 O 315.027 -0.279657 -1.77814 0
M  V30 3190 H 311.402 -0.375608 -0.651477 0
M  V30 3191 H 313.373 -2.16743 -2.05098 0
M  V30 3192 C 312.122 -0.950849 -3.34446 0
M  V30 3193 H 311.445 -1.78563 -3.57708 0
M  V30 3194 H 312.885 -0.912863 -4.14057 0
M  V30 3195 C 311.344 0.346404 -3.35114 0
M  V30 3196 O 311.874 1.35855 -3.7803 0
M  V30 3197 N 310.08 0.36808 -2.88259 0
M  V30 3198 H 309.627 -0.456102 -2.5353 0
M  V30 3199 H 309.585 1.23591 -2.89089 0
M  V30 3200 N 313.357 1.07166 -1.15556 0
M  V30 3201 C 314.634 1.76546 -0.842069 0
M  V30 3202 C 315.014 2.00453 0.661939 0
M  V30 3203 O 314.362 1.62452 1.60691 0
M  V30 3204 C 314.572 3.07266 -1.65495 0
M  V30 3205 C 315.92 3.81578 -1.86234 0
M  V30 3206 O 316.944 3.17083 -1.62287 0
M  V30 3207 O 315.803 4.97419 -2.26355 0
M  V30 3208 H 312.897 0.766756 -0.309862 0
M  V30 3209 H 315.443 1.13514 -1.26145 0
M  V30 3210 H 314.215 2.85494 -2.67598 0
M  V30 3211 H 313.838 3.7803 -1.23203 0
M  V30 3212 N 314.835 0.952656 1.25548 0
M  V30 3213 C 315.798 0.475794 2.24207 0
M  V30 3214 C 316.798 -0.419428 1.55234 0
M  V30 3215 O 317.988 -0.216994 1.72843 0
M  V30 3216 C 315.12 -0.312814 3.39462 0
M  V30 3217 H 316.313 1.34779 2.67908 0
M  V30 3218 H 313.866 0.735739 1.37901 0
M  V30 3219 H 314.601 -1.20257 3.01179 0
M  V30 3220 H 314.386 0.329404 3.90714 0
M  V30 3221 H 315.876 -0.635986 4.12729 0
M  V30 3222 N 316.313 -1.40141 0.720998 0
M  V30 3223 C 317.26 -2.30688 0.071919 0
M  V30 3224 C 318.23 -1.48476 -0.744584 0
M  V30 3225 O 319.415 -1.77201 -0.707423 0
M  V30 3226 C 316.555 -3.34724 -0.839855 0
M  V30 3227 C 315.668 -4.31998 -0.0122438 0
M  V30 3228 C 314.803 -5.23102 -0.923995 0
M  V30 3229 C 313.842 -6.12033 -0.0907969 0
M  V30 3230 N 312.979 -6.95537 -0.957718 0
M  V30 3231 H 317.819 -2.85628 0.849755 0
M  V30 3232 H 315.356 -1.40653 0.430726 0
M  V30 3233 H 317.314 -3.93618 -1.38279 0
M  V30 3234 H 315.944 -2.81274 -1.58381 0
M  V30 3235 H 314.996 -3.74841 0.64794 0
M  V30 3236 H 316.308 -4.94772 0.632595 0
M  V30 3237 H 315.462 -5.86953 -1.53527 0
M  V30 3238 H 314.201 -4.60615 -1.60264 0
M  V30 3239 H 313.206 -5.47207 0.533377 0
M  V30 3240 H 314.431 -6.76581 0.584428 0
M  V30 3241 H 312.377 -6.35633 -1.62192 0
M  V30 3242 H 312.294 -7.55099 -0.36904 0
M  V30 3243 H 313.562 -7.63832 -1.555 0
M  V30 3244 N 317.792 -0.46758 -1.50504 0
M  V30 3245 C 318.755 0.317059 -2.26996 0
M  V30 3246 C 319.755 0.923513 -1.31635 0
M  V30 3247 O 320.945 0.793239 -1.55091 0
M  V30 3248 C 318.077 1.45134 -3.08462 0
M  V30 3249 H 319.27 -0.353723 -2.97807 0
M  V30 3250 H 316.823 -0.221545 -1.54722 0
M  V30 3251 H 317.558 2.15728 -2.4214 0
M  V30 3252 H 317.343 1.02232 -3.78538 0
M  V30 3253 H 318.833 2.00493 -3.66323 0
M  V30 3254 N 319.27 1.56325 -0.20005 0
M  V30 3255 C 320.2 2.22318 0.713916 0
M  V30 3256 C 321.181 1.18788 1.21752 0
M  V30 3257 O 322.366 1.47309 1.26545 0
M  V30 3258 C 319.496 2.88639 1.93144 0
M  V30 3259 C 318.45 3.98457 1.56255 0
M  V30 3260 C 317.776 4.51967 2.85709 0
M  V30 3261 C 319.076 5.16612 0.768747 0
M  V30 3262 H 320.77 2.98952 0.163755 0
M  V30 3263 H 318.316 1.43792 0.0773219 0
M  V30 3264 H 320.269 3.33491 2.57608 0
M  V30 3265 H 318.993 2.09419 2.50621 0
M  V30 3266 H 317.652 3.54305 0.941471 0
M  V30 3267 H 317.3 3.69503 3.41287 0
M  V30 3268 H 317 5.26071 2.6177 0
M  V30 3269 H 318.524 4.99523 3.51154 0
M  V30 3270 H 319.938 5.57977 1.3166 0
M  V30 3271 H 318.335 5.96812 0.627286 0
M  V30 3272 H 319.405 4.84358 -0.229168 0
M  V30 3273 N 320.748 -0.0735177 1.57428 0
M  V30 3274 C 321.711 -1.07192 2.02589 0
M  V30 3275 C 322.711 -1.31695 0.922661 0
M  V30 3276 O 323.901 -1.27445 1.18758 0
M  V30 3277 C 321.033 -2.41599 2.40506 0
M  V30 3278 H 322.226 -0.682727 2.92025 0
M  V30 3279 H 319.779 -0.319193 1.53006 0
M  V30 3280 H 320.514 -2.85354 1.5409 0
M  V30 3281 H 320.299 -2.25156 3.21009 0
M  V30 3282 H 321.789 -3.13367 2.76027 0
M  V30 3283 N 322.226 -1.5378 -0.344866 0
M  V30 3284 C 323.173 -1.81676 -1.42346 0
M  V30 3285 C 324.143 -0.662376 -1.52321 0
M  V30 3286 O 325.328 -0.906675 -1.67881 0
M  V30 3287 C 322.468 -2.03087 -2.79015 0
M  V30 3288 C 321.581 -3.30799 -2.77842 0
M  V30 3289 C 320.716 -3.42285 -4.0622 0
M  V30 3290 C 319.755 -4.6395 -3.9927 0
M  V30 3291 N 318.892 -4.72477 -5.19336 0
M  V30 3292 H 323.732 -2.73703 -1.17858 0
M  V30 3293 H 321.269 -1.35568 -0.570949 0
M  V30 3294 H 323.227 -2.1349 -3.58438 0
M  V30 3295 H 321.857 -1.14375 -3.01858 0
M  V30 3296 H 320.909 -3.29244 -1.90533 0
M  V30 3297 H 322.221 -4.20314 -2.68584 0
M  V30 3298 H 321.375 -3.52113 -4.94066 0
M  V30 3299 H 320.114 -2.50823 -4.18258 0
M  V30 3300 H 319.119 -4.54201 -3.09809 0
M  V30 3301 H 320.344 -5.56775 -3.88817 0
M  V30 3302 H 318.29 -3.83924 -5.3192 0
M  V30 3303 H 318.207 -5.55927 -5.12329 0
M  V30 3304 H 319.475 -4.86613 -6.08957 0
M  V30 3305 N 323.704 0.605807 -1.45491 0
M  V30 3306 C 324.667 1.69836 -1.5391 0
M  V30 3307 C 325.667 1.55261 -0.418424 0
M  V30 3308 O 326.857 1.60296 -0.681965 0
M  V30 3309 C 323.989 3.09117 -1.43734 0
M  V30 3310 H 325.182 1.63738 -2.51257 0
M  V30 3311 H 322.735 0.821689 -1.32959 0
M  V30 3312 H 323.47 3.20791 -0.475788 0
M  V30 3313 H 323.255 3.21104 -2.25021 0
M  V30 3314 H 324.745 3.88696 -1.52661 0
M  V30 3315 N 325.182 1.32811 0.848464 0
M  V30 3316 C 326.115 1.16601 1.96162 0
M  V30 3317 C 327.093 0.0638855 1.62474 0
M  V30 3318 O 328.277 0.224348 1.8716 0
M  V30 3319 C 325.404 0.786333 3.29446 0
M  V30 3320 C 324.45 1.89459 3.8211 0
M  V30 3321 S 325.283 3.50395 4.04949 0
M  V30 3322 C 326.439 3.14413 5.41198 0
M  V30 3323 H 326.672 2.10832 2.09612 0
M  V30 3324 H 324.205 1.17543 1.00115 0
M  V30 3325 H 326.163 0.574044 4.06466 0
M  V30 3326 H 324.824 -0.137218 3.138 0
M  V30 3327 H 324.017 1.58207 4.78526 0
M  V30 3328 H 323.619 2.06304 3.11953 0
M  V30 3329 H 325.911 2.64642 6.23675 0
M  V30 3330 H 326.854 4.09874 5.77416 0
M  V30 3331 H 327.262 2.51266 5.05495 0
M  V30 3332 N 326.66 -1.06551 1.16123 0
M  V30 3333 C 327.906 -1.79567 0.94252 0
M  V30 3334 C 328.239 -1.86869 -0.528547 0
M  V30 3335 O 327.514 -1.35838 -1.39206 0
M  V30 3336 C 327.797 -3.24195 1.56747 0
M  V30 3337 C 327.65 -3.24989 3.10969 0
M  V30 3338 C 328.969 -4.21678 1.25998 0
M  V30 3339 H 326.088 -0.651883 0.343828 0
M  V30 3340 H 328.73 -1.2463 1.43413 0
M  V30 3341 H 326.88 -3.71107 1.14942 0
M  V30 3342 H 328.552 -2.86258 3.61737 0
M  V30 3343 H 326.795 -2.63716 3.44436 0
M  V30 3344 H 327.466 -4.27005 3.49815 0
M  V30 3345 H 329.942 -3.83196 1.62174 0
M  V30 3346 H 328.818 -5.21146 1.7233 0
M  V30 3347 H 329.079 -4.4174 0.178367 0
M  V30 3348 N 328.138 -0.959301 -1.25041 0
M  V30 3349 C 329.415 -0.533805 -1.88175 0
M  V30 3350 C 329.795 0.988994 -1.865 0
M  V30 3351 O 329.143 1.85677 -1.33177 0
M  V30 3352 C 329.353 -1.11575 -3.30684 0
M  V30 3353 C 330.701 -1.19548 -4.07423 0
M  V30 3354 O 331.725 -1.06765 -3.39823 0
M  V30 3355 O 330.584 -1.39656 -5.28354 0
M  V30 3356 H 327.678 -0.176772 -0.807887 0
M  V30 3357 H 330.224 -1.05303 -1.33076 0
M  V30 3358 H 328.996 -2.15884 -3.26358 0
M  V30 3359 H 328.619 -0.580059 -3.93346 0
M  V30 3360 N 329.616 1.39756 -0.72842 0
M  V30 3361 C 330.865 1.99879 -0.270407 0
M  V30 3362 C 331.178 1.58449 1.14688 0
M  V30 3363 O 332.384 2.11362 1.70407 0
M  V30 3364 C 330.84 3.57292 -0.43252 0
M  V30 3365 C 330.448 4.07688 -1.85727 0
M  V30 3366 C 332.192 4.24485 -0.0359507 0
M  V30 3367 C 330.099 5.5765 -1.96928 0
M  V30 3368 H 329.029 0.747689 -0.0973472 0
M  V30 3369 H 331.68 1.59837 -0.901355 0
M  V30 3370 H 330.062 3.95097 0.267219 0
M  V30 3371 H 331.236 3.81231 -2.58843 0
M  V30 3372 H 329.551 3.53135 -2.20646 0
M  V30 3373 H 332.148 5.34609 -0.0987484 0
M  V30 3374 H 332.491 4.03915 1.00787 0
M  V30 3375 H 333.024 3.9183 -0.686604 0
M  V30 3376 H 329.763 5.8309 -2.99476 0
M  V30 3377 H 329.283 5.8593 -1.28241 0
M  V30 3378 H 330.962 6.22957 -1.74737 0
M  V30 3379 N 331.094 0.475555 1.50254 0
M  V30 3380 C 332.342 -0.077738 2.0195 0
M  V30 3381 C 332.663 -1.39813 1.35931 0
M  V30 3382 O 331.933 -1.89249 0.506123 0
M  V30 3383 H 330.513 -0.031719 0.746326 0
M  V30 3384 H 333.175 0.626995 1.84539 0
M  V30 3385 H 332.271 -0.225995 3.11281 0
M  V30 3386 N 332.573 -1.56217 0.208337 0
M  V30 3387 C 333.521 -2.21053 -0.723769 0
M  V30 3388 C 334.515 -1.18578 -1.20978 0
M  V30 3389 O 335.721 -1.36691 -1.17114 0
M  V30 3390 H 332.096 -0.708595 -0.251788 0
M  V30 3391 H 334.067 -2.98006 -0.153365 0
M  V30 3392 C 332.816 -2.89417 -1.927 0
M  V30 3393 H 332.139 -3.68019 -1.56212 0
M  V30 3394 H 333.579 -3.38201 -2.55727 0
M  V30 3395 C 332.038 -1.91166 -2.77411 0
M  V30 3396 O 332.568 -1.42026 -3.75754 0
M  V30 3397 N 330.774 -1.59105 -2.43175 0
M  V30 3398 H 330.321 -1.99259 -1.63259 0
M  V30 3399 H 330.279 -0.936255 -3.00136 0
M  V30 3400 N 334.051 0.0651679 -1.57465 0
M  V30 3401 C 335.467 0.420105 -1.53972 0
M  V30 3402 C 335.667 1.78782 -0.929474 0
M  V30 3403 O 334.723 2.46771 -0.534839 0
M  V30 3404 C 336.036 0.355084 -2.98596 0
M  V30 3405 C 337.584 0.434792 -3.09965 0
M  V30 3406 C 338.059 0.399609 -4.56253 0
M  V30 3407 N 339.55 0.459488 -4.60915 0
M  V30 3408 C 340.285 0.454584 -5.71595 0
M  V30 3409 N 339.781 0.404102 -6.9162 0
M  V30 3410 N 341.574 0.501635 -5.59857 0
M  V30 3411 H 333.725 -0.830328 -1.95498 0
M  V30 3412 H 335.988 -0.312244 -0.895102 0
M  V30 3413 H 335.694 -0.583357 -3.46828 0
M  V30 3414 H 335.568 1.16275 -3.58831 0
M  V30 3415 H 337.955 1.36366 -2.61703 0
M  V30 3416 H 338.036 -0.40157 -2.52628 0
M  V30 3417 H 337.68 -0.525436 -5.05175 0
M  V30 3418 H 337.61 1.25359 -5.11461 0
M  V30 3419 H 340.101 0.502482 -3.74544 0
M  V30 3420 H 340.414 0.404468 -7.71741 0
M  V30 3421 H 338.759 0.37069 -6.94011 0
M  V30 3422 H 341.95 0.538812 -4.64989 0
M  V30 3423 H 342.123 0.494345 -6.46112 0
M  V30 3424 N 335.529 1.53961 0.336706 0
M  V30 3425 C 336.775 1.7179 1.07777 0
M  V30 3426 C 337.108 0.483263 1.88091 0
M  V30 3427 O 336.383 -0.519747 1.87427 0
M  V30 3428 C 336.666 2.98558 2.01334 0
M  V30 3429 C 336.519 4.32245 1.24437 0
M  V30 3430 C 337.838 3.21023 3.01052 0
M  V30 3431 H 334.957 0.625089 0.390426 0
M  V30 3432 H 337.599 1.86641 0.35567 0
M  V30 3433 H 335.749 2.86028 2.62908 0
M  V30 3434 H 337.421 4.56637 0.654243 0
M  V30 3435 H 335.664 4.30344 0.546458 0
M  V30 3436 H 336.335 5.17137 1.93063 0
M  V30 3437 H 338.811 3.32929 2.49595 0
M  V30 3438 H 337.687 4.11104 3.6371 0
M  V30 3439 H 337.948 2.37637 3.72802 0
M  V30 3440 N 337.007 -0.598083 1.45811 0
M  V30 3441 C 338.255 -1.35413 1.50026 0
M  V30 3442 C 338.576 -1.94444 0.147177 0
M  V30 3443 O 337.846 -1.77701 -0.824571 0
M  V30 3444 H 336.426 -0.502727 0.552517 0
M  V30 3445 H 339.088 -0.701606 1.81834 0
M  V30 3446 H 338.184 -2.16871 2.2444 0
M  V30 3447 N 338.485 -1.33259 -0.841409 0
M  V30 3448 C 339.901 -1.12538 -1.13169 0
M  V30 3449 C 340.101 0.0854037 -2.01319 0
M  V30 3450 O 339.157 0.766417 -2.40587 0
M  V30 3451 C 340.47 -2.41156 -1.79623 0
M  V30 3452 C 342.018 -2.47038 -1.922 0
M  V30 3453 C 342.493 -3.7561 -2.6207 0
M  V30 3454 N 343.984 -3.76667 -2.69585 0
M  V30 3455 C 344.719 -4.72861 -3.2433 0
M  V30 3456 N 344.215 -5.79428 -3.79783 0
M  V30 3457 N 346.008 -4.6034 -3.22558 0
M  V30 3458 H 338.159 -2.10868 -0.254676 0
M  V30 3459 H 340.422 -0.931615 -0.175493 0
M  V30 3460 H 340.128 -3.29747 -1.22311 0
M  V30 3461 H 340.002 -2.53114 -2.79666 0
M  V30 3462 H 342.389 -1.58898 -2.48667 0
M  V30 3463 H 342.47 -2.39022 -0.911148 0
M  V30 3464 H 342.114 -4.64131 -2.06263 0
M  V30 3465 H 342.044 -3.80902 -3.63622 0
M  V30 3466 H 344.535 -2.99648 -2.30259 0
M  V30 3467 H 344.848 -6.48867 -4.19752 0
M  V30 3468 H 343.193 -5.83166 -3.78078 0
M  V30 3469 H 346.384 -3.76244 -2.78492 0
M  V30 3470 H 346.557 -5.35478 -3.64921 0
M  V30 3471 N 339.963 1.05934 -1.16686 0
M  V30 3472 C 340.91 2.13499 -0.876748 0
M  V30 3473 C 341.88 1.65162 0.176299 0
M  V30 3474 O 343.065 1.90757 0.0407143 0
M  V30 3475 C 340.205 3.42912 -0.387967 0
M  V30 3476 C 339.318 4.04964 -1.50426 0
M  V30 3477 C 338.453 5.22266 -0.970125 0
M  V30 3478 C 337.492 5.76309 -2.06238 0
M  V30 3479 N 336.629 6.84922 -1.54356 0
M  V30 3480 H 341.469 2.37654 -1.7979 0
M  V30 3481 H 339.006 1.16598 -0.896843 0
M  V30 3482 H 340.964 4.17111 -0.086186 0
M  V30 3483 H 339.594 3.18963 0.496235 0
M  V30 3484 H 338.646 3.28277 -1.92193 0
M  V30 3485 H 339.958 4.41122 -2.32836 0
M  V30 3486 H 339.112 6.03506 -0.621743 0
M  V30 3487 H 337.851 4.87564 -0.115377 0
M  V30 3488 H 336.856 4.93704 -2.41942 0
M  V30 3489 H 338.081 6.13062 -2.92115 0
M  V30 3490 H 336.027 6.52131 -0.711406 0
M  V30 3491 H 335.944 7.20043 -2.30379 0
M  V30 3492 H 337.212 7.69832 -1.22387 0
M  V30 3493 N 341.441 0.965919 1.2453 0
M  V30 3494 C 342.669 0.644385 1.96609 0
M  V30 3495 C 343.084 -0.785823 1.71669 0
M  V30 3496 O 342.441 -1.52703 0.999399 0
M  V30 3497 C 342.492 0.907375 3.49927 0
M  V30 3498 O 342.213 2.28136 3.74013 0
M  V30 3499 C 343.714 0.599784 4.39224 0
M  V30 3500 H 340.934 0.240588 0.626385 0
M  V30 3501 H 343.478 1.29337 1.58405 0
M  V30 3502 H 341.633 0.304631 3.862 0
M  V30 3503 H 342.047 2.36002 4.68405 0
M  V30 3504 H 343.521 0.834263 5.45659 0
M  V30 3505 H 343.998 -0.465921 4.36722 0
M  V30 3506 H 344.604 1.18235 4.08535 0
M  V30 3507 N 342.919 -1.39368 0.735821 0
M  V30 3508 C 343.852 -2.28155 0.0451175 0
M  V30 3509 C 344.83 -1.44433 -0.746852 0
M  V30 3510 O 346.014 -1.73823 -0.729237 0
M  V30 3511 C 343.141 -3.253 -0.943266 0
M  V30 3512 C 342.187 -4.25826 -0.239685 0
M  V30 3513 S 343.02 -5.25166 1.04693 0
M  V30 3514 C 344.176 -6.2587 0.0611639 0
M  V30 3515 H 344.409 -2.86388 0.79807 0
M  V30 3516 H 341.942 -1.45104 0.527653 0
M  V30 3517 H 343.9 -3.81789 -1.50824 0
M  V30 3518 H 342.561 -2.66085 -1.66906 0
M  V30 3519 H 341.754 -4.94229 -0.987596 0
M  V30 3520 H 341.356 -3.73141 0.253274 0
M  V30 3521 H 343.648 -6.73007 -0.778941 0
M  V30 3522 H 344.591 -7.04508 0.712362 0
M  V30 3523 H 344.999 -5.63639 -0.311602 0
M  V30 3524 N 344.397 -0.483516 -1.5 0
M  V30 3525 C 345.36 0.292965 -2.2732 0
M  V30 3526 C 346.36 0.909499 -1.32608 0
M  V30 3527 O 347.55 0.776745 -1.55924 0
M  V30 3528 C 344.682 1.41854 -3.09984 0
M  V30 3529 H 345.875 -0.385289 -2.97415 0
M  V30 3530 H 343.428 -0.237942 -1.54478 0
M  V30 3531 H 344.163 2.13148 -2.44414 0
M  V30 3532 H 343.948 0.982114 -3.79601 0
M  V30 3533 H 345.438 1.96597 -3.68429 0
M  V30 3534 N 345.875 1.56104 -0.216619 0
M  V30 3535 C 347.124 1.97348 0.416744 0
M  V30 3536 C 347.437 1.10715 1.6125 0
M  V30 3537 O 348.643 1.41836 2.31506 0
M  V30 3538 C 347.099 3.51059 0.792835 0
M  V30 3539 C 346.707 4.46387 -0.379828 0
M  V30 3540 C 348.451 4.01026 1.39208 0
M  V30 3541 C 346.358 5.91397 0.0184223 0
M  V30 3542 H 345.288 0.736942 0.159475 0
M  V30 3543 H 347.939 1.80827 -0.31205 0
M  V30 3544 H 346.321 3.63162 1.57891 0
M  V30 3545 H 347.495 4.46029 -1.15737 0
M  V30 3546 H 345.81 4.06734 -0.891979 0
M  V30 3547 H 348.407 5.0686 1.70286 0
M  V30 3548 H 348.75 3.46587 2.30614 0
M  V30 3549 H 349.283 3.92125 0.669537 0
M  V30 3550 H 346.022 6.49807 -0.862002 0
M  V30 3551 H 345.542 5.94961 0.760384 0
M  V30 3552 H 347.221 6.45455 0.446818 0
M  V30 3553 N 347.353 -0.0568162 1.57498 0
M  V30 3554 C 348.602 -0.752001 1.87157 0
M  V30 3555 C 348.915 -1.77978 0.811375 0
M  V30 3556 O 350.121 -2.52559 0.996293 0
M  V30 3557 C 348.577 -1.38844 3.3204 0
M  V30 3558 C 348.185 -0.398456 4.46225 0
M  V30 3559 C 349.929 -2.06512 3.70882 0
M  V30 3560 C 347.836 -1.04166 5.82154 0
M  V30 3561 H 346.766 -0.28461 0.698222 0
M  V30 3562 H 349.417 -0.00561272 1.83499 0
M  V30 3563 H 347.799 -2.1836 3.30356 0
M  V30 3564 H 348.973 0.367977 4.59328 0
M  V30 3565 H 347.288 0.174592 4.16034 0
M  V30 3566 H 349.885 -2.55437 4.6974 0
M  V30 3567 H 350.228 -2.87117 3.01445 0
M  V30 3568 H 350.761 -1.33808 3.7462 0
M  V30 3569 H 347.5 -0.275614 6.5492 0
M  V30 3570 H 347.02 -1.7786 5.72823 0
M  V30 3571 H 348.699 -1.55715 6.27982 0
M  V30 3572 N 348.832 -1.54138 -0.328536 0
M  V30 3573 C 350.057 -1.76378 -1.09112 0
M  V30 3574 C 350.482 -0.508596 -1.81094 0
M  V30 3575 O 349.84 0.539598 -1.73084 0
M  V30 3576 C 349.888 -2.95358 -2.06872 0
M  V30 3577 O 348.992 -2.66556 -3.14677 0
M  V30 3578 H 348.333 -0.584614 -0.314838 0
M  V30 3579 H 350.863 -2.01146 -0.374348 0
M  V30 3580 H 350.873 -3.22566 -2.4983 0
M  V30 3581 H 349.548 -3.86385 -1.5388 0
M  V30 3582 H 348.125 -2.50282 -2.7643 0
M  V30 3583 N 350.31 0.590341 -1.46126 0
M  V30 3584 C 351.587 1.35029 -1.41515 0
M  V30 3585 C 351.967 2.10888 -0.0946472 0
M  V30 3586 O 351.315 2.08998 0.923693 0
M  V30 3587 C 351.525 2.28269 -2.63997 0
M  V30 3588 C 352.873 2.90338 -3.09821 0
M  V30 3589 O 353.897 2.38585 -2.64492 0
M  V30 3590 O 352.756 3.84321 -3.88535 0
M  V30 3591 H 349.85 0.606317 -0.562413 0
M  V30 3592 H 352.396 0.611994 -1.58281 0
M  V30 3593 H 351.168 1.71591 -3.51671 0
M  V30 3594 H 350.791 3.0945 -2.49652 0
M  V30 3595 N 351.788 1.33704 0.83433 0
M  V30 3596 C 352.721 1.18675 1.94914 0
M  V30 3597 C 353.699 0.0811145 1.62398 0
M  V30 3598 O 354.883 0.244186 1.86912 0
M  V30 3599 C 352.01 0.821231 3.28593 0
M  V30 3600 C 351.056 1.93501 3.80079 0
M  V30 3601 S 351.889 3.54671 4.01209 0
M  V30 3602 C 353.045 3.20136 5.37833 0
M  V30 3603 H 353.278 2.13043 2.07364 0
M  V30 3604 H 350.811 1.18598 0.988624 0
M  V30 3605 H 352.769 0.617123 4.05835 0
M  V30 3606 H 351.43 -0.103927 3.13928 0
M  V30 3607 H 350.623 1.63273 4.76821 0
M  V30 3608 H 350.225 2.09601 3.09747 0
M  V30 3609 H 352.517 2.71242 6.20833 0
M  V30 3610 H 353.46 4.15975 5.73036 0
M  V30 3611 H 353.868 2.56613 5.02802 0
M  V30 3612 N 353.266 -1.05314 1.17247 0
M  V30 3613 C 354.491 -1.82509 0.985148 0
M  V30 3614 C 354.916 -1.82343 -0.461788 0
M  V30 3615 O 354.274 -1.23151 -1.33055 0
M  V30 3616 C 354.322 -3.26566 1.52929 0
M  V30 3617 O 353.426 -4.05666 0.742225 0
M  V30 3618 H 352.767 -0.564347 0.349869 0
M  V30 3619 H 355.297 -1.32718 1.55715 0
M  V30 3620 H 355.307 -3.77369 1.55103 0
M  V30 3621 H 353.982 -3.26001 2.58256 0
M  V30 3622 H 352.559 -3.64397 0.791794 0
M  V30 3623 N 354.744 -0.972509 -1.24016 0
M  V30 3624 C 355.676 -0.464375 -2.24446 0
M  V30 3625 C 356.689 0.4295 -1.57032 0
M  V30 3626 O 357.878 0.234902 -1.76948 0
M  V30 3627 C 354.978 0.348385 -3.37105 0
M  V30 3628 C 354.151 -0.53673 -4.34094 0
M  V30 3629 C 353.21 0.220838 -5.25736 0
M  V30 3630 O 352.236 -0.386867 -5.67884 0
M  V30 3631 N 353.438 1.50907 -5.60542 0
M  V30 3632 H 356.203 -1.32788 -2.68677 0
M  V30 3633 H 353.764 -0.844877 -1.38107 0
M  V30 3634 H 355.756 0.863341 -3.95384 0
M  V30 3635 H 354.326 1.11285 -2.92121 0
M  V30 3636 H 353.546 -1.23261 -3.74433 0
M  V30 3637 H 354.834 -1.14022 -4.95859 0
M  V30 3638 H 354.232 2.02444 -5.28236 0
M  V30 3639 H 352.789 1.96962 -6.21329 0
M  V30 3640 N 356.222 1.38976 -0.743202 0
M  V30 3641 C 357.633 1.83123 -0.363732 0
M  V30 3642 C 357.984 1.6205 1.10609 0
M  V30 3643 O 357.109 1.11606 1.854 0
M  V30 3644 C 357.704 3.32439 -0.653408 0
M  V30 3645 C 356.263 3.74974 -0.327338 0
M  V30 3646 C 355.41 2.61878 -0.911875 0
M  V30 3647 H 358.361 1.27852 -0.940191 0
M  V30 3648 H 358.382 3.80432 0.0720031 0
M  V30 3649 H 357.894 3.47745 -1.72323 0
M  V30 3650 H 355.995 3.65252 0.736314 0
M  V30 3651 H 356.108 4.72106 -0.815631 0
M  V30 3652 H 354.472 2.52448 -0.337944 0
M  V30 3653 H 355.255 2.79987 -1.98651 0
M  V30 3654 N 357.7 0.491464 1.49741 0
M  V30 3655 C 358.63 -0.28154 2.31796 0
M  V30 3656 C 359.611 -0.971473 1.3963 0
M  V30 3657 O 360.796 -0.964719 1.68543 0
M  V30 3658 C 357.926 -1.35203 3.19902 0
M  V30 3659 C 356.88 -0.782529 4.20786 0
M  V30 3660 C 356.206 -1.95283 4.97764 0
M  V30 3661 C 357.506 0.21999 5.21837 0
M  V30 3662 H 359.2 0.403355 2.96671 0
M  V30 3663 H 356.746 0.195425 1.42668 0
M  V30 3664 H 358.699 -1.90045 3.76113 0
M  V30 3665 H 357.423 -2.06598 2.52953 0
M  V30 3666 H 356.082 -0.255928 3.65706 0
M  V30 3667 H 355.73 -2.65423 4.2727 0
M  V30 3668 H 355.43 -1.57789 5.66018 0
M  V30 3669 H 356.954 -2.50577 5.56816 0
M  V30 3670 H 358.368 -0.23996 5.72798 0
M  V30 3671 H 356.765 0.51026 5.97927 0
M  V30 3672 H 357.835 1.13911 4.7133 0
M  V30 3673 N 359.178 -1.55987 0.224894 0
M  V30 3674 C 360.426 -1.97998 -0.405099 0
M  V30 3675 C 360.747 -1.11387 -1.60056 0
M  V30 3676 O 360.017 -0.191645 -1.9496 0
M  V30 3677 H 358.597 -0.731235 -0.152658 0
M  V30 3678 H 361.259 -1.92279 0.318567 0
M  V30 3679 H 360.355 -3.03463 -0.729167 0
M  V30 3680 N 360.656 0.0484629 -1.57525 0
M  V30 3681 C 361.886 0.754326 -1.92337 0
M  V30 3682 C 362.294 1.70443 -0.82132 0
M  V30 3683 O 361.637 1.82466 0.21254 0
M  V30 3684 C 361.699 1.58231 -3.22805 0
M  V30 3685 C 361.363 0.799074 -4.4996 0
M  V30 3686 C 362.36 0.1079 -5.19788 0
M  V30 3687 C 360.045 0.759345 -4.96527 0
M  V30 3688 C 362.039 -0.612516 -6.3445 0
M  V30 3689 C 359.726 0.0351713 -6.1109 0
M  V30 3690 C 360.724 -0.649537 -6.79904 0
M  V30 3691 O 360.412 -1.36199 -7.92278 0
M  V30 3692 H 360.144 0.218257 -0.639797 0
M  V30 3693 H 362.698 0.0159295 -2.05394 0
M  V30 3694 H 360.928 2.36406 -3.06021 0
M  V30 3695 H 362.617 2.16898 -3.43089 0
M  V30 3696 H 363.383 0.129748 -4.84826 0
M  V30 3697 H 359.262 1.28177 -4.42822 0
M  V30 3698 H 362.806 -1.14751 -6.88097 0
M  V30 3699 H 358.703 0.0113314 -6.45499 0
M  V30 3700 H 359.471 -1.27366 -8.0853 0
M  V30 3701 N 362.134 1.5431 0.320358 0
M  V30 3702 C 363.097 1.83195 1.3774 0
M  V30 3703 C 364.097 0.703906 1.44575 0
M  V30 3704 O 365.287 0.972214 1.44546 0
M  V30 3705 C 362.419 1.99487 2.76438 0
M  V30 3706 H 363.612 2.77642 1.1338 0
M  V30 3707 H 361.165 1.46076 0.556012 0
M  V30 3708 H 361.9 1.07262 3.06048 0
M  V30 3709 H 361.685 2.81575 2.7287 0
M  V30 3710 H 363.175 2.23271 3.52902 0
M  V30 3711 N 363.613 -0.582584 1.46437 0
M  V30 3712 C 364.862 -1.337 1.5102 0
M  V30 3713 C 365.175 -1.94891 0.166359 0
M  V30 3714 O 366.381 -2.71351 0.0899954 0
M  V30 3715 C 364.837 -2.42315 2.66104 0
M  V30 3716 C 364.445 -1.87427 4.06909 0
M  V30 3717 C 366.189 -3.19099 2.79958 0
M  V30 3718 C 364.096 -2.93672 5.13333 0
M  V30 3719 H 363.026 -0.502619 0.562041 0
M  V30 3720 H 365.677 -0.621701 1.72647 0
M  V30 3721 H 364.059 -3.16645 2.37807 0
M  V30 3722 H 365.233 -1.19639 4.44998 0
M  V30 3723 H 363.548 -1.2331 3.97723 0
M  V30 3724 H 366.145 -3.9839 3.56636 0
M  V30 3725 H 366.488 -3.71695 1.87479 0
M  V30 3726 H 367.021 -2.51875 3.07902 0
M  V30 3727 H 363.76 -2.45962 6.07604 0
M  V30 3728 H 363.28 -3.59948 4.79789 0
M  V30 3729 H 364.959 -3.5762 5.39182 0
M  V30 3730 N 365.091 -1.34144 -0.827227 0
M  V30 3731 C 366.339 -1.26009 -1.58007 0
M  V30 3732 C 366.66 0.170971 -1.94249 0
M  V30 3733 O 365.93 1.10256 -1.61927 0
M  V30 3734 H 364.51 -0.463414 -0.585881 0
M  V30 3735 H 367.172 -1.68005 -0.987951 0
M  V30 3736 H 366.268 -1.86187 -2.50481 0
M  V30 3737 N 366.569 1.04691 -1.17803 0
M  V30 3738 C 367.517 2.14665 -0.895635 0
M  V30 3739 C 368.511 1.68806 0.141679 0
M  V30 3740 O 369.717 1.79999 -0.00587914 0
M  V30 3741 H 366.092 0.701038 -0.272121 0
M  V30 3742 H 368.063 2.35685 -1.83017 0
M  V30 3743 C 366.812 3.45019 -0.430962 0
M  V30 3744 H 366.135 3.8071 -1.22064 0
M  V30 3745 H 367.575 4.23125 -0.272301 0
M  V30 3746 C 366.034 3.25943 0.852207 0
M  V30 3747 O 366.564 3.5296 1.91786 0
M  V30 3748 N 364.77 2.79304 0.802346 0
M  V30 3749 H 364.317 2.57518 -0.0650788 0
M  V30 3750 H 364.275 2.66921 1.66134 0
M  V30 3751 N 368.047 0.979072 1.23499 0
M  V30 3752 C 369.01 0.523244 2.23147 0
M  V30 3753 C 370.01 -0.386406 1.56088 0
M  V30 3754 O 371.2 -0.180283 1.73265 0
M  V30 3755 C 368.332 -0.240739 3.40049 0
M  V30 3756 H 369.525 1.40432 2.64989 0
M  V30 3757 H 367.078 0.764824 1.36309 0
M  V30 3758 H 367.813 -1.13841 3.03662 0
M  V30 3759 H 367.598 0.412207 3.89927 0
M  V30 3760 H 369.088 -0.548297 4.13985 0
M  V30 3761 N 369.525 -1.3858 0.750561 0
M  V30 3762 C 370.455 -2.33102 0.136237 0
M  V30 3763 C 371.436 -1.54713 -0.706965 0
M  V30 3764 O 372.621 -1.83043 -0.648769 0
M  V30 3765 C 369.751 -3.38882 -0.760017 0
M  V30 3766 C 368.705 -4.27995 -0.0197785 0
M  V30 3767 C 368.031 -5.24605 -1.03408 0
M  V30 3768 C 369.331 -5.09554 1.14684 0
M  V30 3769 H 371.025 -2.84726 0.925822 0
M  V30 3770 H 368.571 -1.36898 0.446654 0
M  V30 3771 H 370.524 -4.0397 -1.19943 0
M  V30 3772 H 369.248 -2.85734 -1.58189 0
M  V30 3773 H 367.907 -3.64409 0.400184 0
M  V30 3774 H 367.555 -4.67746 -1.84994 0
M  V30 3775 H 367.255 -5.85081 -0.543464 0
M  V30 3776 H 368.779 -5.9257 -1.47288 0
M  V30 3777 H 370.193 -5.67899 0.785118 0
M  V30 3778 H 368.59 -5.7925 1.56812 0
M  V30 3779 H 369.66 -4.4347 1.96118 0
M  V30 3780 N 371.003 -0.499398 -1.49478 0
M  V30 3781 C 371.913 0.284489 -2.32869 0
M  V30 3782 C 372.929 0.968885 -1.44529 0
M  V30 3783 O 374.105 0.95062 -1.77553 0
M  V30 3784 C 371.17 1.33594 -3.19928 0
M  V30 3785 C 370.231 0.665149 -4.24116 0
M  V30 3786 C 369.464 1.6665 -5.07014 0
M  V30 3787 O 369.687 2.89618 -4.91404 0
M  V30 3788 O 368.621 1.22271 -5.8935 0
M  V30 3789 H 372.447 -0.39802 -3.01081 0
M  V30 3790 H 370.032 -0.260758 -1.47107 0
M  V30 3791 H 371.914 1.94431 -3.73864 0
M  V30 3792 H 370.589 2.0014 -2.54412 0
M  V30 3793 H 369.496 0.0170769 -3.74096 0
M  V30 3794 H 370.829 0.0421555 -4.92182 0
M  V30 3795 N 372.481 1.55866 -0.233164 0
M  V30 3796 C 373.727 1.98897 0.395959 0
M  V30 3797 C 374.06 1.12091 1.58585 0
M  V30 3798 O 373.335 0.181182 1.93654 0
M  V30 3799 C 373.618 3.50658 0.819224 0
M  V30 3800 C 373.471 4.48233 -0.375109 0
M  V30 3801 C 374.79 4.07135 1.67121 0
M  V30 3802 H 371.909 0.723102 0.142451 0
M  V30 3803 H 374.551 1.87082 -0.331725 0
M  V30 3804 H 372.701 3.60857 1.43925 0
M  V30 3805 H 374.373 4.50031 -1.01341 0
M  V30 3806 H 372.616 4.21624 -1.02058 0
M  V30 3807 H 373.287 5.51988 -0.0358328 0
M  V30 3808 H 375.763 3.99952 1.14795 0
M  V30 3809 H 374.639 5.13615 1.93625 0
M  V30 3810 H 374.9 3.54736 2.63846 0
M  V30 3811 N 373.959 -0.0401083 1.57549 0
M  V30 3812 C 374.906 -1.04413 2.05831 0
M  V30 3813 C 375.876 -1.36585 0.945184 0
M  V30 3814 O 377.061 -1.47112 1.21502 0
M  V30 3815 C 374.201 -2.34336 2.53339 0
M  V30 3816 C 373.314 -2.08419 3.78398 0
M  V30 3817 C 372.449 -3.32133 4.14561 0
M  V30 3818 C 371.488 -3.01721 5.3257 0
M  V30 3819 N 370.625 -4.17855 5.64218 0
M  V30 3820 H 375.465 -0.625442 2.91363 0
M  V30 3821 H 373.002 -0.297218 1.44066 0
M  V30 3822 H 374.96 -3.10234 2.78946 0
M  V30 3823 H 373.59 -2.73948 1.7074 0
M  V30 3824 H 372.642 -1.23069 3.59942 0
M  V30 3825 H 373.954 -1.81978 4.64419 0
M  V30 3826 H 373.108 -4.16406 4.41238 0
M  V30 3827 H 371.847 -3.61678 3.2717 0
M  V30 3828 H 370.852 -2.15849 5.05657 0
M  V30 3829 H 372.077 -2.73466 6.21605 0
M  V30 3830 H 370.023 -4.47372 4.79786 0
M  V30 3831 H 369.94 -3.94798 6.44725 0
M  V30 3832 H 371.208 -5.03033 5.95465 0
M  V30 3833 N 375.437 -1.54477 -0.31217 0
M  V30 3834 C 376.347 -1.87695 -1.4074 0
M  V30 3835 C 377.363 -0.769975 -1.56036 0
M  V30 3836 O 378.539 -1.06537 -1.70915 0
M  V30 3837 C 375.604 -2.10755 -2.75287 0
M  V30 3838 C 374.665 -3.34514 -2.69071 0
M  V30 3839 C 373.898 -3.56465 -3.97201 0
M  V30 3840 O 374.121 -2.81637 -4.96021 0
M  V30 3841 O 373.055 -4.49964 -3.9977 0
M  V30 3842 H 376.881 -2.80849 -1.15574 0
M  V30 3843 H 374.466 -1.40526 -0.507228 0
M  V30 3844 H 376.348 -2.27188 -3.54913 0
M  V30 3845 H 375.023 -1.20788 -3.0032 0
M  V30 3846 H 373.93 -3.23456 -1.87955 0
M  V30 3847 H 375.263 -4.24575 -2.48992 0
M  V30 3848 N 376.915 0.57481 -1.46744 0
M  V30 3849 C 377.878 1.66533 -1.57478 0
M  V30 3850 C 378.878 1.54338 -0.451263 0
M  V30 3851 O 380.068 1.58814 -0.715813 0
M  V30 3852 C 377.2 3.05999 -1.50259 0
M  V30 3853 H 378.393 1.58372 -2.54673 0
M  V30 3854 H 375.946 0.793301 -1.34672 0
M  V30 3855 H 376.681 3.19709 -0.543725 0
M  V30 3856 H 376.466 3.16259 -2.31781 0
M  V30 3857 H 377.956 3.8537 -1.60872 0
M  V30 3858 N 378.394 1.34581 0.820102 0
M  V30 3859 C 379.643 1.26437 1.57151 0
M  V30 3860 C 379.956 -0.163111 1.94919 0
M  V30 3861 O 381.162 -0.366722 2.69012 0
M  V30 3862 C 379.618 2.21658 2.83541 0
M  V30 3863 C 379.226 3.69679 2.53065 0
M  V30 3864 C 380.97 2.22428 3.61561 0
M  V30 3865 C 378.877 4.56761 3.75664 0
M  V30 3866 H 377.807 0.469707 0.589823 0
M  V30 3867 H 380.458 1.59763 0.902656 0
M  V30 3868 H 378.84 1.81287 3.52067 0
M  V30 3869 H 380.014 4.18605 1.92631 0
M  V30 3870 H 378.329 3.71384 1.88316 0
M  V30 3871 H 380.926 2.8471 4.52597 0
M  V30 3872 H 381.269 1.22434 3.97889 0
M  V30 3873 H 381.802 2.61259 2.99981 0
M  V30 3874 H 378.541 5.57702 3.44454 0
M  V30 3875 H 378.061 4.12568 4.35371 0
M  V30 3876 H 379.74 4.71509 4.43044 0
M  V30 3877 N 379.872 -1.04064 1.18357 0
M  V30 3878 C 381.149 -1.74252 0.888581 0
M  V30 3879 C 381.529 -2.02138 -0.60856 0
M  V30 3880 O 380.877 -1.66656 -1.56327 0
M  V30 3881 C 381.087 -3.0277 1.73584 0
M  V30 3882 C 382.435 -3.76506 1.96286 0
M  V30 3883 O 383.459 -3.12668 1.70637 0
M  V30 3884 O 382.318 -4.91243 2.39464 0
M  V30 3885 H 379.412 -0.758271 0.330082 0
M  V30 3886 H 381.958 -1.1013 1.2911 0
M  V30 3887 H 380.73 -2.78299 2.75073 0
M  V30 3888 H 380.353 -3.74631 1.33183 0
M  V30 3889 N 381.35 -0.985608 -1.22978 0
M  V30 3890 C 382.578 -0.675582 -1.95559 0
M  V30 3891 C 382.993 0.758413 -1.72897 0
M  V30 3892 O 382.35 1.51094 -1.02357 0
M  V30 3893 C 382.401 -0.96293 -3.48439 0
M  V30 3894 O 382.122 -2.34057 -3.70336 0
M  V30 3895 C 383.623 -0.669585 -4.38214 0
M  V30 3896 H 380.843 -0.250523 -0.622478 0
M  V30 3897 H 383.387 -1.3184 -1.56328 0
M  V30 3898 H 381.542 -0.366033 -3.85667 0
M  V30 3899 H 381.956 -2.43424 -4.64591 0
M  V30 3900 H 383.43 -0.920967 -5.44263 0
M  V30 3901 H 383.907 0.396383 -4.37408 0
M  V30 3902 H 384.513 -1.2472 -4.06602 0
M  V30 3903 N 382.828 1.3818 -0.7579 0
M  V30 3904 C 383.758 2.33027 -0.148597 0
M  V30 3905 C 384.739 1.55085 0.69875 0
M  V30 3906 O 385.924 1.83384 0.639053 0
M  V30 3907 C 383.054 3.3928 0.742034 0
M  V30 3908 C 382.008 4.28 -0.00291946 0
M  V30 3909 C 381.334 5.25146 1.00625 0
M  V30 3910 C 382.634 5.08938 -1.17385 0
M  V30 3911 H 384.328 2.84231 -0.940909 0
M  V30 3912 H 381.874 1.36659 -0.453908 0
M  V30 3913 H 383.827 4.046 1.17799 0
M  V30 3914 H 382.551 2.86569 1.56671 0
M  V30 3915 H 381.21 3.64192 -0.419504 0
M  V30 3916 H 380.858 4.68721 1.8251 0
M  V30 3917 H 380.558 5.85361 0.512428 0
M  V30 3918 H 382.082 5.93342 1.44143 0
M  V30 3919 H 383.496 5.67474 -0.815224 0
M  V30 3920 H 381.893 5.7841 -1.59882 0
M  V30 3921 H 382.963 4.42424 -1.98468 0
M  V30 3922 N 384.306 0.507319 1.49211 0
M  V30 3923 C 385.253 -0.267728 2.29242 0
M  V30 3924 C 386.223 -0.954609 1.35928 0
M  V30 3925 O 387.408 -0.960046 1.64887 0
M  V30 3926 C 384.548 -1.32243 3.18756 0
M  V30 3927 C 383.661 -0.64669 4.27132 0
M  V30 3928 C 382.796 -1.68238 5.03855 0
M  V30 3929 C 381.835 -0.98885 6.0406 0
M  V30 3930 N 380.972 -1.96903 6.73924 0
M  V30 3931 H 385.812 0.420968 2.95012 0
M  V30 3932 H 383.349 0.219443 1.45454 0
M  V30 3933 H 385.307 -1.94599 3.69036 0
M  V30 3934 H 383.937 -1.97981 2.54958 0
M  V30 3935 H 382.989 0.0902926 3.80293 0
M  V30 3936 H 384.301 -0.101058 4.98698 0
M  V30 3937 H 383.455 -2.38081 5.58034 0
M  V30 3938 H 382.194 -2.26187 4.32077 0
M  V30 3939 H 381.199 -0.276222 5.49106 0
M  V30 3940 H 382.424 -0.415767 6.77826 0
M  V30 3941 H 380.37 -2.53803 6.04913 0
M  V30 3942 H 380.287 -1.47423 7.41487 0
M  V30 3943 H 381.555 -2.66015 7.32705 0
M  V30 3944 N 385.784 -1.5574 0.241426 0
M  V30 3945 C 387.032 -1.98417 -0.384075 0
M  V30 3946 C 387.353 -1.13078 -1.58866 0
M  V30 3947 O 386.623 -0.212312 -1.94746 0
M  V30 3948 H 385.203 -0.732813 -0.144894 0
M  V30 3949 H 387.865 -1.9193 0.338943 0
M  V30 3950 H 386.961 -3.04219 -0.696939 0
M  V30 3951 N 387.262 0.0317525 -1.57568 0
M  V30 3952 C 388.172 1.05021 -2.0978 0
M  V30 3953 C 389.188 1.39809 -1.03583 0
M  V30 3954 O 390.364 1.49182 -1.35302 0
M  V30 3955 C 387.429 2.33301 -2.56459 0
M  V30 3956 C 386.49 2.0512 -3.77127 0
M  V30 3957 C 385.723 3.27283 -4.2157 0
M  V30 3958 O 385.946 4.37861 -3.65559 0
M  V30 3959 O 384.88 3.13141 -5.14029 0
M  V30 3960 H 388.706 0.636505 -2.96955 0
M  V30 3961 H 386.291 0.248559 -1.47318 0
M  V30 3962 H 388.173 3.08722 -2.86825 0
M  V30 3963 H 386.848 2.73973 -1.72397 0
M  V30 3964 H 385.755 1.27276 -3.51784 0
M  V30 3965 H 387.088 1.69305 -4.62165 0
M  V30 3966 N 388.74 1.54641 0.303973 0
M  V30 3967 C 389.988 1.73437 1.0375 0
M  V30 3968 C 390.309 0.521449 1.87899 0
M  V30 3969 O 389.579 -0.46432 1.90318 0
M  V30 3970 H 388.159 0.639518 0.386039 0
M  V30 3971 H 390.821 1.91988 0.335675 0
M  V30 3972 H 389.917 2.62235 1.69231 0
M  V30 3973 N 390.218 -0.567019 1.47046 0
M  V30 3974 C 391.629 -1.14916 1.47143 0
M  V30 3975 C 391.98 -1.94954 0.220767 0
M  V30 3976 O 391.105 -2.05602 -0.67505 0
M  V30 3977 C 391.7 -2.09069 2.666 0
M  V30 3978 C 390.259 -2.62575 2.69687 0
M  V30 3979 C 389.406 -1.38755 2.40088 0
M  V30 3980 H 392.357 -0.354126 1.54699 0
M  V30 3981 H 392.378 -2.92789 2.43011 0
M  V30 3982 H 391.89 -1.50789 3.57609 0
M  V30 3983 H 389.991 -3.24681 1.82792 0
M  V30 3984 H 390.104 -3.04239 3.70102 0
M  V30 3985 H 388.468 -1.69098 1.90468 0
M  V30 3986 H 389.251 -0.822822 3.33293 0
M  V30 3987 N 391.696 -1.35014 -0.812953 0
M  V30 3988 C 392.606 -1.2951 -1.95613 0
M  V30 3989 C 393.622 -0.20107 -1.72834 0
M  V30 3990 O 394.798 -0.42932 -1.96771 0
M  V30 3991 C 391.863 -1.06033 -3.30088 0
M  V30 3992 C 390.924 -2.24688 -3.65805 0
M  V30 3993 C 390.157 -2.02322 -4.93864 0
M  V30 3994 O 390.38 -0.986464 -5.61805 0
M  V30 3995 O 389.314 -2.89525 -5.27692 0
M  V30 3996 H 393.14 -2.25705 -2.03202 0
M  V30 3997 H 390.725 -1.15321 -0.949811 0
M  V30 3998 H 392.607 -0.94763 -4.10607 0
M  V30 3999 H 391.282 -0.128852 -3.23443 0
M  V30 4000 H 390.189 -2.41521 -2.85689 0
M  V30 4001 H 391.522 -3.16261 -3.77147 0
M  V30 4002 N 393.175 1.03435 -1.18907 0
M  V30 4003 C 394.452 1.73778 -0.89781 0
M  V30 4004 C 394.832 2.02458 0.597832 0
M  V30 4005 O 394.18 1.67482 1.55441 0
M  V30 4006 C 394.39 3.01845 -1.75187 0
M  V30 4007 C 395.738 3.7546 -1.9828 0
M  V30 4008 O 396.762 3.11759 -1.72293 0
M  V30 4009 O 395.621 4.89966 -2.42065 0
M  V30 4010 H 392.715 0.75651 -0.334098 0
M  V30 4011 H 395.261 1.09444 -1.29693 0
M  V30 4012 H 394.033 2.76836 -2.76545 0
M  V30 4013 H 393.656 3.73919 -1.35167 0
M  V30 4014 N 394.653 0.992116 1.22453 0
M  V30 4015 C 395.9 0.667534 1.91181 0
M  V30 4016 C 396.228 -0.800317 1.77271 0
M  V30 4017 O 395.483 -1.59421 1.13505 0
M  V30 4018 C 395.782 1.01832 3.42586 0
M  V30 4019 C 395.448 2.47831 3.76684 0
M  V30 4020 C 394.11 2.87729 3.85701 0
M  V30 4021 C 396.462 3.42466 3.92895 0
M  V30 4022 C 393.79 4.21252 4.08367 0
M  V30 4023 C 396.142 4.75648 4.17064 0
M  V30 4024 C 394.806 5.15288 4.24305 0
M  V30 4025 H 394.076 0.244268 0.699581 0
M  V30 4026 H 396.723 1.24816 1.45235 0
M  V30 4027 H 395.028 0.355769 3.90181 0
M  V30 4028 H 396.725 0.745228 3.94014 0
M  V30 4029 H 393.315 2.15905 3.70247 0
M  V30 4030 H 397.499 3.12814 3.85307 0
M  V30 4031 H 392.755 4.51554 4.122 0
M  V30 4032 H 396.929 5.48924 4.2855 0
M  V30 4033 H 394.556 6.18769 4.41621 0
M  V30 4034 N 396.131 -1.37776 0.765217 0
M  V30 4035 C 397.063 -2.28958 0.105361 0
M  V30 4036 C 398.076 -1.48316 -0.67128 0
M  V30 4037 O 399.265 -1.71046 -0.51045 0
M  V30 4038 C 396.365 -3.27421 -0.874569 0
M  V30 4039 C 395.538 -4.37132 -0.153123 0
M  V30 4040 C 394.597 -5.1571 -1.04547 0
M  V30 4041 O 393.623 -5.66896 -0.511672 0
M  V30 4042 N 394.825 -5.29808 -2.37243 0
M  V30 4043 H 397.59 -2.86227 0.888495 0
M  V30 4044 H 395.151 -1.49682 0.617 0
M  V30 4045 H 397.143 -3.7687 -1.47483 0
M  V30 4046 H 395.713 -2.70967 -1.55871 0
M  V30 4047 H 394.933 -3.89166 0.627975 0
M  V30 4048 H 396.221 -5.07625 0.345643 0
M  V30 4049 H 395.619 -4.89793 -2.83054 0
M  V30 4050 H 394.176 -5.82589 -2.9229 0
M  V30 4051 N 397.609 -0.515225 -1.4894 0
M  V30 4052 C 398.519 0.259774 -2.33157 0
M  V30 4053 C 399.535 0.953501 -1.45548 0
M  V30 4054 O 400.711 0.931735 -1.78552 0
M  V30 4055 C 397.776 1.30193 -3.21326 0
M  V30 4056 C 396.837 0.620129 -4.24797 0
M  V30 4057 C 396.07 1.61263 -5.08753 0
M  V30 4058 O 396.293 2.84389 -4.94448 0
M  V30 4059 O 395.227 1.16013 -5.90614 0
M  V30 4060 H 399.053 -0.429932 -3.00641 0
M  V30 4061 H 396.638 -0.276346 -1.46822 0
M  V30 4062 H 398.52 1.90455 -3.75905 0
M  V30 4063 H 397.195 1.97431 -2.56521 0
M  V30 4064 H 396.102 -0.0226019 -3.74093 0
M  V30 4065 H 397.435 -0.0100493 -4.92199 0
M  V30 4066 N 399.087 1.5561 -0.249682 0
M  V30 4067 C 400.017 2.24477 0.642826 0
M  V30 4068 C 400.998 1.22601 1.17911 0
M  V30 4069 O 402.183 1.5126 1.21795 0
M  V30 4070 C 399.313 2.94638 1.83863 0
M  V30 4071 C 398.267 4.03227 1.435 0
M  V30 4072 C 397.593 4.60828 2.71186 0
M  V30 4073 C 398.893 5.18796 0.604002 0
M  V30 4074 H 400.587 2.99321 0.0685625 0
M  V30 4075 H 398.133 1.43965 0.0315363 0
M  V30 4076 H 400.086 3.41517 2.46868 0
M  V30 4077 H 398.81 2.17287 2.43832 0
M  V30 4078 H 397.469 3.57121 0.828275 0
M  V30 4079 H 397.117 3.80174 3.29358 0
M  V30 4080 H 396.817 5.34132 2.44901 0
M  V30 4081 H 398.341 5.10442 3.35084 0
M  V30 4082 H 399.755 5.61883 1.13842 0
M  V30 4083 H 398.152 5.98506 0.437097 0
M  V30 4084 H 399.222 4.83384 -0.383147 0
M  V30 4085 N 400.565 -0.0233959 1.57583 0
M  V30 4086 C 401.805 -0.71784 1.9138 0
M  V30 4087 C 402.169 -1.72216 0.848853 0
M  V30 4088 O 403.37 -2.46527 1.07134 0
M  V30 4089 C 401.641 -1.36489 3.30311 0
M  V30 4090 S 403.2 -2.0877 3.85954 0
M  V30 4091 H 400.018 -0.237676 0.670098 0
M  V30 4092 H 402.62 0.0276709 1.9548 0
M  V30 4093 H 401.324 -0.620782 4.05678 0
M  V30 4094 H 400.855 -2.14883 3.29528 0
M  V30 4095 H 402.87 -3.35988 3.65139 0
M  V30 4096 N 402.043 -1.548 -0.295768 0
M  V30 4097 C 402.973 -1.89115 -1.36959 0
M  V30 4098 C 403.954 -0.75059 -1.52644 0
M  V30 4099 O 405.139 -1.00678 -1.66065 0
M  V30 4100 C 402.269 -2.14307 -2.73295 0
M  V30 4101 C 401.223 -3.30151 -2.72368 0
M  V30 4102 C 400.549 -3.40772 -4.12042 0
M  V30 4103 C 401.849 -4.67126 -2.33646 0
M  V30 4104 H 403.543 -2.79053 -1.08488 0
M  V30 4105 H 401.089 -1.34266 -0.520443 0
M  V30 4106 H 403.042 -2.36898 -3.48507 0
M  V30 4107 H 401.766 -1.21145 -3.03301 0
M  V30 4108 H 400.425 -3.0749 -1.99613 0
M  V30 4109 H 400.073 -2.45117 -4.39234 0
M  V30 4110 H 399.773 -4.18645 -4.12322 0
M  V30 4111 H 401.297 -3.6563 -4.89027 0
M  V30 4112 H 402.711 -4.89414 -2.98575 0
M  V30 4113 H 401.108 -5.47751 -2.45129 0
M  V30 4114 H 402.178 -4.67489 -1.28772 0
M  V30 4115 N 403.521 0.559213 -1.47345 0
M  V30 4116 C 404.767 1.31843 -1.54095 0
M  V30 4117 C 405.1 1.93149 -0.201726 0
M  V30 4118 O 404.375 1.77759 0.789428 0
M  V30 4119 C 404.658 2.43006 -2.65744 0
M  V30 4120 C 404.511 1.86581 -4.09277 0
M  V30 4121 C 405.83 3.44943 -2.73318 0
M  V30 4122 H 402.949 0.478012 -0.560957 0
M  V30 4123 H 405.591 0.625977 -1.79392 0
M  V30 4124 H 403.741 3.02072 -2.44305 0
M  V30 4125 H 405.413 1.31792 -4.42073 0
M  V30 4126 H 403.656 1.17268 -4.17649 0
M  V30 4127 H 404.327 2.66933 -4.83168 0
M  V30 4128 H 406.803 2.95793 -2.92653 0
M  V30 4129 H 405.679 4.20153 -3.53218 0
M  V30 4130 H 405.94 4.03665 -1.80296 0
M  V30 4131 N 404.999 1.35443 0.805782 0
M  V30 4132 C 405.929 1.31095 1.93226 0
M  V30 4133 C 406.91 0.185244 1.69088 0
M  V30 4134 O 408.095 0.380332 1.90439 0
M  V30 4135 C 405.225 1.08299 3.29983 0
M  V30 4136 C 404.179 2.17519 3.68605 0
M  V30 4137 C 403.505 1.79887 5.03532 0
M  V30 4138 C 404.805 3.5949 3.78898 0
M  V30 4139 H 406.499 2.25352 1.97122 0
M  V30 4140 H 404.045 1.0848 0.946996 0
M  V30 4141 H 405.998 1.03897 4.08391 0
M  V30 4142 H 404.722 0.104885 3.26432 0
M  V30 4143 H 403.381 2.2102 2.92482 0
M  V30 4144 H 403.029 0.80693 4.96485 0
M  V30 4145 H 402.729 2.53001 5.30344 0
M  V30 4146 H 404.253 1.77011 5.84379 0
M  V30 4147 H 405.667 3.58307 4.47536 0
M  V30 4148 H 404.064 4.31371 4.1718 0
M  V30 4149 H 405.134 3.95584 2.80431 0
M  V30 4150 N 406.477 -1.02803 1.19454 0
M  V30 4151 C 407.725 -1.75869 0.995722 0
M  V30 4152 C 408.046 -1.89138 -0.474543 0
M  V30 4153 O 407.316 -1.42558 -1.34366 0
M  V30 4154 H 405.896 -0.651511 0.365435 0
M  V30 4155 H 408.558 -1.24004 1.50363 0
M  V30 4156 H 407.654 -2.76661 1.44447 0
M  V30 4157 N 407.956 -0.998596 -1.21925 0
M  V30 4158 C 409.181 -0.696015 -1.95372 0
M  V30 4159 C 409.606 0.733826 -1.73195 0
M  V30 4160 O 408.964 1.50242 -1.01474 0
M  V30 4161 C 409.012 -1.01466 -3.4603 0
M  V30 4162 O 408.116 -0.116415 -4.12236 0
M  V30 4163 H 407.457 -0.259938 -0.611006 0
M  V30 4164 H 409.987 -1.33711 -1.54863 0
M  V30 4165 H 409.997 -0.958855 -3.96573 0
M  V30 4166 H 408.672 -2.05653 -3.61497 0
M  V30 4167 H 407.249 -0.228193 -3.72201 0
M  V30 4168 N 409.434 1.37368 -0.772513 0
M  V30 4169 C 410.384 2.27613 -0.132823 0
M  V30 4170 C 411.368 1.46138 0.673247 0
M  V30 4171 O 412.56 1.68686 0.536095 0
M  V30 4172 C 409.689 3.35122 0.744864 0
M  V30 4173 C 408.775 4.24044 -0.0690771 0
M  V30 4174 N 409.166 4.93355 -1.1151 0
M  V30 4175 C 407.464 4.45731 0.154782 0
M  V30 4176 C 408.165 5.59 -1.60917 0
M  V30 4177 N 407.141 5.35737 -0.921222 0
M  V30 4178 H 410.943 2.78675 -0.933681 0
M  V30 4179 H 408.457 1.50494 -0.610342 0
M  V30 4180 H 410.454 3.98683 1.21892 0
M  V30 4181 H 409.114 2.85616 1.54446 0
M  V30 4182 H 410.125 4.95785 -1.49726 0
M  V30 4183 H 406.802 4.07096 0.926224 0
M  V30 4184 H 408.192 6.24395 -2.48153 0
M  V30 4185 N 410.912 0.523116 1.48665 0
M  V30 4186 C 411.845 -0.290518 2.26343 0
M  V30 4187 C 412.823 -0.950913 1.31895 0
M  V30 4188 O 414.007 -0.976662 1.61225 0
M  V30 4189 C 411.134 -1.41088 3.07915 0
M  V30 4190 C 410.18 -0.862597 4.17686 0
M  V30 4191 S 411.013 0.264135 5.34848 0
M  V30 4192 C 412.169 -0.858864 6.19979 0
M  V30 4193 H 412.402 0.368726 2.95005 0
M  V30 4194 H 409.935 0.30878 1.51281 0
M  V30 4195 H 411.893 -2.0527 3.55492 0
M  V30 4196 H 410.554 -2.04182 2.38681 0
M  V30 4197 H 409.747 -1.70287 4.74361 0
M  V30 4198 H 409.349 -0.297595 3.72814 0
M  V30 4199 H 411.641 -1.7591 6.54264 0
M  V30 4200 H 412.584 -0.330244 7.07329 0
M  V30 4201 H 412.992 -1.13617 5.52948 0
M  V30 4202 N 412.39 -1.55475 0.257931 0
M  V30 4203 C 413.636 -1.99502 -0.364266 0
M  V30 4204 C 413.969 -1.146 -1.56782 0
M  V30 4205 O 413.244 -0.211968 -1.93342 0
M  V30 4206 C 413.527 -3.51917 -0.763333 0
M  V30 4207 C 413.38 -4.4758 0.446371 0
M  V30 4208 C 414.699 -4.09742 -1.60623 0
M  V30 4209 H 411.818 -0.725277 -0.130929 0
M  V30 4210 H 414.46 -1.8653 0.361446 0
M  V30 4211 H 412.61 -3.63101 -1.38166 0
M  V30 4212 H 414.282 -4.48362 1.08487 0
M  V30 4213 H 412.525 -4.19947 1.08753 0
M  V30 4214 H 413.196 -5.51862 0.123645 0
M  V30 4215 H 415.672 -4.01727 -1.08418 0
M  V30 4216 H 414.548 -5.16631 -1.85429 0
M  V30 4217 H 414.809 -3.58889 -2.58169 0
M  V30 4218 N 413.868 0.0150385 -1.57593 0
M  V30 4219 C 415.098 0.713359 -1.93894 0
M  V30 4220 C 415.506 1.68663 -0.857289 0
M  V30 4221 O 414.849 1.82876 0.173788 0
M  V30 4222 C 414.911 1.51348 -3.26089 0
M  V30 4223 C 414.575 0.703451 -4.51554 0
M  V30 4224 C 415.572 -0.00237924 -5.199 0
M  V30 4225 C 413.257 0.653854 -4.98026 0
M  V30 4226 C 415.251 -0.746955 -6.33008 0
M  V30 4227 C 412.938 -0.0944578 -6.11027 0
M  V30 4228 C 413.936 -0.793609 -6.78374 0
M  V30 4229 O 413.624 -1.52974 -7.89211 0
M  V30 4230 H 413.356 0.204637 -0.644282 0
M  V30 4231 H 415.91 -0.0276411 -2.05381 0
M  V30 4232 H 414.14 2.29862 -3.10967 0
M  V30 4233 H 415.829 2.09572 -3.47612 0
M  V30 4234 H 416.595 0.0268803 -4.84993 0
M  V30 4235 H 412.474 1.18756 -4.45441 0
M  V30 4236 H 416.018 -1.2932 -6.85509 0
M  V30 4237 H 411.915 -0.125591 -6.45378 0
M  V30 4238 H 412.683 -1.44488 -8.05646 0
M  V30 4239 N 415.346 1.54954 0.287554 0
M  V30 4240 C 416.276 1.89839 1.35954 0
M  V30 4241 C 417.257 0.758675 1.52244 0
M  V30 4242 O 418.442 1.01557 1.65529 0
M  V30 4243 C 415.572 2.15753 2.72154 0
M  V30 4244 C 414.526 3.3159 2.70614 0
M  V30 4245 C 413.852 3.42952 4.10229 0
M  V30 4246 C 415.152 4.68359 2.31165 0
M  V30 4247 H 416.846 2.79625 1.07007 0
M  V30 4248 H 414.392 1.3454 0.513316 0
M  V30 4249 H 416.345 2.38743 3.47246 0
M  V30 4250 H 415.069 1.22752 3.02654 0
M  V30 4251 H 413.728 3.08545 1.97979 0
M  V30 4252 H 413.376 2.47443 4.37928 0
M  V30 4253 H 413.076 4.20826 4.10097 0
M  V30 4254 H 414.6 3.68218 4.87081 0
M  V30 4255 H 416.014 4.9099 2.95976 0
M  V30 4256 H 414.411 5.49044 2.42221 0
M  V30 4257 H 415.481 4.68165 1.26291 0
M  V30 4258 N 416.824 -0.551391 1.4764 0
M  V30 4259 C 417.787 -1.64007 1.60107 0
M  V30 4260 C 418.787 -1.53601 0.47576 0
M  V30 4261 O 419.977 -1.57655 0.740988 0
M  V30 4262 C 417.109 -3.03569 1.55108 0
M  V30 4263 H 418.302 -1.543 2.57161 0
M  V30 4264 H 415.855 -0.771776 1.35917 0
M  V30 4265 H 416.59 -3.18804 0.594519 0
M  V30 4266 H 416.375 -3.12532 2.36783 0
M  V30 4267 H 417.865 -3.82762 1.66982 0
M  V30 4268 N 418.302 -1.35869 -0.798587 0
M  V30 4269 C 419.212 -1.31578 -1.94228 0
M  V30 4270 C 420.228 -0.21939 -1.72611 0
M  V30 4271 O 421.404 -0.450167 -1.96305 0
M  V30 4272 C 418.469 -1.09528 -3.28944 0
M  V30 4273 C 417.53 -2.28556 -3.63402 0
M  V30 4274 C 416.763 -2.07549 -4.9169 0
M  V30 4275 O 416.986 -1.046 -5.60727 0
M  V30 4276 O 415.92 -2.95106 -5.24591 0
M  V30 4277 H 419.746 -2.27847 -2.00796 0
M  V30 4278 H 417.331 -1.16322 -0.937526 0
M  V30 4279 H 419.213 -0.991127 -4.09579 0
M  V30 4280 H 417.888 -0.16315 -3.23289 0
M  V30 4281 H 416.795 -2.44538 -2.83112 0
M  V30 4282 H 418.128 -3.20244 -3.73771 0
M  V30 4283 N 419.78 1.02168 -1.19998 0
M  V30 4284 C 420.727 2.10601 -0.944228 0
M  V30 4285 C 421.697 1.65639 0.123664 0
M  V30 4286 O 422.882 1.9079 -0.0199941 0
M  V30 4287 C 420.022 3.41504 -0.496865 0
M  V30 4288 C 419.135 3.99973 -1.63234 0
M  V30 4289 C 418.27 5.18915 -1.13579 0
M  V30 4290 C 417.309 5.69456 -2.24468 0
M  V30 4291 N 416.446 6.79665 -1.76068 0
M  V30 4292 H 421.286 2.31814 -1.8726 0
M  V30 4293 H 418.823 1.13686 -0.933483 0
M  V30 4294 H 420.781 4.16626 -0.218843 0
M  V30 4295 H 419.411 3.2038 0.394508 0
M  V30 4296 H 418.463 3.21997 -2.0254 0
M  V30 4297 H 419.775 4.33492 -2.46752 0
M  V30 4298 H 418.929 6.01222 -0.813429 0
M  V30 4299 H 417.668 4.8695 -0.270434 0
M  V30 4300 H 416.673 4.85757 -2.57526 0
M  V30 4301 H 417.898 6.03459 -3.11472 0
M  V30 4302 H 415.844 6.49538 -0.918516 0
M  V30 4303 H 415.761 7.12349 -2.5317 0
M  V30 4304 H 417.029 7.65549 -1.46817 0
M  V30 4305 N 421.258 1.00505 1.21394 0
M  V30 4306 C 422.221 0.570459 2.21987 0
M  V30 4307 C 423.221 -0.353211 1.56873 0
M  V30 4308 O 424.411 -0.14349 1.73608 0
M  V30 4309 C 421.543 -0.168555 3.40483 0
M  V30 4310 H 422.736 1.46021 2.6195 0
M  V30 4311 H 420.289 0.793565 1.34656 0
M  V30 4312 H 421.024 -1.07374 3.06009 0
M  V30 4313 H 420.809 0.494823 3.88965 0
M  V30 4314 H 422.299 -0.460362 4.15055 0
M  V30 4315 N 422.737 -1.36956 0.779787 0
M  V30 4316 C 423.962 -2.04283 0.358224 0
M  V30 4317 C 424.387 -1.58422 -1.01411 0
M  V30 4318 O 423.745 -0.748179 -1.65142 0
M  V30 4319 C 423.793 -3.58152 0.419479 0
M  V30 4320 O 422.897 -4.08342 -0.577142 0
M  V30 4321 H 422.238 -0.645967 0.153698 0
M  V30 4322 H 424.768 -1.75108 1.05822 0
M  V30 4323 H 424.778 -4.07041 0.279636 0
M  V30 4324 H 423.453 -3.90886 1.42061 0
M  V30 4325 H 422.03 -3.70751 -0.399755 0
M  V30 4326 N 424.215 -0.530993 -1.48385 0
M  V30 4327 C 425.44 0.000729535 -2.074 0
M  V30 4328 C 425.865 1.27298 -1.3848 0
M  V30 4329 O 425.223 1.75599 -0.451081 0
M  V30 4330 C 425.271 0.206697 -3.60007 0
M  V30 4331 O 424.375 1.27514 -3.92191 0
M  V30 4332 H 423.716 -0.039583 -0.662819 0
M  V30 4333 H 426.246 -0.739194 -1.9078 0
M  V30 4334 H 426.256 0.42904 -4.05738 0
M  V30 4335 H 424.931 -0.722675 -4.09573 0
M  V30 4336 H 423.508 1.03537 -3.58238 0
M  V30 4337 N 425.693 1.55336 -0.266172 0
M  V30 4338 C 426.623 2.25146 0.618981 0
M  V30 4339 C 427.604 1.23845 1.16604 0
M  V30 4340 O 428.789 1.52544 1.20183 0
M  V30 4341 C 425.919 2.96572 1.80728 0
M  V30 4342 C 424.873 4.04726 1.39215 0
M  V30 4343 C 424.199 4.63678 2.66283 0
M  V30 4344 C 425.499 5.19407 0.548942 0
M  V30 4345 H 427.193 2.99377 0.0368116 0
M  V30 4346 H 424.739 1.43991 0.0162651 0
M  V30 4347 H 426.692 3.44116 2.43232 0
M  V30 4348 H 425.416 2.19861 2.41514 0
M  V30 4349 H 424.075 3.57979 0.790351 0
M  V30 4350 H 423.723 3.83646 3.25308 0
M  V30 4351 H 423.423 5.367 2.39222 0
M  V30 4352 H 424.947 5.13967 3.29651 0
M  V30 4353 H 426.361 5.63059 1.07876 0
M  V30 4354 H 424.758 5.98936 0.373593 0
M  V30 4355 H 425.828 4.8295 -0.434394 0
M  V30 4356 N 427.171 -0.0066808 1.57599 0
M  V30 4357 C 428.081 -1.01671 2.11424 0
M  V30 4358 C 429.097 -1.38143 1.05795 0
M  V30 4359 O 430.273 -1.47011 1.37658 0
M  V30 4360 C 427.338 -2.29192 2.60139 0
M  V30 4361 C 426.399 -1.99094 3.80342 0
M  V30 4362 C 425.632 -3.20535 4.26724 0
M  V30 4363 O 425.855 -4.3199 3.72479 0
M  V30 4364 O 424.789 -3.04924 5.18946 0
M  V30 4365 H 428.615 -0.589181 2.9793 0
M  V30 4366 H 426.2 -0.225091 1.47695 0
M  V30 4367 H 428.082 -3.0412 2.917 0
M  V30 4368 H 426.757 -2.71195 1.76733 0
M  V30 4369 H 425.664 -1.21663 3.53764 0
M  V30 4370 H 426.997 -1.61931 4.648 0
M  V30 4371 N 428.649 -1.55105 -0.279332 0
M  V30 4372 C 429.559 -1.90638 -1.36727 0
M  V30 4373 C 430.575 -0.802899 -1.54368 0
M  V30 4374 O 431.751 -1.10138 -1.68616 0
M  V30 4375 C 428.816 -2.16547 -2.70755 0
M  V30 4376 C 427.877 -3.40146 -2.61915 0
M  V30 4377 C 427.11 -3.6481 -3.8955 0
M  V30 4378 O 427.333 -2.92095 -4.89935 0
M  V30 4379 O 426.267 -4.58343 -3.90135 0
M  V30 4380 H 430.093 -2.83237 -1.09591 0
M  V30 4381 H 427.678 -1.4157 -0.477306 0
M  V30 4382 H 429.56 -2.34665 -3.50014 0
M  V30 4383 H 428.235 -1.27131 -2.9769 0
M  V30 4384 H 427.142 -3.2737 -1.81052 0
M  V30 4385 H 428.475 -4.29761 -2.3993 0
M  V30 4386 N 430.127 0.543554 -1.4793 0
M  V30 4387 C 431.09 1.63156 -1.60975 0
M  V30 4388 C 432.09 1.53346 -0.483899 0
M  V30 4389 O 433.28 1.5726 -0.749339 0
M  V30 4390 C 430.412 3.02743 -1.56716 0
M  V30 4391 H 431.605 1.52934 -2.57975 0
M  V30 4392 H 429.158 0.764557 -1.36324 0
M  V30 4393 H 429.893 3.18484 -0.611418 0
M  V30 4394 H 429.678 3.11272 -2.38438 0
M  V30 4395 H 431.168 3.81871 -1.6901 0
M  V30 4396 N 431.605 1.3629 0.791371 0
M  V30 4397 C 433.021 1.16661 1.08914 0
M  V30 4398 C 433.221 -0.0106266 2.01497 0
M  V30 4399 O 432.277 -0.676596 2.43266 0
M  V30 4400 C 433.59 2.47656 1.70549 0
M  V30 4401 C 435.138 2.54002 1.82899 0
M  V30 4402 C 435.613 3.85078 2.47949 0
M  V30 4403 N 437.104 3.86413 2.5542 0
M  V30 4404 C 437.839 4.84572 3.06557 0
M  V30 4405 N 437.335 5.93124 3.58016 0
M  V30 4406 N 439.128 4.71994 3.05251 0
M  V30 4407 H 431.279 2.11668 0.176238 0
M  V30 4408 H 433.542 0.937486 0.140796 0
M  V30 4409 H 433.248 3.34059 1.09989 0
M  V30 4410 H 433.122 2.63319 2.70079 0
M  V30 4411 H 435.509 1.68018 2.42598 0
M  V30 4412 H 435.59 2.42239 0.821808 0
M  V30 4413 H 435.234 4.71467 1.88895 0
M  V30 4414 H 435.164 3.94135 3.49235 0
M  V30 4415 H 437.655 3.07988 2.18979 0
M  V30 4416 H 437.968 6.63999 3.95381 0
M  V30 4417 H 436.313 5.96796 3.56173 0
M  V30 4418 H 439.504 3.86321 2.64336 0
M  V30 4419 H 439.677 5.48653 3.44796 0
M  V30 4420 N 433.083 -1.0153 1.20538 0
M  V30 4421 C 434.033 -2.08482 0.922991 0
M  V30 4422 C 435.017 -1.60469 -0.117702 0
M  V30 4423 O 436.209 -1.76772 0.0898465 0
M  V30 4424 C 433.338 -3.39952 0.478312 0
M  V30 4425 C 432.424 -3.94662 1.5525 0
M  V30 4426 N 432.815 -4.22866 2.77521 0
M  V30 4427 C 431.113 -4.22825 1.41897 0
M  V30 4428 C 431.814 -4.67002 3.4682 0
M  V30 4429 N 430.79 -4.69356 2.74237 0
M  V30 4430 H 434.592 -2.28199 1.85209 0
M  V30 4431 H 432.106 -1.19512 1.09957 0
M  V30 4432 H 434.103 -4.16105 0.257408 0
M  V30 4433 H 432.763 -3.21648 -0.444148 0
M  V30 4434 H 433.774 -4.11732 3.1416 0
M  V30 4435 H 430.451 -4.13714 0.561015 0
M  V30 4436 H 431.841 -4.97632 4.51455 0
M  V30 4437 N 434.561 -1.01147 -1.20859 0
M  V30 4438 C 435.494 -0.522108 -2.22147 0
M  V30 4439 C 436.472 0.427686 -1.56874 0
M  V30 4440 O 437.656 0.34889 -1.85243 0
M  V30 4441 C 434.783 0.240819 -3.37843 0
M  V30 4442 C 433.829 -0.657752 -4.21398 0
M  V30 4443 S 434.662 -2.12393 -4.91578 0
M  V30 4444 C 435.818 -1.37102 -6.10699 0
M  V30 4445 H 436.051 -1.38035 -2.63313 0
M  V30 4446 H 433.584 -0.819941 -1.30829 0
M  V30 4447 H 435.542 0.674908 -4.04914 0
M  V30 4448 H 434.203 1.07457 -2.95147 0
M  V30 4449 H 433.396 -0.0697456 -5.03952 0
M  V30 4450 H 432.998 -1.0294 -3.59555 0
M  V30 4451 H 435.29 -0.648315 -6.74391 0
M  V30 4452 H 436.233 -2.17252 -6.73949 0
M  V30 4453 H 436.641 -0.876154 -5.57659 0
M  V30 4454 N 436.039 1.36541 -0.78704 0
M  V30 4455 C 436.969 2.32659 -0.197992 0
M  V30 4456 C 437.95 1.56533 0.665697 0
M  V30 4457 O 439.135 1.84698 0.60001 0
M  V30 4458 C 436.265 3.40778 0.669901 0
M  V30 4459 C 435.219 4.27897 -0.0937039 0
M  V30 4460 C 434.545 5.27163 0.894629 0
M  V30 4461 C 435.845 5.06334 -1.28154 0
M  V30 4462 H 437.539 2.82171 -1.00099 0
M  V30 4463 H 435.085 1.35665 -0.482793 0
M  V30 4464 H 437.038 4.07008 1.09191 0
M  V30 4465 H 435.762 2.89827 1.50558 0
M  V30 4466 H 434.421 3.6322 -0.49666 0
M  V30 4467 H 434.069 4.72486 1.72527 0
M  V30 4468 H 433.769 5.86317 0.388149 0
M  V30 4469 H 435.293 5.96266 1.31525 0
M  V30 4470 H 436.707 5.65617 -0.93541 0
M  V30 4471 H 435.104 5.74888 -1.72115 0
M  V30 4472 H 436.174 4.38114 -2.07807 0
M  V30 4473 N 437.518 0.538854 1.48102 0
M  V30 4474 C 438.428 -0.222648 2.33541 0
M  V30 4475 C 439.444 -0.930225 1.47047 0
M  V30 4476 O 440.62 -0.903211 1.80011 0
M  V30 4477 C 437.685 -1.25064 3.23357 0
M  V30 4478 C 436.746 -0.552469 4.2573 0
M  V30 4479 C 435.979 -1.53149 5.11254 0
M  V30 4480 O 436.202 -2.76487 4.9891 0
M  V30 4481 O 435.136 -1.06602 5.92385 0
M  V30 4482 H 438.962 0.477707 2.99919 0
M  V30 4483 H 436.547 0.299669 1.46364 0
M  V30 4484 H 438.429 -1.8445 3.78888 0
M  V30 4485 H 437.104 -1.93325 2.59629 0
M  V30 4486 H 436.011 0.082114 3.7401 0
M  V30 4487 H 437.344 0.0883526 4.92121 0
M  V30 4488 N 438.996 -1.55193 0.274407 0
M  V30 4489 C 439.943 -2.225 -0.613374 0
M  V30 4490 C 440.913 -1.19823 -1.15029 0
M  V30 4491 O 442.098 -1.48362 -1.19973 0
M  V30 4492 C 439.238 -2.94927 -1.79199 0
M  V30 4493 C 438.351 -4.12322 -1.28899 0
M  V30 4494 C 437.486 -4.72394 -2.42934 0
M  V30 4495 C 436.525 -5.81984 -1.89634 0
M  V30 4496 N 435.662 -6.36123 -2.9714 0
M  V30 4497 H 440.502 -2.97982 -0.032756 0
M  V30 4498 H 438.039 -1.47099 -0.00440146 0
M  V30 4499 H 439.997 -3.35134 -2.48478 0
M  V30 4500 H 438.627 -2.2187 -2.34465 0
M  V30 4501 H 437.679 -3.7724 -0.489327 0
M  V30 4502 H 438.991 -4.91355 -0.858587 0
M  V30 4503 H 438.145 -5.15317 -3.20208 0
M  V30 4504 H 436.884 -3.92636 -2.8929 0
M  V30 4505 H 435.889 -5.38511 -1.1084 0
M  V30 4506 H 437.114 -6.6361 -1.44215 0
M  V30 4507 H 435.06 -5.59259 -3.42878 0
M  V30 4508 H 434.977 -7.10427 -2.58515 0
M  V30 4509 H 436.245 -6.83704 -3.74391 0
M  V30 4510 N 440.474 -0.00167713 -1.576 0
M  V30 4511 C 441.437 0.974046 -2.07473 0
M  V30 4512 C 442.437 1.27143 -0.984444 0
M  V30 4513 O 443.627 1.21633 -1.24703 0
M  V30 4514 C 440.759 2.29849 -2.51759 0
M  V30 4515 H 441.952 0.54262 -2.9495 0
M  V30 4516 H 439.505 0.245829 -1.54355 0
M  V30 4517 H 440.24 2.77677 -1.67529 0
M  V30 4518 H 440.025 2.09584 -3.31386 0
M  V30 4519 H 441.515 2.9984 -2.90664 0
M  V30 4520 N 441.952 1.55251 0.271103 0
M  V30 4521 C 442.885 1.83191 1.36075 0
M  V30 4522 C 443.863 0.685091 1.47463 0
M  V30 4523 O 445.047 0.928292 1.64058 0
M  V30 4524 C 442.174 1.99521 2.73696 0
M  V30 4525 C 441.22 3.22081 2.79582 0
M  V30 4526 S 442.053 4.79388 2.38636 0
M  V30 4527 C 443.209 4.98693 3.78228 0
M  V30 4528 H 443.442 2.75327 1.12171 0
M  V30 4529 H 440.975 1.47046 0.470833 0
M  V30 4530 H 442.933 2.09613 3.52948 0
M  V30 4531 H 441.594 1.0827 2.9485 0
M  V30 4532 H 440.787 3.304 3.80594 0
M  V30 4533 H 440.389 3.10589 2.08352 0
M  V30 4534 H 442.681 4.84551 4.73515 0
M  V30 4535 H 443.624 6.00738 3.7486 0
M  V30 4536 H 444.032 4.26665 3.69618 0
M  V30 4537 N 443.43 -0.535701 1.48216 0
M  V30 4538 C 444.377 -1.64083 1.62312 0
M  V30 4539 C 445.347 -1.59448 0.465365 0
M  V30 4540 O 446.532 -1.77959 0.688135 0
M  V30 4541 C 443.672 -3.0236 1.66349 0
M  V30 4542 C 442.785 -3.17273 2.93193 0
M  V30 4543 C 441.92 -4.46075 2.88427 0
M  V30 4544 C 440.959 -4.54496 4.1 0
M  V30 4545 N 440.096 -5.7468 4.03345 0
M  V30 4546 H 444.936 -1.51374 2.5669 0
M  V30 4547 H 442.473 -0.737059 1.27302 0
M  V30 4548 H 444.431 -3.82461 1.66672 0
M  V30 4549 H 443.061 -3.13854 0.754672 0
M  V30 4550 H 442.113 -2.30462 3.02641 0
M  V30 4551 H 443.425 -3.19357 3.83162 0
M  V30 4552 H 442.579 -5.3446 2.87119 0
M  V30 4553 H 441.318 -4.46504 1.96177 0
M  V30 4554 H 440.323 -3.64519 4.11589 0
M  V30 4555 H 441.548 -4.5581 5.03402 0
M  V30 4556 H 439.494 -5.76017 3.13912 0
M  V30 4557 H 439.411 -5.78234 4.87013 0
M  V30 4558 H 440.679 -6.65367 4.06087 0
M  V30 4559 N 444.908 -1.36708 -0.784132 0
M  V30 4560 C 446.185 -1.21776 -1.53069 0
M  V30 4561 C 446.565 0.193876 -2.10208 0
M  V30 4562 O 445.913 1.20012 -1.94446 0
M  V30 4563 C 446.123 -2.30395 -2.62143 0
M  V30 4564 C 447.471 -2.67325 -3.29882 0
M  V30 4565 O 448.495 -2.29478 -2.7243 0
M  V30 4566 O 447.354 -3.32485 -4.33724 0
M  V30 4567 H 444.448 -0.474459 -0.677361 0
M  V30 4568 H 446.994 -1.48454 -0.82216 0
M  V30 4569 H 445.766 -3.2498 -2.17953 0
M  V30 4570 H 445.389 -2.05112 -3.40609 0
M  V30 4571 N 446.386 1.0089 -1.21074 0
M  V30 4572 C 447.634 1.74262 -1.02358 0
M  V30 4573 C 447.955 1.89869 0.444393 0
M  V30 4574 O 447.225 1.44677 1.32081 0
M  V30 4575 H 445.805 0.645615 -0.375754 0
M  V30 4576 H 448.467 1.21596 -1.52317 0
M  V30 4577 H 447.563 2.74328 -1.4883 0
M  V30 4578 N 447.864 1.01787 1.20321 0
M  V30 4579 C 449.089 0.727009 1.9424 0
M  V30 4580 C 449.514 -0.706179 1.74341 0
M  V30 4581 O 448.872 -1.48609 1.03852 0
M  V30 4582 C 448.92 1.06958 3.44372 0
M  V30 4583 O 448.024 0.181983 4.11998 0
M  V30 4584 H 447.365 0.269626 0.606793 0
M  V30 4585 H 449.895 1.36158 1.52716 0
M  V30 4586 H 449.905 1.02182 3.94997 0
M  V30 4587 H 448.58 2.11378 3.58179 0
M  V30 4588 H 447.157 0.287378 3.71791 0
M  V30 4589 N 449.342 -1.36122 0.79427 0
M  V30 4590 C 450.305 -2.28309 0.201889 0
M  V30 4591 C 451.305 -1.49041 -0.603603 0
M  V30 4592 O 452.495 -1.68964 -0.423888 0
M  V30 4593 C 449.627 -3.3321 -0.719978 0
M  V30 4594 H 450.82 -2.82208 1.01481 0
M  V30 4595 H 448.373 -1.45768 0.564037 0
M  V30 4596 H 449.108 -2.84475 -1.55706 0
M  V30 4597 H 448.893 -3.91835 -0.144266 0
M  V30 4598 H 450.383 -4.02044 -1.12916 0
M  V30 4599 N 450.82 -0.546701 -1.47814 0
M  V30 4600 C 451.75 0.195317 -2.32682 0
M  V30 4601 C 452.731 0.918981 -1.43139 0
M  V30 4602 O 453.916 0.901501 -1.72008 0
M  V30 4603 C 451.046 1.23237 -3.247 0
M  V30 4604 C 450 0.625818 -4.234 0
M  V30 4605 C 449.326 1.76674 -5.04669 0
M  V30 4606 C 450.626 -0.413515 -5.2066 0
M  V30 4607 H 452.32 -0.513184 -2.94969 0
M  V30 4608 H 449.866 -0.248241 -1.41844 0
M  V30 4609 H 451.819 1.75955 -3.82907 0
M  V30 4610 H 450.543 1.97067 -2.60446 0
M  V30 4611 H 449.202 0.120023 -3.66403 0
M  V30 4612 H 448.85 2.49383 -4.36826 0
M  V30 4613 H 448.55 1.36673 -5.71484 0
M  V30 4614 H 450.074 2.29738 -5.65732 0
M  V30 4615 H 451.488 0.0272042 -5.73294 0
M  V30 4616 H 449.885 -0.731825 -5.95621 0
M  V30 4617 H 450.955 -1.31325 -4.66778 0
M  V30 4618 N 452.299 1.55045 -0.282633 0
M  V30 4619 C 453.231 2.2023 0.634924 0
M  V30 4620 C 454.244 1.18931 1.11172 0
M  V30 4621 O 455.433 1.4562 1.03233 0
M  V30 4622 C 452.533 2.82041 1.87899 0
M  V30 4623 C 451.706 4.091 1.54776 0
M  V30 4624 C 450.765 4.54887 2.64507 0
M  V30 4625 O 449.791 5.20496 2.30375 0
M  V30 4626 N 450.993 4.25659 3.94709 0
M  V30 4627 H 453.758 2.99601 0.0769811 0
M  V30 4628 H 451.319 1.61565 -0.104048 0
M  V30 4629 H 453.311 3.09613 2.60619 0
M  V30 4630 H 451.881 2.06618 2.3458 0
M  V30 4631 H 451.101 3.88736 0.654049 0
M  V30 4632 H 452.389 4.9187 1.30158 0
M  V30 4633 H 451.787 3.7306 4.25256 0
M  V30 4634 H 450.344 4.57984 4.63782 0
M  V30 4635 N 453.777 0.010035 1.57597 0
M  V30 4636 C 455.005 -0.683413 1.95287 0
M  V30 4637 C 455.42 -1.66747 0.885481 0
M  V30 4638 O 454.777 -1.82003 -0.134629 0
M  V30 4639 C 454.828 -1.40652 3.33015 0
M  V30 4640 O 454.549 -0.461916 4.35658 0
M  V30 4641 C 456.05 -2.19356 3.85225 0
M  V30 4642 H 453.27 -0.189708 0.643624 0
M  V30 4643 H 455.814 0.0641359 2.04399 0
M  V30 4644 H 453.969 -2.10562 3.2518 0
M  V30 4645 H 454.383 -0.973215 5.15392 0
M  V30 4646 H 455.857 -2.65433 4.83993 0
M  V30 4647 H 456.334 -3.02457 3.18459 0
M  V30 4648 H 456.94 -1.54442 3.96267 0
M  V30 4649 N 455.255 -1.55392 -0.262866 0
M  V30 4650 C 456.502 -1.76476 -0.993109 0
M  V30 4651 C 456.83 -0.571479 -1.85915 0
M  V30 4652 O 456.085 0.445733 -1.90556 0
M  V30 4653 C 456.384 -3.02889 -1.89718 0
M  V30 4654 C 456.05 -4.34974 -1.18781 0
M  V30 4655 C 454.712 -4.7087 -0.991699 0
M  V30 4656 C 457.064 -5.16695 -0.683798 0
M  V30 4657 C 454.392 -5.86036 -0.279024 0
M  V30 4658 C 456.744 -6.32598 0.0153327 0
M  V30 4659 C 455.408 -6.67127 0.223062 0
M  V30 4660 H 454.678 -0.64577 -0.363404 0
M  V30 4661 H 457.325 -1.89664 -0.264525 0
M  V30 4662 H 455.63 -2.84644 -2.6923 0
M  V30 4663 H 457.327 -3.16399 -2.46359 0
M  V30 4664 H 453.917 -4.06765 -1.35058 0
M  V30 4665 H 458.101 -4.8943 -0.8229 0
M  V30 4666 H 453.357 -6.11306 -0.107456 0
M  V30 4667 H 457.531 -6.95171 0.413584 0
M  V30 4668 H 455.158 -7.56216 0.777265 0
M  V30 4669 N 456.733 0.527833 -1.48498 0
M  V30 4670 C 457.68 1.6322 -1.6318 0
M  V30 4671 C 458.65 1.59199 -0.473815 0
M  V30 4672 O 459.835 1.77591 -0.697563 0
M  V30 4673 C 456.975 3.01474 -1.67951 0
M  V30 4674 C 456.088 3.15713 -2.94871 0
M  V30 4675 C 455.223 4.44539 -2.90789 0
M  V30 4676 C 454.262 4.52315 -4.12404 0
M  V30 4677 N 453.399 5.72533 -4.06387 0
M  V30 4678 H 458.239 1.50011 -2.57489 0
M  V30 4679 H 455.776 0.730298 -1.27691 0
M  V30 4680 H 457.734 3.81572 -1.68698 0
M  V30 4681 H 456.364 3.1345 -0.771306 0
M  V30 4682 H 455.416 2.28854 -3.03859 0
M  V30 4683 H 456.728 3.1732 -3.8485 0
M  V30 4684 H 455.882 5.3293 -2.89949 0
M  V30 4685 H 454.621 4.45457 -1.98542 0
M  V30 4686 H 453.626 3.62331 -4.13517 0
M  V30 4687 H 454.851 4.53134 -5.05812 0
M  V30 4688 H 452.797 5.74344 -3.16962 0
M  V30 4689 H 452.714 5.75643 -4.90073 0
M  V30 4690 H 453.982 6.63204 -4.0961 0
M  V30 4691 N 458.211 1.37122 0.776871 0
M  V30 4692 C 459.439 1.3523 1.5659 0
M  V30 4693 C 459.854 -0.0635518 1.88693 0
M  V30 4694 O 459.211 -1.02394 1.51069 0
M  V30 4695 C 459.262 2.18583 2.8793 0
M  V30 4696 O 458.983 3.5465 2.57206 0
M  V30 4697 C 460.484 2.24612 3.82183 0
M  V30 4698 H 457.704 0.4634 0.485285 0
M  V30 4699 H 460.248 1.80392 0.963266 0
M  V30 4700 H 458.403 1.76943 3.4463 0
M  V30 4701 H 458.817 3.98286 3.41275 0
M  V30 4702 H 460.291 2.87267 4.71361 0
M  V30 4703 H 460.768 1.25309 4.20944 0
M  V30 4704 H 461.374 2.66543 3.31414 0
M  V30 4705 N 459.689 -1.00246 1.21608 0
M  V30 4706 C 460.936 -1.74061 1.03485 0
M  V30 4707 C 461.264 -1.89658 -0.431308 0
M  V30 4708 O 460.519 -1.42976 -1.33627 0
M  V30 4709 C 460.818 -3.15448 1.68009 0
M  V30 4710 C 460.484 -3.19792 3.17874 0
M  V30 4711 C 459.146 -3.20685 3.58768 0
M  V30 4712 C 461.498 -3.16835 4.13842 0
M  V30 4713 C 458.826 -3.16309 4.94131 0
M  V30 4714 C 461.178 -3.14001 5.49169 0
M  V30 4715 C 459.842 -3.13204 5.89457 0
M  V30 4716 H 459.112 -0.636934 0.378677 0
M  V30 4717 H 461.759 -1.17473 1.51236 0
M  V30 4718 H 460.064 -3.75284 1.12557 0
M  V30 4719 H 461.761 -3.71285 1.51487 0
M  V30 4720 H 458.351 -3.19842 2.85305 0
M  V30 4721 H 462.535 -3.15303 3.83272 0
M  V30 4722 H 457.791 -3.14032 5.24589 0
M  V30 4723 H 461.965 -3.10667 6.23265 0
M  V30 4724 H 459.592 -3.09568 6.94314 0
M  V30 4725 N 461.167 -1.02423 -1.1978 0
M  V30 4726 C 462.097 -0.62157 -2.25075 0
M  V30 4727 C 463.078 0.367148 -1.6609 0
M  V30 4728 O 464.263 0.250892 -1.92573 0
M  V30 4729 C 461.393 0.0331826 -3.47284 0
M  V30 4730 C 460.347 -0.877323 -4.18912 0
M  V30 4731 C 459.673 -0.0879296 -5.34628 0
M  V30 4732 C 460.973 -2.18892 -4.74219 0
M  V30 4733 H 462.667 -1.50179 -2.59011 0
M  V30 4734 H 460.213 -0.723547 -1.24502 0
M  V30 4735 H 462.166 0.326488 -4.20133 0
M  V30 4736 H 460.89 0.948164 -3.12534 0
M  V30 4737 H 459.549 -1.15475 -3.47938 0
M  V30 4738 H 459.197 0.828941 -4.96123 0
M  V30 4739 H 458.897 -0.694359 -5.83483 0
M  V30 4740 H 460.421 0.198743 -6.10276 0
M  V30 4741 H 461.835 -1.95746 -5.38847 0
M  V30 4742 H 460.232 -2.74686 -5.33542 0
M  V30 4743 H 461.302 -2.84674 -3.92541 0
M  V30 4744 N 462.645 1.35699 -0.801477 0
M  V30 4745 C 463.608 2.28199 -0.213994 0
M  V30 4746 C 464.608 1.49359 0.595691 0
M  V30 4747 O 465.798 1.69186 0.414921 0
M  V30 4748 C 462.93 3.33587 0.702297 0
M  V30 4749 H 464.123 2.81666 -1.02976 0
M  V30 4750 H 461.676 1.45467 -0.571759 0
M  V30 4751 H 462.411 2.85297 1.54195 0
M  V30 4752 H 462.196 3.91906 0.123484 0
M  V30 4753 H 463.686 4.02638 1.10783 0
M  V30 4754 N 464.123 0.554532 1.47522 0
M  V30 4755 C 465.086 -0.184174 2.28459 0
M  V30 4756 C 466.086 -0.845195 1.36796 0
M  V30 4757 O 467.276 -0.701467 1.59452 0
M  V30 4758 C 464.408 -1.26903 3.16399 0
M  V30 4759 H 465.601 0.526751 2.95238 0
M  V30 4760 H 463.154 0.311375 1.53167 0
M  V30 4761 H 463.889 -2.01244 2.54306 0
M  V30 4762 H 463.674 -0.799883 3.83854 0
M  V30 4763 H 465.164 -1.78794 3.77389 0
M  V30 4764 N 465.601 -1.54893 0.290851 0
M  V30 4765 C 466.533 -2.20564 -0.623236 0
M  V30 4766 C 467.546 -1.19519 -1.1054 0
M  V30 4767 O 468.735 -1.46165 -1.02459 0
M  V30 4768 C 465.835 -2.83033 -1.86401 0
M  V30 4769 C 465.008 -4.09916 -1.52604 0
M  V30 4770 C 464.067 -4.56284 -2.62091 0
M  V30 4771 O 463.093 -5.2171 -2.27612 0
M  V30 4772 N 464.295 -4.27746 -3.92446 0
M  V30 4773 H 467.06 -2.99638 -0.0610915 0
M  V30 4774 H 464.621 -1.61508 0.112615 0
M  V30 4775 H 466.613 -3.1099 -2.58973 0
M  V30 4776 H 465.183 -2.0786 -2.33481 0
M  V30 4777 H 464.403 -3.89078 -0.633424 0
M  V30 4778 H 465.691 -4.92554 -1.27547 0
M  V30 4779 H 465.089 -3.7531 -4.23272 0
M  V30 4780 H 463.646 -4.60437 -4.61347 0
M  V30 4781 N 467.08 -0.0183926 -1.57589 0
M  V30 4782 C 468.328 0.661253 -1.90976 0
M  V30 4783 C 468.649 1.73281 -0.894353 0
M  V30 4784 O 467.919 1.9579 0.0656788 0
M  V30 4785 H 466.499 0.247233 -0.704901 0
M  V30 4786 H 469.161 -0.0636639 -1.94796 0
M  V30 4787 H 468.257 1.12083 -2.9128 0
M  V30 4788 N 468.558 1.5553 0.254621 0
M  V30 4789 C 469.806 1.7665 0.981793 0
M  V30 4790 C 470.127 0.580963 1.86145 0
M  V30 4791 O 469.397 -0.403537 1.91699 0
M  V30 4792 H 467.977 0.651475 0.365498 0
M  V30 4793 H 470.639 1.92958 0.274426 0
M  V30 4794 H 469.735 2.67486 1.60802 0
M  V30 4795 N 470.036 -0.519951 1.48776 0
M  V30 4796 C 471.313 -1.28123 1.47797 0
M  V30 4797 C 471.693 -2.10196 0.195157 0
M  V30 4798 O 471.041 -2.13167 -0.822925 0
M  V30 4799 C 471.251 -2.15413 2.74587 0
M  V30 4800 C 472.599 -2.75225 3.23321 0
M  V30 4801 O 473.623 -2.25694 2.75574 0
M  V30 4802 O 472.482 -3.65346 4.06429 0
M  V30 4803 H 469.576 -0.578793 0.590701 0
M  V30 4804 H 472.122 -0.535779 1.6102 0
M  V30 4805 H 470.894 -1.54617 3.59457 0
M  V30 4806 H 470.517 -2.97186 2.64132 0
M  V30 4807 N 471.514 -1.37532 -0.769588 0
M  V30 4808 C 472.477 -1.33292 -1.86456 0
M  V30 4809 C 473.477 -0.236537 -1.59051 0
M  V30 4810 O 474.667 -0.492511 -1.67093 0
M  V30 4811 C 471.799 -1.07118 -3.23633 0
M  V30 4812 H 472.992 -2.30692 -1.91628 0
M  V30 4813 H 470.545 -1.22593 -0.969572 0
M  V30 4814 H 471.28 -0.102578 -3.24138 0
M  V30 4815 H 471.065 -1.86479 -3.44917 0
M  V30 4816 H 472.555 -1.06806 -4.03711 0
M  V30 4817 N 472.992 0.995999 -1.22138 0
M  V30 4818 C 474.217 1.77601 -1.0711 0
M  V30 4819 C 474.642 1.84339 0.374264 0
M  V30 4820 O 474 1.29359 1.27028 0
M  V30 4821 C 474.048 3.18897 -1.68336 0
M  V30 4822 O 473.152 4.01663 -0.934928 0
M  V30 4823 H 472.493 0.547011 -0.376397 0
M  V30 4824 H 475.023 1.25137 -1.6187 0
M  V30 4825 H 475.033 3.69539 -1.72931 0
M  V30 4826 H 473.708 3.13308 -2.73516 0
M  V30 4827 H 472.285 3.60204 -0.964751 0
M  V30 4828 N 474.47 1.03057 1.19235 0
M  V30 4829 C 475.716 0.729098 1.89241 0
M  V30 4830 C 476.049 -0.740573 1.79525 0
M  V30 4831 O 475.324 -1.53946 1.18874 0
M  V30 4832 C 475.607 1.18304 3.40112 0
M  V30 4833 C 475.46 2.71406 3.5869 0
M  V30 4834 C 476.779 0.765161 4.33397 0
M  V30 4835 H 473.898 0.266338 0.687192 0
M  V30 4836 H 476.54 1.28079 1.40341 0
M  V30 4837 H 474.69 0.713672 3.81889 0
M  V30 4838 H 476.362 3.26303 3.26074 0
M  V30 4839 H 474.605 3.11717 3.01687 0
M  V30 4840 H 475.276 2.98225 4.64506 0
M  V30 4841 H 477.752 1.16889 3.99345 0
M  V30 4842 H 476.628 1.11065 5.37546 0
M  V30 4843 H 476.889 -0.332372 4.40849 0
M  V30 4844 N 475.948 -1.35272 0.808662 0
M  V30 4845 C 477.194 -1.99003 0.390581 0
M  V30 4846 C 477.527 -1.63999 -1.0401 0
M  V30 4847 O 476.802 -0.904368 -1.72196 0
M  V30 4848 C 477.085 -3.55454 0.576566 0
M  V30 4849 C 476.938 -4.00249 2.05233 0
M  V30 4850 C 478.257 -4.401 0.00354277 0
M  V30 4851 H 475.376 -0.722917 0.143388 0
M  V30 4852 H 478.018 -1.6039 1.01858 0
M  V30 4853 H 476.168 -3.88477 0.0419766 0
M  V30 4854 H 477.84 -3.77626 2.64946 0
M  V30 4855 H 476.083 -3.51082 2.54801 0
M  V30 4856 H 476.754 -5.0911 2.13333 0
M  V30 4857 H 479.23 -4.13548 0.460117 0
M  V30 4858 H 478.106 -5.48656 0.163575 0
M  V30 4859 H 478.367 -4.28444 -1.09032 0
M  V30 4860 N 477.426 -0.562348 -1.47226 0
M  V30 4861 C 478.703 0.0256985 -1.95583 0
M  V30 4862 C 479.083 1.48032 -1.50498 0
M  V30 4863 O 478.431 2.15973 -0.746181 0
M  V30 4864 C 478.641 -0.125129 -3.48776 0
M  V30 4865 C 479.989 0.0175728 -4.24596 0
M  V30 4866 O 481.013 -0.0529341 -3.56161 0
M  V30 4867 O 479.872 0.170145 -5.46235 0
M  V30 4868 H 476.966 0.0612565 -0.824728 0
M  V30 4869 H 479.512 -0.629233 -1.57603 0
M  V30 4870 H 478.284 -1.13715 -3.74412 0
M  V30 4871 H 477.907 0.567178 -3.93534 0
M  V30 4872 N 478.904 1.54736 -0.299062 0
M  V30 4873 C 480.181 1.92187 0.363802 0
M  V30 4874 C 480.561 1.22607 1.71845 0
M  V30 4875 O 479.909 0.361141 2.25628 0
M  V30 4876 C 480.119 3.45678 0.480377 0
M  V30 4877 C 481.467 4.17885 0.752147 0
M  V30 4878 O 482.491 3.51702 0.564264 0
M  V30 4879 O 481.35 5.35048 1.11294 0
M  V30 4880 H 478.444 0.801681 0.203066 0
M  V30 4881 H 480.99 1.66115 -0.346978 0
M  V30 4882 H 479.762 3.88443 -0.471999 0
M  V30 4883 H 479.385 3.77779 1.2397 0
M  V30 4884 N 480.382 0.0267497 1.57577 0
M  V30 4885 C 481.793 -0.512413 1.79531 0
M  V30 4886 C 482.144 -1.72391 0.936791 0
M  V30 4887 O 481.269 -2.15903 0.146543 0
M  V30 4888 C 481.864 -0.936378 3.25603 0
M  V30 4889 C 480.423 -1.42067 3.4856 0
M  V30 4890 C 479.57 -0.384278 2.74624 0
M  V30 4891 H 482.521 0.252797 1.56674 0
M  V30 4892 H 482.542 -1.80088 3.35184 0
M  V30 4893 H 482.054 -0.0544332 3.88062 0
M  V30 4894 H 480.155 -2.32262 2.9135 0
M  V30 4895 H 480.268 -1.42968 4.57271 0
M  V30 4896 H 478.632 -0.851855 2.40032 0
M  V30 4897 H 479.415 0.489159 3.39797 0
M  V30 4898 N 481.861 -1.55662 -0.24637 0
M  V30 4899 C 483.086 -1.81914 -0.996093 0
M  V30 4900 C 483.511 -0.603875 -1.78143 0
M  V30 4901 O 482.869 0.447091 -1.75701 0
M  V30 4902 C 482.917 -3.05908 -1.90925 0
M  V30 4903 O 482.021 -2.82861 -3.00105 0
M  V30 4904 H 481.362 -0.600481 -0.283406 0
M  V30 4905 H 483.892 -2.02848 -0.267199 0
M  V30 4906 H 483.902 -3.35356 -2.3238 0
M  V30 4907 H 482.577 -3.93999 -1.33183 0
M  V30 4908 H 481.154 -2.64583 -2.62775 0
M  V30 4909 N 483.339 0.512053 -1.4905 0
M  V30 4910 C 484.286 1.6148 -1.64902 0
M  V30 4911 C 485.256 1.58687 -0.490673 0
M  V30 4912 O 486.441 1.76842 -0.71636 0
M  V30 4913 C 483.581 2.99676 -1.71139 0
M  V30 4914 C 482.694 3.12568 -2.98203 0
M  V30 4915 C 481.829 4.4143 -2.95487 0
M  V30 4916 C 480.868 4.47916 -4.17179 0
M  V30 4917 N 480.005 5.68191 -4.12437 0
M  V30 4918 H 484.845 1.47271 -2.59066 0
M  V30 4919 H 482.382 0.716713 -1.28459 0
M  V30 4920 H 484.34 3.79761 -1.72736 0
M  V30 4921 H 482.97 3.12614 -0.804508 0
M  V30 4922 H 482.022 2.25618 -3.06269 0
M  V30 4923 H 483.334 3.1322 -3.88194 0
M  V30 4924 H 482.488 5.29825 -2.95585 0
M  V30 4925 H 481.227 4.43326 -2.03256 0
M  V30 4926 H 480.232 3.57925 -4.17337 0
M  V30 4927 H 481.457 4.47744 -5.1059 0
M  V30 4928 H 479.403 5.7095 -3.23036 0
M  V30 4929 H 479.32 5.70413 -4.96151 0
M  V30 4930 H 480.588 6.58823 -4.16621 0
M  V30 4931 N 484.817 1.37938 0.762283 0
M  V30 4932 C 485.747 1.37176 1.88958 0
M  V30 4933 C 486.728 0.238945 1.68413 0
M  V30 4934 O 487.913 0.440726 1.89133 0
M  V30 4935 C 485.043 1.18742 3.2637 0
M  V30 4936 C 483.997 2.29136 3.61498 0
M  V30 4937 C 483.323 1.95816 4.97554 0
M  V30 4938 C 484.623 3.71363 3.6727 0
M  V30 4939 H 486.317 2.31509 1.89853 0
M  V30 4940 H 483.863 1.11438 0.912005 0
M  V30 4941 H 485.816 1.16837 4.04879 0
M  V30 4942 H 484.54 0.208683 3.25933 0
M  V30 4943 H 483.199 2.30213 2.85303 0
M  V30 4944 H 482.847 0.964475 4.93667 0
M  V30 4945 H 482.547 2.69745 5.22026 0
M  V30 4946 H 484.071 1.95513 5.78452 0
M  V30 4947 H 485.485 3.72364 4.35911 0
M  V30 4948 H 483.882 4.44425 4.03245 0
M  V30 4949 H 484.952 4.04305 2.67704 0
M  V30 4950 N 486.295 -0.989507 1.22664 0
M  V30 4951 C 487.706 -1.54406 1.04955 0
M  V30 4952 C 488.057 -1.92366 -0.385951 0
M  V30 4953 O 487.182 -1.75111 -1.27142 0
M  V30 4954 C 487.777 -2.80578 1.89899 0
M  V30 4955 C 486.336 -3.32464 1.76478 0
M  V30 4956 C 485.483 -2.05524 1.86159 0
M  V30 4957 H 488.434 -0.810211 1.3646 0
M  V30 4958 H 488.455 -3.53075 1.4184 0
M  V30 4959 H 487.967 -2.52918 2.94371 0
M  V30 4960 H 486.068 -3.65024 0.747528 0
M  V30 4961 H 486.181 -4.02838 2.59342 0
M  V30 4962 H 484.545 -2.19241 1.29636 0
M  V30 4963 H 485.328 -1.80258 2.92168 0
M  V30 4964 N 487.773 -1.03688 -1.18687 0
M  V30 4965 C 488.705 -0.582696 -2.21669 0
M  V30 4966 C 489.718 0.345656 -1.59088 0
M  V30 4967 O 490.907 0.140776 -1.77944 0
M  V30 4968 C 488.007 0.169204 -3.38477 0
M  V30 4969 C 487.18 -0.766079 -4.30639 0
M  V30 4970 C 486.239 -0.0581541 -5.26168 0
M  V30 4971 O 485.265 -0.687346 -5.65035 0
M  V30 4972 N 486.467 1.20981 -5.67753 0
M  V30 4973 H 489.232 -1.46843 -2.61261 0
M  V30 4974 H 486.793 -0.916896 -1.33434 0
M  V30 4975 H 488.785 0.652543 -3.99405 0
M  V30 4976 H 487.355 0.956435 -2.97609 0
M  V30 4977 H 486.575 -1.42935 -3.67373 0
M  V30 4978 H 487.863 -1.40146 -4.89118 0
M  V30 4979 H 487.261 1.74159 -5.38224 0
M  V30 4980 H 485.818 1.6375 -6.30896 0
M  V30 4981 N 489.251 1.34841 -0.815825 0
M  V30 4982 C 490.214 2.27959 -0.238185 0
M  V30 4983 C 491.214 1.49983 0.579816 0
M  V30 4984 O 492.404 1.69617 0.396953 0
M  V30 4985 C 489.536 3.34314 0.666876 0
M  V30 4986 H 490.729 2.80558 -1.05958 0
M  V30 4987 H 488.282 1.44852 -0.587156 0
M  V30 4988 H 489.017 2.86916 1.5116 0
M  V30 4989 H 488.802 3.92014 0.0819106 0
M  V30 4990 H 490.292 4.0379 1.06506 0
M  V30 4991 N 490.729 0.570148 1.46925 0
M  V30 4992 C 491.676 -0.170257 2.30171 0
M  V30 4993 C 492.646 -0.896099 1.39855 0
M  V30 4994 O 493.831 -0.889248 1.68811 0
M  V30 4995 C 490.971 -1.18605 3.24079 0
M  V30 4996 C 490.084 -0.464947 4.29491 0
M  V30 4997 C 489.219 -1.46716 5.10537 0
M  V30 4998 C 488.258 -0.731758 6.0771 0
M  V30 4999 N 487.395 -1.68142 6.81669 0
M  V30 5000 H 492.235 0.545713 2.92961 0
M  V30 5001 H 489.772 0.280938 1.44392 0
M  V30 5002 H 491.73 -1.78771 3.76957 0
M  V30 5003 H 490.36 -1.86989 2.63125 0
M  V30 5004 H 489.412 0.251506 3.79568 0
M  V30 5005 H 490.724 0.110548 4.98677 0
M  V30 5006 H 489.878 -2.14199 5.6763 0
M  V30 5007 H 488.617 -2.07658 4.41282 0
M  V30 5008 H 487.622 -0.0430787 5.49783 0
M  V30 5009 H 488.847 -0.127904 6.7898 0
M  V30 5010 H 486.793 -2.27918 6.15134 0
M  V30 5011 H 486.71 -1.15841 7.47072 0
M  V30 5012 H 487.978 -2.347 7.43328 0
M  V30 5013 N 492.207 -1.54576 0.307264 0
M  V30 5014 C 493.437 -2.04378 -0.302158 0
M  V30 5015 C 493.845 -1.18381 -1.47589 0
M  V30 5016 O 493.188 -0.20352 -1.82569 0
M  V30 5017 C 493.25 -3.50133 -0.815305 0
M  V30 5018 C 492.914 -4.56401 0.233977 0
M  V30 5019 C 493.911 -5.08884 1.06456 0
M  V30 5020 C 491.596 -5.0088 0.377478 0
M  V30 5021 C 493.59 -6.04394 2.02452 0
M  V30 5022 C 491.277 -5.96208 1.34088 0
M  V30 5023 C 492.275 -6.47849 2.16288 0
M  V30 5024 O 491.963 -7.41308 3.10994 0
M  V30 5025 H 491.695 -0.672502 -0.0686839 0
M  V30 5026 H 494.249 -2.00484 0.446682 0
M  V30 5027 H 492.479 -3.51371 -1.61478 0
M  V30 5028 H 494.168 -3.83098 -1.34129 0
M  V30 5029 H 494.934 -4.75311 0.964596 0
M  V30 5030 H 490.813 -4.60309 -0.252405 0
M  V30 5031 H 494.357 -6.44626 2.66652 0
M  V30 5032 H 490.254 -6.29198 1.44154 0
M  V30 5033 H 491.022 -7.5913 3.06045 0
M  V30 5034 N 493.685 -0.035106 -1.57561 0
M  V30 5035 C 494.934 0.641604 -1.91223 0
M  V30 5036 C 495.247 1.72944 -0.913761 0
M  V30 5037 O 496.453 2.46321 -1.14185 0
M  V30 5038 C 494.909 1.19249 -3.3957 0
M  V30 5039 C 494.517 0.137616 -4.47789 0
M  V30 5040 C 496.261 1.84537 -3.82291 0
M  V30 5041 C 494.168 0.700478 -5.87237 0
M  V30 5042 H 493.098 0.243417 -0.713627 0
M  V30 5043 H 495.749 -0.101382 -1.8322 0
M  V30 5044 H 494.131 1.98728 -3.42525 0
M  V30 5045 H 495.305 -0.635153 -4.56402 0
M  V30 5046 H 493.62 -0.416855 -4.14308 0
M  V30 5047 H 496.217 2.27616 -4.83834 0
M  V30 5048 H 496.56 2.69054 -3.17672 0
M  V30 5049 H 497.093 1.11739 -3.81784 0
M  V30 5050 H 493.832 -0.106693 -6.55413 0
M  V30 5051 H 493.352 1.4416 -5.82218 0
M  V30 5052 H 495.031 1.18837 -6.35993 0
M  V30 5053 N 495.163 1.55791 0.238111 0
M  V30 5054 C 496.412 1.77234 0.962868 0
M  V30 5055 C 496.725 0.600661 1.86149 0
M  V30 5056 O 497.931 0.698315 2.62366 0
M  V30 5057 C 496.387 3.13808 1.76218 0
M  V30 5058 C 495.995 4.3865 0.910518 0
M  V30 5059 C 497.739 3.44585 2.47914 0
M  V30 5060 C 495.646 5.66252 1.70623 0
M  V30 5061 H 494.576 0.660731 0.36325 0
M  V30 5062 H 497.227 1.8221 0.217242 0
M  V30 5063 H 495.609 3.02963 2.55009 0
M  V30 5064 H 496.783 4.60507 0.164316 0
M  V30 5065 H 495.098 4.15271 0.30647 0
M  V30 5066 H 497.695 4.3714 3.07917 0
M  V30 5067 H 498.038 2.66314 3.19973 0
M  V30 5068 H 498.571 3.56685 1.76127 0
M  V30 5069 H 495.31 6.47369 1.02923 0
M  V30 5070 H 494.83 5.48483 2.42748 0
M  V30 5071 H 496.509 6.05829 2.27114 0
M  V30 5072 N 496.642 -0.504142 1.49319 0
M  V30 5073 C 497.552 -1.63248 1.68486 0
M  V30 5074 C 498.568 -1.64488 0.567432 0
M  V30 5075 O 499.744 -1.82966 0.841749 0
M  V30 5076 C 496.809 -2.99627 1.74426 0
M  V30 5077 C 495.87 -3.09039 2.97982 0
M  V30 5078 C 495.103 -4.38913 3.0363 0
M  V30 5079 O 495.326 -5.27528 2.16958 0
M  V30 5080 O 494.26 -4.53231 3.96062 0
M  V30 5081 H 498.086 -1.50008 2.64067 0
M  V30 5082 H 495.671 -0.680086 1.33023 0
M  V30 5083 H 497.553 -3.80689 1.80705 0
M  V30 5084 H 496.228 -3.13136 0.820233 0
M  V30 5085 H 495.135 -2.27177 2.97223 0
M  V30 5086 H 496.468 -3.00456 3.89855 0
M  V30 5087 N 498.12 -1.38341 -0.754957 0
M  V30 5088 C 499.05 -1.38176 -1.88227 0
M  V30 5089 C 500.031 -0.247873 -1.68284 0
M  V30 5090 O 501.216 -0.45075 -1.88896 0
M  V30 5091 C 498.346 -1.20471 -3.25736 0
M  V30 5092 C 497.3 -2.3105 -3.60278 0
M  V30 5093 C 496.626 -1.98452 -4.96509 0
M  V30 5094 C 497.926 -3.73305 -3.65295 0
M  V30 5095 H 499.62 -2.32512 -1.88622 0
M  V30 5096 H 497.166 -1.1192 -0.906082 0
M  V30 5097 H 499.119 -1.18982 -4.04254 0
M  V30 5098 H 497.843 -0.225965 -3.25817 0
M  V30 5099 H 496.502 -2.31723 -2.84078 0
M  V30 5100 H 496.15 -0.990641 -4.93148 0
M  V30 5101 H 495.85 -2.7251 -5.20588 0
M  V30 5102 H 497.374 -1.98578 -5.77407 0
M  V30 5103 H 498.788 -3.7467 -4.3393 0
M  V30 5104 H 497.185 -4.46557 -4.00883 0
M  V30 5105 H 498.255 -4.05719 -2.65556 0
M  V30 5106 N 499.598 0.982988 -1.23187 0
M  V30 5107 C 500.508 2.10907 -1.02739 0
M  V30 5108 C 501.524 1.73979 0.0273188 0
M  V30 5109 O 502.7 2.00702 -0.16757 0
M  V30 5110 C 499.765 3.41142 -0.618304 0
M  V30 5111 C 498.826 3.92112 -1.74777 0
M  V30 5112 C 498.059 5.16131 -1.3581 0
M  V30 5113 O 498.282 5.6989 -0.241201 0
M  V30 5114 O 497.216 5.61103 -2.17824 0
M  V30 5115 H 501.042 2.31046 -1.97108 0
M  V30 5116 H 498.627 1.09284 -1.01869 0
M  V30 5117 H 500.509 4.19488 -0.400982 0
M  V30 5118 H 499.184 3.2234 0.296421 0
M  V30 5119 H 498.091 3.14895 -2.0197 0
M  V30 5120 H 499.424 4.15364 -2.64071 0
M  V30 5121 N 501.076 1.04316 1.18135 0
M  V30 5122 C 502.039 0.640794 2.2006 0
M  V30 5123 C 503.039 -0.303124 1.57917 0
M  V30 5124 O 504.229 -0.0881855 1.73977 0
M  V30 5125 C 501.361 -0.060148 3.40847 0
M  V30 5126 H 502.554 1.54281 2.57172 0
M  V30 5127 H 500.107 0.836004 1.32063 0
M  V30 5128 H 500.842 -0.975845 3.0927 0
M  V30 5129 H 500.627 0.618319 3.87194 0
M  V30 5130 H 502.117 -0.328082 4.16309 0
M  V30 5131 N 502.554 -1.34406 0.822964 0
M  V30 5132 C 503.501 -2.29519 0.24284 0
M  V30 5133 C 504.471 -1.5359 -0.632397 0
M  V30 5134 O 505.656 -1.8196 -0.57403 0
M  V30 5135 C 502.796 -3.40032 -0.58925 0
M  V30 5136 C 501.909 -4.30899 0.308236 0
M  V30 5137 C 501.044 -5.28515 -0.533425 0
M  V30 5138 C 500.083 -6.1102 0.363444 0
M  V30 5139 N 499.22 -7.00725 -0.439147 0
M  V30 5140 H 504.06 -2.78537 1.05929 0
M  V30 5141 H 501.597 -1.3707 0.533872 0
M  V30 5142 H 503.555 -4.0279 -1.087 0
M  V30 5143 H 502.185 -2.92248 -1.37081 0
M  V30 5144 H 501.237 -3.69002 0.924203 0
M  V30 5145 H 502.549 -4.88717 0.997862 0
M  V30 5146 H 501.703 -5.96725 -1.09565 0
M  V30 5147 H 500.442 -4.71235 -1.25656 0
M  V30 5148 H 499.447 -5.41743 0.937812 0
M  V30 5149 H 500.672 -6.70381 1.08469 0
M  V30 5150 H 498.618 -6.45913 -1.14595 0
M  V30 5151 H 498.535 -7.55756 0.19209 0
M  V30 5152 H 499.803 -7.73263 -0.984124 0
M  V30 5153 N 504.032 -0.577932 -1.46621 0
M  V30 5154 C 504.942 0.160651 -2.34049 0
M  V30 5155 C 505.958 0.890911 -1.49462 0
M  V30 5156 O 507.134 0.855166 -1.82343 0
M  V30 5157 C 504.199 1.16447 -3.26559 0
M  V30 5158 C 503.26 0.4394 -4.27045 0
M  V30 5159 C 502.493 1.3954 -5.15135 0
M  V30 5160 O 502.716 2.63162 -5.06065 0
M  V30 5161 O 501.65 0.908585 -5.95003 0
M  V30 5162 H 505.476 -0.557057 -2.98547 0
M  V30 5163 H 503.061 -0.338369 -1.45518 0
M  V30 5164 H 504.943 1.7434 -3.83645 0
M  V30 5165 H 503.618 1.86373 -2.64663 0
M  V30 5166 H 502.525 -0.181247 -3.73661 0
M  V30 5167 H 503.858 -0.218799 -4.91713 0
M  V30 5168 N 505.51 1.54411 -0.315457 0
M  V30 5169 C 506.787 1.92562 0.343398 0
M  V30 5170 C 507.167 1.24423 1.70535 0
M  V30 5171 O 506.515 0.385051 2.25232 0
M  V30 5172 C 506.725 3.46168 0.443687 0
M  V30 5173 C 508.073 4.18659 0.707783 0
M  V30 5174 O 509.097 3.52281 0.52693 0
M  V30 5175 O 507.956 5.36198 1.05612 0
M  V30 5176 H 505.05 0.80379 0.194552 0
M  V30 5177 H 507.596 1.65738 -0.364577 0
M  V30 5178 H 506.368 3.8792 -0.513172 0
M  V30 5179 H 505.991 3.79073 1.19956 0
M  V30 5180 N 506.988 0.0434614 1.5754 0
M  V30 5181 C 508.236 -0.630786 1.92004 0
M  V30 5182 C 508.557 -1.71836 0.921807 0
M  V30 5183 O 507.827 -1.9587 -0.034522 0
M  V30 5184 H 506.407 -0.235988 0.708745 0
M  V30 5185 H 509.069 0.0946462 1.9467 0
M  V30 5186 H 508.165 -1.07434 2.93026 0
M  V30 5187 N 508.466 -1.55915 -0.229846 0
M  V30 5188 C 509.696 -1.82352 -0.971152 0
M  V30 5189 C 510.104 -0.619231 -1.7878 0
M  V30 5190 O 509.447 0.421597 -1.78797 0
M  V30 5191 C 509.509 -3.02399 -1.9441 0
M  V30 5192 C 509.173 -4.37739 -1.31277 0
M  V30 5193 C 510.17 -5.15074 -0.706757 0
M  V30 5194 C 507.855 -4.84454 -1.32702 0
M  V30 5195 C 509.849 -6.37281 -0.123413 0
M  V30 5196 C 507.536 -6.06605 -0.739831 0
M  V30 5197 C 508.534 -6.82858 -0.139071 0
M  V30 5198 O 508.222 -8.027 0.439007 0
M  V30 5199 H 507.954 -0.61035 -0.290601 0
M  V30 5200 H 510.508 -2.03839 -0.252746 0
M  V30 5201 H 508.738 -2.76709 -2.70128 0
M  V30 5202 H 510.427 -3.15779 -2.55026 0
M  V30 5203 H 511.193 -4.80093 -0.688131 0
M  V30 5204 H 507.072 -4.25081 -1.78402 0
M  V30 5205 H 510.616 -6.96741 0.346124 0
M  V30 5206 H 506.513 -6.4106 -0.755841 0
M  V30 5207 H 507.281 -8.17824 0.332521 0
M  V30 5208 N 509.944 0.496216 -1.49584 0
M  V30 5209 C 511.19 1.25189 -1.59548 0
M  V30 5210 C 511.523 1.9212 -0.283466 0
M  V30 5211 O 510.798 1.80947 0.713324 0
M  V30 5212 C 511.081 2.31516 -2.75812 0
M  V30 5213 C 510.934 1.69054 -4.16822 0
M  V30 5214 C 512.253 3.3304 -2.87702 0
M  V30 5215 H 509.372 0.45379 -0.580727 0
M  V30 5216 H 512.014 0.549327 -1.81886 0
M  V30 5217 H 510.164 2.91438 -2.56897 0
M  V30 5218 H 511.836 1.12923 -4.47265 0
M  V30 5219 H 510.079 0.994485 -4.22247 0
M  V30 5220 H 510.75 2.462 -4.94054 0
M  V30 5221 H 513.226 2.83114 -3.04936 0
M  V30 5222 H 512.102 4.04794 -3.7072 0
M  V30 5223 H 512.363 3.95655 -1.97255 0
M  V30 5224 N 511.423 1.38739 0.74761 0
M  V30 5225 C 512.648 1.38702 1.54197 0
M  V30 5226 C 513.073 -0.019664 1.8809 0
M  V30 5227 O 512.431 -1.00333 1.51006 0
M  V30 5228 C 512.479 2.25492 2.814 0
M  V30 5229 O 511.583 1.67613 3.76802 0
M  V30 5230 H 510.924 0.472863 0.466151 0
M  V30 5231 H 513.454 1.82577 0.923413 0
M  V30 5232 H 513.464 2.39561 3.30264 0
M  V30 5233 H 512.139 3.27727 2.56062 0
M  V30 5234 H 510.716 1.62718 3.35526 0
M  V30 5235 N 512.901 -0.976442 1.23707 0
M  V30 5236 C 513.811 -2.10359 1.03856 0
M  V30 5237 C 514.827 -1.73991 -0.0180919 0
M  V30 5238 O 516.003 -2.0061 0.178211 0
M  V30 5239 C 513.068 -3.40809 0.636387 0
M  V30 5240 C 512.129 -3.91179 1.76854 0
M  V30 5241 C 511.362 -5.15404 1.38546 0
M  V30 5242 O 511.585 -5.69754 0.27142 0
M  V30 5243 O 510.519 -5.5994 2.20797 0
M  V30 5244 H 514.345 -2.29997 1.98331 0
M  V30 5245 H 511.93 -1.08742 1.02448 0
M  V30 5246 H 513.812 -4.19269 0.423223 0
M  V30 5247 H 512.487 -3.22493 -0.279322 0
M  V30 5248 H 511.394 -3.13819 2.03638 0
M  V30 5249 H 512.727 -4.13958 2.6627 0
M  V30 5250 N 514.379 -1.04941 -1.1758 0
M  V30 5251 C 515.628 -0.753124 -1.87112 0
M  V30 5252 C 515.941 0.722507 -1.81767 0
M  V30 5253 O 517.147 1.13265 -2.46746 0
M  V30 5254 C 515.603 -1.29695 -3.35719 0
M  V30 5255 C 515.211 -2.80184 -3.49572 0
M  V30 5256 C 516.955 -1.07759 -4.10595 0
M  V30 5257 C 514.862 -3.2788 -4.92187 0
M  V30 5258 H 513.792 -0.278034 -0.700866 0
M  V30 5259 H 516.443 -1.26637 -1.32798 0
M  V30 5260 H 514.825 -0.711522 -3.89555 0
M  V30 5261 H 515.999 -3.44561 -3.05965 0
M  V30 5262 H 514.314 -3.00632 -2.88113 0
M  V30 5263 H 516.911 -1.40899 -5.15802 0
M  V30 5264 H 517.254 -0.0152302 -4.16297 0
M  V30 5265 H 517.787 -1.62809 -3.62957 0
M  V30 5266 H 514.526 -4.33535 -4.91658 0
M  V30 5267 H 514.046 -2.68245 -5.36475 0
M  V30 5268 H 515.725 -3.22412 -5.60945 0
M  V30 5269 N 515.857 1.33968 -0.830081 0
M  V30 5270 C 517.103 1.98357 -0.422191 0
M  V30 5271 C 517.436 1.65633 1.01387 0
M  V30 5272 O 516.711 0.931648 1.70735 0
M  V30 5273 C 516.994 3.54492 -0.633043 0
M  V30 5274 C 516.847 3.96934 -2.11574 0
M  V30 5275 C 518.166 4.40039 -0.0735584 0
M  V30 5276 H 515.285 0.720544 -0.154871 0
M  V30 5277 H 517.927 1.58749 -1.04397 0
M  V30 5278 H 516.077 3.88361 -0.103775 0
M  V30 5279 H 517.749 3.73363 -2.7092 0
M  V30 5280 H 515.992 3.46984 -2.60354 0
M  V30 5281 H 516.663 5.05651 -2.21406 0
M  V30 5282 H 519.139 4.12764 -0.52585 0
M  V30 5283 H 518.015 5.48327 -0.250841 0
M  V30 5284 H 518.276 4.30124 1.02202 0
M  V30 5285 N 517.335 0.585699 1.46312 0
M  V30 5286 C 518.298 -0.135673 2.28798 0
M  V30 5287 C 519.298 -0.815988 1.38558 0
M  V30 5288 O 520.488 -0.667487 1.60904 0
M  V30 5289 C 517.62 -1.20163 3.1902 0
M  V30 5290 H 518.813 0.589257 2.94054 0
M  V30 5291 H 516.366 0.343794 1.52472 0
M  V30 5292 H 517.101 -1.95804 2.58517 0
M  V30 5293 H 516.886 -0.718282 3.85465 0
M  V30 5294 H 518.376 -1.70749 3.81096 0
M  V30 5295 N 518.813 -1.54241 0.323641 0
M  V30 5296 C 520.09 -1.92741 -0.333181 0
M  V30 5297 C 520.47 -1.25326 -1.69872 0
M  V30 5298 O 519.818 -0.396991 -2.25025 0
M  V30 5299 C 520.028 -3.46399 -0.425322 0
M  V30 5300 C 521.376 -4.19029 -0.68557 0
M  V30 5301 O 522.4 -3.52555 -0.50824 0
M  V30 5302 O 521.259 -5.36751 -1.02767 0
M  V30 5303 H 518.353 -0.804811 -0.190286 0
M  V30 5304 H 520.899 -1.65542 0.373361 0
M  V30 5305 H 519.671 -3.87643 0.533737 0
M  V30 5306 H 519.294 -3.79704 -1.17944 0
M  V30 5307 N 520.291 -0.0518155 -1.57515 0
M  V30 5308 C 521.254 0.907547 -2.10467 0
M  V30 5309 C 522.254 1.23947 -1.02439 0
M  V30 5310 O 523.444 1.17604 -1.2851 0
M  V30 5311 C 520.576 2.21723 -2.58944 0
M  V30 5312 H 521.769 0.44851 -2.96527 0
M  V30 5313 H 519.322 0.196598 -1.55059 0
M  V30 5314 H 520.057 2.72206 -1.76279 0
M  V30 5315 H 519.842 1.98935 -3.37886 0
M  V30 5316 H 521.332 2.90441 -3.00056 0
M  V30 5317 N 521.769 1.56035 0.221574 0
M  V30 5318 C 523.015 1.79312 0.947372 0
M  V30 5319 C 523.348 0.621453 1.83988 0
M  V30 5320 O 522.623 -0.379287 1.90766 0
M  V30 5321 C 522.906 3.1267 1.78633 0
M  V30 5322 C 522.759 4.40284 0.920312 0
M  V30 5323 C 524.078 3.4247 2.7641 0
M  V30 5324 H 521.197 0.652328 0.342982 0
M  V30 5325 H 523.839 1.88765 0.216244 0
M  V30 5326 H 521.989 3.04741 2.40967 0
M  V30 5327 H 523.661 4.60232 0.313718 0
M  V30 5328 H 521.904 4.33212 0.225734 0
M  V30 5329 H 522.575 5.30033 1.54171 0
M  V30 5330 H 525.051 3.50526 2.24211 0
M  V30 5331 H 523.927 4.3695 3.32213 0
M  V30 5332 H 524.188 2.64635 3.54148 0
M  V30 5333 N 523.247 -0.488276 1.49845 0
M  V30 5334 C 524.495 -1.23911 1.59657 0
M  V30 5335 C 524.816 -1.92816 0.291005 0
M  V30 5336 O 524.086 -1.83328 -0.690485 0
M  V30 5337 H 522.666 -0.460357 0.588286 0
M  V30 5338 H 525.328 -0.564794 1.86537 0
M  V30 5339 H 524.424 -1.99625 2.39909 0
M  V30 5340 N 524.725 -1.39134 -0.740242 0
M  V30 5341 C 525.953 -1.39334 -1.5295 0
M  V30 5342 C 526.368 0.0135008 -1.88795 0
M  V30 5343 O 525.725 0.983524 -1.5373 0
M  V30 5344 C 525.776 -2.2614 -2.82034 0
M  V30 5345 O 525.497 -3.61345 -2.47712 0
M  V30 5346 C 526.998 -2.34666 -3.76094 0
M  V30 5347 H 524.218 -0.476103 -0.472828 0
M  V30 5348 H 526.762 -1.82883 -0.9151 0
M  V30 5349 H 524.917 -1.86018 -3.39818 0
M  V30 5350 H 525.331 -4.07194 -3.30595 0
M  V30 5351 H 526.805 -2.99663 -4.63579 0
M  V30 5352 H 527.282 -1.36426 -4.17474 0
M  V30 5353 H 527.888 -2.75236 -3.2423 0
M  V30 5354 N 526.204 0.969867 -1.24223 0
M  V30 5355 C 527.167 2.04564 -1.03373 0
M  V30 5356 C 528.167 1.60798 0.00819206 0
M  V30 5357 O 529.357 1.72641 -0.232567 0
M  V30 5358 C 526.489 3.36163 -0.566343 0
M  V30 5359 H 527.682 2.24494 -1.98853 0
M  V30 5360 H 525.235 1.1448 -1.06415 0
M  V30 5361 H 525.97 3.21925 0.391751 0
M  V30 5362 H 525.755 3.69273 -1.31834 0
M  V30 5363 H 527.245 4.1526 -0.441435 0
M  V30 5364 N 527.682 1.05563 1.17022 0
M  V30 5365 C 528.645 0.664098 2.19368 0
M  V30 5366 C 529.645 -0.286358 1.5823 0
M  V30 5367 O 530.835 -0.069728 1.7406 0
M  V30 5368 C 527.967 -0.0239932 3.40892 0
M  V30 5369 H 529.16 1.57 2.55521 0
M  V30 5370 H 526.713 0.849964 1.31169 0
M  V30 5371 H 527.448 -0.942988 3.10287 0
M  V30 5372 H 527.233 0.659351 3.86516 0
M  V30 5373 H 528.723 -0.283909 4.16634 0
M  V30 5374 N 529.16 -1.33526 0.837174 0
M  V30 5375 C 530.093 -2.27192 0.214233 0
M  V30 5376 C 531.071 -1.49575 -0.637657 0
M  V30 5377 O 532.255 -1.78753 -0.598291 0
M  V30 5378 C 529.382 -3.31401 -0.699367 0
M  V30 5379 C 528.428 -4.26431 0.0768429 0
M  V30 5380 S 529.261 -5.15954 1.4336 0
M  V30 5381 C 530.417 -6.23692 0.525251 0
M  V30 5382 H 530.65 -2.79679 1.00831 0
M  V30 5383 H 528.183 -1.4079 0.633834 0
M  V30 5384 H 530.141 -3.91924 -1.22088 0
M  V30 5385 H 528.802 -2.77732 -1.46709 0
M  V30 5386 H 527.995 -5.00193 -0.618268 0
M  V30 5387 H 527.597 -3.70235 0.529364 0
M  V30 5388 H 529.889 -6.76931 -0.277575 0
M  V30 5389 H 530.832 -6.97283 1.23299 0
M  V30 5390 H 531.24 -5.64398 0.107351 0
M  V30 5391 N 530.638 -0.59345 -1.46 0
M  V30 5392 C 531.884 -0.0916503 -2.03193 0
M  V30 5393 C 532.239 1.25839 -1.45541 0
M  V30 5394 O 531.532 1.81455 -0.615191 0
M  V30 5395 C 531.726 0.021178 -3.57394 0
M  V30 5396 C 531.555 -1.31638 -4.30002 0
M  V30 5397 C 530.325 -1.89336 -4.68487 0
M  V30 5398 C 532.523 -2.242 -4.62859 0
M  V30 5399 N 530.505 -3.1672 -5.25891 0
M  V30 5400 C 531.876 -3.36175 -5.20948 0
M  V30 5401 C 533.931 -2.23748 -4.44794 0
M  V30 5402 C 532.634 -4.47844 -5.62875 0
M  V30 5403 C 534.66 -3.34454 -4.87744 0
M  V30 5404 C 534.022 -4.4515 -5.45913 0
M  V30 5405 H 530.121 -0.0765713 -0.778242 0
M  V30 5406 H 532.705 -0.788705 -1.7801 0
M  V30 5407 H 530.876 0.687423 -3.82268 0
M  V30 5408 H 532.608 0.528343 -4.01236 0
M  V30 5409 H 529.363 -1.42704 -4.51589 0
M  V30 5410 H 529.787 -3.81746 -5.59106 0
M  V30 5411 H 534.429 -1.39433 -3.99147 0
M  V30 5412 H 532.147 -5.32894 -6.07495 0
M  V30 5413 H 535.733 -3.35234 -4.75509 0
M  V30 5414 H 534.613 -5.29398 -5.78539 0
M  V30 5415 N 532.116 1.54067 -0.331816 0
M  V30 5416 C 533.046 2.27569 0.522932 0
M  V30 5417 C 534.027 1.28679 1.11247 0
M  V30 5418 O 535.212 1.57504 1.13605 0
M  V30 5419 C 532.342 3.0397 1.67987 0
M  V30 5420 C 531.296 4.10267 1.21924 0
M  V30 5421 C 530.622 4.74555 2.46377 0
M  V30 5422 C 531.922 5.21268 0.32815 0
M  V30 5423 H 533.616 2.99264 -0.0901977 0
M  V30 5424 H 531.162 1.4393 -0.044821 0
M  V30 5425 H 533.115 3.54123 2.28418 0
M  V30 5426 H 531.839 2.29906 2.31971 0
M  V30 5427 H 530.498 3.61009 0.637809 0
M  V30 5428 H 530.146 3.97098 3.08743 0
M  V30 5429 H 529.846 5.46363 2.16243 0
M  V30 5430 H 531.37 5.27487 3.07555 0
M  V30 5431 H 532.784 5.67128 0.838978 0
M  V30 5432 H 531.181 5.99982 0.119228 0
M  V30 5433 H 532.251 4.80673 -0.638839 0
M  V30 5434 N 533.594 0.0601682 1.57485 0
M  V30 5435 C 534.842 -0.610386 1.92662 0
M  V30 5436 C 535.163 -1.70849 0.939981 0
M  V30 5437 O 534.433 -1.95895 -0.0137455 0
M  V30 5438 H 533.013 -0.228457 0.711208 0
M  V30 5439 H 535.675 0.115288 1.94559 0
M  V30 5440 H 534.771 -1.0432 2.94149 0
M  V30 5441 N 535.072 -1.5615 -0.213296 0
M  V30 5442 C 536.035 -1.92249 -1.24792 0
M  V30 5443 C 537.035 -0.801828 -1.39382 0
M  V30 5444 O 538.225 -1.06948 -1.37506 0
M  V30 5445 C 535.357 -2.18056 -2.62039 0
M  V30 5446 H 536.55 -2.84793 -0.939845 0
M  V30 5447 H 534.103 -1.49559 -0.454062 0
M  V30 5448 H 534.838 -1.2809 -2.97932 0
M  V30 5449 H 534.623 -2.99703 -2.52825 0
M  V30 5450 H 536.113 -2.47051 -3.36683 0
M  V30 5451 N 536.55 0.480323 -1.50102 0
M  V30 5452 C 537.798 1.23063 -1.60312 0
M  V30 5453 C 538.119 1.92659 -0.301226 0
M  V30 5454 O 537.389 1.83691 0.680753 0
M  V30 5455 H 535.969 0.457231 -0.590719 0
M  V30 5456 H 538.631 0.554893 -1.86834 0
M  V30 5457 H 537.727 1.9835 -2.40964 0
M  V30 5458 N 538.028 1.39524 0.732853 0
M  V30 5459 C 539.444 1.21176 1.03868 0
M  V30 5460 C 539.644 0.0748448 2.01361 0
M  V30 5461 O 538.7 -0.57281 2.45917 0
M  V30 5462 C 540.013 2.54667 1.59892 0
M  V30 5463 C 541.561 2.6153 1.71962 0
M  V30 5464 C 542.036 3.95248 2.31394 0
M  V30 5465 N 543.527 3.96899 2.38801 0
M  V30 5466 C 544.262 4.97138 2.85729 0
M  V30 5467 N 543.758 6.07775 3.32537 0
M  V30 5468 N 545.551 4.84516 2.84957 0
M  V30 5469 H 537.702 2.12225 0.086304 0
M  V30 5470 H 539.965 0.942614 0.100907 0
M  V30 5471 H 539.671 3.38423 0.95721 0
M  V30 5472 H 539.545 2.74538 2.58668 0
M  V30 5473 H 541.932 1.78156 2.35254 0
M  V30 5474 H 542.013 2.45507 0.718327 0
M  V30 5475 H 541.657 4.79054 1.68729 0
M  V30 5476 H 541.587 4.08593 3.32204 0
M  V30 5477 H 544.078 3.16998 2.05719 0
M  V30 5478 H 544.391 6.8017 3.66862 0
M  V30 5479 H 542.736 6.11366 3.30541 0
M  V30 5480 H 545.927 3.97185 2.47713 0
M  V30 5481 H 546.1 5.62783 3.21215 0
M  V30 5482 N 539.506 -0.963266 1.24736 0
M  V30 5483 C 540.469 -2.04013 1.04457 0
M  V30 5484 C 541.469 -1.608 0.000335555 0
M  V30 5485 O 542.659 -1.72515 0.241719 0
M  V30 5486 C 539.791 -3.35858 0.584162 0
M  V30 5487 H 540.984 -2.23436 2.00041 0
M  V30 5488 H 538.537 -1.13914 1.07021 0
M  V30 5489 H 539.272 -3.22128 -0.374673 0
M  V30 5490 H 539.057 -3.68568 1.3379 0
M  V30 5491 H 540.547 -4.1502 0.463451 0
M  V30 5492 N 540.985 -1.06182 -1.16461 0
M  V30 5493 C 542.213 -0.798583 -1.90867 0
M  V30 5494 C 542.628 0.646921 -1.77371 0
M  V30 5495 O 541.985 1.44279 -1.11758 0
M  V30 5496 C 542.036 -1.18258 -3.4161 0
M  V30 5497 O 541.757 -2.57135 -3.54701 0
M  V30 5498 C 543.258 -0.946917 -4.33069 0
M  V30 5499 H 540.478 -0.289603 -0.605286 0
M  V30 5500 H 543.022 -1.41515 -1.47627 0
M  V30 5501 H 541.177 -0.610562 -3.82558 0
M  V30 5502 H 541.591 -2.72477 -4.4817 0
M  V30 5503 H 543.065 -1.26523 -5.37304 0
M  V30 5504 H 543.542 0.117406 -4.39043 0
M  V30 5505 H 544.148 -1.50326 -3.97847 0
M  V30 5506 N 542.463 1.3308 -0.844243 0
M  V30 5507 C 543.41 2.29104 -0.279323 0
M  V30 5508 C 544.38 1.54577 0.607882 0
M  V30 5509 O 545.565 1.8285 0.545009 0
M  V30 5510 C 542.705 3.40927 0.53508 0
M  V30 5511 C 541.818 4.30354 -0.376749 0
M  V30 5512 C 540.953 5.29297 0.449276 0
M  V30 5513 C 539.992 6.10365 -0.460606 0
M  V30 5514 N 539.129 7.01335 0.327612 0
M  V30 5515 H 543.969 2.76817 -1.10346 0
M  V30 5516 H 541.506 1.36203 -0.555611 0
M  V30 5517 H 543.464 4.04469 1.02278 0
M  V30 5518 H 542.094 2.94391 1.32414 0
M  V30 5519 H 541.146 3.67485 -0.982791 0
M  V30 5520 H 542.458 4.87067 -1.07549 0
M  V30 5521 H 541.612 5.98392 1.00058 0
M  V30 5522 H 540.351 4.73174 1.18143 0
M  V30 5523 H 539.356 5.40182 -1.02388 0
M  V30 5524 H 540.581 6.68571 -1.1912 0
M  V30 5525 H 538.527 6.47655 1.04305 0
M  V30 5526 H 538.444 7.55355 -0.3123 0
M  V30 5527 H 539.712 7.74731 0.86098 0
M  V30 5528 N 543.941 0.601185 1.45683 0
M  V30 5529 C 544.851 -0.123395 2.34275 0
M  V30 5530 C 545.867 -0.86702 1.5086 0
M  V30 5531 O 547.043 -0.826049 1.8368 0
M  V30 5532 C 544.108 -1.11237 3.2837 0
M  V30 5533 C 543.169 -0.371405 4.2769 0
M  V30 5534 C 542.402 -1.31327 5.1729 0
M  V30 5535 O 542.625 -2.55078 5.10188 0
M  V30 5536 O 541.559 -0.813811 5.96373 0
M  V30 5537 H 545.385 0.604483 2.97623 0
M  V30 5538 H 542.97 0.361477 1.44961 0
M  V30 5539 H 544.852 -1.68214 3.8637 0
M  V30 5540 H 543.527 -1.82139 2.67595 0
M  V30 5541 H 542.434 0.24067 3.73325 0
M  V30 5542 H 543.767 0.296998 4.91303 0
M  V30 5543 N 545.419 -1.53889 0.339982 0
M  V30 5544 C 546.644 -2.05741 -0.261798 0
M  V30 5545 C 547.069 -1.21354 -1.43718 0
M  V30 5546 O 546.427 -0.22645 -1.7988 0
M  V30 5547 C 546.475 -3.54542 -0.658228 0
M  V30 5548 O 545.579 -3.7302 -1.75869 0
M  V30 5549 H 544.92 -0.662529 -0.0441672 0
M  V30 5550 H 547.45 -1.98568 0.493161 0
M  V30 5551 H 547.46 -3.9711 -0.936368 0
M  V30 5552 H 546.135 -4.15412 0.201358 0
M  V30 5553 H 544.712 -3.42355 -1.47809 0
M  V30 5554 N 546.897 -0.0685191 -1.57451 0
M  V30 5555 C 548.125 0.610462 -1.97689 0
M  V30 5556 C 548.54 1.63346 -0.946758 0
M  V30 5557 O 547.897 1.82377 0.0669868 0
M  V30 5558 C 547.948 1.28196 -3.38006 0
M  V30 5559 O 547.669 0.299906 -4.37072 0
M  V30 5560 C 549.17 2.04907 -3.931 0
M  V30 5561 H 546.39 0.165689 -0.650222 0
M  V30 5562 H 548.934 -0.139953 -2.04021 0
M  V30 5563 H 547.089 1.98348 -3.32771 0
M  V30 5564 H 547.503 0.78126 -5.18649 0
M  V30 5565 H 548.977 2.47287 -4.93511 0
M  V30 5566 H 549.454 2.9043 -3.29465 0
M  V30 5567 H 550.06 1.39629 -4.01726 0
M  V30 5568 N 548.375 1.56261 0.205012 0
M  V30 5569 C 549.624 1.79236 0.925058 0
M  V30 5570 C 549.937 0.640011 1.84833 0
M  V30 5571 O 551.143 0.753809 2.60826 0
M  V30 5572 C 549.599 3.17475 1.69522 0
M  V30 5573 C 549.207 4.40482 0.817269 0
M  V30 5574 C 550.951 3.49766 2.4055 0
M  V30 5575 C 548.858 5.69744 1.58573 0
M  V30 5576 H 547.788 0.668287 0.349153 0
M  V30 5577 H 550.439 1.82629 0.178544 0
M  V30 5578 H 548.821 3.08304 2.48526 0
M  V30 5579 H 549.995 4.60752 0.0665988 0
M  V30 5580 H 548.31 4.15827 0.218316 0
M  V30 5581 H 550.907 4.43573 2.98575 0
M  V30 5582 H 551.25 2.73041 3.14252 0
M  V30 5583 H 551.783 3.60341 1.68522 0
M  V30 5584 H 548.522 6.49407 0.891679 0
M  V30 5585 H 548.042 5.53509 2.31059 0
M  V30 5586 H 549.721 6.1051 2.14212 0
M  V30 5587 N 549.853 -0.472356 1.50355 0
M  V30 5588 C 551.13 -1.23356 1.51798 0
M  V30 5589 C 551.51 -2.09469 0.26193 0
M  V30 5590 O 550.858 -2.15677 -0.754691 0
M  V30 5591 C 551.068 -2.06568 2.81302 0
M  V30 5592 C 552.416 -2.648 3.31913 0
M  V30 5593 O 553.44 -2.16812 2.82614 0
M  V30 5594 O 552.299 -3.52231 4.17846 0
M  V30 5595 H 549.393 -0.559707 0.608816 0
M  V30 5596 H 551.939 -0.48428 1.62643 0
M  V30 5597 H 550.711 -1.43103 3.64194 0
M  V30 5598 H 550.334 -2.88633 2.73454 0
M  V30 5599 N 551.331 -1.39911 -0.725443 0
M  V30 5600 C 552.261 -1.42138 -1.85254 0
M  V30 5601 C 553.242 -0.283513 -1.67721 0
M  V30 5602 O 554.427 -0.490717 -1.87898 0
M  V30 5603 C 551.557 -1.27354 -3.23107 0
M  V30 5604 C 550.511 -2.3864 -3.55296 0
M  V30 5605 C 549.837 -2.08939 -4.92188 0
M  V30 5606 C 551.137 -3.8097 -3.57295 0
M  V30 5607 H 552.831 -2.36461 -1.83648 0
M  V30 5608 H 550.377 -1.13817 -0.882138 0
M  V30 5609 H 552.33 -1.2753 -4.01639 0
M  V30 5610 H 551.054 -0.295025 -3.25265 0
M  V30 5611 H 549.713 -2.37696 -2.79099 0
M  V30 5612 H 549.361 -1.09502 -4.90936 0
M  V30 5613 H 549.061 -2.83491 -5.14691 0
M  V30 5614 H 550.585 -2.10781 -5.73065 0
M  V30 5615 H 551.999 -3.8379 -4.25885 0
M  V30 5616 H 550.396 -4.5496 -3.9132 0
M  V30 5617 H 551.466 -4.11261 -2.5689 0
M  V30 5618 N 552.809 0.956637 -1.25245 0
M  V30 5619 C 553.772 2.03457 -1.05537 0
M  V30 5620 C 554.772 1.60798 -0.00886317 0
M  V30 5621 O 555.962 1.72384 -0.250865 0
M  V30 5622 C 553.094 3.35543 -0.601965 0
M  V30 5623 H 554.287 2.22372 -2.01223 0
M  V30 5624 H 551.84 1.13344 -1.07623 0
M  V30 5625 H 552.575 3.22323 0.357584 0
M  V30 5626 H 552.36 3.67854 -1.35743 0
M  V30 5627 H 553.85 4.14769 -0.485454 0
M  V30 5628 N 554.287 1.06798 1.15896 0
M  V30 5629 C 555.533 0.788934 1.86825 0
M  V30 5630 C 555.866 -0.683084 1.8179 0
M  V30 5631 O 555.141 -1.50086 1.23711 0
M  V30 5632 C 555.424 1.29065 3.36176 0
M  V30 5633 C 555.277 2.8268 3.49874 0
M  V30 5634 C 556.596 0.902655 4.30744 0
M  V30 5635 H 553.715 0.288066 0.678371 0
M  V30 5636 H 556.357 1.32479 1.36195 0
M  V30 5637 H 554.507 0.834806 3.79425 0
M  V30 5638 H 556.179 3.36511 3.15528 0
M  V30 5639 H 554.422 3.21157 2.91617 0
M  V30 5640 H 555.093 3.12852 4.54783 0
M  V30 5641 H 557.569 1.29535 3.95424 0
M  V30 5642 H 556.445 1.28111 5.3374 0
M  V30 5643 H 556.706 -0.191951 4.41683 0
M  V30 5644 N 555.766 -1.3263 0.851289 0
M  V30 5645 C 557.014 -1.96978 0.452128 0
M  V30 5646 C 557.335 -1.67715 -0.99482 0
M  V30 5647 O 556.605 -0.98259 -1.69476 0
M  V30 5648 H 555.185 -0.72873 0.164202 0
M  V30 5649 H 557.847 -1.61774 1.08698 0
M  V30 5650 H 556.943 -3.06387 0.594407 0
M  V30 5651 N 557.244 -0.608902 -1.45362 0
M  V30 5652 C 558.174 0.0964526 -2.33301 0
M  V30 5653 C 559.155 0.857444 -1.46908 0
M  V30 5654 O 560.34 0.827735 -1.75676 0
M  V30 5655 C 557.47 1.09354 -3.29635 0
M  V30 5656 C 556.424 0.445676 -4.25673 0
M  V30 5657 C 555.75 1.5511 -5.11708 0
M  V30 5658 C 557.05 -0.633972 -5.18438 0
M  V30 5659 H 558.744 -0.637829 -2.92527 0
M  V30 5660 H 556.29 -0.308178 -1.40664 0
M  V30 5661 H 558.243 1.59556 -3.90025 0
M  V30 5662 H 556.967 1.85843 -2.6857 0
M  V30 5663 H 555.626 -0.0354897 -3.66583 0
M  V30 5664 H 555.274 2.30631 -4.4701 0
M  V30 5665 H 554.974 1.12311 -5.76767 0
M  V30 5666 H 556.498 2.05537 -5.74967 0
M  V30 5667 H 557.912 -0.215974 -5.72893 0
M  V30 5668 H 556.309 -0.983789 -5.91981 0
M  V30 5669 H 557.379 -1.51005 -4.60788 0
M  V30 5670 N 558.722 1.53707 -0.348139 0
M  V30 5671 C 559.968 2.01286 0.247332 0
M  V30 5672 C 560.301 1.23546 1.49834 0
M  V30 5673 O 559.576 0.324331 1.91777 0
M  V30 5674 C 559.859 3.55768 0.556858 0
M  V30 5675 C 559.712 4.44216 -0.706564 0
M  V30 5676 C 561.031 4.1841 1.3646 0
M  V30 5677 H 558.15 0.731677 0.0884201 0
M  V30 5678 H 560.792 1.84106 -0.469584 0
M  V30 5679 H 558.942 3.70539 1.16761 0
M  V30 5680 H 560.614 4.41274 -1.34444 0
M  V30 5681 H 558.857 4.12892 -1.33052 0
M  V30 5682 H 559.528 5.50202 -0.445186 0
M  V30 5683 H 562.004 4.07365 0.848113 0
M  V30 5684 H 560.88 5.26563 1.54992 0
M  V30 5685 H 561.141 3.7333 2.36805 0
M  V30 5686 N 560.2 0.0768682 1.57412 0
M  V30 5687 C 561.13 -0.886026 2.16037 0
M  V30 5688 C 562.111 -1.30691 1.08876 0
M  V30 5689 O 563.296 -1.37705 1.36934 0
M  V30 5690 C 560.426 -2.1518 2.72608 0
M  V30 5691 C 559.38 -1.87015 3.8498 0
M  V30 5692 C 558.706 -3.20266 4.28175 0
M  V30 5693 C 560.006 -1.17143 5.08994 0
M  V30 5694 H 561.7 -0.397642 2.96748 0
M  V30 5695 H 559.246 -0.189823 1.42743 0
M  V30 5696 H 561.199 -2.82962 3.12266 0
M  V30 5697 H 559.923 -2.66269 1.89125 0
M  V30 5698 H 558.582 -1.21636 3.45833 0
M  V30 5699 H 558.23 -3.69207 3.41607 0
M  V30 5700 H 557.93 -3.0221 5.03927 0
M  V30 5701 H 559.454 -3.89237 4.70454 0
M  V30 5702 H 560.868 -1.75003 5.45937 0
M  V30 5703 H 559.265 -1.09328 5.90057 0
M  V30 5704 H 560.335 -0.151295 4.84664 0
M  V30 5705 N 561.678 -1.56367 -0.196722 0
M  V30 5706 C 563.094 -1.49916 -0.54749 0
M  V30 5707 C 563.294 -0.77659 -1.85934 0
M  V30 5708 O 562.35 -0.32644 -2.50381 0
M  V30 5709 C 563.663 -2.94577 -0.603734 0
M  V30 5710 C 565.211 -3.05239 -0.692677 0
M  V30 5711 C 565.686 -4.51308 -0.780046 0
M  V30 5712 N 567.177 -4.55453 -0.843616 0
M  V30 5713 C 567.912 -5.65786 -0.931358 0
M  V30 5714 N 567.408 -6.85812 -0.981503 0
M  V30 5715 N 569.201 -5.53695 -0.968421 0
M  V30 5716 H 561.352 -2.01761 0.663803 0
M  V30 5717 H 563.615 -0.918094 0.236238 0
M  V30 5718 H 563.321 -3.50494 0.29105 0
M  V30 5719 H 563.195 -3.47841 -1.45898 0
M  V30 5720 H 565.582 -2.49372 -1.57789 0
M  V30 5721 H 565.663 -2.55103 0.188736 0
M  V30 5722 H 565.307 -5.078 0.100811 0
M  V30 5723 H 565.237 -4.99176 -1.67724 0
M  V30 5724 H 567.728 -3.69025 -0.814176 0
M  V30 5725 H 568.041 -7.65648 -1.04892 0
M  V30 5726 H 566.386 -6.88474 -0.950208 0
M  V30 5727 H 569.577 -4.58848 -0.926072 0
M  V30 5728 H 569.75 -6.39708 -1.03334 0
M  V30 5729 N 563.156 0.464375 -1.50603 0
M  V30 5730 C 564.103 1.56152 -1.69956 0
M  V30 5731 C 565.073 1.57046 -0.54091 0
M  V30 5732 O 566.258 1.74473 -0.772258 0
M  V30 5733 C 563.398 2.94079 -1.80586 0
M  V30 5734 C 562.511 3.02923 -3.07996 0
M  V30 5735 C 561.646 4.31806 -3.09382 0
M  V30 5736 C 560.685 4.34417 -4.31218 0
M  V30 5737 N 559.822 5.54782 -4.30304 0
M  V30 5738 H 564.662 1.38955 -2.6362 0
M  V30 5739 H 562.199 0.675482 -1.30674 0
M  V30 5740 H 564.157 3.74073 -1.8473 0
M  V30 5741 H 562.787 3.09896 -0.903556 0
M  V30 5742 H 561.839 2.1576 -3.13292 0
M  V30 5743 H 563.151 3.00712 -3.97962 0
M  V30 5744 H 562.305 5.20153 -3.12292 0
M  V30 5745 H 561.044 4.36636 -2.17257 0
M  V30 5746 H 560.049 3.44467 -4.28512 0
M  V30 5747 H 561.274 4.31273 -5.24576 0
M  V30 5748 H 559.22 5.60384 -3.41037 0
M  V30 5749 H 559.137 5.54339 -5.14047 0
M  V30 5750 H 560.405 6.45235 -4.3737 0
M  V30 5751 N 564.634 1.40294 0.718013 0
M  V30 5752 C 565.581 1.40367 1.8321 0
M  V30 5753 C 566.551 0.260952 1.64037 0
M  V30 5754 O 567.736 0.458648 1.85205 0
M  V30 5755 C 564.876 1.26965 3.20895 0
M  V30 5756 C 563.989 2.50922 3.51656 0
M  V30 5757 C 563.124 2.29981 4.78834 0
M  V30 5758 C 562.163 3.49527 5.02491 0
M  V30 5759 N 561.3 3.27796 6.20882 0
M  V30 5760 H 566.14 2.35593 1.82482 0
M  V30 5761 H 563.677 1.17012 0.891444 0
M  V30 5762 H 565.635 1.17202 4.00399 0
M  V30 5763 H 564.265 0.353591 3.20858 0
M  V30 5764 H 563.317 2.71223 2.66725 0
M  V30 5765 H 564.629 3.39913 3.65048 0
M  V30 5766 H 563.783 2.17558 5.66351 0
M  V30 5767 H 562.522 1.38411 4.67647 0
M  V30 5768 H 561.527 3.6243 4.1343 0
M  V30 5769 H 562.752 4.42021 5.15553 0
M  V30 5770 H 560.698 2.38906 6.1095 0
M  V30 5771 H 560.615 4.10351 6.34939 0
M  V30 5772 H 561.883 3.19101 7.11193 0
M  V30 5773 N 566.112 -0.949982 1.2575 0
M  V30 5774 C 567.358 -1.69766 1.10938 0
M  V30 5775 C 567.691 -1.91056 -0.348028 0
M  V30 5776 O 566.966 -1.48488 -1.25625 0
M  V30 5777 C 567.249 -3.07779 1.86933 0
M  V30 5778 C 567.102 -2.9387 3.4053 0
M  V30 5779 C 568.421 -4.07749 1.65616 0
M  V30 5780 H 565.54 -0.616144 0.404396 0
M  V30 5781 H 568.182 -1.10394 1.54639 0
M  V30 5782 H 566.332 -3.58462 1.4979 0
M  V30 5783 H 568.004 -2.50476 3.87375 0
M  V30 5784 H 566.247 -2.29686 3.68004 0
M  V30 5785 H 566.918 -3.91719 3.88922 0
M  V30 5786 H 569.394 -3.65994 1.97959 0
M  V30 5787 H 568.27 -5.02348 2.21218 0
M  V30 5788 H 568.531 -4.38029 0.598595 0
M  V30 5789 N 567.59 -1.07411 -1.15328 0
M  V30 5790 C 568.838 -0.796073 -1.85761 0
M  V30 5791 C 569.159 0.679864 -1.82764 0
M  V30 5792 O 568.429 1.49242 -1.269 0
M  V30 5793 H 567.009 -0.291495 -0.687779 0
M  V30 5794 H 569.671 -1.35799 -1.39802 0
M  V30 5795 H 568.767 -1.13114 -2.90881 0
M  V30 5796 N 569.068 1.32177 -0.85831 0
M  V30 5797 C 570.345 1.91781 -0.384624 0
M  V30 5798 C 570.725 1.78171 1.13217 0
M  V30 5799 O 570.073 1.18209 1.95548 0
M  V30 5800 C 570.283 3.38414 -0.853047 0
M  V30 5801 C 571.631 4.15542 -0.872359 0
M  V30 5802 O 572.655 3.47148 -0.797926 0
M  V30 5803 O 571.514 5.37678 -0.978009 0
M  V30 5804 H 568.608 0.819259 -0.112886 0
M  V30 5805 H 571.154 1.40923 -0.945453 0
M  V30 5806 H 569.926 3.4228 -1.89632 0
M  V30 5807 H 569.549 3.96683 -0.269874 0
M  V30 5808 N 570.547 0.616602 1.45037 0
M  V30 5809 C 571.51 -0.0871112 2.29034 0
M  V30 5810 C 572.51 -0.786414 1.40258 0
M  V30 5811 O 573.7 -0.633207 1.62284 0
M  V30 5812 C 570.832 -1.13369 3.21497 0
M  V30 5813 H 572.025 0.651497 2.92738 0
M  V30 5814 H 569.578 0.376058 1.51709 0
M  V30 5815 H 570.313 -1.90277 2.62612 0
M  V30 5816 H 570.098 -0.636358 3.86902 0
M  V30 5817 H 571.588 -1.62627 3.84633 0
M  V30 5818 N 572.025 -1.5352 0.356285 0
M  V30 5819 C 573.271 -2.01414 -0.236653 0
M  V30 5820 C 573.604 -1.24339 -1.49176 0
M  V30 5821 O 572.879 -0.334496 -1.91602 0
M  V30 5822 C 573.162 -3.56059 -0.537982 0
M  V30 5823 C 573.015 -4.43835 0.730112 0
M  V30 5824 C 574.334 -4.19127 -1.34239 0
M  V30 5825 H 571.453 -0.732135 -0.0845386 0
M  V30 5826 H 574.095 -1.83854 0.479341 0
M  V30 5827 H 572.245 -3.71153 -1.14795 0
M  V30 5828 H 573.917 -4.40555 1.36782 0
M  V30 5829 H 572.16 -4.1218 1.3524 0
M  V30 5830 H 572.831 -5.49958 0.474358 0
M  V30 5831 H 575.307 -4.07809 -0.826498 0
M  V30 5832 H 574.183 -5.27378 -1.52198 0
M  V30 5833 H 574.444 -3.74581 -2.34822 0
M  V30 5834 N 573.503 -0.0852151 -1.57369 0
M  V30 5835 C 574.45 0.877268 -2.13478 0
M  V30 5836 C 575.42 1.28642 -1.05073 0
M  V30 5837 O 576.605 1.36992 -1.32808 0
M  V30 5838 C 573.745 2.13464 -2.71159 0
M  V30 5839 C 572.858 1.77691 -3.93764 0
M  V30 5840 C 571.993 2.98139 -4.39643 0
M  V30 5841 C 571.032 2.58447 -5.54862 0
M  V30 5842 N 570.169 3.71698 -5.95639 0
M  V30 5843 H 575.009 0.391933 -2.95411 0
M  V30 5844 H 572.546 0.181796 -1.45972 0
M  V30 5845 H 574.504 2.87086 -3.02717 0
M  V30 5846 H 573.134 2.59514 -1.91969 0
M  V30 5847 H 572.186 0.940768 -3.68583 0
M  V30 5848 H 573.498 1.44497 -4.77412 0
M  V30 5849 H 572.652 3.80026 -4.72933 0
M  V30 5850 H 571.391 3.34536 -3.54876 0
M  V30 5851 H 570.396 1.74984 -5.21211 0
M  V30 5852 H 571.621 2.23205 -6.41371 0
M  V30 5853 H 569.567 4.07831 -5.13819 0
M  V30 5854 H 569.484 3.42317 -6.74059 0
M  V30 5855 H 570.752 4.54123 -6.33555 0
M  V30 5856 N 574.981 1.5647 0.188427 0
M  V30 5857 C 575.928 1.95073 1.23349 0
M  V30 5858 C 576.898 0.812238 1.44886 0
M  V30 5859 O 578.083 1.07095 1.57909 0
M  V30 5860 C 575.223 2.30124 2.57171 0
M  V30 5861 C 574.336 3.57069 2.43157 0
M  V30 5862 C 573.471 3.81411 3.69729 0
M  V30 5863 C 572.51 5.0176 3.50575 0
M  V30 5864 N 571.647 5.22321 4.69175 0
M  V30 5865 H 576.487 2.84171 0.89728 0
M  V30 5866 H 574.024 1.40623 0.431683 0
M  V30 5867 H 575.982 2.48463 3.35145 0
M  V30 5868 H 574.612 1.44159 2.88822 0
M  V30 5869 H 573.664 3.4674 1.56447 0
M  V30 5870 H 574.976 4.452 2.24942 0
M  V30 5871 H 574.13 4.00026 4.56141 0
M  V30 5872 H 572.869 2.91624 3.90905 0
M  V30 5873 H 571.874 4.83061 2.62549 0
M  V30 5874 H 573.099 5.93063 3.30837 0
M  V30 5875 H 571.045 4.35483 4.90602 0
M  V30 5876 H 570.962 6.04643 4.53809 0
M  V30 5877 H 572.23 5.45401 5.56919 0
M  V30 5878 N 576.459 -0.456382 1.50847 0
M  V30 5879 C 577.707 -1.20497 1.62249 0
M  V30 5880 C 578.028 -1.92156 0.331839 0
M  V30 5881 O 577.298 -1.84751 -0.651443 0
M  V30 5882 H 575.878 -0.447775 0.597918 0
M  V30 5883 H 578.54 -0.525099 1.87693 0
M  V30 5884 H 577.636 -1.94492 2.44089 0
M  V30 5885 N 577.937 -1.40673 -0.710563 0
M  V30 5886 C 578.847 -1.43663 -1.85467 0
M  V30 5887 C 579.863 -0.328721 -1.70867 0
M  V30 5888 O 581.039 -0.574098 -1.93044 0
M  V30 5889 C 578.104 -1.30226 -3.21313 0
M  V30 5890 C 577.165 -2.51204 -3.48131 0
M  V30 5891 C 576.398 -2.38398 -4.77495 0
M  V30 5892 O 576.621 -1.40048 -5.5294 0
M  V30 5893 O 575.555 -3.2787 -5.04762 0
M  V30 5894 H 579.381 -2.40156 -1.859 0
M  V30 5895 H 576.966 -1.22049 -0.861652 0
M  V30 5896 H 578.848 -1.2496 -4.02446 0
M  V30 5897 H 577.523 -0.368419 -3.21597 0
M  V30 5898 H 576.43 -2.62048 -2.66987 0
M  V30 5899 H 577.763 -3.43366 -3.52648 0
M  V30 5900 N 579.415 0.9433 -1.26252 0
M  V30 5901 C 580.64 1.72898 -1.14547 0
M  V30 5902 C 581.065 1.85761 0.295743 0
M  V30 5903 O 580.423 1.3463 1.21427 0
M  V30 5904 C 580.471 3.11471 -1.8171 0
M  V30 5905 O 579.575 3.97336 -1.10445 0
M  V30 5906 H 578.916 0.530555 -0.399259 0
M  V30 5907 H 581.446 1.18159 -1.67032 0
M  V30 5908 H 581.456 3.61872 -1.88449 0
M  V30 5909 H 580.131 3.01425 -2.86558 0
M  V30 5910 H 578.708 3.55788 -1.11666 0
M  V30 5911 N 580.893 1.08022 1.14757 0
M  V30 5912 C 581.823 0.728248 2.21853 0
M  V30 5913 C 582.804 -0.287486 1.67653 0
M  V30 5914 O 583.989 -0.158727 1.9355 0
M  V30 5915 C 581.119 0.132549 3.47047 0
M  V30 5916 C 580.073 1.07619 4.14249 0
M  V30 5917 C 579.399 0.342907 5.33599 0
M  V30 5918 C 580.699 2.41268 4.63235 0
M  V30 5919 H 582.393 1.62365 2.51551 0
M  V30 5920 H 579.939 0.782125 1.20908 0
M  V30 5921 H 581.892 -0.125665 4.21213 0
M  V30 5922 H 580.616 -0.797971 3.16702 0
M  V30 5923 H 579.275 1.31944 3.42033 0
M  V30 5924 H 578.923 -0.59129 4.99513 0
M  V30 5925 H 578.623 0.971955 5.79506 0
M  V30 5926 H 580.147 0.0926538 6.1053 0
M  V30 5927 H 581.561 2.21232 5.28894 0
M  V30 5928 H 579.958 2.9983 5.19829 0
M  V30 5929 H 581.028 3.03079 3.78512 0
M  V30 5930 N 582.371 -1.3172 0.865308 0
M  V30 5931 C 583.617 -1.97168 0.474633 0
M  V30 5932 C 583.95 -1.68263 -0.969604 0
M  V30 5933 O 583.225 -0.976588 -1.68205 0
M  V30 5934 C 583.508 -3.52689 0.726808 0
M  V30 5935 C 583.361 -3.91185 2.22024 0
M  V30 5936 C 584.68 -4.39689 0.190201 0
M  V30 5937 H 581.799 -0.716185 0.17392 0
M  V30 5938 H 584.441 -1.55925 1.08569 0
M  V30 5939 H 582.591 -3.8795 0.206705 0
M  V30 5940 H 584.263 -3.66049 2.80724 0
M  V30 5941 H 582.506 -3.3996 2.69462 0
M  V30 5942 H 583.177 -4.99604 2.34735 0
M  V30 5943 H 585.653 -4.11225 0.635103 0
M  V30 5944 H 584.529 -5.47469 0.396132 0
M  V30 5945 H 584.79 -4.32683 -0.907625 0
M  V30 5946 N 583.85 -0.624285 -1.44708 0
M  V30 5947 C 585.077 -0.132919 -2.06473 0
M  V30 5948 C 585.493 1.18967 -1.46602 0
M  V30 5949 O 584.85 1.72824 -0.586341 0
M  V30 5950 C 584.901 -0.00465418 -3.615 0
M  V30 5951 O 584.622 -1.27494 -4.19138 0
M  V30 5952 C 586.123 0.516213 -4.40284 0
M  V30 5953 H 583.343 -0.0765201 -0.666623 0
M  V30 5954 H 585.887 -0.856751 -1.85688 0
M  V30 5955 H 584.042 0.669583 -3.8157 0
M  V30 5956 H 584.456 -1.11536 -5.12504 0
M  V30 5957 H 585.93 0.554994 -5.49203 0
M  V30 5958 H 586.407 1.5419 -4.11245 0
M  V30 5959 H 587.013 -0.124542 -4.25118 0
M  V30 5960 N 585.328 1.53329 -0.364422 0
M  V30 5961 C 586.577 2.00421 0.226747 0
M  V30 5962 C 586.89 1.25581 1.49963 0
M  V30 5963 O 588.096 1.63256 2.16933 0
M  V30 5964 C 586.552 3.57017 0.454618 0
M  V30 5965 C 586.16 4.40734 -0.803568 0
M  V30 5966 C 587.904 4.12468 1.00351 0
M  V30 5967 C 585.811 5.8888 -0.545345 0
M  V30 5968 H 584.741 0.748787 0.0885082 0
M  V30 5969 H 587.392 1.7703 -0.482983 0
M  V30 5970 H 585.774 3.76558 1.22558 0
M  V30 5971 H 586.948 4.32967 -1.57723 0
M  V30 5972 H 585.263 3.96381 -1.27559 0
M  V30 5973 H 587.86 5.20783 1.212 0
M  V30 5974 H 588.203 3.6699 1.9653 0
M  V30 5975 H 588.736 3.96721 0.29274 0
M  V30 5976 H 585.475 6.38633 -1.47743 0
M  V30 5977 H 584.995 5.99499 0.189842 0
M  V30 5978 H 586.674 6.46776 -0.170425 0
M  V30 5979 N 586.806 0.0935595 1.57322 0
M  V30 5980 C 588.036 -0.578095 1.98347 0
M  V30 5981 C 588.444 -1.62357 0.971441 0
M  V30 5982 O 587.787 -1.83639 -0.0473959 0
M  V30 5983 C 587.849 -1.28525 3.3574 0
M  V30 5984 C 587.513 -0.390714 4.55327 0
M  V30 5985 C 588.51 0.360522 5.18648 0
M  V30 5986 C 586.195 -0.309221 5.01347 0
M  V30 5987 C 588.189 1.18125 6.26359 0
M  V30 5988 C 585.876 0.515157 6.08925 0
M  V30 5989 C 586.874 1.25904 6.71295 0
M  V30 5990 O 586.562 2.06978 7.76798 0
M  V30 5991 H 586.294 -0.159767 0.656849 0
M  V30 5992 H 588.848 0.169058 2.04703 0
M  V30 5993 H 587.078 -2.07894 3.26063 0
M  V30 5994 H 588.767 -1.85128 3.61223 0
M  V30 5995 H 589.533 0.307285 4.84026 0
M  V30 5996 H 585.412 -0.877881 4.52564 0
M  V30 5997 H 588.956 1.76236 6.74971 0
M  V30 5998 H 584.853 0.56988 6.42979 0
M  V30 5999 H 585.621 1.99644 7.93779 0
M  V30 6000 N 588.284 -1.56567 -0.180126 0
M  V30 6001 C 589.509 -1.85975 -0.918041 0
M  V30 6002 C 589.934 -0.678888 -1.75422 0
M  V30 6003 O 589.292 0.372168 -1.77439 0
M  V30 6004 C 589.34 -3.13731 -1.77779 0
M  V30 6005 O 588.444 -2.95335 -2.87838 0
M  V30 6006 H 587.785 -0.61196 -0.257683 0
M  V30 6007 H 590.315 -2.03798 -0.180923 0
M  V30 6008 H 590.325 -3.4491 -2.17948 0
M  V30 6009 H 589 -3.99293 -1.16352 0
M  V30 6010 H 587.577 -2.7549 -2.51316 0
M  V30 6011 N 589.762 0.448376 -1.51087 0
M  V30 6012 C 590.71 1.56407 -1.72161 0
M  V30 6013 C 591.704 1.58878 -0.587721 0
M  V30 6014 O 592.91 1.62755 -0.768822 0
M  V30 6015 H 589.285 0.519423 -0.543786 0
M  V30 6016 H 591.256 1.35803 -2.65707 0
M  V30 6017 C 590.005 2.94163 -1.85373 0
M  V30 6018 H 589.328 2.9299 -2.72024 0
M  V30 6019 H 590.768 3.71625 -2.04135 0
M  V30 6020 C 589.227 3.31317 -0.610803 0
M  V30 6021 O 589.757 4.00985 0.239636 0
M  V30 6022 N 587.963 2.86966 -0.458127 0
M  V30 6023 H 587.51 2.30443 -1.15124 0
M  V30 6024 H 587.468 3.12188 0.372289 0
M  V30 6025 N 591.24 1.41047 0.703093 0
M  V30 6026 C 592.656 1.23351 1.01275 0
M  V30 6027 C 592.856 0.11754 2.01157 0
M  V30 6028 O 591.912 -0.520518 2.47077 0
M  V30 6029 C 593.225 2.58001 1.54454 0
M  V30 6030 C 594.773 2.65119 1.66376 0
M  V30 6031 C 595.248 4.00067 2.22958 0
M  V30 6032 N 596.739 4.01875 2.30328 0
M  V30 6033 C 597.474 5.03087 2.75119 0
M  V30 6034 N 596.97 6.14692 3.19571 0
M  V30 6035 N 598.763 4.90451 2.74616 0
M  V30 6036 H 590.914 2.1236 0.0412686 0
M  V30 6037 H 593.177 0.944543 0.08089 0
M  V30 6038 H 592.883 3.40378 0.88521 0
M  V30 6039 H 592.757 2.79962 2.52786 0
M  V30 6040 H 595.144 1.83106 2.31422 0
M  V30 6041 H 595.225 2.46975 0.666089 0
M  V30 6042 H 594.869 4.82526 1.58529 0
M  V30 6043 H 594.799 4.15547 3.23462 0
M  V30 6044 H 597.29 3.21291 1.98949 0
M  V30 6045 H 597.603 6.87799 3.52352 0
M  V30 6046 H 595.948 6.18239 3.17498 0
M  V30 6047 H 599.139 4.0235 2.39233 0
M  V30 6048 H 599.312 5.6947 3.09206 0
M  V30 6049 N 592.718 -0.936591 1.26751 0
M  V30 6050 C 593.628 -2.06949 1.10496 0
M  V30 6051 C 594.644 -1.7396 0.037271 0
M  V30 6052 O 595.82 -1.99941 0.241944 0
M  V30 6053 C 592.885 -3.38612 0.744491 0
M  V30 6054 C 591.946 -3.85355 1.89209 0
M  V30 6055 C 591.179 -5.10735 1.54873 0
M  V30 6056 O 591.402 -5.68602 0.452546 0
M  V30 6057 O 590.336 -5.52632 2.38499 0
M  V30 6058 H 594.162 -2.23571 2.05547 0
M  V30 6059 H 591.747 -1.05428 1.05855 0
M  V30 6060 H 593.629 -4.17711 0.556396 0
M  V30 6061 H 592.304 -3.23218 -0.176582 0
M  V30 6062 H 591.211 -3.07182 2.13518 0
M  V30 6063 H 592.544 -4.05277 2.79305 0
M  V30 6064 N 594.196 -1.08629 -1.14182 0
M  V30 6065 C 595.128 -0.676189 -2.18998 0
M  V30 6066 C 596.141 0.277871 -1.60411 0
M  V30 6067 O 597.33 0.0651771 -1.78381 0
M  V30 6068 C 594.43 0.0254916 -3.3889 0
M  V30 6069 C 593.603 -0.948039 -4.27002 0
M  V30 6070 C 592.662 -0.281268 -5.25448 0
M  V30 6071 O 591.688 -0.926378 -5.61611 0
M  V30 6072 N 592.89 0.967923 -5.72374 0
M  V30 6073 H 595.655 -1.57792 -2.54798 0
M  V30 6074 H 593.216 -0.972665 -1.29425 0
M  V30 6075 H 595.208 0.482554 -4.01813 0
M  V30 6076 H 593.778 0.829348 -3.01398 0
M  V30 6077 H 592.998 -1.58388 -3.6098 0
M  V30 6078 H 594.286 -1.60765 -4.82734 0
M  V30 6079 H 593.684 1.51175 -5.45126 0
M  V30 6080 H 592.241 1.36844 -6.37273 0
M  V30 6081 N 595.674 1.31259 -0.872281 0
M  V30 6082 C 596.92 1.96913 -0.485083 0
M  V30 6083 C 597.253 1.68774 0.960667 0
M  V30 6084 O 596.528 0.985495 1.67685 0
M  V30 6085 C 596.811 3.52299 -0.745502 0
M  V30 6086 C 596.664 3.90002 -2.24095 0
M  V30 6087 C 597.983 4.39582 -0.213516 0
M  V30 6088 H 595.102 0.715252 -0.177716 0
M  V30 6089 H 597.744 1.55347 -1.09395 0
M  V30 6090 H 595.894 3.87835 -0.227276 0
M  V30 6091 H 597.566 3.64555 -2.82661 0
M  V30 6092 H 595.809 3.38526 -2.71261 0
M  V30 6093 H 596.48 4.98352 -2.37381 0
M  V30 6094 H 598.956 4.10882 -0.656902 0
M  V30 6095 H 597.832 5.47251 -0.42516 0
M  V30 6096 H 598.093 4.33158 0.884666 0
M  V30 6097 N 597.152 0.631951 1.44375 0
M  V30 6098 C 598.429 0.067646 1.95483 0
M  V30 6099 C 598.809 -1.40683 1.57389 0
M  V30 6100 O 598.157 -2.12167 0.848375 0
M  V30 6101 C 598.367 0.291392 3.47781 0
M  V30 6102 C 599.715 0.185028 4.24197 0
M  V30 6103 O 600.739 0.222803 3.55503 0
M  V30 6104 O 599.598 0.0906642 5.46425 0
M  V30 6105 H 596.692 -0.0218379 0.826712 0
M  V30 6106 H 599.238 0.703711 1.54421 0
M  V30 6107 H 598.01 1.31449 3.68561 0
M  V30 6108 H 597.633 -0.378772 3.95792 0
M  V30 6109 N 598.631 -1.53133 0.372548 0
M  V30 6110 C 599.908 -1.93704 -0.271693 0
M  V30 6111 C 600.288 -1.30667 -1.65799 0
M  V30 6112 O 599.636 -0.46838 -2.23648 0
M  V30 6113 C 599.846 -3.47576 -0.314903 0
M  V30 6114 C 601.194 -4.20998 -0.551912 0
M  V30 6115 O 602.218 -3.53994 -0.39582 0
M  V30 6116 O 601.077 -5.39748 -0.85639 0
M  V30 6117 H 598.171 -0.810457 -0.164586 0
M  V30 6118 H 600.717 -1.6427 0.425838 0
M  V30 6119 H 599.489 -3.85749 0.656792 0
M  V30 6120 H 599.112 -3.83264 -1.05804 0
M  V30 6121 N 600.109 -0.101901 -1.5727 0
M  V30 6122 C 601.355 0.561027 -1.94885 0
M  V30 6123 C 601.688 1.6741 -0.984258 0
M  V30 6124 O 600.963 1.94491 -0.0184767 0
M  V30 6125 C 601.246 1.10982 -3.42571 0
M  V30 6126 C 601.099 0.00133418 -4.498 0
M  V30 6127 C 602.418 2.00608 -3.9172 0
M  V30 6128 H 599.537 0.202467 -0.708644 0
M  V30 6129 H 602.179 -0.173992 -1.89202 0
M  V30 6130 H 600.329 1.73621 -3.47546 0
M  V30 6131 H 602.001 -0.63322 -4.56933 0
M  V30 6132 H 600.244 -0.664143 -4.28686 0
M  V30 6133 H 600.915 0.426253 -5.50352 0
M  V30 6134 H 603.391 1.47864 -3.88941 0
M  V30 6135 H 602.267 2.3593 -4.95609 0
M  V30 6136 H 602.528 2.92608 -3.3141 0
M  V30 6137 N 601.587 1.56661 0.17182 0
M  V30 6138 C 602.534 1.96371 1.21273 0
M  V30 6139 C 603.504 0.82756 1.44016 0
M  V30 6140 O 604.689 1.08764 1.56764 0
M  V30 6141 C 601.829 2.32838 2.54716 0
M  V30 6142 C 600.942 3.59628 2.39356 0
M  V30 6143 C 600.077 3.85311 3.65662 0
M  V30 6144 C 599.116 5.0545 3.45234 0
M  V30 6145 N 598.253 5.27268 4.63608 0
M  V30 6146 H 603.093 2.85106 0.86709 0
M  V30 6147 H 600.63 1.41073 0.416744 0
M  V30 6148 H 602.588 2.52004 3.3249 0
M  V30 6149 H 601.218 1.47214 2.87277 0
M  V30 6150 H 600.27 3.4838 1.52761 0
M  V30 6151 H 601.582 4.4756 2.20207 0
M  V30 6152 H 600.736 4.04841 4.51872 0
M  V30 6153 H 599.475 2.95753 3.8779 0
M  V30 6154 H 598.48 4.85819 2.5741 0
M  V30 6155 H 599.705 5.96538 3.24529 0
M  V30 6156 H 597.651 4.40662 4.85956 0
M  V30 6157 H 597.568 6.09422 4.4737 0
M  V30 6158 H 598.836 5.51277 5.51103 0
M  V30 6159 N 603.065 -0.440357 1.51323 0
M  V30 6160 C 603.997 -1.55254 1.68609 0
M  V30 6161 C 605.01 -1.52614 0.566812 0
M  V30 6162 O 606.199 -1.57445 0.841032 0
M  V30 6163 C 603.299 -2.94169 1.68279 0
M  V30 6164 C 602.472 -3.21346 2.96742 0
M  V30 6165 C 601.531 -4.3997 2.8864 0
M  V30 6166 O 600.557 -4.38771 3.62586 0
M  V30 6167 N 601.759 -5.43367 2.04285 0
M  V30 6168 H 604.524 -1.40831 2.6455 0
M  V30 6169 H 602.085 -0.629251 1.49171 0
M  V30 6170 H 604.077 -3.71543 1.60431 0
M  V30 6171 H 602.647 -3.02205 0.799441 0
M  V30 6172 H 601.867 -2.32299 3.18482 0
M  V30 6173 H 603.155 -3.3633 3.81785 0
M  V30 6174 H 602.553 -5.47176 1.43578 0
M  V30 6175 H 601.11 -6.19605 2.02318 0
M  V30 6176 N 604.543 -1.41418 -0.695603 0
M  V30 6177 C 605.49 -1.43264 -1.80954 0
M  V30 6178 C 606.46 -0.287016 -1.63601 0
M  V30 6179 O 607.645 -0.488054 -1.84452 0
M  V30 6180 C 604.785 -1.32054 -3.18835 0
M  V30 6181 C 603.898 -2.56485 -3.4762 0
M  V30 6182 C 603.033 -2.3757 -4.75115 0
M  V30 6183 C 602.072 -3.57477 -4.96867 0
M  V30 6184 N 601.209 -3.37632 -6.15588 0
M  V30 6185 H 606.049 -2.38467 -1.78711 0
M  V30 6186 H 603.586 -1.18415 -0.872715 0
M  V30 6187 H 605.544 -1.23558 -3.98484 0
M  V30 6188 H 604.174 -0.404592 -3.20254 0
M  V30 6189 H 603.226 -2.75432 -2.62376 0
M  V30 6190 H 604.538 -3.45678 -3.59594 0
M  V30 6191 H 603.692 -2.2654 -5.62818 0
M  V30 6192 H 602.431 -1.45834 -4.65386 0
M  V30 6193 H 601.436 -3.68961 -4.07612 0
M  V30 6194 H 602.661 -4.50167 -5.08455 0
M  V30 6195 H 600.607 -2.48596 -6.07072 0
M  V30 6196 H 600.524 -4.20401 -6.2833 0
M  V30 6197 H 601.792 -3.30375 -7.06026 0
M  V30 6198 N 606.021 0.929856 -1.27246 0
M  V30 6199 C 606.951 2.04722 -1.12299 0
M  V30 6200 C 607.932 1.70082 -0.0250464 0
M  V30 6201 O 609.117 1.93176 -0.199141 0
M  V30 6202 C 606.247 3.38721 -0.767145 0
M  V30 6203 C 605.201 3.87466 -1.81808 0
M  V30 6204 C 604.527 5.18246 -1.31626 0
M  V30 6205 C 605.827 4.11095 -3.22177 0
M  V30 6206 H 607.521 2.17485 -2.05769 0
M  V30 6207 H 605.067 1.04503 -0.990715 0
M  V30 6208 H 607.02 4.16366 -0.649413 0
M  V30 6209 H 605.744 3.25967 0.203259 0
M  V30 6210 H 604.403 3.12012 -1.92468 0
M  V30 6211 H 604.051 5.01881 -0.335378 0
M  V30 6212 H 603.751 5.51829 -2.01887 0
M  V30 6213 H 605.275 5.98462 -1.21143 0
M  V30 6214 H 606.689 4.79316 -3.1453 0
M  V30 6215 H 605.086 4.55982 -3.90129 0
M  V30 6216 H 606.156 3.16468 -3.67391 0
M  V30 6217 N 607.499 1.09233 1.13605 0
M  V30 6218 C 608.729 0.847677 1.88409 0
M  V30 6219 C 609.137 -0.604524 1.79282 0
M  V30 6220 O 608.48 -1.42773 1.15592 0
M  V30 6221 C 608.542 1.20153 3.38827 0
M  V30 6222 C 608.206 2.65824 3.71735 0
M  V30 6223 C 609.203 3.64072 3.71143 0
M  V30 6224 C 606.888 3.01894 4.01454 0
M  V30 6225 C 608.882 4.96419 3.99808 0
M  V30 6226 C 606.569 4.34433 4.29781 0
M  V30 6227 C 607.567 5.31505 4.28942 0
M  V30 6228 O 607.255 6.61659 4.56576 0
M  V30 6229 H 606.987 0.304813 0.603378 0
M  V30 6230 H 609.541 1.4573 1.44748 0
M  V30 6231 H 607.771 0.534946 3.82982 0
M  V30 6232 H 609.46 0.936349 3.94952 0
M  V30 6233 H 610.226 3.37549 3.4826 0
M  V30 6234 H 606.105 2.26971 4.01255 0
M  V30 6235 H 609.649 5.7218 3.99069 0
M  V30 6236 H 605.546 4.607 4.52135 0
M  V30 6237 H 606.314 6.67102 4.74254 0
M  V30 6238 N 608.977 -1.30795 0.87923 0
M  V30 6239 C 609.887 -2.32041 0.345565 0
M  V30 6240 C 610.903 -1.65103 -0.549265 0
M  V30 6241 O 612.079 -1.9645 -0.443763 0
M  V30 6242 C 609.144 -3.43944 -0.436245 0
M  V30 6243 C 608.205 -4.26521 0.48765 0
M  V30 6244 C 607.438 -5.33081 -0.256943 0
M  V30 6245 O 607.661 -5.50762 -1.48381 0
M  V30 6246 O 606.595 -6.00635 0.389985 0
M  V30 6247 H 610.421 -2.79627 1.18501 0
M  V30 6248 H 608.006 -1.3486 0.642885 0
M  V30 6249 H 609.888 -4.12128 -0.879119 0
M  V30 6250 H 608.563 -2.98504 -1.25208 0
M  V30 6251 H 607.47 -3.61057 0.979216 0
M  V30 6252 H 608.803 -4.75551 1.26933 0
M  V30 6253 N 610.455 -0.639598 -1.44038 0
M  V30 6254 C 611.403 0.0723409 -2.32487 0
M  V30 6255 C 612.397 0.827129 -1.47834 0
M  V30 6256 O 613.603 0.73907 -1.64127 0
M  V30 6257 H 609.978 0.0421696 -0.750817 0
M  V30 6258 H 611.949 -0.691593 -2.90275 0
M  V30 6259 C 610.698 1.03452 -3.31953 0
M  V30 6260 H 610.021 0.46315 -3.97108 0
M  V30 6261 H 611.461 1.502 -3.96505 0
M  V30 6262 C 609.92 2.12392 -2.61518 0
M  V30 6263 O 610.45 3.2059 -2.42044 0
M  V30 6264 N 608.656 1.88563 -2.21116 0
M  V30 6265 H 608.203 1.00577 -2.37154 0
M  V30 6266 H 608.161 2.61651 -1.74316 0
M  V30 6267 N 611.933 1.52934 -0.380664 0
M  V30 6268 C 613.182 2.00651 0.205477 0
M  V30 6269 C 613.495 1.27164 1.48623 0
M  V30 6270 O 614.701 1.65547 2.15189 0
M  V30 6271 C 613.157 3.57479 0.416726 0
M  V30 6272 C 612.765 4.39857 -0.850268 0
M  V30 6273 C 614.509 4.13509 0.959702 0
M  V30 6274 C 612.416 5.88269 -0.607773 0
M  V30 6275 H 611.346 0.749684 0.0805614 0
M  V30 6276 H 613.997 1.76508 -0.501732 0
M  V30 6277 H 612.379 3.77836 1.18557 0
M  V30 6278 H 613.553 4.31269 -1.62307 0
M  V30 6279 H 611.868 3.95005 -1.31756 0
M  V30 6280 H 614.465 5.22039 1.15669 0
M  V30 6281 H 614.808 3.69054 1.92626 0
M  V30 6282 H 615.341 3.9701 0.250645 0
M  V30 6283 H 612.08 6.3703 -1.54509 0
M  V30 6284 H 611.6 5.99667 0.126247 0
M  V30 6285 H 613.279 6.46558 -0.239014 0
M  V30 6286 N 613.412 0.11024 1.57214 0
M  V30 6287 C 614.828 -0.24638 1.57687 0
M  V30 6288 C 615.028 -1.67344 1.12241 0
M  V30 6289 O 614.084 -2.39298 0.805783 0
M  V30 6290 C 615.397 -0.0210288 3.00693 0
M  V30 6291 C 616.945 -0.0876077 3.12877 0
M  V30 6292 C 617.42 0.10994 4.57868 0
M  V30 6293 N 618.911 0.0556135 4.63167 0
M  V30 6294 C 619.646 0.183495 5.73106 0
M  V30 6295 N 619.142 0.367058 6.91827 0
M  V30 6296 N 620.935 0.123689 5.61964 0
M  V30 6297 H 613.086 1.04246 1.85058 0
M  V30 6298 H 615.349 0.40979 0.854854 0
M  V30 6299 H 615.055 0.965203 3.38196 0
M  V30 6300 H 614.929 -0.756748 3.69531 0
M  V30 6301 H 617.316 -1.06436 2.75237 0
M  V30 6302 H 617.397 0.67985 2.466 0
M  V30 6303 H 617.041 1.08362 4.96206 0
M  V30 6304 H 616.971 -0.677397 5.22225 0
M  V30 6305 H 619.462 -0.0831062 3.77809 0
M  V30 6306 H 619.775 0.455739 7.71455 0
M  V30 6307 H 618.12 0.40292 6.93831 0
M  V30 6308 H 621.311 -0.0186928 4.68096 0
M  V30 6309 H 621.484 0.226797 6.47603 0
M  V30 6310 N 614.89 -1.56749 -0.16351 0
M  V30 6311 C 616.139 -1.81626 -0.877211 0
M  V30 6312 C 616.452 -0.688791 -1.83071 0
M  V30 6313 O 617.658 -0.822697 -2.58735 0
M  V30 6314 C 616.114 -3.21858 -1.61045 0
M  V30 6315 C 615.722 -4.42494 -0.700195 0
M  V30 6316 C 617.466 -3.56021 -2.31192 0
M  V30 6317 C 615.373 -5.73748 -1.43412 0
M  V30 6318 H 614.303 -0.67731 -0.331312 0
M  V30 6319 H 616.954 -1.83039 -0.13006 0
M  V30 6320 H 615.336 -3.14784 -2.40264 0
M  V30 6321 H 616.51 -4.60766 0.0555849 0
M  V30 6322 H 614.825 -4.1626 -0.10799 0
M  V30 6323 H 617.422 -4.51333 -2.8671 0
M  V30 6324 H 617.765 -2.81277 -3.06902 0
M  V30 6325 H 618.298 -3.64682 -1.58909 0
M  V30 6326 H 615.037 -6.51543 -0.719186 0
M  V30 6327 H 614.557 -5.5944 -2.16302 0
M  V30 6328 H 616.236 -6.15975 -1.9795 0
M  V30 6329 N 616.368 0.432326 -1.51554 0
M  V30 6330 C 617.593 1.20824 -1.68571 0
M  V30 6331 C 618.018 1.84126 -0.384596 0
M  V30 6332 O 617.376 1.69025 0.655751 0
M  V30 6333 C 617.424 2.26429 -2.80646 0
M  V30 6334 O 616.528 3.32032 -2.44598 0
M  V30 6335 H 615.869 0.353765 -0.561913 0
M  V30 6336 H 618.399 0.509916 -1.98144 0
M  V30 6337 H 618.409 2.71133 -3.04878 0
M  V30 6338 H 617.084 1.79733 -3.75058 0
M  V30 6339 H 615.661 2.92769 -2.30956 0
M  V30 6340 N 617.846 1.41785 0.688094 0
M  V30 6341 C 618.809 1.43936 1.78368 0
M  V30 6342 C 619.809 0.328866 1.57401 0
M  V30 6343 O 620.999 0.589093 1.63937 0
M  V30 6344 C 618.131 1.25804 3.16838 0
M  V30 6345 H 619.324 2.41472 1.77852 0
M  V30 6346 H 616.877 1.28037 0.896448 0
M  V30 6347 H 617.612 0.291386 3.22988 0
M  V30 6348 H 617.397 2.06272 3.33458 0
M  V30 6349 H 618.887 1.30162 3.96797 0
M  V30 6350 N 619.324 -0.923095 1.27737 0
M  V30 6351 C 620.552 -1.70525 1.17171 0
M  V30 6352 C 620.967 -1.86847 -0.270881 0
M  V30 6353 O 620.324 -1.38879 -1.18401 0
M  V30 6354 C 620.375 -3.10242 1.85559 0
M  V30 6355 O 620.096 -2.94683 3.24182 0
M  V30 6356 C 621.597 -4.04586 1.81176 0
M  V30 6357 H 618.817 -0.533347 0.407163 0
M  V30 6358 H 621.361 -1.15599 1.68692 0
M  V30 6359 H 619.516 -3.62014 1.3793 0
M  V30 6360 H 619.93 -3.83045 3.58297 0
M  V30 6361 H 621.404 -5.00119 2.33633 0
M  V30 6362 H 621.881 -4.3218 0.782099 0
M  V30 6363 H 622.487 -3.58741 2.2844 0
M  V30 6364 N 620.802 -1.09834 -1.13024 0
M  V30 6365 C 622.213 -0.855651 -1.65938 0
M  V30 6366 C 622.564 0.615159 -1.86307 0
M  V30 6367 O 621.689 1.47335 -1.58497 0
M  V30 6368 C 622.284 -1.5467 -3.01434 0
M  V30 6369 C 620.843 -1.35088 -3.51323 0
M  V30 6370 C 619.99 -1.6001 -2.26478 0
M  V30 6371 H 622.941 -1.25691 -0.968889 0
M  V30 6372 H 622.962 -0.982179 -3.67605 0
M  V30 6373 H 622.474 -2.61715 -2.86578 0
M  V30 6374 H 620.575 -0.30179 -3.71376 0
M  V30 6375 H 620.688 -2.0886 -4.31178 0
M  V30 6376 H 619.052 -1.02246 -2.33276 0
M  V30 6377 H 619.835 -2.68293 -2.14182 0
M  V30 6378 N 622.28 1.30327 -0.886154 0
M  V30 6379 C 623.526 1.96388 -0.505941 0
M  V30 6380 C 623.859 1.69784 0.942712 0
M  V30 6381 O 623.134 1.00322 1.6663 0
M  V30 6382 C 623.417 3.51488 -0.782826 0
M  V30 6383 C 623.27 3.87603 -2.28219 0
M  V30 6384 C 624.589 4.39331 -0.260128 0
M  V30 6385 H 621.708 0.713327 -0.185292 0
M  V30 6386 H 624.35 1.54178 -1.11036 0
M  V30 6387 H 622.5 3.87572 -0.268399 0
M  V30 6388 H 624.172 3.61537 -2.86512 0
M  V30 6389 H 622.415 3.3563 -2.74837 0
M  V30 6390 H 623.086 4.95806 -2.42653 0
M  V30 6391 H 625.562 4.10162 -0.700444 0
M  V30 6392 H 624.438 5.46769 -0.483179 0
M  V30 6393 H 624.699 4.34072 0.838674 0
M  V30 6394 N 623.758 0.647228 1.43697 0
M  V30 6395 C 624.69 -0.0866232 2.29036 0
M  V30 6396 C 625.703 -0.793051 1.42178 0
M  V30 6397 O 626.892 -0.651807 1.66174 0
M  V30 6398 C 623.992 -1.14552 3.18953 0
M  V30 6399 C 623.165 -0.518422 4.34317 0
M  V30 6400 C 622.224 -1.4734 5.05151 0
M  V30 6401 O 621.25 -0.984312 5.60625 0
M  V30 6402 N 622.452 -2.8075 5.08094 0
M  V30 6403 H 625.217 0.645834 2.92659 0
M  V30 6404 H 622.778 0.489567 1.54321 0
M  V30 6405 H 624.77 -1.78505 3.63205 0
M  V30 6406 H 623.34 -1.78001 2.56971 0
M  V30 6407 H 622.56 0.300079 3.93056 0
M  V30 6408 H 623.848 -0.080401 5.08736 0
M  V30 6409 H 623.246 -3.23052 4.64386 0
M  V30 6410 H 621.803 -3.40022 5.56083 0
M  V30 6411 N 625.236 -1.5273 0.388769 0
M  V30 6412 C 626.199 -2.25043 -0.434544 0
M  V30 6413 C 627.199 -1.26661 -0.990644 0
M  V30 6414 O 628.389 -1.50762 -0.872731 0
M  V30 6415 C 625.521 -3.00507 -1.60961 0
M  V30 6416 H 626.714 -2.99242 0.198549 0
M  V30 6417 H 624.267 -1.55664 0.140875 0
M  V30 6418 H 625.002 -2.30607 -2.28015 0
M  V30 6419 H 624.787 -3.72716 -1.21757 0
M  V30 6420 H 626.277 -3.55413 -2.19251 0
M  V30 6421 N 626.714 -0.118576 -1.57153 0
M  V30 6422 C 628.125 0.40687 -1.82213 0
M  V30 6423 C 628.476 1.66636 -1.03571 0
M  V30 6424 O 627.601 2.14682 -0.272171 0
M  V30 6425 C 628.196 0.744949 -3.30509 0
M  V30 6426 C 626.755 1.21503 -3.5625 0
M  V30 6427 C 625.902 0.223511 -2.76398 0
M  V30 6428 H 628.853 -0.343712 -1.54933 0
M  V30 6429 H 628.874 1.6024 -3.45114 0
M  V30 6430 H 628.386 -0.171911 -3.87719 0
M  V30 6431 H 626.487 2.1488 -3.04396 0
M  V30 6432 H 626.6 1.16065 -4.64829 0
M  V30 6433 H 624.964 0.71046 -2.44591 0
M  V30 6434 H 625.747 -0.686439 -3.36367 0
M  V30 6435 N 628.193 1.56834 0.155195 0
M  V30 6436 C 629.421 1.87049 0.884326 0
M  V30 6437 C 629.836 0.705839 1.7511 0
M  V30 6438 O 629.193 -0.324641 1.79589 0
M  V30 6439 C 629.244 3.1644 1.74781 0
M  V30 6440 O 628.965 4.28417 0.915978 0
M  V30 6441 C 630.466 3.60113 2.58522 0
M  V30 6442 H 627.686 0.620196 0.25612 0
M  V30 6443 H 630.23 2.03946 0.150445 0
M  V30 6444 H 628.385 3.01321 2.43484 0
M  V30 6445 H 628.799 5.02353 1.50803 0
M  V30 6446 H 630.273 4.53508 3.14698 0
M  V30 6447 H 630.75 2.85005 3.34169 0
M  V30 6448 H 631.356 3.77898 1.95124 0
M  V30 6449 N 629.671 -0.424282 1.51781 0
M  V30 6450 C 630.601 -1.52305 1.7699 0
M  V30 6451 C 631.582 -1.5839 0.620209 0
M  V30 6452 O 632.767 -1.73908 0.864268 0
M  V30 6453 C 629.897 -2.90271 1.90683 0
M  V30 6454 C 628.851 -2.99043 3.06198 0
M  V30 6455 C 628.177 -4.39116 3.05092 0
M  V30 6456 C 629.477 -2.7192 4.45934 0
M  V30 6457 H 631.171 -1.31461 2.68995 0
M  V30 6458 H 628.717 -0.630985 1.29439 0
M  V30 6459 H 630.67 -3.6711 2.06901 0
M  V30 6460 H 629.394 -3.12376 0.953365 0
M  V30 6461 H 628.053 -2.24646 2.89706 0
M  V30 6462 H 627.701 -4.58207 2.07498 0
M  V30 6463 H 627.401 -4.45912 3.82669 0
M  V30 6464 H 628.925 -5.17911 3.2342 0
M  V30 6465 H 630.339 -3.38487 4.62709 0
M  V30 6466 H 628.736 -2.90111 5.25315 0
M  V30 6467 H 629.806 -1.67445 4.55072 0
M  V30 6468 N 631.149 -1.42148 -0.680565 0
M  V30 6469 C 632.398 -1.41604 -1.43636 0
M  V30 6470 C 632.711 -0.0337887 -1.95571 0
M  V30 6471 O 633.917 0.0942588 -2.71336 0
M  V30 6472 C 632.373 -2.49056 -2.59806 0
M  V30 6473 C 631.981 -3.9326 -2.14594 0
M  V30 6474 C 633.725 -2.5767 -3.37352 0
M  V30 6475 C 631.632 -4.92232 -3.27813 0
M  V30 6476 H 630.562 -0.526656 -0.539583 0
M  V30 6477 H 633.213 -1.68033 -0.737369 0
M  V30 6478 H 631.595 -2.15782 -3.32045 0
M  V30 6479 H 632.769 -4.35858 -1.49546 0
M  V30 6480 H 631.084 -3.88443 -1.50002 0
M  V30 6481 H 633.681 -3.28794 -4.21662 0
M  V30 6482 H 634.024 -1.61837 -3.83555 0
M  V30 6483 H 634.557 -2.90109 -2.72179 0
M  V30 6484 H 631.296 -5.89522 -2.86607 0
M  V30 6485 H 630.816 -4.5427 -3.91661 0
M  V30 6486 H 632.495 -5.13684 -3.93367 0
M  V30 6487 N 632.627 0.916307 -1.28225 0
M  V30 6488 C 633.857 1.69654 -1.17902 0
M  V30 6489 C 634.265 1.87331 0.265268 0
M  V30 6490 O 633.608 1.39828 1.19137 0
M  V30 6491 C 633.67 3.11024 -1.80289 0
M  V30 6492 C 633.334 3.16643 -3.29525 0
M  V30 6493 C 634.331 2.98032 -4.25997 0
M  V30 6494 C 632.016 3.39238 -3.70436 0
M  V30 6495 C 634.01 3.01924 -5.61356 0
M  V30 6496 C 631.697 3.42762 -5.05922 0
M  V30 6497 C 632.695 3.24125 -6.01192 0
M  V30 6498 O 632.383 3.27406 -7.34208 0
M  V30 6499 H 632.115 0.537197 -0.41036 0
M  V30 6500 H 634.669 1.15547 -1.69817 0
M  V30 6501 H 632.899 3.66662 -1.22865 0
M  V30 6502 H 634.588 3.71063 -1.6452 0
M  V30 6503 H 635.354 2.80405 -3.95725 0
M  V30 6504 H 631.233 3.52791 -2.96749 0
M  V30 6505 H 634.777 2.87295 -6.35694 0
M  V30 6506 H 630.674 3.59916 -5.35846 0
M  V30 6507 H 631.442 3.43784 -7.42802 0
M  V30 6508 N 634.105 1.10431 1.1244 0
M  V30 6509 C 635.382 0.758797 1.80282 0
M  V30 6510 C 635.762 -0.754727 1.97147 0
M  V30 6511 O 635.11 -1.68094 1.54779 0
M  V30 6512 C 635.32 1.50982 3.14651 0
M  V30 6513 C 636.668 1.68232 3.8985 0
M  V30 6514 O 637.692 1.47319 3.24308 0
M  V30 6515 O 636.551 2.02905 5.07437 0
M  V30 6516 H 633.645 0.273756 0.780376 0
M  V30 6517 H 636.191 1.20713 1.19275 0
M  V30 6518 H 634.963 2.53989 2.97666 0
M  V30 6519 H 634.586 1.05435 3.83366 0
M  V30 6520 N 635.583 -1.29855 0.893053 0
M  V30 6521 C 636.53 -2.27909 0.364161 0
M  V30 6522 C 637.5 -1.56726 -0.550093 0
M  V30 6523 O 638.685 -1.84747 -0.47677 0
M  V30 6524 C 635.825 -3.42678 -0.408178 0
M  V30 6525 C 634.938 -4.28659 0.536212 0
M  V30 6526 C 634.073 -5.30599 -0.252521 0
M  V30 6527 C 633.112 -6.08234 0.686822 0
M  V30 6528 N 632.249 -7.02068 -0.0670902 0
M  V30 6529 H 637.089 -2.72531 1.20544 0
M  V30 6530 H 634.626 -1.34047 0.605779 0
M  V30 6531 H 636.584 -4.07986 -0.871962 0
M  V30 6532 H 635.214 -2.99103 -1.21397 0
M  V30 6533 H 634.266 -3.63584 1.1185 0
M  V30 6534 H 635.578 -4.8274 1.25552 0
M  V30 6535 H 634.732 -6.01694 -0.777801 0
M  V30 6536 H 633.471 -4.77233 -1.005 0
M  V30 6537 H 632.476 -5.3601 1.22366 0
M  V30 6538 H 633.701 -6.63689 1.43852 0
M  V30 6539 H 631.647 -6.5108 -0.801955 0
M  V30 6540 H 631.564 -7.53675 0.59243 0
M  V30 6541 H 632.832 -7.77392 -0.572851 0
M  V30 6542 N 637.061 -0.65484 -1.43351 0
M  V30 6543 C 638.31 -0.166215 -2.01014 0
M  V30 6544 C 638.623 1.22764 -1.52278 0
M  V30 6545 O 639.829 1.81156 -2.02224 0
M  V30 6546 C 638.285 -0.246341 -3.59056 0
M  V30 6547 C 637.893 -1.64299 -4.16785 0
M  V30 6548 C 639.637 0.184597 -4.24098 0
M  V30 6549 C 637.544 -1.67695 -5.67126 0
M  V30 6550 H 636.474 -0.0583769 -0.751737 0
M  V30 6551 H 639.125 -0.817111 -1.64303 0
M  V30 6552 H 637.507 0.472092 -3.93176 0
M  V30 6553 H 638.681 -2.3869 -3.94162 0
M  V30 6554 H 636.996 -2.02004 -3.6412 0
M  V30 6555 H 639.593 0.179088 -5.344 0
M  V30 6556 H 639.936 1.21632 -3.98135 0
M  V30 6557 H 640.469 -0.482141 -3.94867 0
M  V30 6558 H 637.208 -2.68783 -5.9786 0
M  V30 6559 H 636.728 -0.976313 -5.91801 0
M  V30 6560 H 638.407 -1.42142 -6.31193 0
M  V30 6561 N 638.539 1.52521 -0.396863 0
M  V30 6562 C 639.764 2.06571 0.185258 0
M  V30 6563 C 640.189 1.26605 1.39115 0
M  V30 6564 O 639.547 0.293055 1.78916 0
M  V30 6565 C 639.595 3.5674 0.526189 0
M  V30 6566 O 638.699 3.7929 1.61903 0
M  V30 6567 H 638.04 0.663712 0.0195474 0
M  V30 6568 H 640.57 1.966 -0.566519 0
M  V30 6569 H 640.58 4.00311 0.788338 0
M  V30 6570 H 639.255 4.14379 -0.355397 0
M  V30 6571 H 637.832 3.47605 1.35 0
M  V30 6572 O 640.056 0.267423 1.59271 0
M  V30 6573 H 640.747 -0.304099 1.91298 0
M  V30 END ATOM
M  V30 BEGIN BOND
M  V30 END BOND
M  V30 END CTAB
M  END
$$$$
