drugbank_target|P06870 Kallikrein-1 (DB01370; DB03127; DB06245; DB06692; DB06728; DB12598; DB14517; DB14518)
 OpenBabel12092119473D

  0  0  0     0  0            999 V3000
M  V30 BEGIN CTAB
M  V30 COUNTS 3960 4016 0 0 0
M  V30 BEGIN ATOM
M  V30 1 H -0.908 1.98254 -0.117106 0
M  V30 2 N 0 1.576 0 0
M  V30 3 C 0.933 2.03868 1.02534 0
M  V30 4 C 1.911 0.928543 1.3348 0
M  V30 5 O 3.095 1.19667 1.45644 0
M  V30 6 C 0.222 2.43627 2.35294 0
M  V30 7 C -0.732 3.65373 2.2001 0
M  V30 8 S 0.101 5.13292 1.52614 0
M  V30 9 C 1.257 5.56322 2.86805 0
M  V30 10 H 1.49 2.90518 0.631377 0
M  V30 11 H -0.977 1.52953 0.210867 0
M  V30 12 H 0.981 2.67203 3.11629 0
M  V30 13 H -0.358 1.57376 2.7183 0
M  V30 14 H -1.165 3.90944 3.18086 0
M  V30 15 H -1.563 3.418 1.51819 0
M  V30 16 H 0.729 5.58782 3.83104 0
M  V30 17 H 1.672 6.56266 2.65933 0
M  V30 18 H 2.08 4.83886 2.90714 0
M  V30 19 N 1.4781 -0.272755 1.55222 0
M  V30 20 C 2.7241 -1.00172 1.77023 0
M  V30 21 C 3.0791 -1.83928 0.564633 0
M  V30 22 O 2.3721 -1.86416 -0.442674 0
M  V30 23 C 2.5661 -1.91642 3.01675 0
M  V30 24 C 2.3951 -1.16888 4.34243 0
M  V30 25 C 1.1651 -0.884464 4.97499 0
M  V30 26 C 3.3631 -0.55919 5.11251 0
M  V30 27 N 1.3451 -0.11015 6.13801 0
M  V30 28 C 2.7161 0.0809469 6.19947 0
M  V30 29 C 4.7711 -0.467058 4.95705 0
M  V30 30 C 3.4741 0.804335 7.14789 0
M  V30 31 C 5.5001 0.242739 5.90902 0
M  V30 32 C 4.8621 0.871613 6.98987 0
M  V30 33 H 0.9611 -0.348529 0.700037 0
M  V30 34 H 3.5451 -0.277365 1.92714 0
M  V30 35 H 1.7161 -2.61303 2.87359 0
M  V30 36 H 3.4481 -2.57901 3.1188 0
M  V30 37 H 0.2031 -1.18979 4.58411 0
M  V30 38 H 0.6271 0.264344 6.76484 0
M  V30 39 H 5.2691 -0.93894 4.12242 0
M  V30 40 H 2.9871 1.2879 7.97771 0
M  V30 41 H 6.5731 0.314347 5.8095 0
M  V30 42 H 5.4531 1.4121 7.71381 0
M  V30 43 N 2.9562 -1.48159 -0.537278 0
M  V30 44 C 4.2032 -1.55804 -1.29349 0
M  V30 45 C 4.5312 -0.228802 -1.9315 0
M  V30 46 O 3.7862 0.780242 -1.79473 0
M  V30 47 C 4.0852 -2.63956 -2.40961 0
M  V30 48 C 3.7512 -4.0662 -1.94861 0
M  V30 49 C 2.4132 -4.45452 -1.82006 0
M  V30 50 C 4.7652 -4.96055 -1.59933 0
M  V30 51 C 2.0932 -5.71531 -1.32547 0
M  V30 52 C 4.4452 -6.22617 -1.11939 0
M  V30 53 C 3.1092 -6.60312 -0.976951 0
M  V30 54 H 2.3792 -0.570129 -0.473322 0
M  V30 55 H 5.0262 -1.81845 -0.600372 0
M  V30 56 H 3.3312 -2.31747 -3.15912 0
M  V30 57 H 5.0282 -2.67089 -2.99107 0
M  V30 58 H 1.6182 -3.75949 -2.05815 0
M  V30 59 H 5.8022 -4.66738 -1.68728 0
M  V30 60 H 1.0582 -5.99468 -1.202 0
M  V30 61 H 5.2322 -6.91318 -0.839811 0
M  V30 62 H 2.8592 -7.57895 -0.591501 0
M  V30 63 N 4.4343 0.785586 -1.36625 0
M  V30 64 C 5.3643 1.91259 -1.33949 0
M  V30 65 C 6.3453 1.68795 -0.210325 0
M  V30 66 O 7.5303 1.89854 -0.408561 0
M  V30 67 C 4.6603 3.28339 -1.13186 0
M  V30 68 C 3.6143 3.65335 -2.22967 0
M  V30 69 C 2.9403 5.00806 -1.87342 0
M  V30 70 C 4.2403 3.7352 -3.65075 0
M  V30 71 H 5.9343 1.93755 -2.28253 0
M  V30 72 H 3.4803 0.930788 -1.09874 0
M  V30 73 H 5.4333 4.06804 -1.09948 0
M  V30 74 H 4.1573 3.2624 -0.153332 0
M  V30 75 H 2.8163 2.89169 -2.25337 0
M  V30 76 H 2.4643 4.95233 -0.880545 0
M  V30 77 H 2.1643 5.26529 -2.60846 0
M  V30 78 H 3.6883 5.81687 -1.85667 0
M  V30 79 H 5.1023 4.42168 -3.64911 0
M  V30 80 H 3.4993 4.10731 -4.37516 0
M  V30 81 H 4.5693 2.74527 -3.99703 0
M  V30 82 N 5.9124 1.20967 1.01018 0
M  V30 83 C 7.1584 1.02526 1.74975 0
M  V30 84 C 7.4914 -0.4408 1.89131 0
M  V30 85 O 6.7664 -1.32718 1.42184 0
M  V30 86 C 7.0494 1.71699 3.1653 0
M  V30 87 C 6.9024 3.25791 3.10129 0
M  V30 88 C 8.2214 1.45531 4.15342 0
M  V30 89 H 5.3404 0.373863 0.635134 0
M  V30 90 H 7.9824 1.49071 1.17805 0
M  V30 91 H 6.1324 1.32128 3.65341 0
M  V30 92 H 7.8044 3.74697 2.69072 0
M  V30 93 H 6.0474 3.56363 2.47362 0
M  V30 94 H 6.7184 3.69353 4.10222 0
M  V30 95 H 9.1944 1.79872 3.75213 0
M  V30 96 H 8.0704 1.96453 5.1254 0
M  V30 97 H 8.3314 0.384237 4.40427 0
M  V30 98 N 7.3905 -1.2043 1.01659 0
M  V30 99 C 8.3205 -2.25466 0.607226 0
M  V30 100 C 9.3015 -1.65853 -0.377716 0
M  V30 101 O 10.4865 -1.92409 -0.263149 0
M  V30 102 C 7.6165 -3.47256 -0.0552949 0
M  V30 103 C 6.5705 -4.19462 0.850632 0
M  V30 104 C 5.8965 -5.34673 0.0538859 0
M  V30 105 C 7.1965 -4.75603 2.15868 0
M  V30 106 H 8.8905 -2.59962 1.48526 0
M  V30 107 H 6.4365 -1.2496 0.715605 0
M  V30 108 H 8.3895 -4.19917 -0.353233 0
M  V30 109 H 7.1135 -3.11924 -0.968045 0
M  V30 110 H 5.7725 -3.48667 1.13257 0
M  V30 111 H 5.4205 -4.95585 -0.860514 0
M  V30 112 H 5.1205 -5.83913 0.657192 0
M  V30 113 H 6.6445 -6.10138 -0.237598 0
M  V30 114 H 8.0585 -5.40083 1.92311 0
M  V30 115 H 6.4555 -5.3528 2.71284 0
M  V30 116 H 7.5255 -3.94346 2.82169 0
M  V30 117 N 8.8686 -0.792821 -1.36206 0
M  V30 118 C 10.1086 -0.372238 -2.00982 0
M  V30 119 C 10.4726 1.03749 -1.61555 0
M  V30 120 O 11.6736 1.55934 -2.18948 0
M  V30 121 C 9.9446 -0.534566 -3.5338 0
M  V30 122 S 11.5036 -0.202365 -4.38333 0
M  V30 123 H 8.3216 -0.142044 -0.696667 0
M  V30 124 H 10.9236 -1.03206 -1.66039 0
M  V30 125 H 9.6276 -1.5608 -3.79562 0
M  V30 126 H 9.1586 0.141065 -3.93147 0
M  V30 127 H 11.1736 0.994869 -4.86124 0
M  V30 128 N 10.3467 1.47872 -0.545128 0
M  V30 129 C 11.2767 2.32661 0.197793 0
M  V30 130 C 12.2577 1.43041 0.920504 0
M  V30 131 O 13.4427 1.71912 0.90333 0
M  V30 132 C 10.5727 3.24569 1.23582 0
M  V30 133 C 9.5267 4.23333 0.630323 0
M  V30 134 C 8.8527 5.0448 1.77211 0
M  V30 135 C 10.1527 5.20704 -0.407974 0
M  V30 136 H 11.8467 2.95024 -0.510045 0
M  V30 137 H 9.3927 1.4187 -0.246731 0
M  V30 138 H 11.3457 3.8272 1.76362 0
M  V30 139 H 10.0697 2.60236 1.97344 0
M  V30 140 H 8.7287 3.6639 0.123922 0
M  V30 141 H 8.3767 4.36561 2.49847 0
M  V30 142 H 8.0767 5.71339 1.37281 0
M  V30 143 H 9.6007 5.65487 2.3034 0
M  V30 144 H 11.0147 5.7329 0.033305 0
M  V30 145 H 9.4117 5.95699 -0.725486 0
M  V30 146 H 10.4817 4.66917 -1.30828 0
M  V30 147 N 11.8248 0.280983 1.55075 0
M  V30 148 C 12.7878 -0.590896 2.21452 0
M  V30 149 C 13.7878 -1.07682 1.19421 0
M  V30 150 O 14.9778 -0.97605 1.44288 0
M  V30 151 C 12.1098 -1.81587 2.88511 0
M  V30 152 H 13.3028 -0.0112554 2.99898 0
M  V30 153 H 10.8558 0.0316438 1.56268 0
M  V30 154 H 11.5908 -2.43587 2.14093 0
M  V30 155 H 11.3758 -1.4753 3.63287 0
M  V30 156 H 12.8658 -2.43575 3.39206 0
M  V30 157 N 13.3029 -1.57598 0.00835791 0
M  V30 158 C 14.2329 -2.1198 -0.979113 0
M  V30 159 C 15.2139 -1.03091 -1.35301 0
M  V30 160 O 16.3989 -1.30818 -1.43528 0
M  V30 161 C 13.5289 -2.62995 -2.26828 0
M  V30 162 C 12.4829 -3.76485 -2.03576 0
M  V30 163 C 11.8089 -4.13846 -3.38579 0
M  V30 164 C 13.1089 -5.0342 -1.39161 0
M  V30 165 H 14.8029 -2.94738 -0.526281 0
M  V30 166 H 12.3489 -1.41783 -0.251704 0
M  V30 167 H 14.3019 -2.99669 -2.96271 0
M  V30 168 H 13.0259 -1.7737 -2.7424 0
M  V30 169 H 11.6849 -3.40217 -1.36557 0
M  V30 170 H 11.3329 -3.25232 -3.83709 0
M  V30 171 H 11.0329 -4.90312 -3.23834 0
M  V30 172 H 12.5569 -4.53086 -4.09323 0
M  V30 173 H 13.9709 -5.37812 -1.98573 0
M  V30 174 H 12.3679 -5.84746 -1.34878 0
M  V30 175 H 13.4379 -4.83548 -0.361868 0
M  V30 176 N 14.781 0.264519 -1.55364 0
M  V30 177 C 16.006 1.01726 -1.80739 0
M  V30 178 C 16.431 1.78836 -0.583044 0
M  V30 179 O 15.789 1.75167 0.467566 0
M  V30 180 C 15.837 1.94482 -3.03659 0
M  V30 181 O 14.941 3.03386 -2.7934 0
M  V30 182 H 14.282 0.290395 -0.597132 0
M  V30 183 H 16.812 0.290854 -2.02522 0
M  V30 184 H 16.822 2.36278 -3.32621 0
M  V30 185 H 15.497 1.37772 -3.92418 0
M  V30 186 H 14.074 2.65844 -2.61498 0
M  V30 187 N 16.2591 1.48442 0.529413 0
M  V30 188 C 17.1891 1.65902 1.64313 0
M  V30 189 C 18.1701 0.507897 1.6234 0
M  V30 190 O 19.3551 0.740503 1.79528 0
M  V30 191 C 16.4851 1.69911 3.02898 0
M  V30 192 C 15.4391 2.8453 3.19729 0
M  V30 193 C 14.7651 2.73629 4.59381 0
M  V30 194 C 16.0651 4.25821 3.02447 0
M  V30 195 H 17.7591 2.5914 1.49955 0
M  V30 196 H 15.3051 1.24709 0.719982 0
M  V30 197 H 17.2581 1.80715 3.80684 0
M  V30 198 H 15.9821 0.732524 3.18279 0
M  V30 199 H 14.6411 2.73283 2.44361 0
M  V30 200 H 14.2891 1.74938 4.71599 0
M  V30 201 H 13.9891 3.50541 4.71588 0
M  V30 202 H 15.5131 2.86401 5.39265 0
M  V30 203 H 16.9271 4.37898 3.70024 0
M  V30 204 H 15.3241 5.03735 3.26146 0
M  V30 205 H 16.3941 4.42244 1.98867 0
M  V30 206 N 17.7372 -0.778329 1.37039 0
M  V30 207 C 18.9852 -1.53361 1.31623 0
M  V30 208 C 19.3062 -1.94739 -0.100831 0
M  V30 209 O 18.5762 -1.65797 -1.04347 0
M  V30 210 H 17.1562 -0.568794 0.484234 0
M  V30 211 H 19.8182 -0.926742 1.71457 0
M  V30 212 H 18.9142 -2.43606 1.95096 0
M  V30 213 N 19.2153 -1.21501 -1.00376 0
M  V30 214 C 20.4633 -1.03095 -1.73827 0
M  V30 215 C 20.7843 0.436341 -1.90055 0
M  V30 216 O 20.0543 1.31466 -1.45236 0
M  V30 217 H 18.6343 -0.378487 -0.644016 0
M  V30 218 H 21.2963 -1.52831 -1.20949 0
M  V30 219 H 20.3923 -1.49991 -2.73695 0
M  V30 220 N 20.6934 1.19889 -1.02296 0
M  V30 221 C 21.9214 1.9339 -0.735399 0
M  V30 222 C 22.3364 1.75148 0.704887 0
M  V30 223 O 21.6934 1.06954 1.47875 0
M  V30 224 C 21.7444 3.45313 -1.06962 0
M  V30 225 O 21.4654 3.62964 -2.45334 0
M  V30 226 C 22.9664 4.35948 -0.804021 0
M  V30 227 H 20.1864 0.61448 -0.269546 0
M  V30 228 H 22.7304 1.522 -1.36585 0
M  V30 229 H 20.8854 3.84359 -0.484455 0
M  V30 230 H 21.2994 4.56886 -2.57595 0
M  V30 231 H 22.7734 5.41174 -1.0879 0
M  V30 232 H 23.2504 4.3842 0.261691 0
M  V30 233 H 23.8564 4.02574 -1.37164 0
M  V30 234 N 22.1715 0.800033 1.35784 0
M  V30 235 C 23.4195 0.376597 1.9856 0
M  V30 236 C 23.7405 -1.05812 1.63795 0
M  V30 237 O 23.0105 -1.73103 0.917171 0
M  V30 238 H 21.5905 0.136261 0.734467 0
M  V30 239 H 24.2525 1.02442 1.65806 0
M  V30 240 H 23.3485 0.477002 3.08433 0
M  V30 241 N 23.6496 -1.47581 0.552962 0
M  V30 242 C 24.6126 -2.28439 -0.186605 0
M  V30 243 C 25.6126 -1.36706 -0.84665 0
M  V30 244 O 26.8026 -1.59378 -0.703164 0
M  V30 245 C 23.9346 -3.16264 -1.2724 0
M  V30 246 H 25.1276 -2.95294 0.523609 0
M  V30 247 H 22.6806 -1.532 0.309745 0
M  V30 248 H 23.4156 -2.54091 -2.01514 0
M  V30 249 H 23.2006 -3.83769 -0.803968 0
M  V30 250 H 24.6906 -3.77198 -1.79196 0
M  V30 251 N 25.1277 -0.289203 -1.54924 0
M  V30 252 C 26.0907 0.579144 -2.21762 0
M  V30 253 C 27.0907 1.07047 -1.1999 0
M  V30 254 O 28.2807 0.968384 -1.44803 0
M  V30 255 C 25.4127 1.80055 -2.8947 0
M  V30 256 H 26.6057 -0.00464908 -2.999 0
M  V30 257 H 24.1587 -0.0399306 -1.56249 0
M  V30 258 H 24.8937 2.42449 -2.15381 0
M  V30 259 H 24.6787 1.45602 -3.64064 0
M  V30 260 H 26.1687 2.41773 -3.40493 0
M  V30 261 N 26.6058 1.57591 -0.0167156 0
M  V30 262 C 28.0168 1.79201 0.523834 0
M  V30 263 C 28.3678 0.925796 1.72984 0
M  V30 264 O 27.4928 0.132792 2.15992 0
M  V30 265 C 28.0878 3.25 0.957091 0
M  V30 266 C 26.6468 3.47648 1.44283 0
M  V30 267 C 25.7938 2.74374 0.401757 0
M  V30 268 H 28.7448 1.56831 -0.242816 0
M  V30 269 H 28.7658 3.34031 1.82219 0
M  V30 270 H 28.2778 3.88019 0.0791415 0
M  V30 271 H 26.3788 2.89866 2.34113 0
M  V30 272 H 26.4918 4.56352 1.45877 0
M  V30 273 H 24.8558 2.39485 0.867121 0
M  V30 274 H 25.6388 3.40102 -0.467513 0
M  V30 275 N 28.0839 -0.256276 1.55502 0
M  V30 276 C 29.4949 -0.826068 1.67431 0
M  V30 277 C 29.8459 -1.86396 0.612446 0
M  V30 278 O 28.9709 -2.15031 -0.243025 0
M  V30 279 C 29.5659 -1.50512 3.03532 0
M  V30 280 C 28.1249 -2.02273 3.17431 0
M  V30 281 C 27.2719 -0.870548 2.63281 0
M  V30 282 H 30.2229 -0.0322728 1.58667 0
M  V30 283 H 30.2439 -2.37279 2.97454 0
M  V30 284 H 29.7559 -0.749484 3.80794 0
M  V30 285 H 27.8569 -2.80746 2.44974 0
M  V30 286 H 27.9699 -2.22655 4.24219 0
M  V30 287 H 26.3339 -1.26851 2.20864 0
M  V30 288 H 27.1169 -0.128149 3.43061 0
M  V30 289 N 29.562 -1.4872 -0.521534 0
M  V30 290 C 30.811 -1.56419 -1.27341 0
M  V30 291 C 31.124 -0.246805 -1.94037 0
M  V30 292 O 32.33 -0.202122 -2.70747 0
M  V30 293 C 30.786 -2.75896 -2.31105 0
M  V30 294 C 30.394 -4.14311 -1.70441 0
M  V30 295 C 32.138 -2.92913 -3.07249 0
M  V30 296 C 30.045 -5.25038 -2.72194 0
M  V30 297 H 28.975 -0.582344 -0.478949 0
M  V30 298 H 31.626 -1.75071 -0.549779 0
M  V30 299 H 30.008 -2.50697 -3.06541 0
M  V30 300 H 31.182 -4.49564 -1.01136 0
M  V30 301 H 29.497 -4.02482 -1.06759 0
M  V30 302 H 32.094 -3.72805 -3.83302 0
M  V30 303 H 32.437 -2.02689 -3.63625 0
M  V30 304 H 32.97 -3.18054 -2.38928 0
M  V30 305 H 29.709 -6.17255 -2.20627 0
M  V30 306 H 29.229 -4.94263 -3.39801 0
M  V30 307 H 30.908 -5.53508 -3.35019 0
M  V30 308 N 31.0401 0.771051 -1.3745 0
M  V30 309 C 31.9721 1.89352 -1.29146 0
M  V30 310 C 32.9851 1.61477 -0.207124 0
M  V30 311 O 34.1741 1.72382 -0.463324 0
M  V30 312 C 31.2741 3.24596 -0.974195 0
M  V30 313 C 30.4471 3.80111 -2.16413 0
M  V30 314 C 29.5061 4.93832 -1.81703 0
M  V30 315 O 28.5321 5.09382 -2.54006 0
M  V30 316 N 29.7341 5.75483 -0.761573 0
M  V30 317 H 32.4991 1.96991 -2.25864 0
M  V30 318 H 30.0601 0.950191 -1.31084 0
M  V30 319 H 32.0521 3.98193 -0.722828 0
M  V30 320 H 30.6221 3.12454 -0.0955527 0
M  V30 321 H 29.8421 2.98284 -2.57721 0
M  V30 322 H 31.1301 4.13932 -2.95867 0
M  V30 323 H 30.5281 5.65469 -0.161609 0
M  V30 324 H 29.0851 6.49302 -0.570064 0
M  V30 325 N 32.5182 1.22032 0.997298 0
M  V30 326 C 33.7432 1.06921 1.77715 0
M  V30 327 C 34.1682 -0.376226 1.84299 0
M  V30 328 O 33.5262 -1.27165 1.29223 0
M  V30 329 C 33.5742 1.67996 3.19076 0
M  V30 330 O 32.6782 0.930653 4.01762 0
M  V30 331 H 32.0192 0.375814 0.547412 0
M  V30 332 H 34.5492 1.61737 1.25309 0
M  V30 333 H 34.5592 1.72538 3.69723 0
M  V30 334 H 33.2342 2.73182 3.13599 0
M  V30 335 H 31.8112 0.960917 3.60307 0
M  V30 336 N 33.9963 -1.19345 1.0293 0
M  V30 337 C 35.4123 -1.41069 0.746446 0
M  V30 338 C 35.6123 -1.90078 -0.668776 0
M  V30 339 O 34.6683 -2.0778 -1.4347 0
M  V30 340 C 35.9813 -2.42141 1.78292 0
M  V30 341 C 37.5293 -2.55887 1.80252 0
M  V30 342 C 38.0043 -3.60214 2.8286 0
M  V30 343 N 39.4953 -3.67711 2.81679 0
M  V30 344 C 40.2303 -4.48128 3.57727 0
M  V30 345 N 39.7263 -5.32248 4.43491 0
M  V30 346 N 41.5193 -4.42782 3.46267 0
M  V30 347 H 33.6703 -0.858536 1.94275 0
M  V30 348 H 35.9333 -0.439541 0.839945 0
M  V30 349 H 35.6393 -2.13155 2.79746 0
M  V30 350 H 35.5133 -3.41323 1.60557 0
M  V30 351 H 37.9003 -2.84196 0.794757 0
M  V30 352 H 37.9813 -1.56858 2.02062 0
M  V30 353 H 37.6253 -3.32647 3.83807 0
M  V30 354 H 37.5553 -4.58895 2.58307 0
M  V30 355 H 40.0463 -3.07634 2.19476 0
M  V30 356 H 40.3593 -5.90729 4.98256 0
M  V30 357 H 38.7043 -5.31707 4.47564 0
M  V30 358 H 41.8953 -3.76107 2.78677 0
M  V30 359 H 42.0683 -5.05215 4.05785 0
M  V30 360 N 35.4744 -0.807222 -1.35358 0
M  V30 361 C 36.7234 -0.384376 -1.98004 0
M  V30 362 C 37.0364 1.0543 -1.64754 0
M  V30 363 O 38.2424 1.58029 -2.20769 0
M  V30 364 C 36.6984 -0.636326 -3.5423 0
M  V30 365 C 36.3064 -2.08759 -3.96388 0
M  V30 366 C 38.0504 -0.278869 -4.23583 0
M  V30 367 C 35.9574 -2.28525 -5.45463 0
M  V30 368 H 34.8874 -0.139986 -0.740891 0
M  V30 369 H 37.5384 -0.991369 -1.54415 0
M  V30 370 H 35.9204 0.0406256 -3.95979 0
M  V30 371 H 37.0944 -2.8024 -3.6579 0
M  V30 372 H 35.4094 -2.40497 -3.39926 0
M  V30 373 H 38.0064 -0.404599 -5.33167 0
M  V30 374 H 38.3494 0.775012 -4.09022 0
M  V30 375 H 38.8824 -0.909764 -3.87257 0
M  V30 376 H 35.6214 -3.32361 -5.64992 0
M  V30 377 H 35.1414 -1.61569 -5.77629 0
M  V30 378 H 36.8204 -2.10109 -6.11934 0
M  V30 379 N 36.9525 1.47285 -0.560781 0
M  V30 380 C 38.1985 2.02764 -0.0381184 0
M  V30 381 C 38.5315 1.43384 1.30976 0
M  V30 382 O 37.8065 0.590733 1.85312 0
M  V30 383 C 38.0895 3.60064 0.0511427 0
M  V30 384 C 37.9425 4.2987 -1.32408 0
M  V30 385 C 39.2615 4.33439 0.762795 0
M  V30 386 H 36.3805 0.736841 -0.0153264 0
M  V30 387 H 39.0225 1.75675 -0.723759 0
M  V30 388 H 37.1725 3.83274 0.635065 0
M  V30 389 H 38.8445 4.17989 -1.95148 0
M  V30 390 H 37.0875 3.90085 -1.8978 0
M  V30 391 H 37.7585 5.38478 -1.21431 0
M  V30 392 H 40.2345 4.15243 0.266965 0
M  V30 393 H 39.1105 5.43124 0.794221 0
M  V30 394 H 39.3715 4.02915 1.81966 0
M  V30 395 N 38.4306 0.297415 1.54768 0
M  V30 396 C 39.6786 -0.312295 1.99673 0
M  V30 397 C 39.9996 -1.54686 1.18732 0
M  V30 398 O 39.2696 -1.93854 0.282382 0
M  V30 399 H 37.8496 -0.118381 0.73756 0
M  V30 400 H 40.5116 0.407915 1.90583 0
M  V30 401 H 39.6076 -0.586813 3.06534 0
M  V30 402 N 39.9087 -1.5758 0.0250728 0
M  V30 403 C 41.1567 -1.91255 -0.653151 0
M  V30 404 C 41.4777 -0.901691 -1.729 0
M  V30 405 O 40.7477 0.0573785 -1.95816 0
M  V30 406 H 39.3277 -0.705942 -0.244243 0
M  V30 407 H 41.9897 -1.94767 0.0719209 0
M  V30 408 H 41.0857 -2.91752 -1.10847 0
M  V30 409 N 41.3868 0.248026 -1.55636 0
M  V30 410 C 42.6328 0.973427 -1.78594 0
M  V30 411 C 42.9878 1.83007 -0.593823 0
M  V30 412 O 42.2808 1.87097 0.412961 0
M  V30 413 C 42.4748 1.86819 -3.04686 0
M  V30 414 C 42.3038 1.09965 -4.36048 0
M  V30 415 C 41.0738 0.805204 -4.98843 0
M  V30 416 C 43.2718 0.477783 -5.12076 0
M  V30 417 N 41.2538 0.0124859 -6.13899 0
M  V30 418 C 42.6248 -0.179565 -6.1974 0
M  V30 419 C 44.6798 0.388136 -4.96385 0
M  V30 420 C 43.3828 -0.91795 -7.13419 0
M  V30 421 C 45.4088 -0.336716 -5.90441 0
M  V30 422 C 44.7708 -0.982705 -6.97511 0
M  V30 423 H 40.8698 0.337348 -0.705493 0
M  V30 424 H 43.4538 0.24667 -1.93131 0
M  V30 425 H 41.6248 2.56698 -2.9148 0
M  V30 426 H 43.3568 2.52907 -3.15944 0
M  V30 427 H 40.1118 1.11671 -4.60246 0
M  V30 428 H 40.5358 -0.371933 -6.75978 0
M  V30 429 H 45.1778 0.873237 -4.13684 0
M  V30 430 H 42.8958 -1.41466 -7.95621 0
M  V30 431 H 46.4818 -0.406731 -5.80377 0
M  V30 432 H 45.3618 -1.53464 -7.69037 0
M  V30 433 N 42.8649 1.48995 0.513639 0
M  V30 434 C 43.7749 1.67443 1.64317 0
M  V30 435 C 44.7909 0.556947 1.64846 0
M  V30 436 O 45.9669 0.830082 1.83498 0
M  V30 437 C 43.0319 1.72515 3.00732 0
M  V30 438 C 42.0929 2.96009 3.1093 0
M  V30 439 C 41.3259 3.00829 4.40837 0
M  V30 440 O 41.5489 2.13594 5.28898 0
M  V30 441 O 40.4829 3.93168 4.55744 0
M  V30 442 H 44.3089 2.63106 1.51687 0
M  V30 443 H 41.8939 1.32588 0.688543 0
M  V30 444 H 43.7759 1.78277 3.81831 0
M  V30 445 H 42.4509 0.800278 3.13651 0
M  V30 446 H 41.3579 2.9577 2.29065 0
M  V30 447 H 42.6909 3.87934 3.02933 0
M  V30 448 N 44.343 -0.763751 1.37857 0
M  V30 449 C 45.583 -1.53551 1.34913 0
M  V30 450 C 45.947 -1.91895 -0.0635882 0
M  V30 451 O 47.148 -2.67916 -0.217825 0
M  V30 452 C 45.419 -2.76126 2.26912 0
M  V30 453 S 46.978 -3.66105 2.41893 0
M  V30 454 H 43.796 -0.52559 0.478828 0
M  V30 455 H 46.398 -0.897435 1.73685 0
M  V30 456 H 45.102 -2.4605 3.28463 0
M  V30 457 H 44.633 -3.44887 1.89253 0
M  V30 458 H 46.648 -4.68473 1.63545 0
M  V30 459 N 45.8211 -1.22559 -0.990812 0
M  V30 460 C 46.7311 -1.01394 -2.11557 0
M  V30 461 C 47.7471 0.0383962 -1.73958 0
M  V30 462 O 48.9231 -0.154787 -2.00804 0
M  V30 463 C 45.9881 -0.596569 -3.41529 0
M  V30 464 C 45.0491 -1.72276 -3.93217 0
M  V30 465 C 44.2821 -1.32521 -5.16985 0
M  V30 466 O 44.5051 -0.204909 -5.70032 0
M  V30 467 O 43.4391 -2.14247 -5.62478 0
M  V30 468 H 47.2651 -1.95633 -2.32296 0
M  V30 469 H 44.8501 -1.01172 -1.0993 0
M  V30 470 H 46.7321 -0.374263 -4.19735 0
M  V30 471 H 45.4071 0.316939 -3.22145 0
M  V30 472 H 44.3141 -1.99961 -3.16174 0
M  V30 473 H 45.6471 -2.61421 -4.17037 0
M  V30 474 N 47.2992 1.18797 -1.03562 0
M  V30 475 C 48.2312 2.21731 -0.580337 0
M  V30 476 C 49.2442 1.59051 0.347349 0
M  V30 477 O 50.4332 1.77929 0.142669 0
M  V30 478 C 47.5332 3.38459 0.172805 0
M  V30 479 C 46.7062 4.3072 -0.761496 0
M  V30 480 C 45.7652 5.26174 -0.0525547 0
M  V30 481 O 44.7912 5.65108 -0.681333 0
M  V30 482 N 45.9932 5.67624 1.21586 0
M  V30 483 H 48.7582 2.61417 -1.46565 0
M  V30 484 H 46.3192 1.33531 -0.915476 0
M  V30 485 H 48.3112 3.99335 0.656793 0
M  V30 486 H 46.8812 2.97507 0.959602 0
M  V30 487 H 46.1012 3.67525 -1.42544 0
M  V30 488 H 47.3892 4.89267 -1.39626 0
M  V30 489 H 46.7872 5.38038 1.74732 0
M  V30 490 H 45.3442 6.30721 1.64421 0
M  V30 491 N 48.7773 0.814389 1.34928 0
M  V30 492 C 49.7273 0.202752 2.27097 0
M  V30 493 C 50.7113 -0.62799 1.48139 0
M  V30 494 O 51.9033 -0.483969 1.70255 0
M  V30 495 C 49.0323 -0.64146 3.37254 0
M  V30 496 C 48.1183 0.19944 4.23631 0
M  V30 497 N 48.5093 1.26628 4.89693 0
M  V30 498 C 46.8073 -0.0176433 4.45997 0
M  V30 499 C 47.5083 1.78031 5.53787 0
M  V30 500 N 46.4843 1.08553 5.32651 0
M  V30 501 H 50.2863 1.01893 2.75672 0
M  V30 502 H 47.8003 0.656332 1.48546 0
M  V30 503 H 49.7973 -1.09575 4.02243 0
M  V30 504 H 48.4573 -1.4559 2.9023 0
M  V30 505 H 49.4683 1.64901 4.90946 0
M  V30 506 H 46.1453 -0.800601 4.09752 0
M  V30 507 H 47.5353 2.67236 6.16469 0
M  V30 508 N 50.2554 -1.46986 0.568584 0
M  V30 509 C 51.4804 -2.07335 0.0520528 0
M  V30 510 C 51.9054 -1.41675 -1.23733 0
M  V30 511 O 51.2634 -0.495623 -1.74394 0
M  V30 512 C 51.3114 -3.60417 -0.11501 0
M  V30 513 O 50.4154 -3.95309 -1.17492 0
M  V30 514 H 49.7564 -0.661597 0.0564385 0
M  V30 515 H 52.2864 -1.88837 0.787507 0
M  V30 516 H 52.2964 -4.06698 -0.325644 0
M  V30 517 H 50.9714 -4.07601 0.826675 0
M  V30 518 H 49.5484 -3.60757 -0.943869 0
M  V30 519 N 51.7335 -0.305618 -1.54608 0
M  V30 520 C 52.6655 0.602161 -2.21149 0
M  V30 521 C 53.6785 1.09394 -1.20569 0
M  V30 522 O 54.8675 1.0106 -1.47136 0
M  V30 523 C 51.9675 1.83692 -2.84799 0
M  V30 524 C 51.1405 1.48686 -4.11353 0
M  V30 525 C 50.1995 2.57725 -4.58764 0
M  V30 526 O 49.2255 2.22623 -5.23858 0
M  V30 527 N 50.4275 3.88346 -4.31471 0
M  V30 528 H 53.1925 0.0324966 -2.99682 0
M  V30 529 H 50.7535 -0.128021 -1.61393 0
M  V30 530 H 52.7455 2.55994 -3.13448 0
M  V30 531 H 51.3155 2.31486 -2.10078 0
M  V30 532 H 50.5355 0.596269 -3.89664 0
M  V30 533 H 51.8235 1.22842 -4.93748 0
M  V30 534 H 51.2215 4.19671 -3.79331 0
M  V30 535 H 49.7785 4.56932 -4.64818 0
M  V30 536 N 53.2116 1.57565 -0.0334293 0
M  V30 537 C 54.6226 1.79746 0.504798 0
M  V30 538 C 54.9736 0.944091 1.71992 0
M  V30 539 O 54.0986 0.155694 2.15839 0
M  V30 540 C 54.6936 3.25997 0.922567 0
M  V30 541 C 53.2526 3.49159 1.40588 0
M  V30 542 C 52.3996 2.74785 0.372633 0
M  V30 543 H 55.3506 1.56565 -0.259436 0
M  V30 544 H 55.3716 3.35945 1.78666 0
M  V30 545 H 54.8836 3.88081 0.0379825 0
M  V30 546 H 52.9846 2.92332 2.31025 0
M  V30 547 H 53.0976 4.57873 1.41028 0
M  V30 548 H 51.4616 2.40391 0.841672 0
M  V30 549 H 52.2446 3.39587 -0.503559 0
M  V30 550 N 54.6897 -0.239769 1.55765 0
M  V30 551 C 55.9357 -0.963942 1.79108 0
M  V30 552 C 56.2907 -1.82689 0.60352 0
M  V30 553 O 55.5837 -1.87313 -0.403033 0
M  V30 554 C 55.7777 -1.852 3.05672 0
M  V30 555 C 55.6067 -1.07651 4.36625 0
M  V30 556 C 54.3767 -0.778738 4.99263 0
M  V30 557 C 56.5747 -0.45062 5.12322 0
M  V30 558 N 54.5567 0.0200708 6.13897 0
M  V30 559 C 55.9277 0.212429 6.19636 0
M  V30 560 C 57.9827 -0.361806 4.96584 0
M  V30 561 C 56.6857 0.955772 7.12922 0
M  V30 562 C 58.7117 0.368023 5.90254 0
M  V30 563 C 58.0737 1.01968 6.96981 0
M  V30 564 H 54.1727 -0.333601 0.707272 0
M  V30 565 H 56.7567 -0.236425 1.93259 0
M  V30 566 H 54.9277 -2.55149 2.92837 0
M  V30 567 H 56.6597 -2.51228 3.1728 0
M  V30 568 H 53.4147 -1.09229 4.60832 0
M  V30 569 H 53.8387 0.407777 6.75771 0
M  V30 570 H 58.4807 -0.851286 4.14141 0
M  V30 571 H 56.1987 1.45683 7.9486 0
M  V30 572 H 59.7847 0.437504 5.80153 0
M  V30 573 H 58.6647 1.5754 7.68213 0
M  V30 574 N 56.1678 -1.49265 -0.50573 0
M  V30 575 C 57.0998 -1.617 -1.62437 0
M  V30 576 C 58.1128 -0.499924 -1.54934 0
M  V30 577 O 59.3018 -0.771785 -1.60953 0
M  V30 578 C 56.4018 -1.5533 -3.01207 0
M  V30 579 C 55.5748 -2.8249 -3.33943 0
M  V30 580 C 54.6338 -2.69238 -4.52103 0
M  V30 581 O 53.6598 -3.43167 -4.5412 0
M  V30 582 N 54.8618 -1.80468 -5.51735 0
M  V30 583 H 57.6268 -2.58177 -1.52199 0
M  V30 584 H 55.1878 -1.46294 -0.693511 0
M  V30 585 H 57.1798 -1.44125 -3.78167 0
M  V30 586 H 55.7498 -0.667297 -3.05395 0
M  V30 587 H 54.9698 -3.08081 -2.45926 0
M  V30 588 H 56.2578 -3.66802 -3.5261 0
M  V30 589 H 55.6558 -1.19653 -5.52901 0
M  V30 590 H 54.2128 -1.75188 -6.27816 0
M  V30 591 N 57.6459 0.756429 -1.3826 0
M  V30 592 C 58.6089 1.85176 -1.35065 0
M  V30 593 C 59.6089 1.58818 -0.251703 0
M  V30 594 O 60.7989 1.66615 -0.508433 0
M  V30 595 C 57.9309 3.22596 -1.10201 0
M  V30 596 H 59.1239 1.89417 -2.3251 0
M  V30 597 H 56.6769 0.95783 -1.23512 0
M  V30 598 H 57.4119 3.24025 -0.133504 0
M  V30 599 H 57.1969 3.43122 -1.89762 0
M  V30 600 H 58.6869 4.02673 -1.10654 0
M  V30 601 N 59.124 1.23083 0.984299 0
M  V30 602 C 60.087 1.00979 2.05757 0
M  V30 603 C 61.087 -0.0269573 1.60777 0
M  V30 604 O 62.277 0.212403 1.729 0
M  V30 605 C 59.409 0.527072 3.36801 0
M  V30 606 H 60.602 1.9622 2.26799 0
M  V30 607 H 58.155 1.05072 1.15714 0
M  V30 608 H 58.89 -0.429294 3.21446 0
M  V30 609 H 58.675 1.27515 3.70786 0
M  V30 610 H 60.165 0.392942 4.15747 0
M  V30 611 N 60.6021 -1.18246 1.0419 0
M  V30 612 C 61.5321 -2.24127 0.654914 0
M  V30 613 C 62.5131 -1.66617 -0.342451 0
M  V30 614 O 63.6981 -1.92924 -0.222277 0
M  V30 615 C 60.8281 -3.47295 0.0183757 0
M  V30 616 C 59.7821 -4.17563 0.939414 0
M  V30 617 C 59.1081 -5.34438 0.167286 0
M  V30 618 C 60.4081 -4.70917 2.25908 0
M  V30 619 H 62.1021 -2.56753 1.54007 0
M  V30 620 H 59.6481 -1.23414 0.74195 0
M  V30 621 H 61.6011 -4.20572 -0.264082 0
M  V30 622 H 60.3251 -3.13907 -0.901664 0
M  V30 623 H 58.9841 -3.46186 1.20628 0
M  V30 624 H 58.6321 -4.97298 -0.7552 0
M  V30 625 H 58.3321 -5.82388 0.780901 0
M  V30 626 H 59.8561 -6.10504 -0.108125 0
M  V30 627 H 61.2701 -5.35882 2.03724 0
M  V30 628 H 59.6671 -5.29406 2.82577 0
M  V30 629 H 60.7371 -3.88272 2.9047 0
M  V30 630 N 62.0802 -0.821533 -1.34494 0
M  V30 631 C 63.3102 -0.421272 -2.02259 0
M  V30 632 C 63.7182 0.977047 -1.6202 0
M  V30 633 O 63.0612 1.64348 -0.820703 0
M  V30 634 C 63.1232 -0.44231 -3.56769 0
M  V30 635 C 62.7872 -1.79372 -4.20327 0
M  V30 636 C 63.7842 -2.75435 -4.40944 0
M  V30 637 C 61.4692 -2.08182 -4.57127 0
M  V30 638 C 63.4632 -3.98482 -4.97484 0
M  V30 639 C 61.1502 -3.31489 -5.13379 0
M  V30 640 C 62.1482 -4.26457 -5.33501 0
M  V30 641 O 61.8362 -5.47585 -5.88562 0
M  V30 642 H 61.5682 -0.167473 -0.654927 0
M  V30 643 H 64.1222 -1.11073 -1.72777 0
M  V30 644 H 62.3522 0.303836 -3.85505 0
M  V30 645 H 64.0412 -0.0622925 -4.05852 0
M  V30 646 H 64.8072 -2.54473 -4.12878 0
M  V30 647 H 60.6862 -1.35066 -4.4077 0
M  V30 648 H 64.2302 -4.72618 -5.13106 0
M  V30 649 H 60.1272 -3.52316 -5.40873 0
M  V30 650 H 60.8952 -5.49086 -6.06998 0
M  V30 651 N 63.5583 1.46682 -0.576371 0
M  V30 652 C 64.5083 2.27278 0.181288 0
M  V30 653 C 65.4923 1.35497 0.867721 0
M  V30 654 O 66.6843 1.59717 0.762863 0
M  V30 655 C 63.8133 3.21703 1.19841 0
M  V30 656 C 62.8993 4.20969 0.51442 0
M  V30 657 N 63.2903 5.03999 -0.426407 0
M  V30 658 C 61.5883 4.39373 0.765963 0
M  V30 659 C 62.2893 5.75812 -0.825565 0
M  V30 660 N 61.2653 5.43315 -0.176116 0
M  V30 661 H 65.0673 2.88863 -0.541785 0
M  V30 662 H 62.5813 1.57455 -0.397697 0
M  V30 663 H 64.5783 3.78145 1.75533 0
M  V30 664 H 63.2383 2.61677 1.92238 0
M  V30 665 H 64.2493 5.11659 -0.8016 0
M  V30 666 H 60.9263 3.90502 1.47698 0
M  V30 667 H 62.3163 6.52577 -1.59976 0
M  V30 668 N 65.0364 0.313813 1.54444 0
M  V30 669 C 66.2834 -0.291675 2.00388 0
M  V30 670 C 66.6114 -1.52904 1.2021 0
M  V30 671 O 65.8664 -1.93833 0.269707 0
M  V30 672 C 66.1654 -0.680386 3.50864 0
M  V30 673 C 65.8314 0.456699 4.48581 0
M  V30 674 C 64.4934 0.768824 4.75018 0
M  V30 675 C 66.8454 1.22098 5.06697 0
M  V30 676 C 64.1734 1.84812 5.56831 0
M  V30 677 C 66.5254 2.29029 5.89685 0
M  V30 678 C 65.1894 2.60834 6.14428 0
M  V30 679 H 64.4594 -0.106732 0.733273 0
M  V30 680 H 67.1064 0.43557 1.86481 0
M  V30 681 H 65.4114 -1.48791 3.62448 0
M  V30 682 H 67.1084 -1.16026 3.83847 0
M  V30 683 H 63.6984 0.203337 4.28117 0
M  V30 684 H 67.8824 0.993096 4.86263 0
M  V30 685 H 63.1384 2.09912 5.74236 0
M  V30 686 H 67.3124 2.887 6.33739 0
M  V30 687 H 64.9394 3.44596 6.77612 0
M  V30 688 N 66.5145 -1.57545 0.0417849 0
M  V30 689 C 67.7395 -1.97035 -0.647455 0
M  V30 690 C 68.1645 -0.918775 -1.64135 0
M  V30 691 O 67.5225 0.119006 -1.80909 0
M  V30 692 C 67.5705 -3.35609 -1.31905 0
M  V30 693 O 66.6745 -3.3287 -2.43457 0
M  V30 694 H 66.0155 -0.64211 -0.169086 0
M  V30 695 H 68.5455 -2.04318 0.107399 0
M  V30 696 H 68.5555 -3.72126 -1.67291 0
M  V30 697 H 67.2305 -4.11685 -0.590586 0
M  V30 698 H 65.8075 -3.08087 -2.10088 0
M  V30 699 N 67.9926 0.231505 -1.5589 0
M  V30 700 C 69.2206 0.974505 -1.82513 0
M  V30 701 C 69.6356 1.78344 -0.619591 0
M  V30 702 O 68.9926 1.77792 0.411848 0
M  V30 703 C 69.0436 1.90007 -3.07538 0
M  V30 704 O 68.7646 1.12385 -4.2344 0
M  V30 705 C 70.2656 2.75779 -3.47075 0
M  V30 706 H 67.4856 0.286065 -0.606966 0
M  V30 707 H 70.0296 0.249739 -2.02969 0
M  V30 708 H 68.1846 2.57891 -2.89086 0
M  V30 709 H 68.5986 1.75125 -4.944 0
M  V30 710 H 70.0726 3.36443 -4.37619 0
M  V30 711 H 70.5496 3.47672 -2.68367 0
M  V30 712 H 71.1556 2.13323 -3.67931 0
M  V30 713 N 69.4707 1.49531 0.497807 0
M  V30 714 C 70.7177 1.59179 1.25173 0
M  V30 715 C 71.0457 0.279932 1.92475 0
M  V30 716 O 70.3007 -0.732383 1.81479 0
M  V30 717 C 70.5997 2.70252 2.33878 0
M  V30 718 C 70.2657 4.11644 1.84012 0
M  V30 719 C 68.9277 4.50121 1.70132 0
M  V30 720 C 71.2797 5.00121 1.46725 0
M  V30 721 C 68.6077 5.74845 1.17348 0
M  V30 722 C 70.9597 6.25366 0.95392 0
M  V30 723 C 69.6237 6.6267 0.801538 0
M  V30 724 H 68.8937 0.582478 0.45804 0
M  V30 725 H 71.5407 1.83373 0.551948 0
M  V30 726 H 69.8457 2.40041 3.09657 0
M  V30 727 H 71.5427 2.74925 2.9192 0
M  V30 728 H 68.1327 3.81274 1.95775 0
M  V30 729 H 72.3167 4.71048 1.56294 0
M  V30 730 H 67.5727 6.02444 1.04264 0
M  V30 731 H 71.7467 6.93301 0.656225 0
M  V30 732 H 69.3737 7.59197 0.390351 0
M  V30 733 N 70.9488 -0.749086 1.3866 0
M  V30 734 C 71.8808 -1.87273 1.32142 0
M  V30 735 C 72.8938 -1.61127 0.232787 0
M  V30 736 O 74.0828 -1.71623 0.49069 0
M  V30 737 C 71.1828 -3.23005 1.02571 0
M  V30 738 C 70.3558 -3.7662 2.22433 0
M  V30 739 C 69.4148 -4.90879 1.89537 0
M  V30 740 O 68.4408 -5.05276 2.62078 0
M  V30 741 N 69.6428 -5.74198 0.853031 0
M  V30 742 H 72.4078 -1.93373 2.28969 0
M  V30 743 H 69.9688 -0.929216 1.32579 0
M  V30 744 H 71.9608 -3.96992 0.786085 0
M  V30 745 H 70.5308 -3.12262 0.145249 0
M  V30 746 H 69.7508 -2.94147 2.62434 0
M  V30 747 H 71.0388 -4.09173 3.02415 0
M  V30 748 H 70.4368 -5.6514 0.25155 0
M  V30 749 H 68.9938 -6.48313 0.67329 0
M  V30 750 N 72.4269 -1.23603 -0.977757 0
M  V30 751 C 73.6669 -1.08148 -1.73446 0
M  V30 752 C 74.0309 0.374785 -1.88307 0
M  V30 753 O 75.2319 0.650588 -2.60808 0
M  V30 754 C 73.5029 -1.78991 -3.0935 0
M  V30 755 S 75.0619 -1.79141 -4.00567 0
M  V30 756 H 71.8799 -0.386987 -0.596458 0
M  V30 757 H 74.4819 -1.5678 -1.16792 0
M  V30 758 H 73.1859 -2.8408 -2.96187 0
M  V30 759 H 72.7169 -1.30651 -3.71071 0
M  V30 760 H 74.7319 -0.851892 -4.88833 0
M  V30 761 N 73.905 1.17692 -1.04816 0
M  V30 762 C 75.153 1.87488 -0.754497 0
M  V30 763 C 75.474 1.81205 0.720407 0
M  V30 764 O 74.744 1.23544 1.52032 0
M  V30 765 H 73.324 0.694101 -0.276102 0
M  V30 766 H 75.986 1.42793 -1.32651 0
M  V30 767 H 75.082 2.93328 -1.06606 0
M  V30 768 N 75.3831 0.828654 1.34056 0
M  V30 769 C 76.6311 0.41863 1.97717 0
M  V30 770 C 76.9521 -1.02314 1.66002 0
M  V30 771 O 76.2221 -1.71119 0.953683 0
M  V30 772 H 74.8021 0.151809 0.731412 0
M  V30 773 H 77.4641 1.05936 1.63596 0
M  V30 774 H 76.5601 0.542318 3.07352 0
M  V30 775 N 76.8612 -1.46375 0.584142 0
M  V30 776 C 78.1102 -2.01585 0.0679741 0
M  V30 777 C 78.4232 -1.46109 -1.30045 0
M  V30 778 O 79.6292 -1.93148 -1.90804 0
M  V30 779 C 78.0852 -3.5983 0.0709207 0
M  V30 780 C 77.6932 -4.24303 1.43775 0
M  V30 781 C 79.4372 -4.22693 -0.391228 0
M  V30 782 C 77.3442 -5.74631 1.39834 0
M  V30 783 H 76.2742 -0.753689 0.0216421 0
M  V30 784 H 78.9252 -1.68093 0.736001 0
M  V30 785 H 77.3072 -3.90405 -0.663299 0
M  V30 786 H 78.4812 -4.05335 2.19181 0
M  V30 787 H 76.7962 -3.73539 1.84004 0
M  V30 788 H 79.3932 -5.3289 -0.439524 0
M  V30 789 H 79.7362 -3.91728 -1.40906 0
M  V30 790 H 80.2692 -3.96749 0.288974 0
M  V30 791 H 77.0082 -6.10258 2.39303 0
M  V30 792 H 76.5282 -5.95858 0.686505 0
M  V30 793 H 78.2072 -6.37375 1.11187 0
M  V30 794 N 78.3393 -0.321999 -1.54275 0
M  V30 795 C 79.2693 0.537411 -2.27231 0
M  V30 796 C 80.2503 1.12064 -1.27968 0
M  V30 797 O 81.4353 1.14606 -1.56777 0
M  V30 798 C 78.5653 1.69919 -3.02894 0
M  V30 799 C 77.5193 1.24534 -4.09482 0
M  V30 800 C 76.8453 2.49394 -4.72977 0
M  V30 801 C 78.1453 0.361335 -5.21049 0
M  V30 802 H 79.8393 -0.0711406 -2.99315 0
M  V30 803 H 77.3853 -0.0356555 -1.43956 0
M  V30 804 H 79.3383 2.30668 -3.52662 0
M  V30 805 H 78.0623 2.33431 -2.28424 0
M  V30 806 H 76.7213 0.660782 -3.60596 0
M  V30 807 H 76.3693 3.11265 -3.95124 0
M  V30 808 H 76.0693 2.19718 -5.44975 0
M  V30 809 H 77.5933 3.10908 -5.25517 0
M  V30 810 H 79.0073 0.875072 -5.66582 0
M  V30 811 H 77.4043 0.157428 -5.99893 0
M  V30 812 H 78.4743 -0.60822 -4.8107 0
M  V30 813 N 79.8174 1.5752 -0.0501392 0
M  V30 814 C 81.0634 1.92936 0.624798 0
M  V30 815 C 81.3964 0.928685 1.70555 0
M  V30 816 O 80.6714 -0.0454779 1.94447 0
M  V30 817 C 80.9544 3.38737 1.22185 0
M  V30 818 C 80.8074 4.49552 0.149218 0
M  V30 819 C 82.1264 3.84913 2.13378 0
M  V30 820 H 79.2454 0.701604 0.225657 0
M  V30 821 H 81.8874 1.89671 -0.111693 0
M  V30 822 H 80.0374 3.4165 1.84953 0
M  V30 823 H 81.7094 4.58768 -0.482648 0
M  V30 824 H 79.9524 4.30638 -0.522841 0
M  V30 825 H 80.6234 5.48653 0.606966 0
M  V30 826 H 83.0994 3.8387 1.60572 0
M  V30 827 H 81.9754 4.87584 2.52097 0
M  V30 828 H 82.2364 3.21611 3.03346 0
M  V30 829 N 81.2955 -0.223234 1.56011 0
M  V30 830 C 82.2455 -1.28008 1.88674 0
M  V30 831 C 83.2295 -1.42369 0.749663 0
M  V30 832 O 84.4215 -1.45212 1.01205 0
M  V30 833 C 81.5505 -2.63084 2.20548 0
M  V30 834 C 80.6365 -2.52632 3.40643 0
M  V30 835 N 81.0275 -2.11829 4.59306 0
M  V30 836 C 79.3255 -2.83594 3.44224 0
M  V30 837 C 80.0265 -2.12587 5.41463 0
M  V30 838 N 79.0025 -2.5301 4.81131 0
M  V30 839 H 82.8045 -0.955487 2.77935 0
M  V30 840 H 80.3185 -0.431801 1.56554 0
M  V30 841 H 82.3155 -3.39385 2.42122 0
M  V30 842 H 80.9755 -2.96391 1.32599 0
M  V30 843 H 81.9865 -1.82988 4.84496 0
M  V30 844 H 78.6635 -3.21284 2.66614 0
M  V30 845 H 80.0535 -1.83179 6.46448 0
M  V30 846 N 82.7736 -1.49793 -0.48987 0
M  V30 847 C 84.1896 -1.36803 -0.822022 0
M  V30 848 C 84.3896 -0.409652 -1.97292 0
M  V30 849 O 83.4456 0.154614 -2.52026 0
M  V30 850 C 84.7586 -2.77768 -1.15175 0
M  V30 851 C 86.3066 -2.86549 -1.25931 0
M  V30 852 C 86.7816 -4.28306 -1.62228 0
M  V30 853 N 88.2726 -4.31169 -1.69256 0
M  V30 854 C 89.0076 -5.37832 -1.98807 0
M  V30 855 N 88.5036 -6.54726 -2.26507 0
M  V30 856 N 90.2966 -5.25258 -2.00152 0
M  V30 857 H 82.4476 -2.10691 0.268881 0
M  V30 858 H 84.7106 -0.946241 0.057728 0
M  V30 859 H 84.4166 -3.49648 -0.379335 0
M  V30 860 H 84.2906 -3.13836 -2.09253 0
M  V30 861 H 86.6776 -2.14899 -2.02243 0
M  V30 862 H 86.7586 -2.54049 -0.298776 0
M  V30 863 H 86.4026 -5.00486 -0.864622 0
M  V30 864 H 86.3326 -4.58279 -2.594 0
M  V30 865 H 88.8236 -3.4687 -1.49965 0
M  V30 866 H 89.1366 -7.31833 -2.48276 0
M  V30 867 H 87.4816 -6.57933 -2.23939 0
M  V30 868 H 90.6726 -4.32938 -1.77996 0
M  V30 869 H 90.8456 -6.08476 -2.22848 0
M  V30 870 N 84.2517 0.741722 -1.39055 0
M  V30 871 C 85.1837 1.8657 -1.33133 0
M  V30 872 C 86.1967 1.61001 -0.241329 0
M  V30 873 O 87.3857 1.7136 -0.499784 0
M  V30 874 C 84.4857 3.22457 -1.04283 0
M  V30 875 C 83.6587 3.75435 -2.24427 0
M  V30 876 C 82.7177 4.89867 -1.92138 0
M  V30 877 O 81.7437 5.03879 -2.64754 0
M  V30 878 N 82.9457 5.73738 -0.88347 0
M  V30 879 H 85.7107 1.92156 -2.29991 0
M  V30 880 H 83.2717 0.922172 -1.3307 0
M  V30 881 H 85.2637 3.9657 -0.807128 0
M  V30 882 H 83.8337 3.12181 -0.161807 0
M  V30 883 H 83.0537 2.92751 -2.6399 0
M  V30 884 H 84.3417 4.07563 -3.04581 0
M  V30 885 H 83.7397 5.64999 -0.281517 0
M  V30 886 H 82.2967 6.47947 -0.707662 0
M  V30 887 N 85.7298 1.2412 0.971189 0
M  V30 888 C 86.9758 1.09048 1.71698 0
M  V30 889 C 87.3308 -0.367442 1.88859 0
M  V30 890 O 86.6238 -1.26792 1.43646 0
M  V30 891 C 86.8178 1.75983 3.11071 0
M  V30 892 C 86.6468 3.28133 3.07504 0
M  V30 893 C 85.4168 3.97331 3.1218 0
M  V30 894 C 87.6148 4.24773 2.89952 0
M  V30 895 N 85.5968 5.3639 2.98596 0
M  V30 896 C 86.9678 5.50806 2.84627 0
M  V30 897 C 89.0228 4.15392 2.74506 0
M  V30 898 C 87.7258 6.68533 2.65437 0
M  V30 899 C 89.7518 5.32793 2.56682 0
M  V30 900 C 89.1138 6.57756 2.52063 0
M  V30 901 H 85.2128 0.453632 0.636979 0
M  V30 902 H 87.7968 1.56983 1.15171 0
M  V30 903 H 85.9678 1.30566 3.65796 0
M  V30 904 H 87.6998 1.53803 3.74335 0
M  V30 905 H 84.4548 3.48473 3.20724 0
M  V30 906 H 84.8788 6.09321 2.95054 0
M  V30 907 H 89.5208 3.19543 2.76861 0
M  V30 908 H 87.2388 7.64509 2.61825 0
M  V30 909 H 90.8248 5.27383 2.4568 0
M  V30 910 H 89.7048 7.4707 2.38446 0
M  V30 911 N 87.2079 -1.17134 1.05439 0
M  V30 912 C 88.4539 -1.87733 0.767077 0
M  V30 913 C 88.7869 -1.8098 -0.704253 0
M  V30 914 O 88.0619 -1.21951 -1.5152 0
M  V30 915 C 88.3449 -3.37659 1.25133 0
M  V30 916 C 88.1979 -3.53149 2.78578 0
M  V30 917 C 89.5169 -4.31768 0.852324 0
M  V30 918 H 86.6359 -0.681687 0.280129 0
M  V30 919 H 89.2779 -1.37732 1.30881 0
M  V30 920 H 87.4279 -3.80373 0.790469 0
M  V30 921 H 89.0999 -3.19434 3.32806 0
M  V30 922 H 87.3429 -2.95345 3.17732 0
M  V30 923 H 88.0139 -4.58403 3.07523 0
M  V30 924 H 90.4899 -3.96909 1.24911 0
M  V30 925 H 89.3659 -5.35199 1.21873 0
M  V30 926 H 89.6269 -4.41429 -0.243485 0
M  V30 927 N 88.686 -0.835752 -1.33615 0
M  V30 928 C 89.616 -0.281739 -2.31794 0
M  V30 929 C 90.597 0.608833 -1.58831 0
M  V30 930 O 91.782 0.533035 -1.86741 0
M  V30 931 C 88.912 0.546612 -3.42971 0
M  V30 932 C 87.866 -0.247904 -4.27281 0
M  V30 933 C 87.192 0.704001 -5.30045 0
M  V30 934 C 88.492 -1.46324 -5.01385 0
M  V30 935 H 90.186 -1.10206 -2.78379 0
M  V30 936 H 87.732 -0.531388 -1.33837 0
M  V30 937 H 89.685 0.944467 -4.1068 0
M  V30 938 H 88.409 1.40011 -2.95067 0
M  V30 939 H 87.068 -0.627281 -3.61194 0
M  V30 940 H 86.716 1.55381 -4.78399 0
M  V30 941 H 86.416 0.176524 -5.87335 0
M  V30 942 H 87.94 1.09944 -6.0062 0
M  V30 943 H 89.354 -1.13871 -5.61877 0
M  V30 944 H 87.751 -1.92728 -5.6831 0
M  V30 945 H 88.821 -2.23467 -4.30338 0
M  V30 946 N 90.1641 1.46063 -0.591896 0
M  V30 947 C 91.3921 2.06717 -0.0868936 0
M  V30 948 C 91.8071 1.43916 1.22203 0
M  V30 949 O 91.1641 0.547698 1.74088 0
M  V30 950 C 91.2151 3.6142 0.0758725 0
M  V30 951 O 90.9361 4.21874 -1.18126 0
M  V30 952 C 92.4371 4.39025 0.61416 0
M  V30 953 H 89.6571 0.668162 -0.0616518 0
M  V30 954 H 92.2011 1.8755 -0.815175 0
M  V30 955 H 90.3561 3.79983 0.754413 0
M  V30 956 H 90.7701 5.14861 -1.00092 0
M  V30 957 H 92.2441 5.4783 0.677193 0
M  V30 958 H 92.7211 4.07708 1.63312 0
M  V30 959 H 93.3271 4.2529 -0.0298142 0
M  V30 960 N 91.6422 0.330177 1.54103 0
M  V30 961 C 92.6052 -0.520144 2.2322 0
M  V30 962 C 93.6052 -1.03828 1.22786 0
M  V30 963 O 94.7952 -0.929652 1.4732 0
M  V30 964 C 91.9272 -1.72317 2.94142 0
M  V30 965 H 93.1202 0.0841605 2.99782 0
M  V30 966 H 90.6732 0.0813433 1.56088 0
M  V30 967 H 91.4082 -2.36653 2.21734 0
M  V30 968 H 91.1932 -1.35898 3.67796 0
M  V30 969 H 92.6832 -2.3266 3.46784 0
M  V30 970 N 93.1203 -1.57491 0.0584922 0
M  V30 971 C 94.0833 -2.1085 -0.898617 0
M  V30 972 C 95.0833 -1.02964 -1.23511 0
M  V30 973 O 96.2733 -1.29007 -1.17059 0
M  V30 974 C 93.4053 -2.59881 -2.20623 0
M  V30 975 H 94.5983 -2.96715 -0.435936 0
M  V30 976 H 92.1513 -1.55141 -0.190023 0
M  V30 977 H 92.8863 -1.77431 -2.71457 0
M  V30 978 H 92.6713 -3.38727 -1.97501 0
M  V30 979 H 94.1613 -3.01285 -2.89166 0
M  V30 980 N 94.5984 0.214957 -1.56127 0
M  V30 981 C 95.5484 1.27006 -1.8935 0
M  V30 982 C 96.5324 1.41969 -0.757202 0
M  V30 983 O 97.7244 1.44673 -1.01973 0
M  V30 984 C 94.8534 2.61911 -2.2194 0
M  V30 985 C 93.9394 2.50822 -3.41978 0
M  V30 986 N 94.3304 2.09391 -4.60423 0
M  V30 987 C 92.6284 2.81765 -3.45723 0
M  V30 988 C 93.3294 2.09712 -5.42582 0
M  V30 989 N 92.3054 2.50454 -4.82466 0
M  V30 990 H 96.1074 0.940734 -2.78437 0
M  V30 991 H 93.6214 0.423492 -1.56781 0
M  V30 992 H 95.6184 3.38096 -2.43919 0
M  V30 993 H 94.2784 2.95684 -1.34169 0
M  V30 994 H 95.2894 1.80416 -4.85459 0
M  V30 995 H 91.9664 3.19865 -2.68314 0
M  V30 996 H 93.3564 1.79748 -6.4741 0
M  V30 997 N 96.0765 1.50051 0.48192 0
M  V30 998 C 97.3165 1.62128 1.24474 0
M  V30 999 C 97.6805 0.309742 1.89485 0
M  V30 1000 O 98.8815 0.305854 2.67054 0
M  V30 1001 C 97.1525 2.76151 2.26882 0
M  V30 1002 S 98.7115 3.08297 3.12247 0
M  V30 1003 H 95.5295 0.571661 0.422759 0
M  V30 1004 H 98.1315 1.87791 0.54359 0
M  V30 1005 H 96.8355 3.69942 1.77683 0
M  V30 1006 H 96.3665 2.52541 3.0164 0
M  V30 1007 H 98.3815 2.51287 4.27866 0
M  V30 1008 N 97.5546 -0.734337 1.39446 0
M  V30 1009 C 98.8036 -1.48937 1.36017 0
M  V30 1010 C 99.1166 -1.95557 -0.0409005 0
M  V30 1011 O 100.323 -2.70779 -0.19778 0
M  V30 1012 C 98.7786 -2.69125 2.38955 0
M  V30 1013 C 98.3866 -2.29452 3.8478 0
M  V30 1014 C 100.131 -3.46944 2.44603 0
M  V30 1015 C 98.0376 -3.46366 4.79358 0
M  V30 1016 H 96.9676 -0.559296 0.505672 0
M  V30 1017 H 99.6186 -0.800983 1.65095 0
M  V30 1018 H 98.0006 -3.40041 2.02948 0
M  V30 1019 H 99.1746 -1.66077 4.29831 0
M  V30 1020 H 97.4896 -1.64723 3.82433 0
M  V30 1021 H 100.087 -4.33907 3.12456 0
M  V30 1022 H 100.43 -3.89454 1.47076 0
M  V30 1023 H 100.963 -2.83056 2.79507 0
M  V30 1024 H 97.7016 -3.08905 5.78151 0
M  V30 1025 H 97.2216 -4.08719 4.38986 0
M  V30 1026 H 98.9006 -4.12691 4.98292 0
M  V30 1027 N 99.0327 -1.24633 -0.964593 0
M  V30 1028 C 100.258 -1.11596 -1.74818 0
M  V30 1029 C 100.683 0.32723 -1.85232 0
M  V30 1030 O 100.041 1.23695 -1.32549 0
M  V30 1031 C 100.089 -1.76397 -3.1451 0
M  V30 1032 O 99.1927 -1.03685 -3.99153 0
M  V30 1033 H 98.5337 -0.390196 -0.537255 0
M  V30 1034 H 101.064 -1.65002 -1.20977 0
M  V30 1035 H 101.074 -1.8228 -3.65018 0
M  V30 1036 H 99.7487 -2.81401 -3.06246 0
M  V30 1037 H 98.3257 -1.05611 -3.57632 0
M  V30 1038 N 100.511 1.16574 -1.06058 0
M  V30 1039 C 101.788 1.83048 -0.689416 0
M  V30 1040 C 102.168 1.94122 0.829443 0
M  V30 1041 O 101.516 1.48249 1.7388 0
M  V30 1042 C 101.726 3.20186 -1.38859 0
M  V30 1043 C 103.074 3.95989 -1.53226 0
M  V30 1044 O 104.098 3.29696 -1.3483 0
M  V30 1045 O 102.957 5.14813 -1.83384 0
M  V30 1046 H 100.051 0.790258 -0.243764 0
M  V30 1047 H 102.597 1.23797 -1.16071 0
M  V30 1048 H 101.369 3.07146 -2.4244 0
M  V30 1049 H 100.992 3.87112 -0.907216 0
M  V30 1050 N 101.989 0.842826 1.3317 0
M  V30 1051 C 102.937 0.267495 2.31057 0
M  V30 1052 C 103.931 -0.602682 1.58316 0
M  V30 1053 O 105.137 -0.491803 1.73151 0
M  V30 1054 H 101.512 0.0677813 0.748939 0
M  V30 1055 H 103.483 1.10754 2.77085 0
M  V30 1056 C 102.232 -0.539331 3.43492 0
M  V30 1057 H 101.555 0.12095 3.99617 0
M  V30 1058 H 102.995 -0.90767 4.14171 0
M  V30 1059 C 101.454 -1.71981 2.89697 0
M  V30 1060 O 101.984 -2.81862 2.86211 0
M  V30 1061 N 100.19 -1.54299 2.46252 0
M  V30 1062 H 99.7369 -0.649143 2.49287 0
M  V30 1063 H 99.6949 -2.33431 2.10612 0
M  V30 1064 N 103.467 -1.45747 0.599634 0
M  V30 1065 C 104.697 -2.06369 0.0977132 0
M  V30 1066 C 105.105 -1.44624 -1.21985 0
M  V30 1067 O 104.448 -0.551831 -1.75216 0
M  V30 1068 C 104.51 -3.59284 -0.124673 0
M  V30 1069 C 104.174 -4.43318 1.10987 0
M  V30 1070 C 105.171 -4.78796 2.02609 0
M  V30 1071 C 102.856 -4.84194 1.33647 0
M  V30 1072 C 104.85 -5.53997 3.15224 0
M  V30 1073 C 102.537 -5.5915 2.46565 0
M  V30 1074 C 103.535 -5.93968 3.37182 0
M  V30 1075 O 103.223 -6.67405 4.48136 0
M  V30 1076 H 102.955 -0.673122 0.0623153 0
M  V30 1077 H 105.509 -1.88104 0.824981 0
M  V30 1078 H 103.739 -3.75919 -0.906745 0
M  V30 1079 H 105.428 -4.01775 -0.577201 0
M  V30 1080 H 106.194 -4.47781 1.86325 0
M  V30 1081 H 102.073 -4.56534 0.64016 0
M  V30 1082 H 105.617 -5.81091 3.85978 0
M  V30 1083 H 101.514 -5.89579 2.62805 0
M  V30 1084 H 102.282 -6.85847 4.46717 0
M  V30 1085 N 104.945 -0.338344 -1.53925 0
M  V30 1086 C 105.877 0.555117 -2.22376 0
M  V30 1087 C 106.89 1.06812 -1.22862 0
M  V30 1088 O 108.079 0.979163 -1.49247 0
M  V30 1089 C 105.179 1.77609 -2.88631 0
M  V30 1090 C 104.352 1.39927 -4.14414 0
M  V30 1091 C 103.411 2.47936 -4.64127 0
M  V30 1092 O 102.437 2.11461 -5.28463 0
M  V30 1093 N 103.639 3.79107 -4.39612 0
M  V30 1094 H 106.404 -0.0310778 -2.99684 0
M  V30 1095 H 103.965 -0.162226 -1.61085 0
M  V30 1096 H 105.957 2.49287 -3.18807 0
M  V30 1097 H 104.527 2.26978 -2.14941 0
M  V30 1098 H 103.747 0.513481 -3.90841 0
M  V30 1099 H 105.035 1.12341 -4.96243 0
M  V30 1100 H 104.433 4.11531 -3.88148 0
M  V30 1101 H 102.99 4.4697 -4.74406 0
M  V30 1102 N 106.423 1.57458 -0.0668435 0
M  V30 1103 C 107.353 2.15468 0.899764 0
M  V30 1104 C 108.334 1.08042 1.31381 0
M  V30 1105 O 109.519 1.36054 1.38574 0
M  V30 1106 C 106.649 2.71232 2.16911 0
M  V30 1107 C 105.603 3.83781 1.89463 0
M  V30 1108 C 104.929 4.26127 3.22986 0
M  V30 1109 C 106.229 5.08238 1.20381 0
M  V30 1110 H 107.923 2.96488 0.416529 0
M  V30 1111 H 105.469 1.4262 0.198908 0
M  V30 1112 H 107.422 3.10458 2.84945 0
M  V30 1113 H 106.146 1.87426 2.67468 0
M  V30 1114 H 104.805 3.45051 1.23836 0
M  V30 1115 H 104.453 3.39249 3.71374 0
M  V30 1116 H 104.153 5.01993 3.05413 0
M  V30 1117 H 105.677 4.67966 3.92225 0
M  V30 1118 H 107.091 5.44811 1.78475 0
M  V30 1119 H 105.488 5.89349 1.13083 0
M  V30 1120 H 106.558 4.84558 0.182153 0
M  V30 1121 N 107.901 -0.206675 1.56239 0
M  V30 1122 C 109.147 -0.925733 1.81113 0
M  V30 1123 C 109.502 -1.81368 0.642135 0
M  V30 1124 O 108.795 -1.88126 -0.363211 0
M  V30 1125 C 108.989 -1.78675 3.09532 0
M  V30 1126 C 108.818 -0.98365 4.3881 0
M  V30 1127 C 107.588 -0.672661 5.00803 0
M  V30 1128 C 109.786 -0.341847 5.13163 0
M  V30 1129 N 107.768 0.150283 6.13716 0
M  V30 1130 C 109.139 0.343815 6.19046 0
M  V30 1131 C 111.194 -0.256392 4.97239 0
M  V30 1132 C 109.897 1.10678 7.10734 0
M  V30 1133 C 111.923 0.493142 5.8934 0
M  V30 1134 C 111.285 1.16729 6.94661 0
M  V30 1135 H 107.384 -0.318524 0.714189 0
M  V30 1136 H 109.968 -0.195378 1.93717 0
M  V30 1137 H 108.139 -2.4888 2.98183 0
M  V30 1138 H 109.871 -2.44441 3.22538 0
M  V30 1139 H 106.626 -0.994294 4.63045 0
M  V30 1140 H 107.05 0.551026 6.74754 0
M  V30 1141 H 111.692 -0.763249 4.15854 0
M  V30 1142 H 109.41 1.6251 7.91591 0
M  V30 1143 H 112.996 0.560465 5.79094 0
M  V30 1144 H 111.876 1.738 7.64698 0
M  V30 1145 N 109.379 -1.50304 -0.473955 0
M  V30 1146 C 110.309 -1.71886 -1.58042 0
M  V30 1147 C 111.29 -0.567799 -1.60344 0
M  V30 1148 O 112.475 -0.806623 -1.76656 0
M  V30 1149 C 109.605 -1.81036 -2.96384 0
M  V30 1150 C 108.559 -2.962 -3.08949 0
M  V30 1151 C 107.885 -2.9049 -4.48909 0
M  V30 1152 C 109.185 -4.36752 -2.86434 0
M  V30 1153 H 110.879 -2.64527 -1.40234 0
M  V30 1154 H 108.425 -1.27295 -0.673201 0
M  V30 1155 H 110.378 -1.94719 -3.73714 0
M  V30 1156 H 109.102 -0.850147 -3.15341 0
M  V30 1157 H 107.761 -2.82164 -2.3405 0
M  V30 1158 H 107.409 -1.92321 -4.64781 0
M  V30 1159 H 107.109 -3.67802 -4.58253 0
M  V30 1160 H 108.633 -3.06218 -5.28264 0
M  V30 1161 H 110.047 -4.5133 -3.53517 0
M  V30 1162 H 108.444 -5.15493 -3.07225 0
M  V30 1163 H 109.514 -4.49321 -1.82316 0
M  V30 1164 N 110.857 0.726932 -1.39834 0
M  V30 1165 C 112.105 1.4837 -1.37225 0
M  V30 1166 C 112.426 1.94979 0.0284857 0
M  V30 1167 O 111.696 1.69555 0.981213 0
M  V30 1168 H 110.276 0.55043 -0.505011 0
M  V30 1169 H 112.938 0.862468 -1.74778 0
M  V30 1170 H 112.034 2.36198 -2.04003 0
M  V30 1171 N 112.336 1.25143 0.95797 0
M  V30 1172 C 113.752 1.01892 1.22842 0
M  V30 1173 C 113.952 -0.266311 1.99732 0
M  V30 1174 O 113.008 -0.979913 2.3271 0
M  V30 1175 C 114.321 2.24004 2.00606 0
M  V30 1176 C 115.869 2.28731 2.13662 0
M  V30 1177 C 116.344 3.5049 2.94823 0
M  V30 1178 N 117.835 3.50866 3.02403 0
M  V30 1179 C 118.57 4.4174 3.65586 0
M  V30 1180 N 118.066 5.42882 4.30408 0
M  V30 1181 N 119.859 4.29429 3.62694 0
M  V30 1182 H 112.01 2.07718 0.443493 0
M  V30 1183 H 114.273 0.912031 0.258657 0
M  V30 1184 H 113.979 3.17395 1.51503 0
M  V30 1185 H 113.853 2.26907 3.01319 0
M  V30 1186 H 116.24 1.35865 2.61963 0
M  V30 1187 H 116.321 2.29848 1.12265 0
M  V30 1188 H 115.965 4.43676 2.47213 0
M  V30 1189 H 115.895 3.46617 3.96439 0
M  V30 1190 H 118.386 2.777 2.56302 0
M  V30 1191 H 118.699 6.0844 4.76467 0
M  V30 1192 H 117.044 5.46758 4.29047 0
M  V30 1193 H 120.235 3.49643 3.11236 0
M  V30 1194 H 120.408 5.00448 4.1165 0
M  V30 1195 N 113.814 -1.1601 1.06675 0
M  V30 1196 C 114.764 -2.18512 0.650888 0
M  V30 1197 C 115.748 -1.57677 -0.320441 0
M  V30 1198 O 116.94 -1.76482 -0.135266 0
M  V30 1199 C 114.069 -3.43273 0.0429255 0
M  V30 1200 C 113.155 -4.11176 1.03898 0
M  V30 1201 N 113.546 -4.54672 2.216 0
M  V30 1202 C 111.844 -4.37417 0.870779 0
M  V30 1203 C 112.545 -5.07248 2.84736 0
M  V30 1204 N 111.521 -5.0037 2.12441 0
M  V30 1205 H 115.323 -2.49863 1.54745 0
M  V30 1206 H 112.837 -1.32503 0.938975 0
M  V30 1207 H 114.834 -4.16006 -0.272857 0
M  V30 1208 H 113.494 -3.13408 -0.84884 0
M  V30 1209 H 114.505 -4.4828 2.59356 0
M  V30 1210 H 111.182 -4.17488 0.0313293 0
M  V30 1211 H 112.572 -5.50912 3.84636 0
M  V30 1212 N 115.292 -0.849877 -1.32721 0
M  V30 1213 C 116.24 -0.279745 -2.30912 0
M  V30 1214 C 117.234 0.594278 -1.58634 0
M  V30 1215 O 118.44 0.482613 -1.73409 0
M  V30 1216 H 114.815 -0.0717521 -0.748569 0
M  V30 1217 H 116.786 -1.12222 -2.76494 0
M  V30 1218 C 115.535 0.521108 -3.43773 0
M  V30 1219 H 114.858 -0.142141 -3.99547 0
M  V30 1220 H 116.298 0.885693 -4.14646 0
M  V30 1221 C 114.757 1.70442 -2.90605 0
M  V30 1222 O 115.287 2.8034 -2.87702 0
M  V30 1223 N 113.493 1.52991 -2.47067 0
M  V30 1224 H 113.04 0.635914 -2.49628 0
M  V30 1225 H 112.998 2.32311 -2.11847 0
M  V30 1226 N 116.77 1.45427 -0.607355 0
M  V30 1227 C 117.7 2.3329 0.0989352 0
M  V30 1228 C 118.681 1.46816 0.859007 0
M  V30 1229 O 119.866 1.75588 0.829604 0
M  V30 1230 C 116.996 3.29518 1.09705 0
M  V30 1231 C 115.95 4.25626 0.450206 0
M  V30 1232 C 115.276 5.11542 1.55655 0
M  V30 1233 C 116.576 5.18505 -0.628455 0
M  V30 1234 H 118.27 2.92595 -0.634716 0
M  V30 1235 H 115.816 1.40696 -0.306681 0
M  V30 1236 H 117.769 3.89855 1.59971 0
M  V30 1237 H 116.493 2.68372 1.86129 0
M  V30 1238 H 115.152 3.66586 -0.0315886 0
M  V30 1239 H 114.8 4.46765 2.31107 0
M  V30 1240 H 114.5 5.76647 1.12925 0
M  V30 1241 H 116.024 5.74748 2.06148 0
M  V30 1242 H 117.438 5.72916 -0.209877 0
M  V30 1243 H 115.835 5.92085 -0.977489 0
M  V30 1244 H 116.905 4.60948 -1.50514 0
M  V30 1245 N 118.248 0.346503 1.53744 0
M  V30 1246 C 119.495 -0.249104 2.00962 0
M  V30 1247 C 119.823 -1.5032 1.23426 0
M  V30 1248 O 119.078 -1.93217 0.310761 0
M  V30 1249 C 119.377 -0.605809 3.52228 0
M  V30 1250 C 119.043 0.551747 4.47512 0
M  V30 1251 C 117.705 0.86941 4.73281 0
M  V30 1252 C 120.057 1.32818 5.03993 0
M  V30 1253 C 117.385 1.96582 5.52786 0
M  V30 1254 C 119.737 2.41486 5.84694 0
M  V30 1255 C 118.401 2.73808 6.08757 0
M  V30 1256 H 117.671 -0.0911538 0.735372 0
M  V30 1257 H 120.318 0.475027 1.85515 0
M  V30 1258 H 118.623 -1.4107 3.65522 0
M  V30 1259 H 120.32 -1.07858 3.86222 0
M  V30 1260 H 116.91 0.294102 4.2759 0
M  V30 1261 H 121.094 1.09602 4.84047 0
M  V30 1262 H 116.35 2.22045 5.69654 0
M  V30 1263 H 120.524 3.02078 6.27473 0
M  V30 1264 H 118.151 3.58892 6.7015 0
M  V30 1265 N 119.726 -1.57421 0.075193 0
M  V30 1266 C 121.003 -1.85029 -0.634329 0
M  V30 1267 C 121.383 -0.968305 -1.87582 0
M  V30 1268 O 120.731 -0.0354749 -2.28472 0
M  V30 1269 C 120.941 -3.35286 -0.968742 0
M  V30 1270 C 122.289 -4.02875 -1.34077 0
M  V30 1271 O 123.313 -3.40051 -1.06037 0
M  V30 1272 O 122.172 -5.13691 -1.86506 0
M  V30 1273 H 119.266 -0.7645 -0.315387 0
M  V30 1274 H 121.812 -1.69366 0.106382 0
M  V30 1275 H 120.584 -3.91203 -0.0871376 0
M  V30 1276 H 120.207 -3.56223 -1.7661 0
M  V30 1277 N 121.204 0.198386 -1.56346 0
M  V30 1278 C 122.481 0.944982 -1.71258 0
M  V30 1279 C 122.861 2.0151 -0.629048 0
M  V30 1280 O 122.209 2.25639 0.360473 0
M  V30 1281 C 122.419 1.5344 -3.1346 0
M  V30 1282 C 123.767 2.01778 -3.73591 0
M  V30 1283 O 124.791 1.63288 -3.16568 0
M  V30 1284 O 123.65 2.72594 -4.73661 0
M  V30 1285 H 120.744 0.442939 -0.69838 0
M  V30 1286 H 123.29 0.188342 -1.68652 0
M  V30 1287 H 122.062 0.762869 -3.83792 0
M  V30 1288 H 121.685 2.35596 -3.20282 0
M  V30 1289 N 122.682 1.50554 0.465978 0
M  V30 1290 C 123.592 1.72585 1.58907 0
M  V30 1291 C 124.608 0.60911 1.6299 0
M  V30 1292 O 125.784 0.88804 1.80765 0
M  V30 1293 C 122.849 1.81995 2.95091 0
M  V30 1294 C 121.91 3.05751 3.01355 0
M  V30 1295 C 121.143 3.14702 4.31043 0
M  V30 1296 O 121.366 2.30313 5.21835 0
M  V30 1297 O 120.3 4.07468 4.43005 0
M  V30 1298 H 124.126 2.67799 1.43239 0
M  V30 1299 H 121.711 1.34711 0.646013 0
M  V30 1300 H 123.593 1.90335 3.75966 0
M  V30 1301 H 122.268 0.899659 3.10947 0
M  V30 1302 H 121.175 3.02908 2.19539 0
M  V30 1303 H 122.508 3.97375 2.90437 0
M  V30 1304 N 124.16 -0.719506 1.40217 0
M  V30 1305 C 125.108 -1.85493 1.40339 0
M  V30 1306 C 126.102 -1.66995 0.284415 0
M  V30 1307 O 127.308 -1.74148 0.455252 0
M  V30 1308 H 123.683 -0.610857 0.438586 0
M  V30 1309 H 125.654 -1.82506 2.36081 0
M  V30 1310 C 124.403 -3.23321 1.27901 0
M  V30 1311 H 123.726 -3.38159 2.1328 0
M  V30 1312 H 125.166 -4.02914 1.32045 0
M  V30 1313 C 123.625 -3.36898 -0.0111355 0
M  V30 1314 O 124.155 -3.89674 -0.975538 0
M  V30 1315 N 122.361 -2.90492 -0.0793393 0
M  V30 1316 H 121.908 -2.47731 0.706183 0
M  V30 1317 H 121.866 -2.99955 -0.942038 0
M  V30 1318 N 125.638 -1.25649 -0.95132 0
M  V30 1319 C 126.866 -1.13343 -1.73092 0
M  V30 1320 C 127.281 0.312434 -1.86197 0
M  V30 1321 O 126.638 1.21465 -1.36207 0
M  V30 1322 C 126.689 -1.78602 -3.14299 0
M  V30 1323 O 126.41 -3.17537 -3.01831 0
M  V30 1324 C 127.911 -1.72119 -4.08522 0
M  V30 1325 H 125.131 -0.395181 -0.542285 0
M  V30 1326 H 127.675 -1.66076 -1.19328 0
M  V30 1327 H 125.83 -1.29832 -3.64996 0
M  V30 1328 H 126.244 -3.49676 -3.90931 0
M  V30 1329 H 127.718 -2.22435 -5.052 0
M  V30 1330 H 128.195 -0.685635 -4.33815 0
M  V30 1331 H 128.801 -2.20393 -3.63741 0
M  V30 1332 N 127.117 1.15442 -1.07289 0
M  V30 1333 C 128.08 2.18358 -0.696591 0
M  V30 1334 C 129.08 1.58637 0.262837 0
M  V30 1335 O 130.27 1.74145 0.0438809 0
M  V30 1336 C 127.402 3.4089 -0.0266151 0
M  V30 1337 H 128.595 2.53162 -1.60776 0
M  V30 1338 H 126.148 1.29893 -0.869342 0
M  V30 1339 H 126.883 3.11653 0.896822 0
M  V30 1340 H 126.668 3.85495 -0.716657 0
M  V30 1341 H 128.158 4.17009 0.222028 0
M  V30 1342 N 128.595 0.856903 1.32268 0
M  V30 1343 C 129.527 0.260412 2.27716 0
M  V30 1344 C 130.54 -0.569137 1.52528 0
M  V30 1345 O 131.729 -0.39326 1.74114 0
M  V30 1346 C 128.829 -0.650477 3.32599 0
M  V30 1347 C 128.002 0.14372 4.37164 0
M  V30 1348 C 127.061 -0.69328 5.21613 0
M  V30 1349 O 126.087 -0.12599 5.69061 0
M  V30 1350 N 127.289 -2.00761 5.44679 0
M  V30 1351 H 130.054 1.08059 2.79541 0
M  V30 1352 H 127.615 0.717103 1.45152 0
M  V30 1353 H 129.607 -1.21581 3.86005 0
M  V30 1354 H 128.177 -1.37133 2.80915 0
M  V30 1355 H 127.397 0.890486 3.8401 0
M  V30 1356 H 128.685 0.68915 5.04111 0
M  V30 1357 H 128.083 -2.49181 5.07863 0
M  V30 1358 H 126.64 -2.52103 6.01072 0
M  V30 1359 N 130.073 -1.45103 0.615059 0
M  V30 1360 C 131.32 -2.02183 0.113179 0
M  V30 1361 C 131.648 -1.48249 -1.25906 0
M  V30 1362 O 130.903 -0.650265 -1.84581 0
M  V30 1363 C 131.202 -3.57386 0.0318797 0
M  V30 1364 C 130.868 -4.30505 1.34077 0
M  V30 1365 C 129.53 -4.50197 1.69929 0
M  V30 1366 C 131.882 -4.72238 2.20546 0
M  V30 1367 C 129.21 -5.08881 2.91988 0
M  V30 1368 C 131.562 -5.32272 3.41861 0
M  V30 1369 C 130.226 -5.50187 3.77956 0
M  V30 1370 H 129.496 -0.739842 0.0414151 0
M  V30 1371 H 132.143 -1.74073 0.798168 0
M  V30 1372 H 130.448 -3.84817 -0.736409 0
M  V30 1373 H 132.145 -3.99264 -0.372712 0
M  V30 1374 H 128.735 -4.15496 1.05173 0
M  V30 1375 H 132.919 -4.56751 1.94146 0
M  V30 1376 H 128.175 -5.20939 3.2005 0
M  V30 1377 H 132.349 -5.63563 4.09109 0
M  V30 1378 H 129.976 -5.95427 4.72622 0
M  V30 1379 N 131.551 -0.354651 -1.53558 0
M  V30 1380 C 132.797 0.238797 -2.01389 0
M  V30 1381 C 133.13 1.49309 -1.2418 0
M  V30 1382 O 132.405 1.91638 -0.332457 0
M  V30 1383 C 132.688 0.541771 -3.56001 0
M  V30 1384 C 132.541 -0.725388 -4.43912 0
M  V30 1385 C 133.86 1.34685 -4.18984 0
M  V30 1386 H 130.979 0.0853177 -0.732045 0
M  V30 1387 H 133.621 -0.477384 -1.83905 0
M  V30 1388 H 131.771 1.15189 -3.71031 0
M  V30 1389 H 133.443 -1.36313 -4.407 0
M  V30 1390 H 131.686 -1.34801 -4.12324 0
M  V30 1391 H 132.357 -0.468505 -5.50008 0
M  V30 1392 H 134.833 0.830837 -4.07721 0
M  V30 1393 H 133.709 1.52759 -5.27215 0
M  V30 1394 H 133.97 2.35221 -3.74331 0
M  V30 1395 N 133.029 1.57378 -0.0835403 0
M  V30 1396 C 133.979 2.09916 0.889905 0
M  V30 1397 C 134.963 1.01151 1.25129 0
M  V30 1398 O 136.155 1.27443 1.2283 0
M  V30 1399 C 133.284 2.67379 2.15322 0
M  V30 1400 C 132.37 3.83167 1.81779 0
M  V30 1401 N 132.761 4.91665 1.18739 0
M  V30 1402 C 131.059 3.92685 2.11459 0
M  V30 1403 C 131.76 5.72409 1.0355 0
M  V30 1404 N 130.736 5.21062 1.54906 0
M  V30 1405 H 134.538 2.91188 0.398378 0
M  V30 1406 H 132.052 1.61956 0.120013 0
M  V30 1407 H 134.049 3.0334 2.8599 0
M  V30 1408 H 132.709 1.87558 2.65051 0
M  V30 1409 H 133.72 5.10784 0.855604 0
M  V30 1410 H 130.397 3.23856 2.63483 0
M  V30 1411 H 131.787 6.69699 0.543425 0
M  V30 1412 N 134.507 -0.190092 1.56449 0
M  V30 1413 C 135.753 -0.911052 1.81184 0
M  V30 1414 C 136.086 -1.82699 0.658396 0
M  V30 1415 O 135.361 -1.91491 -0.340775 0
M  V30 1416 C 135.644 -1.72297 3.16205 0
M  V30 1417 C 135.497 -0.831419 4.42049 0
M  V30 1418 C 136.816 -2.69454 3.47969 0
M  V30 1419 H 133.935 -0.32977 0.659106 0
M  V30 1420 H 136.577 -0.178169 1.89163 0
M  V30 1421 H 134.727 -2.34778 3.09534 0
M  V30 1422 H 136.399 -0.220929 4.60771 0
M  V30 1423 H 134.642 -0.138406 4.33579 0
M  V30 1424 H 135.313 -1.43461 5.33032 0
M  V30 1425 H 137.789 -2.17104 3.54972 0
M  V30 1426 H 136.665 -3.23342 4.43555 0
M  V30 1427 H 136.926 -3.48744 2.71717 0
M  V30 1428 N 135.985 -1.50799 -0.457987 0
M  V30 1429 C 137.21 -1.66496 -1.23668 0
M  V30 1430 C 137.635 -0.353288 -1.84752 0
M  V30 1431 O 136.993 0.684346 -1.67888 0
M  V30 1432 C 137.041 -2.76763 -2.3116 0
M  V30 1433 O 136.145 -2.38928 -3.36136 0
M  V30 1434 H 135.486 -0.555828 -0.363252 0
M  V30 1435 H 138.016 -1.9725 -0.543474 0
M  V30 1436 H 138.026 -3.00232 -2.76269 0
M  V30 1437 H 136.701 -3.71954 -1.86073 0
M  V30 1438 H 135.278 -2.25953 -2.96647 0
M  V30 1439 N 137.463 0.71206 -1.40597 0
M  V30 1440 C 138.373 1.8562 -1.43466 0
M  V30 1441 C 139.389 1.70902 -0.326902 0
M  V30 1442 O 140.565 1.93105 -0.572043 0
M  V30 1443 C 137.63 3.21451 -1.29884 0
M  V30 1444 C 136.691 3.48398 -2.50833 0
M  V30 1445 C 135.924 4.77749 -2.3789 0
M  V30 1446 O 136.147 5.53089 -1.39459 0
M  V30 1447 O 135.081 5.05111 -3.27333 0
M  V30 1448 H 138.907 1.86155 -2.39958 0
M  V30 1449 H 136.492 0.86295 -1.21957 0
M  V30 1450 H 138.374 4.02579 -1.24531 0
M  V30 1451 H 137.049 3.21636 -0.364997 0
M  V30 1452 H 135.956 2.67265 -2.61763 0
M  V30 1453 H 137.289 3.53014 -3.4299 0
M  V30 1454 N 138.941 1.26152 0.944643 0
M  V30 1455 C 140.166 1.14363 1.7302 0
M  V30 1456 C 140.591 -0.29772 1.85729 0
M  V30 1457 O 139.949 -1.2157 1.34501 0
M  V30 1458 C 139.997 1.81378 3.11664 0
M  V30 1459 O 139.101 1.10022 3.97453 0
M  V30 1460 H 138.442 0.398694 0.53098 0
M  V30 1461 H 140.972 1.66906 1.18337 0
M  V30 1462 H 140.982 1.88064 3.62072 0
M  V30 1463 H 139.657 2.86237 3.0173 0
M  V30 1464 H 138.234 1.11287 3.55907 0
M  V30 1465 N 140.419 -1.14872 1.07899 0
M  V30 1466 C 141.666 -1.85789 0.805532 0
M  V30 1467 C 141.994 -1.82649 -0.668561 0
M  V30 1468 O 141.249 -1.24858 -1.50695 0
M  V30 1469 C 141.548 -3.34223 1.26609 0
M  V30 1470 C 141.214 -3.57555 2.74709 0
M  V30 1471 C 139.876 -3.63631 3.1516 0
M  V30 1472 C 142.228 -3.66803 3.70277 0
M  V30 1473 C 139.556 -3.76473 4.49983 0
M  V30 1474 C 141.908 -3.8117 5.04869 0
M  V30 1475 C 140.572 -3.85494 5.44932 0
M  V30 1476 H 139.842 -0.679849 0.294765 0
M  V30 1477 H 142.489 -1.3572 1.35101 0
M  V30 1478 H 140.794 -3.86536 0.640103 0
M  V30 1479 H 142.491 -3.87511 1.03132 0
M  V30 1480 H 139.081 -3.5347 2.42398 0
M  V30 1481 H 143.265 -3.61404 3.40149 0
M  V30 1482 H 138.521 -3.7808 4.80484 0
M  V30 1483 H 142.695 -3.87268 5.78789 0
M  V30 1484 H 140.322 -3.95197 6.49403 0
M  V30 1485 N 141.898 -0.863906 -1.31812 0
M  V30 1486 C 143.309 -0.52522 -1.7916 0
M  V30 1487 C 143.66 0.957518 -1.71248 0
M  V30 1488 O 142.785 1.74734 -1.27659 0
M  V30 1489 C 143.38 -0.9466 -3.25307 0
M  V30 1490 C 141.939 -0.659668 -3.70574 0
M  V30 1491 C 141.086 -1.14126 -2.52726 0
M  V30 1492 H 144.037 -1.05022 -1.1898 0
M  V30 1493 H 144.058 -0.266766 -3.79564 0
M  V30 1494 H 143.57 -2.02579 -3.31034 0
M  V30 1495 H 141.671 0.408416 -3.70355 0
M  V30 1496 H 141.784 -1.23245 -4.62977 0
M  V30 1497 H 140.148 -0.561216 -2.4844 0
M  V30 1498 H 140.931 -2.22775 -2.61201 0
M  V30 1499 N 143.376 1.44774 -0.622745 0
M  V30 1500 C 144.326 2.2774 0.108889 0
M  V30 1501 C 145.31 1.38189 0.824175 0
M  V30 1502 O 146.502 1.62063 0.711664 0
M  V30 1503 C 143.631 3.25353 1.09546 0
M  V30 1504 C 142.717 4.22392 0.380232 0
M  V30 1505 N 143.108 5.02388 -0.586535 0
M  V30 1506 C 141.406 4.41588 0.625792 0
M  V30 1507 C 142.107 5.72894 -1.00834 0
M  V30 1508 N 141.083 5.42479 -0.348878 0
M  V30 1509 H 144.885 2.86993 -0.63341 0
M  V30 1510 H 142.399 1.5611 -0.447589 0
M  V30 1511 H 144.396 3.83538 1.63414 0
M  V30 1512 H 143.056 2.6766 1.83815 0
M  V30 1513 H 144.067 5.0885 -0.963975 0
M  V30 1514 H 140.744 3.95003 1.352 0
M  V30 1515 H 142.134 6.47158 -1.80656 0
M  V30 1516 N 144.854 0.36279 1.53368 0
M  V30 1517 C 146.265 -0.117022 1.86333 0
M  V30 1518 C 146.616 -1.48397 1.28347 0
M  V30 1519 O 145.741 -2.07787 0.604428 0
M  V30 1520 C 146.336 -0.21912 3.38091 0
M  V30 1521 C 144.895 -0.643184 3.70864 0
M  V30 1522 C 144.042 0.211318 2.76494 0
M  V30 1523 H 146.993 0.581687 1.47655 0
M  V30 1524 H 147.014 -1.04319 3.6592 0
M  V30 1525 H 146.526 0.775902 3.80265 0
M  V30 1526 H 144.627 -1.64654 3.34245 0
M  V30 1527 H 144.74 -0.41973 4.77258 0
M  V30 1528 H 143.104 -0.319367 2.5269 0
M  V30 1529 H 143.887 1.20383 3.21501 0
M  V30 1530 N 146.332 -1.57332 0.0918853 0
M  V30 1531 C 147.58 -1.93853 -0.571446 0
M  V30 1532 C 147.901 -0.974212 -1.6892 0
M  V30 1533 O 147.171 -0.0257254 -1.95883 0
M  V30 1534 H 145.751 -0.715666 -0.214082 0
M  V30 1535 H 148.413 -1.94287 0.154464 0
M  V30 1536 H 147.509 -2.96191 -0.983729 0
M  V30 1537 N 147.81 0.181792 -1.56548 0
M  V30 1538 C 149.057 0.900097 -1.81396 0
M  V30 1539 C 149.385 1.82695 -0.667281 0
M  V30 1540 O 148.64 1.92614 0.346146 0
M  V30 1541 C 148.939 1.73728 -3.12335 0
M  V30 1542 C 148.605 0.960255 -4.40556 0
M  V30 1543 C 147.267 0.745766 -4.75386 0
M  V30 1544 C 149.619 0.414477 -5.19549 0
M  V30 1545 C 146.947 -0.0257694 -5.86694 0
M  V30 1546 C 149.299 -0.343916 -6.31664 0
M  V30 1547 C 147.963 -0.569301 -6.65068 0
M  V30 1548 H 147.233 0.329369 -0.663775 0
M  V30 1549 H 149.88 0.165647 -1.90782 0
M  V30 1550 H 148.185 2.54081 -2.98245 0
M  V30 1551 H 149.882 2.29591 -3.28769 0
M  V30 1552 H 146.472 1.13746 -4.13231 0
M  V30 1553 H 150.656 0.567554 -4.93044 0
M  V30 1554 H 145.912 -0.210233 -6.11038 0
M  V30 1555 H 150.086 -0.774133 -6.92084 0
M  V30 1556 H 147.713 -1.16903 -7.51158 0
M  V30 1557 N 149.288 1.51039 0.449983 0
M  V30 1558 C 150.236 1.71995 1.5659 0
M  V30 1559 C 151.23 0.586029 1.5894 0
M  V30 1560 O 152.436 0.76709 1.62837 0
M  V30 1561 H 148.811 0.543233 0.520001 0
M  V30 1562 H 150.782 2.65562 1.36085 0
M  V30 1563 C 149.531 1.8506 2.9436 0
M  V30 1564 H 148.854 2.71712 2.93279 0
M  V30 1565 H 150.294 2.0374 3.71842 0
M  V30 1566 C 148.753 0.607277 3.31382 0
M  V30 1567 O 149.283 -0.243903 4.00959 0
M  V30 1568 N 147.489 0.455073 2.87015 0
M  V30 1569 H 147.036 1.14879 2.30566 0
M  V30 1570 H 146.994 -0.375611 3.12148 0
M  V30 1571 N 150.766 -0.704594 1.40972 0
M  V30 1572 C 151.699 -1.82861 1.36518 0
M  V30 1573 C 152.677 -1.6091 0.23382 0
M  V30 1574 O 153.861 -1.83778 0.419271 0
M  V30 1575 C 150.988 -3.1939 1.12729 0
M  V30 1576 C 150.034 -3.60148 2.28463 0
M  V30 1577 S 150.867 -3.65994 3.90907 0
M  V30 1578 C 152.023 -5.05264 3.69403 0
M  V30 1579 H 152.256 -1.86361 2.3164 0
M  V30 1580 H 149.789 -0.872439 1.27389 0
M  V30 1581 H 151.747 -3.98211 0.996893 0
M  V30 1582 H 150.408 -3.1351 0.192427 0
M  V30 1583 H 149.601 -4.59309 2.07489 0
M  V30 1584 H 149.203 -2.88612 2.37863 0
M  V30 1585 H 151.495 -5.92504 3.28551 0
M  V30 1586 H 152.438 -5.31278 4.68134 0
M  V30 1587 H 152.846 -4.76377 3.02862 0
M  V30 1588 N 152.244 -1.26651 -0.937939 0
M  V30 1589 C 153.469 -1.15279 -1.72411 0
M  V30 1590 C 153.894 0.287866 -1.85884 0
M  V30 1591 O 153.252 1.20855 -1.35143 0
M  V30 1592 C 153.3 -1.83028 -3.10698 0
M  V30 1593 O 152.404 -1.12128 -3.96864 0
M  V30 1594 H 151.745 -0.401504 -0.528858 0
M  V30 1595 H 154.275 -1.67531 -1.1745 0
M  V30 1596 H 154.285 -1.89981 -3.6107 0
M  V30 1597 H 152.96 -2.87833 -3.00208 0
M  V30 1598 H 151.537 -1.13173 -3.55312 0
M  V30 1599 N 153.722 1.14298 -1.08507 0
M  V30 1600 C 154.652 2.21542 -0.737646 0
M  V30 1601 C 155.633 1.67773 0.280377 0
M  V30 1602 O 156.818 1.93616 0.150521 0
M  V30 1603 C 153.948 3.46988 -0.147259 0
M  V30 1604 C 152.902 4.13789 -1.09374 0
M  V30 1605 C 152.228 5.33449 -0.365524 0
M  V30 1606 C 153.528 4.62208 -2.4323 0
M  V30 1607 H 155.222 2.5086 -1.6343 0
M  V30 1608 H 152.768 1.20576 -0.787243 0
M  V30 1609 H 154.721 4.21262 0.107808 0
M  V30 1610 H 153.445 3.17037 0.784538 0
M  V30 1611 H 152.104 3.4147 -1.33393 0
M  V30 1612 H 151.752 4.99759 0.57011 0
M  V30 1613 H 151.452 5.79088 -0.996512 0
M  V30 1614 H 152.976 6.10485 -0.118534 0
M  V30 1615 H 154.39 5.27952 -2.23472 0
M  V30 1616 H 152.787 5.18553 -3.02031 0
M  V30 1617 H 153.857 3.77224 -3.04681 0
M  V30 1618 N 155.201 0.870884 1.31352 0
M  V30 1619 C 156.131 0.343096 2.30966 0
M  V30 1620 C 157.112 -0.566507 1.60389 0
M  V30 1621 O 158.297 -0.483336 1.88089 0
M  V30 1622 C 155.427 -0.455487 3.443 0
M  V30 1623 C 154.381 0.361103 4.26474 0
M  V30 1624 C 153.707 -0.563221 5.31725 0
M  V30 1625 C 155.007 1.59566 4.97329 0
M  V30 1626 H 156.701 1.17548 2.75359 0
M  V30 1627 H 154.247 0.566686 1.32381 0
M  V30 1628 H 156.2 -0.83525 4.13039 0
M  V30 1629 H 154.924 -1.32139 2.98675 0
M  V30 1630 H 153.583 0.722825 3.59403 0
M  V30 1631 H 153.231 -1.42643 4.82351 0
M  V30 1632 H 152.931 -0.0207409 5.87596 0
M  V30 1633 H 154.455 -0.939808 6.03324 0
M  V30 1634 H 155.869 1.28728 5.58661 0
M  V30 1635 H 154.266 2.07728 5.63 0
M  V30 1636 H 155.336 2.34798 4.24262 0
M  V30 1637 N 156.679 -1.44442 0.630414 0
M  V30 1638 C 157.589 -2.34476 -0.0761693 0
M  V30 1639 C 158.605 -1.52576 -0.836449 0
M  V30 1640 O 159.781 -1.85307 -0.788874 0
M  V30 1641 C 156.846 -3.30545 -1.04599 0
M  V30 1642 C 155.907 -4.28352 -0.28516 0
M  V30 1643 C 155.14 -5.19831 -1.20878 0
M  V30 1644 O 155.363 -5.15223 -2.44747 0
M  V30 1645 O 154.297 -5.97892 -0.693491 0
M  V30 1646 H 158.123 -2.96345 0.664324 0
M  V30 1647 H 155.708 -1.44203 0.39061 0
M  V30 1648 H 157.59 -3.89681 -1.60396 0
M  V30 1649 H 156.265 -2.7121 -1.76711 0
M  V30 1650 H 155.172 -3.72764 0.315837 0
M  V30 1651 H 156.505 -4.90605 0.395924 0
M  V30 1652 N 158.157 -0.370918 -1.53173 0
M  V30 1653 C 159.105 0.488101 -2.27421 0
M  V30 1654 C 160.099 1.07884 -1.30604 0
M  V30 1655 O 161.305 1.02143 -1.48212 0
M  V30 1656 H 157.68 0.176134 -0.731082 0
M  V30 1657 H 159.651 -0.159815 -2.97972 0
M  V30 1658 C 158.4 1.61306 -3.08019 0
M  V30 1659 H 157.723 1.1678 -3.82364 0
M  V30 1660 H 159.163 2.18872 -3.63141 0
M  V30 1661 C 157.622 2.55848 -2.19188 0
M  V30 1662 O 158.152 3.58799 -1.80626 0
M  V30 1663 N 156.358 2.2516 -1.83715 0
M  V30 1664 H 155.905 1.41476 -2.15273 0
M  V30 1665 H 155.863 2.8867 -1.24567 0
M  V30 1666 N 159.635 1.57281 -0.100228 0
M  V30 1667 C 160.585 2.10848 0.86759 0
M  V30 1668 C 161.569 1.02473 1.24049 0
M  V30 1669 O 162.761 1.28739 1.21471 0
M  V30 1670 C 159.89 2.69648 2.12474 0
M  V30 1671 C 158.976 3.85074 1.77704 0
M  V30 1672 N 159.367 4.92897 1.13518 0
M  V30 1673 C 157.665 3.94905 2.07282 0
M  V30 1674 C 158.366 5.73475 0.974735 0
M  V30 1675 N 157.342 5.22675 1.4937 0
M  V30 1676 H 161.144 2.91594 0.367471 0
M  V30 1677 H 158.658 1.62074 0.102829 0
M  V30 1678 H 160.655 3.06356 2.82757 0
M  V30 1679 H 159.315 1.90359 2.63047 0
M  V30 1680 H 160.326 5.11662 0.801381 0
M  V30 1681 H 157.003 3.26633 2.60033 0
M  V30 1682 H 158.393 6.70238 0.472364 0
M  V30 1683 N 161.113 -0.173488 1.56642 0
M  V30 1684 C 162.341 -0.906095 1.86004 0
M  V30 1685 C 162.756 -1.75921 0.685355 0
M  V30 1686 O 162.113 -1.79198 -0.345578 0
M  V30 1687 C 162.164 -1.78462 3.14378 0
M  V30 1688 O 161.885 -0.965914 4.27319 0
M  V30 1689 C 163.386 -2.62707 3.57071 0
M  V30 1690 H 160.606 -0.263341 0.617165 0
M  V30 1691 H 163.15 -0.174236 2.03756 0
M  V30 1692 H 161.305 -2.46984 2.98459 0
M  V30 1693 H 161.719 -1.56655 5.00559 0
M  V30 1694 H 163.193 -3.19969 4.49804 0
M  V30 1695 H 163.67 -3.37472 2.81086 0
M  V30 1696 H 164.276 -1.99521 3.75595 0
M  V30 1697 N 162.591 -1.51276 -0.441967 0
M  V30 1698 C 164.007 -1.39349 -0.778083 0
M  V30 1699 C 164.207 -0.472212 -1.95889 0
M  V30 1700 O 163.263 0.0743551 -2.5239 0
M  V30 1701 C 164.576 -2.81292 -1.0628 0
M  V30 1702 C 166.124 -2.9041 -1.16751 0
M  V30 1703 C 166.599 -4.33251 -1.48519 0
M  V30 1704 N 168.09 -4.36336 -1.55453 0
M  V30 1705 C 168.825 -5.43885 -1.81596 0
M  V30 1706 N 168.321 -6.61601 -2.05562 0
M  V30 1707 N 170.114 -5.3136 -1.8334 0
M  V30 1708 H 162.265 -2.09729 0.335774 0
M  V30 1709 H 164.528 -0.943925 0.0878028 0
M  V30 1710 H 164.234 -3.50678 -0.267905 0
M  V30 1711 H 164.108 -3.20334 -1.99163 0
M  V30 1712 H 166.495 -2.21225 -1.95304 0
M  V30 1713 H 166.576 -2.54871 -0.217801 0
M  V30 1714 H 166.22 -5.02984 -0.704958 0
M  V30 1715 H 166.15 -4.66299 -2.44689 0
M  V30 1716 H 168.641 -3.51466 -1.38853 0
M  V30 1717 H 168.954 -7.39361 -2.24867 0
M  V30 1718 H 167.299 -6.64725 -2.02894 0
M  V30 1719 H 170.49 -4.38382 -1.64132 0
M  V30 1720 H 170.663 -6.15258 -2.03377 0
M  V30 1721 N 164.069 0.697108 -1.41344 0
M  V30 1722 C 165.001 1.8224 -1.39001 0
M  V30 1723 C 166.014 1.60152 -0.292428 0
M  V30 1724 O 167.203 1.69684 -0.554048 0
M  V30 1725 C 164.303 3.18976 -1.14489 0
M  V30 1726 C 163.476 3.68105 -2.36258 0
M  V30 1727 C 162.535 4.83506 -2.07625 0
M  V30 1728 O 161.561 4.95201 -2.8065 0
M  V30 1729 N 162.763 5.70637 -1.06555 0
M  V30 1730 H 165.528 1.84742 -2.35988 0
M  V30 1731 H 163.089 0.87937 -1.35936 0
M  V30 1732 H 165.081 3.93801 -0.932885 0
M  V30 1733 H 163.651 3.11508 -0.261043 0
M  V30 1734 H 162.871 2.84204 -2.7317 0
M  V30 1735 H 164.159 3.97667 -3.17393 0
M  V30 1736 H 163.557 5.63817 -0.461125 0
M  V30 1737 H 162.114 6.45368 -0.913444 0
M  V30 1738 N 165.547 1.27147 0.931209 0
M  V30 1739 C 166.51 1.09615 2.01289 0
M  V30 1740 C 167.51 0.0412581 1.60747 0
M  V30 1741 O 168.7 0.285545 1.71844 0
M  V30 1742 C 165.832 0.669447 3.34262 0
M  V30 1743 H 167.025 2.05662 2.18273 0
M  V30 1744 H 164.578 1.09885 1.11153 0
M  V30 1745 H 165.313 -0.292572 3.22978 0
M  V30 1746 H 165.098 1.43127 3.65044 0
M  V30 1747 H 166.588 0.568921 4.13706 0
M  V30 1748 N 167.025 -1.13721 1.09112 0
M  V30 1749 C 168.302 -1.81155 0.737706 0
M  V30 1750 C 168.682 -1.96253 -0.777683 0
M  V30 1751 O 168.03 -1.52807 -1.69889 0
M  V30 1752 C 168.24 -3.16392 1.47299 0
M  V30 1753 C 169.588 -3.91787 1.63671 0
M  V30 1754 O 170.612 -3.26005 1.43524 0
M  V30 1755 O 169.471 -5.0977 1.96969 0
M  V30 1756 H 166.565 -0.783518 0.26463 0
M  V30 1757 H 169.111 -1.20676 1.19312 0
M  V30 1758 H 167.883 -3.0061 2.50498 0
M  V30 1759 H 167.506 -3.8457 1.00953 0
M  V30 1760 N 168.503 -0.877838 -1.30888 0
M  V30 1761 C 169.413 -0.343096 -2.32078 0
M  V30 1762 C 170.429 0.551022 -1.65045 0
M  V30 1763 O 171.605 0.445854 -1.96403 0
M  V30 1764 C 168.67 0.439905 -3.43898 0
M  V30 1765 C 167.731 -0.483111 -4.26573 0
M  V30 1766 C 166.964 0.262616 -5.33053 0
M  V30 1767 O 167.187 1.48967 -5.50604 0
M  V30 1768 O 166.121 -0.383593 -6.00676 0
M  V30 1769 H 169.947 -1.18203 -2.79753 0
M  V30 1770 H 167.532 -0.64145 -1.34929 0
M  V30 1771 H 169.414 0.883504 -4.12034 0
M  V30 1772 H 168.089 1.25526 -2.98371 0
M  V30 1773 H 166.996 -0.975374 -3.61161 0
M  V30 1774 H 168.329 -1.26427 -4.75686 0
M  V30 1775 N 169.982 1.44106 -0.638065 0
M  V30 1776 C 171.259 1.95453 -0.0759321 0
M  V30 1777 C 171.639 1.57984 1.40015 0
M  V30 1778 O 170.987 0.857361 2.11806 0
M  V30 1779 C 171.197 3.47655 -0.306132 0
M  V30 1780 C 172.545 4.24114 -0.203008 0
M  V30 1781 O 173.569 3.55405 -0.237871 0
M  V30 1782 O 172.428 5.46381 -0.113827 0
M  V30 1783 H 169.522 0.826797 0.0183332 0
M  V30 1784 H 172.068 1.54122 -0.710251 0
M  V30 1785 H 170.84 3.68 -1.3301 0
M  V30 1786 H 170.463 3.95949 0.361991 0
M  V30 1787 N 171.46 0.379036 1.52974 0
M  V30 1788 C 172.69 -0.20649 2.05566 0
M  V30 1789 C 173.098 -1.41906 1.25137 0
M  V30 1790 O 172.441 -1.81421 0.288464 0
M  V30 1791 C 172.503 -0.651086 3.53555 0
M  V30 1792 C 172.167 0.446626 4.54812 0
M  V30 1793 C 173.164 1.30079 5.03364 0
M  V30 1794 C 170.849 0.610719 4.98573 0
M  V30 1795 C 172.843 2.30426 5.94292 0
M  V30 1796 C 170.53 1.61754 5.89304 0
M  V30 1797 C 171.528 2.46274 6.37054 0
M  V30 1798 O 171.216 3.45237 7.25994 0
M  V30 1799 H 170.948 -0.0372381 0.674974 0
M  V30 1800 H 173.502 0.539718 1.98182 0
M  V30 1801 H 171.732 -1.44911 3.58522 0
M  V30 1802 H 173.421 -1.16112 3.88938 0
M  V30 1803 H 174.187 1.18527 4.70294 0
M  V30 1804 H 170.066 -0.0374044 4.60985 0
M  V30 1805 H 173.61 2.96432 6.31485 0
M  V30 1806 H 169.507 1.73348 6.21788 0
M  V30 1807 H 170.275 3.41124 7.44027 0
M  V30 1808 N 172.938 -1.57226 0.108567 0
M  V30 1809 C 174.163 -1.99604 -0.563303 0
M  V30 1810 C 174.588 -0.987563 -1.6009 0
M  V30 1811 O 173.946 0.0421687 -1.81251 0
M  V30 1812 C 173.994 -3.40902 -1.17552 0
M  V30 1813 O 173.098 -3.42896 -2.2912 0
M  V30 1814 H 172.439 -0.648704 -0.1417 0
M  V30 1815 H 174.969 -2.03679 0.193961 0
M  V30 1816 H 174.979 -3.78886 -1.51357 0
M  V30 1817 H 173.654 -4.1382 -0.415445 0
M  V30 1818 H 172.231 -3.1672 -1.96832 0
M  V30 1819 N 174.416 0.165178 -1.56732 0
M  V30 1820 C 175.366 1.20917 -1.93295 0
M  V30 1821 C 176.35 1.39488 -0.801985 0
M  V30 1822 O 177.542 1.41356 -1.06525 0
M  V30 1823 C 174.671 2.54718 -2.3016 0
M  V30 1824 C 173.757 2.39815 -3.49785 0
M  V30 1825 N 174.148 1.94637 -4.66851 0
M  V30 1826 C 172.446 2.70623 -3.54513 0
M  V30 1827 C 173.147 1.92344 -5.4898 0
M  V30 1828 N 172.123 2.34978 -4.9019 0
M  V30 1829 H 175.925 0.851675 -2.81289 0
M  V30 1830 H 173.439 0.373399 -1.58049 0
M  V30 1831 H 175.436 3.30165 -2.54552 0
M  V30 1832 H 174.096 2.91265 -1.43508 0
M  V30 1833 H 175.107 1.6488 -4.90953 0
M  V30 1834 H 171.784 3.11167 -2.78354 0
M  V30 1835 H 173.174 1.5906 -6.52801 0
M  V30 1836 N 175.894 1.51508 0.433938 0
M  V30 1837 C 177.171 1.54888 1.19453 0
M  V30 1838 C 177.551 0.315154 2.08734 0
M  V30 1839 O 176.899 -0.699558 2.17528 0
M  V30 1840 C 177.109 2.86467 1.99342 0
M  V30 1841 C 178.457 3.38545 2.56267 0
M  V30 1842 O 179.481 2.88041 2.0955 0
M  V30 1843 O 178.34 4.26675 3.41483 0
M  V30 1844 H 175.434 0.622863 0.544032 0
M  V30 1845 H 177.98 1.63823 0.442732 0
M  V30 1846 H 176.752 3.67718 1.33788 0
M  V30 1847 H 176.375 2.8071 2.8158 0
M  V30 1848 N 177.372 -0.689602 1.41712 0
M  V30 1849 C 178.302 -1.81577 1.46806 0
M  V30 1850 C 179.283 -1.66945 0.326105 0
M  V30 1851 O 180.468 -1.86588 0.538377 0
M  V30 1852 C 177.598 -3.19762 1.35535 0
M  V30 1853 C 176.552 -3.49107 2.47605 0
M  V30 1854 C 175.878 -4.86711 2.21397 0
M  V30 1855 C 177.178 -3.47483 3.89939 0
M  V30 1856 H 178.872 -1.7757 2.41058 0
M  V30 1857 H 176.418 -0.852887 1.16025 0
M  V30 1858 H 178.371 -3.98263 1.3771 0
M  V30 1859 H 177.095 -3.24409 0.377708 0
M  V30 1860 H 175.754 -2.72959 2.44722 0
M  V30 1861 H 175.402 -4.8799 1.21961 0
M  V30 1862 H 175.102 -5.0731 2.96497 0
M  V30 1863 H 176.626 -5.67515 2.25297 0
M  V30 1864 H 178.04 -4.1598 3.94505 0
M  V30 1865 H 176.437 -3.79615 4.64771 0
M  V30 1866 H 177.507 -2.46341 4.17665 0
M  V30 1867 N 178.85 -1.27639 -0.924453 0
M  V30 1868 C 179.783 -1.04966 -2.02626 0
M  V30 1869 C 180.761 0.0309505 -1.62571 0
M  V30 1870 O 181.945 -0.114846 -1.8815 0
M  V30 1871 C 179.072 -0.59292 -3.3347 0
M  V30 1872 C 178.118 -1.66858 -3.92506 0
M  V30 1873 S 178.951 -3.2619 -4.24689 0
M  V30 1874 C 180.107 -2.82325 -5.58609 0
M  V30 1875 H 180.34 -1.98252 -2.21547 0
M  V30 1876 H 177.873 -1.11506 -1.06798 0
M  V30 1877 H 179.831 -0.336086 -4.09122 0
M  V30 1878 H 178.492 0.319939 -3.12466 0
M  V30 1879 H 177.685 -1.30038 -4.86935 0
M  V30 1880 H 177.287 -1.87766 -3.2345 0
M  V30 1881 H 179.579 -2.2783 -6.38044 0
M  V30 1882 H 180.522 -3.75511 -6.00331 0
M  V30 1883 H 180.93 -2.21367 -5.19285 0
M  V30 1884 N 180.328 1.1314 -1.09713 0
M  V30 1885 C 181.258 2.20748 -0.761102 0
M  V30 1886 C 182.239 1.68061 0.262566 0
M  V30 1887 O 183.424 1.93765 0.129977 0
M  V30 1888 C 180.554 3.46812 -0.184054 0
M  V30 1889 C 179.508 4.12606 -1.13757 0
M  V30 1890 C 178.834 5.33031 -0.422083 0
M  V30 1891 C 180.134 4.59603 -2.48118 0
M  V30 1892 H 181.828 2.49113 -1.66082 0
M  V30 1893 H 179.374 1.19734 -0.799987 0
M  V30 1894 H 181.327 4.21353 0.0631215 0
M  V30 1895 H 180.051 3.17851 0.750868 0
M  V30 1896 H 178.71 3.40036 -1.37007 0
M  V30 1897 H 178.358 5.00335 0.517072 0
M  V30 1898 H 178.058 5.77999 -1.05788 0
M  V30 1899 H 179.582 6.10325 -0.183277 0
M  V30 1900 H 180.996 5.25552 -2.29059 0
M  V30 1901 H 179.393 5.15321 -3.07514 0
M  V30 1902 H 180.463 3.73971 -3.08665 0
M  V30 1903 N 181.806 0.884767 1.30421 0
M  V30 1904 C 182.736 0.367574 2.30589 0
M  V30 1905 C 183.717 -0.549464 1.60981 0
M  V30 1906 O 184.902 -0.46336 1.88591 0
M  V30 1907 C 182.032 -0.418944 3.44764 0
M  V30 1908 C 180.986 0.406316 4.26067 0
M  V30 1909 C 180.312 -0.506793 5.32293 0
M  V30 1910 C 181.612 1.64832 4.95608 0
M  V30 1911 H 183.306 1.20462 2.74097 0
M  V30 1912 H 180.852 0.580695 1.31772 0
M  V30 1913 H 182.805 -0.791395 4.13902 0
M  V30 1914 H 181.529 -1.28964 3.0006 0
M  V30 1915 H 180.188 0.760903 3.58617 0
M  V30 1916 H 179.836 -1.37519 4.83836 0
M  V30 1917 H 179.536 0.0415828 5.87585 0
M  V30 1918 H 181.06 -0.875764 6.04287 0
M  V30 1919 H 182.474 1.34646 5.57264 0
M  V30 1920 H 180.871 2.13688 5.60765 0
M  V30 1921 H 181.941 2.39284 4.21748 0
M  V30 1922 N 183.284 -1.43765 0.645699 0
M  V30 1923 C 184.7 -1.56509 0.312591 0
M  V30 1924 C 184.9 -1.6307 -1.18365 0
M  V30 1925 O 183.956 -1.58167 -1.96824 0
M  V30 1926 C 185.269 -2.82968 1.01733 0
M  V30 1927 C 186.817 -2.96701 0.996865 0
M  V30 1928 C 187.292 -4.25982 1.68236 0
M  V30 1929 N 188.783 -4.32829 1.64964 0
M  V30 1930 C 189.518 -5.31613 2.14885 0
M  V30 1931 N 189.014 -6.36718 2.73061 0
M  V30 1932 N 190.807 -5.23217 2.05428 0
M  V30 1933 H 182.958 -1.3775 1.61675 0
M  V30 1934 H 185.221 -0.661067 0.679481 0
M  V30 1935 H 184.927 -2.84156 2.0724 0
M  V30 1936 H 184.801 -3.72957 0.564177 0
M  V30 1937 H 187.188 -2.95058 -0.0497719 0
M  V30 1938 H 187.269 -2.08022 1.48865 0
M  V30 1939 H 186.913 -4.28386 2.72852 0
M  V30 1940 H 186.843 -5.13545 1.16529 0
M  V30 1941 H 189.334 -3.57493 1.22503 0
M  V30 1942 H 189.647 -7.08401 3.08848 0
M  V30 1943 H 187.992 -6.37362 2.77118 0
M  V30 1944 H 191.183 -4.40019 1.59689 0
M  V30 1945 H 191.356 -6.00045 2.44643 0
M  V30 1946 N 184.763 -0.387143 -1.52771 0
M  V30 1947 C 185.693 0.440551 -2.29306 0
M  V30 1948 C 186.674 1.06535 -1.32606 0
M  V30 1949 O 187.859 1.07853 -1.61497 0
M  V30 1950 C 184.989 1.56919 -3.09829 0
M  V30 1951 C 183.943 1.07054 -4.14395 0
M  V30 1952 C 183.269 2.29109 -4.83129 0
M  V30 1953 C 184.569 0.140015 -5.22112 0
M  V30 1954 H 186.263 -0.198026 -2.98744 0
M  V30 1955 H 183.809 -0.09668 -1.43675 0
M  V30 1956 H 185.762 2.15503 -3.62128 0
M  V30 1957 H 184.486 2.23532 -2.3812 0
M  V30 1958 H 183.145 0.507247 -3.63074 0
M  V30 1959 H 182.793 2.94227 -4.0797 0
M  V30 1960 H 182.493 1.96406 -5.53804 0
M  V30 1961 H 184.017 2.88339 -5.38231 0
M  V30 1962 H 185.431 0.633978 -5.69784 0
M  V30 1963 H 183.828 -0.0971485 -6.00021 0
M  V30 1964 H 184.898 -0.811711 -4.78058 0
M  V30 1965 N 186.241 1.57166 -0.116904 0
M  V30 1966 C 187.469 1.99473 0.549383 0
M  V30 1967 C 187.884 0.996541 1.60357 0
M  V30 1968 O 187.241 -0.0108731 1.82497 0
M  V30 1969 C 187.292 3.41788 1.17741 0
M  V30 1970 O 187.013 4.37788 0.165362 0
M  V30 1971 C 188.514 3.99216 1.92722 0
M  V30 1972 H 185.734 0.655009 0.145616 0
M  V30 1973 H 188.278 2.03494 -0.202625 0
M  V30 1974 H 186.433 3.38713 1.88021 0
M  V30 1975 H 186.847 5.20806 0.621403 0
M  V30 1976 H 188.321 5.00882 2.31995 0
M  V30 1977 H 188.798 3.3824 2.80161 0
M  V30 1978 H 189.404 4.0583 1.27209 0
M  V30 1979 N 187.719 -0.156864 1.56817 0
M  V30 1980 C 188.629 -1.2136 2.00771 0
M  V30 1981 C 189.645 -1.47598 0.921459 0
M  V30 1982 O 190.821 -1.59462 1.2302 0
M  V30 1983 C 187.886 -2.52943 2.37109 0
M  V30 1984 C 186.947 -2.34439 3.59634 0
M  V30 1985 C 186.18 -3.59748 3.94229 0
M  V30 1986 O 186.403 -4.65526 3.29609 0
M  V30 1987 O 185.337 -3.52998 4.8752 0
M  V30 1988 H 189.163 -0.870468 2.90958 0
M  V30 1989 H 186.748 -0.36484 1.44877 0
M  V30 1990 H 188.63 -3.30538 2.61386 0
M  V30 1991 H 187.305 -2.86806 1.5008 0
M  V30 1992 H 186.212 -1.54828 3.40557 0
M  V30 1993 H 187.545 -2.05496 4.4725 0
M  V30 1994 N 189.197 -1.51736 -0.425897 0
M  V30 1995 C 190.608 -1.5732 -1.00536 0
M  V30 1996 C 190.959 -0.403537 -1.92005 0
M  V30 1997 O 190.084 0.478256 -2.11049 0
M  V30 1998 C 190.679 -2.85119 -1.8301 0
M  V30 1999 C 189.238 -2.93236 -2.35987 0
M  V30 2000 C 188.385 -2.52098 -1.15508 0
M  V30 2001 H 191.336 -1.57348 -0.206739 0
M  V30 2002 H 191.357 -2.69526 -2.68581 0
M  V30 2003 H 190.869 -3.7023 -1.16411 0
M  V30 2004 H 188.97 -2.12581 -3.06007 0
M  V30 2005 H 189.083 -3.9713 -2.68001 0
M  V30 2006 H 187.447 -2.05558 -1.50393 0
M  V30 2007 H 188.23 -3.39565 -0.505014 0
M  V30 2008 N 190.675 0.682077 -1.42076 0
M  V30 2009 C 191.638 1.77756 -1.44691 0
M  V30 2010 C 192.638 1.5726 -0.335535 0
M  V30 2011 O 193.828 1.63686 -0.596037 0
M  V30 2012 C 190.96 3.16301 -1.27146 0
M  V30 2013 H 192.153 1.76826 -2.42224 0
M  V30 2014 H 189.706 0.891012 -1.28416 0
M  V30 2015 H 190.441 3.22862 -0.305075 0
M  V30 2016 H 190.226 3.32581 -2.07683 0
M  V30 2017 H 191.716 3.96241 -1.31843 0
M  V30 2018 N 192.153 1.28127 0.917671 0
M  V30 2019 C 193.43 1.05761 1.64542 0
M  V30 2020 C 193.81 -0.404344 2.07191 0
M  V30 2021 O 193.158 -1.38963 1.81388 0
M  V30 2022 C 193.368 2.02857 2.83989 0
M  V30 2023 C 194.716 2.32786 3.551 0
M  V30 2024 O 195.74 2.0091 2.94132 0
M  V30 2025 O 194.599 2.87169 4.64969 0
M  V30 2026 H 191.693 0.403916 0.721652 0
M  V30 2027 H 194.239 1.39431 0.967322 0
M  V30 2028 H 193.011 3.01407 2.49538 0
M  V30 2029 H 192.634 1.69809 3.59514 0
M  V30 2030 N 193.631 -1.12557 1.10312 0
M  V30 2031 C 194.859 -1.87864 0.866873 0
M  V30 2032 C 195.274 -1.79588 -0.582557 0
M  V30 2033 O 194.631 -1.16887 -1.40156 0
M  V30 2034 C 194.682 -3.37125 1.30496 0
M  V30 2035 O 194.403 -3.45201 2.69755 0
M  V30 2036 C 195.904 -4.29373 1.10243 0
M  V30 2037 H 193.124 -0.594452 0.311236 0
M  V30 2038 H 195.668 -1.42429 1.46745 0
M  V30 2039 H 193.823 -3.80109 0.748081 0
M  V30 2040 H 194.237 -4.38056 2.88457 0
M  V30 2041 H 195.711 -5.32394 1.45811 0
M  V30 2042 H 196.188 -4.39181 0.0409492 0
M  V30 2043 H 196.794 -3.92169 1.64571 0
M  V30 2044 N 195.109 -0.891671 -1.2995 0
M  V30 2045 C 196.358 -0.509521 -1.95158 0
M  V30 2046 C 196.671 0.947388 -1.71125 0
M  V30 2047 O 197.877 1.43669 -2.30372 0
M  V30 2048 C 196.333 -0.860315 -3.49466 0
M  V30 2049 C 195.941 -2.33545 -3.8231 0
M  V30 2050 C 197.685 -0.547687 -4.20952 0
M  V30 2051 C 195.592 -2.62752 -5.29826 0
M  V30 2052 H 194.522 -0.18682 -0.730489 0
M  V30 2053 H 197.173 -1.08756 -1.47798 0
M  V30 2054 H 195.555 -0.211285 -3.95436 0
M  V30 2055 H 196.729 -3.02936 -3.47227 0
M  V30 2056 H 195.044 -2.61629 -3.23944 0
M  V30 2057 H 197.641 -0.742854 -5.29515 0
M  V30 2058 H 197.984 0.51332 -4.13123 0
M  V30 2059 H 198.517 -1.1542 -3.80688 0
M  V30 2060 H 195.256 -3.6762 -5.42712 0
M  V30 2061 H 194.776 -1.97977 -5.66185 0
M  V30 2062 H 196.455 -2.48601 -5.97333 0
M  V30 2063 N 196.587 1.43421 -0.653314 0
M  V30 2064 C 197.815 2.06163 -0.174491 0
M  V30 2065 C 198.23 1.48969 1.1599 0
M  V30 2066 O 197.587 0.621042 1.71608 0
M  V30 2067 C 197.638 3.61417 -0.0774865 0
M  V30 2068 O 197.359 4.16485 -1.35912 0
M  V30 2069 C 198.86 4.41235 0.427402 0
M  V30 2070 H 196.08 0.664946 -0.0899353 0
M  V30 2071 H 198.624 1.83924 -0.893988 0
M  V30 2072 H 196.779 3.82841 0.59257 0
M  V30 2073 H 197.193 5.10153 -1.21839 0
M  V30 2074 H 198.667 5.5021 0.44423 0
M  V30 2075 H 199.144 4.14268 1.45873 0
M  V30 2076 H 199.75 4.2478 -0.210167 0
M  V30 2077 N 198.065 0.39524 1.52563 0
M  V30 2078 C 199.342 -0.242908 1.94086 0
M  V30 2079 C 199.722 -1.63841 1.33114 0
M  V30 2080 O 199.07 -2.22928 0.501529 0
M  V30 2081 C 199.28 -0.26327 3.48006 0
M  V30 2082 C 200.628 -0.489354 4.21771 0
M  V30 2083 O 201.652 -0.343226 3.54543 0
M  V30 2084 O 200.511 -0.776169 5.4096 0
M  V30 2085 H 197.605 -0.152536 0.812811 0
M  V30 2086 H 200.151 0.450178 1.6362 0
M  V30 2087 H 198.923 0.713985 3.84731 0
M  V30 2088 H 198.546 -1.00103 3.84792 0
M  V30 2089 N 199.544 -1.57102 0.125237 0
M  V30 2090 C 200.507 -2.14471 -0.80838 0
M  V30 2091 C 201.507 -1.0811 -1.19033 0
M  V30 2092 O 202.697 -1.33856 -1.11482 0
M  V30 2093 C 199.829 -2.69005 -2.09402 0
M  V30 2094 H 201.022 -2.98297 -0.309696 0
M  V30 2095 H 198.575 -1.55807 -0.124051 0
M  V30 2096 H 199.31 -1.88785 -2.63687 0
M  V30 2097 H 199.095 -3.46799 -1.82957 0
M  V30 2098 H 200.585 -3.13278 -2.76128 0
M  V30 2099 N 201.022 0.148545 -1.56898 0
M  V30 2100 C 202.268 0.862694 -1.83536 0
M  V30 2101 C 202.601 1.80889 -0.706604 0
M  V30 2102 O 201.876 1.92328 0.289885 0
M  V30 2103 C 202.159 1.63853 -3.20662 0
M  V30 2104 C 202.012 0.713925 -4.44098 0
M  V30 2105 C 203.331 2.60133 -3.54991 0
M  V30 2106 H 200.45 0.312179 -0.667618 0
M  V30 2107 H 203.092 0.127953 -1.89569 0
M  V30 2108 H 201.242 2.26489 -3.1565 0
M  V30 2109 H 202.914 0.098686 -4.61194 0
M  V30 2110 H 201.157 0.0234019 -4.33794 0
M  V30 2111 H 201.828 1.29278 -5.36648 0
M  V30 2112 H 204.304 2.07616 -3.60603 0
M  V30 2113 H 203.18 3.11468 -4.51972 0
M  V30 2114 H 203.441 3.41417 -2.80868 0
M  V30 2115 N 202.5 1.5196 0.417844 0
M  V30 2116 C 203.447 1.74678 1.50852 0
M  V30 2117 C 204.417 0.588947 1.55308 0
M  V30 2118 O 205.602 0.825544 1.72016 0
M  V30 2119 C 202.742 1.89544 2.88387 0
M  V30 2120 C 201.855 3.17166 2.93309 0
M  V30 2121 C 200.99 3.22513 4.22088 0
M  V30 2122 C 200.029 4.44372 4.20951 0
M  V30 2123 N 199.166 4.47161 5.41287 0
M  V30 2124 H 204.006 2.67768 1.30783 0
M  V30 2125 H 201.543 1.32689 0.63498 0
M  V30 2126 H 203.501 1.96146 3.68216 0
M  V30 2127 H 202.131 0.998424 3.06971 0
M  V30 2128 H 201.183 3.19778 2.06024 0
M  V30 2129 H 202.495 4.07021 2.88332 0
M  V30 2130 H 201.649 3.28139 5.10303 0
M  V30 2131 H 200.388 2.30581 4.29748 0
M  V30 2132 H 199.393 4.38902 3.31127 0
M  V30 2133 H 200.618 5.3759 4.14938 0
M  V30 2134 H 198.564 3.58108 5.49632 0
M  V30 2135 H 198.481 5.3085 5.3827 0
M  V30 2136 H 199.749 4.57005 6.3148 0
M  V30 2137 N 203.978 -0.674533 1.42435 0
M  V30 2138 C 205.224 -1.43671 1.43131 0
M  V30 2139 C 205.557 -1.94142 0.0476021 0
M  V30 2140 O 204.832 -1.70924 -0.928188 0
M  V30 2141 C 205.115 -2.63355 2.45594 0
M  V30 2142 C 204.968 -2.18514 3.93156 0
M  V30 2143 C 206.287 -3.65571 2.45043 0
M  V30 2144 H 203.406 -0.521077 0.521198 0
M  V30 2145 H 206.048 -0.766551 1.7385 0
M  V30 2146 H 204.198 -3.2053 2.19528 0
M  V30 2147 H 205.87 -1.66504 4.30202 0
M  V30 2148 H 204.113 -1.50086 4.07009 0
M  V30 2149 H 204.784 -3.04484 4.60428 0
M  V30 2150 H 207.26 -3.18113 2.68223 0
M  V30 2151 H 206.136 -4.46893 3.18713 0
M  V30 2152 H 206.397 -4.16716 1.47649 0
M  V30 2153 N 205.456 -1.28612 -0.910864 0
M  V30 2154 C 206.702 -1.16106 -1.66274 0
M  V30 2155 C 207.035 0.289113 -1.92036 0
M  V30 2156 O 206.31 1.21 -1.52281 0
M  V30 2157 C 206.593 -1.96309 -3.01885 0
M  V30 2158 C 206.446 -3.49405 -2.8326 0
M  V30 2159 C 207.765 -1.78076 -4.02463 0
M  V30 2160 H 204.884 -0.423152 -0.603417 0
M  V30 2161 H 207.526 -1.57961 -1.05586 0
M  V30 2162 H 205.676 -1.60742 -3.53687 0
M  V30 2163 H 207.348 -3.94894 -2.38446 0
M  V30 2164 H 205.591 -3.74893 -2.18261 0
M  V30 2165 H 206.262 -4.00784 -3.79574 0
M  V30 2166 H 208.738 -2.0912 -3.59733 0
M  V30 2167 H 207.614 -2.36561 -4.95308 0
M  V30 2168 H 207.875 -0.733008 -4.35981 0
M  V30 2169 N 206.934 1.1197 -1.10907 0
M  V30 2170 C 207.844 2.21433 -0.774896 0
M  V30 2171 C 208.86 1.72478 0.229657 0
M  V30 2172 O 210.036 2.01288 0.0672008 0
M  V30 2173 C 207.101 3.4602 -0.216986 0
M  V30 2174 C 206.162 4.09791 -1.27944 0
M  V30 2175 C 205.395 5.28431 -0.748055 0
M  V30 2176 O 205.618 5.68823 0.423833 0
M  V30 2177 O 204.552 5.82644 -1.51027 0
M  V30 2178 H 208.378 2.5242 -1.68873 0
M  V30 2179 H 205.963 1.20399 -0.884555 0
M  V30 2180 H 207.845 4.21304 0.090059 0
M  V30 2181 H 206.52 3.16698 0.669633 0
M  V30 2182 H 205.427 3.36265 -1.63941 0
M  V30 2183 H 206.76 4.4328 -2.13925 0
M  V30 2184 N 208.412 0.89855 1.29475 0
M  V30 2185 C 209.342 0.39201 2.30186 0
M  V30 2186 C 210.323 -0.532359 1.61555 0
M  V30 2187 O 211.508 -0.443331 1.89072 0
M  V30 2188 C 208.638 -0.382353 3.45189 0
M  V30 2189 C 207.592 0.451483 4.25612 0
M  V30 2190 C 206.918 -0.450307 5.328 0
M  V30 2191 C 208.218 1.70079 4.93832 0
M  V30 2192 H 209.912 1.23362 2.72804 0
M  V30 2193 H 207.458 0.594638 1.31149 0
M  V30 2194 H 209.411 -0.747451 4.14718 0
M  V30 2195 H 208.135 -1.25774 3.01411 0
M  V30 2196 H 206.794 0.798897 3.57789 0
M  V30 2197 H 206.442 -1.32379 4.85268 0
M  V30 2198 H 206.142 0.103902 5.87508 0
M  V30 2199 H 207.666 -0.811623 6.05182 0
M  V30 2200 H 209.08 1.40549 5.55805 0
M  V30 2201 H 207.477 2.19623 5.58467 0
M  V30 2202 H 208.547 2.43744 4.19186 0
M  V30 2203 N 209.89 -1.43072 0.660911 0
M  V30 2204 C 211.301 -1.84932 0.256348 0
M  V30 2205 C 211.652 -1.55325 -1.19868 0
M  V30 2206 O 210.777 -1.00607 -1.91591 0
M  V30 2207 C 211.372 -3.35684 0.458475 0
M  V30 2208 C 209.931 -3.76245 0.108161 0
M  V30 2209 C 209.078 -2.66749 0.757641 0
M  V30 2210 H 212.029 -1.33116 0.864051 0
M  V30 2211 H 212.05 -3.79365 -0.293683 0
M  V30 2212 H 211.562 -3.572 1.51755 0
M  V30 2213 H 209.663 -3.60338 -0.948014 0
M  V30 2214 H 209.776 -4.76058 0.538992 0
M  V30 2215 H 208.14 -2.53989 0.190185 0
M  V30 2216 H 208.923 -2.91092 1.81989 0
M  V30 2217 N 211.368 -0.403325 -1.52352 0
M  V30 2218 C 212.596 0.174012 -2.06167 0
M  V30 2219 C 213.011 1.39347 -1.27388 0
M  V30 2220 O 212.368 1.79597 -0.324201 0
M  V30 2221 C 212.419 0.530223 -3.5759 0
M  V30 2222 O 212.14 -0.640806 -4.33388 0
M  V30 2223 C 213.641 1.16192 -4.27802 0
M  V30 2224 H 210.861 0.0229464 -0.670608 0
M  V30 2225 H 213.405 -0.572604 -1.9632 0
M  V30 2226 H 211.56 1.22673 -3.67464 0
M  V30 2227 H 211.974 -0.344851 -5.23365 0
M  V30 2228 H 213.448 1.36141 -5.34948 0
M  V30 2229 H 213.925 2.13335 -3.83907 0
M  V30 2230 H 214.531 0.505775 -4.22282 0
M  V30 2231 N 212.846 1.57033 -0.133567 0
M  V30 2232 C 213.756 2.19632 0.824564 0
M  V30 2233 C 214.772 1.17666 1.28182 0
M  V30 2234 O 215.948 1.50193 1.3418 0
M  V30 2235 C 213.013 2.79499 2.05137 0
M  V30 2236 C 212.074 3.96548 1.64464 0
M  V30 2237 C 211.307 4.5355 2.81297 0
M  V30 2238 O 211.53 4.09438 3.97136 0
M  V30 2239 O 210.464 5.44018 2.57542 0
M  V30 2240 H 214.29 3.01991 0.321766 0
M  V30 2241 H 211.875 1.49112 0.0927889 0
M  V30 2242 H 213.757 3.17602 2.7696 0
M  V30 2243 H 212.432 2.00162 2.54395 0
M  V30 2244 H 211.339 3.63186 0.897048 0
M  V30 2245 H 212.672 4.77364 1.19934 0
M  V30 2246 N 214.325 -0.140222 1.56975 0
M  V30 2247 C 215.235 -1.19223 2.02047 0
M  V30 2248 C 216.251 -1.46612 0.937062 0
M  V30 2249 O 217.427 -1.58148 1.24704 0
M  V30 2250 C 214.492 -2.50414 2.39778 0
M  V30 2251 C 213.553 -2.30612 3.621 0
M  V30 2252 C 212.786 -3.55547 3.98023 0
M  V30 2253 O 213.009 -4.62004 3.34528 0
M  V30 2254 O 211.943 -3.47808 4.91237 0
M  V30 2255 H 215.769 -0.839559 2.91865 0
M  V30 2256 H 213.354 -0.349453 1.45256 0
M  V30 2257 H 215.236 -3.27747 2.64877 0
M  V30 2258 H 213.911 -2.85198 1.53114 0
M  V30 2259 H 212.818 -1.51207 3.4218 0
M  V30 2260 H 214.151 -2.00741 4.49404 0
M  V30 2261 N 215.803 -1.52179 -0.40978 0
M  V30 2262 C 217.214 -1.58377 -0.988615 0
M  V30 2263 C 217.565 -0.423879 -1.91566 0
M  V30 2264 O 216.69 0.455844 -2.11544 0
M  V30 2265 C 217.285 -2.87044 -1.79976 0
M  V30 2266 C 215.844 -2.95722 -2.32863 0
M  V30 2267 C 214.991 -2.53309 -1.12828 0
M  V30 2268 H 217.942 -1.57558 -0.190039 0
M  V30 2269 H 217.963 -2.7236 -2.65707 0
M  V30 2270 H 217.475 -3.71444 -1.12478 0
M  V30 2271 H 215.576 -2.15814 -3.03735 0
M  V30 2272 H 215.689 -3.99951 -2.63773 0
M  V30 2273 H 214.053 -2.07142 -1.48204 0
M  V30 2274 H 214.836 -3.40082 -0.46897 0
M  V30 2275 N 217.281 0.66697 -1.42791 0
M  V30 2276 C 218.191 1.80962 -1.49299 0
M  V30 2277 C 219.207 1.69775 -0.381108 0
M  V30 2278 O 220.383 1.91188 -0.633188 0
M  V30 2279 C 217.448 3.17156 -1.40045 0
M  V30 2280 C 216.509 3.40242 -2.6179 0
M  V30 2281 C 215.742 4.69939 -2.52969 0
M  V30 2282 O 215.965 5.48372 -1.56985 0
M  V30 2283 O 214.899 4.94441 -3.43237 0
M  V30 2284 H 218.725 1.78427 -2.45759 0
M  V30 2285 H 216.31 0.823713 -1.24641 0
M  V30 2286 H 218.192 3.98413 -1.37276 0
M  V30 2287 H 216.867 3.20312 -0.467138 0
M  V30 2288 H 215.774 2.58802 -2.70134 0
M  V30 2289 H 217.107 3.41923 -3.54047 0
M  V30 2290 N 218.759 1.29093 0.90403 0
M  V30 2291 C 220.005 1.16986 1.65656 0
M  V30 2292 C 220.338 -0.278925 1.92186 0
M  V30 2293 O 219.613 -1.2019 1.5292 0
M  V30 2294 C 219.896 1.97908 3.0084 0
M  V30 2295 C 219.749 3.50903 2.81403 0
M  V30 2296 C 221.068 1.80208 4.01513 0
M  V30 2297 H 218.187 0.426346 0.601164 0
M  V30 2298 H 220.829 1.58518 1.04747 0
M  V30 2299 H 218.979 1.62616 3.52829 0
M  V30 2300 H 220.651 3.96153 2.36348 0
M  V30 2301 H 218.894 3.76045 2.1627 0
M  V30 2302 H 219.565 4.02791 3.77443 0
M  V30 2303 H 222.041 2.11025 3.58619 0
M  V30 2304 H 220.917 2.39184 4.94047 0
M  V30 2305 H 221.178 0.756119 4.35586 0
M  V30 2306 N 220.237 -1.11381 1.11499 0
M  V30 2307 C 221.485 -1.8277 0.862524 0
M  V30 2308 C 221.806 -1.85097 -0.613534 0
M  V30 2309 O 221.076 -1.32198 -1.4457 0
M  V30 2310 H 219.656 -0.676823 0.316101 0
M  V30 2311 H 222.318 -1.34816 1.4075 0
M  V30 2312 H 221.414 -2.86614 1.23527 0
M  V30 2313 N 221.715 -0.905404 -1.28997 0
M  V30 2314 C 222.94 -0.549175 -1.99997 0
M  V30 2315 C 223.365 0.860276 -1.67275 0
M  V30 2316 O 222.723 1.57355 -0.900502 0
M  V30 2317 C 222.771 -0.755185 -3.52604 0
M  V30 2318 O 221.875 0.189692 -4.11964 0
M  V30 2319 H 221.216 -0.213899 -0.628604 0
M  V30 2320 H 223.746 -1.21856 -1.64354 0
M  V30 2321 H 223.756 -0.662045 -4.02593 0
M  V30 2322 H 222.431 -1.78271 -3.75755 0
M  V30 2323 H 221.008 0.0485257 -3.72868 0
M  V30 2324 N 223.193 1.4272 -0.668489 0
M  V30 2325 C 224.421 2.05966 -0.196348 0
M  V30 2326 C 224.836 1.50191 1.14403 0
M  V30 2327 O 224.193 0.639208 1.7094 0
M  V30 2328 C 224.244 3.61314 -0.115815 0
M  V30 2329 O 223.965 4.1502 -1.40322 0
M  V30 2330 C 225.466 4.41663 0.380579 0
M  V30 2331 H 222.686 0.663954 -0.0969829 0
M  V30 2332 H 225.23 1.82966 -0.913446 0
M  V30 2333 H 223.385 3.83448 0.551931 0
M  V30 2334 H 223.799 5.08832 -1.27243 0
M  V30 2335 H 225.273 5.5065 0.385848 0
M  V30 2336 H 225.75 4.15792 1.41471 0
M  V30 2337 H 226.356 4.24534 -0.255209 0
M  V30 2338 N 224.671 0.411399 1.52136 0
M  V30 2339 C 225.911 -0.163143 2.03748 0
M  V30 2340 C 226.275 -1.42187 1.29022 0
M  V30 2341 O 227.476 -2.075 1.70872 0
M  V30 2342 C 225.747 -0.402651 3.55125 0
M  V30 2343 S 227.306 -0.944315 4.28519 0
M  V30 2344 H 224.124 -0.0439833 0.709638 0
M  V30 2345 H 226.726 0.56484 1.87163 0
M  V30 2346 H 225.43 0.520212 4.0709 0
M  V30 2347 H 224.961 -1.15844 3.75957 0
M  V30 2348 H 226.976 -2.22463 4.43536 0
M  V30 2349 N 226.149 -1.5696 0.141893 0
M  V30 2350 C 227.079 -2.19516 -0.795936 0
M  V30 2351 C 228.06 -1.14187 -1.26077 0
M  V30 2352 O 229.245 -1.42511 -1.31925 0
M  V30 2353 C 226.375 -2.81272 -2.03723 0
M  V30 2354 C 225.329 -3.92384 -1.70936 0
M  V30 2355 C 224.655 -4.41052 -3.02287 0
M  V30 2356 C 225.955 -5.13403 -0.959954 0
M  V30 2357 H 227.649 -2.98138 -0.274596 0
M  V30 2358 H 225.195 -1.43406 -0.130636 0
M  V30 2359 H 227.148 -3.237 -2.69808 0
M  V30 2360 H 225.872 -1.99973 -2.58221 0
M  V30 2361 H 224.531 -3.50566 -1.07232 0
M  V30 2362 H 224.179 -3.56582 -3.54765 0
M  V30 2363 H 223.879 -5.15993 -2.81114 0
M  V30 2364 H 225.403 -4.86146 -3.69451 0
M  V30 2365 H 226.817 -5.52706 -1.52279 0
M  V30 2366 H 225.214 -5.94073 -0.848357 0
M  V30 2367 H 226.284 -4.84875 0.0492434 0
M  V30 2368 N 227.627 0.131896 -1.57047 0
M  V30 2369 C 228.59 1.14638 -1.98471 0
M  V30 2370 C 229.59 1.35029 -0.873148 0
M  V30 2371 O 230.78 1.31764 -1.13946 0
M  V30 2372 C 227.912 2.50358 -2.31373 0
M  V30 2373 H 229.105 0.79064 -2.8929 0
M  V30 2374 H 226.658 0.375761 -1.51716 0
M  V30 2375 H 227.393 2.90876 -1.43393 0
M  V30 2376 H 227.178 2.36915 -3.12432 0
M  V30 2377 H 228.668 3.23395 -2.64207 0
M  V30 2378 N 229.106 1.52395 0.401703 0
M  V30 2379 C 230.331 1.70972 1.17403 0
M  V30 2380 C 230.756 0.421615 1.83314 0
M  V30 2381 O 230.114 -0.621564 1.70312 0
M  V30 2382 C 230.162 2.85151 2.20728 0
M  V30 2383 O 229.266 2.51238 3.27037 0
M  V30 2384 H 228.607 0.568927 0.342372 0
M  V30 2385 H 231.137 1.99131 0.469891 0
M  V30 2386 H 231.147 3.10279 2.64936 0
M  V30 2387 H 229.822 3.78603 1.7214 0
M  V30 2388 H 228.399 2.36808 2.88057 0
M  V30 2389 N 230.584 -0.659388 1.43143 0
M  V30 2390 C 231.832 -1.41654 1.44147 0
M  V30 2391 C 232.153 -1.94893 0.0645739 0
M  V30 2392 O 231.423 -1.74044 -0.899198 0
M  V30 2393 H 230.003 -0.525708 0.530697 0
M  V30 2394 H 232.665 -0.778097 1.78694 0
M  V30 2395 H 231.761 -2.26195 2.1504 0
M  V30 2396 N 232.062 -1.29571 -0.897171 0
M  V30 2397 C 233.308 -1.18873 -1.65048 0
M  V30 2398 C 233.663 0.256707 -1.9068 0
M  V30 2399 O 232.956 1.18202 -1.50794 0
M  V30 2400 C 233.15 -1.9382 -3.00281 0
M  V30 2401 C 232.979 -3.45503 -2.8785 0
M  V30 2402 C 231.749 -4.14856 -2.88483 0
M  V30 2403 C 233.947 -4.40956 -2.64693 0
M  V30 2404 N 231.929 -5.52886 -2.66815 0
M  V30 2405 C 233.3 -5.66464 -2.5203 0
M  V30 2406 C 235.355 -4.3069 -2.49821 0
M  V30 2407 C 234.058 -6.82871 -2.26008 0
M  V30 2408 C 236.084 -5.46852 -2.25182 0
M  V30 2409 C 235.446 -6.71333 -2.13286 0
M  V30 2410 H 231.545 -0.489998 -0.609447 0
M  V30 2411 H 234.129 -1.63431 -1.05822 0
M  V30 2412 H 232.3 -1.51671 -3.57562 0
M  V30 2413 H 234.032 -1.75366 -3.64731 0
M  V30 2414 H 230.787 -3.66579 -2.99861 0
M  V30 2415 H 231.211 -6.25487 -2.59027 0
M  V30 2416 H 235.853 -3.35141 -2.5776 0
M  V30 2417 H 233.571 -7.78473 -2.16806 0
M  V30 2418 H 237.157 -5.40809 -2.14515 0
M  V30 2419 H 236.037 -7.59701 -1.94485 0
M  V30 2420 N 233.54 1.10788 -1.12088 0
M  V30 2421 C 234.788 1.8231 -0.872205 0
M  V30 2422 C 235.109 1.85419 0.603709 0
M  V30 2423 O 234.379 1.32963 1.43867 0
M  V30 2424 H 232.959 0.675137 -0.319686 0
M  V30 2425 H 235.621 1.34068 -1.41463 0
M  V30 2426 H 234.717 2.85955 -1.25045 0
M  V30 2427 N 235.018 0.912232 1.28515 0
M  V30 2428 C 236.243 0.559774 1.99703 0
M  V30 2429 C 236.668 -0.851393 1.67729 0
M  V30 2430 O 236.026 -1.56875 0.908834 0
M  V30 2431 C 236.074 0.773874 3.52198 0
M  V30 2432 O 235.178 -0.167842 4.12058 0
M  V30 2433 H 234.519 0.21723 0.627461 0
M  V30 2434 H 237.049 1.22725 1.63706 0
M  V30 2435 H 237.059 0.683386 4.02236 0
M  V30 2436 H 235.734 1.80261 3.74805 0
M  V30 2437 H 234.311 -0.0287509 3.72889 0
M  V30 2438 N 236.496 -1.42363 0.676048 0
M  V30 2439 C 237.745 -2.00745 0.196037 0
M  V30 2440 C 238.058 -1.54083 -1.20489 0
M  V30 2441 O 239.264 -2.04891 -1.78134 0
M  V30 2442 C 237.72 -3.58651 0.299616 0
M  V30 2443 C 237.328 -4.143 1.70468 0
M  V30 2444 C 239.072 -4.24326 -0.121619 0
M  V30 2445 C 236.979 -5.64574 1.76096 0
M  V30 2446 H 235.909 -0.750787 0.0695301 0
M  V30 2447 H 238.56 -1.63072 0.841412 0
M  V30 2448 H 236.942 -3.93833 -0.413673 0
M  V30 2449 H 238.116 -3.90575 2.44515 0
M  V30 2450 H 236.431 -3.61081 2.07387 0
M  V30 2451 H 239.028 -5.34607 -0.0997362 0
M  V30 2452 H 239.371 -3.99897 -1.15708 0
M  V30 2453 H 239.904 -3.94108 0.540706 0
M  V30 2454 H 236.643 -5.93804 2.77628 0
M  V30 2455 H 236.163 -5.90286 1.06406 0
M  V30 2456 H 237.842 -6.29013 1.51496 0
M  V30 2457 N 237.974 -0.419461 -1.51915 0
M  V30 2458 C 238.884 0.407528 -2.31033 0
M  V30 2459 C 239.9 1.04413 -1.3919 0
M  V30 2460 O 241.076 1.0434 -1.72265 0
M  V30 2461 C 238.141 1.50365 -3.12396 0
M  V30 2462 C 237.202 0.889029 -4.19994 0
M  V30 2463 C 236.435 1.93291 -4.97468 0
M  V30 2464 O 236.658 3.15259 -4.75361 0
M  V30 2465 O 235.592 1.53339 -5.8204 0
M  V30 2466 H 239.418 -0.237865 -3.02767 0
M  V30 2467 H 237.003 -0.182413 -1.48282 0
M  V30 2468 H 238.885 2.13975 -3.63032 0
M  V30 2469 H 237.56 2.13345 -2.43445 0
M  V30 2470 H 236.467 0.215353 -3.7348 0
M  V30 2471 H 237.8 0.302991 -4.91267 0
M  V30 2472 N 239.452 1.56882 -0.150215 0
M  V30 2473 C 240.863 1.82995 0.370076 0
M  V30 2474 C 241.214 1.06907 1.64515 0
M  V30 2475 O 240.339 0.315369 2.1409 0
M  V30 2476 C 240.934 3.31942 0.678208 0
M  V30 2477 C 239.493 3.58625 1.14301 0
M  V30 2478 C 238.64 2.76792 0.167778 0
M  V30 2479 H 241.591 1.54209 -0.374858 0
M  V30 2480 H 241.612 3.48272 1.53254 0
M  V30 2481 H 241.124 3.87294 -0.249991 0
M  V30 2482 H 239.225 3.08664 2.08704 0
M  V30 2483 H 239.338 4.67073 1.06676 0
M  V30 2484 H 237.702 2.45972 0.661037 0
M  V30 2485 H 238.485 3.34916 -0.754069 0
M  V30 2486 N 240.93 -0.123565 1.57115 0
M  V30 2487 C 241.84 -1.17074 2.033 0
M  V30 2488 C 242.856 -1.4561 0.952559 0
M  V30 2489 O 244.032 -1.56817 1.26374 0
M  V30 2490 C 241.097 -2.47857 2.42421 0
M  V30 2491 C 240.158 -2.26758 3.64526 0
M  V30 2492 C 239.391 -3.51305 4.01771 0
M  V30 2493 O 239.614 -4.5843 3.39409 0
M  V30 2494 O 238.548 -3.42578 4.94898 0
M  V30 2495 H 242.374 -0.808555 2.92739 0
M  V30 2496 H 239.959 -0.334027 1.45618 0
M  V30 2497 H 241.841 -3.2492 2.68338 0
M  V30 2498 H 240.516 -2.83558 1.5613 0
M  V30 2499 H 239.423 -1.47569 3.43765 0
M  V30 2500 H 240.756 -1.95963 4.51508 0
M  V30 2501 N 242.408 -1.52605 -0.393616 0
M  V30 2502 C 243.356 -1.77688 -1.50099 0
M  V30 2503 C 244.35 -0.644615 -1.56656 0
M  V30 2504 O 245.556 -0.826997 -1.59877 0
M  V30 2505 H 241.931 -0.562159 -0.499481 0
M  V30 2506 H 243.902 -2.7043 -1.26135 0
M  V30 2507 C 242.651 -1.95858 -2.87289 0
M  V30 2508 H 241.974 -2.8241 -2.82992 0
M  V30 2509 H 243.414 -2.174 -3.64024 0
M  V30 2510 C 241.873 -0.729848 -3.28899 0
M  V30 2511 O 242.403 0.0949217 -4.01588 0
M  V30 2512 N 240.609 -0.561283 -2.85128 0
M  V30 2513 H 240.156 -1.23357 -2.26143 0
M  V30 2514 H 240.114 0.2595 -3.13327 0
M  V30 2515 N 243.887 0.651787 -1.4349 0
M  V30 2516 C 245.134 1.41167 -1.45183 0
M  V30 2517 C 245.462 1.94349 -0.0766601 0
M  V30 2518 O 244.717 1.72804 0.918555 0
M  V30 2519 C 245.016 2.60914 -2.44251 0
M  V30 2520 C 244.682 2.26142 -3.9009 0
M  V30 2521 C 243.344 2.16371 -4.2981 0
M  V30 2522 C 245.696 1.98334 -4.81989 0
M  V30 2523 C 243.024 1.7695 -5.5938 0
M  V30 2524 C 245.376 1.6041 -6.11924 0
M  V30 2525 C 244.04 1.49166 -6.5062 0
M  V30 2526 H 243.31 0.516566 -0.531263 0
M  V30 2527 H 245.957 0.741099 -1.76579 0
M  V30 2528 H 244.262 3.3311 -2.06265 0
M  V30 2529 H 245.959 3.19127 -2.42815 0
M  V30 2530 H 242.549 2.34658 -3.58655 0
M  V30 2531 H 246.733 2.04803 -4.52072 0
M  V30 2532 H 241.989 1.66831 -5.88198 0
M  V30 2533 H 246.163 1.37925 -6.82605 0
M  V30 2534 H 243.79 1.1839 -7.50925 0
M  V30 2535 N 245.365 1.30045 0.890287 0
M  V30 2536 C 246.59 1.21598 1.68014 0
M  V30 2537 C 247.015 -0.218678 1.86825 0
M  V30 2538 O 246.373 -1.15756 1.39536 0
M  V30 2539 C 246.421 1.94434 3.03691 0
M  V30 2540 O 245.525 1.2678 3.92429 0
M  V30 2541 H 244.866 0.420856 0.513592 0
M  V30 2542 H 247.396 1.71775 1.11151 0
M  V30 2543 H 247.406 2.03251 3.5377 0
M  V30 2544 H 246.081 2.98777 2.89318 0
M  V30 2545 H 244.658 1.26282 3.50866 0
M  V30 2546 N 246.843 -1.10192 1.12674 0
M  V30 2547 C 248.09 -1.82205 0.883606 0
M  V30 2548 C 248.418 -1.8532 -0.590492 0
M  V30 2549 O 247.673 -1.31137 -1.45264 0
M  V30 2550 C 247.972 -3.28552 1.4067 0
M  V30 2551 C 247.638 -3.45582 2.89627 0
M  V30 2552 C 246.3 -3.49937 3.30299 0
M  V30 2553 C 248.652 -3.50768 3.85501 0
M  V30 2554 C 245.98 -3.57049 4.65546 0
M  V30 2555 C 248.332 -3.59414 5.20581 0
M  V30 2556 C 246.996 -3.62034 5.60792 0
M  V30 2557 H 246.266 -0.666735 0.323334 0
M  V30 2558 H 248.913 -1.29868 1.40736 0
M  V30 2559 H 247.218 -3.83473 0.80347 0
M  V30 2560 H 248.915 -3.82788 1.19475 0
M  V30 2561 H 245.505 -3.42871 2.57172 0
M  V30 2562 H 249.689 -3.46651 3.55171 0
M  V30 2563 H 244.945 -3.57361 4.96088 0
M  V30 2564 H 249.119 -3.62371 5.94693 0
M  V30 2565 H 246.746 -3.67298 6.6558 0
M  V30 2566 N 248.321 -0.919034 -1.28029 0
M  V30 2567 C 249.732 -0.600735 -1.76771 0
M  V30 2568 C 250.083 0.884024 -1.75156 0
M  V30 2569 O 249.208 1.69163 -1.34956 0
M  V30 2570 C 249.803 -1.08372 -3.21 0
M  V30 2571 C 248.362 -0.816248 -3.67443 0
M  V30 2572 C 247.509 -1.24742 -2.47658 0
M  V30 2573 H 250.46 -1.09974 -1.14418 0
M  V30 2574 H 250.481 -0.427512 -3.78091 0
M  V30 2575 H 249.993 -2.16437 -3.22144 0
M  V30 2576 H 248.094 0.250968 -3.71754 0
M  V30 2577 H 248.207 -1.4277 -4.57333 0
M  V30 2578 H 246.571 -0.666083 -2.45836 0
M  V30 2579 H 247.354 -2.33653 -2.51518 0
M  V30 2580 N 249.799 1.42003 -0.683588 0
M  V30 2581 C 251.076 1.95112 -0.138075 0
M  V30 2582 C 251.456 1.62359 1.34918 0
M  V30 2583 O 250.804 0.924311 2.08971 0
M  V30 2584 C 251.014 3.46505 -0.416581 0
M  V30 2585 C 252.362 4.23254 -0.337834 0
M  V30 2586 O 253.386 3.54468 -0.35082 0
M  V30 2587 O 252.245 5.45743 -0.287596 0
M  V30 2588 H 249.339 0.826961 -0.00797996 0
M  V30 2589 H 251.885 1.51784 -0.758924 0
M  V30 2590 H 250.657 3.63582 -1.4465 0
M  V30 2591 H 250.28 3.969 0.235839 0
M  V30 2592 N 251.277 0.427512 1.51691 0
M  V30 2593 C 252.554 -0.201684 1.94557 0
M  V30 2594 C 252.934 -1.60981 1.36559 0
M  V30 2595 O 252.282 -2.21814 0.548702 0
M  V30 2596 C 252.492 -0.189394 3.48486 0
M  V30 2597 C 253.84 -0.39978 4.22714 0
M  V30 2598 O 254.864 -0.267945 3.55191 0
M  V30 2599 O 253.723 -0.661249 5.42485 0
M  V30 2600 H 250.817 -0.135261 0.815864 0
M  V30 2601 H 253.363 0.484782 1.62628 0
M  V30 2602 H 252.135 0.795431 3.8313 0
M  V30 2603 H 251.758 -0.919187 3.86829 0
M  V30 2604 N 252.755 -1.56801 0.158532 0
M  V30 2605 C 253.685 -2.20347 -0.772609 0
M  V30 2606 C 254.666 -1.15518 -1.24859 0
M  V30 2607 O 255.851 -1.43902 -1.30406 0
M  V30 2608 C 252.981 -2.83417 -2.00729 0
M  V30 2609 C 251.935 -3.94174 -1.66765 0
M  V30 2610 C 251.261 -4.44233 -2.97592 0
M  V30 2611 C 252.561 -5.14392 -0.905447 0
M  V30 2612 H 254.255 -2.98413 -0.242959 0
M  V30 2613 H 251.801 -1.43537 -0.115419 0
M  V30 2614 H 253.754 -3.26543 -2.6636 0
M  V30 2615 H 252.478 -2.02701 -2.56086 0
M  V30 2616 H 251.137 -3.51684 -1.03508 0
M  V30 2617 H 250.785 -3.60325 -3.50963 0
M  V30 2618 H 250.485 -5.18945 -2.75626 0
M  V30 2619 H 252.009 -4.90037 -3.64274 0
M  V30 2620 H 253.423 -5.5429 -1.46408 0
M  V30 2621 H 251.82 -5.9494 -0.7853 0
M  V30 2622 H 252.89 -4.84795 0.100668 0
M  V30 2623 N 254.233 0.115231 -1.57178 0
M  V30 2624 C 255.165 1.16694 -1.97269 0
M  V30 2625 C 256.178 1.37445 -0.872502 0
M  V30 2626 O 257.367 1.36454 -1.15077 0
M  V30 2627 C 254.467 2.52627 -2.25905 0
M  V30 2628 C 253.64 2.52427 -3.57211 0
M  V30 2629 C 252.699 3.70134 -3.74016 0
M  V30 2630 O 251.725 3.53546 -4.46087 0
M  V30 2631 N 252.927 4.88844 -3.13068 0
M  V30 2632 H 255.692 0.82588 -2.88096 0
M  V30 2633 H 253.253 0.304461 -1.59011 0
M  V30 2634 H 255.245 3.29937 -2.34359 0
M  V30 2635 H 253.815 2.789 -1.41186 0
M  V30 2636 H 253.035 1.60805 -3.5991 0
M  V30 2637 H 254.323 2.49353 -4.43509 0
M  V30 2638 H 253.721 5.05225 -2.54489 0
M  V30 2639 H 252.278 5.63817 -3.27037 0
M  V30 2640 N 255.711 1.52812 0.385517 0
M  V30 2641 C 256.951 1.69716 1.13911 0
M  V30 2642 C 257.315 0.42962 1.87132 0
M  V30 2643 O 258.516 0.475071 2.64569 0
M  V30 2644 C 256.787 2.90021 2.0886 0
M  V30 2645 S 258.346 3.27531 2.92009 0
M  V30 2646 H 255.164 0.59739 0.385547 0
M  V30 2647 H 257.766 1.90868 0.423061 0
M  V30 2648 H 256.47 3.80493 1.53797 0
M  V30 2649 H 256.001 2.71213 2.84969 0
M  V30 2650 H 258.016 2.77989 4.11019 0
M  V30 2651 N 257.189 -0.644168 1.43834 0
M  V30 2652 C 258.435 -1.40603 1.46146 0
M  V30 2653 C 258.768 -1.93997 0.0887717 0
M  V30 2654 O 258.043 -1.72854 -0.891724 0
M  V30 2655 C 258.326 -2.58086 2.51124 0
M  V30 2656 C 258.179 -2.10126 3.97702 0
M  V30 2657 C 259.498 -3.60291 2.52742 0
M  V30 2658 H 256.617 -0.509905 0.532134 0
M  V30 2659 H 259.259 -0.729502 1.75437 0
M  V30 2660 H 257.409 -3.15801 2.26278 0
M  V30 2661 H 259.081 -1.57342 4.33637 0
M  V30 2662 H 257.324 -1.41419 4.10101 0
M  V30 2663 H 257.995 -2.94649 4.66783 0
M  V30 2664 H 260.471 -3.12352 2.7491 0
M  V30 2665 H 259.347 -4.40032 3.28121 0
M  V30 2666 H 259.608 -4.1349 1.56455 0
M  V30 2667 N 258.668 -1.30515 -0.883378 0
M  V30 2668 C 259.945 -1.10086 -1.6168 0
M  V30 2669 C 260.325 0.349269 -2.08191 0
M  V30 2670 O 259.673 1.34105 -1.85008 0
M  V30 2671 C 259.883 -2.10315 -2.78511 0
M  V30 2672 C 261.231 -2.42119 -3.48803 0
M  V30 2673 O 262.255 -2.08638 -2.88702 0
M  V30 2674 O 261.114 -2.99396 -4.57192 0
M  V30 2675 H 258.208 -0.422907 -0.710689 0
M  V30 2676 H 260.754 -1.41947 -0.930015 0
M  V30 2677 H 259.526 -3.07917 -2.41459 0
M  V30 2678 H 259.149 -1.79282 -3.54886 0
M  V30 2679 N 260.146 1.09593 -1.13257 0
M  V30 2680 C 261.076 2.18214 -0.830946 0
M  V30 2681 C 262.057 1.68812 0.208966 0
M  V30 2682 O 263.242 1.9408 0.0682666 0
M  V30 2683 C 260.372 3.46051 -0.294296 0
M  V30 2684 C 259.326 4.08778 -1.26826 0
M  V30 2685 C 258.652 5.31419 -0.591449 0
M  V30 2686 C 259.952 4.51476 -2.62615 0
M  V30 2687 H 261.646 2.43703 -1.73923 0
M  V30 2688 H 259.192 1.17128 -0.837675 0
M  V30 2689 H 261.145 4.2134 -0.0709606 0
M  V30 2690 H 259.869 3.20079 0.649366 0
M  V30 2691 H 258.528 3.35505 -1.47756 0
M  V30 2692 H 258.176 5.01727 0.357633 0
M  V30 2693 H 257.876 5.74341 -1.24123 0
M  V30 2694 H 259.4 6.09433 -0.377355 0
M  V30 2695 H 260.814 5.17999 -2.45663 0
M  V30 2696 H 259.211 5.05277 -3.23752 0
M  V30 2697 H 260.281 3.63962 -3.20406 0
M  V30 2698 N 261.624 0.925811 1.2754 0
M  V30 2699 C 262.571 0.422045 2.26908 0
M  V30 2700 C 263.541 -0.510029 1.58076 0
M  V30 2701 O 264.726 -0.429599 1.85901 0
M  V30 2702 C 261.866 -0.320837 3.43605 0
M  V30 2703 C 260.979 0.64513 4.27156 0
M  V30 2704 C 260.114 -0.117405 5.3107 0
M  V30 2705 C 259.153 0.841391 6.0629 0
M  V30 2706 N 258.29 0.111604 7.02011 0
M  V30 2707 H 263.13 1.27441 2.69375 0
M  V30 2708 H 260.667 0.639697 1.32462 0
M  V30 2709 H 262.625 -0.76785 4.10073 0
M  V30 2710 H 261.255 -1.13745 3.02096 0
M  V30 2711 H 260.307 1.21067 3.6062 0
M  V30 2712 H 261.619 1.37797 4.79389 0
M  V30 2713 H 260.773 -0.624422 6.03478 0
M  V30 2714 H 259.512 -0.883219 4.79636 0
M  V30 2715 H 258.517 1.35967 5.32722 0
M  V30 2716 H 259.742 1.60696 6.59813 0
M  V30 2717 H 257.688 -0.635999 6.5291 0
M  V30 2718 H 257.605 0.784044 7.51923 0
M  V30 2719 H 258.873 -0.374823 7.78598 0
M  V30 2720 N 263.102 -1.41638 0.69111 0
M  V30 2721 C 264.351 -2.00526 0.217318 0
M  V30 2722 C 264.664 -1.55353 -1.18848 0
M  V30 2723 O 265.87 -2.06769 -1.75951 0
M  V30 2724 C 264.326 -3.58313 0.337639 0
M  V30 2725 C 263.934 -4.12469 1.74852 0
M  V30 2726 C 265.678 -4.24431 -0.0766066 0
M  V30 2727 C 263.585 -5.62675 1.82074 0
M  V30 2728 H 262.515 -0.750008 0.0774893 0
M  V30 2729 H 265.166 -1.6217 0.858661 0
M  V30 2730 H 263.548 -3.9425 -0.371879 0
M  V30 2731 H 264.722 -3.8796 2.48644 0
M  V30 2732 H 263.037 -3.58861 2.11205 0
M  V30 2733 H 265.634 -5.34683 -0.0430284 0
M  V30 2734 H 265.977 -4.01101 -1.1146 0
M  V30 2735 H 266.51 -3.93512 0.582476 0
M  V30 2736 H 263.249 -5.90826 2.83911 0
M  V30 2737 H 262.769 -5.89124 1.12661 0
M  V30 2738 H 264.448 -6.27371 1.58159 0
M  V30 2739 N 264.58 -0.43555 -1.51462 0
M  V30 2740 C 265.51 0.367376 -2.30592 0
M  V30 2741 C 266.491 1.02263 -1.35928 0
M  V30 2742 O 267.676 1.02661 -1.64847 0
M  V30 2743 C 264.806 1.46983 -3.14664 0
M  V30 2744 C 263.76 0.938161 -4.17591 0
M  V30 2745 C 263.086 2.13622 -4.90173 0
M  V30 2746 C 264.386 -0.0261621 -5.22293 0
M  V30 2747 H 266.08 -0.292969 -2.97963 0
M  V30 2748 H 263.626 -0.14234 -1.43295 0
M  V30 2749 H 265.579 2.03873 -3.688 0
M  V30 2750 H 264.303 2.15843 -2.4511 0
M  V30 2751 H 262.962 0.391481 -3.64504 0
M  V30 2752 H 262.61 2.81098 -4.17124 0
M  V30 2753 H 262.31 1.78688 -5.59772 0
M  V30 2754 H 263.834 2.7107 -5.47132 0
M  V30 2755 H 265.248 0.452384 -5.71512 0
M  V30 2756 H 263.645 -0.287992 -5.99409 0
M  V30 2757 H 264.715 -0.963391 -4.75233 0
M  V30 2758 N 266.058 1.56714 -0.166846 0
M  V30 2759 C 267.469 1.83378 0.350646 0
M  V30 2760 C 267.82 1.08646 1.63372 0
M  V30 2761 O 266.945 0.338058 2.13743 0
M  V30 2762 C 267.54 3.32643 0.642963 0
M  V30 2763 C 266.099 3.59818 1.10491 0
M  V30 2764 C 265.246 2.76954 0.138411 0
M  V30 2765 H 268.197 1.53803 -0.391193 0
M  V30 2766 H 268.218 3.49878 1.49551 0
M  V30 2767 H 267.73 3.87007 -0.291055 0
M  V30 2768 H 265.831 3.1086 2.05418 0
M  V30 2769 H 265.944 4.68178 1.01716 0
M  V30 2770 H 264.308 2.4666 0.634911 0
M  V30 2771 H 265.091 3.34097 -0.789549 0
M  V30 2772 N 267.536 -0.106894 1.57237 0
M  V30 2773 C 268.484 -1.14944 2.02215 0
M  V30 2774 C 269.478 -1.42167 0.92114 0
M  V30 2775 O 270.684 -1.41987 1.10634 0
M  V30 2776 H 267.059 -0.387841 0.64427 0
M  V30 2777 H 269.03 -0.743683 2.88984 0
M  V30 2778 C 267.779 -2.4647 2.4525 0
M  V30 2779 H 267.102 -2.26363 3.29545 0
M  V30 2780 H 268.542 -3.17948 2.80508 0
M  V30 2781 C 267.001 -3.09921 1.321 0
M  V30 2782 O 267.531 -3.9651 0.643622 0
M  V30 2783 N 265.737 -2.69986 1.07497 0
M  V30 2784 H 265.284 -1.99667 1.62761 0
M  V30 2785 H 265.242 -3.12769 0.319876 0
M  V30 2786 N 269.014 -1.53014 -0.377408 0
M  V30 2787 C 270.291 -1.59215 -1.13622 0
M  V30 2788 C 270.671 -0.392407 -2.07421 0
M  V30 2789 O 270.019 0.618342 -2.19975 0
M  V30 2790 C 270.229 -2.93669 -1.88573 0
M  V30 2791 C 271.577 -3.47822 -2.43526 0
M  V30 2792 O 272.601 -2.9562 -1.98715 0
M  V30 2793 O 271.46 -4.39055 -3.25412 0
M  V30 2794 H 268.554 -0.642625 -0.52054 0
M  V30 2795 H 271.1 -1.65353 -0.381625 0
M  V30 2796 H 269.872 -3.7243 -1.20048 0
M  V30 2797 H 269.495 -2.90968 -2.70968 0
M  V30 2798 N 270.492 0.636531 -1.44174 0
M  V30 2799 C 271.402 1.77754 -1.53103 0
M  V30 2800 C 272.418 1.68928 -0.417034 0
M  V30 2801 O 273.594 1.89801 -0.6736 0
M  V30 2802 C 270.659 3.14115 -1.46741 0
M  V30 2803 C 269.72 3.34612 -2.68948 0
M  V30 2804 C 268.953 4.64467 -2.6288 0
M  V30 2805 O 269.176 5.44919 -1.68581 0
M  V30 2806 O 268.11 4.87049 -3.53648 0
M  V30 2807 H 271.936 1.73174 -2.49489 0
M  V30 2808 H 269.521 0.79709 -1.2636 0
M  V30 2809 H 271.403 3.95412 -1.45696 0
M  V30 2810 H 270.078 3.19249 -0.534975 0
M  V30 2811 H 268.985 2.53014 -2.75562 0
M  V30 2812 H 270.318 3.34336 -3.61221 0
M  V30 2813 N 271.97 1.30982 0.876444 0
M  V30 2814 C 273.21 1.21589 1.64303 0
M  V30 2815 C 273.574 -0.223962 1.90689 0
M  V30 2816 O 274.775 -0.44128 2.65153 0
M  V30 2817 C 273.046 2.03007 2.94148 0
M  V30 2818 S 274.605 2.10405 3.85065 0
M  V30 2819 H 271.423 0.433161 0.563819 0
M  V30 2820 H 274.025 1.65565 1.03964 0
M  V30 2821 H 272.729 3.06719 2.72675 0
M  V30 2822 H 272.26 1.59725 3.59515 0
M  V30 2823 H 274.275 1.23765 4.80517 0
M  V30 2824 N 273.449 -1.08991 1.13837 0
M  V30 2825 C 274.396 -2.15748 0.819835 0
M  V30 2826 C 275.366 -1.64636 -0.220026 0
M  V30 2827 O 276.551 -1.90582 -0.0912757 0
M  V30 2828 C 273.691 -3.4382 0.296913 0
M  V30 2829 C 272.804 -4.0881 1.39636 0
M  V30 2830 C 271.939 -5.24655 0.831314 0
M  V30 2831 C 270.978 -5.81575 1.90886 0
M  V30 2832 N 270.115 -6.88774 1.36142 0
M  V30 2833 H 274.955 -2.42338 1.73426 0
M  V30 2834 H 272.492 -1.18935 0.865613 0
M  V30 2835 H 274.45 -4.17193 -0.0244339 0
M  V30 2836 H 273.08 -3.17535 -0.580628 0
M  V30 2837 H 272.132 -3.33258 1.83422 0
M  V30 2838 H 273.444 -4.47141 2.21058 0
M  V30 2839 H 272.598 -6.04942 0.461515 0
M  V30 2840 H 271.337 -4.87698 -0.013932 0
M  V30 2841 H 270.342 -4.99946 2.28767 0
M  V30 2842 H 271.567 -6.20592 2.75758 0
M  V30 2843 H 269.513 -6.53788 0.538254 0
M  V30 2844 H 269.43 -7.25898 2.11208 0
M  V30 2845 H 270.698 -7.72806 1.01933 0
M  V30 2846 N 274.927 -0.932562 -1.27047 0
M  V30 2847 C 275.874 -0.434072 -2.26681 0
M  V30 2848 C 276.844 0.501639 -1.58344 0
M  V30 2849 O 278.029 0.419734 -1.86126 0
M  V30 2850 C 275.169 0.30261 -3.43771 0
M  V30 2851 C 274.282 -0.667774 -4.26808 0
M  V30 2852 C 273.417 0.0892393 -5.31125 0
M  V30 2853 C 272.456 -0.873532 -6.05835 0
M  V30 2854 N 271.593 -0.148832 -7.01942 0
M  V30 2855 H 276.433 -1.28868 -2.68695 0
M  V30 2856 H 273.97 -0.646713 -1.32121 0
M  V30 2857 H 275.928 0.746092 -4.10474 0
M  V30 2858 H 274.558 1.12142 -3.02695 0
M  V30 2859 H 273.61 -1.22978 -3.59973 0
M  V30 2860 H 274.922 -1.40337 -4.78651 0
M  V30 2861 H 274.076 0.592409 -6.03801 0
M  V30 2862 H 272.815 0.85777 -4.80097 0
M  V30 2863 H 271.82 -1.38791 -5.31994 0
M  V30 2864 H 273.045 -1.64193 -6.58952 0
M  V30 2865 H 270.991 0.601365 -6.53238 0
M  V30 2866 H 270.908 -0.82391 -7.51497 0
M  V30 2867 H 272.176 0.333527 -7.78786 0
M  V30 2868 N 276.405 1.4127 -0.698611 0
M  V30 2869 C 277.368 2.29158 -0.044132 0
M  V30 2870 C 278.368 1.44529 0.704841 0
M  V30 2871 O 279.558 1.65643 0.539276 0
M  V30 2872 C 276.69 3.27459 0.947809 0
M  V30 2873 H 277.883 2.88529 -0.817994 0
M  V30 2874 H 275.436 1.49307 -0.46228 0
M  V30 2875 H 276.171 2.73073 1.74933 0
M  V30 2876 H 275.956 3.8991 0.41385 0
M  V30 2877 H 277.446 3.93311 1.40344 0
M  V30 2878 N 277.883 0.443576 1.51229 0
M  V30 2879 C 278.833 -0.382787 2.24764 0
M  V30 2880 C 279.817 -0.984836 1.27239 0
M  V30 2881 O 281.009 -0.901943 1.52296 0
M  V30 2882 C 278.138 -1.47989 3.09765 0
M  V30 2883 C 277.224 -0.886931 4.14722 0
M  V30 2884 N 277.615 -0.0237103 5.05794 0
M  V30 2885 C 275.913 -1.15385 4.30816 0
M  V30 2886 C 276.614 0.309971 5.80874 0
M  V30 2887 N 275.59 -0.307989 5.42727 0
M  V30 2888 H 279.392 0.282624 2.92538 0
M  V30 2889 H 276.906 0.256027 1.60369 0
M  V30 2890 H 278.903 -2.08482 3.61027 0
M  V30 2891 H 277.563 -2.14758 2.43535 0
M  V30 2892 H 278.574 0.34318 5.16762 0
M  V30 2893 H 275.251 -1.81857 3.75812 0
M  V30 2894 H 276.641 1.01279 6.64223 0
M  V30 2895 N 279.361 -1.56624 0.175154 0
M  V30 2896 C 280.607 -1.9729 -0.469506 0
M  V30 2897 C 280.94 -1.06128 -1.62636 0
M  V30 2898 O 280.215 -0.109183 -1.94193 0
M  V30 2899 C 280.498 -3.47375 -0.948804 0
M  V30 2900 C 280.351 -4.49317 0.208491 0
M  V30 2901 C 281.67 -4.00652 -1.82116 0
M  V30 2902 H 278.789 -0.717317 -0.16919 0
M  V30 2903 H 281.431 -1.88184 0.262062 0
M  V30 2904 H 279.581 -3.55267 -1.57219 0
M  V30 2905 H 281.253 -4.53482 0.845682 0
M  V30 2906 H 279.496 -4.25121 0.863395 0
M  V30 2907 H 280.167 -5.51741 -0.169059 0
M  V30 2908 H 282.643 -3.95416 -1.2956 0
M  V30 2909 H 281.519 -5.06075 -2.12554 0
M  V30 2910 H 281.78 -3.44699 -2.7683 0
M  V30 2911 N 280.839 0.0985539 -1.57292 0
M  V30 2912 C 281.771 1.14595 -1.98496 0
M  V30 2913 C 282.784 1.36512 -0.887031 0
M  V30 2914 O 283.973 1.35225 -1.16518 0
M  V30 2915 C 281.073 2.50216 -2.28572 0
M  V30 2916 C 280.246 2.48624 -3.59868 0
M  V30 2917 C 279.305 3.66146 -3.7792 0
M  V30 2918 O 278.331 3.48795 -4.49812 0
M  V30 2919 N 279.533 4.85496 -3.18235 0
M  V30 2920 H 282.298 0.795277 -2.88956 0
M  V30 2921 H 279.859 0.287579 -1.59325 0
M  V30 2922 H 281.851 3.27432 -2.37845 0
M  V30 2923 H 280.421 2.77387 -1.44136 0
M  V30 2924 H 279.641 1.56978 -3.61596 0
M  V30 2925 H 280.929 2.44635 -4.46129 0
M  V30 2926 H 280.327 5.02497 -2.59833 0
M  V30 2927 H 278.884 5.60317 -3.32999 0
M  V30 2928 N 282.317 1.53212 0.369288 0
M  V30 2929 C 283.264 1.79388 1.45219 0
M  V30 2930 C 284.234 0.638059 1.53356 0
M  V30 2931 O 285.419 0.879852 1.69302 0
M  V30 2932 C 282.559 1.98623 2.82211 0
M  V30 2933 C 281.672 3.26337 2.8307 0
M  V30 2934 C 280.807 3.35779 4.11614 0
M  V30 2935 C 279.846 4.5754 4.06601 0
M  V30 2936 N 278.983 4.64155 5.26787 0
M  V30 2937 H 283.823 2.71794 1.22198 0
M  V30 2938 H 281.36 1.34642 0.592444 0
M  V30 2939 H 283.318 2.07761 3.61789 0
M  V30 2940 H 281.948 1.09558 3.03639 0
M  V30 2941 H 281 3.26171 1.95747 0
M  V30 2942 H 282.312 4.15988 2.75237 0
M  V30 2943 H 281.466 3.44208 4.99606 0
M  V30 2944 H 280.205 2.44137 4.22195 0
M  V30 2945 H 279.21 4.49215 3.16996 0
M  V30 2946 H 280.435 5.50519 3.97625 0
M  V30 2947 H 278.381 3.75413 5.3796 0
M  V30 2948 H 278.298 5.47706 5.21109 0
M  V30 2949 H 279.566 4.76863 6.16621 0
M  V30 2950 N 283.795 -0.628877 1.44509 0
M  V30 2951 C 285.041 -1.39045 1.47629 0
M  V30 2952 C 285.374 -1.93892 0.109343 0
M  V30 2953 O 284.649 -1.7379 -0.87334 0
M  V30 2954 C 284.932 -2.55408 2.53848 0
M  V30 2955 C 284.785 -2.05896 3.99909 0
M  V30 2956 C 286.104 -3.5759 2.56549 0
M  V30 2957 H 283.223 -0.504232 0.537512 0
M  V30 2958 H 285.865 -0.710854 1.76201 0
M  V30 2959 H 284.015 -3.13384 2.29615 0
M  V30 2960 H 285.687 -1.52734 4.35282 0
M  V30 2961 H 283.93 -1.37061 4.11578 0
M  V30 2962 H 284.601 -2.89681 4.69882 0
M  V30 2963 H 287.077 -3.09419 2.78207 0
M  V30 2964 H 285.953 -4.36527 3.32769 0
M  V30 2965 H 286.214 -4.11808 1.60832 0
M  V30 2966 N 285.273 -1.31445 -0.869486 0
M  V30 2967 C 286.501 -1.24122 -1.65534 0
M  V30 2968 C 286.916 0.193387 -1.87807 0
M  V30 2969 O 286.273 1.12557 -1.43656 0
M  V30 2970 C 286.324 -1.98229 -3.02304 0
M  V30 2971 O 286.045 -3.3609 -2.81026 0
M  V30 2972 C 287.546 -1.97751 -3.96749 0
M  V30 2973 H 284.766 -0.428868 -0.516055 0
M  V30 2974 H 287.31 -1.73328 -1.08525 0
M  V30 2975 H 285.465 -1.52782 -3.56001 0
M  V30 2976 H 285.879 -3.7383 -3.67902 0
M  V30 2977 H 287.353 -2.54114 -4.90031 0
M  V30 2978 H 287.83 -0.960137 -4.28577 0
M  V30 2979 H 288.436 -2.43079 -3.48988 0
M  V30 2980 N 286.751 1.08385 -1.14413 0
M  V30 2981 C 288.028 1.77429 -0.823297 0
M  V30 2982 C 288.408 1.9974 0.683163 0
M  V30 2983 O 287.756 1.60739 1.62405 0
M  V30 2984 C 287.966 3.09004 -1.62227 0
M  V30 2985 C 289.314 3.83532 -1.82177 0
M  V30 2986 O 290.338 3.18786 -1.58915 0
M  V30 2987 O 289.197 4.99792 -2.21067 0
M  V30 2988 H 286.291 0.769999 -0.301712 0
M  V30 2989 H 288.837 1.14846 -1.24934 0
M  V30 2990 H 287.609 2.88316 -2.64555 0
M  V30 2991 H 287.232 3.79316 -1.19187 0
M  V30 2992 N 288.23 0.939286 1.26551 0
M  V30 2993 C 289.477 0.585847 1.9384 0
M  V30 2994 C 289.805 -0.874784 1.73718 0
M  V30 2995 O 289.06 -1.64092 1.06642 0
M  V30 2996 C 289.359 0.872106 3.46596 0
M  V30 2997 C 289.025 2.31632 3.86856 0
M  V30 2998 C 287.687 2.71111 3.97558 0
M  V30 2999 C 290.039 3.25494 4.07066 0
M  V30 3000 C 287.367 4.03553 4.25866 0
M  V30 3001 C 289.719 4.57531 4.36862 0
M  V30 3002 C 288.383 4.96828 4.45778 0
M  V30 3003 H 287.653 0.214377 0.709312 0
M  V30 3004 H 290.3 1.18544 1.50398 0
M  V30 3005 H 288.605 0.18996 3.91339 0
M  V30 3006 H 290.302 0.577442 3.96821 0
M  V30 3007 H 286.892 2.00008 3.79071 0
M  V30 3008 H 291.076 2.9619 3.98227 0
M  V30 3009 H 286.332 4.33665 4.30981 0
M  V30 3010 H 290.506 5.30254 4.51446 0
M  V30 3011 H 288.133 5.99482 4.67468 0
M  V30 3012 N 289.708 -1.40897 0.706093 0
M  V30 3013 C 290.641 -2.282 -0.00328781 0
M  V30 3014 C 291.619 -1.42816 -0.77732 0
M  V30 3015 O 292.803 -1.72237 -0.765944 0
M  V30 3016 C 289.93 -3.23226 -1.01205 0
M  V30 3017 C 288.976 -4.25222 -0.329955 0
M  V30 3018 S 289.809 -5.27269 0.935298 0
M  V30 3019 C 290.965 -6.25859 -0.0716061 0
M  V30 3020 H 291.198 -2.88016 0.737143 0
M  V30 3021 H 288.731 -1.46191 0.496756 0
M  V30 3022 H 290.689 -3.78503 -1.58888 0
M  V30 3023 H 289.35 -2.62485 -1.72513 0
M  V30 3024 H 288.543 -4.92023 -1.09221 0
M  V30 3025 H 288.145 -3.73595 0.174069 0
M  V30 3026 H 290.437 -6.71204 -0.921521 0
M  V30 3027 H 291.38 -7.0586 0.562765 0
M  V30 3028 H 291.788 -5.62852 -0.431088 0
M  V30 3029 N 291.186 -0.45159 -1.50991 0
M  V30 3030 C 292.116 0.342898 -2.30969 0
M  V30 3031 C 293.097 1.00815 -1.37005 0
M  V30 3032 O 294.282 1.00907 -1.65926 0
M  V30 3033 C 291.412 1.43637 -3.16205 0
M  V30 3034 C 290.366 0.893818 -4.18563 0
M  V30 3035 C 289.692 2.08411 -4.92411 0
M  V30 3036 C 290.992 -0.0815568 -5.22236 0
M  V30 3037 H 292.686 -0.324556 -2.97636 0
M  V30 3038 H 290.232 -0.157531 -1.43136 0
M  V30 3039 H 292.185 1.9995 -3.70942 0
M  V30 3040 H 290.909 2.13232 -2.47386 0
M  V30 3041 H 289.568 0.352798 -3.64898 0
M  V30 3042 H 289.216 2.76658 -4.20082 0
M  V30 3043 H 288.916 1.72741 -5.61636 0
M  V30 3044 H 290.44 2.65251 -5.49976 0
M  V30 3045 H 291.854 0.391742 -5.7196 0
M  V30 3046 H 290.251 -0.351551 -5.99069 0
M  V30 3047 H 291.321 -1.01374 -4.74185 0
M  V30 3048 N 292.664 1.56529 -0.183458 0
M  V30 3049 C 293.904 1.99141 0.460667 0
M  V30 3050 C 294.268 1.06736 1.59597 0
M  V30 3051 O 295.469 1.38538 2.30349 0
M  V30 3052 C 293.74 3.45358 0.919939 0
M  V30 3053 S 295.299 4.09999 1.56354 0
M  V30 3054 H 292.117 0.695479 0.147748 0
M  V30 3055 H 294.719 1.93429 -0.283782 0
M  V30 3056 H 293.423 4.10315 0.0834208 0
M  V30 3057 H 292.954 3.54862 1.69814 0
M  V30 3058 H 294.969 4.06046 2.85203 0
M  V30 3059 N 294.142 -0.090211 1.57342 0
M  V30 3060 C 295.388 -0.793982 1.86611 0
M  V30 3061 C 295.721 -1.78142 0.773252 0
M  V30 3062 O 294.996 -1.93271 -0.218304 0
M  V30 3063 C 295.279 -1.51839 3.26523 0
M  V30 3064 C 295.132 -0.548609 4.46442 0
M  V30 3065 C 296.451 -2.46779 3.64401 0
M  V30 3066 H 293.57 -0.287186 0.678744 0
M  V30 3067 H 296.212 -0.0575076 1.89913 0
M  V30 3068 H 294.362 -2.14617 3.23839 0
M  V30 3069 H 296.034 0.0725513 4.61243 0
M  V30 3070 H 294.277 0.137614 4.33582 0
M  V30 3071 H 294.948 -1.09271 5.41076 0
M  V30 3072 H 297.424 -1.94089 3.68061 0
M  V30 3073 H 296.3 -2.94479 4.63221 0
M  V30 3074 H 296.561 -3.30758 2.93346 0
M  V30 3075 N 295.62 -1.53406 -0.361157 0
M  V30 3076 C 296.868 -1.69467 -1.10115 0
M  V30 3077 C 297.189 -0.451352 -1.89705 0
M  V30 3078 O 296.459 0.534636 -1.88463 0
M  V30 3079 H 295.039 -0.624749 -0.409508 0
M  V30 3080 H 297.701 -1.90609 -0.406699 0
M  V30 3081 H 296.797 -2.55774 -1.78847 0
M  V30 3082 N 297.098 0.621204 -1.44841 0
M  V30 3083 C 298.048 1.72663 -1.48901 0
M  V30 3084 C 299.032 1.56964 -0.353702 0
M  V30 3085 O 300.224 1.66532 -0.599669 0
M  V30 3086 C 297.353 3.11381 -1.44557 0
M  V30 3087 C 296.439 3.32514 -2.6324 0
M  V30 3088 N 296.83 3.23969 -3.8843 0
M  V30 3089 C 295.128 3.63343 -2.58647 0
M  V30 3090 C 295.829 3.46062 -4.67564 0
M  V30 3091 N 294.805 3.69407 -3.98797 0
M  V30 3092 H 298.607 1.64529 -2.43531 0
M  V30 3093 H 296.121 0.82401 -1.39942 0
M  V30 3094 H 298.118 3.90667 -1.4555 0
M  V30 3095 H 296.778 3.20674 -0.509731 0
M  V30 3096 H 297.789 3.02669 -4.20252 0
M  V30 3097 H 294.466 3.79556 -1.73906 0
M  V30 3098 H 295.856 3.44963 -5.76585 0
M  V30 3099 N 298.576 1.31904 0.862503 0
M  V30 3100 C 299.506 1.22782 1.98612 0
M  V30 3101 C 300.487 0.113362 1.69722 0
M  V30 3102 O 301.672 0.299218 1.91881 0
M  V30 3103 C 298.802 0.942058 3.34279 0
M  V30 3104 C 297.756 2.0169 3.77499 0
M  V30 3105 C 297.082 1.58369 5.10709 0
M  V30 3106 C 298.382 3.43096 3.93805 0
M  V30 3107 H 300.076 2.16788 2.06502 0
M  V30 3108 H 297.622 1.04366 0.992154 0
M  V30 3109 H 299.575 0.864818 4.1243 0
M  V30 3110 H 298.299 -0.0336603 3.26583 0
M  V30 3111 H 296.958 2.08416 3.01593 0
M  V30 3112 H 296.606 0.595628 4.99461 0
M  V30 3113 H 296.306 2.30279 5.40597 0
M  V30 3114 H 297.83 1.52067 5.91361 0
M  V30 3115 H 299.244 3.39003 4.62331 0
M  V30 3116 H 297.641 4.13288 4.35101 0
M  V30 3117 H 298.711 3.83334 2.96957 0
M  V30 3118 N 300.054 -1.07777 1.14986 0
M  V30 3119 C 300.964 -2.18404 0.856546 0
M  V30 3120 C 301.98 -1.73211 -0.165485 0
M  V30 3121 O 303.156 -2.01399 0.00755219 0
M  V30 3122 C 300.221 -3.44977 0.34526 0
M  V30 3123 C 299.282 -4.0476 1.43065 0
M  V30 3124 C 298.515 -5.25291 0.943663 0
M  V30 3125 O 298.738 -5.70004 -0.212426 0
M  V30 3126 O 297.672 -5.76638 1.72547 0
M  V30 3127 H 301.498 -2.45978 1.78125 0
M  V30 3128 H 299.083 -1.17033 0.928631 0
M  V30 3129 H 300.965 -4.21348 0.0663671 0
M  V30 3130 H 299.64 -3.18965 -0.551631 0
M  V30 3131 H 298.547 -3.29949 1.76309 0
M  V30 3132 H 299.88 -4.35035 2.30229 0
M  V30 3133 N 301.532 -0.945985 -1.26051 0
M  V30 3134 C 302.78 -0.594941 -1.93145 0
M  V30 3135 C 303.101 0.86953 -1.7454 0
M  V30 3136 O 302.371 1.61838 -1.10387 0
M  V30 3137 H 300.951 -0.217044 -0.714773 0
M  V30 3138 H 303.613 -1.20235 -1.53393 0
M  V30 3139 H 302.709 -0.816835 -3.01221 0
M  V30 3140 N 303.011 1.40521 -0.713556 0
M  V30 3141 C 304.259 2.00527 -0.251692 0
M  V30 3142 C 304.58 1.56857 1.15848 0
M  V30 3143 O 303.85 0.807127 1.785 0
M  V30 3144 H 302.43 0.741551 -0.0900646 0
M  V30 3145 H 305.092 1.71887 -0.918733 0
M  V30 3146 H 304.188 3.10813 -0.283192 0
M  V30 3147 N 304.489 0.459591 1.5075 0
M  V30 3148 C 305.436 -0.340524 2.28274 0
M  V30 3149 C 306.406 -0.997371 1.32822 0
M  V30 3150 O 307.591 -1.01202 1.61749 0
M  V30 3151 C 304.731 -1.42317 3.14388 0
M  V30 3152 C 303.844 -0.782251 4.24859 0
M  V30 3153 C 302.979 -1.84182 4.98247 0
M  V30 3154 C 302.018 -1.18053 6.00608 0
M  V30 3155 N 301.155 -2.18244 6.67319 0
M  V30 3156 H 305.995 0.326899 2.96202 0
M  V30 3157 H 303.532 0.173057 1.46078 0
M  V30 3158 H 305.49 -2.06241 3.62658 0
M  V30 3159 H 304.12 -2.05992 2.4853 0
M  V30 3160 H 303.172 -0.0307404 3.80388 0
M  V30 3161 H 304.484 -0.259663 4.98124 0
M  V30 3162 H 303.638 -2.55714 5.50177 0
M  V30 3163 H 302.377 -2.39819 4.24662 0
M  V30 3164 H 301.382 -0.450776 5.47949 0
M  V30 3165 H 302.607 -0.631202 6.7616 0
M  V30 3166 H 300.553 -2.72919 5.96533 0
M  V30 3167 H 300.47 -1.70938 7.36421 0
M  V30 3168 H 301.738 -2.89191 7.23871 0
M  V30 3169 N 305.967 -1.56429 0.191757 0
M  V30 3170 C 307.244 -1.89224 -0.495332 0
M  V30 3171 C 307.624 -1.10478 -1.79883 0
M  V30 3172 O 306.972 -0.204852 -2.2758 0
M  V30 3173 C 307.182 -3.41548 -0.717367 0
M  V30 3174 C 308.53 -4.11711 -1.03823 0
M  V30 3175 O 309.554 -3.4698 -0.805204 0
M  V30 3176 O 308.413 -5.2611 -1.47887 0
M  V30 3177 H 305.507 -0.785788 -0.25781 0
M  V30 3178 H 308.053 -1.68111 0.231721 0
M  V30 3179 H 306.825 -3.90772 0.203287 0
M  V30 3180 H 306.448 -3.68342 -1.497 0
M  V30 3181 N 307.445 0.0818655 -1.57387 0
M  V30 3182 C 308.673 0.796108 -1.9097 0
M  V30 3183 C 309.088 1.71626 -0.786757 0
M  V30 3184 O 308.445 1.80908 0.240513 0
M  V30 3185 C 308.496 1.59829 -3.24248 0
M  V30 3186 O 308.217 0.715131 -4.32224 0
M  V30 3187 C 309.718 2.41442 -3.7178 0
M  V30 3188 H 306.938 0.22691 -0.631469 0
M  V30 3189 H 309.482 0.0551439 -2.04426 0
M  V30 3190 H 307.637 2.29163 -3.12351 0
M  V30 3191 H 308.051 1.27205 -5.08841 0
M  V30 3192 H 309.525 2.932 -4.67694 0
M  V30 3193 H 310.002 3.2051 -3.00283 0
M  V30 3194 H 310.608 1.77283 -3.86589 0
M  V30 3195 N 308.923 1.53595 0.353017 0
M  V30 3196 C 310.163 1.72094 1.10286 0
M  V30 3197 C 310.527 0.469217 1.86178 0
M  V30 3198 O 311.728 0.531083 2.63501 0
M  V30 3199 C 309.999 2.94386 2.02661 0
M  V30 3200 S 311.558 3.33651 2.84996 0
M  V30 3201 H 308.376 0.605433 0.372789 0
M  V30 3202 H 310.978 1.91722 0.38248 0
M  V30 3203 H 309.682 3.83669 1.45691 0
M  V30 3204 H 309.213 2.77197 2.79152 0
M  V30 3205 H 311.228 2.86645 4.0503 0
M  V30 3206 N 310.401 -0.613514 1.45168 0
M  V30 3207 C 311.647 -1.37471 1.49096 0
M  V30 3208 C 311.98 -1.93765 0.129901 0
M  V30 3209 O 311.255 -1.74707 -0.854858 0
M  V30 3210 C 311.538 -2.52701 2.56542 0
M  V30 3211 C 311.391 -2.01643 4.0207 0
M  V30 3212 C 312.71 -3.54849 2.60327 0
M  V30 3213 H 309.829 -0.498502 0.54283 0
M  V30 3214 H 312.471 -0.692125 1.76945 0
M  V30 3215 H 310.621 -3.10931 2.32926 0
M  V30 3216 H 312.293 -1.48108 4.36877 0
M  V30 3217 H 310.536 -1.32688 4.13009 0
M  V30 3218 H 311.207 -2.84681 4.72928 0
M  V30 3219 H 313.683 -3.0645 2.81474 0
M  V30 3220 H 312.559 -4.32973 3.37381 0
M  V30 3221 H 312.82 -4.10079 1.6519 0
M  V30 3222 N 311.879 -1.3236 -0.855495 0
M  V30 3223 C 313.127 -1.22629 -1.60644 0
M  V30 3224 C 313.448 0.212136 -1.93843 0
M  V30 3225 O 312.718 1.13666 -1.59552 0
M  V30 3226 H 311.298 -0.450882 -0.595579 0
M  V30 3227 H 313.96 -1.65871 -1.02337 0
M  V30 3228 H 313.056 -1.80832 -2.54374 0
M  V30 3229 N 313.357 1.07166 -1.15556 0
M  V30 3230 C 314.634 1.76546 -0.842069 0
M  V30 3231 C 315.014 2.00453 0.661939 0
M  V30 3232 O 314.362 1.62452 1.60691 0
M  V30 3233 C 314.572 3.07266 -1.65495 0
M  V30 3234 C 315.92 3.81578 -1.86234 0
M  V30 3235 O 316.944 3.17083 -1.62287 0
M  V30 3236 O 315.803 4.97419 -2.26355 0
M  V30 3237 H 312.897 0.766756 -0.309862 0
M  V30 3238 H 315.443 1.13514 -1.26145 0
M  V30 3239 H 314.215 2.85494 -2.67598 0
M  V30 3240 H 313.838 3.7803 -1.23203 0
M  V30 3241 N 314.835 0.952656 1.25548 0
M  V30 3242 C 316.06 0.623025 1.97821 0
M  V30 3243 C 316.485 -0.7976 1.70352 0
M  V30 3244 O 315.843 -1.53905 0.958283 0
M  V30 3245 C 315.891 0.885532 3.49558 0
M  V30 3246 O 314.995 -0.0366641 4.12384 0
M  V30 3247 H 314.336 0.237082 0.620232 0
M  V30 3248 H 316.866 1.27871 1.59719 0
M  V30 3249 H 316.876 0.811009 3.99858 0
M  V30 3250 H 315.551 1.92094 3.6888 0
M  V30 3251 H 314.128 0.0898954 3.72792 0
M  V30 3252 N 316.313 -1.40141 0.720998 0
M  V30 3253 C 317.561 -2.0039 0.262323 0
M  V30 3254 C 317.882 -1.57469 -1.15015 0
M  V30 3255 O 317.152 -0.816582 -1.78069 0
M  V30 3256 H 315.732 -0.741063 0.093996 0
M  V30 3257 H 318.394 -1.71398 0.927835 0
M  V30 3258 H 317.49 -3.10658 0.299671 0
M  V30 3259 N 317.792 -0.46758 -1.50504 0
M  V30 3260 C 319.04 0.0884469 -2.01906 0
M  V30 3261 C 319.361 1.40532 -1.35188 0
M  V30 3262 O 318.631 1.89515 -0.496079 0
M  V30 3263 H 317.211 0.0356765 -0.746148 0
M  V30 3264 H 319.873 -0.6172 -1.84869 0
M  V30 3265 H 318.969 0.2425 -3.11156 0
M  V30 3266 N 319.27 1.56325 -0.20005 0
M  V30 3267 C 320.681 1.8408 0.31167 0
M  V30 3268 C 321.032 1.12087 1.61031 0
M  V30 3269 O 320.157 0.38332 2.12978 0
M  V30 3270 C 320.752 3.33932 0.57226 0
M  V30 3271 C 319.311 3.6208 1.02834 0
M  V30 3272 C 318.458 2.77186 0.079634 0
M  V30 3273 H 321.409 1.52939 -0.423729 0
M  V30 3274 H 321.43 3.52971 1.42096 0
M  V30 3275 H 320.942 3.86303 -0.37308 0
M  V30 3276 H 319.043 3.15147 1.98778 0
M  V30 3277 H 319.156 4.7023 0.917624 0
M  V30 3278 H 317.52 2.47951 0.582448 0
M  V30 3279 H 318.303 3.32347 -0.860238 0
M  V30 3280 N 320.748 -0.0735177 1.57428 0
M  V30 3281 C 321.678 -1.0879 2.06608 0
M  V30 3282 C 322.659 -1.40473 0.959237 0
M  V30 3283 O 323.844 -1.5013 1.23185 0
M  V30 3284 C 320.974 -2.40183 2.50857 0
M  V30 3285 C 319.928 -2.22858 3.65402 0
M  V30 3286 C 319.254 -3.59619 3.957 0
M  V30 3287 C 320.554 -1.65123 4.95511 0
M  V30 3288 H 322.248 -0.678673 2.91607 0
M  V30 3289 H 319.794 -0.325013 1.40284 0
M  V30 3290 H 321.747 -3.11437 2.83874 0
M  V30 3291 H 320.471 -2.83083 1.62885 0
M  V30 3292 H 319.13 -1.54045 3.32664 0
M  V30 3293 H 318.778 -4.00086 3.04861 0
M  V30 3294 H 318.478 -3.48866 4.72828 0
M  V30 3295 H 320.002 -4.32306 4.31212 0
M  V30 3296 H 321.416 -2.26241 5.26771 0
M  V30 3297 H 319.813 -1.65071 5.7695 0
M  V30 3298 H 320.883 -0.612559 4.81015 0
M  V30 3299 N 322.226 -1.5378 -0.344866 0
M  V30 3300 C 323.159 -1.7649 -1.4466 0
M  V30 3301 C 324.137 -0.613954 -1.50563 0
M  V30 3302 O 325.321 -0.84896 -1.683 0
M  V30 3303 C 322.448 -1.86235 -2.82903 0
M  V30 3304 C 321.494 -3.08375 -2.94631 0
M  V30 3305 S 322.327 -4.67457 -2.61236 0
M  V30 3306 C 323.483 -4.80079 -4.0159 0
M  V30 3307 H 323.716 -2.69661 -1.2518 0
M  V30 3308 H 321.249 -1.44632 -0.540455 0
M  V30 3309 H 323.207 -1.92535 -3.62547 0
M  V30 3310 H 321.868 -0.940786 -2.9968 0
M  V30 3311 H 321.061 -3.11865 -3.95925 0
M  V30 3312 H 320.663 -3.00294 -2.22934 0
M  V30 3313 H 322.955 -4.61407 -4.96094 0
M  V30 3314 H 323.898 -5.82168 -4.03095 0
M  V30 3315 H 324.306 -4.08544 -3.89554 0
M  V30 3316 N 323.704 0.605807 -1.45491 0
M  V30 3317 C 324.944 1.37606 -1.51142 0
M  V30 3318 C 325.308 1.91413 -0.150075 0
M  V30 3319 O 326.509 2.68677 -0.0812828 0
M  V30 3320 C 324.78 2.49197 -2.56195 0
M  V30 3321 S 326.339 3.36953 -2.81083 0
M  V30 3322 H 323.157 0.469118 -0.534275 0
M  V30 3323 H 325.759 0.698845 -1.82583 0
M  V30 3324 H 324.463 2.0802 -3.53773 0
M  V30 3325 H 323.994 3.21717 -2.26411 0
M  V30 3326 H 326.009 4.47395 -2.14598 0
M  V30 3327 N 325.182 1.32811 0.848464 0
M  V30 3328 C 326.459 1.14334 1.58704 0
M  V30 3329 C 326.839 -0.293948 2.09043 0
M  V30 3330 O 326.187 -1.29153 1.88499 0
M  V30 3331 C 326.397 2.17626 2.72837 0
M  V30 3332 C 327.745 2.51282 3.42261 0
M  V30 3333 O 328.769 2.16219 2.83068 0
M  V30 3334 O 327.628 3.11413 4.49093 0
M  V30 3335 H 324.722 0.441601 0.699226 0
M  V30 3336 H 327.268 1.44362 0.892053 0
M  V30 3337 H 326.04 3.14211 2.3321 0
M  V30 3338 H 325.663 1.88628 3.50008 0
M  V30 3339 N 326.66 -1.06551 1.16123 0
M  V30 3340 C 327.908 -1.78947 0.939267 0
M  V30 3341 C 328.229 -1.87532 -0.534476 0
M  V30 3342 O 327.499 -1.38211 -1.38833 0
M  V30 3343 H 326.079 -0.662807 0.344523 0
M  V30 3344 H 328.741 -1.28725 1.46342 0
M  V30 3345 H 327.837 -2.81117 1.35572 0
M  V30 3346 N 328.138 -0.959301 -1.25041 0
M  V30 3347 C 329.384 -0.617525 -1.9317 0
M  V30 3348 C 329.717 0.843981 -1.74902 0
M  V30 3349 O 328.992 1.60615 -1.09696 0
M  V30 3350 C 329.275 -0.982736 -3.46431 0
M  V30 3351 C 329.128 -2.50032 -3.73904 0
M  V30 3352 C 330.447 -0.511176 -4.37121 0
M  V30 3353 H 327.566 -0.22582 -0.701552 0
M  V30 3354 H 330.208 -1.19679 -1.4757 0
M  V30 3355 H 328.358 -0.489806 -3.854 0
M  V30 3356 H 330.03 -3.06737 -3.44544 0
M  V30 3357 H 328.273 -2.93598 -3.19348 0
M  V30 3358 H 328.944 -2.70635 -4.81103 0
M  V30 3359 H 331.42 -0.934075 -4.0548 0
M  V30 3360 H 330.296 -0.795361 -5.43107 0
M  V30 3361 H 330.557 0.588834 -4.38161 0
M  V30 3362 N 329.616 1.39756 -0.72842 0
M  V30 3363 C 330.546 2.33289 -0.0991354 0
M  V30 3364 C 331.527 1.53568 0.731489 0
M  V30 3365 O 332.712 1.81987 0.677807 0
M  V30 3366 C 329.842 3.3763 0.813834 0
M  V30 3367 C 328.796 4.2791 0.0878663 0
M  V30 3368 C 328.122 5.22894 1.11741 0
M  V30 3369 C 329.422 5.11314 -1.06563 0
M  V30 3370 H 331.116 2.86163 -0.880408 0
M  V30 3371 H 328.662 1.37591 -0.424819 0
M  V30 3372 H 330.615 4.0201 1.26355 0
M  V30 3373 H 329.339 2.83181 1.62715 0
M  V30 3374 H 327.998 3.65 -0.342159 0
M  V30 3375 H 327.646 4.64744 1.92412 0
M  V30 3376 H 327.346 5.84143 0.636477 0
M  V30 3377 H 328.87 5.90151 1.56697 0
M  V30 3378 H 330.284 5.69076 -0.694671 0
M  V30 3379 H 328.681 5.81671 -1.47577 0
M  V30 3380 H 329.751 4.46534 -1.89038 0
M  V30 3381 N 331.094 0.475555 1.50254 0
M  V30 3382 C 332.026 -0.352649 2.26471 0
M  V30 3383 C 333.039 -0.953165 1.3198 0
M  V30 3384 O 334.228 -0.840815 1.57457 0
M  V30 3385 C 331.328 -1.50902 3.0345 0
M  V30 3386 C 330.501 -1.02047 4.25329 0
M  V30 3387 C 329.56 -2.05142 4.84565 0
M  V30 3388 O 328.586 -1.63023 5.45355 0
M  V30 3389 N 329.788 -3.37987 4.71959 0
M  V30 3390 H 332.553 0.300767 2.98187 0
M  V30 3391 H 330.114 0.306598 1.5897 0
M  V30 3392 H 332.106 -2.19572 3.39956 0
M  V30 3393 H 330.676 -2.06705 2.34504 0
M  V30 3394 H 329.896 -0.159507 3.93877 0
M  V30 3395 H 331.184 -0.672061 5.04342 0
M  V30 3396 H 330.582 -3.74913 4.23623 0
M  V30 3397 H 329.139 -4.02443 5.12721 0
M  V30 3398 N 332.573 -1.56217 0.208337 0
M  V30 3399 C 333.821 -1.97558 -0.426076 0
M  V30 3400 C 334.142 -1.09683 -1.61229 0
M  V30 3401 O 333.412 -0.170956 -1.95153 0
M  V30 3402 H 331.992 -0.729575 -0.160405 0
M  V30 3403 H 334.654 -1.92606 0.298155 0
M  V30 3404 H 333.75 -3.02672 -0.761312 0
M  V30 3405 N 334.051 0.0651679 -1.57465 0
M  V30 3406 C 335.297 0.764193 -1.87851 0
M  V30 3407 C 335.63 1.76889 -0.801495 0
M  V30 3408 O 334.905 1.93594 0.187528 0
M  V30 3409 C 335.188 1.46625 -3.28897 0
M  V30 3410 C 335.041 0.477515 -4.47258 0
M  V30 3411 C 336.36 2.4095 -3.68281 0
M  V30 3412 H 333.479 0.276351 -0.683227 0
M  V30 3413 H 336.121 0.0272868 -1.8998 0
M  V30 3414 H 334.271 2.09438 -3.27212 0
M  V30 3415 H 335.943 -0.145922 -4.61069 0
M  V30 3416 H 334.186 -0.206576 -4.33308 0
M  V30 3417 H 334.857 1.0065 -5.42746 0
M  V30 3418 H 337.333 1.88209 -3.71102 0
M  V30 3419 H 336.209 2.87072 -4.67847 0
M  V30 3420 H 336.47 3.26049 -2.98571 0
M  V30 3421 N 335.529 1.53961 0.336706 0
M  V30 3422 C 336.757 1.75483 1.09605 0
M  V30 3423 C 337.172 0.4972 1.82136 0
M  V30 3424 O 336.529 -0.53149 1.74589 0
M  V30 3425 C 336.58 2.93943 2.10428 0
M  V30 3426 O 336.301 4.14842 1.40846 0
M  V30 3427 C 337.802 3.27571 2.98684 0
M  V30 3428 H 335.022 0.586166 0.326574 0
M  V30 3429 H 337.566 2.00808 0.38683 0
M  V30 3430 H 335.721 2.70929 2.76905 0
M  V30 3431 H 336.135 4.81383 2.08255 0
M  V30 3432 H 337.609 4.13791 3.6535 0
M  V30 3433 H 338.086 2.44168 3.65074 0
M  V30 3434 H 338.692 3.52615 2.37787 0
M  V30 3435 N 337.007 -0.598083 1.45811 0
M  V30 3436 C 338.232 -1.3881 1.54099 0
M  V30 3437 C 338.657 -1.8726 0.177578 0
M  V30 3438 O 338.015 -1.6069 -0.839541 0
M  V30 3439 C 338.063 -2.56217 2.53743 0
M  V30 3440 O 337.167 -3.5716 2.06182 0
M  V30 3441 H 336.508 -0.414024 0.519115 0
M  V30 3442 H 339.038 -0.726971 1.91249 0
M  V30 3443 H 339.048 -3.03337 2.72856 0
M  V30 3444 H 337.723 -2.20303 3.5276 0
M  V30 3445 H 336.3 -3.16624 1.96987 0
M  V30 3446 N 338.485 -1.33259 -0.841409 0
M  V30 3447 C 339.731 -1.25766 -1.59857 0
M  V30 3448 C 340.086 0.175602 -1.91597 0
M  V30 3449 O 339.379 1.117 -1.55672 0
M  V30 3450 C 339.573 -2.06381 -2.9179 0
M  V30 3451 C 339.402 -3.57401 -2.72937 0
M  V30 3452 C 338.172 -4.26718 -2.70628 0
M  V30 3453 C 340.37 -4.51786 -2.45753 0
M  V30 3454 N 338.352 -5.63705 -2.43125 0
M  V30 3455 C 339.723 -5.76643 -2.27777 0
M  V30 3456 C 341.778 -4.40898 -2.31329 0
M  V30 3457 C 340.481 -6.91842 -1.96841 0
M  V30 3458 C 342.507 -5.55911 -2.01786 0
M  V30 3459 C 341.869 -6.79776 -1.8462 0
M  V30 3460 H 337.968 -0.515406 -0.588117 0
M  V30 3461 H 340.552 -1.67772 -0.987955 0
M  V30 3462 H 338.723 -1.667 -3.50807 0
M  V30 3463 H 340.455 -1.90678 -3.56965 0
M  V30 3464 H 337.21 -3.78968 -2.84043 0
M  V30 3465 H 337.634 -6.35911 -2.32265 0
M  V30 3466 H 342.276 -3.45772 -2.43314 0
M  V30 3467 H 339.994 -7.86968 -1.83594 0
M  V30 3468 H 343.58 -5.49421 -1.91384 0
M  V30 3469 H 342.46 -7.67266 -1.62088 0
M  V30 3470 N 339.963 1.05934 -1.16686 0
M  V30 3471 C 341.211 1.78447 -0.948744 0
M  V30 3472 C 341.532 1.87813 0.524523 0
M  V30 3473 O 340.802 1.38945 1.38098 0
M  V30 3474 H 339.382 0.660971 -0.348033 0
M  V30 3475 H 342.044 1.27947 -1.47022 0
M  V30 3476 H 341.14 2.80394 -1.37061 0
M  V30 3477 N 341.441 0.965919 1.2453 0
M  V30 3478 C 342.671 0.643451 1.96324 0
M  V30 3479 C 343.079 -0.790927 1.71875 0
M  V30 3480 O 342.422 -1.54208 0.998273 0
M  V30 3481 C 342.484 0.836078 3.49643 0
M  V30 3482 C 342.148 2.24975 3.97788 0
M  V30 3483 C 343.145 3.22735 4.07601 0
M  V30 3484 C 340.83 2.57697 4.31158 0
M  V30 3485 C 342.824 4.51303 4.50116 0
M  V30 3486 C 340.511 3.86492 4.73357 0
M  V30 3487 C 341.509 4.83107 4.828 0
M  V30 3488 O 341.197 6.09605 5.24058 0
M  V30 3489 H 340.929 0.239223 0.632257 0
M  V30 3490 H 343.483 1.29587 1.59362 0
M  V30 3491 H 341.713 0.12649 3.86493 0
M  V30 3492 H 343.402 0.512965 4.02646 0
M  V30 3493 H 344.168 2.98783 3.82039 0
M  V30 3494 H 340.047 1.83216 4.23028 0
M  V30 3495 H 343.591 5.26716 4.57401 0
M  V30 3496 H 339.488 4.10245 4.98366 0
M  V30 3497 H 340.256 6.13146 5.42213 0
M  V30 3498 N 342.919 -1.39368 0.735821 0
M  V30 3499 C 344.165 -2.00794 0.284544 0
M  V30 3500 C 344.498 -1.58255 -1.12557 0
M  V30 3501 O 343.773 -0.811819 -1.76748 0
M  V30 3502 C 344.056 -3.58011 0.387337 0
M  V30 3503 C 343.909 -4.10566 1.83728 0
M  V30 3504 C 345.228 -4.395 -0.22975 0
M  V30 3505 H 342.347 -0.729501 0.104866 0
M  V30 3506 H 344.989 -1.65564 0.93213 0
M  V30 3507 H 343.139 -3.88154 -0.164006 0
M  V30 3508 H 344.811 -3.91139 2.44556 0
M  V30 3509 H 343.054 -3.64095 2.35833 0
M  V30 3510 H 343.725 -5.19702 1.86047 0
M  V30 3511 H 346.201 -4.15406 0.240257 0
M  V30 3512 H 345.077 -5.48752 -0.127485 0
M  V30 3513 H 345.338 -4.22062 -1.3159 0
M  V30 3514 N 344.397 -0.483516 -1.5 0
M  V30 3515 C 345.808 -0.0314176 -1.86674 0
M  V30 3516 C 346.159 1.37728 -1.39733 0
M  V30 3517 O 345.284 2.02327 -0.767635 0
M  V30 3518 C 345.879 -0.0502376 -3.38763 0
M  V30 3519 C 344.438 0.346442 -3.74802 0
M  V30 3520 C 343.585 -0.430366 -2.7394 0
M  V30 3521 H 346.536 -0.697182 -1.42566 0
M  V30 3522 H 346.557 0.749116 -3.73053 0
M  V30 3523 H 346.069 -1.07563 -3.72897 0
M  V30 3524 H 344.17 1.37572 -3.46273 0
M  V30 3525 H 344.283 0.0391486 -4.79084 0
M  V30 3526 H 342.647 0.117557 -2.54429 0
M  V30 3527 H 343.43 -1.4555 -3.10918 0
M  V30 3528 N 345.875 1.56104 -0.216619 0
M  V30 3529 C 347.115 2.00074 0.418322 0
M  V30 3530 C 347.479 1.10098 1.57297 0
M  V30 3531 O 348.68 1.43393 2.27359 0
M  V30 3532 C 346.951 3.47231 0.846477 0
M  V30 3533 S 348.51 4.13223 1.47622 0
M  V30 3534 H 345.328 0.698457 0.132962 0
M  V30 3535 H 347.93 1.92784 -0.324748 0
M  V30 3536 H 346.634 4.104 -0.0036319 0
M  V30 3537 H 346.165 3.58384 1.62248 0
M  V30 3538 H 348.18 4.12005 2.76526 0
M  V30 3539 N 347.353 -0.0568162 1.57498 0
M  V30 3540 C 348.601 -0.751617 1.87604 0
M  V30 3541 C 348.922 -1.77351 0.81066 0
M  V30 3542 O 348.192 -1.95254 -0.159018 0
M  V30 3543 H 346.772 -0.280583 0.692302 0
M  V30 3544 H 349.434 -0.0293483 1.94878 0
M  V30 3545 H 348.53 -1.25852 2.856 0
M  V30 3546 N 348.832 -1.54138 -0.328536 0
M  V30 3547 C 350.06 -1.76062 -1.08673 0
M  V30 3548 C 350.475 -0.506852 -1.81869 0
M  V30 3549 O 349.832 0.522223 -1.74869 0
M  V30 3550 C 349.883 -2.95054 -2.08866 0
M  V30 3551 O 349.604 -4.15583 -1.38644 0
M  V30 3552 C 351.105 -3.2915 -2.96943 0
M  V30 3553 H 348.325 -0.587889 -0.323461 0
M  V30 3554 H 350.869 -2.0101 -0.376175 0
M  V30 3555 H 349.024 -2.72394 -2.75464 0
M  V30 3556 H 349.438 -4.82481 -2.05699 0
M  V30 3557 H 350.912 -4.15723 -3.63151 0
M  V30 3558 H 351.389 -2.461 -3.63774 0
M  V30 3559 H 351.995 -3.53871 -2.35914 0
M  V30 3560 N 350.31 0.590341 -1.46126 0
M  V30 3561 C 351.721 1.17243 -1.45296 0
M  V30 3562 C 352.072 1.95281 -0.189723 0
M  V30 3563 O 351.197 2.04502 0.707674 0
M  V30 3564 C 351.792 2.13284 -2.6324 0
M  V30 3565 C 350.351 2.66832 -2.65476 0
M  V30 3566 C 349.498 1.42557 -2.3785 0
M  V30 3567 H 352.449 0.378692 -1.54116 0
M  V30 3568 H 352.47 2.96619 -2.38323 0
M  V30 3569 H 351.982 1.56459 -3.55165 0
M  V30 3570 H 350.083 3.27548 -1.77603 0
M  V30 3571 H 350.196 3.10088 -3.65215 0
M  V30 3572 H 348.56 1.72107 -1.87753 0
M  V30 3573 H 349.343 0.875741 -3.31942 0
M  V30 3574 N 351.788 1.33704 0.83433 0
M  V30 3575 C 352.736 1.24323 1.96587 0
M  V30 3576 C 353.73 0.143659 1.6879 0
M  V30 3577 O 354.936 0.30791 1.77347 0
M  V30 3578 H 351.311 0.385925 0.645419 0
M  V30 3579 H 353.282 2.19978 2.01624 0
M  V30 3580 C 352.031 1.00394 3.32891 0
M  V30 3581 H 351.354 1.84231 3.54822 0
M  V30 3582 H 352.794 0.97862 4.12552 0
M  V30 3583 C 351.253 -0.293047 3.35623 0
M  V30 3584 O 351.783 -1.29823 3.80143 0
M  V30 3585 N 349.989 -0.322174 2.88809 0
M  V30 3586 H 349.536 0.496379 2.52772 0
M  V30 3587 H 349.494 -1.18977 2.91019 0
M  V30 3588 N 353.266 -1.05314 1.17247 0
M  V30 3589 C 354.213 -2.13031 0.888058 0
M  V30 3590 C 355.183 -1.65253 -0.167537 0
M  V30 3591 O 356.368 -1.90775 -0.0305974 0
M  V30 3592 C 353.508 -3.42702 0.406147 0
M  V30 3593 C 352.621 -4.04161 1.52572 0
M  V30 3594 C 351.756 -5.21744 0.997808 0
M  V30 3595 C 350.795 -5.75207 2.09291 0
M  V30 3596 N 349.932 -6.84094 1.57986 0
M  V30 3597 H 354.772 -2.36698 1.81048 0
M  V30 3598 H 352.309 -1.16121 0.903013 0
M  V30 3599 H 354.267 -4.17059 0.108305 0
M  V30 3600 H 352.897 -3.19222 -0.479313 0
M  V30 3601 H 351.949 -3.27253 1.93931 0
M  V30 3602 H 353.261 -4.39881 2.35172 0
M  V30 3603 H 352.415 -6.03168 0.653739 0
M  V30 3604 H 351.154 -4.87495 0.141232 0
M  V30 3605 H 350.159 -4.92414 2.44557 0
M  V30 3606 H 351.384 -6.11505 2.95362 0
M  V30 3607 H 349.33 -6.51745 0.74598 0
M  V30 3608 H 349.247 -7.18811 2.34195 0
M  V30 3609 H 350.515 -7.69172 1.26468 0
M  V30 3610 N 354.744 -0.972509 -1.24016 0
M  V30 3611 C 356.155 -0.67517 -1.74064 0
M  V30 3612 C 356.506 0.808939 -1.78747 0
M  V30 3613 O 355.631 1.63286 -1.42009 0
M  V30 3614 C 356.226 -1.21889 -3.16115 0
M  V30 3615 C 354.785 -0.971358 -3.6365 0
M  V30 3616 C 353.932 -1.35134 -2.42145 0
M  V30 3617 H 356.883 -1.14727 -1.09651 0
M  V30 3618 H 356.904 -0.587489 -3.75937 0
M  V30 3619 H 356.416 -2.29906 -3.12674 0
M  V30 3620 H 354.517 0.0930686 -3.72484 0
M  V30 3621 H 354.63 -1.62039 -4.50866 0
M  V30 3622 H 352.994 -0.769751 -2.4279 0
M  V30 3623 H 353.777 -2.4411 -2.41381 0
M  V30 3624 N 356.222 1.38976 -0.743202 0
M  V30 3625 C 357.447 2.05161 -0.303936 0
M  V30 3626 C 357.872 1.55677 1.05576 0
M  V30 3627 O 357.23 0.704131 1.67068 0
M  V30 3628 C 357.278 3.59138 -0.324373 0
M  V30 3629 O 356.382 4.06668 0.685204 0
M  V30 3630 H 355.723 0.649815 -0.136518 0
M  V30 3631 H 358.253 1.77852 -1.01142 0
M  V30 3632 H 358.263 4.07639 -0.171618 0
M  V30 3633 H 356.938 3.94515 -1.31647 0
M  V30 3634 H 355.515 3.69561 0.497913 0
M  V30 3635 N 357.7 0.491464 1.49741 0
M  V30 3636 C 358.946 -0.0565092 2.02721 0
M  V30 3637 C 359.279 -1.37522 1.37118 0
M  V30 3638 O 358.554 -1.87866 0.503645 0
M  V30 3639 C 358.837 -0.219051 3.59433 0
M  V30 3640 C 358.69 1.12211 4.35579 0
M  V30 3641 C 360.009 -0.964157 4.29409 0
M  V30 3642 H 357.128 -0.0190627 0.736753 0
M  V30 3643 H 359.77 0.641021 1.7886 0
M  V30 3644 H 357.92 -0.813165 3.79895 0
M  V30 3645 H 359.592 1.75437 4.26637 0
M  V30 3646 H 357.835 1.71377 3.98513 0
M  V30 3647 H 358.506 0.961794 5.43556 0
M  V30 3648 H 360.982 -0.460378 4.13545 0
M  V30 3649 H 359.858 -1.04671 5.38828 0
M  V30 3650 H 360.119 -2.00563 3.93988 0
M  V30 3651 N 359.178 -1.55987 0.224894 0
M  V30 3652 C 360.141 -2.19178 -0.670348 0
M  V30 3653 C 361.141 -1.15461 -1.11917 0
M  V30 3654 O 362.331 -1.40675 -1.02743 0
M  V30 3655 C 359.463 -2.81777 -1.9187 0
M  V30 3656 H 360.656 -2.99662 -0.119364 0
M  V30 3657 H 358.209 -1.5628 -0.0247128 0
M  V30 3658 H 358.944 -2.05172 -2.51147 0
M  V30 3659 H 358.729 -3.57732 -1.60531 0
M  V30 3660 H 360.219 -3.30205 -2.55645 0
M  V30 3661 N 360.656 0.0484629 -1.57525 0
M  V30 3662 C 361.902 0.744226 -1.88651 0
M  V30 3663 C 362.235 1.76029 -0.820212 0
M  V30 3664 O 361.51 1.93782 0.166985 0
M  V30 3665 C 361.793 1.43128 -3.30434 0
M  V30 3666 C 361.646 0.43005 -4.47739 0
M  V30 3667 C 362.965 2.37031 -3.70816 0
M  V30 3668 H 360.084 0.269089 -0.68612 0
M  V30 3669 H 362.726 0.00713532 -1.89999 0
M  V30 3670 H 360.876 2.05956 -3.29415 0
M  V30 3671 H 362.548 -0.194816 -4.60888 0
M  V30 3672 H 360.791 -0.252522 -4.33064 0
M  V30 3673 H 361.462 0.948874 -5.43783 0
M  V30 3674 H 363.938 1.84263 -3.73077 0
M  V30 3675 H 362.814 2.82094 -4.70865 0
M  V30 3676 H 363.075 3.22864 -3.02012 0
M  V30 3677 N 362.134 1.5431 0.320358 0
M  V30 3678 C 363.55 1.45091 0.664889 0
M  V30 3679 C 363.75 0.626382 1.91517 0
M  V30 3680 O 362.806 0.126443 2.52183 0
M  V30 3681 C 364.119 2.88848 0.83591 0
M  V30 3682 C 365.667 2.9877 0.933046 0
M  V30 3683 C 366.142 4.43683 1.13621 0
M  V30 3684 N 367.633 4.47309 1.20287 0
M  V30 3685 C 368.368 5.56595 1.37801 0
M  V30 3686 N 367.864 6.75844 1.52338 0
M  V30 3687 N 369.657 5.44248 1.40535 0
M  V30 3688 H 361.808 2.06398 -0.501374 0
M  V30 3689 H 364.071 0.933963 -0.162534 0
M  V30 3690 H 363.777 3.51698 -0.0116092 0
M  V30 3691 H 363.651 3.35148 1.73078 0
M  V30 3692 H 366.038 2.36045 1.77107 0
M  V30 3693 H 366.119 2.55796 0.0145782 0
M  V30 3694 H 365.763 5.06995 0.303032 0
M  V30 3695 H 365.693 4.84269 2.0686 0
M  V30 3696 H 368.184 3.61388 1.10485 0
M  V30 3697 H 368.497 7.54892 1.65403 0
M  V30 3698 H 366.842 6.78746 1.4943 0
M  V30 3699 H 370.033 4.50038 1.28777 0
M  V30 3700 H 370.206 6.29473 1.53842 0
M  V30 3701 N 363.613 -0.582584 1.46437 0
M  V30 3702 C 364.859 -1.34278 1.51978 0
M  V30 3703 C 365.192 -1.93446 0.170973 0
M  V30 3704 O 364.467 -1.76481 -0.817608 0
M  V30 3705 C 364.75 -2.47203 2.61845 0
M  V30 3706 C 364.603 -1.93069 4.06257 0
M  V30 3707 C 365.922 -3.49247 2.67795 0
M  V30 3708 H 363.041 -0.486876 0.553282 0
M  V30 3709 H 365.683 -0.654437 1.78374 0
M  V30 3710 H 363.833 -3.0592 2.39469 0
M  V30 3711 H 365.505 -1.38808 4.3992 0
M  V30 3712 H 363.748 -1.23898 4.1573 0
M  V30 3713 H 364.419 -2.74586 4.7886 0
M  V30 3714 H 366.895 -3.00411 2.8791 0
M  V30 3715 H 365.771 -4.25719 3.46489 0
M  V30 3716 H 366.032 -4.06482 1.73852 0
M  V30 3717 N 365.091 -1.34144 -0.827227 0
M  V30 3718 C 366.021 -1.28005 -1.95287 0
M  V30 3719 C 367.002 -0.158321 -1.69362 0
M  V30 3720 O 368.187 -0.349987 -1.9102 0
M  V30 3721 C 365.317 -1.03036 -3.31664 0
M  V30 3722 C 364.271 -2.11628 -3.72019 0
M  V30 3723 C 363.597 -1.71854 -5.0633 0
M  V30 3724 C 364.897 -3.53417 -3.8457 0
M  V30 3725 H 366.591 -2.22187 -2.00682 0
M  V30 3726 H 364.137 -1.0696 -0.964135 0
M  V30 3727 H 366.09 -0.973863 -4.09993 0
M  V30 3728 H 364.814 -0.0529391 -3.26557 0
M  V30 3729 H 363.473 -2.16339 -2.95961 0
M  V30 3730 H 363.121 -0.727841 -4.97706 0
M  V30 3731 H 362.821 -2.44531 -5.34302 0
M  V30 3732 H 364.345 -1.67692 -5.87122 0
M  V30 3733 H 365.759 -3.51142 -4.5318 0
M  V30 3734 H 364.156 -4.24679 -4.2399 0
M  V30 3735 H 365.226 -3.91072 -2.86689 0
M  V30 3736 N 366.569 1.04691 -1.17803 0
M  V30 3737 C 367.794 1.81984 -0.994813 0
M  V30 3738 C 368.219 1.82586 0.452112 0
M  V30 3739 O 367.577 1.23854 1.324 0
M  V30 3740 C 367.625 3.2575 -1.54659 0
M  V30 3741 O 366.729 4.05267 -0.763728 0
M  V30 3742 H 366.07 0.562483 -0.352857 0
M  V30 3743 H 368.6 1.3189 -1.56417 0
M  V30 3744 H 368.61 3.76541 -1.57102 0
M  V30 3745 H 367.285 3.24627 -2.59981 0
M  V30 3746 H 365.862 3.63972 -0.811108 0
M  V30 3747 N 368.047 0.979072 1.23499 0
M  V30 3748 C 369.277 0.664237 1.95631 0
M  V30 3749 C 369.685 -0.772653 1.72704 0
M  V30 3750 O 369.028 -1.53141 1.01457 0
M  V30 3751 C 369.09 0.873115 3.48736 0
M  V30 3752 C 368.754 2.29182 3.95379 0
M  V30 3753 C 369.751 3.2704 4.04155 0
M  V30 3754 C 367.436 2.62256 4.28401 0
M  V30 3755 C 369.43 4.56052 4.45304 0
M  V30 3756 C 367.117 3.91491 4.69231 0
M  V30 3757 C 368.115 4.88201 4.77649 0
M  V30 3758 O 367.803 6.15129 5.17563 0
M  V30 3759 H 367.535 0.245915 0.629684 0
M  V30 3760 H 370.089 1.3127 1.57979 0
M  V30 3761 H 368.319 0.167476 3.86337 0
M  V30 3762 H 370.008 0.555642 4.02079 0
M  V30 3763 H 370.774 3.02819 3.78848 0
M  V30 3764 H 366.653 1.87692 4.21061 0
M  V30 3765 H 370.197 5.31538 4.51789 0
M  V30 3766 H 366.094 4.15508 4.93987 0
M  V30 3767 H 366.862 6.18862 5.35679 0
M  V30 3768 N 369.525 -1.3858 0.750561 0
M  V30 3769 C 370.771 -2.00481 0.305825 0
M  V30 3770 C 371.104 -1.5944 -1.10872 0
M  V30 3771 O 370.379 -0.83052 -1.75877 0
M  V30 3772 C 370.662 -3.5758 0.425287 0
M  V30 3773 C 370.515 -4.08594 1.88072 0
M  V30 3774 C 371.834 -4.39719 -0.183122 0
M  V30 3775 H 368.953 -0.728348 0.112598 0
M  V30 3776 H 371.595 -1.64566 0.949638 0
M  V30 3777 H 369.745 -3.88306 -0.122828 0
M  V30 3778 H 371.417 -3.88523 2.48691 0
M  V30 3779 H 369.66 -3.61574 2.39681 0
M  V30 3780 H 370.331 -5.177 1.91548 0
M  V30 3781 H 372.807 -4.15128 0.284303 0
M  V30 3782 H 371.683 -5.48856 -0.0692757 0
M  V30 3783 H 371.944 -4.23434 -1.27106 0
M  V30 3784 N 371.003 -0.499398 -1.49478 0
M  V30 3785 C 371.95 0.279881 -2.29097 0
M  V30 3786 C 372.92 0.961805 -1.3542 0
M  V30 3787 O 374.105 0.968777 -1.64376 0
M  V30 3788 C 371.245 1.33932 -3.18051 0
M  V30 3789 C 370.358 0.669333 -4.26783 0
M  V30 3790 C 369.493 1.70907 -5.02955 0
M  V30 3791 C 368.532 1.02087 -6.03527 0
M  V30 3792 N 367.669 2.00474 -6.7287 0
M  V30 3793 H 372.509 -0.405317 -2.95231 0
M  V30 3794 H 370.046 -0.211726 -1.45568 0
M  V30 3795 H 372.004 1.96553 -3.67998 0
M  V30 3796 H 370.634 1.9933 -2.53904 0
M  V30 3797 H 369.686 -0.0701234 -3.80335 0
M  V30 3798 H 370.998 0.127503 -4.98637 0
M  V30 3799 H 370.152 2.41037 -5.56764 0
M  V30 3800 H 368.891 2.28476 -4.30871 0
M  V30 3801 H 367.896 0.305338 -5.48951 0
M  V30 3802 H 369.121 0.451708 -6.77596 0
M  V30 3803 H 367.067 2.57007 -6.03559 0
M  V30 3804 H 366.984 1.51353 -7.40694 0
M  V30 3805 H 368.252 2.69897 -7.31284 0
M  V30 3806 N 372.481 1.55866 -0.233164 0
M  V30 3807 C 373.727 1.99643 0.389148 0
M  V30 3808 C 374.082 1.11836 1.56558 0
M  V30 3809 O 373.375 0.170848 1.90837 0
M  V30 3810 C 373.569 3.46856 0.861724 0
M  V30 3811 C 373.398 4.48904 -0.267376 0
M  V30 3812 C 372.168 4.99888 -0.737577 0
M  V30 3813 C 374.366 5.02624 -1.08966 0
M  V30 3814 N 372.348 5.8566 -1.84052 0
M  V30 3815 C 373.719 5.85434 -2.04125 0
M  V30 3816 C 375.774 4.84959 -1.12779 0
M  V30 3817 C 374.477 6.52466 -3.02789 0
M  V30 3818 C 376.503 5.52759 -2.10266 0
M  V30 3819 C 375.865 6.35346 -3.04162 0
M  V30 3820 H 371.964 0.774402 0.108742 0
M  V30 3821 H 374.548 1.91572 -0.347596 0
M  V30 3822 H 372.719 3.55352 1.5678 0
M  V30 3823 H 374.451 3.77531 1.45783 0
M  V30 3824 H 371.206 4.7249 -0.324122 0
M  V30 3825 H 371.63 6.33246 -2.39434 0
M  V30 3826 H 376.272 4.20751 -0.415749 0
M  V30 3827 H 373.99 7.15849 -3.74948 0
M  V30 3828 H 377.576 5.41051 -2.13905 0
M  V30 3829 H 376.456 6.86883 -3.78366 0
M  V30 3830 N 373.959 -0.0401083 1.57549 0
M  V30 3831 C 375.208 -0.732108 1.87944 0
M  V30 3832 C 375.521 -1.77107 0.830206 0
M  V30 3833 O 376.727 -2.51488 1.02302 0
M  V30 3834 C 375.183 -1.35315 3.33494 0
M  V30 3835 C 374.791 -0.351105 4.46622 0
M  V30 3836 C 376.535 -2.02566 3.73051 0
M  V30 3837 C 374.442 -0.979859 5.83226 0
M  V30 3838 H 373.372 -0.277188 0.701201 0
M  V30 3839 H 376.023 0.0138501 1.83495 0
M  V30 3840 H 374.405 -2.14844 3.32653 0
M  V30 3841 H 375.579 0.416674 4.58912 0
M  V30 3842 H 373.894 0.218708 4.15825 0
M  V30 3843 H 376.491 -2.50441 4.72423 0
M  V30 3844 H 376.834 -2.83904 3.04474 0
M  V30 3845 H 377.367 -1.29827 3.76018 0
M  V30 3846 H 374.106 -0.206135 6.55176 0
M  V30 3847 H 373.626 -1.71774 5.74677 0
M  V30 3848 H 375.305 -1.49046 6.29599 0
M  V30 3849 N 375.437 -1.54477 -0.31217 0
M  V30 3850 C 376.347 -1.87695 -1.4074 0
M  V30 3851 C 377.363 -0.769975 -1.56036 0
M  V30 3852 O 378.539 -1.06537 -1.70915 0
M  V30 3853 C 375.604 -2.10755 -2.75287 0
M  V30 3854 C 374.665 -3.34514 -2.69071 0
M  V30 3855 C 373.898 -3.56465 -3.97201 0
M  V30 3856 O 374.121 -2.81637 -4.96021 0
M  V30 3857 O 373.055 -4.49964 -3.9977 0
M  V30 3858 H 376.881 -2.80849 -1.15574 0
M  V30 3859 H 374.466 -1.40526 -0.507228 0
M  V30 3860 H 376.348 -2.27188 -3.54913 0
M  V30 3861 H 375.023 -1.20788 -3.0032 0
M  V30 3862 H 373.93 -3.23456 -1.87955 0
M  V30 3863 H 375.263 -4.24575 -2.48992 0
M  V30 3864 N 376.915 0.57481 -1.46744 0
M  V30 3865 C 378.192 1.3352 -1.4294 0
M  V30 3866 C 378.572 2.10775 -0.117009 0
M  V30 3867 O 377.92 2.09966 0.901474 0
M  V30 3868 C 378.13 2.25456 -2.66403 0
M  V30 3869 C 379.478 2.87035 -3.12883 0
M  V30 3870 O 380.502 2.35766 -2.67007 0
M  V30 3871 O 379.361 3.80179 -3.92589 0
M  V30 3872 H 376.455 0.600318 -0.568812 0
M  V30 3873 H 379.001 0.595171 -1.58921 0
M  V30 3874 H 377.773 1.67851 -3.53471 0
M  V30 3875 H 377.396 3.06785 -2.52921 0
M  V30 3876 N 378.394 1.34581 0.820102 0
M  V30 3877 C 379.622 1.3018 1.60813 0
M  V30 3878 C 380.037 -0.123551 1.88395 0
M  V30 3879 O 379.394 -1.07148 1.47735 0
M  V30 3880 C 379.445 2.09312 2.94739 0
M  V30 3881 O 379.166 3.46288 2.68358 0
M  V30 3882 C 380.667 2.1234 3.89136 0
M  V30 3883 H 377.887 0.447726 0.499782 0
M  V30 3884 H 380.431 1.77237 1.02017 0
M  V30 3885 H 378.586 1.65889 3.50085 0
M  V30 3886 H 379 3.87227 3.53774 0
M  V30 3887 H 380.474 2.72126 4.80262 0
M  V30 3888 H 380.951 1.11854 4.24718 0
M  V30 3889 H 381.557 2.55864 3.39726 0
M  V30 3890 N 379.872 -1.04064 1.18357 0
M  V30 3891 C 381.121 -1.76662 0.973313 0
M  V30 3892 C 381.434 -1.89154 -0.497991 0
M  V30 3893 O 382.64 -2.58606 -0.826762 0
M  V30 3894 C 381.096 -3.17624 1.69242 0
M  V30 3895 C 380.704 -3.13225 3.20303 0
M  V30 3896 C 382.448 -3.946 1.56497 0
M  V30 3897 C 380.355 -4.49046 3.84853 0
M  V30 3898 H 379.285 -0.662214 0.36054 0
M  V30 3899 H 381.936 -1.16553 1.41731 0
M  V30 3900 H 380.318 -3.78129 1.1762 0
M  V30 3901 H 381.492 -2.62172 3.78949 0
M  V30 3902 H 379.807 -2.49749 3.33189 0
M  V30 3903 H 382.404 -4.95042 2.02084 0
M  V30 3904 H 382.747 -4.13074 0.517243 0
M  V30 3905 H 383.28 -3.4067 2.05399 0
M  V30 3906 H 380.019 -4.35777 4.89672 0
M  V30 3907 H 379.539 -5.00203 3.30994 0
M  V30 3908 H 381.218 -5.17961 3.87718 0
M  V30 3909 N 381.35 -0.985608 -1.22978 0
M  V30 3910 C 382.313 -0.535071 -2.22867 0
M  V30 3911 C 383.313 0.378123 -1.56291 0
M  V30 3912 O 384.503 0.171092 -1.73358 0
M  V30 3913 C 381.635 0.222702 -3.40172 0
M  V30 3914 H 382.828 -1.41835 -2.6424 0
M  V30 3915 H 380.381 -0.772042 -1.35901 0
M  V30 3916 H 381.116 1.12229 -3.04262 0
M  V30 3917 H 380.901 -0.43288 -3.89703 0
M  V30 3918 H 382.391 0.526335 -4.1427 0
M  V30 3919 N 382.828 1.3818 -0.7579 0
M  V30 3920 C 383.738 2.3421 -0.135247 0
M  V30 3921 C 384.754 1.59487 0.695683 0
M  V30 3922 O 385.93 1.91657 0.618832 0
M  V30 3923 C 382.995 3.3862 0.744139 0
M  V30 3924 C 382.056 4.2918 -0.101658 0
M  V30 3925 C 381.289 5.28603 0.735851 0
M  V30 3926 O 381.512 5.35166 1.97366 0
M  V30 3927 O 380.446 6.01707 0.152372 0
M  V30 3928 H 384.272 2.8916 -0.928436 0
M  V30 3929 H 381.857 1.40101 -0.518855 0
M  V30 3930 H 383.739 4.02539 1.2466 0
M  V30 3931 H 382.414 2.86019 1.51575 0
M  V30 3932 H 381.321 3.68407 -0.650167 0
M  V30 3933 H 382.654 4.85048 -0.836024 0
M  V30 3934 N 384.306 0.507319 1.49211 0
M  V30 3935 C 385.254 -0.281364 2.30892 0
M  V30 3936 C 386.248 -0.95687 1.39787 0
M  V30 3937 O 387.454 -0.883838 1.56807 0
M  V30 3938 H 383.829 -0.109597 0.743971 0
M  V30 3939 H 385.8 0.42744 2.95323 0
M  V30 3940 C 384.549 -1.32918 3.21291 0
M  V30 3941 H 383.872 -0.818799 3.91326 0
M  V30 3942 H 385.312 -1.85288 3.81372 0
M  V30 3943 C 383.771 -2.35074 2.41333 0
M  V30 3944 O 384.301 -3.4108 2.12197 0
M  V30 3945 N 382.507 -2.07705 2.03241 0
M  V30 3946 H 382.054 -1.2152 2.27136 0
M  V30 3947 H 382.012 -2.76283 1.50051 0
M  V30 3948 N 385.784 -1.5574 0.241426 0
M  V30 3949 C 387.009 -2.0366 -0.392111 0
M  V30 3950 C 387.434 -1.11969 -1.51144 0
M  V30 3951 O 386.792 -0.111594 -1.80956 0
M  V30 3952 C 386.84 -3.49638 -0.882371 0
M  V30 3953 O 385.944 -3.6108 -1.99235 0
M  V30 3954 H 385.285 -0.658379 -0.0862122 0
M  V30 3955 H 387.815 -2.01302 0.365881 0
M  V30 3956 H 387.825 -3.90351 -1.18702 0
M  V30 3957 H 386.5 -4.15852 -0.0632361 0
M  V30 3958 H 385.077 -3.32262 -1.69282 0
M  V30 3959 O 387.301 -0.105854 -1.61153 0
M  V30 3960 H 387.992 0.494986 -1.87269 0
M  V30 END ATOM
M  V30 BEGIN BOND
M  V30 END BOND
M  V30 END CTAB
M  END
$$$$
