drugbank_target|P42574 Caspase-3 (DB00282; DB00945; DB01017; DB03124; DB05408; DB06255; DB06862; DB07696; DB08213; DB08229; DB08251; DB08497; DB08498; DB08499; DB13751)
 OpenBabel12092119483D

  0  0  0     0  0            999 V3000
M  V30 BEGIN CTAB
M  V30 COUNTS 4382 4425 0 0 0
M  V30 BEGIN ATOM
M  V30 1 H -0.908 1.98254 -0.117106 0
M  V30 2 N 0 1.576 0 0
M  V30 3 C 0.933 2.03868 1.02534 0
M  V30 4 C 1.911 0.928543 1.3348 0
M  V30 5 O 3.095 1.19667 1.45644 0
M  V30 6 C 0.222 2.43627 2.35294 0
M  V30 7 C -0.732 3.65373 2.2001 0
M  V30 8 S 0.101 5.13292 1.52614 0
M  V30 9 C 1.257 5.56322 2.86805 0
M  V30 10 H 1.49 2.90518 0.631377 0
M  V30 11 H -0.977 1.52953 0.210867 0
M  V30 12 H 0.981 2.67203 3.11629 0
M  V30 13 H -0.358 1.57376 2.7183 0
M  V30 14 H -1.165 3.90944 3.18086 0
M  V30 15 H -1.563 3.418 1.51819 0
M  V30 16 H 0.729 5.58782 3.83104 0
M  V30 17 H 1.672 6.56266 2.65933 0
M  V30 18 H 2.08 4.83886 2.90714 0
M  V30 19 N 1.4781 -0.272755 1.55222 0
M  V30 20 C 2.3881 -1.35918 1.91216 0
M  V30 21 C 3.4041 -1.54026 0.809436 0
M  V30 22 O 4.5801 -1.68148 1.10852 0
M  V30 23 C 1.6451 -2.69834 2.17693 0
M  V30 24 C 0.7061 -2.6047 3.41253 0
M  V30 25 C -0.0609 -3.88 3.66458 0
M  V30 26 O 0.1621 -4.88693 2.94169 0
M  V30 27 O -0.9039 -3.88189 4.59992 0
M  V30 28 H 2.9221 -1.0839 2.83699 0
M  V30 29 H 0.5071 -0.471301 1.41771 0
M  V30 30 H 2.3891 -3.49017 2.36147 0
M  V30 31 H 1.0641 -2.97148 1.28392 0
M  V30 32 H -0.0289 -1.79663 3.28134 0
M  V30 33 H 1.3041 -2.38106 4.30774 0
M  V30 34 N 2.9562 -1.48159 -0.537278 0
M  V30 35 C 3.9042 -1.62573 -1.66352 0
M  V30 36 C 4.8982 -0.492366 -1.62087 0
M  V30 37 O 6.1042 -0.670847 -1.67032 0
M  V30 38 H 2.4792 -0.511992 -0.550789 0
M  V30 39 H 4.4502 -2.57176 -1.51337 0
M  V30 40 C 3.1992 -1.67583 -3.04649 0
M  V30 41 H 2.5222 -2.54151 -3.08622 0
M  V30 42 H 3.9622 -1.81713 -3.83088 0
M  V30 43 C 2.4212 -0.413039 -3.34358 0
M  V30 44 O 2.9512 0.477259 -3.98855 0
M  V30 45 N 1.1572 -0.286961 -2.8918 0
M  V30 46 H 0.7042 -1.01241 -2.36871 0
M  V30 47 H 0.6622 0.556963 -3.09427 0
M  V30 48 N 4.4343 0.785586 -1.36625 0
M  V30 49 C 5.6623 1.57448 -1.3423 0
M  V30 50 C 6.0773 1.88649 0.0755653 0
M  V30 51 O 5.4343 1.50414 1.03354 0
M  V30 52 C 5.4853 2.89316 -2.16745 0
M  V30 53 O 5.2063 2.59459 -3.53005 0
M  V30 54 C 6.7073 3.83606 -2.22174 0
M  V30 55 H 3.9273 0.488226 -0.4603 0
M  V30 56 H 6.4713 0.974733 -1.79775 0
M  V30 57 H 4.6263 3.4575 -1.74745 0
M  V30 58 H 5.0403 3.43804 -3.96105 0
M  V30 59 H 6.5143 4.73181 -2.8426 0
M  V30 60 H 6.9913 4.21734 -1.22627 0
M  V30 61 H 7.5973 3.33104 -2.64427 0
M  V30 62 N 5.9124 1.20967 1.01018 0
M  V30 63 C 6.8224 0.980157 2.13143 0
M  V30 64 C 7.8384 -0.0660665 1.73875 0
M  V30 65 O 9.0144 0.122821 2.01025 0
M  V30 66 C 6.0794 0.54216 3.42435 0
M  V30 67 C 5.1404 1.65999 3.95908 0
M  V30 68 C 4.3734 1.2428 5.19028 0
M  V30 69 O 4.5964 0.114196 5.70286 0
M  V30 70 O 3.5304 2.05271 5.65816 0
M  V30 71 H 7.3564 1.91913 2.35379 0
M  V30 72 H 4.9414 0.994099 1.11526 0
M  V30 73 H 6.8234 0.30744 4.20277 0
M  V30 74 H 5.4984 -0.36815 3.216 0
M  V30 75 H 4.4054 1.94906 3.19316 0
M  V30 76 H 5.7384 2.54753 4.21143 0
M  V30 77 N 7.3905 -1.2043 1.01659 0
M  V30 78 C 8.3385 -2.25249 0.580143 0
M  V30 79 C 9.3325 -1.65057 -0.381115 0
M  V30 80 O 10.5385 -1.78241 -0.251039 0
M  V30 81 H 6.9135 -0.732695 0.169299 0
M  V30 82 H 8.8845 -2.59389 1.47512 0
M  V30 83 C 7.6335 -3.47638 -0.065788 0
M  V30 84 H 6.9565 -3.94233 0.664874 0
M  V30 85 H 8.3965 -4.2268 -0.334282 0
M  V30 86 C 6.8555 -3.10447 -1.3086 0
M  V30 87 O 7.3855 -3.21981 -2.4019 0
M  V30 88 N 5.5915 -2.64996 -1.1927 0
M  V30 89 H 5.1385 -2.55811 -0.303064 0
M  V30 90 H 5.0965 -2.40482 -2.02523 0
M  V30 91 N 8.8686 -0.792821 -1.36206 0
M  V30 92 C 10.0936 -0.377701 -2.03932 0
M  V30 93 C 10.5186 0.998947 -1.59382 0
M  V30 94 O 9.8766 1.64421 -0.763903 0
M  V30 95 C 9.9246 -0.453635 -3.57735 0
M  V30 96 O 9.0286 0.538151 -4.08874 0
M  V30 97 H 8.3696 -0.159855 -0.644471 0
M  V30 98 H 10.8996 -1.07488 -1.7409 0
M  V30 99 H 10.9096 -0.318464 -4.06755 0
M  V30 100 H 9.5846 -1.45784 -3.89512 0
M  V30 101 H 8.1616 0.364359 -3.71116 0
M  V30 102 N 10.3467 1.47872 -0.545128 0
M  V30 103 C 11.5927 2.02793 -0.0166104 0
M  V30 104 C 11.9257 1.41987 1.32489 0
M  V30 105 O 11.2007 0.571045 1.85928 0
M  V30 106 C 11.4837 3.59989 0.0893294 0
M  V30 107 C 11.3367 4.3125 -1.27841 0
M  V30 108 C 12.6557 4.32606 0.808724 0
M  V30 109 H 9.7747 0.736962 -0.00751035 0
M  V30 110 H 12.4167 1.76433 -0.705085 0
M  V30 111 H 10.5667 3.82579 0.675681 0
M  V30 112 H 12.2387 4.20035 -1.90704 0
M  V30 113 H 10.4817 3.92076 -1.85632 0
M  V30 114 H 11.1527 5.39736 -1.15713 0
M  V30 115 H 13.6287 4.14936 0.310992 0
M  V30 116 H 12.5047 5.42251 0.851782 0
M  V30 117 H 12.7657 4.00963 1.86229 0
M  V30 118 N 11.8248 0.280983 1.55075 0
M  V30 119 C 13.1018 -0.386207 1.91749 0
M  V30 120 C 13.4818 -1.73264 1.20594 0
M  V30 121 O 12.8298 -2.26034 0.334784 0
M  V30 122 C 13.0398 -0.520687 3.45094 0
M  V30 123 C 14.3878 -0.800865 4.16979 0
M  V30 124 O 15.4118 -0.605271 3.5102 0
M  V30 125 O 14.2708 -1.1753 5.33712 0
M  V30 126 H 11.3648 -0.212408 0.799257 0
M  V30 127 H 13.9108 0.327568 1.66509 0
M  V30 128 H 12.6828 0.426633 3.88967 0
M  V30 129 H 12.3058 -1.2837 3.76307 0
M  V30 130 N 13.3029 -1.57598 0.00835791 0
M  V30 131 C 14.5279 -1.95617 -0.689103 0
M  V30 132 C 14.9529 -0.883753 -1.66046 0
M  V30 133 O 14.3109 0.157352 -1.80616 0
M  V30 134 C 14.3589 -3.32736 -1.38994 0
M  V30 135 O 13.4629 -3.27631 -2.50463 0
M  V30 136 H 12.8039 -0.638379 -0.182668 0
M  V30 137 H 15.3339 -2.045 0.064036 0
M  V30 138 H 15.3439 -3.68494 -1.75147 0
M  V30 139 H 14.0189 -4.1034 -0.677778 0
M  V30 140 H 12.5959 -3.03561 -2.16576 0
M  V30 141 N 14.781 0.264519 -1.55364 0
M  V30 142 C 15.728 1.32717 -1.88825 0
M  V30 143 C 16.698 1.48675 -0.740605 0
M  V30 144 O 17.883 1.62945 -0.992657 0
M  V30 145 C 15.023 2.68089 -2.17307 0
M  V30 146 C 14.136 2.60284 -3.44785 0
M  V30 147 C 13.271 3.87892 -3.62924 0
M  V30 148 C 12.31 3.74631 -4.84064 0
M  V30 149 N 11.447 4.94092 -4.98816 0
M  V30 150 H 16.287 1.03481 -2.79456 0
M  V30 151 H 13.824 0.499757 -1.3835 0
M  V30 152 H 15.782 3.46864 -2.31821 0
M  V30 153 H 14.412 2.95509 -1.299 0
M  V30 154 H 13.464 1.73173 -3.38697 0
M  V30 155 H 14.776 2.46388 -4.33698 0
M  V30 156 H 13.93 4.75109 -3.77302 0
M  V30 157 H 12.669 4.04664 -2.7221 0
M  V30 158 H 11.674 2.85797 -4.69681 0
M  V30 159 H 12.899 3.5937 -5.76221 0
M  V30 160 H 10.845 5.11259 -4.11036 0
M  V30 161 H 10.762 4.8276 -5.81789 0
M  V30 162 H 12.03 5.82857 -5.17588 0
M  V30 163 N 16.2591 1.48442 0.529413 0
M  V30 164 C 17.4841 1.60406 1.31471 0
M  V30 165 C 17.9091 0.264738 1.86228 0
M  V30 166 O 17.2671 -0.763668 1.64432 0
M  V30 167 C 17.3151 2.65419 2.44101 0
M  V30 168 O 16.4191 2.22618 3.47153 0
M  V30 169 H 15.7601 0.537863 0.389357 0
M  V30 170 H 18.2901 1.94432 0.636965 0
M  V30 171 H 18.3001 2.86709 2.90279 0
M  V30 172 H 16.9751 3.62652 2.03608 0
M  V30 173 H 15.5521 2.11543 3.0709 0
M  V30 174 N 17.7372 -0.778329 1.37039 0
M  V30 175 C 18.9862 -1.53189 1.3121 0
M  V30 176 C 19.2992 -1.95328 -0.103095 0
M  V30 177 O 20.5052 -2.70012 -0.283826 0
M  V30 178 C 18.9612 -2.76591 2.30272 0
M  V30 179 C 18.5692 -2.41577 3.77286 0
M  V30 180 C 20.3132 -3.5455 2.33441 0
M  V30 181 C 18.2202 -3.61441 4.68096 0
M  V30 182 H 17.1502 -0.5751 0.487622 0
M  V30 183 H 19.8012 -0.853101 1.62464 0
M  V30 184 H 18.1832 -3.46326 1.92027 0
M  V30 185 H 19.3572 -1.79668 4.2433 0
M  V30 186 H 17.6722 -1.76806 3.76999 0
M  V30 187 H 20.2692 -4.43628 2.98493 0
M  V30 188 H 20.6122 -3.93936 1.34611 0
M  V30 189 H 21.1452 -2.91805 2.7036 0
M  V30 190 H 17.8842 -3.27142 5.6803 0
M  V30 191 H 17.4042 -4.22478 4.25761 0
M  V30 192 H 19.0832 -4.28335 4.8491 0
M  V30 193 N 19.2153 -1.21501 -1.00376 0
M  V30 194 C 20.1623 -0.975387 -2.09177 0
M  V30 195 C 21.1323 0.0990615 -1.65804 0
M  V30 196 O 22.3173 -0.0483147 -1.90739 0
M  V30 197 C 19.4573 -0.547507 -3.40729 0
M  V30 198 C 18.5703 -1.69153 -3.97506 0
M  V30 199 C 17.7053 -1.2127 -5.17172 0
M  V30 200 C 16.7443 -2.32897 -5.66061 0
M  V30 201 N 15.8813 -1.86138 -6.76976 0
M  V30 202 H 20.7213 -1.9068 -2.29009 0
M  V30 203 H 18.2583 -0.950257 -1.12288 0
M  V30 204 H 20.2163 -0.280667 -4.16255 0
M  V30 205 H 18.8463 0.346904 -3.20931 0
M  V30 206 H 17.8983 -2.07298 -3.18954 0
M  V30 207 H 19.2103 -2.5316 -4.29781 0
M  V30 208 H 18.3643 -0.902591 -5.99948 0
M  V30 209 H 17.1033 -0.342692 -4.86495 0
M  V30 210 H 16.1083 -2.64709 -4.81881 0
M  V30 211 H 17.3333 -3.20396 -5.98768 0
M  V30 212 H 15.2793 -1.01484 -6.48103 0
M  V30 213 H 15.1963 -2.63717 -7.08512 0
M  V30 214 H 16.4643 -1.58165 -7.63285 0
M  V30 215 N 20.6934 1.19889 -1.02296 0
M  V30 216 C 21.6414 2.24938 -0.592081 0
M  V30 217 C 22.6354 1.65257 0.372357 0
M  V30 218 O 23.8414 1.78371 0.241583 0
M  V30 219 H 20.2164 0.731787 -0.173182 0
M  V30 220 H 22.1874 2.58603 -1.48885 0
M  V30 221 C 20.9364 3.47668 0.047351 0
M  V30 222 H 20.2594 3.93875 -0.685772 0
M  V30 223 H 21.6994 4.22852 0.311862 0
M  V30 224 C 20.1584 3.11136 1.29212 0
M  V30 225 O 20.6884 3.2325 2.38479 0
M  V30 226 N 18.8944 2.65625 1.17863 0
M  V30 227 H 18.4414 2.55968 0.289493 0
M  V30 228 H 18.3994 2.41553 2.01245 0
M  V30 229 N 22.1715 0.800033 1.35784 0
M  V30 230 C 23.1015 0.220184 2.3246 0
M  V30 231 C 24.0825 -0.65073 1.57161 0
M  V30 232 O 25.2675 -0.582359 1.85263 0
M  V30 233 C 22.3975 -0.637353 3.41402 0
M  V30 234 C 21.3515 0.134531 4.27789 0
M  V30 235 C 20.6775 -0.844285 5.27992 0
M  V30 236 C 21.9775 1.32979 5.05088 0
M  V30 237 H 23.6715 1.02787 2.81203 0
M  V30 238 H 21.2175 0.495717 1.35199 0
M  V30 239 H 23.1705 -1.05302 4.08031 0
M  V30 240 H 21.8945 -1.47785 2.91251 0
M  V30 241 H 20.5535 0.531296 3.6273 0
M  V30 242 H 20.2015 -1.68011 4.74111 0
M  V30 243 H 19.9015 -0.332184 5.8666 0
M  V30 244 H 21.4255 -1.2583 5.97494 0
M  V30 245 H 22.8395 0.98934 5.64699 0
M  V30 246 H 21.2365 1.77593 5.7322 0
M  V30 247 H 22.3065 2.11978 4.36111 0
M  V30 248 N 23.6496 -1.47581 0.552962 0
M  V30 249 C 24.5596 -2.33743 -0.200353 0
M  V30 250 C 25.5756 -1.47928 -0.916151 0
M  V30 251 O 26.7516 -1.80865 -0.885993 0
M  V30 252 C 23.8166 -3.24536 -1.21973 0
M  V30 253 C 22.8776 -4.26238 -0.511819 0
M  V30 254 C 22.1106 -5.12693 -1.48263 0
M  V30 255 O 22.3336 -5.01525 -2.71714 0
M  V30 256 O 21.2676 -5.93375 -1.00945 0
M  V30 257 H 25.0936 -2.9945 0.506304 0
M  V30 258 H 22.6786 -1.46071 0.313622 0
M  V30 259 H 24.5606 -3.80631 -1.80827 0
M  V30 260 H 23.2356 -2.61462 -1.90839 0
M  V30 261 H 22.1426 -3.73914 0.117799 0
M  V30 262 H 23.4756 -4.92014 0.135308 0
M  V30 263 N 25.1277 -0.289203 -1.54924 0
M  V30 264 C 26.5387 0.205791 -1.85562 0
M  V30 265 C 26.8897 1.54351 -1.2112 0
M  V30 266 O 26.0147 2.10435 -0.504601 0
M  V30 267 C 26.6097 0.380177 -3.3666 0
M  V30 268 C 25.1687 0.819395 -3.67373 0
M  V30 269 C 24.3157 -0.079159 -2.77187 0
M  V30 270 H 27.2667 -0.510577 -1.50262 0
M  V30 271 H 27.2877 1.21659 -3.60526 0
M  V30 272 H 26.7997 -0.593589 -3.83534 0
M  V30 273 H 24.9007 1.80413 -3.26009 0
M  V30 274 H 25.0137 0.646957 -4.74712 0
M  V30 275 H 23.3777 0.439565 -2.50878 0
M  V30 276 H 24.1607 -1.04906 -3.26878 0
M  V30 277 N 26.6058 1.57591 -0.0167156 0
M  V30 278 C 27.5528 2.09462 0.969251 0
M  V30 279 C 28.5228 0.99381 1.33089 0
M  V30 280 O 29.7078 1.26726 1.42636 0
M  V30 281 C 26.8478 2.61622 2.25051 0
M  V30 282 C 25.9608 3.85666 1.94642 0
M  V30 283 C 25.0958 4.26266 3.16972 0
M  V30 284 C 24.1348 5.43101 2.82326 0
M  V30 285 N 23.2718 5.78915 3.97243 0
M  V30 286 H 28.1118 2.93428 0.519997 0
M  V30 287 H 25.6488 1.45044 0.245087 0
M  V30 288 H 27.6068 2.89949 2.99976 0
M  V30 289 H 26.2368 1.80505 2.67615 0
M  V30 290 H 25.2888 3.64145 1.10013 0
M  V30 291 H 26.6008 4.70678 1.65117 0
M  V30 292 H 25.7548 4.55963 4.00228 0
M  V30 293 H 24.4938 3.39996 3.49648 0
M  V30 294 H 23.4988 5.1311 1.97479 0
M  V30 295 H 24.7238 6.3106 2.50879 0
M  V30 296 H 22.6698 4.95602 4.29785 0
M  V30 297 H 22.5868 6.58539 3.71299 0
M  V30 298 H 23.8548 6.13212 4.81239 0
M  V30 299 N 28.0839 -0.256276 1.55502 0
M  V30 300 C 29.3329 -0.983486 1.76098 0
M  V30 301 C 29.6459 -1.86837 0.578896 0
M  V30 302 O 30.8519 -2.63163 0.667648 0
M  V30 303 C 29.3079 -1.79868 3.1173 0
M  V30 304 C 28.9159 -0.961648 4.37557 0
M  V30 305 C 30.6599 -2.51919 3.41668 0
M  V30 306 C 28.5669 -1.77219 5.64223 0
M  V30 307 H 27.4969 -0.370936 0.656447 0
M  V30 308 H 30.1479 -0.238492 1.81944 0
M  V30 309 H 28.5299 -2.58527 2.99966 0
M  V30 310 H 29.7039 -0.218048 4.60284 0
M  V30 311 H 28.0189 -0.354913 4.14885 0
M  V30 312 H 30.6159 -3.12998 4.33516 0
M  V30 313 H 30.9589 -3.23059 2.62562 0
M  V30 314 H 31.4919 -1.80278 3.54605 0
M  V30 315 H 28.2309 -1.10471 6.46124 0
M  V30 316 H 27.7509 -2.49132 5.45613 0
M  V30 317 H 29.4299 -2.34169 6.03137 0
M  V30 318 N 29.562 -1.4872 -0.521534 0
M  V30 319 C 30.811 -1.56419 -1.27341 0
M  V30 320 C 31.124 -0.246805 -1.94037 0
M  V30 321 O 32.33 -0.202122 -2.70747 0
M  V30 322 C 30.786 -2.75896 -2.31105 0
M  V30 323 C 30.394 -4.14311 -1.70441 0
M  V30 324 C 32.138 -2.92913 -3.07249 0
M  V30 325 C 30.045 -5.25038 -2.72194 0
M  V30 326 H 28.975 -0.582344 -0.478949 0
M  V30 327 H 31.626 -1.75071 -0.549779 0
M  V30 328 H 30.008 -2.50697 -3.06541 0
M  V30 329 H 31.182 -4.49564 -1.01136 0
M  V30 330 H 29.497 -4.02482 -1.06759 0
M  V30 331 H 32.094 -3.72805 -3.83302 0
M  V30 332 H 32.437 -2.02689 -3.63625 0
M  V30 333 H 32.97 -3.18054 -2.38928 0
M  V30 334 H 29.709 -6.17255 -2.20627 0
M  V30 335 H 29.229 -4.94263 -3.39801 0
M  V30 336 H 30.908 -5.53508 -3.35019 0
M  V30 337 N 31.0401 0.771051 -1.3745 0
M  V30 338 C 31.9901 1.87456 -1.29785 0
M  V30 339 C 32.9741 1.59827 -0.185541 0
M  V30 340 O 34.1661 1.71945 -0.419997 0
M  V30 341 C 31.2951 3.24935 -1.1078 0
M  V30 342 C 30.3811 3.58514 -2.26558 0
M  V30 343 N 30.7721 3.6327 -3.5195 0
M  V30 344 C 29.0701 3.88683 -2.18727 0
M  V30 345 C 29.7711 3.93616 -4.283 0
M  V30 346 N 28.7471 4.09551 -3.57448 0
M  V30 347 H 32.5491 1.89386 -2.24745 0
M  V30 348 H 30.0631 0.967531 -1.30432 0
M  V30 349 H 32.0601 4.03881 -1.03374 0
M  V30 350 H 30.7201 3.24268 -0.16738 0
M  V30 351 H 31.7311 3.45458 -3.85848 0
M  V30 352 H 28.4081 3.95834 -1.32746 0
M  V30 353 H 29.7981 4.04066 -5.36824 0
M  V30 354 N 32.5182 1.22032 0.997298 0
M  V30 355 C 33.7662 1.04016 1.73278 0
M  V30 356 C 34.0872 -0.426255 1.90284 0
M  V30 357 O 33.3572 -1.30694 1.45931 0
M  V30 358 H 31.9372 0.381897 0.642 0
M  V30 359 H 34.5992 1.5347 1.20137 0
M  V30 360 H 33.6952 1.51441 2.72896 0
M  V30 361 N 33.9963 -1.19345 1.0293 0
M  V30 362 C 35.2213 -1.93538 0.745511 0
M  V30 363 C 35.6463 -1.75007 -0.689511 0
M  V30 364 O 35.0043 -1.05265 -1.47611 0
M  V30 365 C 35.0523 -3.43336 1.10239 0
M  V30 366 O 34.1563 -4.11806 0.221289 0
M  V30 367 H 33.4973 -0.604193 0.275404 0
M  V30 368 H 36.0273 -1.5141 1.37609 0
M  V30 369 H 36.0373 -3.94004 1.05947 0
M  V30 370 H 34.7123 -3.56146 2.14786 0
M  V30 371 H 33.2893 -3.715 0.322842 0
M  V30 372 N 35.4744 -0.807222 -1.35358 0
M  V30 373 C 36.3844 -0.219594 -2.3357 0
M  V30 374 C 37.4004 0.637734 -1.61892 0
M  V30 375 O 38.5764 0.549336 -1.93763 0
M  V30 376 C 35.6414 0.62158 -3.41083 0
M  V30 377 C 34.7024 -0.256315 -4.28534 0
M  V30 378 C 33.9354 0.544807 -5.30912 0
M  V30 379 O 34.1584 1.77944 -5.41934 0
M  V30 380 O 33.0924 -0.0646478 -6.01865 0
M  V30 381 H 36.9184 -1.03208 -2.85625 0
M  V30 382 H 34.5034 -0.569025 -1.38139 0
M  V30 383 H 36.3854 1.10067 -4.06772 0
M  V30 384 H 35.0604 1.41165 -2.91297 0
M  V30 385 H 33.9674 -0.782559 -3.65823 0
M  V30 386 H 35.3004 -1.01034 -4.81719 0
M  V30 387 N 36.9525 1.47285 -0.560781 0
M  V30 388 C 38.1775 2.07359 -0.0410566 0
M  V30 389 C 38.6025 1.41017 1.24483 0
M  V30 390 O 37.9605 0.486368 1.74654 0
M  V30 391 C 38.0085 3.6035 0.134123 0
M  V30 392 O 37.1125 3.94681 1.19587 0
M  V30 393 H 36.4535 0.661887 -0.0529291 0
M  V30 394 H 38.9835 1.89252 -0.777482 0
M  V30 395 H 38.9935 4.0652 0.347207 0
M  V30 396 H 37.6685 4.08034 -0.805047 0
M  V30 397 H 36.2455 3.60251 0.962987 0
M  V30 398 N 38.4306 0.297415 1.54768 0
M  V30 399 C 39.3636 -0.622188 2.19554 0
M  V30 400 C 40.3416 -1.13558 1.16376 0
M  V30 401 O 41.5256 -1.20444 1.45002 0
M  V30 402 C 38.6526 -1.8509 2.83653 0
M  V30 403 C 37.6986 -1.47106 4.00328 0
M  V30 404 S 38.5316 -0.53006 5.3287 0
M  V30 405 C 39.6876 -1.76665 6.0045 0
M  V30 406 H 39.9206 -0.0717806 2.97213 0
M  V30 407 H 37.4536 0.0815678 1.54184 0
M  V30 408 H 39.4116 -2.55605 3.21211 0
M  V30 409 H 38.0726 -2.37247 2.05846 0
M  V30 410 H 37.2656 -2.38594 4.43947 0
M  V30 411 H 36.8676 -0.845885 3.64309 0
M  V30 412 H 39.1596 -2.7077 6.21039 0
M  V30 413 H 40.1026 -1.37308 6.9466 0
M  V30 414 H 40.5106 -1.94174 5.30054 0
M  V30 415 N 39.9087 -1.5758 0.0250728 0
M  V30 416 C 41.1857 -1.82917 -0.692873 0
M  V30 417 C 41.5657 -0.908137 -1.90568 0
M  V30 418 O 40.9137 0.0372298 -2.2847 0
M  V30 419 C 41.1237 -3.32034 -1.07492 0
M  V30 420 C 42.4717 -3.98406 -1.46826 0
M  V30 421 O 43.4957 -3.36505 -1.16801 0
M  V30 422 O 42.3547 -5.07497 -2.02754 0
M  V30 423 H 39.4487 -0.754079 -0.33955 0
M  V30 424 H 41.9947 -1.69619 0.0524456 0
M  V30 425 H 40.7667 -3.90728 -0.211552 0
M  V30 426 H 40.3897 -3.50424 -1.87854 0
M  V30 427 N 41.3868 0.248026 -1.55636 0
M  V30 428 C 42.6118 0.998028 -1.81808 0
M  V30 429 C 43.0368 1.78207 -0.601979 0
M  V30 430 O 42.3948 1.75653 0.448961 0
M  V30 431 C 42.4428 1.9125 -3.05705 0
M  V30 432 O 41.5468 3.00406 -2.82542 0
M  V30 433 H 40.8878 0.284045 -0.600179 0
M  V30 434 H 43.4178 0.269357 -2.02819 0
M  V30 435 H 43.4278 2.32737 -3.35108 0
M  V30 436 H 42.1028 1.33602 -3.93857 0
M  V30 437 H 40.6798 2.63056 -2.64303 0
M  V30 438 N 42.8649 1.48995 0.513639 0
M  V30 439 C 44.1129 1.57531 1.26604 0
M  V30 440 C 44.4339 0.258236 1.93283 0
M  V30 441 O 43.7039 -0.721502 1.8213 0
M  V30 442 H 42.2839 0.580387 0.470276 0
M  V30 443 H 44.9459 1.85552 0.596373 0
M  V30 444 H 44.0419 2.36486 2.03669 0
M  V30 445 N 44.343 -0.763751 1.37857 0
M  V30 446 C 45.592 -1.51789 1.32827 0
M  V30 447 C 45.905 -1.95426 -0.0823719 0
M  V30 448 O 47.111 -2.70298 -0.255172 0
M  V30 449 C 45.567 -2.74133 2.33193 0
M  V30 450 C 45.175 -2.37562 3.79827 0
M  V30 451 C 46.919 -3.52054 2.37188 0
M  V30 452 C 44.826 -3.56456 4.71904 0
M  V30 453 H 43.756 -0.569896 0.493695 0
M  V30 454 H 46.407 -0.835822 1.63359 0
M  V30 455 H 44.789 -3.4427 1.9569 0
M  V30 456 H 45.963 -1.75157 4.26212 0
M  V30 457 H 44.278 -1.72798 3.78853 0
M  V30 458 H 46.875 -4.40437 3.03182 0
M  V30 459 H 47.218 -3.92486 1.38782 0
M  V30 460 H 47.751 -2.88921 2.7344 0
M  V30 461 H 44.49 -3.21099 5.71468 0
M  V30 462 H 44.01 -4.17938 4.30218 0
M  V30 463 H 45.689 -4.23168 4.89426 0
M  V30 464 N 45.8211 -1.22559 -0.990812 0
M  V30 465 C 47.0461 -1.07862 -1.77145 0
M  V30 466 C 47.4711 0.366447 -1.84496 0
M  V30 467 O 46.8291 1.26478 -1.29896 0
M  V30 468 C 46.8771 -1.69686 -3.18181 0
M  V30 469 O 45.9811 -0.951946 -4.01263 0
M  V30 470 H 45.3221 -0.378712 -0.545411 0
M  V30 471 H 47.8521 -1.62399 -1.2445 0
M  V30 472 H 47.8621 -1.74496 -3.68802 0
M  V30 473 H 46.5371 -2.74841 -3.12146 0
M  V30 474 H 45.1141 -0.980011 -3.59792 0
M  V30 475 N 47.2992 1.18797 -1.03562 0
M  V30 476 C 48.2292 2.24472 -0.643019 0
M  V30 477 C 49.2102 1.66433 0.351283 0
M  V30 478 O 50.3952 1.92803 0.232505 0
M  V30 479 C 47.5252 3.473 4.24935e-05 0
M  V30 480 C 46.4792 4.18055 -0.917257 0
M  V30 481 C 45.8052 5.34519 -0.138941 0
M  V30 482 C 47.1052 4.72109 -2.23407 0
M  V30 483 H 48.7992 2.57566 -1.52643 0
M  V30 484 H 46.3452 1.23806 -0.735394 0
M  V30 485 H 48.2982 4.20426 0.286383 0
M  V30 486 H 47.0222 3.13424 0.918299 0
M  V30 487 H 45.6812 3.46821 -1.1879 0
M  V30 488 H 45.3292 4.96891 0.781562 0
M  V30 489 H 45.0292 5.82794 -0.750005 0
M  V30 490 H 46.5532 6.10438 0.1405 0
M  V30 491 H 47.9672 5.36955 -2.00879 0
M  V30 492 H 46.3642 5.30897 -2.79765 0
M  V30 493 H 47.4342 3.89807 -2.88407 0
M  V30 494 N 48.7773 0.814389 1.34928 0
M  V30 495 C 50.0543 0.321363 1.92942 0
M  V30 496 C 50.4343 -1.19014 1.74353 0
M  V30 497 O 49.7823 -1.99328 1.11716 0
M  V30 498 C 49.9923 0.741323 3.41036 0
M  V30 499 C 51.3403 0.735266 4.18185 0
M  V30 500 O 52.3643 0.68336 3.49584 0
M  V30 501 O 51.2233 0.800703 5.40602 0
M  V30 502 H 48.3173 0.0858893 0.822528 0
M  V30 503 H 50.8633 0.898609 1.43955 0
M  V30 504 H 49.6353 1.78276 3.4833 0
M  V30 505 H 49.2583 0.139307 3.97356 0
M  V30 506 N 50.2554 -1.46986 0.568584 0
M  V30 507 C 51.2034 -2.31858 -0.185649 0
M  V30 508 C 52.1974 -1.43624 -0.898249 0
M  V30 509 O 53.4034 -1.60327 -0.818242 0
M  V30 510 H 49.7784 -0.747866 -0.0787399 0
M  V30 511 H 51.7494 -2.93303 0.549191 0
M  V30 512 C 50.4984 -3.26513 -1.19519 0
M  V30 513 H 49.8214 -3.94377 -0.656285 0
M  V30 514 H 51.2614 -3.88707 -1.6936 0
M  V30 515 C 49.7204 -2.50847 -2.24894 0
M  V30 516 O 50.2504 -2.26119 -3.32014 0
M  V30 517 N 48.4564 -2.11656 -1.99124 0
M  V30 518 H 48.0034 -2.31966 -1.12024 0
M  V30 519 H 47.9614 -1.61347 -2.69842 0
M  V30 520 N 51.7335 -0.305618 -1.54608 0
M  V30 521 C 52.9585 0.307562 -2.05107 0
M  V30 522 C 53.3835 1.46385 -1.18123 0
M  V30 523 O 52.7415 1.8034 -0.186324 0
M  V30 524 C 52.7895 0.73704 -3.52987 0
M  V30 525 O 51.8935 1.84134 -3.6901 0
M  V30 526 H 51.2345 0.0589143 -0.661381 0
M  V30 527 H 53.7645 -0.448807 -1.99617 0
M  V30 528 H 53.7745 1.02459 -3.94925 0
M  V30 529 H 52.4495 -0.108773 -4.15758 0
M  V30 530 H 51.0265 1.55398 -3.38978 0
M  V30 531 N 53.2116 1.57565 -0.0334293 0
M  V30 532 C 54.4416 1.95996 0.653398 0
M  V30 533 C 54.8496 0.908749 1.65947 0
M  V30 534 O 54.1926 -0.117471 1.83324 0
M  V30 535 C 54.2546 3.30589 1.41249 0
M  V30 536 C 53.9186 4.53503 0.564263 0
M  V30 537 C 54.9156 5.19647 -0.16225 0
M  V30 538 C 52.6006 4.99801 0.500398 0
M  V30 539 C 54.5946 6.30412 -0.941255 0
M  V30 540 C 52.2816 6.10448 -0.282308 0
M  V30 541 C 53.2796 6.75612 -1.00184 0
M  V30 542 O 52.9676 7.84134 -1.77171 0
M  V30 543 H 52.6996 0.65027 0.184728 0
M  V30 544 H 55.2536 2.05199 -0.0907841 0
M  V30 545 H 53.4836 3.17888 2.20191 0
M  V30 546 H 55.1726 3.53892 1.98784 0
M  V30 547 H 55.9386 4.84846 -0.12227 0
M  V30 548 H 51.8176 4.48883 1.05002 0
M  V30 549 H 55.3616 6.81208 -1.50339 0
M  V30 550 H 51.2586 6.44686 -0.323989 0
M  V30 551 H 52.0266 8.00822 -1.69194 0
M  V30 552 N 54.6897 -0.239769 1.55765 0
M  V30 553 C 55.6367 -1.29696 1.90913 0
M  V30 554 C 56.6067 -1.47478 0.764164 0
M  V30 555 O 57.7917 -1.61345 1.01845 0
M  V30 556 C 54.9317 -2.64598 2.21544 0
M  V30 557 C 54.0447 -2.54765 3.48882 0
M  V30 558 C 53.1797 -3.82069 3.69049 0
M  V30 559 C 52.2187 -3.66883 4.89963 0
M  V30 560 N 51.3557 -4.86094 5.06614 0
M  V30 561 H 56.1957 -0.990224 2.81067 0
M  V30 562 H 53.7327 -0.477684 1.39128 0
M  V30 563 H 55.6907 -3.43132 2.3731 0
M  V30 564 H 54.3207 -2.93405 1.34585 0
M  V30 565 H 53.3727 -1.67763 3.41409 0
M  V30 566 H 54.6847 -2.39457 4.37563 0
M  V30 567 H 53.8387 -4.69046 3.84812 0
M  V30 568 H 52.5777 -4.00282 2.78614 0
M  V30 569 H 51.5827 -2.78289 4.74168 0
M  V30 570 H 52.8077 -3.50157 5.81865 0
M  V30 571 H 50.7537 -5.04655 4.19117 0
M  V30 572 H 50.6707 -4.73443 5.89396 0
M  V30 573 H 51.9387 -5.74549 5.26795 0
M  V30 574 N 56.1678 -1.49265 -0.50573 0
M  V30 575 C 57.1008 -1.60183 -1.62532 0
M  V30 576 C 58.0788 -0.451107 -1.56217 0
M  V30 577 O 59.2628 -0.666016 -1.76342 0
M  V30 578 C 56.3898 -1.55238 -3.01029 0
M  V30 579 C 55.4358 -2.7545 -3.25621 0
M  V30 580 S 56.2688 -4.37174 -3.09256 0
M  V30 581 C 57.4248 -4.34866 -4.50158 0
M  V30 582 H 57.6578 -2.54894 -1.53025 0
M  V30 583 H 55.1908 -1.38098 -0.690535 0
M  V30 584 H 57.1488 -1.53071 -3.80893 0
M  V30 585 H 55.8098 -0.618238 -3.07956 0
M  V30 586 H 55.0028 -2.68197 -4.26716 0
M  V30 587 H 54.6048 -2.75005 -2.53472 0
M  V30 588 H 56.8968 -4.06295 -5.42154 0
M  V30 589 H 57.8398 -5.36223 -4.62462 0
M  V30 590 H 58.2478 -3.65007 -4.30616 0
M  V30 591 N 57.6459 0.756429 -1.3826 0
M  V30 592 C 58.9229 1.50584 -1.24835 0
M  V30 593 C 59.3029 2.10556 0.151485 0
M  V30 594 O 58.6509 1.96825 1.1607 0
M  V30 595 C 58.8609 2.57448 -2.3563 0
M  V30 596 C 60.2089 3.24429 -2.73917 0
M  V30 597 O 61.2329 2.67751 -2.34921 0
M  V30 598 O 60.0919 4.26937 -3.41156 0
M  V30 599 H 57.1859 0.667664 -0.48801 0
M  V30 600 H 59.7319 0.792083 -1.5008 0
M  V30 601 H 58.5039 2.11362 -3.29305 0
M  V30 602 H 58.1269 3.36408 -2.11933 0
M  V30 603 N 59.124 1.23083 0.984299 0
M  V30 604 C 60.354 1.08556 1.75781 0
M  V30 605 C 60.762 -0.366171 1.85623 0
M  V30 606 O 60.105 -1.26524 1.33182 0
M  V30 607 C 60.167 1.63208 3.20318 0
M  V30 608 C 59.831 3.11922 3.33997 0
M  V30 609 C 60.828 4.09259 3.2063 0
M  V30 610 C 58.513 3.51552 3.58771 0
M  V30 611 C 60.507 5.4421 3.31835 0
M  V30 612 C 58.194 4.86649 3.69616 0
M  V30 613 C 59.192 5.82787 3.56157 0
M  V30 614 O 58.88 7.15431 3.66626 0
M  V30 615 H 58.612 0.380713 0.5586 0
M  V30 616 H 61.166 1.63321 1.2456 0
M  V30 617 H 59.396 1.0286 3.72769 0
M  V30 618 H 61.085 1.44216 3.79416 0
M  V30 619 H 61.851 3.79984 3.01392 0
M  V30 620 H 57.73 2.77239 3.6832 0
M  V30 621 H 61.274 6.1923 3.21247 0
M  V30 622 H 57.171 5.15601 3.88363 0
M  V30 623 H 57.939 7.23127 3.83445 0
M  V30 624 N 60.6021 -1.18246 1.0419 0
M  V30 625 C 62.0131 -1.69914 0.773698 0
M  V30 626 C 62.3641 -1.83085 -0.705297 0
M  V30 627 O 61.4891 -1.51123 -1.5489 0
M  V30 628 C 62.0841 -3.08619 1.39784 0
M  V30 629 C 60.6431 -3.57494 1.17792 0
M  V30 630 C 59.7901 -2.34013 1.48773 0
M  V30 631 H 62.7411 -1.02904 1.20816 0
M  V30 632 H 62.7621 -3.71958 0.801714 0
M  V30 633 H 62.2741 -2.99001 2.47426 0
M  V30 634 H 60.3751 -3.72406 0.120295 0
M  V30 635 H 60.4881 -4.40852 1.87581 0
M  V30 636 H 58.8521 -2.37986 0.907463 0
M  V30 637 H 59.6351 -2.27013 2.57527 0
M  V30 638 N 62.0802 -0.821533 -1.34494 0
M  V30 639 C 62.9902 -0.244355 -2.33324 0
M  V30 640 C 64.0062 0.620527 -1.62559 0
M  V30 641 O 65.1822 0.528754 -1.94335 0
M  V30 642 C 62.2472 0.585368 -3.41723 0
M  V30 643 C 61.3082 -0.301752 -4.28238 0
M  V30 644 C 60.5412 0.488466 -5.3146 0
M  V30 645 O 60.7642 1.72186 -5.4379 0
M  V30 646 O 59.6982 -0.12848 -6.01763 0
M  V30 647 H 63.5242 -1.06231 -2.84515 0
M  V30 648 H 61.1092 -0.583645 -1.37528 0
M  V30 649 H 62.9912 1.05747 -4.07916 0
M  V30 650 H 61.6662 1.38068 -2.92778 0
M  V30 651 H 60.5732 -0.821315 -3.64973 0
M  V30 652 H 61.9062 -1.06138 -4.8062 0
M  V30 653 N 63.5583 1.46682 -0.576371 0
M  V30 654 C 64.4913 2.27243 0.208731 0
M  V30 655 C 65.4693 1.35238 0.902746 0
M  V30 656 O 66.6533 1.64641 0.917904 0
M  V30 657 C 63.7803 3.12802 1.29896 0
M  V30 658 C 62.8263 4.20524 0.711457 0
M  V30 659 S 63.6593 5.33548 -0.456781 0
M  V30 660 C 64.8153 6.22673 0.634798 0
M  V30 661 H 65.0483 2.93484 -0.474838 0
M  V30 662 H 62.5813 1.50069 -0.363118 0
M  V30 663 H 64.5393 3.62661 1.92321 0
M  V30 664 H 63.2003 2.45887 1.95444 0
M  V30 665 H 62.3933 4.80191 1.53076 0
M  V30 666 H 61.9953 3.73645 0.162999 0
M  V30 667 H 64.2873 6.60181 1.52209 0
M  V30 668 H 65.2303 7.0806 0.0750311 0
M  V30 669 H 65.6383 5.56684 0.936092 0
M  V30 670 N 65.0364 0.313813 1.54444 0
M  V30 671 C 66.2844 -0.291099 1.99993 0
M  V30 672 C 66.6054 -1.53418 1.20366 0
M  V30 673 O 65.8754 -1.93544 0.302927 0
M  V30 674 H 64.4554 -0.110552 0.738774 0
M  V30 675 H 67.1174 0.428106 1.9014 0
M  V30 676 H 66.2134 -0.554268 3.07139 0
M  V30 677 N 66.5145 -1.57545 0.0417849 0
M  V30 678 C 67.4445 -2.14009 -0.933929 0
M  V30 679 C 68.4255 -1.05938 -1.33083 0
M  V30 680 O 69.6105 -1.33833 -1.40721 0
M  V30 681 C 66.7405 -2.67747 -2.21199 0
M  V30 682 C 65.6945 -3.80718 -1.95544 0
M  V30 683 C 65.0205 -4.20935 -3.29724 0
M  V30 684 C 66.3205 -5.06258 -1.28452 0
M  V30 685 H 68.0145 -2.95788 -0.463645 0
M  V30 686 H 65.5605 -1.42285 -0.221573 0
M  V30 687 H 67.5135 -3.05886 -2.89848 0
M  V30 688 H 66.2375 -1.83147 -2.70416 0
M  V30 689 H 64.8965 -3.43037 -1.2931 0
M  V30 690 H 64.5445 -3.33298 -3.76724 0
M  V30 691 H 64.2445 -4.9707 -3.13361 0
M  V30 692 H 65.7685 -4.61666 -3.9962 0
M  V30 693 H 67.1825 -5.41903 -1.8712 0
M  V30 694 H 65.5795 -5.87475 -1.22445 0
M  V30 695 H 66.6495 -4.84207 -0.259219 0
M  V30 696 N 67.9926 0.231505 -1.5589 0
M  V30 697 C 69.2326 0.964533 -1.80211 0
M  V30 698 C 69.5966 1.81926 -0.613744 0
M  V30 699 O 70.7976 2.58526 -0.736045 0
M  V30 700 C 69.0686 1.78956 -3.09369 0
M  V30 701 S 70.6276 2.57959 -3.54969 0
M  V30 702 H 67.4456 0.324173 -0.632798 0
M  V30 703 H 70.0476 0.230985 -1.94131 0
M  V30 704 H 68.7516 1.15161 -3.93911 0
M  V30 705 H 68.2826 2.56559 -2.9823 0
M  V30 706 H 70.2976 3.81309 -3.17519 0
M  V30 707 N 69.4707 1.49531 0.497807 0
M  V30 708 C 70.7197 1.58426 1.24837 0
M  V30 709 C 71.0327 0.277643 1.93619 0
M  V30 710 O 72.2387 0.24517 2.70391 0
M  V30 711 C 70.6947 2.79538 2.26686 0
M  V30 712 C 70.3027 4.16971 1.63828 0
M  V30 713 C 72.0467 2.97764 3.0255 0
M  V30 714 C 69.9537 5.29301 2.63807 0
M  V30 715 H 68.8837 0.58989 0.469623 0
M  V30 716 H 71.5347 1.75923 0.521857 0
M  V30 717 H 69.9167 2.55542 3.02514 0
M  V30 718 H 71.0907 4.51116 0.939711 0
M  V30 719 H 69.4057 4.04129 1.00342 0
M  V30 720 H 72.0027 3.78856 3.77323 0
M  V30 721 H 72.3457 2.08448 3.60354 0
M  V30 722 H 72.8787 3.21815 2.33838 0
M  V30 723 H 69.6177 6.20687 2.10779 0
M  V30 724 H 69.1377 4.99606 3.31894 0
M  V30 725 H 70.8167 5.58768 3.2617 0
M  V30 726 N 70.9488 -0.749086 1.3866 0
M  V30 727 C 72.1978 -1.50371 1.3443 0
M  V30 728 C 72.5108 -1.95503 -0.0616397 0
M  V30 729 O 73.7168 -2.70554 -0.226489 0
M  V30 730 C 72.1728 -2.71644 2.36088 0
M  V30 731 C 71.7808 -2.3352 3.82325 0
M  V30 732 C 73.5248 -3.49518 2.40909 0
M  V30 733 C 71.4318 -3.51431 4.75658 0
M  V30 734 H 70.3618 -0.564628 0.499712 0
M  V30 735 H 73.0128 -0.818449 1.64237 0
M  V30 736 H 71.3948 -3.42175 1.9933 0
M  V30 737 H 72.5688 -1.70627 4.28046 0
M  V30 738 H 70.8838 -1.6877 3.80665 0
M  V30 739 H 73.4808 -4.37197 3.07836 0
M  V30 740 H 73.8238 -3.90992 1.42937 0
M  V30 741 H 74.3568 -2.86005 2.76489 0
M  V30 742 H 71.0958 -3.15019 5.74842 0
M  V30 743 H 70.6158 -4.13352 4.34627 0
M  V30 744 H 72.2948 -4.17953 4.93887 0
M  V30 745 N 72.4269 -1.23603 -0.977757 0
M  V30 746 C 73.6759 -1.06377 -1.71368 0
M  V30 747 C 73.9889 0.399062 -1.91486 0
M  V30 748 O 75.1949 0.691312 -2.62551 0
M  V30 749 C 73.6509 -1.85512 -3.08404 0
M  V30 750 C 73.2589 -3.36141 -2.96164 0
M  V30 751 C 75.0029 -1.76783 -3.85938 0
M  V30 752 C 72.9099 -4.07659 -4.28449 0
M  V30 753 H 71.8399 -0.394452 -0.642591 0
M  V30 754 H 74.4909 -1.47594 -1.09034 0
M  V30 755 H 72.8729 -1.37103 -3.71509 0
M  V30 756 H 74.0469 -3.92056 -2.42133 0
M  V30 757 H 72.3619 -3.45712 -2.32104 0
M  V30 758 H 74.9589 -2.27526 -4.83876 0
M  V30 759 H 75.3019 -0.731116 -4.0983 0
M  V30 760 H 75.8349 -2.22818 -3.2954 0
M  V30 761 H 72.5739 -5.11648 -4.09752 0
M  V30 762 H 72.0939 -3.5653 -4.82334 0
M  V30 763 H 73.7729 -4.141 -4.97122 0
M  V30 764 N 73.905 1.17692 -1.04816 0
M  V30 765 C 74.853 2.23632 -0.63966 0
M  V30 766 C 75.847 1.6601 0.337219 0
M  V30 767 O 77.053 1.78844 0.203693 0
M  V30 768 H 73.428 0.727949 -0.188665 0
M  V30 769 H 75.399 2.55387 -1.54337 0
M  V30 770 C 74.148 3.4769 -0.0264051 0
M  V30 771 H 73.471 3.92331 -0.769164 0
M  V30 772 H 74.911 4.23418 0.222098 0
M  V30 773 C 73.37 3.13807 1.22584 0
M  V30 774 O 73.9 3.28236 2.31569 0
M  V30 775 N 72.106 2.68065 1.12202 0
M  V30 776 H 71.653 2.56525 0.235133 0
M  V30 777 H 71.611 2.45767 1.96076 0
M  V30 778 N 75.3831 0.828654 1.34056 0
M  V30 779 C 76.3311 0.242973 2.31327 0
M  V30 780 C 77.3251 -0.61944 1.57668 0
M  V30 781 O 78.5311 -0.51014 1.7262 0
M  V30 782 H 74.9061 0.059834 0.749616 0
M  V30 783 H 76.8771 1.07809 2.78244 0
M  V30 784 C 75.6261 -0.575733 3.429 0
M  V30 785 H 74.9491 0.0785582 3.99723 0
M  V30 786 H 76.3891 -0.951547 4.13185 0
M  V30 787 C 74.8481 -1.75044 2.87856 0
M  V30 788 O 75.3781 -2.84882 2.83205 0
M  V30 789 N 73.5841 -1.56903 2.44602 0
M  V30 790 H 73.1311 -0.675547 2.48584 0
M  V30 791 H 73.0891 -2.35652 2.08124 0
M  V30 792 N 76.8612 -1.46375 0.584142 0
M  V30 793 C 77.8082 -2.30323 -0.148286 0
M  V30 794 C 78.7782 -1.40703 -0.882713 0
M  V30 795 O 79.9632 -1.69651 -0.873099 0
M  V30 796 C 77.1032 -3.25196 -1.15507 0
M  V30 797 C 76.2162 -4.29915 -0.423943 0
M  V30 798 C 75.3512 -5.11914 -1.41838 0
M  V30 799 C 74.3902 -6.08381 -0.673736 0
M  V30 800 N 73.5272 -6.83242 -1.6163 0
M  V30 801 H 78.3672 -2.92427 0.573644 0
M  V30 802 H 75.9042 -1.44118 0.294703 0
M  V30 803 H 77.8622 -3.78646 -1.75166 0
M  V30 804 H 76.4922 -2.64898 -1.8447 0
M  V30 805 H 75.5442 -3.7931 0.287714 0
M  V30 806 H 76.8562 -4.98549 0.158128 0
M  V30 807 H 76.0102 -5.69648 -2.08773 0
M  V30 808 H 74.7492 -4.43243 -2.03438 0
M  V30 809 H 73.7542 -5.49799 0.00938483 0
M  V30 810 H 74.9792 -6.79071 -0.0631082 0
M  V30 811 H 72.9252 -6.1728 -2.22038 0
M  V30 812 H 72.8422 -7.48144 -1.08707 0
M  V30 813 H 74.1102 -7.45534 -2.27596 0
M  V30 814 N 78.3393 -0.321999 -1.54275 0
M  V30 815 C 79.2873 0.560206 -2.25753 0
M  V30 816 C 80.2813 1.11984 -1.27106 0
M  V30 817 O 81.4873 1.06806 -1.44888 0
M  V30 818 H 77.8623 0.199304 -0.725108 0
M  V30 819 H 79.8333 -0.0649365 -2.98329 0
M  V30 820 C 78.5823 1.71023 -3.02731 0
M  V30 821 H 77.9053 1.28885 -3.78456 0
M  V30 822 H 79.3453 2.30314 -3.55993 0
M  V30 823 C 77.8043 2.62692 -2.10938 0
M  V30 824 O 78.3343 3.64364 -1.6912 0
M  V30 825 N 76.5403 2.30891 -1.76459 0
M  V30 826 H 76.0873 1.48253 -2.10663 0
M  V30 827 H 76.0453 2.92487 -1.1532 0
M  V30 828 N 79.8174 1.5752 -0.0501392 0
M  V30 829 C 81.0644 1.9265 0.623874 0
M  V30 830 C 81.3924 0.928411 1.70912 0
M  V30 831 O 80.6474 -0.0594525 1.9561 0
M  V30 832 C 80.9464 3.34467 1.25963 0
M  V30 833 C 80.6124 4.49883 0.302689 0
M  V30 834 C 79.2744 4.81184 0.0393636 0
M  V30 835 C 81.6264 5.20002 -0.353205 0
M  V30 836 C 78.9544 5.79951 -0.887308 0
M  V30 837 C 81.3064 6.1976 -1.26806 0
M  V30 838 C 79.9704 6.49491 -1.54007 0
M  V30 839 H 79.2404 0.704957 0.228292 0
M  V30 840 H 81.8874 1.91146 -0.116398 0
M  V30 841 H 80.1924 3.32333 2.07514 0
M  V30 842 H 81.8894 3.58928 1.78806 0
M  V30 843 H 78.4794 4.25457 0.518109 0
M  V30 844 H 82.6634 4.96033 -0.162854 0
M  V30 845 H 77.9194 6.01322 -1.10553 0
M  V30 846 H 82.0934 6.73205 -1.78236 0
M  V30 847 H 79.7204 7.25837 -2.25976 0
M  V30 848 N 81.2955 -0.223234 1.56011 0
M  V30 849 C 82.2455 -1.28008 1.88674 0
M  V30 850 C 83.2295 -1.42369 0.749663 0
M  V30 851 O 84.4215 -1.45212 1.01205 0
M  V30 852 C 81.5505 -2.63084 2.20548 0
M  V30 853 C 80.6365 -2.52632 3.40643 0
M  V30 854 N 81.0275 -2.11829 4.59306 0
M  V30 855 C 79.3255 -2.83594 3.44224 0
M  V30 856 C 80.0265 -2.12587 5.41463 0
M  V30 857 N 79.0025 -2.5301 4.81131 0
M  V30 858 H 82.8045 -0.955487 2.77935 0
M  V30 859 H 80.3185 -0.431801 1.56554 0
M  V30 860 H 82.3155 -3.39385 2.42122 0
M  V30 861 H 80.9755 -2.96391 1.32599 0
M  V30 862 H 81.9865 -1.82988 4.84496 0
M  V30 863 H 78.6635 -3.21284 2.66614 0
M  V30 864 H 80.0535 -1.83179 6.46448 0
M  V30 865 N 82.7736 -1.49793 -0.48987 0
M  V30 866 C 83.7206 -1.67281 -1.59014 0
M  V30 867 C 84.6906 -0.514177 -1.57941 0
M  V30 868 O 85.8756 -0.742533 -1.75759 0
M  V30 869 C 83.0156 -1.75569 -2.97102 0
M  V30 870 C 82.1286 -3.0281 -3.08107 0
M  V30 871 C 81.2636 -3.02008 -4.36995 0
M  V30 872 C 80.3026 -4.23782 -4.41673 0
M  V30 873 N 79.4396 -4.20826 -5.62005 0
M  V30 874 H 84.2796 -2.61224 -1.43409 0
M  V30 875 H 81.8166 -1.29508 -0.697565 0
M  V30 876 H 83.7746 -1.78354 -3.77155 0
M  V30 877 H 82.4046 -0.850827 -3.11385 0
M  V30 878 H 81.4566 -3.09584 -2.21047 0
M  V30 879 H 82.7686 -3.92801 -3.07423 0
M  V30 880 H 81.9226 -3.03418 -5.25378 0
M  V30 881 H 80.6616 -2.09815 -4.4026 0
M  V30 882 H 79.6666 -4.22604 -3.5169 0
M  V30 883 H 80.8916 -5.17181 -4.40115 0
M  V30 884 H 78.8376 -3.31476 -5.66091 0
M  V30 885 H 78.7546 -5.04564 -5.62984 0
M  V30 886 H 80.0226 -4.26355 -6.52565 0
M  V30 887 N 84.2517 0.741722 -1.39055 0
M  V30 888 C 85.4767 1.53607 -1.39354 0
M  V30 889 C 85.9017 1.88096 0.0116905 0
M  V30 890 O 85.2597 1.5143 0.996924 0
M  V30 891 C 85.3077 2.80441 -2.26682 0
M  V30 892 O 84.4117 3.76088 -1.69208 0
M  V30 893 H 83.7527 0.464142 -0.474835 0
M  V30 894 H 86.2827 0.915665 -1.82967 0
M  V30 895 H 86.2927 3.29246 -2.40959 0
M  V30 896 H 84.9677 2.5467 -3.2881 0
M  V30 897 H 83.5447 3.34833 -1.64138 0
M  V30 898 N 85.7298 1.2412 0.971189 0
M  V30 899 C 86.9578 1.10575 1.74874 0
M  V30 900 C 87.3728 -0.342017 1.85676 0
M  V30 901 O 86.7298 -1.23617 1.34258 0
M  V30 902 C 86.7808 1.73579 3.171 0
M  V30 903 O 86.5018 3.12695 3.06844 0
M  V30 904 C 88.0028 1.65598 4.11208 0
M  V30 905 H 85.2228 0.386504 0.548503 0
M  V30 906 H 87.7668 1.64156 1.21955 0
M  V30 907 H 85.9218 1.24009 3.67016 0
M  V30 908 H 86.3358 3.43412 3.96445 0
M  V30 909 H 87.8098 2.1437 5.08674 0
M  V30 910 H 88.2868 0.616532 4.34851 0
M  V30 911 H 88.8928 2.14578 3.67201 0
M  V30 912 N 87.2079 -1.17134 1.05439 0
M  V30 913 C 88.4559 -1.87085 0.764429 0
M  V30 914 C 88.7769 -1.81584 -0.710787 0
M  V30 915 O 88.0469 -1.24349 -1.51374 0
M  V30 916 H 86.6269 -0.692627 0.279779 0
M  V30 917 H 89.2889 -1.42087 1.33406 0
M  V30 918 H 88.3849 -2.92759 1.0816 0
M  V30 919 N 88.686 -0.835752 -1.33615 0
M  V30 920 C 89.619 -0.211815 -2.27215 0
M  V30 921 C 90.597 0.639249 -1.49507 0
M  V30 922 O 91.781 0.600193 -1.78689 0
M  V30 923 C 88.908 0.702893 -3.31326 0
M  V30 924 C 87.954 -0.0723049 -4.26439 0
M  V30 925 S 88.787 -1.42811 -5.16106 0
M  V30 926 C 89.943 -0.518613 -6.23748 0
M  V30 927 H 90.176 -1.00533 -2.79786 0
M  V30 928 H 87.709 -0.632336 -1.40858 0
M  V30 929 H 89.667 1.22505 -3.91794 0
M  V30 930 H 88.328 1.47004 -2.77576 0
M  V30 931 H 87.521 0.62359 -5.00127 0
M  V30 932 H 87.123 -0.525424 -3.70291 0
M  V30 933 H 89.415 0.284778 -6.76901 0
M  V30 934 H 90.358 -1.22556 -6.97413 0
M  V30 935 H 90.766 -0.101344 -5.64409 0
M  V30 936 N 90.1641 1.46063 -0.591896 0
M  V30 937 C 91.3921 2.06717 -0.0868936 0
M  V30 938 C 91.8071 1.43916 1.22203 0
M  V30 939 O 91.1641 0.547698 1.74088 0
M  V30 940 C 91.2151 3.6142 0.0758725 0
M  V30 941 O 90.9361 4.21874 -1.18126 0
M  V30 942 C 92.4371 4.39025 0.61416 0
M  V30 943 H 89.6571 0.668162 -0.0616518 0
M  V30 944 H 92.2011 1.8755 -0.815175 0
M  V30 945 H 90.3561 3.79983 0.754413 0
M  V30 946 H 90.7701 5.14861 -1.00092 0
M  V30 947 H 92.2441 5.4783 0.677193 0
M  V30 948 H 92.7211 4.07708 1.63312 0
M  V30 949 H 93.3271 4.2529 -0.0298142 0
M  V30 950 N 91.6422 0.330177 1.54103 0
M  V30 951 C 92.8672 -0.274893 2.0557 0
M  V30 952 C 93.2922 -1.44487 1.20437 0
M  V30 953 O 92.6502 -1.80021 0.214991 0
M  V30 954 C 92.6982 -0.68079 3.54115 0
M  V30 955 O 91.8022 -1.7824 3.71893 0
M  V30 956 H 91.1432 -0.0483849 0.662235 0
M  V30 957 H 93.6732 0.480508 1.98878 0
M  V30 958 H 93.6832 -0.961635 3.96505 0
M  V30 959 H 92.3582 0.174903 4.15532 0
M  V30 960 H 90.9352 -1.49985 3.41407 0
M  V30 961 N 93.1203 -1.57491 0.0584922 0
M  V30 962 C 94.5363 -1.56792 -0.298091 0
M  V30 963 C 94.7363 -1.06679 -1.70944 0
M  V30 964 O 93.7923 -0.726672 -2.41818 0
M  V30 965 C 95.1053 -3.00461 -0.119879 0
M  V30 966 C 96.6533 -3.1242 -0.190428 0
M  V30 967 C 97.1283 -4.57982 -0.0406567 0
M  V30 968 N 98.6193 -4.63099 -0.0966958 0
M  V30 969 C 99.3543 -5.734 -0.00502943 0
M  V30 970 N 98.8503 -6.9266 0.139402 0
M  V30 971 N 100.643 -5.62067 -0.0611391 0
M  V30 972 H 92.7943 -1.88386 0.98105 0
M  V30 973 H 95.0573 -0.867865 0.381463 0
M  V30 974 H 94.7633 -3.41187 0.85349 0
M  V30 975 H 94.6373 -3.66843 -0.877833 0
M  V30 976 H 97.0243 -2.71589 -1.15427 0
M  V30 977 H 97.1053 -2.48702 0.598405 0
M  V30 978 H 96.7493 -4.995 0.919897 0
M  V30 979 H 96.6793 -5.19715 -0.848727 0
M  V30 980 H 99.1703 -3.77331 -0.207277 0
M  V30 981 H 99.4833 -7.72536 0.201855 0
M  V30 982 H 97.8283 -6.94781 0.174586 0
M  V30 983 H 101.019 -4.67782 -0.172583 0
M  V30 984 H 101.192 -6.47999 0.0137562 0
M  V30 985 N 94.5984 0.214957 -1.56127 0
M  V30 986 C 95.8234 0.95924 -1.83884 0
M  V30 987 C 96.2484 1.7689 -0.639644 0
M  V30 988 O 95.6064 1.76566 0.411601 0
M  V30 989 C 95.6544 1.84723 -3.09693 0
M  V30 990 O 94.7584 2.94346 -2.8885 0
M  V30 991 H 94.0994 0.27125 -0.606069 0
M  V30 992 H 96.6294 0.226276 -2.03345 0
M  V30 993 H 96.6394 2.25576 -3.39969 0
M  V30 994 H 95.3144 1.25218 -3.96602 0
M  V30 995 H 93.8914 2.57391 -2.69823 0
M  V30 996 N 96.0765 1.50051 0.48192 0
M  V30 997 C 97.3245 1.60181 1.23234 0
M  V30 998 C 97.6455 0.299176 1.92691 0
M  V30 999 O 96.9155 -0.682708 1.83619 0
M  V30 1000 H 95.4955 0.590232 0.457859 0
M  V30 1001 H 98.1575 1.86775 0.556881 0
M  V30 1002 H 97.2535 2.40753 1.98607 0
M  V30 1003 N 97.5546 -0.734337 1.39446 0
M  V30 1004 C 98.7826 -1.52358 1.39981 0
M  V30 1005 C 99.1976 -1.88799 -0.0054975 0
M  V30 1006 O 98.5546 -1.54146 -0.976998 0
M  V30 1007 C 98.6056 -2.81072 2.27333 0
M  V30 1008 O 98.3266 -2.46178 3.62392 0
M  V30 1009 C 99.8276 -3.75096 2.36259 0
M  V30 1010 H 97.0476 -0.470806 0.478103 0
M  V30 1011 H 99.5916 -0.907339 1.83269 0
M  V30 1012 H 97.7466 -3.39026 1.87457 0
M  V30 1013 H 98.1606 -3.28866 4.08592 0
M  V30 1014 H 99.6346 -4.62305 3.01626 0
M  V30 1015 H 100.112 -4.16892 1.38194 0
M  V30 1016 H 100.718 -3.23061 2.76608 0
M  V30 1017 N 99.0327 -1.24633 -0.964593 0
M  V30 1018 C 100.31 -0.995809 -1.68354 0
M  V30 1019 C 100.69 0.480964 -2.05548 0
M  V30 1020 O 100.038 1.45599 -1.76105 0
M  V30 1021 C 100.248 -1.92177 -2.91323 0
M  V30 1022 C 101.596 -2.19446 -3.63495 0
M  V30 1023 O 102.62 -1.89855 -3.01386 0
M  V30 1024 O 101.479 -2.69714 -4.75307 0
M  V30 1025 H 98.5727 -0.376854 -0.736146 0
M  V30 1026 H 101.119 -1.35745 -1.0184 0
M  V30 1027 H 99.8907 -2.91938 -2.60553 0
M  V30 1028 H 99.5137 -1.56349 -3.65569 0
M  V30 1029 N 100.511 1.16574 -1.06058 0
M  V30 1030 C 101.757 1.87324 -0.777022 0
M  V30 1031 C 102.09 1.81351 0.694645 0
M  V30 1032 O 101.365 1.22753 1.50871 0
M  V30 1033 C 101.648 3.36991 -1.26922 0
M  V30 1034 C 101.501 3.51667 -2.80447 0
M  V30 1035 C 102.82 4.3131 -0.87521 0
M  V30 1036 H 99.9388 0.680191 -0.28374 0
M  V30 1037 H 102.581 1.37036 -1.3161 0
M  V30 1038 H 100.731 3.79949 -0.81063 0
M  V30 1039 H 102.403 3.17664 -3.34495 0
M  V30 1040 H 100.646 2.93656 -3.19294 0
M  V30 1041 H 101.317 4.56766 -3.0995 0
M  V30 1042 H 103.793 3.9624 -1.27014 0
M  V30 1043 H 102.669 5.34545 -1.2471 0
M  V30 1044 H 102.93 4.41552 0.220071 0
M  V30 1045 N 101.989 0.842826 1.3317 0
M  V30 1046 C 103.266 0.362216 1.92217 0
M  V30 1047 C 103.646 -1.15289 1.76838 0
M  V30 1048 O 102.994 -1.96914 1.15919 0
M  V30 1049 C 103.204 0.813495 3.39387 0
M  V30 1050 C 104.552 0.823804 4.16532 0
M  V30 1051 O 105.576 0.757358 3.48055 0
M  V30 1052 O 104.435 0.915193 5.38782 0
M  V30 1053 H 101.529 0.103317 0.820521 0
M  V30 1054 H 104.075 0.928942 1.42017 0
M  V30 1055 H 102.847 1.85624 3.4447 0
M  V30 1056 H 102.47 0.223561 3.96971 0
M  V30 1057 N 103.467 -1.45747 0.599634 0
M  V30 1058 C 104.43 -2.28917 -0.113835 0
M  V30 1059 C 105.43 -1.3933 -0.802729 0
M  V30 1060 O 106.62 -1.61534 -0.652103 0
M  V30 1061 C 103.752 -3.20152 -1.17114 0
M  V30 1062 H 104.945 -2.93478 0.617289 0
M  V30 1063 H 102.498 -1.52137 0.358327 0
M  V30 1064 H 103.233 -2.60374 -1.93329 0
M  V30 1065 H 103.018 -3.86133 -0.681468 0
M  V30 1066 H 104.508 -3.82708 -1.67105 0
M  V30 1067 N 104.945 -0.338344 -1.53925 0
M  V30 1068 C 105.908 0.508299 -2.23493 0
M  V30 1069 C 106.908 1.03175 -1.23335 0
M  V30 1070 O 108.098 0.921826 -1.47811 0
M  V30 1071 C 105.23 1.70754 -2.95052 0
M  V30 1072 H 106.423 -0.100058 -2.99733 0
M  V30 1073 H 103.976 -0.0896198 -1.56043 0
M  V30 1074 H 104.711 2.35474 -2.22986 0
M  V30 1075 H 104.496 1.33946 -3.68512 0
M  V30 1076 H 105.986 2.30818 -3.48013 0
M  V30 1077 N 106.423 1.57458 -0.0668435 0
M  V30 1078 C 107.371 2.13639 0.919851 0
M  V30 1079 C 108.365 1.07204 1.31163 0
M  V30 1080 O 109.571 1.25591 1.28945 0
M  V30 1081 H 105.946 0.683048 0.314562 0
M  V30 1082 H 107.917 2.95415 0.421047 0
M  V30 1083 C 106.666 2.70892 2.17975 0
M  V30 1084 H 105.989 3.5246 1.88711 0
M  V30 1085 H 107.429 3.13803 2.85138 0
M  V30 1086 C 105.888 1.65414 2.93496 0
M  V30 1087 O 106.418 1.07619 3.87015 0
M  V30 1088 N 104.624 1.36564 2.56512 0
M  V30 1089 H 104.171 1.83751 1.80536 0
M  V30 1090 H 104.129 0.66223 3.07347 0
M  V30 1091 N 107.901 -0.206675 1.56239 0
M  V30 1092 C 108.831 -1.25909 1.96645 0
M  V30 1093 C 109.812 -1.48097 0.836734 0
M  V30 1094 O 110.997 -1.6003 1.10019 0
M  V30 1095 C 108.127 -2.6058 2.29599 0
M  V30 1096 C 107.081 -2.53024 3.452 0
M  V30 1097 C 106.407 -3.91861 3.63798 0
M  V30 1098 C 107.707 -2.06524 4.79734 0
M  V30 1099 H 109.401 -0.923369 2.84806 0
M  V30 1100 H 106.947 -0.442735 1.37025 0
M  V30 1101 H 108.9 -3.34375 2.56459 0
M  V30 1102 H 107.624 -2.95869 1.38307 0
M  V30 1103 H 106.283 -1.81684 3.18412 0
M  V30 1104 H 105.931 -4.24483 2.69857 0
M  V30 1105 H 105.631 -3.87683 4.4156 0
M  V30 1106 H 107.155 -4.67296 3.93022 0
M  V30 1107 H 108.569 -2.70072 5.05702 0
M  V30 1108 H 106.966 -2.13374 5.60885 0
M  V30 1109 H 108.036 -1.01802 4.74093 0
M  V30 1110 N 109.379 -1.50304 -0.473955 0
M  V30 1111 C 110.795 -1.37667 -0.807466 0
M  V30 1112 C 110.995 -0.430555 -1.96846 0
M  V30 1113 O 110.051 0.127874 -2.52176 0
M  V30 1114 C 111.364 -2.78974 -1.12223 0
M  V30 1115 C 112.912 -2.87868 -1.22885 0
M  V30 1116 C 113.387 -4.30003 -1.57676 0
M  V30 1117 N 114.878 -4.3294 -1.64673 0
M  V30 1118 C 115.613 -5.3991 -1.93091 0
M  V30 1119 N 115.109 -6.57092 -2.1955 0
M  V30 1120 N 116.902 -5.27351 -1.94569 0
M  V30 1121 H 109.053 -2.10394 0.291212 0
M  V30 1122 H 111.316 -0.945575 0.0677609 0
M  V30 1123 H 111.022 -3.50031 -0.342229 0
M  V30 1124 H 110.896 -3.16038 -2.05913 0
M  V30 1125 H 113.283 -2.17032 -1.99953 0
M  V30 1126 H 113.364 -2.54352 -0.271814 0
M  V30 1127 H 113.008 -5.01375 -0.81149 0
M  V30 1128 H 112.938 -4.61004 -2.54525 0
M  V30 1129 H 115.429 -3.48441 -1.46277 0
M  V30 1130 H 115.742 -7.34425 -2.405 0
M  V30 1131 H 114.087 -6.60272 -2.16948 0
M  V30 1132 H 117.278 -4.34801 -1.73394 0
M  V30 1133 H 117.451 -6.10805 -2.16381 0
M  V30 1134 N 110.857 0.726932 -1.39834 0
M  V30 1135 C 111.767 1.87131 -1.41489 0
M  V30 1136 C 112.783 1.71239 -0.308757 0
M  V30 1137 O 113.959 1.93701 -0.551529 0
M  V30 1138 C 111.024 3.22811 -1.26468 0
M  V30 1139 C 110.085 3.51039 -2.47124 0
M  V30 1140 C 109.318 4.80245 -2.3281 0
M  V30 1141 O 109.541 5.54537 -1.33585 0
M  V30 1142 O 108.475 5.08554 -3.21957 0
M  V30 1143 H 112.301 1.8869 -2.3797 0
M  V30 1144 H 109.886 0.875837 -1.21035 0
M  V30 1145 H 111.768 4.03877 -1.20255 0
M  V30 1146 H 110.443 3.22005 -0.330862 0
M  V30 1147 H 109.35 2.70027 -2.58914 0
M  V30 1148 H 110.683 3.56632 -3.39227 0
M  V30 1149 N 112.336 1.25143 0.95797 0
M  V30 1150 C 113.564 1.12424 1.73691 0
M  V30 1151 C 113.979 -0.322304 1.86029 0
M  V30 1152 O 113.336 -1.22186 1.35561 0
M  V30 1153 C 113.387 1.76933 3.15241 0
M  V30 1154 O 113.108 3.15932 3.03511 0
M  V30 1155 C 114.609 1.6995 4.09429 0
M  V30 1156 H 111.829 0.3923 0.544373 0
M  V30 1157 H 114.373 1.6544 1.20207 0
M  V30 1158 H 112.528 1.27895 3.6568 0
M  V30 1159 H 112.942 3.47598 3.9278 0
M  V30 1160 H 114.416 2.19753 5.06372 0
M  V30 1161 H 114.893 0.662619 4.34173 0
M  V30 1162 H 115.499 2.18461 3.64904 0
M  V30 1163 N 113.814 -1.1601 1.06675 0
M  V30 1164 C 115.061 -1.86633 0.785781 0
M  V30 1165 C 115.389 -1.81929 -0.687896 0
M  V30 1166 O 114.644 -1.23253 -1.52011 0
M  V30 1167 C 114.943 -3.35547 1.23057 0
M  V30 1168 C 114.609 -3.60448 2.70902 0
M  V30 1169 C 113.271 -3.66954 3.11285 0
M  V30 1170 C 115.623 -3.7071 3.66365 0
M  V30 1171 C 112.951 -3.81225 4.45965 0
M  V30 1172 C 115.303 -3.86503 5.00797 0
M  V30 1173 C 113.967 -3.91252 5.40813 0
M  V30 1174 H 113.237 -0.682937 0.287538 0
M  V30 1175 H 115.884 -1.37146 1.33654 0
M  V30 1176 H 114.189 -3.87193 0.59907 0
M  V30 1177 H 115.886 -3.88583 0.990163 0
M  V30 1178 H 112.476 -3.56021 2.38636 0
M  V30 1179 H 116.66 -3.64991 3.36296 0
M  V30 1180 H 111.916 -3.83155 4.76447 0
M  V30 1181 H 116.09 -3.93385 5.74649 0
M  V30 1182 H 113.717 -4.02062 6.45174 0
M  V30 1183 N 115.292 -0.849877 -1.32721 0
M  V30 1184 C 116.708 -0.539102 -1.50219 0
M  V30 1185 C 116.908 0.931271 -1.78689 0
M  V30 1186 O 115.964 1.71455 -1.85363 0
M  V30 1187 C 117.277 -1.42196 -2.64954 0
M  V30 1188 C 118.825 -1.42189 -2.78839 0
M  V30 1189 C 119.3 -2.28985 -3.96648 0
M  V30 1190 N 120.791 -2.26754 -4.03902 0
M  V30 1191 C 121.526 -2.90644 -4.94281 0
M  V30 1192 N 121.022 -3.63629 -5.897 0
M  V30 1193 N 122.815 -2.80057 -4.87365 0
M  V30 1194 H 114.966 -1.80156 -1.12506 0
M  V30 1195 H 117.229 -0.769217 -0.554085 0
M  V30 1196 H 116.935 -2.46733 -2.50631 0
M  V30 1197 H 116.809 -1.10591 -3.60624 0
M  V30 1198 H 119.196 -0.38419 -2.92588 0
M  V30 1199 H 119.277 -1.77807 -1.83898 0
M  V30 1200 H 118.921 -3.32819 -3.83658 0
M  V30 1201 H 118.851 -1.90702 -4.90857 0
M  V30 1202 H 121.342 -1.73688 -3.3562 0
M  V30 1203 H 121.655 -4.09558 -6.55349 0
M  V30 1204 H 120 -3.67737 -5.89741 0
M  V30 1205 H 123.191 -2.22593 -4.11789 0
M  V30 1206 H 123.364 -3.30132 -5.57599 0
M  V30 1207 N 116.77 1.45427 -0.607355 0
M  V30 1208 C 117.718 2.32269 0.12411 0
M  V30 1209 C 118.712 1.45955 0.859854 0
M  V30 1210 O 119.918 1.6244 0.775447 0
M  V30 1211 H 116.293 0.749691 0.0588839 0
M  V30 1212 H 118.264 2.91743 -0.626762 0
M  V30 1213 C 117.013 3.29567 1.1082 0
M  V30 1214 H 116.336 3.95978 0.551492 0
M  V30 1215 H 117.776 3.93061 1.58995 0
M  V30 1216 C 116.235 2.56722 2.18164 0
M  V30 1217 O 116.765 2.34842 3.25902 0
M  V30 1218 N 114.971 2.16861 1.93442 0
M  V30 1219 H 114.518 2.34855 1.05834 0
M  V30 1220 H 114.476 1.68444 2.65469 0
M  V30 1221 N 118.248 0.346503 1.53744 0
M  V30 1222 C 119.178 -0.501193 2.28058 0
M  V30 1223 C 120.159 -1.10014 1.29734 0
M  V30 1224 O 121.344 -1.12097 1.58581 0
M  V30 1225 C 118.474 -1.65078 3.05559 0
M  V30 1226 C 117.428 -1.18003 4.11411 0
M  V30 1227 C 116.754 -2.41837 4.76884 0
M  V30 1228 C 118.054 -0.278394 5.21558 0
M  V30 1229 H 119.748 0.11875 2.99164 0
M  V30 1230 H 117.294 0.0585531 1.43881 0
M  V30 1231 H 119.247 -2.25028 3.56287 0
M  V30 1232 H 117.971 -2.29767 2.32109 0
M  V30 1233 H 116.63 -0.603331 3.61601 0
M  V30 1234 H 116.278 -3.0494 4.00026 0
M  V30 1235 H 115.978 -2.1102 5.48402 0
M  V30 1236 H 117.502 -3.02508 5.30397 0
M  V30 1237 H 118.916 -0.784823 5.67903 0
M  V30 1238 H 117.313 -0.0619707 6.00068 0
M  V30 1239 H 118.383 0.684677 4.80042 0
M  V30 1240 N 119.726 -1.57421 0.075193 0
M  V30 1241 C 120.673 -2.12915 -0.890843 0
M  V30 1242 C 121.643 -1.04252 -1.29309 0
M  V30 1243 O 122.828 -1.31933 -1.37834 0
M  V30 1244 C 119.968 -2.69795 -2.15186 0
M  V30 1245 C 119.081 -3.92624 -1.80194 0
M  V30 1246 C 118.216 -4.37736 -3.00933 0
M  V30 1247 C 117.255 -5.53205 -2.61974 0
M  V30 1248 N 116.392 -5.9326 -3.75483 0
M  V30 1249 H 121.232 -2.95156 -0.410735 0
M  V30 1250 H 118.769 -1.45854 -0.191086 0
M  V30 1251 H 120.727 -3.00883 -2.89008 0
M  V30 1252 H 119.357 -1.90313 -2.60731 0
M  V30 1253 H 118.409 -3.67977 -0.964218 0
M  V30 1254 H 119.721 -4.76482 -1.47534 0
M  V30 1255 H 118.875 -4.70503 -3.8303 0
M  V30 1256 H 117.614 -3.52739 -3.36789 0
M  V30 1257 H 116.619 -5.20086 -1.783 0
M  V30 1258 H 117.844 -6.39936 -2.27284 0
M  V30 1259 H 115.79 -5.11212 -4.11094 0
M  V30 1260 H 115.707 -6.71865 -3.46602 0
M  V30 1261 H 116.975 -6.30651 -4.58148 0
M  V30 1262 N 121.204 0.198386 -1.56346 0
M  V30 1263 C 122.434 0.934215 -1.84271 0
M  V30 1264 C 122.842 1.77496 -0.655125 0
M  V30 1265 O 122.185 1.7961 0.385488 0
M  V30 1266 C 122.247 1.88278 -3.06254 0
M  V30 1267 C 121.911 1.22431 -4.40295 0
M  V30 1268 C 122.908 0.602839 -5.16393 0
M  V30 1269 C 120.593 1.22915 -4.87029 0
M  V30 1270 C 122.587 -0.0050083 -6.374 0
M  V30 1271 C 120.274 0.617465 -6.07973 0
M  V30 1272 C 121.272 0.00146341 -6.83 0
M  V30 1273 O 120.96 -0.600642 -8.01653 0
M  V30 1274 H 120.692 0.278245 -0.616081 0
M  V30 1275 H 123.246 0.211626 -2.04307 0
M  V30 1276 H 121.476 2.64498 -2.82095 0
M  V30 1277 H 123.165 2.48612 -3.20853 0
M  V30 1278 H 123.931 0.591265 -4.81382 0
M  V30 1279 H 119.81 1.69801 -4.28589 0
M  V30 1280 H 123.354 -0.48643 -6.95902 0
M  V30 1281 H 119.251 0.62653 -6.42452 0
M  V30 1282 H 120.019 -0.497225 -8.16988 0
M  V30 1283 N 122.682 1.50554 0.465978 0
M  V30 1284 C 123.592 1.72585 1.58907 0
M  V30 1285 C 124.608 0.60911 1.6299 0
M  V30 1286 O 125.784 0.88804 1.80765 0
M  V30 1287 C 122.849 1.81995 2.95091 0
M  V30 1288 C 121.91 3.05751 3.01355 0
M  V30 1289 C 121.143 3.14702 4.31043 0
M  V30 1290 O 121.366 2.30313 5.21835 0
M  V30 1291 O 120.3 4.07468 4.43005 0
M  V30 1292 H 124.126 2.67799 1.43239 0
M  V30 1293 H 121.711 1.34711 0.646013 0
M  V30 1294 H 123.593 1.90335 3.75966 0
M  V30 1295 H 122.268 0.899659 3.10947 0
M  V30 1296 H 121.175 3.02908 2.19539 0
M  V30 1297 H 122.508 3.97375 2.90437 0
M  V30 1298 N 124.16 -0.719506 1.40217 0
M  V30 1299 C 125.406 -1.48152 1.38488 0
M  V30 1300 C 125.739 -1.94195 -0.0141867 0
M  V30 1301 O 125.014 -1.67884 -0.982096 0
M  V30 1302 C 125.297 -2.71035 2.37091 0
M  V30 1303 C 125.15 -2.30912 3.86005 0
M  V30 1304 C 126.469 -3.73182 2.33288 0
M  V30 1305 H 123.588 -0.537395 0.504357 0
M  V30 1306 H 126.23 -0.821472 1.71324 0
M  V30 1307 H 124.38 -3.27352 2.0922 0
M  V30 1308 H 126.052 -1.80107 4.24687 0
M  V30 1309 H 124.295 -1.62958 4.02029 0
M  V30 1310 H 124.966 -3.18978 4.50508 0
M  V30 1311 H 127.442 -3.26485 2.57966 0
M  V30 1312 H 126.318 -4.56806 3.04334 0
M  V30 1313 H 126.579 -4.21202 1.34317 0
M  V30 1314 N 125.638 -1.25649 -0.95132 0
M  V30 1315 C 127.054 -1.02542 -1.223 0
M  V30 1316 C 127.254 0.255715 -1.99871 0
M  V30 1317 O 126.31 0.967558 -2.33226 0
M  V30 1318 C 127.623 -2.25065 -1.99415 0
M  V30 1319 C 129.171 -2.29861 -2.12446 0
M  V30 1320 C 129.646 -3.52048 -2.92961 0
M  V30 1321 N 131.137 -3.52465 -3.00538 0
M  V30 1322 C 131.872 -4.43672 -3.63239 0
M  V30 1323 N 131.368 -5.45157 -4.27523 0
M  V30 1324 N 133.161 -4.31346 -3.60412 0
M  V30 1325 H 125.312 -2.07951 -0.432471 0
M  V30 1326 H 127.575 -0.91339 -0.253816 0
M  V30 1327 H 127.281 -3.18194 -1.49817 0
M  V30 1328 H 127.155 -2.28502 -3.00111 0
M  V30 1329 H 129.542 -1.37252 -2.61239 0
M  V30 1330 H 129.623 -2.3044 -1.11044 0
M  V30 1331 H 129.267 -4.44981 -2.44856 0
M  V30 1332 H 129.197 -3.48715 -3.94596 0
M  V30 1333 H 131.688 -2.79056 -2.54826 0
M  V30 1334 H 132.001 -6.10958 -4.73234 0
M  V30 1335 H 130.346 -5.49025 -4.26141 0
M  V30 1336 H 133.537 -3.51288 -3.09377 0
M  V30 1337 H 133.71 -5.02624 -4.0899 0
M  V30 1338 N 127.117 1.15442 -1.07289 0
M  V30 1339 C 128.065 2.22225 -0.686952 0
M  V30 1340 C 129.059 1.66688 0.30193 0
M  V30 1341 O 130.265 1.79236 0.165712 0
M  V30 1342 H 126.64 0.723783 -0.204064 0
M  V30 1343 H 128.611 2.52056 -1.5972 0
M  V30 1344 C 127.36 3.47556 -0.100149 0
M  V30 1345 H 126.683 3.90612 -0.852211 0
M  V30 1346 H 128.123 4.23794 0.132235 0
M  V30 1347 C 126.582 3.16337 1.159 0
M  V30 1348 O 127.112 3.33074 2.24555 0
M  V30 1349 N 125.318 2.70385 1.06491 0
M  V30 1350 H 124.865 2.56966 0.180668 0
M  V30 1351 H 124.823 2.49871 1.90819 0
M  V30 1352 N 128.595 0.856903 1.32268 0
M  V30 1353 C 129.542 0.301172 2.28827 0
M  V30 1354 C 130.512 -0.593104 1.5515 0
M  V30 1355 O 131.697 -0.527537 1.83362 0
M  V30 1356 C 128.837 -0.502523 3.41422 0
M  V30 1357 C 127.95 0.417797 4.29975 0
M  V30 1358 C 127.085 -0.398749 5.29701 0
M  V30 1359 C 126.124 0.518827 6.09897 0
M  V30 1360 N 125.261 -0.260674 7.01616 0
M  V30 1361 H 130.101 1.12983 2.75751 0
M  V30 1362 H 127.638 0.568582 1.35667 0
M  V30 1363 H 129.596 -0.984141 4.05426 0
M  V30 1364 H 128.226 -1.29599 2.95642 0
M  V30 1365 H 127.278 1.01781 3.66531 0
M  V30 1366 H 128.59 1.12191 4.86019 0
M  V30 1367 H 127.744 -0.943435 5.9932 0
M  V30 1368 H 126.483 -1.13622 4.7428 0
M  V30 1369 H 125.488 1.07538 5.39181 0
M  V30 1370 H 126.713 1.25495 6.67404 0
M  V30 1371 H 124.659 -0.981198 6.4862 0
M  V30 1372 H 124.576 0.384364 7.55022 0
M  V30 1373 H 125.844 -0.787014 7.75517 0
M  V30 1374 N 130.073 -1.45103 0.615059 0
M  V30 1375 C 131.021 -2.32331 -0.111791 0
M  V30 1376 C 132.015 -1.46409 -0.852102 0
M  V30 1377 O 133.221 -1.62849 -0.766821 0
M  V30 1378 H 129.596 -0.749993 -0.0549072 0
M  V30 1379 H 131.567 -2.91407 0.642225 0
M  V30 1380 C 130.316 -3.3015 -1.09071 0
M  V30 1381 H 129.639 -3.96265 -0.530485 0
M  V30 1382 H 131.079 -3.93898 -1.56908 0
M  V30 1383 C 129.538 -2.57875 -2.168 0
M  V30 1384 O 130.068 -2.36567 -3.24652 0
M  V30 1385 N 128.274 -2.17884 -1.92289 0
M  V30 1386 H 127.821 -2.35413 -1.04587 0
M  V30 1387 H 127.779 -1.6985 -2.64572 0
M  V30 1388 N 131.551 -0.354651 -1.53558 0
M  V30 1389 C 132.828 0.294281 -1.93374 0
M  V30 1390 C 133.208 1.67313 -1.28723 0
M  V30 1391 O 132.556 2.24179 -0.442247 0
M  V30 1392 C 132.766 0.355445 -3.47185 0
M  V30 1393 C 134.114 0.601007 -4.20325 0
M  V30 1394 O 135.138 0.437106 -3.53508 0
M  V30 1395 O 133.997 0.919322 -5.38712 0
M  V30 1396 H 131.091 0.174033 -0.808481 0
M  V30 1397 H 133.637 -0.406638 -1.64756 0
M  V30 1398 H 132.409 -0.611729 -3.86489 0
M  V30 1399 H 132.032 1.1027 -3.82003 0
M  V30 1400 N 133.029 1.57378 -0.0835403 0
M  V30 1401 C 133.959 2.1641 0.87686 0
M  V30 1402 C 134.94 1.09429 1.30228 0
M  V30 1403 O 136.125 1.37516 1.37124 0
M  V30 1404 C 133.255 2.73517 2.14022 0
M  V30 1405 C 132.209 3.85769 1.85381 0
M  V30 1406 C 131.535 4.29529 3.18448 0
M  V30 1407 C 132.835 5.09486 1.14984 0
M  V30 1408 H 134.529 2.96914 0.385059 0
M  V30 1409 H 132.075 1.42823 0.18377 0
M  V30 1410 H 134.028 3.13463 2.81636 0
M  V30 1411 H 132.752 1.90252 2.65465 0
M  V30 1412 H 131.411 3.46345 1.20169 0
M  V30 1413 H 131.059 3.43169 3.67755 0
M  V30 1414 H 130.759 5.05204 3.00071 0
M  V30 1415 H 132.283 4.72099 3.8724 0
M  V30 1416 H 133.697 5.46674 1.72687 0
M  V30 1417 H 132.094 5.90515 1.06826 0
M  V30 1418 H 133.164 4.84724 0.130749 0
M  V30 1419 N 134.507 -0.190092 1.56449 0
M  V30 1420 C 135.735 -0.925772 1.85033 0
M  V30 1421 C 136.15 -1.76638 0.666658 0
M  V30 1422 O 135.507 -1.78822 -0.364565 0
M  V30 1423 C 135.558 -1.81786 3.12468 0
M  V30 1424 O 135.279 -1.01118 4.26271 0
M  V30 1425 C 136.78 -2.6648 3.54265 0
M  V30 1426 H 134 -0.269872 0.614337 0
M  V30 1427 H 136.544 -0.195837 2.0356 0
M  V30 1428 H 134.699 -2.50136 2.95822 0
M  V30 1429 H 135.113 -1.61956 4.98869 0
M  V30 1430 H 136.587 -3.24722 4.46385 0
M  V30 1431 H 137.064 -3.40434 2.77491 0
M  V30 1432 H 137.67 -2.03493 3.73458 0
M  V30 1433 N 135.985 -1.50799 -0.457987 0
M  V30 1434 C 137.401 -1.38515 -0.792819 0
M  V30 1435 C 137.601 -0.451409 -1.96379 0
M  V30 1436 O 136.657 0.10112 -2.52297 0
M  V30 1437 C 137.97 -2.80149 -1.09258 0
M  V30 1438 C 139.518 -2.89156 -1.19825 0
M  V30 1439 C 139.993 -4.31651 -1.53106 0
M  V30 1440 N 141.484 -4.34662 -1.60072 0
M  V30 1441 C 142.219 -5.41928 -1.87354 0
M  V30 1442 N 141.715 -6.59384 -2.12568 0
M  V30 1443 N 143.508 -5.29385 -1.88965 0
M  V30 1444 H 135.659 -2.10073 0.313511 0
M  V30 1445 H 137.922 -0.944803 0.0777862 0
M  V30 1446 H 137.628 -3.50374 -0.305084 0
M  V30 1447 H 137.502 -3.18204 -2.02549 0
M  V30 1448 H 139.889 -2.19141 -1.97639 0
M  V30 1449 H 139.97 -2.54626 -0.244821 0
M  V30 1450 H 139.614 -5.02208 -0.758266 0
M  V30 1451 H 139.544 -4.63678 -2.49621 0
M  V30 1452 H 142.035 -3.49973 -1.42573 0
M  V30 1453 H 142.348 -7.36934 -2.32696 0
M  V30 1454 H 140.693 -6.62535 -2.09933 0
M  V30 1455 H 143.884 -4.36616 -1.68772 0
M  V30 1456 H 144.057 -6.13066 -2.09891 0
M  V30 1457 N 137.463 0.71206 -1.40597 0
M  V30 1458 C 138.373 1.8562 -1.43466 0
M  V30 1459 C 139.389 1.70902 -0.326902 0
M  V30 1460 O 140.565 1.93105 -0.572043 0
M  V30 1461 C 137.63 3.21451 -1.29884 0
M  V30 1462 C 136.691 3.48398 -2.50833 0
M  V30 1463 C 135.924 4.77749 -2.3789 0
M  V30 1464 O 136.147 5.53089 -1.39459 0
M  V30 1465 O 135.081 5.05111 -3.27333 0
M  V30 1466 H 138.907 1.86155 -2.39958 0
M  V30 1467 H 136.492 0.86295 -1.21957 0
M  V30 1468 H 138.374 4.02579 -1.24531 0
M  V30 1469 H 137.049 3.21636 -0.364997 0
M  V30 1470 H 135.956 2.67265 -2.61763 0
M  V30 1471 H 137.289 3.53014 -3.4299 0
M  V30 1472 N 138.941 1.26152 0.944643 0
M  V30 1473 C 139.851 1.09176 2.07648 0
M  V30 1474 C 140.867 0.0261935 1.7398 0
M  V30 1475 O 142.043 0.229208 2.00091 0
M  V30 1476 C 139.108 0.722915 3.39079 0
M  V30 1477 C 138.169 1.86752 3.86552 0
M  V30 1478 C 137.402 1.51617 5.11711 0
M  V30 1479 O 137.625 0.416331 5.68879 0
M  V30 1480 O 136.559 2.34975 5.54139 0
M  V30 1481 H 140.385 2.0412 2.24875 0
M  V30 1482 H 137.97 1.05182 1.061 0
M  V30 1483 H 139.852 0.529787 4.18056 0
M  V30 1484 H 138.527 -0.197159 3.23099 0
M  V30 1485 H 137.434 2.11558 3.08535 0
M  V30 1486 H 138.767 2.76719 4.07047 0
M  V30 1487 N 140.419 -1.14872 1.07899 0
M  V30 1488 C 141.668 -1.85135 0.800499 0
M  V30 1489 C 141.981 -1.83547 -0.676014 0
M  V30 1490 O 143.187 -2.49548 -1.06948 0
M  V30 1491 C 141.643 -3.3231 1.38197 0
M  V30 1492 C 141.251 -3.42329 2.8899 0
M  V30 1493 C 142.995 -4.0772 1.18174 0
M  V30 1494 C 140.902 -4.83684 3.403 0
M  V30 1495 H 139.832 -0.693563 0.29578 0
M  V30 1496 H 142.483 -1.29532 1.29976 0
M  V30 1497 H 140.865 -3.87618 0.810431 0
M  V30 1498 H 142.039 -2.97097 3.52236 0
M  V30 1499 H 140.354 -2.80369 3.07867 0
M  V30 1500 H 142.951 -5.12049 1.5398 0
M  V30 1501 H 143.294 -4.16124 0.12117 0
M  V30 1502 H 143.827 -3.58696 1.71994 0
M  V30 1503 H 140.566 -4.80465 4.45907 0
M  V30 1504 H 140.086 -5.29474 2.81811 0
M  V30 1505 H 141.765 -5.52558 3.36584 0
M  V30 1506 N 141.898 -0.863906 -1.31812 0
M  V30 1507 C 143.144 -0.472535 -1.97218 0
M  V30 1508 C 143.477 0.971394 -1.68159 0
M  V30 1509 O 142.752 1.68309 -0.974798 0
M  V30 1510 C 143.035 -0.723054 -3.52766 0
M  V30 1511 C 142.888 -2.21608 -3.91421 0
M  V30 1512 C 144.207 -0.185522 -4.39709 0
M  V30 1513 H 141.326 -0.173158 -0.71637 0
M  V30 1514 H 143.968 -1.08403 -1.56041 0
M  V30 1515 H 142.118 -0.202577 -3.87971 0
M  V30 1516 H 143.79 -2.80334 -3.66347 0
M  V30 1517 H 142.033 -2.691 -3.40246 0
M  V30 1518 H 142.704 -2.34203 -4.99853 0
M  V30 1519 H 145.18 -0.630726 -4.11292 0
M  V30 1520 H 144.056 -0.390306 -5.47511 0
M  V30 1521 H 144.317 0.912229 -4.32586 0
M  V30 1522 N 143.376 1.44774 -0.622745 0
M  V30 1523 C 144.286 2.34433 0.0886031 0
M  V30 1524 C 145.302 1.52131 0.844529 0
M  V30 1525 O 146.478 1.84886 0.798691 0
M  V30 1526 C 143.543 3.29986 1.0635 0
M  V30 1527 C 142.604 4.28195 0.307873 0
M  V30 1528 C 141.837 5.19183 1.23633 0
M  V30 1529 O 142.06 5.13918 2.47476 0
M  V30 1530 O 140.994 5.97515 0.725189 0
M  V30 1531 H 144.82 2.96693 -0.648599 0
M  V30 1532 H 142.405 1.44408 -0.382957 0
M  V30 1533 H 144.287 3.88825 1.6246 0
M  V30 1534 H 142.962 2.70269 1.78146 0
M  V30 1535 H 141.869 3.72927 -0.296064 0
M  V30 1536 H 143.202 4.90808 -0.3699 0
M  V30 1537 N 144.854 0.36279 1.53368 0
M  V30 1538 C 145.784 -0.476976 2.28576 0
M  V30 1539 C 146.765 -1.08631 1.30894 0
M  V30 1540 O 147.95 -1.10409 1.59761 0
M  V30 1541 C 145.08 -1.61828 3.07293 0
M  V30 1542 C 144.034 -1.13633 4.1264 0
M  V30 1543 C 143.36 -2.36766 4.79423 0
M  V30 1544 C 144.66 -0.223061 5.21823 0
M  V30 1545 H 146.354 0.150474 2.99022 0
M  V30 1546 H 143.9 0.0738103 1.43811 0
M  V30 1547 H 145.853 -2.21237 3.58653 0
M  V30 1548 H 144.577 -2.27292 2.34533 0
M  V30 1549 H 143.236 -0.564945 3.62221 0
M  V30 1550 H 142.884 -3.0068 4.03238 0
M  V30 1551 H 142.584 -2.05192 5.50609 0
M  V30 1552 H 144.108 -2.96865 5.33576 0
M  V30 1553 H 145.522 -0.724545 5.68703 0
M  V30 1554 H 143.919 0.001678 6.001 0
M  V30 1555 H 144.989 0.735553 4.79289 0
M  V30 1556 N 146.332 -1.57332 0.0918853 0
M  V30 1557 C 147.265 -2.09499 -0.904735 0
M  V30 1558 C 148.243 -1.00479 -1.27839 0
M  V30 1559 O 149.427 -1.27954 -1.38419 0
M  V30 1560 C 146.554 -2.56931 -2.2069 0
M  V30 1561 C 145.6 -3.77579 -1.98334 0
M  V30 1562 S 146.433 -5.21317 -1.22428 0
M  V30 1563 C 147.589 -5.72097 -2.53882 0
M  V30 1564 H 147.822 -2.93705 -0.460922 0
M  V30 1565 H 145.355 -1.53923 -0.121332 0
M  V30 1566 H 147.313 -2.84917 -2.95521 0
M  V30 1567 H 145.974 -1.72956 -2.62192 0
M  V30 1568 H 145.167 -4.08824 -2.94752 0
M  V30 1569 H 144.769 -3.5007 -1.31633 0
M  V30 1570 H 147.061 -5.80168 -3.49874 0
M  V30 1571 H 148.004 -6.70654 -2.27219 0
M  V30 1572 H 148.412 -5.00012 -2.62007 0
M  V30 1573 N 147.81 0.181792 -1.56548 0
M  V30 1574 C 149.226 0.53316 -1.50431 0
M  V30 1575 C 149.426 1.85184 -0.794297 0
M  V30 1576 O 148.482 2.50058 -0.350318 0
M  V30 1577 C 149.795 0.575597 -2.9514 0
M  V30 1578 C 151.343 0.663519 -3.05886 0
M  V30 1579 C 151.818 0.736946 -4.52032 0
M  V30 1580 N 153.309 0.800118 -4.56237 0
M  V30 1581 C 154.044 0.877327 -5.66649 0
M  V30 1582 N 153.54 0.916016 -6.86718 0
M  V30 1583 N 155.333 0.915542 -5.54594 0
M  V30 1584 H 147.484 -0.683025 -2.01118 0
M  V30 1585 H 149.747 -0.244988 -0.915797 0
M  V30 1586 H 149.453 -0.324482 -3.502 0
M  V30 1587 H 149.327 1.42572 -3.49218 0
M  V30 1588 H 151.714 1.55403 -2.50867 0
M  V30 1589 H 151.795 -0.21307 -2.54911 0
M  V30 1590 H 151.439 -0.149262 -5.07681 0
M  V30 1591 H 151.369 1.62953 -5.00753 0
M  V30 1592 H 153.86 0.778926 -3.69785 0
M  V30 1593 H 154.173 0.975813 -7.66614 0
M  V30 1594 H 152.518 0.884469 -6.89349 0
M  V30 1595 H 155.709 0.882245 -4.59711 0
M  V30 1596 H 155.882 0.972253 -6.40665 0
M  V30 1597 N 149.288 1.51039 0.449983 0
M  V30 1598 C 150.565 1.53612 1.21089 0
M  V30 1599 C 150.945 0.292997 2.09057 0
M  V30 1600 O 150.293 -0.72259 2.16774 0
M  V30 1601 C 150.503 2.84337 2.0237 0
M  V30 1602 C 151.851 3.35807 2.59843 0
M  V30 1603 O 152.875 2.85802 2.12593 0
M  V30 1604 O 151.734 4.23029 3.45989 0
M  V30 1605 H 148.828 0.617057 0.550608 0
M  V30 1606 H 151.374 1.63344 0.460082 0
M  V30 1607 H 150.146 3.66278 1.37681 0
M  V30 1608 H 149.769 2.77708 2.84542 0
M  V30 1609 N 150.766 -0.704594 1.40972 0
M  V30 1610 C 152.012 -1.46675 1.40051 0
M  V30 1611 C 152.345 -1.94199 0.00641102 0
M  V30 1612 O 151.62 -1.68916 -0.964235 0
M  V30 1613 C 151.903 -2.68505 2.39952 0
M  V30 1614 C 151.756 -2.26805 3.88432 0
M  V30 1615 C 153.075 -3.70686 2.37233 0
M  V30 1616 H 150.194 -0.532015 0.510028 0
M  V30 1617 H 152.836 -0.803255 1.72185 0
M  V30 1618 H 150.986 -3.25114 2.1268 0
M  V30 1619 H 152.658 -1.75592 4.26574 0
M  V30 1620 H 150.901 -1.58685 4.03734 0
M  V30 1621 H 151.572 -3.14181 4.53866 0
M  V30 1622 H 154.048 -3.23731 2.61415 0
M  V30 1623 H 152.924 -4.53553 3.09162 0
M  V30 1624 H 153.185 -4.19754 1.38777 0
M  V30 1625 N 152.244 -1.26651 -0.937939 0
M  V30 1626 C 153.469 -1.15279 -1.72411 0
M  V30 1627 C 153.894 0.287866 -1.85884 0
M  V30 1628 O 153.252 1.20855 -1.35143 0
M  V30 1629 C 153.3 -1.83028 -3.10698 0
M  V30 1630 O 152.404 -1.12128 -3.96864 0
M  V30 1631 H 151.745 -0.401504 -0.528858 0
M  V30 1632 H 154.275 -1.67531 -1.1745 0
M  V30 1633 H 154.285 -1.89981 -3.6107 0
M  V30 1634 H 152.96 -2.87833 -3.00208 0
M  V30 1635 H 151.537 -1.13173 -3.55312 0
M  V30 1636 N 153.722 1.14298 -1.08507 0
M  V30 1637 C 154.669 2.19414 -0.715965 0
M  V30 1638 C 155.639 1.63399 0.298326 0
M  V30 1639 O 156.824 1.89929 0.182101 0
M  V30 1640 C 153.964 3.44845 -0.132534 0
M  V30 1641 C 153.077 4.15007 -1.19973 0
M  V30 1642 C 152.212 5.28024 -0.580048 0
M  V30 1643 C 151.251 5.9002 -1.62921 0
M  V30 1644 N 150.388 6.94485 -1.03125 0
M  V30 1645 H 155.228 2.50336 -1.61666 0
M  V30 1646 H 152.765 1.2293 -0.807882 0
M  V30 1647 H 154.723 4.16601 0.223454 0
M  V30 1648 H 153.353 3.14403 0.731467 0
M  V30 1649 H 152.405 3.41629 -1.67313 0
M  V30 1650 H 153.717 4.57178 -1.99473 0
M  V30 1651 H 152.871 6.06455 -0.172364 0
M  V30 1652 H 151.61 4.87076 0.246603 0
M  V30 1653 H 150.615 5.10291 -2.04654 0
M  V30 1654 H 151.84 6.33042 -2.45835 0
M  V30 1655 H 149.786 6.55612 -0.225711 0
M  V30 1656 H 149.703 7.35148 -1.76334 0
M  V30 1657 H 150.971 7.7679 -0.649458 0
M  V30 1658 N 155.201 0.870884 1.31352 0
M  V30 1659 C 156.111 0.330783 2.32256 0
M  V30 1660 C 157.127 -0.559767 1.6475 0
M  V30 1661 O 158.303 -0.456263 1.96164 0
M  V30 1662 C 155.368 -0.458137 3.4366 0
M  V30 1663 C 154.429 0.460482 4.26823 0
M  V30 1664 C 153.662 -0.290881 5.32907 0
M  V30 1665 O 153.885 -1.51885 5.49806 0
M  V30 1666 O 152.819 0.351732 6.00871 0
M  V30 1667 H 156.645 1.16718 2.80376 0
M  V30 1668 H 154.23 0.634285 1.35267 0
M  V30 1669 H 156.112 -0.905343 4.1156 0
M  V30 1670 H 154.787 -1.27106 2.97701 0
M  V30 1671 H 153.694 0.956207 3.61673 0
M  V30 1672 H 155.027 1.23903 4.7635 0
M  V30 1673 N 156.679 -1.44442 0.630414 0
M  V30 1674 C 157.956 -1.9549 0.0655657 0
M  V30 1675 C 158.336 -1.5724 -1.40851 0
M  V30 1676 O 157.684 -0.846116 -2.12257 0
M  V30 1677 C 157.894 -3.47812 0.287691 0
M  V30 1678 C 159.242 -4.24216 0.180513 0
M  V30 1679 O 160.266 -3.55526 0.219019 0
M  V30 1680 O 159.125 -5.46434 0.0848493 0
M  V30 1681 H 156.219 -0.826688 -0.0227177 0
M  V30 1682 H 158.765 -1.54496 0.702068 0
M  V30 1683 H 157.537 -3.687 1.31056 0
M  V30 1684 H 157.16 -3.95751 -0.382984 0
M  V30 1685 N 158.157 -0.370918 -1.53173 0
M  V30 1686 C 159.107 0.489588 -2.22681 0
M  V30 1687 C 160.091 1.04442 -1.22395 0
M  V30 1688 O 161.283 0.973578 -1.47819 0
M  V30 1689 C 158.412 1.626 -3.02351 0
M  V30 1690 C 157.498 1.08379 -4.10018 0
M  V30 1691 N 157.889 0.265004 -5.05105 0
M  V30 1692 C 156.187 1.35809 -4.2482 0
M  V30 1693 C 156.888 -0.0324755 -5.81691 0
M  V30 1694 N 155.864 0.566581 -5.40639 0
M  V30 1695 H 159.666 -0.142729 -2.93553 0
M  V30 1696 H 157.18 -0.179221 -1.61408 0
M  V30 1697 H 159.177 2.2547 -3.50669 0
M  V30 1698 H 157.837 2.26132 -2.33011 0
M  V30 1699 H 158.848 -0.0962352 -5.17811 0
M  V30 1700 H 155.525 1.9958 -3.66707 0
M  V30 1701 H 156.915 -0.69473 -6.68299 0
M  V30 1702 N 159.635 1.57281 -0.100228 0
M  V30 1703 C 160.86 1.99302 0.573881 0
M  V30 1704 C 161.285 0.979059 1.60611 0
M  V30 1705 O 160.643 -0.0517803 1.81226 0
M  V30 1706 C 160.691 3.40274 1.19358 0
M  V30 1707 O 159.795 3.41676 2.30935 0
M  V30 1708 H 159.136 0.647944 0.145138 0
M  V30 1709 H 161.666 2.03779 -0.183156 0
M  V30 1710 H 161.676 3.78078 1.53365 0
M  V30 1711 H 160.351 4.13594 0.437385 0
M  V30 1712 H 158.928 3.15672 1.98509 0
M  V30 1713 N 161.113 -0.173488 1.56642 0
M  V30 1714 C 162.06 -1.21482 1.96242 0
M  V30 1715 C 163.03 -1.44104 0.826027 0
M  V30 1716 O 164.215 -1.5688 1.08597 0
M  V30 1717 C 161.355 -2.54964 2.32567 0
M  V30 1718 C 160.468 -2.39739 3.59373 0
M  V30 1719 C 159.603 -3.66072 3.84921 0
M  V30 1720 C 158.642 -3.45771 5.05083 0
M  V30 1721 N 157.779 -4.64169 5.26775 0
M  V30 1722 H 162.619 -0.870123 2.85014 0
M  V30 1723 H 160.156 -0.418245 1.41029 0
M  V30 1724 H 162.114 -3.32758 2.5165 0
M  V30 1725 H 160.744 -2.87433 1.46908 0
M  V30 1726 H 159.796 -1.53131 3.48217 0
M  V30 1727 H 161.108 -2.20683 4.47326 0
M  V30 1728 H 160.262 -4.52303 4.0436 0
M  V30 1729 H 159.001 -3.88105 2.9534 0
M  V30 1730 H 158.006 -2.57927 4.85545 0
M  V30 1731 H 159.231 -3.25163 5.96193 0
M  V30 1732 H 157.177 -4.86425 4.40144 0
M  V30 1733 H 157.094 -4.48019 6.08946 0
M  V30 1734 H 158.362 -5.51689 5.5069 0
M  V30 1735 N 162.591 -1.51276 -0.441967 0
M  V30 1736 C 164.007 -1.39349 -0.778083 0
M  V30 1737 C 164.207 -0.472212 -1.95889 0
M  V30 1738 O 163.263 0.0743551 -2.5239 0
M  V30 1739 C 164.576 -2.81292 -1.0628 0
M  V30 1740 C 166.124 -2.9041 -1.16751 0
M  V30 1741 C 166.599 -4.33251 -1.48519 0
M  V30 1742 N 168.09 -4.36336 -1.55453 0
M  V30 1743 C 168.825 -5.43885 -1.81596 0
M  V30 1744 N 168.321 -6.61601 -2.05562 0
M  V30 1745 N 170.114 -5.3136 -1.8334 0
M  V30 1746 H 162.265 -2.09729 0.335774 0
M  V30 1747 H 164.528 -0.943925 0.0878028 0
M  V30 1748 H 164.234 -3.50678 -0.267905 0
M  V30 1749 H 164.108 -3.20334 -1.99163 0
M  V30 1750 H 166.495 -2.21225 -1.95304 0
M  V30 1751 H 166.576 -2.54871 -0.217801 0
M  V30 1752 H 166.22 -5.02984 -0.704958 0
M  V30 1753 H 166.15 -4.66299 -2.44689 0
M  V30 1754 H 168.641 -3.51466 -1.38853 0
M  V30 1755 H 168.954 -7.39361 -2.24867 0
M  V30 1756 H 167.299 -6.64725 -2.02894 0
M  V30 1757 H 170.49 -4.38382 -1.64132 0
M  V30 1758 H 170.663 -6.15258 -2.03377 0
M  V30 1759 N 164.069 0.697108 -1.41344 0
M  V30 1760 C 165.294 1.49096 -1.44171 0
M  V30 1761 C 165.719 1.88038 -0.0481568 0
M  V30 1762 O 165.077 1.54525 0.948243 0
M  V30 1763 C 165.125 2.73088 -2.3549 0
M  V30 1764 O 164.229 3.70514 -1.81088 0
M  V30 1765 H 163.57 0.448801 -0.489361 0
M  V30 1766 H 166.1 0.856992 -1.85787 0
M  V30 1767 H 166.11 3.21413 -2.51312 0
M  V30 1768 H 164.785 2.44081 -3.36745 0
M  V30 1769 H 163.362 3.29441 -1.74708 0
M  V30 1770 N 165.547 1.27147 0.931209 0
M  V30 1771 C 166.772 1.16191 1.71797 0
M  V30 1772 C 167.197 -0.278004 1.86034 0
M  V30 1773 O 166.555 -1.20137 1.35782 0
M  V30 1774 C 166.603 1.84673 3.09723 0
M  V30 1775 O 165.707 1.14231 3.96264 0
M  V30 1776 H 165.048 0.404303 0.526721 0
M  V30 1777 H 167.578 1.68152 1.1656 0
M  V30 1778 H 167.588 1.91893 3.60057 0
M  V30 1779 H 166.263 2.89421 2.98677 0
M  V30 1780 H 164.84 1.15056 3.54706 0
M  V30 1781 N 167.025 -1.13721 1.09112 0
M  V30 1782 C 168.272 -1.84924 0.825192 0
M  V30 1783 C 168.6 -1.83347 -0.649151 0
M  V30 1784 O 167.855 -1.26449 -1.49362 0
M  V30 1785 C 168.154 -3.32861 1.30146 0
M  V30 1786 C 167.82 -3.54621 2.78486 0
M  V30 1787 C 166.482 -3.60268 3.18999 0
M  V30 1788 C 168.834 -3.62855 3.74146 0
M  V30 1789 C 166.162 -3.71679 4.53951 0
M  V30 1790 C 168.514 -3.75793 5.08883 0
M  V30 1791 C 167.178 -3.79692 5.4899 0
M  V30 1792 H 166.448 -0.676684 0.301959 0
M  V30 1793 H 169.095 -1.3428 1.36533 0
M  V30 1794 H 167.4 -3.85835 0.681064 0
M  V30 1795 H 169.097 -3.86395 1.07236 0
M  V30 1796 H 165.687 -3.50879 2.46134 0
M  V30 1797 H 169.871 -3.57775 3.43963 0
M  V30 1798 H 165.127 -3.72963 4.84467 0
M  V30 1799 H 169.301 -3.81107 5.82864 0
M  V30 1800 H 166.928 -3.88287 6.53558 0
M  V30 1801 N 168.503 -0.877838 -1.30888 0
M  V30 1802 C 169.749 -0.493426 -1.96706 0
M  V30 1803 C 170.082 0.953504 -1.6918 0
M  V30 1804 O 169.357 1.67266 -0.992594 0
M  V30 1805 C 169.64 -0.760429 -3.51979 0
M  V30 1806 C 169.493 -2.25747 -3.89048 0
M  V30 1807 C 170.812 -0.232148 -4.39487 0
M  V30 1808 H 167.931 -0.180746 -0.714493 0
M  V30 1809 H 170.573 -1.10052 -1.54882 0
M  V30 1810 H 168.723 -0.243715 -3.87735 0
M  V30 1811 H 170.395 -2.84204 -3.63354 0
M  V30 1812 H 168.638 -2.72694 -3.37373 0
M  V30 1813 H 169.309 -2.39491 -4.97341 0
M  V30 1814 H 171.785 -0.674314 -4.106 0
M  V30 1815 H 170.661 -0.448355 -5.47066 0
M  V30 1816 H 170.922 0.866297 -4.33529 0
M  V30 1817 N 169.982 1.44106 -0.638065 0
M  V30 1818 C 171.222 2.03858 -0.148733 0
M  V30 1819 C 171.586 1.49153 1.20903 0
M  V30 1820 O 172.787 2.00452 1.79088 0
M  V30 1821 C 171.058 3.57117 -0.142314 0
M  V30 1822 S 172.617 4.37897 0.281385 0
M  V30 1823 H 169.435 0.708069 -0.0644912 0
M  V30 1824 H 172.037 1.7639 -0.843009 0
M  V30 1825 H 170.741 3.94436 -1.13349 0
M  V30 1826 H 170.272 3.89205 0.572988 0
M  V30 1827 H 172.287 4.72218 1.52395 0
M  V30 1828 N 171.46 0.379036 1.52974 0
M  V30 1829 C 172.706 -0.206727 2.01744 0
M  V30 1830 C 173.039 -1.47314 1.26539 0
M  V30 1831 O 172.314 -1.91084 0.362903 0
M  V30 1832 C 172.597 -0.485066 3.56818 0
M  V30 1833 C 172.45 0.795919 4.42702 0
M  V30 1834 C 173.769 -1.28003 4.21074 0
M  V30 1835 H 170.888 -0.0736607 0.73331 0
M  V30 1836 H 173.53 0.506581 1.83122 0
M  V30 1837 H 171.68 -1.09272 3.72816 0
M  V30 1838 H 173.352 1.43307 4.38476 0
M  V30 1839 H 171.595 1.41344 4.10127 0
M  V30 1840 H 172.266 0.555947 5.49193 0
M  V30 1841 H 174.742 -0.765867 4.08991 0
M  V30 1842 H 173.618 -1.44352 5.29579 0
M  V30 1843 H 173.879 -2.29236 3.78026 0
M  V30 1844 N 172.938 -1.57226 0.108567 0
M  V30 1845 C 173.868 -2.17778 -0.84232 0
M  V30 1846 C 174.849 -1.11487 -1.2847 0
M  V30 1847 O 176.034 -1.39681 -1.34918 0
M  V30 1848 C 173.164 -2.76888 -2.09644 0
M  V30 1849 C 172.118 -3.88669 -1.79221 0
M  V30 1850 C 171.444 -4.34541 -3.11574 0
M  V30 1851 C 172.744 -5.11251 -1.06864 0
M  V30 1852 H 174.438 -2.97489 -0.337774 0
M  V30 1853 H 171.984 -1.43097 -0.161025 0
M  V30 1854 H 173.937 -3.17904 -2.76614 0
M  V30 1855 H 172.661 -1.94451 -2.62405 0
M  V30 1856 H 171.32 -3.48213 -1.14644 0
M  V30 1857 H 170.968 -3.48977 -3.62249 0
M  V30 1858 H 170.668 -5.09914 -2.91996 0
M  V30 1859 H 172.192 -4.782 -3.7968 0
M  V30 1860 H 173.606 -5.49352 -1.63968 0
M  V30 1861 H 172.003 -5.9214 -0.974178 0
M  V30 1862 H 173.073 -4.8487 -0.0536168 0
M  V30 1863 N 174.416 0.165178 -1.56732 0
M  V30 1864 C 175.346 1.20651 -1.99914 0
M  V30 1865 C 176.327 1.45827 -0.875705 0
M  V30 1866 O 177.512 1.57057 -1.14223 0
M  V30 1867 C 174.642 2.54401 -2.36427 0
M  V30 1868 C 173.596 2.43782 -3.51787 0
M  V30 1869 C 172.922 3.82078 -3.7406 0
M  V30 1870 C 174.222 1.93732 -4.85041 0
M  V30 1871 H 175.916 0.847534 -2.87154 0
M  V30 1872 H 173.462 0.40625 -1.38151 0
M  V30 1873 H 175.415 3.27458 -2.65234 0
M  V30 1874 H 174.139 2.92098 -1.46103 0
M  V30 1875 H 172.798 1.73178 -3.23117 0
M  V30 1876 H 172.446 4.17179 -2.81017 0
M  V30 1877 H 172.146 3.7584 -4.51684 0
M  V30 1878 H 173.67 4.56712 -4.05274 0
M  V30 1879 H 175.084 2.56569 -5.12684 0
M  V30 1880 H 173.481 1.98428 -5.66345 0
M  V30 1881 H 174.551 0.891962 -4.76626 0
M  V30 1882 N 175.894 1.51508 0.433938 0
M  V30 1883 C 177.119 1.68443 1.21003 0
M  V30 1884 C 177.544 0.382636 1.84167 0
M  V30 1885 O 176.902 -0.65755 1.68956 0
M  V30 1886 C 176.95 2.80405 2.26727 0
M  V30 1887 O 176.054 2.44245 3.32292 0
M  V30 1888 H 175.395 0.561536 0.354363 0
M  V30 1889 H 177.925 1.9809 0.512024 0
M  V30 1890 H 177.935 3.0459 2.71457 0
M  V30 1891 H 176.61 3.74867 1.80132 0
M  V30 1892 H 175.187 2.30644 2.93015 0
M  V30 1893 N 177.372 -0.689602 1.41712 0
M  V30 1894 C 178.322 -1.79571 1.40493 0
M  V30 1895 C 179.306 -1.58473 0.278409 0
M  V30 1896 O 180.498 -1.69204 0.519532 0
M  V30 1897 C 177.627 -3.17923 1.29536 0
M  V30 1898 C 176.713 -3.44695 2.47075 0
M  V30 1899 N 177.104 -3.42132 3.72531 0
M  V30 1900 C 175.402 -3.75269 2.41017 0
M  V30 1901 C 176.103 -3.67976 4.50521 0
M  V30 1902 N 175.079 -3.88014 3.80718 0
M  V30 1903 H 178.881 -1.75961 2.35404 0
M  V30 1904 H 176.395 -0.889839 1.35851 0
M  V30 1905 H 178.392 -3.97167 1.26745 0
M  V30 1906 H 177.052 -3.22741 0.356153 0
M  V30 1907 H 178.063 -3.22375 4.05333 0
M  V30 1908 H 174.74 -3.87421 1.55599 0
M  V30 1909 H 176.13 -3.7208 5.59469 0
M  V30 1910 N 178.85 -1.27639 -0.924453 0
M  V30 1911 C 180.098 -1.13941 -1.66918 0
M  V30 1912 C 180.419 0.314589 -1.92446 0
M  V30 1913 O 179.689 1.21964 -1.53303 0
M  V30 1914 H 178.269 -0.418678 -0.618642 0
M  V30 1915 H 180.931 -1.60213 -1.10985 0
M  V30 1916 H 180.027 -1.67094 -2.63602 0
M  V30 1917 N 180.328 1.1314 -1.09713 0
M  V30 1918 C 181.238 2.22242 -0.751367 0
M  V30 1919 C 182.254 1.72224 0.247938 0
M  V30 1920 O 183.43 2.01205 0.0885463 0
M  V30 1921 C 180.495 3.46231 -0.180274 0
M  V30 1922 C 179.556 4.11125 -1.2359 0
M  V30 1923 C 178.789 5.29195 -0.691966 0
M  V30 1924 O 179.012 5.68342 0.48414 0
M  V30 1925 O 177.946 5.84214 -1.44838 0
M  V30 1926 H 181.772 2.54197 -1.66186 0
M  V30 1927 H 179.357 1.21331 -0.871735 0
M  V30 1928 H 181.239 4.21185 0.134739 0
M  V30 1929 H 179.914 3.1597 0.703185 0
M  V30 1930 H 178.821 3.37985 -1.60366 0
M  V30 1931 H 180.154 4.45524 -2.09211 0
M  V30 1932 N 181.806 0.884767 1.30421 0
M  V30 1933 C 182.716 0.355398 2.31892 0
M  V30 1934 C 183.732 -0.542261 1.65335 0
M  V30 1935 O 184.908 -0.435432 1.96637 0
M  V30 1936 C 181.973 -0.421661 3.44126 0
M  V30 1937 C 181.034 0.505727 4.26311 0
M  V30 1938 C 180.267 -0.234343 5.33185 0
M  V30 1939 O 180.49 -1.46045 5.51386 0
M  V30 1940 O 179.424 0.415443 6.00465 0
M  V30 1941 H 183.25 1.19685 2.79122 0
M  V30 1942 H 180.835 0.648596 1.34587 0
M  V30 1943 H 182.717 -0.861641 4.12497 0
M  V30 1944 H 181.392 -1.23942 2.99032 0
M  V30 1945 H 180.299 0.994513 3.60639 0
M  V30 1946 H 181.632 1.28948 4.75009 0
M  V30 1947 N 183.284 -1.43765 0.645699 0
M  V30 1948 C 184.532 -2.01499 0.155731 0
M  V30 1949 C 184.853 -1.51151 -1.232 0
M  V30 1950 O 184.123 -0.721044 -1.82148 0
M  V30 1951 H 182.703 -0.745003 0.0545817 0
M  V30 1952 H 185.365 -1.76075 0.835677 0
M  V30 1953 H 184.461 -3.1181 0.134577 0
M  V30 1954 N 184.763 -0.387143 -1.52771 0
M  V30 1955 C 186.012 0.19697 -2.00736 0
M  V30 1956 C 186.325 1.48082 -1.27793 0
M  V30 1957 O 187.531 2.14485 -1.66458 0
M  V30 1958 C 185.987 0.401568 -3.57653 0
M  V30 1959 C 185.595 -0.868907 -4.39493 0
M  V30 1960 C 187.339 0.942164 -4.13912 0
M  V30 1961 C 185.246 -0.632705 -5.88006 0
M  V30 1962 H 184.176 0.0773827 -0.750019 0
M  V30 1963 H 186.827 -0.50921 -1.76293 0
M  V30 1964 H 185.209 1.16954 -3.78335 0
M  V30 1965 H 186.383 -1.64133 -4.30577 0
M  V30 1966 H 184.698 -1.33429 -3.94443 0
M  V30 1967 H 187.295 1.13455 -5.22525 0
M  V30 1968 H 187.638 1.9106 -3.69867 0
M  V30 1969 H 188.171 0.233814 -3.97112 0
M  V30 1970 H 184.91 -1.57208 -6.36369 0
M  V30 1971 H 184.43 0.100825 -5.99715 0
M  V30 1972 H 186.109 -0.26642 -6.46451 0
M  V30 1973 N 186.241 1.57166 -0.116904 0
M  V30 1974 C 187.49 1.94298 0.541407 0
M  V30 1975 C 187.803 1.00236 1.67964 0
M  V30 1976 O 189.009 1.26826 2.40057 0
M  V30 1977 C 187.465 3.45306 1.01449 0
M  V30 1978 C 187.073 4.47899 -0.0951738 0
M  V30 1979 C 188.817 3.91361 1.6443 0
M  V30 1980 C 186.724 5.90083 0.394491 0
M  V30 1981 H 185.654 0.725308 0.206019 0
M  V30 1982 H 188.305 1.82446 -0.196419 0
M  V30 1983 H 186.687 3.52385 1.80667 0
M  V30 1984 H 187.861 4.52486 -0.871374 0
M  V30 1985 H 186.176 4.11583 -0.631505 0
M  V30 1986 H 188.773 4.95004 2.02176 0
M  V30 1987 H 189.116 3.3122 2.52189 0
M  V30 1988 H 189.649 3.87073 0.917559 0
M  V30 1989 H 186.388 6.53974 -0.447004 0
M  V30 1990 H 185.908 5.88921 1.13722 0
M  V30 1991 H 187.587 6.41307 0.856399 0
M  V30 1992 N 187.719 -0.156864 1.56817 0
M  V30 1993 C 188.966 -0.871125 1.82805 0
M  V30 1994 C 189.294 -1.81611 0.696262 0
M  V30 1995 O 188.549 -1.93141 -0.315459 0
M  V30 1996 C 188.848 -1.68737 3.1506 0
M  V30 1997 C 188.514 -0.890045 4.42028 0
M  V30 1998 C 187.176 -0.670042 4.76512 0
M  V30 1999 C 189.528 -0.331769 5.20143 0
M  V30 2000 C 186.856 0.119104 5.86579 0
M  V30 2001 C 189.208 0.444365 6.31037 0
M  V30 2002 C 187.872 0.675035 6.64078 0
M  V30 2003 H 187.142 -0.318767 0.668931 0
M  V30 2004 H 189.789 -0.135274 1.91022 0
M  V30 2005 H 188.094 -2.49304 3.0225 0
M  V30 2006 H 189.791 -2.24331 3.3238 0
M  V30 2007 H 186.381 -1.07157 4.14988 0
M  V30 2008 H 190.565 -0.489043 4.93885 0
M  V30 2009 H 185.821 0.307417 6.10627 0
M  V30 2010 H 189.995 0.884139 6.90765 0
M  V30 2011 H 187.622 1.28839 7.49203 0
M  V30 2012 N 189.197 -1.51736 -0.425897 0
M  V30 2013 C 190.445 -1.64644 -1.17204 0
M  V30 2014 C 190.766 -0.370486 -1.91448 0
M  V30 2015 O 190.036 0.614088 -1.86026 0
M  V30 2016 H 188.616 -0.606819 -0.435638 0
M  V30 2017 H 191.278 -1.88713 -0.487177 0
M  V30 2018 H 190.374 -2.47958 -1.89534 0
M  V30 2019 N 190.675 0.682077 -1.42076 0
M  V30 2020 C 191.903 1.47057 -1.4554 0
M  V30 2021 C 192.318 1.8869 -0.0645779 0
M  V30 2022 O 191.675 1.57666 0.919115 0
M  V30 2023 C 191.726 2.72442 -2.37609 0
M  V30 2024 O 191.447 2.32559 -3.71279 0
M  V30 2025 C 192.948 3.66069 -2.50017 0
M  V30 2026 H 190.168 0.452737 -0.495248 0
M  V30 2027 H 192.712 0.838695 -1.8651 0
M  V30 2028 H 190.867 3.31835 -1.9991 0
M  V30 2029 H 191.281 3.13475 -4.20516 0
M  V30 2030 H 192.755 4.50792 -3.18576 0
M  V30 2031 H 193.232 4.11476 -1.53572 0
M  V30 2032 H 193.838 3.12572 -2.88407 0
M  V30 2033 N 192.153 1.28127 0.917671 0
M  V30 2034 C 193.101 1.11569 2.04096 0
M  V30 2035 C 194.095 0.0360242 1.69362 0
M  V30 2036 O 195.301 0.194501 1.78946 0
M  V30 2037 H 191.676 0.344097 0.668656 0
M  V30 2038 H 193.647 2.06711 2.15205 0
M  V30 2039 C 192.396 0.790197 3.38602 0
M  V30 2040 H 191.719 1.61293 3.6582 0
M  V30 2041 H 193.159 0.714271 4.1794 0
M  V30 2042 C 191.618 -0.505897 3.3308 0
M  V30 2043 O 192.148 -1.53736 3.71117 0
M  V30 2044 N 190.354 -0.505193 2.86175 0
M  V30 2045 H 189.901 0.334621 2.55417 0
M  V30 2046 H 189.859 -1.37243 2.82863 0
M  V30 2047 N 193.631 -1.12557 1.10312 0
M  V30 2048 C 194.879 -1.83675 0.843091 0
M  V30 2049 C 195.2 -1.84435 -0.633131 0
M  V30 2050 O 194.47 -1.30657 -1.45964 0
M  V30 2051 H 193.05 -0.680138 0.308904 0
M  V30 2052 H 195.712 -1.36301 1.39313 0
M  V30 2053 H 194.808 -2.87908 1.2048 0
M  V30 2054 N 195.109 -0.891671 -1.2995 0
M  V30 2055 C 196.52 -0.563104 -1.78006 0
M  V30 2056 C 196.871 0.920978 -1.73241 0
M  V30 2057 O 195.996 1.71987 -1.31337 0
M  V30 2058 C 196.591 -1.01539 -3.23226 0
M  V30 2059 C 195.15 -0.738124 -3.69092 0
M  V30 2060 C 194.297 -1.19461 -2.50249 0
M  V30 2061 H 197.248 -1.07522 -1.16725 0
M  V30 2062 H 197.269 -0.347217 -3.78912 0
M  V30 2063 H 196.781 -2.09555 -3.26662 0
M  V30 2064 H 194.882 0.329766 -3.71138 0
M  V30 2065 H 194.995 -1.33037 -4.60259 0
M  V30 2066 H 193.359 -0.613787 -2.47194 0
M  V30 2067 H 194.142 -2.28265 -2.56417 0
M  V30 2068 N 196.587 1.43421 -0.653314 0
M  V30 2069 C 197.833 2.02111 -0.166992 0
M  V30 2070 C 198.166 1.51423 1.21592 0
M  V30 2071 O 197.441 0.707389 1.8118 0
M  V30 2072 C 197.724 3.5966 -0.177948 0
M  V30 2073 C 197.577 4.20579 -1.59478 0
M  V30 2074 C 198.896 4.37413 0.4856 0
M  V30 2075 H 196.015 0.734374 -0.0621557 0
M  V30 2076 H 198.657 1.70717 -0.834016 0
M  V30 2077 H 196.807 3.86537 0.390032 0
M  V30 2078 H 198.479 4.04732 -2.21336 0
M  V30 2079 H 196.722 3.77226 -2.14204 0
M  V30 2080 H 197.393 5.29665 -1.5543 0
M  V30 2081 H 199.869 4.161 0.00234528 0
M  V30 2082 H 198.745 5.47075 0.447207 0
M  V30 2083 H 199.006 4.13672 1.55974 0
M  V30 2084 N 198.065 0.39524 1.52563 0
M  V30 2085 C 199.342 -0.242908 1.94086 0
M  V30 2086 C 199.722 -1.63841 1.33114 0
M  V30 2087 O 199.07 -2.22928 0.501529 0
M  V30 2088 C 199.28 -0.26327 3.48006 0
M  V30 2089 C 200.628 -0.489354 4.21771 0
M  V30 2090 O 201.652 -0.343226 3.54543 0
M  V30 2091 O 200.511 -0.776169 5.4096 0
M  V30 2092 H 197.605 -0.152536 0.812811 0
M  V30 2093 H 200.151 0.450178 1.6362 0
M  V30 2094 H 198.923 0.713985 3.84731 0
M  V30 2095 H 198.546 -1.00103 3.84792 0
M  V30 2096 N 199.544 -1.57102 0.125237 0
M  V30 2097 C 200.474 -2.18659 -0.819174 0
M  V30 2098 C 201.455 -1.12843 -1.27281 0
M  V30 2099 O 202.64 -1.41104 -1.33429 0
M  V30 2100 C 199.77 -2.79096 -2.06695 0
M  V30 2101 C 198.724 -3.90548 -1.75088 0
M  V30 2102 C 198.05 -4.37821 -3.06948 0
M  V30 2103 C 199.35 -5.12356 -1.01435 0
M  V30 2104 H 201.044 -2.9783 -0.306202 0
M  V30 2105 H 198.59 -1.4326 -0.145839 0
M  V30 2106 H 200.543 -3.2082 -2.73226 0
M  V30 2107 H 199.267 -1.97223 -2.60328 0
M  V30 2108 H 197.926 -3.49409 -1.10944 0
M  V30 2109 H 197.574 -3.52799 -3.58527 0
M  V30 2110 H 197.274 -5.12982 -2.86571 0
M  V30 2111 H 198.798 -4.822 -3.74587 0
M  V30 2112 H 200.212 -5.5106 -1.58132 0
M  V30 2113 H 198.609 -5.9314 -0.911319 0
M  V30 2114 H 199.679 -4.849 -0.00218681 0
M  V30 2115 N 201.022 0.148545 -1.56898 0
M  V30 2116 C 201.969 1.18345 -1.98149 0
M  V30 2117 C 202.939 1.42772 -0.848848 0
M  V30 2118 O 204.124 1.55132 -1.11079 0
M  V30 2119 C 201.264 2.51231 -2.36594 0
M  V30 2120 C 200.377 2.33991 -3.63142 0
M  V30 2121 C 199.512 3.59902 -3.90697 0
M  V30 2122 C 198.551 3.37692 -5.1052 0
M  V30 2123 N 197.688 4.5573 -5.34092 0
M  V30 2124 H 202.528 0.82467 -2.86362 0
M  V30 2125 H 200.065 0.395756 -1.41676 0
M  V30 2126 H 202.023 3.28713 -2.56912 0
M  V30 2127 H 200.653 2.85059 -1.51463 0
M  V30 2128 H 199.705 1.47572 -3.50609 0
M  V30 2129 H 201.017 2.13539 -4.5078 0
M  V30 2130 H 200.171 4.45813 -4.11505 0
M  V30 2131 H 198.91 3.83357 -3.01477 0
M  V30 2132 H 197.915 2.5017 -4.89587 0
M  V30 2133 H 199.14 3.15637 -6.0129 0
M  V30 2134 H 197.086 4.79361 -4.47827 0
M  V30 2135 H 197.003 4.38274 -6.15996 0
M  V30 2136 H 198.271 5.42858 -5.59397 0
M  V30 2137 N 202.5 1.5196 0.417844 0
M  V30 2138 C 203.447 1.74678 1.50852 0
M  V30 2139 C 204.417 0.588947 1.55308 0
M  V30 2140 O 205.602 0.825544 1.72016 0
M  V30 2141 C 202.742 1.89544 2.88387 0
M  V30 2142 C 201.855 3.17166 2.93309 0
M  V30 2143 C 200.99 3.22513 4.22088 0
M  V30 2144 C 200.029 4.44372 4.20951 0
M  V30 2145 N 199.166 4.47161 5.41287 0
M  V30 2146 H 204.006 2.67768 1.30783 0
M  V30 2147 H 201.543 1.32689 0.63498 0
M  V30 2148 H 203.501 1.96146 3.68216 0
M  V30 2149 H 202.131 0.998424 3.06971 0
M  V30 2150 H 201.183 3.19778 2.06024 0
M  V30 2151 H 202.495 4.07021 2.88332 0
M  V30 2152 H 201.649 3.28139 5.10303 0
M  V30 2153 H 200.388 2.30581 4.29748 0
M  V30 2154 H 199.393 4.38902 3.31127 0
M  V30 2155 H 200.618 5.3759 4.14938 0
M  V30 2156 H 198.564 3.58108 5.49632 0
M  V30 2157 H 198.481 5.3085 5.3827 0
M  V30 2158 H 199.749 4.57005 6.3148 0
M  V30 2159 N 203.978 -0.674533 1.42435 0
M  V30 2160 C 205.227 -1.43034 1.42212 0
M  V30 2161 C 205.54 -1.95555 0.0420788 0
M  V30 2162 O 206.746 -2.71374 -0.0827558 0
M  V30 2163 C 205.202 -2.58748 2.50155 0
M  V30 2164 C 204.81 -2.12925 3.94166 0
M  V30 2165 C 206.554 -3.36257 2.59098 0
M  V30 2166 C 204.461 -3.25723 4.93618 0
M  V30 2167 H 203.391 -0.537345 0.528939 0
M  V30 2168 H 206.042 -0.73024 1.68344 0
M  V30 2169 H 204.424 -3.31128 2.17188 0
M  V30 2170 H 205.598 -1.47697 4.36488 0
M  V30 2171 H 203.913 -1.48354 3.89076 0
M  V30 2172 H 206.51 -4.20264 3.30578 0
M  V30 2173 H 206.853 -3.82866 1.63461 0
M  V30 2174 H 207.386 -2.70947 2.9126 0
M  V30 2175 H 204.125 -2.84105 5.90732 0
M  V30 2176 H 203.645 -3.89732 4.55926 0
M  V30 2177 H 205.324 -3.91186 5.15347 0
M  V30 2178 N 205.456 -1.28612 -0.910864 0
M  V30 2179 C 206.684 -1.18792 -1.69399 0
M  V30 2180 C 207.099 0.253039 -1.87097 0
M  V30 2181 O 206.456 1.17071 -1.40003 0
M  V30 2182 C 206.507 -1.88511 -3.08457 0
M  V30 2183 O 206.228 -3.26979 -2.91576 0
M  V30 2184 C 207.729 -1.85029 -4.02839 0
M  V30 2185 H 204.949 -0.412233 -0.529438 0
M  V30 2186 H 207.493 -1.69788 -1.13984 0
M  V30 2187 H 205.648 -1.41379 -3.60681 0
M  V30 2188 H 206.062 -3.61936 -3.79608 0
M  V30 2189 H 207.536 -2.38395 -4.97867 0
M  V30 2190 H 208.013 -0.823303 -4.31414 0
M  V30 2191 H 208.619 -2.31853 -3.56545 0
M  V30 2192 N 206.934 1.1197 -1.10907 0
M  V30 2193 C 207.882 2.19927 -0.757303 0
M  V30 2194 C 208.876 1.67564 0.248747 0
M  V30 2195 O 210.082 1.79672 0.108605 0
M  V30 2196 H 206.457 0.716925 -0.226987 0
M  V30 2197 H 208.428 2.46847 -1.67658 0
M  V30 2198 C 207.177 3.47061 -0.210671 0
M  V30 2199 H 206.5 3.87703 -0.976049 0
M  V30 2200 H 207.94 4.24 -0.0026584 0
M  V30 2201 C 206.399 3.19864 1.05777 0
M  V30 2202 O 206.929 3.40049 2.13845 0
M  V30 2203 N 205.135 2.73636 0.978349 0
M  V30 2204 H 204.682 2.5741 0.0988246 0
M  V30 2205 H 204.64 2.55815 1.82773 0
M  V30 2206 N 208.412 0.89855 1.29475 0
M  V30 2207 C 209.659 0.523882 1.95606 0
M  V30 2208 C 209.987 -0.929608 1.70847 0
M  V30 2209 O 209.242 -1.67401 1.01367 0
M  V30 2210 C 209.541 0.761398 3.49195 0
M  V30 2211 C 209.207 2.19207 3.94029 0
M  V30 2212 C 207.869 2.58326 4.05982 0
M  V30 2213 C 210.221 3.12379 4.17216 0
M  V30 2214 C 207.549 3.898 4.38489 0
M  V30 2215 C 209.901 4.43401 4.51197 0
M  V30 2216 C 208.565 4.82394 4.61359 0
M  V30 2217 H 207.835 0.191702 0.715773 0
M  V30 2218 H 210.482 1.13699 1.54094 0
M  V30 2219 H 208.787 0.0653622 3.91745 0
M  V30 2220 H 210.484 0.450904 3.98457 0
M  V30 2221 H 207.074 1.87846 3.85242 0
M  V30 2222 H 211.258 2.83371 4.07449 0
M  V30 2223 H 206.514 4.19734 4.44559 0
M  V30 2224 H 210.688 5.15623 4.68087 0
M  V30 2225 H 208.315 5.84306 4.86303 0
M  V30 2226 N 209.89 -1.43072 0.660911 0
M  V30 2227 C 211.137 -2.01721 0.177445 0
M  V30 2228 C 211.465 -1.5218 -1.21126 0
M  V30 2229 O 210.72 -0.708659 -1.82419 0
M  V30 2230 C 211.019 -3.57103 0.145563 0
M  V30 2231 C 210.685 -4.26021 1.47705 0
M  V30 2232 C 209.347 -4.44563 1.84165 0
M  V30 2233 C 211.699 -4.64983 2.35458 0
M  V30 2234 C 209.027 -4.99334 3.0803 0
M  V30 2235 C 211.379 -5.21127 3.58622 0
M  V30 2236 C 210.043 -5.37884 3.95268 0
M  V30 2237 H 209.313 -0.73815 0.0649317 0
M  V30 2238 H 211.96 -1.71446 0.853144 0
M  V30 2239 H 210.265 -3.86965 -0.61361 0
M  V30 2240 H 211.962 -4.00248 -0.2455 0
M  V30 2241 H 208.552 -4.11939 1.18339 0
M  V30 2242 H 212.736 -4.50343 2.08579 0
M  V30 2243 H 207.992 -5.10493 3.36462 0
M  V30 2244 H 212.166 -5.50262 4.26831 0
M  V30 2245 H 209.793 -5.80089 4.91325 0
M  V30 2246 N 211.368 -0.403325 -1.52352 0
M  V30 2247 C 212.784 -0.0539281 -1.59509 0
M  V30 2248 C 212.984 1.43307 -1.41652 0
M  V30 2249 O 212.04 2.19924 -1.24056 0
M  V30 2250 C 213.353 -0.543654 -2.95745 0
M  V30 2251 C 214.901 -0.501125 -3.08962 0
M  V30 2252 C 215.376 -0.967267 -4.47669 0
M  V30 2253 N 216.867 -0.923849 -4.53893 0
M  V30 2254 C 217.602 -1.25578 -5.5948 0
M  V30 2255 N 217.098 -1.65889 -6.72646 0
M  V30 2256 N 218.891 -1.17613 -5.49658 0
M  V30 2257 H 211.042 -1.37123 -1.62206 0
M  V30 2258 H 213.305 -0.56294 -0.76276 0
M  V30 2259 H 213.011 -1.58275 -3.14073 0
M  V30 2260 H 212.885 0.0498042 -3.77167 0
M  V30 2261 H 215.272 0.528909 -2.90321 0
M  V30 2262 H 215.353 -1.13056 -2.2946 0
M  V30 2263 H 214.997 -1.9956 -4.67053 0
M  V30 2264 H 214.927 -0.314698 -5.25659 0
M  V30 2265 H 217.418 -0.627403 -3.72655 0
M  V30 2266 H 217.731 -1.89543 -7.49195 0
M  V30 2267 H 216.076 -1.69787 -6.73942 0
M  V30 2268 H 219.267 -0.860115 -4.6013 0
M  V30 2269 H 219.44 -1.43812 -6.3184 0
M  V30 2270 N 212.846 1.57033 -0.133567 0
M  V30 2271 C 214.094 1.953 0.519848 0
M  V30 2272 C 214.415 1.01866 1.66278 0
M  V30 2273 O 213.685 0.0776513 1.95746 0
M  V30 2274 H 212.265 0.721091 0.195032 0
M  V30 2275 H 214.927 1.93809 -0.205921 0
M  V30 2276 H 214.023 2.98695 0.904854 0
M  V30 2277 N 214.325 -0.140222 1.56975 0
M  V30 2278 C 215.602 -0.880769 1.74648 0
M  V30 2279 C 215.982 -1.99036 0.703404 0
M  V30 2280 O 215.33 -2.26821 -0.27648 0
M  V30 2281 C 215.54 -1.417 3.18939 0
M  V30 2282 C 216.888 -1.87774 3.80823 0
M  V30 2283 O 217.912 -1.51427 3.2241 0
M  V30 2284 O 216.771 -2.54827 4.83452 0
M  V30 2285 H 213.865 -0.416713 0.714338 0
M  V30 2286 H 216.411 -0.125618 1.69234 0
M  V30 2287 H 215.183 -0.619902 3.86359 0
M  V30 2288 H 214.806 -2.23546 3.28805 0
M  V30 2289 N 215.803 -1.52179 -0.40978 0
M  V30 2290 C 217.219 -1.40968 -0.74835 0
M  V30 2291 C 217.419 -0.513657 -1.94843 0
M  V30 2292 O 216.475 0.0208026 -2.52491 0
M  V30 2293 C 217.788 -2.83483 -1.0029 0
M  V30 2294 C 219.336 -2.92821 -1.10565 0
M  V30 2295 C 219.811 -4.36303 -1.39296 0
M  V30 2296 N 221.302 -4.39535 -1.46162 0
M  V30 2297 C 222.037 -5.47614 -1.70018 0
M  V30 2298 N 221.533 -6.65812 -1.91483 0
M  V30 2299 N 223.326 -5.35129 -1.72027 0
M  V30 2300 H 215.477 -2.0897 0.380186 0
M  V30 2301 H 217.74 -0.94185 0.107805 0
M  V30 2302 H 217.446 -3.51168 -0.193461 0
M  V30 2303 H 217.32 -3.24487 -1.92323 0
M  V30 2304 H 219.707 -2.25318 -1.90568 0
M  V30 2305 H 219.788 -2.55276 -0.16369 0
M  V30 2306 H 219.432 -5.04366 -0.598109 0
M  V30 2307 H 219.362 -4.71385 -2.34743 0
M  V30 2308 H 221.853 -3.54332 -1.31367 0
M  V30 2309 H 222.166 -7.43964 -2.09134 0
M  V30 2310 H 220.511 -6.68879 -1.88749 0
M  V30 2311 H 223.702 -4.41764 -1.54796 0
M  V30 2312 H 223.875 -6.19433 -1.9028 0
M  V30 2313 N 217.281 0.66697 -1.42791 0
M  V30 2314 C 218.521 1.43892 -1.4517 0
M  V30 2315 C 218.885 1.91877 -0.0687551 0
M  V30 2316 O 220.086 2.6878 0.0327455 0
M  V30 2317 C 218.357 2.59839 -2.45395 0
M  V30 2318 S 219.916 3.48572 -2.66539 0
M  V30 2319 H 216.734 0.491356 -0.513897 0
M  V30 2320 H 219.336 0.775656 -1.79454 0
M  V30 2321 H 218.04 2.22838 -3.44632 0
M  V30 2322 H 217.571 3.3103 -2.12562 0
M  V30 2323 H 219.586 4.56094 -1.95429 0
M  V30 2324 N 218.759 1.29093 0.90403 0
M  V30 2325 C 220.175 1.07011 1.1841 0
M  V30 2326 C 220.375 -0.181358 2.00682 0
M  V30 2327 O 219.431 -0.880331 2.36657 0
M  V30 2328 C 220.744 2.32311 1.90924 0
M  V30 2329 C 222.292 2.37587 2.03768 0
M  V30 2330 C 222.767 3.62679 2.79693 0
M  V30 2331 N 224.258 3.63376 2.87249 0
M  V30 2332 C 224.993 4.56848 3.46522 0
M  V30 2333 N 224.489 5.60648 4.06996 0
M  V30 2334 N 226.282 4.44426 3.44154 0
M  V30 2335 H 218.433 2.09412 0.354993 0
M  V30 2336 H 220.696 0.922181 0.219742 0
M  V30 2337 H 220.402 3.23536 1.37905 0
M  V30 2338 H 220.276 2.39483 2.91424 0
M  V30 2339 H 222.663 1.46853 2.55965 0
M  V30 2340 H 222.744 2.34403 1.02415 0
M  V30 2341 H 222.388 4.53762 2.28173 0
M  V30 2342 H 222.318 3.63119 3.81381 0
M  V30 2343 H 224.809 2.88321 2.44293 0
M  V30 2344 H 225.122 6.28101 4.50232 0
M  V30 2345 H 223.467 5.64463 4.05471 0
M  V30 2346 H 226.658 3.62529 2.96126 0
M  V30 2347 H 226.831 5.17457 3.90054 0
M  V30 2348 N 220.237 -1.11381 1.11499 0
M  V30 2349 C 221.462 -1.87475 0.887019 0
M  V30 2350 C 221.887 -1.79639 -0.557796 0
M  V30 2351 O 221.245 -1.15924 -1.39396 0
M  V30 2352 C 221.293 -3.34213 1.35403 0
M  V30 2353 O 220.397 -4.0903 0.526146 0
M  V30 2354 H 219.738 -0.582099 0.319463 0
M  V30 2355 H 222.268 -1.40785 1.48461 0
M  V30 2356 H 222.278 -3.8506 1.34881 0
M  V30 2357 H 220.953 -3.39232 2.40612 0
M  V30 2358 H 219.53 -3.68082 0.597522 0
M  V30 2359 N 221.715 -0.905404 -1.28997 0
M  V30 2360 C 222.645 -0.404212 -2.29975 0
M  V30 2361 C 223.626 0.523784 -1.61835 0
M  V30 2362 O 224.811 0.433298 -1.89304 0
M  V30 2363 C 221.941 0.364042 -3.45387 0
M  V30 2364 C 220.895 -0.474048 -4.25367 0
M  V30 2365 C 220.221 0.422045 -5.33032 0
M  V30 2366 C 221.521 -1.72696 -4.92923 0
M  V30 2367 H 223.215 -1.24807 -2.72146 0
M  V30 2368 H 220.761 -0.601585 -1.30832 0
M  V30 2369 H 222.714 0.725447 -4.15109 0
M  V30 2370 H 221.438 1.24174 -3.02074 0
M  V30 2371 H 220.097 -0.81786 -3.57361 0
M  V30 2372 H 219.745 1.29804 -4.85963 0
M  V30 2373 H 219.445 -0.135057 -5.87445 0
M  V30 2374 H 220.969 0.779517 -6.05604 0
M  V30 2375 H 222.383 -1.43495 -5.55051 0
M  V30 2376 H 220.78 -2.22582 -5.57295 0
M  V30 2377 H 221.85 -2.45964 -4.17887 0
M  V30 2378 N 223.193 1.4272 -0.668489 0
M  V30 2379 C 224.421 2.05966 -0.196348 0
M  V30 2380 C 224.836 1.50191 1.14403 0
M  V30 2381 O 224.193 0.639208 1.7094 0
M  V30 2382 C 224.244 3.61314 -0.115815 0
M  V30 2383 O 223.965 4.1502 -1.40322 0
M  V30 2384 C 225.466 4.41663 0.380579 0
M  V30 2385 H 222.686 0.663954 -0.0969829 0
M  V30 2386 H 225.23 1.82966 -0.913446 0
M  V30 2387 H 223.385 3.83448 0.551931 0
M  V30 2388 H 223.799 5.08832 -1.27243 0
M  V30 2389 H 225.273 5.5065 0.385848 0
M  V30 2390 H 225.75 4.15792 1.41471 0
M  V30 2391 H 226.356 4.24534 -0.255209 0
M  V30 2392 N 224.671 0.411399 1.52136 0
M  V30 2393 C 225.919 -0.163322 2.01439 0
M  V30 2394 C 226.24 -1.45453 1.29879 0
M  V30 2395 O 225.51 -1.91225 0.4254 0
M  V30 2396 H 224.09 -0.0633447 0.744309 0
M  V30 2397 H 226.752 0.548161 1.87033 0
M  V30 2398 H 225.848 -0.357817 3.10042 0
M  V30 2399 N 226.149 -1.5696 0.141893 0
M  V30 2400 C 227.096 -2.16501 -0.799737 0
M  V30 2401 C 228.066 -1.09643 -1.24771 0
M  V30 2402 O 229.251 -1.3766 -1.32115 0
M  V30 2403 C 226.391 -2.78679 -2.03549 0
M  V30 2404 C 225.504 -3.99914 -1.6338 0
M  V30 2405 C 224.639 -4.50106 -2.82096 0
M  V30 2406 C 223.678 -5.63819 -2.38275 0
M  V30 2407 N 222.815 -6.08651 -3.49983 0
M  V30 2408 H 227.655 -2.96632 -0.285179 0
M  V30 2409 H 225.192 -1.46533 -0.129053 0
M  V30 2410 H 227.15 -3.1287 -2.75986 0
M  V30 2411 H 225.78 -2.012 -2.52425 0
M  V30 2412 H 224.832 -3.71735 -0.807279 0
M  V30 2413 H 226.144 -4.82311 -1.27192 0
M  V30 2414 H 225.298 -4.86325 -3.62729 0
M  V30 2415 H 224.037 -3.66706 -3.21525 0
M  V30 2416 H 223.042 -5.2718 -1.56081 0
M  V30 2417 H 224.267 -6.49 -1.99938 0
M  V30 2418 H 222.213 -5.28188 -3.89042 0
M  V30 2419 H 222.13 -6.85961 -3.17794 0
M  V30 2420 H 223.398 -6.49515 -4.30988 0
M  V30 2421 N 227.627 0.131896 -1.57047 0
M  V30 2422 C 229.038 0.690407 -1.73465 0
M  V30 2423 C 229.389 1.8094 -0.758629 0
M  V30 2424 O 228.514 2.16282 0.0713813 0
M  V30 2425 C 229.109 1.25916 -3.14532 0
M  V30 2426 C 227.668 1.76409 -3.32501 0
M  V30 2427 C 226.815 0.658579 -2.69366 0
M  V30 2428 H 229.766 -0.0939144 -1.58422 0
M  V30 2429 H 229.787 2.12892 -3.15369 0
M  V30 2430 H 229.299 0.444515 -3.85546 0
M  V30 2431 H 227.4 2.60391 -2.66509 0
M  V30 2432 H 227.513 1.88241 -4.4057 0
M  V30 2433 H 225.877 1.08899 -2.30246 0
M  V30 2434 H 226.66 -0.14487 -3.42994 0
M  V30 2435 N 229.106 1.52395 0.401703 0
M  V30 2436 C 230.053 1.76268 1.48991 0
M  V30 2437 C 231.023 0.605386 1.54675 0
M  V30 2438 O 232.208 0.843742 1.7113 0
M  V30 2439 C 229.348 1.92592 2.86361 0
M  V30 2440 C 228.461 3.20259 2.89928 0
M  V30 2441 C 227.596 3.26972 4.18644 0
M  V30 2442 C 226.635 4.48812 4.16214 0
M  V30 2443 N 225.772 4.52877 5.36514 0
M  V30 2444 H 230.612 2.6914 1.27935 0
M  V30 2445 H 228.149 1.33355 0.620871 0
M  V30 2446 H 230.107 2.0004 3.66115 0
M  V30 2447 H 228.737 1.03093 3.05895 0
M  V30 2448 H 227.789 3.21945 2.02621 0
M  V30 2449 H 229.101 4.10056 2.83999 0
M  V30 2450 H 228.255 3.33533 5.06794 0
M  V30 2451 H 226.994 2.35126 4.27278 0
M  V30 2452 H 225.999 4.4239 3.26453 0
M  V30 2453 H 227.224 5.41961 4.09213 0
M  V30 2454 H 225.17 3.63917 5.45802 0
M  V30 2455 H 225.087 5.36529 5.32609 0
M  V30 2456 H 226.355 4.63676 6.26597 0
M  V30 2457 N 230.584 -0.659388 1.43143 0
M  V30 2458 C 231.514 -1.78422 1.50625 0
M  V30 2459 C 232.495 -1.66216 0.361443 0
M  V30 2460 O 233.68 -1.85404 0.577834 0
M  V30 2461 C 230.81 -3.16815 1.42287 0
M  V30 2462 C 229.764 -3.43777 2.54954 0
M  V30 2463 C 229.09 -4.81905 2.31671 0
M  V30 2464 C 230.39 -3.39134 3.97222 0
M  V30 2465 H 232.084 -1.72417 2.44771 0
M  V30 2466 H 229.63 -0.828084 1.17808 0
M  V30 2467 H 231.583 -3.95253 1.46127 0
M  V30 2468 H 230.307 -3.23534 0.446435 0
M  V30 2469 H 228.966 -2.67707 2.50457 0
M  V30 2470 H 228.614 -4.85294 1.32284 0
M  V30 2471 H 228.314 -5.00906 3.07192 0
M  V30 2472 H 229.838 -5.62609 2.37284 0
M  V30 2473 H 231.252 -4.07518 4.03239 0
M  V30 2474 H 229.649 -3.69671 4.72719 0
M  V30 2475 H 230.719 -2.37426 4.22797 0
M  V30 2476 N 232.062 -1.29571 -0.897171 0
M  V30 2477 C 233.309 -1.17689 -1.6479 0
M  V30 2478 C 233.637 0.27107 -1.92602 0
M  V30 2479 O 232.892 1.21193 -1.53658 0
M  V30 2480 C 233.191 -1.9382 -3.00281 0
M  V30 2481 C 232.857 -3.43522 -2.92068 0
M  V30 2482 C 231.519 -3.84348 -2.89535 0
M  V30 2483 C 233.871 -4.38906 -2.81089 0
M  V30 2484 C 231.199 -5.18869 -2.73846 0
M  V30 2485 C 233.551 -5.73521 -2.66939 0
M  V30 2486 C 232.215 -6.13601 -2.62774 0
M  V30 2487 H 231.485 -0.430654 -0.603008 0
M  V30 2488 H 234.132 -1.60536 -1.04404 0
M  V30 2489 H 232.437 -1.4357 -3.64547 0
M  V30 2490 H 234.134 -1.82028 -3.57305 0
M  V30 2491 H 230.724 -3.11072 -2.94842 0
M  V30 2492 H 234.908 -4.08315 -2.82121 0
M  V30 2493 H 230.164 -5.4903 -2.69027 0
M  V30 2494 H 234.338 -6.47078 -2.57416 0
M  V30 2495 H 231.965 -7.17786 -2.50375 0
M  V30 2496 N 233.54 1.10788 -1.12088 0
M  V30 2497 C 234.789 1.82036 -0.868659 0
M  V30 2498 C 235.102 1.85929 0.607426 0
M  V30 2499 O 236.308 2.53346 0.97613 0
M  V30 2500 C 234.764 3.26951 -1.50435 0
M  V30 2501 C 234.372 3.31367 -3.01496 0
M  V30 2502 C 236.116 4.03053 -1.33225 0
M  V30 2503 C 234.023 4.7072 -3.58017 0
M  V30 2504 H 232.953 0.682108 -0.321318 0
M  V30 2505 H 235.604 1.24618 -1.34694 0
M  V30 2506 H 233.986 3.84343 -0.953735 0
M  V30 2507 H 235.16 2.83819 -3.6302 0
M  V30 2508 H 233.475 2.6875 -3.18061 0
M  V30 2509 H 236.072 5.05981 -1.72878 0
M  V30 2510 H 236.415 4.15387 -0.275529 0
M  V30 2511 H 236.948 3.52066 -1.85188 0
M  V30 2512 H 233.687 4.63585 -4.63432 0
M  V30 2513 H 233.207 5.1865 -3.01268 0
M  V30 2514 H 234.886 5.39685 -3.56859 0
M  V30 2515 N 235.018 0.912232 1.28515 0
M  V30 2516 C 236.267 0.540504 1.94323 0
M  V30 2517 C 236.58 -0.920044 1.72611 0
M  V30 2518 O 237.786 -1.39986 2.32629 0
M  V30 2519 C 236.242 0.915803 3.48053 0
M  V30 2520 C 235.85 2.39598 3.78546 0
M  V30 2521 C 237.594 0.614588 4.20027 0
M  V30 2522 C 235.501 2.71148 5.25578 0
M  V30 2523 H 234.431 0.198418 0.727424 0
M  V30 2524 H 237.082 1.11094 1.46049 0
M  V30 2525 H 235.464 0.274168 3.9505 0
M  V30 2526 H 236.638 3.08422 3.42364 0
M  V30 2527 H 234.953 2.66749 3.1974 0
M  V30 2528 H 237.55 0.827002 5.28266 0
M  V30 2529 H 237.893 -0.447531 4.13887 0
M  V30 2530 H 238.426 1.21462 3.78803 0
M  V30 2531 H 235.165 3.76207 5.36794 0
M  V30 2532 H 234.685 2.0696 5.62963 0
M  V30 2533 H 236.364 2.58072 5.93302 0
M  V30 2534 N 236.496 -1.42363 0.676048 0
M  V30 2535 C 237.428 -2.29164 -0.0404605 0
M  V30 2536 C 238.441 -1.43747 -0.764245 0
M  V30 2537 O 239.63 -1.67453 -0.618195 0
M  V30 2538 C 236.73 -3.21196 -1.08103 0
M  V30 2539 C 235.903 -4.35273 -0.430812 0
M  V30 2540 C 234.962 -5.08017 -1.37133 0
M  V30 2541 O 233.988 -5.62494 -0.87116 0
M  V30 2542 N 235.19 -5.13647 -2.70456 0
M  V30 2543 H 237.955 -2.91298 0.704667 0
M  V30 2544 H 235.516 -1.53303 0.520559 0
M  V30 2545 H 237.508 -3.66728 -1.71152 0
M  V30 2546 H 236.078 -2.60505 -1.72788 0
M  V30 2547 H 235.298 -3.92372 0.379209 0
M  V30 2548 H 236.586 -5.08795 0.0221132 0
M  V30 2549 H 235.984 -4.708 -3.1363 0
M  V30 2550 H 234.541 -5.62821 -3.28749 0
M  V30 2551 N 237.974 -0.419461 -1.51915 0
M  V30 2552 C 238.937 0.389116 -2.25873 0
M  V30 2553 C 239.937 0.964924 -1.28631 0
M  V30 2554 O 241.127 0.842179 -1.52489 0
M  V30 2555 C 238.259 1.54874 -3.03689 0
M  V30 2556 H 239.452 -0.258799 -2.98781 0
M  V30 2557 H 237.005 -0.172209 -1.55348 0
M  V30 2558 H 237.74 2.23323 -2.35154 0
M  V30 2559 H 237.525 1.14223 -3.75094 0
M  V30 2560 H 239.015 2.12046 -3.59759 0
M  V30 2561 N 239.452 1.56882 -0.150215 0
M  V30 2562 C 240.692 1.98119 0.502804 0
M  V30 2563 C 241.056 1.03327 1.61826 0
M  V30 2564 O 242.257 1.33621 2.33236 0
M  V30 2565 C 240.528 3.43329 0.992988 0
M  V30 2566 S 242.087 4.0659 1.65015 0
M  V30 2567 H 238.905 0.692189 0.162467 0
M  V30 2568 H 241.507 1.93988 -0.242689 0
M  V30 2569 H 240.211 4.10046 0.170436 0
M  V30 2570 H 239.742 3.5118 1.77303 0
M  V30 2571 H 241.757 3.99906 2.93752 0
M  V30 2572 N 240.93 -0.123565 1.57115 0
M  V30 2573 C 242.346 -0.476961 1.52306 0
M  V30 2574 C 242.546 -1.82109 0.86248 0
M  V30 2575 O 241.602 -2.48586 0.442884 0
M  V30 2576 C 242.915 -0.465661 2.97073 0
M  V30 2577 C 244.463 -0.549534 3.08138 0
M  V30 2578 C 244.938 -0.568669 4.54456 0
M  V30 2579 N 246.429 -0.630237 4.58892 0
M  V30 2580 C 247.164 -0.666415 5.69514 0
M  V30 2581 N 246.66 -0.660514 6.89644 0
M  V30 2582 N 248.453 -0.709077 5.5761 0
M  V30 2583 H 240.604 0.757198 1.98445 0
M  V30 2584 H 242.867 0.278808 0.906074 0
M  V30 2585 H 242.573 0.454232 3.48754 0
M  V30 2586 H 242.447 -1.29513 3.54269 0
M  V30 2587 H 244.834 -1.45985 2.56461 0
M  V30 2588 H 244.915 0.307532 2.53945 0
M  V30 2589 H 244.559 0.337581 5.06777 0
M  V30 2590 H 244.489 -1.44256 5.06456 0
M  V30 2591 H 246.98 -0.641146 3.72421 0
M  V30 2592 H 247.293 -0.690616 7.69708 0
M  V30 2593 H 245.638 -0.628012 6.92157 0
M  V30 2594 H 248.829 -0.711019 4.62668 0
M  V30 2595 H 249.002 -0.733804 6.43832 0
M  V30 2596 N 242.408 -1.52605 -0.393616 0
M  V30 2597 C 243.656 -1.67093 -1.13685 0
M  V30 2598 C 243.977 -0.411011 -1.90619 0
M  V30 2599 O 243.247 0.574491 -1.87287 0
M  V30 2600 H 241.827 -0.615923 -0.422668 0
M  V30 2601 H 244.489 -1.89704 -0.447039 0
M  V30 2602 H 243.585 -2.51922 -1.84232 0
M  V30 2603 N 243.887 0.651787 -1.4349 0
M  V30 2604 C 245.115 1.43937 -1.48626 0
M  V30 2605 C 245.53 1.8851 -0.104587 0
M  V30 2606 O 244.887 1.5958 0.885464 0
M  V30 2607 C 244.938 2.6734 -2.43334 0
M  V30 2608 O 244.659 2.24631 -3.76128 0
M  V30 2609 C 246.16 3.60683 -2.57726 0
M  V30 2610 H 243.38 0.44213 -0.504739 0
M  V30 2611 H 245.924 0.798944 -1.88248 0
M  V30 2612 H 244.079 3.2752 -2.06904 0
M  V30 2613 H 244.493 3.04485 -4.2707 0
M  V30 2614 H 245.967 4.43933 -3.28067 0
M  V30 2615 H 246.444 4.08126 -1.62265 0
M  V30 2616 H 247.05 3.06384 -2.94973 0
M  V30 2617 N 245.365 1.30045 0.890287 0
M  V30 2618 C 246.275 1.17885 2.02831 0
M  V30 2619 C 247.291 0.0999609 1.73713 0
M  V30 2620 O 248.467 0.313867 1.98939 0
M  V30 2621 C 245.532 0.866079 3.35708 0
M  V30 2622 C 244.593 2.02979 3.78283 0
M  V30 2623 C 243.826 1.73184 5.0482 0
M  V30 2624 O 244.049 0.657237 5.66601 0
M  V30 2625 O 242.983 2.58267 5.43674 0
M  V30 2626 H 246.809 2.13474 2.16015 0
M  V30 2627 H 244.394 1.09587 1.01543 0
M  V30 2628 H 246.276 0.706623 4.15433 0
M  V30 2629 H 244.951 -0.0599443 3.23644 0
M  V30 2630 H 243.858 2.24454 2.99285 0
M  V30 2631 H 245.191 2.93734 3.94944 0
M  V30 2632 N 246.843 -1.10192 1.12674 0
M  V30 2633 C 247.773 -2.18652 0.819362 0
M  V30 2634 C 248.754 -1.68698 -0.217915 0
M  V30 2635 O 249.939 -1.94041 -0.0785581 0
M  V30 2636 C 247.069 -3.46202 0.27594 0
M  V30 2637 C 246.023 -4.09444 1.24656 0
M  V30 2638 C 245.349 -5.31725 0.563258 0
M  V30 2639 C 246.649 -4.52863 2.60217 0
M  V30 2640 H 248.343 -2.44622 1.72628 0
M  V30 2641 H 245.889 -1.17571 0.831451 0
M  V30 2642 H 247.842 -4.21372 0.0486149 0
M  V30 2643 H 246.566 -3.1973 -0.666331 0
M  V30 2644 H 245.225 -3.36284 1.45974 0
M  V30 2645 H 244.873 -5.0153 -0.384235 0
M  V30 2646 H 244.573 -5.74991 1.21075 0
M  V30 2647 H 246.097 -6.09624 0.34503 0
M  V30 2648 H 247.511 -5.19294 2.42913 0
M  V30 2649 H 245.908 -5.06986 3.21068 0
M  V30 2650 H 246.978 -3.65656 3.18471 0
M  V30 2651 N 248.321 -0.919034 -1.28029 0
M  V30 2652 C 249.598 -0.473668 -1.89778 0
M  V30 2653 C 249.978 1.04783 -1.83259 0
M  V30 2654 O 249.326 1.8982 -1.27202 0
M  V30 2655 C 249.536 -1.00998 -3.34066 0
M  V30 2656 C 250.884 -1.06525 -4.1102 0
M  V30 2657 O 251.908 -0.958996 -3.43048 0
M  V30 2658 O 250.767 -1.22776 -5.3253 0
M  V30 2659 H 247.861 -0.15098 -0.813101 0
M  V30 2660 H 250.407 -1.01016 -1.36359 0
M  V30 2661 H 249.179 -2.05392 -3.33061 0
M  V30 2662 H 248.802 -0.454626 -3.94992 0
M  V30 2663 N 249.799 1.42003 -0.683588 0
M  V30 2664 C 251.039 2.03282 -0.213513 0
M  V30 2665 C 251.403 1.52924 1.16097 0
M  V30 2666 O 252.604 2.06048 1.7262 0
M  V30 2667 C 250.875 3.56483 -0.255856 0
M  V30 2668 S 252.434 4.3857 0.14193 0
M  V30 2669 H 249.252 0.705659 -0.0869853 0
M  V30 2670 H 251.854 1.73619 -0.8987 0
M  V30 2671 H 250.558 3.90631 -1.25841 0
M  V30 2672 H 250.089 3.90831 0.448875 0
M  V30 2673 H 252.104 4.76828 1.37295 0
M  V30 2674 N 251.277 0.427512 1.51691 0
M  V30 2675 C 252.525 -0.141948 2.01601 0
M  V30 2676 C 252.846 -1.44067 1.31414 0
M  V30 2677 O 252.116 -1.90763 0.445658 0
M  V30 2678 H 250.696 -0.0554468 0.744939 0
M  V30 2679 H 253.358 0.567968 1.86441 0
M  V30 2680 H 252.454 -0.324913 3.10404 0
M  V30 2681 N 252.755 -1.56801 0.158532 0
M  V30 2682 C 254.004 -1.95665 -0.489702 0
M  V30 2683 C 254.317 -1.04654 -1.65248 0
M  V30 2684 O 255.523 -1.33146 -2.3661 0
M  V30 2685 C 253.979 -3.47874 -0.922582 0
M  V30 2686 C 253.587 -4.47489 0.213893 0
M  V30 2687 C 255.331 -3.95583 -1.53996 0
M  V30 2688 C 253.238 -5.90921 -0.237903 0
M  V30 2689 H 252.168 -0.730516 -0.186716 0
M  V30 2690 H 254.819 -1.81861 0.244722 0
M  V30 2691 H 253.201 -3.57051 -1.71261 0
M  V30 2692 H 254.375 -4.50017 0.991036 0
M  V30 2693 H 252.69 -4.09764 0.740407 0
M  V30 2694 H 255.287 -5.0019 -1.8898 0
M  V30 2695 H 255.63 -3.37789 -2.43319 0
M  V30 2696 H 256.163 -3.8937 -0.814611 0
M  V30 2697 H 252.902 -6.52559 0.620236 0
M  V30 2698 H 252.422 -5.91729 -0.980676 0
M  V30 2699 H 254.101 -6.43352 -0.686067 0
M  V30 2700 N 254.233 0.115231 -1.57178 0
M  V30 2701 C 255.143 1.15994 -2.03918 0
M  V30 2702 C 256.159 1.45103 -0.960268 0
M  V30 2703 O 257.335 1.56144 -1.27204 0
M  V30 2704 C 254.4 2.46568 -2.43732 0
M  V30 2705 C 253.461 2.24822 -3.65723 0
M  V30 2706 C 252.694 3.4917 -4.03629 0
M  V30 2707 O 252.917 4.56623 -3.41835 0
M  V30 2708 O 251.851 3.39949 -4.96708 0
M  V30 2709 H 255.677 0.793019 -2.93164 0
M  V30 2710 H 253.262 0.3263 -1.45793 0
M  V30 2711 H 255.144 3.23492 -2.70057 0
M  V30 2712 H 253.819 2.82726 -1.57631 0
M  V30 2713 H 252.726 1.45744 -3.44542 0
M  V30 2714 H 254.059 1.93566 -4.52541 0
M  V30 2715 N 255.711 1.52812 0.385517 0
M  V30 2716 C 256.939 1.71907 1.15133 0
M  V30 2717 C 257.354 0.439004 1.83625 0
M  V30 2718 O 256.711 -0.586765 1.7281 0
M  V30 2719 C 256.762 2.87099 2.19673 0
M  V30 2720 O 256.483 4.10151 1.53973 0
M  V30 2721 C 257.984 3.17902 3.08955 0
M  V30 2722 H 255.204 0.575479 0.345057 0
M  V30 2723 H 257.748 1.99476 0.45052 0
M  V30 2724 H 255.903 2.61982 2.85384 0
M  V30 2725 H 256.317 4.74514 2.23465 0
M  V30 2726 H 257.791 4.01959 3.7833 0
M  V30 2727 H 258.268 2.3243 3.72657 0
M  V30 2728 H 258.874 3.44871 2.48885 0
M  V30 2729 N 257.189 -0.644168 1.43834 0
M  V30 2730 C 258.466 -1.40188 1.36406 0
M  V30 2731 C 258.846 -2.11094 0.0163124 0
M  V30 2732 O 258.194 -2.05426 -1.00062 0
M  V30 2733 C 258.404 -2.3791 2.55343 0
M  V30 2734 C 259.752 -3.01637 2.98832 0
M  V30 2735 O 260.776 -2.48237 2.55455 0
M  V30 2736 O 259.635 -3.98477 3.74003 0
M  V30 2737 H 256.729 -0.626773 0.539523 0
M  V30 2738 H 259.275 -0.670317 1.559 0
M  V30 2739 H 258.047 -1.84525 3.4506 0
M  V30 2740 H 257.67 -3.18503 2.37995 0
M  V30 2741 N 258.668 -1.30515 -0.883378 0
M  V30 2742 C 259.893 -1.22487 -1.67367 0
M  V30 2743 C 260.318 0.208767 -1.86938 0
M  V30 2744 O 259.676 1.15015 -1.40148 0
M  V30 2745 C 259.724 -1.96041 -3.02655 0
M  V30 2746 O 258.828 -1.28859 -3.91751 0
M  V30 2747 H 258.169 -0.423573 -0.511353 0
M  V30 2748 H 260.699 -1.72362 -1.10239 0
M  V30 2749 H 260.709 -2.05124 -3.52687 0
M  V30 2750 H 259.384 -3.00307 -2.8773 0
M  V30 2751 H 257.961 -1.28141 -3.50192 0
M  V30 2752 N 260.146 1.09593 -1.13257 0
M  V30 2753 C 261.394 1.81375 -0.891492 0
M  V30 2754 C 261.715 1.86049 0.584009 0
M  V30 2755 O 260.985 1.34481 1.42449 0
M  V30 2756 H 259.565 0.671708 -0.326828 0
M  V30 2757 H 262.227 1.3256 -1.42877 0
M  V30 2758 H 261.323 2.84612 -1.28071 0
M  V30 2759 N 261.624 0.925811 1.2754 0
M  V30 2760 C 262.87 0.566092 1.94739 0
M  V30 2761 C 263.203 -0.890057 1.72603 0
M  V30 2762 O 262.478 -1.63467 1.05399 0
M  V30 2763 C 262.761 0.89054 3.48915 0
M  V30 2764 C 262.614 2.4003 3.80402 0
M  V30 2765 C 263.933 0.395101 4.38323 0
M  V30 2766 H 261.052 0.20714 0.707292 0
M  V30 2767 H 263.694 1.15725 1.50691 0
M  V30 2768 H 261.844 0.387452 3.86563 0
M  V30 2769 H 263.516 2.97494 3.52555 0
M  V30 2770 H 261.759 2.85028 3.2702 0
M  V30 2771 H 262.43 2.57785 4.8811 0
M  V30 2772 H 264.906 0.826241 4.07814 0
M  V30 2773 H 263.782 0.651086 5.45025 0
M  V30 2774 H 264.043 -0.704798 4.36446 0
M  V30 2775 N 263.102 -1.41638 0.69111 0
M  V30 2776 C 264.379 -1.95036 0.148421 0
M  V30 2777 C 264.759 -1.63072 -1.34055 0
M  V30 2778 O 264.107 -0.93538 -2.08478 0
M  V30 2779 C 264.317 -3.46279 0.434951 0
M  V30 2780 C 265.665 -4.23069 0.360275 0
M  V30 2781 O 266.689 -3.54277 0.369613 0
M  V30 2782 O 265.548 -5.45583 0.316534 0
M  V30 2783 H 262.642 -0.826908 0.0123654 0
M  V30 2784 H 265.188 -1.5138 0.766963 0
M  V30 2785 H 263.96 -3.6281 1.46576 0
M  V30 2786 H 263.583 -3.97019 -0.214787 0
M  V30 2787 N 264.58 -0.43555 -1.51462 0
M  V30 2788 C 265.857 0.191364 -1.94662 0
M  V30 2789 C 266.237 1.60254 -1.37411 0
M  V30 2790 O 265.585 2.2152 -0.560458 0
M  V30 2791 C 265.795 0.17091 -3.48581 0
M  V30 2792 C 267.143 0.377357 -4.2292 0
M  V30 2793 O 268.167 0.249104 -3.55328 0
M  V30 2794 O 267.026 0.63247 -5.42828 0
M  V30 2795 H 264.12 0.130932 -0.816569 0
M  V30 2796 H 266.666 -0.4934 -1.62369 0
M  V30 2797 H 265.438 -0.815738 -3.82703 0
M  V30 2798 H 265.061 0.898659 -3.87311 0
M  V30 2799 N 266.058 1.56714 -0.166846 0
M  V30 2800 C 267.335 1.88412 0.525373 0
M  V30 2801 C 267.715 1.07602 1.81618 0
M  V30 2802 O 267.063 0.168621 2.27877 0
M  V30 2803 C 267.273 3.40363 0.771613 0
M  V30 2804 C 268.621 4.10007 1.1036 0
M  V30 2805 O 269.645 3.45655 0.860304 0
M  V30 2806 O 268.504 5.2369 1.56239 0
M  V30 2807 H 265.598 0.781587 0.270278 0
M  V30 2808 H 268.144 1.68458 -0.204946 0
M  V30 2809 H 266.916 3.91046 -0.141093 0
M  V30 2810 H 266.539 3.65914 1.55541 0
M  V30 2811 N 267.536 -0.106894 1.57237 0
M  V30 2812 C 268.469 -1.16125 1.96444 0
M  V30 2813 C 269.447 -1.3947 0.835871 0
M  V30 2814 O 270.631 -1.53425 1.09513 0
M  V30 2815 C 267.758 -2.51277 2.27107 0
M  V30 2816 C 266.804 -2.44285 3.4961 0
M  V30 2817 S 267.637 -1.87077 5.01759 0
M  V30 2818 C 268.793 -3.23877 5.35588 0
M  V30 2819 H 269.026 -0.826971 2.85567 0
M  V30 2820 H 266.559 -0.314124 1.51171 0
M  V30 2821 H 268.517 -3.29035 2.45451 0
M  V30 2822 H 267.178 -2.81879 1.38576 0
M  V30 2823 H 266.371 -3.4387 3.68469 0
M  V30 2824 H 265.973 -1.74652 3.30715 0
M  V30 2825 H 268.265 -4.20122 5.31511 0
M  V30 2826 H 269.208 -3.09833 6.36717 0
M  V30 2827 H 269.616 -3.22864 4.63054 0
M  V30 2828 N 269.014 -1.53014 -0.377408 0
M  V30 2829 C 269.977 -1.77957 -1.44444 0
M  V30 2830 C 270.977 -0.649763 -1.47087 0
M  V30 2831 O 272.167 -0.917897 -1.48055 0
M  V30 2832 C 269.299 -1.89089 -2.83651 0
M  V30 2833 H 270.492 -2.73243 -1.23606 0
M  V30 2834 H 268.045 -1.43912 -0.609844 0
M  V30 2835 H 268.78 -0.958293 -3.09818 0
M  V30 2836 H 268.565 -2.71254 -2.83132 0
M  V30 2837 H 270.055 -2.1002 -3.60945 0
M  V30 2838 N 270.492 0.636531 -1.44174 0
M  V30 2839 C 271.732 1.40781 -1.48189 0
M  V30 2840 C 272.096 1.91688 -0.10944 0
M  V30 2841 O 273.297 2.68789 -0.0242741 0
M  V30 2842 C 271.568 2.54575 -2.50851 0
M  V30 2843 S 273.127 3.4284 -2.73873 0
M  V30 2844 H 269.945 0.480345 -0.524204 0
M  V30 2845 H 272.547 0.737416 -1.81059 0
M  V30 2846 H 271.251 2.15478 -3.49281 0
M  V30 2847 H 270.782 3.26447 -2.19536 0
M  V30 2848 H 272.797 4.51846 -2.05059 0
M  V30 2849 N 271.97 1.30982 0.876444 0
M  V30 2850 C 272.92 1.14688 1.97055 0
M  V30 2851 C 273.904 0.0596593 1.60789 0
M  V30 2852 O 275.096 0.283892 1.74708 0
M  V30 2853 C 272.225 0.849627 3.3262 0
M  V30 2854 C 271.311 1.97752 3.75173 0
M  V30 2855 N 271.702 3.22384 3.89746 0
M  V30 2856 C 270 1.8758 4.04635 0
M  V30 2857 C 270.701 3.96121 4.25985 0
M  V30 2858 N 269.677 3.24237 4.36315 0
M  V30 2859 H 273.479 2.09204 2.06424 0
M  V30 2860 H 270.993 1.22445 1.06682 0
M  V30 2861 H 272.99 0.713895 4.10742 0
M  V30 2862 H 271.65 -0.087376 3.24582 0
M  V30 2863 H 272.661 3.57575 3.74647 0
M  V30 2864 H 269.338 1.01303 4.05024 0
M  V30 2865 H 270.728 5.03491 4.44911 0
M  V30 2866 N 273.449 -1.08991 1.13837 0
M  V30 2867 C 274.396 -2.15748 0.819835 0
M  V30 2868 C 275.366 -1.64636 -0.220026 0
M  V30 2869 O 276.551 -1.90582 -0.0912757 0
M  V30 2870 C 273.691 -3.4382 0.296913 0
M  V30 2871 C 272.804 -4.0881 1.39636 0
M  V30 2872 C 271.939 -5.24655 0.831314 0
M  V30 2873 C 270.978 -5.81575 1.90886 0
M  V30 2874 N 270.115 -6.88774 1.36142 0
M  V30 2875 H 274.955 -2.42338 1.73426 0
M  V30 2876 H 272.492 -1.18935 0.865613 0
M  V30 2877 H 274.45 -4.17193 -0.0244339 0
M  V30 2878 H 273.08 -3.17535 -0.580628 0
M  V30 2879 H 272.132 -3.33258 1.83422 0
M  V30 2880 H 273.444 -4.47141 2.21058 0
M  V30 2881 H 272.598 -6.04942 0.461515 0
M  V30 2882 H 271.337 -4.87698 -0.013932 0
M  V30 2883 H 270.342 -4.99946 2.28767 0
M  V30 2884 H 271.567 -6.20592 2.75758 0
M  V30 2885 H 269.513 -6.53788 0.538254 0
M  V30 2886 H 269.43 -7.25898 2.11208 0
M  V30 2887 H 270.698 -7.72806 1.01933 0
M  V30 2888 N 274.927 -0.932562 -1.27047 0
M  V30 2889 C 276.176 -0.571351 -1.93439 0
M  V30 2890 C 276.489 0.892467 -1.74053 0
M  V30 2891 O 277.695 1.36267 -2.34826 0
M  V30 2892 C 276.151 -0.97106 -3.46552 0
M  V30 2893 C 275.759 -2.4559 -3.74686 0
M  V30 2894 C 277.503 -0.681333 -4.18997 0
M  V30 2895 C 275.41 -2.79475 -5.21198 0
M  V30 2896 H 274.34 -0.209966 -0.724176 0
M  V30 2897 H 276.991 -1.13403 -1.44263 0
M  V30 2898 H 275.373 -0.336983 -3.94564 0
M  V30 2899 H 276.547 -3.13829 -3.37414 0
M  V30 2900 H 274.862 -2.71802 -3.15456 0
M  V30 2901 H 277.459 -0.910939 -5.26883 0
M  V30 2902 H 277.802 0.381628 -4.14547 0
M  V30 2903 H 278.335 -1.27473 -3.76823 0
M  V30 2904 H 275.074 -3.847 -5.30741 0
M  V30 2905 H 274.594 -2.1589 -5.596 0
M  V30 2906 H 276.273 -2.67478 -5.89122 0
M  V30 2907 N 276.405 1.4127 -0.698611 0
M  V30 2908 C 277.816 1.84187 -0.305289 0
M  V30 2909 C 278.167 1.58449 1.15708 0
M  V30 2910 O 277.292 1.05651 1.88856 0
M  V30 2911 C 277.887 3.3435 -0.547314 0
M  V30 2912 C 276.446 3.75826 -0.207878 0
M  V30 2913 C 275.593 2.64647 -0.828099 0
M  V30 2914 H 278.544 1.30778 -0.89904 0
M  V30 2915 H 278.565 3.8001 0.192998 0
M  V30 2916 H 278.077 3.53051 -1.61172 0
M  V30 2917 H 276.178 3.62725 0.852143 0
M  V30 2918 H 276.291 4.74462 -0.665021 0
M  V30 2919 H 274.655 2.53395 -0.257458 0
M  V30 2920 H 275.438 2.86165 -1.89643 0
M  V30 2921 N 277.883 0.443576 1.51229 0
M  V30 2922 C 279.129 -0.120975 2.02439 0
M  V30 2923 C 279.462 -1.41815 1.32674 0
M  V30 2924 O 278.737 -1.89373 0.443622 0
M  V30 2925 C 279.02 -0.333291 3.58554 0
M  V30 2926 C 278.873 0.982968 4.38928 0
M  V30 2927 C 280.192 -1.10028 4.26124 0
M  V30 2928 H 277.311 -0.0424923 0.735774 0
M  V30 2929 H 279.953 0.583794 1.80809 0
M  V30 2930 H 278.103 -0.933614 3.77115 0
M  V30 2931 H 279.775 1.61775 4.32003 0
M  V30 2932 H 278.018 1.58611 4.03763 0
M  V30 2933 H 278.689 0.788379 5.46341 0
M  V30 2934 H 281.165 -0.591711 4.11871 0
M  V30 2935 H 280.041 -1.21761 5.35225 0
M  V30 2936 H 280.302 -2.12996 3.87408 0
M  V30 2937 N 279.361 -1.56624 0.175154 0
M  V30 2938 C 280.271 -2.21741 -0.766042 0
M  V30 2939 C 281.287 -1.21023 -1.25018 0
M  V30 2940 O 282.463 -1.53697 -1.3015 0
M  V30 2941 C 279.528 -2.84839 -1.97655 0
M  V30 2942 C 278.589 -4.00769 -1.53892 0
M  V30 2943 C 277.822 -4.60849 -2.69173 0
M  V30 2944 O 278.045 -4.19823 -3.86141 0
M  V30 2945 O 276.979 -5.50655 -2.43028 0
M  V30 2946 H 280.805 -3.02738 -0.241585 0
M  V30 2947 H 278.39 -1.49305 -0.053222 0
M  V30 2948 H 280.272 -3.24834 -2.68442 0
M  V30 2949 H 278.947 -2.06836 -2.48999 0
M  V30 2950 H 277.854 -3.65436 -0.80044 0
M  V30 2951 H 279.187 -4.80376 -1.07236 0
M  V30 2952 N 280.839 0.0985539 -1.57292 0
M  V30 2953 C 281.802 1.10402 -2.00858 0
M  V30 2954 C 282.802 1.33146 -0.901593 0
M  V30 2955 O 283.992 1.29318 -1.16716 0
M  V30 2956 C 281.124 2.45394 -2.36632 0
M  V30 2957 H 282.317 0.729099 -2.90902 0
M  V30 2958 H 279.87 0.343495 -1.52479 0
M  V30 2959 H 280.605 2.87769 -1.49531 0
M  V30 2960 H 280.39 2.30235 -3.17387 0
M  V30 2961 H 281.88 3.17718 -2.71007 0
M  V30 2962 N 282.317 1.53212 0.369288 0
M  V30 2963 C 283.594 1.59815 1.12776 0
M  V30 2964 C 283.974 0.403402 2.0721 0
M  V30 2965 O 283.322 -0.606667 2.20299 0
M  V30 2966 C 283.532 2.94664 1.87013 0
M  V30 2967 C 284.88 3.49109 2.41677 0
M  V30 2968 O 285.904 2.96669 1.97144 0
M  V30 2969 O 284.763 4.40775 3.23079 0
M  V30 2970 H 281.857 0.645376 0.517125 0
M  V30 2971 H 284.403 1.65553 0.37285 0
M  V30 2972 H 283.175 3.73061 1.18071 0
M  V30 2973 H 282.798 2.92401 2.69421 0
M  V30 2974 N 283.795 -0.628877 1.44509 0
M  V30 2975 C 285.042 -1.38839 1.47411 0
M  V30 2976 C 285.37 -1.94202 0.10757 0
M  V30 2977 O 284.625 -1.74243 -0.890947 0
M  V30 2978 C 284.924 -2.56995 2.48371 0
M  V30 2979 C 284.59 -2.19908 3.93639 0
M  V30 2980 C 283.252 -2.09506 4.33198 0
M  V30 2981 C 285.604 -1.9064 4.85083 0
M  V30 2982 C 282.932 -1.68028 5.62124 0
M  V30 2983 C 285.284 -1.50655 6.14399 0
M  V30 2984 C 283.948 -1.38796 6.5291 0
M  V30 2985 H 283.218 -0.508048 0.539414 0
M  V30 2986 H 285.865 -0.712913 1.77735 0
M  V30 2987 H 284.17 -3.29786 2.11538 0
M  V30 2988 H 285.867 -3.15223 2.47861 0
M  V30 2989 H 282.457 -2.28922 3.62343 0
M  V30 2990 H 286.641 -1.97585 4.55273 0
M  V30 2991 H 281.897 -1.57452 5.90778 0
M  V30 2992 H 286.071 -1.27048 6.84713 0
M  V30 2993 H 283.698 -1.06429 7.52713 0
M  V30 2994 N 285.273 -1.31445 -0.869486 0
M  V30 2995 C 286.203 -1.21727 -1.99261 0
M  V30 2996 C 287.184 -0.104359 -1.6978 0
M  V30 2997 O 288.369 -0.289038 -1.92037 0
M  V30 2998 C 285.499 -0.924317 -3.34774 0
M  V30 2999 C 284.453 -1.99685 -3.78563 0
M  V30 3000 C 283.779 -1.55658 -5.11541 0
M  V30 3001 C 285.079 -3.41003 -3.95619 0
M  V30 3002 H 286.773 -2.1569 -2.07649 0
M  V30 3003 H 284.319 -1.03839 -0.997675 0
M  V30 3004 H 286.272 -0.842934 -4.12883 0
M  V30 3005 H 284.996 0.0509793 -3.2656 0
M  V30 3006 H 283.655 -2.06813 -3.02694 0
M  V30 3007 H 283.303 -0.569132 -4.9977 0
M  V30 3008 H 283.003 -2.27409 -5.41811 0
M  V30 3009 H 284.527 -1.48928 -5.92159 0
M  V30 3010 H 285.941 -3.36547 -4.64122 0
M  V30 3011 H 284.338 -4.10975 -4.37286 0
M  V30 3012 H 285.408 -3.81754 -2.98985 0
M  V30 3013 N 286.751 1.08385 -1.14413 0
M  V30 3014 C 287.981 1.8425 -0.934644 0
M  V30 3015 C 288.389 1.81907 0.520234 0
M  V30 3016 O 287.732 1.22126 1.37226 0
M  V30 3017 C 287.794 3.32853 -1.35828 0
M  V30 3018 C 287.458 3.5893 -2.82875 0
M  V30 3019 C 288.455 3.53756 -3.80989 0
M  V30 3020 C 286.14 3.86934 -3.20293 0
M  V30 3021 C 288.134 3.76216 -5.14529 0
M  V30 3022 C 285.821 4.09047 -4.54008 0
M  V30 3023 C 286.819 4.03682 -5.50936 0
M  V30 3024 O 286.507 4.25214 -6.82238 0
M  V30 3025 H 286.239 0.588502 -0.332628 0
M  V30 3026 H 288.793 1.37792 -1.52324 0
M  V30 3027 H 287.023 3.8007 -0.713019 0
M  V30 3028 H 288.712 3.90154 -1.11957 0
M  V30 3029 H 289.478 3.32135 -3.53428 0
M  V30 3030 H 285.357 3.9023 -2.45442 0
M  V30 3031 H 288.901 3.71943 -5.90173 0
M  V30 3032 H 284.798 4.30151 -4.8129 0
M  V30 3033 H 285.566 4.42619 -6.88499 0
M  V30 3034 N 288.23 0.939286 1.26551 0
M  V30 3035 C 289.193 0.451987 2.24699 0
M  V30 3036 C 290.193 -0.435869 1.5478 0
M  V30 3037 O 291.383 -0.235314 1.72603 0
M  V30 3038 C 288.515 -0.348801 3.39111 0
M  V30 3039 H 289.708 1.3193 2.69322 0
M  V30 3040 H 287.261 0.721072 1.38673 0
M  V30 3041 H 287.996 -1.23444 2.99887 0
M  V30 3042 H 287.781 0.287945 3.91041 0
M  V30 3043 H 289.271 -0.679726 4.12031 0
M  V30 3044 N 289.708 -1.40897 0.706093 0
M  V30 3045 C 290.938 -2.05075 0.250523 0
M  V30 3046 C 291.346 -1.53275 -1.10921 0
M  V30 3047 O 290.689 -0.680281 -1.7064 0
M  V30 3048 C 290.751 -3.59219 0.142178 0
M  V30 3049 C 290.415 -4.33864 1.43566 0
M  V30 3050 C 291.412 -4.62448 2.37566 0
M  V30 3051 C 289.097 -4.72946 1.69195 0
M  V30 3052 C 291.091 -5.29088 3.5545 0
M  V30 3053 C 288.778 -5.3932 2.87362 0
M  V30 3054 C 289.776 -5.6732 3.80312 0
M  V30 3055 O 289.464 -6.32325 4.96408 0
M  V30 3056 H 289.196 -0.666645 0.112074 0
M  V30 3057 H 291.75 -1.81467 0.962239 0
M  V30 3058 H 289.98 -3.81609 -0.6254 0
M  V30 3059 H 291.669 -4.0495 -0.277584 0
M  V30 3060 H 292.435 -4.32727 2.19027 0
M  V30 3061 H 288.314 -4.50527 0.977042 0
M  V30 3062 H 291.858 -5.50859 4.28018 0
M  V30 3063 H 287.755 -5.68461 3.05814 0
M  V30 3064 H 288.523 -6.50821 4.9636 0
M  V30 3065 N 291.186 -0.45159 -1.50991 0
M  V30 3066 C 292.411 0.110667 -2.07105 0
M  V30 3067 C 292.836 1.3446 -1.31538 0
M  V30 3068 O 292.194 1.77743 -0.357365 0
M  V30 3069 C 292.242 0.397238 -3.58405 0
M  V30 3070 O 291.346 1.48124 -3.84881 0
M  V30 3071 H 290.687 -0.00439271 -0.663985 0
M  V30 3072 H 293.217 -0.637026 -1.9443 0
M  V30 3073 H 293.227 0.64351 -4.02893 0
M  V30 3074 H 291.902 -0.504553 -4.12828 0
M  V30 3075 H 290.479 1.22381 -3.52246 0
M  V30 3076 N 292.664 1.56529 -0.183458 0
M  V30 3077 C 293.892 2.01623 0.464285 0
M  V30 3078 C 294.307 1.06366 1.55986 0
M  V30 3079 O 293.664 0.0665398 1.82379 0
M  V30 3080 C 293.715 3.46475 1.03139 0
M  V30 3081 O 293.436 4.38095 -0.0204675 0
M  V30 3082 C 294.937 4.0703 1.75617 0
M  V30 3083 H 292.157 0.660596 0.117704 0
M  V30 3084 H 294.701 2.02451 -0.288751 0
M  V30 3085 H 292.856 3.46383 1.73486 0
M  V30 3086 H 293.27 5.22973 0.399952 0
M  V30 3087 H 294.744 5.10271 2.10542 0
M  V30 3088 H 295.221 3.49819 2.65563 0
M  V30 3089 H 295.827 4.1086 1.09882 0
M  V30 3090 N 294.142 -0.090211 1.57342 0
M  V30 3091 C 295.105 -1.09335 2.01441 0
M  V30 3092 C 296.105 -1.32666 0.908641 0
M  V30 3093 O 297.295 -1.28697 1.174 0
M  V30 3094 C 294.427 -2.44136 2.3793 0
M  V30 3095 H 295.62 -0.713662 2.91285 0
M  V30 3096 H 293.173 -0.335404 1.52659 0
M  V30 3097 H 293.908 -2.86972 1.51055 0
M  V30 3098 H 293.693 -2.28548 3.18603 0
M  V30 3099 H 295.183 -3.16277 2.72688 0
M  V30 3100 N 295.62 -1.53406 -0.361157 0
M  V30 3101 C 297.031 -1.61442 -0.937728 0
M  V30 3102 C 297.382 -0.48461 -1.90121 0
M  V30 3103 O 296.507 0.388312 -2.12888 0
M  V30 3104 C 297.102 -2.92624 -1.70753 0
M  V30 3105 C 295.661 -3.02981 -2.23337 0
M  V30 3106 C 294.808 -2.5677 -1.04712 0
M  V30 3107 H 297.759 -1.58083 -0.139816 0
M  V30 3108 H 297.78 -2.80675 -2.56908 0
M  V30 3109 H 297.292 -3.74834 -1.00604 0
M  V30 3110 H 295.393 -2.25368 -2.96715 0
M  V30 3111 H 295.506 -4.0814 -2.50916 0
M  V30 3112 H 293.87 -2.11752 -1.41539 0
M  V30 3113 H 294.653 -3.41402 -0.360539 0
M  V30 3114 N 297.098 0.621204 -1.44841 0
M  V30 3115 C 298.346 1.37783 -1.47852 0
M  V30 3116 C 298.667 1.94653 -0.116224 0
M  V30 3117 O 297.937 1.76367 0.852737 0
M  V30 3118 H 296.517 0.511453 -0.544449 0
M  V30 3119 H 299.179 0.730446 -1.80694 0
M  V30 3120 H 298.275 2.20414 -2.20961 0
M  V30 3121 N 298.576 1.31904 0.862503 0
M  V30 3122 C 299.806 1.24817 1.64634 0
M  V30 3123 C 300.214 -0.187579 1.88268 0
M  V30 3124 O 299.557 -1.13253 1.44635 0
M  V30 3125 C 299.619 1.92996 3.03303 0
M  V30 3126 C 299.283 3.42336 3.02746 0
M  V30 3127 C 300.28 4.37956 2.80162 0
M  V30 3128 C 297.965 3.84147 3.2363 0
M  V30 3129 C 299.959 5.73361 2.78453 0
M  V30 3130 C 297.646 5.19663 3.21549 0
M  V30 3131 C 298.644 6.14081 2.98988 0
M  V30 3132 O 298.332 7.47118 2.96766 0
M  V30 3133 H 298.064 0.432222 0.519769 0
M  V30 3134 H 300.618 1.7445 1.08427 0
M  V30 3135 H 298.848 1.37922 3.61268 0
M  V30 3136 H 300.537 1.79723 3.63943 0
M  V30 3137 H 301.303 4.06981 2.63802 0
M  V30 3138 H 297.182 3.11083 3.40218 0
M  V30 3139 H 300.726 6.4703 2.60763 0
M  V30 3140 H 296.623 5.5027 3.37451 0
M  V30 3141 H 297.391 7.56382 3.12775 0
M  V30 3142 N 300.054 -1.07777 1.14986 0
M  V30 3143 C 301.284 -1.83752 0.944402 0
M  V30 3144 C 301.692 -1.8218 -0.51058 0
M  V30 3145 O 301.035 -1.22852 -1.36576 0
M  V30 3146 C 301.097 -3.32128 1.37592 0
M  V30 3147 C 300.761 -3.57425 2.84775 0
M  V30 3148 C 301.758 -3.5173 3.8286 0
M  V30 3149 C 299.443 -3.8523 3.2234 0
M  V30 3150 C 301.437 -3.73482 5.16517 0
M  V30 3151 C 299.124 -4.06634 4.56171 0
M  V30 3152 C 300.122 -4.00754 5.53069 0
M  V30 3153 O 299.81 -4.2159 6.84483 0
M  V30 3154 H 299.542 -0.58673 0.335744 0
M  V30 3155 H 302.096 -1.36982 1.53052 0
M  V30 3156 H 300.326 -3.79686 0.733165 0
M  V30 3157 H 302.015 -3.89555 1.14024 0
M  V30 3158 H 302.781 -3.30256 3.55184 0
M  V30 3159 H 298.66 -3.88923 2.47508 0
M  V30 3160 H 302.204 -3.68808 5.92137 0
M  V30 3161 H 298.101 -4.27593 4.83564 0
M  V30 3162 H 298.869 -4.38961 6.90837 0
M  V30 3163 N 301.532 -0.945985 -1.26051 0
M  V30 3164 C 302.757 -0.612525 -1.98149 0
M  V30 3165 C 303.182 0.806623 -1.69927 0
M  V30 3166 O 302.54 1.54411 -0.950108 0
M  V30 3167 C 302.588 -0.866981 -3.50023 0
M  V30 3168 O 301.692 0.0585333 -4.12358 0
M  V30 3169 H 301.033 -0.23379 -0.621481 0
M  V30 3170 H 303.563 -1.27023 -1.60395 0
M  V30 3171 H 303.573 -0.789792 -4.00283 0
M  V30 3172 H 302.248 -1.90135 -3.69894 0
M  V30 3173 H 300.825 -0.0701241 -3.72834 0
M  V30 3174 N 303.011 1.40521 -0.713556 0
M  V30 3175 C 304.257 2.01714 -0.261382 0
M  V30 3176 C 304.612 1.55562 1.13217 0
M  V30 3177 O 303.905 0.764893 1.7567 0
M  V30 3178 C 304.099 3.56317 -0.278 0
M  V30 3179 C 303.928 4.17476 -1.67163 0
M  V30 3180 C 302.698 4.50998 -2.2788 0
M  V30 3181 C 304.896 4.42472 -2.6215 0
M  V30 3182 N 302.878 4.9754 -3.5962 0
M  V30 3183 C 304.249 4.90985 -3.78594 0
M  V30 3184 C 306.304 4.24508 -2.60188 0
M  V30 3185 C 305.007 5.2342 -4.9338 0
M  V30 3186 C 307.033 4.58043 -3.741 0
M  V30 3187 C 306.395 5.06743 -4.89276 0
M  V30 3188 H 302.494 0.769104 -0.141434 0
M  V30 3189 H 305.078 1.70785 -0.934915 0
M  V30 3190 H 303.249 3.8668 0.36509 0
M  V30 3191 H 304.981 4.0425 0.190695 0
M  V30 3192 H 301.736 4.38062 -1.79997 0
M  V30 3193 H 302.16 5.25196 -4.27198 0
M  V30 3194 H 306.802 3.86078 -1.72348 0
M  V30 3195 H 304.52 5.60765 -5.81866 0
M  V30 3196 H 308.106 4.45785 -3.73854 0
M  V30 3197 H 306.986 5.32204 -5.75959 0
M  V30 3198 N 304.489 0.459591 1.5075 0
M  V30 3199 C 305.905 0.113092 1.59199 0
M  V30 3200 C 306.105 -1.37951 1.46874 0
M  V30 3201 O 305.161 -2.15168 1.32132 0
M  V30 3202 C 306.474 0.653043 2.93523 0
M  V30 3203 C 308.022 0.615449 3.0689 0
M  V30 3204 C 308.497 1.13275 4.43771 0
M  V30 3205 N 309.988 1.09167 4.50152 0
M  V30 3206 C 310.723 1.46256 5.54434 0
M  V30 3207 N 310.219 1.90739 6.66026 0
M  V30 3208 N 312.012 1.37932 5.44914 0
M  V30 3209 H 304.163 1.43049 1.57005 0
M  V30 3210 H 306.426 0.590861 0.741341 0
M  V30 3211 H 306.132 1.69822 3.07983 0
M  V30 3212 H 306.006 0.0902132 3.77092 0
M  V30 3213 H 308.393 -0.420793 2.92084 0
M  V30 3214 H 308.474 1.21495 2.25106 0
M  V30 3215 H 308.118 2.16757 4.59324 0
M  V30 3216 H 308.048 0.509576 5.24129 0
M  V30 3217 H 310.539 0.76528 3.7007 0
M  V30 3218 H 310.852 2.17218 7.41644 0
M  V30 3219 H 309.197 1.94683 6.67176 0
M  V30 3220 H 312.388 1.0303 4.56621 0
M  V30 3221 H 312.561 1.67164 6.26067 0
M  V30 3222 N 305.967 -1.56429 0.191757 0
M  V30 3223 C 306.915 -2.20273 -0.747174 0
M  V30 3224 C 307.909 -1.17288 -1.22229 0
M  V30 3225 O 309.115 -1.35441 -1.18557 0
M  V30 3226 H 305.49 -0.705885 -0.259289 0
M  V30 3227 H 307.461 -2.97826 -0.184963 0
M  V30 3228 C 306.21 -2.87356 -1.95759 0
M  V30 3229 H 305.533 -3.66341 -1.60106 0
M  V30 3230 H 306.973 -3.3547 -2.59299 0
M  V30 3231 C 305.432 -1.88213 -2.79423 0
M  V30 3232 O 305.962 -1.38033 -3.7724 0
M  V30 3233 N 304.168 -1.56516 -2.44849 0
M  V30 3234 H 303.715 -1.97516 -1.65364 0
M  V30 3235 H 303.673 -0.904369 -3.01112 0
M  V30 3236 N 307.445 0.0818655 -1.57387 0
M  V30 3237 C 308.67 0.799946 -1.91352 0
M  V30 3238 C 309.095 1.70833 -0.787258 0
M  V30 3239 O 308.453 1.79419 0.26048 0
M  V30 3240 C 308.501 1.57812 -3.24234 0
M  V30 3241 O 307.605 2.68806 -3.12757 0
M  V30 3242 H 306.946 0.21891 -0.626877 0
M  V30 3243 H 309.476 0.0531256 -2.04531 0
M  V30 3244 H 309.486 1.95952 -3.57864 0
M  V30 3245 H 308.161 0.911548 -4.05788 0
M  V30 3246 H 306.738 2.33597 -2.90666 0
M  V30 3247 N 308.923 1.53595 0.353017 0
M  V30 3248 C 309.87 1.80919 1.43308 0
M  V30 3249 C 310.84 0.654288 1.5267 0
M  V30 3250 O 312.025 0.897759 1.6836 0
M  V30 3251 C 309.165 2.01605 2.80089 0
M  V30 3252 C 308.278 3.29321 2.79593 0
M  V30 3253 C 307.413 3.40125 4.0803 0
M  V30 3254 C 306.452 4.61826 4.01725 0
M  V30 3255 N 305.589 4.69716 5.21834 0
M  V30 3256 H 310.429 2.73074 1.19308 0
M  V30 3257 H 307.966 1.35263 0.578131 0
M  V30 3258 H 309.924 2.11586 3.59565 0
M  V30 3259 H 308.554 1.12772 3.0246 0
M  V30 3260 H 307.606 3.28229 1.92276 0
M  V30 3261 H 308.918 4.18884 2.70809 0
M  V30 3262 H 308.072 3.49488 4.95927 0
M  V30 3263 H 306.811 2.48601 4.19582 0
M  V30 3264 H 305.816 4.52552 3.12213 0
M  V30 3265 H 307.041 5.54705 3.91764 0
M  V30 3266 H 304.987 3.81097 5.33948 0
M  V30 3267 H 304.904 5.53202 5.1527 0
M  V30 3268 H 306.172 4.83376 6.11529 0
M  V30 3269 N 310.401 -0.613514 1.45168 0
M  V30 3270 C 311.678 -1.37263 1.39349 0
M  V30 3271 C 312.058 -2.11012 0.0610848 0
M  V30 3272 O 311.406 -2.07502 -0.956825 0
M  V30 3273 C 311.616 -2.3244 2.60332 0
M  V30 3274 C 312.964 -2.9523 3.05163 0
M  V30 3275 O 313.988 -2.42762 2.60663 0
M  V30 3276 O 312.847 -3.90454 3.82372 0
M  V30 3277 H 309.941 -0.615188 0.552696 0
M  V30 3278 H 312.487 -0.637097 1.57287 0
M  V30 3279 H 311.259 -1.77164 3.48896 0
M  V30 3280 H 310.882 -3.13383 2.44698 0
M  V30 3281 N 311.879 -1.3236 -0.855495 0
M  V30 3282 C 313.127 -1.22629 -1.60644 0
M  V30 3283 C 313.448 0.212136 -1.93843 0
M  V30 3284 O 312.718 1.13666 -1.59552 0
M  V30 3285 H 311.298 -0.450882 -0.595579 0
M  V30 3286 H 313.96 -1.65871 -1.02337 0
M  V30 3287 H 313.056 -1.80832 -2.54374 0
M  V30 3288 N 313.357 1.07166 -1.15556 0
M  V30 3289 C 314.582 1.84053 -0.955988 0
M  V30 3290 C 315.007 1.81586 0.490739 0
M  V30 3291 O 314.365 1.21018 1.34997 0
M  V30 3292 C 314.413 3.28957 -1.47714 0
M  V30 3293 O 313.517 4.06795 -0.677593 0
M  V30 3294 H 312.858 0.569842 -0.340847 0
M  V30 3295 H 315.388 1.35178 -1.53584 0
M  V30 3296 H 315.398 3.79788 -1.4908 0
M  V30 3297 H 314.073 3.30068 -2.53037 0
M  V30 3298 H 312.65 3.6561 -0.733721 0
M  V30 3299 N 314.835 0.952656 1.25548 0
M  V30 3300 C 316.081 0.616826 1.93822 0
M  V30 3301 C 316.436 -0.836684 1.73255 0
M  V30 3302 O 315.729 -1.59218 1.06584 0
M  V30 3303 C 315.923 0.908818 3.45652 0
M  V30 3304 C 315.752 2.38916 3.80984 0
M  V30 3305 C 314.522 3.04637 4.03143 0
M  V30 3306 C 316.72 3.36838 3.88645 0
M  V30 3307 N 314.702 4.42565 4.25453 0
M  V30 3308 C 316.073 4.60065 4.1562 0
M  V30 3309 C 318.128 3.31704 3.71318 0
M  V30 3310 C 316.831 5.78795 4.2707 0
M  V30 3311 C 318.857 4.4977 3.84006 0
M  V30 3312 C 318.219 5.71783 4.11392 0
M  V30 3313 H 314.318 0.27629 0.731565 0
M  V30 3314 H 316.902 1.22443 1.5138 0
M  V30 3315 H 315.073 0.330166 3.86994 0
M  V30 3316 H 316.805 0.533093 4.01174 0
M  V30 3317 H 313.56 2.55215 3.98952 0
M  V30 3318 H 313.984 5.1399 4.40617 0
M  V30 3319 H 318.626 2.3842 3.49164 0
M  V30 3320 H 316.344 6.72521 4.48041 0
M  V30 3321 H 319.93 4.47342 3.71989 0
M  V30 3322 H 318.81 6.61617 4.2099 0
M  V30 3323 N 316.313 -1.40141 0.720998 0
M  V30 3324 C 317.56 -2.00787 0.262842 0
M  V30 3325 C 317.888 -1.5718 -1.14563 0
M  V30 3326 O 317.143 -0.785391 -1.79249 0
M  V30 3327 C 317.442 -3.56165 0.296892 0
M  V30 3328 C 317.108 -4.19373 1.65641 0
M  V30 3329 C 315.77 -4.36352 2.02855 0
M  V30 3330 C 318.122 -4.54578 2.54968 0
M  V30 3331 C 315.45 -4.8582 3.28931 0
M  V30 3332 C 317.802 -5.05447 3.80402 0
M  V30 3333 C 316.466 -5.20635 4.17726 0
M  V30 3334 H 315.736 -0.734731 0.0961807 0
M  V30 3335 H 318.383 -1.67673 0.925093 0
M  V30 3336 H 316.688 -3.8922 -0.448932 0
M  V30 3337 H 318.385 -4.00929 -0.0755208 0
M  V30 3338 H 314.975 -4.06549 1.35704 0
M  V30 3339 H 319.159 -4.41091 2.27491 0
M  V30 3340 H 314.415 -4.95764 3.57811 0
M  V30 3341 H 318.589 -5.31663 4.49786 0
M  V30 3342 H 316.216 -5.58728 5.15487 0
M  V30 3343 N 317.792 -0.46758 -1.50504 0
M  V30 3344 C 319.041 0.0902868 -2.01498 0
M  V30 3345 C 319.354 1.411 -1.35463 0
M  V30 3346 O 320.56 2.0536 -1.77594 0
M  V30 3347 C 319.016 0.21142 -3.59278 0
M  V30 3348 C 318.624 -1.10065 -4.34269 0
M  V30 3349 C 320.368 0.721433 -4.18325 0
M  V30 3350 C 318.275 -0.943505 -5.83825 0
M  V30 3351 H 317.205 0.037517 -0.753066 0
M  V30 3352 H 319.856 -0.601943 -1.73346 0
M  V30 3353 H 318.238 0.967352 -3.84003 0
M  V30 3354 H 319.412 -1.86726 -4.21272 0
M  V30 3355 H 317.727 -1.5415 -3.86816 0
M  V30 3356 H 320.324 0.85598 -5.27804 0
M  V30 3357 H 320.667 1.71186 -3.79475 0
M  V30 3358 H 321.2 0.0229843 -3.97793 0
M  V30 3359 H 317.939 -1.90719 -6.27141 0
M  V30 3360 H 317.459 -0.217213 -5.99407 0
M  V30 3361 H 319.138 -0.608715 -6.4413 0
M  V30 3362 N 319.27 1.56325 -0.20005 0
M  V30 3363 C 320.202 2.16555 0.750771 0
M  V30 3364 C 321.215 1.12871 1.1732 0
M  V30 3365 O 322.404 1.39943 1.10807 0
M  V30 3366 C 319.504 2.71684 2.02586 0
M  V30 3367 C 318.677 4.00321 1.76244 0
M  V30 3368 C 317.736 4.40227 2.88248 0
M  V30 3369 O 316.762 5.07552 2.57642 0
M  V30 3370 N 317.964 4.04138 4.16717 0
M  V30 3371 H 320.729 2.98772 0.235685 0
M  V30 3372 H 318.29 1.6189 -0.0182594 0
M  V30 3373 H 320.282 2.95363 2.76664 0
M  V30 3374 H 318.852 1.93893 2.45202 0
M  V30 3375 H 318.072 3.84723 0.85919 0
M  V30 3376 H 319.36 4.84279 1.56048 0
M  V30 3377 H 318.758 3.49993 4.44434 0
M  V30 3378 H 317.315 4.32756 4.87407 0
M  V30 3379 N 320.748 -0.0735177 1.57428 0
M  V30 3380 C 321.973 -0.789787 1.91774 0
M  V30 3381 C 322.398 -1.70413 0.796306 0
M  V30 3382 O 321.756 -1.79555 -0.250961 0
M  V30 3383 C 321.804 -1.5609 3.25067 0
M  V30 3384 O 320.908 -2.67144 3.14178 0
M  V30 3385 H 320.249 -0.215582 0.628029 0
M  V30 3386 H 322.779 -0.0422781 2.04556 0
M  V30 3387 H 322.789 -1.94052 3.58898 0
M  V30 3388 H 321.464 -0.890015 4.06265 0
M  V30 3389 H 320.041 -2.32052 2.91901 0
M  V30 3390 N 322.226 -1.5378 -0.344866 0
M  V30 3391 C 323.156 -1.84662 -1.42906 0
M  V30 3392 C 324.137 -0.701648 -1.54955 0
M  V30 3393 O 325.322 -0.953438 -1.69184 0
M  V30 3394 C 322.452 -2.05503 -2.79974 0
M  V30 3395 C 321.406 -3.21318 -2.82734 0
M  V30 3396 C 320.732 -3.2749 -4.22675 0
M  V30 3397 C 322.032 -4.59456 -2.48389 0
M  V30 3398 H 323.726 -2.75461 -1.17311 0
M  V30 3399 H 321.272 -1.32542 -0.562896 0
M  V30 3400 H 323.225 -2.25691 -3.55867 0
M  V30 3401 H 321.949 -1.11434 -3.07002 0
M  V30 3402 H 320.608 -3.00984 -2.09294 0
M  V30 3403 H 320.256 -2.31019 -4.4681 0
M  V30 3404 H 319.956 -4.05316 -4.25433 0
M  V30 3405 H 321.48 -3.49887 -5.00412 0
M  V30 3406 H 322.894 -4.79667 -3.13995 0
M  V30 3407 H 321.291 -5.39675 -2.62432 0
M  V30 3408 H 322.361 -4.63155 -1.4358 0
M  V30 3409 N 323.704 0.605807 -1.45491 0
M  V30 3410 C 324.944 1.37606 -1.51142 0
M  V30 3411 C 325.308 1.91413 -0.150075 0
M  V30 3412 O 326.509 2.68677 -0.0812828 0
M  V30 3413 C 324.78 2.49197 -2.56195 0
M  V30 3414 S 326.339 3.36953 -2.81083 0
M  V30 3415 H 323.157 0.469118 -0.534275 0
M  V30 3416 H 325.759 0.698845 -1.82583 0
M  V30 3417 H 324.463 2.0802 -3.53773 0
M  V30 3418 H 323.994 3.21717 -2.26411 0
M  V30 3419 H 326.009 4.47395 -2.14598 0
M  V30 3420 N 325.182 1.32811 0.848464 0
M  V30 3421 C 326.145 1.22194 1.9391 0
M  V30 3422 C 327.145 0.143404 1.60159 0
M  V30 3423 O 328.335 0.394253 1.6968 0
M  V30 3424 C 325.467 0.88067 3.29328 0
M  V30 3425 H 326.66 2.19127 2.04752 0
M  V30 3426 H 324.213 1.16731 1.0394 0
M  V30 3427 H 324.948 -0.0865776 3.24184 0
M  V30 3428 H 324.733 1.66052 3.55203 0
M  V30 3429 H 326.223 0.830871 4.09251 0
M  V30 3430 N 326.66 -1.06551 1.16123 0
M  V30 3431 C 327.593 -2.13382 0.80892 0
M  V30 3432 C 328.571 -1.61128 -0.21827 0
M  V30 3433 O 329.755 -1.88219 -0.102952 0
M  V30 3434 C 326.882 -3.38083 0.204303 0
M  V30 3435 C 325.928 -4.09133 1.20469 0
M  V30 3436 S 326.761 -4.5948 2.75024 0
M  V30 3437 C 327.917 -5.87446 2.16005 0
M  V30 3438 H 328.15 -2.42937 1.71373 0
M  V30 3439 H 325.683 -1.18947 0.984428 0
M  V30 3440 H 327.641 -4.10268 -0.138081 0
M  V30 3441 H 326.302 -3.0669 -0.678234 0
M  V30 3442 H 325.495 -4.98685 0.730019 0
M  V30 3443 H 325.097 -3.4295 1.49202 0
M  V30 3444 H 327.389 -6.60065 1.5271 0
M  V30 3445 H 328.332 -6.39639 3.03756 0
M  V30 3446 H 328.74 -5.41354 1.59989 0
M  V30 3447 N 328.138 -0.959301 -1.25041 0
M  V30 3448 C 329.068 -0.501388 -2.28053 0
M  V30 3449 C 330.049 0.454673 -1.63911 0
M  V30 3450 O 331.234 0.352618 -1.90972 0
M  V30 3451 C 328.364 0.217224 -3.4662 0
M  V30 3452 C 327.318 -0.654034 -4.22973 0
M  V30 3453 C 326.644 0.195589 -5.34342 0
M  V30 3454 C 327.944 -1.93447 -4.85155 0
M  V30 3455 H 329.638 -1.36238 -2.66608 0
M  V30 3456 H 327.184 -0.656534 -1.28163 0
M  V30 3457 H 329.137 0.548732 -4.17812 0
M  V30 3458 H 327.861 1.1125 -3.07068 0
M  V30 3459 H 326.52 -0.968693 -3.5357 0
M  V30 3460 H 326.168 1.09076 -4.91031 0
M  V30 3461 H 325.868 -0.384091 -5.86343 0
M  V30 3462 H 327.392 0.521958 -6.08365 0
M  V30 3463 H 328.806 -1.66908 -5.48466 0
M  V30 3464 H 327.203 -2.46018 -5.47353 0
M  V30 3465 H 328.273 -2.63466 -4.07079 0
M  V30 3466 N 329.616 1.39756 -0.72842 0
M  V30 3467 C 330.563 2.30647 -0.0841519 0
M  V30 3468 C 331.533 1.48869 0.7367 0
M  V30 3469 O 332.718 1.77574 0.698015 0
M  V30 3470 C 329.858 3.35165 0.822091 0
M  V30 3471 C 328.971 4.31999 -0.0106663 0
M  V30 3472 C 328.106 5.23585 0.896241 0
M  V30 3473 C 327.145 6.12072 0.0583381 0
M  V30 3474 N 326.282 6.96035 0.920818 0
M  V30 3475 H 331.122 2.85173 -0.864891 0
M  V30 3476 H 328.659 1.40422 -0.438179 0
M  V30 3477 H 330.617 3.94345 1.36189 0
M  V30 3478 H 329.247 2.8211 1.56888 0
M  V30 3479 H 328.299 3.74492 -0.66781 0
M  V30 3480 H 329.611 4.9443 -0.658825 0
M  V30 3481 H 328.765 5.87759 1.50412 0
M  V30 3482 H 327.504 4.61459 1.57819 0
M  V30 3483 H 326.509 5.46916 -0.562389 0
M  V30 3484 H 327.734 6.76261 -0.6203 0
M  V30 3485 H 325.68 6.36485 1.58818 0
M  V30 3486 H 325.597 7.55284 0.32899 0
M  V30 3487 H 326.865 7.64646 1.51447 0
M  V30 3488 N 331.094 0.475555 1.50254 0
M  V30 3489 C 332.026 -0.352649 2.26471 0
M  V30 3490 C 333.039 -0.953165 1.3198 0
M  V30 3491 O 334.228 -0.840815 1.57457 0
M  V30 3492 C 331.328 -1.50902 3.0345 0
M  V30 3493 C 330.501 -1.02047 4.25329 0
M  V30 3494 C 329.56 -2.05142 4.84565 0
M  V30 3495 O 328.586 -1.63023 5.45355 0
M  V30 3496 N 329.788 -3.37987 4.71959 0
M  V30 3497 H 332.553 0.300767 2.98187 0
M  V30 3498 H 330.114 0.306598 1.5897 0
M  V30 3499 H 332.106 -2.19572 3.39956 0
M  V30 3500 H 330.676 -2.06705 2.34504 0
M  V30 3501 H 329.896 -0.159507 3.93877 0
M  V30 3502 H 331.184 -0.672061 5.04342 0
M  V30 3503 H 330.582 -3.74913 4.23623 0
M  V30 3504 H 329.139 -4.02443 5.12721 0
M  V30 3505 N 332.573 -1.56217 0.208337 0
M  V30 3506 C 333.803 -2.02043 -0.431523 0
M  V30 3507 C 334.211 -1.08755 -1.54819 0
M  V30 3508 O 333.554 -0.0870009 -1.83494 0
M  V30 3509 C 333.616 -3.44239 -1.03633 0
M  V30 3510 C 333.28 -4.56965 -0.0567502 0
M  V30 3511 C 334.277 -5.14624 0.738773 0
M  V30 3512 C 331.962 -5.02266 0.0581736 0
M  V30 3513 C 333.956 -6.16045 1.63605 0
M  V30 3514 C 331.643 -6.03528 0.959001 0
M  V30 3515 C 332.641 -6.60293 1.7465 0
M  V30 3516 O 332.329 -7.59586 2.6322 0
M  V30 3517 H 332.061 -0.666772 -0.111313 0
M  V30 3518 H 334.615 -2.02919 0.318277 0
M  V30 3519 H 332.845 -3.40391 -1.83497 0
M  V30 3520 H 334.534 -3.73793 -1.58221 0
M  V30 3521 H 335.3 -4.80483 0.660364 0
M  V30 3522 H 331.179 -4.57771 -0.544633 0
M  V30 3523 H 334.723 -6.60279 2.25116 0
M  V30 3524 H 330.62 -6.37092 1.03848 0
M  V30 3525 H 331.388 -7.77057 2.57148 0
M  V30 3526 N 334.051 0.0651679 -1.57465 0
M  V30 3527 C 335.014 1.06117 -2.03155 0
M  V30 3528 C 336.014 1.31204 -0.929632 0
M  V30 3529 O 337.204 1.26813 -1.19432 0
M  V30 3530 C 334.336 2.4032 -2.41783 0
M  V30 3531 H 335.529 0.667231 -2.92383 0
M  V30 3532 H 333.082 0.311075 -1.53173 0
M  V30 3533 H 333.817 2.84532 -1.55601 0
M  V30 3534 H 333.602 2.23451 -3.22199 0
M  V30 3535 H 335.092 3.11898 -2.77685 0
M  V30 3536 N 335.529 1.53961 0.336706 0
M  V30 3537 C 336.806 1.62171 1.09361 0
M  V30 3538 C 337.186 0.447263 2.06307 0
M  V30 3539 O 336.534 -0.559802 2.21537 0
M  V30 3540 C 336.744 2.98565 1.80721 0
M  V30 3541 C 338.092 3.54157 2.34218 0
M  V30 3542 O 339.116 3.00784 1.90807 0
M  V30 3543 O 337.975 4.47528 3.13657 0
M  V30 3544 H 335.069 0.6562 0.503319 0
M  V30 3545 H 337.615 1.66307 0.33765 0
M  V30 3546 H 336.387 3.75482 1.10132 0
M  V30 3547 H 336.01 2.9805 2.63158 0
M  V30 3548 N 337.007 -0.598083 1.45811 0
M  V30 3549 C 337.954 -1.7082 1.55207 0
M  V30 3550 C 338.924 -1.61278 0.39732 0
M  V30 3551 O 340.109 -1.80717 0.612038 0
M  V30 3552 C 337.249 -3.09144 1.53376 0
M  V30 3553 C 336.362 -3.29423 2.79472 0
M  V30 3554 C 335.497 -4.57907 2.69248 0
M  V30 3555 C 334.536 -4.71476 3.90354 0
M  V30 3556 N 333.673 -5.9127 3.78608 0
M  V30 3557 H 338.513 -1.62125 2.50039 0
M  V30 3558 H 336.05 -0.790389 1.24062 0
M  V30 3559 H 338.008 -3.89186 1.50301 0
M  V30 3560 H 336.638 -3.16773 0.620876 0
M  V30 3561 H 335.69 -2.43091 2.92594 0
M  V30 3562 H 337.002 -3.3532 3.69272 0
M  V30 3563 H 336.156 -5.46157 2.64192 0
M  V30 3564 H 334.895 -4.54423 1.77063 0
M  V30 3565 H 333.9 -3.81648 3.95759 0
M  V30 3566 H 335.125 -4.76751 4.83617 0
M  V30 3567 H 333.071 -5.88813 2.89199 0
M  V30 3568 H 332.988 -5.98369 4.6205 0
M  V30 3569 H 334.256 -6.81992 3.77501 0
M  V30 3570 N 338.485 -1.33259 -0.841409 0
M  V30 3571 C 339.415 -1.25926 -1.96634 0
M  V30 3572 C 340.396 -0.140349 -1.6952 0
M  V30 3573 O 341.581 -0.329707 -1.91381 0
M  V30 3574 C 338.711 -0.99512 -3.32738 0
M  V30 3575 C 337.665 -2.0767 -3.74242 0
M  V30 3576 C 336.991 -1.66474 -5.08125 0
M  V30 3577 C 338.291 -3.49318 -3.88297 0
M  V30 3578 H 339.985 -2.20046 -2.03027 0
M  V30 3579 H 337.531 -1.05931 -0.975425 0
M  V30 3580 H 339.484 -0.930323 -4.11002 0
M  V30 3581 H 338.208 -0.0183004 -3.26595 0
M  V30 3582 H 336.867 -2.13187 -2.98239 0
M  V30 3583 H 336.515 -0.675012 -4.9845 0
M  V30 3584 H 336.215 -2.3885 -5.36865 0
M  V30 3585 H 337.739 -1.61455 -5.88867 0
M  V30 3586 H 339.153 -3.46316 -4.56879 0
M  V30 3587 H 337.55 -4.20158 -4.28471 0
M  V30 3588 H 338.62 -3.8801 -2.9082 0
M  V30 3589 N 339.963 1.05934 -1.16686 0
M  V30 3590 C 340.873 2.17014 -0.891183 0
M  V30 3591 C 341.889 1.73453 0.137907 0
M  V30 3592 O 343.065 2.01361 -0.039592 0
M  V30 3593 C 340.13 3.44384 -0.400099 0
M  V30 3594 C 339.191 4.02433 -1.49486 0
M  V30 3595 C 338.424 5.23723 -1.02711 0
M  V30 3596 O 338.647 5.7027 0.121716 0
M  V30 3597 O 337.581 5.7382 -1.81699 0
M  V30 3598 H 341.407 2.43113 -1.82015 0
M  V30 3599 H 338.992 1.15541 -0.947132 0
M  V30 3600 H 340.874 4.21189 -0.133392 0
M  V30 3601 H 339.549 3.19802 0.500817 0
M  V30 3602 H 338.456 3.27102 -1.81535 0
M  V30 3603 H 339.789 4.31317 -2.37121 0
M  V30 3604 N 341.441 0.965919 1.2453 0
M  V30 3605 C 342.688 0.626831 1.92554 0
M  V30 3606 C 343.016 -0.837739 1.75534 0
M  V30 3607 O 342.271 -1.61793 1.10098 0
M  V30 3608 C 342.57 0.945428 3.44669 0
M  V30 3609 C 342.236 2.39785 3.81856 0
M  V30 3610 C 340.898 2.79483 3.91718 0
M  V30 3611 C 343.25 3.34055 4.00071 0
M  V30 3612 C 340.578 4.12496 4.1721 0
M  V30 3613 C 342.93 4.66694 4.27059 0
M  V30 3614 C 341.594 5.06172 4.3514 0
M  V30 3615 H 340.864 0.229374 0.704605 0
M  V30 3616 H 343.511 1.21707 1.4785 0
M  V30 3617 H 341.816 0.272926 3.90848 0
M  V30 3618 H 343.513 0.661484 3.95507 0
M  V30 3619 H 340.103 2.08003 3.74743 0
M  V30 3620 H 344.287 3.04571 3.91855 0
M  V30 3621 H 339.543 4.42709 4.21685 0
M  V30 3622 H 343.717 5.3971 4.40097 0
M  V30 3623 H 341.344 6.09262 4.54646 0
M  V30 3624 N 342.919 -1.39368 0.735821 0
M  V30 3625 C 343.852 -2.28155 0.0451175 0
M  V30 3626 C 344.83 -1.44433 -0.746852 0
M  V30 3627 O 346.014 -1.73823 -0.729237 0
M  V30 3628 C 343.141 -3.253 -0.943266 0
M  V30 3629 C 342.187 -4.25826 -0.239685 0
M  V30 3630 S 343.02 -5.25166 1.04693 0
M  V30 3631 C 344.176 -6.2587 0.0611639 0
M  V30 3632 H 344.409 -2.86388 0.79807 0
M  V30 3633 H 341.942 -1.45104 0.527653 0
M  V30 3634 H 343.9 -3.81789 -1.50824 0
M  V30 3635 H 342.561 -2.66085 -1.66906 0
M  V30 3636 H 341.754 -4.94229 -0.987596 0
M  V30 3637 H 341.356 -3.73141 0.253274 0
M  V30 3638 H 343.648 -6.73007 -0.778941 0
M  V30 3639 H 344.591 -7.04508 0.712362 0
M  V30 3640 H 344.999 -5.63639 -0.311602 0
M  V30 3641 N 344.397 -0.483516 -1.5 0
M  V30 3642 C 345.347 0.32306 -2.257 0
M  V30 3643 C 346.331 0.950755 -1.29805 0
M  V30 3644 O 347.523 0.861247 -1.54634 0
M  V30 3645 C 344.652 1.39724 -3.13579 0
M  V30 3646 C 343.738 0.776663 -4.16928 0
M  V30 3647 N 344.129 -0.1104 -5.0568 0
M  V30 3648 C 342.427 1.03922 -4.33724 0
M  V30 3649 C 343.128 -0.46387 -5.79848 0
M  V30 3650 N 342.104 0.163987 -5.43353 0
M  V30 3651 H 345.906 -0.360086 -2.91686 0
M  V30 3652 H 343.42 -0.298456 -1.59634 0
M  V30 3653 H 345.417 1.98837 -3.66428 0
M  V30 3654 H 344.077 2.08225 -2.49143 0
M  V30 3655 H 345.088 -0.480069 -5.1567 0
M  V30 3656 H 341.765 1.71829 -3.80501 0
M  V30 3657 H 343.155 -1.18854 -6.61304 0
M  V30 3658 N 345.875 1.56104 -0.216619 0
M  V30 3659 C 347.124 1.97348 0.416744 0
M  V30 3660 C 347.437 1.10715 1.6125 0
M  V30 3661 O 348.643 1.41836 2.31506 0
M  V30 3662 C 347.099 3.51059 0.792835 0
M  V30 3663 C 346.707 4.46387 -0.379828 0
M  V30 3664 C 348.451 4.01026 1.39208 0
M  V30 3665 C 346.358 5.91397 0.0184223 0
M  V30 3666 H 345.288 0.736942 0.159475 0
M  V30 3667 H 347.939 1.80827 -0.31205 0
M  V30 3668 H 346.321 3.63162 1.57891 0
M  V30 3669 H 347.495 4.46029 -1.15737 0
M  V30 3670 H 345.81 4.06734 -0.891979 0
M  V30 3671 H 348.407 5.0686 1.70286 0
M  V30 3672 H 348.75 3.46587 2.30614 0
M  V30 3673 H 349.283 3.92125 0.669537 0
M  V30 3674 H 346.022 6.49807 -0.862002 0
M  V30 3675 H 345.542 5.94961 0.760384 0
M  V30 3676 H 347.221 6.45455 0.446818 0
M  V30 3677 N 347.353 -0.0568162 1.57498 0
M  V30 3678 C 348.283 -1.06593 2.0775 0
M  V30 3679 C 349.264 -1.39448 0.974082 0
M  V30 3680 O 350.449 -1.48815 1.24771 0
M  V30 3681 C 347.579 -2.37509 2.5339 0
M  V30 3682 C 346.533 -2.1897 3.67745 0
M  V30 3683 C 345.859 -3.55402 3.99492 0
M  V30 3684 C 347.159 -1.59859 4.97235 0
M  V30 3685 H 348.853 -0.647706 2.9231 0
M  V30 3686 H 346.399 -0.310116 1.40621 0
M  V30 3687 H 348.352 -3.08409 2.87162 0
M  V30 3688 H 347.076 -2.8134 1.65878 0
M  V30 3689 H 345.735 -1.50508 3.3428 0
M  V30 3690 H 345.383 -3.9683 3.09088 0
M  V30 3691 H 345.083 -3.43831 4.76502 0
M  V30 3692 H 346.607 -4.27708 4.35773 0
M  V30 3693 H 348.021 -2.20642 5.29141 0
M  V30 3694 H 346.418 -1.58942 5.78669 0
M  V30 3695 H 347.488 -0.561506 4.81638 0
M  V30 3696 N 348.832 -1.54138 -0.328536 0
M  V30 3697 C 350.06 -1.76062 -1.08673 0
M  V30 3698 C 350.475 -0.506852 -1.81869 0
M  V30 3699 O 349.832 0.522223 -1.74869 0
M  V30 3700 C 349.883 -2.95054 -2.08866 0
M  V30 3701 O 349.604 -4.15583 -1.38644 0
M  V30 3702 C 351.105 -3.2915 -2.96943 0
M  V30 3703 H 348.325 -0.587889 -0.323461 0
M  V30 3704 H 350.869 -2.0101 -0.376175 0
M  V30 3705 H 349.024 -2.72394 -2.75464 0
M  V30 3706 H 349.438 -4.82481 -2.05699 0
M  V30 3707 H 350.912 -4.15723 -3.63151 0
M  V30 3708 H 351.389 -2.461 -3.63774 0
M  V30 3709 H 351.995 -3.53871 -2.35914 0
M  V30 3710 N 350.31 0.590341 -1.46126 0
M  V30 3711 C 351.726 0.912917 -1.30912 0
M  V30 3712 C 351.926 1.99616 -0.274893 0
M  V30 3713 O 350.982 2.50397 0.325197 0
M  V30 3714 C 352.295 1.3375 -2.69317 0
M  V30 3715 C 353.843 1.45077 -2.77348 0
M  V30 3716 C 354.318 1.90904 -4.16317 0
M  V30 3717 N 355.809 1.9811 -4.18696 0
M  V30 3718 C 356.544 2.34828 -5.23109 0
M  V30 3719 N 356.04 2.70393 -6.37856 0
M  V30 3720 N 357.833 2.35317 -5.10473 0
M  V30 3721 H 349.984 -0.125358 -2.1203 0
M  V30 3722 H 352.247 0.00658481 -0.947977 0
M  V30 3723 H 351.953 0.615614 -3.4627 0
M  V30 3724 H 351.827 2.30058 -2.9892 0
M  V30 3725 H 354.214 2.16353 -2.00687 0
M  V30 3726 H 354.295 0.4704 -2.51438 0
M  V30 3727 H 353.939 1.20209 -4.9347 0
M  V30 3728 H 353.869 2.89886 -4.39629 0
M  V30 3729 H 356.36 1.73146 -3.359 0
M  V30 3730 H 356.673 2.97341 -7.13308 0
M  V30 3731 H 355.018 2.68048 -6.41229 0
M  V30 3732 H 358.209 2.0695 -4.19868 0
M  V30 3733 H 358.382 2.63605 -5.9196 0
M  V30 3734 N 351.788 1.33704 0.83433 0
M  V30 3735 C 353.034 1.25603 1.59222 0
M  V30 3736 C 353.367 -0.176659 1.93395 0
M  V30 3737 O 352.642 -1.11915 1.59076 0
M  V30 3738 C 352.925 2.13576 2.89926 0
M  V30 3739 C 352.778 3.65326 2.62406 0
M  V30 3740 C 354.097 2.01238 3.91397 0
M  V30 3741 H 351.216 0.457613 0.577719 0
M  V30 3742 H 353.858 1.63848 0.961972 0
M  V30 3743 H 352.008 1.8109 3.43713 0
M  V30 3744 H 353.68 4.08124 2.15017 0
M  V30 3745 H 351.923 3.8698 1.96033 0
M  V30 3746 H 352.594 4.22232 3.55562 0
M  V30 3747 H 355.07 2.29738 3.46929 0
M  V30 3748 H 353.946 2.65036 4.80673 0
M  V30 3749 H 354.207 0.985951 4.30966 0
M  V30 3750 N 353.266 -1.05314 1.17247 0
M  V30 3751 C 354.214 -2.15137 0.884238 0
M  V30 3752 C 355.208 -1.68729 -0.15063 0
M  V30 3753 O 356.414 -1.8 -0.00366673 0
M  V30 3754 H 352.789 -0.702471 0.2684 0
M  V30 3755 H 354.76 -2.36652 1.81764 0
M  V30 3756 C 353.509 -3.45243 0.412659 0
M  V30 3757 H 352.832 -3.81352 1.20043 0
M  V30 3758 H 354.272 -4.23263 0.249858 0
M  V30 3759 C 352.731 -3.25487 -0.86948 0
M  V30 3760 O 353.261 -3.51938 -1.93655 0
M  V30 3761 N 351.467 -2.78875 -0.817147 0
M  V30 3762 H 351.014 -2.57549 0.0514211 0
M  V30 3763 H 350.972 -2.66036 -1.67547 0
M  V30 3764 N 354.744 -0.972509 -1.24016 0
M  V30 3765 C 356.16 -0.679827 -1.44397 0
M  V30 3766 C 356.36 0.756716 -1.86751 0
M  V30 3767 O 355.416 1.53007 -2.00861 0
M  V30 3768 C 356.729 -1.66803 -2.50195 0
M  V30 3769 C 358.277 -1.68119 -2.64017 0
M  V30 3770 C 358.752 -2.65748 -3.73017 0
M  V30 3771 N 360.243 -2.64219 -3.8045 0
M  V30 3772 C 360.978 -3.36433 -4.64328 0
M  V30 3773 N 360.474 -4.1818 -5.52356 0
M  V30 3774 N 362.267 -3.25235 -4.58453 0
M  V30 3775 H 354.418 -1.90059 -0.948228 0
M  V30 3776 H 356.681 -0.818527 -0.478245 0
M  V30 3777 H 356.387 -2.69498 -2.25973 0
M  V30 3778 H 356.261 -1.4446 -3.48441 0
M  V30 3779 H 358.648 -0.661319 -2.87594 0
M  V30 3780 H 358.729 -1.94525 -1.66113 0
M  V30 3781 H 358.373 -3.67872 -3.50189 0
M  V30 3782 H 358.303 -2.36619 -4.70446 0
M  V30 3783 H 360.794 -2.04887 -3.17537 0
M  V30 3784 H 361.107 -4.70157 -6.13329 0
M  V30 3785 H 359.452 -4.22273 -5.52006 0
M  V30 3786 H 362.643 -2.60829 -3.88698 0
M  V30 3787 H 362.816 -3.81776 -5.23594 0
M  V30 3788 N 356.222 1.38976 -0.743202 0
M  V30 3789 C 357.169 2.30544 -0.10861 0
M  V30 3790 C 358.139 1.49642 0.720869 0
M  V30 3791 O 359.324 1.78304 0.679142 0
M  V30 3792 C 356.464 3.36018 0.786496 0
M  V30 3793 C 355.577 4.31963 -0.0564849 0
M  V30 3794 C 354.712 5.24506 0.840657 0
M  V30 3795 C 353.751 6.121 -0.00658363 0
M  V30 3796 N 352.888 6.96973 0.846943 0
M  V30 3797 H 357.728 2.8424 -0.895088 0
M  V30 3798 H 355.265 1.3995 -0.453048 0
M  V30 3799 H 357.223 3.95768 1.31999 0
M  V30 3800 H 355.853 2.83758 1.53887 0
M  V30 3801 H 354.905 3.73763 -0.707492 0
M  V30 3802 H 356.217 4.93703 -0.711229 0
M  V30 3803 H 355.371 5.89322 1.4417 0
M  V30 3804 H 354.11 4.63107 1.52916 0
M  V30 3805 H 353.115 5.46289 -0.620366 0
M  V30 3806 H 354.34 6.75565 -0.691992 0
M  V30 3807 H 352.286 6.38133 1.52059 0
M  V30 3808 H 352.203 7.5559 0.248864 0
M  V30 3809 H 353.471 7.6621 1.43328 0
M  V30 3810 N 357.7 0.491464 1.49741 0
M  V30 3811 C 358.946 -0.0565092 2.02721 0
M  V30 3812 C 359.279 -1.37522 1.37118 0
M  V30 3813 O 358.554 -1.87866 0.503645 0
M  V30 3814 C 358.837 -0.219051 3.59433 0
M  V30 3815 C 358.69 1.12211 4.35579 0
M  V30 3816 C 360.009 -0.964157 4.29409 0
M  V30 3817 H 357.128 -0.0190627 0.736753 0
M  V30 3818 H 359.77 0.641021 1.7886 0
M  V30 3819 H 357.92 -0.813165 3.79895 0
M  V30 3820 H 359.592 1.75437 4.26637 0
M  V30 3821 H 357.835 1.71377 3.98513 0
M  V30 3822 H 358.506 0.961794 5.43556 0
M  V30 3823 H 360.982 -0.460378 4.13545 0
M  V30 3824 H 359.858 -1.04671 5.38828 0
M  V30 3825 H 360.119 -2.00563 3.93988 0
M  V30 3826 N 359.178 -1.55987 0.224894 0
M  V30 3827 C 360.141 -2.19178 -0.670348 0
M  V30 3828 C 361.141 -1.15461 -1.11917 0
M  V30 3829 O 362.331 -1.40675 -1.02743 0
M  V30 3830 C 359.463 -2.81777 -1.9187 0
M  V30 3831 H 360.656 -2.99662 -0.119364 0
M  V30 3832 H 358.209 -1.5628 -0.0247128 0
M  V30 3833 H 358.944 -2.05172 -2.51147 0
M  V30 3834 H 358.729 -3.57732 -1.60531 0
M  V30 3835 H 360.219 -3.30205 -2.55645 0
M  V30 3836 N 360.656 0.0484629 -1.57525 0
M  V30 3837 C 361.884 0.755421 -1.92616 0
M  V30 3838 C 362.299 1.69919 -0.822984 0
M  V30 3839 O 361.656 1.81378 0.202085 0
M  V30 3840 C 361.707 1.52915 -3.27566 0
M  V30 3841 O 361.428 0.62329 -4.33644 0
M  V30 3842 C 362.929 2.33502 -3.76818 0
M  V30 3843 H 360.149 0.213465 -0.63614 0
M  V30 3844 H 362.693 0.0117698 -2.04497 0
M  V30 3845 H 360.848 2.22486 -3.17142 0
M  V30 3846 H 361.262 1.16383 -5.11425 0
M  V30 3847 H 362.736 2.83214 -4.73808 0
M  V30 3848 H 363.213 3.14068 -3.07014 0
M  V30 3849 H 363.819 1.69043 -3.90262 0
M  V30 3850 N 362.134 1.5431 0.320358 0
M  V30 3851 C 363.044 1.86946 1.41734 0
M  V30 3852 C 364.06 0.761689 1.56443 0
M  V30 3853 O 365.236 1.05629 1.71477 0
M  V30 3854 C 362.301 2.09293 2.76401 0
M  V30 3855 C 361.362 3.33082 2.70841 0
M  V30 3856 C 360.595 3.54353 3.99086 0
M  V30 3857 O 360.818 2.79002 4.97508 0
M  V30 3858 O 359.752 4.47838 4.0215 0
M  V30 3859 H 363.578 2.80232 1.17062 0
M  V30 3860 H 361.163 1.40255 0.514673 0
M  V30 3861 H 363.045 2.25303 3.56113 0
M  V30 3862 H 361.72 1.19194 3.00956 0
M  V30 3863 H 360.627 3.22454 1.89668 0
M  V30 3864 H 361.96 4.23249 2.5124 0
M  V30 3865 N 363.613 -0.582584 1.46437 0
M  V30 3866 C 364.86 -1.34079 1.51753 0
M  V30 3867 C 365.188 -1.93762 0.169299 0
M  V30 3868 O 364.443 -1.76989 -0.835062 0
M  V30 3869 C 364.742 -2.48964 2.56421 0
M  V30 3870 C 364.408 -2.07273 4.00436 0
M  V30 3871 C 363.07 -1.95618 4.39644 0
M  V30 3872 C 365.422 -1.75111 4.90903 0
M  V30 3873 C 362.75 -1.5006 5.67185 0
M  V30 3874 C 365.102 -1.31032 6.18881 0
M  V30 3875 C 363.766 -1.17954 6.56996 0
M  V30 3876 H 363.036 -0.49063 0.555304 0
M  V30 3877 H 365.683 -0.656007 1.79913 0
M  V30 3878 H 363.988 -3.22889 2.21923 0
M  V30 3879 H 365.685 -3.07178 2.57765 0
M  V30 3880 H 362.275 -2.17279 3.69443 0
M  V30 3881 H 366.459 -1.83001 4.61329 0
M  V30 3882 H 361.715 -1.38577 5.95488 0
M  V30 3883 H 365.889 -1.052 6.88408 0
M  V30 3884 H 363.516 -0.824279 7.55718 0
M  V30 3885 N 365.091 -1.34144 -0.827227 0
M  V30 3886 C 366.001 -1.27428 -1.96975 0
M  V30 3887 C 367.017 -0.182728 -1.73038 0
M  V30 3888 O 368.193 -0.408426 -1.97215 0
M  V30 3889 C 365.258 -1.02526 -3.31194 0
M  V30 3890 C 364.319 -2.20796 -3.68168 0
M  V30 3891 C 363.552 -1.97073 -4.95982 0
M  V30 3892 O 363.775 -0.926822 -5.6282 0
M  V30 3893 O 362.709 -2.83912 -5.30733 0
M  V30 3894 H 366.535 -2.23537 -2.05584 0
M  V30 3895 H 364.12 -1.14307 -0.961989 0
M  V30 3896 H 366.002 -0.904026 -4.11589 0
M  V30 3897 H 364.677 -0.0945389 -3.23562 0
M  V30 3898 H 363.584 -2.38477 -2.88235 0
M  V30 3899 H 364.917 -3.12243 -3.8048 0
M  V30 3900 N 366.569 1.04691 -1.17803 0
M  V30 3901 C 367.794 1.81984 -0.994813 0
M  V30 3902 C 368.219 1.82586 0.452112 0
M  V30 3903 O 367.577 1.23854 1.324 0
M  V30 3904 C 367.625 3.2575 -1.54659 0
M  V30 3905 O 366.729 4.05267 -0.763728 0
M  V30 3906 H 366.07 0.562483 -0.352857 0
M  V30 3907 H 368.6 1.3189 -1.56417 0
M  V30 3908 H 368.61 3.76541 -1.57102 0
M  V30 3909 H 367.285 3.24627 -2.59981 0
M  V30 3910 H 365.862 3.63972 -0.811108 0
M  V30 3911 N 368.047 0.979072 1.23499 0
M  V30 3912 C 369.294 0.647219 1.91878 0
M  V30 3913 C 369.622 -0.819074 1.76413 0
M  V30 3914 O 368.877 -1.60616 1.11808 0
M  V30 3915 C 369.176 0.981932 3.43646 0
M  V30 3916 C 368.842 2.43822 3.79291 0
M  V30 3917 C 367.504 2.83622 3.88731 0
M  V30 3918 C 369.856 3.3828 3.96505 0
M  V30 3919 C 367.184 4.16897 4.12812 0
M  V30 3920 C 369.536 4.71197 4.22085 0
M  V30 3921 C 368.2 5.10758 4.29747 0
M  V30 3922 H 367.47 0.236834 0.702133 0
M  V30 3923 H 370.117 1.23268 1.46551 0
M  V30 3924 H 368.422 0.314365 3.90537 0
M  V30 3925 H 370.119 0.703395 3.94783 0
M  V30 3926 H 366.709 2.11966 3.72516 0
M  V30 3927 H 370.893 3.0871 3.88603 0
M  V30 3928 H 366.149 4.47157 4.16966 0
M  V30 3929 H 370.323 5.44348 4.34348 0
M  V30 3930 H 367.95 6.1405 4.48159 0
M  V30 3931 N 369.525 -1.3858 0.750561 0
M  V30 3932 C 370.75 -2.04997 0.314812 0
M  V30 3933 C 371.175 -1.56235 -1.04749 0
M  V30 3934 O 370.533 -0.712981 -1.66692 0
M  V30 3935 C 370.581 -3.58961 0.343415 0
M  V30 3936 O 369.685 -4.07025 -0.663628 0
M  V30 3937 H 369.026 -0.649081 0.139962 0
M  V30 3938 H 371.556 -1.77313 1.02084 0
M  V30 3939 H 371.566 -4.07542 0.193233 0
M  V30 3940 H 370.241 -3.93811 1.33738 0
M  V30 3941 H 368.818 -3.6982 -0.478307 0
M  V30 3942 N 371.003 -0.499398 -1.49478 0
M  V30 3943 C 372.25 0.0456899 -2.02448 0
M  V30 3944 C 372.578 1.37142 -1.37921 0
M  V30 3945 O 371.833 1.89111 -0.503544 0
M  V30 3946 C 372.132 0.248424 -3.56536 0
M  V30 3947 C 371.798 -0.999107 -4.39692 0
M  V30 3948 C 370.46 -1.34108 -4.62135 0
M  V30 3949 C 372.812 -1.82842 -4.88076 0
M  V30 3950 C 370.14 -2.51191 -5.30208 0
M  V30 3951 C 372.492 -2.99076 -5.57437 0
M  V30 3952 C 371.156 -3.33655 -5.78127 0
M  V30 3953 H 370.426 0.0167191 -0.740811 0
M  V30 3954 H 373.073 -0.65923 -1.79795 0
M  V30 3955 H 371.378 1.03586 -3.77859 0
M  V30 3956 H 373.075 0.684605 -3.95113 0
M  V30 3957 H 369.665 -0.722729 -4.22463 0
M  V30 3958 H 373.849 -1.57737 -4.70566 0
M  V30 3959 H 369.105 -2.78221 -5.44429 0
M  V30 3960 H 373.279 -3.63664 -5.93904 0
M  V30 3961 H 370.906 -4.24483 -6.30649 0
M  V30 3962 N 372.481 1.55866 -0.233164 0
M  V30 3963 C 373.758 1.90471 0.444988 0
M  V30 3964 C 374.138 1.15209 1.7689 0
M  V30 3965 O 373.486 0.265119 2.26957 0
M  V30 3966 C 373.696 3.4333 0.626559 0
M  V30 3967 C 375.044 4.14319 0.92871 0
M  V30 3968 O 376.068 3.48993 0.712926 0
M  V30 3969 O 374.927 5.29846 1.33887 0
M  V30 3970 H 372.021 0.792347 0.236885 0
M  V30 3971 H 374.567 1.67437 -0.276211 0
M  V30 3972 H 373.339 3.90095 -0.306822 0
M  V30 3973 H 372.962 3.72181 1.39881 0
M  V30 3974 N 373.959 -0.0401083 1.57549 0
M  V30 3975 C 374.922 -1.02871 2.04817 0
M  V30 3976 C 375.922 -1.29708 0.950388 0
M  V30 3977 O 377.112 -1.24897 1.21435 0
M  V30 3978 C 374.244 -2.36443 2.45576 0
M  V30 3979 H 375.437 -0.620631 2.93408 0
M  V30 3980 H 372.99 -0.286667 1.53649 0
M  V30 3981 H 373.725 -2.82021 1.60108 0
M  V30 3982 H 373.51 -2.18296 3.25713 0
M  V30 3983 H 375 -3.07441 2.82612 0
M  V30 3984 N 375.437 -1.54477 -0.31217 0
M  V30 3985 C 376.665 -1.77205 -1.068 0
M  V30 3986 C 377.08 -0.526114 -1.81321 0
M  V30 3987 O 376.437 0.503647 -1.75413 0
M  V30 3988 C 376.488 -2.97253 -2.05725 0
M  V30 3989 O 376.209 -4.1703 -1.34228 0
M  V30 3990 C 377.71 -3.32281 -2.93435 0
M  V30 3991 H 374.93 -0.591287 -0.317208 0
M  V30 3992 H 377.474 -2.01398 -0.354834 0
M  V30 3993 H 375.629 -2.753 -2.72559 0
M  V30 3994 H 376.043 -4.84636 -2.00571 0
M  V30 3995 H 377.517 -4.19551 -3.58721 0
M  V30 3996 H 377.994 -2.49945 -3.61143 0
M  V30 3997 H 378.6 -3.56353 -2.32147 0
M  V30 3998 N 376.915 0.57481 -1.46744 0
M  V30 3999 C 378.162 1.33272 -1.52462 0
M  V30 4000 C 378.49 1.93669 -0.179572 0
M  V30 4001 O 377.745 1.7743 0.825664 0
M  V30 4002 C 378.044 2.476 -2.57738 0
M  V30 4003 C 377.71 2.05146 -4.01529 0
M  V30 4004 C 376.372 1.93284 -4.40676 0
M  V30 4005 C 378.724 1.72506 -4.91824 0
M  V30 4006 C 376.052 1.47049 -5.67973 0
M  V30 4007 C 378.404 1.27748 -6.19567 0
M  V30 4008 C 377.068 1.14468 -6.57612 0
M  V30 4009 H 376.338 0.487678 -0.557899 0
M  V30 4010 H 378.985 0.646456 -1.80259 0
M  V30 4011 H 377.29 3.21708 -2.23632 0
M  V30 4012 H 378.987 3.05807 -2.5939 0
M  V30 4013 H 375.577 2.15316 -3.7059 0
M  V30 4014 H 379.761 1.80552 -4.62293 0
M  V30 4015 H 375.017 1.35417 -5.96215 0
M  V30 4016 H 379.191 1.01547 -6.88957 0
M  V30 4017 H 376.818 0.78419 -7.56145 0
M  V30 4018 N 378.394 1.34581 0.820102 0
M  V30 4019 C 379.344 1.22943 1.92013 0
M  V30 4020 C 380.328 0.127802 1.60392 0
M  V30 4021 O 381.52 0.357737 1.73347 0
M  V30 4022 C 378.649 0.989938 3.28717 0
M  V30 4023 C 377.735 2.13486 3.66449 0
M  V30 4024 N 378.126 3.38625 3.75722 0
M  V30 4025 C 376.424 2.04573 3.96315 0
M  V30 4026 C 377.125 4.13832 4.08801 0
M  V30 4027 N 376.101 3.42451 4.22171 0
M  V30 4028 H 379.903 2.17771 1.97365 0
M  V30 4029 H 377.417 1.2686 1.01392 0
M  V30 4030 H 379.414 0.887462 4.07345 0
M  V30 4031 H 378.074 0.0503691 3.24661 0
M  V30 4032 H 379.085 3.73143 3.59144 0
M  V30 4033 H 375.762 1.1839 4.00362 0
M  V30 4034 H 377.152 5.21909 4.23156 0
M  V30 4035 N 379.872 -1.04064 1.18357 0
M  V30 4036 C 380.835 -2.10243 0.912707 0
M  V30 4037 C 381.835 -1.60477 -0.101928 0
M  V30 4038 O 383.025 -1.73703 0.131517 0
M  V30 4039 C 380.157 -3.38893 0.369387 0
M  V30 4040 H 381.35 -2.35706 1.85426 0
M  V30 4041 H 378.903 -1.20489 0.995594 0
M  V30 4042 H 379.638 -3.19094 -0.578776 0
M  V30 4043 H 379.423 -3.76331 1.1008 0
M  V30 4044 H 380.913 -4.17128 0.198575 0
M  V30 4045 N 381.35 -0.985608 -1.22978 0
M  V30 4046 C 382.297 -0.529825 -2.24636 0
M  V30 4047 C 383.267 0.434028 -1.60329 0
M  V30 4048 O 384.452 0.340414 -1.87739 0
M  V30 4049 C 381.592 0.156533 -3.44745 0
M  V30 4050 C 380.705 -0.848197 -4.23591 0
M  V30 4051 C 379.84 -0.136109 -5.31026 0
M  V30 4052 C 378.879 -1.1297 -6.01585 0
M  V30 4053 N 378.016 -0.446415 -7.00679 0
M  V30 4054 H 382.856 -1.40148 -2.62988 0
M  V30 4055 H 380.393 -0.702168 -1.29259 0
M  V30 4056 H 382.351 0.571324 -4.1327 0
M  V30 4057 H 380.981 0.992025 -3.07179 0
M  V30 4058 H 380.033 -1.38135 -3.54433 0
M  V30 4059 H 381.345 -1.60512 -4.72268 0
M  V30 4060 H 380.499 0.335784 -6.0577 0
M  V30 4061 H 379.238 0.653373 -4.83304 0
M  V30 4062 H 378.243 -1.6123 -5.25628 0
M  V30 4063 H 379.468 -1.91993 -6.51395 0
M  V30 4064 H 377.414 0.323763 -6.55201 0
M  V30 4065 H 377.331 -1.1419 -7.47326 0
M  V30 4066 H 378.599 0.00291697 -7.795 0
M  V30 4067 N 382.828 1.3818 -0.7579 0
M  V30 4068 C 383.775 2.30416 -0.133057 0
M  V30 4069 C 384.745 1.50398 0.704957 0
M  V30 4070 O 385.93 1.79014 0.660192 0
M  V30 4071 C 383.07 3.36834 0.750813 0
M  V30 4072 C 382.183 4.31879 -0.102297 0
M  V30 4073 C 381.318 5.25368 0.784979 0
M  V30 4074 C 380.357 6.12058 -0.0715046 0
M  V30 4075 N 379.494 6.97832 0.772972 0
M  V30 4076 H 384.334 2.83274 -0.925186 0
M  V30 4077 H 381.871 1.39461 -0.467866 0
M  V30 4078 H 383.829 3.97145 1.27794 0
M  V30 4079 H 382.459 2.85374 1.50868 0
M  V30 4080 H 381.511 3.72991 -0.747095 0
M  V30 4081 H 382.823 4.92921 -0.763552 0
M  V30 4082 H 381.977 5.90818 1.37911 0
M  V30 4083 H 380.716 4.64703 1.47996 0
M  V30 4084 H 379.721 5.456 -0.678272 0
M  V30 4085 H 380.946 6.74793 -0.763606 0
M  V30 4086 H 378.892 6.3971 1.45282 0
M  V30 4087 H 378.809 7.55812 0.168709 0
M  V30 4088 H 380.077 7.67687 1.35194 0
M  V30 4089 N 384.306 0.507319 1.49211 0
M  V30 4090 C 385.238 -0.304532 2.27168 0
M  V30 4091 C 386.251 -0.924956 1.33972 0
M  V30 4092 O 387.44 -0.807227 1.59205 0
M  V30 4093 C 384.54 -1.44431 3.06583 0
M  V30 4094 C 383.713 -0.930026 4.27398 0
M  V30 4095 C 382.772 -1.94817 4.88807 0
M  V30 4096 O 381.798 -1.51418 5.4869 0
M  V30 4097 N 383 -3.279 4.79022 0
M  V30 4098 H 385.765 0.36395 2.97482 0
M  V30 4099 H 383.326 0.340249 1.58284 0
M  V30 4100 H 385.318 -2.12311 3.44537 0
M  V30 4101 H 383.888 -2.01684 2.38835 0
M  V30 4102 H 383.108 -0.0759244 3.94127 0
M  V30 4103 H 384.396 -0.564932 5.05654 0
M  V30 4104 H 383.794 -3.65843 4.3148 0
M  V30 4105 H 382.351 -3.91476 5.21142 0
M  V30 4106 N 385.784 -1.5574 0.241426 0
M  V30 4107 C 387.033 -1.97986 -0.385295 0
M  V30 4108 C 387.346 -1.13267 -1.59468 0
M  V30 4109 O 388.552 -1.45501 -2.2922 0
M  V30 4110 C 387.008 -3.52275 -0.736884 0
M  V30 4111 C 386.616 -4.45726 0.450796 0
M  V30 4112 C 388.36 -4.03189 -1.3281 0
M  V30 4113 C 386.267 -5.91352 0.0756662 0
M  V30 4114 H 385.197 -0.739386 -0.147731 0
M  V30 4115 H 387.848 -1.80308 0.340779 0
M  V30 4116 H 386.23 -3.65628 -1.52094 0
M  V30 4117 H 387.404 -4.44131 1.22819 0
M  V30 4118 H 385.719 -4.05264 0.956573 0
M  V30 4119 H 388.316 -5.09505 -1.62201 0
M  V30 4120 H 388.659 -3.50212 -2.25071 0
M  V30 4121 H 389.192 -3.93141 -0.607069 0
M  V30 4122 H 385.931 -6.48354 0.965272 0
M  V30 4123 H 385.451 -5.96095 -0.665635 0
M  V30 4124 H 387.13 -6.46084 -0.344075 0
M  V30 4125 N 387.262 0.0317525 -1.57568 0
M  V30 4126 C 388.673 0.578692 -1.77505 0
M  V30 4127 C 389.024 1.75749 -0.872164 0
M  V30 4128 O 388.149 2.16298 -0.0663106 0
M  V30 4129 C 388.744 1.05658 -3.21904 0
M  V30 4130 C 387.303 1.54906 -3.43047 0
M  V30 4131 C 386.45 0.485939 -2.73009 0
M  V30 4132 H 389.401 -0.194475 -1.57504 0
M  V30 4133 H 389.422 1.92404 -3.28269 0
M  V30 4134 H 388.934 0.198422 -3.87592 0
M  V30 4135 H 387.035 2.42915 -2.82529 0
M  V30 4136 H 387.148 1.59841 -4.5165 0
M  V30 4137 H 385.512 0.940354 -2.36705 0
M  V30 4138 H 386.295 -0.362709 -3.41379 0
M  V30 4139 N 388.74 1.54641 0.303973 0
M  V30 4140 C 389.98 1.75516 1.04755 0
M  V30 4141 C 390.344 0.528211 1.84591 0
M  V30 4142 O 391.545 0.614645 2.61678 0
M  V30 4143 C 389.816 3.00685 1.93193 0
M  V30 4144 S 391.375 3.42549 2.74237 0
M  V30 4145 H 388.193 0.616987 0.353339 0
M  V30 4146 H 390.795 1.92842 0.321292 0
M  V30 4147 H 389.499 3.8811 1.33411 0
M  V30 4148 H 389.03 2.85937 2.70191 0
M  V30 4149 H 391.045 2.99386 3.95705 0
M  V30 4150 N 390.218 -0.567019 1.47046 0
M  V30 4151 C 391.467 -1.32091 1.5243 0
M  V30 4152 C 391.78 -1.94704 0.187021 0
M  V30 4153 O 392.986 -2.7124 0.118771 0
M  V30 4154 C 391.442 -2.39479 2.68659 0
M  V30 4155 C 391.05 -1.831 4.08874 0
M  V30 4156 C 392.794 -3.16111 2.83327 0
M  V30 4157 C 390.701 -2.8821 5.16419 0
M  V30 4158 H 389.631 -0.496629 0.56734 0
M  V30 4159 H 392.282 -0.603354 1.73297 0
M  V30 4160 H 390.664 -3.14105 2.41152 0
M  V30 4161 H 391.838 -1.14913 4.46242 0
M  V30 4162 H 390.153 -1.19085 3.99008 0
M  V30 4163 H 392.75 -3.94585 3.60842 0
M  V30 4164 H 393.093 -3.69686 1.91411 0
M  V30 4165 H 393.626 -2.48595 3.10556 0
M  V30 4166 H 390.365 -2.39504 6.10179 0
M  V30 4167 H 389.885 -3.54839 4.8358 0
M  V30 4168 H 391.564 -3.51881 5.42945 0
M  V30 4169 N 391.696 -1.35014 -0.812953 0
M  V30 4170 C 392.942 -1.2812 -1.57204 0
M  V30 4171 C 393.275 0.145869 -1.93651 0
M  V30 4172 O 392.55 1.0937 -1.60836 0
M  V30 4173 C 392.833 -2.18162 -2.86492 0
M  V30 4174 C 392.686 -3.69454 -2.56561 0
M  V30 4175 C 394.005 -2.07439 -3.88145 0
M  V30 4176 H 391.124 -0.466746 -0.570366 0
M  V30 4177 H 393.766 -1.65357 -0.935783 0
M  V30 4178 H 391.916 -1.86535 -3.40789 0
M  V30 4179 H 393.588 -4.11493 -2.08497 0
M  V30 4180 H 391.831 -3.9005 -1.89851 0
M  V30 4181 H 392.502 -4.27835 -3.48799 0
M  V30 4182 H 394.978 -2.35228 -3.4323 0
M  V30 4183 H 393.854 -2.7265 -4.76396 0
M  V30 4184 H 394.115 -1.05439 -4.29343 0
M  V30 4185 N 393.175 1.03435 -1.18907 0
M  V30 4186 C 394.4 1.80919 -1.01406 0
M  V30 4187 C 394.825 1.83055 0.432721 0
M  V30 4188 O 394.183 1.25252 1.31079 0
M  V30 4189 C 394.231 3.24091 -1.58105 0
M  V30 4190 O 393.335 4.04434 -0.806669 0
M  V30 4191 H 392.676 0.558709 -0.358803 0
M  V30 4192 H 395.206 1.30223 -1.57807 0
M  V30 4193 H 395.216 3.74853 -1.61087 0
M  V30 4194 H 393.891 3.21851 -2.6341 0
M  V30 4195 H 392.468 3.63091 -0.849666 0
M  V30 4196 N 394.653 0.992116 1.22453 0
M  V30 4197 C 395.586 0.486701 2.22949 0
M  V30 4198 C 396.564 -0.45259 1.56174 0
M  V30 4199 O 397.748 -0.378317 1.84665 0
M  V30 4200 C 394.875 -0.294537 3.37417 0
M  V30 4201 C 393.921 0.590628 4.22391 0
M  V30 4202 S 394.754 2.04546 4.94895 0
M  V30 4203 C 395.91 1.27369 6.12803 0
M  V30 4204 H 396.143 1.33828 2.65475 0
M  V30 4205 H 393.676 0.799023 1.32117 0
M  V30 4206 H 395.634 -0.739241 4.03789 0
M  V30 4207 H 394.295 -1.12139 2.934 0
M  V30 4208 H 393.488 -0.0104375 5.03999 0
M  V30 4209 H 393.09 0.972064 3.61147 0
M  V30 4210 H 395.382 0.540943 6.75337 0
M  V30 4211 H 396.325 2.06502 6.7732 0
M  V30 4212 H 396.733 0.787324 5.58983 0
M  V30 4213 N 396.131 -1.37776 0.765217 0
M  V30 4214 C 397.061 -2.32945 0.160953 0
M  V30 4215 C 398.042 -1.55454 -0.690516 0
M  V30 4216 O 399.227 -1.83721 -0.629318 0
M  V30 4217 C 396.357 -3.39669 -0.724031 0
M  V30 4218 C 395.311 -4.27992 0.0256173 0
M  V30 4219 C 394.637 -5.25673 -0.978383 0
M  V30 4220 C 395.937 -5.08309 1.20082 0
M  V30 4221 H 397.631 -2.83728 0.955969 0
M  V30 4222 H 395.177 -1.36416 0.461149 0
M  V30 4223 H 397.13 -4.05219 -1.15652 0
M  V30 4224 H 395.854 -2.87396 -1.5515 0
M  V30 4225 H 394.513 -3.63964 0.438812 0
M  V30 4226 H 394.161 -4.69682 -1.80022 0
M  V30 4227 H 393.861 -5.85625 -0.481378 0
M  V30 4228 H 395.385 -5.94098 -1.40995 0
M  V30 4229 H 396.799 -5.67034 0.845307 0
M  V30 4230 H 395.196 -5.77554 1.62947 0
M  V30 4231 H 396.266 -4.41365 2.00811 0
M  V30 4232 N 397.609 -0.515225 -1.4894 0
M  V30 4233 C 398.837 0.0206034 -2.0689 0
M  V30 4234 C 399.252 1.29514 -1.37374 0
M  V30 4235 O 398.609 1.76698 -0.456529 0
M  V30 4236 C 398.66 0.26351 -3.60538 0
M  V30 4237 O 398.381 -0.960517 -4.27441 0
M  V30 4238 C 399.882 0.841383 -4.35242 0
M  V30 4239 H 397.102 -0.0268608 -0.670462 0
M  V30 4240 H 399.646 -0.716651 -1.91532 0
M  V30 4241 H 397.801 0.950777 -3.75552 0
M  V30 4242 H 398.215 -0.73212 -5.19365 0
M  V30 4243 H 399.689 0.96085 -5.43573 0
M  V30 4244 H 400.166 1.8427 -3.98674 0
M  V30 4245 H 400.772 0.191143 -4.2487 0
M  V30 4246 N 399.087 1.5561 -0.249682 0
M  V30 4247 C 400.034 2.21496 0.648694 0
M  V30 4248 C 401.004 1.17977 1.16921 0
M  V30 4249 O 402.189 1.46434 1.22318 0
M  V30 4250 C 399.329 2.92039 1.83868 0
M  V30 4251 C 398.442 4.10219 1.35442 0
M  V30 4252 C 397.577 4.6847 2.50419 0
M  V30 4253 C 396.616 5.78893 1.98869 0
M  V30 4254 N 395.753 6.31315 3.07223 0
M  V30 4255 H 400.593 2.97892 0.0801582 0
M  V30 4256 H 398.13 1.47074 0.0278031 0
M  V30 4257 H 400.088 3.31138 2.53778 0
M  V30 4258 H 398.718 2.18111 2.37965 0
M  V30 4259 H 397.77 3.76413 0.54928 0
M  V30 4260 H 399.082 4.89927 0.936649 0
M  V30 4261 H 398.236 5.10158 3.28366 0
M  V30 4262 H 396.975 3.87984 2.95499 0
M  V30 4263 H 395.98 5.3668 1.19393 0
M  V30 4264 H 397.205 6.61232 1.54755 0
M  V30 4265 H 395.151 5.53733 3.51732 0
M  V30 4266 H 395.068 7.06224 2.69784 0
M  V30 4267 H 396.336 6.77662 3.8522 0
M  V30 4268 N 400.565 -0.0233959 1.57583 0
M  V30 4269 C 401.475 -1.03907 2.10334 0
M  V30 4270 C 402.491 -1.39257 1.04323 0
M  V30 4271 O 403.667 -1.48462 1.36091 0
M  V30 4272 C 400.732 -2.31938 2.57693 0
M  V30 4273 C 399.793 -2.03117 3.78209 0
M  V30 4274 C 399.026 -3.25043 4.233 0
M  V30 4275 O 399.249 -4.35916 3.67876 0
M  V30 4276 O 398.183 -3.10411 5.15683 0
M  V30 4277 H 402.009 -0.620748 2.97288 0
M  V30 4278 H 399.594 -0.240743 1.47448 0
M  V30 4279 H 401.476 -3.07196 2.88458 0
M  V30 4280 H 400.151 -2.73055 1.73847 0
M  V30 4281 H 399.058 -1.25408 3.52454 0
M  V30 4282 H 400.391 -1.66852 4.63056 0
M  V30 4283 N 402.043 -1.548 -0.295768 0
M  V30 4284 C 402.973 -1.89115 -1.36959 0
M  V30 4285 C 403.954 -0.75059 -1.52644 0
M  V30 4286 O 405.139 -1.00678 -1.66065 0
M  V30 4287 C 402.269 -2.14307 -2.73295 0
M  V30 4288 C 401.223 -3.30151 -2.72368 0
M  V30 4289 C 400.549 -3.40772 -4.12042 0
M  V30 4290 C 401.849 -4.67126 -2.33646 0
M  V30 4291 H 403.543 -2.79053 -1.08488 0
M  V30 4292 H 401.089 -1.34266 -0.520443 0
M  V30 4293 H 403.042 -2.36898 -3.48507 0
M  V30 4294 H 401.766 -1.21145 -3.03301 0
M  V30 4295 H 400.425 -3.0749 -1.99613 0
M  V30 4296 H 400.073 -2.45117 -4.39234 0
M  V30 4297 H 399.773 -4.18645 -4.12322 0
M  V30 4298 H 401.297 -3.6563 -4.89027 0
M  V30 4299 H 402.711 -4.89414 -2.98575 0
M  V30 4300 H 401.108 -5.47751 -2.45129 0
M  V30 4301 H 402.178 -4.67489 -1.28772 0
M  V30 4302 N 403.521 0.559213 -1.47345 0
M  V30 4303 C 404.751 1.33999 -1.57251 0
M  V30 4304 C 405.159 1.87905 -0.220978 0
M  V30 4305 O 404.502 1.65577 0.795617 0
M  V30 4306 C 404.564 2.54798 -2.53611 0
M  V30 4307 C 404.228 2.22192 -3.99349 0
M  V30 4308 C 405.225 1.79607 -4.87891 0
M  V30 4309 C 402.91 2.33613 -4.44669 0
M  V30 4310 C 404.904 1.48868 -6.19772 0
M  V30 4311 C 402.591 2.02487 -5.76578 0
M  V30 4312 C 403.589 1.60183 -6.63951 0
M  V30 4313 O 403.277 1.29451 -7.93409 0
M  V30 4314 H 403.009 0.414858 -0.533731 0
M  V30 4315 H 405.563 0.684465 -1.9366 0
M  V30 4316 H 403.793 3.23235 -2.12265 0
M  V30 4317 H 405.482 3.16873 -2.53666 0
M  V30 4318 H 406.248 1.70278 -4.54126 0
M  V30 4319 H 402.127 2.65501 -3.76869 0
M  V30 4320 H 405.671 1.15775 -6.87926 0
M  V30 4321 H 401.568 2.11448 -6.09885 0
M  V30 4322 H 402.336 1.43098 -8.05894 0
M  V30 4323 N 404.999 1.35443 0.805782 0
M  V30 4324 C 406.246 1.28761 1.56291 0
M  V30 4325 C 406.574 -0.137747 1.94012 0
M  V30 4326 O 405.829 -1.1032 1.61642 0
M  V30 4327 C 406.128 2.14045 2.86216 0
M  V30 4328 C 405.794 3.62826 2.67709 0
M  V30 4329 C 404.456 4.0338 2.6237 0
M  V30 4330 C 406.808 4.57227 2.50186 0
M  V30 4331 C 404.136 5.36501 2.37451 0
M  V30 4332 C 406.488 5.90547 2.26797 0
M  V30 4333 C 405.152 6.30245 2.1988 0
M  V30 4334 H 404.422 0.471171 0.571908 0
M  V30 4335 H 407.069 1.67347 0.930974 0
M  V30 4336 H 405.374 1.68342 3.53791 0
M  V30 4337 H 407.071 2.0621 3.43917 0
M  V30 4338 H 403.661 3.30644 2.72713 0
M  V30 4339 H 407.845 4.2678 2.53323 0
M  V30 4340 H 403.101 5.66259 2.30567 0
M  V30 4341 H 407.275 6.63274 2.12228 0
M  V30 4342 H 404.902 7.33328 2.00333 0
M  V30 4343 N 406.477 -1.02803 1.19454 0
M  V30 4344 C 407.707 -1.79581 1.02149 0
M  V30 4345 C 408.115 -1.84182 -0.432851 0
M  V30 4346 O 407.458 -1.28534 -1.31243 0
M  V30 4347 C 407.52 -3.25993 1.51554 0
M  V30 4348 C 407.184 -3.45025 2.99678 0
M  V30 4349 C 408.181 -3.35175 3.97434 0
M  V30 4350 C 405.866 -3.71212 3.38389 0
M  V30 4351 C 407.86 -3.51238 5.31893 0
M  V30 4352 C 405.547 -3.8692 4.73008 0
M  V30 4353 C 406.545 -3.76936 5.69569 0
M  V30 4354 O 406.233 -3.92179 7.01748 0
M  V30 4355 H 405.965 -0.571962 0.360327 0
M  V30 4356 H 408.519 -1.30367 1.58725 0
M  V30 4357 H 406.749 -3.76235 0.893543 0
M  V30 4358 H 408.438 -3.84368 1.30444 0
M  V30 4359 H 409.204 -3.14895 3.68872 0
M  V30 4360 H 405.083 -3.78075 2.6378 0
M  V30 4361 H 408.627 -3.43362 6.07247 0
M  V30 4362 H 404.524 -4.06699 5.01265 0
M  V30 4363 H 405.292 -4.09265 7.08833 0
M  V30 4364 N 407.956 -0.998596 -1.21925 0
M  V30 4365 C 408.906 -0.524743 -2.21879 0
M  V30 4366 C 409.89 0.41017 -1.55584 0
M  V30 4367 O 411.082 0.236063 -1.75419 0
M  V30 4368 C 408.211 0.153636 -3.42956 0
M  V30 4369 C 407.297 -0.801918 -4.16449 0
M  V30 4370 N 407.688 -1.95211 -4.66611 0
M  V30 4371 C 405.986 -0.618972 -4.41684 0
M  V30 4372 C 406.687 -2.55234 -5.22715 0
M  V30 4373 N 405.663 -1.83451 -5.1171 0
M  V30 4374 H 409.465 -1.40189 -2.58311 0
M  V30 4375 H 406.979 -0.86159 -1.3766 0
M  V30 4376 H 408.976 0.510534 -4.13762 0
M  V30 4377 H 407.636 1.02684 -3.08036 0
M  V30 4378 H 408.647 -2.33271 -4.62391 0
M  V30 4379 H 405.324 0.207694 -4.16983 0
M  V30 4380 H 406.714 -3.52471 -5.72026 0
M  V30 4381 O 409.473 1.33471 -0.909268 0
M  V30 4382 H 410.164 1.86473 -0.524175 0
M  V30 END ATOM
M  V30 BEGIN BOND
M  V30 END BOND
M  V30 END CTAB
M  END
$$$$
