128814
  -OEChem-10061700063D

 56 59  0     1  0  0  0  0  0999 V2000
   -5.4461    1.2443   -0.7567 O   0  0  0  0  0  0  0  0  0  0  0  0
   -0.2065   -1.7366    1.4104 O   0  0  0  0  0  0  0  0  0  0  0  0
    5.9239    0.5884    0.6136 O   0  0  0  0  0  0  0  0  0  0  0  0
    6.4653    0.3836   -2.8508 O   0  0  0  0  0  0  0  0  0  0  0  0
    7.9428    0.0248   -1.1652 O   0  0  0  0  0  0  0  0  0  0  0  0
   -3.3821   -0.0153    0.6781 N   0  0  0  0  0  0  0  0  0  0  0  0
   -2.3511   -0.6580    1.4915 C   0  0  0  0  0  0  0  0  0  0  0  0
   -3.2949    1.3601    0.3950 C   0  0  0  0  0  0  0  0  0  0  0  0
   -4.4036   -0.7918    0.1008 C   0  0  0  0  0  0  0  0  0  0  0  0
   -1.2183   -1.1458    0.6044 C   0  0  0  0  0  0  0  0  0  0  0  0
   -4.3500    1.9580   -0.3193 C   0  0  0  0  0  0  0  0  0  0  0  0
   -5.4240   -0.1263   -0.6042 C   0  0  0  0  0  0  0  0  0  0  0  0
    5.0929   -1.3771   -0.4917 C   0  0  0  0  0  0  0  0  0  0  0  0
   -2.2197    2.1841    0.7627 C   0  0  0  0  0  0  0  0  0  0  0  0
   -4.4746   -2.1923    0.1645 C   0  0  0  0  0  0  0  0  0  0  0  0
    3.6923   -1.4718    0.0110 C   0  0  0  0  0  0  0  0  0  0  0  0
    5.5634    0.0764   -0.6635 C   0  0  2  0  0  0  0  0  0  0  0  0
   -4.3490    3.3221   -0.6283 C   0  0  0  0  0  0  0  0  0  0  0  0
   -6.4841   -0.8218   -1.1947 C   0  0  0  0  0  0  0  0  0  0  0  0
    1.0803   -1.6498    0.9477 C   0  0  0  0  0  0  0  0  0  0  0  0
   -2.2123    3.5485    0.4509 C   0  0  0  0  0  0  0  0  0  0  0  0
   -5.5308   -2.8924   -0.4294 C   0  0  0  0  0  0  0  0  0  0  0  0
    2.6294   -1.5183   -0.8912 C   0  0  0  0  0  0  0  0  0  0  0  0
    3.4449   -1.5145    1.3830 C   0  0  0  0  0  0  0  0  0  0  0  0
   -3.2774    4.1177   -0.2397 C   0  0  0  0  0  0  0  0  0  0  0  0
   -6.5367   -2.2080   -1.1043 C   0  0  0  0  0  0  0  0  0  0  0  0
    1.3191   -1.6075   -0.4212 C   0  0  0  0  0  0  0  0  0  0  0  0
    2.1346   -1.6040    1.8529 C   0  0  0  0  0  0  0  0  0  0  0  0
    6.7890    0.1589   -1.5510 C   0  0  0  0  0  0  0  0  0  0  0  0
    6.3576    1.9388    0.5296 C   0  0  0  0  0  0  0  0  0  0  0  0
    6.7259    2.4255    1.9149 C   0  0  0  0  0  0  0  0  0  0  0  0
   -2.7557   -1.4891    2.0832 H   0  0  0  0  0  0  0  0  0  0  0  0
   -1.9654    0.0109    2.2712 H   0  0  0  0  0  0  0  0  0  0  0  0
   -0.8297   -0.2888    0.0399 H   0  0  0  0  0  0  0  0  0  0  0  0
   -1.5767   -1.8941   -0.1115 H   0  0  0  0  0  0  0  0  0  0  0  0
    5.1643   -1.9093   -1.4497 H   0  0  0  0  0  0  0  0  0  0  0  0
    5.7644   -1.9131    0.1926 H   0  0  0  0  0  0  0  0  0  0  0  0
   -1.3568    1.7964    1.2961 H   0  0  0  0  0  0  0  0  0  0  0  0
   -3.7177   -2.7817    0.6735 H   0  0  0  0  0  0  0  0  0  0  0  0
    4.7693    0.7040   -1.0885 H   0  0  0  0  0  0  0  0  0  0  0  0
   -5.1774    3.7646   -1.1749 H   0  0  0  0  0  0  0  0  0  0  0  0
   -7.2651   -0.2874   -1.7286 H   0  0  0  0  0  0  0  0  0  0  0  0
   -1.3691    4.1653    0.7495 H   0  0  0  0  0  0  0  0  0  0  0  0
   -5.5646   -3.9763   -0.3625 H   0  0  0  0  0  0  0  0  0  0  0  0
    2.8097   -1.4900   -1.9626 H   0  0  0  0  0  0  0  0  0  0  0  0
    4.2637   -1.4782    2.0968 H   0  0  0  0  0  0  0  0  0  0  0  0
   -3.2687    5.1768   -0.4789 H   0  0  0  0  0  0  0  0  0  0  0  0
   -7.3553   -2.7543   -1.5628 H   0  0  0  0  0  0  0  0  0  0  0  0
    0.5237   -1.6713   -1.1574 H   0  0  0  0  0  0  0  0  0  0  0  0
    1.9460   -1.6364    2.9222 H   0  0  0  0  0  0  0  0  0  0  0  0
    5.5449    2.5595    0.1346 H   0  0  0  0  0  0  0  0  0  0  0  0
    7.2347    2.0675   -0.1098 H   0  0  0  0  0  0  0  0  0  0  0  0
    7.0467    3.4709    1.8908 H   0  0  0  0  0  0  0  0  0  0  0  0
    5.8729    2.3340    2.5955 H   0  0  0  0  0  0  0  0  0  0  0  0
    7.5345    1.8176    2.3343 H   0  0  0  0  0  0  0  0  0  0  0  0
    7.2608    0.4280   -3.4230 H   0  0  0  0  0  0  0  0  0  0  0  0
  1 11  1  0  0  0  0
  1 12  1  0  0  0  0
  2 10  1  0  0  0  0
  2 20  1  0  0  0  0
  3 17  1  0  0  0  0
  3 30  1  0  0  0  0
  4 29  1  0  0  0  0
  4 56  1  0  0  0  0
  5 29  2  0  0  0  0
  6  7  1  0  0  0  0
  6  8  1  0  0  0  0
  6  9  1  0  0  0  0
  7 10  1  0  0  0  0
  7 32  1  0  0  0  0
  7 33  1  0  0  0  0
  8 11  1  0  0  0  0
  8 14  2  0  0  0  0
  9 12  1  0  0  0  0
  9 15  2  0  0  0  0
 10 34  1  0  0  0  0
 10 35  1  0  0  0  0
 11 18  2  0  0  0  0
 12 19  2  0  0  0  0
 13 16  1  0  0  0  0
 13 17  1  0  0  0  0
 13 36  1  0  0  0  0
 13 37  1  0  0  0  0
 14 21  1  0  0  0  0
 14 38  1  0  0  0  0
 15 22  1  0  0  0  0
 15 39  1  0  0  0  0
 16 23  2  0  0  0  0
 16 24  1  0  0  0  0
 17 29  1  0  0  0  0
 17 40  1  0  0  0  0
 18 25  1  0  0  0  0
 18 41  1  0  0  0  0
 19 26  1  0  0  0  0
 19 42  1  0  0  0  0
 20 27  2  0  0  0  0
 20 28  1  0  0  0  0
 21 25  2  0  0  0  0
 21 43  1  0  0  0  0
 22 26  2  0  0  0  0
 22 44  1  0  0  0  0
 23 27  1  0  0  0  0
 23 45  1  0  0  0  0
 24 28  2  0  0  0  0
 24 46  1  0  0  0  0
 25 47  1  0  0  0  0
 26 48  1  0  0  0  0
 27 49  1  0  0  0  0
 28 50  1  0  0  0  0
 30 31  1  0  0  0  0
 30 51  1  0  0  0  0
 30 52  1  0  0  0  0
 31 53  1  0  0  0  0
 31 54  1  0  0  0  0
 31 55  1  0  0  0  0
M  END
> <DATABASE_ID>
DB06533

> <DATABASE_NAME>
drugbank

> <ORIGINAL_SOURCE>
PUBCHEM

> <ORIGINAL_SOURCE_URL>
https://pubchem.ncbi.nlm.nih.gov/rest/pug/compound/inchikey/WMUIIGVAWPWQAW-XMMPIXPASA-N/SDF?record_type=3d

> <SMILES>
CCO[C@H](CC1=CC=C(OCCN2C3=CC=CC=C3OC3=C2C=CC=C3)C=C1)C(O)=O

> <INCHI_IDENTIFIER>
InChI=1S/C25H25NO5/c1-2-29-24(25(27)28)17-18-11-13-19(14-12-18)30-16-15-26-20-7-3-5-9-22(20)31-23-10-6-4-8-21(23)26/h3-14,24H,2,15-17H2,1H3,(H,27,28)/t24-/m1/s1

> <INCHI_KEY>
WMUIIGVAWPWQAW-XMMPIXPASA-N

> <FORMULA>
C25H25NO5

> <MOLECULAR_WEIGHT>
419.477

> <EXACT_MASS>
419.173272909

> <JCHEM_ACCEPTOR_COUNT>
5

> <JCHEM_ATOM_COUNT>
56

> <JCHEM_AVERAGE_POLARIZABILITY>
44.87643970035643

> <JCHEM_BIOAVAILABILITY>
1

> <JCHEM_DONOR_COUNT>
1

> <JCHEM_FORMAL_CHARGE>
0

> <JCHEM_GHOSE_FILTER>
1

> <JCHEM_IUPAC>
(2R)-2-ethoxy-3-{4-[2-(10H-phenoxazin-10-yl)ethoxy]phenyl}propanoic acid

> <ALOGPS_LOGP>
4.77

> <JCHEM_LOGP>
5.019124122999999

> <ALOGPS_LOGS>
-4.63

> <JCHEM_MDDR_LIKE_RULE>
1

> <JCHEM_NUMBER_OF_RINGS>
4

> <JCHEM_PHYSIOLOGICAL_CHARGE>
-1

> <JCHEM_PKA_STRONGEST_ACIDIC>
3.7296714118881154

> <JCHEM_PKA_STRONGEST_BASIC>
-3.5702234070586862

> <JCHEM_POLAR_SURFACE_AREA>
68.23

> <JCHEM_REFRACTIVITY>
117.07650000000002

> <JCHEM_ROTATABLE_BOND_COUNT>
9

> <JCHEM_RULE_OF_FIVE>
0

> <ALOGPS_SOLUBILITY>
9.85e-03 g/l

> <JCHEM_TRADITIONAL_IUPAC>
(2R)-2-ethoxy-3-{4-[2-(phenoxazin-10-yl)ethoxy]phenyl}propanoic acid

> <JCHEM_VEBER_RULE>
0

> <DRUGBANK_ID>
DB06533

> <DRUG_GROUPS>
investigational

> <GENERIC_NAME>
Ragaglitazar

$$$$