drugbank_target|P10845 Botulinum neurotoxin type A (DB07818; DB07819; DB13900)
 OpenBabel12092120463D

  0  0  0     0  0            999 V3000
M  V30 BEGIN CTAB
M  V30 COUNTS 21001 21224 0 0 0
M  V30 BEGIN ATOM
M  V30 1 H -0.908 1.98254 -0.117106 0
M  V30 2 N 0 1.576 0 0
M  V30 3 C 0.933 2.03868 1.02534 0
M  V30 4 C 1.911 0.928543 1.3348 0
M  V30 5 O 3.095 1.19667 1.45644 0
M  V30 6 C 0.222 2.43627 2.35294 0
M  V30 7 C -0.732 3.65373 2.2001 0
M  V30 8 S 0.101 5.13292 1.52614 0
M  V30 9 C 1.257 5.56322 2.86805 0
M  V30 10 H 1.49 2.90518 0.631377 0
M  V30 11 H -0.977 1.52953 0.210867 0
M  V30 12 H 0.981 2.67203 3.11629 0
M  V30 13 H -0.358 1.57376 2.7183 0
M  V30 14 H -1.165 3.90944 3.18086 0
M  V30 15 H -1.563 3.418 1.51819 0
M  V30 16 H 0.729 5.58782 3.83104 0
M  V30 17 H 1.672 6.56266 2.65933 0
M  V30 18 H 2.08 4.83886 2.90714 0
M  V30 19 N 1.4781 -0.272755 1.55222 0
M  V30 20 C 2.8891 -0.84378 1.66545 0
M  V30 21 C 3.2401 -1.87035 0.592641 0
M  V30 22 O 2.3651 -2.14761 -0.265818 0
M  V30 23 C 2.9601 -1.53723 3.01918 0
M  V30 24 C 1.5191 -2.05628 3.15268 0
M  V30 25 C 0.6661 -0.898424 2.62343 0
M  V30 26 H 3.6171 -0.0490998 1.58624 0
M  V30 27 H 3.6381 -2.40421 2.94921 0
M  V30 28 H 3.1501 -0.78983 3.79978 0
M  V30 29 H 1.2511 -2.83329 2.41983 0
M  V30 30 H 1.3641 -2.27142 4.21833 0
M  V30 31 H -0.2719 -1.29186 2.19506 0
M  V30 32 H 0.5111 -0.164528 3.42906 0
M  V30 33 N 2.9562 -1.48159 -0.537278 0
M  V30 34 C 4.2032 -1.55804 -1.29349 0
M  V30 35 C 4.5312 -0.228802 -1.9315 0
M  V30 36 O 3.7862 0.780242 -1.79473 0
M  V30 37 C 4.0852 -2.63956 -2.40961 0
M  V30 38 C 3.7512 -4.0662 -1.94861 0
M  V30 39 C 2.4132 -4.45452 -1.82006 0
M  V30 40 C 4.7652 -4.96055 -1.59933 0
M  V30 41 C 2.0932 -5.71531 -1.32547 0
M  V30 42 C 4.4452 -6.22617 -1.11939 0
M  V30 43 C 3.1092 -6.60312 -0.976951 0
M  V30 44 H 2.3792 -0.570129 -0.473322 0
M  V30 45 H 5.0262 -1.81845 -0.600372 0
M  V30 46 H 3.3312 -2.31747 -3.15912 0
M  V30 47 H 5.0282 -2.67089 -2.99107 0
M  V30 48 H 1.6182 -3.75949 -2.05815 0
M  V30 49 H 5.8022 -4.66738 -1.68728 0
M  V30 50 H 1.0582 -5.99468 -1.202 0
M  V30 51 H 5.2322 -6.91318 -0.839811 0
M  V30 52 H 2.8592 -7.57895 -0.591501 0
M  V30 53 N 4.4343 0.785586 -1.36625 0
M  V30 54 C 5.6803 1.54591 -1.31261 0
M  V30 55 C 6.0133 1.93906 0.106823 0
M  V30 56 O 5.2883 1.63007 1.06108 0
M  V30 57 C 5.5713 2.82038 -2.23889 0
M  V30 58 C 5.4243 2.49066 -3.74548 0
M  V30 59 C 6.7433 3.83887 -2.15217 0
M  V30 60 H 3.8623 0.560846 -0.478143 0
M  V30 61 H 6.5043 0.902278 -1.67209 0
M  V30 62 H 4.6543 3.36961 -1.93363 0
M  V30 63 H 6.3263 2.00164 -4.15611 0
M  V30 64 H 4.5693 1.81954 -3.93796 0
M  V30 65 H 5.2403 3.40109 -4.34776 0
M  V30 66 H 7.7163 3.38421 -2.42096 0
M  V30 67 H 6.5923 4.70806 -2.82193 0
M  V30 68 H 6.8533 4.27131 -1.14068 0
M  V30 69 N 5.9124 1.20967 1.01018 0
M  V30 70 C 6.8604 0.961223 2.1181 0
M  V30 71 C 7.8544 -0.0897034 1.69162 0
M  V30 72 O 9.0604 0.0612271 1.79896 0
M  V30 73 H 5.4354 0.29355 0.692338 0
M  V30 74 H 7.4064 1.90178 2.29946 0
M  V30 75 C 6.1554 0.536854 3.4353 0
M  V30 76 H 5.4784 1.33713 3.76777 0
M  V30 77 H 6.9184 0.402286 4.22087 0
M  V30 78 C 5.3774 -0.751574 3.2841 0
M  V30 79 O 5.9074 -1.80841 3.58691 0
M  V30 80 N 4.1134 -0.716079 2.81639 0
M  V30 81 H 3.6604 0.144236 2.57196 0
M  V30 82 H 3.6184 -1.57847 2.71904 0
M  V30 83 N 7.3905 -1.2043 1.01659 0
M  V30 84 C 8.3375 -2.23215 0.586822 0
M  V30 85 C 9.3075 -1.61382 -0.393085 0
M  V30 86 O 10.4925 -1.88544 -0.292525 0
M  V30 87 C 7.6325 -3.45032 -0.0687464 0
M  V30 88 C 6.7455 -4.21296 0.955724 0
M  V30 89 C 5.8805 -5.30507 0.271208 0
M  V30 90 C 4.9195 -5.98515 1.28244 0
M  V30 91 N 4.0565 -6.99316 0.62459 0
M  V30 92 H 8.8965 -2.59336 1.46796 0
M  V30 93 H 6.4335 -1.27431 0.734836 0
M  V30 94 H 8.3915 -4.1459 -0.465965 0
M  V30 95 H 7.0215 -3.09604 -0.913529 0
M  V30 96 H 6.0735 -3.50803 1.4711 0
M  V30 97 H 7.3855 -4.6803 1.72479 0
M  V30 98 H 6.5395 -6.06428 -0.18151 0
M  V30 99 H 5.2785 -4.8481 -0.530163 0
M  V30 100 H 4.2835 -5.21355 1.74554 0
M  V30 101 H 5.5085 -6.46298 2.08509 0
M  V30 102 H 3.4545 -6.55812 -0.156914 0
M  V30 103 H 3.3715 -7.44178 1.33172 0
M  V30 104 H 4.6395 -7.79255 0.195462 0
M  V30 105 N 8.8686 -0.792821 -1.36206 0
M  V30 106 C 9.8006 -0.151469 -2.28699 0
M  V30 107 C 10.8136 0.641262 -1.49638 0
M  V30 108 O 12.0026 0.475885 -1.72039 0
M  V30 109 C 9.1026 0.808424 -3.29117 0
M  V30 110 C 8.2756 0.0650202 -4.37352 0
M  V30 111 C 7.3346 0.941358 -5.17711 0
M  V30 112 O 6.3606 0.397352 -5.67811 0
M  V30 113 N 7.5626 2.2652 -5.3448 0
M  V30 114 H 10.3276 -0.945982 -2.84379 0
M  V30 115 H 7.8886 -0.647032 -1.48409 0
M  V30 116 H 9.8806 1.3986 -3.79765 0
M  V30 117 H 8.4506 1.5038 -2.74052 0
M  V30 118 H 7.6706 -0.706255 -3.87822 0
M  V30 119 H 8.9586 -0.447847 -5.06825 0
M  V30 120 H 8.3566 2.73128 -4.95396 0
M  V30 121 H 6.9136 2.80493 -5.88359 0
M  V30 122 N 10.3467 1.47872 -0.545128 0
M  V30 123 C 11.5937 2.02493 -0.0165858 0
M  V30 124 C 11.9217 1.42073 1.32836 0
M  V30 125 O 11.1767 0.561459 1.87473 0
M  V30 126 C 11.4757 3.57131 0.13867 0
M  V30 127 C 11.1417 4.36411 -1.13384 0
M  V30 128 C 9.8037 4.57792 -1.48256 0
M  V30 129 C 12.1557 4.82223 -1.97764 0
M  V30 130 C 9.4837 5.22233 -2.67376 0
M  V30 131 C 11.8357 5.47977 -3.16076 0
M  V30 132 C 10.4997 5.67593 -3.51275 0
M  V30 133 H 9.7697 0.740975 -0.00606918 0
M  V30 134 H 12.4167 1.77683 -0.714207 0
M  V30 135 H 10.7217 3.80865 0.919172 0
M  V30 136 H 12.4187 3.97031 0.562782 0
M  V30 137 H 9.0087 4.2004 -0.852297 0
M  V30 138 H 13.1927 4.65493 -1.72132 0
M  V30 139 H 8.4487 5.35616 -2.94831 0
M  V30 140 H 12.6227 5.8244 -3.81755 0
M  V30 141 H 10.2497 6.17298 -4.43675 0
M  V30 142 N 11.8248 0.280983 1.55075 0
M  V30 143 C 12.7728 -0.619864 2.24188 0
M  V30 144 C 13.7668 -1.15315 1.24092 0
M  V30 145 O 14.9728 -1.1061 1.42005 0
M  V30 146 H 11.3478 -0.218459 0.719569 0
M  V30 147 H 13.3188 -0.0141831 2.98397 0
M  V30 148 C 12.0678 -1.7899 2.98091 0
M  V30 149 H 11.3908 -1.38874 3.74905 0
M  V30 150 H 12.8308 -2.39672 3.49762 0
M  V30 151 C 11.2898 -2.68192 2.03899 0
M  V30 152 O 11.8198 -3.6872 1.594 0
M  V30 153 N 10.0258 -2.35488 1.70275 0
M  V30 154 H 9.5728 -1.53787 2.06658 0
M  V30 155 H 9.5308 -2.95442 1.07524 0
M  V30 156 N 13.3029 -1.57598 0.00835791 0
M  V30 157 C 14.5329 -1.94931 -0.684496 0
M  V30 158 C 14.9409 -0.882233 -1.67372 0
M  V30 159 O 14.2839 0.146621 -1.83114 0
M  V30 160 C 14.3459 -3.283 -1.4649 0
M  V30 161 C 14.0099 -4.52548 -0.63634 0
M  V30 162 C 15.0069 -5.19839 0.0795586 0
M  V30 163 C 12.6919 -4.98942 -0.579849 0
M  V30 164 C 14.6859 -6.3183 0.840843 0
M  V30 165 C 12.3729 -6.10819 0.185155 0
M  V30 166 C 13.3709 -6.77121 0.894227 0
M  V30 167 O 13.0589 -7.86853 1.64673 0
M  V30 168 H 12.7909 -0.647249 -0.19505 0
M  V30 169 H 15.3449 -2.05318 0.0581272 0
M  V30 170 H 13.5749 -3.14345 -2.2522 0
M  V30 171 H 15.2639 -3.50685 -2.04389 0
M  V30 172 H 16.0299 -4.84979 0.0451202 0
M  V30 173 H 11.9089 -4.47155 -1.1213 0
M  V30 174 H 15.4529 -6.83513 1.39483 0
M  V30 175 H 11.3499 -6.4512 0.221384 0
M  V30 176 H 12.1179 -8.03412 1.56432 0
M  V30 177 N 14.781 0.264519 -1.55364 0
M  V30 178 C 15.728 1.32717 -1.88825 0
M  V30 179 C 16.698 1.48675 -0.740605 0
M  V30 180 O 17.883 1.62945 -0.992657 0
M  V30 181 C 15.023 2.68089 -2.17307 0
M  V30 182 C 14.136 2.60284 -3.44785 0
M  V30 183 C 13.271 3.87892 -3.62924 0
M  V30 184 C 12.31 3.74631 -4.84064 0
M  V30 185 N 11.447 4.94092 -4.98816 0
M  V30 186 H 16.287 1.03481 -2.79456 0
M  V30 187 H 13.824 0.499757 -1.3835 0
M  V30 188 H 15.782 3.46864 -2.31821 0
M  V30 189 H 14.412 2.95509 -1.299 0
M  V30 190 H 13.464 1.73173 -3.38697 0
M  V30 191 H 14.776 2.46388 -4.33698 0
M  V30 192 H 13.93 4.75109 -3.77302 0
M  V30 193 H 12.669 4.04664 -2.7221 0
M  V30 194 H 11.674 2.85797 -4.69681 0
M  V30 195 H 12.899 3.5937 -5.76221 0
M  V30 196 H 10.845 5.11259 -4.11036 0
M  V30 197 H 10.762 4.8276 -5.81789 0
M  V30 198 H 12.03 5.82857 -5.17588 0
M  V30 199 N 16.2591 1.48442 0.529413 0
M  V30 200 C 17.5361 1.46978 1.29062 0
M  V30 201 C 17.9161 0.181769 2.10316 0
M  V30 202 O 17.2641 -0.836481 2.12639 0
M  V30 203 C 17.4741 2.7321 2.17157 0
M  V30 204 C 18.8221 3.21562 2.77278 0
M  V30 205 O 19.8461 2.74131 2.27444 0
M  V30 206 O 18.7051 4.04094 3.67927 0
M  V30 207 H 15.7991 0.587003 0.582543 0
M  V30 208 H 18.3451 1.60676 0.546021 0
M  V30 209 H 17.1171 3.58465 1.56903 0
M  V30 210 H 16.7401 2.62235 2.98862 0
M  V30 211 N 17.7372 -0.778329 1.37039 0
M  V30 212 C 19.1482 -1.35421 1.28523 0
M  V30 213 C 19.4992 -1.96075 -0.0700901 0
M  V30 214 O 18.6242 -1.93352 -0.971801 0
M  V30 215 C 19.2192 -2.46211 2.32735 0
M  V30 216 C 17.7782 -2.99585 2.27873 0
M  V30 217 C 16.9252 -1.72748 2.16918 0
M  V30 218 H 19.8762 -0.5791 1.47757 0
M  V30 219 H 19.8972 -3.2552 1.9702 0
M  V30 220 H 19.4092 -2.02036 3.31365 0
M  V30 221 H 17.5102 -3.48152 1.32745 0
M  V30 222 H 17.6232 -3.55646 3.21018 0
M  V30 223 H 15.9872 -1.95416 1.63354 0
M  V30 224 H 16.7702 -1.30686 3.17452 0
M  V30 225 N 19.2153 -1.21501 -1.00376 0
M  V30 226 C 20.4613 -1.03452 -1.74429 0
M  V30 227 C 20.7943 0.430764 -1.89362 0
M  V30 228 O 20.0693 1.31962 -1.42886 0
M  V30 229 C 20.3523 -1.73375 -3.15615 0
M  V30 230 C 20.2053 -3.27431 -3.08397 0
M  V30 231 C 21.5243 -1.47732 -4.14564 0
M  V30 232 H 18.6433 -0.377226 -0.633143 0
M  V30 233 H 21.2853 -1.49693 -1.17013 0
M  V30 234 H 19.4353 -1.34064 -3.64636 0
M  V30 235 H 21.1073 -3.76119 -2.67081 0
M  V30 236 H 19.3503 -3.5767 -2.45468 0
M  V30 237 H 20.0213 -3.71524 -4.08258 0
M  V30 238 H 22.4973 -1.8186 -3.74254 0
M  V30 239 H 21.3733 -1.99169 -5.11491 0
M  V30 240 H 21.6343 -0.407589 -4.40217 0
M  V30 241 N 20.6934 1.19889 -1.02296 0
M  V30 242 C 21.6414 2.24938 -0.592081 0
M  V30 243 C 22.6354 1.65257 0.372357 0
M  V30 244 O 23.8414 1.78371 0.241583 0
M  V30 245 H 20.2164 0.731787 -0.173182 0
M  V30 246 H 22.1874 2.58603 -1.48885 0
M  V30 247 C 20.9364 3.47668 0.047351 0
M  V30 248 H 20.2594 3.93875 -0.685772 0
M  V30 249 H 21.6994 4.22852 0.311862 0
M  V30 250 C 20.1584 3.11136 1.29212 0
M  V30 251 O 20.6884 3.2325 2.38479 0
M  V30 252 N 18.8944 2.65625 1.17863 0
M  V30 253 H 18.4414 2.55968 0.289493 0
M  V30 254 H 18.3994 2.41553 2.01245 0
M  V30 255 N 22.1715 0.800033 1.35784 0
M  V30 256 C 23.4195 0.376597 1.9856 0
M  V30 257 C 23.7405 -1.05812 1.63795 0
M  V30 258 O 23.0105 -1.73103 0.917171 0
M  V30 259 H 21.5905 0.136261 0.734467 0
M  V30 260 H 24.2525 1.02442 1.65806 0
M  V30 261 H 23.3485 0.477002 3.08433 0
M  V30 262 N 23.6496 -1.47581 0.552962 0
M  V30 263 C 24.8956 -2.02782 0.0273648 0
M  V30 264 C 25.2286 -1.42687 -1.31734 0
M  V30 265 O 24.5036 -0.580897 -1.85623 0
M  V30 266 C 24.7866 -3.60031 -0.0702371 0
M  V30 267 C 24.6396 -4.30566 1.30126 0
M  V30 268 C 25.9586 -4.33028 -0.785771 0
M  V30 269 H 23.0776 -0.736912 0.0114185 0
M  V30 270 H 25.7196 -1.76056 0.714432 0
M  V30 271 H 23.8696 -3.82932 -0.655382 0
M  V30 272 H 25.5416 -4.19018 1.92929 0
M  V30 273 H 23.7846 -3.91086 1.87709 0
M  V30 274 H 24.4556 -5.39114 1.18573 0
M  V30 275 H 26.9316 -4.15095 -0.288982 0
M  V30 276 H 25.8076 -5.42695 -0.823013 0
M  V30 277 H 26.0686 -4.01945 -1.841 0
M  V30 278 N 25.1277 -0.289203 -1.54924 0
M  V30 279 C 26.4047 0.376032 -1.91951 0
M  V30 280 C 26.7847 1.72622 -1.21511 0
M  V30 281 O 26.1327 2.25853 -0.346767 0
M  V30 282 C 26.3427 0.502378 -3.45365 0
M  V30 283 C 27.6907 0.778741 -4.17398 0
M  V30 284 O 28.7147 0.586647 -3.51336 0
M  V30 285 O 27.5737 1.14698 -5.34328 0
M  V30 286 H 24.6677 0.208167 -0.800372 0
M  V30 287 H 27.2137 -0.336394 -1.66332 0
M  V30 288 H 25.9857 -0.447255 -3.88736 0
M  V30 289 H 25.6087 1.26373 -3.76982 0
M  V30 290 N 26.6058 1.57591 -0.0167156 0
M  V30 291 C 27.8548 1.90461 0.663877 0
M  V30 292 C 28.1678 0.893515 1.73999 0
M  V30 293 O 29.3738 1.11302 2.47637 0
M  V30 294 C 27.8298 3.38155 1.23204 0
M  V30 295 C 27.4378 4.47597 0.189866 0
M  V30 296 C 29.1818 3.80111 1.88986 0
M  V30 297 C 27.0888 5.86379 0.768964 0
M  V30 298 H 26.0188 0.710738 0.251729 0
M  V30 299 H 28.6698 1.83326 -0.0799926 0
M  V30 300 H 27.0518 3.40182 2.02712 0
M  V30 301 H 28.2258 4.57112 -0.581846 0
M  V30 302 H 26.5408 4.14766 -0.368475 0
M  V30 303 H 29.1378 4.81145 2.33247 0
M  V30 304 H 29.4808 3.14511 2.72743 0
M  V30 305 H 30.0138 3.80454 1.16187 0
M  V30 306 H 26.7528 6.55493 -0.0301957 0
M  V30 307 H 26.2728 5.80496 1.50945 0
M  V30 308 H 27.9518 6.34563 1.26251 0
M  V30 309 N 28.0839 -0.256276 1.55502 0
M  V30 310 C 29.0469 -1.30047 1.88734 0
M  V30 311 C 30.0469 -1.4154 0.763086 0
M  V30 312 O 31.2369 -1.40403 1.03115 0
M  V30 313 C 28.3689 -2.67953 2.10747 0
M  V30 314 H 29.5619 -1.01802 2.82093 0
M  V30 315 H 27.1149 -0.495134 1.4825 0
M  V30 316 H 27.8499 -3.01351 1.19825 0
M  V30 317 H 27.6349 -2.60993 2.92617 0
M  V30 318 H 29.1249 -3.43368 2.37673 0
M  V30 319 N 29.562 -1.4872 -0.521534 0
M  V30 320 C 30.792 -1.6061 -1.29954 0
M  V30 321 C 31.2 -0.268728 -1.87282 0
M  V30 322 O 30.543 0.753221 -1.67548 0
M  V30 323 C 30.605 -2.60013 -2.48261 0
M  V30 324 C 30.269 -4.04874 -2.11957 0
M  V30 325 C 31.266 -4.92304 -1.67132 0
M  V30 326 C 28.951 -4.5047 -2.22221 0
M  V30 327 C 30.945 -6.2336 -1.33047 0
M  V30 328 C 28.632 -5.81544 -1.87748 0
M  V30 329 C 29.63 -6.67812 -1.43234 0
M  V30 330 O 29.318 -7.96446 -1.09217 0
M  V30 331 H 29.05 -0.544116 -0.401141 0
M  V30 332 H 31.604 -1.95339 -0.634958 0
M  V30 333 H 29.834 -2.20422 -3.17728 0
M  V30 334 H 31.523 -2.61648 -3.10315 0
M  V30 335 H 32.289 -4.58312 -1.58665 0
M  V30 336 H 28.168 -3.83504 -2.55823 0
M  V30 337 H 31.712 -6.90649 -0.982299 0
M  V30 338 H 27.609 -6.15069 -1.95858 0
M  V30 339 H 28.377 -8.09275 -1.22542 0
M  V30 340 N 31.0401 0.771051 -1.3745 0
M  V30 341 C 32.2891 1.52491 -1.3202 0
M  V30 342 C 32.6021 1.9538 0.0927347 0
M  V30 343 O 33.8081 2.70159 0.269503 0
M  V30 344 C 32.2641 2.75366 -2.31736 0
M  V30 345 C 31.8721 2.39573 -3.78562 0
M  V30 346 C 33.6161 3.53307 -2.35318 0
M  V30 347 C 31.5231 3.58954 -4.70007 0
M  V30 348 H 30.4531 0.572506 -0.490666 0
M  V30 349 H 33.1041 0.844474 -1.62914 0
M  V30 350 H 31.4861 3.45303 -1.93861 0
M  V30 351 H 32.6601 1.77415 -4.25277 0
M  V30 352 H 30.9751 1.74805 -3.77932 0
M  V30 353 H 33.5721 4.42039 -3.00842 0
M  V30 354 H 33.9151 3.93217 -1.36698 0
M  V30 355 H 34.4481 2.90367 -2.71904 0
M  V30 356 H 31.1871 3.24125 -5.69757 0
M  V30 357 H 30.7071 4.20214 -4.27996 0
M  V30 358 H 32.3861 4.25758 -4.87175 0
M  V30 359 N 32.5182 1.22032 0.997298 0
M  V30 360 C 33.4652 0.986467 2.08656 0
M  V30 361 C 34.4352 -0.0902671 1.65855 0
M  V30 362 O 35.6202 0.0584294 1.90711 0
M  V30 363 C 32.7602 0.565569 3.40434 0
M  V30 364 C 31.8732 1.71259 3.96604 0
M  V30 365 C 31.0082 1.24011 5.16522 0
M  V30 366 C 30.0472 2.35896 5.64818 0
M  V30 367 N 29.1842 1.89726 6.7598 0
M  V30 368 H 34.0242 1.91892 2.27994 0
M  V30 369 H 31.5612 0.956199 1.11782 0
M  V30 370 H 33.5192 0.302738 4.161 0
M  V30 371 H 32.1492 -0.329879 3.2111 0
M  V30 372 H 31.2012 2.08986 3.17851 0
M  V30 373 H 32.5132 2.55436 4.28432 0
M  V30 374 H 31.6672 0.934395 5.99461 0
M  V30 375 H 30.4062 0.368487 4.86306 0
M  V30 376 H 29.4112 2.67261 4.8047 0
M  V30 377 H 30.6362 3.23567 5.97061 0
M  V30 378 H 28.5822 1.0492 6.47555 0
M  V30 379 H 28.4992 2.67471 7.07103 0
M  V30 380 H 29.7672 1.62211 7.62435 0
M  V30 381 N 33.9963 -1.19345 1.0293 0
M  V30 382 C 35.2453 -1.88363 0.721256 0
M  V30 383 C 35.5583 -1.80514 -0.753254 0
M  V30 384 O 36.7643 -2.44788 -1.17436 0
M  V30 385 C 35.2203 -3.37872 1.23978 0
M  V30 386 C 34.8283 -3.54278 2.74211 0
M  V30 387 C 36.5723 -4.12365 1.00775 0
M  V30 388 C 34.4793 -4.97682 3.19479 0
M  V30 389 H 33.4093 -0.705484 0.266098 0
M  V30 390 H 36.0603 -1.34928 1.24365 0
M  V30 391 H 34.4423 -3.90707 0.6453 0
M  V30 392 H 35.6163 -3.11769 3.39318 0
M  V30 393 H 33.9313 -2.93174 2.95699 0
M  V30 394 H 36.5283 -5.18119 1.32123 0
M  V30 395 H 36.8713 -4.16263 -0.0554308 0
M  V30 396 H 37.4043 -3.65668 1.56625 0
M  V30 397 H 34.1433 -4.98945 4.25128 0
M  V30 398 H 33.6633 -5.4095 2.591 0
M  V30 399 H 35.3423 -5.66337 3.12845 0
M  V30 400 N 35.4744 -0.807222 -1.35358 0
M  V30 401 C 36.8854 -0.44876 -1.81226 0
M  V30 402 C 37.2364 1.02929 -1.67033 0
M  V30 403 O 36.3614 1.79991 -1.20133 0
M  V30 404 C 36.9564 -0.807774 -3.2903 0
M  V30 405 C 35.5154 -0.501901 -3.73039 0
M  V30 406 C 34.6624 -1.03304 -2.57339 0
M  V30 407 H 37.6134 -0.998808 -1.23327 0
M  V30 408 H 37.6344 -0.10554 -3.80354 0
M  V30 409 H 37.1464 -1.88357 -3.39328 0
M  V30 410 H 35.2474 0.565128 -3.68289 0
M  V30 411 H 35.3604 -1.03497 -4.67787 0
M  V30 412 H 33.7244 -0.455339 -2.50597 0
M  V30 413 H 34.5074 -2.11496 -2.70415 0
M  V30 414 N 36.9525 1.47285 -0.560781 0
M  V30 415 C 37.9005 2.31756 0.197942 0
M  V30 416 C 38.8945 1.43146 0.905854 0
M  V30 417 O 40.1005 1.59891 0.826733 0
M  V30 418 H 36.4755 0.747438 0.0827049 0
M  V30 419 H 38.4465 2.9359 -0.533629 0
M  V30 420 C 37.1955 3.25874 1.21249 0
M  V30 421 H 36.5185 3.94023 0.67719 0
M  V30 422 H 37.9585 3.87803 1.71419 0
M  V30 423 C 36.4175 2.49651 2.26221 0
M  V30 424 O 36.9475 2.24355 3.33208 0
M  V30 425 N 35.1535 2.10597 2.00243 0
M  V30 426 H 34.7005 2.31369 1.13252 0
M  V30 427 H 34.6585 1.59913 2.70694 0
M  V30 428 N 38.4306 0.297415 1.54768 0
M  V30 429 C 39.6766 -0.313376 2.00364 0
M  V30 430 C 40.0096 -1.53815 1.18553 0
M  V30 431 O 39.2846 -1.92739 0.261103 0
M  V30 432 C 39.5676 -0.673525 3.53745 0
M  V30 433 C 39.4206 0.560133 4.46299 0
M  V30 434 C 40.7396 -1.50143 4.13697 0
M  V30 435 H 37.8586 -0.112428 0.728374 0
M  V30 436 H 40.5006 0.4088 1.8555 0
M  V30 437 H 38.6506 -1.28881 3.665 0
M  V30 438 H 40.3226 1.19863 4.45455 0
M  V30 439 H 38.5656 1.19405 4.17043 0
M  V30 440 H 39.2366 0.26405 5.51368 0
M  V30 441 H 41.7126 -0.981588 4.04356 0
M  V30 442 H 40.5886 -1.72221 5.21182 0
M  V30 443 H 40.8496 -2.48952 3.65343 0
M  V30 444 N 39.9087 -1.5758 0.0250728 0
M  V30 445 C 41.1567 -1.91255 -0.653151 0
M  V30 446 C 41.4777 -0.901691 -1.729 0
M  V30 447 O 40.7477 0.0573785 -1.95816 0
M  V30 448 H 39.3277 -0.705942 -0.244243 0
M  V30 449 H 41.9897 -1.94767 0.0719209 0
M  V30 450 H 41.0857 -2.91752 -1.10847 0
M  V30 451 N 41.3868 0.248026 -1.55636 0
M  V30 452 C 42.3188 1.32993 -1.8667 0
M  V30 453 C 43.3318 1.44345 -0.752877 0
M  V30 454 O 44.5208 1.45715 -1.03098 0
M  V30 455 C 41.6208 2.70863 -2.03682 0
M  V30 456 C 40.7938 2.81792 -3.34532 0
M  V30 457 C 39.8528 4.005 -3.41301 0
M  V30 458 O 38.8788 3.9008 -4.14519 0
M  V30 459 N 40.0808 5.13618 -2.70512 0
M  V30 460 H 42.8458 1.06707 -2.8006 0
M  V30 461 H 40.4068 0.438129 -1.55859 0
M  V30 462 H 42.3988 3.48612 -2.05553 0
M  V30 463 H 40.9688 2.89862 -1.17041 0
M  V30 464 H 40.1888 1.90729 -3.44987 0
M  V30 465 H 41.4768 2.86043 -4.20781 0
M  V30 466 H 40.8748 5.24975 -2.10755 0
M  V30 467 H 39.4318 5.89505 -2.78077 0
M  V30 468 N 42.8649 1.48995 0.513639 0
M  V30 469 C 43.7979 1.59319 1.63379 0
M  V30 470 C 44.7759 0.442816 1.56454 0
M  V30 471 O 45.9599 0.656655 1.76693 0
M  V30 472 C 43.0869 1.5364 3.01848 0
M  V30 473 C 42.1329 2.7372 3.27078 0
M  V30 474 S 42.9659 4.35528 3.1157 0
M  V30 475 C 44.1219 4.32473 4.52458 0
M  V30 476 H 44.3549 2.54079 1.54374 0
M  V30 477 H 41.8879 1.3773 0.697849 0
M  V30 478 H 43.8459 1.51049 3.81699 0
M  V30 479 H 42.5069 0.601898 3.08279 0
M  V30 480 H 41.6999 2.6593 4.28132 0
M  V30 481 H 41.3019 2.73657 2.54927 0
M  V30 482 H 43.5939 4.03414 5.44301 0
M  V30 483 H 44.5369 5.33762 4.65299 0
M  V30 484 H 44.9449 3.62718 4.32546 0
M  V30 485 N 44.343 -0.763751 1.37857 0
M  V30 486 C 45.275 -1.88664 1.30148 0
M  V30 487 C 46.288 -1.61365 0.215685 0
M  V30 488 O 47.477 -1.72134 0.472459 0
M  V30 489 C 44.577 -3.24075 0.991396 0
M  V30 490 C 43.75 -3.78958 2.18426 0
M  V30 491 C 42.809 -4.92862 1.8432 0
M  V30 492 O 41.835 -5.08027 2.56704 0
M  V30 493 N 43.037 -5.75071 0.792081 0
M  V30 494 H 45.802 -1.95791 2.26905 0
M  V30 495 H 43.363 -0.943226 1.31586 0
M  V30 496 H 45.355 -3.97804 0.743935 0
M  V30 497 H 43.925 -3.12399 0.112122 0
M  V30 498 H 43.145 -2.96913 2.59299 0
M  V30 499 H 44.433 -4.12357 2.98058 0
M  V30 500 H 43.831 -5.65375 0.191595 0
M  V30 501 H 42.388 -6.48991 0.60449 0
M  V30 502 N 45.8211 -1.22559 -0.990812 0
M  V30 503 C 47.2321 -1.04791 -1.54518 0
M  V30 504 C 47.5831 0.387998 -1.92325 0
M  V30 505 O 46.7081 1.27328 -1.74976 0
M  V30 506 C 47.3031 -1.896 -2.80779 0
M  V30 507 C 45.8621 -1.76124 -3.32652 0
M  V30 508 C 45.0091 -1.8594 -2.05722 0
M  V30 509 H 47.9601 -1.36374 -0.811662 0
M  V30 510 H 47.9811 -1.41464 -3.53225 0
M  V30 511 H 47.4931 -2.94101 -2.53231 0
M  V30 512 H 45.5941 -0.743643 -3.65104 0
M  V30 513 H 45.7071 -2.58913 -4.03114 0
M  V30 514 H 44.0711 -1.29403 -2.19379 0
M  V30 515 H 44.8541 -2.91976 -1.80568 0
M  V30 516 N 47.2992 1.18797 -1.03562 0
M  V30 517 C 48.5452 1.8893 -0.737113 0
M  V30 518 C 48.8782 1.79837 0.732956 0
M  V30 519 O 48.1532 1.19525 1.5344 0
M  V30 520 C 48.4362 3.39607 -1.19745 0
M  V30 521 C 48.2892 3.57537 -2.72924 0
M  V30 522 C 49.6082 4.33069 -0.783526 0
M  V30 523 H 46.7272 0.686057 -0.269249 0
M  V30 524 H 49.3692 1.39797 -1.28673 0
M  V30 525 H 47.5192 3.81583 -0.729855 0
M  V30 526 H 49.1912 3.24688 -3.27682 0
M  V30 527 H 47.4342 3.00363 -3.12993 0
M  V30 528 H 48.1052 4.63238 -3.00191 0
M  V30 529 H 50.5812 3.98846 -1.18581 0
M  V30 530 H 49.4572 5.3707 -1.13343 0
M  V30 531 H 49.7182 4.40986 0.313681 0
M  V30 532 N 48.7773 0.814389 1.34928 0
M  V30 533 C 49.7243 0.22822 2.29669 0
M  V30 534 C 50.6943 -0.642164 1.53184 0
M  V30 535 O 51.8793 -0.585605 1.81591 0
M  V30 536 C 49.0193 -0.61089 3.3965 0
M  V30 537 C 48.1323 0.280792 4.31086 0
M  V30 538 C 47.2673 -0.567067 5.28165 0
M  V30 539 C 46.3063 0.324531 6.11239 0
M  V30 540 N 45.4433 -0.483756 7.00431 0
M  V30 541 H 50.2833 1.04153 2.79206 0
M  V30 542 H 47.8203 0.525133 1.37407 0
M  V30 543 H 49.7783 -1.11263 4.0209 0
M  V30 544 H 48.4083 -1.38939 2.91369 0
M  V30 545 H 47.4603 0.900688 3.69583 0
M  V30 546 H 48.7723 0.966723 4.89342 0
M  V30 547 H 47.9263 -1.13363 5.96015 0
M  V30 548 H 46.6653 -1.28654 4.70425 0
M  V30 549 H 45.6703 0.903298 5.42329 0
M  V30 550 H 46.8953 1.04198 6.71059 0
M  V30 551 H 44.8413 -1.18706 6.45171 0
M  V30 552 H 44.7583 0.143965 7.55863 0
M  V30 553 H 46.0263 -1.03334 7.7262 0
M  V30 554 N 50.2554 -1.46986 0.568584 0
M  V30 555 C 51.2184 -2.28624 -0.162366 0
M  V30 556 C 52.2184 -1.37596 -0.832103 0
M  V30 557 O 53.4084 -1.60115 -0.68622 0
M  V30 558 C 50.5404 -3.17596 -1.23878 0
M  V30 559 H 51.7334 -2.94722 0.554899 0
M  V30 560 H 49.2864 -1.52863 0.325976 0
M  V30 561 H 50.0214 -2.56214 -1.98808 0
M  V30 562 H 49.8064 -3.846 -0.763219 0
M  V30 563 H 51.2964 -3.79078 -1.75185 0
M  V30 564 N 51.7335 -0.305618 -1.54608 0
M  V30 565 C 52.9805 0.302298 -2.00231 0
M  V30 566 C 53.3085 1.5354 -1.19398 0
M  V30 567 O 52.5635 1.93973 -0.259423 0
M  V30 568 C 52.8625 0.698983 -3.50498 0
M  V30 569 C 52.5285 -0.432903 -4.48817 0
M  V30 570 C 51.1905 -0.743622 -4.75419 0
M  V30 571 C 53.5425 -1.19409 -5.07337 0
M  V30 572 C 50.8705 -1.81857 -5.57804 0
M  V30 573 C 53.2225 -2.25899 -5.90891 0
M  V30 574 C 51.8865 -2.57572 -6.15803 0
M  V30 575 H 51.1565 0.110619 -0.732697 0
M  V30 576 H 53.8035 -0.425674 -1.86709 0
M  V30 577 H 52.1085 1.50711 -3.61654 0
M  V30 578 H 53.8055 1.1806 -3.83227 0
M  V30 579 H 50.3955 -0.18063 -4.28219 0
M  V30 580 H 54.5795 -0.967295 -4.86782 0
M  V30 581 H 49.8355 -2.06864 -5.75341 0
M  V30 582 H 54.0095 -2.85335 -6.35261 0
M  V30 583 H 51.6365 -3.40998 -6.7943 0
M  V30 584 N 53.2116 1.57565 -0.0334293 0
M  V30 585 C 54.1586 2.10478 0.946981 0
M  V30 586 C 55.1286 1.00787 1.32027 0
M  V30 587 O 56.3136 1.28232 1.41284 0
M  V30 588 C 53.4536 2.63994 2.22263 0
M  V30 589 C 52.5666 3.87709 1.90541 0
M  V30 590 C 51.7016 4.29604 3.12433 0
M  V30 591 C 50.7406 5.46065 2.76549 0
M  V30 592 N 49.8776 5.83096 3.9108 0
M  V30 593 H 54.7176 2.93963 0.488846 0
M  V30 594 H 52.2546 1.45296 0.22969 0
M  V30 595 H 54.2126 2.93114 2.96884 0
M  V30 596 H 52.8426 1.83333 2.65685 0
M  V30 597 H 51.8946 3.65291 1.06144 0
M  V30 598 H 53.2066 4.72403 1.60116 0
M  V30 599 H 52.3606 4.60182 3.9537 0
M  V30 600 H 51.0996 3.43685 3.46023 0
M  V30 601 H 50.1046 5.15176 1.92026 0
M  V30 602 H 51.3296 6.33685 2.44171 0
M  V30 603 H 49.2756 5.00132 4.24504 0
M  V30 604 H 49.1926 6.6244 3.64293 0
M  V30 605 H 50.4606 6.18282 4.74708 0
M  V30 606 N 54.6897 -0.239769 1.55765 0
M  V30 607 C 55.9387 -0.964754 1.77131 0
M  V30 608 C 56.2517 -1.86213 0.59868 0
M  V30 609 O 57.4577 -2.6244 0.695522 0
M  V30 610 C 55.9137 -1.76552 3.1362 0
M  V30 611 C 55.5217 -0.915185 4.38553 0
M  V30 612 C 57.2657 -2.48281 3.44321 0
M  V30 613 C 55.1727 -1.71225 5.66071 0
M  V30 614 H 54.1027 -0.363953 0.660344 0
M  V30 615 H 56.7537 -0.219181 1.82186 0
M  V30 616 H 55.1357 -2.55331 3.02691 0
M  V30 617 H 56.3097 -0.169217 4.60489 0
M  V30 618 H 54.6247 -0.310889 4.15238 0
M  V30 619 H 57.2217 -3.08382 4.36812 0
M  V30 620 H 57.5647 -3.20256 2.65973 0
M  V30 621 H 58.0977 -1.76507 3.56497 0
M  V30 622 H 54.8367 -1.03612 6.4726 0
M  V30 623 H 54.3567 -2.43331 5.48224 0
M  V30 624 H 56.0357 -2.27758 6.05587 0
M  V30 625 N 56.1678 -1.49265 -0.50573 0
M  V30 626 C 57.1178 -1.6198 -1.60457 0
M  V30 627 C 58.1018 -0.47568 -1.53708 0
M  V30 628 O 59.2938 -0.728392 -1.61318 0
M  V30 629 C 56.4228 -1.68526 -2.99089 0
M  V30 630 C 55.5088 -2.885 -3.10852 0
M  V30 631 N 55.8998 -4.12635 -2.92517 0
M  V30 632 C 54.1978 -2.86338 -3.41945 0
M  V30 633 C 54.8988 -4.93258 -3.08337 0
M  V30 634 N 53.8748 -4.26533 -3.37003 0
M  V30 635 H 57.6768 -2.55681 -1.44928 0
M  V30 636 H 55.1908 -1.45972 -0.711752 0
M  V30 637 H 57.1878 -1.75732 -3.78053 0
M  V30 638 H 55.8478 -0.759584 -3.1569 0
M  V30 639 H 56.8588 -4.42689 -2.68787 0
M  V30 640 H 53.5358 -2.03129 -3.64753 0
M  V30 641 H 54.9258 -6.01856 -2.98695 0
M  V30 642 N 57.6459 0.756429 -1.3826 0
M  V30 643 C 58.5939 1.89149 -1.35372 0
M  V30 644 C 59.5879 1.67691 -0.24004 0
M  V30 645 O 60.7939 1.75294 -0.408919 0
M  V30 646 H 57.1689 0.622271 -0.422236 0
M  V30 647 H 59.1399 1.88701 -2.31159 0
M  V30 648 C 57.8889 3.26599 -1.19284 0
M  V30 649 H 57.2119 3.43695 -2.0424 0
M  V30 650 H 58.6519 4.06274 -1.21316 0
M  V30 651 C 57.1109 3.3675 0.100454 0
M  V30 652 O 57.6409 3.86951 1.07851 0
M  V30 653 N 55.8469 2.90179 0.15633 0
M  V30 654 H 55.3939 2.49517 -0.640253 0
M  V30 655 H 55.3519 2.97352 1.02123 0
M  V30 656 N 59.124 1.23083 0.984299 0
M  V30 657 C 60.071 1.00854 2.07598 0
M  V30 658 C 61.041 -0.0726709 1.65941 0
M  V30 659 O 62.226 0.0786535 1.90638 0
M  V30 660 C 59.366 0.601645 3.39815 0
M  V30 661 C 58.479 1.75456 3.94765 0
M  V30 662 C 57.614 1.29482 5.15177 0
M  V30 663 C 56.653 2.41873 5.62284 0
M  V30 664 N 55.79 1.96885 6.73929 0
M  V30 665 H 60.63 1.943 2.25946 0
M  V30 666 H 58.167 0.968001 1.10762 0
M  V30 667 H 60.125 0.346854 4.15756 0
M  V30 668 H 58.755 -0.295803 3.21442 0
M  V30 669 H 57.807 2.12346 3.15616 0
M  V30 670 H 59.119 2.59965 4.25699 0
M  V30 671 H 58.273 0.997923 5.98437 0
M  V30 672 H 57.012 0.420046 4.85888 0
M  V30 673 H 56.017 2.72342 4.77608 0
M  V30 674 H 57.242 3.29881 5.93595 0
M  V30 675 H 55.188 1.11782 6.46406 0
M  V30 676 H 55.105 2.74956 7.04227 0
M  V30 677 H 56.373 1.70289 7.60672 0
M  V30 678 N 60.6021 -1.18246 1.0419 0
M  V30 679 C 61.8511 -1.87588 0.741194 0
M  V30 680 C 62.1641 -1.81303 -0.734066 0
M  V30 681 O 63.3701 -2.46019 -1.14834 0
M  V30 682 C 61.8261 -3.36538 1.27555 0
M  V30 683 C 61.4341 -3.51349 2.77953 0
M  V30 684 C 63.1781 -4.11273 1.05143 0
M  V30 685 C 61.0851 -4.94265 3.2474 0
M  V30 686 H 60.0151 -0.702622 0.273565 0
M  V30 687 H 62.6661 -1.33601 1.25789 0
M  V30 688 H 61.0481 -3.9 0.686703 0
M  V30 689 H 62.2221 -3.08153 3.42605 0
M  V30 690 H 60.5371 -2.90022 2.98791 0
M  V30 691 H 63.1341 -5.16689 1.37611 0
M  V30 692 H 63.4771 -4.16298 -0.0112774 0
M  V30 693 H 64.0101 -3.63987 1.60495 0
M  V30 694 H 60.7491 -4.94408 4.30396 0
M  V30 695 H 60.2691 -5.38172 2.64823 0
M  V30 696 H 61.9481 -5.62987 3.18834 0
M  V30 697 N 62.0802 -0.821533 -1.34494 0
M  V30 698 C 63.3262 -0.418729 -1.99043 0
M  V30 699 C 63.6812 1.00672 -1.6396 0
M  V30 700 O 62.9742 1.69132 -0.900271 0
M  V30 701 C 63.1682 -0.556512 -3.53041 0
M  V30 702 C 62.9972 -1.9938 -4.03085 0
M  V30 703 C 61.7672 -2.62539 -4.31742 0
M  V30 704 C 63.9652 -2.96035 -4.20556 0
M  V30 705 N 61.9472 -3.97523 -4.67813 0
M  V30 706 C 63.3182 -4.15924 -4.59791 0
M  V30 707 C 65.3732 -2.9267 -4.02801 0
M  V30 708 C 64.0762 -5.32899 -4.83126 0
M  V30 709 C 66.1022 -4.08861 -4.27302 0
M  V30 710 C 65.4642 -5.275 -4.66822 0
M  V30 711 H 61.5632 -0.201299 -0.755647 0
M  V30 712 H 64.1472 -1.06594 -1.62929 0
M  V30 713 H 62.3182 0.0607924 -3.88352 0
M  V30 714 H 64.0502 -0.126842 -4.04501 0
M  V30 715 H 60.8052 -2.13789 -4.22601 0
M  V30 716 H 61.2292 -4.67061 -4.90085 0
M  V30 717 H 65.8712 -2.02088 -3.71376 0
M  V30 718 H 63.5892 -6.24041 -5.13418 0
M  V30 719 H 67.1752 -4.07654 -4.15101 0
M  V30 720 H 66.0552 -6.15913 -4.85408 0
M  V30 721 N 63.5583 1.46682 -0.576371 0
M  V30 722 C 64.8043 2.02712 -0.0596221 0
M  V30 723 C 65.1373 1.44765 1.29448 0
M  V30 724 O 64.4123 0.610355 1.84675 0
M  V30 725 C 64.6953 3.60098 0.0129503 0
M  V30 726 C 64.5483 4.28441 -1.3696 0
M  V30 727 C 65.8673 4.34224 0.71678 0
M  V30 728 H 62.9863 0.736637 -0.0231407 0
M  V30 729 H 65.6283 1.74898 -0.742351 0
M  V30 730 H 63.7783 3.83926 0.594378 0
M  V30 731 H 65.4503 4.15896 -1.9957 0
M  V30 732 H 63.6933 3.8805 -1.93907 0
M  V30 733 H 64.3643 5.3716 -1.27135 0
M  V30 734 H 66.8403 4.15503 0.222908 0
M  V30 735 H 65.7163 5.43936 0.73657 0
M  V30 736 H 65.9773 4.04823 1.77682 0
M  V30 737 N 65.0364 0.313813 1.54444 0
M  V30 738 C 66.2854 -0.292519 1.99568 0
M  V30 739 C 66.5984 -1.54011 1.20582 0
M  V30 740 O 67.8044 -2.22183 1.56035 0
M  V30 741 C 66.2604 -0.571752 3.55329 0
M  V30 742 C 65.8684 0.658229 4.43138 0
M  V30 743 C 67.6124 -1.13857 4.08946 0
M  V30 744 C 65.5194 0.351439 5.90355 0
M  V30 745 H 64.4494 -0.113079 0.745472 0
M  V30 746 H 67.1004 0.424518 1.78522 0
M  V30 747 H 65.4824 -1.34872 3.72325 0
M  V30 748 H 66.6564 1.43403 4.37918 0
M  V30 749 H 64.9714 1.14458 4.0036 0
M  V30 750 H 67.5684 -1.38257 5.16516 0
M  V30 751 H 67.9114 -2.08489 3.6033 0
M  V30 752 H 68.4444 -0.423015 3.95544 0
M  V30 753 H 65.1834 1.26667 6.43145 0
M  V30 754 H 64.7034 -0.386842 5.98551 0
M  V30 755 H 66.3824 -0.0423134 6.46986 0
M  V30 756 N 66.5145 -1.57545 0.0417849 0
M  V30 757 C 67.9255 -1.80011 -0.495259 0
M  V30 758 C 68.2765 -0.953199 -1.71489 0
M  V30 759 O 67.4015 -0.167138 -2.15754 0
M  V30 760 C 67.9965 -3.26482 -0.905265 0
M  V30 761 C 66.5555 -3.499 -1.38734 0
M  V30 762 C 65.7025 -2.74979 -0.358056 0
M  V30 763 H 68.6535 -1.56425 0.267736 0
M  V30 764 H 68.6745 -3.36887 -1.76882 0
M  V30 765 H 68.1865 -3.88096 -0.017401 0
M  V30 766 H 66.2875 -2.93553 -2.29471 0
M  V30 767 H 66.4005 -4.58615 -1.38598 0
M  V30 768 H 64.7645 -2.40834 -0.828912 0
M  V30 769 H 65.5475 -3.39315 0.521561 0
M  V30 770 N 67.9926 0.231505 -1.5589 0
M  V30 771 C 68.9026 1.308 -1.94752 0
M  V30 772 C 69.9186 1.51826 -0.849989 0
M  V30 773 O 71.0946 1.6515 -1.15271 0
M  V30 774 C 68.1596 2.63968 -2.24771 0
M  V30 775 C 67.2206 2.51331 -3.48039 0
M  V30 776 C 66.4536 3.78148 -3.76616 0
M  V30 777 O 66.6766 4.80722 -3.07022 0
M  V30 778 O 65.6106 3.75857 -4.70123 0
M  V30 779 H 69.4366 1.0083 -2.86474 0
M  V30 780 H 67.0216 0.433547 -1.42971 0
M  V30 781 H 68.9036 3.42633 -2.45318 0
M  V30 782 H 67.5786 2.9364 -1.36225 0
M  V30 783 H 66.4856 1.709 -3.32782 0
M  V30 784 H 67.8186 2.26601 -4.36936 0
M  V30 785 N 69.4707 1.49531 0.497807 0
M  V30 786 C 70.8867 1.36365 0.829266 0
M  V30 787 C 71.0867 0.399184 1.97506 0
M  V30 788 O 70.1427 -0.167977 2.51941 0
M  V30 789 C 71.4557 2.77153 1.16647 0
M  V30 790 C 73.0037 2.85877 1.27449 0
M  V30 791 C 73.4787 4.2744 1.64497 0
M  V30 792 N 74.9697 4.30265 1.7154 0
M  V30 793 C 75.7047 5.3677 2.01656 0
M  V30 794 N 75.2007 6.53516 2.29976 0
M  V30 795 N 76.9937 5.24189 2.02934 0
M  V30 796 H 69.1447 2.10831 -0.257703 0
M  V30 797 H 71.4077 0.946534 -0.0527091 0
M  V30 798 H 71.1137 3.49442 0.397872 0
M  V30 799 H 70.9877 3.12722 2.10915 0
M  V30 800 H 73.3747 2.13824 2.0338 0
M  V30 801 H 73.4557 2.53887 0.312244 0
M  V30 802 H 73.0997 5.00021 0.891151 0
M  V30 803 H 73.0297 4.56896 2.61827 0
M  V30 804 H 75.5207 3.4607 1.51802 0
M  V30 805 H 75.8337 7.30506 2.52153 0
M  V30 806 H 74.1787 6.56737 2.27425 0
M  V30 807 H 77.3697 4.31988 1.80289 0
M  V30 808 H 77.5427 6.07286 2.26071 0
M  V30 809 N 70.9488 -0.749086 1.3866 0
M  V30 810 C 72.2258 -1.4992 1.25632 0
M  V30 811 C 72.6058 -2.10633 -0.140317 0
M  V30 812 O 71.9538 -1.97437 -1.15025 0
M  V30 813 C 72.1638 -2.56195 2.36992 0
M  V30 814 C 73.5118 -3.22972 2.75634 0
M  V30 815 O 74.5358 -2.66502 2.36337 0
M  V30 816 O 73.3948 -4.25122 3.43415 0
M  V30 817 H 70.4888 -0.665067 0.491544 0
M  V30 818 H 73.0348 -0.784113 1.50498 0
M  V30 819 H 71.8068 -2.09612 3.30422 0
M  V30 820 H 71.4298 -3.35279 2.13714 0
M  V30 821 N 72.4269 -1.23603 -0.977757 0
M  V30 822 C 73.6549 -1.09646 -1.75458 0
M  V30 823 C 74.0699 0.351859 -1.85492 0
M  V30 824 O 73.4269 1.24327 -1.336 0
M  V30 825 C 73.4779 -1.71895 -3.18016 0
M  V30 826 O 73.1989 -3.11063 -3.08498 0
M  V30 827 C 74.6999 -1.63415 -4.12081 0
M  V30 828 H 71.9199 -0.38359 -0.550545 0
M  V30 829 H 74.4639 -1.63507 -1.22824 0
M  V30 830 H 72.6189 -1.22061 -3.67668 0
M  V30 831 H 73.0329 -3.41305 -3.9826 0
M  V30 832 H 74.5069 -2.11669 -5.09804 0
M  V30 833 H 74.9839 -0.593462 -4.35172 0
M  V30 834 H 75.5899 -2.12628 -3.68334 0
M  V30 835 N 73.905 1.17692 -1.04816 0
M  V30 836 C 75.152 1.87859 -0.75599 0
M  V30 837 C 75.48 1.80812 0.716752 0
M  V30 838 O 74.735 1.20819 1.53952 0
M  V30 839 C 75.034 3.37462 -1.17703 0
M  V30 840 C 74.7 3.64713 -2.65133 0
M  V30 841 C 73.362 3.71859 -3.05408 0
M  V30 842 C 75.714 3.76492 -3.60421 0
M  V30 843 C 73.042 3.88271 -4.39843 0
M  V30 844 C 75.394 3.94421 -4.94585 0
M  V30 845 C 74.058 3.99806 -5.3452 0
M  V30 846 H 73.328 0.687425 -0.276636 0
M  V30 847 H 75.975 1.39255 -1.31455 0
M  V30 848 H 74.28 3.88097 -0.537395 0
M  V30 849 H 75.977 3.90109 -0.928218 0
M  V30 850 H 72.567 3.59772 -2.32942 0
M  V30 851 H 76.751 3.70295 -3.30447 0
M  V30 852 H 72.007 3.90687 -4.70291 0
M  V30 853 H 76.181 4.02477 -5.68318 0
M  V30 854 H 73.808 4.12276 -6.38696 0
M  V30 855 N 75.3831 0.828654 1.34056 0
M  V30 856 C 76.6111 0.43262 2.02326 0
M  V30 857 C 77.0261 -0.963147 1.62385 0
M  V30 858 O 76.3831 -1.62425 0.832121 0
M  V30 859 C 76.4341 0.53182 3.57567 0
M  V30 860 O 76.1551 1.87258 3.96063 0
M  V30 861 C 77.6561 0.131422 4.43105 0
M  V30 862 H 74.8761 0.172923 0.648335 0
M  V30 863 H 77.4201 1.1184 1.71208 0
M  V30 864 H 75.5751 -0.105938 3.87255 0
M  V30 865 H 75.9891 1.85087 4.90758 0
M  V30 866 H 77.4631 0.251904 5.51425 0
M  V30 867 H 77.9401 -0.925645 4.29335 0
M  V30 868 H 78.5461 0.743207 4.18756 0
M  V30 869 N 76.8612 -1.46375 0.584142 0
M  V30 870 C 77.8092 -2.32042 -0.161047 0
M  V30 871 C 78.8032 -1.44569 -0.882966 0
M  V30 872 O 80.0092 -1.61186 -0.801191 0
M  V30 873 H 76.3842 -0.748659 -0.0708033 0
M  V30 874 H 78.3552 -2.92704 0.580269 0
M  V30 875 C 77.1042 -3.27762 -1.1605 0
M  V30 876 H 76.4272 -3.95051 -0.614419 0
M  V30 877 H 77.8672 -3.90481 -1.65228 0
M  V30 878 C 76.3262 -2.53218 -2.22221 0
M  V30 879 O 76.8562 -2.29628 -3.29597 0
M  V30 880 N 75.0622 -2.13756 -1.96868 0
M  V30 881 H 74.6092 -2.33142 -1.09557 0
M  V30 882 H 74.5672 -1.642 -2.68115 0
M  V30 883 N 78.3393 -0.321999 -1.54275 0
M  V30 884 C 79.7503 0.166384 -1.85957 0
M  V30 885 C 80.1013 1.51747 -1.24367 0
M  V30 886 O 79.2263 2.09317 -0.549124 0
M  V30 887 C 79.8213 0.308681 -3.37391 0
M  V30 888 C 78.3803 0.741286 -3.69028 0
M  V30 889 C 77.5273 -0.137937 -2.76957 0
M  V30 890 H 80.4783 -0.542335 -1.49146 0
M  V30 891 H 80.4993 1.13984 -3.63026 0
M  V30 892 H 80.0113 -0.674809 -3.82188 0
M  V30 893 H 78.1123 1.73458 -3.29762 0
M  V30 894 H 78.2253 0.546118 -4.75977 0
M  V30 895 H 76.5893 0.386251 -2.51754 0
M  V30 896 H 77.3723 -1.11816 -3.2458 0
M  V30 897 N 79.8174 1.5752 -0.0501392 0
M  V30 898 C 80.7274 2.14952 0.939827 0
M  V30 899 C 81.7434 1.10706 1.34239 0
M  V30 900 O 82.9194 1.42869 1.41952 0
M  V30 901 C 79.9844 2.68232 2.19665 0
M  V30 902 C 79.0454 3.87272 1.85253 0
M  V30 903 C 78.2784 4.38002 3.04943 0
M  V30 904 O 78.5014 3.87811 4.18281 0
M  V30 905 O 77.4354 5.29602 2.86017 0
M  V30 906 H 81.2614 2.9986 0.481392 0
M  V30 907 H 78.8464 1.4841 0.171699 0
M  V30 908 H 80.7284 3.02475 2.93406 0
M  V30 909 H 79.4034 1.86395 2.64648 0
M  V30 910 H 78.3104 3.5792 1.0883 0
M  V30 911 H 79.6434 4.70336 1.4507 0
M  V30 912 N 81.2955 -0.223234 1.56011 0
M  V30 913 C 82.2055 -1.29766 1.95443 0
M  V30 914 C 83.2215 -1.51373 0.858028 0
M  V30 915 O 84.3975 -1.64536 1.16146 0
M  V30 916 C 81.4625 -2.62772 2.26167 0
M  V30 917 C 80.5235 -2.49482 3.49367 0
M  V30 918 C 79.7565 -3.76145 3.78616 0
M  V30 919 O 79.9795 -4.79087 3.09568 0
M  V30 920 O 78.9135 -3.73358 4.72109 0
M  V30 921 H 82.7395 -0.99309 2.87004 0
M  V30 922 H 80.3245 -0.425958 1.43199 0
M  V30 923 H 82.2065 -3.41327 2.47131 0
M  V30 924 H 80.8815 -2.92913 1.37781 0
M  V30 925 H 79.7885 -1.69133 3.33684 0
M  V30 926 H 81.1215 -2.2428 4.38131 0
M  V30 927 N 82.7736 -1.49793 -0.48987 0
M  V30 928 C 84.0216 -1.59525 -1.24081 0
M  V30 929 C 84.3426 -0.288953 -1.92847 0
M  V30 930 O 83.6126 0.692436 -1.83254 0
M  V30 931 H 82.1926 -0.587796 -0.460983 0
M  V30 932 H 84.8546 -1.86477 -0.566778 0
M  V30 933 H 83.9506 -2.39696 -1.99881 0
M  V30 934 N 84.2517 0.741722 -1.39055 0
M  V30 935 C 85.5287 1.49252 -1.26425 0
M  V30 936 C 85.9087 2.10705 0.129144 0
M  V30 937 O 85.2567 1.98045 1.13976 0
M  V30 938 C 85.4667 2.54934 -2.38347 0
M  V30 939 C 86.8147 3.21506 -2.77343 0
M  V30 940 O 87.8387 2.65245 -2.37747 0
M  V30 941 O 86.6977 4.23294 -3.45665 0
M  V30 942 H 83.7917 0.662451 -0.495064 0
M  V30 943 H 86.3377 0.776121 -1.50912 0
M  V30 944 H 85.1097 2.07857 -3.31529 0
M  V30 945 H 84.7327 3.34141 -2.15489 0
M  V30 946 N 85.7298 1.2412 0.971189 0
M  V30 947 C 86.6598 1.05508 2.08304 0
M  V30 948 C 87.6408 -0.0308864 1.70072 0
M  V30 949 O 88.8258 0.135521 1.93727 0
M  V30 950 C 85.9558 0.655365 3.4106 0
M  V30 951 C 84.9098 1.68971 3.93234 0
M  V30 952 C 84.2358 1.14516 5.22293 0
M  V30 953 C 85.5358 3.08487 4.21465 0
M  V30 954 H 87.2298 1.98507 2.24132 0
M  V30 955 H 84.7758 0.955821 1.07704 0
M  V30 956 H 86.7288 0.51217 4.18276 0
M  V30 957 H 85.4528 -0.31032 3.25122 0
M  V30 958 H 84.1118 1.82106 3.18171 0
M  V30 959 H 83.7598 0.170189 5.02712 0
M  V30 960 H 83.4598 1.83635 5.58168 0
M  V30 961 H 84.9838 1.01401 6.02121 0
M  V30 962 H 86.3978 2.98601 4.89398 0
M  V30 963 H 84.7948 3.74926 4.68562 0
M  V30 964 H 85.8648 3.56787 3.28376 0
M  V30 965 N 87.2079 -1.17134 1.05439 0
M  V30 966 C 88.1559 -2.23289 0.651511 0
M  V30 967 C 89.1499 -1.66186 -0.328411 0
M  V30 968 O 90.3559 -1.78949 -0.194206 0
M  V30 969 H 86.7309 -0.726938 0.192523 0
M  V30 970 H 88.7019 -2.54565 1.55689 0
M  V30 971 C 87.4509 -3.47671 0.0448436 0
M  V30 972 H 86.7739 -3.91918 0.78996 0
M  V30 973 H 88.2139 -4.2353 -0.19964 0
M  V30 974 C 86.6729 -3.14453 -1.20918 0
M  V30 975 O 87.2029 -3.29459 -2.29825 0
M  V30 976 N 85.4089 -2.68657 -1.10779 0
M  V30 977 H 84.9559 -2.56646 -0.221526 0
M  V30 978 H 84.9139 -2.46804 -1.9477 0
M  V30 979 N 88.686 -0.835752 -1.33615 0
M  V30 980 C 90.097 -0.487099 -1.80234 0
M  V30 981 C 90.448 0.993627 -1.69179 0
M  V30 982 O 89.573 1.77403 -1.23924 0
M  V30 983 C 90.168 -0.877385 -3.27242 0
M  V30 984 C 88.727 -0.580915 -3.7189 0
M  V30 985 C 87.874 -1.0874 -2.5509 0
M  V30 986 H 90.825 -1.02474 -1.2118 0
M  V30 987 H 90.846 -0.186195 -3.80044 0
M  V30 988 H 90.358 -1.95512 -3.35256 0
M  V30 989 H 88.459 0.486881 -3.69405 0
M  V30 990 H 88.572 -1.13396 -4.65487 0
M  V30 991 H 86.936 -0.508392 -2.49575 0
M  V30 992 H 87.719 -2.17184 -2.65868 0
M  V30 993 N 90.1641 1.46063 -0.591896 0
M  V30 994 C 91.5751 1.85944 -0.167822 0
M  V30 995 C 91.9261 1.49429 1.27143 0
M  V30 996 O 91.0511 0.913515 1.96173 0
M  V30 997 C 91.6461 3.37489 -0.297794 0
M  V30 998 C 90.2051 3.76332 0.0714732 0
M  V30 999 C 89.3521 2.7006 -0.629509 0
M  V30 1000 H 92.3031 1.37087 -0.799555 0
M  V30 1001 H 92.3241 3.77532 0.474349 0
M  V30 1002 H 91.8361 3.64034 -1.3454 0
M  V30 1003 H 89.9371 3.55405 1.11886 0
M  V30 1004 H 90.0501 4.78088 -0.311245 0
M  V30 1005 H 88.4141 2.54607 -0.0687867 0
M  V30 1006 H 89.1971 2.99444 -1.67894 0
M  V30 1007 N 91.6422 0.330177 1.54103 0
M  V30 1008 C 93.0532 -0.15652 1.86043 0
M  V30 1009 C 93.4042 -1.51086 1.2517 0
M  V30 1010 O 92.5292 -2.09023 0.560217 0
M  V30 1011 C 93.1242 -0.290784 3.3755 0
M  V30 1012 C 91.6832 -0.721705 3.69416 0
M  V30 1013 C 90.8302 0.152622 2.7688 0
M  V30 1014 H 93.7812 0.550237 1.48856 0
M  V30 1015 H 93.8022 -1.12058 3.63625 0
M  V30 1016 H 93.3142 0.695068 3.81825 0
M  V30 1017 H 91.4152 -1.71706 3.30678 0
M  V30 1018 H 91.5282 -0.520869 4.7626 0
M  V30 1019 H 89.8922 -0.372894 2.51956 0
M  V30 1020 H 90.6752 1.13536 3.23982 0
M  V30 1021 N 93.1203 -1.57491 0.0584922 0
M  V30 1022 C 94.0303 -2.15448 -0.928414 0
M  V30 1023 C 95.0463 -1.11416 -1.3365 0
M  V30 1024 O 96.2223 -1.4362 -1.41193 0
M  V30 1025 C 93.2873 -2.69393 -2.18239 0
M  V30 1026 C 92.3483 -3.88249 -1.83196 0
M  V30 1027 C 91.5813 -4.39613 -3.02616 0
M  V30 1028 O 91.8043 -3.90023 -4.16219 0
M  V30 1029 O 90.7383 -5.31111 -2.83204 0
M  V30 1030 H 94.5643 -3.00112 -0.465483 0
M  V30 1031 H 92.1493 -1.48499 -0.163826 0
M  V30 1032 H 94.0313 -3.04026 -2.91798 0
M  V30 1033 H 92.7063 -1.87796 -2.63656 0
M  V30 1034 H 91.6133 -3.58492 -1.06931 0
M  V30 1035 H 92.9463 -4.71098 -1.42573 0
M  V30 1036 N 94.5984 0.214957 -1.56127 0
M  V30 1037 C 95.5614 1.24997 -1.92116 0
M  V30 1038 C 96.5614 1.39467 -0.800344 0
M  V30 1039 O 97.7514 1.37619 -1.06802 0
M  V30 1040 C 94.8834 2.62271 -2.17777 0
M  V30 1041 H 96.0764 0.942875 -2.84693 0
M  V30 1042 H 93.6294 0.455654 -1.49511 0
M  V30 1043 H 94.3644 2.98068 -1.27773 0
M  V30 1044 H 94.1494 2.53143 -2.99434 0
M  V30 1045 H 95.6394 3.36946 -2.46693 0
M  V30 1046 N 96.0765 1.50051 0.48192 0
M  V30 1047 C 97.0235 1.68122 1.58125 0
M  V30 1048 C 97.9935 0.522545 1.57666 0
M  V30 1049 O 99.1785 0.751844 1.75362 0
M  V30 1050 C 96.3185 1.77142 2.96167 0
M  V30 1051 C 95.4315 3.0444 3.06497 0
M  V30 1052 C 94.5665 3.04321 4.35387 0
M  V30 1053 C 93.6055 4.26118 4.3942 0
M  V30 1054 N 92.7425 4.238 5.59766 0
M  V30 1055 H 97.5825 2.6198 1.42022 0
M  V30 1056 H 95.1195 1.29877 0.690687 0
M  V30 1057 H 97.0775 1.80352 3.76203 0
M  V30 1058 H 95.7075 0.867329 3.1093 0
M  V30 1059 H 94.7595 3.10752 2.19402 0
M  V30 1060 H 96.0715 3.94426 3.05336 0
M  V30 1061 H 95.2255 3.062 5.23762 0
M  V30 1062 H 93.9645 2.12147 4.39141 0
M  V30 1063 H 92.9695 4.24463 3.49444 0
M  V30 1064 H 94.1945 5.19507 4.37366 0
M  V30 1065 H 92.1405 3.34474 5.64326 0
M  V30 1066 H 92.0575 5.07542 5.60301 0
M  V30 1067 H 93.3255 4.2981 6.50295 0
M  V30 1068 N 97.5546 -0.734337 1.39446 0
M  V30 1069 C 98.4866 -1.85861 1.34121 0
M  V30 1070 C 99.4996 -1.60871 0.249864 0
M  V30 1071 O 100.689 -1.71093 0.508865 0
M  V30 1072 C 97.7886 -3.21899 1.05991 0
M  V30 1073 C 96.9616 -3.74239 2.26415 0
M  V30 1074 C 96.0206 -4.88841 1.94733 0
M  V30 1075 O 95.0466 -5.02468 2.67422 0
M  V30 1076 N 96.2486 -5.73261 0.913884 0
M  V30 1077 H 99.0136 -1.90934 2.31007 0
M  V30 1078 H 96.5746 -0.915102 1.33557 0
M  V30 1079 H 98.5666 -3.96136 0.828147 0
M  V30 1080 H 97.1366 -3.12091 0.178361 0
M  V30 1081 H 96.3566 -2.91347 2.65539 0
M  V30 1082 H 97.6446 -4.05942 3.06738 0
M  V30 1083 H 97.0426 -5.64842 0.311476 0
M  V30 1084 H 95.5996 -6.47563 0.742015 0
M  V30 1085 N 99.0327 -1.24633 -0.964593 0
M  V30 1086 C 100.279 -1.08949 -1.71049 0
M  V30 1087 C 100.612 0.370302 -1.90637 0
M  V30 1088 O 99.8867 1.27349 -1.47011 0
M  V30 1089 C 100.17 -1.83329 -3.0994 0
M  V30 1090 C 100.023 -3.37077 -2.97824 0
M  V30 1091 C 101.342 -1.60846 -4.09654 0
M  V30 1092 H 98.4607 -0.397178 -0.620821 0
M  V30 1093 H 101.103 -1.5334 -1.12191 0
M  V30 1094 H 99.2527 -1.45597 -3.60186 0
M  V30 1095 H 100.925 -3.84425 -2.5498 0
M  V30 1096 H 99.1677 -3.65298 -2.33965 0
M  V30 1097 H 99.8387 -3.84324 -3.96231 0
M  V30 1098 H 102.315 -1.93674 -3.68279 0
M  V30 1099 H 101.191 -2.1534 -5.04896 0
M  V30 1100 H 101.452 -0.547434 -4.38698 0
M  V30 1101 N 100.511 1.16574 -1.06058 0
M  V30 1102 C 101.922 1.68662 -0.800632 0
M  V30 1103 C 102.273 1.84184 0.67608 0
M  V30 1104 O 101.398 1.53568 1.52466 0
M  V30 1105 C 101.993 3.06356 -1.44676 0
M  V30 1106 C 100.552 3.55575 -1.23465 0
M  V30 1107 C 99.6988 2.31616 -1.52477 0
M  V30 1108 H 102.65 1.00969 -1.22438 0
M  V30 1109 H 102.671 3.70636 -0.860788 0
M  V30 1110 H 102.183 2.95027 -2.52152 0
M  V30 1111 H 100.284 3.72167 -0.179527 0
M  V30 1112 H 100.397 4.37812 -1.94571 0
M  V30 1113 H 98.7608 2.36512 -0.945209 0
M  V30 1114 H 99.5438 2.22887 -2.61106 0
M  V30 1115 N 101.989 0.842826 1.3317 0
M  V30 1116 C 103.235 0.441099 1.97945 0
M  V30 1117 C 103.568 -0.998024 1.66593 0
M  V30 1118 O 102.843 -1.69839 0.947898 0
M  V30 1119 C 103.126 0.666841 3.53872 0
M  V30 1120 C 102.979 2.15352 3.94897 0
M  V30 1121 C 104.298 0.115544 4.39948 0
M  V30 1122 H 101.417 0.161739 0.719034 0
M  V30 1123 H 104.059 1.05907 1.57746 0
M  V30 1124 H 102.209 0.140828 3.88245 0
M  V30 1125 H 103.881 2.7447 3.70761 0
M  V30 1126 H 102.124 2.63653 3.44484 0
M  V30 1127 H 102.795 2.26221 5.03516 0
M  V30 1128 H 105.271 0.565213 4.12243 0
M  V30 1129 H 104.147 0.303152 5.48062 0
M  V30 1130 H 104.408 -0.980935 4.3108 0
M  V30 1131 N 103.467 -1.45747 0.599634 0
M  V30 1132 C 104.692 -2.07178 0.0960198 0
M  V30 1133 C 105.117 -1.44268 -1.207 0
M  V30 1134 O 104.475 -0.532503 -1.73303 0
M  V30 1135 C 104.523 -3.60579 -0.0385348 0
M  V30 1136 O 103.627 -3.97713 -1.0908 0
M  V30 1137 H 102.968 -0.660251 0.0704593 0
M  V30 1138 H 105.498 -1.87124 0.827385 0
M  V30 1139 H 105.508 -4.07298 -0.239304 0
M  V30 1140 H 104.183 -4.05756 0.912947 0
M  V30 1141 H 102.76 -3.62678 -0.867135 0
M  V30 1142 N 104.945 -0.338344 -1.53925 0
M  V30 1143 C 106.175 0.260919 -2.04946 0
M  V30 1144 C 106.583 1.45174 -1.2133 0
M  V30 1145 O 105.926 1.82122 -0.240262 0
M  V30 1146 C 105.988 0.744596 -3.51704 0
M  V30 1147 C 105.652 -0.325883 -4.55837 0
M  V30 1148 C 106.649 -1.16687 -5.06636 0
M  V30 1149 C 104.334 -0.478317 -5.00017 0
M  V30 1150 C 106.328 -2.14588 -6.00192 0
M  V30 1151 C 104.015 -1.46073 -5.93385 0
M  V30 1152 C 105.013 -2.29297 -6.4336 0
M  V30 1153 O 104.701 -3.25867 -7.34892 0
M  V30 1154 H 104.433 0.0551207 -0.673749 0
M  V30 1155 H 106.987 -0.486984 -1.99544 0
M  V30 1156 H 105.217 1.54366 -3.54553 0
M  V30 1157 H 106.906 1.26383 -3.85723 0
M  V30 1158 H 107.672 -1.06016 -4.73271 0
M  V30 1159 H 103.551 0.159613 -4.60724 0
M  V30 1160 H 107.095 -2.79585 -6.39123 0
M  V30 1161 H 102.992 -1.56802 -6.26166 0
M  V30 1162 H 103.76 -3.21278 -7.5281 0
M  V30 1163 N 106.423 1.57458 -0.0668435 0
M  V30 1164 C 107.653 1.97337 0.611677 0
M  V30 1165 C 108.061 0.943744 1.63982 0
M  V30 1166 O 107.404 -0.0785584 1.83532 0
M  V30 1167 C 107.466 3.33511 1.34205 0
M  V30 1168 C 107.13 4.54598 0.467941 0
M  V30 1169 C 108.127 5.19186 -0.272439 0
M  V30 1170 C 105.812 5.0075 0.39427 0
M  V30 1171 C 107.806 6.28274 -1.07476 0
M  V30 1172 C 105.493 6.09711 -0.411729 0
M  V30 1173 C 106.491 6.73335 -1.14492 0
M  V30 1174 O 106.179 7.80199 -1.93763 0
M  V30 1175 H 105.911 0.654042 0.170893 0
M  V30 1176 H 108.465 2.04961 -0.134289 0
M  V30 1177 H 106.695 3.22487 2.13398 0
M  V30 1178 H 108.384 3.58029 1.91233 0
M  V30 1179 H 109.15 4.84477 -0.225086 0
M  V30 1180 H 105.029 4.51009 0.954569 0
M  V30 1181 H 108.573 6.77866 -1.64755 0
M  V30 1182 H 104.47 6.43854 -0.460664 0
M  V30 1183 H 105.238 7.97053 -1.86142 0
M  V30 1184 N 107.901 -0.206675 1.56239 0
M  V30 1185 C 109.178 -0.954051 1.70755 0
M  V30 1186 C 109.558 -2.01841 0.618353 0
M  V30 1187 O 108.906 -2.25444 -0.372434 0
M  V30 1188 C 109.116 -1.551 3.12642 0
M  V30 1189 C 110.464 -2.03757 3.72516 0
M  V30 1190 O 111.488 -1.64965 3.15698 0
M  V30 1191 O 110.347 -2.75103 4.72208 0
M  V30 1192 H 107.441 -0.446636 0.696021 0
M  V30 1193 H 109.987 -0.197283 1.68549 0
M  V30 1194 H 108.759 -0.783212 3.83382 0
M  V30 1195 H 108.382 -2.37291 3.19028 0
M  V30 1196 N 109.379 -1.50304 -0.473955 0
M  V30 1197 C 110.604 -1.65175 -1.25427 0
M  V30 1198 C 111.029 -0.333673 -1.85117 0
M  V30 1199 O 110.387 0.702114 -1.67153 0
M  V30 1200 C 110.435 -2.74295 -2.34082 0
M  V30 1201 O 109.539 -2.35349 -3.38651 0
M  V30 1202 H 108.88 -0.551944 -0.369126 0
M  V30 1203 H 111.41 -1.96662 -0.564364 0
M  V30 1204 H 111.42 -2.97285 -2.79438 0
M  V30 1205 H 110.095 -3.69959 -1.90008 0
M  V30 1206 H 108.672 -2.22794 -2.99027 0
M  V30 1207 N 110.857 0.726932 -1.39834 0
M  V30 1208 C 112.085 1.51613 -1.40787 0
M  V30 1209 C 112.5 1.88799 -0.00451505 0
M  V30 1210 O 111.857 1.54662 0.968809 0
M  V30 1211 C 111.908 2.79863 -2.28821 0
M  V30 1212 O 111.629 2.44253 -3.63692 0
M  V30 1213 C 113.13 3.73837 -2.38245 0
M  V30 1214 H 110.35 0.468264 -0.480593 0
M  V30 1215 H 112.894 0.897607 -1.83748 0
M  V30 1216 H 111.049 3.38027 -1.89252 0
M  V30 1217 H 111.463 3.26695 -4.1033 0
M  V30 1218 H 112.937 4.60699 -3.04073 0
M  V30 1219 H 113.414 4.16153 -1.40403 0
M  V30 1220 H 114.02 3.21589 -2.78317 0
M  V30 1221 N 112.336 1.25143 0.95797 0
M  V30 1222 C 113.566 1.12261 1.73439 0
M  V30 1223 C 113.974 -0.326715 1.86358 0
M  V30 1224 O 113.317 -1.2367 1.35836 0
M  V30 1225 C 113.379 1.69966 3.16784 0
M  V30 1226 C 113.043 3.18936 3.27305 0
M  V30 1227 C 114.04 4.15968 3.11877 0
M  V30 1228 C 111.725 3.59083 3.51234 0
M  V30 1229 C 113.719 5.51126 3.20217 0
M  V30 1230 C 111.406 4.9438 3.5921 0
M  V30 1231 C 112.404 5.90211 3.43716 0
M  V30 1232 O 112.092 7.23046 3.51368 0
M  V30 1233 H 111.824 0.392476 0.550399 0
M  V30 1234 H 114.378 1.65927 1.21068 0
M  V30 1235 H 112.608 1.10744 3.70503 0
M  V30 1236 H 114.297 1.52232 3.76272 0
M  V30 1237 H 115.063 3.86292 2.93264 0
M  V30 1238 H 110.942 2.84989 3.62356 0
M  V30 1239 H 114.486 6.25905 3.0804 0
M  V30 1240 H 110.383 5.23723 3.77339 0
M  V30 1241 H 111.151 7.31097 3.6802 0
M  V30 1242 N 113.814 -1.1601 1.06675 0
M  V30 1243 C 114.744 -2.22688 0.702307 0
M  V30 1244 C 115.725 -1.67306 -0.307032 0
M  V30 1245 O 116.91 -1.93352 -0.181305 0
M  V30 1246 C 114.04 -3.47178 0.092038 0
M  V30 1247 C 112.994 -4.15477 1.02777 0
M  V30 1248 C 112.32 -5.33963 0.28061 0
M  V30 1249 C 113.62 -4.66019 2.35846 0
M  V30 1250 H 115.314 -2.53429 1.59419 0
M  V30 1251 H 112.86 -1.21813 0.767961 0
M  V30 1252 H 114.813 -4.21037 -0.174814 0
M  V30 1253 H 113.537 -3.15749 -0.834877 0
M  V30 1254 H 112.196 -3.43549 1.27944 0
M  V30 1255 H 111.844 -4.98788 -0.649545 0
M  V30 1256 H 111.544 -5.806 0.904258 0
M  V30 1257 H 113.068 -6.10596 0.021396 0
M  V30 1258 H 114.482 -5.3144 2.15045 0
M  V30 1259 H 112.879 -5.23293 2.93743 0
M  V30 1260 H 113.949 -3.82023 2.98641 0
M  V30 1261 N 115.292 -0.849877 -1.32721 0
M  V30 1262 C 116.517 -0.463856 -2.02146 0
M  V30 1263 C 116.942 0.930449 -1.63476 0
M  V30 1264 O 116.3 1.61033 -0.832952 0
M  V30 1265 C 116.348 -0.604955 -3.55489 0
M  V30 1266 O 115.452 0.36425 -4.10788 0
M  V30 1267 H 114.793 -0.187046 -0.637111 0
M  V30 1268 H 117.323 -1.14775 -1.69375 0
M  V30 1269 H 117.333 -0.490696 -4.05038 0
M  V30 1270 H 116.008 -1.62174 -3.82978 0
M  V30 1271 H 114.585 0.206628 -3.72327 0
M  V30 1272 N 116.77 1.45427 -0.607355 0
M  V30 1273 C 117.998 2.06614 -0.108814 0
M  V30 1274 C 118.413 1.45204 1.2067 0
M  V30 1275 O 117.77 0.566132 1.73497 0
M  V30 1276 C 117.821 3.61481 0.0375347 0
M  V30 1277 O 117.542 4.20598 -1.22593 0
M  V30 1278 C 119.043 4.39652 0.567561 0
M  V30 1279 H 116.263 0.66747 -0.0687351 0
M  V30 1280 H 118.807 1.86675 -0.835022 0
M  V30 1281 H 116.962 3.80762 0.714068 0
M  V30 1282 H 117.376 5.1377 -1.05547 0
M  V30 1283 H 118.85 5.48518 0.61905 0
M  V30 1284 H 119.327 4.09417 1.58978 0
M  V30 1285 H 119.933 4.25234 -0.0749202 0
M  V30 1286 N 118.248 0.346503 1.53744 0
M  V30 1287 C 119.525 -0.304532 1.93215 0
M  V30 1288 C 119.905 -1.67993 1.27834 0
M  V30 1289 O 119.253 -2.24411 0.430352 0
M  V30 1290 C 119.463 -0.373852 3.46992 0
M  V30 1291 C 120.811 -0.62329 4.2 0
M  V30 1292 O 121.835 -0.455847 3.53271 0
M  V30 1293 O 120.694 -0.947879 5.38217 0
M  V30 1294 H 117.788 -0.178318 0.807547 0
M  V30 1295 H 120.334 0.397895 1.64969 0
M  V30 1296 H 119.106 0.591224 3.86808 0
M  V30 1297 H 118.729 -1.12294 3.81413 0
M  V30 1298 N 119.726 -1.57421 0.075193 0
M  V30 1299 C 120.674 -2.14124 -0.908508 0
M  V30 1300 C 121.668 -1.07898 -1.30592 0
M  V30 1301 O 122.874 -1.26273 -1.28277 0
M  V30 1302 H 119.249 -0.684707 -0.310935 0
M  V30 1303 H 121.22 -2.95634 -0.405374 0
M  V30 1304 C 119.969 -2.72044 -2.16535 0
M  V30 1305 H 119.292 -3.53456 -1.86839 0
M  V30 1306 H 120.732 -3.15311 -2.83469 0
M  V30 1307 C 119.191 -1.66968 -2.92615 0
M  V30 1308 O 119.721 -1.0967 -3.86439 0
M  V30 1309 N 117.927 -1.37923 -2.55784 0
M  V30 1310 H 117.474 -1.84706 -1.79559 0
M  V30 1311 H 117.432 -0.67852 -3.06991 0
M  V30 1312 N 121.204 0.198386 -1.56346 0
M  V30 1313 C 122.114 1.2664 -1.97483 0
M  V30 1314 C 123.13 1.49989 -0.882002 0
M  V30 1315 O 124.306 1.62668 -1.18748 0
M  V30 1316 C 121.371 2.59141 -2.30319 0
M  V30 1317 C 120.432 2.43892 -3.53292 0
M  V30 1318 C 119.665 3.70074 -3.84553 0
M  V30 1319 O 119.888 4.74101 -3.1715 0
M  V30 1320 O 118.822 3.658 -4.7799 0
M  V30 1321 H 122.648 0.947304 -2.88548 0
M  V30 1322 H 120.233 0.403123 -1.43859 0
M  V30 1323 H 122.115 3.37352 -2.5253 0
M  V30 1324 H 120.79 2.90684 -1.42423 0
M  V30 1325 H 119.697 1.63803 -3.36332 0
M  V30 1326 H 121.03 2.17282 -4.41644 0
M  V30 1327 N 122.682 1.50554 0.465978 0
M  V30 1328 C 123.629 1.6979 1.56333 0
M  V30 1329 C 124.599 0.539239 1.57103 0
M  V30 1330 O 125.784 0.770401 1.74555 0
M  V30 1331 C 122.924 1.80273 2.94271 0
M  V30 1332 C 122.037 3.07674 3.0325 0
M  V30 1333 C 121.172 3.08922 4.32135 0
M  V30 1334 C 120.211 4.30755 4.34875 0
M  V30 1335 N 119.348 4.29714 5.55239 0
M  V30 1336 H 124.188 2.63472 1.39235 0
M  V30 1337 H 121.725 1.30602 0.676873 0
M  V30 1338 H 123.683 1.84332 3.74269 0
M  V30 1339 H 122.313 0.900258 3.09992 0
M  V30 1340 H 121.365 3.13062 2.16094 0
M  V30 1341 H 122.677 3.97642 3.01135 0
M  V30 1342 H 121.831 3.11738 5.20485 0
M  V30 1343 H 120.57 2.16792 4.36866 0
M  V30 1344 H 119.575 4.28146 3.44922 0
M  V30 1345 H 120.8 5.24117 4.31831 0
M  V30 1346 H 118.746 3.4044 5.60746 0
M  V30 1347 H 118.663 5.13456 5.54886 0
M  V30 1348 H 119.931 4.36683 6.457 0
M  V30 1349 N 124.16 -0.719506 1.40217 0
M  V30 1350 C 125.437 -1.47221 1.28784 0
M  V30 1351 C 125.817 -2.10883 -0.0956067 0
M  V30 1352 O 125.165 -1.99833 -1.10811 0
M  V30 1353 C 125.375 -2.5111 2.42373 0
M  V30 1354 C 126.723 -3.17053 2.82423 0
M  V30 1355 O 127.747 -2.61429 2.41937 0
M  V30 1356 O 126.606 -4.17742 3.52355 0
M  V30 1357 H 123.7 -0.654491 0.50554 0
M  V30 1358 H 126.246 -0.752014 1.52128 0
M  V30 1359 H 125.018 -2.02556 3.34793 0
M  V30 1360 H 124.641 -3.3067 2.20778 0
M  V30 1361 N 125.638 -1.25649 -0.95132 0
M  V30 1362 C 126.586 -1.06118 -2.06982 0
M  V30 1363 C 127.58 0.00889169 -1.69398 0
M  V30 1364 O 128.786 -0.146988 -1.79399 0
M  V30 1365 H 125.161 -0.326248 -0.677544 0
M  V30 1366 H 127.132 -2.00932 -2.2061 0
M  V30 1367 C 125.881 -0.700145 -3.40578 0
M  V30 1368 H 125.204 -1.51537 -3.69968 0
M  V30 1369 H 126.644 -0.603211 -4.19687 0
M  V30 1370 C 125.103 0.59403 -3.31622 0
M  V30 1371 O 125.633 1.63522 -3.66911 0
M  V30 1372 N 123.839 0.58089 -2.84735 0
M  V30 1373 H 123.386 -0.266783 -2.56215 0
M  V30 1374 H 123.344 1.44695 -2.79125 0
M  V30 1375 N 127.117 1.15442 -1.07289 0
M  V30 1376 C 128.347 1.89821 -0.815576 0
M  V30 1377 C 128.755 1.7823 0.634867 0
M  V30 1378 O 128.098 1.13152 1.44715 0
M  V30 1379 C 128.16 3.40817 -1.14385 0
M  V30 1380 C 127.824 3.76193 -2.59476 0
M  V30 1381 C 128.821 3.77269 -3.57721 0
M  V30 1382 C 126.506 4.0652 -2.95037 0
M  V30 1383 C 128.5 4.08176 -4.89562 0
M  V30 1384 C 126.187 4.37092 -4.27076 0
M  V30 1385 C 127.185 4.37902 -5.24148 0
M  V30 1386 O 126.873 4.67741 -6.53815 0
M  V30 1387 H 126.605 0.608465 -0.294528 0
M  V30 1388 H 129.159 1.472 -1.43252 0
M  V30 1389 H 127.389 3.83835 -0.469865 0
M  V30 1390 H 129.078 3.96485 -0.869179 0
M  V30 1391 H 129.844 3.5394 -3.3159 0
M  V30 1392 H 125.723 4.05049 -2.20128 0
M  V30 1393 H 129.267 4.08723 -5.65324 0
M  V30 1394 H 125.164 4.59889 -4.5296 0
M  V30 1395 H 125.932 4.85509 -6.58957 0
M  V30 1396 N 128.595 0.856903 1.32268 0
M  V30 1397 C 129.525 0.31858 2.31316 0
M  V30 1398 C 130.506 -0.583487 1.59779 0
M  V30 1399 O 131.691 -0.503259 1.87566 0
M  V30 1400 C 128.821 -0.491979 3.43798 0
M  V30 1401 C 127.775 0.315849 4.26833 0
M  V30 1402 C 127.101 -0.619586 5.31098 0
M  V30 1403 C 128.401 1.54282 4.98993 0
M  V30 1404 H 130.095 1.14621 2.76591 0
M  V30 1405 H 127.641 0.552613 1.32974 0
M  V30 1406 H 129.594 -0.879012 4.1213 0
M  V30 1407 H 128.318 -1.35299 2.97257 0
M  V30 1408 H 126.977 0.684664 3.6015 0
M  V30 1409 H 126.625 -1.47751 4.8081 0
M  V30 1410 H 126.325 -0.0830621 5.87541 0
M  V30 1411 H 127.849 -1.00375 6.02293 0
M  V30 1412 H 129.263 1.22796 5.59995 0
M  V30 1413 H 127.66 2.01745 5.65172 0
M  V30 1414 H 128.73 2.30285 4.26728 0
M  V30 1415 N 130.073 -1.45103 0.615059 0
M  V30 1416 C 131.02 -2.30586 -0.0993978 0
M  V30 1417 C 131.99 -1.42544 -0.852669 0
M  V30 1418 O 133.175 -1.71465 -0.836917 0
M  V30 1419 C 130.315 -3.27572 -1.08583 0
M  V30 1420 C 129.428 -4.30717 -0.332656 0
M  V30 1421 C 128.563 -5.14807 -1.30947 0
M  V30 1422 C 127.602 -6.09673 -0.544538 0
M  V30 1423 N 126.739 -6.86517 -1.47101 0
M  V30 1424 H 131.579 -2.91144 0.635542 0
M  V30 1425 H 129.116 -1.4346 0.325206 0
M  V30 1426 H 131.074 -3.82276 -1.67095 0
M  V30 1427 H 129.704 -2.68751 -1.78809 0
M  V30 1428 H 128.756 -3.78615 0.368107 0
M  V30 1429 H 130.068 -4.98102 0.263842 0
M  V30 1430 H 129.222 -5.73948 -1.96643 0
M  V30 1431 H 127.961 -4.47458 -1.9399 0
M  V30 1432 H 126.966 -5.49656 0.126003 0
M  V30 1433 H 128.191 -6.79052 0.080947 0
M  V30 1434 H 126.137 -6.21851 -2.08895 0
M  V30 1435 H 126.054 -7.50281 -0.928137 0
M  V30 1436 H 127.322 -7.50194 -2.11731 0
M  V30 1437 N 131.551 -0.354651 -1.53558 0
M  V30 1438 C 132.799 0.237972 -2.00694 0
M  V30 1439 C 133.12 1.50173 -1.24391 0
M  V30 1440 O 132.39 1.92673 -0.354135 0
M  V30 1441 H 130.97 0.0909256 -0.741446 0
M  V30 1442 H 133.632 -0.478368 -1.88938 0
M  V30 1443 H 132.728 0.47264 -3.085 0
M  V30 1444 N 133.029 1.57378 -0.0835403 0
M  V30 1445 C 134.275 1.94217 0.583733 0
M  V30 1446 C 134.608 0.964653 1.68547 0
M  V30 1447 O 133.883 -0.00422258 1.945 0
M  V30 1448 C 134.166 3.41253 1.14972 0
M  V30 1449 C 134.019 4.49768 0.0538277 0
M  V30 1450 C 135.338 3.89352 2.05166 0
M  V30 1451 H 132.457 0.706233 0.210724 0
M  V30 1452 H 135.099 1.89392 -0.1519 0
M  V30 1453 H 133.249 3.45496 1.77665 0
M  V30 1454 H 134.921 4.57641 -0.579851 0
M  V30 1455 H 133.164 4.29432 -0.614068 0
M  V30 1456 H 133.835 5.49817 0.490452 0
M  V30 1457 H 136.311 3.87189 1.52393 0
M  V30 1458 H 135.187 4.92822 2.41698 0
M  V30 1459 H 135.448 3.27973 2.96456 0
M  V30 1460 N 134.507 -0.190092 1.56449 0
M  V30 1461 C 135.735 -0.925772 1.85033 0
M  V30 1462 C 136.15 -1.76638 0.666658 0
M  V30 1463 O 135.507 -1.78822 -0.364565 0
M  V30 1464 C 135.558 -1.81786 3.12468 0
M  V30 1465 O 135.279 -1.01118 4.26271 0
M  V30 1466 C 136.78 -2.6648 3.54265 0
M  V30 1467 H 134 -0.269872 0.614337 0
M  V30 1468 H 136.544 -0.195837 2.0356 0
M  V30 1469 H 134.699 -2.50136 2.95822 0
M  V30 1470 H 135.113 -1.61956 4.98869 0
M  V30 1471 H 136.587 -3.24722 4.46385 0
M  V30 1472 H 137.064 -3.40434 2.77491 0
M  V30 1473 H 137.67 -2.03493 3.73458 0
M  V30 1474 N 135.985 -1.50799 -0.457987 0
M  V30 1475 C 136.932 -1.70617 -1.5543 0
M  V30 1476 C 137.902 -0.547562 -1.56815 0
M  V30 1477 O 139.087 -0.779647 -1.74144 0
M  V30 1478 C 136.227 -1.81831 -2.93311 0
M  V30 1479 C 135.34 -3.09278 -3.01615 0
M  V30 1480 C 134.475 -3.11209 -4.30491 0
M  V30 1481 C 133.514 -4.33055 -4.32585 0
M  V30 1482 N 132.651 -4.32652 -5.52952 0
M  V30 1483 H 137.491 -2.64207 -1.37836 0
M  V30 1484 H 135.028 -1.30959 -0.669937 0
M  V30 1485 H 136.986 -1.86314 -3.73287 0
M  V30 1486 H 135.616 -0.916685 -3.0951 0
M  V30 1487 H 134.668 -3.14203 -2.1443 0
M  V30 1488 H 135.98 -3.99233 -2.99022 0
M  V30 1489 H 135.134 -3.14494 -5.18824 0
M  V30 1490 H 133.873 -2.19106 -4.35711 0
M  V30 1491 H 132.878 -4.29969 -3.42647 0
M  V30 1492 H 134.103 -5.264 -4.29046 0
M  V30 1493 H 132.049 -3.43409 -5.58933 0
M  V30 1494 H 131.966 -5.16392 -5.52155 0
M  V30 1495 H 133.234 -4.40101 -6.43375 0
M  V30 1496 N 137.463 0.71206 -1.40597 0
M  V30 1497 C 138.393 1.83889 -1.43899 0
M  V30 1498 C 139.374 1.67442 -0.299504 0
M  V30 1499 O 140.559 1.87421 -0.508624 0
M  V30 1500 C 137.689 3.21877 -1.30431 0
M  V30 1501 C 136.643 3.53002 -2.42019 0
M  V30 1502 C 135.969 4.90172 -2.13626 0
M  V30 1503 C 137.269 3.53643 -3.84362 0
M  V30 1504 H 138.963 1.81383 -2.38203 0
M  V30 1505 H 136.509 0.871237 -1.14654 0
M  V30 1506 H 138.462 4.00404 -1.31357 0
M  V30 1507 H 137.186 3.24968 -0.326049 0
M  V30 1508 H 135.845 2.76818 -2.40349 0
M  V30 1509 H 135.493 4.89869 -1.14182 0
M  V30 1510 H 135.193 5.11962 -2.88389 0
M  V30 1511 H 136.717 5.71028 -2.1624 0
M  V30 1512 H 138.131 4.22203 -3.87837 0
M  V30 1513 H 136.528 3.86961 -4.58673 0
M  V30 1514 H 137.598 2.52954 -4.13693 0
M  V30 1515 N 138.941 1.26152 0.944643 0
M  V30 1516 C 140.188 1.11492 1.69044 0
M  V30 1517 C 140.516 -0.342366 1.91463 0
M  V30 1518 O 139.771 -1.26812 1.49054 0
M  V30 1519 C 140.07 1.82541 3.07268 0
M  V30 1520 C 139.736 3.32445 3.04616 0
M  V30 1521 C 138.398 3.73337 3.036 0
M  V30 1522 C 140.75 4.28171 2.97185 0
M  V30 1523 C 138.078 5.08348 2.92915 0
M  V30 1524 C 140.43 5.63218 2.88041 0
M  V30 1525 C 139.094 6.03426 2.85366 0
M  V30 1526 H 138.364 0.407977 0.618576 0
M  V30 1527 H 141.011 1.56551 1.10291 0
M  V30 1528 H 139.316 1.29941 3.69625 0
M  V30 1529 H 141.013 1.68642 3.63815 0
M  V30 1530 H 137.603 2.99915 3.06185 0
M  V30 1531 H 141.787 3.97563 2.97081 0
M  V30 1532 H 137.043 5.38667 2.89219 0
M  V30 1533 H 141.217 6.37078 2.81254 0
M  V30 1534 H 138.844 7.07999 2.76842 0
M  V30 1535 N 140.419 -1.14872 1.07899 0
M  V30 1536 C 141.329 -2.2341 0.715915 0
M  V30 1537 C 142.345 -1.71808 -0.275306 0
M  V30 1538 O 143.521 -2.01039 -0.120545 0
M  V30 1539 C 140.586 -3.46474 0.125168 0
M  V30 1540 C 139.647 -4.13039 1.17034 0
M  V30 1541 C 138.88 -5.30229 0.607688 0
M  V30 1542 O 139.103 -5.675 -0.574497 0
M  V30 1543 O 138.037 -5.86444 1.35526 0
M  V30 1544 H 141.863 -2.56808 1.62121 0
M  V30 1545 H 139.448 -1.22702 0.852322 0
M  V30 1546 H 141.33 -4.20917 -0.201729 0
M  V30 1547 H 140.005 -3.14811 -0.753364 0
M  V30 1548 H 138.912 -3.40493 1.54968 0
M  V30 1549 H 140.245 -4.48796 2.02097 0
M  V30 1550 N 141.898 -0.863906 -1.31812 0
M  V30 1551 C 143.314 -0.555004 -1.49639 0
M  V30 1552 C 143.514 0.912266 -1.79666 0
M  V30 1553 O 142.57 1.69479 -1.87171 0
M  V30 1554 C 143.883 -1.44998 -2.63431 0
M  V30 1555 C 145.431 -1.45138 -2.77316 0
M  V30 1556 C 145.906 -2.33179 -3.94197 0
M  V30 1557 N 147.397 -2.31025 -4.01474 0
M  V30 1558 C 148.132 -2.95871 -4.9117 0
M  V30 1559 N 147.628 -3.69863 -5.8581 0
M  V30 1560 N 149.421 -2.85211 -4.84367 0
M  V30 1561 H 141.572 -1.81339 -1.10589 0
M  V30 1562 H 143.835 -0.77505 -0.545895 0
M  V30 1563 H 143.541 -2.49377 -2.48 0
M  V30 1564 H 143.415 -1.14409 -3.59431 0
M  V30 1565 H 145.802 -0.415201 -2.92164 0
M  V30 1566 H 145.883 -1.79747 -1.82001 0
M  V30 1567 H 145.527 -3.3687 -3.80107 0
M  V30 1568 H 145.457 -1.95897 -4.88807 0
M  V30 1569 H 147.948 -1.77238 -3.33759 0
M  V30 1570 H 148.261 -4.16486 -6.50968 0
M  V30 1571 H 146.606 -3.73971 -5.85808 0
M  V30 1572 H 149.797 -2.26948 -4.09405 0
M  V30 1573 H 149.97 -3.36027 -5.54066 0
M  V30 1574 N 143.376 1.44774 -0.622745 0
M  V30 1575 C 144.625 2.01334 -0.121397 0
M  V30 1576 C 144.938 1.49505 1.26125 0
M  V30 1577 O 146.144 1.98139 1.85616 0
M  V30 1578 C 144.6 3.59516 -0.166298 0
M  V30 1579 C 144.208 4.20342 -1.54974 0
M  V30 1580 C 145.952 4.23582 0.279021 0
M  V30 1581 C 143.859 5.70721 -1.55021 0
M  V30 1582 H 142.789 0.752851 -0.0416172 0
M  V30 1583 H 145.44 1.66083 -0.780309 0
M  V30 1584 H 143.822 3.92027 0.559557 0
M  V30 1585 H 144.996 3.99381 -2.29851 0
M  V30 1586 H 143.311 3.68529 -1.93843 0
M  V30 1587 H 145.908 5.33868 0.298083 0
M  V30 1588 H 146.251 3.95327 1.30471 0
M  V30 1589 H 146.784 3.95843 -0.394063 0
M  V30 1590 H 143.523 6.03698 -2.55399 0
M  V30 1591 H 143.043 5.93829 -0.844245 0
M  V30 1592 H 144.722 6.34203 -1.28047 0
M  V30 1593 N 144.854 0.36279 1.53368 0
M  V30 1594 C 146.084 -0.228281 2.05335 0
M  V30 1595 C 146.492 -1.43226 1.23625 0
M  V30 1596 O 145.835 -1.81717 0.269206 0
M  V30 1597 C 145.897 -0.688549 3.52845 0
M  V30 1598 C 145.561 0.398362 4.5526 0
M  V30 1599 C 146.558 1.24732 5.04716 0
M  V30 1600 C 144.243 0.557805 4.99193 0
M  V30 1601 C 146.237 2.2411 5.96702 0
M  V30 1602 C 143.924 1.55495 5.90986 0
M  V30 1603 C 144.922 2.39503 6.39631 0
M  V30 1604 O 144.61 3.37517 7.29615 0
M  V30 1605 H 144.342 -0.044395 0.674541 0
M  V30 1606 H 146.896 0.518668 1.98744 0
M  V30 1607 H 145.126 -1.48706 3.56964 0
M  V30 1608 H 146.815 -1.20231 3.87685 0
M  V30 1609 H 147.581 1.13532 4.71525 0
M  V30 1610 H 143.46 -0.0862959 4.60919 0
M  V30 1611 H 147.004 2.89718 6.34594 0
M  V30 1612 H 142.901 1.66744 6.23592 0
M  V30 1613 H 143.669 3.33213 7.47604 0
M  V30 1614 N 146.332 -1.57332 0.0918853 0
M  V30 1615 C 147.557 -1.98995 -0.584442 0
M  V30 1616 C 147.982 -0.970528 -1.61128 0
M  V30 1617 O 147.34 0.0613904 -1.81196 0
M  V30 1618 C 147.388 -3.39636 -1.21161 0
M  V30 1619 O 146.492 -3.40447 -2.32744 0
M  V30 1620 H 145.833 -0.647165 -0.148572 0
M  V30 1621 H 148.363 -2.03873 0.172347 0
M  V30 1622 H 148.373 -3.7726 -1.55367 0
M  V30 1623 H 147.048 -4.13356 -0.459313 0
M  V30 1624 H 145.625 -3.14614 -2.0018 0
M  V30 1625 N 147.81 0.181792 -1.56548 0
M  V30 1626 C 149.038 0.915947 -1.85521 0
M  V30 1627 C 149.453 1.76282 -0.676016 0
M  V30 1628 O 148.81 1.79012 0.355077 0
M  V30 1629 C 148.861 1.80126 -3.13427 0
M  V30 1630 O 148.582 0.988562 -4.26801 0
M  V30 1631 C 150.083 2.64597 -3.55673 0
M  V30 1632 H 147.303 0.26661 -0.61576 0
M  V30 1633 H 149.847 0.185039 -2.03661 0
M  V30 1634 H 148.002 2.48563 -2.97145 0
M  V30 1635 H 148.416 1.59308 -4.99721 0
M  V30 1636 H 149.89 3.2235 -4.48101 0
M  V30 1637 H 150.367 3.38958 -2.79292 0
M  V30 1638 H 150.973 2.0151 -3.74532 0
M  V30 1639 N 149.288 1.51039 0.449983 0
M  V30 1640 C 150.565 1.53612 1.21089 0
M  V30 1641 C 150.945 0.292997 2.09057 0
M  V30 1642 O 150.293 -0.72259 2.16774 0
M  V30 1643 C 150.503 2.84337 2.0237 0
M  V30 1644 C 151.851 3.35807 2.59843 0
M  V30 1645 O 152.875 2.85802 2.12593 0
M  V30 1646 O 151.734 4.23029 3.45989 0
M  V30 1647 H 148.828 0.617057 0.550608 0
M  V30 1648 H 151.374 1.63344 0.460082 0
M  V30 1649 H 150.146 3.66278 1.37681 0
M  V30 1650 H 149.769 2.77708 2.84542 0
M  V30 1651 N 150.766 -0.704594 1.40972 0
M  V30 1652 C 151.696 -1.83124 1.44872 0
M  V30 1653 C 152.677 -1.67281 0.30838 0
M  V30 1654 O 153.862 -1.87149 0.518556 0
M  V30 1655 C 150.992 -3.21181 1.32136 0
M  V30 1656 C 149.946 -3.51714 2.43888 0
M  V30 1657 C 149.272 -4.89032 2.16222 0
M  V30 1658 C 150.572 -3.516 3.86232 0
M  V30 1659 H 152.266 -1.80117 2.39161 0
M  V30 1660 H 149.812 -0.865145 1.15114 0
M  V30 1661 H 151.765 -3.99702 1.33479 0
M  V30 1662 H 150.489 -3.24791 0.343279 0
M  V30 1663 H 149.148 -2.75539 2.41813 0
M  V30 1664 H 148.796 -4.89256 1.16778 0
M  V30 1665 H 148.496 -5.10426 2.911 0
M  V30 1666 H 150.02 -5.69873 2.19265 0
M  V30 1667 H 151.434 -4.2014 3.9007 0
M  V30 1668 H 149.831 -3.84523 4.60719 0
M  V30 1669 H 150.901 -2.50757 4.15029 0
M  V30 1670 N 152.244 -1.26651 -0.937939 0
M  V30 1671 C 153.492 -1.12165 -1.68118 0
M  V30 1672 C 153.813 0.334983 -1.92101 0
M  V30 1673 O 153.083 1.23583 -1.52 0
M  V30 1674 H 151.663 -0.412093 -0.623048 0
M  V30 1675 H 154.325 -1.59027 -1.12678 0
M  V30 1676 H 153.421 -1.64289 -2.6536 0
M  V30 1677 N 153.722 1.14298 -1.08507 0
M  V30 1678 C 155.138 1.37347 -0.812901 0
M  V30 1679 C 155.338 1.93052 0.577325 0
M  V30 1680 O 154.394 2.14389 1.33393 0
M  V30 1681 C 155.707 2.33359 -1.89642 0
M  V30 1682 C 157.255 2.46996 -1.92255 0
M  V30 1683 C 157.73 3.46309 -2.99724 0
M  V30 1684 N 159.221 3.53853 -2.98902 0
M  V30 1685 C 159.956 4.3055 -3.787 0
M  V30 1686 N 159.452 5.10482 -4.6838 0
M  V30 1687 N 161.245 4.25757 -3.66998 0
M  V30 1688 H 153.396 0.764867 -1.9815 0
M  V30 1689 H 155.659 0.398966 -0.859959 0
M  V30 1690 H 155.365 1.99565 -2.89597 0
M  V30 1691 H 155.239 3.33274 -1.76659 0
M  V30 1692 H 157.626 2.80081 -0.929445 0
M  V30 1693 H 157.707 1.47039 -2.09316 0
M  V30 1694 H 157.351 3.13957 -3.99241 0
M  V30 1695 H 157.281 4.46049 -2.79907 0
M  V30 1696 H 159.772 2.96812 -2.33904 0
M  V30 1697 H 160.085 5.66284 -5.25873 0
M  V30 1698 H 158.43 5.09747 -4.72422 0
M  V30 1699 H 161.621 3.62383 -2.96304 0
M  V30 1700 H 161.794 4.85279 -4.29427 0
M  V30 1701 N 155.201 0.870884 1.31352 0
M  V30 1702 C 156.134 0.271983 2.26573 0
M  V30 1703 C 157.112 -0.599385 1.51149 0
M  V30 1704 O 158.296 -0.552605 1.80218 0
M  V30 1705 C 155.423 -0.614801 3.33073 0
M  V30 1706 C 154.469 0.185342 4.26097 0
M  V30 1707 S 155.302 1.56444 5.12138 0
M  V30 1708 C 156.458 0.683807 6.22153 0
M  V30 1709 H 156.691 1.07916 2.77023 0
M  V30 1710 H 154.224 0.669459 1.39132 0
M  V30 1711 H 156.182 -1.12074 3.94905 0
M  V30 1712 H 154.843 -1.39593 2.81376 0
M  V30 1713 H 154.036 -0.490771 5.01605 0
M  V30 1714 H 153.638 0.623415 3.68768 0
M  V30 1715 H 155.93 -0.10521 6.77418 0
M  V30 1716 H 156.873 1.41004 6.93919 0
M  V30 1717 H 157.281 0.250952 5.63942 0
M  V30 1718 N 156.679 -1.44442 0.630414 0
M  V30 1719 C 157.609 -2.33418 -0.0618083 0
M  V30 1720 C 158.59 -1.48165 -0.835541 0
M  V30 1721 O 159.775 -1.76886 -0.801564 0
M  V30 1722 C 156.905 -3.31222 -1.04449 0
M  V30 1723 C 155.859 -4.26288 -0.382436 0
M  V30 1724 C 155.185 -5.13954 -1.47497 0
M  V30 1725 C 156.485 -5.1744 0.710865 0
M  V30 1726 H 158.179 -2.91548 0.681184 0
M  V30 1727 H 155.725 -1.40191 0.329026 0
M  V30 1728 H 157.678 -3.92351 -1.53748 0
M  V30 1729 H 156.402 -2.71299 -1.81836 0
M  V30 1730 H 155.061 -3.6649 0.0899054 0
M  V30 1731 H 154.709 -4.50385 -2.2397 0
M  V30 1732 H 154.409 -5.7837 -1.03737 0
M  V30 1733 H 155.933 -5.77955 -1.96979 0
M  V30 1734 H 157.347 -5.72509 0.300996 0
M  V30 1735 H 155.744 -5.90455 1.07156 0
M  V30 1736 H 156.814 -4.58496 1.57829 0
M  V30 1737 N 158.157 -0.370918 -1.53173 0
M  V30 1738 C 159.087 0.464847 -2.28826 0
M  V30 1739 C 160.068 1.07936 -1.31468 0
M  V30 1740 O 161.253 1.0956 -1.60344 0
M  V30 1741 C 158.383 1.60196 -3.08147 0
M  V30 1742 C 157.337 1.11443 -4.13237 0
M  V30 1743 C 156.663 2.3422 -4.80672 0
M  V30 1744 C 157.963 0.195384 -5.21934 0
M  V30 1745 H 159.657 -0.166329 -2.98938 0
M  V30 1746 H 157.203 -0.0814359 -1.4377 0
M  V30 1747 H 159.156 2.19332 -3.59822 0
M  V30 1748 H 157.88 2.26045 -2.35735 0
M  V30 1749 H 156.539 0.545727 -3.62515 0
M  V30 1750 H 156.187 2.98537 -4.04827 0
M  V30 1751 H 155.887 2.02269 -5.51689 0
M  V30 1752 H 157.411 2.94032 -5.35143 0
M  V30 1753 H 158.825 0.694375 -5.69079 0
M  V30 1754 H 157.222 -0.0335027 -6.00091 0
M  V30 1755 H 158.292 -0.760961 -4.78892 0
M  V30 1756 N 159.635 1.57281 -0.100228 0
M  V30 1757 C 160.863 1.98879 0.570509 0
M  V30 1758 C 161.278 0.979476 1.61405 0
M  V30 1759 O 160.635 -0.0302288 1.82475 0
M  V30 1760 C 160.686 3.4052 1.2136 0
M  V30 1761 O 160.407 4.37588 0.211786 0
M  V30 1762 C 161.908 3.97149 1.96945 0
M  V30 1763 H 159.128 0.653428 0.152555 0
M  V30 1764 H 161.672 2.03697 -0.18103 0
M  V30 1765 H 159.827 3.367 1.91603 0
M  V30 1766 H 160.241 5.20118 0.676607 0
M  V30 1767 H 161.715 4.98393 2.37294 0
M  V30 1768 H 162.192 3.3525 2.83733 0
M  V30 1769 H 162.798 4.04458 1.31506 0
M  V30 1770 N 161.113 -0.173488 1.56642 0
M  V30 1771 C 162.338 -0.910149 1.86363 0
M  V30 1772 C 162.763 -1.75132 0.686318 0
M  V30 1773 O 162.121 -1.77595 -0.364643 0
M  V30 1774 C 162.169 -1.76447 3.14482 0
M  V30 1775 O 161.273 -2.86584 2.96553 0
M  V30 1776 H 160.614 -0.255086 0.613047 0
M  V30 1777 H 163.144 -0.172283 2.03873 0
M  V30 1778 H 163.154 -2.16483 3.45831 0
M  V30 1779 H 161.829 -1.14658 3.99783 0
M  V30 1780 H 160.406 -2.50146 2.76553 0
M  V30 1781 N 162.591 -1.51276 -0.441967 0
M  V30 1782 C 163.84 -1.6295 -1.18871 0
M  V30 1783 C 164.153 -0.349312 -1.92456 0
M  V30 1784 O 165.359 -0.345355 -2.69295 0
M  V30 1785 C 163.815 -2.87759 -2.16155 0
M  V30 1786 C 163.423 -4.22764 -1.48239 0
M  V30 1787 C 165.167 -3.08788 -2.91291 0
M  V30 1788 C 163.074 -5.38728 -2.4398 0
M  V30 1789 H 162.004 -0.606913 -0.447406 0
M  V30 1790 H 164.655 -1.77739 -0.456205 0
M  V30 1791 H 163.037 -2.66593 -2.92821 0
M  V30 1792 H 164.211 -4.54293 -0.771635 0
M  V30 1793 H 162.526 -4.07575 -0.852741 0
M  V30 1794 H 165.123 -3.92599 -3.63002 0
M  V30 1795 H 165.466 -2.21679 -3.5237 0
M  V30 1796 H 165.999 -3.30272 -2.21733 0
M  V30 1797 H 162.738 -6.28082 -1.87598 0
M  V30 1798 H 162.258 -5.1158 -3.13123 0
M  V30 1799 H 163.937 -5.70489 -3.05207 0
M  V30 1800 N 164.069 0.697108 -1.41344 0
M  V30 1801 C 165.315 1.4593 -1.40827 0
M  V30 1802 C 165.648 1.94193 -0.0167098 0
M  V30 1803 O 164.923 1.69425 0.955263 0
M  V30 1804 C 165.206 2.67229 -2.41373 0
M  V30 1805 C 165.059 2.24741 -3.8963 0
M  V30 1806 C 166.378 3.69423 -2.39196 0
M  V30 1807 H 163.497 0.529303 -0.512842 0
M  V30 1808 H 166.139 0.794112 -1.72609 0
M  V30 1809 H 164.289 3.23982 -2.14401 0
M  V30 1810 H 165.961 1.73327 -4.27499 0
M  V30 1811 H 164.204 1.56542 -4.0457 0
M  V30 1812 H 164.875 3.1177 -4.55525 0
M  V30 1813 H 167.351 3.2234 -2.63128 0
M  V30 1814 H 166.227 4.51907 -3.11563 0
M  V30 1815 H 166.488 4.19012 -1.41001 0
M  V30 1816 N 165.547 1.27147 0.931209 0
M  V30 1817 C 166.963 1.04475 1.20653 0
M  V30 1818 C 167.163 -0.223885 2.00252 0
M  V30 1819 O 166.219 -0.930332 2.34736 0
M  V30 1820 C 167.532 2.28209 1.95809 0
M  V30 1821 C 169.08 2.33211 2.08762 0
M  V30 1822 C 169.555 3.56665 2.87323 0
M  V30 1823 N 171.046 3.57201 2.94892 0
M  V30 1824 C 171.781 4.49395 3.56134 0
M  V30 1825 N 171.277 5.51889 4.18796 0
M  V30 1826 N 173.07 4.37026 3.53504 0
M  V30 1827 H 165.221 2.08612 0.399333 0
M  V30 1828 H 167.484 0.917312 0.239253 0
M  V30 1829 H 167.19 3.20538 1.44736 0
M  V30 1830 H 167.064 2.33247 2.96438 0
M  V30 1831 H 169.451 1.41391 2.59023 0
M  V30 1832 H 169.532 2.32178 1.07364 0
M  V30 1833 H 169.176 4.4882 2.37746 0
M  V30 1834 H 169.106 3.54948 3.88998 0
M  V30 1835 H 171.597 2.83074 2.50354 0
M  V30 1836 H 171.91 6.18409 4.63454 0
M  V30 1837 H 170.255 5.55735 4.17353 0
M  V30 1838 H 173.446 3.56166 3.03749 0
M  V30 1839 H 173.619 5.09067 4.00942 0
M  V30 1840 N 167.025 -1.13721 1.09112 0
M  V30 1841 C 168.273 -1.84559 0.823562 0
M  V30 1842 C 168.594 -1.83754 -0.652658 0
M  V30 1843 O 167.864 -1.29102 -1.47342 0
M  V30 1844 H 166.444 -0.683376 0.301673 0
M  V30 1845 H 169.106 -1.37771 1.37859 0
M  V30 1846 H 168.202 -2.8917 1.17419 0
M  V30 1847 N 168.503 -0.877838 -1.30888 0
M  V30 1848 C 169.752 -0.488793 -1.95688 0
M  V30 1849 C 170.065 0.965485 -1.70111 0
M  V30 1850 O 171.271 1.46104 -2.28836 0
M  V30 1851 C 169.727 -0.823201 -3.50359 0
M  V30 1852 C 169.335 -2.29477 -3.84765 0
M  V30 1853 C 171.079 -0.503009 -4.21509 0
M  V30 1854 C 168.986 -2.57118 -5.32583 0
M  V30 1855 H 167.916 -0.179062 -0.732429 0
M  V30 1856 H 170.567 -1.07183 -1.48943 0
M  V30 1857 H 168.949 -0.169331 -3.95638 0
M  V30 1858 H 170.123 -2.99236 -3.5042 0
M  V30 1859 H 168.438 -2.58178 -3.267 0
M  V30 1860 H 171.035 -0.68665 -5.30273 0
M  V30 1861 H 171.378 0.557109 -4.12555 0
M  V30 1862 H 171.911 -1.11376 -3.8189 0
M  V30 1863 H 168.65 -3.61843 -5.4658 0
M  V30 1864 H 168.17 -1.91961 -5.68253 0
M  V30 1865 H 169.849 -2.42251 -5.99936 0
M  V30 1866 N 169.982 1.44106 -0.638065 0
M  V30 1867 C 171.393 1.85316 -0.226894 0
M  V30 1868 C 171.744 1.53399 1.22324 0
M  V30 1869 O 170.869 0.975463 1.93167 0
M  V30 1870 C 171.464 3.3637 -0.405013 0
M  V30 1871 C 170.023 3.76369 -0.0482902 0
M  V30 1872 C 169.17 2.67921 -0.715108 0
M  V30 1873 H 172.121 1.34474 -0.842764 0
M  V30 1874 H 172.142 3.7885 0.354 0
M  V30 1875 H 171.654 3.59569 -1.46053 0
M  V30 1876 H 169.755 3.58784 1.00522 0
M  V30 1877 H 169.868 4.76856 -0.463187 0
M  V30 1878 H 168.232 2.54259 -0.149753 0
M  V30 1879 H 169.015 2.93951 -1.77335 0
M  V30 1880 N 171.46 0.379036 1.52974 0
M  V30 1881 C 172.707 -0.206421 2.01445 0
M  V30 1882 C 173.035 -1.47668 1.26587 0
M  V30 1883 O 172.29 -1.92514 0.351675 0
M  V30 1884 C 172.589 -0.53096 3.53434 0
M  V30 1885 C 172.255 0.646546 4.46241 0
M  V30 1886 C 170.917 0.969604 4.7133 0
M  V30 1887 C 173.269 1.43479 5.01062 0
M  V30 1888 C 170.597 2.08263 5.48492 0
M  V30 1889 C 172.949 2.53834 5.7944 0
M  V30 1890 C 171.613 2.86659 6.02812 0
M  V30 1891 H 170.883 -0.0755349 0.73714 0
M  V30 1892 H 173.53 0.514271 1.84465 0
M  V30 1893 H 171.835 -1.33285 3.68432 0
M  V30 1894 H 173.532 -0.996417 3.88423 0
M  V30 1895 H 170.122 0.384734 4.2687 0
M  V30 1896 H 174.306 1.19844 4.81613 0
M  V30 1897 H 169.562 2.34078 5.64816 0
M  V30 1898 H 173.736 3.15319 6.20924 0
M  V30 1899 H 171.363 3.73026 6.62387 0
M  V30 1900 N 172.938 -1.57226 0.108567 0
M  V30 1901 C 174.184 -1.95919 -0.546564 0
M  V30 1902 C 174.539 -0.990417 -1.6495 0
M  V30 1903 O 173.832 -0.0186593 -1.91591 0
M  V30 1904 C 174.026 -3.38911 -1.13463 0
M  V30 1905 C 173.855 -4.4961 -0.0901926 0
M  V30 1906 C 172.625 -5.04168 0.338008 0
M  V30 1907 C 174.823 -5.09693 0.686808 0
M  V30 1908 N 172.805 -5.98434 1.36931 0
M  V30 1909 C 174.176 -5.99804 1.56958 0
M  V30 1910 C 176.231 -4.92388 0.738846 0
M  V30 1911 C 174.934 -6.74463 2.49983 0
M  V30 1912 C 176.96 -5.67719 1.65676 0
M  V30 1913 C 176.322 -6.57507 2.52713 0
M  V30 1914 H 172.421 -0.763312 -0.169936 0
M  V30 1915 H 175.005 -1.93728 0.194264 0
M  V30 1916 H 173.176 -3.41769 -1.84522 0
M  V30 1917 H 174.908 -3.64752 -1.75322 0
M  V30 1918 H 171.663 -4.73571 -0.0523673 0
M  V30 1919 H 172.087 -6.5027 1.88356 0
M  V30 1920 H 176.729 -4.22724 0.080084 0
M  V30 1921 H 174.447 -7.4338 3.16878 0
M  V30 1922 H 178.033 -5.56338 1.70233 0
M  V30 1923 H 176.913 -7.14778 3.22586 0
M  V30 1924 N 174.416 0.165178 -1.56732 0
M  V30 1925 C 175.664 0.879068 -1.8198 0
M  V30 1926 C 175.985 1.82514 -0.686561 0
M  V30 1927 O 175.255 1.93694 0.293146 0
M  V30 1928 H 173.835 0.327608 -0.671329 0
M  V30 1929 H 176.497 0.163526 -1.94213 0
M  V30 1930 H 175.593 1.45228 -2.76252 0
M  V30 1931 N 175.894 1.51508 0.433938 0
M  V30 1932 C 177.142 1.6402 1.18075 0
M  V30 1933 C 177.463 0.360328 1.91642 0
M  V30 1934 O 176.733 -0.623945 1.85698 0
M  V30 1935 H 175.313 0.6045 0.43885 0
M  V30 1936 H 177.975 1.88452 0.497178 0
M  V30 1937 H 177.071 2.46949 1.90847 0
M  V30 1938 N 177.372 -0.689602 1.41712 0
M  V30 1939 C 178.597 -1.48329 1.44959 0
M  V30 1940 C 179.022 -1.8801 0.0581283 0
M  V30 1941 O 178.38 -1.55026 -0.940035 0
M  V30 1942 C 178.428 -2.71835 2.36935 0
M  V30 1943 O 177.532 -3.69549 1.8305 0
M  V30 1944 H 176.873 -0.446199 0.491734 0
M  V30 1945 H 179.403 -0.847127 1.86239 0
M  V30 1946 H 179.413 -3.20076 2.53013 0
M  V30 1947 H 178.088 -2.42291 3.38035 0
M  V30 1948 H 176.665 -3.2851 1.76452 0
M  V30 1949 N 178.85 -1.27639 -0.924453 0
M  V30 1950 C 180.078 -1.16989 -1.70649 0
M  V30 1951 C 180.493 0.272869 -1.86818 0
M  V30 1952 O 179.85 1.18549 -1.38753 0
M  V30 1953 C 179.901 -1.85229 -3.10439 0
M  V30 1954 O 179.622 -3.23868 -2.95028 0
M  V30 1955 C 181.123 -1.80746 -4.04779 0
M  V30 1956 H 178.343 -0.406595 -0.53378 0
M  V30 1957 H 180.887 -1.68569 -1.15778 0
M  V30 1958 H 179.042 -1.37545 -3.6216 0
M  V30 1959 H 179.456 -3.57889 -3.83426 0
M  V30 1960 H 180.93 -2.33101 -5.00368 0
M  V30 1961 H 181.407 -0.777499 -4.32263 0
M  V30 1962 H 182.013 -2.28059 -3.58984 0
M  V30 1963 N 180.328 1.1314 -1.09713 0
M  V30 1964 C 181.577 1.83838 -0.829851 0
M  V30 1965 C 181.89 1.84599 0.646728 0
M  V30 1966 O 183.096 2.51218 1.02965 0
M  V30 1967 C 181.552 3.30069 -1.43466 0
M  V30 1968 C 181.16 3.37688 -2.94399 0
M  V30 1969 C 182.904 4.05788 -1.24645 0
M  V30 1970 C 180.811 4.78209 -3.47952 0
M  V30 1971 H 179.741 0.68877 -0.306777 0
M  V30 1972 H 182.392 1.27448 -1.3202 0
M  V30 1973 H 180.774 3.8628 -0.871996 0
M  V30 1974 H 181.948 2.91456 -3.56918 0
M  V30 1975 H 180.263 2.75436 -3.12289 0
M  V30 1976 H 182.86 5.09535 -1.62107 0
M  V30 1977 H 183.203 4.15878 -0.187357 0
M  V30 1978 H 183.736 3.55915 -1.77678 0
M  V30 1979 H 180.475 4.73311 -4.53495 0
M  V30 1980 H 179.995 5.24924 -2.90198 0
M  V30 1981 H 181.674 5.47133 -3.45332 0
M  V30 1982 N 181.806 0.884767 1.30421 0
M  V30 1983 C 183.083 0.423185 1.90967 0
M  V30 1984 C 183.463 -1.09605 1.80416 0
M  V30 1985 O 182.811 -1.93126 1.22125 0
M  V30 1986 C 183.021 0.921056 3.36627 0
M  V30 1987 C 184.369 0.955903 4.137 0
M  V30 1988 O 185.393 0.867706 3.4547 0
M  V30 1989 O 184.252 1.08614 5.35598 0
M  V30 1990 H 181.346 0.129369 0.816819 0
M  V30 1991 H 183.892 0.973653 1.3899 0
M  V30 1992 H 182.664 1.96489 3.3839 0
M  V30 1993 H 182.287 0.349741 3.96059 0
M  V30 1994 N 183.284 -1.43765 0.645699 0
M  V30 1995 C 184.512 -2.06253 0.163556 0
M  V30 1996 C 184.927 -1.48352 -1.16778 0
M  V30 1997 O 184.284 -0.611932 -1.71935 0
M  V30 1998 C 184.335 -3.61453 0.0583186 0
M  V30 1999 O 184.056 -4.172 1.33702 0
M  V30 2000 C 185.557 -4.41002 -0.450795 0
M  V30 2001 H 182.777 -0.665413 0.0864077 0
M  V30 2002 H 185.321 -1.84396 0.884222 0
M  V30 2003 H 183.476 -3.82522 -0.612865 0
M  V30 2004 H 183.89 -5.10791 1.19131 0
M  V30 2005 H 185.364 -5.49966 -0.473403 0
M  V30 2006 H 185.841 -4.13488 -1.48068 0
M  V30 2007 H 186.447 -4.24886 0.187637 0
M  V30 2008 N 184.763 -0.387143 -1.52771 0
M  V30 2009 C 185.673 0.456442 -2.30117 0
M  V30 2010 C 186.689 1.07342 -1.36944 0
M  V30 2011 O 187.865 1.07971 -1.70013 0
M  V30 2012 C 184.93 1.56957 -3.09136 0
M  V30 2013 C 183.991 0.977916 -4.18014 0
M  V30 2014 C 183.224 2.038 -4.93256 0
M  V30 2015 O 183.447 3.25271 -4.68567 0
M  V30 2016 O 182.381 1.6565 -5.78657 0
M  V30 2017 H 186.207 -0.17359 -3.03203 0
M  V30 2018 H 183.792 -0.150919 -1.48636 0
M  V30 2019 H 185.674 2.21628 -3.58412 0
M  V30 2020 H 184.349 2.18461 -2.38865 0
M  V30 2021 H 183.256 0.294525 -3.72939 0
M  V30 2022 H 184.589 0.407128 -4.90513 0
M  V30 2023 N 186.241 1.57166 -0.116904 0
M  V30 2024 C 187.171 2.18222 0.830759 0
M  V30 2025 C 188.152 1.12167 1.27877 0
M  V30 2026 O 189.337 1.40394 1.34176 0
M  V30 2027 C 186.467 2.77996 2.08172 0
M  V30 2028 C 185.421 3.89614 1.77157 0
M  V30 2029 C 184.747 4.36187 3.09265 0
M  V30 2030 C 186.047 5.1181 1.04151 0
M  V30 2031 H 187.741 2.97664 0.321992 0
M  V30 2032 H 185.287 1.4318 0.153434 0
M  V30 2033 H 187.24 3.19366 2.74924 0
M  V30 2034 H 185.964 1.9584 2.6137 0
M  V30 2035 H 184.623 3.48816 1.12796 0
M  V30 2036 H 184.271 3.50893 3.60393 0
M  V30 2037 H 183.971 5.11455 2.89288 0
M  V30 2038 H 185.495 4.80207 3.77139 0
M  V30 2039 H 186.909 5.50214 1.61052 0
M  V30 2040 H 185.306 5.92648 0.942762 0
M  V30 2041 H 186.376 4.84892 0.0279022 0
M  V30 2042 N 187.719 -0.156864 1.56817 0
M  V30 2043 C 188.666 -1.19394 1.97519 0
M  V30 2044 C 189.636 -1.4322 0.841265 0
M  V30 2045 O 190.821 -1.55719 1.10255 0
M  V30 2046 C 187.961 -2.52483 2.35258 0
M  V30 2047 C 187.074 -2.35914 3.61896 0
M  V30 2048 C 186.209 -3.61969 3.88782 0
M  V30 2049 C 185.248 -3.40395 5.08722 0
M  V30 2050 N 184.385 -4.58556 5.31668 0
M  V30 2051 H 189.225 -0.839845 2.85921 0
M  V30 2052 H 186.762 -0.403264 1.41464 0
M  V30 2053 H 188.72 -3.30071 2.55165 0
M  V30 2054 H 187.35 -2.85859 1.49949 0
M  V30 2055 H 186.402 -1.49429 3.49821 0
M  V30 2056 H 187.714 -2.15926 4.49641 0
M  V30 2057 H 186.868 -4.47989 4.09135 0
M  V30 2058 H 185.607 -3.84951 2.9944 0
M  V30 2059 H 184.612 -2.52763 4.88253 0
M  V30 2060 H 185.837 -3.18822 5.99608 0
M  V30 2061 H 183.783 -4.81729 4.45279 0
M  V30 2062 H 183.7 -4.41535 6.13664 0
M  V30 2063 H 184.968 -5.45817 5.5651 0
M  V30 2064 N 189.197 -1.51736 -0.425897 0
M  V30 2065 C 190.443 -1.65214 -1.1761 0
M  V30 2066 C 190.776 -0.372778 -1.90589 0
M  V30 2067 O 190.051 0.628139 -1.84078 0
M  V30 2068 C 190.334 -2.86312 -2.18398 0
M  V30 2069 C 190.187 -4.24254 -1.49426 0
M  V30 2070 C 191.506 -3.02925 -3.19256 0
M  V30 2071 H 188.625 -0.601263 -0.426206 0
M  V30 2072 H 191.267 -1.8425 -0.463882 0
M  V30 2073 H 189.417 -2.70213 -2.79137 0
M  V30 2074 H 191.089 -4.52046 -0.919362 0
M  V30 2075 H 189.332 -4.26426 -0.796432 0
M  V30 2076 H 190.003 -5.05001 -2.22885 0
M  V30 2077 H 192.479 -3.1781 -2.68581 0
M  V30 2078 H 191.355 -3.89199 -3.8706 0
M  V30 2079 H 191.616 -2.15497 -3.86023 0
M  V30 2080 N 190.675 0.682077 -1.42076 0
M  V30 2081 C 191.924 1.43786 -1.41451 0
M  V30 2082 C 192.237 1.95574 -0.0317074 0
M  V30 2083 O 193.443 2.71326 0.0971462 0
M  V30 2084 C 191.899 2.60071 -2.48779 0
M  V30 2085 C 191.507 2.15013 -3.93031 0
M  V30 2086 C 193.251 3.37626 -2.57311 0
M  V30 2087 C 191.158 3.28336 -4.91883 0
M  V30 2088 H 190.088 0.540143 -0.526082 0
M  V30 2089 H 192.739 0.739157 -1.67955 0
M  V30 2090 H 191.121 3.32275 -2.15429 0
M  V30 2091 H 192.295 1.5001 -4.35699 0
M  V30 2092 H 190.61 1.50416 -3.88284 0
M  V30 2093 H 193.207 4.22012 -3.28345 0
M  V30 2094 H 193.55 3.83727 -1.61429 0
M  V30 2095 H 194.083 2.72488 -2.89819 0
M  V30 2096 H 190.822 2.87234 -5.89217 0
M  V30 2097 H 190.342 3.92145 -4.53853 0
M  V30 2098 H 192.021 3.93913 -5.13265 0
M  V30 2099 N 192.153 1.28127 0.917671 0
M  V30 2100 C 193.43 1.05761 1.64542 0
M  V30 2101 C 193.81 -0.404344 2.07191 0
M  V30 2102 O 193.158 -1.38963 1.81388 0
M  V30 2103 C 193.368 2.02857 2.83989 0
M  V30 2104 C 194.716 2.32786 3.551 0
M  V30 2105 O 195.74 2.0091 2.94132 0
M  V30 2106 O 194.599 2.87169 4.64969 0
M  V30 2107 H 191.693 0.403916 0.721652 0
M  V30 2108 H 194.239 1.39431 0.967322 0
M  V30 2109 H 193.011 3.01407 2.49538 0
M  V30 2110 H 192.634 1.69809 3.59514 0
M  V30 2111 N 193.631 -1.12557 1.10312 0
M  V30 2112 C 194.859 -1.87864 0.866873 0
M  V30 2113 C 195.274 -1.79588 -0.582557 0
M  V30 2114 O 194.631 -1.16887 -1.40156 0
M  V30 2115 C 194.682 -3.37125 1.30496 0
M  V30 2116 O 194.403 -3.45201 2.69755 0
M  V30 2117 C 195.904 -4.29373 1.10243 0
M  V30 2118 H 193.124 -0.594452 0.311236 0
M  V30 2119 H 195.668 -1.42429 1.46745 0
M  V30 2120 H 193.823 -3.80109 0.748081 0
M  V30 2121 H 194.237 -4.38056 2.88457 0
M  V30 2122 H 195.711 -5.32394 1.45811 0
M  V30 2123 H 196.188 -4.39181 0.0409492 0
M  V30 2124 H 196.794 -3.92169 1.64571 0
M  V30 2125 N 195.109 -0.891671 -1.2995 0
M  V30 2126 C 196.057 -0.353066 -2.29905 0
M  V30 2127 C 197.051 0.543509 -1.60444 0
M  V30 2128 O 198.257 0.4272 -1.74857 0
M  V30 2129 H 194.632 -0.095531 -0.745907 0
M  V30 2130 H 196.603 -1.20961 -2.72784 0
M  V30 2131 C 195.352 0.411475 -3.45257 0
M  V30 2132 H 194.675 -0.269182 -3.98893 0
M  V30 2133 H 196.115 0.753328 -4.17254 0
M  V30 2134 C 194.574 1.6111 -2.9588 0
M  V30 2135 O 195.104 2.71045 -2.96475 0
M  V30 2136 N 193.31 1.45054 -2.51809 0
M  V30 2137 H 192.857 0.556175 -2.51524 0
M  V30 2138 H 192.815 2.25453 -2.1913 0
M  V30 2139 N 196.587 1.43421 -0.653314 0
M  V30 2140 C 197.827 2.03689 -0.170346 0
M  V30 2141 C 198.191 1.50427 1.19314 0
M  V30 2142 O 199.392 2.0234 1.76952 0
M  V30 2143 C 197.663 3.56946 -0.180183 0
M  V30 2144 S 199.222 4.38171 0.234925 0
M  V30 2145 H 196.04 0.707345 -0.0719976 0
M  V30 2146 H 198.642 1.75486 -0.86167 0
M  V30 2147 H 197.346 3.93212 -1.17526 0
M  V30 2148 H 196.877 3.89791 0.531675 0
M  V30 2149 H 198.892 4.73808 1.47378 0
M  V30 2150 N 198.065 0.39524 1.52563 0
M  V30 2151 C 199.314 -0.186321 2.00838 0
M  V30 2152 C 199.627 -1.47402 1.28577 0
M  V30 2153 O 200.833 -2.13599 1.67593 0
M  V30 2154 C 199.289 -0.382595 3.57861 0
M  V30 2155 C 198.897 0.892202 4.39026 0
M  V30 2156 C 200.641 -0.9202 4.14406 0
M  V30 2157 C 198.548 0.66388 5.87662 0
M  V30 2158 H 197.478 -0.0734041 0.750418 0
M  V30 2159 H 200.129 0.518552 1.76021 0
M  V30 2160 H 198.511 -1.14946 3.7895 0
M  V30 2161 H 199.685 1.66414 4.29701 0
M  V30 2162 H 198 1.35519 3.9373 0
M  V30 2163 H 200.597 -1.10683 5.23119 0
M  V30 2164 H 200.94 -1.89096 3.70875 0
M  V30 2165 H 201.473 -0.212751 3.97231 0
M  V30 2166 H 198.212 1.6058 6.35527 0
M  V30 2167 H 197.732 -0.0690193 5.9976 0
M  V30 2168 H 199.411 0.300699 6.46301 0
M  V30 2169 N 199.544 -1.57102 0.125237 0
M  V30 2170 C 200.492 -2.16905 -0.839927 0
M  V30 2171 C 201.486 -1.11998 -1.27094 0
M  V30 2172 O 202.692 -1.3029 -1.24195 0
M  V30 2173 H 199.067 -0.694252 -0.288995 0
M  V30 2174 H 201.038 -2.96774 -0.311115 0
M  V30 2175 C 199.787 -2.78795 -2.07771 0
M  V30 2176 H 199.11 -3.59221 -1.755 0
M  V30 2177 H 200.55 -3.2417 -2.73295 0
M  V30 2178 C 199.009 -1.76193 -2.87155 0
M  V30 2179 O 199.539 -1.21909 -3.82755 0
M  V30 2180 N 197.745 -1.45991 -2.51267 0
M  V30 2181 H 197.292 -1.90325 -1.73592 0
M  V30 2182 H 197.25 -0.775844 -3.04677 0
M  V30 2183 N 201.022 0.148545 -1.56898 0
M  V30 2184 C 202.268 0.862694 -1.83536 0
M  V30 2185 C 202.601 1.80889 -0.706604 0
M  V30 2186 O 201.876 1.92328 0.289885 0
M  V30 2187 C 202.159 1.63853 -3.20662 0
M  V30 2188 C 202.012 0.713925 -4.44098 0
M  V30 2189 C 203.331 2.60133 -3.54991 0
M  V30 2190 H 200.45 0.312179 -0.667618 0
M  V30 2191 H 203.092 0.127953 -1.89569 0
M  V30 2192 H 201.242 2.26489 -3.1565 0
M  V30 2193 H 202.914 0.098686 -4.61194 0
M  V30 2194 H 201.157 0.0234019 -4.33794 0
M  V30 2195 H 201.828 1.29278 -5.36648 0
M  V30 2196 H 204.304 2.07616 -3.60603 0
M  V30 2197 H 203.18 3.11468 -4.51972 0
M  V30 2198 H 203.441 3.41417 -2.80868 0
M  V30 2199 N 202.5 1.5196 0.417844 0
M  V30 2200 C 203.749 1.6482 1.16264 0
M  V30 2201 C 204.062 0.379886 1.91876 0
M  V30 2202 O 205.268 0.388154 2.68711 0
M  V30 2203 C 203.724 2.91161 2.1155 0
M  V30 2204 C 203.332 4.25068 1.41495 0
M  V30 2205 C 205.076 3.13383 2.86341 0
M  V30 2206 C 202.983 5.42541 2.35379 0
M  V30 2207 H 201.913 0.613954 0.437694 0
M  V30 2208 H 204.564 1.78442 0.427871 0
M  V30 2209 H 202.946 2.71218 2.88543 0
M  V30 2210 H 204.12 4.55463 0.699263 0
M  V30 2211 H 202.435 4.0888 0.787792 0
M  V30 2212 H 205.032 3.98324 3.5671 0
M  V30 2213 H 205.375 2.27256 3.48798 0
M  V30 2214 H 205.908 3.33757 2.1645 0
M  V30 2215 H 202.647 6.30987 1.77582 0
M  V30 2216 H 202.167 5.16497 3.04945 0
M  V30 2217 H 203.846 5.75272 2.96093 0
M  V30 2218 N 203.978 -0.674533 1.42435 0
M  V30 2219 C 204.91 -1.80005 1.41883 0
M  V30 2220 C 205.923 -1.59667 0.31787 0
M  V30 2221 O 207.112 -1.68781 0.580973 0
M  V30 2222 C 204.212 -3.17114 1.19549 0
M  V30 2223 C 203.385 -3.64299 2.42084 0
M  V30 2224 C 202.444 -4.80142 2.15291 0
M  V30 2225 O 201.47 -4.90673 2.88493 0
M  V30 2226 N 202.672 -5.68869 1.1562 0
M  V30 2227 H 205.437 -1.80964 2.38898 0
M  V30 2228 H 202.998 -0.857633 1.37318 0
M  V30 2229 H 204.99 -3.92267 0.995417 0
M  V30 2230 H 203.56 -3.11053 0.310569 0
M  V30 2231 H 202.78 -2.79822 2.77657 0
M  V30 2232 H 204.068 -3.92567 3.23679 0
M  V30 2233 H 203.466 -5.63012 0.550765 0
M  V30 2234 H 202.023 -6.43833 1.016 0
M  V30 2235 N 205.456 -1.28612 -0.910864 0
M  V30 2236 C 206.867 -1.14406 -1.47541 0
M  V30 2237 C 207.218 0.264901 -1.94403 0
M  V30 2238 O 206.343 1.15942 -1.82719 0
M  V30 2239 C 206.938 -2.07073 -2.68153 0
M  V30 2240 C 205.497 -1.96923 -3.20778 0
M  V30 2241 C 204.644 -1.98646 -1.93481 0
M  V30 2242 H 207.595 -1.41259 -0.723291 0
M  V30 2243 H 207.616 -1.63642 -3.43514 0
M  V30 2244 H 207.128 -3.09611 -2.34015 0
M  V30 2245 H 205.229 -0.97433 -3.59635 0
M  V30 2246 H 205.342 -2.84026 -3.85832 0
M  V30 2247 H 203.706 -1.43093 -2.10705 0
M  V30 2248 H 204.489 -3.02868 -1.61634 0
M  V30 2249 N 206.934 1.1197 -1.10907 0
M  V30 2250 C 208.211 1.79959 -0.766432 0
M  V30 2251 C 208.591 1.97466 0.746363 0
M  V30 2252 O 207.939 1.55491 1.67436 0
M  V30 2253 C 208.149 3.14009 -1.52314 0
M  V30 2254 C 209.497 3.89134 -1.69883 0
M  V30 2255 O 210.521 3.2368 -1.48692 0
M  V30 2256 O 209.38 5.06572 -2.05054 0
M  V30 2257 H 206.474 0.779208 -0.277062 0
M  V30 2258 H 209.02 1.18762 -1.21217 0
M  V30 2259 H 207.792 2.96587 -2.55249 0
M  V30 2260 H 207.415 3.82915 -1.07059 0
M  V30 2261 N 208.412 0.89855 1.29475 0
M  V30 2262 C 209.66 0.522847 1.9522 0
M  V30 2263 C 209.981 -0.93371 1.71192 0
M  V30 2264 O 209.251 -1.65823 1.04305 0
M  V30 2265 H 207.831 0.190366 0.722336 0
M  V30 2266 H 210.493 1.14459 1.5775 0
M  V30 2267 H 209.589 0.704476 3.04045 0
M  V30 2268 N 209.89 -1.43072 0.660911 0
M  V30 2269 C 211.115 -2.06584 0.183805 0
M  V30 2270 C 211.54 -1.49257 -1.14472 0
M  V30 2271 O 210.898 -0.605528 -1.70889 0
M  V30 2272 C 210.946 -3.60418 0.114434 0
M  V30 2273 O 210.05 -4.01981 -0.921137 0
M  V30 2274 H 209.391 -0.656669 0.0983994 0
M  V30 2275 H 211.921 -1.83447 0.906006 0
M  V30 2276 H 211.931 -4.07946 -0.0663394 0
M  V30 2277 H 210.606 -4.01519 1.08422 0
M  V30 2278 H 209.183 -3.66029 -0.71253 0
M  V30 2279 N 211.368 -0.403325 -1.52352 0
M  V30 2280 C 212.598 0.17376 -2.05868 0
M  V30 2281 C 213.006 1.39898 -1.27378 0
M  V30 2282 O 212.349 1.80939 -0.31729 0
M  V30 2283 C 212.411 0.594756 -3.54546 0
M  V30 2284 C 212.075 -0.518926 -4.54044 0
M  V30 2285 C 213.072 -1.3807 -5.01231 0
M  V30 2286 C 210.757 -0.689961 -4.97539 0
M  V30 2287 C 212.751 -2.39852 -5.90551 0
M  V30 2288 C 210.438 -1.71109 -5.86656 0
M  V30 2289 C 211.436 -2.56378 -6.33056 0
M  V30 2290 O 211.124 -3.56743 -7.20409 0
M  V30 2291 H 210.856 0.0264951 -0.675481 0
M  V30 2292 H 213.41 -0.571179 -1.97299 0
M  V30 2293 H 211.64 1.39189 -3.60782 0
M  V30 2294 H 213.329 1.0991 -3.90736 0
M  V30 2295 H 214.095 -1.25994 -4.68349 0
M  V30 2296 H 209.974 -0.035939 -4.60986 0
M  V30 2297 H 213.518 -3.06441 -6.26689 0
M  V30 2298 H 209.415 -1.83218 -6.18952 0
M  V30 2299 H 210.183 -3.52918 -7.38506 0
M  V30 2300 N 212.846 1.57033 -0.133567 0
M  V30 2301 C 214.262 1.58035 0.222944 0
M  V30 2302 C 214.462 1.14713 1.6566 0
M  V30 2303 O 213.518 0.841218 2.38075 0
M  V30 2304 C 214.831 3.00691 -0.0236116 0
M  V30 2305 C 216.379 3.12973 0.0411512 0
M  V30 2306 C 216.854 4.57654 -0.177899 0
M  V30 2307 N 218.345 4.63033 -0.124365 0
M  V30 2308 C 219.08 5.72771 -0.268553 0
M  V30 2309 N 218.576 6.91206 -0.46972 0
M  V30 2310 N 220.369 5.61718 -0.2071 0
M  V30 2311 H 212.52 1.8349 -1.06981 0
M  V30 2312 H 214.783 0.848677 -0.422436 0
M  V30 2313 H 214.489 3.36726 -1.0153 0
M  V30 2314 H 214.363 3.70614 0.701808 0
M  V30 2315 H 216.75 2.76787 1.02338 0
M  V30 2316 H 216.831 2.45564 -0.716383 0
M  V30 2317 H 216.475 4.94542 -1.15717 0
M  V30 2318 H 216.405 5.23173 0.599797 0
M  V30 2319 H 218.896 3.7789 0.027011 0
M  V30 2320 H 219.209 7.70693 -0.570212 0
M  V30 2321 H 217.554 6.93156 -0.505876 0
M  V30 2322 H 220.745 4.68072 -0.0507986 0
M  V30 2323 H 220.918 6.47195 -0.322909 0
M  V30 2324 N 214.325 -0.140222 1.56975 0
M  V30 2325 C 215.55 -0.870414 1.88251 0
M  V30 2326 C 215.975 -1.73637 0.723312 0
M  V30 2327 O 215.333 -1.78329 -0.32689 0
M  V30 2328 C 215.381 -1.69737 3.18154 0
M  V30 2329 O 214.485 -2.80229 3.02565 0
M  V30 2330 H 213.826 -0.242025 0.61832 0
M  V30 2331 H 216.356 -0.128999 2.04193 0
M  V30 2332 H 216.366 -2.09099 3.50345 0
M  V30 2333 H 215.041 -1.06152 4.02125 0
M  V30 2334 H 213.618 -2.44224 2.81796 0
M  V30 2335 N 215.803 -1.52179 -0.40978 0
M  V30 2336 C 216.713 -1.78364 -1.52392 0
M  V30 2337 C 217.729 -0.669183 -1.60617 0
M  V30 2338 O 218.905 -0.954518 -1.77344 0
M  V30 2339 C 215.97 -1.92822 -2.88133 0
M  V30 2340 C 215.031 -3.16725 -2.898 0
M  V30 2341 C 214.264 -3.30483 -4.19067 0
M  V30 2342 O 214.487 -2.49522 -5.12928 0
M  V30 2343 O 213.421 -4.2363 -4.27576 0
M  V30 2344 H 217.247 -2.72931 -1.33201 0
M  V30 2345 H 214.832 -1.37016 -0.59557 0
M  V30 2346 H 216.714 -2.04157 -3.68643 0
M  V30 2347 H 215.389 -1.01444 -3.07393 0
M  V30 2348 H 214.296 -3.10848 -2.08146 0
M  V30 2349 H 215.629 -4.07881 -2.75489 0
M  V30 2350 N 217.281 0.66697 -1.42791 0
M  V30 2351 C 218.191 1.80962 -1.49299 0
M  V30 2352 C 219.207 1.69775 -0.381108 0
M  V30 2353 O 220.383 1.91188 -0.633188 0
M  V30 2354 C 217.448 3.17156 -1.40045 0
M  V30 2355 C 216.509 3.40242 -2.6179 0
M  V30 2356 C 215.742 4.69939 -2.52969 0
M  V30 2357 O 215.965 5.48372 -1.56985 0
M  V30 2358 O 214.899 4.94441 -3.43237 0
M  V30 2359 H 218.725 1.78427 -2.45759 0
M  V30 2360 H 216.31 0.823713 -1.24641 0
M  V30 2361 H 218.192 3.98413 -1.37276 0
M  V30 2362 H 216.867 3.20312 -0.467138 0
M  V30 2363 H 215.774 2.58802 -2.70134 0
M  V30 2364 H 217.107 3.41923 -3.54047 0
M  V30 2365 N 218.759 1.29093 0.90403 0
M  V30 2366 C 219.689 1.16401 2.02418 0
M  V30 2367 C 220.67 0.0593085 1.69997 0
M  V30 2368 O 221.855 0.238021 1.92736 0
M  V30 2369 C 218.985 0.835233 3.37107 0
M  V30 2370 C 217.939 1.89578 3.83724 0
M  V30 2371 C 217.265 1.42041 5.15489 0
M  V30 2372 C 218.565 3.30394 4.04521 0
M  V30 2373 H 220.259 2.10109 2.13295 0
M  V30 2374 H 217.805 1.01157 1.02486 0
M  V30 2375 H 219.758 0.733169 4.14973 0
M  V30 2376 H 218.482 -0.137543 3.2631 0
M  V30 2377 H 217.141 1.98715 3.08071 0
M  V30 2378 H 216.789 0.436426 5.01103 0
M  V30 2379 H 216.489 2.12964 5.4765 0
M  V30 2380 H 218.013 1.33176 5.959 0
M  V30 2381 H 219.427 3.24123 4.72882 0
M  V30 2382 H 217.824 3.99237 4.48029 0
M  V30 2383 H 218.894 3.73692 3.09002 0
M  V30 2384 N 220.237 -1.11381 1.11499 0
M  V30 2385 C 221.185 -2.19522 0.768956 0
M  V30 2386 C 222.179 -1.67693 -0.239857 0
M  V30 2387 O 223.385 -1.79727 -0.0990755 0
M  V30 2388 H 219.76 -0.715711 0.230786 0
M  V30 2389 H 221.731 -2.45954 1.68964 0
M  V30 2390 C 220.48 -3.46945 0.229073 0
M  V30 2391 H 219.803 -3.8718 0.996596 0
M  V30 2392 H 221.243 -4.23993 0.0251441 0
M  V30 2393 C 219.702 -3.2042 -1.04079 0
M  V30 2394 O 220.232 -3.41178 -2.12038 0
M  V30 2395 N 218.438 -2.74151 -0.963823 0
M  V30 2396 H 217.985 -2.57459 -0.0851722 0
M  V30 2397 H 217.943 -2.56781 -1.81414 0
M  V30 2398 N 221.715 -0.905404 -1.28997 0
M  V30 2399 C 222.645 -0.404212 -2.29975 0
M  V30 2400 C 223.626 0.523784 -1.61835 0
M  V30 2401 O 224.811 0.433298 -1.89304 0
M  V30 2402 C 221.941 0.364042 -3.45387 0
M  V30 2403 C 220.895 -0.474048 -4.25367 0
M  V30 2404 C 220.221 0.422045 -5.33032 0
M  V30 2405 C 221.521 -1.72696 -4.92923 0
M  V30 2406 H 223.215 -1.24807 -2.72146 0
M  V30 2407 H 220.761 -0.601585 -1.30832 0
M  V30 2408 H 222.714 0.725447 -4.15109 0
M  V30 2409 H 221.438 1.24174 -3.02074 0
M  V30 2410 H 220.097 -0.81786 -3.57361 0
M  V30 2411 H 219.745 1.29804 -4.85963 0
M  V30 2412 H 219.445 -0.135057 -5.87445 0
M  V30 2413 H 220.969 0.779517 -6.05604 0
M  V30 2414 H 222.383 -1.43495 -5.55051 0
M  V30 2415 H 220.78 -2.22582 -5.57295 0
M  V30 2416 H 221.85 -2.45964 -4.17887 0
M  V30 2417 N 223.193 1.4272 -0.668489 0
M  V30 2418 C 224.439 2.01923 -0.188419 0
M  V30 2419 C 224.772 1.52704 1.19979 0
M  V30 2420 O 224.047 0.726566 1.8042 0
M  V30 2421 C 224.33 3.59451 -0.216085 0
M  V30 2422 C 224.183 4.18864 -1.6393 0
M  V30 2423 C 225.502 4.37903 0.439179 0
M  V30 2424 H 222.621 0.733674 -0.0699412 0
M  V30 2425 H 225.263 1.69822 -0.852076 0
M  V30 2426 H 223.413 3.86929 0.349012 0
M  V30 2427 H 225.085 4.02362 -2.25616 0
M  V30 2428 H 223.328 3.74933 -2.18193 0
M  V30 2429 H 223.999 5.27987 -1.61039 0
M  V30 2430 H 226.475 4.16079 -0.0417878 0
M  V30 2431 H 225.351 5.47519 0.389157 0
M  V30 2432 H 225.612 4.15303 1.51577 0
M  V30 2433 N 224.671 0.411399 1.52136 0
M  V30 2434 C 225.92 -0.165009 2.01024 0
M  V30 2435 C 226.233 -1.4603 1.30133 0
M  V30 2436 O 227.439 -2.1181 1.69849 0
M  V30 2437 C 225.895 -0.344618 3.58246 0
M  V30 2438 C 225.503 0.938716 4.38055 0
M  V30 2439 C 227.247 -0.876195 4.15359 0
M  V30 2440 C 225.154 0.726172 5.86925 0
M  V30 2441 H 224.084 -0.0654407 0.751155 0
M  V30 2442 H 226.735 0.537192 1.75461 0
M  V30 2443 H 225.117 -1.10921 3.80148 0
M  V30 2444 H 226.291 1.70963 4.27912 0
M  V30 2445 H 224.606 1.39688 3.92271 0
M  V30 2446 H 227.203 -1.05128 5.24263 0
M  V30 2447 H 227.546 -1.85152 3.7286 0
M  V30 2448 H 228.079 -0.170607 3.97434 0
M  V30 2449 H 224.818 1.67312 6.33788 0
M  V30 2450 H 224.338 -0.00540283 5.998 0
M  V30 2451 H 226.017 0.369231 6.45946 0
M  V30 2452 N 226.149 -1.5696 0.141893 0
M  V30 2453 C 227.398 -1.95135 -0.510427 0
M  V30 2454 C 227.711 -1.02896 -1.66348 0
M  V30 2455 O 228.917 -1.30629 -2.38009 0
M  V30 2456 C 227.373 -3.46876 -0.959427 0
M  V30 2457 C 226.981 -4.47691 0.166419 0
M  V30 2458 C 228.725 -3.93927 -1.58183 0
M  V30 2459 C 226.632 -5.90636 -0.300565 0
M  V30 2460 H 225.562 -0.728494 -0.194454 0
M  V30 2461 H 228.213 -1.8211 0.22542 0
M  V30 2462 H 226.595 -3.55215 -1.75038 0
M  V30 2463 H 227.769 -4.51043 0.94325 0
M  V30 2464 H 226.084 -4.10527 0.696905 0
M  V30 2465 H 228.681 -4.98158 -1.94275 0
M  V30 2466 H 229.024 -3.3519 -2.46888 0
M  V30 2467 H 229.557 -3.88484 -0.855863 0
M  V30 2468 H 226.296 -6.5318 0.550989 0
M  V30 2469 H 225.816 -5.90655 -1.04338 0
M  V30 2470 H 227.495 -6.42588 -0.754265 0
M  V30 2471 N 227.627 0.131896 -1.57047 0
M  V30 2472 C 228.875 0.840269 -1.83804 0
M  V30 2473 C 229.196 1.81017 -0.72512 0
M  V30 2474 O 228.466 1.94272 0.251995 0
M  V30 2475 H 227.046 0.313294 -0.678127 0
M  V30 2476 H 229.708 0.122294 -1.94516 0
M  V30 2477 H 228.804 1.39335 -2.79271 0
M  V30 2478 N 229.106 1.52395 0.401703 0
M  V30 2479 C 230.517 1.58899 0.980202 0
M  V30 2480 C 230.868 0.434032 1.91339 0
M  V30 2481 O 229.993 -0.444619 2.11783 0
M  V30 2482 C 230.588 2.87994 1.78451 0
M  V30 2483 C 229.147 2.96953 2.31292 0
M  V30 2484 C 228.294 2.53903 1.11483 0
M  V30 2485 H 231.245 1.57657 0.18168 0
M  V30 2486 H 231.266 2.73765 2.64259 0
M  V30 2487 H 230.778 3.72035 1.10506 0
M  V30 2488 H 228.879 2.17422 3.02586 0
M  V30 2489 H 228.992 4.01344 2.61649 0
M  V30 2490 H 227.356 2.07925 1.47104 0
M  V30 2491 H 228.139 3.40326 0.450928 0
M  V30 2492 N 230.584 -0.659388 1.43143 0
M  V30 2493 C 231.809 -1.45221 1.48073 0
M  V30 2494 C 232.234 -1.87845 0.097995 0
M  V30 2495 O 231.592 -1.56985 -0.90694 0
M  V30 2496 C 231.64 -2.66748 2.42647 0
M  V30 2497 O 230.744 -3.65583 1.90848 0
M  V30 2498 H 230.085 -0.435669 0.501088 0
M  V30 2499 H 232.615 -0.807432 1.87994 0
M  V30 2500 H 232.625 -3.14637 2.59745 0
M  V30 2501 H 231.3 -2.35067 3.43098 0
M  V30 2502 H 229.877 -3.24693 1.83381 0
M  V30 2503 N 232.062 -1.29571 -0.897171 0
M  V30 2504 C 233.025 -1.14913 -1.98312 0
M  V30 2505 C 234.025 -0.0838629 -1.60581 0
M  V30 2506 O 235.215 -0.331006 -1.71026 0
M  V30 2507 C 232.347 -0.757835 -3.3237 0
M  V30 2508 H 233.54 -2.11377 -2.12743 0
M  V30 2509 H 231.093 -1.12793 -1.08201 0
M  V30 2510 H 231.828 0.206837 -3.2364 0
M  V30 2511 H 231.613 -1.52755 -3.61121 0
M  V30 2512 H 233.103 -0.678408 -4.12053 0
M  V30 2513 N 233.54 1.10788 -1.12088 0
M  V30 2514 C 234.817 1.79136 -0.785476 0
M  V30 2515 C 235.197 1.98246 0.725377 0
M  V30 2516 O 234.545 1.57258 1.65778 0
M  V30 2517 C 234.755 3.12375 -1.55636 0
M  V30 2518 C 236.103 3.8731 -1.74001 0
M  V30 2519 O 237.127 3.22085 -1.52117 0
M  V30 2520 O 235.986 5.04369 -2.10415 0
M  V30 2521 H 233.08 0.776226 -0.285311 0
M  V30 2522 H 235.626 1.1747 -1.2247 0
M  V30 2523 H 234.398 2.93863 -2.5838 0
M  V30 2524 H 234.021 3.81758 -1.11114 0
M  V30 2525 N 235.018 0.912232 1.28515 0
M  V30 2526 C 236.267 0.540504 1.94323 0
M  V30 2527 C 236.58 -0.920044 1.72611 0
M  V30 2528 O 237.786 -1.39986 2.32629 0
M  V30 2529 C 236.242 0.915803 3.48053 0
M  V30 2530 C 235.85 2.39598 3.78546 0
M  V30 2531 C 237.594 0.614588 4.20027 0
M  V30 2532 C 235.501 2.71148 5.25578 0
M  V30 2533 H 234.431 0.198418 0.727424 0
M  V30 2534 H 237.082 1.11094 1.46049 0
M  V30 2535 H 235.464 0.274168 3.9505 0
M  V30 2536 H 236.638 3.08422 3.42364 0
M  V30 2537 H 234.953 2.66749 3.1974 0
M  V30 2538 H 237.55 0.827002 5.28266 0
M  V30 2539 H 237.893 -0.447531 4.13887 0
M  V30 2540 H 238.426 1.21462 3.78803 0
M  V30 2541 H 235.165 3.76207 5.36794 0
M  V30 2542 H 234.685 2.0696 5.62963 0
M  V30 2543 H 236.364 2.58072 5.93302 0
M  V30 2544 N 236.496 -1.42363 0.676048 0
M  V30 2545 C 237.745 -2.00745 0.196037 0
M  V30 2546 C 238.058 -1.54083 -1.20489 0
M  V30 2547 O 239.264 -2.04891 -1.78134 0
M  V30 2548 C 237.72 -3.58651 0.299616 0
M  V30 2549 C 237.328 -4.143 1.70468 0
M  V30 2550 C 239.072 -4.24326 -0.121619 0
M  V30 2551 C 236.979 -5.64574 1.76096 0
M  V30 2552 H 235.909 -0.750787 0.0695301 0
M  V30 2553 H 238.56 -1.63072 0.841412 0
M  V30 2554 H 236.942 -3.93833 -0.413673 0
M  V30 2555 H 238.116 -3.90575 2.44515 0
M  V30 2556 H 236.431 -3.61081 2.07387 0
M  V30 2557 H 239.028 -5.34607 -0.0997362 0
M  V30 2558 H 239.371 -3.99897 -1.15708 0
M  V30 2559 H 239.904 -3.94108 0.540706 0
M  V30 2560 H 236.643 -5.93804 2.77628 0
M  V30 2561 H 236.163 -5.90286 1.06406 0
M  V30 2562 H 237.842 -6.29013 1.51496 0
M  V30 2563 N 237.974 -0.419461 -1.51915 0
M  V30 2564 C 238.906 0.43646 -2.25006 0
M  V30 2565 C 239.919 1.00149 -1.28351 0
M  V30 2566 O 241.108 0.898674 -1.54227 0
M  V30 2567 C 238.208 1.6206 -2.9764 0
M  V30 2568 C 237.381 1.17763 -4.21249 0
M  V30 2569 C 236.44 2.22985 -4.76617 0
M  V30 2570 O 235.466 1.83151 -5.38929 0
M  V30 2571 N 236.668 3.55271 -4.59089 0
M  V30 2572 H 239.433 -0.18989 -2.99098 0
M  V30 2573 H 236.994 -0.247386 -1.59999 0
M  V30 2574 H 238.986 2.32038 -3.31573 0
M  V30 2575 H 237.556 2.15266 -2.2667 0
M  V30 2576 H 236.776 0.305582 -3.93014 0
M  V30 2577 H 238.064 0.858781 -5.015 0
M  V30 2578 H 237.462 3.90377 -4.09417 0
M  V30 2579 H 236.019 4.21195 -4.97432 0
M  V30 2580 N 239.452 1.56882 -0.150215 0
M  V30 2581 C 240.699 1.96228 0.500093 0
M  V30 2582 C 241.027 1.03522 1.64661 0
M  V30 2583 O 240.282 0.0650683 1.95592 0
M  V30 2584 C 240.581 3.41801 1.04437 0
M  V30 2585 C 240.247 4.50897 0.0159671 0
M  V30 2586 C 238.909 4.8046 -0.266731 0
M  V30 2587 C 241.261 5.16703 -0.683192 0
M  V30 2588 C 238.589 5.73135 -1.25434 0
M  V30 2589 C 240.941 6.10441 -1.65964 0
M  V30 2590 C 239.605 6.38382 -1.95 0
M  V30 2591 H 238.875 0.718048 0.182997 0
M  V30 2592 H 241.522 1.90019 -0.237724 0
M  V30 2593 H 239.827 3.44857 1.85959 0
M  V30 2594 H 241.524 3.69573 1.55618 0
M  V30 2595 H 238.114 4.27891 0.246485 0
M  V30 2596 H 242.298 4.93993 -0.477983 0
M  V30 2597 H 237.554 5.93074 -1.48571 0
M  V30 2598 H 241.728 6.60507 -2.20689 0
M  V30 2599 H 239.355 7.09996 -2.71679 0
M  V30 2600 N 240.93 -0.123565 1.57115 0
M  V30 2601 C 241.84 -1.17074 2.033 0
M  V30 2602 C 242.856 -1.4561 0.952559 0
M  V30 2603 O 244.032 -1.56817 1.26374 0
M  V30 2604 C 241.097 -2.47857 2.42421 0
M  V30 2605 C 240.158 -2.26758 3.64526 0
M  V30 2606 C 239.391 -3.51305 4.01771 0
M  V30 2607 O 239.614 -4.5843 3.39409 0
M  V30 2608 O 238.548 -3.42578 4.94898 0
M  V30 2609 H 242.374 -0.808555 2.92739 0
M  V30 2610 H 239.959 -0.334027 1.45618 0
M  V30 2611 H 241.841 -3.2492 2.68338 0
M  V30 2612 H 240.516 -2.83558 1.5613 0
M  V30 2613 H 239.423 -1.47569 3.43765 0
M  V30 2614 H 240.756 -1.95963 4.51508 0
M  V30 2615 N 242.408 -1.52605 -0.393616 0
M  V30 2616 C 243.648 -1.6911 -1.1481 0
M  V30 2617 C 244.012 -0.41969 -1.87357 0
M  V30 2618 O 245.213 -0.461034 -2.64817 0
M  V30 2619 C 243.484 -2.88909 -2.10395 0
M  V30 2620 S 245.043 -3.25977 -2.93742 0
M  V30 2621 H 241.861 -0.595337 -0.38871 0
M  V30 2622 H 244.463 -1.90641 -0.433178 0
M  V30 2623 H 243.167 -3.79672 -1.55812 0
M  V30 2624 H 242.698 -2.69698 -2.86403 0
M  V30 2625 H 244.713 -2.75806 -4.12487 0
M  V30 2626 N 243.887 0.651787 -1.4349 0
M  V30 2627 C 244.834 1.76462 -1.4876 0
M  V30 2628 C 245.804 1.62641 -0.337189 0
M  V30 2629 O 246.989 1.82864 -0.544544 0
M  V30 2630 C 244.129 3.14623 -1.41796 0
M  V30 2631 C 243.242 3.39568 -2.67053 0
M  V30 2632 C 242.377 4.67585 -2.52068 0
M  V30 2633 C 241.416 4.85639 -3.72587 0
M  V30 2634 N 240.553 6.04915 -3.56402 0
M  V30 2635 H 245.393 1.71293 -2.43849 0
M  V30 2636 H 242.93 0.835889 -1.21043 0
M  V30 2637 H 244.888 3.94496 -1.35753 0
M  V30 2638 H 243.518 3.18859 -0.50288 0
M  V30 2639 H 242.57 2.53783 -2.8337 0
M  V30 2640 H 243.882 3.48795 -3.56572 0
M  V30 2641 H 243.036 5.55586 -2.4374 0
M  V30 2642 H 241.775 4.60681 -1.60075 0
M  V30 2643 H 240.78 3.96073 -3.81321 0
M  V30 2644 H 242.005 4.94372 -4.65589 0
M  V30 2645 H 239.951 5.9914 -2.67146 0
M  V30 2646 H 239.868 6.15106 -4.39524 0
M  V30 2647 H 241.136 6.95533 -3.51929 0
M  V30 2648 N 245.365 1.30045 0.890287 0
M  V30 2649 C 246.59 1.21598 1.68014 0
M  V30 2650 C 247.015 -0.218678 1.86825 0
M  V30 2651 O 246.373 -1.15756 1.39536 0
M  V30 2652 C 246.421 1.94434 3.03691 0
M  V30 2653 O 245.525 1.2678 3.92429 0
M  V30 2654 H 244.866 0.420856 0.513592 0
M  V30 2655 H 247.396 1.71775 1.11151 0
M  V30 2656 H 247.406 2.03251 3.5377 0
M  V30 2657 H 246.081 2.98777 2.89318 0
M  V30 2658 H 244.658 1.26282 3.50866 0
M  V30 2659 N 246.843 -1.10192 1.12674 0
M  V30 2660 C 248.09 -1.82205 0.883606 0
M  V30 2661 C 248.418 -1.8532 -0.590492 0
M  V30 2662 O 247.673 -1.31137 -1.45264 0
M  V30 2663 C 247.972 -3.28552 1.4067 0
M  V30 2664 C 247.638 -3.45582 2.89627 0
M  V30 2665 C 246.3 -3.49937 3.30299 0
M  V30 2666 C 248.652 -3.50768 3.85501 0
M  V30 2667 C 245.98 -3.57049 4.65546 0
M  V30 2668 C 248.332 -3.59414 5.20581 0
M  V30 2669 C 246.996 -3.62034 5.60792 0
M  V30 2670 H 246.266 -0.666735 0.323334 0
M  V30 2671 H 248.913 -1.29868 1.40736 0
M  V30 2672 H 247.218 -3.83473 0.80347 0
M  V30 2673 H 248.915 -3.82788 1.19475 0
M  V30 2674 H 245.505 -3.42871 2.57172 0
M  V30 2675 H 249.689 -3.46651 3.55171 0
M  V30 2676 H 244.945 -3.57361 4.96088 0
M  V30 2677 H 249.119 -3.62371 5.94693 0
M  V30 2678 H 246.746 -3.67298 6.6558 0
M  V30 2679 N 248.321 -0.919034 -1.28029 0
M  V30 2680 C 249.569 -0.553838 -1.94363 0
M  V30 2681 C 249.89 0.906357 -1.72656 0
M  V30 2682 O 249.16 1.64143 -1.0693 0
M  V30 2683 H 247.74 -0.201834 -0.719216 0
M  V30 2684 H 250.402 -1.16954 -1.55909 0
M  V30 2685 H 249.498 -0.752758 -3.02886 0
M  V30 2686 N 249.799 1.42003 -0.683588 0
M  V30 2687 C 250.749 2.27997 0.0121992 0
M  V30 2688 C 251.733 1.4156 0.764822 0
M  V30 2689 O 252.925 1.64935 0.642287 0
M  V30 2690 C 250.054 3.29706 0.956482 0
M  V30 2691 C 249.14 4.23625 0.200739 0
M  V30 2692 N 249.531 4.99448 -0.799087 0
M  V30 2693 C 247.829 4.43845 0.437937 0
M  V30 2694 C 248.53 5.68102 -1.25041 0
M  V30 2695 N 247.506 5.40511 -0.578648 0
M  V30 2696 H 251.308 2.84048 -0.754564 0
M  V30 2697 H 248.822 1.54071 -0.513398 0
M  V30 2698 H 250.819 3.90124 1.47 0
M  V30 2699 H 249.479 2.75216 1.72297 0
M  V30 2700 H 250.49 5.04303 -1.17893 0
M  V30 2701 H 247.167 4.00382 1.18325 0
M  V30 2702 H 248.557 6.38913 -2.07942 0
M  V30 2703 N 251.277 0.427512 1.51691 0
M  V30 2704 C 252.187 -0.39527 2.31246 0
M  V30 2705 C 253.203 -1.03674 1.39742 0
M  V30 2706 O 254.379 -1.03425 1.72816 0
M  V30 2707 C 251.444 -1.48706 3.13189 0
M  V30 2708 C 250.505 -0.866743 4.20459 0
M  V30 2709 C 249.738 -1.90651 4.98486 0
M  V30 2710 O 249.961 -3.12733 4.77026 0
M  V30 2711 O 248.895 -1.5025 5.82845 0
M  V30 2712 H 252.721 0.253918 3.02637 0
M  V30 2713 H 250.306 0.190274 1.48183 0
M  V30 2714 H 252.188 -2.12047 3.64162 0
M  V30 2715 H 250.863 -2.12051 2.44573 0
M  V30 2716 H 249.77 -0.195544 3.73589 0
M  V30 2717 H 251.103 -0.276934 4.9142 0
M  V30 2718 N 252.755 -1.56801 0.158532 0
M  V30 2719 C 254.001 -1.96781 -0.490405 0
M  V30 2720 C 254.334 -1.04397 -1.63753 0
M  V30 2721 O 253.609 -0.0885805 -1.94298 0
M  V30 2722 C 253.892 -3.4635 -0.985594 0
M  V30 2723 C 253.745 -4.49512 0.160824 0
M  V30 2724 C 255.064 -3.98697 -1.86355 0
M  V30 2725 H 252.183 -0.715482 -0.176788 0
M  V30 2726 H 254.825 -1.88451 0.242088 0
M  V30 2727 H 252.975 -3.53579 -1.60978 0
M  V30 2728 H 254.647 -4.54353 0.797537 0
M  V30 2729 H 252.89 -4.26013 0.818256 0
M  V30 2730 H 253.561 -5.51531 -0.227569 0
M  V30 2731 H 256.037 -3.94019 -1.33746 0
M  V30 2732 H 254.913 -5.03792 -2.17909 0
M  V30 2733 H 255.174 -3.41744 -2.8047 0
M  V30 2734 N 254.233 0.115231 -1.57178 0
M  V30 2735 C 255.163 1.1423 -2.03651 0
M  V30 2736 C 256.144 1.42967 -0.921655 0
M  V30 2737 O 257.329 1.53343 -1.19162 0
M  V30 2738 C 254.459 2.4675 -2.44401 0
M  V30 2739 C 253.413 2.32467 -3.59365 0
M  V30 2740 C 252.739 3.69984 -3.86026 0
M  V30 2741 C 254.039 1.78203 -4.90959 0
M  V30 2742 H 255.733 0.755749 -2.89705 0
M  V30 2743 H 253.279 0.362093 -1.39373 0
M  V30 2744 H 255.232 3.18854 -2.75517 0
M  V30 2745 H 253.956 2.87302 -1.55322 0
M  V30 2746 H 252.615 1.62811 -3.28463 0
M  V30 2747 H 252.263 4.08028 -2.94147 0
M  V30 2748 H 251.963 3.61279 -4.63412 0
M  V30 2749 H 253.487 4.43587 -4.19599 0
M  V30 2750 H 254.901 2.40128 -5.20587 0
M  V30 2751 H 253.298 1.8031 -5.72371 0
M  V30 2752 H 254.368 0.739876 -4.79222 0
M  V30 2753 N 255.711 1.52812 0.385517 0
M  V30 2754 C 256.659 1.78482 1.49155 0
M  V30 2755 C 257.653 0.652914 1.56312 0
M  V30 2756 O 258.859 0.835464 1.59436 0
M  V30 2757 H 255.234 0.5648 0.496493 0
M  V30 2758 H 257.205 2.71095 1.24699 0
M  V30 2759 C 255.954 1.97378 2.86247 0
M  V30 2760 H 255.277 2.83907 2.81491 0
M  V30 2761 H 256.717 2.19327 3.62866 0
M  V30 2762 C 255.176 0.74728 3.28508 0
M  V30 2763 O 255.706 -0.0736232 4.01633 0
M  V30 2764 N 253.912 0.576396 2.84826 0
M  V30 2765 H 253.459 1.24555 2.25486 0
M  V30 2766 H 253.417 -0.24288 3.1346 0
M  V30 2767 N 257.189 -0.644168 1.43834 0
M  V30 2768 C 258.119 -1.76814 1.52509 0
M  V30 2769 C 259.1 -1.65823 0.379052 0
M  V30 2770 O 260.285 -1.84781 0.597466 0
M  V30 2771 C 257.415 -3.15288 1.4564 0
M  V30 2772 C 256.369 -3.41053 2.58586 0
M  V30 2773 C 255.695 -4.79421 2.36769 0
M  V30 2774 C 256.995 -3.34902 4.00797 0
M  V30 2775 H 258.689 -1.69812 2.46586 0
M  V30 2776 H 256.235 -0.815542 1.1868 0
M  V30 2777 H 258.188 -3.93681 1.50311 0
M  V30 2778 H 256.912 -3.23043 0.480725 0
M  V30 2779 H 255.571 -2.65035 2.53282 0
M  V30 2780 H 255.219 -4.83863 1.37424 0
M  V30 2781 H 254.919 -4.9762 3.12487 0
M  V30 2782 H 256.443 -5.6006 2.43238 0
M  V30 2783 H 257.857 -4.03218 4.07539 0
M  V30 2784 H 256.254 -3.64637 4.76613 0
M  V30 2785 H 257.324 -2.32928 4.25291 0
M  V30 2786 N 258.668 -1.30515 -0.883378 0
M  V30 2787 C 259.896 -1.22359 -1.66841 0
M  V30 2788 C 260.311 0.213296 -1.87591 0
M  V30 2789 O 259.668 1.14075 -1.42454 0
M  V30 2790 C 259.719 -1.95011 -3.04389 0
M  V30 2791 O 259.44 -3.3309 -2.84575 0
M  V30 2792 C 260.941 -1.93532 -3.98824 0
M  V30 2793 H 258.161 -0.423371 -0.520575 0
M  V30 2794 H 260.705 -1.72167 -1.10357 0
M  V30 2795 H 258.86 -1.48997 -3.57601 0
M  V30 2796 H 259.274 -3.69907 -3.71846 0
M  V30 2797 H 260.748 -2.48902 -4.92699 0
M  V30 2798 H 261.225 -0.914627 -4.29571 0
M  V30 2799 H 261.831 -2.39364 -3.51547 0
M  V30 2800 N 260.146 1.09593 -1.13257 0
M  V30 2801 C 261.562 1.33775 -0.870423 0
M  V30 2802 C 261.762 1.95327 0.494926 0
M  V30 2803 O 260.818 2.19853 1.2418 0
M  V30 2804 C 262.131 2.25106 -1.99369 0
M  V30 2805 C 263.679 2.3862 -2.02558 0
M  V30 2806 C 264.154 3.33285 -3.14142 0
M  V30 2807 N 265.645 3.40857 -3.13641 0
M  V30 2808 C 266.38 4.14101 -3.96621 0
M  V30 2809 N 265.876 4.90157 -4.8961 0
M  V30 2810 N 267.669 4.09808 -3.84726 0
M  V30 2811 H 259.82 0.680136 -2.01216 0
M  V30 2812 H 262.083 0.362133 -0.876107 0
M  V30 2813 H 261.789 1.87103 -2.97801 0
M  V30 2814 H 261.663 3.25481 -1.90635 0
M  V30 2815 H 264.05 2.75887 -1.0474 0
M  V30 2816 H 264.131 1.38028 -2.15364 0
M  V30 2817 H 263.775 2.96741 -4.12198 0
M  V30 2818 H 263.705 4.33776 -2.98574 0
M  V30 2819 H 266.196 2.86624 -2.46282 0
M  V30 2820 H 266.509 5.4347 -5.49418 0
M  V30 2821 H 264.854 4.89251 -4.93617 0
M  V30 2822 H 268.045 3.4949 -3.11408 0
M  V30 2823 H 268.218 4.66629 -4.49623 0
M  V30 2824 N 261.624 0.925811 1.2754 0
M  V30 2825 C 262.572 0.413897 2.28888 0
M  V30 2826 C 263.566 -0.500779 1.61829 0
M  V30 2827 O 264.772 -0.38069 1.75928 0
M  V30 2828 H 261.147 0.115274 0.743112 0
M  V30 2829 H 263.118 1.28151 2.69481 0
M  V30 2830 C 261.867 -0.319792 3.46226 0
M  V30 2831 H 261.19 0.374846 3.98039 0
M  V30 2832 H 262.63 -0.642435 4.19105 0
M  V30 2833 C 261.089 -1.53209 3.00048 0
M  V30 2834 O 261.619 -2.6309 3.03557 0
M  V30 2835 N 259.825 -1.38326 2.55566 0
M  V30 2836 H 259.372 -0.489292 2.5291 0
M  V30 2837 H 259.33 -2.19564 2.25031 0
M  V30 2838 N 263.102 -1.41638 0.69111 0
M  V30 2839 C 264.35 -2.00902 0.219758 0
M  V30 2840 C 264.671 -1.54994 -1.18329 0
M  V30 2841 O 263.941 -0.778628 -1.79762 0
M  V30 2842 H 262.521 -0.74289 0.0782558 0
M  V30 2843 H 265.183 -1.73327 0.891271 0
M  V30 2844 H 264.279 -3.11224 0.233708 0
M  V30 2845 N 264.58 -0.43555 -1.51462 0
M  V30 2846 C 265.81 0.130053 -2.0619 0
M  V30 2847 C 266.218 1.37164 -1.30317 0
M  V30 2848 O 265.561 1.80225 -0.355598 0
M  V30 2849 C 265.623 0.519418 -3.55728 0
M  V30 2850 C 265.287 -0.615119 -4.52841 0
M  V30 2851 C 266.284 -1.48671 -4.9819 0
M  V30 2852 C 263.969 -0.795341 -4.95963 0
M  V30 2853 C 265.963 -2.52324 -5.8533 0
M  V30 2854 C 263.65 -1.83514 -5.82894 0
M  V30 2855 C 264.648 -2.69748 -6.27475 0
M  V30 2856 O 264.336 -3.71944 -7.1268 0
M  V30 2857 H 264.068 0.0121612 -0.675891 0
M  V30 2858 H 266.622 -0.6129 -1.96043 0
M  V30 2859 H 264.852 1.31505 -3.63653 0
M  V30 2860 H 266.541 1.01597 -3.92979 0
M  V30 2861 H 267.307 -1.359 -4.65571 0
M  V30 2862 H 263.186 -0.133713 -4.60806 0
M  V30 2863 H 266.73 -3.19665 -6.20048 0
M  V30 2864 H 262.627 -1.96306 -6.14926 0
M  V30 2865 H 263.395 -3.68503 -7.30854 0
M  V30 2866 N 266.058 1.56714 -0.166846 0
M  V30 2867 C 267.306 1.96358 0.478305 0
M  V30 2868 C 267.627 1.0537 1.6408 0
M  V30 2869 O 266.897 0.119154 1.95537 0
M  V30 2870 H 265.477 0.725065 0.179692 0
M  V30 2871 H 268.139 1.93329 -0.246985 0
M  V30 2872 H 267.235 3.00547 0.841292 0
M  V30 2873 N 267.536 -0.106894 1.57237 0
M  V30 2874 C 268.761 -0.830287 1.90055 0
M  V30 2875 C 269.186 -1.72064 0.75998 0
M  V30 2876 O 268.544 -1.78982 -0.288991 0
M  V30 2877 C 268.592 -1.6295 3.21683 0
M  V30 2878 O 267.696 -2.73748 3.08441 0
M  V30 2879 H 267.037 -0.228855 0.623315 0
M  V30 2880 H 269.567 -0.085658 2.04421 0
M  V30 2881 H 269.577 -2.01621 3.54701 0
M  V30 2882 H 268.252 -0.975989 4.04286 0
M  V30 2883 H 266.829 -2.38192 2.86913 0
M  V30 2884 N 269.014 -1.53014 -0.377408 0
M  V30 2885 C 270.242 -1.72515 -1.14219 0
M  V30 2886 C 270.657 -0.448735 -1.8339 0
M  V30 2887 O 270.014 0.577592 -1.73119 0
M  V30 2888 C 270.065 -2.8826 -2.18148 0
M  V30 2889 O 269.786 -4.10962 -1.51795 0
M  V30 2890 C 271.287 -3.19536 -3.07264 0
M  V30 2891 H 268.507 -0.577301 -0.342001 0
M  V30 2892 H 271.051 -1.99712 -0.439935 0
M  V30 2893 H 269.206 -2.63492 -2.83991 0
M  V30 2894 H 269.62 -4.75693 -2.20945 0
M  V30 2895 H 271.094 -4.03959 -3.76193 0
M  V30 2896 H 271.571 -2.34403 -3.71419 0
M  V30 2897 H 272.177 -3.46186 -2.47053 0
M  V30 2898 N 270.492 0.636531 -1.44174 0
M  V30 2899 C 271.424 1.7618 -1.46606 0
M  V30 2900 C 272.437 1.58768 -0.360091 0
M  V30 2901 O 273.626 1.67181 -0.625518 0
M  V30 2902 C 270.726 3.13833 -1.27915 0
M  V30 2903 C 269.899 3.57753 -2.51658 0
M  V30 2904 C 268.958 4.74265 -2.27945 0
M  V30 2905 O 267.984 4.82852 -3.01401 0
M  V30 2906 N 269.186 5.65604 -1.30662 0
M  V30 2907 H 271.951 1.74567 -2.43612 0
M  V30 2908 H 269.512 0.820924 -1.39544 0
M  V30 2909 H 271.504 3.8949 -1.09907 0
M  V30 2910 H 270.074 3.10121 -0.39293 0
M  V30 2911 H 269.294 2.72362 -2.84978 0
M  V30 2912 H 270.582 3.83847 -3.33974 0
M  V30 2913 H 269.98 5.61354 -0.699844 0
M  V30 2914 H 268.537 6.40913 -1.18634 0
M  V30 2915 N 271.97 1.30982 0.876444 0
M  V30 2916 C 273.2 1.23063 1.65949 0
M  V30 2917 C 273.608 -0.207537 1.88058 0
M  V30 2918 O 272.951 -1.14781 1.43426 0
M  V30 2919 C 273.013 1.89768 3.05333 0
M  V30 2920 C 272.677 3.39106 3.0636 0
M  V30 2921 C 273.674 4.3496 2.84791 0
M  V30 2922 C 271.359 3.80693 3.27686 0
M  V30 2923 C 273.353 5.70375 2.84519 0
M  V30 2924 C 271.04 5.16223 3.27043 0
M  V30 2925 C 272.038 6.10875 3.05485 0
M  V30 2926 O 271.726 7.43928 3.04674 0
M  V30 2927 H 271.458 0.426685 0.524324 0
M  V30 2928 H 274.012 1.7329 1.10271 0
M  V30 2929 H 272.242 1.34082 3.6271 0
M  V30 2930 H 273.931 1.75853 3.65829 0
M  V30 2931 H 274.697 4.0416 2.68103 0
M  V30 2932 H 270.576 3.07457 3.43499 0
M  V30 2933 H 274.12 6.44228 2.67611 0
M  V30 2934 H 270.017 5.4666 3.43269 0
M  V30 2935 H 270.785 7.53022 3.2078 0
M  V30 2936 N 273.449 -1.08991 1.13837 0
M  V30 2937 C 274.698 -1.80631 0.897509 0
M  V30 2938 C 275.011 -1.86872 -0.57777 0
M  V30 2939 O 276.217 -2.54866 -0.935701 0
M  V30 2940 C 274.673 -3.24517 1.55618 0
M  V30 2941 C 274.281 -3.26529 3.0673 0
M  V30 2942 C 276.025 -4.00882 1.3962 0
M  V30 2943 C 273.932 -4.64965 3.65461 0
M  V30 2944 H 272.862 -0.67691 0.332129 0
M  V30 2945 H 275.513 -1.2246 1.3666 0
M  V30 2946 H 273.895 -3.82778 1.01476 0
M  V30 2947 H 275.069 -2.78008 3.67489 0
M  V30 2948 H 273.384 -2.63656 3.22296 0
M  V30 2949 H 275.981 -5.03167 1.80906 0
M  V30 2950 H 276.324 -4.14896 0.341578 0
M  V30 2951 H 276.857 -3.49075 1.90766 0
M  V30 2952 H 273.596 -4.56153 4.70749 0
M  V30 2953 H 273.116 -5.13792 3.09481 0
M  V30 2954 H 274.795 -5.3394 3.654 0
M  V30 2955 N 274.927 -0.932562 -1.27047 0
M  V30 2956 C 276.343 -0.633544 -1.46487 0
M  V30 2957 C 276.543 0.815746 -1.84249 0
M  V30 2958 O 275.599 1.59319 -1.95892 0
M  V30 2959 C 276.912 -1.58758 -2.55375 0
M  V30 2960 C 278.46 -1.59634 -2.69232 0
M  V30 2961 C 278.935 -2.53747 -3.81283 0
M  V30 2962 N 280.426 -2.51982 -3.88664 0
M  V30 2963 C 281.161 -3.21491 -4.74796 0
M  V30 2964 N 280.657 -4.00395 -5.65381 0
M  V30 2965 N 282.45 -3.10485 -4.68568 0
M  V30 2966 H 274.601 -1.86946 -1.00821 0
M  V30 2967 H 276.864 -0.802897 -0.504044 0
M  V30 2968 H 276.57 -2.62172 -2.34432 0
M  V30 2969 H 276.444 -1.33301 -3.52861 0
M  V30 2970 H 278.831 -0.569488 -2.89553 0
M  V30 2971 H 278.912 -1.89142 -1.72218 0
M  V30 2972 H 278.556 -3.56545 -3.61715 0
M  V30 2973 H 278.486 -2.21532 -4.77735 0
M  V30 2974 H 280.977 -1.94681 -3.23895 0
M  V30 2975 H 281.29 -4.50406 -6.27976 0
M  V30 2976 H 279.635 -4.04498 -5.65161 0
M  V30 2977 H 282.826 -2.48331 -3.96799 0
M  V30 2978 H 282.999 -3.64925 -5.35475 0
M  V30 2979 N 276.405 1.4127 -0.698611 0
M  V30 2980 C 277.652 2.0118 -0.230865 0
M  V30 2981 C 277.98 1.55338 1.17049 0
M  V30 2982 O 277.235 0.756775 1.80475 0
M  V30 2983 C 277.534 3.56592 -0.240192 0
M  V30 2984 C 277.2 4.21955 -1.58948 0
M  V30 2985 C 275.862 4.39524 -1.95887 0
M  V30 2986 C 278.214 4.58576 -2.47704 0
M  V30 2987 C 275.542 4.90992 -3.2116 0
M  V30 2988 C 277.894 5.11435 -3.72313 0
M  V30 2989 C 276.558 5.27215 -4.0939 0
M  V30 2990 H 275.828 0.736169 -0.0844796 0
M  V30 2991 H 278.475 1.69124 -0.8983 0
M  V30 2992 H 276.78 3.88456 0.510797 0
M  V30 2993 H 278.477 4.00758 0.139296 0
M  V30 2994 H 275.067 4.08657 -1.29219 0
M  V30 2995 H 279.251 4.44654 -2.20445 0
M  V30 2996 H 274.507 5.01393 -3.49878 0
M  V30 2997 H 278.681 5.38752 -4.4127 0
M  V30 2998 H 276.308 5.66859 -5.06533 0
M  V30 2999 N 277.883 0.443576 1.51229 0
M  V30 3000 C 279.108 -0.121648 2.07043 0
M  V30 3001 C 279.533 -1.35156 1.30823 0
M  V30 3002 O 278.891 -1.7793 0.347934 0
M  V30 3003 C 278.939 -0.41624 3.5819 0
M  V30 3004 O 278.043 -1.50163 3.8409 0
M  V30 3005 H 277.384 0.000871367 0.663999 0
M  V30 3006 H 279.914 0.626706 1.94765 0
M  V30 3007 H 279.924 -0.664867 4.02546 0
M  V30 3008 H 278.599 0.482653 4.1309 0
M  V30 3009 H 277.176 -1.24248 3.51592 0
M  V30 3010 N 279.361 -1.56624 0.175154 0
M  V30 3011 C 280.772 -1.83561 -0.340916 0
M  V30 3012 C 281.123 -1.09511 -1.62794 0
M  V30 3013 O 280.248 -0.349389 -2.13561 0
M  V30 3014 C 280.843 -3.32979 -0.625313 0
M  V30 3015 C 279.402 -3.60399 -1.08581 0
M  V30 3016 C 278.549 -2.77024 -0.123722 0
M  V30 3017 H 281.5 -1.53593 0.399344 0
M  V30 3018 H 281.521 -3.50666 -1.47694 0
M  V30 3019 H 281.033 -3.86847 0.311575 0
M  V30 3020 H 279.134 -3.11945 -2.03767 0
M  V30 3021 H 279.247 -4.68711 -0.992317 0
M  V30 3022 H 277.611 -2.46993 -0.621821 0
M  V30 3023 H 278.394 -3.33674 0.807256 0
M  V30 3024 N 280.839 0.0985539 -1.57292 0
M  V30 3025 C 282.116 0.834155 -1.76921 0
M  V30 3026 C 282.496 1.97101 -0.755928 0
M  V30 3027 O 281.844 2.27474 0.216245 0
M  V30 3028 C 282.054 1.33194 -3.22584 0
M  V30 3029 C 283.402 1.77611 -3.85668 0
M  V30 3030 O 284.426 1.42825 -3.26312 0
M  V30 3031 O 283.285 2.4192 -4.90038 0
M  V30 3032 H 280.379 0.397628 -0.725135 0
M  V30 3033 H 282.925 0.0807044 -1.69508 0
M  V30 3034 H 281.697 0.517248 -3.87866 0
M  V30 3035 H 281.32 2.1475 -3.34616 0
M  V30 3036 N 282.317 1.53212 0.369288 0
M  V30 3037 C 283.564 1.69215 1.11232 0
M  V30 3038 C 283.892 0.442048 1.8941 0
M  V30 3039 O 283.147 -0.575944 1.87033 0
M  V30 3040 C 283.446 2.89101 2.10132 0
M  V30 3041 C 283.112 4.25758 1.48463 0
M  V30 3042 C 281.774 4.6292 1.31372 0
M  V30 3043 C 284.126 5.10757 1.03811 0
M  V30 3044 C 281.454 5.82722 0.68207 0
M  V30 3045 C 283.806 6.31201 0.420487 0
M  V30 3046 C 282.47 6.67079 0.237038 0
M  V30 3047 H 281.74 0.619201 0.407027 0
M  V30 3048 H 284.387 1.87391 0.394552 0
M  V30 3049 H 282.692 2.65421 2.88199 0
M  V30 3050 H 284.389 2.98676 2.6757 0
M  V30 3051 H 280.979 3.96494 1.62758 0
M  V30 3052 H 285.163 4.82599 1.1581 0
M  V30 3053 H 280.419 6.09113 0.528316 0
M  V30 3054 H 284.593 6.96368 0.0662874 0
M  V30 3055 H 282.22 7.59774 -0.254477 0
M  V30 3056 N 283.795 -0.628877 1.44509 0
M  V30 3057 C 285.023 -1.41554 1.50897 0
M  V30 3058 C 285.438 -1.8832 0.134564 0
M  V30 3059 O 284.795 -1.60969 -0.859965 0
M  V30 3060 C 284.846 -2.63435 2.47556 0
M  V30 3061 O 284.567 -2.18619 3.79654 0
M  V30 3062 C 286.068 -3.56537 2.63431 0
M  V30 3063 H 283.288 -0.434044 0.511709 0
M  V30 3064 H 285.832 -0.768895 1.89495 0
M  V30 3065 H 283.987 -3.24187 2.12089 0
M  V30 3066 H 284.401 -2.97652 4.31861 0
M  V30 3067 H 285.875 -4.38657 3.35088 0
M  V30 3068 H 286.352 -4.05493 1.68738 0
M  V30 3069 H 286.958 -3.01653 2.9981 0
M  V30 3070 N 285.273 -1.31445 -0.869486 0
M  V30 3071 C 286.52 -1.21158 -1.62256 0
M  V30 3072 C 286.848 0.230155 -1.93133 0
M  V30 3073 O 286.103 1.17906 -1.56194 0
M  V30 3074 C 286.402 -2.00145 -2.96102 0
M  V30 3075 C 286.068 -3.4964 -2.84715 0
M  V30 3076 C 284.73 -3.90403 -2.81317 0
M  V30 3077 C 287.082 -4.44769 -2.71716 0
M  V30 3078 C 284.41 -5.24561 -2.62778 0
M  V30 3079 C 286.762 -5.79054 -2.54714 0
M  V30 3080 C 285.426 -6.19037 -2.49699 0
M  V30 3081 H 284.696 -0.443348 -0.593737 0
M  V30 3082 H 287.343 -1.62715 -1.00976 0
M  V30 3083 H 285.648 -1.5127 -3.6142 0
M  V30 3084 H 287.345 -1.89566 -3.53363 0
M  V30 3085 H 283.935 -3.17256 -2.88178 0
M  V30 3086 H 288.119 -4.14208 -2.73397 0
M  V30 3087 H 283.375 -5.54613 -2.57321 0
M  V30 3088 H 287.549 -6.52393 -2.43632 0
M  V30 3089 H 285.176 -7.22935 -2.35093 0
M  V30 3090 N 286.751 1.08385 -1.14413 0
M  V30 3091 C 287.999 1.80419 -0.910679 0
M  V30 3092 C 288.32 1.86658 0.564243 0
M  V30 3093 O 287.59 1.35985 1.41014 0
M  V30 3094 H 286.17 0.668204 -0.333934 0
M  V30 3095 H 288.832 1.31037 -1.44275 0
M  V30 3096 H 287.928 2.83238 -1.31082 0
M  V30 3097 N 288.23 0.939286 1.26551 0
M  V30 3098 C 289.477 0.585847 1.9384 0
M  V30 3099 C 289.805 -0.874784 1.73718 0
M  V30 3100 O 289.06 -1.64092 1.06642 0
M  V30 3101 C 289.359 0.872106 3.46596 0
M  V30 3102 C 289.025 2.31632 3.86856 0
M  V30 3103 C 287.687 2.71111 3.97558 0
M  V30 3104 C 290.039 3.25494 4.07066 0
M  V30 3105 C 287.367 4.03553 4.25866 0
M  V30 3106 C 289.719 4.57531 4.36862 0
M  V30 3107 C 288.383 4.96828 4.45778 0
M  V30 3108 H 287.653 0.214377 0.709312 0
M  V30 3109 H 290.3 1.18544 1.50398 0
M  V30 3110 H 288.605 0.18996 3.91339 0
M  V30 3111 H 290.302 0.577442 3.96821 0
M  V30 3112 H 286.892 2.00008 3.79071 0
M  V30 3113 H 291.076 2.9619 3.98227 0
M  V30 3114 H 286.332 4.33665 4.30981 0
M  V30 3115 H 290.506 5.30254 4.51446 0
M  V30 3116 H 288.133 5.99482 4.67468 0
M  V30 3117 N 289.708 -1.40897 0.706093 0
M  V30 3118 C 290.618 -2.3455 0.0482286 0
M  V30 3119 C 291.634 -1.56796 -0.754396 0
M  V30 3120 O 292.81 -1.89228 -0.689538 0
M  V30 3121 C 289.875 -3.35625 -0.869303 0
M  V30 3122 C 288.936 -4.29261 -0.0576994 0
M  V30 3123 C 288.169 -5.25508 -0.931531 0
M  V30 3124 O 288.392 -5.27472 -2.17092 0
M  V30 3125 O 287.326 -6.00727 -0.375587 0
M  V30 3126 H 291.152 -2.92407 0.820476 0
M  V30 3127 H 288.737 -1.4193 0.4665 0
M  V30 3128 H 290.619 -3.97635 -1.39514 0
M  V30 3129 H 289.294 -2.80196 -1.62086 0
M  V30 3130 H 288.201 -3.70566 0.512988 0
M  V30 3131 H 289.534 -4.87817 0.655426 0
M  V30 3132 N 291.186 -0.45159 -1.50991 0
M  V30 3133 C 292.096 0.358431 -2.31846 0
M  V30 3134 C 293.112 1.01438 -1.41373 0
M  V30 3135 O 294.288 1.00663 -1.74439 0
M  V30 3136 C 291.353 1.43704 -3.15515 0
M  V30 3137 C 290.414 0.799742 -4.21785 0
M  V30 3138 C 289.647 1.82696 -5.01456 0
M  V30 3139 O 289.87 3.05105 -4.81941 0
M  V30 3140 O 288.804 1.40958 -5.85162 0
M  V30 3141 H 292.63 -0.302032 -3.02194 0
M  V30 3142 H 290.215 -0.213825 -1.47862 0
M  V30 3143 H 292.097 2.06227 -3.67489 0
M  V30 3144 H 290.772 2.08133 -2.47916 0
M  V30 3145 H 289.679 0.136084 -3.73852 0
M  V30 3146 H 291.012 0.198718 -4.91799 0
M  V30 3147 N 292.664 1.56529 -0.183458 0
M  V30 3148 C 293.889 2.02064 0.467428 0
M  V30 3149 C 294.314 1.06282 1.55196 0
M  V30 3150 O 293.672 0.0443565 1.81246 0
M  V30 3151 C 293.72 3.46122 1.01153 0
M  V30 3152 O 292.824 3.53437 2.12499 0
M  V30 3153 H 292.165 0.654726 0.110588 0
M  V30 3154 H 294.695 2.02521 -0.290917 0
M  V30 3155 H 294.705 3.85676 1.33108 0
M  V30 3156 H 293.38 4.15331 0.217533 0
M  V30 3157 H 291.957 3.2575 1.81497 0
M  V30 3158 N 294.142 -0.090211 1.57342 0
M  V30 3159 C 295.072 -1.10976 2.05443 0
M  V30 3160 C 296.053 -1.41482 0.944284 0
M  V30 3161 O 297.238 -1.51428 1.21586 0
M  V30 3162 C 294.368 -2.42831 2.48295 0
M  V30 3163 C 293.322 -2.26721 3.63018 0
M  V30 3164 C 292.648 -3.63796 3.91863 0
M  V30 3165 C 293.948 -1.7037 4.93732 0
M  V30 3166 H 295.642 -0.709564 2.9087 0
M  V30 3167 H 293.188 -0.339874 1.39932 0
M  V30 3168 H 295.141 -3.14431 2.80555 0
M  V30 3169 H 293.865 -2.84795 1.59873 0
M  V30 3170 H 292.524 -1.57565 3.31012 0
M  V30 3171 H 292.172 -4.03297 3.00601 0
M  V30 3172 H 291.872 -3.53861 4.69101 0
M  V30 3173 H 293.396 -4.36855 4.26603 0
M  V30 3174 H 294.81 -2.31816 5.24342 0
M  V30 3175 H 293.207 -1.71181 5.75167 0
M  V30 3176 H 294.277 -0.663542 4.80339 0
M  V30 3177 N 295.62 -1.53406 -0.361157 0
M  V30 3178 C 296.53 -1.83122 -1.4664 0
M  V30 3179 C 297.546 -0.719943 -1.58407 0
M  V30 3180 O 298.722 -1.01046 -1.74218 0
M  V30 3181 C 295.787 -2.01891 -2.81853 0
M  V30 3182 C 294.848 -3.25784 -2.79577 0
M  V30 3183 C 294.081 -3.43648 -4.0834 0
M  V30 3184 O 294.304 -2.65714 -5.0473 0
M  V30 3185 O 293.238 -4.37018 -4.13883 0
M  V30 3186 H 297.064 -2.7703 -1.24451 0
M  V30 3187 H 294.649 -1.38841 -0.551678 0
M  V30 3188 H 296.531 -2.15782 -3.61962 0
M  V30 3189 H 295.206 -1.11173 -3.0401 0
M  V30 3190 H 294.113 -3.17312 -1.98151 0
M  V30 3191 H 295.446 -4.16439 -2.62373 0
M  V30 3192 N 297.098 0.621204 -1.44841 0
M  V30 3193 C 298.344 1.3826 -1.48365 0
M  V30 3194 C 298.677 1.93831 -0.119624 0
M  V30 3195 O 297.952 1.74251 0.864111 0
M  V30 3196 C 298.235 2.54058 -2.55199 0
M  V30 3197 C 298.088 2.03772 -4.00995 0
M  V30 3198 C 299.407 3.56225 -2.58442 0
M  V30 3199 H 296.526 0.501374 -0.540179 0
M  V30 3200 H 299.168 0.7015 -1.76576 0
M  V30 3201 H 297.318 3.12162 -2.31274 0
M  V30 3202 H 298.99 1.50423 -4.36086 0
M  V30 3203 H 297.233 1.34876 -4.12299 0
M  V30 3204 H 297.904 2.87185 -4.71411 0
M  V30 3205 H 300.38 3.07939 -2.79844 0
M  V30 3206 H 299.256 4.34756 -3.3508 0
M  V30 3207 H 299.517 4.10949 -1.63013 0
M  V30 3208 N 298.576 1.31904 0.862503 0
M  V30 3209 C 299.853 1.12644 1.59908 0
M  V30 3210 C 300.233 -0.316104 2.0872 0
M  V30 3211 O 299.581 -1.31145 1.87118 0
M  V30 3212 C 299.791 2.1472 2.7513 0
M  V30 3213 C 301.139 2.47637 3.44907 0
M  V30 3214 O 302.163 2.13205 2.85346 0
M  V30 3215 O 301.022 3.06632 4.52371 0
M  V30 3216 H 298.116 0.43416 0.703871 0
M  V30 3217 H 300.662 1.43408 0.907314 0
M  V30 3218 H 299.434 3.1172 2.3653 0
M  V30 3219 H 299.057 1.84905 3.51989 0
M  V30 3220 N 300.054 -1.07777 1.14986 0
M  V30 3221 C 301.282 -1.84018 0.945773 0
M  V30 3222 C 301.697 -1.81897 -0.505863 0
M  V30 3223 O 301.054 -1.22726 -1.35072 0
M  V30 3224 C 301.105 -3.31287 1.44677 0
M  V30 3225 O 300.826 -3.33449 2.84154 0
M  V30 3226 C 302.327 -4.24311 1.28355 0
M  V30 3227 H 299.547 -0.580716 0.336169 0
M  V30 3228 H 302.091 -1.36077 1.52654 0
M  V30 3229 H 300.246 -3.76594 0.908625 0
M  V30 3230 H 300.66 -4.25427 3.06777 0
M  V30 3231 H 302.134 -5.2573 1.68261 0
M  V30 3232 H 302.611 -4.38612 0.227184 0
M  V30 3233 H 303.217 -3.84836 1.81056 0
M  V30 3234 N 301.532 -0.945985 -1.26051 0
M  V30 3235 C 302.48 -0.450259 -2.282 0
M  V30 3236 C 303.474 0.47497 -1.62605 0
M  V30 3237 O 304.68 0.352653 -1.76512 0
M  V30 3238 H 301.055 -0.127081 -0.741184 0
M  V30 3239 H 303.026 -1.32422 -2.67408 0
M  V30 3240 C 301.775 0.26467 -3.46691 0
M  V30 3241 H 301.098 -0.438123 -3.97392 0
M  V30 3242 H 302.538 0.575678 -4.20074 0
M  V30 3243 C 300.997 1.48416 -3.02447 0
M  V30 3244 O 301.527 2.58227 -3.07704 0
M  V30 3245 N 299.733 1.34243 -2.57735 0
M  V30 3246 H 299.28 0.448994 -2.53657 0
M  V30 3247 H 299.238 2.15957 -2.28495 0
M  V30 3248 N 303.011 1.40521 -0.713556 0
M  V30 3249 C 304.422 1.83853 -0.324807 0
M  V30 3250 C 304.773 1.59667 1.14021 0
M  V30 3251 O 303.898 1.07649 1.87725 0
M  V30 3252 C 304.493 3.33751 -0.582746 0
M  V30 3253 C 303.052 3.75584 -0.247727 0
M  V30 3254 C 302.199 2.63753 -0.856121 0
M  V30 3255 H 305.15 1.29817 -0.91286 0
M  V30 3256 H 305.171 3.80194 0.152682 0
M  V30 3257 H 304.683 3.51322 -1.64908 0
M  V30 3258 H 302.784 3.63608 0.813624 0
M  V30 3259 H 302.897 4.7373 -0.715307 0
M  V30 3260 H 301.261 2.53108 -0.28432 0
M  V30 3261 H 302.044 2.84137 -1.92668 0
M  V30 3262 N 304.489 0.459591 1.5075 0
M  V30 3263 C 305.419 -0.330644 2.31147 0
M  V30 3264 C 306.4 -1.00087 1.37538 0
M  V30 3265 O 307.585 -1.00025 1.66459 0
M  V30 3266 C 304.715 -1.41958 3.16962 0
M  V30 3267 C 303.669 -0.871608 4.19031 0
M  V30 3268 C 302.995 -2.05797 4.9351 0
M  V30 3269 C 304.295 0.109251 5.22186 0
M  V30 3270 H 305.989 0.340336 2.97459 0
M  V30 3271 H 303.535 0.165119 1.4305 0
M  V30 3272 H 305.488 -1.9798 3.71997 0
M  V30 3273 H 304.212 -2.11917 2.48513 0
M  V30 3274 H 302.871 -0.333442 3.6508 0
M  V30 3275 H 302.519 -2.74427 4.21544 0
M  V30 3276 H 302.219 -1.6976 5.62544 0
M  V30 3277 H 303.743 -2.62331 5.51375 0
M  V30 3278 H 305.157 -0.361405 5.7216 0
M  V30 3279 H 303.554 0.383316 5.98875 0
M  V30 3280 H 304.624 1.03887 4.73641 0
M  V30 3281 N 305.967 -1.56429 0.191757 0
M  V30 3282 C 306.897 -2.21937 -0.725696 0
M  V30 3283 C 307.878 -1.1814 -1.2238 0
M  V30 3284 O 309.063 -1.46636 -1.27325 0
M  V30 3285 C 306.193 -2.87611 -1.94672 0
M  V30 3286 C 305.147 -3.97623 -1.58366 0
M  V30 3287 C 304.473 -4.50446 -2.88102 0
M  V30 3288 C 305.773 -5.16197 -0.796133 0
M  V30 3289 H 307.467 -2.98861 -0.179606 0
M  V30 3290 H 305.013 -1.43749 -0.0849464 0
M  V30 3291 H 306.966 -3.3212 -2.59373 0
M  V30 3292 H 305.69 -2.08087 -2.51728 0
M  V30 3293 H 304.349 -3.53801 -0.960247 0
M  V30 3294 H 303.997 -3.67688 -3.43241 0
M  V30 3295 H 303.697 -5.24675 -2.64556 0
M  V30 3296 H 305.221 -4.97654 -3.53798 0
M  V30 3297 H 306.635 -5.57271 -1.34618 0
M  V30 3298 H 305.032 -5.96471 -0.658928 0
M  V30 3299 H 306.102 -4.84473 0.203478 0
M  V30 3300 N 307.445 0.0818655 -1.57387 0
M  V30 3301 C 308.693 0.781368 -1.86384 0
M  V30 3302 C 309.014 1.78618 -0.782342 0
M  V30 3303 O 308.284 1.94976 0.190061 0
M  V30 3304 H 306.864 0.291562 -0.687751 0
M  V30 3305 H 309.526 0.060348 -1.94807 0
M  V30 3306 H 308.622 1.3038 -2.83562 0
M  V30 3307 N 308.923 1.53595 0.353017 0
M  V30 3308 C 309.886 1.80232 1.41594 0
M  V30 3309 C 310.886 0.673081 1.46035 0
M  V30 3310 O 312.076 0.941335 1.46576 0
M  V30 3311 C 309.208 1.93578 2.80607 0
M  V30 3312 H 310.401 2.75174 1.19244 0
M  V30 3313 H 307.954 1.44864 0.586872 0
M  V30 3314 H 308.689 1.00746 3.08254 0
M  V30 3315 H 308.474 2.75724 2.78781 0
M  V30 3316 H 309.964 2.15735 3.57558 0
M  V30 3317 N 310.401 -0.613514 1.45168 0
M  V30 3318 C 311.649 -1.36997 1.48581 0
M  V30 3319 C 311.97 -1.94589 0.126545 0
M  V30 3320 O 311.24 -1.76816 -0.843372 0
M  V30 3321 H 309.82 -0.508558 0.547154 0
M  V30 3322 H 312.482 -0.720853 1.81079 0
M  V30 3323 H 311.578 -2.1924 2.22127 0
M  V30 3324 N 311.879 -1.3236 -0.855495 0
M  V30 3325 C 312.826 -1.21225 -1.964 0
M  V30 3326 C 313.796 -0.0946204 -1.6583 0
M  V30 3327 O 314.981 -0.27002 -1.8888 0
M  V30 3328 C 312.121 -0.940419 -3.32039 0
M  V30 3329 C 311.234 -2.14276 -3.75113 0
M  V30 3330 C 310.369 -1.80648 -4.9954 0
M  V30 3331 C 309.408 -2.97208 -5.35102 0
M  V30 3332 N 308.545 -2.63678 -6.50706 0
M  V30 3333 H 313.385 -2.16042 -2.05255 0
M  V30 3334 H 310.922 -1.07451 -1.00463 0
M  V30 3335 H 312.88 -0.763311 -4.10158 0
M  V30 3336 H 311.51 -0.0290413 -3.22787 0
M  V30 3337 H 310.562 -2.43017 -2.92655 0
M  V30 3338 H 311.874 -3.01468 -3.97389 0
M  V30 3339 H 311.028 -1.59484 -5.85363 0
M  V30 3340 H 309.767 -0.906678 -4.79198 0
M  V30 3341 H 308.772 -3.19004 -4.47791 0
M  V30 3342 H 309.997 -3.87918 -5.57401 0
M  V30 3343 H 307.943 -1.76238 -6.31883 0
M  V30 3344 H 307.86 -3.444 -6.72997 0
M  V30 3345 H 309.128 -2.45942 -7.39684 0
M  V30 3346 N 313.357 1.07166 -1.15556 0
M  V30 3347 C 314.604 1.79798 -0.931604 0
M  V30 3348 C 314.932 1.8682 0.54115 0
M  V30 3349 O 314.187 1.34942 1.41736 0
M  V30 3350 C 314.486 3.24707 -1.49332 0
M  V30 3351 C 314.152 3.37781 -2.98688 0
M  V30 3352 C 312.814 3.41057 -3.39461 0
M  V30 3353 C 315.166 3.40424 -3.94665 0
M  V30 3354 C 312.494 3.4458 -4.74849 0
M  V30 3355 C 314.846 3.45485 -5.29927 0
M  V30 3356 C 313.51 3.47039 -5.70193 0
M  V30 3357 H 312.78 0.657928 -0.340898 0
M  V30 3358 H 315.427 1.26091 -1.44129 0
M  V30 3359 H 313.732 3.81208 -0.904859 0
M  V30 3360 H 315.429 3.79486 -1.29582 0
M  V30 3361 H 312.019 3.35932 -2.66172 0
M  V30 3362 H 316.203 3.37113 -3.64237 0
M  V30 3363 H 311.459 3.44083 -5.05388 0
M  V30 3364 H 315.633 3.46476 -6.04092 0
M  V30 3365 H 313.26 3.49522 -6.75084 0
M  V30 3366 N 314.835 0.952656 1.25548 0
M  V30 3367 C 315.798 0.475794 2.24207 0
M  V30 3368 C 316.798 -0.419428 1.55234 0
M  V30 3369 O 317.988 -0.216994 1.72843 0
M  V30 3370 C 315.12 -0.312814 3.39462 0
M  V30 3371 H 316.313 1.34779 2.67908 0
M  V30 3372 H 313.866 0.735739 1.37901 0
M  V30 3373 H 314.601 -1.20257 3.01179 0
M  V30 3374 H 314.386 0.329404 3.90714 0
M  V30 3375 H 315.876 -0.635986 4.12729 0
M  V30 3376 N 316.313 -1.40141 0.720998 0
M  V30 3377 C 317.541 -2.05096 0.272656 0
M  V30 3378 C 317.956 -1.54334 -1.0875 0
M  V30 3379 O 317.313 -0.702211 -1.6845 0
M  V30 3380 C 317.364 -3.60636 0.249835 0
M  V30 3381 O 317.085 -4.09526 1.55629 0
M  V30 3382 C 318.586 -4.42772 -0.216396 0
M  V30 3383 H 315.806 -0.659897 0.121558 0
M  V30 3384 H 318.35 -1.79449 0.980723 0
M  V30 3385 H 316.505 -3.85232 -0.409237 0
M  V30 3386 H 316.919 -5.03758 1.4604 0
M  V30 3387 H 318.393 -5.51702 -0.181212 0
M  V30 3388 H 318.87 -4.20756 -1.25941 0
M  V30 3389 H 319.476 -4.23294 0.412596 0
M  V30 3390 N 317.792 -0.46758 -1.50504 0
M  V30 3391 C 319.069 0.15003 -1.95024 0
M  V30 3392 C 319.449 1.57304 -1.40779 0
M  V30 3393 O 318.797 2.20281 -0.607319 0
M  V30 3394 C 319.007 0.0969324 -3.48865 0
M  V30 3395 C 320.355 0.287565 -4.23625 0
M  V30 3396 O 321.379 0.173678 -3.55776 0
M  V30 3397 O 320.238 0.517186 -5.44047 0
M  V30 3398 H 317.332 0.113582 -0.819163 0
M  V30 3399 H 319.878 -0.52773 -1.61286 0
M  V30 3400 H 318.65 -0.896732 -3.80886 0
M  V30 3401 H 318.273 0.816303 -3.8913 0
M  V30 3402 N 319.27 1.56325 -0.20005 0
M  V30 3403 C 320.681 1.8408 0.31167 0
M  V30 3404 C 321.032 1.12087 1.61031 0
M  V30 3405 O 320.157 0.38332 2.12978 0
M  V30 3406 C 320.752 3.33932 0.57226 0
M  V30 3407 C 319.311 3.6208 1.02834 0
M  V30 3408 C 318.458 2.77186 0.079634 0
M  V30 3409 H 321.409 1.52939 -0.423729 0
M  V30 3410 H 321.43 3.52971 1.42096 0
M  V30 3411 H 320.942 3.86303 -0.37308 0
M  V30 3412 H 319.043 3.15147 1.98778 0
M  V30 3413 H 319.156 4.7023 0.917624 0
M  V30 3414 H 317.52 2.47951 0.582448 0
M  V30 3415 H 318.303 3.32347 -0.860238 0
M  V30 3416 N 320.748 -0.0735177 1.57428 0
M  V30 3417 C 321.711 -1.07192 2.02589 0
M  V30 3418 C 322.711 -1.31695 0.922661 0
M  V30 3419 O 323.901 -1.27445 1.18758 0
M  V30 3420 C 321.033 -2.41599 2.40506 0
M  V30 3421 H 322.226 -0.682727 2.92025 0
M  V30 3422 H 319.779 -0.319193 1.53006 0
M  V30 3423 H 320.514 -2.85354 1.5409 0
M  V30 3424 H 320.299 -2.25156 3.21009 0
M  V30 3425 H 321.789 -3.13367 2.76027 0
M  V30 3426 N 322.226 -1.5378 -0.344866 0
M  V30 3427 C 323.472 -1.71216 -1.08687 0
M  V30 3428 C 323.805 -0.473281 -1.88345 0
M  V30 3429 O 323.08 0.52968 -1.87149 0
M  V30 3430 C 323.363 -2.97486 -2.02914 0
M  V30 3431 C 323.216 -4.31579 -1.26727 0
M  V30 3432 C 324.535 -3.19422 -3.0275 0
M  V30 3433 H 321.654 -0.62301 -0.393735 0
M  V30 3434 H 324.296 -1.8645 -0.365563 0
M  V30 3435 H 322.446 -2.84629 -2.64421 0
M  V30 3436 H 324.118 -4.56284 -0.67845 0
M  V30 3437 H 322.361 -4.30049 -0.569273 0
M  V30 3438 H 323.032 -5.16106 -1.95803 0
M  V30 3439 H 325.508 -3.316 -2.51357 0
M  V30 3440 H 324.384 -4.09169 -3.65885 0
M  V30 3441 H 324.645 -2.35656 -3.74057 0
M  V30 3442 N 323.704 0.605807 -1.45491 0
M  V30 3443 C 324.932 1.39136 -1.5313 0
M  V30 3444 C 325.347 1.88082 -0.164507 0
M  V30 3445 O 324.704 1.62316 0.834247 0
M  V30 3446 C 324.755 2.59463 -2.51716 0
M  V30 3447 O 324.476 2.12551 -3.83084 0
M  V30 3448 C 325.977 3.52301 -2.6907 0
M  V30 3449 H 323.197 0.425849 -0.51855 0
M  V30 3450 H 325.741 0.73865 -1.90694 0
M  V30 3451 H 323.896 3.20772 -2.17219 0
M  V30 3452 H 324.31 2.90744 -4.36541 0
M  V30 3453 H 325.784 4.33271 -3.42024 0
M  V30 3454 H 326.261 4.02757 -1.75167 0
M  V30 3455 H 326.867 2.96845 -3.04571 0
M  V30 3456 N 325.182 1.32811 0.848464 0
M  V30 3457 C 326.112 1.24882 1.97299 0
M  V30 3458 C 327.093 0.131357 1.69592 0
M  V30 3459 O 328.278 0.319553 1.91553 0
M  V30 3460 C 325.408 0.97746 3.33261 0
M  V30 3461 C 324.362 2.05682 3.75338 0
M  V30 3462 C 323.688 1.63777 5.09 0
M  V30 3463 C 324.988 3.47254 3.90144 0
M  V30 3464 H 326.682 2.18966 2.04191 0
M  V30 3465 H 324.228 1.05413 0.981029 0
M  V30 3466 H 326.181 0.908513 4.1149 0
M  V30 3467 H 324.905 0.000980011 3.266 0
M  V30 3468 H 323.564 2.11603 2.99366 0
M  V30 3469 H 323.212 0.648569 4.98801 0
M  V30 3470 H 322.912 2.36 5.38124 0
M  V30 3471 H 324.436 1.5833 5.89715 0
M  V30 3472 H 325.85 3.43888 4.58709 0
M  V30 3473 H 324.247 4.1788 4.30693 0
M  V30 3474 H 325.317 3.86462 2.92874 0
M  V30 3475 N 326.66 -1.06551 1.16123 0
M  V30 3476 C 327.623 -2.12132 0.867906 0
M  V30 3477 C 328.623 -1.60224 -0.135944 0
M  V30 3478 O 329.813 -1.73943 0.0946422 0
M  V30 3479 C 326.945 -3.396 0.297419 0
M  V30 3480 H 328.138 -2.39586 1.80385 0
M  V30 3481 H 325.691 -1.22574 0.969812 0
M  V30 3482 H 326.426 -3.17794 -0.64633 0
M  V30 3483 H 326.211 -3.78581 1.02073 0
M  V30 3484 H 327.701 -4.17455 0.110052 0
M  V30 3485 N 328.138 -0.959301 -1.25041 0
M  V30 3486 C 329.088 -0.453888 -2.23436 0
M  V30 3487 C 330.072 0.459461 -1.542 0
M  V30 3488 O 331.264 0.291752 -1.74579 0
M  V30 3489 C 328.393 0.262667 -3.42294 0
M  V30 3490 C 327.479 -0.669022 -4.1879 0
M  V30 3491 N 327.87 -1.80267 -4.72586 0
M  V30 3492 C 326.168 -0.47814 -4.4343 0
M  V30 3493 C 326.869 -2.38475 -5.3057 0
M  V30 3494 N 325.845 -1.67078 -5.17287 0
M  V30 3495 H 329.647 -1.319 -2.6264 0
M  V30 3496 H 327.161 -0.817358 -1.40332 0
M  V30 3497 H 329.158 0.641911 -4.11929 0
M  V30 3498 H 327.818 1.12432 -3.04613 0
M  V30 3499 H 328.829 -2.18442 -4.69578 0
M  V30 3500 H 325.506 0.340249 -4.16111 0
M  V30 3501 H 326.896 -3.34094 -5.8295 0
M  V30 3502 N 329.616 1.39756 -0.72842 0
M  V30 3503 C 330.526 2.34444 -0.0855374 0
M  V30 3504 C 331.542 1.57976 0.729356 0
M  V30 3505 O 332.718 1.90301 0.659346 0
M  V30 3506 C 329.783 3.36965 0.815798 0
M  V30 3507 C 328.844 4.29299 -0.0105996 0
M  V30 3508 C 328.077 5.26923 0.84781 0
M  V30 3509 O 328.3 5.30859 2.08673 0
M  V30 3510 O 327.234 6.01249 0.279969 0
M  V30 3511 H 331.06 2.91065 -0.866892 0
M  V30 3512 H 328.645 1.4117 -0.48902 0
M  V30 3513 H 330.527 3.99804 1.33171 0
M  V30 3514 H 329.202 2.82739 1.57608 0
M  V30 3515 H 328.109 3.69703 -0.571877 0
M  V30 3516 H 329.442 4.86712 -0.73295 0
M  V30 3517 N 331.094 0.475555 1.50254 0
M  V30 3518 C 332.024 -0.30611 2.31485 0
M  V30 3519 C 333.005 -0.986228 1.38591 0
M  V30 3520 O 334.19 -0.982541 1.67511 0
M  V30 3521 C 331.32 -1.38588 3.1845 0
M  V30 3522 C 330.274 -0.827115 4.19932 0
M  V30 3523 C 329.6 -2.00551 4.95665 0
M  V30 3524 C 330.9 0.16463 5.2204 0
M  V30 3525 H 332.594 0.371866 2.97082 0
M  V30 3526 H 330.14 0.180282 1.42867 0
M  V30 3527 H 332.093 -1.94023 3.74076 0
M  V30 3528 H 330.817 -2.09269 2.50747 0
M  V30 3529 H 329.476 -0.294702 3.65414 0
M  V30 3530 H 329.124 -2.6994 4.2443 0
M  V30 3531 H 328.824 -1.63784 5.64313 0
M  V30 3532 H 330.348 -2.56468 5.54127 0
M  V30 3533 H 331.762 -0.300699 5.72511 0
M  V30 3534 H 330.159 0.446813 5.98434 0
M  V30 3535 H 331.229 1.08905 4.72512 0
M  V30 3536 N 332.573 -1.56217 0.208337 0
M  V30 3537 C 333.822 -1.97124 -0.427204 0
M  V30 3538 C 334.135 -1.09859 -1.61835 0
M  V30 3539 O 335.341 -1.40606 -2.32255 0
M  V30 3540 C 333.797 -3.50633 -0.811442 0
M  V30 3541 C 333.405 -4.46582 0.35615 0
M  V30 3542 C 335.149 -4.00282 -1.41332 0
M  V30 3543 C 333.056 -5.91379 -0.0497852 0
M  V30 3544 H 331.986 -0.736086 -0.163381 0
M  V30 3545 H 334.637 -1.8099 0.302456 0
M  V30 3546 H 333.019 -3.62319 -1.59815 0
M  V30 3547 H 334.193 -4.46636 1.1337 0
M  V30 3548 H 332.508 -4.07202 0.870396 0
M  V30 3549 H 335.105 -5.0595 -1.72972 0
M  V30 3550 H 335.448 -3.45359 -2.32449 0
M  V30 3551 H 335.981 -3.91764 -0.690323 0
M  V30 3552 H 332.72 -6.50255 0.827529 0
M  V30 3553 H 332.24 -5.94549 -0.791926 0
M  V30 3554 H 333.919 -6.45209 -0.481042 0
M  V30 3555 N 334.051 0.0651679 -1.57465 0
M  V30 3556 C 335.001 1.0838 -2.00594 0
M  V30 3557 C 335.985 1.34106 -0.889071 0
M  V30 3558 O 337.177 1.34295 -1.15299 0
M  V30 3559 C 334.306 2.39565 -2.45894 0
M  V30 3560 C 333.392 2.17085 -3.64328 0
M  V30 3561 N 333.783 1.64553 -4.78285 0
M  V30 3562 C 332.081 2.4753 -3.71006 0
M  V30 3563 C 332.782 1.57042 -5.60101 0
M  V30 3564 N 331.758 2.03328 -5.04141 0
M  V30 3565 H 335.56 0.671062 -2.86136 0
M  V30 3566 H 333.074 0.27213 -1.60104 0
M  V30 3567 H 335.071 3.13308 -2.75034 0
M  V30 3568 H 333.731 2.81549 -1.61741 0
M  V30 3569 H 334.742 1.33323 -5.00445 0
M  V30 3570 H 331.419 2.92835 -2.9758 0
M  V30 3571 H 332.809 1.17223 -6.61595 0
M  V30 3572 N 335.529 1.53961 0.336706 0
M  V30 3573 C 336.492 1.81724 1.39675 0
M  V30 3574 C 337.492 0.688532 1.45313 0
M  V30 3575 O 338.682 0.956829 1.45569 0
M  V30 3576 C 335.814 1.96543 2.78538 0
M  V30 3577 H 337.007 2.76424 1.16318 0
M  V30 3578 H 334.56 1.45478 0.571474 0
M  V30 3579 H 335.295 1.0401 3.07168 0
M  V30 3580 H 335.08 2.78665 2.75841 0
M  V30 3581 H 336.57 2.19516 3.5525 0
M  V30 3582 N 337.007 -0.598083 1.45811 0
M  V30 3583 C 338.255 -1.35413 1.50026 0
M  V30 3584 C 338.576 -1.94444 0.147177 0
M  V30 3585 O 337.846 -1.77701 -0.824571 0
M  V30 3586 H 336.426 -0.502727 0.552517 0
M  V30 3587 H 339.088 -0.701606 1.81834 0
M  V30 3588 H 338.184 -2.16871 2.2444 0
M  V30 3589 N 338.485 -1.33259 -0.841409 0
M  V30 3590 C 339.435 -1.19872 -1.93945 0
M  V30 3591 C 340.419 -0.102269 -1.60575 0
M  V30 3592 O 341.611 -0.330114 -1.73894 0
M  V30 3593 C 338.74 -0.937517 -3.30251 0
M  V30 3594 C 337.826 -2.07629 -3.69799 0
M  V30 3595 N 338.217 -3.32604 -3.81062 0
M  V30 3596 C 336.515 -1.98242 -3.9952 0
M  V30 3597 C 337.216 -4.07275 -4.15333 0
M  V30 3598 N 336.192 -3.35691 -4.27566 0
M  V30 3599 H 339.994 -2.14604 -2.00805 0
M  V30 3600 H 337.508 -1.2523 -1.03398 0
M  V30 3601 H 339.505 -0.822545 -4.08705 0
M  V30 3602 H 338.165 0.00128798 -3.247 0
M  V30 3603 H 339.176 -3.67382 -3.65035 0
M  V30 3604 H 335.853 -1.12005 -4.02195 0
M  V30 3605 H 337.243 -5.1511 -4.31406 0
M  V30 3606 N 339.963 1.05934 -1.16686 0
M  V30 3607 C 341.379 1.30938 -0.912542 0
M  V30 3608 C 341.579 1.96803 0.432533 0
M  V30 3609 O 340.635 2.23693 1.17123 0
M  V30 3610 C 341.948 2.18649 -2.06429 0
M  V30 3611 C 343.496 2.32055 -2.10047 0
M  V30 3612 C 343.971 3.23122 -3.24586 0
M  V30 3613 N 345.462 3.30706 -3.24327 0
M  V30 3614 C 346.197 4.01273 -4.09594 0
M  V30 3615 N 345.693 4.74332 -5.04956 0
M  V30 3616 N 347.486 3.97361 -3.97569 0
M  V30 3617 H 339.637 0.615777 -2.03278 0
M  V30 3618 H 341.9 0.334077 -0.887185 0
M  V30 3619 H 341.606 1.77534 -3.03603 0
M  V30 3620 H 341.48 3.19252 -2.00894 0
M  V30 3621 H 343.867 2.72415 -1.13464 0
M  V30 3622 H 343.948 1.31107 -2.19647 0
M  V30 3623 H 343.592 2.83477 -4.2143 0
M  V30 3624 H 343.522 4.24057 -3.12223 0
M  V30 3625 H 346.013 2.78644 -2.55276 0
M  V30 3626 H 346.326 5.25716 -5.6643 0
M  V30 3627 H 344.671 4.733 -5.08933 0
M  V30 3628 H 347.862 3.39405 -3.22369 0
M  V30 3629 H 348.035 4.52089 -4.64241 0
M  V30 3630 N 341.441 0.965919 1.2453 0
M  V30 3631 C 342.371 0.513476 2.27784 0
M  V30 3632 C 343.352 -0.445974 1.6415 0
M  V30 3633 O 344.537 -0.342485 1.91156 0
M  V30 3634 C 341.667 -0.198839 3.4673 0
M  V30 3635 C 340.621 0.676456 4.2262 0
M  V30 3636 C 339.947 -0.167248 5.34438 0
M  V30 3637 C 341.247 1.96017 4.84123 0
M  V30 3638 H 342.941 1.3765 2.65881 0
M  V30 3639 H 340.487 0.663321 1.27813 0
M  V30 3640 H 342.44 -0.526567 4.18097 0
M  V30 3641 H 341.164 -1.0962 3.07654 0
M  V30 3642 H 339.823 0.98743 3.53052 0
M  V30 3643 H 339.471 -1.0647 4.91603 0
M  V30 3644 H 339.171 0.415181 5.86131 0
M  V30 3645 H 340.695 -0.489688 6.08633 0
M  V30 3646 H 342.109 1.69814 5.47573 0
M  V30 3647 H 340.506 2.48918 5.4604 0
M  V30 3648 H 341.576 2.65622 4.05676 0
M  V30 3649 N 342.919 -1.39368 0.735821 0
M  V30 3650 C 344.149 -2.04498 0.293967 0
M  V30 3651 C 344.557 -1.55593 -1.07645 0
M  V30 3652 O 343.9 -0.716324 -1.69158 0
M  V30 3653 C 343.962 -3.58836 0.218342 0
M  V30 3654 C 343.626 -4.30721 1.52736 0
M  V30 3655 C 344.623 -4.57305 2.47322 0
M  V30 3656 C 342.308 -4.69251 1.79189 0
M  V30 3657 C 344.302 -5.21429 3.66593 0
M  V30 3658 C 341.989 -5.33104 2.98737 0
M  V30 3659 C 342.987 -5.59125 3.9226 0
M  V30 3660 O 342.675 -6.21653 5.09708 0
M  V30 3661 H 342.407 -0.664118 0.126189 0
M  V30 3662 H 344.961 -1.79385 1.00051 0
M  V30 3663 H 343.191 -3.8285 -0.544314 0
M  V30 3664 H 344.88 -4.05447 -0.191626 0
M  V30 3665 H 345.646 -4.27983 2.28156 0
M  V30 3666 H 341.525 -4.48354 1.07239 0
M  V30 3667 H 345.069 -5.41656 4.39607 0
M  V30 3668 H 340.966 -5.61846 3.17803 0
M  V30 3669 H 341.734 -6.40146 5.10054 0
M  V30 3670 N 344.397 -0.483516 -1.5 0
M  V30 3671 C 345.645 0.067027 -2.01989 0
M  V30 3672 C 345.966 1.3909 -1.36671 0
M  V30 3673 O 345.236 1.88978 -0.516152 0
M  V30 3674 H 343.816 0.0277606 -0.746484 0
M  V30 3675 H 346.478 -0.636773 -1.84204 0
M  V30 3676 H 345.574 0.209484 -3.11396 0
M  V30 3677 N 345.875 1.56104 -0.216619 0
M  V30 3678 C 347.124 1.97348 0.416744 0
M  V30 3679 C 347.437 1.10715 1.6125 0
M  V30 3680 O 348.643 1.41836 2.31506 0
M  V30 3681 C 347.099 3.51059 0.792835 0
M  V30 3682 C 346.707 4.46387 -0.379828 0
M  V30 3683 C 348.451 4.01026 1.39208 0
M  V30 3684 C 346.358 5.91397 0.0184223 0
M  V30 3685 H 345.288 0.736942 0.159475 0
M  V30 3686 H 347.939 1.80827 -0.31205 0
M  V30 3687 H 346.321 3.63162 1.57891 0
M  V30 3688 H 347.495 4.46029 -1.15737 0
M  V30 3689 H 345.81 4.06734 -0.891979 0
M  V30 3690 H 348.407 5.0686 1.70286 0
M  V30 3691 H 348.75 3.46587 2.30614 0
M  V30 3692 H 349.283 3.92125 0.669537 0
M  V30 3693 H 346.022 6.49807 -0.862002 0
M  V30 3694 H 345.542 5.94961 0.760384 0
M  V30 3695 H 347.221 6.45455 0.446818 0
M  V30 3696 N 347.353 -0.0568162 1.57498 0
M  V30 3697 C 348.316 -1.05038 2.03715 0
M  V30 3698 C 349.316 -1.30709 0.936577 0
M  V30 3699 O 350.506 -1.26178 1.20103 0
M  V30 3700 C 347.638 -2.39034 2.43055 0
M  V30 3701 H 348.831 -0.651715 2.92733 0
M  V30 3702 H 346.384 -0.302947 1.53336 0
M  V30 3703 H 347.119 -2.83703 1.57108 0
M  V30 3704 H 346.904 -2.21739 3.2338 0
M  V30 3705 H 348.394 -3.10421 2.79336 0
M  V30 3706 N 348.832 -1.54138 -0.328536 0
M  V30 3707 C 350.081 -1.71318 -1.06456 0
M  V30 3708 C 350.394 -0.491109 -1.89334 0
M  V30 3709 O 351.6 -0.54416 -2.65991 0
M  V30 3710 C 350.056 -3.03 -1.94214 0
M  V30 3711 C 349.664 -4.32595 -1.16471 0
M  V30 3712 C 351.408 -3.29544 -2.67583 0
M  V30 3713 C 349.315 -5.55341 -2.03347 0
M  V30 3714 H 348.245 -0.638429 -0.401155 0
M  V30 3715 H 350.896 -1.80633 -0.323106 0
M  V30 3716 H 349.278 -2.87579 -2.72239 0
M  V30 3717 H 350.452 -4.58766 -0.432525 0
M  V30 3718 H 348.767 -4.12777 -0.548063 0
M  V30 3719 H 351.364 -4.18444 -3.3288 0
M  V30 3720 H 351.707 -2.47206 -3.34955 0
M  V30 3721 H 352.24 -3.45809 -1.96623 0
M  V30 3722 H 348.979 -6.40268 -1.40491 0
M  V30 3723 H 348.499 -5.33397 -2.74313 0
M  V30 3724 H 350.178 -5.91557 -2.62049 0
M  V30 3725 N 350.31 0.590341 -1.46126 0
M  V30 3726 C 351.258 1.72105 -1.5647 0
M  V30 3727 C 352.252 1.63756 -0.433612 0
M  V30 3728 O 353.458 1.69342 -0.610194 0
M  V30 3729 H 349.833 0.568889 -0.491802 0
M  V30 3730 H 351.804 1.6051 -2.51553 0
M  V30 3731 C 350.553 3.10493 -1.56491 0
M  V30 3732 H 349.876 3.17583 -2.4286 0
M  V30 3733 H 351.316 3.8939 -1.67785 0
M  V30 3734 C 349.775 3.3563 -0.292231 0
M  V30 3735 O 350.305 3.96875 0.620739 0
M  V30 3736 N 348.511 2.90026 -0.182523 0
M  V30 3737 H 348.058 2.40367 -0.926356 0
M  V30 3738 H 348.016 3.07218 0.668152 0
M  V30 3739 N 351.788 1.33704 0.83433 0
M  V30 3740 C 353.199 1.22813 1.4062 0
M  V30 3741 C 353.55 -0.151107 1.95617 0
M  V30 3742 O 352.675 -1.05092 1.89168 0
M  V30 3743 C 353.27 2.22355 2.55624 0
M  V30 3744 C 351.829 2.1529 3.08751 0
M  V30 3745 C 350.976 2.09589 1.8157 0
M  V30 3746 H 353.927 1.45236 0.639702 0
M  V30 3747 H 353.948 1.83391 3.33389 0
M  V30 3748 H 353.46 3.22728 2.15566 0
M  V30 3749 H 351.561 1.18235 3.53343 0
M  V30 3750 H 351.674 3.06038 3.68616 0
M  V30 3751 H 350.038 1.55134 2.02004 0
M  V30 3752 H 350.821 3.11777 1.43701 0
M  V30 3753 N 353.266 -1.05314 1.17247 0
M  V30 3754 C 354.214 -2.15137 0.884238 0
M  V30 3755 C 355.208 -1.68729 -0.15063 0
M  V30 3756 O 356.414 -1.8 -0.00366673 0
M  V30 3757 H 352.789 -0.702471 0.2684 0
M  V30 3758 H 354.76 -2.36652 1.81764 0
M  V30 3759 C 353.509 -3.45243 0.412659 0
M  V30 3760 H 352.832 -3.81352 1.20043 0
M  V30 3761 H 354.272 -4.23263 0.249858 0
M  V30 3762 C 352.731 -3.25487 -0.86948 0
M  V30 3763 O 353.261 -3.51938 -1.93655 0
M  V30 3764 N 351.467 -2.78875 -0.817147 0
M  V30 3765 H 351.014 -2.57549 0.0514211 0
M  V30 3766 H 350.972 -2.66036 -1.67547 0
M  V30 3767 N 354.744 -0.972509 -1.24016 0
M  V30 3768 C 356.16 -0.679827 -1.44397 0
M  V30 3769 C 356.36 0.756716 -1.86751 0
M  V30 3770 O 355.416 1.53007 -2.00861 0
M  V30 3771 C 356.729 -1.66803 -2.50195 0
M  V30 3772 C 358.277 -1.68119 -2.64017 0
M  V30 3773 C 358.752 -2.65748 -3.73017 0
M  V30 3774 N 360.243 -2.64219 -3.8045 0
M  V30 3775 C 360.978 -3.36433 -4.64328 0
M  V30 3776 N 360.474 -4.1818 -5.52356 0
M  V30 3777 N 362.267 -3.25235 -4.58453 0
M  V30 3778 H 354.418 -1.90059 -0.948228 0
M  V30 3779 H 356.681 -0.818527 -0.478245 0
M  V30 3780 H 356.387 -2.69498 -2.25973 0
M  V30 3781 H 356.261 -1.4446 -3.48441 0
M  V30 3782 H 358.648 -0.661319 -2.87594 0
M  V30 3783 H 358.729 -1.94525 -1.66113 0
M  V30 3784 H 358.373 -3.67872 -3.50189 0
M  V30 3785 H 358.303 -2.36619 -4.70446 0
M  V30 3786 H 360.794 -2.04887 -3.17537 0
M  V30 3787 H 361.107 -4.70157 -6.13329 0
M  V30 3788 H 359.452 -4.22273 -5.52006 0
M  V30 3789 H 362.643 -2.60829 -3.88698 0
M  V30 3790 H 362.816 -3.81776 -5.23594 0
M  V30 3791 N 356.222 1.38976 -0.743202 0
M  V30 3792 C 357.468 2.0064 -0.295189 0
M  V30 3793 C 357.801 1.5885 1.11716 0
M  V30 3794 O 357.076 0.821181 1.76315 0
M  V30 3795 C 357.359 3.578 -0.406318 0
M  V30 3796 C 357.212 4.09586 -1.85903 0
M  V30 3797 C 358.531 4.39616 0.206439 0
M  V30 3798 H 355.65 0.728935 -0.108733 0
M  V30 3799 H 358.292 1.65067 -0.940897 0
M  V30 3800 H 356.442 3.88235 0.143419 0
M  V30 3801 H 358.114 3.89837 -2.46627 0
M  V30 3802 H 356.357 3.6284 -2.3776 0
M  V30 3803 H 357.028 5.18708 -1.888 0
M  V30 3804 H 359.504 4.15273 -0.262283 0
M  V30 3805 H 358.38 5.48812 0.0983819 0
M  V30 3806 H 358.641 4.22754 1.2935 0
M  V30 3807 N 357.7 0.491464 1.49741 0
M  V30 3808 C 358.947 -0.0564256 2.02421 0
M  V30 3809 C 359.275 -1.37872 1.37192 0
M  V30 3810 O 358.53 -1.89375 0.493508 0
M  V30 3811 C 358.829 -0.267329 3.56399 0
M  V30 3812 C 358.495 0.975775 4.40215 0
M  V30 3813 C 357.157 1.31655 4.62839 0
M  V30 3814 C 359.509 1.80251 4.89039 0
M  V30 3815 C 356.837 2.48375 5.31532 0
M  V30 3816 C 359.189 2.96116 5.59015 0
M  V30 3817 C 357.853 3.30585 5.79888 0
M  V30 3818 H 357.123 -0.0206476 0.740712 0
M  V30 3819 H 359.77 0.649686 1.80143 0
M  V30 3820 H 358.075 -1.05588 3.77304 0
M  V30 3821 H 359.772 -0.705549 3.94744 0
M  V30 3822 H 356.362 0.700315 4.2284 0
M  V30 3823 H 360.546 1.55239 4.71396 0
M  V30 3824 H 355.802 2.7533 5.45897 0
M  V30 3825 H 359.976 3.60509 5.95824 0
M  V30 3826 H 357.603 4.21132 6.32892 0
M  V30 3827 N 359.178 -1.55987 0.224894 0
M  V30 3828 C 360.125 -2.20436 -0.68385 0
M  V30 3829 C 361.095 -1.16102 -1.18783 0
M  V30 3830 O 362.28 -1.4447 -1.24632 0
M  V30 3831 C 359.42 -2.89076 -1.88491 0
M  V30 3832 C 358.533 -4.08012 -1.41951 0
M  V30 3833 C 357.668 -4.64426 -2.5784 0
M  V30 3834 C 356.707 -5.75656 -2.08053 0
M  V30 3835 N 355.844 -6.26347 -3.17227 0
M  V30 3836 H 360.684 -2.97727 -0.12754 0
M  V30 3837 H 358.221 -1.47011 -0.0511978 0
M  V30 3838 H 360.179 -3.27059 -2.59014 0
M  V30 3839 H 358.809 -2.14298 -2.41405 0
M  V30 3840 H 357.861 -3.75492 -0.609095 0
M  V30 3841 H 359.173 -4.88375 -1.01447 0
M  V30 3842 H 358.327 -5.04869 -3.3644 0
M  V30 3843 H 357.066 -3.83233 -3.01635 0
M  V30 3844 H 356.071 -5.34712 -1.27916 0
M  V30 3845 H 357.296 -6.58686 -1.65255 0
M  V30 3846 H 355.242 -5.48067 -3.60497 0
M  V30 3847 H 355.159 -7.01843 -2.80986 0
M  V30 3848 H 356.427 -6.71447 -3.95953 0
M  V30 3849 N 360.656 0.0484629 -1.57525 0
M  V30 3850 C 361.902 0.744226 -1.88651 0
M  V30 3851 C 362.235 1.76029 -0.820212 0
M  V30 3852 O 361.51 1.93782 0.166985 0
M  V30 3853 C 361.793 1.43128 -3.30434 0
M  V30 3854 C 361.646 0.43005 -4.47739 0
M  V30 3855 C 362.965 2.37031 -3.70816 0
M  V30 3856 H 360.084 0.269089 -0.68612 0
M  V30 3857 H 362.726 0.00713532 -1.89999 0
M  V30 3858 H 360.876 2.05956 -3.29415 0
M  V30 3859 H 362.548 -0.194816 -4.60888 0
M  V30 3860 H 360.791 -0.252522 -4.33064 0
M  V30 3861 H 361.462 0.948874 -5.43783 0
M  V30 3862 H 363.938 1.84263 -3.73077 0
M  V30 3863 H 362.814 2.82094 -4.70865 0
M  V30 3864 H 363.075 3.22864 -3.02012 0
M  V30 3865 N 362.134 1.5431 0.320358 0
M  V30 3866 C 363.082 1.84647 1.4145 0
M  V30 3867 C 364.076 0.718624 1.53402 0
M  V30 3868 O 365.282 0.902335 1.5575 0
M  V30 3869 H 361.657 0.585349 0.472091 0
M  V30 3870 H 363.628 2.7614 1.13089 0
M  V30 3871 C 362.377 2.09341 2.77617 0
M  V30 3872 H 361.7 2.9559 2.69196 0
M  V30 3873 H 363.14 2.3452 3.53237 0
M  V30 3874 C 361.599 0.885939 3.25043 0
M  V30 3875 O 362.129 0.0967891 4.01583 0
M  V30 3876 N 360.335 0.696682 2.82125 0
M  V30 3877 H 359.882 1.34006 2.2 0
M  V30 3878 H 359.84 -0.109712 3.14209 0
M  V30 3879 N 363.613 -0.582584 1.46437 0
M  V30 3880 C 364.841 -1.36682 1.55324 0
M  V30 3881 C 365.256 -1.87796 0.194409 0
M  V30 3882 O 364.613 -1.63623 -0.808318 0
M  V30 3883 C 364.664 -2.55426 2.55812 0
M  V30 3884 O 364.385 -2.0643 3.86417 0
M  V30 3885 C 365.886 -3.47976 2.74641 0
M  V30 3886 H 363.106 -0.417545 0.525259 0
M  V30 3887 H 365.65 -0.708219 1.91845 0
M  V30 3888 H 363.805 -3.17275 2.22295 0
M  V30 3889 H 364.219 -2.83762 4.41111 0
M  V30 3890 H 365.693 -4.27775 3.48874 0
M  V30 3891 H 366.17 -3.99919 1.81553 0
M  V30 3892 H 366.776 -2.91962 3.09255 0
M  V30 3893 N 365.091 -1.34144 -0.827227 0
M  V30 3894 C 366.039 -1.25364 -1.95925 0
M  V30 3895 C 367.033 -0.152608 -1.68711 0
M  V30 3896 O 368.239 -0.317311 -1.77181 0
M  V30 3897 H 364.614 -0.389342 -0.643364 0
M  V30 3898 H 366.585 -2.21045 -2.00454 0
M  V30 3899 C 365.334 -1.02158 -3.32354 0
M  V30 3900 H 364.657 -1.86111 -3.5384 0
M  V30 3901 H 366.097 -1.00048 -4.12027 0
M  V30 3902 C 364.556 0.275244 -3.35774 0
M  V30 3903 O 365.086 1.27806 -3.80826 0
M  V30 3904 N 363.292 0.306853 -2.88975 0
M  V30 3905 H 362.839 -0.509777 -2.52506 0
M  V30 3906 H 362.797 1.17432 -2.91646 0
M  V30 3907 N 366.569 1.04691 -1.17803 0
M  V30 3908 C 367.532 2.10724 -0.901545 0
M  V30 3909 C 368.532 1.6042 0.110437 0
M  V30 3910 O 369.722 1.7377 -0.122303 0
M  V30 3911 C 366.854 3.39084 -0.351409 0
M  V30 3912 H 368.047 2.36686 -1.84174 0
M  V30 3913 H 365.6 1.21015 -0.98919 0
M  V30 3914 H 366.335 3.18782 0.59569 0
M  V30 3915 H 366.12 3.76909 -1.08083 0
M  V30 3916 H 367.61 4.17227 -0.176451 0
M  V30 3917 N 368.047 0.979072 1.23499 0
M  V30 3918 C 369.277 0.664237 1.95631 0
M  V30 3919 C 369.685 -0.772653 1.72704 0
M  V30 3920 O 369.028 -1.53141 1.01457 0
M  V30 3921 C 369.09 0.873115 3.48736 0
M  V30 3922 C 368.754 2.29182 3.95379 0
M  V30 3923 C 369.751 3.2704 4.04155 0
M  V30 3924 C 367.436 2.62256 4.28401 0
M  V30 3925 C 369.43 4.56052 4.45304 0
M  V30 3926 C 367.117 3.91491 4.69231 0
M  V30 3927 C 368.115 4.88201 4.77649 0
M  V30 3928 O 367.803 6.15129 5.17563 0
M  V30 3929 H 367.535 0.245915 0.629684 0
M  V30 3930 H 370.089 1.3127 1.57979 0
M  V30 3931 H 368.319 0.167476 3.86337 0
M  V30 3932 H 370.008 0.555642 4.02079 0
M  V30 3933 H 370.774 3.02819 3.78848 0
M  V30 3934 H 366.653 1.87692 4.21061 0
M  V30 3935 H 370.197 5.31538 4.51789 0
M  V30 3936 H 366.094 4.15508 4.93987 0
M  V30 3937 H 366.862 6.18862 5.35679 0
M  V30 3938 N 369.525 -1.3858 0.750561 0
M  V30 3939 C 370.755 -2.04175 0.31564 0
M  V30 3940 C 371.163 -1.56726 -1.05989 0
M  V30 3941 O 370.506 -0.734225 -1.68389 0
M  V30 3942 C 370.568 -3.58585 0.256389 0
M  V30 3943 C 370.232 -4.29077 1.57296 0
M  V30 3944 C 371.229 -4.54656 2.52159 0
M  V30 3945 C 368.914 -4.67324 1.84156 0
M  V30 3946 C 370.908 -5.17512 3.72103 0
M  V30 3947 C 368.595 -5.29905 3.04374 0
M  V30 3948 C 369.593 -5.54933 3.98168 0
M  V30 3949 O 369.281 -6.16212 5.16273 0
M  V30 3950 H 369.013 -0.662742 0.133226 0
M  V30 3951 H 371.567 -1.78313 1.01948 0
M  V30 3952 H 369.797 -3.83406 -0.503677 0
M  V30 3953 H 371.486 -4.05628 -0.148612 0
M  V30 3954 H 372.252 -4.25539 2.32683 0
M  V30 3955 H 368.131 -4.47191 1.11988 0
M  V30 3956 H 371.675 -5.36963 4.45327 0
M  V30 3957 H 367.572 -5.58444 3.23745 0
M  V30 3958 H 368.34 -6.34701 5.16815 0
M  V30 3959 N 371.003 -0.499398 -1.49478 0
M  V30 3960 C 371.913 0.284489 -2.32869 0
M  V30 3961 C 372.929 0.968885 -1.44529 0
M  V30 3962 O 374.105 0.95062 -1.77553 0
M  V30 3963 C 371.17 1.33594 -3.19928 0
M  V30 3964 C 370.231 0.665149 -4.24116 0
M  V30 3965 C 369.464 1.6665 -5.07014 0
M  V30 3966 O 369.687 2.89618 -4.91404 0
M  V30 3967 O 368.621 1.22271 -5.8935 0
M  V30 3968 H 372.447 -0.39802 -3.01081 0
M  V30 3969 H 370.032 -0.260758 -1.47107 0
M  V30 3970 H 371.914 1.94431 -3.73864 0
M  V30 3971 H 370.589 2.0014 -2.54412 0
M  V30 3972 H 369.496 0.0170769 -3.74096 0
M  V30 3973 H 370.829 0.0421555 -4.92182 0
M  V30 3974 N 372.481 1.55866 -0.233164 0
M  V30 3975 C 373.414 2.16794 0.712442 0
M  V30 3976 C 374.392 1.1158 1.18273 0
M  V30 3977 O 375.576 1.39897 1.26337 0
M  V30 3978 C 372.703 2.75757 1.96661 0
M  V30 3979 C 371.749 3.93902 1.63533 0
M  V30 3980 S 372.582 5.30223 0.74995 0
M  V30 3981 C 373.738 5.92631 2.01343 0
M  V30 3982 H 373.971 2.96662 0.194617 0
M  V30 3983 H 371.504 1.5439 -0.0177425 0
M  V30 3984 H 373.462 3.10367 2.68668 0
M  V30 3985 H 372.123 1.9586 2.45556 0
M  V30 3986 H 371.316 4.33702 2.56747 0
M  V30 3987 H 370.918 3.60499 0.995804 0
M  V30 3988 H 373.21 6.09312 2.96219 0
M  V30 3989 H 374.153 6.88388 1.65915 0
M  V30 3990 H 374.561 5.21571 2.15925 0
M  V30 3991 N 373.959 -0.0401083 1.57549 0
M  V30 3992 C 375.184 -0.748931 1.93406 0
M  V30 3993 C 375.609 -1.68686 0.832274 0
M  V30 3994 O 374.967 -1.80047 -0.212818 0
M  V30 3995 C 375.015 -1.4916 3.28304 0
M  V30 3996 O 374.119 -2.6042 3.19774 0
M  V30 3997 H 373.46 -0.202212 0.63246 0
M  V30 3998 H 375.99 0.00112086 2.046 0
M  V30 3999 H 376 -1.86395 3.62934 0
M  V30 4000 H 374.675 -0.80364 4.08062 0
M  V30 4001 H 373.252 -2.25808 2.96758 0
M  V30 4002 N 375.437 -1.54477 -0.31217 0
M  V30 4003 C 376.685 -1.72884 -1.04668 0
M  V30 4004 C 377.006 -0.511477 -1.88173 0
M  V30 4005 O 376.276 0.474407 -1.90069 0
M  V30 4006 H 374.856 -0.637461 -0.389425 0
M  V30 4007 H 377.518 -1.91807 -0.345852 0
M  V30 4008 H 376.614 -2.61334 -1.70619 0
M  V30 4009 N 376.915 0.57481 -1.46744 0
M  V30 4010 C 377.845 1.69337 -1.60771 0
M  V30 4011 C 378.826 1.63825 -0.457736 0
M  V30 4012 O 380.011 1.8172 -0.684947 0
M  V30 4013 C 377.141 3.0798 -1.60517 0
M  V30 4014 C 376.095 3.28327 -2.74564 0
M  V30 4015 C 375.421 4.67578 -2.59373 0
M  V30 4016 C 376.721 3.15398 -4.16319 0
M  V30 4017 H 378.415 1.57853 -2.54407 0
M  V30 4018 H 375.961 0.75799 -1.22436 0
M  V30 4019 H 377.914 3.86061 -1.68923 0
M  V30 4020 H 376.638 3.20381 -0.634305 0
M  V30 4021 H 375.297 2.52649 -2.65639 0
M  V30 4022 H 374.945 4.76755 -1.60353 0
M  V30 4023 H 374.645 4.82144 -3.35873 0
M  V30 4024 H 376.169 5.47817 -2.69682 0
M  V30 4025 H 377.583 3.83315 -4.26313 0
M  V30 4026 H 375.98 3.41482 -4.93468 0
M  V30 4027 H 377.05 2.12372 -4.3592 0
M  V30 4028 N 378.394 1.34581 0.820102 0
M  V30 4029 C 379.304 1.28471 1.96297 0
M  V30 4030 C 380.32 0.191902 1.72939 0
M  V30 4031 O 381.496 0.418879 1.96996 0
M  V30 4032 C 378.561 1.04281 3.30645 0
M  V30 4033 C 377.622 2.22745 3.66992 0
M  V30 4034 C 376.855 1.997 4.9493 0
M  V30 4035 O 377.078 0.956656 5.6232 0
M  V30 4036 O 376.012 2.86723 5.2922 0
M  V30 4037 H 379.838 2.24624 2.04396 0
M  V30 4038 H 377.423 1.14816 0.955913 0
M  V30 4039 H 379.305 0.925841 4.11104 0
M  V30 4040 H 377.98 0.111697 3.23507 0
M  V30 4041 H 376.887 2.40003 2.86966 0
M  V30 4042 H 378.22 3.14257 3.78819 0
M  V30 4043 N 379.872 -1.04064 1.18357 0
M  V30 4044 C 381.118 -1.77528 0.980397 0
M  V30 4045 C 381.451 -1.87948 -0.48879 0
M  V30 4046 O 380.726 -1.3876 -1.36293 0
M  V30 4047 C 381.009 -3.20797 1.63588 0
M  V30 4048 C 380.862 -3.1832 3.17793 0
M  V30 4049 C 382.181 -4.18911 1.34914 0
M  V30 4050 H 379.3 -0.644443 0.357578 0
M  V30 4051 H 381.942 -1.2156 1.46024 0
M  V30 4052 H 380.092 -3.68586 1.22788 0
M  V30 4053 H 381.764 -2.78521 3.67728 0
M  V30 4054 H 380.007 -2.56351 3.49952 0
M  V30 4055 H 380.678 -4.19489 3.58794 0
M  V30 4056 H 383.154 -3.7967 1.70265 0
M  V30 4057 H 382.03 -5.17374 1.83346 0
M  V30 4058 H 382.291 -4.41262 0.272027 0
M  V30 4059 N 381.35 -0.985608 -1.22978 0
M  V30 4060 C 382.575 -0.675254 -1.961 0
M  V30 4061 C 383 0.752154 -1.72407 0
M  V30 4062 O 382.358 1.5131 -0.998751 0
M  V30 4063 C 382.406 -0.977899 -3.47087 0
M  V30 4064 O 381.51 -0.072685 -4.12336 0
M  V30 4065 H 380.851 -0.253443 -0.613728 0
M  V30 4066 H 383.381 -1.32061 -1.56272 0
M  V30 4067 H 383.391 -0.916739 -3.97567 0
M  V30 4068 H 382.066 -2.01807 -3.63657 0
M  V30 4069 H 380.643 -0.188703 -3.72422 0
M  V30 4070 N 382.828 1.3818 -0.7579 0
M  V30 4071 C 384.075 2.00019 -0.315985 0
M  V30 4072 C 384.403 1.60163 1.10355 0
M  V30 4073 O 383.658 0.83264 1.77103 0
M  V30 4074 C 383.957 3.55252 -0.391218 0
M  V30 4075 C 383.623 4.14834 -1.76702 0
M  V30 4076 C 382.285 4.30821 -2.14353 0
M  V30 4077 C 384.637 4.47658 -2.66931 0
M  V30 4078 C 381.965 4.76928 -3.41696 0
M  V30 4079 C 384.317 4.95184 -3.93669 0
M  V30 4080 C 382.981 5.09377 -4.31383 0
M  V30 4081 H 382.251 0.731923 -0.115627 0
M  V30 4082 H 384.898 1.65161 -0.969223 0
M  V30 4083 H 383.203 3.90273 0.34558 0
M  V30 4084 H 384.9 4.00988 -0.030805 0
M  V30 4085 H 381.49 4.02808 -1.46435 0
M  V30 4086 H 385.674 4.34904 -2.39106 0
M  V30 4087 H 380.93 4.86103 -3.70829 0
M  V30 4088 H 385.104 5.19551 -4.63724 0
M  V30 4089 H 382.731 5.44865 -5.30119 0
M  V30 4090 N 384.306 0.507319 1.49211 0
M  V30 4091 C 385.216 -0.272136 2.33016 0
M  V30 4092 C 386.232 -0.961206 1.45041 0
M  V30 4093 O 387.408 -0.941191 1.78055 0
M  V30 4094 C 384.473 -1.31895 3.20631 0
M  V30 4095 C 383.534 -0.642648 4.24463 0
M  V30 4096 C 382.767 -1.63959 5.07891 0
M  V30 4097 O 382.99 -2.87007 4.92933 0
M  V30 4098 O 381.924 -1.19143 5.8999 0
M  V30 4099 H 385.75 0.413982 3.00865 0
M  V30 4100 H 383.335 0.268556 1.46966 0
M  V30 4101 H 385.217 -1.92446 3.7489 0
M  V30 4102 H 383.892 -1.98788 2.5547 0
M  V30 4103 H 382.799 0.00276252 3.741 0
M  V30 4104 H 384.132 -0.0160534 4.92197 0
M  V30 4105 N 385.784 -1.5574 0.241426 0
M  V30 4106 C 386.694 -2.2479 -0.671305 0
M  V30 4107 C 387.71 -1.26217 -1.19772 0
M  V30 4108 O 388.886 -1.59079 -1.23514 0
M  V30 4109 C 385.951 -2.92966 -1.85396 0
M  V30 4110 C 385.012 -4.06935 -1.36756 0
M  V30 4111 C 384.245 -4.71851 -2.49384 0
M  V30 4112 O 384.468 -4.35823 -3.67987 0
M  V30 4113 O 383.402 -5.60467 -2.19454 0
M  V30 4114 H 387.228 -3.0349 -0.112966 0
M  V30 4115 H 384.813 -1.49397 0.0101513 0
M  V30 4116 H 386.695 -3.35927 -2.54423 0
M  V30 4117 H 385.37 -2.17211 -2.40002 0
M  V30 4118 H 384.277 -3.68503 -0.644726 0
M  V30 4119 H 385.61 -4.84492 -0.867647 0
M  V30 4120 N 387.262 0.0317525 -1.57568 0
M  V30 4121 C 388.192 1.03274 -2.0942 0
M  V30 4122 C 389.173 1.3788 -0.996143 0
M  V30 4123 O 390.358 1.46811 -1.27122 0
M  V30 4124 C 387.488 2.33448 -2.57137 0
M  V30 4125 C 386.442 2.13091 -3.71182 0
M  V30 4126 C 385.768 3.49001 -4.05095 0
M  V30 4127 C 387.068 1.51928 -4.99715 0
M  V30 4128 H 388.762 0.60112 -2.93303 0
M  V30 4129 H 386.308 0.287705 -1.41097 0
M  V30 4130 H 388.261 3.03802 -2.92032 0
M  V30 4131 H 386.985 2.78665 -1.70333 0
M  V30 4132 H 385.644 1.45171 -3.36632 0
M  V30 4133 H 385.292 3.91862 -3.15362 0
M  V30 4134 H 384.992 3.36207 -4.81911 0
M  V30 4135 H 386.516 4.20721 -4.42522 0
M  V30 4136 H 387.93 2.12196 -5.32584 0
M  V30 4137 H 386.327 1.49716 -5.81124 0
M  V30 4138 H 387.397 0.484811 -4.8247 0
M  V30 4139 N 388.74 1.54641 0.303973 0
M  V30 4140 C 390.156 1.45788 0.649463 0
M  V30 4141 C 390.356 0.64666 1.90842 0
M  V30 4142 O 389.412 0.153183 2.52035 0
M  V30 4143 C 390.725 2.89718 0.805227 0
M  V30 4144 C 392.273 2.99742 0.901305 0
M  V30 4145 C 392.748 4.44863 1.08909 0
M  V30 4146 N 394.239 4.48559 1.15536 0
M  V30 4147 C 394.974 5.58026 1.3189 0
M  V30 4148 N 394.47 6.77422 1.45161 0
M  V30 4149 N 396.263 5.45708 1.34755 0
M  V30 4150 H 388.414 2.05854 -0.523237 0
M  V30 4151 H 390.677 0.932186 -0.172431 0
M  V30 4152 H 390.383 3.51666 -0.0489108 0
M  V30 4153 H 390.257 3.36964 1.69513 0
M  V30 4154 H 392.644 2.3791 1.74593 0
M  V30 4155 H 392.725 2.55797 -0.0125531 0
M  V30 4156 H 392.369 5.07288 0.249241 0
M  V30 4157 H 392.299 4.86436 2.01713 0
M  V30 4158 H 394.79 3.6254 1.06646 0
M  V30 4159 H 395.103 7.56604 1.57387 0
M  V30 4160 H 393.448 6.80292 1.42223 0
M  V30 4161 H 396.639 4.51378 1.23996 0
M  V30 4162 H 396.812 6.3107 1.47157 0
M  V30 4163 N 390.218 -0.567019 1.47046 0
M  V30 4164 C 391.446 -1.35027 1.56765 0
M  V30 4165 C 391.861 -1.8758 0.214316 0
M  V30 4166 O 391.218 -1.64471 -0.790919 0
M  V30 4167 C 391.269 -2.52698 2.58507 0
M  V30 4168 O 390.99 -2.0232 3.88585 0
M  V30 4169 C 392.491 -3.45043 2.78316 0
M  V30 4170 H 389.711 -0.41195 0.529658 0
M  V30 4171 H 392.255 -0.687832 1.92585 0
M  V30 4172 H 390.41 -3.149 2.25648 0
M  V30 4173 H 390.824 -2.79068 4.44096 0
M  V30 4174 H 392.298 -4.2405 3.53391 0
M  V30 4175 H 392.775 -3.97971 1.85784 0
M  V30 4176 H 393.381 -2.88665 3.12334 0
M  V30 4177 N 391.696 -1.35014 -0.812953 0
M  V30 4178 C 392.943 -1.27931 -1.56971 0
M  V30 4179 C 393.271 0.148034 -1.93936 0
M  V30 4180 O 392.526 1.11175 -1.61054 0
M  V30 4181 C 392.825 -2.12524 -2.87347 0
M  V30 4182 C 392.491 -3.61401 -2.6963 0
M  V30 4183 C 391.153 -4.01983 -2.64506 0
M  V30 4184 C 393.505 -4.55894 -2.52607 0
M  V30 4185 C 390.833 -5.35235 -2.40293 0
M  V30 4186 C 393.185 -5.89336 -2.29925 0
M  V30 4187 C 391.849 -6.2907 -2.23219 0
M  V30 4188 H 391.119 -0.468131 -0.574399 0
M  V30 4189 H 393.766 -1.66851 -0.939836 0
M  V30 4190 H 392.071 -1.66463 -3.54679 0
M  V30 4191 H 393.768 -2.04383 -3.45005 0
M  V30 4192 H 390.358 -3.29193 -2.74463 0
M  V30 4193 H 394.542 -4.25431 -2.55583 0
M  V30 4194 H 389.798 -5.65028 -2.33566 0
M  V30 4195 H 393.972 -6.62139 -2.15743 0
M  V30 4196 H 391.599 -7.32256 -2.04219 0
M  V30 4197 N 393.175 1.03435 -1.18907 0
M  V30 4198 C 394.423 1.76394 -0.986382 0
M  V30 4199 C 394.744 1.88883 0.484567 0
M  V30 4200 O 394.014 1.41843 1.3512 0
M  V30 4201 H 392.594 0.65344 -0.361975 0
M  V30 4202 H 395.256 1.248 -1.49703 0
M  V30 4203 H 394.352 2.77424 -1.42978 0
M  V30 4204 N 394.653 0.992116 1.22453 0
M  V30 4205 C 395.901 0.666215 1.90804 0
M  V30 4206 C 396.222 -0.804152 1.77647 0
M  V30 4207 O 395.492 -1.57629 1.16318 0
M  V30 4208 H 394.072 0.243423 0.706225 0
M  V30 4209 H 396.734 1.25845 1.48825 0
M  V30 4210 H 395.83 0.928069 2.97982 0
M  V30 4211 N 396.131 -1.37776 0.765217 0
M  V30 4212 C 397.081 -2.2768 0.12075 0
M  V30 4213 C 398.065 -1.45778 -0.680988 0
M  V30 4214 O 399.257 -1.684 -0.545033 0
M  V30 4215 C 396.386 -3.34722 -0.762626 0
M  V30 4216 C 395.472 -4.24074 0.0465881 0
M  V30 4217 N 395.863 -4.93939 1.08892 0
M  V30 4218 C 394.161 -4.45643 -0.178418 0
M  V30 4219 C 394.862 -5.59845 1.57951 0
M  V30 4220 N 393.838 -5.36218 0.892797 0
M  V30 4221 H 397.64 -2.79166 0.918889 0
M  V30 4222 H 395.154 -1.50816 0.602353 0
M  V30 4223 H 397.151 -3.98031 -1.24005 0
M  V30 4224 H 395.811 -2.84793 -1.55959 0
M  V30 4225 H 396.822 -4.96572 1.47095 0
M  V30 4226 H 393.499 -4.06599 -0.9478 0
M  V30 4227 H 394.889 -6.25703 2.44838 0
M  V30 4228 N 397.609 -0.515225 -1.4894 0
M  V30 4229 C 398.886 0.0879088 -1.95402 0
M  V30 4230 C 399.266 1.52745 -1.45712 0
M  V30 4231 O 398.614 2.18238 -0.677093 0
M  V30 4232 C 398.824 -0.0141055 -3.48997 0
M  V30 4233 C 400.172 0.152646 -4.24326 0
M  V30 4234 O 401.196 0.0604025 -3.56149 0
M  V30 4235 O 400.055 0.34384 -5.45417 0
M  V30 4236 H 397.149 0.0874636 -0.822362 0
M  V30 4237 H 399.695 -0.578775 -1.59525 0
M  V30 4238 H 398.467 -1.01745 -3.77841 0
M  V30 4239 H 398.09 0.692091 -3.9153 0
M  V30 4240 N 399.087 1.5561 -0.249682 0
M  V30 4241 C 400.05 2.20217 0.635394 0
M  V30 4242 C 401.05 1.17227 1.10066 0
M  V30 4243 O 402.24 1.42292 1.00492 0
M  V30 4244 C 399.372 2.84794 1.87363 0
M  V30 4245 H 400.565 2.99814 0.0716752 0
M  V30 4246 H 398.118 1.563 -0.000153234 0
M  V30 4247 H 398.853 2.09142 2.47851 0
M  V30 4248 H 398.638 3.60241 1.5482 0
M  V30 4249 H 400.128 3.3423 2.5036 0
M  V30 4250 N 400.565 -0.0233959 1.57583 0
M  V30 4251 C 401.512 -1.02224 2.06927 0
M  V30 4252 C 402.482 -1.35575 0.959617 0
M  V30 4253 O 403.667 -1.45815 1.23055 0
M  V30 4254 C 400.807 -2.31636 2.5581 0
M  V30 4255 C 399.92 -2.04394 3.80588 0
M  V30 4256 C 399.055 -3.27717 4.18061 0
M  V30 4257 C 398.094 -2.96056 5.3574 0
M  V30 4258 N 397.231 -4.11847 5.68618 0
M  V30 4259 H 402.071 -0.594504 2.9201 0
M  V30 4260 H 399.608 -0.281921 1.44373 0
M  V30 4261 H 401.566 -3.07258 2.82221 0
M  V30 4262 H 400.196 -2.72122 1.73636 0
M  V30 4263 H 399.248 -1.19244 3.61227 0
M  V30 4264 H 400.56 -1.77042 4.66323 0
M  V30 4265 H 399.714 -4.11702 4.4563 0
M  V30 4266 H 398.453 -3.58188 3.30988 0
M  V30 4267 H 397.458 -2.10474 5.07918 0
M  V30 4268 H 398.683 -2.66857 6.24471 0
M  V30 4269 H 396.629 -4.42258 4.84504 0
M  V30 4270 H 396.546 -3.87938 6.48876 0
M  V30 4271 H 397.814 -4.96689 6.00766 0
M  V30 4272 N 402.043 -1.548 -0.295768 0
M  V30 4273 C 403.29 -1.74329 -1.03032 0
M  V30 4274 C 403.618 -0.531915 -1.87085 0
M  V30 4275 O 402.873 0.486052 -1.89568 0
M  V30 4276 C 403.172 -2.98797 -1.961 0
M  V30 4277 C 402.838 -4.32356 -1.2798 0
M  V30 4278 C 401.5 -4.68661 -1.09135 0
M  V30 4279 C 403.852 -5.15128 -0.793243 0
M  V30 4280 C 401.18 -5.85312 -0.403269 0
M  V30 4281 C 403.532 -6.32488 -0.118854 0
M  V30 4282 C 402.196 -6.6745 0.0815043 0
M  V30 4283 H 401.466 -0.637916 -0.37702 0
M  V30 4284 H 404.113 -1.8906 -0.304696 0
M  V30 4285 H 402.418 -2.78869 -2.75207 0
M  V30 4286 H 404.115 -3.11102 -2.53015 0
M  V30 4287 H 400.705 -4.03808 -1.43655 0
M  V30 4288 H 404.889 -4.87575 -0.92653 0
M  V30 4289 H 400.145 -6.1094 -0.237098 0
M  V30 4290 H 404.319 -6.95892 0.266035 0
M  V30 4291 H 401.946 -7.57695 0.616685 0
M  V30 4292 N 403.521 0.559213 -1.47345 0
M  V30 4293 C 404.77 1.31281 -1.53128 0
M  V30 4294 C 405.083 1.94602 -0.197344 0
M  V30 4295 O 406.289 2.71173 -0.133154 0
M  V30 4296 C 404.745 2.38051 -2.69925 0
M  V30 4297 C 404.353 1.8093 -4.0984 0
M  V30 4298 C 406.097 3.14604 -2.84999 0
M  V30 4299 C 404.004 2.85468 -5.1794 0
M  V30 4300 H 402.934 0.493614 -0.569966 0
M  V30 4301 H 405.585 0.594155 -1.73615 0
M  V30 4302 H 403.967 3.12822 -2.42814 0
M  V30 4303 H 405.141 1.12544 -4.46845 0
M  V30 4304 H 403.456 1.16967 -3.99634 0
M  V30 4305 H 406.053 3.92666 -3.62929 0
M  V30 4306 H 406.396 3.68665 -1.93369 0
M  V30 4307 H 406.929 2.46945 -3.1187 0
M  V30 4308 H 403.668 2.36264 -6.1144 0
M  V30 4309 H 403.188 3.52269 -4.85455 0
M  V30 4310 H 404.867 3.48996 -5.44803 0
M  V30 4311 N 404.999 1.35443 0.805782 0
M  V30 4312 C 406.276 1.19325 1.54987 0
M  V30 4313 C 406.656 -0.227294 2.09873 0
M  V30 4314 O 406.004 -1.2309 1.92512 0
M  V30 4315 C 406.214 2.26196 2.65775 0
M  V30 4316 C 407.562 2.62043 3.34094 0
M  V30 4317 O 408.586 2.25115 2.76046 0
M  V30 4318 O 407.445 3.25542 4.38958 0
M  V30 4319 H 404.539 0.463623 0.684823 0
M  V30 4320 H 407.085 1.47127 0.845674 0
M  V30 4321 H 405.857 3.21471 2.23096 0
M  V30 4322 H 405.48 1.99667 3.43829 0
M  V30 4323 N 406.477 -1.02803 1.19454 0
M  V30 4324 C 407.702 -1.80378 1.02364 0
M  V30 4325 C 408.127 -1.83282 -0.423007 0
M  V30 4326 O 407.485 -1.25945 -1.30413 0
M  V30 4327 C 407.533 -3.23248 1.59821 0
M  V30 4328 O 406.637 -4.04 0.828105 0
M  V30 4329 H 405.978 -0.556799 0.361761 0
M  V30 4330 H 408.508 -1.29385 1.58495 0
M  V30 4331 H 408.518 -3.73994 1.63073 0
M  V30 4332 H 407.193 -3.2045 2.65113 0
M  V30 4333 H 405.77 -3.62635 0.86891 0
M  V30 4334 N 407.956 -0.998596 -1.21925 0
M  V30 4335 C 408.886 -0.573688 -2.26343 0
M  V30 4336 C 409.867 0.402296 -1.65274 0
M  V30 4337 O 411.052 0.291683 -1.91997 0
M  V30 4338 C 408.182 0.106839 -3.47136 0
M  V30 4339 C 407.136 -0.788269 -4.20678 0
M  V30 4340 C 406.462 0.0254927 -5.34694 0
M  V30 4341 C 407.762 -2.08784 -4.78755 0
M  V30 4342 H 409.456 -1.44651 -2.62138 0
M  V30 4343 H 407.002 -0.696975 -1.26009 0
M  V30 4344 H 408.955 0.415531 -4.19346 0
M  V30 4345 H 407.679 1.01424 -3.10452 0
M  V30 4346 H 406.338 -1.08069 -3.50309 0
M  V30 4347 H 405.986 0.933989 -4.94253 0
M  V30 4348 H 405.686 -0.570437 -5.84825 0
M  V30 4349 H 407.21 0.328147 -6.09718 0
M  V30 4350 H 408.624 -1.84272 -5.42878 0
M  V30 4351 H 407.021 -2.63307 -5.39249 0
M  V30 4352 H 408.091 -2.76284 -3.98491 0
M  V30 4353 N 409.434 1.37368 -0.772513 0
M  V30 4354 C 410.366 2.28899 -0.117502 0
M  V30 4355 C 411.379 1.4867 0.663405 0
M  V30 4356 O 412.568 1.71314 0.501372 0
M  V30 4357 C 409.668 3.2788 0.857192 0
M  V30 4358 C 408.841 4.37207 0.129938 0
M  V30 4359 C 407.9 5.16257 1.01811 0
M  V30 4360 O 406.926 5.67159 0.481601 0
M  V30 4361 N 408.128 5.31058 2.3443 0
M  V30 4362 H 410.893 2.85752 -0.903662 0
M  V30 4363 H 408.454 1.49353 -0.62493 0
M  V30 4364 H 410.446 3.77647 1.45482 0
M  V30 4365 H 409.016 2.7179 1.54432 0
M  V30 4366 H 408.236 3.88827 -0.648605 0
M  V30 4367 H 409.524 5.07434 -0.372559 0
M  V30 4368 H 408.922 4.91287 2.80452 0
M  V30 4369 H 407.479 5.84131 2.89197 0
M  V30 4370 N 410.912 0.523116 1.48665 0
M  V30 4371 C 411.822 -0.247406 2.33292 0
M  V30 4372 C 412.838 -0.945769 1.46052 0
M  V30 4373 O 414.014 -0.922253 1.79043 0
M  V30 4374 C 411.079 -1.28487 3.22012 0
M  V30 4375 C 410.14 -0.597592 4.2512 0
M  V30 4376 C 409.373 -1.58563 5.09601 0
M  V30 4377 O 409.596 -2.81763 4.95949 0
M  V30 4378 O 408.53 -1.12879 5.91221 0
M  V30 4379 H 412.356 0.445869 3.00409 0
M  V30 4380 H 409.941 0.284128 1.46673 0
M  V30 4381 H 411.823 -1.88459 3.7691 0
M  V30 4382 H 410.498 -1.96068 2.57564 0
M  V30 4383 H 409.405 0.0424407 3.74076 0
M  V30 4384 H 410.738 0.0361517 4.92187 0
M  V30 4385 N 412.39 -1.55475 0.257931 0
M  V30 4386 C 413.338 -2.23244 -0.653076 0
M  V30 4387 C 414.332 -1.22366 -1.17144 0
M  V30 4388 O 415.538 -1.40347 -1.12706 0
M  V30 4389 H 411.913 -0.716247 -0.229117 0
M  V30 4390 H 413.884 -2.98343 -0.0584788 0
M  V30 4391 C 412.633 -2.95401 -1.83395 0
M  V30 4392 H 411.956 -3.72802 -1.44424 0
M  V30 4393 H 413.396 -3.46165 -2.44838 0
M  V30 4394 C 411.855 -1.99895 -2.71189 0
M  V30 4395 O 412.385 -1.53909 -3.71046 0
M  V30 4396 N 410.591 -1.6676 -2.3799 0
M  V30 4397 H 410.138 -2.04352 -1.56837 0
M  V30 4398 H 410.096 -1.03127 -2.97005 0
M  V30 4399 N 413.868 0.0150385 -1.57593 0
M  V30 4400 C 414.778 1.02791 -2.10882 0
M  V30 4401 C 415.794 1.38702 -1.0506 0
M  V30 4402 O 416.97 1.47739 -1.36877 0
M  V30 4403 C 414.035 2.30568 -2.58919 0
M  V30 4404 C 413.096 2.01108 -3.79281 0
M  V30 4405 C 412.329 3.22794 -4.25018 0
M  V30 4406 O 412.552 4.33959 -3.70183 0
M  V30 4407 O 411.486 3.07672 -5.17322 0
M  V30 4408 H 415.312 0.604973 -2.97613 0
M  V30 4409 H 412.897 0.23292 -1.47573 0
M  V30 4410 H 414.779 3.05662 -2.90084 0
M  V30 4411 H 413.454 2.72129 -1.75293 0
M  V30 4412 H 412.361 1.23537 -3.53114 0
M  V30 4413 H 413.694 1.64394 -4.63935 0
M  V30 4414 N 415.346 1.54954 0.287554 0
M  V30 4415 C 416.593 1.74873 1.02106 0
M  V30 4416 C 416.921 0.541829 1.86801 0
M  V30 4417 O 416.176 -0.475992 1.89823 0
M  V30 4418 C 416.475 2.99833 1.94512 0
M  V30 4419 C 416.141 4.33029 1.25686 0
M  V30 4420 C 414.803 4.69233 1.06649 0
M  V30 4421 C 417.155 5.15542 0.765913 0
M  V30 4422 C 414.483 5.85518 0.372222 0
M  V30 4423 C 416.835 6.32542 0.0853101 0
M  V30 4424 C 415.499 6.67398 -0.1169 0
M  V30 4425 H 414.769 0.639906 0.373632 0
M  V30 4426 H 417.416 1.89219 0.294665 0
M  V30 4427 H 415.721 2.80325 2.73725 0
M  V30 4428 H 417.418 3.1244 2.51361 0
M  V30 4429 H 414.008 4.04564 1.41512 0
M  V30 4430 H 418.192 4.88059 0.90066 0
M  V30 4431 H 413.448 6.11057 0.204695 0
M  V30 4432 H 417.622 6.95741 -0.302936 0
M  V30 4433 H 415.249 7.57357 -0.656859 0
M  V30 4434 N 416.824 -0.551391 1.4764 0
M  V30 4435 C 418.24 -0.877887 1.33287 0
M  V30 4436 C 418.44 -1.98817 0.327721 0
M  V30 4437 O 417.496 -2.51171 -0.258695 0
M  V30 4438 C 418.809 -1.26563 2.72768 0
M  V30 4439 C 420.357 -1.37673 2.81097 0
M  V30 4440 C 420.832 -1.79799 4.21232 0
M  V30 4441 N 422.323 -1.8694 4.23802 0
M  V30 4442 C 423.058 -2.20876 5.29151 0
M  V30 4443 N 422.554 -2.53386 6.448 0
M  V30 4444 N 424.347 -2.217 5.16532 0
M  V30 4445 H 416.498 0.18153 2.11623 0
M  V30 4446 H 418.761 0.0185514 0.947818 0
M  V30 4447 H 418.467 -0.523591 3.47781 0
M  V30 4448 H 418.341 -2.22052 3.04915 0
M  V30 4449 H 420.728 -2.10956 2.06353 0
M  V30 4450 H 420.809 -0.40357 2.52596 0
M  V30 4451 H 420.453 -1.07083 4.96483 0
M  V30 4452 H 420.383 -2.78128 4.4716 0
M  V30 4453 H 422.874 -1.64179 3.40373 0
M  V30 4454 H 423.187 -2.78325 7.20941 0
M  V30 4455 H 421.532 -2.50953 6.48111 0
M  V30 4456 H 424.723 -1.95745 4.25207 0
M  V30 4457 H 424.896 -2.47818 5.98741 0
M  V30 4458 N 418.302 -1.35869 -0.798587 0
M  V30 4459 C 419.232 -1.32118 -1.92528 0
M  V30 4460 C 420.213 -0.194209 -1.68988 0
M  V30 4461 O 421.398 -0.390426 -1.90235 0
M  V30 4462 C 418.528 -1.10047 -3.29404 0
M  V30 4463 C 417.482 -2.19471 -3.67446 0
M  V30 4464 C 416.808 -1.82555 -5.02571 0
M  V30 4465 C 418.108 -3.61495 -3.76987 0
M  V30 4466 H 419.802 -2.26394 -1.95924 0
M  V30 4467 H 417.348 -1.08981 -0.94123 0
M  V30 4468 H 419.301 -1.06061 -4.07835 0
M  V30 4469 H 418.025 -0.122195 -3.26371 0
M  V30 4470 H 416.684 -2.22568 -2.91306 0
M  V30 4471 H 416.332 -0.833249 -4.9605 0
M  V30 4472 H 416.032 -2.5581 -5.28995 0
M  V30 4473 H 417.556 -1.80108 -5.83432 0
M  V30 4474 H 418.97 -3.60676 -4.4563 0
M  V30 4475 H 417.367 -4.33577 -4.14887 0
M  V30 4476 H 418.437 -3.97065 -2.78329 0
M  V30 4477 N 419.78 1.02168 -1.19998 0
M  V30 4478 C 421.01 1.79036 -1.031 0
M  V30 4479 C 421.418 1.84409 0.423078 0
M  V30 4480 O 420.761 1.29228 1.30559 0
M  V30 4481 C 420.823 3.25185 -1.53281 0
M  V30 4482 C 420.487 3.43431 -3.01503 0
M  V30 4483 C 421.484 3.33063 -3.99206 0
M  V30 4484 C 419.169 3.69412 -3.40353 0
M  V30 4485 C 421.163 3.48413 -5.33748 0
M  V30 4486 C 418.85 3.84406 -4.75053 0
M  V30 4487 C 419.848 3.7391 -5.71559 0
M  V30 4488 O 419.536 3.88452 -7.03818 0
M  V30 4489 H 419.268 0.570043 -0.363355 0
M  V30 4490 H 421.822 1.29524 -1.59414 0
M  V30 4491 H 420.052 3.75756 -0.913483 0
M  V30 4492 H 421.741 3.83671 -1.32481 0
M  V30 4493 H 422.507 3.12934 -3.70537 0
M  V30 4494 H 418.386 3.76671 -2.65782 0
M  V30 4495 H 421.93 3.40137 -6.09059 0
M  V30 4496 H 417.827 4.04035 -5.03415 0
M  V30 4497 H 418.595 4.055 -7.10993 0
M  V30 4498 N 421.258 1.00505 1.21394 0
M  V30 4499 C 422.488 0.705584 1.94178 0
M  V30 4500 C 422.896 -0.735846 1.74304 0
M  V30 4501 O 422.239 -1.50954 1.04683 0
M  V30 4502 C 422.301 0.94689 3.46806 0
M  V30 4503 C 421.965 2.37517 3.90429 0
M  V30 4504 C 422.962 3.35539 3.97127 0
M  V30 4505 C 420.647 2.71284 4.22742 0
M  V30 4506 C 422.641 4.65395 4.3553 0
M  V30 4507 C 420.328 4.01356 4.60822 0
M  V30 4508 C 421.326 4.98223 4.67186 0
M  V30 4509 O 421.014 6.25969 5.04399 0
M  V30 4510 H 420.746 0.259216 0.624326 0
M  V30 4511 H 423.3 1.34592 1.55159 0
M  V30 4512 H 421.53 0.249386 3.85895 0
M  V30 4513 H 423.219 0.640804 4.0081 0
M  V30 4514 H 423.985 3.10786 3.7234 0
M  V30 4515 H 419.864 1.96581 4.16985 0
M  V30 4516 H 423.408 5.41002 4.40412 0
M  V30 4517 H 419.305 4.25893 4.85063 0
M  V30 4518 H 420.073 6.30085 5.22431 0
M  V30 4519 N 422.737 -1.36956 0.779787 0
M  V30 4520 C 423.967 -2.03459 0.358877 0
M  V30 4521 C 424.375 -1.58939 -1.02641 0
M  V30 4522 O 423.718 -0.769777 -1.66794 0
M  V30 4523 C 423.78 -3.5796 0.332393 0
M  V30 4524 C 423.444 -4.25644 1.66362 0
M  V30 4525 C 424.441 -4.49205 2.61746 0
M  V30 4526 C 422.126 -4.63313 1.94027 0
M  V30 4527 C 424.12 -5.09503 3.82996 0
M  V30 4528 C 421.807 -5.2333 3.15546 0
M  V30 4529 C 422.805 -5.46363 4.0985 0
M  V30 4530 O 422.493 -6.05122 5.29228 0
M  V30 4531 H 422.225 -0.659767 0.147254 0
M  V30 4532 H 424.779 -1.76111 1.05708 0
M  V30 4533 H 423.009 -3.84388 -0.422237 0
M  V30 4534 H 424.698 -4.05852 -0.0625389 0
M  V30 4535 H 425.464 -4.20508 2.41657 0
M  V30 4536 H 421.343 -4.44715 1.21448 0
M  V30 4537 H 424.887 -5.27397 4.56617 0
M  V30 4538 H 420.784 -5.51451 3.35517 0
M  V30 4539 H 421.552 -6.23595 5.30161 0
M  V30 4540 N 424.215 -0.530993 -1.48385 0
M  V30 4541 C 425.163 0.244595 -2.3131 0
M  V30 4542 C 426.157 0.93451 -1.41291 0
M  V30 4543 O 427.363 0.85878 -1.58193 0
M  V30 4544 H 423.738 0.0977472 -0.74562 0
M  V30 4545 H 425.709 -0.474369 -2.94605 0
M  V30 4546 C 424.458 1.2779 -3.23365 0
M  V30 4547 H 423.781 0.756439 -3.92579 0
M  V30 4548 H 425.221 1.79198 -3.84271 0
M  V30 4549 C 423.68 2.31205 -2.45042 0
M  V30 4550 O 424.21 3.37661 -2.17596 0
M  V30 4551 N 422.416 2.04446 -2.0652 0
M  V30 4552 H 421.963 1.17891 -2.2904 0
M  V30 4553 H 421.921 2.73861 -1.54427 0
M  V30 4554 N 425.693 1.55336 -0.266172 0
M  V30 4555 C 426.64 2.22172 0.625165 0
M  V30 4556 C 427.61 1.19211 1.15663 0
M  V30 4557 O 428.795 1.47723 1.20758 0
M  V30 4558 C 425.935 2.93972 1.8076 0
M  V30 4559 C 425.048 4.11632 1.31084 0
M  V30 4560 C 424.183 4.71099 2.45436 0
M  V30 4561 C 423.222 5.8097 1.92718 0
M  V30 4562 N 422.359 6.34538 3.00509 0
M  V30 4563 H 427.199 2.9796 0.0485582 0
M  V30 4564 H 424.736 1.47095 0.0122024 0
M  V30 4565 H 426.694 3.33811 2.50251 0
M  V30 4566 H 425.324 2.20623 2.35638 0
M  V30 4567 H 424.376 3.76975 0.509326 0
M  V30 4568 H 425.688 4.90893 0.884633 0
M  V30 4569 H 424.842 5.13612 3.22936 0
M  V30 4570 H 423.581 3.91096 2.91368 0
M  V30 4571 H 422.586 5.37916 1.13695 0
M  V30 4572 H 423.811 6.62836 1.47733 0
M  V30 4573 H 421.757 5.57433 3.45839 0
M  V30 4574 H 421.674 7.09046 2.62279 0
M  V30 4575 H 422.942 6.81709 3.78011 0
M  V30 4576 N 427.171 -0.0066808 1.57599 0
M  V30 4577 C 428.418 -0.69292 1.90276 0
M  V30 4578 C 428.746 -1.74148 0.866192 0
M  V30 4579 O 428.001 -1.95268 -0.129933 0
M  V30 4580 C 428.3 -1.37939 3.29708 0
M  V30 4581 C 427.966 -0.464679 4.48499 0
M  V30 4582 C 426.628 -0.212809 4.80729 0
M  V30 4583 C 428.98 0.16551 5.20937 0
M  V30 4584 C 426.308 0.677653 5.82773 0
M  V30 4585 C 428.66 1.04381 6.23929 0
M  V30 4586 C 427.324 1.30492 6.54621 0
M  V30 4587 H 426.594 -0.253558 0.696268 0
M  V30 4588 H 429.241 0.0474123 1.91441 0
M  V30 4589 H 427.546 -2.1936 3.24636 0
M  V30 4590 H 429.243 -1.9163 3.52249 0
M  V30 4591 H 425.833 -0.671153 4.23313 0
M  V30 4592 H 430.017 -0.0160756 4.96297 0
M  V30 4593 H 425.273 0.88803 6.04917 0
M  V30 4594 H 429.447 1.53851 6.79193 0
M  V30 4595 H 427.074 1.99662 7.33512 0
M  V30 4596 N 428.649 -1.55105 -0.279332 0
M  V30 4597 C 429.596 -1.8755 -1.34513 0
M  V30 4598 C 430.566 -0.726384 -1.49375 0
M  V30 4599 O 431.751 -0.977063 -1.63884 0
M  V30 4600 C 428.891 -2.14738 -2.70151 0
M  V30 4601 C 428.004 -3.42285 -2.63562 0
M  V30 4602 C 427.139 -3.59206 -3.91337 0
M  V30 4603 C 426.178 -4.80467 -3.79233 0
M  V30 4604 N 425.315 -4.94079 -4.98829 0
M  V30 4605 H 430.155 -2.78456 -1.06143 0
M  V30 4606 H 427.692 -1.37867 -0.512936 0
M  V30 4607 H 429.65 -2.28501 -3.49061 0
M  V30 4608 H 428.28 -1.27075 -2.96735 0
M  V30 4609 H 427.332 -3.37029 -1.76397 0
M  V30 4610 H 428.644 -4.31328 -2.50515 0
M  V30 4611 H 427.798 -3.72751 -4.78687 0
M  V30 4612 H 426.537 -2.68337 -4.07243 0
M  V30 4613 H 425.542 -4.66932 -2.90266 0
M  V30 4614 H 426.767 -5.72765 -3.64852 0
M  V30 4615 H 424.713 -4.06139 -5.15158 0
M  V30 4616 H 424.63 -5.77156 -4.8829 0
M  V30 4617 H 425.898 -5.12003 -5.8777 0
M  V30 4618 N 430.127 0.543554 -1.4793 0
M  V30 4619 C 431.404 1.30458 -1.4574 0
M  V30 4620 C 431.784 2.1048 -0.161692 0
M  V30 4621 O 431.132 2.11831 0.856734 0
M  V30 4622 C 431.342 2.19754 -2.71126 0
M  V30 4623 C 432.69 2.80334 -3.18901 0
M  V30 4624 O 433.714 2.30049 -2.71948 0
M  V30 4625 O 432.573 3.71766 -4.00565 0
M  V30 4626 H 429.667 0.588117 -0.581418 0
M  V30 4627 H 432.213 0.561328 -1.60147 0
M  V30 4628 H 430.985 1.60316 -3.56952 0
M  V30 4629 H 430.608 3.01351 -2.59371 0
M  V30 4630 N 431.605 1.3629 0.791371 0
M  V30 4631 C 432.854 1.29742 1.54434 0
M  V30 4632 C 433.167 -0.121729 1.95221 0
M  V30 4633 O 434.373 -0.309579 2.69729 0
M  V30 4634 C 432.829 2.27623 2.78776 0
M  V30 4635 C 432.437 3.74963 2.45166 0
M  V30 4636 C 434.181 2.30047 3.56761 0
M  V30 4637 C 432.088 4.64626 3.65891 0
M  V30 4638 H 431.018 0.482113 0.579727 0
M  V30 4639 H 433.669 1.61642 0.868565 0
M  V30 4640 H 432.051 1.88714 3.48142 0
M  V30 4641 H 433.225 4.22596 1.83709 0
M  V30 4642 H 431.54 3.75295 1.80396 0
M  V30 4643 H 434.137 2.94247 4.46456 0
M  V30 4644 H 434.48 1.30846 3.95203 0
M  V30 4645 H 435.013 2.67563 2.94372 0
M  V30 4646 H 431.752 5.64883 3.32547 0
M  V30 4647 H 431.272 4.2171 4.26521 0
M  V30 4648 H 432.951 4.80801 4.32943 0
M  V30 4649 N 433.083 -1.0153 1.20538 0
M  V30 4650 C 434.046 -2.0826 0.957098 0
M  V30 4651 C 435.046 -1.60657 -0.0678655 0
M  V30 4652 O 436.236 -1.73385 0.168332 0
M  V30 4653 C 433.368 -3.38033 0.441188 0
M  V30 4654 H 434.561 -2.31719 1.90384 0
M  V30 4655 H 432.114 -1.1835 1.02093 0
M  V30 4656 H 432.849 -3.20249 -0.510961 0
M  V30 4657 H 432.634 -3.73911 1.18038 0
M  V30 4658 H 434.124 -4.16613 0.287009 0
M  V30 4659 N 434.561 -1.01147 -1.20859 0
M  V30 4660 C 435.786 -0.716698 -1.94623 0
M  V30 4661 C 436.211 0.715415 -1.73964 0
M  V30 4662 O 435.569 1.49157 -1.03062 0
M  V30 4663 C 435.617 -1.0513 -3.44935 0
M  V30 4664 O 434.721 -0.160131 -4.12089 0
M  V30 4665 H 434.062 -0.266404 -0.608214 0
M  V30 4666 H 436.592 -1.35346 -1.53436 0
M  V30 4667 H 436.602 -1.00086 -3.95533 0
M  V30 4668 H 435.277 -2.09475 -3.59295 0
M  V30 4669 H 433.854 -0.267657 -3.71938 0
M  V30 4670 N 436.039 1.36541 -0.78704 0
M  V30 4671 C 437.267 2.03561 -0.370199 0
M  V30 4672 C 437.682 1.59347 1.01263 0
M  V30 4673 O 437.039 0.781781 1.64907 0
M  V30 4674 C 437.09 3.59033 -0.421614 0
M  V30 4675 O 436.811 4.01634 -1.7499 0
M  V30 4676 C 438.312 4.433 0.00489763 0
M  V30 4677 H 435.532 0.653346 -0.152904 0
M  V30 4678 H 438.076 1.74566 -1.06522 0
M  V30 4679 H 436.231 3.86746 0.224971 0
M  V30 4680 H 436.645 4.96217 -1.69909 0
M  V30 4681 H 438.119 5.51939 -0.0822184 0
M  V30 4682 H 438.596 4.26285 1.05723 0
M  V30 4683 H 439.202 4.20843 -0.614085 0
M  V30 4684 N 437.518 0.538854 1.48102 0
M  V30 4685 C 438.448 -0.207654 2.32575 0
M  V30 4686 C 439.429 -0.926559 1.4265 0
M  V30 4687 O 440.614 -0.91061 1.71527 0
M  V30 4688 C 437.744 -1.24957 3.24042 0
M  V30 4689 C 436.698 -0.648263 4.23062 0
M  V30 4690 C 436.024 -1.79348 5.03725 0
M  V30 4691 C 437.324 0.385897 5.20872 0
M  V30 4692 H 439.018 0.497534 2.95237 0
M  V30 4693 H 436.564 0.240715 1.41974 0
M  V30 4694 H 438.517 -1.77983 3.81969 0
M  V30 4695 H 437.241 -1.98446 2.59397 0
M  V30 4696 H 435.9 -0.139452 3.66335 0
M  V30 4697 H 435.548 -2.51696 4.35498 0
M  V30 4698 H 435.248 -1.39702 5.70751 0
M  V30 4699 H 436.772 -2.32735 5.64506 0
M  V30 4700 H 438.186 -0.057607 5.73271 0
M  V30 4701 H 436.583 0.700227 5.96001 0
M  V30 4702 H 437.653 1.28848 4.67468 0
M  V30 4703 N 438.996 -1.55193 0.274407 0
M  V30 4704 C 439.944 -2.23924 -0.629362 0
M  V30 4705 C 440.938 -1.23602 -1.1584 0
M  V30 4706 O 442.144 -1.41535 -1.11211 0
M  V30 4707 H 438.519 -0.718637 -0.221507 0
M  V30 4708 H 440.49 -2.98388 -0.0268322 0
M  V30 4709 C 439.239 -2.97329 -1.80252 0
M  V30 4710 H 438.562 -3.74313 -1.40462 0
M  V30 4711 H 440.002 -3.48743 -2.41152 0
M  V30 4712 C 438.461 -2.0276 -2.69054 0
M  V30 4713 O 438.991 -1.57836 -3.69392 0
M  V30 4714 N 437.197 -1.69275 -2.36208 0
M  V30 4715 H 436.744 -2.06004 -1.54661 0
M  V30 4716 H 436.702 -1.06271 -2.95895 0
M  V30 4717 N 440.474 -0.00167713 -1.576 0
M  V30 4718 C 441.421 0.989195 -2.08527 0
M  V30 4719 C 442.391 1.34031 -0.981065 0
M  V30 4720 O 443.576 1.43839 -1.2536 0
M  V30 4721 C 440.716 2.27537 -2.59463 0
M  V30 4722 C 439.829 1.98314 -3.83791 0
M  V30 4723 C 438.964 3.21025 -4.23222 0
M  V30 4724 C 438.003 2.87495 -5.40382 0
M  V30 4725 N 437.14 4.02749 -5.75098 0
M  V30 4726 H 441.98 0.547973 -2.92919 0
M  V30 4727 H 439.517 0.258917 -1.44803 0
M  V30 4728 H 441.475 3.02729 -2.87073 0
M  V30 4729 H 440.105 2.69325 -1.77943 0
M  V30 4730 H 439.157 1.13482 -3.63078 0
M  V30 4731 H 440.469 1.69601 -4.69081 0
M  V30 4732 H 439.623 4.04561 -4.52123 0
M  V30 4733 H 438.362 3.52877 -3.36644 0
M  V30 4734 H 437.367 2.02367 -5.11202 0
M  V30 4735 H 438.592 2.56889 -6.28637 0
M  V30 4736 H 436.538 4.34494 -4.91478 0
M  V30 4737 H 436.455 3.77566 -6.54966 0
M  V30 4738 H 437.723 4.87068 -6.08592 0
M  V30 4739 N 441.952 1.55251 0.271103 0
M  V30 4740 C 442.915 1.87484 1.31842 0
M  V30 4741 C 443.915 0.749545 1.42262 0
M  V30 4742 O 445.105 1.01771 1.4138 0
M  V30 4743 C 442.237 2.0818 2.69951 0
M  V30 4744 H 443.43 2.81108 1.0449 0
M  V30 4745 H 440.983 1.47771 0.509258 0
M  V30 4746 H 441.718 1.16944 3.02481 0
M  V30 4747 H 441.503 2.90114 2.63774 0
M  V30 4748 H 442.993 2.34385 3.4562 0
M  V30 4749 N 443.43 -0.535701 1.48216 0
M  V30 4750 C 444.377 -1.64083 1.62312 0
M  V30 4751 C 445.347 -1.59448 0.465365 0
M  V30 4752 O 446.532 -1.77959 0.688135 0
M  V30 4753 C 443.672 -3.0236 1.66349 0
M  V30 4754 C 442.785 -3.17273 2.93193 0
M  V30 4755 C 441.92 -4.46075 2.88427 0
M  V30 4756 C 440.959 -4.54496 4.1 0
M  V30 4757 N 440.096 -5.7468 4.03345 0
M  V30 4758 H 444.936 -1.51374 2.5669 0
M  V30 4759 H 442.473 -0.737059 1.27302 0
M  V30 4760 H 444.431 -3.82461 1.66672 0
M  V30 4761 H 443.061 -3.13854 0.754672 0
M  V30 4762 H 442.113 -2.30462 3.02641 0
M  V30 4763 H 443.425 -3.19357 3.83162 0
M  V30 4764 H 442.579 -5.3446 2.87119 0
M  V30 4765 H 441.318 -4.46504 1.96177 0
M  V30 4766 H 440.323 -3.64519 4.11589 0
M  V30 4767 H 441.548 -4.5581 5.03402 0
M  V30 4768 H 439.494 -5.76017 3.13912 0
M  V30 4769 H 439.411 -5.78234 4.87013 0
M  V30 4770 H 440.679 -6.65367 4.06087 0
M  V30 4771 N 444.908 -1.36708 -0.784132 0
M  V30 4772 C 446.133 -1.34565 -1.5782 0
M  V30 4773 C 446.558 0.0695257 -1.87971 0
M  V30 4774 O 445.916 1.04302 -1.48293 0
M  V30 4775 C 445.964 -2.17952 -2.87279 0
M  V30 4776 O 445.068 -1.57563 -3.81114 0
M  V30 4777 H 444.409 -0.460337 -0.478524 0
M  V30 4778 H 446.939 -1.80064 -0.971495 0
M  V30 4779 H 446.949 -2.30721 -3.365 0
M  V30 4780 H 445.624 -3.20823 -2.64661 0
M  V30 4781 H 444.201 -1.53764 -3.39722 0
M  V30 4782 N 446.386 1.0089 -1.21074 0
M  V30 4783 C 447.635 1.74019 -1.01981 0
M  V30 4784 C 447.948 1.90408 0.447665 0
M  V30 4785 O 449.154 2.60707 0.757906 0
M  V30 4786 C 447.61 3.13026 -1.77603 0
M  V30 4787 C 447.218 3.04623 -3.28495 0
M  V30 4788 C 448.962 3.90312 -1.66904 0
M  V30 4789 C 446.869 4.38685 -3.96623 0
M  V30 4790 H 445.799 0.652422 -0.377971 0
M  V30 4791 H 448.45 1.12755 -1.44771 0
M  V30 4792 H 446.832 3.74878 -1.27604 0
M  V30 4793 H 448.006 2.52032 -3.85767 0
M  V30 4794 H 446.321 2.40827 -3.39693 0
M  V30 4795 H 448.918 4.8951 -2.15138 0
M  V30 4796 H 449.261 4.11558 -0.62658 0
M  V30 4797 H 449.794 3.35104 -2.14359 0
M  V30 4798 H 446.533 4.22641 -5.01054 0
M  V30 4799 H 446.053 4.91252 -3.4414 0
M  V30 4800 H 447.732 5.075 -4.01314 0
M  V30 4801 N 447.864 1.01787 1.20321 0
M  V30 4802 C 449.11 0.708985 1.90003 0
M  V30 4803 C 449.443 -0.759572 1.78729 0
M  V30 4804 O 448.718 -1.55198 1.17234 0
M  V30 4805 C 449.001 1.1469 3.41348 0
M  V30 4806 C 448.854 2.67586 3.61549 0
M  V30 4807 C 450.173 0.71915 4.34185 0
M  V30 4808 H 447.292 0.259034 0.689978 0
M  V30 4809 H 449.934 1.26584 1.41692 0
M  V30 4810 H 448.084 0.673128 3.82624 0
M  V30 4811 H 449.756 3.22826 3.29517 0
M  V30 4812 H 447.999 3.085 3.04976 0
M  V30 4813 H 448.67 2.93281 4.67643 0
M  V30 4814 H 451.146 1.12647 4.00562 0
M  V30 4815 H 450.022 1.05358 5.38694 0
M  V30 4816 H 450.283 -0.379111 4.40472 0
M  V30 4817 N 449.342 -1.36122 0.79427 0
M  V30 4818 C 450.59 -1.98718 0.368177 0
M  V30 4819 C 450.911 -1.63345 -1.06506 0
M  V30 4820 O 450.181 -0.909825 -1.73491 0
M  V30 4821 H 448.761 -0.735038 0.133146 0
M  V30 4822 H 451.423 -1.66239 1.01739 0
M  V30 4823 H 450.519 -3.08633 0.463923 0
M  V30 4824 N 450.82 -0.546701 -1.47814 0
M  V30 4825 C 452.048 -0.0232857 -2.06887 0
M  V30 4826 C 452.463 1.26571 -1.4009 0
M  V30 4827 O 451.82 1.7569 -0.493906 0
M  V30 4828 C 451.871 0.186975 -3.61016 0
M  V30 4829 O 451.592 -1.05097 -4.25307 0
M  V30 4830 C 453.093 0.748872 -4.36929 0
M  V30 4831 H 450.313 -0.0410763 -0.669742 0
M  V30 4832 H 452.857 -0.757117 -1.89968 0
M  V30 4833 H 451.012 0.870903 -3.77484 0
M  V30 4834 H 451.426 -0.842121 -5.17695 0
M  V30 4835 H 452.9 0.845334 -5.45489 0
M  V30 4836 H 453.377 1.75772 -4.02493 0
M  V30 4837 H 453.983 0.100979 -4.2518 0
M  V30 4838 N 452.299 1.55045 -0.282633 0
M  V30 4839 C 453.527 2.04168 0.33512 0
M  V30 4840 C 453.942 1.16071 1.48906 0
M  V30 4841 O 453.299 0.182391 1.81586 0
M  V30 4842 C 453.35 3.52332 0.808957 0
M  V30 4843 O 453.071 4.37078 -0.299038 0
M  V30 4844 C 454.572 4.17375 1.49375 0
M  V30 4845 H 451.792 0.666744 0.0754543 0
M  V30 4846 H 454.336 2.00205 -0.416918 0
M  V30 4847 H 452.491 3.56715 1.51106 0
M  V30 4848 H 452.905 5.24458 0.0665514 0
M  V30 4849 H 454.379 5.22627 1.77664 0
M  V30 4850 H 454.856 3.65999 2.42778 0
M  V30 4851 H 455.462 4.17016 0.835305 0
M  V30 4852 N 453.777 0.010035 1.57597 0
M  V30 4853 C 454.74 -0.963029 2.07986 0
M  V30 4854 C 455.74 -1.26619 0.991173 0
M  V30 4855 O 456.93 -1.2097 1.25347 0
M  V30 4856 C 454.062 -2.2851 2.52974 0
M  V30 4857 H 455.255 -0.526971 2.95234 0
M  V30 4858 H 452.808 -0.237639 1.54483 0
M  V30 4859 H 453.543 -2.76784 1.69 0
M  V30 4860 H 453.328 -2.07824 3.32493 0
M  V30 4861 H 454.818 -2.98294 2.9225 0
M  V30 4862 N 455.255 -1.55392 -0.262866 0
M  V30 4863 C 456.48 -1.80847 -1.01533 0
M  V30 4864 C 456.905 -0.584946 -1.78774 0
M  V30 4865 O 456.263 0.465701 -1.75217 0
M  V30 4866 C 456.311 -3.03866 -1.94159 0
M  V30 4867 O 455.415 -2.79662 -3.03089 0
M  V30 4868 H 454.756 -0.597441 -0.289759 0
M  V30 4869 H 457.286 -2.02553 -0.288698 0
M  V30 4870 H 457.296 -3.32872 -2.35924 0
M  V30 4871 H 455.971 -3.92564 -1.37354 0
M  V30 4872 H 454.548 -2.61781 -2.65566 0
M  V30 4873 N 456.733 0.527833 -1.48498 0
M  V30 4874 C 457.663 1.64136 -1.66077 0
M  V30 4875 C 458.644 1.62286 -0.509625 0
M  V30 4876 O 459.829 1.79449 -0.742413 0
M  V30 4877 C 456.959 3.02717 -1.70234 0
M  V30 4878 C 455.913 3.19426 -2.8487 0
M  V30 4879 C 455.239 4.5909 -2.74118 0
M  V30 4880 C 456.539 3.01993 -4.26142 0
M  V30 4881 H 458.233 1.4968 -2.593 0
M  V30 4882 H 455.779 0.718654 -1.24785 0
M  V30 4883 H 457.732 3.80491 -1.8112 0
M  V30 4884 H 456.456 3.18201 -0.735911 0
M  V30 4885 H 455.115 2.4407 -2.73542 0
M  V30 4886 H 454.763 4.71413 -1.7544 0
M  V30 4887 H 454.463 4.71214 -3.51042 0
M  V30 4888 H 455.987 5.3896 -2.86974 0
M  V30 4889 H 457.401 3.69558 -4.38292 0
M  V30 4890 H 455.798 3.2561 -5.04082 0
M  V30 4891 H 456.868 1.98396 -4.42456 0
M  V30 4892 N 458.211 1.37122 0.776871 0
M  V30 4893 C 459.143 1.28342 1.89897 0
M  V30 4894 C 460.156 0.200277 1.61563 0
M  V30 4895 O 461.345 0.456012 1.72577 0
M  V30 4896 C 458.445 0.960427 3.25006 0
M  V30 4897 C 457.618 2.148 3.81025 0
M  V30 4898 C 456.677 1.79608 4.94598 0
M  V30 4899 O 455.703 2.51845 5.10454 0
M  V30 4900 N 456.905 0.737171 5.758 0
M  V30 4901 H 459.67 2.25027 1.97947 0
M  V30 4902 H 457.231 1.3068 0.955739 0
M  V30 4903 H 459.223 0.705942 3.98495 0
M  V30 4904 H 457.793 0.0823066 3.12492 0
M  V30 4905 H 457.013 2.56454 2.99374 0
M  V30 4906 H 458.301 2.9411 4.15183 0
M  V30 4907 H 457.699 0.137637 5.65533 0
M  V30 4908 H 456.256 0.542534 6.49538 0
M  V30 4909 N 459.689 -1.00246 1.21608 0
M  V30 4910 C 460.919 -1.77373 1.05935 0
M  V30 4911 C 461.327 -1.85059 -0.393686 0
M  V30 4912 O 460.67 -1.31289 -1.28487 0
M  V30 4913 C 460.732 -3.22705 1.58435 0
M  V30 4914 C 460.396 -3.38591 3.06929 0
M  V30 4915 C 461.393 -3.2667 4.04454 0
M  V30 4916 C 459.078 -3.6395 3.46187 0
M  V30 4917 C 461.072 -3.39877 5.39224 0
M  V30 4918 C 458.759 -3.768 4.81108 0
M  V30 4919 C 459.757 -3.6477 5.77436 0
M  V30 4920 O 459.445 -3.77206 7.09909 0
M  V30 4921 H 459.177 -0.56419 0.372378 0
M  V30 4922 H 461.731 -1.26971 1.61454 0
M  V30 4923 H 459.961 -3.74255 0.973147 0
M  V30 4924 H 461.65 -3.81515 1.38568 0
M  V30 4925 H 462.416 -3.06999 3.75468 0
M  V30 4926 H 458.295 -3.72395 2.71741 0
M  V30 4927 H 461.839 -3.30404 6.14393 0
M  V30 4928 H 457.736 -3.95975 5.09779 0
M  V30 4929 H 458.504 -3.94138 7.17355 0
M  V30 4930 N 461.167 -1.02423 -1.1978 0
M  V30 4931 C 462.1 -0.545641 -2.21581 0
M  V30 4932 C 463.078 0.411024 -1.57319 0
M  V30 4933 O 464.262 0.329223 -1.85603 0
M  V30 4934 C 461.389 0.204973 -3.38079 0
M  V30 4935 C 460.435 -0.70241 -4.20676 0
M  V30 4936 S 461.268 -2.17595 -4.89298 0
M  V30 4937 C 462.424 -1.43572 -6.09211 0
M  V30 4938 H 462.657 -1.4082 -2.61834 0
M  V30 4939 H 460.19 -0.833771 -1.29952 0
M  V30 4940 H 462.148 0.631924 -4.05607 0
M  V30 4941 H 460.809 1.0432 -2.9627 0
M  V30 4942 H 460.002 -0.123193 -5.03849 0
M  V30 4943 H 459.604 -1.06747 -3.58442 0
M  V30 4944 H 461.896 -0.719806 -6.73665 0
M  V30 4945 H 462.839 -2.24388 -6.71607 0
M  V30 4946 H 463.247 -0.935252 -5.56699 0
M  V30 4947 N 462.645 1.35699 -0.801477 0
M  V30 4948 C 463.592 2.29876 -0.206294 0
M  V30 4949 C 464.562 1.52565 0.656752 0
M  V30 4950 O 465.747 1.81024 0.602906 0
M  V30 4951 C 462.887 3.39052 0.643272 0
M  V30 4952 C 462 4.31335 -0.239644 0
M  V30 4953 C 461.135 5.27599 0.61744 0
M  V30 4954 C 460.174 6.11521 -0.26619 0
M  V30 4955 N 459.311 6.99938 0.550571 0
M  V30 4956 H 464.151 2.80187 -1.01484 0
M  V30 4957 H 461.688 1.37902 -0.511997 0
M  V30 4958 H 463.646 4.0101 1.15094 0
M  V30 4959 H 462.276 2.9003 1.41713 0
M  V30 4960 H 461.328 3.70426 -0.865381 0
M  V30 4961 H 462.64 4.90243 -0.919985 0
M  V30 4962 H 461.794 5.94906 1.19045 0
M  V30 4963 H 460.533 4.69176 1.33137 0
M  V30 4964 H 459.538 5.43166 -0.851507 0
M  V30 4965 H 460.763 6.72022 -0.9779 0
M  V30 4966 H 458.709 6.44008 1.24856 0
M  V30 4967 H 458.626 7.55966 -0.071832 0
M  V30 4968 H 459.894 7.71599 1.10702 0
M  V30 4969 N 464.123 0.554532 1.47522 0
M  V30 4970 C 465.071 -0.207765 2.3167 0
M  V30 4971 C 466.065 -0.911914 1.4276 0
M  V30 4972 O 467.271 -0.833504 1.59539 0
M  V30 4973 H 463.646 -0.0858726 0.747081 0
M  V30 4974 H 465.617 0.521178 2.93813 0
M  V30 4975 C 464.366 -1.2263 3.25357 0
M  V30 4976 H 463.689 -0.693887 3.93732 0
M  V30 4977 H 465.129 -1.73062 3.87073 0
M  V30 4978 C 463.588 -2.27278 2.4869 0
M  V30 4979 O 464.118 -3.34156 2.22941 0
M  V30 4980 N 462.324 -2.01134 2.09746 0
M  V30 4981 H 461.871 -1.14232 2.30887 0
M  V30 4982 H 461.829 -2.71369 1.58765 0
M  V30 4983 N 465.601 -1.54893 0.290851 0
M  V30 4984 C 466.847 -2.0023 -0.321867 0
M  V30 4985 C 467.18 -1.179 -1.54316 0
M  V30 4986 O 466.455 -0.25293 -1.92848 0
M  V30 4987 C 466.738 -3.53456 -0.688515 0
M  V30 4988 C 466.591 -4.46532 0.541209 0
M  V30 4989 C 467.91 -4.13057 -1.51895 0
M  V30 4990 H 465.029 -0.727891 -0.115515 0
M  V30 4991 H 467.671 -1.85722 0.400931 0
M  V30 4992 H 465.821 -3.6595 -1.30433 0
M  V30 4993 H 467.493 -4.4596 1.17973 0
M  V30 4994 H 465.736 -4.17545 1.17636 0
M  V30 4995 H 466.407 -5.51475 0.240675 0
M  V30 4996 H 468.883 -4.03937 -0.99872 0
M  V30 4997 H 467.759 -5.20448 -1.74429 0
M  V30 4998 H 468.02 -3.64284 -2.50498 0
M  V30 4999 N 467.08 -0.0183926 -1.57589 0
M  V30 5000 C 468.327 0.662562 -1.91354 0
M  V30 5001 C 468.655 1.72747 -0.893788 0
M  V30 5002 O 467.91 1.9545 0.0988509 0
M  V30 5003 C 468.209 1.32676 -3.31861 0
M  V30 5004 C 467.875 0.393267 -4.49182 0
M  V30 5005 C 466.537 0.136302 -4.81007 0
M  V30 5006 C 468.889 -0.248366 -5.20608 0
M  V30 5007 C 466.217 -0.770282 -5.81621 0
M  V30 5008 C 468.569 -1.14294 -6.22189 0
M  V30 5009 C 467.233 -1.4089 -6.52462 0
M  V30 5010 H 466.503 0.242448 -0.700214 0
M  V30 5011 H 469.15 -0.0778629 -1.91342 0
M  V30 5012 H 467.455 2.14168 -3.28084 0
M  V30 5013 H 469.152 1.86001 -3.55253 0
M  V30 5014 H 465.742 0.603723 -4.24327 0
M  V30 5015 H 469.926 -0.062883 -4.9626 0
M  V30 5016 H 465.182 -0.984154 -6.03427 0
M  V30 5017 H 469.356 -1.64637 -6.76659 0
M  V30 5018 H 466.983 -2.11306 -7.30242 0
M  V30 5019 N 468.558 1.5553 0.254621 0
M  V30 5020 C 469.505 1.89666 1.31512 0
M  V30 5021 C 470.475 0.750057 1.482 0
M  V30 5022 O 471.66 1.00301 1.62309 0
M  V30 5023 C 468.8 2.19009 2.667 0
M  V30 5024 C 467.913 3.46435 2.58083 0
M  V30 5025 C 467.048 3.65386 3.85573 0
M  V30 5026 C 466.087 4.8644 3.71541 0
M  V30 5027 N 465.224 5.01952 4.90906 0
M  V30 5028 H 470.064 2.80109 1.017 0
M  V30 5029 H 467.601 1.38666 0.490938 0
M  V30 5030 H 469.559 2.34025 3.45381 0
M  V30 5031 H 468.189 1.31779 2.94676 0
M  V30 5032 H 467.241 3.39792 1.71013 0
M  V30 5033 H 468.553 4.35258 2.43622 0
M  V30 5034 H 467.707 3.80319 4.72697 0
M  V30 5035 H 466.446 2.74781 4.02922 0
M  V30 5036 H 465.451 4.71491 2.82801 0
M  V30 5037 H 466.676 5.78497 3.55694 0
M  V30 5038 H 464.622 4.14283 5.08631 0
M  V30 5039 H 464.539 5.84851 4.79046 0
M  V30 5040 H 465.807 5.21289 5.7955 0
M  V30 5041 N 470.036 -0.519951 1.48776 0
M  V30 5042 C 470.946 -1.65025 1.66745 0
M  V30 5043 C 471.962 -1.6508 0.549954 0
M  V30 5044 O 473.138 -1.83848 0.822295 0
M  V30 5045 C 470.203 -3.0146 1.71238 0
M  V30 5046 C 469.264 -3.12182 2.94688 0
M  V30 5047 C 468.497 -4.42109 2.98958 0
M  V30 5048 O 468.72 -5.29799 2.1135 0
M  V30 5049 O 467.654 -4.57406 3.91233 0
M  V30 5050 H 471.48 -1.52801 2.62461 0
M  V30 5051 H 469.065 -0.694157 1.32294 0
M  V30 5052 H 470.947 -3.82584 1.76657 0
M  V30 5053 H 469.622 -3.13988 0.786975 0
M  V30 5054 H 468.529 -2.30316 2.94797 0
M  V30 5055 H 469.862 -3.04574 3.86646 0
M  V30 5056 N 471.514 -1.37532 -0.769588 0
M  V30 5057 C 472.461 -1.3347 -1.88293 0
M  V30 5058 C 473.431 -0.199891 -1.64893 0
M  V30 5059 O 474.616 -0.389594 -1.8678 0
M  V30 5060 C 471.756 -1.14968 -3.25387 0
M  V30 5061 C 470.869 -2.37698 -3.60727 0
M  V30 5062 C 470.004 -2.12051 -4.8704 0
M  V30 5063 C 469.043 -3.30636 -5.15117 0
M  V30 5064 N 468.18 -3.04527 -6.3262 0
M  V30 5065 H 473.02 -2.28658 -1.911 0
M  V30 5066 H 470.557 -1.13622 -0.934257 0
M  V30 5067 H 472.515 -1.02261 -4.04473 0
M  V30 5068 H 471.145 -0.234263 -3.21949 0
M  V30 5069 H 470.197 -2.61137 -2.76608 0
M  V30 5070 H 471.509 -3.26131 -3.77413 0
M  V30 5071 H 470.663 -1.96388 -5.74035 0
M  V30 5072 H 469.402 -1.20959 -4.72462 0
M  V30 5073 H 468.407 -3.46836 -4.26597 0
M  V30 5074 H 469.632 -4.22582 -5.31603 0
M  V30 5075 H 467.578 -2.16067 -6.19396 0
M  V30 5076 H 467.495 -3.86503 -6.49732 0
M  V30 5077 H 468.763 -2.92485 -7.22546 0
M  V30 5078 N 472.992 0.995999 -1.22138 0
M  V30 5079 C 474.222 1.76809 -1.06874 0
M  V30 5080 C 474.63 1.85265 0.383866 0
M  V30 5081 O 473.973 1.31969 1.27789 0
M  V30 5082 C 474.035 3.2186 -1.60144 0
M  V30 5083 C 473.699 3.36958 -3.0872 0
M  V30 5084 C 474.696 3.2452 -4.0618 0
M  V30 5085 C 472.381 3.62109 -3.48112 0
M  V30 5086 C 474.375 3.37013 -5.41019 0
M  V30 5087 C 472.062 3.74243 -4.831 0
M  V30 5088 C 473.06 3.61702 -5.79362 0
M  V30 5089 O 472.748 3.73436 -7.119 0
M  V30 5090 H 472.48 0.562207 -0.375365 0
M  V30 5091 H 475.034 1.26113 -1.62125 0
M  V30 5092 H 473.264 3.73734 -0.992981 0
M  V30 5093 H 474.953 3.80775 -1.40589 0
M  V30 5094 H 475.719 3.05004 -3.77091 0
M  V30 5095 H 471.598 3.70949 -2.73712 0
M  V30 5096 H 475.142 3.27141 -6.16137 0
M  V30 5097 H 471.039 3.93266 -5.11872 0
M  V30 5098 H 471.807 3.90328 -7.19435 0
M  V30 5099 N 474.47 1.03057 1.19235 0
M  V30 5100 C 475.4 0.633497 2.24742 0
M  V30 5101 C 476.381 -0.358335 1.66283 0
M  V30 5102 O 477.566 -0.240676 1.92703 0
M  V30 5103 C 474.696 -0.0147648 3.47297 0
M  V30 5104 C 473.65 0.899527 4.18441 0
M  V30 5105 C 472.976 0.116281 5.34574 0
M  V30 5106 C 474.276 2.21404 4.73051 0
M  V30 5107 H 475.97 1.5155 2.58211 0
M  V30 5108 H 473.516 0.73014 1.24117 0
M  V30 5109 H 475.469 -0.304202 4.20301 0
M  V30 5110 H 474.193 -0.931577 3.13032 0
M  V30 5111 H 472.852 1.17319 3.47321 0
M  V30 5112 H 472.5 -0.802619 4.96555 0
M  V30 5113 H 472.2 0.725293 5.83107 0
M  V30 5114 H 473.724 -0.166376 6.10373 0
M  V30 5115 H 475.138 1.98601 5.37802 0
M  V30 5116 H 473.535 2.77512 5.32078 0
M  V30 5117 H 474.605 2.86752 3.91026 0
M  V30 5118 N 475.948 -1.35272 0.808662 0
M  V30 5119 C 476.878 -2.32315 0.234981 0
M  V30 5120 C 477.859 -1.57572 -0.64071 0
M  V30 5121 O 479.044 -1.8563 -0.570551 0
M  V30 5122 C 476.174 -3.41801 -0.615601 0
M  V30 5123 C 475.128 -4.27694 0.161767 0
M  V30 5124 C 474.454 -5.28519 -0.810649 0
M  V30 5125 C 475.754 -5.04231 1.36193 0
M  V30 5126 H 477.448 -2.80543 1.04575 0
M  V30 5127 H 474.994 -1.3488 0.504315 0
M  V30 5128 H 476.947 -4.08693 -1.02702 0
M  V30 5129 H 475.671 -2.92186 -1.45928 0
M  V30 5130 H 474.33 -3.62384 0.554382 0
M  V30 5131 H 473.978 -4.75171 -1.64988 0
M  V30 5132 H 473.678 -5.8686 -0.294822 0
M  V30 5133 H 475.202 -5.98283 -1.22023 0
M  V30 5134 H 476.616 -5.64058 1.02528 0
M  V30 5135 H 475.013 -5.72077 1.81239 0
M  V30 5136 H 476.083 -4.34753 2.14751 0
M  V30 5137 N 477.426 -0.562348 -1.47226 0
M  V30 5138 C 478.651 -0.0432632 -2.07355 0
M  V30 5139 C 479.076 1.24332 -1.41149 0
M  V30 5140 O 478.434 1.74603 -0.488226 0
M  V30 5141 C 478.482 0.130288 -3.60365 0
M  V30 5142 O 477.586 1.19166 -3.94808 0
M  V30 5143 H 476.927 -0.0536334 -0.66183 0
M  V30 5144 H 479.457 -0.779495 -1.89169 0
M  V30 5145 H 479.467 0.342881 -4.06557 0
M  V30 5146 H 478.142 -0.809389 -4.07948 0
M  V30 5147 H 476.719 0.959153 -3.60354 0
M  V30 5148 N 478.904 1.54736 -0.299062 0
M  V30 5149 C 479.814 2.27127 0.587413 0
M  V30 5150 C 480.83 1.30575 1.15005 0
M  V30 5151 O 482.006 1.63554 1.17525 0
M  V30 5152 C 479.071 2.99645 1.74395 0
M  V30 5153 C 478.132 4.11731 1.21559 0
M  V30 5154 C 477.365 4.80781 2.317 0
M  V30 5155 O 477.588 4.4918 3.51558 0
M  V30 5156 O 476.522 5.68226 1.98501 0
M  V30 5157 H 480.348 3.037 0.000250109 0
M  V30 5158 H 477.933 1.49256 -0.0655919 0
M  V30 5159 H 479.815 3.45138 2.4178 0
M  V30 5160 H 478.49 2.25969 2.31775 0
M  V30 5161 H 477.397 3.70641 0.507514 0
M  V30 5162 H 478.73 4.87379 0.687233 0
M  V30 5163 N 480.382 0.0267497 1.57577 0
M  V30 5164 C 481.659 -0.690926 1.82991 0
M  V30 5165 C 482.039 -1.90471 0.910164 0
M  V30 5166 O 481.387 -2.28474 -0.0347985 0
M  V30 5167 C 481.597 -1.07139 3.32148 0
M  V30 5168 C 482.945 -1.46402 3.98562 0
M  V30 5169 O 483.969 -1.16443 3.36629 0
M  V30 5170 O 482.828 -2.02214 5.07712 0
M  V30 5171 H 479.922 -0.338747 0.75444 0
M  V30 5172 H 482.468 0.0542506 1.69613 0
M  V30 5173 H 481.24 -0.207394 3.9075 0
M  V30 5174 H 480.863 -1.87481 3.50623 0
M  V30 5175 N 481.861 -1.55662 -0.24637 0
M  V30 5176 C 483.089 -1.81575 -0.991876 0
M  V30 5177 C 483.504 -0.602545 -1.78927 0
M  V30 5178 O 482.861 0.428795 -1.77391 0
M  V30 5179 C 482.912 -3.05711 -1.92933 0
M  V30 5180 O 482.633 -4.22348 -1.1642 0
M  V30 5181 C 484.134 -3.44428 -2.79078 0
M  V30 5182 H 481.354 -0.604209 -0.291844 0
M  V30 5183 H 483.898 -2.02722 -0.269095 0
M  V30 5184 H 482.053 -2.86612 -2.60638 0
M  V30 5185 H 482.467 -4.92706 -1.79835 0
M  V30 5186 H 483.941 -4.34388 -3.40603 0
M  V30 5187 H 484.418 -2.65037 -3.50217 0
M  V30 5188 H 485.024 -3.65879 -2.16824 0
M  V30 5189 N 483.339 0.512053 -1.4905 0
M  V30 5190 C 484.564 1.2959 -1.6193 0
M  V30 5191 C 484.989 1.85906 -0.286454 0
M  V30 5192 O 484.347 1.65312 0.744426 0
M  V30 5193 C 484.395 2.40987 -2.68249 0
M  V30 5194 O 483.499 3.44531 -2.26654 0
M  V30 5195 H 482.84 0.383053 -0.542371 0
M  V30 5196 H 485.37 0.614231 -1.95162 0
M  V30 5197 H 485.38 2.86913 -2.90078 0
M  V30 5198 H 484.055 1.99361 -3.65004 0
M  V30 5199 H 482.632 3.046 -2.15112 0
M  V30 5200 N 484.817 1.37938 0.762283 0
M  V30 5201 C 486.065 1.33404 1.51815 0
M  V30 5202 C 486.386 -0.0780975 1.94844 0
M  V30 5203 O 485.656 -1.02405 1.67003 0
M  V30 5204 H 484.236 0.490839 0.563104 0
M  V30 5205 H 486.898 1.72527 0.906669 0
M  V30 5206 H 485.994 1.97926 2.41313 0
M  V30 5207 N 486.295 -0.989507 1.22664 0
M  V30 5208 C 487.242 -2.08024 0.999733 0
M  V30 5209 C 488.212 -1.65909 -0.0797047 0
M  V30 5210 O 489.397 -1.90669 0.0705715 0
M  V30 5211 C 486.537 -3.40067 0.587234 0
M  V30 5212 C 485.65 -3.95505 1.73781 0
M  V30 5213 C 484.785 -5.15722 1.27297 0
M  V30 5214 C 483.824 -5.63305 2.39488 0
M  V30 5215 N 482.961 -6.74758 1.94026 0
M  V30 5216 H 487.801 -2.26768 1.9334 0
M  V30 5217 H 485.338 -1.11171 0.963297 0
M  V30 5218 H 487.296 -4.15899 0.329227 0
M  V30 5219 H 485.926 -3.21314 -0.309426 0
M  V30 5220 H 484.978 -3.16513 2.11006 0
M  V30 5221 H 486.29 -4.26797 2.58158 0
M  V30 5222 H 485.444 -5.98854 0.972546 0
M  V30 5223 H 484.183 -4.86061 0.399445 0
M  V30 5224 H 483.188 -4.78759 2.70315 0
M  V30 5225 H 484.413 -5.94988 3.27362 0
M  V30 5226 H 482.359 -6.46874 1.09041 0
M  V30 5227 H 482.276 -7.05386 2.71968 0
M  V30 5228 H 483.544 -7.61387 1.67062 0
M  V30 5229 N 487.773 -1.03688 -1.18687 0
M  V30 5230 C 489.02 -0.73803 -1.88572 0
M  V30 5231 C 489.348 0.733973 -1.8012 0
M  V30 5232 O 488.603 1.55098 -1.19344 0
M  V30 5233 C 488.902 -1.14477 -3.3857 0
M  V30 5234 C 488.568 -2.61641 -3.67226 0
M  V30 5235 C 487.23 -3.01846 -3.74757 0
M  V30 5236 C 489.582 -3.56812 -3.79914 0
M  V30 5237 C 486.91 -4.36118 -3.92451 0
M  V30 5238 C 489.262 -4.90799 -3.99123 0
M  V30 5239 C 487.926 -5.3068 -4.04888 0
M  V30 5240 H 487.196 -0.270064 -0.690034 0
M  V30 5241 H 489.843 -1.3012 -1.40503 0
M  V30 5242 H 488.148 -0.500337 -3.88592 0
M  V30 5243 H 489.845 -0.89095 -3.90977 0
M  V30 5244 H 486.435 -2.29498 -3.61979 0
M  V30 5245 H 490.619 -3.26899 -3.73431 0
M  V30 5246 H 485.875 -4.66542 -3.95157 0
M  V30 5247 H 490.049 -5.64451 -4.07882 0
M  V30 5248 H 487.676 -6.34733 -4.18351 0
M  V30 5249 N 489.251 1.34841 -0.815825 0
M  V30 5250 C 490.476 2.03261 -0.41226 0
M  V30 5251 C 490.901 1.61055 0.971751 0
M  V30 5252 O 490.259 0.7917 1.63101 0
M  V30 5253 C 490.307 3.56914 -0.514289 0
M  V30 5254 O 489.411 4.09728 0.468675 0
M  V30 5255 H 488.752 0.641664 -0.170771 0
M  V30 5256 H 491.282 1.72241 -1.10427 0
M  V30 5257 H 491.292 4.06156 -0.387457 0
M  V30 5258 H 489.967 3.86982 -1.52375 0
M  V30 5259 H 488.544 3.71681 0.301316 0
M  V30 5260 N 490.729 0.570148 1.46925 0
M  V30 5261 C 491.975 0.0510284 2.02736 0
M  V30 5262 C 492.308 -1.3006 1.44215 0
M  V30 5263 O 491.583 -1.84932 0.602521 0
M  V30 5264 C 491.866 -0.028215 3.60089 0
M  V30 5265 C 491.719 1.35142 4.29018 0
M  V30 5266 C 493.038 -0.735181 4.33916 0
M  V30 5267 H 490.157 0.0200178 0.736728 0
M  V30 5268 H 492.799 0.73493 1.75211 0
M  V30 5269 H 490.949 -0.610648 3.83671 0
M  V30 5270 H 492.621 1.97806 4.16738 0
M  V30 5271 H 490.864 1.9226 3.88868 0
M  V30 5272 H 491.535 1.24857 5.37694 0
M  V30 5273 H 494.011 -0.240519 4.15404 0
M  V30 5274 H 492.887 -0.759622 5.43618 0
M  V30 5275 H 493.148 -1.79397 4.04066 0
M  V30 5276 N 492.207 -1.54576 0.307264 0
M  V30 5277 C 493.484 -1.92377 -0.353605 0
M  V30 5278 C 493.864 -1.23517 -1.71192 0
M  V30 5279 O 493.212 -0.373101 -2.25433 0
M  V30 5280 C 493.422 -3.45928 -0.462039 0
M  V30 5281 C 494.77 -4.18278 -0.729975 0
M  V30 5282 O 495.794 -3.51997 -0.545605 0
M  V30 5283 O 494.653 -5.3563 -1.08454 0
M  V30 5284 H 491.747 -0.802747 -0.198812 0
M  V30 5285 H 494.293 -1.65929 0.355783 0
M  V30 5286 H 493.065 -3.88187 0.492592 0
M  V30 5287 H 492.688 -3.78431 -1.21965 0
M  V30 5288 N 493.685 -0.035106 -1.57561 0
M  V30 5289 C 494.632 0.94474 -2.10578 0
M  V30 5290 C 495.602 1.3192 -1.00927 0
M  V30 5291 O 496.787 1.41147 -1.28382 0
M  V30 5292 C 493.927 2.21982 -2.64231 0
M  V30 5293 C 493.04 1.90128 -3.87911 0
M  V30 5294 C 492.175 3.11975 -4.29936 0
M  V30 5295 C 491.214 2.75968 -5.46359 0
M  V30 5296 N 490.351 3.90459 -5.83512 0
M  V30 5297 H 495.191 0.485717 -2.94015 0
M  V30 5298 H 492.728 0.228143 -1.4532 0
M  V30 5299 H 494.686 2.96572 -2.9343 0
M  V30 5300 H 493.316 2.6549 -1.83616 0
M  V30 5301 H 492.368 1.05755 -3.65404 0
M  V30 5302 H 493.68 1.59613 -4.72573 0
M  V30 5303 H 492.834 3.9488 -4.60603 0
M  V30 5304 H 491.573 3.45657 -3.44053 0
M  V30 5305 H 490.578 1.91478 -5.1538 0
M  V30 5306 H 491.803 2.43497 -6.33945 0
M  V30 5307 H 489.749 4.23971 -5.00584 0
M  V30 5308 H 489.666 3.63588 -6.62827 0
M  V30 5309 H 490.934 4.7405 -6.18787 0
M  V30 5310 N 495.163 1.55791 0.238111 0
M  V30 5311 C 496.093 1.94068 1.29846 0
M  V30 5312 C 497.074 0.806726 1.49753 0
M  V30 5313 O 498.259 1.06772 1.62214 0
M  V30 5314 C 495.389 2.24302 2.65153 0
M  V30 5315 C 494.343 3.40032 2.59927 0
M  V30 5316 C 493.669 3.55829 3.99111 0
M  V30 5317 C 494.969 4.75476 2.16148 0
M  V30 5318 H 496.663 2.82887 0.980563 0
M  V30 5319 H 494.209 1.36105 0.470253 0
M  V30 5320 H 496.162 2.4967 3.39475 0
M  V30 5321 H 494.886 1.32318 2.98596 0
M  V30 5322 H 493.545 3.14687 1.88063 0
M  V30 5323 H 493.193 2.6125 4.29834 0
M  V30 5324 H 492.893 4.3366 3.96501 0
M  V30 5325 H 494.417 3.83528 4.7512 0
M  V30 5326 H 495.831 5.00158 2.80205 0
M  V30 5327 H 494.228 5.56472 2.24631 0
M  V30 5328 H 495.298 4.71946 1.11333 0
M  V30 5329 N 496.642 -0.504142 1.49319 0
M  V30 5330 C 497.589 -1.60603 1.65756 0
M  V30 5331 C 498.559 -1.58425 0.499082 0
M  V30 5332 O 499.744 -1.76459 0.725728 0
M  V30 5333 C 496.884 -2.98764 1.72726 0
M  V30 5334 C 495.997 -3.10982 2.99857 0
M  V30 5335 C 495.132 -4.39857 2.97824 0
M  V30 5336 C 494.171 -4.45697 4.19548 0
M  V30 5337 N 493.308 -5.65995 4.15444 0
M  V30 5338 H 498.148 -1.45895 2.59843 0
M  V30 5339 H 495.685 -0.709891 1.28837 0
M  V30 5340 H 497.643 -3.78839 1.74747 0
M  V30 5341 H 496.273 -3.12183 0.821075 0
M  V30 5342 H 495.325 -2.23991 3.07461 0
M  V30 5343 H 496.637 -3.11157 3.89849 0
M  V30 5344 H 495.791 -5.2825 2.98391 0
M  V30 5345 H 494.53 -4.42242 2.05604 0
M  V30 5346 H 493.535 -3.55707 4.19229 0
M  V30 5347 H 494.76 -4.4503 5.12957 0
M  V30 5348 H 492.706 -5.69229 3.26059 0
M  V30 5349 H 492.623 -5.67773 4.99169 0
M  V30 5350 H 493.891 -6.56604 4.20109 0
M  V30 5351 N 498.12 -1.38341 -0.754957 0
M  V30 5352 C 499.367 -1.34473 -1.51404 0
M  V30 5353 C 499.695 0.0656458 -1.94389 0
M  V30 5354 O 498.95 1.04244 -1.65625 0
M  V30 5355 C 499.249 -2.2452 -2.78075 0
M  V30 5356 C 498.915 -3.72512 -2.54059 0
M  V30 5357 C 497.577 -4.1284 -2.47218 0
M  V30 5358 C 499.929 -4.66197 -2.33044 0
M  V30 5359 C 497.257 -5.44945 -2.17376 0
M  V30 5360 C 499.609 -5.98558 -2.04723 0
M  V30 5361 C 498.273 -6.37972 -1.96337 0
M  V30 5362 H 497.543 -0.492072 -0.554027 0
M  V30 5363 H 500.19 -1.70687 -0.868223 0
M  V30 5364 H 498.495 -1.81357 -3.473 0
M  V30 5365 H 500.192 -2.18832 -3.36026 0
M  V30 5366 H 496.782 -3.40538 -2.60253 0
M  V30 5367 H 500.966 -4.35888 -2.37309 0
M  V30 5368 H 496.222 -5.74426 -2.09391 0
M  V30 5369 H 500.396 -6.70693 -1.87465 0
M  V30 5370 H 498.023 -7.40258 -1.72978 0
M  V30 5371 N 499.598 0.982988 -1.23187 0
M  V30 5372 C 500.875 1.69814 -0.970707 0
M  V30 5373 C 501.255 2.04811 0.511424 0
M  V30 5374 O 500.603 1.73924 1.48198 0
M  V30 5375 C 500.813 2.94143 -1.87831 0
M  V30 5376 C 502.161 3.66712 -2.14026 0
M  V30 5377 O 503.185 3.04171 -1.8536 0
M  V30 5378 O 502.044 4.79258 -2.62629 0
M  V30 5379 H 499.138 0.741659 -0.365884 0
M  V30 5380 H 501.684 1.03844 -1.34218 0
M  V30 5381 H 500.456 2.64858 -2.88038 0
M  V30 5382 H 500.079 3.6785 -1.50905 0
M  V30 5383 N 501.076 1.04316 1.18135 0
M  V30 5384 C 502.023 0.636398 2.21853 0
M  V30 5385 C 502.993 -0.357039 1.62217 0
M  V30 5386 O 504.178 -0.250453 1.89149 0
M  V30 5387 C 501.318 0.00812779 3.45099 0
M  V30 5388 C 500.431 1.04933 4.19062 0
M  V30 5389 C 499.566 0.389313 5.29771 0
M  V30 5390 C 498.605 1.41544 5.9551 0
M  V30 5391 N 497.742 0.78021 6.97751 0
M  V30 5392 H 502.582 1.52536 2.56002 0
M  V30 5393 H 500.119 0.76304 1.25762 0
M  V30 5394 H 502.077 -0.373497 4.15525 0
M  V30 5395 H 500.707 -0.844336 3.11562 0
M  V30 5396 H 499.759 1.54888 3.47439 0
M  V30 5397 H 501.071 1.82862 4.64072 0
M  V30 5398 H 500.225 -0.0463805 6.06682 0
M  V30 5399 H 498.964 -0.422038 4.8587 0
M  V30 5400 H 497.969 1.86124 5.17337 0
M  V30 5401 H 499.194 2.22854 6.41493 0
M  V30 5402 H 497.14 -0.0107899 6.55999 0
M  V30 5403 H 497.057 1.49716 7.41027 0
M  V30 5404 H 498.325 0.368996 7.78626 0
M  V30 5405 N 502.554 -1.34406 0.822964 0
M  V30 5406 C 503.484 -2.32052 0.259608 0
M  V30 5407 C 504.465 -1.58243 -0.623961 0
M  V30 5408 O 505.65 -1.86224 -0.55083 0
M  V30 5409 C 502.78 -3.42434 -0.579314 0
M  V30 5410 C 501.734 -4.27499 0.20712 0
M  V30 5411 C 501.06 -5.29349 -0.754547 0
M  V30 5412 C 502.36 -5.02758 1.41533 0
M  V30 5413 H 504.054 -2.79418 1.07545 0
M  V30 5414 H 501.6 -1.34338 0.518593 0
M  V30 5415 H 503.553 -4.0976 -0.983612 0
M  V30 5416 H 502.277 -2.93717 -1.4282 0
M  V30 5417 H 500.936 -3.61776 0.592787 0
M  V30 5418 H 500.584 -4.76895 -1.59939 0
M  V30 5419 H 500.284 -5.8714 -0.232561 0
M  V30 5420 H 501.808 -5.99544 -1.1567 0
M  V30 5421 H 503.222 -5.62938 1.08504 0
M  V30 5422 H 501.619 -5.70123 1.87296 0
M  V30 5423 H 502.689 -4.32451 2.1935 0
M  V30 5424 N 504.032 -0.577932 -1.46621 0
M  V30 5425 C 505.262 -0.0670668 -2.06491 0
M  V30 5426 C 505.67 1.24119 -1.42798 0
M  V30 5427 O 505.013 1.76016 -0.525759 0
M  V30 5428 C 505.075 0.177995 -3.59059 0
M  V30 5429 C 504.739 -1.04394 -4.44917 0
M  V30 5430 C 505.736 -1.95479 -4.81751 0
M  V30 5431 C 503.421 -1.26444 -4.86125 0
M  V30 5432 C 505.415 -3.06965 -5.58615 0
M  V30 5433 C 503.102 -2.38237 -5.62749 0
M  V30 5434 C 504.1 -3.28327 -5.98908 0
M  V30 5435 O 503.788 -4.38179 -6.73984 0
M  V30 5436 H 503.52 -0.0523159 -0.673973 0
M  V30 5437 H 506.074 -0.796966 -1.89308 0
M  V30 5438 H 504.304 0.962451 -3.74531 0
M  V30 5439 H 505.993 0.636782 -4.00874 0
M  V30 5440 H 506.759 -1.79657 -4.50498 0
M  V30 5441 H 502.638 -0.572316 -4.57434 0
M  V30 5442 H 506.182 -3.77309 -5.86757 0
M  V30 5443 H 502.079 -2.54023 -5.93416 0
M  V30 5444 H 502.847 -4.36486 -6.92403 0
M  V30 5445 N 505.51 1.54411 -0.315457 0
M  V30 5446 C 506.457 2.24048 0.554166 0
M  V30 5447 C 507.427 1.2283 1.11812 0
M  V30 5448 O 508.612 1.51491 1.15997 0
M  V30 5449 C 505.752 2.99574 1.71316 0
M  V30 5450 C 504.865 4.15594 1.17922 0
M  V30 5451 C 504 4.78669 2.30324 0
M  V30 5452 C 503.039 5.86807 1.74137 0
M  V30 5453 N 502.176 6.43777 2.8017 0
M  V30 5454 H 507.016 2.97964 -0.0462602 0
M  V30 5455 H 504.553 1.47059 -0.0346009 0
M  V30 5456 H 506.511 3.41604 2.39505 0
M  V30 5457 H 505.141 2.28008 2.285 0
M  V30 5458 H 504.193 3.78404 0.389136 0
M  V30 5459 H 505.505 4.93459 0.728012 0
M  V30 5460 H 504.659 5.23626 3.06433 0
M  V30 5461 H 503.398 4.00168 2.78778 0
M  V30 5462 H 502.403 5.41261 0.965236 0
M  V30 5463 H 503.628 6.67201 1.2657 0
M  V30 5464 H 501.574 5.68153 3.2793 0
M  V30 5465 H 501.491 7.17031 2.39588 0
M  V30 5466 H 502.759 6.9339 3.56132 0
M  V30 5467 N 506.988 0.0434614 1.5754 0
M  V30 5468 C 507.921 -0.968729 2.06618 0
M  V30 5469 C 508.899 -1.30868 0.965 0
M  V30 5470 O 510.083 -1.42288 1.23638 0
M  V30 5471 C 507.21 -2.28486 2.50023 0
M  V30 5472 C 506.256 -2.09851 3.71302 0
M  V30 5473 S 507.089 -1.38401 5.17306 0
M  V30 5474 C 508.245 -2.71354 5.64019 0
M  V30 5475 H 508.478 -0.551021 2.92149 0
M  V30 5476 H 506.011 -0.168607 1.53477 0
M  V30 5477 H 507.969 -3.04142 2.75695 0
M  V30 5478 H 506.63 -2.67387 1.64812 0
M  V30 5479 H 505.823 -3.07184 3.99567 0
M  V30 5480 H 505.425 -1.42336 3.45856 0
M  V30 5481 H 507.717 -3.67549 5.69134 0
M  V30 5482 H 508.66 -2.47734 6.6335 0
M  V30 5483 H 509.068 -2.77259 4.91719 0
M  V30 5484 N 508.466 -1.55915 -0.229846 0
M  V30 5485 C 509.396 -1.94754 -1.28815 0
M  V30 5486 C 510.377 -0.814657 -1.49323 0
M  V30 5487 O 511.562 -1.07631 -1.61645 0
M  V30 5488 C 508.692 -2.25705 -2.63959 0
M  V30 5489 C 507.646 -3.41406 -2.5812 0
M  V30 5490 C 506.972 -3.57941 -3.97218 0
M  V30 5491 C 508.272 -4.76616 -2.13623 0
M  V30 5492 H 509.966 -2.83404 -0.965547 0
M  V30 5493 H 507.512 -1.36353 -0.463028 0
M  V30 5494 H 509.465 -2.51467 -3.38146 0
M  V30 5495 H 508.189 -1.339 -2.9789 0
M  V30 5496 H 506.848 -3.1568 -1.86391 0
M  V30 5497 H 506.496 -2.63526 -4.28443 0
M  V30 5498 H 506.196 -4.35757 -3.94195 0
M  V30 5499 H 507.72 -3.86042 -4.73079 0
M  V30 5500 H 509.134 -5.01637 -2.77549 0
M  V30 5501 H 507.531 -5.57655 -2.21677 0
M  V30 5502 H 508.601 -4.7253 -1.08829 0
M  V30 5503 N 509.944 0.496216 -1.49584 0
M  V30 5504 C 511.172 1.27394 -1.63029 0
M  V30 5505 C 511.587 1.86344 -0.303569 0
M  V30 5506 O 510.944 1.68057 0.711547 0
M  V30 5507 C 510.995 2.40077 -2.70269 0
M  V30 5508 O 510.716 1.83549 -3.97796 0
M  V30 5509 C 512.217 3.31372 -2.94462 0
M  V30 5510 H 509.437 0.386211 -0.54871 0
M  V30 5511 H 511.981 0.595163 -1.95648 0
M  V30 5512 H 510.136 3.03775 -2.40415 0
M  V30 5513 H 510.55 2.57561 -4.56905 0
M  V30 5514 H 512.024 4.06707 -3.73221 0
M  V30 5515 H 512.501 3.88654 -2.0456 0
M  V30 5516 H 513.107 2.73435 -3.25751 0
M  V30 5517 N 511.423 1.38739 0.74761 0
M  V30 5518 C 512.333 1.38696 1.89211 0
M  V30 5519 C 513.349 0.283303 1.71678 0
M  V30 5520 O 514.525 0.522713 1.94498 0
M  V30 5521 C 511.59 1.21662 3.24653 0
M  V30 5522 C 510.651 2.41886 3.54669 0
M  V30 5523 C 509.884 2.25655 4.83648 0
M  V30 5524 O 510.107 1.25339 5.56459 0
M  V30 5525 O 509.041 3.14372 5.13277 0
M  V30 5526 H 512.867 2.35143 1.92202 0
M  V30 5527 H 510.452 1.19721 0.893708 0
M  V30 5528 H 512.334 1.14246 4.05618 0
M  V30 5529 H 511.009 0.283024 3.2246 0
M  V30 5530 H 509.916 2.54877 2.73841 0
M  V30 5531 H 511.249 3.33895 3.61628 0
M  V30 5532 N 512.901 -0.976442 1.23707 0
M  V30 5533 C 514.15 -1.71254 1.06559 0
M  V30 5534 C 514.463 -1.91528 -0.397024 0
M  V30 5535 O 515.669 -2.62625 -0.688518 0
M  V30 5536 C 514.125 -3.08207 1.8584 0
M  V30 5537 C 513.733 -2.95806 3.36456 0
M  V30 5538 C 515.477 -3.85749 1.77194 0
M  V30 5539 C 513.384 -4.28015 4.08114 0
M  V30 5540 H 512.314 -0.642171 0.395136 0
M  V30 5541 H 514.965 -1.08877 1.4771 0
M  V30 5542 H 513.347 -3.71363 1.37498 0
M  V30 5543 H 514.521 -2.41716 3.92314 0
M  V30 5544 H 512.836 -2.31736 3.45959 0
M  V30 5545 H 515.433 -4.83633 2.28041 0
M  V30 5546 H 515.776 -4.09752 0.735477 0
M  V30 5547 H 516.309 -3.29303 2.23169 0
M  V30 5548 H 513.048 -4.09208 5.12083 0
M  V30 5549 H 512.568 -4.81955 3.57043 0
M  V30 5550 H 514.247 -4.96681 4.14629 0
M  V30 5551 N 514.379 -1.04941 -1.1758 0
M  V30 5552 C 515.609 -0.777166 -1.91425 0
M  V30 5553 C 516.017 0.670647 -1.76915 0
M  V30 5554 O 515.36 1.46965 -1.10213 0
M  V30 5555 C 515.422 -1.07495 -3.43052 0
M  V30 5556 C 515.086 -2.51844 -3.81345 0
M  V30 5557 C 516.083 -3.50047 -3.844 0
M  V30 5558 C 513.768 -2.86787 -4.12382 0
M  V30 5559 C 515.762 -4.81239 -4.17957 0
M  V30 5560 C 513.449 -4.18182 -4.45608 0
M  V30 5561 C 514.447 -5.15219 -4.48373 0
M  V30 5562 O 514.135 -6.44258 -4.80819 0
M  V30 5563 H 513.867 -0.282209 -0.614275 0
M  V30 5564 H 516.421 -1.40258 -1.50056 0
M  V30 5565 H 514.651 -0.392437 -3.84704 0
M  V30 5566 H 516.34 -0.78912 -3.98155 0
M  V30 5567 H 517.106 -3.24391 -3.60548 0
M  V30 5568 H 512.985 -2.11922 -4.09402 0
M  V30 5569 H 516.529 -5.56974 -4.2003 0
M  V30 5570 H 512.426 -4.43602 -4.68922 0
M  V30 5571 H 513.194 -6.49041 -4.98686 0
M  V30 5572 N 515.857 1.33968 -0.830081 0
M  V30 5573 C 517.085 2.0228 -0.434773 0
M  V30 5574 C 517.5 1.62487 0.961419 0
M  V30 5575 O 516.857 0.833849 1.62337 0
M  V30 5576 C 516.908 3.5751 -0.535625 0
M  V30 5577 O 516.629 3.95864 -1.87679 0
M  V30 5578 C 518.13 4.43091 -0.136137 0
M  V30 5579 H 515.35 0.648151 -0.173613 0
M  V30 5580 H 517.894 1.71089 -1.12022 0
M  V30 5581 H 516.049 3.87266 0.101817 0
M  V30 5582 H 516.463 4.9056 -1.85609 0
M  V30 5583 H 517.937 5.51398 -0.257772 0
M  V30 5584 H 518.414 4.29433 0.921076 0
M  V30 5585 H 519.02 4.18677 -0.747662 0
M  V30 5586 N 517.335 0.585699 1.46312 0
M  V30 5587 C 518.245 -0.148236 2.34131 0
M  V30 5588 C 519.261 -0.882972 1.49932 0
M  V30 5589 O 520.437 -0.845484 1.82794 0
M  V30 5590 C 517.502 -1.14714 3.27172 0
M  V30 5591 C 516.563 -0.416746 4.27272 0
M  V30 5592 C 515.796 -1.36806 5.15868 0
M  V30 5593 O 516.019 -2.60475 5.07454 0
M  V30 5594 O 514.953 -0.877018 5.95476 0
M  V30 5595 H 518.779 0.572882 2.98248 0
M  V30 5596 H 516.364 0.346082 1.45336 0
M  V30 5597 H 518.246 -1.72303 3.84564 0
M  V30 5598 H 516.921 -1.84967 2.65648 0
M  V30 5599 H 515.828 0.201061 3.73559 0
M  V30 5600 H 517.161 0.244872 4.9159 0
M  V30 5601 N 518.813 -1.54241 0.323641 0
M  V30 5602 C 520.09 -1.92741 -0.333181 0
M  V30 5603 C 520.47 -1.25326 -1.69872 0
M  V30 5604 O 519.818 -0.396991 -2.25025 0
M  V30 5605 C 520.028 -3.46399 -0.425322 0
M  V30 5606 C 521.376 -4.19029 -0.68557 0
M  V30 5607 O 522.4 -3.52555 -0.50824 0
M  V30 5608 O 521.259 -5.36751 -1.02767 0
M  V30 5609 H 518.353 -0.804811 -0.190286 0
M  V30 5610 H 520.899 -1.65542 0.373361 0
M  V30 5611 H 519.671 -3.87643 0.533737 0
M  V30 5612 H 519.294 -3.79704 -1.17944 0
M  V30 5613 N 520.291 -0.0518155 -1.57515 0
M  V30 5614 C 521.239 0.940195 -2.12751 0
M  V30 5615 C 522.233 1.3218 -1.05948 0
M  V30 5616 O 523.439 1.30138 -1.24355 0
M  V30 5617 H 519.814 0.321066 -0.680015 0
M  V30 5618 H 521.785 0.449217 -2.94999 0
M  V30 5619 C 520.534 2.2055 -2.68799 0
M  V30 5620 H 519.857 1.92066 -3.50643 0
M  V30 5621 H 521.297 2.88119 -3.11068 0
M  V30 5622 C 519.756 2.95061 -1.62605 0
M  V30 5623 O 520.286 3.88025 -1.03921 0
M  V30 5624 N 518.492 2.57804 -1.34111 0
M  V30 5625 H 518.039 1.82281 -1.8202 0
M  V30 5626 H 517.997 3.07964 -0.632872 0
M  V30 5627 N 521.769 1.56035 0.221574 0
M  V30 5628 C 523.016 1.79047 0.94597 0
M  V30 5629 C 523.344 0.62057 1.84334 0
M  V30 5630 O 522.599 -0.395053 1.91671 0
M  V30 5631 C 522.898 3.07813 1.8162 0
M  V30 5632 C 522.564 4.3797 1.07206 0
M  V30 5633 C 521.226 4.73334 0.866508 0
M  V30 5634 C 523.578 5.18326 0.546565 0
M  V30 5635 C 520.906 5.8657 0.123549 0
M  V30 5636 C 523.258 6.32335 -0.18305 0
M  V30 5637 C 521.922 6.66301 -0.399861 0
M  V30 5638 H 521.192 0.655178 0.346155 0
M  V30 5639 H 523.839 1.90299 0.214146 0
M  V30 5640 H 522.144 2.91682 2.61589 0
M  V30 5641 H 523.841 3.2282 2.37884 0
M  V30 5642 H 520.431 4.10202 1.24226 0
M  V30 5643 H 524.615 4.9144 0.692847 0
M  V30 5644 H 519.871 6.11376 -0.0546591 0
M  V30 5645 H 524.045 6.9383 -0.59775 0
M  V30 5646 H 521.672 7.53889 -0.977489 0
M  V30 5647 N 523.247 -0.488276 1.49845 0
M  V30 5648 C 524.493 -1.24341 1.6021 0
M  V30 5649 C 524.826 -1.91967 0.293651 0
M  V30 5650 O 524.101 -1.81323 -0.703718 0
M  V30 5651 C 524.384 -2.3005 2.77036 0
M  V30 5652 C 524.237 -1.66842 4.17713 0
M  V30 5653 C 525.556 -3.31509 2.89464 0
M  V30 5654 H 522.675 -0.450704 0.583125 0
M  V30 5655 H 525.317 -0.539673 1.82174 0
M  V30 5656 H 523.467 -2.90071 2.58439 0
M  V30 5657 H 525.139 -1.1055 4.47858 0
M  V30 5658 H 523.382 -0.972079 4.22768 0
M  V30 5659 H 524.053 -2.43576 4.95353 0
M  V30 5660 H 526.529 -2.81493 3.06433 0
M  V30 5661 H 525.405 -4.02822 3.72861 0
M  V30 5662 H 525.666 -3.94603 1.99351 0
M  V30 5663 N 524.725 -1.39134 -0.740242 0
M  V30 5664 C 525.672 -1.37434 -1.8542 0
M  V30 5665 C 526.642 -0.234822 -1.64432 0
M  V30 5666 O 527.827 -0.429125 -1.85912 0
M  V30 5667 C 524.967 -1.21844 -3.22875 0
M  V30 5668 C 524.08 -2.45296 -3.55603 0
M  V30 5669 C 523.215 -2.22334 -4.82432 0
M  V30 5670 C 522.254 -3.41488 -5.07988 0
M  V30 5671 N 521.391 -3.17877 -6.26018 0
M  V30 5672 H 526.231 -2.3266 -1.86207 0
M  V30 5673 H 523.768 -1.15578 -0.909946 0
M  V30 5674 H 525.726 -1.10818 -4.02213 0
M  V30 5675 H 524.356 -0.3025 -3.21379 0
M  V30 5676 H 523.408 -2.66945 -2.71006 0
M  V30 5677 H 524.72 -3.34063 -3.7041 0
M  V30 5678 H 523.874 -2.0852 -5.69741 0
M  V30 5679 H 522.613 -1.30954 -4.6979 0
M  V30 5680 H 521.618 -3.55807 -4.19144 0
M  V30 5681 H 522.843 -4.33763 -5.22519 0
M  V30 5682 H 520.789 -2.29156 -6.14673 0
M  V30 5683 H 520.706 -4.00198 -6.41387 0
M  V30 5684 H 521.974 -3.07746 -7.16179 0
M  V30 5685 N 526.204 0.969867 -1.24223 0
M  V30 5686 C 527.451 1.71256 -1.08063 0
M  V30 5687 C 527.779 1.90734 0.380872 0
M  V30 5688 O 527.034 1.46469 1.29789 0
M  V30 5689 C 527.333 3.10883 -1.76314 0
M  V30 5690 C 526.999 3.11252 -3.26241 0
M  V30 5691 C 525.661 3.1106 -3.67144 0
M  V30 5692 C 528.013 3.05751 -4.22097 0
M  V30 5693 C 525.341 3.03097 -5.02344 0
M  V30 5694 C 527.693 2.9933 -5.57301 0
M  V30 5695 C 526.357 2.97466 -5.97554 0
M  V30 5696 H 525.627 0.62667 -0.395431 0
M  V30 5697 H 528.274 1.13422 -1.54297 0
M  V30 5698 H 526.579 3.72168 -1.22468 0
M  V30 5699 H 528.276 3.67138 -1.61277 0
M  V30 5700 H 524.866 3.12165 -2.93685 0
M  V30 5701 H 529.05 3.05031 -3.91497 0
M  V30 5702 H 524.306 3.00013 -5.32731 0
M  V30 5703 H 528.48 2.94033 -6.31283 0
M  V30 5704 H 526.107 2.91051 -7.02277 0
M  V30 5705 N 527.682 1.05563 1.17022 0
M  V30 5706 C 528.929 0.767937 1.87374 0
M  V30 5707 C 529.257 -0.705224 1.81265 0
M  V30 5708 O 528.512 -1.5318 1.21796 0
M  V30 5709 C 528.811 1.19849 3.36706 0
M  V30 5710 C 528.477 2.6745 3.63017 0
M  V30 5711 C 527.139 3.0777 3.69907 0
M  V30 5712 C 529.491 3.62811 3.74189 0
M  V30 5713 C 526.819 4.42307 3.85463 0
M  V30 5714 C 529.171 4.97087 3.91264 0
M  V30 5715 C 527.835 5.37055 3.96394 0
M  V30 5716 H 527.105 0.281008 0.68565 0
M  V30 5717 H 529.752 1.32339 1.38415 0
M  V30 5718 H 528.057 0.562096 3.87747 0
M  V30 5719 H 529.754 0.953038 3.8951 0
M  V30 5720 H 526.344 2.35228 3.58282 0
M  V30 5721 H 530.528 3.32798 3.68183 0
M  V30 5722 H 525.784 4.72769 3.87684 0
M  V30 5723 H 529.958 5.70869 3.9885 0
M  V30 5724 H 527.585 6.41308 4.082 0
M  V30 5725 N 529.16 -1.33526 0.837174 0
M  V30 5726 C 530.107 -2.29248 0.267169 0
M  V30 5727 C 531.077 -1.54252 -0.616071 0
M  V30 5728 O 532.262 -1.82559 -0.554699 0
M  V30 5729 C 529.402 -3.40638 -0.553152 0
M  V30 5730 C 528.515 -4.30548 0.353921 0
M  V30 5731 C 527.65 -5.29051 -0.477339 0
M  V30 5732 C 526.689 -6.106 0.42823 0
M  V30 5733 N 525.826 -7.01152 -0.364801 0
M  V30 5734 H 530.666 -2.77398 1.08877 0
M  V30 5735 H 528.203 -1.36496 0.54838 0
M  V30 5736 H 530.161 -4.03921 -1.04422 0
M  V30 5737 H 528.791 -2.93685 -1.33973 0
M  V30 5738 H 527.843 -3.68001 0.963289 0
M  V30 5739 H 529.155 -4.87631 1.04964 0
M  V30 5740 H 528.309 -5.97853 -1.0323 0
M  V30 5741 H 527.048 -4.72541 -1.2065 0
M  V30 5742 H 526.053 -5.40718 0.995219 0
M  V30 5743 H 527.278 -6.69193 1.15573 0
M  V30 5744 H 525.224 -6.47092 -1.07738 0
M  V30 5745 H 525.141 -7.5551 0.272238 0
M  V30 5746 H 526.409 -7.74263 -0.902054 0
M  V30 5747 N 530.638 -0.59345 -1.46 0
M  V30 5748 C 531.884 -0.0832754 -2.02629 0
M  V30 5749 C 532.217 1.27749 -1.46266 0
M  V30 5750 O 531.492 1.8395 -0.631866 0
M  V30 5751 C 531.775 -0.0290756 -3.60088 0
M  V30 5752 C 531.628 -1.41951 -4.26814 0
M  V30 5753 C 532.947 0.666055 -4.35031 0
M  V30 5754 H 530.066 -0.031736 -0.736316 0
M  V30 5755 H 532.708 -0.762711 -1.74019 0
M  V30 5756 H 530.858 0.549532 -3.84594 0
M  V30 5757 H 532.53 -2.04411 -4.13538 0
M  V30 5758 H 530.773 -1.98422 -3.8576 0
M  V30 5759 H 531.444 -1.33395 -5.3564 0
M  V30 5760 H 533.92 0.174401 -4.15734 0
M  V30 5761 H 532.796 0.673041 -5.44758 0
M  V30 5762 H 533.057 1.72946 -4.06869 0
M  V30 5763 N 532.116 1.54067 -0.331816 0
M  V30 5764 C 533.046 2.27569 0.522932 0
M  V30 5765 C 534.027 1.28679 1.11247 0
M  V30 5766 O 535.212 1.57504 1.13605 0
M  V30 5767 C 532.342 3.0397 1.67987 0
M  V30 5768 C 531.296 4.10267 1.21924 0
M  V30 5769 C 530.622 4.74555 2.46377 0
M  V30 5770 C 531.922 5.21268 0.32815 0
M  V30 5771 H 533.616 2.99264 -0.0901977 0
M  V30 5772 H 531.162 1.4393 -0.044821 0
M  V30 5773 H 533.115 3.54123 2.28418 0
M  V30 5774 H 531.839 2.29906 2.31971 0
M  V30 5775 H 530.498 3.61009 0.637809 0
M  V30 5776 H 530.146 3.97098 3.08743 0
M  V30 5777 H 529.846 5.46363 2.16243 0
M  V30 5778 H 531.37 5.27487 3.07555 0
M  V30 5779 H 532.784 5.67128 0.838978 0
M  V30 5780 H 531.181 5.99982 0.119228 0
M  V30 5781 H 532.251 4.80673 -0.638839 0
M  V30 5782 N 533.594 0.0601682 1.57485 0
M  V30 5783 C 534.542 -0.928899 2.13247 0
M  V30 5784 C 535.536 -1.31616 1.06647 0
M  V30 5785 O 536.742 -1.29476 1.25043 0
M  V30 5786 H 533.117 -0.317455 0.681708 0
M  V30 5787 H 535.088 -0.433566 2.95233 0
M  V30 5788 C 533.837 -2.19121 2.69965 0
M  V30 5789 H 533.16 -1.90204 3.51657 0
M  V30 5790 H 534.6 -2.86465 3.12592 0
M  V30 5791 C 533.059 -2.94195 1.64168 0
M  V30 5792 O 533.589 -3.87468 1.05978 0
M  V30 5793 N 531.795 -2.57089 1.35476 0
M  V30 5794 H 531.342 -1.81314 1.82984 0
M  V30 5795 H 531.3 -3.07624 0.649196 0
M  V30 5796 N 535.072 -1.5615 -0.213296 0
M  V30 5797 C 536.488 -1.49327 -0.56336 0
M  V30 5798 C 536.688 -0.756826 -1.86747 0
M  V30 5799 O 535.744 -0.299866 -2.50713 0
M  V30 5800 C 537.057 -2.9392 -0.634944 0
M  V30 5801 C 538.605 -3.04487 -0.725013 0
M  V30 5802 C 539.08 -4.50456 -0.82787 0
M  V30 5803 N 540.571 -4.54533 -0.891876 0
M  V30 5804 C 541.306 -5.64766 -0.991315 0
M  V30 5805 N 540.802 -6.84733 -1.05419 0
M  V30 5806 N 542.595 -5.52637 -1.02709 0
M  V30 5807 H 534.746 -2.02453 0.642366 0
M  V30 5808 H 537.009 -0.920548 0.226487 0
M  V30 5809 H 536.715 -3.50783 0.253859 0
M  V30 5810 H 536.589 -3.46274 -1.49579 0
M  V30 5811 H 538.976 -2.47685 -1.60425 0
M  V30 5812 H 539.057 -2.55289 0.161669 0
M  V30 5813 H 538.701 -5.07878 0.0469464 0
M  V30 5814 H 538.631 -4.97369 -1.73009 0
M  V30 5815 H 541.122 -3.68141 -0.85327 0
M  V30 5816 H 541.435 -7.64493 -1.13007 0
M  V30 5817 H 539.78 -6.87427 -1.02318 0
M  V30 5818 H 542.971 -4.5784 -0.974687 0
M  V30 5819 H 543.144 -6.38576 -1.10113 0
M  V30 5820 N 536.55 0.480323 -1.50102 0
M  V30 5821 C 537.497 1.57946 -1.6829 0
M  V30 5822 C 538.467 1.57611 -0.524223 0
M  V30 5823 O 539.652 1.75282 -0.753709 0
M  V30 5824 C 536.792 2.95978 -1.77457 0
M  V30 5825 C 535.905 3.06173 -3.04766 0
M  V30 5826 C 535.04 4.35063 -3.04784 0
M  V30 5827 C 534.079 4.38966 -4.26586 0
M  V30 5828 N 533.216 5.59314 -4.24396 0
M  V30 5829 H 538.056 1.41743 -2.62131 0
M  V30 5830 H 535.593 0.689304 -1.2995 0
M  V30 5831 H 537.551 3.76011 -1.80752 0
M  V30 5832 H 536.181 3.10837 -0.870637 0
M  V30 5833 H 535.233 2.19071 -3.10986 0
M  V30 5834 H 536.545 3.04916 -3.9475 0
M  V30 5835 H 535.699 5.23436 -3.06757 0
M  V30 5836 H 534.438 4.38915 -2.12614 0
M  V30 5837 H 533.443 3.48992 -4.24835 0
M  V30 5838 H 534.668 4.36813 -5.19972 0
M  V30 5839 H 532.614 5.63969 -3.35074 0
M  V30 5840 H 532.531 5.5976 -5.08138 0
M  V30 5841 H 533.799 6.49837 -4.30502 0
M  V30 5842 N 538.028 1.39524 0.732853 0
M  V30 5843 C 539.256 1.40143 1.52209 0
M  V30 5844 C 539.671 -0.00348836 1.888 0
M  V30 5845 O 539.028 -0.975357 1.5425 0
M  V30 5846 C 539.079 2.27632 2.8083 0
M  V30 5847 O 538.8 3.62654 2.45792 0
M  V30 5848 C 540.301 2.36658 3.74844 0
M  V30 5849 H 537.521 0.478604 0.470297 0
M  V30 5850 H 540.065 1.83366 0.905388 0
M  V30 5851 H 538.22 1.87818 3.38826 0
M  V30 5852 H 538.634 4.08941 3.28431 0
M  V30 5853 H 540.108 3.02118 4.61984 0
M  V30 5854 H 540.585 1.38638 4.16745 0
M  V30 5855 H 541.191 2.76951 3.22766 0
M  V30 5856 N 539.506 -0.963266 1.24736 0
M  V30 5857 C 540.736 -1.73913 1.11524 0
M  V30 5858 C 541.144 -1.86218 -0.334612 0
M  V30 5859 O 540.487 -1.3531 -1.24245 0
M  V30 5860 C 540.549 -3.17501 1.68622 0
M  V30 5861 C 540.213 -3.28655 3.17546 0
M  V30 5862 C 541.21 -3.13637 4.14642 0
M  V30 5863 C 538.895 -3.52753 3.5759 0
M  V30 5864 C 540.889 -3.2255 5.49764 0
M  V30 5865 C 538.576 -3.61303 4.92852 0
M  V30 5866 C 539.574 -3.46214 5.88748 0
M  V30 5867 O 539.262 -3.5443 7.2155 0
M  V30 5868 H 538.994 -0.552057 0.390139 0
M  V30 5869 H 541.548 -1.2177 1.65412 0
M  V30 5870 H 539.778 -3.70969 1.09172 0
M  V30 5871 H 541.467 -3.76914 1.50635 0
M  V30 5872 H 542.233 -2.94899 3.85045 0
M  V30 5873 H 538.112 -3.63561 2.83451 0
M  V30 5874 H 541.656 -3.1069 6.24594 0
M  V30 5875 H 537.553 -3.79556 5.22118 0
M  V30 5876 H 538.321 -3.71116 7.29531 0
M  V30 5877 N 540.985 -1.06182 -1.16461 0
M  V30 5878 C 541.915 -0.692861 -2.22984 0
M  V30 5879 C 542.896 0.314122 -1.67174 0
M  V30 5880 O 544.081 0.189499 -1.93273 0
M  V30 5881 C 541.211 -0.07732 -3.47214 0
M  V30 5882 C 540.165 -1.01015 -4.15909 0
M  V30 5883 C 539.491 -0.257973 -5.34077 0
M  V30 5884 C 540.791 -2.33868 -4.67015 0
M  V30 5885 H 542.485 -1.58343 -2.54102 0
M  V30 5886 H 540.031 -0.76279 -1.22137 0
M  V30 5887 H 541.984 0.19266 -4.20959 0
M  V30 5888 H 540.708 0.848254 -3.15392 0
M  V30 5889 H 539.367 -1.26486 -3.44088 0
M  V30 5890 H 539.015 0.670684 -4.98509 0
M  V30 5891 H 538.715 -0.879638 -5.80979 0
M  V30 5892 H 540.239 0.00448788 -6.106 0
M  V30 5893 H 541.653 -2.1279 -5.32347 0
M  V30 5894 H 540.05 -2.91522 -5.24533 0
M  V30 5895 H 541.12 -2.97019 -3.83286 0
M  V30 5896 N 542.463 1.3308 -0.844243 0
M  V30 5897 C 543.411 2.31028 -0.269954 0
M  V30 5898 C 544.405 1.58381 0.600997 0
M  V30 5899 O 545.611 1.73203 0.48996 0
M  V30 5900 H 541.986 0.748866 -0.0685782 0
M  V30 5901 H 543.957 2.76967 -1.11049 0
M  V30 5902 C 542.706 3.43549 0.535676 0
M  V30 5903 H 542.029 3.99604 -0.125202 0
M  V30 5904 H 543.469 4.14267 0.903262 0
M  V30 5905 C 541.928 2.8988 1.71672 0
M  V30 5906 O 542.458 2.86511 2.81557 0
M  V30 5907 N 540.664 2.46416 1.54037 0
M  V30 5908 H 540.211 2.49356 0.64649 0
M  V30 5909 H 540.169 2.1086 2.33207 0
M  V30 5910 N 543.941 0.601185 1.45683 0
M  V30 5911 C 545.188 0.0938811 2.02282 0
M  V30 5912 C 545.516 -1.27315 1.47041 0
M  V30 5913 O 544.771 -1.85193 0.632623 0
M  V30 5914 C 545.07 -0.00222425 3.574 0
M  V30 5915 C 544.736 1.29963 4.31764 0
M  V30 5916 C 543.398 1.65625 4.51798 0
M  V30 5917 C 545.75 2.1603 4.74321 0
M  V30 5918 C 543.078 2.87119 5.11644 0
M  V30 5919 C 545.43 3.36766 5.3551 0
M  V30 5920 C 544.094 3.72689 5.53768 0
M  V30 5921 H 543.364 0.0343535 0.740203 0
M  V30 5922 H 546.011 0.781522 1.74827 0
M  V30 5923 H 544.316 -0.773096 3.84097 0
M  V30 5924 H 546.013 -0.410794 3.9889 0
M  V30 5925 H 542.603 1.01204 4.1648 0
M  V30 5926 H 546.787 1.89778 4.58582 0
M  V30 5927 H 542.043 3.15065 5.2397 0
M  V30 5928 H 546.217 4.03713 5.67441 0
M  V30 5929 H 543.844 4.66918 5.99909 0
M  V30 5930 N 545.419 -1.53889 0.339982 0
M  V30 5931 C 546.696 -1.93084 -0.312719 0
M  V30 5932 C 547.076 -1.2712 -1.68534 0
M  V30 5933 O 546.424 -0.420835 -2.24591 0
M  V30 5934 C 546.634 -3.4683 -0.388558 0
M  V30 5935 C 547.982 -4.19732 -0.641088 0
M  V30 5936 O 549.006 -3.53075 -0.470818 0
M  V30 5937 O 547.865 -5.3781 -0.970685 0
M  V30 5938 H 544.959 -0.806784 -0.18174 0
M  V30 5939 H 547.505 -1.65137 0.390898 0
M  V30 5940 H 546.277 -3.87055 0.574821 0
M  V30 5941 H 545.9 -3.80933 -1.1391 0
M  V30 5942 N 546.897 -0.0685191 -1.57451 0
M  V30 5943 C 547.844 0.899861 -2.12535 0
M  V30 5944 C 548.814 1.29749 -1.03703 0
M  V30 5945 O 549.999 1.38392 -1.31348 0
M  V30 5946 C 547.139 2.16328 -2.6888 0
M  V30 5947 C 546.252 1.81857 -3.91857 0
M  V30 5948 C 545.387 3.02786 -4.36457 0
M  V30 5949 C 544.426 2.64317 -5.5209 0
M  V30 5950 N 543.563 3.77994 -5.91663 0
M  V30 5951 H 548.403 0.423243 -2.94979 0
M  V30 5952 H 545.94 0.197268 -1.45771 0
M  V30 5953 H 547.898 2.90281 -2.99655 0
M  V30 5954 H 546.528 2.61536 -1.89206 0
M  V30 5955 H 545.58 0.979808 -3.67565 0
M  V30 5956 H 546.892 1.49553 -4.75852 0
M  V30 5957 H 546.046 3.85021 -4.68875 0
M  V30 5958 H 544.785 3.38281 -3.51308 0
M  V30 5959 H 543.79 1.80503 -5.19325 0
M  V30 5960 H 545.015 2.29995 -6.38967 0
M  V30 5961 H 542.961 4.13258 -5.09464 0
M  V30 5962 H 542.878 3.49447 -6.7039 0
M  V30 5963 H 544.146 4.60818 -6.28703 0
M  V30 5964 N 548.375 1.56261 0.205012 0
M  V30 5965 C 549.338 1.92908 1.23771 0
M  V30 5966 C 550.338 0.809208 1.38955 0
M  V30 5967 O 551.528 1.07676 1.36936 0
M  V30 5968 C 548.66 2.19442 2.60879 0
M  V30 5969 H 549.853 2.85287 0.924728 0
M  V30 5970 H 547.406 1.49798 0.446125 0
M  V30 5971 H 548.141 1.29668 2.97248 0
M  V30 5972 H 547.926 3.0104 2.51232 0
M  V30 5973 H 549.416 2.48833 3.35368 0
M  V30 5974 N 549.853 -0.472356 1.50355 0
M  V30 5975 C 551.099 -1.22634 1.6152 0
M  V30 5976 C 551.432 -1.91645 0.313995 0
M  V30 5977 O 550.707 -1.82059 -0.684446 0
M  V30 5978 C 550.99 -2.27099 2.7946 0
M  V30 5979 C 550.843 -1.62402 4.19459 0
M  V30 5980 C 552.162 -3.28421 2.92964 0
M  V30 5981 H 549.281 -0.444494 0.587873 0
M  V30 5982 H 551.923 -0.520321 1.82737 0
M  V30 5983 H 550.073 -2.87314 2.61501 0
M  V30 5984 H 551.745 -1.05793 4.49005 0
M  V30 5985 H 549.988 -0.927184 4.23776 0
M  V30 5986 H 550.659 -2.38309 4.97909 0
M  V30 5987 H 553.135 -2.78227 3.09401 0
M  V30 5988 H 552.011 -3.98845 3.77113 0
M  V30 5989 H 552.272 -3.92467 2.03525 0
M  V30 5990 N 551.331 -1.39911 -0.725443 0
M  V30 5991 C 552.578 -1.37654 -1.48518 0
M  V30 5992 C 552.906 0.0243982 -1.94485 0
M  V30 5993 O 552.161 1.00708 -1.67799 0
M  V30 5994 C 552.46 -2.30368 -2.7325 0
M  V30 5995 C 552.126 -3.77817 -2.461 0
M  V30 5996 C 550.788 -4.17991 -2.38405 0
M  V30 5997 C 553.14 -4.71036 -2.23103 0
M  V30 5998 C 550.468 -5.49433 -2.05768 0
M  V30 5999 C 552.82 -6.02766 -1.9198 0
M  V30 6000 C 551.484 -6.41993 -1.82761 0
M  V30 6001 H 550.754 -0.503713 -0.543465 0
M  V30 6002 H 553.401 -1.7249 -0.831822 0
M  V30 6003 H 551.706 -1.88683 -3.43375 0
M  V30 6004 H 553.403 -2.2591 -3.31309 0
M  V30 6005 H 549.993 -3.45982 -2.52972 0
M  V30 6006 H 554.177 -4.40823 -2.2801 0
M  V30 6007 H 549.433 -5.78738 -1.9716 0
M  V30 6008 H 553.607 -6.74519 -1.73197 0
M  V30 6009 H 551.234 -7.43761 -1.57237 0
M  V30 6010 N 552.809 0.956637 -1.25245 0
M  V30 6011 C 553.756 2.053 -1.05454 0
M  V30 6012 C 554.726 1.66062 0.0356889 0
M  V30 6013 O 555.911 1.90415 -0.121099 0
M  V30 6014 C 553.051 3.38391 -0.677191 0
M  V30 6015 C 552.164 3.90758 -1.84206 0
M  V30 6016 C 551.299 5.12165 -1.40926 0
M  V30 6017 C 550.338 5.56757 -2.54338 0
M  V30 6018 N 549.475 6.69376 -2.11848 0
M  V30 6019 H 554.315 2.21562 -1.99284 0
M  V30 6020 H 551.852 1.08578 -0.992434 0
M  V30 6021 H 553.81 4.1488 -0.43938 0
M  V30 6022 H 552.44 3.22021 0.224127 0
M  V30 6023 H 551.492 3.10808 -2.19323 0
M  V30 6024 H 552.804 4.19802 -2.69383 0
M  V30 6025 H 551.958 5.96065 -1.13098 0
M  V30 6026 H 550.697 4.84832 -0.528175 0
M  V30 6027 H 549.702 4.71423 -2.82913 0
M  V30 6028 H 550.927 5.861 -3.43022 0
M  V30 6029 H 548.873 6.43756 -1.26153 0
M  V30 6030 H 548.79 6.97927 -2.90574 0
M  V30 6031 H 550.058 7.5669 -1.87191 0
M  V30 6032 N 554.287 1.06798 1.15896 0
M  V30 6033 C 555.536 0.782796 1.8589 0
M  V30 6034 C 555.849 -0.693498 1.82893 0
M  V30 6035 O 557.055 -1.09325 2.48516 0
M  V30 6036 C 555.511 1.3502 3.33613 0
M  V30 6037 C 555.119 2.8571 3.45071 0
M  V30 6038 C 556.863 1.14278 4.08829 0
M  V30 6039 C 554.77 3.35669 4.86909 0
M  V30 6040 H 553.7 0.289149 0.696354 0
M  V30 6041 H 556.351 1.28734 1.30766 0
M  V30 6042 H 554.733 0.773407 3.88374 0
M  V30 6043 H 555.907 3.49385 3.00445 0
M  V30 6044 H 554.222 3.05178 2.83294 0
M  V30 6045 H 556.819 1.49087 5.13495 0
M  V30 6046 H 557.162 0.0814575 4.1622 0
M  V30 6047 H 557.695 1.68563 3.60321 0
M  V30 6048 H 554.434 4.41302 4.84698 0
M  V30 6049 H 553.954 2.76745 5.32139 0
M  V30 6050 H 555.633 3.31296 5.55745 0
M  V30 6051 N 555.766 -1.3263 0.851289 0
M  V30 6052 C 556.714 -2.30882 0.282202 0
M  V30 6053 C 557.708 -1.58697 -0.592589 0
M  V30 6054 O 558.914 -1.73461 -0.480768 0
M  V30 6055 H 555.289 -0.748492 0.0725487 0
M  V30 6056 H 557.26 -2.76374 1.12516 0
M  V30 6057 C 556.009 -3.43828 -0.517449 0
M  V30 6058 H 555.332 -3.99532 0.146392 0
M  V30 6059 H 556.772 -4.1474 -0.88128 0
M  V30 6060 C 555.231 -2.90786 -1.70133 0
M  V30 6061 O 555.761 -2.88 -2.80034 0
M  V30 6062 N 553.967 -2.4723 -1.52728 0
M  V30 6063 H 553.514 -2.49695 -0.633257 0
M  V30 6064 H 553.472 -2.12094 -2.32085 0
M  V30 6065 N 557.244 -0.608902 -1.45362 0
M  V30 6066 C 558.493 -0.10218 -2.01441 0
M  V30 6067 C 558.806 1.27546 -1.48295 0
M  V30 6068 O 560.012 1.87498 -1.96359 0
M  V30 6069 C 558.468 -0.131985 -3.59658 0
M  V30 6070 C 558.076 -1.50956 -4.21801 0
M  V30 6071 C 559.82 0.319427 -4.23296 0
M  V30 6072 C 557.727 -1.49568 -5.72174 0
M  V30 6073 H 556.657 -0.0344314 -0.753213 0
M  V30 6074 H 559.308 -0.764426 -1.6682 0
M  V30 6075 H 557.69 0.596939 -3.91475 0
M  V30 6076 H 558.864 -2.26029 -4.01556 0
M  V30 6077 H 557.179 -1.90318 -3.70362 0
M  V30 6078 H 559.776 0.349013 -5.3356 0
M  V30 6079 H 560.119 1.34237 -3.94064 0
M  V30 6080 H 560.652 -0.356273 -3.96201 0
M  V30 6081 H 557.391 -2.49626 -6.06108 0
M  V30 6082 H 556.911 -0.787542 -5.94607 0
M  V30 6083 H 558.59 -1.21989 -6.35396 0
M  V30 6084 N 558.722 1.53707 -0.348139 0
M  V30 6085 C 559.968 2.01286 0.247332 0
M  V30 6086 C 560.301 1.23546 1.49834 0
M  V30 6087 O 559.576 0.324331 1.91777 0
M  V30 6088 C 559.859 3.55768 0.556858 0
M  V30 6089 C 559.712 4.44216 -0.706564 0
M  V30 6090 C 561.031 4.1841 1.3646 0
M  V30 6091 H 558.15 0.731677 0.0884201 0
M  V30 6092 H 560.792 1.84106 -0.469584 0
M  V30 6093 H 558.942 3.70539 1.16761 0
M  V30 6094 H 560.614 4.41274 -1.34444 0
M  V30 6095 H 558.857 4.12892 -1.33052 0
M  V30 6096 H 559.528 5.50202 -0.445186 0
M  V30 6097 H 562.004 4.07365 0.848113 0
M  V30 6098 H 560.88 5.26563 1.54992 0
M  V30 6099 H 561.141 3.7333 2.36805 0
M  V30 6100 N 560.2 0.0768682 1.57412 0
M  V30 6101 C 561.611 -0.455037 1.8107 0
M  V30 6102 C 561.962 -1.69323 0.991162 0
M  V30 6103 O 561.087 -2.15328 0.215156 0
M  V30 6104 C 561.682 -0.832316 3.28417 0
M  V30 6105 C 560.241 -1.30906 3.52903 0
M  V30 6106 C 559.388 -0.296714 2.75708 0
M  V30 6107 H 562.339 0.302514 1.5579 0
M  V30 6108 H 562.36 -1.69333 3.40744 0
M  V30 6109 H 561.872 0.0690532 3.88039 0
M  V30 6110 H 559.973 -2.22875 2.98592 0
M  V30 6111 H 560.086 -1.28348 4.61588 0
M  V30 6112 H 558.45 -0.775059 2.42621 0
M  V30 6113 H 559.233 0.597015 3.38069 0
M  V30 6114 N 561.678 -1.56367 -0.196722 0
M  V30 6115 C 562.625 -1.94417 -1.24382 0
M  V30 6116 C 563.595 -0.804543 -1.45315 0
M  V30 6117 O 564.78 -1.06256 -1.58475 0
M  V30 6118 C 561.92 -2.28757 -2.58388 0
M  V30 6119 C 561.033 -3.55775 -2.45047 0
M  V30 6120 C 560.168 -3.79445 -3.71746 0
M  V30 6121 C 559.207 -4.99894 -3.53231 0
M  V30 6122 N 558.344 -5.19826 -4.71938 0
M  V30 6123 H 563.184 -2.83691 -0.912338 0
M  V30 6124 H 560.721 -1.40392 -0.439135 0
M  V30 6125 H 562.679 -2.46682 -3.36457 0
M  V30 6126 H 561.309 -1.42625 -2.89582 0
M  V30 6127 H 560.361 -3.45905 -1.58284 0
M  V30 6128 H 561.673 -4.44 -2.27299 0
M  V30 6129 H 560.827 -3.97601 -4.58256 0
M  V30 6130 H 559.566 -2.89546 -3.92446 0
M  V30 6131 H 558.571 -4.81662 -2.65107 0
M  V30 6132 H 559.796 -5.913 -3.33978 0
M  V30 6133 H 557.742 -4.32875 -4.92905 0
M  V30 6134 H 557.659 -6.02228 -4.57009 0
M  V30 6135 H 558.927 -5.42439 -5.59803 0
M  V30 6136 N 563.156 0.464375 -1.50603 0
M  V30 6137 C 564.402 1.21776 -1.62168 0
M  V30 6138 C 564.735 1.91476 -0.324154 0
M  V30 6139 O 564.01 1.8242 0.674782 0
M  V30 6140 C 564.293 2.25614 -2.80661 0
M  V30 6141 C 564.146 1.60175 -4.20314 0
M  V30 6142 C 565.465 3.26862 -2.94702 0
M  V30 6143 H 562.584 0.44137 -0.590222 0
M  V30 6144 H 565.226 0.510623 -1.8301 0
M  V30 6145 H 563.376 2.85923 -2.63021 0
M  V30 6146 H 565.048 1.03411 -4.4956 0
M  V30 6147 H 563.291 0.904697 -4.24261 0
M  V30 6148 H 563.962 2.35665 -4.99165 0
M  V30 6149 H 566.438 2.76582 -3.10872 0
M  V30 6150 H 565.314 3.96839 -3.79223 0
M  V30 6151 H 565.575 3.91382 -2.05603 0
M  V30 6152 N 564.634 1.40294 0.718013 0
M  V30 6153 C 565.582 1.40536 1.85344 0
M  V30 6154 C 566.576 0.286192 1.66965 0
M  V30 6155 O 567.782 0.457105 1.74099 0
M  V30 6156 H 564.157 0.439236 0.61039 0
M  V30 6157 H 566.128 2.36275 1.82255 0
M  V30 6158 C 564.877 1.28245 3.23185 0
M  V30 6159 H 564.2 2.1364 3.37932 0
M  V30 6160 H 565.64 1.32474 4.02774 0
M  V30 6161 C 564.099 -0.0075503 3.36899 0
M  V30 6162 O 564.629 -0.971391 3.89778 0
M  V30 6163 N 562.835 -0.0762479 2.905 0
M  V30 6164 H 562.382 0.708819 2.47656 0
M  V30 6165 H 562.34 -0.938846 3.00055 0
M  V30 6166 N 566.112 -0.949982 1.2575 0
M  V30 6167 C 567.342 -1.72721 1.13363 0
M  V30 6168 C 567.75 -1.86562 -0.314842 0
M  V30 6169 O 567.093 -1.36621 -1.22803 0
M  V30 6170 C 567.155 -3.15695 1.7198 0
M  V30 6171 C 566.819 -3.25268 3.21014 0
M  V30 6172 C 567.816 -3.09222 4.17945 0
M  V30 6173 C 565.501 -3.4894 3.61312 0
M  V30 6174 C 567.495 -3.16701 5.53154 0
M  V30 6175 C 565.182 -3.56055 4.96657 0
M  V30 6176 C 566.18 -3.3995 5.92387 0
M  V30 6177 O 565.868 -3.46757 7.25269 0
M  V30 6178 H 565.6 -0.547888 0.395973 0
M  V30 6179 H 568.154 -1.20009 1.66694 0
M  V30 6180 H 566.384 -3.69791 1.13101 0
M  V30 6181 H 568.073 -3.75295 1.54624 0
M  V30 6182 H 568.839 -2.90798 3.88151 0
M  V30 6183 H 564.718 -3.60534 2.87291 0
M  V30 6184 H 568.262 -3.04048 6.27854 0
M  V30 6185 H 564.159 -3.73997 5.26115 0
M  V30 6186 H 564.927 -3.63358 7.33426 0
M  V30 6187 N 567.59 -1.07411 -1.15328 0
M  V30 6188 C 568.818 -0.818782 -1.90009 0
M  V30 6189 C 569.233 0.628072 -1.78047 0
M  V30 6190 O 568.59 1.43085 -1.13282 0
M  V30 6191 C 568.641 -1.21874 -3.40337 0
M  V30 6192 O 568.362 -2.60883 -3.51954 0
M  V30 6193 C 569.863 -0.992796 -4.3204 0
M  V30 6194 H 567.083 -0.296007 -0.60218 0
M  V30 6195 H 569.627 -1.43073 -1.46117 0
M  V30 6196 H 567.782 -0.651103 -3.81889 0
M  V30 6197 H 568.196 -2.77216 -4.45255 0
M  V30 6198 H 569.67 -1.32215 -5.35932 0
M  V30 6199 H 570.147 0.0708331 -4.39143 0
M  V30 6200 H 570.753 -1.54537 -3.9623 0
M  V30 6201 N 569.068 1.32177 -0.85831 0
M  V30 6202 C 570.317 1.96392 -0.459689 0
M  V30 6203 C 570.63 1.68659 0.990632 0
M  V30 6204 O 571.836 2.26641 1.49485 0
M  V30 6205 C 570.292 3.51542 -0.7711 0
M  V30 6206 C 569.9 3.8813 -2.2374 0
M  V30 6207 C 571.644 4.2221 -0.44038 0
M  V30 6208 C 569.551 5.36341 -2.49183 0
M  V30 6209 H 568.481 0.735007 -0.168169 0
M  V30 6210 H 571.132 1.50518 -1.0496 0
M  V30 6211 H 569.514 3.95846 -0.11058 0
M  V30 6212 H 570.688 3.54824 -2.94001 0
M  V30 6213 H 569.003 3.30497 -2.533 0
M  V30 6214 H 571.6 5.31234 -0.607855 0
M  V30 6215 H 571.943 4.11683 0.618291 0
M  V30 6216 H 572.476 3.83502 -1.05695 0
M  V30 6217 H 569.215 5.51892 -3.53689 0
M  V30 6218 H 568.735 5.7104 -1.83504 0
M  V30 6219 H 570.414 6.03466 -2.33318 0
M  V30 6220 N 570.547 0.616602 1.45037 0
M  V30 6221 C 571.777 0.121791 2.06241 0
M  V30 6222 C 572.185 -1.20289 1.46038 0
M  V30 6223 O 571.528 -1.7456 0.572242 0
M  V30 6224 C 571.59 -0.0827345 3.59405 0
M  V30 6225 C 571.254 1.16153 4.41993 0
M  V30 6226 C 572.251 2.08183 4.76399 0
M  V30 6227 C 569.936 1.39288 4.82601 0
M  V30 6228 C 571.93 3.21668 5.5028 0
M  V30 6229 C 569.617 2.53073 5.56235 0
M  V30 6230 C 570.615 3.44091 5.89992 0
M  V30 6231 O 570.303 4.55894 6.6213 0
M  V30 6232 H 570.035 0.0701667 0.672349 0
M  V30 6233 H 572.589 0.846877 1.87129 0
M  V30 6234 H 570.819 -0.862812 3.76952 0
M  V30 6235 H 572.508 -0.530273 4.02421 0
M  V30 6236 H 573.274 1.91538 4.45576 0
M  V30 6237 H 569.153 0.693396 4.55755 0
M  V30 6238 H 572.697 3.92733 5.76547 0
M  V30 6239 H 568.594 2.69667 5.86472 0
M  V30 6240 H 569.362 4.5469 6.80587 0
M  V30 6241 N 572.025 -1.5352 0.356285 0
M  V30 6242 C 573.302 -1.93405 -0.292223 0
M  V30 6243 C 573.682 -1.28901 -1.67176 0
M  V30 6244 O 573.03 -0.444632 -2.24132 0
M  V30 6245 C 573.24 -3.47223 -0.35175 0
M  V30 6246 C 574.588 -4.20389 -0.596534 0
M  V30 6247 O 575.612 -3.53554 -0.433344 0
M  V30 6248 O 574.471 -5.3881 -0.913589 0
M  V30 6249 H 571.565 -0.808666 -0.173172 0
M  V30 6250 H 574.111 -1.64713 0.408391 0
M  V30 6251 H 572.883 -3.86423 0.615841 0
M  V30 6252 H 572.506 -3.8212 -1.09864 0
M  V30 6253 N 573.503 -0.0852151 -1.57369 0
M  V30 6254 C 574.751 0.579658 -1.93609 0
M  V30 6255 C 575.072 1.69332 -0.967043 0
M  V30 6256 O 574.342 1.95892 -0.0174215 0
M  V30 6257 H 572.922 0.217113 -0.714752 0
M  V30 6258 H 575.584 -0.146226 -1.94351 0
M  V30 6259 H 574.68 0.996276 -2.95771 0
M  V30 6260 N 574.981 1.5647 0.188427 0
M  V30 6261 C 576.228 1.81013 0.907779 0
M  V30 6262 C 576.556 0.65953 1.82977 0
M  V30 6263 O 575.811 -0.354308 1.92466 0
M  V30 6264 C 576.11 3.11596 1.7505 0
M  V30 6265 C 575.776 4.40145 0.978922 0
M  V30 6266 C 574.438 4.75066 0.765912 0
M  V30 6267 C 576.79 5.19369 0.436498 0
M  V30 6268 C 574.118 5.867 -0.00089868 0
M  V30 6269 C 576.47 6.31805 -0.317136 0
M  V30 6270 C 575.134 6.65303 -0.541103 0
M  V30 6271 H 574.404 0.662373 0.33218 0
M  V30 6272 H 577.051 1.9071 0.173732 0
M  V30 6273 H 575.356 2.97165 2.55343 0
M  V30 6274 H 577.053 3.27793 2.30983 0
M  V30 6275 H 573.643 4.12745 1.15497 0
M  V30 6276 H 577.827 4.92799 0.588449 0
M  V30 6277 H 573.083 6.11122 -0.184329 0
M  V30 6278 H 577.257 6.92406 -0.744788 0
M  V30 6279 H 574.884 7.51646 -1.13718 0
M  V30 6280 N 576.459 -0.456382 1.50847 0
M  V30 6281 C 577.407 -1.57318 1.71329 0
M  V30 6282 C 578.401 -1.59187 0.579287 0
M  V30 6283 O 579.607 -1.6316 0.76018 0
M  V30 6284 H 575.982 -0.5223 0.541024 0
M  V30 6285 H 577.953 -1.3721 2.64983 0
M  V30 6286 C 576.702 -2.95142 1.83811 0
M  V30 6287 H 576.025 -2.94428 2.70467 0
M  V30 6288 H 577.465 -3.72702 2.02161 0
M  V30 6289 C 575.924 -3.31636 0.593224 0
M  V30 6290 O 576.454 -4.00852 -0.260898 0
M  V30 6291 N 574.66 -2.87205 0.442902 0
M  V30 6292 H 574.207 -2.31051 1.13901 0
M  V30 6293 H 574.165 -3.11986 -0.38884 0
M  V30 6294 N 577.937 -1.40673 -0.710563 0
M  V30 6295 C 578.867 -1.44095 -1.83736 0
M  V30 6296 C 579.848 -0.301286 -1.67411 0
M  V30 6297 O 581.033 -0.510618 -1.87367 0
M  V30 6298 C 578.163 -1.30773 -3.21738 0
M  V30 6299 C 577.117 -2.42395 -3.52745 0
M  V30 6300 C 576.443 -2.14147 -4.89944 0
M  V30 6301 C 577.743 -3.84738 -3.53234 0
M  V30 6302 H 579.437 -2.38396 -1.81129 0
M  V30 6303 H 576.983 -1.14746 -0.870017 0
M  V30 6304 H 578.936 -1.31783 -4.00264 0
M  V30 6305 H 577.66 -0.329507 -3.24934 0
M  V30 6306 H 576.319 -2.40643 -2.76562 0
M  V30 6307 H 575.967 -1.14703 -4.89747 0
M  V30 6308 H 575.667 -2.88934 -5.11655 0
M  V30 6309 H 577.191 -2.16848 -5.70797 0
M  V30 6310 H 578.605 -3.88286 -4.2179 0
M  V30 6311 H 577.002 -4.59085 -3.86473 0
M  V30 6312 H 578.072 -4.13962 -2.52514 0
M  V30 6313 N 579.415 0.9433 -1.26252 0
M  V30 6314 C 580.831 1.21644 -1.03319 0
M  V30 6315 C 581.031 2.0003 0.242983 0
M  V30 6316 O 580.087 2.33838 0.952688 0
M  V30 6317 C 581.4 1.97978 -2.2633 0
M  V30 6318 C 582.948 2.10978 -2.31209 0
M  V30 6319 C 583.423 2.90713 -3.53907 0
M  V30 6320 N 584.914 2.98287 -3.54371 0
M  V30 6321 C 585.649 3.60406 -4.45976 0
M  V30 6322 N 585.145 4.24043 -5.47868 0
M  V30 6323 N 586.938 3.57658 -4.33633 0
M  V30 6324 H 579.089 0.419221 -2.08222 0
M  V30 6325 H 581.352 0.247995 -0.914988 0
M  V30 6326 H 581.058 1.47788 -3.19142 0
M  V30 6327 H 580.932 2.9865 -2.30408 0
M  V30 6328 H 583.319 2.6036 -1.38913 0
M  V30 6329 H 583.4 1.09575 -2.31143 0
M  V30 6330 H 583.044 2.42018 -4.46531 0
M  V30 6331 H 582.974 3.92367 -3.5122 0
M  V30 6332 H 585.465 2.53044 -2.80673 0
M  V30 6333 H 585.778 4.69334 -6.13959 0
M  V30 6334 H 584.123 4.22637 -5.51728 0
M  V30 6335 H 587.314 3.07134 -3.53251 0
M  V30 6336 H 587.487 4.05782 -5.05218 0
M  V30 6337 N 580.893 1.08022 1.14757 0
M  V30 6338 C 581.841 0.701088 2.21783 0
M  V30 6339 C 582.835 -0.291311 1.66876 0
M  V30 6340 O 584.041 -0.154296 1.79337 0
M  V30 6341 H 580.416 0.208668 0.722469 0
M  V30 6342 H 582.387 1.61321 2.51034 0
M  V30 6343 C 581.136 0.122278 3.47485 0
M  V30 6344 H 580.459 0.877065 3.90061 0
M  V30 6345 H 581.899 -0.105248 4.23869 0
M  V30 6346 C 580.358 -1.13883 3.17068 0
M  V30 6347 O 580.888 -2.22429 3.34497 0
M  V30 6348 N 579.094 -1.04767 2.71058 0
M  V30 6349 H 578.641 -0.164302 2.57075 0
M  V30 6350 H 578.599 -1.89224 2.51081 0
M  V30 6351 N 582.371 -1.3172 0.865308 0
M  V30 6352 C 583.599 -2.01057 0.488251 0
M  V30 6353 C 584.014 -1.64979 -0.918 0
M  V30 6354 O 583.371 -0.876597 -1.60069 0
M  V30 6355 C 583.422 -3.55964 0.630224 0
M  V30 6356 O 583.143 -3.90749 1.98109 0
M  V30 6357 C 584.644 -4.42574 0.253567 0
M  V30 6358 H 581.864 -0.64332 0.190736 0
M  V30 6359 H 584.408 -1.68058 1.16519 0
M  V30 6360 H 582.563 -3.874 0.000895422 0
M  V30 6361 H 582.977 -4.85467 1.9855 0
M  V30 6362 H 584.451 -5.50521 0.403875 0
M  V30 6363 H 584.928 -4.31724 -0.806895 0
M  V30 6364 H 585.534 -4.16547 0.858404 0
M  V30 6365 N 583.85 -0.624285 -1.44708 0
M  V30 6366 C 584.798 0.0969952 -2.32398 0
M  V30 6367 C 585.792 0.842762 -1.46949 0
M  V30 6368 O 586.998 0.756436 -1.63334 0
M  V30 6369 H 583.373 0.0501306 -0.750327 0
M  V30 6370 H 585.344 -0.660767 -2.90992 0
M  V30 6371 C 584.093 1.06967 -3.30837 0
M  V30 6372 H 583.416 0.505242 -3.96595 0
M  V30 6373 H 584.856 1.54397 -3.94889 0
M  V30 6374 C 583.315 2.15153 -2.5925 0
M  V30 6375 O 583.845 3.23139 -2.3863 0
M  V30 6376 N 582.051 1.90898 -2.19103 0
M  V30 6377 H 581.598 1.03086 -2.36074 0
M  V30 6378 H 581.556 2.63485 -1.71531 0
M  V30 6379 N 585.328 1.53329 -0.364422 0
M  V30 6380 C 586.258 2.28627 0.474543 0
M  V30 6381 C 587.239 1.31009 1.08492 0
M  V30 6382 O 588.424 1.59878 1.10239 0
M  V30 6383 C 585.554 3.07465 1.61501 0
M  V30 6384 C 584.508 4.1276 1.13194 0
M  V30 6385 C 583.834 4.79674 2.36255 0
M  V30 6386 C 585.134 5.21847 0.217507 0
M  V30 6387 H 586.828 2.99005 -0.153656 0
M  V30 6388 H 584.374 1.43803 -0.0753406 0
M  V30 6389 H 586.327 3.58889 2.20855 0
M  V30 6390 H 585.051 2.34775 2.27042 0
M  V30 6391 H 583.71 3.62281 0.56109 0
M  V30 6392 H 583.358 4.03557 3.00251 0
M  V30 6393 H 583.058 5.50827 2.04606 0
M  V30 6394 H 584.582 5.33892 2.96297 0
M  V30 6395 H 585.996 5.6878 0.718493 0
M  V30 6396 H 584.393 6.00099 -0.00806408 0
M  V30 6397 H 585.463 4.7921 -0.740653 0
M  V30 6398 N 586.806 0.0935595 1.57322 0
M  V30 6399 C 587.769 -0.851426 2.12799 0
M  V30 6400 C 588.769 -1.21187 1.0569 0
M  V30 6401 O 589.959 -1.14156 1.31583 0
M  V30 6402 C 587.091 -2.14779 2.64731 0
M  V30 6403 H 588.284 -0.369733 2.97612 0
M  V30 6404 H 585.837 -0.155417 1.55525 0
M  V30 6405 H 586.572 -2.67437 1.83434 0
M  V30 6406 H 586.357 -1.89907 3.43042 0
M  V30 6407 H 587.847 -2.82383 3.07651 0
M  V30 6408 N 588.284 -1.56567 -0.180126 0
M  V30 6409 C 589.247 -1.94852 -1.20686 0
M  V30 6410 C 590.247 -0.831212 -1.3765 0
M  V30 6411 O 591.437 -1.09841 -1.35206 0
M  V30 6412 C 588.569 -2.23565 -2.57355 0
M  V30 6413 H 589.762 -2.86722 -0.879225 0
M  V30 6414 H 587.315 -1.50489 -0.422237 0
M  V30 6415 H 588.05 -1.34381 -2.95148 0
M  V30 6416 H 587.835 -3.04999 -2.46411 0
M  V30 6417 H 589.325 -2.54137 -3.31367 0
M  V30 6418 N 589.762 0.448376 -1.51087 0
M  V30 6419 C 590.71 1.56407 -1.72161 0
M  V30 6420 C 591.704 1.58878 -0.587721 0
M  V30 6421 O 592.91 1.62755 -0.768822 0
M  V30 6422 H 589.285 0.519423 -0.543786 0
M  V30 6423 H 591.256 1.35803 -2.65707 0
M  V30 6424 C 590.005 2.94163 -1.85373 0
M  V30 6425 H 589.328 2.9299 -2.72024 0
M  V30 6426 H 590.768 3.71625 -2.04135 0
M  V30 6427 C 589.227 3.31317 -0.610803 0
M  V30 6428 O 589.757 4.00985 0.239636 0
M  V30 6429 N 587.963 2.86966 -0.458127 0
M  V30 6430 H 587.51 2.30443 -1.15124 0
M  V30 6431 H 587.468 3.12188 0.372289 0
M  V30 6432 N 591.24 1.41047 0.703093 0
M  V30 6433 C 592.487 1.4 1.46309 0
M  V30 6434 C 592.815 0.00654574 1.94499 0
M  V30 6435 O 592.07 -0.980255 1.6938 0
M  V30 6436 C 592.369 2.34686 2.6955 0
M  V30 6437 C 592.035 3.81684 2.40058 0
M  V30 6438 C 590.697 4.21731 2.31725 0
M  V30 6439 C 593.049 4.74525 2.15581 0
M  V30 6440 C 590.377 5.52637 1.97001 0
M  V30 6441 C 592.729 6.05744 1.82366 0
M  V30 6442 C 591.393 6.44819 1.72524 0
M  V30 6443 H 590.663 0.512295 0.535382 0
M  V30 6444 H 593.31 1.73792 0.804275 0
M  V30 6445 H 591.615 1.94122 3.40329 0
M  V30 6446 H 593.312 2.31152 3.27673 0
M  V30 6447 H 589.902 3.49963 2.47435 0
M  V30 6448 H 594.086 4.44395 2.20968 0
M  V30 6449 H 589.342 5.81802 1.87928 0
M  V30 6450 H 593.516 6.77189 1.62444 0
M  V30 6451 H 591.143 7.46168 1.45385 0
M  V30 6452 N 592.718 -0.936591 1.26751 0
M  V30 6453 C 593.666 -2.0573 1.08527 0
M  V30 6454 C 594.66 -1.69397 0.0108784 0
M  V30 6455 O 595.866 -1.79215 0.167915 0
M  V30 6456 H 592.241 -0.673691 0.334133 0
M  V30 6457 H 594.212 -2.1825 2.03493 0
M  V30 6458 C 592.961 -3.39738 0.739845 0
M  V30 6459 H 592.284 -3.68174 1.55845 0
M  V30 6460 H 593.724 -4.18955 0.652149 0
M  V30 6461 C 592.183 -3.32292 -0.555288 0
M  V30 6462 O 592.713 -3.68794 -1.59229 0
M  V30 6463 N 590.919 -2.85394 -0.54762 0
M  V30 6464 H 590.466 -2.55886 0.296667 0
M  V30 6465 H 590.424 -2.80795 -1.41427 0
M  V30 6466 N 594.196 -1.08629 -1.14182 0
M  V30 6467 C 595.444 -0.815731 -1.84906 0
M  V30 6468 C 595.765 0.660441 -1.83475 0
M  V30 6469 O 595.035 1.47888 -1.28476 0
M  V30 6470 H 593.615 -0.298773 -0.684648 0
M  V30 6471 H 596.277 -1.37274 -1.38354 0
M  V30 6472 H 595.373 -1.16193 -2.89665 0
M  V30 6473 N 595.674 1.31259 -0.872281 0
M  V30 6474 C 596.606 2.27396 -0.28697 0
M  V30 6475 C 597.619 1.53181 0.551297 0
M  V30 6476 O 598.808 1.74561 0.372914 0
M  V30 6477 C 595.908 3.33335 0.611617 0
M  V30 6478 C 595.081 4.36966 -0.194729 0
M  V30 6479 C 594.14 5.22387 0.632358 0
M  V30 6480 O 593.166 5.69169 0.0595691 0
M  V30 6481 N 594.368 5.46985 1.94391 0
M  V30 6482 H 597.133 2.78261 -1.11314 0
M  V30 6483 H 594.694 1.44306 -0.733994 0
M  V30 6484 H 596.686 3.87398 1.17068 0
M  V30 6485 H 595.256 2.82496 1.33846 0
M  V30 6486 H 594.476 3.82945 -0.935241 0
M  V30 6487 H 595.764 5.03273 -0.747935 0
M  V30 6488 H 595.162 5.10737 2.43237 0
M  V30 6489 H 593.719 6.03973 2.45071 0
M  V30 6490 N 597.152 0.631951 1.44375 0
M  V30 6491 C 598.1 -0.0846693 2.32446 0
M  V30 6492 C 599.094 -0.834957 1.47393 0
M  V30 6493 O 600.3 -0.747764 1.63733 0
M  V30 6494 H 596.675 -0.0461508 0.750583 0
M  V30 6495 H 598.646 0.67619 2.90638 0
M  V30 6496 C 597.395 -1.05211 3.314 0
M  V30 6497 H 596.718 -0.484203 3.96857 0
M  V30 6498 H 598.158 -1.523 3.95703 0
M  V30 6499 C 596.617 -2.13776 2.60387 0
M  V30 6500 O 597.147 -3.21869 2.4034 0
M  V30 6501 N 595.353 -1.89733 2.20113 0
M  V30 6502 H 594.9 -1.01833 2.36618 0
M  V30 6503 H 594.858 -2.62572 1.72926 0
M  V30 6504 N 598.631 -1.53133 0.372548 0
M  V30 6505 C 599.859 -2.05774 -0.215515 0
M  V30 6506 C 600.274 -1.24555 -1.41886 0
M  V30 6507 O 599.631 -0.287951 -1.80214 0
M  V30 6508 C 599.682 -3.5645 -0.602161 0
M  V30 6509 O 599.403 -4.34591 0.553359 0
M  V30 6510 C 600.904 -4.25374 -1.24787 0
M  V30 6511 H 598.124 -0.670009 -0.0364529 0
M  V30 6512 H 600.668 -1.97434 0.532934 0
M  V30 6513 H 598.823 -3.64918 -1.30052 0
M  V30 6514 H 599.237 -5.23954 0.239336 0
M  V30 6515 H 600.711 -5.32097 -1.46891 0
M  V30 6516 H 601.188 -3.79531 -2.21026 0
M  V30 6517 H 601.794 -4.21177 -0.590752 0
M  V30 6518 N 600.109 -0.101901 -1.5727 0
M  V30 6519 C 601.019 0.868647 -2.17926 0
M  V30 6520 C 602.035 1.30527 -1.1506 0
M  V30 6521 O 603.211 1.37178 -1.47459 0
M  V30 6522 C 600.276 2.10727 -2.75309 0
M  V30 6523 C 599.337 1.7242 -3.93154 0
M  V30 6524 C 598.57 2.90377 -4.47791 0
M  V30 6525 O 598.793 4.05305 -4.01353 0
M  V30 6526 O 597.727 2.6845 -5.38719 0
M  V30 6527 H 601.553 0.382544 -3.01281 0
M  V30 6528 H 599.138 0.122812 -1.48894 0
M  V30 6529 H 601.02 2.83303 -3.11958 0
M  V30 6530 H 599.695 2.58376 -1.94996 0
M  V30 6531 H 598.602 0.970039 -3.61305 0
M  V30 6532 H 599.935 1.29528 -4.74851 0
M  V30 6533 N 601.587 1.56661 0.17182 0
M  V30 6534 C 602.836 1.81158 0.886831 0
M  V30 6535 C 603.149 0.679072 1.83434 0
M  V30 6536 O 604.355 0.808964 2.59168 0
M  V30 6537 C 602.811 3.20999 1.6275 0
M  V30 6538 C 602.419 4.42117 0.723652 0
M  V30 6539 C 604.163 3.5479 2.33076 0
M  V30 6540 C 602.07 5.7298 1.46452 0
M  V30 6541 H 601 0.675543 0.334899 0
M  V30 6542 H 603.651 1.82967 0.139765 0
M  V30 6543 H 602.033 3.13506 2.4193 0
M  V30 6544 H 603.207 4.60789 -0.0311485 0
M  V30 6545 H 601.522 4.16197 0.130063 0
M  V30 6546 H 604.119 4.49806 2.89099 0
M  V30 6547 H 604.462 2.79646 3.08389 0
M  V30 6548 H 604.995 3.63834 1.6084 0
M  V30 6549 H 601.734 6.51152 0.753729 0
M  V30 6550 H 601.254 5.58285 2.19266 0
M  V30 6551 H 602.933 6.14916 2.01214 0
M  V30 6552 N 603.065 -0.440357 1.51323 0
M  V30 6553 C 604.013 -1.55492 1.72988 0
M  V30 6554 C 605.007 -1.58564 0.596138 0
M  V30 6555 O 606.213 -1.62345 0.777443 0
M  V30 6556 H 602.588 -0.516532 0.546533 0
M  V30 6557 H 604.559 -1.34392 2.66423 0
M  V30 6558 C 603.308 -2.93176 1.86931 0
M  V30 6559 H 602.631 -2.91543 2.73574 0
M  V30 6560 H 604.071 -3.70537 2.06103 0
M  V30 6561 C 602.53 -3.30988 0.628365 0
M  V30 6562 O 603.06 -4.01106 -0.218367 0
M  V30 6563 N 601.266 -2.86719 0.473339 0
M  V30 6564 H 600.813 -2.2983 1.16345 0
M  V30 6565 H 600.771 -3.12381 -0.355727 0
M  V30 6566 N 604.543 -1.41418 -0.695603 0
M  V30 6567 C 605.491 -1.43467 -1.83084 0
M  V30 6568 C 606.485 -0.312719 -1.66489 0
M  V30 6569 O 607.691 -0.484744 -1.7335 0
M  V30 6570 H 604.066 -0.448891 -0.603325 0
M  V30 6571 H 606.037 -2.39144 -1.78473 0
M  V30 6572 C 604.786 -1.3337 -3.21104 0
M  V30 6573 H 604.109 -2.18989 -3.3449 0
M  V30 6574 H 605.549 -1.38865 -4.00615 0
M  V30 6575 C 604.008 -0.0460484 -3.36869 0
M  V30 6576 O 604.538 0.909258 -3.91274 0
M  V30 6577 N 602.744 0.0300222 -2.90584 0
M  V30 6578 H 602.291 -0.748129 -2.46497 0
M  V30 6579 H 602.249 0.890991 -3.01511 0
M  V30 6580 N 606.021 0.929856 -1.27246 0
M  V30 6581 C 606.954 2.03069 -1.04106 0
M  V30 6582 C 607.932 1.62556 0.0378417 0
M  V30 6583 O 609.116 1.88197 -0.106869 0
M  V30 6584 C 606.243 3.33718 -0.578778 0
M  V30 6585 C 605.289 3.93209 -1.65193 0
M  V30 6586 S 606.122 4.26068 -3.24386 0
M  V30 6587 C 607.278 5.598 -2.79954 0
M  V30 6588 H 607.511 2.22386 -1.97311 0
M  V30 6589 H 605.044 1.07269 -1.11053 0
M  V30 6590 H 607.002 4.09261 -0.31874 0
M  V30 6591 H 605.663 3.12328 0.333182 0
M  V30 6592 H 604.856 4.87482 -1.27973 0
M  V30 6593 H 604.458 3.24243 -1.86393 0
M  V30 6594 H 606.75 6.39004 -2.25123 0
M  V30 6595 H 607.693 6.01917 -3.72963 0
M  V30 6596 H 608.101 5.20219 -2.19164 0
M  V30 6597 N 607.499 1.09233 1.13605 0
M  V30 6598 C 608.447 0.724572 2.21027 0
M  V30 6599 C 609.441 -0.273595 1.67176 0
M  V30 6600 O 610.647 -0.135266 1.79491 0
M  V30 6601 H 607.022 0.216319 0.720215 0
M  V30 6602 H 608.993 1.63975 2.49309 0
M  V30 6603 C 607.742 0.159126 3.47336 0
M  V30 6604 H 607.065 0.918387 3.89109 0
M  V30 6605 H 608.505 -0.0602851 4.23957 0
M  V30 6606 C 606.964 -1.10514 3.18258 0
M  V30 6607 O 607.494 -2.18869 3.36837 0
M  V30 6608 N 605.7 -1.01886 2.72154 0
M  V30 6609 H 605.247 -0.137027 2.57235 0
M  V30 6610 H 605.205 -1.8655 2.53074 0
M  V30 6611 N 608.977 -1.30795 0.87923 0
M  V30 6612 C 610.224 -1.96362 0.494786 0
M  V30 6613 C 610.552 -1.69448 -0.954868 0
M  V30 6614 O 609.807 -0.988711 -1.68888 0
M  V30 6615 C 610.106 -3.50287 0.709476 0
M  V30 6616 C 609.772 -3.9724 2.13333 0
M  V30 6617 C 608.434 -4.09772 2.52271 0
M  V30 6618 C 610.786 -4.21807 3.06151 0
M  V30 6619 C 608.114 -4.44227 3.83248 0
M  V30 6620 C 610.466 -4.5773 4.36654 0
M  V30 6621 C 609.13 -4.68469 4.75492 0
M  V30 6622 H 608.4 -0.71854 0.181055 0
M  V30 6623 H 611.047 -1.55764 1.11399 0
M  V30 6624 H 609.352 -3.91799 0.0072 0
M  V30 6625 H 611.049 -3.99082 0.391703 0
M  V30 6626 H 607.639 -3.87988 1.82107 0
M  V30 6627 H 611.823 -4.11611 2.77291 0
M  V30 6628 H 607.079 -4.50741 4.13089 0
M  V30 6629 H 611.253 -4.7569 5.08617 0
M  V30 6630 H 608.88 -4.94923 5.77022 0
M  V30 6631 N 610.455 -0.639598 -1.44038 0
M  V30 6632 C 611.683 -0.154811 -2.0632 0
M  V30 6633 C 612.098 1.17406 -1.47856 0
M  V30 6634 O 611.455 1.72193 -0.604638 0
M  V30 6635 C 611.506 -0.0429958 -3.61474 0
M  V30 6636 O 611.227 -1.31932 -4.17763 0
M  V30 6637 C 612.728 0.469486 -4.40807 0
M  V30 6638 H 609.948 -0.0835862 -0.665773 0
M  V30 6639 H 612.492 -0.876397 -1.84769 0
M  V30 6640 H 610.647 0.629075 -3.82258 0
M  V30 6641 H 611.061 -1.16965 -5.11292 0
M  V30 6642 H 612.535 0.496712 -5.49761 0
M  V30 6643 H 613.012 1.49819 -4.12857 0
M  V30 6644 H 613.618 -0.169624 -4.24962 0
M  V30 6645 N 611.933 1.52934 -0.380664 0
M  V30 6646 C 612.88 2.26197 0.458641 0
M  V30 6647 C 613.85 1.27462 1.06502 0
M  V30 6648 O 615.035 1.56274 1.09467 0
M  V30 6649 C 612.175 3.06571 1.58456 0
M  V30 6650 C 611.288 4.20222 1.00189 0
M  V30 6651 C 610.423 4.88007 2.09815 0
M  V30 6652 C 609.462 5.93665 1.49092 0
M  V30 6653 N 608.599 6.55081 2.52613 0
M  V30 6654 H 613.439 2.975 -0.172595 0
M  V30 6655 H 610.976 1.4678 -0.0969426 0
M  V30 6656 H 612.934 3.51455 2.24801 0
M  V30 6657 H 611.564 2.37494 2.18624 0
M  V30 6658 H 610.616 3.79714 0.228292 0
M  V30 6659 H 611.928 4.96102 0.518064 0
M  V30 6660 H 611.082 5.36151 2.83948 0
M  V30 6661 H 609.821 4.11632 2.61555 0
M  V30 6662 H 608.826 5.44868 0.7348 0
M  V30 6663 H 610.051 6.71969 0.981582 0
M  V30 6664 H 607.997 5.8155 3.03538 0
M  V30 6665 H 607.914 7.26548 2.08961 0
M  V30 6666 H 609.182 7.07871 3.26402 0
M  V30 6667 N 613.412 0.11024 1.57214 0
M  V30 6668 C 614.342 -0.840002 2.17867 0
M  V30 6669 C 615.323 -1.28352 1.11624 0
M  V30 6670 O 616.508 -1.3477 1.39824 0
M  V30 6671 C 613.638 -2.09349 2.77111 0
M  V30 6672 C 612.592 -1.78807 3.8886 0
M  V30 6673 C 611.918 -3.11112 4.34872 0
M  V30 6674 C 613.218 -1.0632 5.11364 0
M  V30 6675 H 614.912 -0.334608 2.97524 0
M  V30 6676 H 612.458 -0.159502 1.43114 0
M  V30 6677 H 614.411 -2.76275 3.18198 0
M  V30 6678 H 613.135 -2.62198 1.9473 0
M  V30 6679 H 611.794 -1.14273 3.48335 0
M  V30 6680 H 611.442 -3.61877 3.49362 0
M  V30 6681 H 611.142 -2.91453 5.10224 0
M  V30 6682 H 612.666 -3.79171 4.78604 0
M  V30 6683 H 614.08 -1.63383 5.49526 0
M  V30 6684 H 612.477 -0.967876 5.92243 0
M  V30 6685 H 613.547 -0.0484569 4.84876 0
M  V30 6686 N 614.89 -1.56749 -0.16351 0
M  V30 6687 C 615.837 -1.97011 -1.2023 0
M  V30 6688 C 616.807 -0.835186 -1.43575 0
M  V30 6689 O 617.992 -1.09594 -1.56185 0
M  V30 6690 C 615.132 -2.34186 -2.53478 0
M  V30 6691 C 614.245 -3.60893 -2.37446 0
M  V30 6692 C 613.38 -3.87245 -3.63614 0
M  V30 6693 C 612.419 -5.07274 -3.42548 0
M  V30 6694 N 611.556 -5.29719 -4.60806 0
M  V30 6695 H 616.396 -2.85562 -0.851958 0
M  V30 6696 H 613.933 -1.41292 -0.409257 0
M  V30 6697 H 615.891 -2.53764 -3.31149 0
M  V30 6698 H 614.521 -1.48736 -2.86492 0
M  V30 6699 H 613.573 -3.49185 -1.50911 0
M  V30 6700 H 614.885 -4.48722 -2.1783 0
M  V30 6701 H 614.039 -4.07232 -4.49719 0
M  V30 6702 H 612.778 -2.97806 -3.86216 0
M  V30 6703 H 611.783 -4.87177 -2.5483 0
M  V30 6704 H 613.008 -5.98251 -3.2136 0
M  V30 6705 H 610.954 -4.43233 -4.83612 0
M  V30 6706 H 610.871 -6.11786 -4.44132 0
M  V30 6707 H 612.139 -5.54192 -5.48171 0
M  V30 6708 N 616.368 0.432326 -1.51554 0
M  V30 6709 C 617.316 1.54572 -1.73811 0
M  V30 6710 C 618.31 1.58246 -0.604539 0
M  V30 6711 O 619.516 1.6193 -0.786041 0
M  V30 6712 H 615.891 0.513626 -0.549265 0
M  V30 6713 H 617.862 1.32977 -2.67132 0
M  V30 6714 C 616.611 2.92181 -1.88483 0
M  V30 6715 H 615.934 2.90088 -2.75116 0
M  V30 6716 H 617.374 3.69439 -2.08065 0
M  V30 6717 C 615.833 3.3065 -0.645909 0
M  V30 6718 O 616.363 4.01216 0.197093 0
M  V30 6719 N 614.569 2.86464 -0.488538 0
M  V30 6720 H 614.116 2.29209 -1.17562 0
M  V30 6721 H 614.074 3.12565 0.339156 0
M  V30 6722 N 617.846 1.41785 0.688094 0
M  V30 6723 C 619.093 1.41544 1.44816 0
M  V30 6724 C 619.421 0.0271746 1.94481 0
M  V30 6725 O 618.676 -0.962235 1.7041 0
M  V30 6726 C 618.975 2.37532 2.67046 0
M  V30 6727 C 618.641 3.84209 2.35996 0
M  V30 6728 C 617.303 4.24165 2.27239 0
M  V30 6729 C 619.655 4.76785 2.10536 0
M  V30 6730 C 616.983 5.54695 1.91128 0
M  V30 6731 C 619.335 6.07644 1.75931 0
M  V30 6732 C 617.999 6.46613 1.65675 0
M  V30 6733 H 617.269 0.517945 0.529919 0
M  V30 6734 H 619.916 1.74635 0.785797 0
M  V30 6735 H 618.221 1.9772 3.38251 0
M  V30 6736 H 619.918 2.34615 3.25203 0
M  V30 6737 H 616.508 3.52567 2.4371 0
M  V30 6738 H 620.692 4.46714 2.16242 0
M  V30 6739 H 615.948 5.83762 1.81746 0
M  V30 6740 H 620.122 6.78874 1.55252 0
M  V30 6741 H 617.749 7.47668 1.37463 0
M  V30 6742 N 619.324 -0.923095 1.27737 0
M  V30 6743 C 620.552 -1.70525 1.17171 0
M  V30 6744 C 620.967 -1.86847 -0.270881 0
M  V30 6745 O 620.324 -1.38879 -1.18401 0
M  V30 6746 C 620.375 -3.10242 1.85559 0
M  V30 6747 O 620.096 -2.94683 3.24182 0
M  V30 6748 C 621.597 -4.04586 1.81176 0
M  V30 6749 H 618.817 -0.533347 0.407163 0
M  V30 6750 H 621.361 -1.15599 1.68692 0
M  V30 6751 H 619.516 -3.62014 1.3793 0
M  V30 6752 H 619.93 -3.83045 3.58297 0
M  V30 6753 H 621.404 -5.00119 2.33633 0
M  V30 6754 H 621.881 -4.3218 0.782099 0
M  V30 6755 H 622.487 -3.58741 2.2844 0
M  V30 6756 N 620.802 -1.09834 -1.13024 0
M  V30 6757 C 622.05 -0.835297 -1.8403 0
M  V30 6758 C 622.371 0.640944 -1.84165 0
M  V30 6759 O 621.641 1.46517 -1.30037 0
M  V30 6760 H 620.221 -0.306018 -0.681441 0
M  V30 6761 H 622.883 -1.38734 -1.36891 0
M  V30 6762 H 621.979 -1.19258 -2.88416 0
M  V30 6763 N 622.28 1.30327 -0.886154 0
M  V30 6764 C 623.21 2.30549 -0.370028 0
M  V30 6765 C 624.191 1.61039 0.547751 0
M  V30 6766 O 625.376 1.8864 0.461353 0
M  V30 6767 C 622.506 3.44808 0.415275 0
M  V30 6768 C 621.46 4.26024 -0.41085 0
M  V30 6769 C 620.786 5.32347 0.501128 0
M  V30 6770 C 622.086 4.95433 -1.65359 0
M  V30 6771 H 623.78 2.73969 -1.20754 0
M  V30 6772 H 621.326 1.3171 -0.582097 0
M  V30 6773 H 623.279 4.13986 0.78699 0
M  V30 6774 H 622.003 3.00197 1.28644 0
M  V30 6775 H 620.662 3.58535 -0.764719 0
M  V30 6776 H 620.31 4.83982 1.37004 0
M  V30 6777 H 620.01 5.87581 -0.0478356 0
M  V30 6778 H 621.534 6.0438 0.869333 0
M  V30 6779 H 622.948 5.5712 -1.35239 0
M  V30 6780 H 621.345 5.60537 -2.14284 0
M  V30 6781 H 622.415 4.21493 -2.39733 0
M  V30 6782 N 623.758 0.647228 1.43697 0
M  V30 6783 C 625.005 0.158188 2.01881 0
M  V30 6784 C 625.333 -1.22573 1.51017 0
M  V30 6785 O 624.588 -1.83086 0.69122 0
M  V30 6786 C 624.887 0.111481 3.57226 0
M  V30 6787 C 624.553 1.43633 4.27411 0
M  V30 6788 C 623.215 1.79915 4.463 0
M  V30 6789 C 625.567 2.31011 4.67208 0
M  V30 6790 C 622.895 3.03251 5.02251 0
M  V30 6791 C 625.247 3.53633 5.24525 0
M  V30 6792 C 623.911 3.90118 5.41631 0
M  V30 6793 H 623.181 0.0578851 0.738736 0
M  V30 6794 H 625.828 0.836746 1.72252 0
M  V30 6795 H 624.133 -0.650507 3.86362 0
M  V30 6796 H 625.83 -0.283682 3.99995 0
M  V30 6797 H 622.42 1.14403 4.1305 0
M  V30 6798 H 626.604 2.04272 4.52313 0
M  V30 6799 H 621.86 3.31575 5.13681 0
M  V30 6800 H 626.034 4.21561 5.5431 0
M  V30 6801 H 623.661 4.85768 5.84751 0
M  V30 6802 N 625.236 -1.5273 0.388769 0
M  V30 6803 C 626.146 -2.30165 -0.453993 0
M  V30 6804 C 627.162 -1.37058 -1.07197 0
M  V30 6805 O 628.338 -1.70127 -1.0779 0
M  V30 6806 C 625.403 -3.09303 -1.56628 0
M  V30 6807 C 624.464 -4.18117 -0.973467 0
M  V30 6808 C 623.697 -4.93472 -2.03275 0
M  V30 6809 O 623.92 -4.68913 -3.24772 0
M  V30 6810 O 622.854 -5.78833 -1.65034 0
M  V30 6811 H 626.68 -3.03185 0.176816 0
M  V30 6812 H 624.265 -1.4862 0.152501 0
M  V30 6813 H 626.147 -3.58648 -2.21246 0
M  V30 6814 H 624.822 -2.39098 -2.18206 0
M  V30 6815 H 623.729 -3.7297 -0.290556 0
M  V30 6816 H 625.062 -4.90556 -0.401908 0
M  V30 6817 N 626.714 -0.118576 -1.57153 0
M  V30 6818 C 627.961 0.539526 -1.9518 0
M  V30 6819 C 628.289 1.66714 -1.00184 0
M  V30 6820 O 627.544 1.95683 -0.0256482 0
M  V30 6821 C 627.843 1.11303 -3.39627 0
M  V30 6822 C 627.509 0.106809 -4.50773 0
M  V30 6823 C 626.171 -0.169876 -4.809 0
M  V30 6824 C 628.523 -0.57895 -5.17975 0
M  V30 6825 C 625.851 -1.13861 -5.75545 0
M  V30 6826 C 628.203 -1.53631 -6.13661 0
M  V30 6827 C 626.867 -1.82099 -6.42181 0
M  V30 6828 H 626.137 0.197427 -0.714215 0
M  V30 6829 H 628.784 -0.199391 -1.90459 0
M  V30 6830 H 627.089 1.92869 -3.4104 0
M  V30 6831 H 628.786 1.63032 -3.66363 0
M  V30 6832 H 625.376 0.332645 -4.27307 0
M  V30 6833 H 629.56 -0.378359 -4.94856 0
M  V30 6834 H 624.816 -1.36592 -5.95947 0
M  V30 6835 H 628.99 -2.07337 -6.64819 0
M  V30 6836 H 626.617 -2.57319 -7.15326 0
M  V30 6837 N 628.193 1.56834 0.155195 0
M  V30 6838 C 629.423 1.86778 0.883044 0
M  V30 6839 C 629.831 0.703824 1.75622 0
M  V30 6840 O 629.174 -0.33581 1.80605 0
M  V30 6841 C 629.236 3.1133 1.79761 0
M  V30 6842 C 628.9 4.43504 1.10242 0
M  V30 6843 C 629.897 5.17859 0.460204 0
M  V30 6844 C 627.582 4.90233 1.09437 0
M  V30 6845 C 629.576 6.37144 -0.180782 0
M  V30 6846 C 627.263 6.09444 0.449569 0
M  V30 6847 C 628.261 6.82744 -0.186888 0
M  V30 6848 O 627.949 7.99692 -0.821486 0
M  V30 6849 H 627.681 0.62352 0.261149 0
M  V30 6850 H 630.235 2.04813 0.155204 0
M  V30 6851 H 628.465 2.89282 2.56618 0
M  V30 6852 H 630.154 3.27587 2.39669 0
M  V30 6853 H 630.92 4.8283 0.458289 0
M  V30 6854 H 626.799 4.33109 1.57917 0
M  V30 6855 H 630.343 6.94296 -0.678154 0
M  V30 6856 H 626.24 6.43936 0.449123 0
M  V30 6857 H 627.008 8.15306 -0.722337 0
M  V30 6858 N 629.671 -0.424282 1.51781 0
M  V30 6859 C 630.618 -1.51591 1.74037 0
M  V30 6860 C 631.588 -1.55556 0.582358 0
M  V30 6861 O 632.773 -1.72364 0.818245 0
M  V30 6862 C 629.913 -2.89188 1.8832 0
M  V30 6863 C 629.026 -2.9465 3.1592 0
M  V30 6864 C 628.161 -4.23452 3.20721 0
M  V30 6865 C 627.2 -4.22831 4.42584 0
M  V30 6866 N 626.337 -5.43178 4.44862 0
M  V30 6867 H 631.177 -1.31917 2.67212 0
M  V30 6868 H 628.714 -0.640599 1.32419 0
M  V30 6869 H 630.672 -3.69044 1.94583 0
M  V30 6870 H 629.302 -3.07392 0.985402 0
M  V30 6871 H 628.354 -2.07378 3.18902 0
M  V30 6872 H 629.666 -2.90055 4.05795 0
M  V30 6873 H 628.82 -5.1169 3.25973 0
M  V30 6874 H 627.559 -4.30722 2.28757 0
M  V30 6875 H 626.564 -3.32984 4.37495 0
M  V30 6876 H 627.789 -4.17213 5.35826 0
M  V30 6877 H 625.735 -5.51145 3.55775 0
M  V30 6878 H 625.652 -5.40515 5.28563 0
M  V30 6879 H 626.92 -6.33412 4.54324 0
M  V30 6880 N 631.149 -1.42148 -0.680565 0
M  V30 6881 C 632.079 -1.4796 -1.80638 0
M  V30 6882 C 633.06 -0.336728 -1.66734 0
M  V30 6883 O 634.245 -0.550247 -1.86242 0
M  V30 6884 C 631.375 -1.37569 -3.18892 0
M  V30 6885 C 630.329 -2.49823 -3.47524 0
M  V30 6886 C 629.655 -2.24491 -4.85291 0
M  V30 6887 C 630.955 -3.92144 -3.44994 0
M  V30 6888 H 632.649 -2.42184 -1.76032 0
M  V30 6889 H 630.195 -1.16566 -0.845481 0
M  V30 6890 H 632.148 -1.40243 -3.97379 0
M  V30 6891 H 630.872 -0.398357 -3.24162 0
M  V30 6892 H 629.531 -2.46455 -2.71395 0
M  V30 6893 H 629.179 -1.25066 -4.87204 0
M  V30 6894 H 628.879 -2.99722 -5.05411 0
M  V30 6895 H 630.403 -2.28906 -5.66069 0
M  V30 6896 H 631.817 -3.97145 -4.13459 0
M  V30 6897 H 630.214 -4.67179 -3.76648 0
M  V30 6898 H 631.284 -4.19225 -2.43676 0
M  V30 6899 N 632.627 0.916307 -1.28225 0
M  V30 6900 C 633.557 2.0352 -1.14464 0
M  V30 6901 C 634.538 1.70045 -0.0430844 0
M  V30 6902 O 635.723 1.92954 -0.219619 0
M  V30 6903 C 632.853 3.37889 -0.803027 0
M  V30 6904 C 631.807 3.85516 -1.85908 0
M  V30 6905 C 631.133 5.1682 -1.37116 0
M  V30 6906 C 632.433 4.07655 -3.26519 0
M  V30 6907 H 634.127 2.1529 -2.08064 0
M  V30 6908 H 631.673 1.03446 -1.00174 0
M  V30 6909 H 633.626 4.15654 -0.693537 0
M  V30 6910 H 632.35 3.26164 0.168674 0
M  V30 6911 H 631.009 3.09953 -1.95767 0
M  V30 6912 H 630.657 5.01497 -0.38859 0
M  V30 6913 H 630.357 5.49657 -2.07728 0
M  V30 6914 H 631.881 5.97143 -1.27484 0
M  V30 6915 H 633.295 4.75953 -3.19596 0
M  V30 6916 H 631.692 4.51818 -3.94943 0
M  V30 6917 H 632.762 3.12553 -3.70727 0
M  V30 6918 N 634.105 1.10431 1.1244 0
M  V30 6919 C 635.345 0.856518 1.85589 0
M  V30 6920 C 635.709 -0.606905 1.82156 0
M  V30 6921 O 636.91 -0.97105 2.50647 0
M  V30 6922 C 635.181 1.38977 3.29272 0
M  V30 6923 S 636.74 1.27739 4.19795 0
M  V30 6924 H 633.558 0.309509 0.640098 0
M  V30 6925 H 636.16 1.40975 1.35449 0
M  V30 6926 H 634.864 2.44887 3.2933 0
M  V30 6927 H 634.395 0.833112 3.84477 0
M  V30 6928 H 636.41 0.235051 4.95643 0
M  V30 6929 N 635.583 -1.29855 0.893053 0
M  V30 6930 C 636.829 -1.96116 0.516349 0
M  V30 6931 C 637.162 -1.70281 -0.933695 0
M  V30 6932 O 636.437 -1.01205 -1.66096 0
M  V30 6933 C 636.72 -3.51068 0.801455 0
M  V30 6934 C 636.573 -3.86387 2.30272 0
M  V30 6935 C 637.892 -4.39186 0.283423 0
M  V30 6936 H 635.011 -0.712335 0.189072 0
M  V30 6937 H 637.653 -1.53587 1.11852 0
M  V30 6938 H 635.803 -3.87424 0.288949 0
M  V30 6939 H 637.475 -3.60012 2.88425 0
M  V30 6940 H 635.718 -3.34167 2.76613 0
M  V30 6941 H 636.389 -4.94512 2.45279 0
M  V30 6942 H 638.865 -4.09785 0.722187 0
M  V30 6943 H 637.741 -5.46505 0.512169 0
M  V30 6944 H 638.002 -4.34511 -0.815643 0
M  V30 6945 N 637.061 -0.65484 -1.43351 0
M  V30 6946 C 638.477 -0.32255 -1.56307 0
M  V30 6947 C 638.677 1.17324 -1.63821 0
M  V30 6948 O 637.733 1.95813 -1.59417 0
M  V30 6949 C 639.046 -1.03533 -2.82314 0
M  V30 6950 C 640.594 -1.01574 -2.9606 0
M  V30 6951 C 641.069 -1.70945 -4.24902 0
M  V30 6952 N 642.56 -1.67716 -4.3177 0
M  V30 6953 C 643.295 -2.18265 -5.30234 0
M  V30 6954 N 642.791 -2.7711 -6.34966 0
M  V30 6955 N 644.584 -2.08756 -5.21898 0
M  V30 6956 H 636.735 -1.62549 -1.36717 0
M  V30 6957 H 638.998 -0.683676 -0.656727 0
M  V30 6958 H 638.704 -2.09045 -2.8283 0
M  V30 6959 H 638.578 -0.587913 -3.7259 0
M  V30 6960 H 640.965 0.0309834 -2.95084 0
M  V30 6961 H 641.046 -1.50186 -2.07069 0
M  V30 6962 H 640.69 -2.75574 -4.26639 0
M  V30 6963 H 640.62 -1.19797 -5.12793 0
M  V30 6964 H 643.111 -1.24777 -3.56706 0
M  V30 6965 H 643.424 -3.13353 -7.06421 0
M  V30 6966 H 641.769 -2.81171 -6.35585 0
M  V30 6967 H 644.96 -1.62488 -4.38994 0
M  V30 6968 H 645.133 -2.48459 -5.98475 0
M  V30 6969 N 638.539 1.52521 -0.396863 0
M  V30 6970 C 639.787 2.01274 0.182536 0
M  V30 6971 C 640.108 1.28485 1.46685 0
M  V30 6972 O 639.378 0.407134 1.91623 0
M  V30 6973 H 637.958 0.743671 0.0704442 0
M  V30 6974 H 640.62 1.87547 -0.530289 0
M  V30 6975 H 639.716 3.09687 0.387385 0
M  V30 6976 N 640.017 0.126909 1.57088 0
M  V30 6977 C 641.266 -0.529024 1.94639 0
M  V30 6978 C 641.579 -1.67323 1.01304 0
M  V30 6979 O 642.785 -2.39245 1.28352 0
M  V30 6980 C 641.241 -0.992483 3.45945 0
M  V30 6981 C 640.849 0.123691 4.47829 0
M  V30 6982 C 642.593 -1.61934 3.924 0
M  V30 6983 C 640.5 -0.356911 5.90322 0
M  V30 6984 H 639.43 -0.201397 0.726605 0
M  V30 6985 H 642.081 0.208032 1.82317 0
M  V30 6986 H 640.463 -1.7842 3.53528 0
M  V30 6987 H 641.637 0.900168 4.51922 0
M  V30 6988 H 639.952 0.657699 4.11173 0
M  V30 6989 H 642.549 -1.9902 4.96281 0
M  V30 6990 H 642.892 -2.50075 3.32819 0
M  V30 6991 H 643.425 -0.892894 3.8765 0
M  V30 6992 H 640.164 0.488636 6.53676 0
M  V30 6993 H 639.684 -1.0997 5.89633 0
M  V30 6994 H 641.363 -0.815547 6.41839 0
M  V30 6995 N 641.495 -1.56914 -0.146875 0
M  V30 6996 C 642.744 -1.82546 -0.857898 0
M  V30 6997 C 643.057 -0.708169 -1.8233 0
M  V30 6998 O 644.263 -0.850093 -2.57848 0
M  V30 6999 C 642.719 -3.23548 -1.57623 0
M  V30 7000 C 642.327 -4.43212 -0.653224 0
M  V30 7001 C 644.071 -3.58453 -2.27402 0
M  V30 7002 C 641.978 -5.75237 -1.37318 0
M  V30 7003 H 640.908 -0.680786 -0.32411 0
M  V30 7004 H 643.559 -1.83166 -0.110639 0
M  V30 7005 H 641.941 -3.17315 -2.36912 0
M  V30 7006 H 643.115 -4.60682 0.104452 0
M  V30 7007 H 641.43 -4.16351 -0.0638336 0
M  V30 7008 H 644.027 -4.54349 -2.81907 0
M  V30 7009 H 644.37 -2.84516 -3.03901 0
M  V30 7010 H 644.903 -3.66347 -1.55032 0
M  V30 7011 H 641.642 -6.52269 -0.650041 0
M  V30 7012 H 641.162 -5.61703 -2.10357 0
M  V30 7013 H 642.841 -6.18039 -1.91406 0
M  V30 7014 N 642.974 0.416227 -1.52004 0
M  V30 7015 C 644.202 1.18573 -1.69553 0
M  V30 7016 C 644.617 1.84472 -0.401919 0
M  V30 7017 O 643.974 1.71593 0.621463 0
M  V30 7018 C 644.025 2.25413 -2.82615 0
M  V30 7019 O 643.746 1.62205 -4.06966 0
M  V30 7020 C 645.247 3.15297 -3.11613 0
M  V30 7021 H 642.467 0.356582 -0.56841 0
M  V30 7022 H 645.011 0.490618 -1.98528 0
M  V30 7023 H 643.166 2.90604 -2.56179 0
M  V30 7024 H 643.58 2.3298 -4.69916 0
M  V30 7025 H 645.054 3.86351 -3.94255 0
M  V30 7026 H 645.531 3.77264 -2.24874 0
M  V30 7027 H 646.137 2.55783 -3.39787 0
M  V30 7028 N 644.452 1.42507 0.673017 0
M  V30 7029 C 645.677 1.4668 1.46627 0
M  V30 7030 C 646.102 0.080066 1.8793 0
M  V30 7031 O 645.46 -0.921879 1.56112 0
M  V30 7032 C 645.508 2.40091 2.69051 0
M  V30 7033 O 644.612 1.8735 3.67387 0
M  V30 7034 H 643.953 0.496908 0.44043 0
M  V30 7035 H 646.483 1.87215 0.825334 0
M  V30 7036 H 646.493 2.56731 3.17101 0
M  V30 7037 H 645.168 3.4084 2.3833 0
M  V30 7038 H 643.745 1.80274 3.26429 0
M  V30 7039 N 645.93 -0.909495 1.28709 0
M  V30 7040 C 646.877 -2.01245 1.13 0
M  V30 7041 C 647.847 -1.6608 0.0259684 0
M  V30 7042 O 649.032 -1.89835 0.191687 0
M  V30 7043 C 646.172 -3.35644 0.802315 0
M  V30 7044 C 645.285 -3.83653 1.98582 0
M  V30 7045 C 644.42 -5.06582 1.59837 0
M  V30 7046 C 643.459 -5.46934 2.74827 0
M  V30 7047 N 642.596 -6.61053 2.36546 0
M  V30 7048 H 647.436 -2.14013 2.0737 0
M  V30 7049 H 644.973 -1.0482 1.03205 0
M  V30 7050 H 646.931 -4.12963 0.593057 0
M  V30 7051 H 645.561 -3.22631 -0.104457 0
M  V30 7052 H 644.613 -3.02454 2.30708 0
M  V30 7053 H 645.925 -4.09515 2.84779 0
M  V30 7054 H 645.079 -5.91457 1.35143 0
M  V30 7055 H 643.818 -4.82537 0.707753 0
M  V30 7056 H 642.823 -4.60599 3.00215 0
M  V30 7057 H 644.048 -5.72965 3.64538 0
M  V30 7058 H 641.994 -6.3863 1.49959 0
M  V30 7059 H 641.911 -6.86662 3.16277 0
M  V30 7060 H 643.179 -7.49221 2.15146 0
M  V30 7061 N 647.408 -1.11026 -1.11852 0
M  V30 7062 C 648.636 -0.878818 -1.87308 0
M  V30 7063 C 649.051 0.57111 -1.79955 0
M  V30 7064 O 648.408 1.39409 -1.17777 0
M  V30 7065 C 648.459 -1.3264 -3.36287 0
M  V30 7066 O 648.18 -2.71948 -3.43476 0
M  V30 7067 C 649.681 -1.12974 -4.28663 0
M  V30 7068 H 646.901 -0.315015 -0.592458 0
M  V30 7069 H 649.445 -1.47649 -1.41492 0
M  V30 7070 H 647.6 -0.772269 -3.79625 0
M  V30 7071 H 648.014 -2.91241 -4.3621 0
M  V30 7072 H 649.488 -1.49198 -5.31454 0
M  V30 7073 H 649.965 -0.0689127 -4.39146 0
M  V30 7074 H 650.571 -1.67064 -3.91113 0
M  V30 7075 N 648.886 1.2938 -0.899927 0
M  V30 7076 C 649.833 2.27713 -0.376243 0
M  V30 7077 C 650.803 1.57016 0.541774 0
M  V30 7078 O 651.988 1.84997 0.466966 0
M  V30 7079 C 649.128 3.42889 0.39 0
M  V30 7080 C 648.241 4.28369 -0.558938 0
M  V30 7081 C 647.376 5.30726 0.224379 0
M  V30 7082 C 646.415 6.07862 -0.719068 0
M  V30 7083 N 645.552 7.02094 0.0298569 0
M  V30 7084 H 650.392 2.71888 -1.21988 0
M  V30 7085 H 647.929 1.33724 -0.612879 0
M  V30 7086 H 649.887 4.08443 0.850314 0
M  V30 7087 H 648.517 2.99743 1.19809 0
M  V30 7088 H 647.569 3.62986 -1.13777 0
M  V30 7089 H 648.881 4.82068 -1.2811 0
M  V30 7090 H 648.035 6.02098 0.745881 0
M  V30 7091 H 646.774 4.77759 0.979674 0
M  V30 7092 H 645.779 5.35353 -1.25207 0
M  V30 7093 H 647.004 6.62917 -1.4737 0
M  V30 7094 H 644.95 6.51496 0.767415 0
M  V30 7095 H 644.867 7.5335 -0.632391 0
M  V30 7096 H 646.135 7.77685 0.531615 0
M  V30 7097 N 650.364 0.662433 1.43002 0
M  V30 7098 C 651.589 0.186003 2.06564 0
M  V30 7099 C 652.014 -1.14314 1.49379 0
M  V30 7100 O 651.372 -1.70824 0.607346 0
M  V30 7101 C 651.42 0.118269 3.60406 0
M  V30 7102 O 650.524 -0.916859 4.02079 0
M  V30 7103 H 649.865 0.0990981 0.656563 0
M  V30 7104 H 652.395 0.907958 1.8335 0
M  V30 7105 H 652.405 -0.0619981 4.07953 0
M  V30 7106 H 651.08 1.08849 4.01403 0
M  V30 7107 H 649.657 -0.708635 3.66105 0
M  V30 7108 N 651.842 -1.52309 0.404946 0
M  V30 7109 C 652.772 -2.29805 -0.41376 0
M  V30 7110 C 653.753 -1.3384 -1.0498 0
M  V30 7111 O 654.938 -1.62745 -1.05961 0
M  V30 7112 C 652.068 -3.11639 -1.53292 0
M  V30 7113 C 651.022 -4.15616 -1.02211 0
M  V30 7114 C 650.348 -4.8577 -2.23455 0
M  V30 7115 C 651.648 -5.2224 -0.0790725 0
M  V30 7116 H 653.342 -2.98493 0.232878 0
M  V30 7117 H 650.888 -1.43552 0.113441 0
M  V30 7118 H 652.841 -3.64618 -2.11262 0
M  V30 7119 H 651.565 -2.40712 -2.20738 0
M  V30 7120 H 650.224 -3.63641 -0.46484 0
M  V30 7121 H 649.872 -4.11376 -2.89445 0
M  V30 7122 H 649.572 -5.56058 -1.89929 0
M  V30 7123 H 651.096 -5.4156 -2.82038 0
M  V30 7124 H 652.51 -5.70485 -0.567438 0
M  V30 7125 H 650.907 -5.99867 0.167167 0
M  V30 7126 H 651.977 -4.77078 0.867447 0
M  V30 7127 N 653.32 -0.135238 -1.57019 0
M  V30 7128 C 654.597 0.563227 -1.87316 0
M  V30 7129 C 654.977 1.83749 -1.03921 0
M  V30 7130 O 654.325 2.2817 -0.122675 0
M  V30 7131 C 654.535 0.840031 -3.3874 0
M  V30 7132 C 655.883 1.18598 -4.077 0
M  V30 7133 O 656.907 0.92977 -3.43851 0
M  V30 7134 O 655.766 1.66758 -5.20436 0
M  V30 7135 H 652.86 0.285971 -0.775983 0
M  V30 7136 H 655.406 -0.170965 -1.68837 0
M  V30 7137 H 654.178 -0.0622785 -3.9125 0
M  V30 7138 H 653.801 1.62882 -3.62706 0
M  V30 7139 N 654.798 1.5699 0.138552 0
M  V30 7140 C 655.745 1.98899 1.17081 0
M  V30 7141 C 656.715 0.857922 1.42228 0
M  V30 7142 O 657.9 1.12065 1.54422 0
M  V30 7143 C 655.04 2.38189 2.4972 0
M  V30 7144 C 654.153 3.64624 2.31674 0
M  V30 7145 C 653.288 3.9298 3.57407 0
M  V30 7146 C 652.327 5.1266 3.34435 0
M  V30 7147 N 651.464 5.36983 4.5232 0
M  V30 7148 H 656.304 2.86881 0.80642 0
M  V30 7149 H 653.841 1.41925 0.386727 0
M  V30 7150 H 655.799 2.59 3.2707 0
M  V30 7151 H 654.429 1.53275 2.84089 0
M  V30 7152 H 653.481 3.51542 1.45337 0
M  V30 7153 H 654.793 4.52131 2.10664 0
M  V30 7154 H 653.947 4.14335 4.43183 0
M  V30 7155 H 652.686 3.03912 3.8143 0
M  V30 7156 H 651.691 4.9117 2.47048 0
M  V30 7157 H 652.916 6.03288 3.11802 0
M  V30 7158 H 650.862 4.50871 4.76499 0
M  V30 7159 H 650.779 6.18775 4.34343 0
M  V30 7160 H 652.047 5.62842 5.39285 0
M  V30 7161 N 656.276 -0.40816 1.52223 0
M  V30 7162 C 657.524 -1.15274 1.66001 0
M  V30 7163 C 657.845 -1.91003 0.392803 0
M  V30 7164 O 657.115 -1.8673 -0.592336 0
M  V30 7165 H 655.695 -0.428526 0.611861 0
M  V30 7166 H 658.357 -0.46512 1.89269 0
M  V30 7167 H 657.453 -1.86628 2.50153 0
M  V30 7168 N 657.755 -1.42862 -0.66545 0
M  V30 7169 C 658.985 -1.47032 -1.45138 0
M  V30 7170 C 659.393 -0.0829977 -1.89018 0
M  V30 7171 O 658.736 0.914551 -1.59316 0
M  V30 7172 C 658.798 -2.34302 -2.72659 0
M  V30 7173 C 658.462 -3.82034 -2.50796 0
M  V30 7174 C 659.459 -4.73453 -2.14799 0
M  V30 7175 C 657.144 -4.26397 -2.655 0
M  V30 7176 C 659.138 -6.07228 -1.93785 0
M  V30 7177 C 656.825 -5.6023 -2.44103 0
M  V30 7178 C 657.823 -6.50462 -2.08299 0
M  V30 7179 O 657.511 -7.8182 -1.87116 0
M  V30 7180 H 657.243 -0.501969 -0.452772 0
M  V30 7181 H 659.797 -1.88137 -0.82423 0
M  V30 7182 H 658.027 -1.88063 -3.37889 0
M  V30 7183 H 659.716 -2.29818 -3.34572 0
M  V30 7184 H 660.482 -4.4046 -2.03026 0
M  V30 7185 H 656.361 -3.56448 -2.92345 0
M  V30 7186 H 659.905 -6.7762 -1.65763 0
M  V30 7187 H 655.802 -5.92793 -2.55475 0
M  V30 7188 H 656.57 -7.93274 -2.01639 0
M  V30 7189 N 659.233 0.902656 -1.29189 0
M  V30 7190 C 660.181 2.0278 -1.13943 0
M  V30 7191 C 661.175 1.69308 -0.055787 0
M  V30 7192 O 662.381 1.78707 -0.215371 0
M  V30 7193 H 658.756 0.664595 -0.351877 0
M  V30 7194 H 660.727 2.12778 -2.09208 0
M  V30 7195 C 659.476 3.37657 -0.82966 0
M  V30 7196 H 658.799 3.63913 -1.65551 0
M  V30 7197 H 660.239 4.17078 -0.762998 0
M  V30 7198 C 658.698 3.33648 0.466991 0
M  V30 7199 O 659.228 3.72886 1.49395 0
M  V30 7200 N 657.434 2.86745 0.471761 0
M  V30 7201 H 656.981 2.55009 -0.364406 0
M  V30 7202 H 656.939 2.84446 1.33933 0
M  V30 7203 N 660.711 1.11618 1.11262 0
M  V30 7204 C 661.658 0.7762 2.17356 0
M  V30 7205 C 662.628 -0.253152 1.6416 0
M  V30 7206 O 663.813 -0.129655 1.90359 0
M  V30 7207 C 660.953 0.227581 3.44349 0
M  V30 7208 C 660.066 1.31372 4.1154 0
M  V30 7209 C 659.201 0.72544 5.26223 0
M  V30 7210 C 658.24 1.7913 5.85302 0
M  V30 7211 N 657.377 1.22237 6.91377 0
M  V30 7212 H 662.217 1.68508 2.45783 0
M  V30 7213 H 659.754 0.841475 1.20655 0
M  V30 7214 H 661.712 -0.108483 4.17059 0
M  V30 7215 H 660.342 -0.644486 3.16301 0
M  V30 7216 H 659.394 1.7667 3.36885 0
M  V30 7217 H 660.706 2.12005 4.51504 0
M  V30 7218 H 659.86 0.339541 6.05749 0
M  V30 7219 H 658.599 -0.112188 4.87571 0
M  V30 7220 H 657.604 2.18648 5.04453 0
M  V30 7221 H 658.829 2.63199 6.26022 0
M  V30 7222 H 656.775 0.406423 6.5474 0
M  V30 7223 H 656.692 1.9654 7.30006 0
M  V30 7224 H 657.96 0.863426 7.74703 0
M  V30 7225 N 662.189 -1.289 0.906776 0
M  V30 7226 C 663.152 -2.25777 0.394656 0
M  V30 7227 C 664.152 -1.53621 -0.475119 0
M  V30 7228 O 665.342 -1.71949 -0.279165 0
M  V30 7229 C 662.474 -3.38113 -0.43499 0
M  V30 7230 H 663.667 -2.72592 1.25033 0
M  V30 7231 H 661.22 -1.40463 0.685547 0
M  V30 7232 H 661.955 -2.96648 -1.31036 0
M  V30 7233 H 661.74 -3.91647 0.188334 0
M  V30 7234 H 663.23 -4.10168 -0.784365 0
M  V30 7235 N 663.667 -0.670007 -1.42649 0
M  V30 7236 C 664.597 -0.00258501 -2.335 0
M  V30 7237 C 665.578 0.794364 -1.50412 0
M  V30 7238 O 666.763 0.75248 -1.79029 0
M  V30 7239 C 663.893 0.952748 -3.33976 0
M  V30 7240 C 662.847 0.264733 -4.2718 0
M  V30 7241 C 662.173 1.33267 -5.17826 0
M  V30 7242 C 663.473 -0.853289 -5.15283 0
M  V30 7243 H 665.167 -0.761326 -2.89559 0
M  V30 7244 H 662.713 -0.367561 -1.3923 0
M  V30 7245 H 664.666 1.4287 -3.96442 0
M  V30 7246 H 663.39 1.74285 -2.7621 0
M  V30 7247 H 662.049 -0.190938 -3.66102 0
M  V30 7248 H 661.697 2.11464 -4.5639 0
M  V30 7249 H 661.397 0.877476 -5.81011 0
M  V30 7250 H 662.921 1.80965 -5.83167 0
M  V30 7251 H 664.335 -0.458763 -5.71462 0
M  V30 7252 H 662.732 -1.23398 -5.87276 0
M  V30 7253 H 663.802 -1.70412 -4.53969 0
M  V30 7254 N 665.145 1.52092 -0.413018 0
M  V30 7255 C 666.093 2.28681 0.425199 0
M  V30 7256 C 667.087 1.3353 1.04241 0
M  V30 7257 O 668.293 1.50973 0.980166 0
M  V30 7258 H 664.668 0.735661 0.155906 0
M  V30 7259 H 666.639 2.97418 -0.241926 0
M  V30 7260 C 665.388 3.1235 1.5275 0
M  V30 7261 H 664.711 3.85439 1.06191 0
M  V30 7262 H 666.151 3.69038 2.08774 0
M  V30 7263 C 664.61 2.26161 2.49706 0
M  V30 7264 O 665.14 1.90452 3.53682 0
M  V30 7265 N 663.346 1.89854 2.20008 0
M  V30 7266 H 662.893 2.19092 1.35486 0
M  V30 7267 H 662.851 1.3248 2.85125 0
M  V30 7268 N 666.623 0.143563 1.56945 0
M  V30 7269 C 667.9 -0.553285 1.87612 0
M  V30 7270 C 668.28 -1.83195 1.04894 0
M  V30 7271 O 667.628 -2.28102 0.134773 0
M  V30 7272 C 667.838 -0.822055 3.3918 0
M  V30 7273 C 669.186 -1.16435 4.08324 0
M  V30 7274 O 670.21 -0.911522 3.4434 0
M  V30 7275 O 669.069 -1.63996 5.21313 0
M  V30 7276 H 666.163 -0.281851 0.777489 0
M  V30 7277 H 668.709 0.179916 1.68744 0
M  V30 7278 H 667.481 0.0830265 3.91212 0
M  V30 7279 H 667.104 -1.60956 3.63564 0
M  V30 7280 N 668.101 -1.57061 -0.130224 0
M  V30 7281 C 669.031 -2.02552 -1.16168 0
M  V30 7282 C 670.012 -0.907971 -1.4384 0
M  V30 7283 O 671.197 -1.17693 -1.54473 0
M  V30 7284 C 668.327 -2.42035 -2.49071 0
M  V30 7285 C 667.281 -3.5713 -2.35886 0
M  V30 7286 C 666.607 -3.82478 -3.7365 0
M  V30 7287 C 667.907 -4.89236 -1.8288 0
M  V30 7288 H 669.601 -2.8897 -0.783359 0
M  V30 7289 H 667.147 -1.39021 -0.375376 0
M  V30 7290 H 669.1 -2.72462 -3.21469 0
M  V30 7291 H 667.824 -1.52573 -2.88771 0
M  V30 7292 H 666.483 -3.26895 -1.65938 0
M  V30 7293 H 666.131 -2.9024 -4.10816 0
M  V30 7294 H 665.831 -4.59944 -3.65685 0
M  V30 7295 H 667.355 -4.15347 -4.47571 0
M  V30 7296 H 668.769 -5.18272 -2.45085 0
M  V30 7297 H 667.166 -5.70624 -1.85763 0
M  V30 7298 H 668.236 -4.78494 -0.785571 0
M  V30 7299 N 669.579 0.400081 -1.52437 0
M  V30 7300 C 670.819 1.15526 -1.68622 0
M  V30 7301 C 671.183 1.87533 -0.411744 0
M  V30 7302 O 672.384 2.6501 -0.449804 0
M  V30 7303 C 670.655 2.11618 -2.88015 0
M  V30 7304 S 672.214 2.95121 -3.24729 0
M  V30 7305 H 669.032 0.39123 -0.593683 0
M  V30 7306 H 671.634 0.441255 -1.90455 0
M  V30 7307 H 670.338 1.5742 -3.79008 0
M  V30 7308 H 669.869 2.87544 -2.68481 0
M  V30 7309 H 671.884 4.13653 -2.74055 0
M  V30 7310 N 671.057 1.43213 0.657864 0
M  V30 7311 C 672.306 1.43871 1.41365 0
M  V30 7312 C 672.619 0.064898 1.95492 0
M  V30 7313 O 673.825 -0.0510796 2.71452 0
M  V30 7314 C 672.281 2.53158 2.55811 0
M  V30 7315 C 671.889 3.96624 2.08311 0
M  V30 7316 C 673.633 2.63004 3.3321 0
M  V30 7317 C 671.54 4.97385 3.1994 0
M  V30 7318 H 670.47 0.535174 0.531136 0
M  V30 7319 H 673.121 1.69185 0.710543 0
M  V30 7320 H 671.503 2.21037 3.2857 0
M  V30 7321 H 672.677 4.38182 1.42593 0
M  V30 7322 H 670.992 3.90781 1.43804 0
M  V30 7323 H 673.589 3.3546 4.16378 0
M  V30 7324 H 673.932 1.67918 3.80932 0
M  V30 7325 H 674.465 2.94403 2.67529 0
M  V30 7326 H 671.204 5.94007 2.77192 0
M  V30 7327 H 670.724 4.60444 3.84385 0
M  V30 7328 H 672.403 5.19877 3.85145 0
M  V30 7329 N 672.536 -0.895792 1.29666 0
M  V30 7330 C 673.483 -2.00035 1.15129 0
M  V30 7331 C 674.453 -1.66043 0.0435819 0
M  V30 7332 O 675.638 -1.89621 0.211811 0
M  V30 7333 C 672.778 -3.34774 0.83787 0
M  V30 7334 C 671.891 -3.81525 2.0264 0
M  V30 7335 C 671.026 -5.04858 1.65201 0
M  V30 7336 C 670.065 -5.43988 2.80612 0
M  V30 7337 N 669.202 -6.58507 2.43544 0
M  V30 7338 H 674.042 -2.11802 2.09628 0
M  V30 7339 H 671.579 -1.03719 1.04311 0
M  V30 7340 H 673.537 -4.12311 0.636824 0
M  V30 7341 H 672.167 -3.22724 -0.0702314 0
M  V30 7342 H 671.219 -2.9999 2.33903 0
M  V30 7343 H 672.531 -4.06472 2.89106 0
M  V30 7344 H 671.685 -5.8999 1.41408 0
M  V30 7345 H 670.424 -4.81759 0.758893 0
M  V30 7346 H 669.429 -4.57388 3.05083 0
M  V30 7347 H 670.654 -5.69066 3.70595 0
M  V30 7348 H 668.6 -6.37004 1.56724 0
M  V30 7349 H 668.517 -6.83269 3.23542 0
M  V30 7350 H 669.785 -7.46897 2.2308 0
M  V30 7351 N 674.014 -1.12206 -1.10668 0
M  V30 7352 C 675.26 -0.877172 -1.82848 0
M  V30 7353 C 675.593 0.595571 -1.84842 0
M  V30 7354 O 674.868 1.44013 -1.30731 0
M  V30 7355 C 675.151 -1.44957 -3.29635 0
M  V30 7356 C 675.004 -2.99051 -3.35989 0
M  V30 7357 C 676.323 -1.10714 -4.25946 0
M  V30 7358 H 673.442 -0.320103 -0.663854 0
M  V30 7359 H 676.084 -1.38827 -1.2972 0
M  V30 7360 H 674.234 -1.01488 -3.7501 0
M  V30 7361 H 675.906 -3.51182 -2.99113 0
M  V30 7362 H 674.149 -3.34705 -2.75962 0
M  V30 7363 H 674.82 -3.34194 -4.39339 0
M  V30 7364 H 677.296 -1.48254 -3.88793 0
M  V30 7365 H 676.172 -1.5343 -5.2702 0
M  V30 7366 H 676.433 -0.019 -4.42096 0
M  V30 7367 N 675.492 1.28418 -0.913599 0
M  V30 7368 C 676.44 2.29272 -0.392037 0
M  V30 7369 C 677.434 1.61344 0.516198 0
M  V30 7370 O 678.64 1.75557 0.39746 0
M  V30 7371 H 675.015 0.744178 -0.108178 0
M  V30 7372 H 676.986 2.70691 -1.25574 0
M  V30 7373 C 675.735 3.45905 0.352815 0
M  V30 7374 H 675.058 3.98378 -0.336848 0
M  V30 7375 H 676.498 4.18473 0.682398 0
M  V30 7376 C 674.957 2.98572 1.56065 0
M  V30 7377 O 675.487 3.01033 2.65974 0
M  V30 7378 N 673.693 2.54235 1.40759 0
M  V30 7379 H 673.24 2.52432 0.513403 0
M  V30 7380 H 673.198 2.22925 2.21702 0
M  V30 7381 N 676.97 0.677563 1.42291 0
M  V30 7382 C 677.918 -0.0106755 2.32598 0
M  V30 7383 C 678.912 -0.787643 1.49975 0
M  V30 7384 O 680.118 -0.695295 1.66029 0
M  V30 7385 H 676.493 -0.0222482 0.751671 0
M  V30 7386 H 678.464 0.768312 2.88339 0
M  V30 7387 C 677.213 -0.946142 3.3458 0
M  V30 7388 H 676.536 -0.357701 3.98197 0
M  V30 7389 H 677.976 -1.39634 4.00348 0
M  V30 7390 C 676.435 -2.05383 2.67057 0
M  V30 7391 O 676.965 -3.1406 2.50458 0
M  V30 7392 N 675.171 -1.82635 2.26038 0
M  V30 7393 H 674.718 -0.942534 2.39737 0
M  V30 7394 H 674.676 -2.56937 1.81192 0
M  V30 7395 N 678.448 -1.51871 0.421078 0
M  V30 7396 C 679.694 -2.02894 -0.143346 0
M  V30 7397 C 680.049 -1.30054 -1.41787 0
M  V30 7398 O 679.342 -0.401776 -1.8734 0
M  V30 7399 C 679.536 -3.54764 -0.433292 0
M  V30 7400 C 679.365 -4.42316 0.811584 0
M  V30 7401 C 678.135 -4.872 1.34033 0
M  V30 7402 C 680.333 -4.85631 1.69313 0
M  V30 7403 N 678.315 -5.58915 2.53944 0
M  V30 7404 C 679.686 -5.56248 2.7384 0
M  V30 7405 C 681.741 -4.67634 1.70947 0
M  V30 7406 C 680.444 -6.10777 3.79927 0
M  V30 7407 C 682.47 -5.23068 2.7596 0
M  V30 7408 C 681.832 -5.93617 3.79207 0
M  V30 7409 H 677.931 -0.78188 -0.0137104 0
M  V30 7410 H 680.515 -1.85919 0.578105 0
M  V30 7411 H 678.686 -3.71787 -1.12378 0
M  V30 7412 H 680.418 -3.92464 -0.987644 0
M  V30 7413 H 677.173 -4.65035 0.896606 0
M  V30 7414 H 677.597 -5.99408 3.14704 0
M  V30 7415 H 682.239 -4.12566 0.9246 0
M  V30 7416 H 679.957 -6.64909 4.59262 0
M  V30 7417 H 683.543 -5.11005 2.78147 0
M  V30 7418 H 682.423 -6.35743 4.5913 0
M  V30 7419 N 679.926 -0.151884 -1.56866 0
M  V30 7420 C 681.203 0.543328 -1.87902 0
M  V30 7421 C 681.583 1.82636 -1.05864 0
M  V30 7422 O 680.931 2.28028 -0.146868 0
M  V30 7423 C 681.141 0.804056 -3.39611 0
M  V30 7424 C 682.489 1.14267 -4.08935 0
M  V30 7425 O 683.513 0.893248 -3.44818 0
M  V30 7426 O 682.372 1.61229 -5.22176 0
M  V30 7427 H 679.466 0.277724 -0.778973 0
M  V30 7428 H 682.012 -0.188862 -1.68646 0
M  V30 7429 H 680.784 -0.103772 -3.91162 0
M  V30 7430 H 680.407 1.59025 -3.64413 0
M  V30 7431 N 681.404 1.57128 0.121893 0
M  V30 7432 C 682.334 2.03165 1.15092 0
M  V30 7433 C 683.315 0.915587 1.43356 0
M  V30 7434 O 684.5 1.1851 1.53847 0
M  V30 7435 C 681.63 2.43352 2.47784 0
M  V30 7436 C 680.584 3.58376 2.33989 0
M  V30 7437 C 679.91 3.84454 3.71617 0
M  V30 7438 C 681.21 4.90199 1.80283 0
M  V30 7439 H 682.904 2.89382 0.768023 0
M  V30 7440 H 680.45 1.39218 0.367998 0
M  V30 7441 H 682.403 2.74163 3.20019 0
M  V30 7442 H 681.127 1.54103 2.87958 0
M  V30 7443 H 679.786 3.2777 1.64202 0
M  V30 7444 H 679.434 2.92414 4.09271 0
M  V30 7445 H 679.134 4.61877 3.6324 0
M  V30 7446 H 680.658 4.17714 4.45362 0
M  V30 7447 H 682.072 5.19565 2.42333 0
M  V30 7448 H 680.469 5.71601 1.82735 0
M  V30 7449 H 681.539 4.78904 0.760184 0
M  V30 7450 N 682.882 -0.391992 1.52647 0
M  V30 7451 C 684.129 -1.13732 1.67545 0
M  V30 7452 C 684.457 -1.90045 0.413881 0
M  V30 7453 O 683.712 -1.86157 -0.603646 0
M  V30 7454 C 684.011 -2.14401 2.85949 0
M  V30 7455 C 683.677 -1.54767 4.23507 0
M  V30 7456 C 682.339 -1.38229 4.60919 0
M  V30 7457 C 684.691 -1.11382 5.0916 0
M  V30 7458 C 682.019 -0.7685 5.81645 0
M  V30 7459 C 684.371 -0.514143 6.30507 0
M  V30 7460 C 683.035 -0.33604 6.66654 0
M  V30 7461 H 682.305 -0.416174 0.613091 0
M  V30 7462 H 684.952 -0.422327 1.86785 0
M  V30 7463 H 683.257 -2.92108 2.61114 0
M  V30 7464 H 684.954 -2.71974 2.94671 0
M  V30 7465 H 681.544 -1.68626 3.94035 0
M  V30 7466 H 685.728 -1.22962 4.80826 0
M  V30 7467 H 680.984 -0.618681 6.08262 0
M  V30 7468 H 685.158 -0.169657 6.96193 0
M  V30 7469 H 682.785 0.14166 7.60068 0
M  V30 7470 N 684.36 -1.4356 -0.65026 0
M  V30 7471 C 685.607 -1.45333 -1.41012 0
M  V30 7472 C 685.935 -0.0787282 -1.94341 0
M  V30 7473 O 685.19 0.916715 -1.72901 0
M  V30 7474 C 685.489 -2.44528 -2.60654 0
M  V30 7475 C 685.155 -3.90331 -2.25727 0
M  V30 7476 C 683.817 -4.3004 -2.15914 0
M  V30 7477 C 686.169 -4.822 -1.97821 0
M  V30 7478 C 683.497 -5.59568 -1.76354 0
M  V30 7479 C 685.849 -6.12095 -1.59759 0
M  V30 7480 C 684.513 -6.50778 -1.48473 0
M  V30 7481 H 683.783 -0.531813 -0.516 0
M  V30 7482 H 686.43 -1.76657 -0.739219 0
M  V30 7483 H 684.735 -2.06619 -3.3289 0
M  V30 7484 H 686.432 -2.43155 -3.18868 0
M  V30 7485 H 683.022 -3.58905 -2.34276 0
M  V30 7486 H 687.206 -4.5229 -2.04322 0
M  V30 7487 H 682.462 -5.88376 -1.66205 0
M  V30 7488 H 686.636 -6.82751 -1.37198 0
M  V30 7489 H 684.263 -7.5105 -1.17591 0
M  V30 7490 N 685.838 0.888903 -1.30139 0
M  V30 7491 C 687.063 1.67884 -1.21777 0
M  V30 7492 C 687.488 1.86848 0.216689 0
M  V30 7493 O 686.846 1.39659 1.15608 0
M  V30 7494 C 686.894 3.03483 -1.94757 0
M  V30 7495 O 685.998 3.92294 -1.27198 0
M  V30 7496 H 685.339 0.513144 -0.421402 0
M  V30 7497 H 687.869 1.10968 -1.71893 0
M  V30 7498 H 687.879 3.53553 -2.03627 0
M  V30 7499 H 686.554 2.89 -2.99085 0
M  V30 7500 H 685.131 3.50732 -1.26655 0
M  V30 7501 N 687.317 1.12792 1.10072 0
M  V30 7502 C 688.728 0.899346 1.63611 0
M  V30 7503 C 689.079 -0.565547 1.87872 0
M  V30 7504 O 688.204 -1.43081 1.62348 0
M  V30 7505 C 688.799 1.62608 2.97227 0
M  V30 7506 C 687.358 1.44356 3.47618 0
M  V30 7507 C 686.505 1.65958 2.22156 0
M  V30 7508 H 689.456 1.28216 0.935223 0
M  V30 7509 H 689.477 1.0793 3.64872 0
M  V30 7510 H 688.989 2.69221 2.79538 0
M  V30 7511 H 687.09 0.400148 3.70445 0
M  V30 7512 H 687.203 2.20218 4.25489 0
M  V30 7513 H 685.567 1.08395 2.30484 0
M  V30 7514 H 686.35 2.73877 2.06993 0
M  V30 7515 N 688.795 -1.27931 0.920396 0
M  V30 7516 C 690.02 -1.99343 0.572478 0
M  V30 7517 C 690.445 -1.68267 -0.840696 0
M  V30 7518 O 689.803 -0.918805 -1.56294 0
M  V30 7519 C 689.851 -3.51698 0.796284 0
M  V30 7520 O 688.955 -4.12157 -0.141602 0
M  V30 7521 H 688.296 -0.626065 0.221221 0
M  V30 7522 H 690.826 -1.62921 1.23765 0
M  V30 7523 H 690.836 -4.01793 0.708984 0
M  V30 7524 H 689.511 -3.73649 1.82644 0
M  V30 7525 H 688.088 -3.729 -0.005007 0
M  V30 7526 N 690.273 -0.685099 -1.4193 0
M  V30 7527 C 691.183 -0.013404 -2.34596 0
M  V30 7528 C 692.199 0.777589 -1.55658 0
M  V30 7529 O 693.375 0.717553 -1.88184 0
M  V30 7530 C 690.44 0.919031 -3.34297 0
M  V30 7531 C 689.501 0.121417 -4.29128 0
M  V30 7532 C 688.734 1.00944 -5.24067 0
M  V30 7533 O 688.957 2.24898 -5.24192 0
M  V30 7534 O 687.891 0.464724 -6.00103 0
M  V30 7535 H 691.717 -0.776978 -2.93593 0
M  V30 7536 H 689.302 -0.445379 -1.42607 0
M  V30 7537 H 691.184 1.45402 -3.9552 0
M  V30 7538 H 689.859 1.66228 -2.77759 0
M  V30 7539 H 688.766 -0.45792 -3.71287 0
M  V30 7540 H 690.099 -0.582937 -4.88736 0
M  V30 7541 N 691.751 1.51645 -0.429126 0
M  V30 7542 C 693.028 1.94579 0.199614 0
M  V30 7543 C 693.408 1.3673 1.60836 0
M  V30 7544 O 692.756 0.551062 2.21756 0
M  V30 7545 C 692.966 3.48506 0.185685 0
M  V30 7546 C 694.314 4.22756 0.395282 0
M  V30 7547 O 695.338 3.55219 0.264165 0
M  V30 7548 O 694.197 5.42555 0.655475 0
M  V30 7549 H 691.291 0.816007 0.134393 0
M  V30 7550 H 693.837 1.62577 -0.486513 0
M  V30 7551 H 692.609 3.83045 -0.799508 0
M  V30 7552 H 692.232 3.86927 0.91507 0
M  V30 7553 N 693.229 0.160201 1.56784 0
M  V30 7554 C 694.177 -0.791402 2.18723 0
M  V30 7555 C 695.171 -1.24567 1.14801 0
M  V30 7556 O 696.377 -1.21262 1.33025 0
M  V30 7557 H 692.752 -0.273458 0.700517 0
M  V30 7558 H 694.723 -0.244931 2.97393 0
M  V30 7559 C 693.472 -2.01509 2.83354 0
M  V30 7560 H 692.795 -1.67454 3.63041 0
M  V30 7561 H 694.235 -2.66006 3.30177 0
M  V30 7562 C 692.694 -2.83159 1.82545 0
M  V30 7563 O 693.224 -3.79944 1.30405 0
M  V30 7564 N 691.43 -2.47953 1.51552 0
M  V30 7565 H 690.977 -1.69309 1.94144 0
M  V30 7566 H 690.935 -3.02873 0.843519 0
M  V30 7567 N 694.707 -1.5719 -0.113559 0
M  V30 7568 C 695.954 -1.85138 -0.820382 0
M  V30 7569 C 696.282 -0.74608 -1.79622 0
M  V30 7570 O 695.537 0.262077 -1.93937 0
M  V30 7571 C 695.836 -3.19593 -1.59984 0
M  V30 7572 C 695.502 -4.44315 -0.767809 0
M  V30 7573 C 694.164 -4.78179 -0.538379 0
M  V30 7574 C 696.516 -5.2086 -0.188203 0
M  V30 7575 C 693.844 -5.86028 0.28082 0
M  V30 7576 C 696.196 -6.29572 0.618217 0
M  V30 7577 C 694.86 -6.61964 0.857912 0
M  V30 7578 H 694.13 -0.677467 -0.300199 0
M  V30 7579 H 696.777 -1.91322 -0.0825443 0
M  V30 7580 H 695.082 -3.0901 -2.40874 0
M  V30 7581 H 696.779 -3.3844 -2.1508 0
M  V30 7582 H 693.369 -4.17786 -0.956724 0
M  V30 7583 H 697.553 -4.95045 -0.352658 0
M  V30 7584 H 692.809 -6.09547 0.475693 0
M  V30 7585 H 696.983 -6.88064 1.0743 0
M  V30 7586 H 694.61 -7.45365 1.49451 0
M  V30 7587 N 696.185 0.383891 -1.52853 0
M  V30 7588 C 697.413 1.1495 -1.7203 0
M  V30 7589 C 697.828 1.83578 -0.440957 0
M  V30 7590 O 697.185 1.72872 0.584925 0
M  V30 7591 C 697.236 2.19368 -2.87333 0
M  V30 7592 O 696.957 1.53536 -4.10315 0
M  V30 7593 C 698.458 3.08616 -3.18231 0
M  V30 7594 H 695.678 0.344445 -0.575846 0
M  V30 7595 H 698.222 0.448397 -1.99524 0
M  V30 7596 H 696.377 2.85105 -2.62286 0
M  V30 7597 H 696.791 2.2296 -4.74752 0
M  V30 7598 H 698.265 3.77902 -4.02361 0
M  V30 7599 H 698.742 3.72409 -2.32826 0
M  V30 7600 H 699.348 2.48518 -3.45136 0
M  V30 7601 N 697.663 1.43903 0.642637 0
M  V30 7602 C 698.611 1.50164 1.77634 0
M  V30 7603 C 699.605 0.374294 1.65213 0
M  V30 7604 O 700.811 0.548748 1.71431 0
M  V30 7605 H 697.186 0.470974 0.586249 0
M  V30 7606 H 699.157 2.45603 1.69474 0
M  V30 7607 C 697.906 1.45196 3.15933 0
M  V30 7608 H 697.229 2.31253 3.26132 0
M  V30 7609 H 698.669 1.53638 3.95185 0
M  V30 7610 C 697.128 0.171043 3.36466 0
M  V30 7611 O 697.658 -0.763413 3.94379 0
M  V30 7612 N 695.864 0.077847 2.90496 0
M  V30 7613 H 695.411 0.8391 2.43551 0
M  V30 7614 H 695.369 -0.778473 3.0461 0
M  V30 7615 N 699.141 -0.881989 1.30609 0
M  V30 7616 C 700.418 -1.61563 1.10258 0
M  V30 7617 C 700.798 -2.08228 -0.347053 0
M  V30 7618 O 700.146 -1.85151 -1.33908 0
M  V30 7619 C 700.356 -2.78287 2.10612 0
M  V30 7620 C 701.704 -3.48545 2.4249 0
M  V30 7621 O 702.728 -2.88479 2.08945 0
M  V30 7622 O 701.587 -4.56873 2.99883 0
M  V30 7623 H 698.681 -0.710238 0.423663 0
M  V30 7624 H 701.227 -0.928503 1.42045 0
M  V30 7625 H 699.999 -2.41131 3.08174 0
M  V30 7626 H 699.622 -3.54695 1.79659 0
M  V30 7627 N 700.619 -1.13374 -1.09472 0
M  V30 7628 C 701.549 -0.833268 -2.18126 0
M  V30 7629 C 702.53 0.207169 -1.68834 0
M  V30 7630 O 703.715 0.0662012 -1.94087 0
M  V30 7631 C 700.845 -0.297979 -3.46019 0
M  V30 7632 C 699.799 -1.27261 -4.08642 0
M  V30 7633 C 699.125 -0.597104 -5.31356 0
M  V30 7634 C 700.425 -2.63095 -4.51197 0
M  V30 7635 H 702.119 -1.74182 -2.43518 0
M  V30 7636 H 699.665 -0.838921 -1.17039 0
M  V30 7637 H 701.618 -0.0754444 -4.21332 0
M  V30 7638 H 700.342 0.645959 -3.20148 0
M  V30 7639 H 699.001 -1.48113 -3.35348 0
M  V30 7640 H 698.649 0.352293 -5.01765 0
M  V30 7641 H 698.349 -1.24734 -5.74208 0
M  V30 7642 H 699.873 -0.38384 -6.09392 0
M  V30 7643 H 701.287 -2.46214 -5.17737 0
M  V30 7644 H 699.684 -3.2429 -5.04932 0
M  V30 7645 H 700.754 -3.20793 -3.6362 0
M  V30 7646 N 702.098 1.27442 -0.927168 0
M  V30 7647 C 703.046 2.28844 -0.416333 0
M  V30 7648 C 704.04 1.61882 0.499057 0
M  V30 7649 O 705.246 1.75969 0.378817 0
M  V30 7650 H 701.621 0.742989 -0.116065 0
M  V30 7651 H 703.592 2.69344 -1.28438 0
M  V30 7652 C 702.341 3.4626 0.316107 0
M  V30 7653 H 701.664 3.97999 -0.379082 0
M  V30 7654 H 703.104 4.19173 0.637975 0
M  V30 7655 C 701.563 3.00211 1.5289 0
M  V30 7656 O 702.093 3.03837 2.62766 0
M  V30 7657 N 700.299 2.55713 1.38054 0
M  V30 7658 H 699.846 2.52962 0.4866 0
M  V30 7659 H 699.804 2.25264 2.19325 0
M  V30 7660 N 703.576 0.692616 1.41565 0
M  V30 7661 C 704.523 0.0254264 2.30786 0
M  V30 7662 C 705.493 -0.774347 1.46946 0
M  V30 7663 O 706.678 -0.742981 1.7574 0
M  V30 7664 C 703.818 -0.907123 3.32964 0
M  V30 7665 C 702.931 -0.0992784 4.31886 0
M  V30 7666 C 702.066 -1.0292 5.21134 0
M  V30 7667 C 701.105 -0.214088 6.11725 0
M  V30 7668 N 700.242 -1.09766 6.93467 0
M  V30 7669 H 705.082 0.792036 2.87282 0
M  V30 7670 H 702.619 0.4023 1.41492 0
M  V30 7671 H 704.577 -1.46181 3.90752 0
M  V30 7672 H 703.207 -1.64016 2.78026 0
M  V30 7673 H 702.259 0.572287 3.76071 0
M  V30 7674 H 703.571 0.532782 4.95946 0
M  V30 7675 H 702.725 -1.65321 5.83741 0
M  V30 7676 H 701.464 -1.69512 4.57293 0
M  V30 7677 H 700.469 0.42302 5.4817 0
M  V30 7678 H 701.694 0.447995 6.77621 0
M  V30 7679 H 699.64 -1.74965 6.32237 0
M  V30 7680 H 699.557 -0.521099 7.54202 0
M  V30 7681 H 700.825 -1.70858 7.60544 0
M  V30 7682 N 705.054 -1.51416 0.437162 0
M  V30 7683 C 706.302 -2.01687 -0.129108 0
M  V30 7684 C 706.623 -1.32329 -1.43227 0
M  V30 7685 O 705.893 -0.457796 -1.90476 0
M  V30 7686 H 704.473 -0.745277 -0.0507023 0
M  V30 7687 H 707.135 -1.86075 0.579828 0
M  V30 7688 H 706.231 -3.10605 -0.305141 0
M  V30 7689 N 706.532 -0.168513 -1.56696 0
M  V30 7690 C 707.442 0.775435 -2.21414 0
M  V30 7691 C 708.458 1.25529 -1.20492 0
M  V30 7692 O 709.634 1.30801 -1.53144 0
M  V30 7693 C 706.699 1.9886 -2.83999 0
M  V30 7694 C 705.76 1.5559 -4.00113 0
M  V30 7695 C 704.993 2.71124 -4.59704 0
M  V30 7696 O 705.216 3.87917 -4.18182 0
M  V30 7697 O 704.15 2.4536 -5.4962 0
M  V30 7698 H 707.976 0.254416 -3.02632 0
M  V30 7699 H 705.561 0.0595507 -1.49281 0
M  V30 7700 H 707.443 2.69816 -3.23693 0
M  V30 7701 H 706.118 2.49874 -2.05779 0
M  V30 7702 H 705.025 0.815924 -3.65094 0
M  V30 7703 H 706.358 1.09271 -4.79917 0
M  V30 7704 N 708.01 1.57248 0.105221 0
M  V30 7705 C 708.92 2.04653 1.14693 0
M  V30 7706 C 709.936 0.969488 1.44489 0
M  V30 7707 O 711.112 1.28196 1.55331 0
M  V30 7708 C 708.177 2.45297 2.45011 0
M  V30 7709 C 707.238 3.67148 2.22489 0
M  V30 7710 C 706.471 4.05844 3.46592 0
M  V30 7711 O 706.694 3.44736 4.54437 0
M  V30 7712 O 705.628 4.98862 3.36779 0
M  V30 7713 H 709.454 2.93663 0.774336 0
M  V30 7714 H 707.039 1.45998 0.31701 0
M  V30 7715 H 708.921 2.72112 3.21766 0
M  V30 7716 H 707.596 1.59429 2.81717 0
M  V30 7717 H 706.503 3.45463 1.43547 0
M  V30 7718 H 707.836 4.53764 1.9068 0
M  V30 7719 N 709.488 -0.375779 1.53054 0
M  V30 7720 C 710.737 -1.11674 1.67964 0
M  V30 7721 C 711.05 -1.90755 0.432655 0
M  V30 7722 O 712.256 -2.67538 0.462109 0
M  V30 7723 C 710.712 -2.0344 2.96884 0
M  V30 7724 C 710.32 -1.29719 4.28809 0
M  V30 7725 C 712.064 -2.7759 3.2116 0
M  V30 7726 C 709.971 -2.20327 5.48826 0
M  V30 7727 H 708.901 -0.420597 0.625791 0
M  V30 7728 H 711.552 -0.378499 1.79554 0
M  V30 7729 H 709.934 -2.80953 2.79072 0
M  V30 7730 H 711.108 -0.573394 4.57219 0
M  V30 7731 H 709.423 -0.674735 4.10897 0
M  V30 7732 H 712.02 -3.4559 4.0801 0
M  V30 7733 H 712.363 -3.42399 2.36789 0
M  V30 7734 H 712.896 -2.07164 3.396 0
M  V30 7735 H 709.635 -1.60113 6.35645 0
M  V30 7736 H 709.155 -2.90585 5.2471 0
M  V30 7737 H 710.834 -2.80116 5.83219 0
M  V30 7738 N 710.966 -1.44241 -0.634997 0
M  V30 7739 C 712.194 -1.50296 -1.42193 0
M  V30 7740 C 712.609 -0.12658 -1.88375 0
M  V30 7741 O 711.966 0.86678 -1.60603 0
M  V30 7742 C 712.017 -2.46437 -2.64482 0
M  V30 7743 O 711.738 -3.78724 -2.20226 0
M  V30 7744 C 713.239 -2.61918 -3.57651 0
M  V30 7745 H 710.459 -0.509865 -0.43621 0
M  V30 7746 H 713.003 -1.89167 -0.776921 0
M  V30 7747 H 711.158 -2.10712 -3.25083 0
M  V30 7748 H 711.572 -4.30595 -2.9948 0
M  V30 7749 H 713.046 -3.33225 -4.40074 0
M  V30 7750 H 713.523 -1.67017 -4.06204 0
M  V30 7751 H 714.129 -2.98528 -3.02921 0
M  V30 7752 N 712.444 0.87505 -1.31075 0
M  V30 7753 C 713.669 1.66583 -1.23551 0
M  V30 7754 C 714.094 1.87067 0.19686 0
M  V30 7755 O 713.452 1.40877 1.1412 0
M  V30 7756 C 713.5 3.01401 -1.97965 0
M  V30 7757 O 712.604 3.90923 -1.31351 0
M  V30 7758 H 711.945 0.508645 -0.426821 0
M  V30 7759 H 714.475 1.09139 -1.7306 0
M  V30 7760 H 714.485 3.51374 -2.07366 0
M  V30 7761 H 713.16 2.85812 -3.02133 0
M  V30 7762 H 711.737 3.49369 -1.30368 0
M  V30 7763 N 713.922 1.13953 1.08869 0
M  V30 7764 C 715.199 0.815768 1.77777 0
M  V30 7765 C 715.579 -0.691624 1.99449 0
M  V30 7766 O 714.927 -1.63085 1.60049 0
M  V30 7767 C 715.137 1.60916 3.09689 0
M  V30 7768 C 716.485 1.80549 3.84301 0
M  V30 7769 O 717.509 1.57562 3.19457 0
M  V30 7770 O 716.368 2.18946 5.00724 0
M  V30 7771 H 713.462 0.298445 0.771271 0
M  V30 7772 H 716.008 1.24446 1.15374 0
M  V30 7773 H 714.78 2.6333 2.89435 0
M  V30 7774 H 714.403 1.17578 3.79817 0
M  V30 7775 N 715.4 -1.26948 0.933913 0
M  V30 7776 C 716.628 -1.98186 0.59414 0
M  V30 7777 C 717.043 -1.69614 -0.829257 0
M  V30 7778 O 716.4 -0.960213 -1.55197 0
M  V30 7779 C 716.451 -3.52123 0.818026 0
M  V30 7780 O 716.172 -3.79698 2.18543 0
M  V30 7781 C 717.673 -4.40608 0.48781 0
M  V30 7782 H 714.893 -0.632305 0.224569 0
M  V30 7783 H 717.437 -1.61646 1.25263 0
M  V30 7784 H 715.592 -3.86851 0.206246 0
M  V30 7785 H 716.006 -4.7426 2.24005 0
M  V30 7786 H 717.48 -5.47606 0.695126 0
M  V30 7787 H 717.957 -4.35394 -0.576913 0
M  V30 7788 H 718.563 -4.11411 1.078 0
M  V30 7789 N 716.879 -0.700114 -1.41195 0
M  V30 7790 C 717.827 -0.0263301 -2.32585 0
M  V30 7791 C 718.821 0.763683 -1.51209 0
M  V30 7792 O 720.027 0.668793 -1.67114 0
M  V30 7793 H 716.402 0.0102869 -0.75193 0
M  V30 7794 H 718.373 -0.814087 -2.8708 0
M  V30 7795 C 717.122 0.892793 -3.36042 0
M  V30 7796 H 716.445 0.294306 -3.98715 0
M  V30 7797 H 717.885 1.33247 -4.02518 0
M  V30 7798 C 716.344 2.01109 -2.7029 0
M  V30 7799 O 716.874 3.10035 -2.55423 0
M  V30 7800 N 715.08 1.79015 -2.28915 0
M  V30 7801 H 714.627 0.904275 -2.41207 0
M  V30 7802 H 714.585 2.54022 -1.85257 0
M  V30 7803 N 718.357 1.51182 -0.445186 0
M  V30 7804 C 719.606 2.01342 0.120189 0
M  V30 7805 C 719.919 1.33353 1.43095 0
M  V30 7806 O 721.125 1.74525 2.07974 0
M  V30 7807 C 719.581 3.58925 0.264732 0
M  V30 7808 C 719.189 4.35855 -1.03606 0
M  V30 7809 C 720.933 4.17208 0.783455 0
M  V30 7810 C 718.84 5.85162 -0.856731 0
M  V30 7811 H 717.77 0.752426 0.0486922 0
M  V30 7812 H 720.421 1.74221 -0.576143 0
M  V30 7813 H 718.803 3.82525 1.02425 0
M  V30 7814 H 719.977 4.23997 -1.80452 0
M  V30 7815 H 718.292 3.89062 -1.48391 0
M  V30 7816 H 720.889 5.26475 0.934239 0
M  V30 7817 H 721.232 3.76892 1.768 0
M  V30 7818 H 721.765 3.97715 0.0820346 0
M  V30 7819 H 718.504 6.29904 -1.81388 0
M  V30 7820 H 718.024 5.99663 -0.128206 0
M  V30 7821 H 719.703 6.44963 -0.513027 0
M  V30 7822 N 719.835 0.176821 1.56605 0
M  V30 7823 C 720.745 -0.763682 2.21822 0
M  V30 7824 C 721.761 -1.24889 1.21156 0
M  V30 7825 O 722.937 -1.29987 1.53836 0
M  V30 7826 C 720.002 -1.97352 2.8505 0
M  V30 7827 C 719.063 -1.53466 4.00932 0
M  V30 7828 C 718.296 -2.68682 4.61135 0
M  V30 7829 O 718.519 -3.85694 4.20234 0
M  V30 7830 O 717.453 -2.42442 5.50913 0
M  V30 7831 H 721.279 -0.238363 3.02763 0
M  V30 7832 H 718.864 -0.0516331 1.49311 0
M  V30 7833 H 720.746 -2.68096 3.25119 0
M  V30 7834 H 719.421 -2.48779 2.07101 0
M  V30 7835 H 718.328 -0.796551 3.65521 0
M  V30 7836 H 719.661 -1.06724 4.8049 0
M  V30 7837 N 721.313 -1.57302 -0.09688 0
M  V30 7838 C 722.276 -2.00976 -1.10188 0
M  V30 7839 C 723.276 -0.903009 -1.3305 0
M  V30 7840 O 724.466 -1.16853 -1.29194 0
M  V30 7841 C 721.598 -2.36893 -2.45142 0
M  V30 7842 H 722.791 -2.9098 -0.726003 0
M  V30 7843 H 720.344 -1.52515 -0.341872 0
M  V30 7844 H 721.079 -1.49837 -2.8761 0
M  V30 7845 H 720.864 -3.17632 -2.29897 0
M  V30 7846 H 722.354 -2.71345 -3.1743 0
M  V30 7847 N 722.791 0.367657 -1.53252 0
M  V30 7848 C 723.754 1.43308 -1.78873 0
M  V30 7849 C 724.754 1.46671 -0.659115 0
M  V30 7850 O 725.944 1.47468 -0.927306 0
M  V30 7851 C 723.076 2.82442 -1.90892 0
M  V30 7852 H 724.269 1.21864 -2.74024 0
M  V30 7853 H 721.822 0.600668 -1.44297 0
M  V30 7854 H 722.557 3.09202 -0.978 0
M  V30 7855 H 722.342 2.81399 -2.73051 0
M  V30 7856 H 723.832 3.59601 -2.12314 0
M  V30 7857 N 724.269 1.44576 0.627338 0
M  V30 7858 C 725.179 1.54232 1.76776 0
M  V30 7859 C 726.195 0.427782 1.6866 0
M  V30 7860 O 727.371 0.685671 1.89369 0
M  V30 7861 C 724.436 1.48738 3.13174 0
M  V30 7862 C 723.497 2.71074 3.32893 0
M  V30 7863 C 722.73 2.65832 4.62784 0
M  V30 7864 O 722.953 1.72048 5.43834 0
M  V30 7865 O 721.887 3.56742 4.84787 0
M  V30 7866 H 725.713 2.50586 1.71582 0
M  V30 7867 H 723.298 1.26865 0.789028 0
M  V30 7868 H 725.18 1.48211 3.94476 0
M  V30 7869 H 723.855 0.555292 3.18902 0
M  V30 7870 H 722.762 2.77168 2.51254 0
M  V30 7871 H 724.095 3.63342 3.32029 0
M  V30 7872 N 725.747 -0.868086 1.31537 0
M  V30 7873 C 726.657 -2.00801 1.21311 0
M  V30 7874 C 727.673 -1.73518 0.129431 0
M  V30 7875 O 728.849 -1.98378 0.347588 0
M  V30 7876 C 725.914 -3.3419 0.922935 0
M  V30 7877 C 724.975 -3.74783 2.0937 0
M  V30 7878 C 724.208 -5.01807 1.81728 0
M  V30 7879 O 724.431 -5.65404 0.753313 0
M  V30 7880 O 723.365 -5.39213 2.67457 0
M  V30 7881 H 727.191 -2.12361 2.17109 0
M  V30 7882 H 724.776 -0.996684 1.11295 0
M  V30 7883 H 726.658 -4.14174 0.777033 0
M  V30 7884 H 725.333 -3.237 -0.00500301 0
M  V30 7885 H 724.24 -2.95432 2.29501 0
M  V30 7886 H 725.573 -3.89902 3.00396 0
M  V30 7887 N 727.225 -1.14528 -1.08264 0
M  V30 7888 C 728.173 -0.829201 -2.17318 0
M  V30 7889 C 729.167 0.193521 -1.68291 0
M  V30 7890 O 730.373 0.0494744 -1.79932 0
M  V30 7891 H 726.748 -0.250435 -0.709074 0
M  V30 7892 H 728.719 -1.75683 -2.41201 0
M  V30 7893 C 727.468 -0.324663 -3.46181 0
M  V30 7894 H 726.791 -1.10299 -3.84284 0
M  V30 7895 H 728.231 -0.142059 -4.23762 0
M  V30 7896 C 726.69 0.952033 -3.23169 0
M  V30 7897 O 727.22 2.02549 -3.46896 0
M  V30 7898 N 725.426 0.887854 -2.76705 0
M  V30 7899 H 724.973 0.0141402 -2.57596 0
M  V30 7900 H 724.931 1.74263 -2.61686 0
M  V30 7901 N 728.703 1.26451 -0.940633 0
M  V30 7902 C 729.952 1.93071 -0.583656 0
M  V30 7903 C 730.265 1.74618 0.881366 0
M  V30 7904 O 731.471 2.35689 1.34769 0
M  V30 7905 C 729.927 3.45927 -0.993106 0
M  V30 7906 C 729.535 3.73115 -2.4797 0
M  V30 7907 C 731.279 4.18554 -0.707998 0
M  V30 7908 C 729.186 5.19408 -2.82788 0
M  V30 7909 H 728.116 0.722824 -0.214572 0
M  V30 7910 H 730.767 1.43538 -1.1432 0
M  V30 7911 H 729.149 3.94341 -0.362099 0
M  V30 7912 H 730.323 3.35408 -3.15971 0
M  V30 7913 H 728.638 3.13719 -2.73805 0
M  V30 7914 H 731.235 5.26293 -0.94447 0
M  V30 7915 H 731.578 4.14782 0.355225 0
M  V30 7916 H 732.111 3.76003 -1.2987 0
M  V30 7917 H 728.85 5.28281 -3.88071 0
M  V30 7918 H 728.37 5.58214 -2.19449 0
M  V30 7919 H 730.049 5.87407 -2.71224 0
M  V30 7920 N 730.181 0.707592 1.40822 0
M  V30 7921 C 731.406 0.251626 2.05868 0
M  V30 7922 C 731.831 -1.09503 1.5294 0
M  V30 7923 O 731.189 -1.68806 0.661385 0
M  V30 7924 C 731.237 0.23287 3.59847 0
M  V30 7925 O 730.341 -0.788477 4.04792 0
M  V30 7926 H 729.682 0.119936 0.653078 0
M  V30 7927 H 732.212 0.96583 1.80369 0
M  V30 7928 H 732.222 0.0678204 4.07944 0
M  V30 7929 H 730.897 1.21565 3.97737 0
M  V30 7930 H 729.474 -0.591802 3.68174 0
M  V30 7931 N 731.66 -1.50943 0.453197 0
M  V30 7932 C 732.59 -2.31005 -0.34044 0
M  V30 7933 C 733.571 -1.37112 -1.00669 0
M  V30 7934 O 734.756 -1.66033 -1.0073 0
M  V30 7935 C 731.886 -3.16358 -1.433 0
M  V30 7936 C 730.84 -4.18658 -0.889363 0
M  V30 7937 C 730.166 -4.92633 -2.07887 0
M  V30 7938 C 731.466 -5.22227 0.0871142 0
M  V30 7939 H 733.16 -2.97601 0.327723 0
M  V30 7940 H 730.706 -1.43119 0.159054 0
M  V30 7941 H 732.659 -3.71155 -1.99555 0
M  V30 7942 H 731.383 -2.47613 -2.12968 0
M  V30 7943 H 730.042 -3.64936 -0.348915 0
M  V30 7944 H 729.69 -4.20376 -2.76211 0
M  V30 7945 H 729.39 -5.61819 -1.72143 0
M  V30 7946 H 730.914 -5.50258 -2.64666 0
M  V30 7947 H 732.328 -5.72001 -0.385656 0
M  V30 7948 H 730.725 -5.99032 0.357926 0
M  V30 7949 H 731.795 -4.74077 1.01879 0
M  V30 7950 N 733.138 -0.185124 -1.56509 0
M  V30 7951 C 734.415 0.503348 -1.89013 0
M  V30 7952 C 734.795 1.80349 -1.09715 0
M  V30 7953 O 734.143 2.27665 -0.195203 0
M  V30 7954 C 734.353 0.731839 -3.41241 0
M  V30 7955 C 735.701 1.05568 -4.11267 0
M  V30 7956 O 736.725 0.819906 -3.46635 0
M  V30 7957 O 735.584 1.50116 -5.25478 0
M  V30 7958 H 732.678 0.261139 -0.784688 0
M  V30 7959 H 735.224 -0.224592 -1.68207 0
M  V30 7960 H 733.996 -0.18672 -3.90854 0
M  V30 7961 H 733.619 1.5126 -3.67704 0
M  V30 7962 N 734.616 1.57351 0.0885366 0
M  V30 7963 C 735.546 2.05561 1.10757 0
M  V30 7964 C 736.527 0.945789 1.41382 0
M  V30 7965 O 737.712 1.21747 1.51299 0
M  V30 7966 C 734.842 2.48554 2.42566 0
M  V30 7967 C 733.796 3.63259 2.26334 0
M  V30 7968 C 733.122 3.9225 3.63378 0
M  V30 7969 C 734.422 4.93913 1.69844 0
M  V30 7970 H 736.116 2.90946 0.706468 0
M  V30 7971 H 733.662 1.39968 0.338385 0
M  V30 7972 H 735.615 2.8089 3.14132 0
M  V30 7973 H 734.339 1.60176 2.84625 0
M  V30 7974 H 732.998 3.31179 1.57213 0
M  V30 7975 H 732.646 3.0103 4.02976 0
M  V30 7976 H 732.346 4.69478 3.53362 0
M  V30 7977 H 733.87 4.27067 4.36401 0
M  V30 7978 H 735.284 5.24588 2.31258 0
M  V30 7979 H 733.681 5.75349 1.70569 0
M  V30 7980 H 734.751 4.80409 0.65843 0
M  V30 7981 N 736.094 -0.359525 1.53444 0
M  V30 7982 C 737.343 -1.09886 1.69139 0
M  V30 7983 C 737.656 -1.90285 0.452863 0
M  V30 7984 O 738.862 -2.67033 0.490459 0
M  V30 7985 C 737.318 -2.0028 2.99025 0
M  V30 7986 C 736.926 -1.25164 4.30161 0
M  V30 7987 C 738.67 -2.74168 3.24086 0
M  V30 7988 C 736.577 -2.14494 5.51132 0
M  V30 7989 H 735.507 -0.413936 0.630217 0
M  V30 7990 H 738.158 -0.359434 1.79945 0
M  V30 7991 H 736.54 -2.77978 2.82036 0
M  V30 7992 H 737.714 -0.524867 4.57801 0
M  V30 7993 H 736.029 -0.631116 4.11589 0
M  V30 7994 H 738.626 -3.41243 4.11652 0
M  V30 7995 H 738.969 -3.39868 2.40407 0
M  V30 7996 H 739.502 -2.0355 3.41778 0
M  V30 7997 H 736.241 -1.53362 6.37307 0
M  V30 7998 H 735.761 -2.85004 5.27762 0
M  V30 7999 H 737.44 -2.73914 5.86157 0
M  V30 8000 N 737.572 -1.44907 -0.619662 0
M  V30 8001 C 738.504 -1.48652 -1.74457 0
M  V30 8002 C 739.517 -0.378596 -1.58337 0
M  V30 8003 O 740.706 -0.644987 -1.6644 0
M  V30 8004 C 737.806 -1.31568 -3.12319 0
M  V30 8005 C 736.979 -2.55816 -3.54792 0
M  V30 8006 C 736.038 -2.33465 -4.71573 0
M  V30 8007 O 735.064 -3.07015 -4.79302 0
M  V30 8008 N 736.266 -1.37254 -5.6404 0
M  V30 8009 H 739.031 -2.45632 -1.71712 0
M  V30 8010 H 736.592 -1.40492 -0.804582 0
M  V30 8011 H 738.584 -1.14445 -3.88181 0
M  V30 8012 H 737.154 -0.429095 -3.09641 0
M  V30 8013 H 736.374 -2.88137 -2.69018 0
M  V30 8014 H 737.662 -3.38431 -3.79924 0
M  V30 8015 H 737.06 -0.765309 -5.60499 0
M  V30 8016 H 735.617 -1.26106 -6.39485 0
M  V30 8017 N 739.05 0.861098 -1.31996 0
M  V30 8018 C 739.982 1.97551 -1.16216 0
M  V30 8019 C 740.995 1.625 -0.0988527 0
M  V30 8020 O 742.184 1.75091 -0.3472 0
M  V30 8021 C 739.284 3.30376 -0.755307 0
M  V30 8022 C 738.457 3.93711 -1.90552 0
M  V30 8023 C 737.516 5.04862 -1.48328 0
M  V30 8024 O 736.542 5.25204 -2.19431 0
M  V30 8025 N 737.744 5.79283 -0.375656 0
M  V30 8026 H 740.509 2.11632 -2.12208 0
M  V30 8027 H 738.07 1.03559 -1.24448 0
M  V30 8028 H 740.062 4.0213 -0.455364 0
M  V30 8029 H 738.632 3.12395 0.113269 0
M  V30 8030 H 737.852 3.14825 -2.37231 0
M  V30 8031 H 739.14 4.32762 -2.67571 0
M  V30 8032 H 738.538 5.65286 0.216284 0
M  V30 8033 H 737.095 6.5166 -0.135289 0
M  V30 8034 N 740.528 1.15101 1.07655 0
M  V30 8035 C 741.758 0.946357 1.83651 0
M  V30 8036 C 742.166 -0.508641 1.82235 0
M  V30 8037 O 741.509 -1.36445 1.22997 0
M  V30 8038 C 741.571 1.37945 3.31981 0
M  V30 8039 C 741.235 2.85155 3.57122 0
M  V30 8040 C 742.232 3.83234 3.51323 0
M  V30 8041 C 739.917 3.2275 3.84887 0
M  V30 8042 C 741.911 5.16914 3.72932 0
M  V30 8043 C 739.598 4.56604 4.06148 0
M  V30 8044 C 740.596 5.53495 4.00165 0
M  V30 8045 O 740.284 6.84931 4.20861 0
M  V30 8046 H 740.016 0.336368 0.586372 0
M  V30 8047 H 742.57 1.53198 1.36819 0
M  V30 8048 H 740.8 0.737205 3.79608 0
M  V30 8049 H 742.489 1.14439 3.89434 0
M  V30 8050 H 743.255 3.55535 3.29878 0
M  V30 8051 H 739.134 2.47921 3.88659 0
M  V30 8052 H 742.678 5.92529 3.68178 0
M  V30 8053 H 738.575 4.84019 4.27078 0
M  V30 8054 H 739.343 6.91304 4.38226 0
M  V30 8055 N 742.006 -1.2595 0.947325 0
M  V30 8056 C 743.236 -1.97258 0.614235 0
M  V30 8057 C 743.644 -1.70682 -0.816355 0
M  V30 8058 O 742.987 -0.97527 -1.55673 0
M  V30 8059 C 743.049 -3.50845 0.784081 0
M  V30 8060 C 742.713 -4.01084 2.19045 0
M  V30 8061 C 743.71 -4.12347 3.16648 0
M  V30 8062 C 741.395 -4.34936 2.51268 0
M  V30 8063 C 743.389 -4.56766 4.44572 0
M  V30 8064 C 741.076 -4.79043 3.79422 0
M  V30 8065 C 742.074 -4.89919 4.75887 0
M  V30 8066 O 741.762 -5.3305 6.01758 0
M  V30 8067 H 741.494 -0.635738 0.22981 0
M  V30 8068 H 744.048 -1.61268 1.27207 0
M  V30 8069 H 742.278 -3.86638 0.069101 0
M  V30 8070 H 743.967 -4.03363 0.453135 0
M  V30 8071 H 744.733 -3.86432 2.93079 0
M  V30 8072 H 740.612 -4.25702 1.76916 0
M  V30 8073 H 744.156 -4.6517 5.19868 0
M  V30 8074 H 740.053 -5.04402 4.02802 0
M  V30 8075 H 740.821 -5.51255 6.05029 0
M  V30 8076 N 743.484 -0.715051 -1.40445 0
M  V30 8077 C 744.414 -0.0768699 -2.33373 0
M  V30 8078 C 745.395 0.746109 -1.52863 0
M  V30 8079 O 746.58 0.695142 -1.81332 0
M  V30 8080 C 743.71 0.846014 -3.36838 0
M  V30 8081 C 742.664 0.128694 -4.27806 0
M  V30 8082 C 741.99 1.16726 -5.21804 0
M  V30 8083 C 743.29 -1.01679 -5.12307 0
M  V30 8084 H 744.984 -0.853061 -2.8699 0
M  V30 8085 H 742.53 -0.41167 -1.3799 0
M  V30 8086 H 744.483 1.30185 -4.00786 0
M  V30 8087 H 743.207 1.6541 -2.81615 0
M  V30 8088 H 741.866 -0.307314 -3.6531 0
M  V30 8089 H 741.514 1.96838 -4.62887 0
M  V30 8090 H 741.214 0.692188 -5.83509 0
M  V30 8091 H 742.738 1.62321 -5.88629 0
M  V30 8092 H 744.152 -0.640337 -5.69713 0
M  V30 8093 H 742.549 -1.4202 -5.83053 0
M  V30 8094 H 743.619 -1.84769 -4.48317 0
M  V30 8095 N 744.962 1.50701 -0.461195 0
M  V30 8096 C 746.19 2.06681 0.0951756 0
M  V30 8097 C 746.605 1.32615 1.34382 0
M  V30 8098 O 745.962 0.392531 1.78229 0
M  V30 8099 C 746.013 3.59354 0.393316 0
M  V30 8100 O 745.734 4.30626 -0.805797 0
M  V30 8101 C 747.235 4.31926 0.997744 0
M  V30 8102 H 744.455 0.670995 -0.00267259 0
M  V30 8103 H 746.999 1.93991 -0.647137 0
M  V30 8104 H 745.154 3.7188 1.08555 0
M  V30 8105 H 745.568 5.21667 -0.544409 0
M  V30 8106 H 747.042 5.39756 1.15619 0
M  V30 8107 H 747.519 3.91772 1.98523 0
M  V30 8108 H 748.125 4.23905 0.344188 0
M  V30 8109 N 746.441 0.193421 1.56409 0
M  V30 8110 C 747.688 -0.445789 1.97532 0
M  V30 8111 C 748.016 -1.61744 1.08024 0
M  V30 8112 O 747.271 -1.95338 0.118982 0
M  V30 8113 C 747.57 -0.949718 3.44551 0
M  V30 8114 C 747.236 0.108383 4.5077 0
M  V30 8115 C 745.898 0.399126 4.79542 0
M  V30 8116 C 748.25 0.825423 5.14622 0
M  V30 8117 C 745.578 1.41192 5.69457 0
M  V30 8118 C 747.93 1.82735 6.05632 0
M  V30 8119 C 746.594 2.12531 6.32761 0
M  V30 8120 H 745.864 -0.163126 0.722822 0
M  V30 8121 H 748.511 0.290035 1.89291 0
M  V30 8122 H 746.816 -1.76378 3.49854 0
M  V30 8123 H 748.513 -1.45367 3.73724 0
M  V30 8124 H 745.103 -0.128392 4.28408 0
M  V30 8125 H 749.287 0.61403 4.92487 0
M  V30 8126 H 744.543 1.6487 5.88751 0
M  V30 8127 H 748.717 2.3882 6.5417 0
M  V30 8128 H 746.344 2.91155 7.02234 0
M  V30 8129 N 747.919 -1.57396 -0.0801906 0
M  V30 8130 C 748.867 -2.04136 -1.11495 0
M  V30 8131 C 749.861 -0.945137 -1.40583 0
M  V30 8132 O 751.067 -1.13028 -1.40088 0
M  V30 8133 H 747.442 -0.65076 -0.37685 0
M  V30 8134 H 749.413 -2.90205 -0.694526 0
M  V30 8135 C 748.162 -2.49399 -2.42272 0
M  V30 8136 H 747.485 -3.33339 -2.20737 0
M  V30 8137 H 748.925 -2.85864 -3.13142 0
M  V30 8138 C 747.384 -1.37341 -3.07635 0
M  V30 8139 O 747.914 -0.710829 -3.95361 0
M  V30 8140 N 746.12 -1.12064 -2.68123 0
M  V30 8141 H 745.667 -1.66126 -1.96875 0
M  V30 8142 H 745.625 -0.372916 -3.12181 0
M  V30 8143 N 749.397 0.351382 -1.53633 0
M  V30 8144 C 750.644 1.0925 -1.70502 0
M  V30 8145 C 750.972 1.88881 -0.464123 0
M  V30 8146 O 750.227 1.87693 0.554077 0
M  V30 8147 C 750.526 2.06744 -2.91533 0
M  V30 8148 C 750.192 1.43484 -4.27461 0
M  V30 8149 C 748.854 1.2596 -4.64422 0
M  V30 8150 C 751.206 0.978436 -5.11934 0
M  V30 8151 C 748.534 0.614017 -5.83478 0
M  V30 8152 C 750.886 0.346795 -6.31649 0
M  V30 8153 C 749.55 0.15917 -6.6731 0
M  V30 8154 H 748.82 0.399773 -0.623909 0
M  V30 8155 H 751.467 0.372656 -1.87839 0
M  V30 8156 H 749.772 2.85082 -2.68767 0
M  V30 8157 H 751.469 2.64066 -3.01778 0
M  V30 8158 H 748.059 1.5812 -3.98367 0
M  V30 8159 H 752.243 1.1017 -4.83918 0
M  V30 8160 H 747.499 0.457194 -6.09688 0
M  V30 8161 H 751.673 -0.0149864 -6.96398 0
M  V30 8162 H 749.3 -0.343129 -7.59425 0
M  V30 8163 N 750.875 1.45233 0.611969 0
M  V30 8164 C 752.152 1.39495 1.37115 0
M  V30 8165 C 752.532 0.0633303 2.11005 0
M  V30 8166 O 751.88 -0.954617 2.07604 0
M  V30 8167 C 752.09 2.60579 2.32163 0
M  V30 8168 C 753.438 3.05477 2.94905 0
M  V30 8169 O 754.462 2.60921 2.42485 0
M  V30 8170 O 753.321 3.82787 3.90047 0
M  V30 8171 H 750.415 0.55335 0.614599 0
M  V30 8172 H 752.961 1.57355 0.635423 0
M  V30 8173 H 751.733 3.49085 1.76793 0
M  V30 8174 H 751.356 2.45031 3.13122 0
M  V30 8175 N 752.353 -0.854086 1.3245 0
M  V30 8176 C 753.301 -1.98411 1.21391 0
M  V30 8177 C 754.295 -1.68984 0.118586 0
M  V30 8178 O 755.501 -1.77784 0.281549 0
M  V30 8179 H 751.876 -0.651077 0.376301 0
M  V30 8180 H 753.847 -2.04867 2.16961 0
M  V30 8181 C 752.596 -3.34345 0.954407 0
M  V30 8182 H 751.919 -3.57518 1.78944 0
M  V30 8183 H 753.359 -4.13959 0.917269 0
M  V30 8184 C 751.818 -3.35151 -0.342838 0
M  V30 8185 O 752.348 -3.78174 -1.35452 0
M  V30 8186 N 750.554 -2.88298 -0.365012 0
M  V30 8187 H 750.101 -2.53481 0.4588 0
M  V30 8188 H 750.059 -2.8922 -1.23284 0
M  V30 8189 N 753.831 -1.1567 -1.07043 0
M  V30 8190 C 754.741 -0.870435 -2.17855 0
M  V30 8191 C 755.757 0.154452 -1.73313 0
M  V30 8192 O 756.933 -0.0203759 -2.0139 0
M  V30 8193 C 753.998 -0.367219 -3.4475 0
M  V30 8194 C 753.059 -1.45639 -4.03841 0
M  V30 8195 C 752.292 -0.977092 -5.2468 0
M  V30 8196 O 752.515 0.176127 -5.70128 0
M  V30 8197 O 751.449 -1.76215 -5.75527 0
M  V30 8198 H 755.275 -1.79687 -2.44839 0
M  V30 8199 H 752.86 -0.936064 -1.1644 0
M  V30 8200 H 754.742 -0.0931947 -4.21297 0
M  V30 8201 H 753.417 0.53131 -3.1931 0
M  V30 8202 H 752.324 -1.78406 -3.28819 0
M  V30 8203 H 753.657 -2.32995 -4.3356 0
M  V30 8204 N 755.309 1.25446 -0.953992 0
M  V30 8205 C 756.72 1.75047 -0.649255 0
M  V30 8206 C 757.071 1.77527 0.835385 0
M  V30 8207 O 756.196 1.39569 1.65377 0
M  V30 8208 C 756.791 3.17889 -1.17183 0
M  V30 8209 C 755.35 3.65052 -0.917267 0
M  V30 8210 C 754.497 2.44124 -1.31525 0
M  V30 8211 H 757.448 1.11342 -1.13087 0
M  V30 8212 H 757.469 3.76768 -0.531616 0
M  V30 8213 H 756.981 3.16052 -2.25239 0
M  V30 8214 H 755.082 3.72305 0.148354 0
M  V30 8215 H 755.195 4.53222 -1.55328 0
M  V30 8216 H 753.559 2.43906 -0.733624 0
M  V30 8217 H 754.342 2.44979 -2.405 0
M  V30 8218 N 756.787 0.722489 1.40064 0
M  V30 8219 C 757.697 0.0755984 2.34478 0
M  V30 8220 C 758.713 -0.736046 1.57665 0
M  V30 8221 O 759.889 -0.667407 1.9002 0
M  V30 8222 C 756.954 -0.830075 3.36616 0
M  V30 8223 C 756.015 -0.00759884 4.29299 0
M  V30 8224 C 755.248 -0.870139 5.26559 0
M  V30 8225 O 755.471 -2.10921 5.2997 0
M  V30 8226 O 754.405 -0.305454 6.01124 0
M  V30 8227 H 758.231 0.854545 2.9143 0
M  V30 8228 H 755.816 0.483032 1.41376 0
M  V30 8229 H 757.698 -1.34864 3.99236 0
M  V30 8230 H 756.373 -1.58805 2.82069 0
M  V30 8231 H 755.28 0.556199 3.69942 0
M  V30 8232 H 756.613 0.712312 4.87018 0
M  V30 8233 N 758.265 -1.50454 0.469181 0
M  V30 8234 C 759.213 -2.30101 -0.340033 0
M  V30 8235 C 760.207 -1.37306 -0.992135 0
M  V30 8236 O 761.413 -1.54506 -0.923458 0
M  V30 8237 H 757.788 -0.740941 -0.128495 0
M  V30 8238 H 759.759 -2.96315 0.352144 0
M  V30 8239 C 758.508 -3.17804 -1.41052 0
M  V30 8240 H 757.831 -3.89115 -0.918124 0
M  V30 8241 H 759.271 -3.76533 -1.94934 0
M  V30 8242 C 757.73 -2.35272 -2.4114 0
M  V30 8243 O 758.26 -2.03448 -3.4637 0
M  V30 8244 N 756.466 -1.97889 -2.1281 0
M  V30 8245 H 756.013 -2.2397 -1.27261 0
M  V30 8246 H 755.971 -1.42971 -2.80012 0
M  V30 8247 N 759.743 -0.201713 -1.56304 0
M  V30 8248 C 760.992 0.435557 -1.96941 0
M  V30 8249 C 761.305 1.62299 -1.09172 0
M  V30 8250 O 762.511 2.32849 -1.3962 0
M  V30 8251 C 760.967 0.826298 -3.50286 0
M  V30 8252 C 760.575 -0.337216 -4.46729 0
M  V30 8253 C 762.319 1.43028 -3.99679 0
M  V30 8254 C 760.226 0.0748539 -5.91353 0
M  V30 8255 H 759.156 0.1665 -0.735387 0
M  V30 8256 H 761.807 -0.294781 -1.81117 0
M  V30 8257 H 760.189 1.61349 -3.61639 0
M  V30 8258 H 761.363 -1.11476 -4.47113 0
M  V30 8259 H 759.678 -0.853126 -4.07567 0
M  V30 8260 H 762.275 1.75115 -5.05212 0
M  V30 8261 H 762.618 2.33911 -3.44371 0
M  V30 8262 H 763.151 0.706924 -3.91468 0
M  V30 8263 H 759.89 -0.799957 -6.506 0
M  V30 8264 H 759.41 0.817122 -5.94208 0
M  V30 8265 H 761.089 0.508389 -6.45 0
M  V30 8266 N 761.222 1.57436 0.0718424 0
M  V30 8267 C 762.447 1.91858 0.787745 0
M  V30 8268 C 762.872 0.798119 1.70328 0
M  V30 8269 O 762.23 -0.24905 1.79581 0
M  V30 8270 C 762.278 3.25232 1.55744 0
M  V30 8271 O 761.382 3.14462 2.6681 0
M  V30 8272 H 760.723 0.628258 0.214914 0
M  V30 8273 H 763.253 2.04561 0.0401012 0
M  V30 8274 H 763.263 3.59105 1.9367 0
M  V30 8275 H 761.938 4.0636 0.885691 0
M  V30 8276 H 760.515 2.92148 2.31741 0
M  V30 8277 N 762.7 -0.34323 1.53817 0
M  V30 8278 C 763.949 -1.08086 1.70295 0
M  V30 8279 C 764.262 -1.89794 0.47302 0
M  V30 8280 O 765.468 -2.66498 0.518754 0
M  V30 8281 C 763.924 -1.97097 3.01133 0
M  V30 8282 C 763.532 -1.20594 4.31464 0
M  V30 8283 C 765.276 -2.70715 3.26976 0
M  V30 8284 C 763.183 -2.08636 5.53376 0
M  V30 8285 H 762.113 -0.407228 0.634572 0
M  V30 8286 H 764.764 -0.340328 1.80316 0
M  V30 8287 H 763.146 -2.74971 2.84969 0
M  V30 8288 H 764.32 -0.476282 4.58332 0
M  V30 8289 H 762.635 -0.587426 4.12236 0
M  V30 8290 H 765.232 -3.36857 4.15248 0
M  V30 8291 H 765.575 -3.37299 2.43998 0
M  V30 8292 H 766.108 -1.99914 3.43917 0
M  V30 8293 H 762.847 -1.46594 6.38898 0
M  V30 8294 H 762.367 -2.7939 5.30755 0
M  V30 8295 H 764.046 -2.67682 5.89029 0
M  V30 8296 N 764.178 -1.45556 -0.604258 0
M  V30 8297 C 765.088 -1.57025 -1.74299 0
M  V30 8298 C 766.104 -0.45456 -1.67958 0
M  V30 8299 O 767.28 -0.715711 -1.88254 0
M  V30 8300 C 764.345 -1.53702 -3.10768 0
M  V30 8301 C 763.406 -2.76335 -3.28538 0
M  V30 8302 C 762.639 -2.73161 -4.58496 0
M  V30 8303 O 762.862 -1.80678 -5.41028 0
M  V30 8304 O 761.796 -3.64409 -4.79051 0
M  V30 8305 H 765.622 -2.53284 -1.67573 0
M  V30 8306 H 763.207 -1.28104 -0.768745 0
M  V30 8307 H 765.089 -1.54468 -3.92068 0
M  V30 8308 H 763.764 -0.605957 -3.17978 0
M  V30 8309 H 762.671 -2.8113 -2.46813 0
M  V30 8310 H 764.004 -3.68578 -3.26207 0
M  V30 8311 N 765.656 0.84705 -1.32902 0
M  V30 8312 C 766.604 1.97765 -1.22441 0
M  V30 8313 C 767.598 1.68919 -0.127546 0
M  V30 8314 O 768.804 1.77633 -0.290973 0
M  V30 8315 H 765.179 0.649072 -0.379748 0
M  V30 8316 H 767.15 2.03713 -2.18044 0
M  V30 8317 C 765.899 3.33834 -0.972125 0
M  V30 8318 H 765.222 3.56564 -1.80837 0
M  V30 8319 H 766.662 4.13467 -0.939209 0
M  V30 8320 C 765.121 3.35328 0.325059 0
M  V30 8321 O 765.651 3.78887 1.33445 0
M  V30 8322 N 763.857 2.88488 0.349718 0
M  V30 8323 H 763.404 2.53234 -0.472236 0
M  V30 8324 H 763.362 2.8987 1.21748 0
M  V30 8325 N 767.134 1.16236 1.06428 0
M  V30 8326 C 768.064 0.890807 2.1584 0
M  V30 8327 C 769.045 -0.162333 1.69324 0
M  V30 8328 O 770.23 -0.0147191 1.94194 0
M  V30 8329 C 767.36 0.389615 3.45108 0
M  V30 8330 C 766.314 1.38051 4.05125 0
M  V30 8331 C 765.64 0.737773 5.29586 0
M  V30 8332 C 766.94 2.74965 4.44062 0
M  V30 8333 H 768.634 1.80577 2.38814 0
M  V30 8334 H 766.18 0.869657 1.14774 0
M  V30 8335 H 768.133 0.187127 4.20984 0
M  V30 8336 H 766.857 -0.560851 3.21748 0
M  V30 8337 H 765.516 1.56952 3.31303 0
M  V30 8338 H 765.164 -0.219135 5.02522 0
M  V30 8339 H 764.864 1.39914 5.70699 0
M  V30 8340 H 766.388 0.545275 6.0816 0
M  V30 8341 H 767.802 2.59855 5.11027 0
M  V30 8342 H 766.199 3.37563 4.96156 0
M  V30 8343 H 767.269 3.30321 3.54987 0
M  V30 8344 N 768.612 -1.24939 0.960631 0
M  V30 8345 C 769.837 -1.9742 0.635608 0
M  V30 8346 C 770.262 -1.70857 -0.786737 0
M  V30 8347 O 769.62 -0.968063 -1.53291 0
M  V30 8348 C 769.668 -3.48987 0.907771 0
M  V30 8349 O 768.772 -4.12399 -0.0104053 0
M  V30 8350 H 768.113 -0.61871 0.241027 0
M  V30 8351 H 770.643 -1.58901 1.28886 0
M  V30 8352 H 770.653 -3.99334 0.836453 0
M  V30 8353 H 769.328 -3.6765 1.94439 0
M  V30 8354 H 767.905 -3.72727 0.113631 0
M  V30 8355 N 770.09 -0.729906 -1.39679 0
M  V30 8356 C 771.315 -0.284345 -2.05442 0
M  V30 8357 C 771.74 1.07056 -1.54663 0
M  V30 8358 O 771.098 1.67732 -0.688157 0
M  V30 8359 C 771.146 -0.290089 -3.59431 0
M  V30 8360 O 770.25 0.723978 -4.05995 0
M  V30 8361 H 769.591 -0.130311 -0.651088 0
M  V30 8362 H 772.121 -0.994403 -1.78809 0
M  V30 8363 H 772.131 -0.132712 -4.07784 0
M  V30 8364 H 770.806 -1.27877 -3.95753 0
M  V30 8365 H 769.383 0.533154 -3.69069 0
M  V30 8366 N 771.568 1.50203 -0.477153 0
M  V30 8367 C 772.845 1.95115 0.137609 0
M  V30 8368 C 773.225 1.41778 1.56404 0
M  V30 8369 O 772.573 0.621333 2.1989 0
M  V30 8370 C 772.783 3.4892 0.0747168 0
M  V30 8371 C 774.131 4.238 0.260585 0
M  V30 8372 O 775.155 3.5588 0.151021 0
M  V30 8373 O 774.014 5.44366 0.482534 0
M  V30 8374 H 771.108 0.81987 0.108364 0
M  V30 8375 H 773.654 1.60946 -0.537989 0
M  V30 8376 H 772.426 3.80308 -0.920966 0
M  V30 8377 H 772.049 3.89642 0.791509 0
M  V30 8378 N 773.046 0.209999 1.56195 0
M  V30 8379 C 774.295 -0.425106 1.97169 0
M  V30 8380 C 774.608 -1.61718 1.10031 0
M  V30 8381 O 775.814 -2.32105 1.40853 0
M  V30 8382 C 774.27 -0.80771 3.50719 0
M  V30 8383 C 773.878 0.360902 4.46544 0
M  V30 8384 C 775.622 -1.40906 4.00432 0
M  V30 8385 C 773.529 -0.0434919 5.91384 0
M  V30 8386 H 772.459 -0.162598 0.736259 0
M  V30 8387 H 775.11 0.304382 1.80958 0
M  V30 8388 H 773.492 -1.59429 3.62489 0
M  V30 8389 H 774.666 1.13846 4.46515 0
M  V30 8390 H 772.981 0.874729 4.07109 0
M  V30 8391 H 775.578 -1.72433 5.06133 0
M  V30 8392 H 775.921 -2.32081 3.45607 0
M  V30 8393 H 776.454 -0.686154 3.91838 0
M  V30 8394 H 773.193 0.834448 6.50167 0
M  V30 8395 H 772.713 -0.785598 5.94633 0
M  V30 8396 H 774.392 -0.474176 6.4526 0
M  V30 8397 N 774.524 -1.57472 -0.0634922 0
M  V30 8398 C 775.773 -1.86837 -0.759928 0
M  V30 8399 C 776.086 -0.803823 -1.7832 0
M  V30 8400 O 777.292 -0.985578 -2.52979 0
M  V30 8401 C 775.748 -3.31448 -1.4025 0
M  V30 8402 C 775.356 -4.46052 -0.417368 0
M  V30 8403 C 777.1 -3.70003 -2.08082 0
M  V30 8404 C 775.007 -5.81707 -1.06633 0
M  V30 8405 H 773.937 -0.697009 -0.287567 0
M  V30 8406 H 776.588 -1.83495 -0.0133914 0
M  V30 8407 H 774.97 -3.29427 -2.19759 0
M  V30 8408 H 776.144 -4.5948 0.348503 0
M  V30 8409 H 774.459 -4.16104 0.156955 0
M  V30 8410 H 777.056 -4.68653 -2.57426 0
M  V30 8411 H 777.399 -3.00226 -2.88393 0
M  V30 8412 H 777.932 -3.7405 -1.35394 0
M  V30 8413 H 774.671 -6.54798 -0.303374 0
M  V30 8414 H 774.191 -5.72064 -1.80286 0
M  V30 8415 H 775.87 -6.27317 -1.58376 0
M  V30 8416 N 776.003 0.335068 -1.53997 0
M  V30 8417 C 777.251 1.07223 -1.71312 0
M  V30 8418 C 777.572 1.88911 -0.483486 0
M  V30 8419 O 776.842 1.89344 0.50257 0
M  V30 8420 H 775.422 0.398846 -0.63161 0
M  V30 8421 H 778.084 0.374288 -1.91272 0
M  V30 8422 H 777.18 1.7448 -2.58772 0
M  V30 8423 N 777.481 1.45874 0.596531 0
M  V30 8424 C 778.413 1.51408 1.7207 0
M  V30 8425 C 779.426 0.403738 1.57714 0
M  V30 8426 O 780.615 0.671384 1.65393 0
M  V30 8427 C 777.715 1.3652 3.10186 0
M  V30 8428 C 776.888 2.61428 3.50677 0
M  V30 8429 C 775.947 2.40937 4.67799 0
M  V30 8430 O 774.973 3.14602 4.74357 0
M  V30 8431 N 776.175 1.4621 5.61785 0
M  V30 8432 H 778.94 2.48333 1.67782 0
M  V30 8433 H 776.501 1.41755 0.782129 0
M  V30 8434 H 778.493 1.20606 3.86311 0
M  V30 8435 H 777.063 0.478302 3.08919 0
M  V30 8436 H 776.283 2.92381 2.644 0
M  V30 8437 H 777.571 3.44432 3.74491 0
M  V30 8438 H 776.969 0.854382 5.59211 0
M  V30 8439 H 775.526 1.36264 6.37397 0
M  V30 8440 N 778.959 -0.83999 1.33349 0
M  V30 8441 C 779.889 -1.965 1.26135 0
M  V30 8442 C 780.87 -1.69505 0.142152 0
M  V30 8443 O 782.055 -1.91346 0.331743 0
M  V30 8444 C 779.185 -3.32632 0.99866 0
M  V30 8445 C 778.139 -3.74021 2.08068 0
M  V30 8446 C 777.465 -5.07947 1.67014 0
M  V30 8447 C 778.765 -3.87925 3.49731 0
M  V30 8448 H 780.459 -2.02793 2.20262 0
M  V30 8449 H 778.005 -0.974297 1.06035 0
M  V30 8450 H 779.958 -4.10903 0.934696 0
M  V30 8451 H 778.682 -3.26593 0.0217759 0
M  V30 8452 H 777.341 -2.98012 2.13505 0
M  V30 8453 H 776.989 -4.98378 0.680316 0
M  V30 8454 H 776.689 -5.36611 2.39422 0
M  V30 8455 H 778.213 -5.88695 1.62082 0
M  V30 8456 H 779.627 -4.5651 3.46802 0
M  V30 8457 H 778.024 -4.28023 4.20614 0
M  V30 8458 H 779.094 -2.90407 3.88319 0
M  V30 8459 N 780.437 -1.16799 -1.0581 0
M  V30 8460 C 781.347 -0.893492 -2.16919 0
M  V30 8461 C 782.363 0.136061 -1.73467 0
M  V30 8462 O 783.539 -0.0417348 -2.01357 0
M  V30 8463 C 780.604 -0.403763 -3.44341 0
M  V30 8464 C 779.665 -1.49914 -4.02274 0
M  V30 8465 C 778.898 -1.03269 -5.23614 0
M  V30 8466 O 779.121 0.115647 -5.70283 0
M  V30 8467 O 778.055 -1.8231 -5.73626 0
M  V30 8468 H 781.881 -1.82274 -2.42919 0
M  V30 8469 H 779.466 -0.948361 -1.1544 0
M  V30 8470 H 781.348 -0.137874 -4.21174 0
M  V30 8471 H 780.023 0.497413 -3.19855 0
M  V30 8472 H 778.93 -1.81883 -3.26909 0
M  V30 8473 H 780.263 -2.3758 -4.31064 0
M  V30 8474 N 781.915 1.24427 -0.967243 0
M  V30 8475 C 782.845 2.2773 -0.515899 0
M  V30 8476 C 783.826 1.64197 0.444227 0
M  V30 8477 O 785.011 1.91193 0.340451 0
M  V30 8478 C 782.141 3.46751 0.195149 0
M  V30 8479 C 781.095 4.22548 -0.680953 0
M  V30 8480 C 780.421 5.34456 0.161561 0
M  V30 8481 C 781.721 4.83914 -1.96532 0
M  V30 8482 H 783.415 2.65735 -1.37933 0
M  V30 8483 H 780.961 1.27742 -0.664681 0
M  V30 8484 H 782.914 4.18153 0.522117 0
M  V30 8485 H 781.638 3.07771 1.09292 0
M  V30 8486 H 780.297 3.52946 -0.991186 0
M  V30 8487 H 779.945 4.91716 1.05947 0
M  V30 8488 H 779.645 5.86087 -0.421418 0
M  V30 8489 H 781.169 6.08685 0.483211 0
M  V30 8490 H 782.583 5.47392 -1.70396 0
M  V30 8491 H 780.98 5.45775 -2.49499 0
M  V30 8492 H 782.05 4.05393 -2.66053 0
M  V30 8493 N 783.393 0.737304 1.3929 0
M  V30 8494 C 784.326 0.0475454 2.2815 0
M  V30 8495 C 785.304 -0.745314 1.44512 0
M  V30 8496 O 786.488 -0.727387 1.739 0
M  V30 8497 C 783.615 -0.939803 3.254 0
M  V30 8498 C 782.661 -0.235153 4.25851 0
M  V30 8499 S 783.494 1.05252 5.25055 0
M  V30 8500 C 784.65 0.0678242 6.25863 0
M  V30 8501 H 784.883 0.801117 2.86303 0
M  V30 8502 H 782.416 0.529197 1.45048 0
M  V30 8503 H 784.374 -1.50417 3.81949 0
M  V30 8504 H 783.035 -1.66623 2.66262 0
M  V30 8505 H 782.228 -0.982336 4.94334 0
M  V30 8506 H 781.83 0.257245 3.73114 0
M  V30 8507 H 784.122 -0.771779 6.7309 0
M  V30 8508 H 785.065 0.719858 7.04431 0
M  V30 8509 H 785.473 -0.305604 5.63672 0
M  V30 8510 N 784.871 -1.49948 0.485112 0
M  V30 8511 C 786.282 -1.8667 0.0334041 0
M  V30 8512 C 786.633 -1.3988 -1.37579 0
M  V30 8513 O 785.758 -0.769788 -2.02245 0
M  V30 8514 C 786.353 -3.38757 0.0538426 0
M  V30 8515 C 784.912 -3.74839 -0.342453 0
M  V30 8516 C 784.059 -2.73894 0.433281 0
M  V30 8517 H 787.01 -1.42492 0.698699 0
M  V30 8518 H 787.031 -3.73132 -0.745146 0
M  V30 8519 H 786.543 -3.72782 1.07959 0
M  V30 8520 H 784.644 -3.46419 -1.37203 0
M  V30 8521 H 784.757 -4.79088 -0.0340503 0
M  V30 8522 H 783.121 -2.54441 -0.114849 0
M  V30 8523 H 783.904 -3.10763 1.45881 0
M  V30 8524 N 786.349 -0.21828 -1.56081 0
M  V30 8525 C 787.297 0.709679 -2.21509 0
M  V30 8526 C 788.291 1.20221 -1.19346 0
M  V30 8527 O 789.497 1.16241 -1.37433 0
M  V30 8528 H 785.872 0.247271 -0.710184 0
M  V30 8529 H 787.843 0.134386 -2.98097 0
M  V30 8530 C 786.592 1.90853 -2.90638 0
M  V30 8531 H 785.915 1.53865 -3.69006 0
M  V30 8532 H 787.355 2.53568 -3.39822 0
M  V30 8533 C 785.814 2.76189 -1.92929 0
M  V30 8534 O 786.344 3.74842 -1.44416 0
M  V30 8535 N 784.55 2.42157 -1.6065 0
M  V30 8536 H 784.097 1.61987 -2.00294 0
M  V30 8537 H 784.055 2.99534 -0.955347 0
M  V30 8538 N 787.827 1.57504 0.0551401 0
M  V30 8539 C 789.076 1.87237 0.750009 0
M  V30 8540 C 789.389 0.813268 1.77891 0
M  V30 8541 O 790.595 0.99898 2.52453 0
M  V30 8542 C 789.051 3.32187 1.38491 0
M  V30 8543 C 788.659 4.46267 0.393707 0
M  V30 8544 C 790.403 3.71101 2.06117 0
M  V30 8545 C 788.31 5.82265 1.03547 0
M  V30 8546 H 787.24 0.698524 0.283866 0
M  V30 8547 H 789.891 1.835 0.00365997 0
M  V30 8548 H 788.273 3.30588 2.18008 0
M  V30 8549 H 789.447 4.59289 -0.372865 0
M  V30 8550 H 787.762 4.16015 -0.17902 0
M  V30 8551 H 790.359 4.70012 2.54937 0
M  V30 8552 H 790.702 3.01751 2.86796 0
M  V30 8553 H 791.235 3.74762 1.33409 0
M  V30 8554 H 787.974 6.54949 0.268644 0
M  V30 8555 H 787.494 5.73012 1.7725 0
M  V30 8556 H 789.173 6.28148 1.55047 0
M  V30 8557 N 789.305 -0.326896 1.54172 0
M  V30 8558 C 790.215 -1.42525 1.86343 0
M  V30 8559 C 791.231 -1.56764 0.75505 0
M  V30 8560 O 792.407 -1.71924 1.04901 0
M  V30 8561 C 789.472 -2.77286 2.08119 0
M  V30 8562 C 788.533 -2.7225 3.31931 0
M  V30 8563 C 787.766 -4.00584 3.52659 0
M  V30 8564 O 787.989 -4.98686 2.76891 0
M  V30 8565 O 786.923 -4.04045 4.46129 0
M  V30 8566 H 790.749 -1.18249 2.79734 0
M  V30 8567 H 788.334 -0.520614 1.40036 0
M  V30 8568 H 790.216 -3.57065 2.23791 0
M  V30 8569 H 788.891 -3.01459 1.17917 0
M  V30 8570 H 787.798 -1.91033 3.21647 0
M  V30 8571 H 789.131 -2.53032 4.2218 0
M  V30 8572 N 790.784 -1.46188 -0.588786 0
M  V30 8573 C 792.2 -1.31009 -0.911524 0
M  V30 8574 C 792.4 -0.277017 -1.99587 0
M  V30 8575 O 791.456 0.322532 -2.50432 0
M  V30 8576 C 792.769 -2.69459 -1.33463 0
M  V30 8577 C 794.317 -2.77502 -1.44782 0
M  V30 8578 C 794.792 -4.1652 -1.90461 0
M  V30 8579 N 796.283 -4.18907 -1.97665 0
M  V30 8580 C 797.018 -5.23359 -2.34271 0
M  V30 8581 N 796.514 -6.38143 -2.69714 0
M  V30 8582 N 798.307 -5.10723 -2.34774 0
M  V30 8583 H 790.458 -2.12016 0.127614 0
M  V30 8584 H 792.721 -0.947984 -0.00557599 0
M  V30 8585 H 792.427 -3.46336 -0.611929 0
M  V30 8586 H 792.301 -2.99165 -2.2974 0
M  V30 8587 H 794.688 -2.00917 -2.1614 0
M  V30 8588 H 794.769 -2.51488 -0.467724 0
M  V30 8589 H 794.413 -4.93597 -1.19684 0
M  V30 8590 H 794.343 -4.39937 -2.89418 0
M  V30 8591 H 796.834 -3.36084 -1.72789 0
M  V30 8592 H 797.147 -7.13624 -2.96582 0
M  V30 8593 H 795.492 -6.41514 -2.67366 0
M  V30 8594 H 798.683 -4.20088 -2.06503 0
M  V30 8595 H 798.856 -5.9224 -2.62975 0
M  V30 8596 N 792.262 0.832906 -1.33792 0
M  V30 8597 C 793.509 1.58853 -1.25586 0
M  V30 8598 C 793.837 1.93695 0.176807 0
M  V30 8599 O 793.092 1.59386 1.13554 0
M  V30 8600 C 793.391 2.9047 -2.08235 0
M  V30 8601 C 793.057 2.74965 -3.57358 0
M  V30 8602 C 791.719 2.70444 -3.98012 0
M  V30 8603 C 794.071 2.59347 -4.52093 0
M  V30 8604 C 791.399 2.48212 -5.31608 0
M  V30 8605 C 793.751 2.38649 -5.85858 0
M  V30 8606 C 792.415 2.32533 -6.25687 0
M  V30 8607 H 791.685 0.581285 -0.459553 0
M  V30 8608 H 794.332 0.964501 -1.65438 0
M  V30 8609 H 792.637 3.57111 -1.6118 0
M  V30 8610 H 794.334 3.48001 -1.99239 0
M  V30 8611 H 790.924 2.79319 -3.25083 0
M  V30 8612 H 795.108 2.6187 -4.2159 0
M  V30 8613 H 790.364 2.41929 -5.61498 0
M  V30 8614 H 794.538 2.25549 -6.58863 0
M  V30 8615 H 792.165 2.15067 -7.29143 0
M  V30 8616 N 793.74 1.17359 1.05189 0
M  V30 8617 C 795.151 0.96793 1.5965 0
M  V30 8618 C 795.502 -0.485355 1.90102 0
M  V30 8619 O 794.627 -1.36066 1.6827 0
M  V30 8620 C 795.222 1.75068 2.90063 0
M  V30 8621 C 793.781 1.58969 3.41183 0
M  V30 8622 C 792.928 1.75231 2.14917 0
M  V30 8623 H 795.879 1.32067 0.880001 0
M  V30 8624 H 795.9 1.23308 3.59966 0
M  V30 8625 H 795.412 2.80835 2.67868 0
M  V30 8626 H 793.513 0.556906 3.68415 0
M  V30 8627 H 793.626 2.38067 4.15766 0
M  V30 8628 H 791.99 1.18073 2.25679 0
M  V30 8629 H 792.773 2.8241 1.95191 0
M  V30 8630 N 795.218 -1.23913 0.973828 0
M  V30 8631 C 796.166 -2.27141 0.50098 0
M  V30 8632 C 797.16 -1.63623 -0.438631 0
M  V30 8633 O 798.366 -1.77253 -0.313247 0
M  V30 8634 H 794.741 -0.73817 0.14356 0
M  V30 8635 H 796.712 -2.64392 1.38346 0
M  V30 8636 C 795.461 -3.47195 -0.187377 0
M  V30 8637 H 794.784 -3.96318 0.526535 0
M  V30 8638 H 796.224 -4.21252 -0.481962 0
M  V30 8639 C 794.683 -3.05678 -1.41642 0
M  V30 8640 O 795.213 -3.1338 -2.51309 0
M  V30 8641 N 793.419 -2.60661 -1.28469 0
M  V30 8642 H 792.966 -2.54594 -0.39238 0
M  V30 8643 H 792.924 -2.33249 -2.10813 0
M  V30 8644 N 796.696 -0.74468 -1.38897 0
M  V30 8645 C 797.944 -0.296298 -1.99916 0
M  V30 8646 C 798.265 1.12325 -1.59399 0
M  V30 8647 O 797.535 1.76658 -0.846689 0
M  V30 8648 H 796.115 -0.106561 -0.73936 0
M  V30 8649 H 798.777 -0.956793 -1.69798 0
M  V30 8650 H 797.873 -0.352356 -3.10105 0
M  V30 8651 N 798.174 1.49689 -0.493057 0
M  V30 8652 C 799.121 2.28976 0.28959 0
M  V30 8653 C 800.091 1.35011 0.967536 0
M  V30 8654 O 801.276 1.63964 0.975736 0
M  V30 8655 C 798.416 3.1748 1.35279 0
M  V30 8656 C 797.529 4.26496 0.687418 0
M  V30 8657 C 796.664 5.02226 1.73038 0
M  V30 8658 C 795.703 6.03089 1.04645 0
M  V30 8659 N 794.84 6.72014 2.03325 0
M  V30 8660 H 799.68 2.954 -0.392798 0
M  V30 8661 H 797.217 1.45657 -0.205554 0
M  V30 8662 H 799.175 3.67162 1.98111 0
M  V30 8663 H 797.805 2.53057 2.00405 0
M  V30 8664 H 796.857 3.80362 -0.0540001 0
M  V30 8665 H 798.169 4.98578 0.14864 0
M  V30 8666 H 797.323 5.55737 2.43395 0
M  V30 8667 H 796.062 4.29899 2.303 0
M  V30 8668 H 795.067 5.48817 0.328606 0
M  V30 8669 H 796.292 6.77398 0.480428 0
M  V30 8670 H 794.238 6.02464 2.59564 0
M  V30 8671 H 794.155 7.40046 1.54492 0
M  V30 8672 H 795.423 7.30133 2.72995 0
M  V30 8673 N 799.652 0.226554 1.55963 0
M  V30 8674 C 800.599 -0.681504 2.20509 0
M  V30 8675 C 801.569 -1.1866 1.16229 0
M  V30 8676 O 802.754 -1.24478 1.44602 0
M  V30 8677 C 799.894 -1.88183 2.89277 0
M  V30 8678 C 799.007 -1.41517 4.08163 0
M  V30 8679 C 798.142 -2.57346 4.647 0
M  V30 8680 C 797.181 -2.07441 5.75877 0
M  V30 8681 N 796.318 -3.16561 6.26685 0
M  V30 8682 H 801.158 -0.124372 2.9774 0
M  V30 8683 H 798.695 -0.0496333 1.47016 0
M  V30 8684 H 800.653 -2.58666 3.27335 0
M  V30 8685 H 799.283 -2.41177 2.14555 0
M  V30 8686 H 798.335 -0.605099 3.75557 0
M  V30 8687 H 799.647 -1.00928 4.88482 0
M  V30 8688 H 798.801 -3.35903 5.05227 0
M  V30 8689 H 797.54 -3.01227 3.83554 0
M  V30 8690 H 796.545 -1.27347 5.34848 0
M  V30 8691 H 797.77 -1.64554 6.58862 0
M  V30 8692 H 795.716 -3.59914 5.48451 0
M  V30 8693 H 795.633 -2.80239 7.02141 0
M  V30 8694 H 796.901 -3.95238 6.71868 0
M  V30 8695 N 801.13 -1.57531 -0.0467866 0
M  V30 8696 C 802.36 -1.92417 -0.752279 0
M  V30 8697 C 802.768 -0.823134 -1.70356 0
M  V30 8698 O 802.111 0.210598 -1.82489 0
M  V30 8699 C 802.173 -3.22974 -1.57887 0
M  V30 8700 C 801.837 -4.50045 -0.794285 0
M  V30 8701 C 802.834 -5.19799 -0.102368 0
M  V30 8702 C 800.519 -4.96608 -0.754061 0
M  V30 8703 C 802.513 -6.34385 0.619267 0
M  V30 8704 C 800.2 -6.11093 -0.0286682 0
M  V30 8705 C 801.198 -6.79835 0.656772 0
M  V30 8706 O 800.886 -7.92133 1.37042 0
M  V30 8707 H 800.618 -0.640029 -0.217576 0
M  V30 8708 H 803.172 -2.05395 -0.0137438 0
M  V30 8709 H 801.402 -3.06273 -2.3608 0
M  V30 8710 H 803.091 -3.43319 -2.16533 0
M  V30 8711 H 803.857 -4.8484 -0.124589 0
M  V30 8712 H 799.736 -4.42958 -1.27706 0
M  V30 8713 H 803.28 -6.87975 1.15483 0
M  V30 8714 H 799.177 -6.455 -0.00446214 0
M  V30 8715 H 799.945 -8.08394 1.28227 0
M  V30 8716 N 802.608 0.318715 -1.54344 0
M  V30 8717 C 803.518 1.41535 -1.87097 0
M  V30 8718 C 804.534 1.56361 -0.763353 0
M  V30 8719 O 805.71 1.71365 -1.05811 0
M  V30 8720 C 802.775 2.76178 -2.09587 0
M  V30 8721 C 801.836 2.70486 -3.3337 0
M  V30 8722 C 801.069 3.98708 -3.54778 0
M  V30 8723 O 801.292 4.9721 -2.79532 0
M  V30 8724 O 800.226 4.01674 -4.48266 0
M  V30 8725 H 804.052 1.16764 -2.80357 0
M  V30 8726 H 801.637 0.51318 -1.4031 0
M  V30 8727 H 803.519 3.55873 -2.25682 0
M  V30 8728 H 802.194 3.00829 -1.19514 0
M  V30 8729 H 801.101 1.89325 -3.22656 0
M  V30 8730 H 802.434 2.50789 -4.23516 0
M  V30 8731 N 804.086 1.46499 0.581025 0
M  V30 8732 C 805.016 1.60052 1.70017 0
M  V30 8733 C 805.997 0.450788 1.64018 0
M  V30 8734 O 807.182 0.677237 1.82009 0
M  V30 8735 C 804.312 1.5921 3.08658 0
M  V30 8736 C 803.266 2.73169 3.29488 0
M  V30 8737 C 802.592 2.57389 4.68674 0
M  V30 8738 C 803.892 4.14978 3.1716 0
M  V30 8739 H 805.586 2.53735 1.5893 0
M  V30 8740 H 803.132 1.22113 0.763173 0
M  V30 8741 H 805.085 1.67285 3.86773 0
M  V30 8742 H 803.809 0.620718 3.20647 0
M  V30 8743 H 802.468 2.64566 2.53773 0
M  V30 8744 H 802.116 1.58331 4.77431 0
M  V30 8745 H 801.816 3.33826 4.83564 0
M  V30 8746 H 803.34 2.67358 5.48956 0
M  V30 8747 H 804.754 4.24684 3.85119 0
M  V30 8748 H 803.151 4.92016 3.4357 0
M  V30 8749 H 804.221 4.35016 2.14218 0
M  V30 8750 N 805.565 -0.825799 1.34232 0
M  V30 8751 C 806.842 -1.56741 1.17011 0
M  V30 8752 C 807.222 -2.09512 -0.258425 0
M  V30 8753 O 806.57 -1.90664 -1.25935 0
M  V30 8754 C 806.78 -2.69104 2.22225 0
M  V30 8755 C 808.128 -3.37947 2.57055 0
M  V30 8756 O 809.152 -2.79358 2.20992 0
M  V30 8757 O 808.011 -4.43743 3.1899 0
M  V30 8758 H 805.105 -0.69163 0.453405 0
M  V30 8759 H 807.651 -0.867422 1.45856 0
M  V30 8760 H 806.423 -2.27844 3.18124 0
M  V30 8761 H 806.046 -3.46756 1.94541 0
M  V30 8762 N 807.043 -1.17915 -1.04565 0
M  V30 8763 C 807.99 -0.901605 -2.12461 0
M  V30 8764 C 808.96 0.157011 -1.65356 0
M  V30 8765 O 810.145 0.0184494 -1.90791 0
M  V30 8766 C 807.285 -0.42796 -3.42436 0
M  V30 8767 C 806.398 -1.55142 -4.03181 0
M  V30 8768 C 805.533 -1.03101 -5.21098 0
M  V30 8769 C 804.572 -2.1295 -5.73863 0
M  V30 8770 N 803.709 -1.62339 -6.83074 0
M  V30 8771 H 808.549 -1.82551 -2.3554 0
M  V30 8772 H 806.086 -0.910389 -1.15544 0
M  V30 8773 H 808.044 -0.134859 -4.16982 0
M  V30 8774 H 806.674 0.458977 -3.1952 0
M  V30 8775 H 805.726 -1.96011 -3.26012 0
M  V30 8776 H 807.038 -2.37968 -4.38375 0
M  V30 8777 H 806.192 -0.692132 -6.02739 0
M  V30 8778 H 804.931 -0.17227 -4.87396 0
M  V30 8779 H 803.936 -2.47687 -4.90847 0
M  V30 8780 H 805.161 -2.9925 -6.09611 0
M  V30 8781 H 803.107 -0.787464 -6.51256 0
M  V30 8782 H 803.024 -2.38767 -7.17305 0
M  V30 8783 H 804.292 -1.31363 -7.68351 0
M  V30 8784 N 808.521 1.23394 -0.980386 0
M  V30 8785 C 809.751 1.9556 -0.666319 0
M  V30 8786 C 810.159 1.72786 0.770815 0
M  V30 8787 O 809.502 1.0162 1.53033 0
M  V30 8788 C 809.564 3.48643 -0.876825 0
M  V30 8789 C 809.228 3.95135 -2.29602 0
M  V30 8790 C 810.225 4.03806 -3.2747 0
M  V30 8791 C 807.91 4.28122 -2.62711 0
M  V30 8792 C 809.904 4.44818 -4.56526 0
M  V30 8793 C 807.591 4.68814 -3.9199 0
M  V30 8794 C 808.589 4.77129 -4.88709 0
M  V30 8795 O 808.277 5.16908 -6.15679 0
M  V30 8796 H 808.009 0.629422 -0.246585 0
M  V30 8797 H 810.563 1.57839 -1.31438 0
M  V30 8798 H 808.793 3.86319 -0.171587 0
M  V30 8799 H 810.482 4.0202 -0.55992 0
M  V30 8800 H 811.248 3.78526 -3.03222 0
M  V30 8801 H 807.127 4.20861 -1.8814 0
M  V30 8802 H 810.671 4.51223 -5.32018 0
M  V30 8803 H 806.568 4.93545 -4.16033 0
M  V30 8804 H 807.336 5.3502 -6.19432 0
M  V30 8805 N 809.999 0.752036 1.385 0
M  V30 8806 C 811.227 0.318274 2.04437 0
M  V30 8807 C 811.642 -1.05285 1.56718 0
M  V30 8808 O 810.999 -1.66844 0.73956 0
M  V30 8809 C 811.05 0.330106 3.5999 0
M  V30 8810 O 810.771 1.64712 4.05957 0
M  V30 8811 C 812.272 -0.117713 4.43144 0
M  V30 8812 H 809.492 0.136228 0.657026 0
M  V30 8813 H 812.036 1.02045 1.7722 0
M  V30 8814 H 810.191 -0.323323 3.86048 0
M  V30 8815 H 810.605 1.57225 5.0038 0
M  V30 8816 H 812.079 -0.0582735 5.51969 0
M  V30 8817 H 812.556 -1.16538 4.23457 0
M  V30 8818 H 813.162 0.506784 4.2227 0
M  V30 8819 N 811.477 -1.49425 0.500989 0
M  V30 8820 C 812.41 -2.25887 -0.324087 0
M  V30 8821 C 813.388 -1.30469 -0.970388 0
M  V30 8822 O 814.572 -1.59758 -1.00049 0
M  V30 8823 C 811.699 -3.05787 -1.45643 0
M  V30 8824 C 810.745 -4.16359 -0.924508 0
M  V30 8825 S 811.578 -5.35181 0.184707 0
M  V30 8826 C 812.734 -6.18636 -0.950806 0
M  V30 8827 H 812.967 -2.95519 0.324891 0
M  V30 8828 H 810.5 -1.51723 0.286289 0
M  V30 8829 H 812.458 -3.52405 -2.10525 0
M  V30 8830 H 811.119 -2.35624 -2.07703 0
M  V30 8831 H 810.312 -4.71781 -1.77311 0
M  V30 8832 H 809.914 -3.72331 -0.352907 0
M  V30 8833 H 812.206 -6.51581 -1.85603 0
M  V30 8834 H 813.149 -7.06761 -0.435212 0
M  V30 8835 H 813.557 -5.512 -1.21813 0
M  V30 8836 N 812.955 -0.234822 -1.55841 0
M  V30 8837 C 814.202 0.39326 -1.98645 0
M  V30 8838 C 814.53 1.58823 -1.12274 0
M  V30 8839 O 813.785 1.94954 -0.170731 0
M  V30 8840 C 814.084 0.858032 -3.46947 0
M  V30 8841 C 813.75 -0.227858 -4.50324 0
M  V30 8842 C 812.412 -0.526128 -4.78315 0
M  V30 8843 C 814.764 -0.961576 -5.12253 0
M  V30 8844 C 812.092 -1.5624 -5.65514 0
M  V30 8845 C 814.444 -1.98728 -6.00575 0
M  V30 8846 C 813.108 -2.29233 -6.26904 0
M  V30 8847 H 812.378 0.143904 -0.726892 0
M  V30 8848 H 815.025 -0.34012 -1.88455 0
M  V30 8849 H 813.33 1.67041 -3.54408 0
M  V30 8850 H 815.027 1.35407 -3.77447 0
M  V30 8851 H 811.617 0.0147624 -4.28597 0
M  V30 8852 H 815.801 -0.744388 -4.90686 0
M  V30 8853 H 811.057 -1.80422 -5.84173 0
M  V30 8854 H 815.231 -2.5608 -6.47608 0
M  V30 8855 H 812.858 -3.09671 -6.94268 0
M  V30 8856 N 814.433 1.57553 0.0384317 0
M  V30 8857 C 815.383 2.02404 1.0496 0
M  V30 8858 C 816.367 0.911705 1.32577 0
M  V30 8859 O 817.559 1.17561 1.32319 0
M  V30 8860 C 814.688 2.49924 2.35357 0
M  V30 8861 C 813.774 3.6796 2.1087 0
M  V30 8862 N 814.165 4.81009 1.56411 0
M  V30 8863 C 812.463 3.75153 2.41197 0
M  V30 8864 C 813.164 5.62686 1.47512 0
M  V30 8865 N 812.14 5.0752 1.94742 0
M  V30 8866 H 815.942 2.87234 0.622399 0
M  V30 8867 H 813.456 1.60543 0.244916 0
M  V30 8868 H 815.453 2.80312 3.08595 0
M  V30 8869 H 814.113 1.66496 2.78763 0
M  V30 8870 H 815.124 5.02636 1.2481 0
M  V30 8871 H 811.801 3.02507 2.87742 0
M  V30 8872 H 813.191 6.6349 1.05976 0
M  V30 8873 N 815.911 -0.310526 1.54511 0
M  V30 8874 C 817.141 -1.06456 1.77061 0
M  V30 8875 C 817.549 -1.81755 0.525528 0
M  V30 8876 O 816.892 -1.76365 -0.513904 0
M  V30 8877 C 816.954 -2.09856 2.91892 0
M  V30 8878 C 816.618 -1.53838 4.30329 0
M  V30 8879 C 817.615 -0.973358 5.10707 0
M  V30 8880 C 815.3 -1.57688 4.76906 0
M  V30 8881 C 817.294 -0.454283 6.35779 0
M  V30 8882 C 814.981 -1.05393 6.01943 0
M  V30 8883 C 815.979 -0.493595 6.81214 0
M  V30 8884 O 815.667 0.0214506 8.03897 0
M  V30 8885 H 815.399 -0.321913 0.594431 0
M  V30 8886 H 817.953 -0.358289 2.02251 0
M  V30 8887 H 816.183 -2.84137 2.62304 0
M  V30 8888 H 817.872 -2.71085 3.02106 0
M  V30 8889 H 818.638 -0.936588 4.75871 0
M  V30 8890 H 814.517 -2.00242 4.1524 0
M  V30 8891 H 818.061 -0.0162657 6.97598 0
M  V30 8892 H 813.958 -1.08782 6.36268 0
M  V30 8893 H 814.726 -0.0927478 8.18447 0
M  V30 8894 N 817.389 -1.46805 -0.573248 0
M  V30 8895 C 818.319 -1.60951 -1.69165 0
M  V30 8896 C 819.3 -0.45948 -1.63777 0
M  V30 8897 O 820.485 -0.68688 -1.81647 0
M  V30 8898 C 817.615 -1.60844 -3.07809 0
M  V30 8899 C 816.569 -2.74913 -3.28035 0
M  V30 8900 C 815.895 -2.59871 -4.67302 0
M  V30 8901 C 817.195 -4.16654 -3.14955 0
M  V30 8902 H 818.889 -2.54574 -1.57582 0
M  V30 8903 H 816.435 -1.22516 -0.756686 0
M  V30 8904 H 818.388 -1.69334 -3.85881 0
M  V30 8905 H 817.112 -0.637714 -3.20314 0
M  V30 8906 H 815.771 -2.65908 -2.52366 0
M  V30 8907 H 815.419 -1.60861 -4.76585 0
M  V30 8908 H 815.119 -3.36386 -4.81786 0
M  V30 8909 H 816.643 -2.70265 -5.4753 0
M  V30 8910 H 818.057 -4.26721 -3.82861 0
M  V30 8911 H 816.454 -4.93831 -3.40956 0
M  V30 8912 H 817.524 -4.36146 -2.11908 0
M  V30 8913 N 818.867 0.818669 -1.34668 0
M  V30 8914 C 820.283 1.11243 -1.14443 0
M  V30 8915 C 820.483 2.01435 0.0512212 0
M  V30 8916 O 819.539 2.41854 0.725471 0
M  V30 8917 C 820.852 1.75504 -2.4417 0
M  V30 8918 C 822.4 1.8798 -2.50265 0
M  V30 8919 C 822.875 2.55657 -3.80004 0
M  V30 8920 N 824.366 2.63153 -3.81189 0
M  V30 8921 C 825.101 3.16258 -4.78298 0
M  V30 8922 N 824.597 3.69893 -5.85791 0
M  V30 8923 N 826.39 3.14698 -4.65748 0
M  V30 8924 H 818.541 0.218848 -2.1127 0
M  V30 8925 H 820.804 0.159655 -0.934459 0
M  V30 8926 H 820.51 1.16697 -3.31775 0
M  V30 8927 H 820.384 2.75329 -2.57825 0
M  V30 8928 H 822.771 2.45934 -1.63096 0
M  V30 8929 H 822.852 0.870447 -2.40535 0
M  V30 8930 H 822.496 1.98356 -4.67565 0
M  V30 8931 H 822.426 3.57105 -3.87019 0
M  V30 8932 H 824.917 2.2514 -3.03513 0
M  V30 8933 H 825.23 4.08678 -6.55898 0
M  V30 8934 H 823.575 3.68125 -5.89499 0
M  V30 8935 H 826.766 2.72066 -3.80917 0
M  V30 8936 H 826.939 3.5578 -5.41594 0
M  V30 8937 N 820.346 1.18468 1.03938 0
M  V30 8938 C 821.309 0.914944 2.10146 0
M  V30 8939 C 822.309 -0.10022 1.60487 0
M  V30 8940 O 823.499 0.133365 1.73689 0
M  V30 8941 C 820.631 0.372993 3.38853 0
M  V30 8942 H 821.824 1.85677 2.35508 0
M  V30 8943 H 819.377 0.996876 1.20383 0
M  V30 8944 H 820.112 -0.57538 3.19155 0
M  V30 8945 H 819.897 1.1048 3.76213 0
M  V30 8946 H 821.387 0.203014 4.17106 0
M  V30 8947 N 821.824 -1.22873 0.986916 0
M  V30 8948 C 822.756 -2.23889 0.490537 0
M  V30 8949 C 823.769 -1.57523 -0.411144 0
M  V30 8950 O 824.958 -1.7721 -0.214236 0
M  V30 8951 C 822.058 -3.37488 -0.30902 0
M  V30 8952 C 821.231 -4.33438 0.587354 0
M  V30 8953 C 820.29 -5.25958 -0.159467 0
M  V30 8954 O 819.316 -5.67394 0.453115 0
M  V30 8955 N 820.518 -5.62265 -1.44355 0
M  V30 8956 H 823.283 -2.67109 1.35914 0
M  V30 8957 H 820.844 -1.37111 0.860937 0
M  V30 8958 H 822.836 -3.96365 -0.817139 0
M  V30 8959 H 821.406 -2.934 -1.07868 0
M  V30 8960 H 820.626 -3.72969 1.27622 0
M  V30 8961 H 821.914 -4.94495 1.19801 0
M  V30 8962 H 821.312 -5.30562 -1.96266 0
M  V30 8963 H 819.869 -6.23585 -1.89698 0
M  V30 8964 N 823.302 -0.75937 -1.38099 0
M  V30 8965 C 824.212 -0.13774 -2.34195 0
M  V30 8966 C 825.228 0.693985 -1.59561 0
M  V30 8967 O 826.404 0.616792 -1.91723 0
M  V30 8968 C 823.469 0.740535 -3.38699 0
M  V30 8969 C 822.53 -0.106225 -4.29169 0
M  V30 8970 C 821.763 0.730225 -5.28681 0
M  V30 8971 O 821.986 1.96796 -5.35376 0
M  V30 8972 O 820.92 0.145969 -6.01723 0
M  V30 8973 H 824.746 -0.931512 -2.89061 0
M  V30 8974 H 822.331 -0.520345 -1.40046 0
M  V30 8975 H 824.213 1.24232 -4.02672 0
M  V30 8976 H 822.888 1.51271 -2.8618 0
M  V30 8977 H 821.795 -0.654088 -3.68337 0
M  V30 8978 H 823.128 -0.841186 -4.84959 0
M  V30 8979 N 824.78 1.49157 -0.508906 0
M  V30 8980 C 826.027 2.02473 0.0327983 0
M  V30 8981 C 826.355 1.38792 1.36261 0
M  V30 8982 O 825.61 0.515576 1.88786 0
M  V30 8983 C 825.909 3.56687 0.225717 0
M  V30 8984 C 825.575 4.39046 -1.02708 0
M  V30 8985 C 824.237 4.61271 -1.37048 0
M  V30 8986 C 826.589 4.86902 -1.85946 0
M  V30 8987 C 823.917 5.28598 -2.54562 0
M  V30 8988 C 826.269 5.55521 -3.0262 0
M  V30 8989 C 824.933 5.7599 -3.3733 0
M  V30 8990 H 824.203 0.740903 0.0120017 0
M  V30 8991 H 826.85 1.79372 -0.670665 0
M  V30 8992 H 825.155 3.78511 1.01177 0
M  V30 8993 H 826.852 3.95541 0.659433 0
M  V30 8994 H 823.442 4.21994 -0.749615 0
M  V30 8995 H 827.626 4.69553 -1.6073 0
M  V30 8996 H 822.882 5.42646 -2.81682 0
M  V30 8997 H 827.056 5.91576 -3.67438 0
M  V30 8998 H 824.683 6.27934 -4.2849 0
M  V30 8999 N 826.258 0.243083 1.55714 0
M  V30 9000 C 827.168 -0.668913 2.24862 0
M  V30 9001 C 828.184 -1.19638 1.26344 0
M  V30 9002 O 829.36 -1.23345 1.5921 0
M  V30 9003 C 826.425 -1.85084 2.93163 0
M  V30 9004 C 825.486 -1.36323 4.07081 0
M  V30 9005 C 824.719 -2.48882 4.72116 0
M  V30 9006 O 824.942 -3.67523 4.36214 0
M  V30 9007 O 823.876 -2.18857 5.60701 0
M  V30 9008 H 827.702 -0.109737 3.03502 0
M  V30 9009 H 825.287 0.0117411 1.49395 0
M  V30 9010 H 827.169 -2.54065 3.36197 0
M  V30 9011 H 825.844 -2.39771 2.17466 0
M  V30 9012 H 824.751 -0.640804 3.68571 0
M  V30 9013 H 826.084 -0.86249 4.84584 0
M  V30 9014 N 827.736 -1.57571 -0.0300757 0
M  V30 9015 C 828.686 -2.02958 -1.03885 0
M  V30 9016 C 829.67 -0.918723 -1.32092 0
M  V30 9017 O 830.862 -1.18262 -1.31694 0
M  V30 9018 C 827.991 -2.51169 -2.34028 0
M  V30 9019 C 827.077 -3.69073 -2.08915 0
M  V30 9020 N 827.468 -4.81831 -1.53858 0
M  V30 9021 C 825.766 -3.76427 -2.39204 0
M  V30 9022 C 826.467 -5.6346 -1.44526 0
M  V30 9023 N 825.443 -5.08545 -1.92048 0
M  V30 9024 H 829.245 -2.8756 -0.607157 0
M  V30 9025 H 826.759 -1.6067 -0.236399 0
M  V30 9026 H 828.756 -2.81944 -3.07104 0
M  V30 9027 H 827.416 -1.67972 -2.77876 0
M  V30 9028 H 828.427 -5.03291 -1.22142 0
M  V30 9029 H 825.104 -3.04029 -2.86134 0
M  V30 9030 H 826.494 -6.64042 -1.02456 0
M  V30 9031 N 829.214 0.302327 -1.54673 0
M  V30 9032 C 830.462 1.03565 -1.73547 0
M  V30 9033 C 830.783 1.87843 -0.523448 0
M  V30 9034 O 830.053 1.90367 0.462295 0
M  V30 9035 H 828.633 0.385358 -0.639928 0
M  V30 9036 H 831.295 0.333632 -1.92023 0
M  V30 9037 H 830.391 1.68952 -2.62415 0
M  V30 9038 N 830.692 1.47107 0.565454 0
M  V30 9039 C 831.639 1.58974 1.6732 0
M  V30 9040 C 832.609 0.433146 1.60353 0
M  V30 9041 O 833.794 0.652141 1.79309 0
M  V30 9042 C 830.934 1.60224 3.05651 0
M  V30 9043 C 830.047 2.86741 3.23116 0
M  V30 9044 C 829.182 2.79381 4.51796 0
M  V30 9045 C 828.221 4.0076 4.62664 0
M  V30 9046 N 827.358 3.91685 5.8269 0
M  V30 9047 H 832.198 2.53588 1.56515 0
M  V30 9048 H 829.735 1.25791 0.762558 0
M  V30 9049 H 831.693 1.58933 3.85741 0
M  V30 9050 H 830.323 0.691285 3.15311 0
M  V30 9051 H 829.375 2.97936 2.36513 0
M  V30 9052 H 830.687 3.7665 3.27011 0
M  V30 9053 H 829.841 2.76293 5.40136 0
M  V30 9054 H 828.58 1.87142 4.50366 0
M  V30 9055 H 827.585 4.04162 3.72738 0
M  V30 9056 H 828.81 4.94117 4.6586 0
M  V30 9057 H 826.756 3.02243 5.82224 0
M  V30 9058 H 826.673 4.75264 5.87929 0
M  V30 9059 H 827.941 3.92599 6.73414 0
M  V30 9060 N 832.17 -0.811516 1.35101 0
M  V30 9061 C 833.395 -1.60499 1.31358 0
M  V30 9062 C 833.82 -1.87793 -0.107383 0
M  V30 9063 O 833.178 -1.46161 -1.07268 0
M  V30 9064 C 833.226 -2.91612 2.12119 0
M  V30 9065 O 832.33 -3.84211 1.49853 0
M  V30 9066 H 831.671 -0.487702 0.450603 0
M  V30 9067 H 834.201 -1.00758 1.7807 0
M  V30 9068 H 834.211 -3.4108 2.23894 0
M  V30 9069 H 832.886 -2.71071 3.15426 0
M  V30 9070 H 831.463 -3.42751 1.46889 0
M  V30 9071 N 833.648 -1.19017 -1.03309 0
M  V30 9072 C 835.064 -0.941483 -1.28873 0
M  V30 9073 C 835.264 0.388587 -1.97718 0
M  V30 9074 O 834.32 1.12111 -2.26246 0
M  V30 9075 C 835.633 -2.11249 -2.13996 0
M  V30 9076 C 837.181 -2.15164 -2.27318 0
M  V30 9077 C 837.656 -3.31704 -3.15811 0
M  V30 9078 N 839.147 -3.31613 -3.23399 0
M  V30 9079 C 839.882 -4.18431 -3.9205 0
M  V30 9080 N 839.378 -5.15397 -4.62966 0
M  V30 9081 N 841.171 -4.06321 -3.88406 0
M  V30 9082 H 833.322 -2.04599 -0.570343 0
M  V30 9083 H 835.585 -0.894406 -0.314232 0
M  V30 9084 H 835.291 -3.07482 -1.70727 0
M  V30 9085 H 835.165 -2.07955 -3.14697 0
M  V30 9086 H 837.552 -1.19504 -2.6982 0
M  V30 9087 H 837.633 -2.22513 -1.26182 0
M  V30 9088 H 837.277 -4.2764 -2.74019 0
M  V30 9089 H 837.207 -3.21592 -4.16997 0
M  V30 9090 H 839.698 -2.6142 -2.72888 0
M  V30 9091 H 840.011 -5.78 -5.12968 0
M  V30 9092 H 838.356 -5.19349 -4.61846 0
M  V30 9093 H 841.547 -3.29849 -3.3214 0
M  V30 9094 H 841.72 -4.74196 -4.41635 0
M  V30 9095 N 835.127 1.22348 -0.993418 0
M  V30 9096 C 836.376 1.90422 -0.665019 0
M  V30 9097 C 836.689 1.78199 0.806512 0
M  V30 9098 O 837.895 2.41193 1.24652 0
M  V30 9099 C 836.351 3.41403 -1.13893 0
M  V30 9100 C 835.959 3.62262 -2.63572 0
M  V30 9101 C 837.703 4.15175 -0.884884 0
M  V30 9102 C 835.61 5.06947 -3.04564 0
M  V30 9103 H 834.54 0.713073 -0.245037 0
M  V30 9104 H 837.191 1.3856 -1.20305 0
M  V30 9105 H 835.573 3.9245 -0.529027 0
M  V30 9106 H 836.747 3.21705 -3.29913 0
M  V30 9107 H 835.062 3.01824 -2.86865 0
M  V30 9108 H 837.659 5.21813 -1.16684 0
M  V30 9109 H 838.002 4.15915 0.178982 0
M  V30 9110 H 838.535 3.70157 -1.45701 0
M  V30 9111 H 835.274 5.11346 -4.10128 0
M  V30 9112 H 834.794 5.48404 -2.42927 0
M  V30 9113 H 836.473 5.75374 -2.95894 0
M  V30 9114 N 836.605 0.766683 1.37694 0
M  V30 9115 C 837.568 0.155849 2.2867 0
M  V30 9116 C 838.568 -0.633509 1.47795 0
M  V30 9117 O 839.758 -0.457844 1.68076 0
M  V30 9118 C 836.89 -0.786965 3.31692 0
M  V30 9119 H 838.083 0.957748 2.84196 0
M  V30 9120 H 835.636 0.534554 1.46875 0
M  V30 9121 H 836.371 -1.61406 2.8128 0
M  V30 9122 H 836.156 -0.223182 3.91464 0
M  V30 9123 H 837.646 -1.20994 3.99688 0
M  V30 9124 N 838.083 -1.48885 0.516809 0
M  V30 9125 C 839.013 -2.32241 -0.242157 0
M  V30 9126 C 839.994 -1.41258 -0.947633 0
M  V30 9127 O 841.179 -1.70156 -0.935973 0
M  V30 9128 C 838.309 -3.22151 -1.29754 0
M  V30 9129 C 837.263 -4.22053 -0.710995 0
M  V30 9130 C 836.589 -5.01007 -1.86806 0
M  V30 9131 C 837.889 -5.21388 0.30853 0
M  V30 9132 H 839.583 -2.95943 0.453651 0
M  V30 9133 H 837.129 -1.42316 0.219612 0
M  V30 9134 H 839.082 -3.79284 -1.83634 0
M  V30 9135 H 837.806 -2.56423 -2.02274 0
M  V30 9136 H 836.465 -3.66087 -0.193819 0
M  V30 9137 H 836.113 -4.31713 -2.58133 0
M  V30 9138 H 835.813 -5.68615 -1.48159 0
M  V30 9139 H 837.337 -5.60989 -2.4109 0
M  V30 9140 H 838.751 -5.73122 -0.142703 0
M  V30 9141 H 837.148 -5.96975 0.611673 0
M  V30 9142 H 838.218 -4.69329 1.21894 0
M  V30 9143 N 839.561 -0.251338 -1.55583 0
M  V30 9144 C 840.789 0.376187 -2.03451 0
M  V30 9145 C 841.204 1.51215 -1.13047 0
M  V30 9146 O 840.561 1.81917 -0.145769 0
M  V30 9147 C 840.612 0.879779 -3.50631 0
M  V30 9148 O 840.333 -0.210917 -4.37592 0
M  V30 9149 C 841.834 1.57754 -4.14281 0
M  V30 9150 H 839.054 0.0888722 -0.665089 0
M  V30 9151 H 841.598 -0.376497 -2.01004 0
M  V30 9152 H 839.753 1.58263 -3.53598 0
M  V30 9153 H 840.167 0.172203 -5.24217 0
M  V30 9154 H 841.641 1.88158 -5.18942 0
M  V30 9155 H 842.118 2.50103 -3.61034 0
M  V30 9156 H 842.724 0.919154 -4.15249 0
M  V30 9157 N 841.039 1.57585 0.0217189 0
M  V30 9158 C 841.987 2.08134 1.03842 0
M  V30 9159 C 842.981 0.996662 1.36978 0
M  V30 9160 O 844.187 1.18149 1.35797 0
M  V30 9161 H 840.562 0.664298 0.352438 0
M  V30 9162 H 842.533 2.92583 0.58634 0
M  V30 9163 C 841.282 2.58218 2.32849 0
M  V30 9164 H 840.605 3.41302 2.08214 0
M  V30 9165 H 842.045 2.97289 3.02316 0
M  V30 9166 C 840.504 1.48664 3.02325 0
M  V30 9167 O 841.034 0.857075 3.9245 0
M  V30 9168 N 839.24 1.21938 2.63779 0
M  V30 9169 H 838.787 1.73319 1.90574 0
M  V30 9170 H 838.745 0.488523 3.10581 0
M  V30 9171 N 842.517 -0.29412 1.54831 0
M  V30 9172 C 843.742 -1.05156 1.78765 0
M  V30 9173 C 844.167 -1.79916 0.548809 0
M  V30 9174 O 843.525 -1.74243 -0.500909 0
M  V30 9175 C 843.573 -2.00242 2.99893 0
M  V30 9176 O 842.677 -3.08662 2.73499 0
M  V30 9177 H 842.018 -0.301737 0.591482 0
M  V30 9178 H 844.548 -0.329449 2.0193 0
M  V30 9179 H 844.558 -2.42583 3.28051 0
M  V30 9180 H 843.233 -1.45235 3.89717 0
M  V30 9181 H 841.81 -2.70786 2.56377 0
M  V30 9182 N 843.995 -1.47404 -0.557645 0
M  V30 9183 C 845.241 -1.54235 -1.31679 0
M  V30 9184 C 845.574 -0.203782 -1.93128 0
M  V30 9185 O 844.849 0.787536 -1.77843 0
M  V30 9186 C 845.132 -2.66003 -2.42723 0
M  V30 9187 C 844.985 -4.09475 -1.86145 0
M  V30 9188 C 846.304 -2.73685 -3.44652 0
M  V30 9189 H 843.423 -0.561466 -0.477415 0
M  V30 9190 H 846.065 -1.79459 -0.624067 0
M  V30 9191 H 844.215 -2.44627 -3.01811 0
M  V30 9192 H 845.887 -4.42213 -1.31321 0
M  V30 9193 H 844.13 -4.17774 -1.16823 0
M  V30 9194 H 844.801 -4.83451 -2.66418 0
M  V30 9195 H 847.277 -2.92968 -2.95481 0
M  V30 9196 H 846.153 -3.53665 -4.19777 0
M  V30 9197 H 846.414 -1.80726 -4.03473 0
M  V30 9198 N 845.473 0.80434 -1.35529 0
M  V30 9199 C 846.421 1.93769 -1.28671 0
M  V30 9200 C 847.415 1.68428 -0.181222 0
M  V30 9201 O 848.621 1.76617 -0.347338 0
M  V30 9202 H 844.996 0.636663 -0.400206 0
M  V30 9203 H 846.967 1.96673 -2.24415 0
M  V30 9204 C 845.716 3.30572 -1.07784 0
M  V30 9205 H 845.039 3.5063 -1.9209 0
M  V30 9206 H 846.479 4.1027 -1.07027 0
M  V30 9207 C 844.938 3.36193 0.218213 0
M  V30 9208 O 845.468 3.82941 1.21323 0
M  V30 9209 N 843.674 2.89455 0.257761 0
M  V30 9210 H 843.221 2.51604 -0.552562 0
M  V30 9211 H 843.179 2.93597 1.12465 0
M  V30 9212 N 846.951 1.19563 1.02676 0
M  V30 9213 C 847.861 0.950691 2.14474 0
M  V30 9214 C 848.877 -0.0900219 1.73767 0
M  V30 9215 O 850.053 0.0951063 2.01175 0
M  V30 9216 C 847.118 0.494917 3.43149 0
M  V30 9217 C 846.179 1.60527 3.98158 0
M  V30 9218 C 845.412 1.17115 5.20692 0
M  V30 9219 O 845.635 0.0355937 5.70389 0
M  V30 9220 O 844.569 1.97454 5.68591 0
M  V30 9221 H 848.395 1.88651 2.38001 0
M  V30 9222 H 845.98 0.978635 1.12885 0
M  V30 9223 H 847.862 0.249492 4.20661 0
M  V30 9224 H 846.537 -0.412434 3.21062 0
M  V30 9225 H 845.444 1.90487 3.21971 0
M  V30 9226 H 846.777 2.48925 4.24614 0
M  V30 9227 N 848.429 -1.21819 0.999893 0
M  V30 9228 C 849.392 -2.22227 0.561044 0
M  V30 9229 C 850.392 -1.56722 -0.359858 0
M  V30 9230 O 851.582 -1.73546 -0.150848 0
M  V30 9231 C 848.714 -3.40409 -0.182987 0
M  V30 9232 H 849.907 -2.62567 1.44909 0
M  V30 9233 H 847.46 -1.34991 0.78785 0
M  V30 9234 H 848.195 -3.05551 -1.08671 0
M  V30 9235 H 847.98 -3.89171 0.47833 0
M  V30 9236 H 849.47 -4.14856 -0.477952 0
M  V30 9237 N 849.908 -0.773975 -1.37286 0
M  V30 9238 C 850.838 -0.175782 -2.32837 0
M  V30 9239 C 851.819 0.680603 -1.5589 0
M  V30 9240 O 853.004 0.617607 -1.84117 0
M  V30 9241 C 850.134 0.702388 -3.40123 0
M  V30 9242 C 849.088 -0.0528687 -4.27967 0
M  V30 9243 C 848.414 0.944891 -5.26285 0
M  V30 9244 C 849.714 -1.23316 -5.07534 0
M  V30 9245 H 851.408 -0.974016 -2.83114 0
M  V30 9246 H 848.954 -0.469826 -1.3612 0
M  V30 9247 H 850.907 1.13069 -4.05947 0
M  V30 9248 H 849.631 1.53316 -2.88378 0
M  V30 9249 H 848.29 -0.461978 -3.63678 0
M  V30 9250 H 847.938 1.77028 -4.70819 0
M  V30 9251 H 847.638 0.444079 -5.8592 0
M  V30 9252 H 849.162 1.37209 -5.94984 0
M  V30 9253 H 850.576 -0.881395 -5.66484 0
M  V30 9254 H 848.973 -1.66621 -5.76504 0
M  V30 9255 H 850.043 -2.03617 -4.40077 0
M  V30 9256 N 851.386 1.48609 -0.524698 0
M  V30 9257 C 852.316 2.32366 0.229837 0
M  V30 9258 C 853.297 1.41759 0.940129 0
M  V30 9259 O 854.482 1.7065 0.926936 0
M  V30 9260 C 851.612 3.22835 1.28043 0
M  V30 9261 C 850.566 4.22424 0.688603 0
M  V30 9262 C 849.892 5.0199 1.84146 0
M  V30 9263 C 851.192 5.21217 -0.336176 0
M  V30 9264 H 852.886 2.95698 -0.469339 0
M  V30 9265 H 850.432 1.42197 -0.227156 0
M  V30 9266 H 852.385 3.80253 1.8162 0
M  V30 9267 H 851.109 2.57492 2.00912 0
M  V30 9268 H 849.768 3.66185 0.174402 0
M  V30 9269 H 849.416 4.33076 2.5584 0
M  V30 9270 H 849.116 5.69392 1.45142 0
M  V30 9271 H 850.64 5.62259 2.38111 0
M  V30 9272 H 852.054 5.7319 0.112307 0
M  V30 9273 H 850.451 5.96642 -0.643324 0
M  V30 9274 H 851.521 4.68676 -1.24381 0
M  V30 9275 N 852.864 0.259585 1.55447 0
M  V30 9276 C 853.812 -0.6507 2.23313 0
M  V30 9277 C 854.806 -1.17014 1.22491 0
M  V30 9278 O 856.012 -1.12557 1.40467 0
M  V30 9279 H 852.387 -0.228354 0.71649 0
M  V30 9280 H 854.358 -0.0553039 2.98349 0
M  V30 9281 C 853.107 -1.83081 2.95596 0
M  V30 9282 H 852.43 -1.44027 3.72956 0
M  V30 9283 H 853.87 -2.44469 3.46426 0
M  V30 9284 C 852.329 -2.70976 2.00184 0
M  V30 9285 O 852.859 -3.70882 1.54304 0
M  V30 9286 N 851.065 -2.37813 1.67014 0
M  V30 9287 H 850.612 -1.5662 2.04519 0
M  V30 9288 H 850.57 -2.96896 1.03443 0
M  V30 9289 N 854.342 -1.57594 -0.0133615 0
M  V30 9290 C 855.753 -1.78168 -0.557937 0
M  V30 9291 C 856.104 -0.892616 -1.74719 0
M  V30 9292 O 855.229 -0.0915491 -2.16206 0
M  V30 9293 C 855.824 -3.23115 -1.01894 0
M  V30 9294 C 854.383 -3.44831 -1.50892 0
M  V30 9295 C 853.53 -2.73558 -0.454044 0
M  V30 9296 H 856.481 -1.57266 0.212843 0
M  V30 9297 H 856.502 -3.30493 -1.8856 0
M  V30 9298 H 856.014 -3.87798 -0.153175 0
M  V30 9299 H 854.115 -2.85345 -2.39602 0
M  V30 9300 H 854.228 -4.53485 -1.54559 0
M  V30 9301 H 852.592 -2.37787 -0.912666 0
M  V30 9302 H 853.375 -3.40932 0.402524 0
M  V30 9303 N 855.82 0.285905 -1.54985 0
M  V30 9304 C 857.045 1.04207 -1.7932 0
M  V30 9305 C 857.47 1.79622 -0.558343 0
M  V30 9306 O 856.828 1.74506 0.491661 0
M  V30 9307 C 856.876 1.98648 -3.0095 0
M  V30 9308 O 855.98 3.07207 -2.75132 0
M  V30 9309 H 855.321 0.298596 -0.593074 0
M  V30 9310 H 857.851 0.318736 -2.02102 0
M  V30 9311 H 857.861 2.4084 -3.29333 0
M  V30 9312 H 856.536 1.43167 -3.90482 0
M  V30 9313 H 855.113 2.69423 -2.57809 0
M  V30 9314 N 857.298 1.47698 0.54982 0
M  V30 9315 C 858.714 1.3338 0.876468 0
M  V30 9316 C 858.914 0.329837 1.98782 0
M  V30 9317 O 857.97 -0.256022 2.51199 0
M  V30 9318 C 859.283 2.72903 1.26272 0
M  V30 9319 C 860.831 2.81243 1.37373 0
M  V30 9320 C 861.306 4.21423 1.79351 0
M  V30 9321 N 862.797 4.24 1.86489 0
M  V30 9322 C 863.532 5.29386 2.20313 0
M  V30 9323 N 863.028 6.4507 2.527 0
M  V30 9324 N 864.821 5.16768 2.2115 0
M  V30 9325 H 856.972 2.11603 -0.183781 0
M  V30 9326 H 859.235 0.947798 -0.0195601 0
M  V30 9327 H 858.941 3.47836 0.519889 0
M  V30 9328 H 858.815 3.05151 2.21727 0
M  V30 9329 H 861.202 2.06577 2.10737 0
M  V30 9330 H 861.283 2.52639 0.400882 0
M  V30 9331 H 860.927 4.96597 1.06555 0
M  V30 9332 H 860.857 4.47456 2.77652 0
M  V30 9333 H 863.348 3.40547 1.63817 0
M  V30 9334 H 863.661 7.21236 2.77557 0
M  V30 9335 H 862.006 6.48377 2.50263 0
M  V30 9336 H 865.197 4.25416 1.95293 0
M  V30 9337 H 865.37 5.99004 2.4718 0
M  V30 9338 N 858.776 -0.797141 1.35954 0
M  V30 9339 C 860.022 -1.55698 1.29946 0
M  V30 9340 C 860.355 -1.93808 -0.123259 0
M  V30 9341 O 859.63 -1.62102 -1.07486 0
M  V30 9342 C 859.913 -2.83926 2.2149 0
M  V30 9343 C 859.766 -2.52232 3.72423 0
M  V30 9344 C 861.085 -3.85698 2.11955 0
M  V30 9345 H 858.204 -0.56488 0.47337 0
M  V30 9346 H 860.846 -0.916421 1.66438 0
M  V30 9347 H 858.996 -3.38588 1.905 0
M  V30 9348 H 860.668 -2.0368 4.13899 0
M  V30 9349 H 858.911 -1.85286 3.92239 0
M  V30 9350 H 859.582 -3.43782 4.31877 0
M  V30 9351 H 862.058 -3.40462 2.39218 0
M  V30 9352 H 860.934 -4.73182 2.78191 0
M  V30 9353 H 861.195 -4.28083 1.10442 0
M  V30 9354 N 860.254 -1.20106 -1.0204 0
M  V30 9355 C 861.484 -1.0329 -1.78927 0
M  V30 9356 C 861.892 0.421115 -1.84454 0
M  V30 9357 O 861.235 1.30422 -1.29367 0
M  V30 9358 C 861.297 -1.53627 -3.25021 0
M  V30 9359 C 860.961 -3.01869 -3.4311 0
M  V30 9360 C 861.958 -3.9956 -3.32638 0
M  V30 9361 C 859.643 -3.40746 -3.6905 0
M  V30 9362 C 861.637 -5.34119 -3.47844 0
M  V30 9363 C 859.324 -4.75462 -3.839 0
M  V30 9364 C 860.322 -5.71957 -3.73302 0
M  V30 9365 O 860.01 -7.04231 -3.87703 0
M  V30 9366 H 859.742 -0.363962 -0.569656 0
M  V30 9367 H 862.296 -1.59551 -1.29354 0
M  V30 9368 H 860.526 -0.917481 -3.75658 0
M  V30 9369 H 862.215 -1.32889 -3.8353 0
M  V30 9370 H 862.981 -3.70869 -3.12539 0
M  V30 9371 H 858.86 -2.66182 -3.76388 0
M  V30 9372 H 862.404 -6.09421 -3.39488 0
M  V30 9373 H 858.301 -5.03844 -4.03499 0
M  V30 9374 H 859.069 -7.11425 -4.04744 0
M  V30 9375 N 861.732 1.21287 -1.00634 0
M  V30 9376 C 862.96 1.94385 -0.708678 0
M  V30 9377 C 863.375 1.7416 0.728957 0
M  V30 9378 O 862.732 1.04906 1.49335 0
M  V30 9379 C 862.783 3.46755 -1.02193 0
M  V30 9380 O 862.504 3.6631 -2.40309 0
M  V30 9381 C 864.005 4.37014 -0.743867 0
M  V30 9382 H 861.225 0.618136 -0.261052 0
M  V30 9383 H 863.769 1.54067 -1.34475 0
M  V30 9384 H 861.924 3.8499 -0.431441 0
M  V30 9385 H 862.338 4.60393 -2.51274 0
M  V30 9386 H 863.812 5.42621 -1.01321 0
M  V30 9387 H 864.289 4.38017 0.322084 0
M  V30 9388 H 864.895 4.04426 -1.31603 0
M  V30 9389 N 863.21 0.781244 1.36873 0
M  V30 9390 C 864.457 0.349889 1.99454 0
M  V30 9391 C 864.785 -1.07621 1.62013 0
M  V30 9392 O 864.04 -1.75665 0.86258 0
M  V30 9393 C 864.339 0.45146 3.54537 0
M  V30 9394 C 864.005 1.83718 4.11775 0
M  V30 9395 C 862.667 2.21634 4.2712 0
M  V30 9396 C 865.019 2.7449 4.43063 0
M  V30 9397 C 862.347 3.49742 4.7106 0
M  V30 9398 C 864.699 4.02017 4.88431 0
M  V30 9399 C 863.363 4.39967 5.01982 0
M  V30 9400 H 862.633 0.128033 0.729855 0
M  V30 9401 H 865.28 0.997117 1.63493 0
M  V30 9402 H 863.585 -0.279288 3.90803 0
M  V30 9403 H 865.282 0.0988609 4.00878 0
M  V30 9404 H 861.872 1.53251 4.00265 0
M  V30 9405 H 866.056 2.46453 4.30783 0
M  V30 9406 H 861.312 3.79026 4.79738 0
M  V30 9407 H 865.486 4.72475 5.11605 0
M  V30 9408 H 863.113 5.39291 5.35788 0
M  V30 9409 N 864.689 -1.48329 0.532571 0
M  V30 9410 C 865.936 -2.025 -0.000582356 0
M  V30 9411 C 866.264 -1.40942 -1.34036 0
M  V30 9412 O 865.519 -0.545545 -1.87942 0
M  V30 9413 C 865.818 -3.57 -0.168943 0
M  V30 9414 C 865.484 -4.37357 1.0968 0
M  V30 9415 C 864.146 -4.59033 1.44369 0
M  V30 9416 C 866.498 -4.83882 1.93669 0
M  V30 9417 C 863.826 -5.24481 2.62939 0
M  V30 9418 C 866.178 -5.50637 3.11419 0
M  V30 9419 C 864.842 -5.70551 3.46451 0
M  V30 9420 H 864.112 -0.741 -0.000213099 0
M  V30 9421 H 866.759 -1.78282 0.699117 0
M  V30 9422 H 865.064 -3.80072 -0.951429 0
M  V30 9423 H 866.761 -3.9654 -0.596422 0
M  V30 9424 H 863.351 -4.20748 0.816655 0
M  V30 9425 H 867.535 -4.66936 1.6818 0
M  V30 9426 H 862.791 -5.38096 2.9028 0
M  V30 9427 H 866.965 -5.85655 3.76803 0
M  V30 9428 H 864.592 -6.21037 4.38425 0
M  V30 9429 N 866.167 -0.267825 -1.55308 0
M  V30 9430 C 867.392 0.357487 -2.04296 0
M  V30 9431 C 867.817 1.49222 -1.14518 0
M  V30 9432 O 867.175 1.80741 -0.142292 0
M  V30 9433 C 867.223 0.822899 -3.51085 0
M  V30 9434 O 866.327 1.93078 -3.6441 0
M  V30 9435 H 865.668 0.075025 -0.659748 0
M  V30 9436 H 868.198 -0.399996 -2.00652 0
M  V30 9437 H 868.208 1.12059 -3.92309 0
M  V30 9438 H 866.883 -0.0073562 -4.15899 0
M  V30 9439 H 865.46 1.63618 -3.35087 0
M  V30 9440 N 867.645 1.57599 0.00500368 0
M  V30 9441 C 868.87 1.95026 0.705663 0
M  V30 9442 C 869.295 0.869643 1.6679 0
M  V30 9443 O 868.653 -0.172659 1.80476 0
M  V30 9444 C 868.701 3.31545 1.4181 0
M  V30 9445 O 867.805 3.25495 2.53232 0
M  V30 9446 H 867.146 0.636808 0.188074 0
M  V30 9447 H 869.676 2.04547 -0.046696 0
M  V30 9448 H 869.686 3.66996 1.78265 0
M  V30 9449 H 868.361 4.09751 0.712543 0
M  V30 9450 H 866.938 3.01714 2.19142 0
M  V30 9451 N 869.123 -0.277682 1.55134 0
M  V30 9452 C 870.4 -1.0309 1.66228 0
M  V30 9453 C 870.78 -2.0445 0.525701 0
M  V30 9454 O 870.128 -2.23512 -0.474816 0
M  V30 9455 C 870.338 -1.6919 3.05247 0
M  V30 9456 C 871.686 -2.20526 3.62841 0
M  V30 9457 O 872.71 -1.79185 3.07849 0
M  V30 9458 O 871.569 -2.96342 4.59177 0
M  V30 9459 H 868.663 -0.4779 0.674937 0
M  V30 9460 H 871.209 -0.273912 1.67475 0
M  V30 9461 H 869.981 -0.957163 3.79413 0
M  V30 9462 H 869.604 -2.51587 3.07879 0
M  V30 9463 N 870.601 -1.47988 -0.541979 0
M  V30 9464 C 871.831 -1.58804 -1.32155 0
M  V30 9465 C 872.239 -0.242893 -1.87634 0
M  V30 9466 O 871.582 0.776239 -1.66494 0
M  V30 9467 C 871.644 -2.56567 -2.51821 0
M  V30 9468 C 871.308 -4.01915 -2.17517 0
M  V30 9469 C 872.305 -4.89954 -1.73901 0
M  V30 9470 C 869.99 -4.47365 -2.28408 0
M  V30 9471 C 871.984 -6.21467 -1.41625 0
M  V30 9472 C 869.671 -5.78902 -1.95745 0
M  V30 9473 C 870.669 -6.65775 -1.52423 0
M  V30 9474 O 870.357 -7.94866 -1.20183 0
M  V30 9475 H 870.089 -0.538536 -0.408601 0
M  V30 9476 H 872.643 -1.94446 -0.661818 0
M  V30 9477 H 870.873 -2.16023 -3.20735 0
M  V30 9478 H 872.562 -2.57347 -3.13891 0
M  V30 9479 H 873.328 -4.56082 -1.64966 0
M  V30 9480 H 869.207 -3.79942 -2.61084 0
M  V30 9481 H 872.751 -6.8923 -1.07738 0
M  V30 9482 H 868.648 -6.12311 -2.04316 0
M  V30 9483 H 869.416 -8.07509 -1.33683 0
M  V30 9484 N 872.079 0.78992 -1.36375 0
M  V30 9485 C 873.325 1.55007 -1.3077 0
M  V30 9486 C 873.658 1.93871 0.112979 0
M  V30 9487 O 872.933 1.6267 1.06625 0
M  V30 9488 C 873.216 2.82748 -2.22993 0
M  V30 9489 C 873.069 2.50253 -3.73756 0
M  V30 9490 C 874.388 3.84569 -2.13998 0
M  V30 9491 H 871.507 0.562362 -0.476359 0
M  V30 9492 H 874.149 0.907582 -1.66922 0
M  V30 9493 H 872.299 3.37573 -1.92292 0
M  V30 9494 H 873.971 2.01482 -4.14973 0
M  V30 9495 H 872.214 1.83203 -3.93216 0
M  V30 9496 H 872.885 3.41487 -4.33694 0
M  V30 9497 H 875.361 3.39188 -2.4102 0
M  V30 9498 H 874.237 4.717 -2.80697 0
M  V30 9499 H 874.498 4.27491 -1.12711 0
M  V30 9500 N 873.557 1.20646 1.01402 0
M  V30 9501 C 874.504 0.957618 2.09996 0
M  V30 9502 C 875.474 -0.113115 1.65714 0
M  V30 9503 O 876.659 0.032142 1.90773 0
M  V30 9504 C 873.799 0.5186 3.41181 0
M  V30 9505 C 872.912 1.65777 3.98926 0
M  V30 9506 C 872.047 1.16881 5.18182 0
M  V30 9507 C 871.086 2.2809 5.68015 0
M  V30 9508 N 870.223 1.80392 6.7853 0
M  V30 9509 H 875.063 1.88732 2.30617 0
M  V30 9510 H 872.6 0.940703 1.13089 0
M  V30 9511 H 874.558 0.245367 4.16478 0
M  V30 9512 H 873.188 -0.3741 3.20625 0
M  V30 9513 H 872.24 2.04586 3.207 0
M  V30 9514 H 873.552 2.49507 4.31912 0
M  V30 9515 H 872.706 0.851694 6.00692 0
M  V30 9516 H 871.445 0.301434 4.86768 0
M  V30 9517 H 870.45 2.60614 4.84108 0
M  V30 9518 H 871.675 3.15308 6.01463 0
M  V30 9519 H 869.621 0.959856 6.4894 0
M  V30 9520 H 869.538 2.57701 7.10722 0
M  V30 9521 H 870.806 1.51688 7.64598 0
M  V30 9522 N 875.035 -1.20752 1.01276 0
M  V30 9523 C 875.982 -2.234 0.579732 0
M  V30 9524 C 876.952 -1.61256 -0.398206 0
M  V30 9525 O 878.137 -1.8845 -0.29851 0
M  V30 9526 C 875.277 -3.45008 -0.0797006 0
M  V30 9527 C 874.39 -4.21597 0.942343 0
M  V30 9528 C 873.525 -5.30591 0.254364 0
M  V30 9529 C 872.564 -5.98919 1.26343 0
M  V30 9530 N 871.701 -6.99511 0.602384 0
M  V30 9531 H 876.541 -2.59801 1.45971 0
M  V30 9532 H 874.078 -1.27663 0.730787 0
M  V30 9533 H 876.036 -4.1444 -0.479125 0
M  V30 9534 H 874.666 -3.09312 -0.923354 0
M  V30 9535 H 873.718 -3.51268 1.45996 0
M  V30 9536 H 875.03 -4.68576 1.70992 0
M  V30 9537 H 874.184 -6.06368 -0.200763 0
M  V30 9538 H 872.923 -4.84639 -0.545553 0
M  V30 9539 H 871.928 -5.21906 1.72898 0
M  V30 9540 H 873.153 -6.46957 2.06456 0
M  V30 9541 H 871.099 -6.55759 -0.177734 0
M  V30 9542 H 871.016 -7.44597 1.30809 0
M  V30 9543 H 872.284 -7.79313 0.17072 0
M  V30 9544 N 876.513 -0.788492 -1.36457 0
M  V30 9545 C 877.759 -0.360995 -1.99561 0
M  V30 9546 C 878.092 1.06433 -1.62437 0
M  V30 9547 O 877.367 1.7352 -0.878705 0
M  V30 9548 C 877.65 -0.523735 -3.56271 0
M  V30 9549 C 877.503 -1.99268 -4.03252 0
M  V30 9550 C 878.822 0.0617908 -4.40057 0
M  V30 9551 H 875.941 -0.13264 -0.724966 0
M  V30 9552 H 878.583 -0.994659 -1.61884 0
M  V30 9553 H 876.733 0.0156979 -3.88497 0
M  V30 9554 H 878.405 -2.59311 -3.81518 0
M  V30 9555 H 876.648 -2.49561 -3.54826 0
M  V30 9556 H 877.319 -2.05752 -5.12221 0
M  V30 9557 H 879.795 -0.398674 -4.14186 0
M  V30 9558 H 878.671 -0.0821089 -5.48839 0
M  V30 9559 H 878.932 1.15381 -4.26778 0
M  V30 9560 N 877.991 1.48044 -0.54043 0
M  V30 9561 C 878.939 2.31461 0.229862 0
M  V30 9562 C 879.933 1.41884 0.925495 0
M  V30 9563 O 881.139 1.58736 0.848689 0
M  V30 9564 H 877.514 0.746227 0.0929975 0
M  V30 9565 H 879.485 2.94297 -0.493118 0
M  V30 9566 C 878.234 3.24172 1.25729 0
M  V30 9567 H 877.557 3.93052 0.731426 0
M  V30 9568 H 878.997 3.85404 1.76747 0
M  V30 9569 C 877.456 2.4651 2.2964 0
M  V30 9570 O 877.986 2.19742 3.36268 0
M  V30 9571 N 876.192 2.07817 2.03127 0
M  V30 9572 H 875.739 2.29786 1.1643 0
M  V30 9573 H 875.697 1.56168 2.72872 0
M  V30 9574 N 879.47 0.276058 1.55163 0
M  V30 9575 C 880.417 -0.611006 2.22565 0
M  V30 9576 C 881.387 -1.14902 1.19945 0
M  V30 9577 O 882.572 -1.19815 1.48489 0
M  V30 9578 C 879.712 -1.78885 2.95117 0
M  V30 9579 C 878.825 -1.2846 4.12458 0
M  V30 9580 C 877.96 -2.42432 4.72652 0
M  V30 9581 C 876.999 -1.89015 5.82185 0
M  V30 9582 N 876.136 -2.96463 6.36439 0
M  V30 9583 H 880.976 -0.0295849 2.97985 0
M  V30 9584 H 878.513 -0.00283607 1.471 0
M  V30 9585 H 880.471 -2.48121 3.35398 0
M  V30 9586 H 879.101 -2.34229 2.22119 0
M  V30 9587 H 878.153 -0.485312 3.77292 0
M  V30 9588 H 879.465 -0.853358 4.91446 0
M  V30 9589 H 878.619 -3.19659 5.15658 0
M  V30 9590 H 877.358 -2.88872 3.92943 0
M  V30 9591 H 876.363 -1.10267 5.38629 0
M  V30 9592 H 877.588 -1.43509 6.63763 0
M  V30 9593 H 875.534 -3.42283 5.59623 0
M  V30 9594 H 875.451 -2.57759 7.10701 0
M  V30 9595 H 876.719 -3.73663 6.84103 0
M  V30 9596 N 880.948 -1.576 0.00335426 0
M  V30 9597 C 881.911 -2.07576 -0.971838 0
M  V30 9598 C 882.911 -0.985796 -1.27038 0
M  V30 9599 O 884.101 -1.24833 -1.21501 0
M  V30 9600 C 881.233 -2.52003 -2.29581 0
M  V30 9601 H 882.426 -2.95008 -0.539481 0
M  V30 9602 H 879.979 -1.54381 -0.244186 0
M  V30 9603 H 880.714 -1.67825 -2.77498 0
M  V30 9604 H 880.499 -3.31609 -2.09231 0
M  V30 9605 H 881.989 -2.90983 -2.99531 0
M  V30 9606 N 882.426 0.269451 -1.5528 0
M  V30 9607 C 883.654 1.01872 -1.80082 0
M  V30 9608 C 884.069 1.79802 -0.575917 0
M  V30 9609 O 883.426 1.76735 0.455081 0
M  V30 9610 C 883.477 1.9745 -3.02813 0
M  V30 9611 O 883.198 1.22677 -4.20573 0
M  V30 9612 C 884.699 2.8416 -3.40247 0
M  V30 9613 H 881.919 0.300781 -0.59981 0
M  V30 9614 H 884.463 0.29916 -2.023 0
M  V30 9615 H 882.618 2.64864 -2.82712 0
M  V30 9616 H 883.032 1.87129 -4.89982 0
M  V30 9617 H 884.506 3.47014 -4.29284 0
M  V30 9618 H 884.983 3.54113 -2.59809 0
M  V30 9619 H 885.589 2.22232 -3.6262 0
M  V30 9620 N 883.904 1.48273 0.534124 0
M  V30 9621 C 884.814 1.65162 1.66609 0
M  V30 9622 C 885.83 0.534177 1.65598 0
M  V30 9623 O 887.006 0.804715 1.84625 0
M  V30 9624 C 884.071 1.68354 3.03081 0
M  V30 9625 C 883.132 2.91696 3.1498 0
M  V30 9626 C 882.365 2.94725 4.44941 0
M  V30 9627 O 882.588 2.06285 5.31792 0
M  V30 9628 O 881.522 3.8685 4.61119 0
M  V30 9629 H 885.348 2.60991 1.55298 0
M  V30 9630 H 882.933 1.31626 0.706749 0
M  V30 9631 H 884.815 1.72998 3.84252 0
M  V30 9632 H 883.49 0.756978 3.14725 0
M  V30 9633 H 882.397 2.92586 2.33119 0
M  V30 9634 H 883.73 3.83722 3.0825 0
M  V30 9635 N 885.382 -0.782676 1.36792 0
M  V30 9636 C 886.345 -1.8772 1.31507 0
M  V30 9637 C 887.345 -1.59269 0.221349 0
M  V30 9638 O 888.535 -1.67555 0.476544 0
M  V30 9639 C 885.667 -3.24641 1.04025 0
M  V30 9640 H 886.86 -1.9382 2.28853 0
M  V30 9641 H 884.413 -0.981226 1.21662 0
M  V30 9642 H 885.148 -3.24221 0.0716439 0
M  V30 9643 H 884.933 -3.46681 1.8318 0
M  V30 9644 H 886.423 -4.04711 1.02949 0
M  V30 9645 N 886.86 -1.21182 -1.00761 0
M  V30 9646 C 887.823 -0.970339 -2.07646 0
M  V30 9647 C 888.823 0.0576345 -1.60697 0
M  V30 9648 O 890.013 -0.179369 -1.73274 0
M  V30 9649 C 887.145 -0.462703 -3.37745 0
M  V30 9650 H 888.338 -1.91856 -2.30502 0
M  V30 9651 H 885.891 -1.02844 -1.17698 0
M  V30 9652 H 886.626 0.490559 -3.20568 0
M  V30 9653 H 886.411 -1.20416 -3.73152 0
M  V30 9654 H 887.901 -0.313531 -4.16421 0
M  V30 9655 N 888.338 1.20213 -1.01915 0
M  V30 9656 C 889.271 2.2181 -0.536243 0
M  V30 9657 C 890.249 1.57144 0.417689 0
M  V30 9658 O 891.433 1.85461 0.337088 0
M  V30 9659 C 888.56 3.37989 0.219303 0
M  V30 9660 C 887.606 4.2097 -0.684571 0
M  V30 9661 S 888.439 4.90216 -2.15519 0
M  V30 9662 C 889.595 6.09814 -1.40988 0
M  V30 9663 H 889.828 2.62429 -1.39709 0
M  V30 9664 H 887.361 1.30305 -0.828254 0
M  V30 9665 H 889.319 4.05335 0.649112 0
M  V30 9666 H 887.98 2.95825 1.05575 0
M  V30 9667 H 887.173 5.03897 -0.101833 0
M  V30 9668 H 886.775 3.58892 -1.05227 0
M  V30 9669 H 889.067 6.73964 -0.691243 0
M  V30 9670 H 890.01 6.72552 -2.21539 0
M  V30 9671 H 890.418 5.5709 -0.911645 0
M  V30 9672 N 889.816 0.795718 1.36037 0
M  V30 9673 C 891.063 0.371024 1.99072 0
M  V30 9674 C 891.391 -1.05896 1.63145 0
M  V30 9675 O 890.646 -1.7474 0.881163 0
M  V30 9676 C 890.945 0.489038 3.54038 0
M  V30 9677 C 890.611 1.88075 4.09803 0
M  V30 9678 C 889.273 2.26152 4.24745 0
M  V30 9679 C 891.625 2.79174 4.40126 0
M  V30 9680 C 888.953 3.54718 4.67324 0
M  V30 9681 C 891.305 4.07175 4.8414 0
M  V30 9682 C 889.969 4.45266 4.97287 0
M  V30 9683 H 889.239 0.135767 0.728456 0
M  V30 9684 H 891.886 1.0144 1.62426 0
M  V30 9685 H 890.191 -0.237823 3.91078 0
M  V30 9686 H 891.888 0.141374 4.00751 0
M  V30 9687 H 888.478 1.57488 3.98617 0
M  V30 9688 H 892.662 2.51009 4.28145 0
M  V30 9689 H 887.918 3.84093 4.75691 0
M  V30 9690 H 892.092 4.77875 5.06565 0
M  V30 9691 H 889.719 5.44943 5.30038 0
M  V30 9692 N 891.294 -1.47756 0.548274 0
M  V30 9693 C 892.224 -2.32702 -0.19284 0
M  V30 9694 C 893.205 -1.43237 -0.917457 0
M  V30 9695 O 894.39 -1.72103 -0.89967 0
M  V30 9696 C 891.52 -3.24831 -1.22891 0
M  V30 9697 C 890.474 -4.23466 -0.621312 0
M  V30 9698 C 889.8 -5.04856 -1.76137 0
M  V30 9699 C 891.1 -5.20616 0.419055 0
M  V30 9700 H 892.794 -2.94914 0.516323 0
M  V30 9701 H 890.34 -1.41818 0.24975 0
M  V30 9702 H 892.293 -3.83094 -1.75547 0
M  V30 9703 H 891.017 -2.60656 -1.9679 0
M  V30 9704 H 889.676 -3.66416 -0.116123 0
M  V30 9705 H 889.324 -4.37091 -2.48918 0
M  V30 9706 H 889.024 -5.71629 -1.36065 0
M  V30 9707 H 890.548 -5.65976 -2.29136 0
M  V30 9708 H 891.962 -5.73296 -0.0211034 0
M  V30 9709 H 890.359 -5.95543 0.738163 0
M  V30 9710 H 891.429 -4.66638 1.31822 0
M  V30 9711 N 892.772 -0.284283 -1.55015 0
M  V30 9712 C 894.02 0.329212 -1.99401 0
M  V30 9713 C 894.341 1.55687 -1.17416 0
M  V30 9714 O 893.611 1.94087 -0.265937 0
M  V30 9715 H 892.191 0.12463 -0.73653 0
M  V30 9716 H 894.853 -0.391743 -1.90922 0
M  V30 9717 H 893.949 0.61278 -3.06025 0
M  V30 9718 N 894.251 1.57596 -0.0117121 0
M  V30 9719 C 895.497 1.92189 0.665966 0
M  V30 9720 C 895.852 0.887145 1.70726 0
M  V30 9721 O 895.145 -0.099151 1.91343 0
M  V30 9722 C 895.339 3.31296 1.34082 0
M  V30 9723 C 895.168 4.48205 0.366406 0
M  V30 9724 C 893.938 5.05293 -0.0274458 0
M  V30 9725 C 896.136 5.12951 -0.37219 0
M  V30 9726 N 894.118 6.0572 -0.998846 0
M  V30 9727 C 895.489 6.08318 -1.1979 0
M  V30 9728 C 897.544 4.95998 -0.434768 0
M  V30 9729 C 896.247 6.88555 -2.0805 0
M  V30 9730 C 898.273 5.7683 -1.30464 0
M  V30 9731 C 897.635 6.71798 -2.11816 0
M  V30 9732 H 893.734 0.751422 0.216537 0
M  V30 9733 H 896.318 1.94556 -0.0748079 0
M  V30 9734 H 894.489 3.2978 2.05182 0
M  V30 9735 H 896.221 3.53285 1.97413 0
M  V30 9736 H 892.976 4.72354 0.343382 0
M  V30 9737 H 893.4 6.60619 -1.48027 0
M  V30 9738 H 898.042 4.22417 0.179925 0
M  V30 9739 H 895.76 7.61453 -2.70581 0
M  V30 9740 H 899.346 5.6575 -1.35712 0
M  V30 9741 H 898.226 7.33256 -2.78037 0
M  V30 9742 N 895.729 -0.261212 1.5542 0
M  V30 9743 C 896.975 -0.992699 1.76843 0
M  V30 9744 C 897.308 -1.8551 0.574428 0
M  V30 9745 O 896.583 -1.89739 -0.427713 0
M  V30 9746 C 896.866 -1.86532 3.08022 0
M  V30 9747 C 896.719 -1.03206 4.378 0
M  V30 9748 C 898.038 -2.85036 3.35324 0
M  V30 9749 H 895.157 -0.359473 0.643388 0
M  V30 9750 H 897.799 -0.264214 1.88154 0
M  V30 9751 H 895.949 -2.48644 2.9851 0
M  V30 9752 H 897.621 -0.430743 4.59285 0
M  V30 9753 H 895.864 -0.335911 4.32497 0
M  V30 9754 H 896.535 -1.6761 5.25938 0
M  V30 9755 H 899.011 -2.3306 3.44706 0
M  V30 9756 H 897.887 -3.43226 4.28354 0
M  V30 9757 H 898.148 -3.60768 2.55537 0
M  V30 9758 N 897.207 -1.48554 -0.526253 0
M  V30 9759 C 898.117 -1.66044 -1.65731 0
M  V30 9760 C 899.133 -0.542951 -1.65312 0
M  V30 9761 O 900.309 -0.814495 -1.84195 0
M  V30 9762 C 897.374 -1.69959 -3.02184 0
M  V30 9763 C 896.435 -2.93362 -3.13428 0
M  V30 9764 C 895.668 -2.97081 -4.43372 0
M  V30 9765 O 895.891 -2.09103 -5.3069 0
M  V30 9766 O 894.825 -3.8929 -4.59061 0
M  V30 9767 H 898.651 -2.61811 -1.53912 0
M  V30 9768 H 896.236 -1.31999 -0.699759 0
M  V30 9769 H 898.118 -1.75033 -3.83329 0
M  V30 9770 H 896.793 -0.773658 -3.14319 0
M  V30 9771 H 895.7 -2.93818 -2.31564 0
M  V30 9772 H 897.033 -3.85352 -3.06211 0
M  V30 9773 N 898.685 0.775411 -1.37205 0
M  V30 9774 C 899.617 1.89761 -1.28544 0
M  V30 9775 C 900.63 1.61542 -0.201996 0
M  V30 9776 O 901.819 1.72528 -0.457848 0
M  V30 9777 C 898.919 3.24904 -0.963885 0
M  V30 9778 C 898.092 3.80796 -2.15205 0
M  V30 9779 C 897.151 4.94407 -1.80135 0
M  V30 9780 O 896.177 5.10185 -2.52388 0
M  V30 9781 N 897.379 5.75722 -0.743298 0
M  V30 9782 H 900.144 1.97708 -2.25237 0
M  V30 9783 H 897.705 0.954348 -1.30782 0
M  V30 9784 H 899.697 3.9842 -0.710182 0
M  V30 9785 H 898.267 3.12483 -0.085632 0
M  V30 9786 H 897.487 2.99101 -2.56773 0
M  V30 9787 H 898.775 4.1487 -2.94552 0
M  V30 9788 H 898.173 5.65518 -0.143655 0
M  V30 9789 H 896.73 6.4948 -0.549446 0
M  V30 9790 N 900.163 1.21714 1.00117 0
M  V30 9791 C 901.093 1.00397 2.10815 0
M  V30 9792 C 902.074 -0.0723502 1.69946 0
M  V30 9793 O 903.259 0.0882398 1.93999 0
M  V30 9794 C 900.389 0.572001 3.42557 0
M  V30 9795 C 899.343 1.59331 3.97237 0
M  V30 9796 C 898.669 1.01746 5.2493 0
M  V30 9797 C 899.969 2.98117 4.28863 0
M  V30 9798 H 901.663 1.92983 2.28906 0
M  V30 9799 H 899.209 0.929273 1.10002 0
M  V30 9800 H 901.162 0.410018 4.19401 0
M  V30 9801 H 899.886 -0.38951 3.24269 0
M  V30 9802 H 898.545 1.74293 3.22518 0
M  V30 9803 H 898.193 0.0475491 5.02978 0
M  V30 9804 H 897.893 1.69969 5.62481 0
M  V30 9805 H 899.417 0.866881 6.04415 0
M  V30 9806 H 900.831 2.86578 4.96534 0
M  V30 9807 H 899.228 3.63389 4.77565 0
M  V30 9808 H 900.298 3.48674 3.36979 0
M  V30 9809 N 901.641 -1.19671 1.02551 0
M  V30 9810 C 902.887 -1.89548 0.721069 0
M  V30 9811 C 903.22 -1.79209 -0.748176 0
M  V30 9812 O 902.495 -1.1822 -1.54448 0
M  V30 9813 C 902.778 -3.4061 1.16861 0
M  V30 9814 C 902.631 -3.59838 2.69883 0
M  V30 9815 C 903.95 -4.33718 0.746782 0
M  V30 9816 H 901.069 -0.688315 0.263422 0
M  V30 9817 H 903.711 -1.40883 1.27483 0
M  V30 9818 H 901.861 -3.82188 0.697477 0
M  V30 9819 H 903.533 -3.27454 3.24917 0
M  V30 9820 H 901.776 -3.03005 3.10435 0
M  V30 9821 H 902.447 -4.65766 2.96253 0
M  V30 9822 H 904.923 -3.99837 1.15195 0
M  V30 9823 H 903.799 -5.38012 1.08786 0
M  V30 9824 H 904.06 -4.40704 -0.351057 0
M  V30 9825 N 903.119 -0.802921 -1.35613 0
M  V30 9826 C 904.349 -0.393359 -2.02821 0
M  V30 9827 C 904.757 0.999282 -1.60658 0
M  V30 9828 O 904.1 1.65463 -0.797977 0
M  V30 9829 C 904.162 -0.393102 -3.57344 0
M  V30 9830 C 903.826 -1.73563 -4.22759 0
M  V30 9831 C 904.823 -2.69333 -4.44698 0
M  V30 9832 C 902.508 -2.01863 -4.59953 0
M  V30 9833 C 904.502 -3.91589 -5.02928 0
M  V30 9834 C 902.189 -3.24383 -5.17898 0
M  V30 9835 C 903.187 -4.19064 -5.39328 0
M  V30 9836 O 902.875 -5.39422 -5.96053 0
M  V30 9837 H 902.607 -0.158431 -0.657172 0
M  V30 9838 H 905.161 -1.08682 -1.74291 0
M  V30 9839 H 903.391 0.356934 -3.85049 0
M  V30 9840 H 905.08 -0.00635596 -4.059 0
M  V30 9841 H 905.846 -2.48759 -4.16346 0
M  V30 9842 H 901.725 -1.28979 -4.42589 0
M  V30 9843 H 905.269 -4.65502 -5.1957 0
M  V30 9844 H 901.166 -3.44829 -5.45677 0
M  V30 9845 H 901.934 -5.40669 -6.14507 0
M  V30 9846 N 904.597 1.47463 -0.556102 0
M  V30 9847 C 905.874 1.9557 0.0339892 0
M  V30 9848 C 906.254 1.49869 1.48669 0
M  V30 9849 O 905.602 0.737019 2.16288 0
M  V30 9850 C 905.812 3.48826 -0.110343 0
M  V30 9851 C 907.16 4.24585 0.0355716 0
M  V30 9852 O 908.184 3.5618 -0.0378356 0
M  V30 9853 O 907.043 5.46158 0.193299 0
M  V30 9854 H 904.137 0.824461 0.0647521 0
M  V30 9855 H 906.683 1.57868 -0.622547 0
M  V30 9856 H 905.455 3.74891 -1.12126 0
M  V30 9857 H 905.078 3.9329 0.583855 0
M  V30 9858 N 906.075 0.2925 1.54862 0
M  V30 9859 C 907.322 -0.319263 1.99967 0
M  V30 9860 C 907.65 -1.54547 1.18092 0
M  V30 9861 O 906.905 -1.94186 0.242969 0
M  V30 9862 C 907.204 -0.728674 3.49893 0
M  V30 9863 C 906.87 0.394836 4.49168 0
M  V30 9864 C 905.532 0.703289 4.76033 0
M  V30 9865 C 907.884 1.15103 5.08331 0
M  V30 9866 C 905.212 1.77121 5.59325 0
M  V30 9867 C 907.564 2.20881 5.92785 0
M  V30 9868 C 906.228 2.52342 6.17964 0
M  V30 9869 H 905.498 -0.116827 0.731733 0
M  V30 9870 H 908.145 0.40983 1.87063 0
M  V30 9871 H 906.45 -1.53772 3.60363 0
M  V30 9872 H 908.147 -1.21305 3.82212 0
M  V30 9873 H 904.737 0.144319 4.28357 0
M  V30 9874 H 908.921 0.92599 4.87585 0
M  V30 9875 H 904.177 2.01978 5.77074 0
M  V30 9876 H 908.351 2.79939 6.37657 0
M  V30 9877 H 905.978 3.35225 6.82296 0
M  V30 9878 N 907.553 -1.57587 0.0200696 0
M  V30 9879 C 908.781 -1.95718 -0.670964 0
M  V30 9880 C 909.196 -0.896081 -1.6618 0
M  V30 9881 O 908.553 0.123037 -1.82085 0
M  V30 9882 C 908.604 -3.33904 -1.38529 0
M  V30 9883 O 908.325 -4.35943 -0.434167 0
M  V30 9884 C 909.826 -3.86614 -2.16898 0
M  V30 9885 H 907.046 -0.644819 -0.185606 0
M  V30 9886 H 909.59 -2.04354 0.0771495 0
M  V30 9887 H 907.745 -3.26515 -2.08487 0
M  V30 9888 H 908.159 -5.16001 -0.940378 0
M  V30 9889 H 909.633 -4.85673 -2.62346 0
M  V30 9890 H 910.11 -3.20379 -3.00423 0
M  V30 9891 H 910.716 -3.97243 -1.51916 0
M  V30 9892 N 909.032 0.252966 -1.55557 0
M  V30 9893 C 910.309 1.00432 -1.67847 0
M  V30 9894 C 910.689 2.03587 -0.55816 0
M  V30 9895 O 910.037 2.24239 0.439197 0
M  V30 9896 C 910.247 1.64313 -3.079 0
M  V30 9897 C 911.595 2.14726 -3.66303 0
M  V30 9898 O 912.619 1.74264 -3.10661 0
M  V30 9899 O 911.478 2.89 -4.63833 0
M  V30 9900 H 908.572 0.467102 -0.682455 0
M  V30 9901 H 911.118 0.247233 -1.67889 0
M  V30 9902 H 909.89 0.896681 -3.80888 0
M  V30 9903 H 909.513 2.46657 -3.11843 0
M  V30 9904 N 910.51 1.48831 0.518367 0
M  V30 9905 C 911.42 1.6692 1.64848 0
M  V30 9906 C 912.436 0.551711 1.65022 0
M  V30 9907 O 913.612 0.824251 1.83761 0
M  V30 9908 C 910.677 1.71559 3.01278 0
M  V30 9909 C 909.738 2.9502 3.11868 0
M  V30 9910 C 908.971 2.99428 4.4179 0
M  V30 9911 O 909.194 2.11914 5.29574 0
M  V30 9912 O 908.128 3.91719 4.5699 0
M  V30 9913 H 911.954 2.62623 1.52521 0
M  V30 9914 H 909.539 1.32368 0.692749 0
M  V30 9915 H 911.421 1.77064 3.82396 0
M  V30 9916 H 910.096 0.790316 3.13904 0
M  V30 9917 H 909.003 2.95042 2.30003 0
M  V30 9918 H 910.336 3.8697 3.04163 0
M  V30 9919 N 911.988 -0.768124 1.37614 0
M  V30 9920 C 913.216 -1.55726 1.36224 0
M  V30 9921 C 913.631 -1.8873 -0.0515357 0
M  V30 9922 O 912.988 -1.51718 -1.0143 0
M  V30 9923 C 913.039 -2.86533 2.20412 0
M  V30 9924 O 912.76 -2.54942 3.56281 0
M  V30 9925 C 914.261 -3.80745 2.27041 0
M  V30 9926 H 911.481 -0.482325 0.46648 0
M  V30 9927 H 914.025 -0.95176 1.81002 0
M  V30 9928 H 912.18 -3.43496 1.79134 0
M  V30 9929 H 912.594 -3.38732 4.00451 0
M  V30 9930 H 914.068 -4.69523 2.90263 0
M  V30 9931 H 914.545 -4.20138 1.27987 0
M  V30 9932 H 915.151 -3.2971 2.68647 0
M  V30 9933 N 913.466 -1.22244 -0.994698 0
M  V30 9934 C 914.691 -1.07299 -1.77487 0
M  V30 9935 C 915.116 0.372302 -1.84379 0
M  V30 9936 O 914.474 1.2689 -1.29494 0
M  V30 9937 C 914.522 -1.68675 -3.18718 0
M  V30 9938 O 913.626 -0.939202 -4.01563 0
M  V30 9939 H 912.967 -0.376979 -0.546611 0
M  V30 9940 H 915.497 -1.62003 -1.24965 0
M  V30 9941 H 915.507 -1.73324 -3.69354 0
M  V30 9942 H 914.182 -2.73849 -3.13017 0
M  V30 9943 H 912.759 -0.968583 -3.60101 0
M  V30 9944 N 914.944 1.19125 -1.03184 0
M  V30 9945 C 915.854 2.26112 -0.625329 0
M  V30 9946 C 916.87 1.7056 0.344298 0
M  V30 9947 O 918.046 2.0039 0.20144 0
M  V30 9948 C 915.111 3.46697 0.0145169 0
M  V30 9949 C 914.172 4.17419 -1.00299 0
M  V30 9950 C 913.405 5.32247 -0.393581 0
M  V30 9951 O 913.628 5.64724 0.802659 0
M  V30 9952 O 912.562 5.91428 -1.1179 0
M  V30 9953 H 916.388 2.63131 -1.51643 0
M  V30 9954 H 913.973 1.26036 -0.802197 0
M  V30 9955 H 915.855 4.19762 0.371139 0
M  V30 9956 H 914.53 3.11521 0.879581 0
M  V30 9957 H 913.437 3.4646 -1.41125 0
M  V30 9958 H 914.77 4.56573 -1.83852 0
M  V30 9959 N 916.422 0.810101 1.35185 0
M  V30 9960 C 917.668 0.392698 1.98962 0
M  V30 9961 C 918.001 -1.03835 1.64109 0
M  V30 9962 O 917.276 -1.721 0.9062 0
M  V30 9963 C 917.559 0.580349 3.55393 0
M  V30 9964 C 917.412 2.05658 4.00031 0
M  V30 9965 C 918.731 0.00822618 4.40099 0
M  V30 9966 H 915.85 0.144157 0.722764 0
M  V30 9967 H 918.492 1.02029 1.60281 0
M  V30 9968 H 916.642 0.0461106 3.88473 0
M  V30 9969 H 918.314 2.65348 3.77344 0
M  V30 9970 H 916.557 2.55174 3.50811 0
M  V30 9971 H 917.228 2.13875 5.08883 0
M  V30 9972 H 919.704 0.464517 4.13499 0
M  V30 9973 H 918.58 0.169414 5.48638 0
M  V30 9974 H 918.841 -1.08576 4.2856 0
M  V30 9975 N 917.9 -1.47166 0.563914 0
M  V30 9976 C 919.125 -2.0735 0.0454698 0
M  V30 9977 C 919.55 -1.41281 -1.24182 0
M  V30 9978 O 918.908 -0.490084 -1.7455 0
M  V30 9979 C 918.956 -3.60378 -0.126453 0
M  V30 9980 O 918.06 -3.94934 -1.18746 0
M  V30 9981 H 917.401 -0.661773 0.0543377 0
M  V30 9982 H 919.931 -1.89086 0.781508 0
M  V30 9983 H 919.941 -4.06593 -0.338554 0
M  V30 9984 H 918.616 -4.07862 0.81373 0
M  V30 9985 H 917.193 -3.60455 -0.955318 0
M  V30 9986 N 919.378 -0.300708 -1.54705 0
M  V30 9987 C 920.606 0.31127 -2.04545 0
M  V30 9988 C 921.021 1.47542 -1.178 0
M  V30 9989 O 920.378 1.81361 -0.203571 0
M  V30 9990 C 920.429 0.767783 -3.53253 0
M  V30 9991 O 920.15 -0.350027 -4.36699 0
M  V30 9992 C 921.651 1.44494 -4.1909 0
M  V30 9993 H 918.871 0.067668 -0.667579 0
M  V30 9994 H 921.415 -0.440254 -1.99705 0
M  V30 9995 H 919.57 1.46933 -3.58454 0
M  V30 9996 H 919.984 0.00534038 -5.245 0
M  V30 9997 H 921.458 1.71553 -5.24665 0
M  V30 9998 H 921.935 2.3849 -3.68808 0
M  V30 9999 H 922.541 0.786581 -4.17963 0
M  V30 10000 N 920.856 1.57574 -0.0284266 0
M  V30 10001 C 922.084 1.96071 0.660575 0
M  V30 10002 C 922.499 0.904881 1.65703 0
M  V30 10003 O 921.856 -0.113379 1.82147 0
M  V30 10004 C 921.907 3.34634 1.36756 0
M  V30 10005 O 921.628 4.36167 0.411041 0
M  V30 10006 C 923.129 3.87758 2.14845 0
M  V30 10007 H 920.349 0.645794 0.182183 0
M  V30 10008 H 922.893 2.04311 -0.0879858 0
M  V30 10009 H 921.048 3.27616 2.06753 0
M  V30 10010 H 921.462 5.16493 0.913 0
M  V30 10011 H 922.936 4.87058 2.59767 0
M  V30 10012 H 923.413 3.21967 2.9872 0
M  V30 10013 H 924.019 3.98043 1.49807 0
M  V30 10014 N 922.334 -0.244713 1.55689 0
M  V30 10015 C 923.611 -0.995407 1.68378 0
M  V30 10016 C 923.991 -2.03288 0.568949 0
M  V30 10017 O 923.339 -2.24469 -0.427299 0
M  V30 10018 C 923.549 -1.62678 3.08767 0
M  V30 10019 C 924.897 -2.1278 3.67437 0
M  V30 10020 O 925.921 -1.72614 3.11581 0
M  V30 10021 O 924.78 -2.86536 4.65359 0
M  V30 10022 H 921.874 -0.463476 0.684923 0
M  V30 10023 H 924.42 -0.238326 1.68018 0
M  V30 10024 H 923.192 -0.876469 3.81358 0
M  V30 10025 H 922.815 -2.45 3.13146 0
M  V30 10026 N 923.813 -1.49104 -0.510467 0
M  V30 10027 C 924.76 -1.65074 -1.61305 0
M  V30 10028 C 925.73 -0.492362 -1.58635 0
M  V30 10029 O 926.915 -0.718241 -1.76765 0
M  V30 10030 C 924.055 -1.71457 -2.99493 0
M  V30 10031 C 923.168 -2.98536 -3.12251 0
M  V30 10032 C 922.303 -2.95957 -4.41116 0
M  V30 10033 C 921.342 -4.17655 -4.47471 0
M  V30 10034 N 920.479 -4.13041 -5.67751 0
M  V30 10035 H 925.319 -2.59222 -1.46996 0
M  V30 10036 H 922.856 -1.28535 -0.715346 0
M  V30 10037 H 924.814 -1.7314 -3.79577 0
M  V30 10038 H 923.444 -0.807834 -3.12528 0
M  V30 10039 H 922.496 -3.06509 -2.25292 0
M  V30 10040 H 923.808 -3.88527 -3.12807 0
M  V30 10041 H 922.962 -2.96149 -5.2951 0
M  V30 10042 H 921.701 -2.03728 -4.4311 0
M  V30 10043 H 920.706 -4.17717 -3.57481 0
M  V30 10044 H 921.931 -5.11066 -4.472 0
M  V30 10045 H 919.877 -3.23643 -5.70606 0
M  V30 10046 H 919.794 -4.96757 -5.69884 0
M  V30 10047 H 921.062 -4.17322 -6.58379 0
M  V30 10048 N 925.291 0.760815 -1.38019 0
M  V30 10049 C 926.54 1.51506 -1.3315 0
M  V30 10050 C 926.853 1.95444 0.0782124 0
M  V30 10051 O 928.059 2.70352 0.249418 0
M  V30 10052 C 926.515 2.73636 -2.33776 0
M  V30 10053 C 926.123 2.36753 -3.80332 0
M  V30 10054 C 927.867 3.51548 -2.37937 0
M  V30 10055 C 925.774 3.55451 -4.72661 0
M  V30 10056 H 924.704 0.568844 -0.494907 0
M  V30 10057 H 927.355 0.832343 -1.63537 0
M  V30 10058 H 925.737 3.43852 -1.96422 0
M  V30 10059 H 926.911 1.7425 -4.26584 0
M  V30 10060 H 925.226 1.71991 -3.7922 0
M  V30 10061 H 927.823 4.39791 -3.04119 0
M  V30 10062 H 928.166 3.9219 -1.39617 0
M  V30 10063 H 928.699 2.88339 -2.74054 0
M  V30 10064 H 925.438 3.19882 -5.7215 0
M  V30 10065 H 924.958 4.17022 -4.31107 0
M  V30 10066 H 926.637 4.22125 -4.90326 0
M  V30 10067 N 926.769 1.22769 0.988202 0
M  V30 10068 C 927.732 1.00325 2.06076 0
M  V30 10069 C 928.732 -0.0320618 1.60768 0
M  V30 10070 O 929.922 0.206912 1.72967 0
M  V30 10071 C 927.054 0.516376 3.36966 0
M  V30 10072 H 928.247 1.95499 2.27421 0
M  V30 10073 H 925.8 1.04704 1.16047 0
M  V30 10074 H 926.535 -0.439498 3.21308 0
M  V30 10075 H 926.32 1.26337 3.71189 0
M  V30 10076 H 927.81 0.37974 4.1587 0
M  V30 10077 N 928.247 -1.18576 1.03814 0
M  V30 10078 C 929.524 -1.8433 0.654358 0
M  V30 10079 C 929.904 -1.92504 -0.866338 0
M  V30 10080 O 929.252 -1.44904 -1.76678 0
M  V30 10081 C 929.462 -3.22778 1.32723 0
M  V30 10082 C 930.81 -3.98841 1.45641 0
M  V30 10083 O 931.834 -3.32209 1.28514 0
M  V30 10084 O 930.693 -5.18219 1.73526 0
M  V30 10085 H 927.787 -0.794766 0.228638 0
M  V30 10086 H 930.333 -1.25989 1.13687 0
M  V30 10087 H 929.105 -3.11717 2.36534 0
M  V30 10088 H 928.728 -3.88772 0.833176 0
M  V30 10089 N 929.725 -0.817259 -1.34754 0
M  V30 10090 C 930.974 -0.39908 -1.97713 0
M  V30 10091 C 931.287 1.04203 -1.65533 0
M  V30 10092 O 932.493 1.56384 -2.21937 0
M  V30 10093 C 930.949 -0.662634 -3.53747 0
M  V30 10094 C 930.557 -2.11699 -3.94826 0
M  V30 10095 C 932.301 -0.31034 -4.23364 0
M  V30 10096 C 930.208 -2.32573 -5.4375 0
M  V30 10097 H 929.138 -0.145488 -0.739831 0
M  V30 10098 H 931.789 -1.00282 -1.53674 0
M  V30 10099 H 930.171 0.0111972 -3.95998 0
M  V30 10100 H 931.345 -2.82951 -3.63697 0
M  V30 10101 H 929.66 -2.43017 -3.3813 0
M  V30 10102 H 932.257 -0.44421 -5.32852 0
M  V30 10103 H 932.6 0.744594 -4.09587 0
M  V30 10104 H 933.133 -0.938518 -3.8657 0
M  V30 10105 H 929.872 -3.36551 -5.62507 0
M  V30 10106 H 929.392 -1.65858 -5.76412 0
M  V30 10107 H 931.071 -2.14651 -6.10356 0
M  V30 10108 N 931.203 1.46865 -0.571711 0
M  V30 10109 C 932.431 2.06818 -0.0583975 0
M  V30 10110 C 932.846 1.42218 1.24175 0
M  V30 10111 O 932.203 0.523655 1.74826 0
M  V30 10112 C 932.254 3.61281 0.125673 0
M  V30 10113 O 931.975 4.23462 -1.123 0
M  V30 10114 C 933.476 4.38137 0.674604 0
M  V30 10115 H 930.696 0.668948 -0.052438 0
M  V30 10116 H 933.24 1.88656 -0.789251 0
M  V30 10117 H 931.395 3.78908 0.806707 0
M  V30 10118 H 931.809 5.16192 -0.929869 0
M  V30 10119 H 933.283 5.46845 0.752626 0
M  V30 10120 H 933.76 4.05419 1.68915 0
M  V30 10121 H 934.366 4.2529 0.0287979 0
M  V30 10122 N 932.681 0.308908 1.54543 0
M  V30 10123 C 933.93 -0.298854 1.99474 0
M  V30 10124 C 934.243 -1.54393 1.20093 0
M  V30 10125 O 935.449 -2.22677 1.55329 0
M  V30 10126 C 933.905 -0.58303 3.55146 0
M  V30 10127 C 933.513 0.644157 4.43345 0
M  V30 10128 C 935.257 -1.15155 4.08582 0
M  V30 10129 C 933.164 0.332694 5.90463 0
M  V30 10130 H 932.094 -0.115445 0.74511 0
M  V30 10131 H 934.745 0.418848 1.78656 0
M  V30 10132 H 933.127 -1.36053 3.71894 0
M  V30 10133 H 934.301 1.42012 4.38371 0
M  V30 10134 H 932.616 1.13186 4.00722 0
M  V30 10135 H 935.213 -1.39896 5.16075 0
M  V30 10136 H 935.556 -2.09632 3.59667 0
M  V30 10137 H 936.089 -0.435571 3.95408 0
M  V30 10138 H 932.828 1.24624 6.43544 0
M  V30 10139 H 932.348 -0.405844 5.98425 0
M  V30 10140 H 934.027 -0.0628545 6.46969 0
M  V30 10141 N 934.159 -1.57557 0.0367827 0
M  V30 10142 C 935.408 -1.91291 -0.639569 0
M  V30 10143 C 935.721 -0.915601 -1.72847 0
M  V30 10144 O 936.927 -1.14447 -2.46199 0
M  V30 10145 C 935.383 -3.39697 -1.18888 0
M  V30 10146 C 934.991 -4.47803 -0.132851 0
M  V30 10147 C 936.735 -3.82487 -1.8413 0
M  V30 10148 C 934.642 -5.87311 -0.694229 0
M  V30 10149 H 933.572 -0.713886 -0.242658 0
M  V30 10150 H 936.223 -1.83209 0.103332 0
M  V30 10151 H 934.605 -3.42736 -1.98363 0
M  V30 10152 H 935.779 -4.56334 0.640009 0
M  V30 10153 H 934.094 -4.14264 0.421264 0
M  V30 10154 H 936.691 -4.84076 -2.27101 0
M  V30 10155 H 937.034 -3.17959 -2.68716 0
M  V30 10156 H 937.567 -3.81903 -1.11332 0
M  V30 10157 H 934.306 -6.55401 0.113667 0
M  V30 10158 H 933.826 -5.82371 -1.4354 0
M  V30 10159 H 935.505 -6.36119 -1.1816 0
M  V30 10160 N 935.637 0.236453 -1.55816 0
M  V30 10161 C 936.886 0.960981 -1.77336 0
M  V30 10162 C 937.199 1.86085 -0.602641 0
M  V30 10163 O 938.405 2.62291 -0.701106 0
M  V30 10164 C 936.861 1.75884 -3.13995 0
M  V30 10165 C 936.469 0.905849 -4.38746 0
M  V30 10166 C 938.213 2.47548 -3.44848 0
M  V30 10167 C 936.12 1.7002 -5.66434 0
M  V30 10168 H 935.05 0.362547 -0.661117 0
M  V30 10169 H 937.701 0.215303 -1.82233 0
M  V30 10170 H 936.083 2.54687 -3.03234 0
M  V30 10171 H 937.257 0.159415 -4.60524 0
M  V30 10172 H 935.572 0.30205 -4.15303 0
M  V30 10173 H 938.169 3.07452 -4.37467 0
M  V30 10174 H 938.512 3.19689 -2.66655 0
M  V30 10175 H 939.045 1.75747 -3.56872 0
M  V30 10176 H 935.784 1.02234 -6.47479 0
M  V30 10177 H 935.304 2.42164 -5.48741 0
M  V30 10178 H 936.983 2.26469 -6.0607 0
M  V30 10179 N 937.115 1.49373 0.502552 0
M  V30 10180 C 938.526 1.52 1.0841 0
M  V30 10181 C 938.877 0.305317 1.9381 0
M  V30 10182 O 938.002 -0.585023 2.08342 0
M  V30 10183 C 938.597 2.75437 1.97281 0
M  V30 10184 C 937.156 2.80848 2.50602 0
M  V30 10185 C 936.303 2.45894 1.28186 0
M  V30 10186 H 939.254 1.56092 0.286533 0
M  V30 10187 H 939.275 2.55511 2.81947 0
M  V30 10188 H 938.787 3.63827 1.35098 0
M  V30 10189 H 936.888 1.96735 3.16427 0
M  V30 10190 H 937.001 3.82979 2.8786 0
M  V30 10191 H 935.365 1.97639 1.60657 0
M  V30 10192 H 936.148 3.36556 0.677139 0
M  V30 10193 N 938.594 -0.753485 1.38421 0
M  V30 10194 C 939.824 -1.54049 1.37669 0
M  V30 10195 C 940.232 -1.89167 -0.0353656 0
M  V30 10196 O 939.575 -1.53285 -1.01239 0
M  V30 10197 C 939.637 -2.86777 2.16793 0
M  V30 10198 C 939.301 -2.74196 3.65603 0
M  V30 10199 C 940.298 -2.43985 4.59094 0
M  V30 10200 C 937.983 -2.91645 4.0896 0
M  V30 10201 C 939.977 -2.31379 5.93921 0
M  V30 10202 C 937.664 -2.78658 5.43868 0
M  V30 10203 C 938.662 -2.48568 6.36163 0
M  V30 10204 O 938.35 -2.3564 7.68589 0
M  V30 10205 H 938.082 -0.483276 0.472673 0
M  V30 10206 H 940.636 -0.940267 1.82615 0
M  V30 10207 H 938.866 -3.48988 1.66565 0
M  V30 10208 H 940.555 -3.48289 2.08446 0
M  V30 10209 H 941.321 -2.30172 4.26902 0
M  V30 10210 H 937.2 -3.14063 3.37469 0
M  V30 10211 H 940.744 -2.07813 6.65927 0
M  V30 10212 H 936.641 -2.92044 5.75656 0
M  V30 10213 H 937.409 -2.50851 7.79112 0
M  V30 10214 N 940.072 -1.23292 -0.981677 0
M  V30 10215 C 941.321 -1.05832 -1.71705 0
M  V30 10216 C 941.634 0.40514 -1.91358 0
M  V30 10217 O 942.84 0.699645 -2.6233 0
M  V30 10218 C 941.296 -1.84532 -3.08992 0
M  V30 10219 C 940.904 -3.35199 -2.9723 0
M  V30 10220 C 942.648 -1.75557 -3.86497 0
M  V30 10221 C 940.555 -4.06296 -4.29741 0
M  V30 10222 H 939.485 -0.39241 -0.64384 0
M  V30 10223 H 942.136 -1.47247 -1.09502 0
M  V30 10224 H 940.518 -1.35923 -3.71942 0
M  V30 10225 H 941.692 -3.91286 -2.43377 0
M  V30 10226 H 940.007 -3.44973 -2.332 0
M  V30 10227 H 942.604 -2.25989 -4.84596 0
M  V30 10228 H 942.947 -0.718101 -4.1006 0
M  V30 10229 H 943.48 -2.21771 -3.30246 0
M  V30 10230 H 940.219 -5.10344 -4.11375 0
M  V30 10231 H 939.739 -3.54997 -4.83464 0
M  V30 10232 H 941.418 -4.12519 -4.98434 0
M  V30 10233 N 941.55 1.18024 -1.04442 0
M  V30 10234 C 942.798 1.87727 -0.74854 0
M  V30 10235 C 943.119 1.80975 0.726156 0
M  V30 10236 O 942.389 1.23061 1.52423 0
M  V30 10237 H 940.969 0.694974 -0.273897 0
M  V30 10238 H 943.631 1.43213 -1.32197 0
M  V30 10239 H 942.727 2.93665 -1.05674 0
M  V30 10240 N 943.028 0.824394 1.34319 0
M  V30 10241 C 944.439 0.471802 1.8064 0
M  V30 10242 C 944.79 -1.00793 1.6833 0
M  V30 10243 O 943.915 -1.78447 1.22416 0
M  V30 10244 C 944.51 0.849609 3.27974 0
M  V30 10245 C 943.069 0.549365 3.72369 0
M  V30 10246 C 942.216 1.06573 2.56003 0
M  V30 10247 H 945.167 1.01443 1.22045 0
M  V30 10248 H 945.188 0.153968 3.80188 0
M  V30 10249 H 944.7 1.92663 3.36902 0
M  V30 10250 H 942.801 -0.518182 3.68979 0
M  V30 10251 H 942.914 1.09446 4.66432 0
M  V30 10252 H 941.278 0.487214 2.49997 0
M  V30 10253 H 942.061 2.14923 2.677 0
M  V30 10254 N 944.506 -1.46559 0.579492 0
M  V30 10255 C 945.469 -2.28739 -0.145371 0
M  V30 10256 C 946.469 -1.38211 -0.821854 0
M  V30 10257 O 947.659 -1.6062 -0.674302 0
M  V30 10258 C 944.791 -3.18507 -1.21515 0
M  V30 10259 H 945.984 -2.94301 0.576786 0
M  V30 10260 H 943.537 -1.52616 0.337327 0
M  V30 10261 H 944.272 -2.57685 -1.96899 0
M  V30 10262 H 944.057 -3.85157 -0.734616 0
M  V30 10263 H 945.547 -3.80369 -1.72363 0
M  V30 10264 N 945.984 -0.3171 -1.54377 0
M  V30 10265 C 946.914 0.544623 -2.2706 0
M  V30 10266 C 947.895 1.12469 -1.27611 0
M  V30 10267 O 949.08 1.15103 -1.56413 0
M  V30 10268 C 946.21 1.70879 -3.02353 0
M  V30 10269 C 945.164 1.25833 -4.09084 0
M  V30 10270 C 944.49 2.50894 -4.72182 0
M  V30 10271 C 945.79 0.377876 -5.20931 0
M  V30 10272 H 947.484 -0.0616372 -2.99337 0
M  V30 10273 H 945.03 -0.0310848 -1.43966 0
M  V30 10274 H 946.983 2.31787 -3.51927 0
M  V30 10275 H 945.707 2.34155 -2.27682 0
M  V30 10276 H 944.366 0.672228 -3.60384 0
M  V30 10277 H 944.014 3.12518 -3.94134 0
M  V30 10278 H 943.714 2.21447 -5.44275 0
M  V30 10279 H 945.238 3.12575 -5.24528 0
M  V30 10280 H 946.652 0.893056 -5.66302 0
M  V30 10281 H 945.049 0.176474 -5.9984 0
M  V30 10282 H 946.119 -0.592943 -4.81261 0
M  V30 10283 N 947.462 1.57535 -0.0451378 0
M  V30 10284 C 948.41 2.12351 0.949205 0
M  V30 10285 C 949.404 1.05386 1.32628 0
M  V30 10286 O 950.61 1.23802 1.30664 0
M  V30 10287 H 946.985 0.678648 0.323945 0
M  V30 10288 H 948.956 2.94806 0.461718 0
M  V30 10289 C 947.705 2.67862 2.21687 0
M  V30 10290 H 947.028 3.49826 1.93551 0
M  V30 10291 H 948.468 3.09844 2.89435 0
M  V30 10292 C 946.927 1.61353 2.95748 0
M  V30 10293 O 947.457 1.02276 3.88462 0
M  V30 10294 N 945.663 1.33017 2.5837 0
M  V30 10295 H 945.21 1.81246 1.83051 0
M  V30 10296 H 945.168 0.619812 3.0823 0
M  V30 10297 N 948.94 -0.228186 1.55939 0
M  V30 10298 C 950.189 -0.951563 1.77843 0
M  V30 10299 C 950.502 -1.85763 0.612501 0
M  V30 10300 O 951.708 -2.61916 0.715006 0
M  V30 10301 C 950.164 -1.74216 3.14923 0
M  V30 10302 C 949.772 -0.882569 4.39221 0
M  V30 10303 C 951.516 -2.45715 3.46156 0
M  V30 10304 C 949.423 -1.67014 5.67327 0
M  V30 10305 H 948.353 -0.359035 0.663031 0
M  V30 10306 H 951.004 -0.205636 1.82344 0
M  V30 10307 H 949.386 -2.53075 3.0458 0
M  V30 10308 H 950.56 -0.13499 4.60602 0
M  V30 10309 H 948.875 -0.280022 4.15457 0
M  V30 10310 H 951.472 -3.05127 4.39092 0
M  V30 10311 H 951.815 -3.1827 2.68346 0
M  V30 10312 H 952.348 -1.73852 3.57799 0
M  V30 10313 H 949.087 -0.987985 6.48012 0
M  V30 10314 H 948.607 -2.3925 5.50018 0
M  V30 10315 H 950.286 -2.23252 6.07262 0
M  V30 10316 N 950.418 -1.49637 -0.494624 0
M  V30 10317 C 951.666 -1.5913 -1.24587 0
M  V30 10318 C 951.987 -0.282828 -1.92938 0
M  V30 10319 O 951.257 0.69825 -1.83034 0
M  V30 10320 H 949.837 -0.586329 -0.462847 0
M  V30 10321 H 952.499 -1.86296 -0.572696 0
M  V30 10322 H 951.595 -2.3906 -2.00641 0
M  V30 10323 N 951.896 0.746133 -1.38819 0
M  V30 10324 C 952.844 1.88137 -1.36774 0
M  V30 10325 C 953.838 1.67508 -0.252495 0
M  V30 10326 O 955.044 1.74985 -0.421935 0
M  V30 10327 H 951.419 0.619116 -0.426849 0
M  V30 10328 H 953.39 1.86978 -2.32555 0
M  V30 10329 C 952.139 3.25703 -1.21708 0
M  V30 10330 H 951.462 3.42168 -2.06788 0
M  V30 10331 H 952.902 4.05361 -1.24332 0
M  V30 10332 C 951.361 3.36816 0.0754257 0
M  V30 10333 O 951.891 3.87742 1.04972 0
M  V30 10334 N 950.097 2.90287 0.134761 0
M  V30 10335 H 949.644 2.49034 -0.658779 0
M  V30 10336 H 949.602 2.98103 0.999109 0
M  V30 10337 N 953.375 1.23811 0.975125 0
M  V30 10338 C 954.308 0.967173 2.06691 0
M  V30 10339 C 955.286 -0.09642 1.62314 0
M  V30 10340 O 956.47 0.0389532 1.8846 0
M  V30 10341 C 953.597 0.458094 3.35588 0
M  V30 10342 C 952.643 1.5091 3.98909 0
M  V30 10343 S 953.476 3.08815 4.37485 0
M  V30 10344 C 954.632 2.59591 5.69529 0
M  V30 10345 H 954.865 1.89166 2.29355 0
M  V30 10346 H 952.398 1.07113 1.11203 0
M  V30 10347 H 954.356 0.170991 4.10144 0
M  V30 10348 H 953.017 -0.445562 3.10924 0
M  V30 10349 H 952.21 1.10315 4.91779 0
M  V30 10350 H 951.812 1.74582 3.30752 0
M  V30 10351 H 954.104 2.0194 6.46704 0
M  V30 10352 H 955.047 3.51021 6.14971 0
M  V30 10353 H 955.455 2.00267 5.27782 0
M  V30 10354 N 954.853 -1.17469 1.05066 0
M  V30 10355 C 955.783 -2.23635 0.671552 0
M  V30 10356 C 956.764 -1.66867 -0.33006 0
M  V30 10357 O 957.949 -1.93084 -0.207933 0
M  V30 10358 C 955.079 -3.47272 0.0441845 0
M  V30 10359 C 954.033 -4.16854 0.97042 0
M  V30 10360 C 953.359 -5.34299 0.206998 0
M  V30 10361 C 954.659 -4.69225 2.29401 0
M  V30 10362 H 956.353 -2.55602 1.55911 0
M  V30 10363 H 953.899 -1.2286 0.751101 0
M  V30 10364 H 955.852 -4.20756 -0.23282 0
M  V30 10365 H 954.576 -3.14568 -0.878311 0
M  V30 10366 H 953.235 -3.4528 1.23197 0
M  V30 10367 H 952.883 -4.97846 -0.718222 0
M  V30 10368 H 952.583 -5.81792 0.82416 0
M  V30 10369 H 954.107 -6.10568 -0.0627525 0
M  V30 10370 H 955.521 -5.34353 2.077 0
M  V30 10371 H 953.918 -5.27291 2.86503 0
M  V30 10372 H 954.988 -3.86102 2.93348 0
M  V30 10373 N 956.331 -0.831506 -1.3388 0
M  V30 10374 C 957.561 -0.436292 -2.01941 0
M  V30 10375 C 957.969 0.964979 -1.62741 0
M  V30 10376 O 957.312 1.63733 -0.832894 0
M  V30 10377 C 957.374 -0.468811 -3.5643 0
M  V30 10378 C 957.038 -1.82491 -4.18982 0
M  V30 10379 C 958.035 -2.78705 -4.38885 0
M  V30 10380 C 955.72 -2.11574 -4.55568 0
M  V30 10381 C 957.714 -4.02168 -4.94509 0
M  V30 10382 C 955.401 -3.35296 -5.10901 0
M  V30 10383 C 956.399 -4.3041 -5.30317 0
M  V30 10384 O 956.087 -5.51944 -5.84477 0
M  V30 10385 H 955.819 -0.172335 -0.653664 0
M  V30 10386 H 958.373 -1.12354 -1.71947 0
M  V30 10387 H 956.603 0.275179 -3.8572 0
M  V30 10388 H 958.292 -0.0924518 -4.05795 0
M  V30 10389 H 959.058 -2.57534 -4.10976 0
M  V30 10390 H 954.937 -1.38338 -4.39754 0
M  V30 10391 H 958.481 -4.76418 -5.09579 0
M  V30 10392 H 954.378 -3.56326 -5.3824 0
M  V30 10393 H 955.146 -5.53582 -6.029 0
M  V30 10394 N 957.809 1.4625 -0.587256 0
M  V30 10395 C 958.756 2.30354 0.143384 0
M  V30 10396 C 959.726 1.40891 0.879716 0
M  V30 10397 O 960.911 1.69837 0.869486 0
M  V30 10398 C 958.051 3.25441 1.14815 0
M  V30 10399 C 957.164 4.30004 0.414792 0
M  V30 10400 C 956.299 5.12214 1.40748 0
M  V30 10401 C 955.338 6.08523 0.660786 0
M  V30 10402 N 954.475 6.83585 1.60176 0
M  V30 10403 H 959.315 2.92304 -0.579866 0
M  V30 10404 H 956.852 1.44055 -0.29777 0
M  V30 10405 H 958.81 3.79018 1.7436 0
M  V30 10406 H 957.44 2.6529 1.83906 0
M  V30 10407 H 956.492 3.79248 -0.295787 0
M  V30 10408 H 957.804 4.98515 -0.168738 0
M  V30 10409 H 956.958 5.70091 2.0756 0
M  V30 10410 H 955.697 4.43675 2.02494 0
M  V30 10411 H 954.702 5.49796 -0.0210864 0
M  V30 10412 H 955.927 6.79083 0.0486551 0
M  V30 10413 H 953.873 6.17752 2.20724 0
M  V30 10414 H 953.79 7.48373 1.07115 0
M  V30 10415 H 955.058 7.46016 2.26009 0
M  V30 10416 N 959.287 0.325282 1.54207 0
M  V30 10417 C 960.564 -0.33113 1.92777 0
M  V30 10418 C 960.944 -1.69739 1.25506 0
M  V30 10419 O 960.292 -2.24983 0.399385 0
M  V30 10420 C 960.502 -0.421636 3.46444 0
M  V30 10421 C 961.85 -0.681111 4.19101 0
M  V30 10422 O 962.874 -0.504488 3.52609 0
M  V30 10423 O 961.733 -1.02196 5.3686 0
M  V30 10424 H 958.827 -0.18943 0.805013 0
M  V30 10425 H 961.373 0.375123 1.65502 0
M  V30 10426 H 960.145 0.537862 3.87586 0
M  V30 10427 H 959.768 -1.1754 3.79829 0
M  V30 10428 N 960.765 -1.57509 0.0534917 0
M  V30 10429 C 962.042 -1.84137 -0.659767 0
M  V30 10430 C 962.422 -0.942362 -1.88899 0
M  V30 10431 O 961.77 -0.00398566 -2.285 0
M  V30 10432 C 961.98 -3.33919 -1.01486 0
M  V30 10433 C 963.328 -4.00989 -1.39616 0
M  V30 10434 O 964.352 -3.38557 -1.10713 0
M  V30 10435 O 963.211 -5.11071 -1.93567 0
M  V30 10436 H 960.305 -0.760081 -0.325893 0
M  V30 10437 H 962.851 -1.69497 0.0830315 0
M  V30 10438 H 961.623 -3.91046 -0.141041 0
M  V30 10439 H 961.246 -3.53755 -1.81503 0
M  V30 10440 N 962.243 0.219913 -1.56058 0
M  V30 10441 C 963.49 0.944064 -1.79147 0
M  V30 10442 C 963.818 1.84268 -0.622531 0
M  V30 10443 O 963.073 1.91713 0.393013 0
M  V30 10444 C 963.372 1.81293 -3.08006 0
M  V30 10445 C 963.038 1.0674 -4.38084 0
M  V30 10446 C 961.7 0.86147 -4.73426 0
M  V30 10447 C 964.052 0.541049 -5.18384 0
M  V30 10448 C 961.38 0.117307 -5.86583 0
M  V30 10449 C 963.732 -0.189779 -6.32315 0
M  V30 10450 C 962.396 -0.406951 -6.66258 0
M  V30 10451 H 961.666 0.345458 -0.655546 0
M  V30 10452 H 964.313 0.212121 -1.90322 0
M  V30 10453 H 962.618 2.61278 -2.9196 0
M  V30 10454 H 964.315 2.3754 -3.23072 0
M  V30 10455 H 960.905 1.23789 -4.10334 0
M  V30 10456 H 965.089 0.687617 -4.91514 0
M  V30 10457 H 960.345 -0.0611651 -6.11369 0
M  V30 10458 H 964.519 -0.605134 -6.93766 0
M  V30 10459 H 962.146 -0.985511 -7.53785 0
M  V30 10460 N 963.721 1.49897 0.486681 0
M  V30 10461 C 964.967 1.60342 1.2417 0
M  V30 10462 C 965.3 0.295694 1.91936 0
M  V30 10463 O 964.575 -0.701788 1.81398 0
M  V30 10464 C 964.858 2.77281 2.29755 0
M  V30 10465 C 964.711 4.1789 1.66397 0
M  V30 10466 C 966.03 2.89817 3.31201 0
M  V30 10467 H 963.149 0.583605 0.450083 0
M  V30 10468 H 965.791 1.82232 0.537734 0
M  V30 10469 H 963.941 2.58748 2.89796 0
M  V30 10470 H 965.613 4.47975 1.10073 0
M  V30 10471 H 963.856 4.22872 0.967579 0
M  V30 10472 H 964.527 4.95612 2.43049 0
M  V30 10473 H 967.003 3.06732 2.81167 0
M  V30 10474 H 965.879 3.7329 4.02425 0
M  V30 10475 H 966.14 1.9977 3.94391 0
M  V30 10476 N 965.199 -0.738761 1.39212 0
M  V30 10477 C 966.447 -1.49529 1.35962 0
M  V30 10478 C 966.768 -1.94948 -0.0450152 0
M  V30 10479 O 966.038 -1.68717 -0.995552 0
M  V30 10480 H 964.618 -0.554692 0.500326 0
M  V30 10481 H 967.28 -0.877255 1.74041 0
M  V30 10482 H 966.376 -2.37919 2.01993 0
M  V30 10483 N 966.677 -1.24326 -0.968545 0
M  V30 10484 C 967.64 -1.03591 -2.04454 0
M  V30 10485 C 968.64 0.0064809 -1.60799 0
M  V30 10486 O 969.83 -0.234404 -1.72616 0
M  V30 10487 C 966.962 -0.56992 -3.36102 0
M  V30 10488 H 968.155 -1.99092 -2.24282 0
M  V30 10489 H 965.708 -1.06537 -1.14366 0
M  V30 10490 H 966.443 0.388325 -3.21967 0
M  V30 10491 H 966.228 -1.32227 -3.69132 0
M  V30 10492 H 967.718 -0.445854 -4.15213 0
M  V30 10493 N 968.156 1.1691 -1.05688 0
M  V30 10494 C 969.086 2.23275 -0.683402 0
M  V30 10495 C 970.067 1.6704 0.321206 0
M  V30 10496 O 971.252 1.93191 0.197691 0
M  V30 10497 C 968.382 3.47244 -0.0626006 0
M  V30 10498 C 967.336 4.16333 -0.992513 0
M  V30 10499 C 966.662 5.34182 -0.23533 0
M  V30 10500 C 967.962 4.68002 -2.31886 0
M  V30 10501 H 969.656 2.54771 -1.57264 0
M  V30 10502 H 967.202 1.2246 -0.757606 0
M  V30 10503 H 969.155 4.20874 0.210503 0
M  V30 10504 H 967.879 3.1503 0.861616 0
M  V30 10505 H 966.538 3.44622 -1.25026 0
M  V30 10506 H 966.186 4.9822 0.69181 0
M  V30 10507 H 965.886 5.81346 -0.855002 0
M  V30 10508 H 967.41 6.10592 0.0303717 0
M  V30 10509 H 968.824 5.33244 -2.10531 0
M  V30 10510 H 967.221 5.25764 -2.89296 0
M  V30 10511 H 968.291 3.84541 -2.95391 0
M  V30 10512 N 969.634 0.838594 1.33437 0
M  V30 10513 C 970.883 0.430484 1.97053 0
M  V30 10514 C 971.196 -1.01556 1.6717 0
M  V30 10515 O 972.402 -1.52834 2.24397 0
M  V30 10516 C 970.858 0.718828 3.52648 0
M  V30 10517 C 970.466 2.17953 3.91408 0
M  V30 10518 C 972.21 0.377654 4.22817 0
M  V30 10519 C 970.117 2.41194 5.39981 0
M  V30 10520 H 969.047 0.157239 0.737422 0
M  V30 10521 H 971.698 1.02714 1.5206 0
M  V30 10522 H 970.08 0.0518042 3.95966 0
M  V30 10523 H 971.254 2.88701 3.59149 0
M  V30 10524 H 969.569 2.48366 3.34221 0
M  V30 10525 H 972.166 0.528926 5.32077 0
M  V30 10526 H 972.509 -0.679338 4.1072 0
M  V30 10527 H 973.042 0.999899 3.85028 0
M  V30 10528 H 969.781 3.45457 5.57081 0
M  V30 10529 H 969.301 1.75007 5.73701 0
M  V30 10530 H 970.98 2.24334 6.06863 0
M  V30 10531 N 971.112 -1.45937 0.595003 0
M  V30 10532 C 972.359 -2.0232 0.0853053 0
M  V30 10533 C 972.687 -1.465 -1.27937 0
M  V30 10534 O 971.942 -0.624767 -1.85459 0
M  V30 10535 C 972.241 -3.57396 -0.0173747 0
M  V30 10536 C 971.907 -4.32311 1.28131 0
M  V30 10537 C 970.569 -4.52496 1.63708 0
M  V30 10538 C 972.921 -4.75233 2.14017 0
M  V30 10539 C 970.249 -5.12857 2.84947 0
M  V30 10540 C 972.601 -5.36933 3.34493 0
M  V30 10541 C 971.265 -5.55343 3.70338 0
M  V30 10542 H 970.535 -0.740342 0.0312154 0
M  V30 10543 H 973.182 -1.75157 0.774103 0
M  V30 10544 H 971.487 -3.83766 -0.789371 0
M  V30 10545 H 973.184 -3.98713 -0.427699 0
M  V30 10546 H 969.774 -4.16905 0.994374 0
M  V30 10547 H 973.958 -4.59383 1.87833 0
M  V30 10548 H 969.214 -5.253 3.12841 0
M  V30 10549 H 973.388 -5.69147 4.01304 0
M  V30 10550 H 971.015 -6.01883 4.64371 0
M  V30 10551 N 972.59 -0.333456 -1.54032 0
M  V30 10552 C 973.815 0.270517 -2.05628 0
M  V30 10553 C 974.24 1.44231 -1.20744 0
M  V30 10554 O 973.598 1.79975 -0.218822 0
M  V30 10555 C 973.646 0.673251 -3.54259 0
M  V30 10556 O 972.75 1.77448 -3.72271 0
M  V30 10557 H 972.091 0.0469753 -0.662336 0
M  V30 10558 H 974.621 -0.484739 -1.98775 0
M  V30 10559 H 974.631 0.953194 -3.96709 0
M  V30 10560 H 973.306 -0.183747 -4.15494 0
M  V30 10561 H 971.883 1.49259 -3.41725 0
M  V30 10562 N 974.068 1.57479 -0.061844 0
M  V30 10563 C 975.316 1.92727 0.608336 0
M  V30 10564 C 975.637 0.941799 1.70749 0
M  V30 10565 O 974.907 -0.0116608 1.95897 0
M  V30 10566 H 973.487 0.71145 0.2277 0
M  V30 10567 H 976.149 1.94546 -0.117359 0
M  V30 10568 H 975.245 2.9426 1.04007 0
M  V30 10569 N 975.546 -0.211634 1.56173 0
M  V30 10570 C 976.509 -1.24588 1.92381 0
M  V30 10571 C 977.509 -1.39297 0.803311 0
M  V30 10572 O 978.699 -1.37392 1.07094 0
M  V30 10573 C 975.831 -2.61807 2.18335 0
M  V30 10574 H 977.024 -0.936814 2.84893 0
M  V30 10575 H 974.577 -0.452471 1.49607 0
M  V30 10576 H 975.312 -2.97795 1.28407 0
M  V30 10577 H 975.097 -2.52506 2.99972 0
M  V30 10578 H 976.587 -3.3642 2.4741 0
M  V30 10579 N 977.024 -1.50153 -0.478725 0
M  V30 10580 C 978.27 -1.60998 -1.23318 0
M  V30 10581 C 978.603 -0.305868 -1.91776 0
M  V30 10582 O 977.878 0.692158 -1.81767 0
M  V30 10583 C 978.161 -2.78495 -2.28282 0
M  V30 10584 C 978.014 -4.18767 -1.64178 0
M  V30 10585 C 979.333 -2.91569 -3.2966 0
M  V30 10586 H 976.452 -0.585983 -0.446982 0
M  V30 10587 H 979.094 -1.82514 -0.528063 0
M  V30 10588 H 977.244 -2.60281 -2.8842 0
M  V30 10589 H 978.916 -4.48552 -1.07696 0
M  V30 10590 H 977.159 -4.23379 -0.94514 0
M  V30 10591 H 977.83 -4.96894 -2.40417 0
M  V30 10592 H 980.306 -3.08219 -2.79536 0
M  V30 10593 H 979.182 -3.75419 -4.0044 0
M  V30 10594 H 979.443 -2.01859 -3.93326 0
M  V30 10595 N 978.502 0.731368 -1.39602 0
M  V30 10596 C 979.751 1.48647 -1.36334 0
M  V30 10597 C 980.064 1.95565 0.0367383 0
M  V30 10598 O 981.27 2.7082 0.192017 0
M  V30 10599 C 979.726 2.68616 -2.39528 0
M  V30 10600 C 979.334 2.28632 -3.85268 0
M  V30 10601 C 981.078 3.46422 -2.45341 0
M  V30 10602 C 978.985 3.45345 -4.80095 0
M  V30 10603 H 977.915 0.558218 -0.506861 0
M  V30 10604 H 980.566 0.797467 -1.65266 0
M  V30 10605 H 978.948 3.39609 -2.03671 0
M  V30 10606 H 980.122 1.65162 -4.30184 0
M  V30 10607 H 978.437 1.63909 -3.82783 0
M  V30 10608 H 981.034 4.33241 -3.13379 0
M  V30 10609 H 981.377 3.8914 -1.47904 0
M  V30 10610 H 981.91 2.82461 -2.80108 0
M  V30 10611 H 978.649 3.07674 -5.78807 0
M  V30 10612 H 978.169 4.07784 -4.39855 0
M  V30 10613 H 979.848 4.1163 -4.99169 0
M  V30 10614 N 979.98 1.24838 0.961938 0
M  V30 10615 C 980.91 1.07053 2.07514 0
M  V30 10616 C 981.891 -0.0182465 1.7009 0
M  V30 10617 O 983.076 0.149915 1.9362 0
M  V30 10618 C 980.206 0.680693 3.40564 0
M  V30 10619 C 979.16 1.71889 3.91967 0
M  V30 10620 C 978.486 1.18395 5.21428 0
M  V30 10621 C 979.786 3.1161 4.19161 0
M  V30 10622 H 981.48 2.00167 2.22651 0
M  V30 10623 H 979.026 0.963799 1.0699 0
M  V30 10624 H 980.979 0.54324 4.17884 0
M  V30 10625 H 979.703 -0.28615 3.25344 0
M  V30 10626 H 978.362 1.84465 3.16809 0
M  V30 10627 H 978.01 0.207543 5.02572 0
M  V30 10628 H 977.71 1.87778 5.56788 0
M  V30 10629 H 979.234 1.05873 6.01351 0
M  V30 10630 H 980.648 3.0223 4.87165 0
M  V30 10631 H 979.045 3.78398 4.65763 0
M  V30 10632 H 980.115 3.59218 3.25715 0
M  V30 10633 N 981.458 -1.16348 1.06306 0
M  V30 10634 C 982.388 -2.2291 0.695234 0
M  V30 10635 C 983.369 -1.67208 -0.312343 0
M  V30 10636 O 984.554 -1.93293 -0.187442 0
M  V30 10637 C 981.684 -3.47205 0.0810149 0
M  V30 10638 C 980.638 -4.15801 1.01458 0
M  V30 10639 C 979.964 -5.3405 0.263656 0
M  V30 10640 C 981.264 -4.66766 2.34365 0
M  V30 10641 H 982.958 -2.53934 1.58613 0
M  V30 10642 H 980.504 -1.22056 0.76409 0
M  V30 10643 H 982.457 -4.2098 -0.18818 0
M  V30 10644 H 981.181 -3.15482 -0.844897 0
M  V30 10645 H 979.84 -3.43954 1.26852 0
M  V30 10646 H 979.488 -4.9858 -0.665378 0
M  V30 10647 H 979.188 -5.80885 0.88582 0
M  V30 10648 H 980.712 -6.106 0.00200994 0
M  V30 10649 H 982.126 -5.3212 2.13356 0
M  V30 10650 H 980.523 -5.24223 2.9208 0
M  V30 10651 H 981.593 -3.82969 2.97426 0
M  V30 10652 N 982.937 -0.845659 -1.3299 0
M  V30 10653 C 983.847 -0.2864 -2.32845 0
M  V30 10654 C 984.863 0.591105 -1.63652 0
M  V30 10655 O 986.039 0.493615 -1.95257 0
M  V30 10656 C 983.104 0.523636 -3.42723 0
M  V30 10657 C 982.165 -0.378945 -4.27624 0
M  V30 10658 C 981.398 0.392526 -5.32255 0
M  V30 10659 O 981.621 1.6235 -5.46808 0
M  V30 10660 O 980.555 -0.237 -6.01433 0
M  V30 10661 H 984.381 -1.11346 -2.82552 0
M  V30 10662 H 981.966 -0.608356 -1.36453 0
M  V30 10663 H 983.848 0.983718 -4.09757 0
M  V30 10664 H 982.523 1.32764 -2.95221 0
M  V30 10665 H 981.43 -0.887012 -3.63432 0
M  V30 10666 H 982.763 -1.1479 -4.78627 0
M  V30 10667 N 984.415 1.45619 -0.602734 0
M  V30 10668 C 985.662 2.02272 -0.0960337 0
M  V30 10669 C 985.99 1.47177 1.27159 0
M  V30 10670 O 985.245 0.634593 1.85125 0
M  V30 10671 C 985.544 3.574 -0.00157909 0
M  V30 10672 C 985.21 4.31626 -1.30422 0
M  V30 10673 C 983.872 4.51622 -1.66106 0
M  V30 10674 C 986.224 4.74091 -2.16535 0
M  V30 10675 C 983.552 5.11338 -2.87663 0
M  V30 10676 C 985.904 5.35151 -3.37336 0
M  V30 10677 C 984.568 5.53371 -3.73278 0
M  V30 10678 H 983.838 0.740166 -0.0351412 0
M  V30 10679 H 986.485 1.74744 -0.783382 0
M  V30 10680 H 984.79 3.84179 0.769008 0
M  V30 10681 H 986.487 3.98934 0.406549 0
M  V30 10682 H 983.077 4.16372 -1.01647 0
M  V30 10683 H 987.261 4.5838 -1.90266 0
M  V30 10684 H 982.517 5.23634 -3.15622 0
M  V30 10685 H 986.691 5.67011 -4.04316 0
M  V30 10686 H 984.318 5.99412 -4.67556 0
M  V30 10687 N 985.893 0.34162 1.53853 0
M  V30 10688 C 987.142 -0.256475 2.00063 0
M  V30 10689 C 987.455 -1.51811 1.23341 0
M  V30 10690 O 988.661 -2.19332 1.60017 0
M  V30 10691 C 987.117 -0.507567 3.56303 0
M  V30 10692 C 986.725 0.738052 4.41879 0
M  V30 10693 C 988.469 -1.06463 4.10933 0
M  V30 10694 C 986.376 0.457865 5.89625 0
M  V30 10695 H 985.306 -0.0996143 0.747391 0
M  V30 10696 H 987.957 0.456649 1.77727 0
M  V30 10697 H 986.339 -1.28134 3.74697 0
M  V30 10698 H 987.513 1.51278 4.3526 0
M  V30 10699 H 985.828 1.21661 3.98231 0
M  V30 10700 H 988.425 -1.28918 5.18926 0
M  V30 10701 H 988.768 -2.01956 3.64032 0
M  V30 10702 H 989.301 -0.351601 3.96243 0
M  V30 10703 H 986.04 1.38247 6.40756 0
M  V30 10704 H 985.56 -0.278818 5.99152 0
M  V30 10705 H 987.239 0.0743914 6.46957 0
M  V30 10706 N 987.371 -1.57444 0.0701946 0
M  V30 10707 C 988.782 -1.80875 -0.462709 0
M  V30 10708 C 989.133 -0.983975 -1.69742 0
M  V30 10709 O 988.258 -0.206027 -2.15417 0
M  V30 10710 C 988.853 -3.28062 -0.84623 0
M  V30 10711 C 987.412 -3.52345 -1.32401 0
M  V30 10712 C 986.559 -2.7558 -0.308399 0
M  V30 10713 H 989.51 -1.55917 0.295907 0
M  V30 10714 H 989.531 -3.40023 -1.70776 0
M  V30 10715 H 989.043 -3.88064 0.0526033 0
M  V30 10716 H 987.144 -2.97645 -2.24139 0
M  V30 10717 H 987.257 -4.6104 -1.30304 0
M  V30 10718 H 985.621 -2.4229 -0.785337 0
M  V30 10719 H 986.404 -3.38319 0.582679 0
M  V30 10720 N 988.849 0.203349 -1.56283 0
M  V30 10721 C 989.759 1.27266 -1.9708 0
M  V30 10722 C 990.775 1.50268 -0.877236 0
M  V30 10723 O 991.951 1.63044 -1.18231 0
M  V30 10724 C 989.016 2.59871 -2.29495 0
M  V30 10725 C 988.077 2.45012 -3.52516 0
M  V30 10726 C 987.31 3.71293 -3.83376 0
M  V30 10727 O 987.533 4.75106 -3.15643 0
M  V30 10728 O 986.467 3.67316 -4.76826 0
M  V30 10729 H 990.293 0.956461 -2.88246 0
M  V30 10730 H 987.878 0.407688 -1.4373 0
M  V30 10731 H 989.76 3.38152 -2.51458 0
M  V30 10732 H 988.435 2.91135 -1.415 0
M  V30 10733 H 987.342 1.6487 -3.35811 0
M  V30 10734 H 988.675 2.18683 -4.40952 0
M  V30 10735 N 990.327 1.50405 0.470755 0
M  V30 10736 C 991.576 1.60652 1.21959 0
M  V30 10737 C 991.889 0.312521 1.93087 0
M  V30 10738 O 993.095 0.293901 2.69905 0
M  V30 10739 C 991.551 2.83581 2.21607 0
M  V30 10740 C 991.159 4.19858 1.5628 0
M  V30 10741 C 992.903 3.03173 2.9713 0
M  V30 10742 C 990.81 5.33974 2.54217 0
M  V30 10743 H 989.74 0.598264 0.458907 0
M  V30 10744 H 992.391 1.76836 0.490041 0
M  V30 10745 H 990.773 2.60957 2.97855 0
M  V30 10746 H 991.947 4.52738 0.85819 0
M  V30 10747 H 990.262 4.05873 0.930366 0
M  V30 10748 H 992.859 3.856 3.70428 0
M  V30 10749 H 993.202 2.14914 3.56536 0
M  V30 10750 H 993.735 3.2598 2.27995 0
M  V30 10751 H 990.474 6.24388 1.99549 0
M  V30 10752 H 989.994 5.05511 3.22829 0
M  V30 10753 H 991.673 5.64561 3.16039 0
M  V30 10754 N 991.805 -0.723954 1.39988 0
M  V30 10755 C 992.768 -1.81973 1.3935 0
M  V30 10756 C 993.768 -1.58187 0.288702 0
M  V30 10757 O 994.958 -1.65383 0.547181 0
M  V30 10758 C 992.09 -3.19937 1.177 0
M  V30 10759 H 993.283 -1.83939 2.36868 0
M  V30 10760 H 990.836 -0.928742 1.25714 0
M  V30 10761 H 991.571 -3.23625 0.209093 0
M  V30 10762 H 991.356 -3.386 1.97719 0
M  V30 10763 H 992.846 -3.99981 1.20022 0
M  V30 10764 N 993.283 -1.25346 -0.955304 0
M  V30 10765 C 994.532 -1.0945 -1.69421 0
M  V30 10766 C 994.845 0.364459 -1.92175 0
M  V30 10767 O 996.051 0.643843 -2.63755 0
M  V30 10768 C 994.507 -1.91045 -3.05008 0
M  V30 10769 C 994.115 -3.41428 -2.90053 0
M  V30 10770 C 995.859 -1.83716 -3.82686 0
M  V30 10771 C 993.766 -4.1532 -4.21026 0
M  V30 10772 H 992.696 -0.405978 -0.635372 0
M  V30 10773 H 995.347 -1.49536 -1.06354 0
M  V30 10774 H 993.729 -1.43781 -3.68975 0
M  V30 10775 H 994.903 -3.9636 -2.35022 0
M  V30 10776 H 993.218 -3.49842 -2.25831 0
M  V30 10777 H 995.815 -2.36217 -4.79693 0
M  V30 10778 H 996.158 -0.804919 -4.08444 0
M  V30 10779 H 996.691 -2.28726 -3.25468 0
M  V30 10780 H 993.43 -5.18955 -4.00457 0
M  V30 10781 H 992.95 -3.65172 -4.75825 0
M  V30 10782 H 994.629 -4.22999 -4.89572 0
M  V30 10783 N 994.761 1.15782 -1.06922 0
M  V30 10784 C 996.172 1.68062 -0.813144 0
M  V30 10785 C 996.523 1.84681 0.662374 0
M  V30 10786 O 995.648 1.54696 1.51321 0
M  V30 10787 C 996.243 3.05273 -1.46949 0
M  V30 10788 C 994.802 3.54647 -1.26104 0
M  V30 10789 C 993.949 2.30477 -1.54194 0
M  V30 10790 H 996.9 1.00056 -1.23185 0
M  V30 10791 H 996.921 3.69986 -0.888308 0
M  V30 10792 H 996.433 2.93145 -2.54337 0
M  V30 10793 H 994.534 3.72024 -0.20718 0
M  V30 10794 H 994.647 4.36354 -1.97819 0
M  V30 10795 H 993.011 2.35803 -0.96276 0
M  V30 10796 H 993.794 2.2094 -2.62755 0
M  V30 10797 N 996.239 0.8527 1.3254 0
M  V30 10798 C 997.485 0.455798 1.97612 0
M  V30 10799 C 997.818 -0.985616 1.6733 0
M  V30 10800 O 997.093 -1.69129 0.960493 0
M  V30 10801 C 997.376 0.69312 3.53366 0
M  V30 10802 C 997.229 2.18281 3.93285 0
M  V30 10803 C 998.548 0.148236 4.3985 0
M  V30 10804 H 995.667 0.167078 0.717812 0
M  V30 10805 H 998.309 1.07076 1.56954 0
M  V30 10806 H 996.459 0.169677 3.88129 0
M  V30 10807 H 998.131 2.77218 3.68711 0
M  V30 10808 H 996.374 2.66206 3.42515 0
M  V30 10809 H 997.045 2.29957 5.01821 0
M  V30 10810 H 999.521 0.595834 4.11812 0
M  V30 10811 H 998.397 0.343873 5.47822 0
M  V30 10812 H 998.658 -0.948872 4.31797 0
M  V30 10813 N 997.718 -1.45297 0.610449 0
M  V30 10814 C 998.648 -2.33311 -0.0939698 0
M  V30 10815 C 999.629 -1.46999 -0.85588 0
M  V30 10816 O 1000.81 -1.75764 -0.825865 0
M  V30 10817 C 997.944 -3.29751 -1.09003 0
M  V30 10818 C 996.898 -4.2572 -0.441146 0
M  V30 10819 C 996.224 -5.11873 -1.54566 0
M  V30 10820 C 997.524 -5.1837 0.639489 0
M  V30 10821 H 999.218 -2.92459 0.640941 0
M  V30 10822 H 996.764 -1.40631 0.309675 0
M  V30 10823 H 998.717 -3.90195 -1.59141 0
M  V30 10824 H 997.441 -2.68768 -1.85557 0
M  V30 10825 H 996.1 -3.66579 0.0393908 0
M  V30 10826 H 995.748 -4.47256 -2.30155 0
M  V30 10827 H 995.448 -5.76886 -1.11698 0
M  V30 10828 H 996.972 -5.75185 -2.04925 0
M  V30 10829 H 998.386 -5.7287 0.22207 0
M  V30 10830 H 996.783 -5.91876 0.990089 0
M  V30 10831 H 997.853 -4.60627 1.51495 0
M  V30 10832 N 999.196 -0.349774 -1.5367 0
M  V30 10833 C 1000.44 0.244343 -2.00617 0
M  V30 10834 C 1000.76 1.50567 -1.23914 0
M  V30 10835 O 1000.03 1.92784 -0.348016 0
M  V30 10836 H 998.615 0.0932792 -0.741153 0
M  V30 10837 H 1001.28 -0.472367 -1.89089 0
M  V30 10838 H 1000.37 0.482433 -3.08349 0
M  V30 10839 N 1000.67 1.57404 -0.0785433 0
M  V30 10840 C 1001.9 1.98074 0.597862 0
M  V30 10841 C 1002.32 0.95714 1.6274 0
M  V30 10842 O 1001.67 -0.0553728 1.82416 0
M  V30 10843 C 1001.72 3.38815 1.26041 0
M  V30 10844 O 1001.45 4.37254 0.27207 0
M  V30 10845 C 1002.95 3.94397 2.024 0
M  V30 10846 H 1000.17 0.651263 0.161546 0
M  V30 10847 H 1002.71 2.03927 -0.152941 0
M  V30 10848 H 1000.87 3.34028 1.96225 0
M  V30 10849 H 1001.28 5.19136 0.74822 0
M  V30 10850 H 1002.75 4.95075 2.4414 0
M  V30 10851 H 1003.23 3.31308 2.88326 0
M  V30 10852 H 1003.84 4.02607 1.37068 0
M  V30 10853 N 1002.15 -0.195058 1.56388 0
M  V30 10854 C 1003.4 -0.915444 1.80626 0
M  V30 10855 C 1003.73 -1.83255 0.651768 0
M  V30 10856 O 1002.98 -1.92314 -0.362464 0
M  V30 10857 C 1003.28 -1.7637 3.10851 0
M  V30 10858 C 1002.95 -0.997572 4.39726 0
M  V30 10859 C 1001.61 -0.786043 4.74737 0
M  V30 10860 C 1003.96 -0.45851 5.19179 0
M  V30 10861 C 1001.29 -0.023972 5.86695 0
M  V30 10862 C 1003.64 0.29035 6.31933 0
M  V30 10863 C 1002.3 0.512895 6.65527 0
M  V30 10864 H 1001.57 -0.334985 0.660959 0
M  V30 10865 H 1004.22 -0.181815 1.90635 0
M  V30 10866 H 1002.53 -2.566 2.9608 0
M  V30 10867 H 1004.22 -2.3237 3.26811 0
M  V30 10868 H 1000.81 -1.17245 4.12252 0
M  V30 10869 H 1005 -0.609334 4.92545 0
M  V30 10870 H 1000.25 0.158421 6.11195 0
M  V30 10871 H 1004.43 0.715429 6.92715 0
M  V30 10872 H 1002.05 1.10531 7.52122 0
M  V30 10873 N 1003.63 -1.50653 -0.462772 0
M  V30 10874 C 1004.59 -1.69561 -1.54213 0
M  V30 10875 C 1005.59 -0.566106 -1.50505 0
M  V30 10876 O 1006.78 -0.833273 -1.52978 0
M  V30 10877 C 1003.91 -1.72856 -2.93826 0
M  V30 10878 H 1005.11 -2.65867 -1.38761 0
M  V30 10879 H 1002.66 -1.40259 -0.689728 0
M  V30 10880 H 1003.4 -0.78273 -3.14712 0
M  V30 10881 H 1003.18 -2.54919 -2.97924 0
M  V30 10882 H 1004.67 -1.89411 -3.72174 0
M  V30 10883 N 1005.11 0.71652 -1.4037 0
M  V30 10884 C 1006.04 1.84345 -1.43315 0
M  V30 10885 C 1007.02 1.67537 -0.294186 0
M  V30 10886 O 1008.2 1.87582 -0.502671 0
M  V30 10887 C 1005.33 3.2229 -1.29408 0
M  V30 10888 C 1004.29 3.53769 -2.40897 0
M  V30 10889 C 1003.61 4.90847 -2.12068 0
M  V30 10890 C 1004.91 3.54862 -3.83237 0
M  V30 10891 H 1006.61 1.82138 -2.37626 0
M  V30 10892 H 1004.15 0.874873 -1.14376 0
M  V30 10893 H 1006.11 4.00819 -1.30085 0
M  V30 10894 H 1004.83 3.2507 -0.31573 0
M  V30 10895 H 1003.49 2.77579 -2.39469 0
M  V30 10896 H 1003.14 4.90229 -1.12626 0
M  V30 10897 H 1002.84 5.12875 -2.86762 0
M  V30 10898 H 1004.36 5.71711 -2.14426 0
M  V30 10899 H 1005.78 4.23432 -3.86494 0
M  V30 10900 H 1004.17 3.88416 -4.57442 0
M  V30 10901 H 1005.24 2.54266 -4.12888 0
M  V30 10902 N 1006.59 1.25851 0.948643 0
M  V30 10903 C 1007.83 1.11119 1.69648 0
M  V30 10904 C 1008.17 -0.345995 1.91093 0
M  V30 10905 O 1007.44 -1.25467 1.48621 0
M  V30 10906 C 1007.72 1.87261 3.0758 0
M  V30 10907 C 1007.58 3.40842 2.93507 0
M  V30 10908 C 1008.9 1.6605 4.07573 0
M  V30 10909 H 1006.01 0.405052 0.615713 0
M  V30 10910 H 1008.66 1.54756 1.10229 0
M  V30 10911 H 1006.81 1.50172 3.58303 0
M  V30 10912 H 1008.48 3.87641 2.50064 0
M  V30 10913 H 1006.72 3.68248 2.29294 0
M  V30 10914 H 1007.39 3.89339 3.91305 0
M  V30 10915 H 1009.87 1.98348 3.65783 0
M  V30 10916 H 1008.74 2.21753 5.02113 0
M  V30 10917 H 1009.01 0.603256 4.37965 0
M  V30 10918 N 1008.06 -1.15214 1.07534 0
M  V30 10919 C 1009.29 -1.90463 0.820883 0
M  V30 10920 C 1009.71 -1.77578 -0.620305 0
M  V30 10921 O 1009.07 -1.10976 -1.43366 0
M  V30 10922 C 1009.12 -3.38746 1.23627 0
M  V30 10923 O 1008.22 -4.1062 0.382715 0
M  V30 10924 H 1007.57 -0.59292 0.298901 0
M  V30 10925 H 1010.1 -1.45893 1.43445 0
M  V30 10926 H 1010.11 -3.89543 1.21327 0
M  V30 10927 H 1008.78 -3.47443 2.28596 0
M  V30 10928 H 1007.36 -3.69947 0.468374 0
M  V30 10929 N 1009.54 -0.859717 -1.32086 0
M  V30 10930 C 1010.77 -0.479028 -2.0097 0
M  V30 10931 C 1011.18 0.930242 -1.64752 0
M  V30 10932 O 1010.52 1.6193 -0.867437 0
M  V30 10933 C 1010.59 -0.54431 -3.55355 0
M  V30 10934 C 1010.25 -1.91337 -4.15017 0
M  V30 10935 C 1011.25 -2.87951 -4.32874 0
M  V30 10936 C 1008.93 -2.21189 -4.50977 0
M  V30 10937 C 1010.93 -4.12567 -4.85867 0
M  V30 10938 C 1008.61 -3.46057 -5.03674 0
M  V30 10939 C 1009.61 -4.41562 -5.21068 0
M  V30 10940 O 1009.3 -5.64218 -5.72637 0
M  V30 10941 H 1009.03 -0.186161 -0.649861 0
M  V30 10942 H 1011.58 -1.15976 -1.69525 0
M  V30 10943 H 1009.81 0.1933 -3.86217 0
M  V30 10944 H 1011.5 -0.178506 -4.05507 0
M  V30 10945 H 1012.27 -2.66194 -4.05421 0
M  V30 10946 H 1008.15 -1.47635 -4.36721 0
M  V30 10947 H 1011.69 -4.8712 -4.99359 0
M  V30 10948 H 1007.59 -3.67662 -5.30561 0
M  V30 10949 H 1008.36 -5.66246 -5.91023 0
M  V30 10950 N 1011.02 1.44971 -0.618145 0
M  V30 10951 C 1012.27 2.01372 -0.115004 0
M  V30 10952 C 1012.58 1.49104 1.26599 0
M  V30 10953 O 1013.79 1.97549 1.86244 0
M  V30 10954 C 1012.24 3.59567 -0.154883 0
M  V30 10955 C 1011.85 4.20832 -1.53639 0
M  V30 10956 C 1013.6 4.23491 0.292468 0
M  V30 10957 C 1011.5 5.7121 -1.53208 0
M  V30 10958 H 1010.43 0.752979 -0.0392267 0
M  V30 10959 H 1013.08 1.66329 -0.775032 0
M  V30 10960 H 1011.47 3.91847 0.572001 0
M  V30 10961 H 1012.64 4.00109 -2.28582 0
M  V30 10962 H 1010.96 3.69143 -1.92672 0
M  V30 10963 H 1013.55 5.33771 0.315032 0
M  V30 10964 H 1013.9 3.9491 1.31725 0
M  V30 10965 H 1014.43 3.95967 -0.381493 0
M  V30 10966 H 1011.17 6.04506 -2.53481 0
M  V30 10967 H 1010.69 5.94094 -0.825387 0
M  V30 10968 H 1012.37 6.34606 -1.26032 0
M  V30 10969 N 1012.5 0.357919 1.53482 0
M  V30 10970 C 1013.46 -0.479797 2.24122 0
M  V30 10971 C 1014.46 -1.01596 1.24639 0
M  V30 10972 O 1015.65 -0.902928 1.48973 0
M  V30 10973 C 1012.78 -1.66983 2.97203 0
M  V30 10974 H 1013.98 0.138219 2.99581 0
M  V30 10975 H 1011.53 0.109484 1.55916 0
M  V30 10976 H 1012.26 -2.32615 2.25966 0
M  V30 10977 H 1012.05 -1.29242 3.70188 0
M  V30 10978 H 1013.54 -2.26367 3.50924 0
M  V30 10979 N 1013.98 -1.5736 0.0868897 0
M  V30 10980 C 1014.92 -2.14793 -0.892571 0
M  V30 10981 C 1015.92 -1.08866 -1.29787 0
M  V30 10982 O 1017.12 -1.27223 -1.27335 0
M  V30 10983 H 1013.5 -0.686998 -0.305838 0
M  V30 10984 H 1015.47 -2.95927 -0.383393 0
M  V30 10985 C 1014.22 -2.73646 -2.14507 0
M  V30 10986 H 1013.54 -3.54835 -1.84207 0
M  V30 10987 H 1014.98 -3.17409 -2.81118 0
M  V30 10988 C 1013.44 -1.69138 -2.91366 0
M  V30 10989 O 1013.97 -1.12539 -3.85614 0
M  V30 10990 N 1012.18 -1.3982 -2.54752 0
M  V30 10991 H 1011.72 -1.86035 -1.78182 0
M  V30 10992 H 1011.68 -0.701316 -3.06478 0
M  V30 10993 N 1015.45 0.186762 -1.56489 0
M  V30 10994 C 1016.4 1.23141 -1.95205 0
M  V30 10995 C 1017.37 1.44799 -0.81378 0
M  V30 10996 O 1018.56 1.57795 -1.07263 0
M  V30 10997 C 1015.7 2.56926 -2.30397 0
M  V30 10998 C 1014.81 2.42777 -3.57328 0
M  V30 10999 C 1013.94 3.69323 -3.81804 0
M  V30 11000 C 1012.98 3.50041 -5.02133 0
M  V30 11001 N 1012.12 4.68619 -5.2282 0
M  V30 11002 H 1016.96 0.894256 -2.84266 0
M  V30 11003 H 1014.5 0.430187 -1.40669 0
M  V30 11004 H 1016.46 3.3488 -2.4882 0
M  V30 11005 H 1015.09 2.88668 -1.44466 0
M  V30 11006 H 1014.14 1.56078 -3.46906 0
M  V30 11007 H 1015.45 2.24468 -4.45439 0
M  V30 11008 H 1014.6 4.55715 -4.00511 0
M  V30 11009 H 1013.34 3.90595 -2.92039 0
M  V30 11010 H 1012.35 2.62034 -4.8334 0
M  V30 11011 H 1013.57 3.30206 -5.93414 0
M  V30 11012 H 1011.52 4.90139 -4.36005 0
M  V30 11013 H 1011.44 4.53165 -6.05126 0
M  V30 11014 H 1012.7 5.56338 -5.45993 0
M  V30 11015 N 1016.93 1.50896 0.454776 0
M  V30 11016 C 1018.18 1.6294 1.20741 0
M  V30 11017 C 1018.51 0.336339 1.91265 0
M  V30 11018 O 1017.79 -0.663153 1.82846 0
M  V30 11019 C 1018.07 2.82092 2.23822 0
M  V30 11020 C 1017.92 4.21326 1.57495 0
M  V30 11021 C 1019.24 2.96777 3.24979 0
M  V30 11022 H 1016.36 0.59302 0.437603 0
M  V30 11023 H 1019 1.83331 0.498959 0
M  V30 11024 H 1017.15 2.64837 2.84243 0
M  V30 11025 H 1018.82 4.50209 1.00546 0
M  V30 11026 H 1017.07 4.24829 0.877664 0
M  V30 11027 H 1017.74 5.00656 2.32482 0
M  V30 11028 H 1020.21 3.12627 2.74597 0
M  V30 11029 H 1019.09 3.81742 3.94416 0
M  V30 11030 H 1019.35 2.08091 3.90065 0
M  V30 11031 N 1018.41 -0.709066 1.40748 0
M  V30 11032 C 1019.34 -1.83583 1.4429 0
M  V30 11033 C 1020.32 -1.67378 0.303067 0
M  V30 11034 O 1021.51 -1.87312 0.512612 0
M  V30 11035 C 1018.64 -3.21599 1.31116 0
M  V30 11036 C 1017.59 -3.52486 2.4277 0
M  V30 11037 C 1016.92 -4.89716 2.14668 0
M  V30 11038 C 1018.22 -3.52824 3.85113 0
M  V30 11039 H 1019.91 -1.80876 2.38588 0
M  V30 11040 H 1017.46 -0.868795 1.14839 0
M  V30 11041 H 1019.41 -4.00123 1.32209 0
M  V30 11042 H 1018.13 -3.24898 0.332965 0
M  V30 11043 H 1016.79 -2.76305 2.40937 0
M  V30 11044 H 1016.44 -4.89625 1.15224 0
M  V30 11045 H 1016.14 -5.11347 2.89478 0
M  V30 11046 H 1017.66 -5.70566 2.17455 0
M  V30 11047 H 1019.08 -4.21377 3.88734 0
M  V30 11048 H 1017.48 -3.85984 4.59496 0
M  V30 11049 H 1018.55 -2.52073 4.14231 0
M  V30 11050 N 1019.89 -1.26353 -0.941956 0
M  V30 11051 C 1021.12 -1.14626 -1.72245 0
M  V30 11052 C 1021.53 0.298588 -1.86424 0
M  V30 11053 O 1020.89 1.2045 -1.37106 0
M  V30 11054 C 1020.94 -1.80933 -3.12963 0
M  V30 11055 O 1020.66 -3.19771 -2.99463 0
M  V30 11056 C 1022.16 -1.7515 -4.07231 0
M  V30 11057 H 1019.38 -0.3992 -0.539333 0
M  V30 11058 H 1021.93 -1.66958 -1.1809 0
M  V30 11059 H 1020.08 -1.32541 -3.64021 0
M  V30 11060 H 1020.5 -3.52571 -3.88322 0
M  V30 11061 H 1021.97 -2.26183 -5.03533 0
M  V30 11062 H 1022.45 -0.717855 -4.33294 0
M  V30 11063 H 1023.05 -2.2309 -3.62093 0
M  V30 11064 N 1021.37 1.14642 -1.08144 0
M  V30 11065 C 1022.61 1.85892 -0.810683 0
M  V30 11066 C 1022.95 1.82575 0.661821 0
M  V30 11067 O 1022.22 1.25454 1.48632 0
M  V30 11068 C 1022.5 3.34647 -1.32979 0
M  V30 11069 C 1022.36 3.46551 -2.86744 0
M  V30 11070 C 1023.68 4.29661 -0.952864 0
M  V30 11071 H 1020.8 0.674963 -0.295963 0
M  V30 11072 H 1023.44 1.3464 -1.3406 0
M  V30 11073 H 1021.59 3.78425 -0.87903 0
M  V30 11074 H 1023.26 3.11579 -3.40171 0
M  V30 11075 H 1021.5 2.87849 -3.24539 0
M  V30 11076 H 1022.17 4.51101 -3.18138 0
M  V30 11077 H 1024.65 3.93885 -1.34141 0
M  V30 11078 H 1023.53 5.32209 -1.34331 0
M  V30 11079 H 1023.79 4.41877 0.140392 0
M  V30 11080 N 1022.85 0.866709 1.31628 0
M  V30 11081 C 1023.78 0.277328 2.27516 0
M  V30 11082 C 1024.79 -0.557786 1.52946 0
M  V30 11083 O 1025.98 -0.38031 1.74402 0
M  V30 11084 C 1023.08 -0.625742 3.33073 0
M  V30 11085 C 1022.25 0.176204 4.37045 0
M  V30 11086 C 1021.31 -0.654497 5.22114 0
M  V30 11087 O 1020.34 -0.0836961 5.69138 0
M  V30 11088 N 1021.54 -1.96708 5.46156 0
M  V30 11089 H 1024.3 1.10133 2.78731 0
M  V30 11090 H 1021.87 0.72787 1.44616 0
M  V30 11091 H 1023.86 -1.18709 3.86898 0
M  V30 11092 H 1022.43 -1.35042 2.81926 0
M  V30 11093 H 1021.65 0.918999 3.83338 0
M  V30 11094 H 1022.94 0.726594 5.03585 0
M  V30 11095 H 1022.33 -2.454 5.09701 0
M  V30 11096 H 1020.89 -2.47629 6.02929 0
M  V30 11097 N 1024.32 -1.44642 0.625825 0
M  V30 11098 C 1025.55 -2.06458 0.135116 0
M  V30 11099 C 1025.97 -1.46729 -1.18811 0
M  V30 11100 O 1025.32 -0.58818 -1.72762 0
M  V30 11101 C 1025.37 -3.61499 0.00850114 0
M  V30 11102 O 1025.1 -4.19002 1.2794 0
M  V30 11103 C 1026.6 -4.40339 -0.511527 0
M  V30 11104 H 1023.82 -0.666541 0.0772294 0
M  V30 11105 H 1026.36 -1.85597 0.858726 0
M  V30 11106 H 1024.52 -3.81641 -0.665522 0
M  V30 11107 H 1024.93 -5.12385 1.12081 0
M  V30 11108 H 1026.4 -5.49262 -0.549149 0
M  V30 11109 H 1026.88 -4.11409 -1.53752 0
M  V30 11110 H 1027.49 -4.25104 0.129066 0
M  V30 11111 N 1025.8 -0.366053 -1.5329 0
M  V30 11112 C 1027.05 0.224614 -2.00445 0
M  V30 11113 C 1027.36 1.49829 -1.2574 0
M  V30 11114 O 1028.57 2.16759 -1.63487 0
M  V30 11115 C 1027.03 0.450818 -3.57065 0
M  V30 11116 C 1026.63 -0.808257 -4.40649 0
M  V30 11117 C 1028.38 0.999116 -4.12575 0
M  V30 11118 C 1026.28 -0.551612 -5.88822 0
M  V30 11119 H 1025.21 0.0877114 -0.748881 0
M  V30 11120 H 1027.87 -0.484866 -1.76978 0
M  V30 11121 H 1026.25 1.22157 -3.76688 0
M  V30 11122 H 1027.42 -1.58184 -4.32798 0
M  V30 11123 H 1025.74 -1.27981 -3.96245 0
M  V30 11124 H 1028.33 1.20646 -5.20911 0
M  V30 11125 H 1028.68 1.96139 -3.67199 0
M  V30 11126 H 1029.21 0.288518 -3.96752 0
M  V30 11127 H 1025.95 -1.48423 -6.38475 0
M  V30 11128 H 1025.47 0.183462 -5.99519 0
M  V30 11129 H 1027.15 -0.177307 -6.46757 0
M  V30 11130 N 1027.28 1.57312 -0.0952337 0
M  V30 11131 C 1028.56 1.85822 0.610715 0
M  V30 11132 C 1028.94 0.992114 1.86334 0
M  V30 11133 O 1028.28 0.0645669 2.28409 0
M  V30 11134 C 1028.49 3.36492 0.925967 0
M  V30 11135 C 1029.84 4.0455 1.28936 0
M  V30 11136 O 1030.87 3.41374 1.01698 0
M  V30 11137 O 1029.73 5.16024 1.79949 0
M  V30 11138 H 1026.82 0.768454 0.305626 0
M  V30 11139 H 1029.37 1.69217 -0.127941 0
M  V30 11140 H 1028.14 3.91282 0.0373127 0
M  V30 11141 H 1027.76 3.58443 1.7206 0
M  V30 11142 N 1028.76 -0.17846 1.56586 0
M  V30 11143 C 1029.71 -1.24042 1.96765 0
M  V30 11144 C 1030.7 -1.46218 0.855375 0
M  V30 11145 O 1031.91 -1.46882 1.04046 0
M  V30 11146 H 1028.28 -0.416807 0.62592 0
M  V30 11147 H 1030.25 -0.874644 2.85294 0
M  V30 11148 C 1029 -2.57394 2.3376 0
M  V30 11149 H 1028.32 -2.41151 3.18883 0
M  V30 11150 H 1029.76 -3.30405 2.65723 0
M  V30 11151 C 1028.22 -3.15621 1.17835 0
M  V30 11152 O 1028.75 -3.99032 0.462202 0
M  V30 11153 N 1026.96 -2.74606 0.950783 0
M  V30 11154 H 1026.51 -2.06878 1.5349 0
M  V30 11155 H 1026.46 -3.13902 0.176967 0
M  V30 11156 N 1030.24 -1.51135 -0.446768 0
M  V30 11157 C 1031.2 -1.71187 -1.52406 0
M  V30 11158 C 1032.2 -0.582037 -1.49897 0
M  V30 11159 O 1033.39 -0.849452 -1.52085 0
M  V30 11160 C 1030.52 -1.75962 -2.91976 0
M  V30 11161 H 1031.71 -2.67324 -1.35934 0
M  V30 11162 H 1029.27 -1.40982 -0.674813 0
M  V30 11163 H 1030 -0.816065 -3.13864 0
M  V30 11164 H 1029.79 -2.58065 -2.95203 0
M  V30 11165 H 1031.28 -1.93347 -3.70144 0
M  V30 11166 N 1031.71 0.701592 -1.41122 0
M  V30 11167 C 1032.64 1.82815 -1.45262 0
M  V30 11168 C 1033.62 1.67215 -0.311939 0
M  V30 11169 O 1034.81 1.87038 -0.522538 0
M  V30 11170 C 1031.94 3.20899 -1.32819 0
M  V30 11171 C 1030.89 3.51194 -2.44636 0
M  V30 11172 C 1030.22 4.8857 -2.17263 0
M  V30 11173 C 1031.52 3.50777 -3.86979 0
M  V30 11174 H 1033.21 1.79608 -2.39544 0
M  V30 11175 H 1030.76 0.862693 -1.15298 0
M  V30 11176 H 1032.71 3.99417 -1.34329 0
M  V30 11177 H 1031.44 3.24717 -0.350191 0
M  V30 11178 H 1030.1 2.75024 -2.42399 0
M  V30 11179 H 1029.74 4.89007 -1.17819 0
M  V30 11180 H 1029.44 5.09805 -2.92186 0
M  V30 11181 H 1030.97 5.69405 -2.20478 0
M  V30 11182 H 1032.38 4.19309 -3.90964 0
M  V30 11183 H 1030.78 3.83542 -4.61536 0
M  V30 11184 H 1031.85 2.49873 -4.15562 0
M  V30 11185 N 1033.19 1.2685 0.935242 0
M  V30 11186 C 1034.42 1.15645 1.72165 0
M  V30 11187 C 1034.84 -0.283909 1.85945 0
M  V30 11188 O 1034.2 -1.20567 1.354 0
M  V30 11189 C 1034.25 1.83689 3.10307 0
M  V30 11190 O 1033.35 1.12972 3.96625 0
M  V30 11191 H 1032.69 0.402629 0.528002 0
M  V30 11192 H 1035.22 1.67781 1.17093 0
M  V30 11193 H 1035.23 1.90749 3.60664 0
M  V30 11194 H 1033.91 2.88472 2.99595 0
M  V30 11195 H 1032.48 1.13929 3.5507 0
M  V30 11196 N 1034.67 -1.14067 1.0875 0
M  V30 11197 C 1035.62 -2.19261 0.720633 0
M  V30 11198 C 1036.59 -1.63462 -0.294847 0
M  V30 11199 O 1037.77 -1.89967 -0.178058 0
M  V30 11200 C 1034.91 -3.44816 0.139873 0
M  V30 11201 C 1034.03 -4.1475 1.20856 0
M  V30 11202 C 1033.16 -5.27899 0.591285 0
M  V30 11203 C 1032.2 -5.89672 1.64176 0
M  V30 11204 N 1031.34 -6.94264 1.04603 0
M  V30 11205 H 1036.18 -2.49991 1.62198 0
M  V30 11206 H 1033.71 -1.22757 0.810497 0
M  V30 11207 H 1035.67 -4.16648 -0.214587 0
M  V30 11208 H 1034.3 -3.14558 -0.724774 0
M  V30 11209 H 1033.35 -3.41272 1.6804 0
M  V30 11210 H 1034.67 -4.56753 2.00446 0
M  V30 11211 H 1033.82 -6.06417 0.185271 0
M  V30 11212 H 1032.56 -4.87128 -0.236236 0
M  V30 11213 H 1031.56 -5.09854 2.05739 0
M  V30 11214 H 1032.79 -6.32517 2.47182 0
M  V30 11215 H 1030.73 -6.55562 0.239664 0
M  V30 11216 H 1030.65 -7.34771 1.77898 0
M  V30 11217 H 1031.92 -7.7665 0.665989 0
M  V30 11218 N 1036.15 -0.873678 -1.31166 0
M  V30 11219 C 1037.56 -0.566109 -1.49223 0
M  V30 11220 C 1037.76 0.898889 -1.80339 0
M  V30 11221 O 1036.82 1.68084 -1.88425 0
M  V30 11222 C 1038.13 -1.46952 -2.62346 0
M  V30 11223 C 1039.68 -1.47195 -2.76229 0
M  V30 11224 C 1040.16 -2.36102 -3.92454 0
M  V30 11225 N 1041.65 -2.34003 -3.99746 0
M  V30 11226 C 1042.38 -2.99513 -4.88958 0
M  V30 11227 N 1041.88 -3.74206 -5.83045 0
M  V30 11228 N 1043.67 -2.88802 -4.82234 0
M  V30 11229 H 1035.82 -1.82156 -1.09239 0
M  V30 11230 H 1038.09 -0.779086 -0.54012 0
M  V30 11231 H 1037.79 -2.51213 -2.4614 0
M  V30 11232 H 1037.67 -1.17077 -3.5857 0
M  V30 11233 H 1040.05 -0.436902 -2.91848 0
M  V30 11234 H 1040.13 -1.81095 -1.80661 0
M  V30 11235 H 1039.78 -3.39685 -3.77593 0
M  V30 11236 H 1039.71 -1.99524 -4.87337 0
M  V30 11237 H 1042.2 -1.79713 -3.32433 0
M  V30 11238 H 1042.51 -4.21312 -6.47855 0
M  V30 11239 H 1040.86 -3.78314 -5.83012 0
M  V30 11240 H 1044.05 -2.29984 -4.07707 0
M  V30 11241 H 1044.22 -3.40136 -5.51554 0
M  V30 11242 N 1037.63 1.44308 -0.633487 0
M  V30 11243 C 1038.57 2.32455 0.0821956 0
M  V30 11244 C 1039.57 1.47482 0.833388 0
M  V30 11245 O 1040.77 1.63812 0.746021 0
M  V30 11246 H 1037.15 0.750631 0.045352 0
M  V30 11247 H 1039.12 2.90566 -0.679282 0
M  V30 11248 C 1037.87 3.31512 1.04858 0
M  V30 11249 H 1037.19 3.96908 0.479979 0
M  V30 11250 H 1038.63 3.95865 1.51879 0
M  V30 11251 C 1037.09 2.60615 2.13498 0
M  V30 11252 O 1037.62 2.40682 3.21613 0
M  V30 11253 N 1035.83 2.20315 1.89499 0
M  V30 11254 H 1035.37 2.36726 1.01581 0
M  V30 11255 H 1035.33 1.73205 2.62388 0
M  V30 11256 N 1039.1 0.374177 1.53094 0
M  V30 11257 C 1040.01 -0.475935 2.29722 0
M  V30 11258 C 1041.03 -1.085 1.36029 0
M  V30 11259 O 1042.21 -1.09408 1.69091 0
M  V30 11260 C 1039.27 -1.59572 3.07795 0
M  V30 11261 C 1038.33 -1.01332 4.17169 0
M  V30 11262 C 1037.57 -2.07975 4.9151 0
M  V30 11263 O 1037.79 -3.29232 4.65793 0
M  V30 11264 O 1036.72 -1.7055 5.77232 0
M  V30 11265 H 1040.55 0.147877 3.0334 0
M  V30 11266 H 1038.13 0.138312 1.48758 0
M  V30 11267 H 1040.02 -2.24658 3.5652 0
M  V30 11268 H 1038.69 -2.20478 2.37005 0
M  V30 11269 H 1037.6 -0.326133 3.72676 0
M  V30 11270 H 1038.93 -0.4487 4.90151 0
M  V30 11271 N 1040.58 -1.57259 0.103575 0
M  V30 11272 C 1041.53 -2.14487 -0.852295 0
M  V30 11273 C 1042.5 -1.06567 -1.27407 0
M  V30 11274 O 1043.68 -1.34398 -1.35432 0
M  V30 11275 C 1040.82 -2.73632 -2.10284 0
M  V30 11276 C 1039.94 -3.95811 -1.73083 0
M  V30 11277 C 1039.07 -4.43093 -2.92988 0
M  V30 11278 C 1038.11 -5.5784 -2.51953 0
M  V30 11279 N 1037.25 -5.99936 -3.64721 0
M  V30 11280 H 1042.09 -2.95849 -0.35743 0
M  V30 11281 H 1039.63 -1.46175 -0.164748 0
M  V30 11282 H 1041.58 -3.06046 -2.83534 0
M  V30 11283 H 1040.21 -1.94985 -2.57256 0
M  V30 11284 H 1039.27 -3.69656 -0.897688 0
M  V30 11285 H 1040.58 -4.79066 -1.38916 0
M  V30 11286 H 1039.73 -4.77335 -3.74481 0
M  V30 11287 H 1038.47 -3.58756 -3.30372 0
M  V30 11288 H 1037.48 -5.23217 -1.6889 0
M  V30 11289 H 1038.7 -6.43932 -2.15705 0
M  V30 11290 H 1036.65 -5.18543 -4.01807 0
M  V30 11291 H 1036.56 -6.78008 -3.34427 0
M  V30 11292 H 1037.83 -6.38812 -4.46699 0
M  V30 11293 N 1042.06 0.170153 -1.56679 0
M  V30 11294 C 1043.31 0.883211 -1.83224 0
M  V30 11295 C 1043.66 1.7982 -0.68429 0
M  V30 11296 O 1042.95 1.88922 0.319204 0
M  V30 11297 C 1043.15 1.71402 -3.13618 0
M  V30 11298 C 1042.98 0.880967 -4.40986 0
M  V30 11299 C 1041.75 0.555594 -5.02236 0
M  V30 11300 C 1043.95 0.221986 -5.13821 0
M  V30 11301 N 1041.93 -0.293479 -6.13198 0
M  V30 11302 C 1043.3 -0.488202 -6.18075 0
M  V30 11303 C 1045.35 0.14027 -4.97702 0
M  V30 11304 C 1044.06 -1.27236 -7.07957 0
M  V30 11305 C 1046.08 -0.630556 -5.88029 0
M  V30 11306 C 1045.44 -1.3291 -6.91747 0
M  V30 11307 H 1041.54 0.301769 -0.721429 0
M  V30 11308 H 1044.13 0.150113 -1.9412 0
M  V30 11309 H 1042.3 2.41853 -3.03911 0
M  V30 11310 H 1044.03 2.36847 -3.28155 0
M  V30 11311 H 1040.79 0.885952 -4.6524 0
M  V30 11312 H 1041.21 -0.708359 -6.73284 0
M  V30 11313 H 1045.85 0.665983 -4.17522 0
M  V30 11314 H 1043.57 -1.80941 -7.87582 0
M  V30 11315 H 1047.16 -0.695468 -5.77628 0
M  V30 11316 H 1046.04 -1.916 -7.60433 0
M  V30 11317 N 1043.54 1.5137 0.438746 0
M  V30 11318 C 1044.82 1.54508 1.19944 0
M  V30 11319 C 1045.2 0.308525 2.08833 0
M  V30 11320 O 1044.54 -0.706461 2.17305 0
M  V30 11321 C 1044.75 2.85833 2.00251 0
M  V30 11322 C 1046.1 3.37729 2.5734 0
M  V30 11323 O 1047.13 2.87374 2.10463 0
M  V30 11324 O 1045.98 4.25589 3.42836 0
M  V30 11325 H 1043.08 0.621132 0.546007 0
M  V30 11326 H 1045.62 1.63682 0.447931 0
M  V30 11327 H 1044.4 3.67291 1.34955 0
M  V30 11328 H 1044.02 2.79815 2.8247 0
M  V30 11329 N 1045.02 -0.694098 1.41492 0
M  V30 11330 C 1045.93 -1.83778 1.45818 0
M  V30 11331 C 1046.94 -1.70471 0.348639 0
M  V30 11332 O 1048.12 -1.92361 0.596588 0
M  V30 11333 C 1045.18 -3.19771 1.33967 0
M  V30 11334 C 1044.24 -3.45175 2.5525 0
M  V30 11335 C 1043.48 -4.74681 2.43955 0
M  V30 11336 O 1043.7 -5.51268 1.46491 0
M  V30 11337 O 1042.63 -5.00901 3.33739 0
M  V30 11338 H 1046.46 -1.83084 2.42309 0
M  V30 11339 H 1044.05 -0.847349 1.23046 0
M  V30 11340 H 1045.93 -4.00961 1.29648 0
M  V30 11341 H 1044.6 -3.21145 0.405926 0
M  V30 11342 H 1043.51 -2.6391 2.65146 0
M  V30 11343 H 1044.84 -3.48617 3.47458 0
M  V30 11344 N 1046.49 -1.27344 -0.928501 0
M  V30 11345 C 1047.74 -1.13804 -1.67859 0
M  V30 11346 C 1048.07 0.31555 -1.91619 0
M  V30 11347 O 1047.35 1.23087 -1.50599 0
M  V30 11348 C 1047.63 -1.9213 -3.04562 0
M  V30 11349 C 1047.48 -3.45468 -2.88048 0
M  V30 11350 C 1048.8 -1.72513 -4.04879 0
M  V30 11351 H 1045.92 -0.414796 -0.609191 0
M  V30 11352 H 1048.56 -1.5649 -1.07753 0
M  V30 11353 H 1046.71 -1.55853 -3.55868 0
M  V30 11354 H 1048.39 -3.9157 -2.43865 0
M  V30 11355 H 1046.63 -3.71849 -2.23407 0
M  V30 11356 H 1047.3 -3.95515 -3.85061 0
M  V30 11357 H 1049.78 -2.04143 -3.62581 0
M  V30 11358 H 1048.65 -2.29713 -4.98521 0
M  V30 11359 H 1048.91 -0.672856 -4.3695 0
M  V30 11360 N 1047.97 1.13488 -1.09353 0
M  V30 11361 C 1049.2 1.88319 -0.849681 0
M  V30 11362 C 1049.61 1.79347 0.602616 0
M  V30 11363 O 1048.95 1.15744 1.4265 0
M  V30 11364 C 1049.02 3.38698 -1.20514 0
M  V30 11365 C 1048.68 3.71452 -2.66219 0
M  V30 11366 C 1049.68 3.70755 -3.64467 0
M  V30 11367 C 1047.36 4.01132 -3.02321 0
M  V30 11368 C 1049.36 3.9928 -4.96845 0
M  V30 11369 C 1047.04 4.29318 -4.3489 0
M  V30 11370 C 1048.04 4.28376 -5.31961 0
M  V30 11371 O 1047.73 4.55872 -6.62145 0
M  V30 11372 H 1047.46 0.603053 -0.305455 0
M  V30 11373 H 1050.01 1.44592 -1.45884 0
M  V30 11374 H 1048.24 3.82925 -0.539022 0
M  V30 11375 H 1049.93 3.94852 -0.940552 0
M  V30 11376 H 1050.7 3.47901 -3.3792 0
M  V30 11377 H 1046.58 4.01013 -2.27398 0
M  V30 11378 H 1050.12 3.9846 -5.72604 0
M  V30 11379 H 1046.02 4.51644 -4.61181 0
M  V30 11380 H 1046.79 4.73544 -6.67607 0
M  V30 11381 N 1049.45 0.880621 1.30701 0
M  V30 11382 C 1050.4 0.342397 2.28246 0
M  V30 11383 C 1051.37 -0.565023 1.56194 0
M  V30 11384 O 1052.55 -0.494377 1.84284 0
M  V30 11385 C 1049.69 -0.440859 3.42272 0
M  V30 11386 C 1048.81 0.495284 4.29151 0
M  V30 11387 C 1047.94 -0.303141 5.30334 0
M  V30 11388 C 1046.98 0.628751 6.08862 0
M  V30 11389 N 1046.12 -0.13408 7.01972 0
M  V30 11390 H 1050.96 1.17938 2.73669 0
M  V30 11391 H 1048.49 0.59296 1.34619 0
M  V30 11392 H 1050.45 -0.910854 4.07135 0
M  V30 11393 H 1049.08 -1.24245 2.97931 0
M  V30 11394 H 1048.13 1.08376 3.64635 0
M  V30 11395 H 1049.45 1.2094 4.83916 0
M  V30 11396 H 1048.6 -0.835181 6.00924 0
M  V30 11397 H 1047.34 -1.05049 4.76252 0
M  V30 11398 H 1046.34 1.17246 5.37153 0
M  V30 11399 H 1047.57 1.37512 6.65032 0
M  V30 11400 H 1045.52 -0.864046 6.50285 0
M  V30 11401 H 1045.43 0.520486 7.54206 0
M  V30 11402 H 1046.7 -0.647005 7.7681 0
M  V30 11403 N 1050.93 -1.4397 0.641131 0
M  V30 11404 C 1052.16 -2.06004 0.156779 0
M  V30 11405 C 1052.57 -1.48059 -1.17793 0
M  V30 11406 O 1051.91 -0.601788 -1.73563 0
M  V30 11407 C 1051.97 -3.59493 -0.0217203 0
M  V30 11408 C 1051.64 -4.39957 1.23639 0
M  V30 11409 C 1052.63 -4.72797 2.16239 0
M  V30 11410 C 1050.32 -4.80168 1.4746 0
M  V30 11411 C 1052.31 -5.44741 3.30962 0
M  V30 11412 C 1050 -5.51859 2.62478 0
M  V30 11413 C 1051 -5.84067 3.54055 0
M  V30 11414 O 1050.69 -6.54296 4.67067 0
M  V30 11415 H 1050.42 -0.671061 0.0815685 0
M  V30 11416 H 1052.97 -1.85664 0.878517 0
M  V30 11417 H 1051.2 -3.78362 -0.798707 0
M  V30 11418 H 1052.89 -4.03263 -0.461893 0
M  V30 11419 H 1053.66 -4.42261 1.99073 0
M  V30 11420 H 1049.54 -4.54513 0.770652 0
M  V30 11421 H 1053.08 -5.69798 4.02462 0
M  V30 11422 H 1048.98 -5.81811 2.79583 0
M  V30 11423 H 1049.74 -6.72772 4.66177 0
M  V30 11424 N 1052.41 -0.382291 -1.52893 0
M  V30 11425 C 1053.66 0.203342 -2.00672 0
M  V30 11426 C 1053.97 1.48487 -1.27322 0
M  V30 11427 O 1055.18 2.15013 -1.65776 0
M  V30 11428 C 1053.63 0.412922 -3.57523 0
M  V30 11429 C 1053.24 -0.854949 -4.39767 0
M  V30 11430 C 1054.98 0.955301 -4.13611 0
M  V30 11431 C 1052.89 -0.614033 -5.88204 0
M  V30 11432 H 1051.82 0.0797635 -0.749769 0
M  V30 11433 H 1054.47 -0.50361 -1.76454 0
M  V30 11434 H 1052.85 1.18155 -3.77962 0
M  V30 11435 H 1054.03 -1.62765 -4.31096 0
M  V30 11436 H 1052.34 -1.32176 -3.94865 0
M  V30 11437 H 1054.94 1.15114 -5.22162 0
M  V30 11438 H 1055.28 1.92233 -3.69259 0
M  V30 11439 H 1055.82 0.24642 -3.97036 0
M  V30 11440 H 1052.55 -1.55187 -6.36865 0
M  V30 11441 H 1052.07 0.119865 -5.9968 0
M  V30 11442 H 1053.75 -0.245895 -6.46533 0
M  V30 11443 N 1053.89 1.57202 -0.111913 0
M  V30 11444 C 1055.13 1.95239 0.548607 0
M  V30 11445 C 1055.46 0.994897 1.6678 0
M  V30 11446 O 1054.74 0.0308603 1.94476 0
M  V30 11447 C 1055.02 3.43271 1.08798 0
M  V30 11448 C 1054.88 4.49792 -0.0273064 0
M  V30 11449 C 1056.19 3.92989 1.98109 0
M  V30 11450 H 1053.31 0.709919 0.197951 0
M  V30 11451 H 1055.96 1.89087 -0.186036 0
M  V30 11452 H 1054.11 3.48644 1.71404 0
M  V30 11453 H 1055.78 4.56521 -0.662302 0
M  V30 11454 H 1054.02 4.28254 -0.691426 0
M  V30 11455 H 1054.69 5.50612 0.391201 0
M  V30 11456 H 1057.17 3.89875 1.45385 0
M  V30 11457 H 1056.04 4.97101 2.32769 0
M  V30 11458 H 1056.3 3.33267 2.90492 0
M  V30 11459 N 1055.36 -0.161842 1.56767 0
M  V30 11460 C 1056.59 -0.892247 1.86672 0
M  V30 11461 C 1057.01 -1.75407 0.69841 0
M  V30 11462 O 1056.36 -1.7945 -0.332251 0
M  V30 11463 C 1056.41 -1.7612 3.15696 0
M  V30 11464 O 1056.14 -0.934131 4.28025 0
M  V30 11465 C 1057.64 -2.60046 3.59014 0
M  V30 11466 H 1054.86 -0.258747 0.619105 0
M  V30 11467 H 1057.4 -0.159089 2.0388 0
M  V30 11468 H 1055.56 -2.44759 3.00286 0
M  V30 11469 H 1055.97 -1.52931 5.01709 0
M  V30 11470 H 1057.44 -3.16618 4.5217 0
M  V30 11471 H 1057.92 -3.35374 2.83586 0
M  V30 11472 H 1058.53 -1.96724 3.77067 0
M  V30 11473 N 1056.84 -1.516 -0.430713 0
M  V30 11474 C 1057.79 -1.73975 -1.54387 0
M  V30 11475 C 1058.78 -0.606222 -1.58181 0
M  V30 11476 O 1059.99 -0.787764 -1.61846 0
M  V30 11477 H 1056.36 -0.549811 -0.513041 0
M  V30 11478 H 1058.34 -2.67274 -1.32692 0
M  V30 11479 C 1057.08 -1.88794 -2.9198 0
M  V30 11480 H 1056.41 -2.75425 -2.89795 0
M  V30 11481 H 1057.85 -2.08458 -3.69217 0
M  V30 11482 C 1056.31 -0.649427 -3.30581 0
M  V30 11483 O 1056.84 0.192823 -4.01237 0
M  V30 11484 N 1055.04 -0.491586 -2.86412 0
M  V30 11485 H 1054.59 -1.17806 -2.29084 0
M  V30 11486 H 1054.55 0.33583 -3.12601 0
M  V30 11487 N 1058.32 0.686584 -1.41858 0
M  V30 11488 C 1059.57 1.44738 -1.42908 0
M  V30 11489 C 1059.92 1.92357 -0.0404705 0
M  V30 11490 O 1059.21 1.67221 0.935287 0
M  V30 11491 C 1059.41 2.66793 -2.37816 0
M  V30 11492 C 1059.24 2.31114 -3.85767 0
M  V30 11493 C 1058.01 2.21043 -4.54388 0
M  V30 11494 C 1060.2 1.93512 -4.76505 0
M  V30 11495 N 1058.19 1.78344 -5.87424 0
M  V30 11496 C 1059.56 1.61642 -5.98558 0
M  V30 11497 C 1061.61 1.80401 -4.64069 0
M  V30 11498 C 1060.32 1.17977 -7.09559 0
M  V30 11499 C 1062.34 1.38141 -5.7504 0
M  V30 11500 C 1061.7 1.07186 -6.96197 0
M  V30 11501 H 1057.8 0.526577 -0.578136 0
M  V30 11502 H 1060.39 0.793483 -1.77797 0
M  V30 11503 H 1058.56 3.29889 -2.05007 0
M  V30 11504 H 1060.29 3.33318 -2.29524 0
M  V30 11505 H 1057.04 2.39731 -4.08443 0
M  V30 11506 H 1057.47 1.59451 -6.57955 0
M  V30 11507 H 1062.11 2.02983 -3.70888 0
M  V30 11508 H 1059.83 0.941397 -8.02598 0
M  V30 11509 H 1063.41 1.28533 -5.67425 0
M  V30 11510 H 1062.29 0.749804 -7.80607 0
M  V30 11511 N 1059.8 1.27835 0.921735 0
M  V30 11512 C 1060.73 1.136 2.04003 0
M  V30 11513 C 1061.71 0.0358756 1.70062 0
M  V30 11514 O 1062.89 0.211438 1.93046 0
M  V30 11515 C 1060.02 0.788697 3.38226 0
M  V30 11516 C 1058.98 1.84272 3.863 0
M  V30 11517 C 1058.3 1.34923 5.17397 0
M  V30 11518 C 1059.6 3.24788 4.09035 0
M  V30 11519 H 1061.3 2.07149 2.1617 0
M  V30 11520 H 1058.84 0.997349 1.0387 0
M  V30 11521 H 1060.8 0.675911 4.15944 0
M  V30 11522 H 1059.52 -0.182499 3.2609 0
M  V30 11523 H 1058.18 1.94451 3.1078 0
M  V30 11524 H 1057.83 0.367328 5.01657 0
M  V30 11525 H 1057.53 2.05397 5.50532 0
M  V30 11526 H 1059.05 1.24951 5.97678 0
M  V30 11527 H 1060.47 3.17575 4.77304 0
M  V30 11528 H 1058.86 3.93025 4.53488 0
M  V30 11529 H 1059.93 3.69398 3.14122 0
M  V30 11530 N 1061.28 -1.12907 1.09954 0
M  V30 11531 C 1062.24 -2.16673 0.747364 0
M  V30 11532 C 1063.24 -1.59208 -0.225741 0
M  V30 11533 O 1064.43 -1.742 -0.00322482 0
M  V30 11534 C 1061.56 -3.40735 0.106169 0
M  V30 11535 H 1062.75 -2.49341 1.6664 0
M  V30 11536 H 1060.31 -1.27828 0.899421 0
M  V30 11537 H 1061.04 -3.13661 -0.82384 0
M  V30 11538 H 1060.83 -3.83717 0.806434 0
M  V30 11539 H 1062.32 -4.17414 -0.12464 0
M  V30 11540 N 1062.75 -0.88754 -1.30232 0
M  V30 11541 C 1063.7 -0.354497 -2.28061 0
M  V30 11542 C 1064.67 0.556732 -1.56492 0
M  V30 11543 O 1065.86 0.484597 -1.84543 0
M  V30 11544 C 1063 0.422701 -3.42501 0
M  V30 11545 C 1062.11 -0.518036 -4.28883 0
M  V30 11546 C 1061.24 0.275011 -5.30488 0
M  V30 11547 C 1060.28 -0.661032 -6.0852 0
M  V30 11548 N 1059.42 0.0968509 -7.02033 0
M  V30 11549 H 1064.26 -1.19388 -2.73039 0
M  V30 11550 H 1061.8 -0.600091 -1.34303 0
M  V30 11551 H 1063.75 0.889249 -4.07613 0
M  V30 11552 H 1062.38 1.22664 -2.98586 0
M  V30 11553 H 1061.44 -1.10308 -3.64055 0
M  V30 11554 H 1062.75 -1.23504 -4.83268 0
M  V30 11555 H 1061.9 0.803301 -6.01358 0
M  V30 11556 H 1060.64 1.02522 -4.76802 0
M  V30 11557 H 1059.65 -1.20093 -5.36524 0
M  V30 11558 H 1060.87 -1.41037 -6.64293 0
M  V30 11559 H 1058.82 0.829548 -6.50734 0
M  V30 11560 H 1058.73 -0.560476 -7.5392 0
M  V30 11561 H 1060 0.6058 -7.77142 0
M  V30 11562 N 1064.23 1.43628 -0.648757 0
M  V30 11563 C 1065.48 2.02163 -0.160574 0
M  V30 11564 C 1065.81 1.51037 1.22072 0
M  V30 11565 O 1065.09 0.701633 1.81404 0
M  V30 11566 C 1065.37 3.59715 -0.166528 0
M  V30 11567 C 1065.22 4.21083 -1.58142 0
M  V30 11568 C 1066.54 4.37256 0.499485 0
M  V30 11569 H 1063.66 0.734568 -0.0598238 0
M  V30 11570 H 1066.3 1.70981 -0.828592 0
M  V30 11571 H 1064.45 3.86411 0.402302 0
M  V30 11572 H 1066.12 4.05433 -2.2005 0
M  V30 11573 H 1064.37 3.77904 -2.13005 0
M  V30 11574 H 1065.04 5.30156 -1.53748 0
M  V30 11575 H 1067.51 4.16097 0.0155561 0
M  V30 11576 H 1066.39 5.4693 0.464574 0
M  V30 11577 H 1066.65 4.13175 1.57286 0
M  V30 11578 N 1065.71 0.390394 1.52688 0
M  V30 11579 C 1066.66 -0.4591 2.28024 0
M  V30 11580 C 1067.65 -1.06212 1.31967 0
M  V30 11581 O 1068.86 -1.00247 1.49501 0
M  V30 11582 H 1065.23 -0.16681 0.733266 0
M  V30 11583 H 1067.2 0.197747 2.97744 0
M  V30 11584 C 1065.95 -1.5737 3.10048 0
M  V30 11585 H 1065.28 -1.11901 3.83821 0
M  V30 11586 H 1066.72 -2.1423 3.65898 0
M  V30 11587 C 1065.18 -2.53036 2.22429 0
M  V30 11588 O 1065.71 -3.5647 1.85181 0
M  V30 11589 N 1063.91 -2.22802 1.86567 0
M  V30 11590 H 1063.46 -1.38723 2.17057 0
M  V30 11591 H 1063.42 -2.87061 1.28233 0
M  V30 11592 N 1067.19 -1.57141 0.120249 0
M  V30 11593 C 1068.42 -1.99589 -0.545136 0
M  V30 11594 C 1068.83 -0.999951 -1.60145 0
M  V30 11595 O 1068.19 0.00698897 -1.82499 0
M  V30 11596 C 1068.24 -3.42038 -1.17014 0
M  V30 11597 O 1067.96 -4.37822 -0.156044 0
M  V30 11598 C 1069.46 -3.99625 -1.91872 0
M  V30 11599 H 1066.68 -0.655318 -0.144222 0
M  V30 11600 H 1069.23 -2.0345 0.206955 0
M  V30 11601 H 1067.38 -3.39113 -1.873 0
M  V30 11602 H 1067.79 -5.20937 -0.610317 0
M  V30 11603 H 1069.27 -5.01374 -2.30928 0
M  V30 11604 H 1069.75 -3.38836 -2.7944 0
M  V30 11605 H 1070.35 -4.061 -1.26345 0
M  V30 11606 N 1068.67 0.153526 -1.5685 0
M  V30 11607 C 1069.6 1.2147 -1.94365 0
M  V30 11608 C 1070.61 1.39532 -0.838726 0
M  V30 11609 O 1071.8 1.39219 -1.11715 0
M  V30 11610 C 1068.9 2.5806 -2.19677 0
M  V30 11611 C 1068.07 2.61062 -3.50949 0
M  V30 11612 C 1067.13 3.79144 -3.64878 0
M  V30 11613 O 1066.16 3.64319 -4.37333 0
M  V30 11614 N 1067.36 4.96333 -3.01054 0
M  V30 11615 H 1070.13 0.895889 -2.85996 0
M  V30 11616 H 1067.69 0.343147 -1.58222 0
M  V30 11617 H 1069.68 3.35553 -2.26243 0
M  V30 11618 H 1068.25 2.8226 -1.34343 0
M  V30 11619 H 1067.47 1.69533 -3.55882 0
M  V30 11620 H 1068.76 2.60094 -4.37297 0
M  V30 11621 H 1068.15 5.1128 -2.42093 0
M  V30 11622 H 1066.71 5.71625 -3.13191 0
M  V30 11623 N 1070.14 1.51827 0.422667 0
M  V30 11624 C 1071.39 1.6445 1.16786 0
M  V30 11625 C 1071.71 0.373792 1.91995 0
M  V30 11626 O 1072.91 0.379621 2.68833 0
M  V30 11627 C 1071.37 2.90488 2.12473 0
M  V30 11628 C 1070.98 4.24617 1.42844 0
M  V30 11629 C 1072.72 3.12472 2.87335 0
M  V30 11630 C 1070.63 5.41791 2.371 0
M  V30 11631 H 1069.56 0.612561 0.439641 0
M  V30 11632 H 1072.21 1.78305 0.433534 0
M  V30 11633 H 1070.59 2.703 2.89402 0
M  V30 11634 H 1071.76 4.55239 0.71372 0
M  V30 11635 H 1070.08 4.08628 0.800769 0
M  V30 11636 H 1072.68 3.9719 3.57973 0
M  V30 11637 H 1073.02 2.26148 3.49518 0
M  V30 11638 H 1073.55 3.33069 2.17509 0
M  V30 11639 H 1070.29 6.3042 1.79584 0
M  V30 11640 H 1069.81 5.15526 3.06583 0
M  V30 11641 H 1071.49 5.74329 2.97918 0
M  V30 11642 N 1071.62 -0.679052 1.4222 0
M  V30 11643 C 1072.9 -1.43473 1.32947 0
M  V30 11644 C 1073.28 -2.11071 -0.0351689 0
M  V30 11645 O 1072.63 -2.02925 -1.05042 0
M  V30 11646 C 1072.84 -2.44065 2.49466 0
M  V30 11647 C 1074.19 -3.08834 2.91387 0
M  V30 11648 O 1075.21 -2.54392 2.49325 0
M  V30 11649 O 1074.07 -4.07478 3.64175 0
M  V30 11650 H 1071.16 -0.639743 0.524078 0
M  V30 11651 H 1073.71 -0.708134 1.54219 0
M  V30 11652 H 1072.48 -1.92884 3.40457 0
M  V30 11653 H 1072.1 -3.24212 2.30158 0
M  V30 11654 N 1073.1 -1.28322 -0.914942 0
M  V30 11655 C 1074.03 -1.14681 -2.03398 0
M  V30 11656 C 1075.01 -0.0448939 -1.70041 0
M  V30 11657 O 1076.2 -0.221672 -1.92931 0
M  V30 11658 C 1073.33 -0.806623 -3.37803 0
M  V30 11659 C 1072.28 -1.86318 -3.85318 0
M  V30 11660 C 1071.61 -1.37665 -5.16674 0
M  V30 11661 C 1072.91 -3.26953 -4.07307 0
M  V30 11662 H 1074.6 -2.08293 -2.15068 0
M  V30 11663 H 1072.15 -1.00284 -1.03339 0
M  V30 11664 H 1074.1 -0.69796 -4.1558 0
M  V30 11665 H 1072.82 0.165203 -3.26182 0
M  V30 11666 H 1071.48 -1.96096 -3.09745 0
M  V30 11667 H 1071.13 -0.393927 -5.01455 0
M  V30 11668 H 1070.83 -2.08313 -5.49435 0
M  V30 11669 H 1072.35 -1.28119 -5.97007 0
M  V30 11670 H 1073.77 -3.20102 -4.75613 0
M  V30 11671 H 1072.17 -3.95424 -4.51398 0
M  V30 11672 H 1073.24 -3.71059 -3.12159 0
M  V30 11673 N 1074.58 1.12322 -1.10551 0
M  V30 11674 C 1075.83 1.83216 -0.84349 0
M  V30 11675 C 1076.14 1.85075 0.632992 0
M  V30 11676 O 1077.35 2.51976 1.01095 0
M  V30 11677 C 1075.8 3.28994 -1.45915 0
M  V30 11678 C 1075.41 3.3549 -2.96901 0
M  V30 11679 C 1077.15 4.0485 -1.27657 0
M  V30 11680 C 1075.06 4.7561 -3.51496 0
M  V30 11681 H 1073.99 0.686471 -0.311887 0
M  V30 11682 H 1076.64 1.26463 -1.32964 0
M  V30 11683 H 1075.02 3.85621 -0.900678 0
M  V30 11684 H 1076.2 2.88795 -3.59074 0
M  V30 11685 H 1074.51 2.73107 -3.14327 0
M  V30 11686 H 1077.11 5.08316 -1.65889 0
M  V30 11687 H 1077.45 4.15727 -0.218258 0
M  V30 11688 H 1077.99 3.54584 -1.80318 0
M  V30 11689 H 1074.73 4.69927 -4.56999 0
M  V30 11690 H 1074.25 5.22753 -2.94091 0
M  V30 11691 H 1075.92 5.44552 -3.49388 0
M  V30 11692 N 1076.06 0.894434 1.2976 0
M  V30 11693 C 1077.47 0.589778 1.48303 0
M  V30 11694 C 1077.67 -0.870085 1.81746 0
M  V30 11695 O 1076.73 -1.65065 1.91076 0
M  V30 11696 C 1078.04 1.51107 2.59975 0
M  V30 11697 C 1079.59 1.51571 2.73853 0
M  V30 11698 C 1080.06 2.42316 3.88648 0
M  V30 11699 N 1081.56 2.40333 3.95973 0
M  V30 11700 C 1082.29 3.07254 4.84131 0
M  V30 11701 N 1081.79 3.83435 5.77018 0
M  V30 11702 N 1083.58 2.96438 4.77578 0
M  V30 11703 H 1075.73 1.83871 1.06327 0
M  V30 11704 H 1077.99 0.78758 0.527657 0
M  V30 11705 H 1077.7 2.55097 2.42112 0
M  V30 11706 H 1077.57 1.22767 3.56662 0
M  V30 11707 H 1079.96 0.483277 2.91116 0
M  V30 11708 H 1080.04 1.83946 1.77757 0
M  V30 11709 H 1079.69 3.4565 3.72141 0
M  V30 11710 H 1079.62 2.07252 4.84101 0
M  V30 11711 H 1082.11 1.84979 3.29532 0
M  V30 11712 H 1082.42 4.31565 6.4107 0
M  V30 11713 H 1080.76 3.87542 5.7692 0
M  V30 11714 H 1083.96 2.36442 4.03996 0
M  V30 11715 H 1084.13 3.48867 5.46073 0
M  V30 11716 N 1077.53 -1.43282 0.656365 0
M  V30 11717 C 1078.48 -2.30776 -0.0333155 0
M  V30 11718 C 1079.45 -1.44928 -0.811493 0
M  V30 11719 O 1080.64 -1.73792 -0.787465 0
M  V30 11720 C 1077.78 -3.30548 -0.991566 0
M  V30 11721 C 1076.89 -4.31493 -0.209159 0
M  V30 11722 C 1076.02 -5.18346 -1.16149 0
M  V30 11723 C 1075.06 -6.10983 -0.369699 0
M  V30 11724 N 1074.2 -6.90449 -1.27378 0
M  V30 11725 H 1079.04 -2.89204 0.718668 0
M  V30 11726 H 1076.58 -1.4247 0.366161 0
M  V30 11727 H 1078.54 -3.86905 -1.56078 0
M  V30 11728 H 1077.17 -2.73762 -1.71039 0
M  V30 11729 H 1076.22 -3.77405 0.476394 0
M  V30 11730 H 1077.53 -4.97142 0.406394 0
M  V30 11731 H 1076.68 -5.79345 -1.80124 0
M  V30 11732 H 1075.42 -4.52831 -1.81095 0
M  V30 11733 H 1074.43 -5.49069 0.283377 0
M  V30 11734 H 1075.65 -6.78541 0.275399 0
M  V30 11735 H 1073.6 -6.27579 -1.90999 0
M  V30 11736 H 1073.52 -7.52631 -0.71287 0
M  V30 11737 H 1074.78 -7.5595 -1.90158 0
M  V30 11738 N 1079.01 -0.398486 -1.52479 0
M  V30 11739 C 1079.96 0.432212 -2.26717 0
M  V30 11740 C 1080.93 1.05007 -1.28696 0
M  V30 11741 O 1082.12 1.07636 -1.57541 0
M  V30 11742 C 1079.26 1.54868 -3.08399 0
M  V30 11743 C 1078.37 0.952779 -4.21362 0
M  V30 11744 C 1077.5 2.04106 -4.90423 0
M  V30 11745 C 1076.54 1.42153 -5.95364 0
M  V30 11746 N 1075.68 2.44951 -6.57984 0
M  V30 11747 H 1080.52 -0.207303 -2.97278 0
M  V30 11748 H 1078.06 -0.114066 -1.46657 0
M  V30 11749 H 1080.01 2.20684 -3.54054 0
M  V30 11750 H 1078.64 2.15837 -2.4003 0
M  V30 11751 H 1077.7 0.183962 -3.79955 0
M  V30 11752 H 1079.01 0.460131 -4.96673 0
M  V30 11753 H 1078.16 2.77672 -5.39429 0
M  V30 11754 H 1076.9 2.56733 -4.14656 0
M  V30 11755 H 1075.91 0.671161 -5.45688 0
M  V30 11756 H 1077.13 0.903093 -6.73068 0
M  V30 11757 H 1075.08 2.9673 -5.85053 0
M  V30 11758 H 1074.99 2.00468 -7.28937 0
M  V30 11759 H 1076.26 3.18119 -7.11632 0
M  V30 11760 N 1080.49 1.57075 -0.12858 0
M  V30 11761 C 1081.42 2.11553 0.855593 0
M  V30 11762 C 1082.4 1.03435 1.25459 0
M  V30 11763 O 1083.59 1.3115 1.35395 0
M  V30 11764 C 1080.71 2.62012 2.14633 0
M  V30 11765 C 1079.76 3.82105 1.89467 0
M  V30 11766 S 1080.59 5.24033 1.10228 0
M  V30 11767 C 1081.75 5.77867 2.4046 0
M  V30 11768 H 1081.98 2.94701 0.392248 0
M  V30 11769 H 1079.51 1.54164 0.0853746 0
M  V30 11770 H 1081.47 2.91737 2.8879 0
M  V30 11771 H 1080.13 1.79029 2.58084 0
M  V30 11772 H 1079.33 4.15592 2.8513 0
M  V30 11773 H 1078.93 3.53047 1.23427 0
M  V30 11774 H 1081.22 5.88175 3.36238 0
M  V30 11775 H 1082.16 6.75775 2.11504 0
M  V30 11776 H 1082.57 5.05991 2.50266 0
M  V30 11777 N 1081.97 -0.145205 1.5693 0
M  V30 11778 C 1082.92 -1.17923 1.98401 0
M  V30 11779 C 1083.89 -1.42591 0.851885 0
M  V30 11780 O 1085.07 -1.54896 1.11409 0
M  V30 11781 C 1082.21 -2.50727 2.37128 0
M  V30 11782 C 1081.32 -2.33218 3.63639 0
M  V30 11783 C 1080.46 -3.5907 3.91462 0
M  V30 11784 C 1079.5 -3.36605 5.11237 0
M  V30 11785 N 1078.64 -4.54592 5.35061 0
M  V30 11786 H 1083.48 -0.818573 2.86537 0
M  V30 11787 H 1081.01 -0.392739 1.4176 0
M  V30 11788 H 1082.97 -3.28165 2.57611 0
M  V30 11789 H 1081.6 -2.84736 1.52069 0
M  V30 11790 H 1080.65 -1.46826 3.50922 0
M  V30 11791 H 1081.96 -2.12579 4.51234 0
M  V30 11792 H 1081.12 -4.44936 4.12453 0
M  V30 11793 H 1079.86 -3.82715 3.02293 0
M  V30 11794 H 1078.86 -2.49127 4.90118 0
M  V30 11795 H 1080.09 -3.14357 6.01961 0
M  V30 11796 H 1078.03 -4.78406 4.48847 0
M  V30 11797 H 1077.95 -4.36962 6.16928 0
M  V30 11798 H 1079.22 -5.41666 5.60551 0
M  V30 11799 N 1083.45 -1.52049 -0.414609 0
M  V30 11800 C 1084.36 -1.7788 -1.52958 0
M  V30 11801 C 1085.37 -0.66408 -1.60829 0
M  V30 11802 O 1086.55 -0.948882 -1.77646 0
M  V30 11803 C 1083.61 -1.91906 -2.88744 0
M  V30 11804 C 1082.68 -3.15803 -2.90804 0
M  V30 11805 C 1081.91 -3.29151 -4.20114 0
M  V30 11806 O 1082.13 -2.47892 -5.13718 0
M  V30 11807 O 1081.07 -4.2227 -4.28919 0
M  V30 11808 H 1084.89 -2.72506 -1.34067 0
M  V30 11809 H 1082.48 -1.36826 -0.599918 0
M  V30 11810 H 1084.36 -2.02986 -3.6929 0
M  V30 11811 H 1083.03 -1.00468 -3.07714 0
M  V30 11812 H 1081.94 -3.10185 -2.09131 0
M  V30 11813 H 1083.27 -4.07004 -2.76783 0
M  V30 11814 N 1084.93 0.6715 -1.42579 0
M  V30 11815 C 1085.89 1.76676 -1.46008 0
M  V30 11816 C 1086.89 1.57007 -0.347213 0
M  V30 11817 O 1088.08 1.63238 -0.608185 0
M  V30 11818 C 1085.21 3.15348 -1.29494 0
M  V30 11819 H 1086.4 1.75021 -2.43531 0
M  V30 11820 H 1083.96 0.881444 -1.29075 0
M  V30 11821 H 1084.69 3.22626 -0.32906 0
M  V30 11822 H 1084.48 3.31028 -2.10149 0
M  V30 11823 H 1085.97 3.95251 -1.34784 0
M  V30 11824 N 1086.4 1.28806 0.908124 0
M  V30 11825 C 1087.33 1.15758 2.02787 0
M  V30 11826 C 1088.31 0.053911 1.70015 0
M  V30 11827 O 1089.5 0.231901 1.9281 0
M  V30 11828 C 1086.63 0.824526 3.37371 0
M  V30 11829 C 1085.58 1.88359 3.84324 0
M  V30 11830 C 1084.91 1.40404 5.15937 0
M  V30 11831 C 1086.21 3.29108 4.05568 0
M  V30 11832 H 1087.9 2.09431 2.13961 0
M  V30 11833 H 1085.45 1.00831 1.02806 0
M  V30 11834 H 1087.4 0.71999 4.15204 0
M  V30 11835 H 1086.13 -0.147902 3.26265 0
M  V30 11836 H 1084.79 1.97736 3.087 0
M  V30 11837 H 1084.43 0.420515 5.01239 0
M  V30 11838 H 1084.13 2.11224 5.48323 0
M  V30 11839 H 1085.66 1.31283 5.9632 0
M  V30 11840 H 1087.07 3.2262 4.73909 0
M  V30 11841 H 1085.47 3.97812 4.49294 0
M  V30 11842 H 1086.54 3.72709 3.10187 0
M  V30 11843 N 1087.88 -1.11734 1.11145 0
M  V30 11844 C 1088.79 -2.21267 0.779607 0
M  V30 11845 C 1089.81 -1.72526 -0.225986 0
M  V30 11846 O 1090.98 -2.01302 -0.0629166 0
M  V30 11847 C 1088.05 -3.45973 0.22435 0
M  V30 11848 C 1087.11 -4.09518 1.28816 0
M  V30 11849 C 1086.34 -5.28271 0.7593 0
M  V30 11850 O 1086.57 -5.68912 -0.411725 0
M  V30 11851 O 1085.5 -5.82322 1.52266 0
M  V30 11852 H 1089.33 -2.5206 1.6941 0
M  V30 11853 H 1086.91 -1.20211 0.887115 0
M  V30 11854 H 1088.79 -4.21322 -0.0810921 0
M  V30 11855 H 1087.47 -3.1684 -0.662891 0
M  V30 11856 H 1086.37 -3.35915 1.64657 0
M  V30 11857 H 1087.71 -4.42824 2.14868 0
M  V30 11858 N 1089.36 -0.901303 -1.29284 0
M  V30 11859 C 1090.31 -0.370142 -2.29636 0
M  V30 11860 C 1091.3 0.53157 -1.60844 0
M  V30 11861 O 1092.51 0.414194 -1.7517 0
M  V30 11862 H 1088.88 -0.101072 -0.745177 0
M  V30 11863 H 1090.85 -1.22985 -2.71877 0
M  V30 11864 C 1089.6 0.385806 -3.45553 0
M  V30 11865 H 1088.93 -0.298818 -3.98682 0
M  V30 11866 H 1090.37 0.722299 -4.17802 0
M  V30 11867 C 1088.82 1.58907 -2.97069 0
M  V30 11868 O 1089.35 2.68835 -2.98481 0
M  V30 11869 N 1087.56 1.43178 -2.5288 0
M  V30 11870 H 1087.11 0.537467 -2.51931 0
M  V30 11871 H 1087.07 2.23819 -2.208 0
M  V30 11872 N 1090.84 1.42931 -0.663954 0
M  V30 11873 C 1091.77 2.29122 0.0598878 0
M  V30 11874 C 1092.78 1.43094 0.776404 0
M  V30 11875 O 1093.97 1.66923 0.63237 0
M  V30 11876 C 1091.07 3.20268 1.10822 0
M  V30 11877 C 1090.24 4.34892 0.4677 0
M  V30 11878 C 1089.3 5.06836 1.41435 0
M  V30 11879 O 1088.33 5.61735 0.918818 0
M  V30 11880 N 1089.53 5.11336 2.74801 0
M  V30 11881 H 1092.3 2.91885 -0.679945 0
M  V30 11882 H 1089.86 1.53739 -0.507543 0
M  V30 11883 H 1091.85 3.65264 1.74255 0
M  V30 11884 H 1090.42 2.59031 1.7499 0
M  V30 11885 H 1089.64 3.92679 -0.34593 0
M  V30 11886 H 1090.93 5.08796 0.0210237 0
M  V30 11887 H 1090.33 4.68124 3.1761 0
M  V30 11888 H 1088.88 5.60013 3.33509 0
M  V30 11889 N 1092.32 0.406567 1.52266 0
M  V30 11890 C 1093.28 -0.408251 2.25535 0
M  V30 11891 C 1094.28 -0.975795 1.27808 0
M  V30 11892 O 1095.47 -0.855077 1.5177 0
M  V30 11893 C 1092.6 -1.57443 3.02365 0
M  V30 11894 H 1093.79 0.233459 2.9899 0
M  V30 11895 H 1091.35 0.159032 1.55489 0
M  V30 11896 H 1092.08 -2.25308 2.33252 0
M  V30 11897 H 1091.87 -1.17399 3.74112 0
M  V30 11898 H 1093.36 -2.15088 3.57948 0
M  V30 11899 N 1093.79 -1.57004 0.136909 0
M  V30 11900 C 1094.7 -2.19807 -0.819887 0
M  V30 11901 C 1095.72 -1.17939 -1.27932 0
M  V30 11902 O 1096.9 -1.50478 -1.3386 0
M  V30 11903 C 1093.96 -2.79935 -2.04542 0
M  V30 11904 C 1093.02 -3.96897 -1.6362 0
M  V30 11905 C 1092.26 -4.54148 -2.80331 0
M  V30 11906 O 1092.48 -4.10282 -3.96264 0
M  V30 11907 O 1091.41 -5.44565 -2.56384 0
M  V30 11908 H 1095.24 -3.02058 -0.315337 0
M  V30 11909 H 1092.82 -1.49131 -0.0896151 0
M  V30 11910 H 1094.71 -3.18191 -2.76283 0
M  V30 11911 H 1093.38 -2.00703 -2.53969 0
M  V30 11912 H 1092.29 -3.63376 -0.889316 0
M  V30 11913 H 1093.62 -4.77618 -1.18918 0
M  V30 11914 N 1095.27 0.136881 -1.57004 0
M  V30 11915 C 1096.24 1.15267 -1.98106 0
M  V30 11916 C 1097.24 1.35305 -0.868856 0
M  V30 11917 O 1098.43 1.32126 -1.13527 0
M  V30 11918 C 1095.56 2.51092 -2.30577 0
M  V30 11919 H 1096.75 0.799821 -2.89038 0
M  V30 11920 H 1094.3 0.380576 -1.51596 0
M  V30 11921 H 1095.04 2.9133 -1.42469 0
M  V30 11922 H 1094.82 2.37906 -3.11678 0
M  V30 11923 H 1096.31 3.24232 -2.63179 0
M  V30 11924 N 1096.75 1.52266 0.40654 0
M  V30 11925 C 1097.98 1.70304 1.17491 0
M  V30 11926 C 1098.39 0.413656 1.84213 0
M  V30 11927 O 1097.75 -0.610524 1.71985 0
M  V30 11928 C 1097.8 2.84045 2.23609 0
M  V30 11929 O 1097.52 4.0799 1.5961 0
M  V30 11930 C 1099.02 3.13614 3.13306 0
M  V30 11931 H 1096.24 0.570669 0.352955 0
M  V30 11932 H 1098.79 1.98836 0.477967 0
M  V30 11933 H 1096.94 2.58025 2.88967 0
M  V30 11934 H 1097.36 4.7139 2.29983 0
M  V30 11935 H 1098.83 3.96707 3.83833 0
M  V30 11936 H 1099.31 2.27272 3.75824 0
M  V30 11937 H 1099.91 3.41409 2.53614 0
M  V30 11938 N 1098.23 -0.663929 1.42933 0
M  V30 11939 C 1099.18 -1.77717 1.47259 0
M  V30 11940 C 1100.15 -1.62922 0.323387 0
M  V30 11941 O 1101.33 -1.83319 0.529021 0
M  V30 11942 C 1098.47 -3.15814 1.39124 0
M  V30 11943 C 1097.58 -3.4182 2.64165 0
M  V30 11944 C 1096.72 -4.69705 2.48094 0
M  V30 11945 C 1095.76 -4.88781 3.68456 0
M  V30 11946 N 1094.89 -6.07915 3.51261 0
M  V30 11947 H 1099.73 -1.73355 2.42388 0
M  V30 11948 H 1097.27 -0.846121 1.2033 0
M  V30 11949 H 1099.23 -3.95633 1.32403 0
M  V30 11950 H 1097.86 -3.19274 0.475829 0
M  V30 11951 H 1096.91 -2.56176 2.81208 0
M  V30 11952 H 1098.22 -3.51805 3.53602 0
M  V30 11953 H 1097.38 -5.57632 2.39021 0
M  V30 11954 H 1096.12 -4.62022 1.56164 0
M  V30 11955 H 1095.12 -3.99292 3.7795 0
M  V30 11956 H 1096.35 -4.98301 4.61381 0
M  V30 11957 H 1094.29 -6.01384 2.62057 0
M  V30 11958 H 1094.21 -6.1881 4.34293 0
M  V30 11959 H 1095.48 -6.98492 3.4602 0
M  V30 11960 N 1099.71 -1.29285 -0.901281 0
M  V30 11961 C 1100.67 -1.14283 -1.98676 0
M  V30 11962 C 1101.67 -0.0787641 -1.60607 0
M  V30 11963 O 1102.86 -0.325574 -1.71131 0
M  V30 11964 C 1099.99 -0.747279 -3.32609 0
M  V30 11965 H 1101.18 -2.10701 -2.13413 0
M  V30 11966 H 1098.74 -1.12449 -1.08558 0
M  V30 11967 H 1099.47 0.217111 -3.23572 0
M  V30 11968 H 1099.26 -1.51608 -3.61604 0
M  V30 11969 H 1100.75 -0.665322 -4.12266 0
M  V30 11970 N 1101.18 1.11143 -1.11736 0
M  V30 11971 C 1102.43 1.82311 -0.862875 0
M  V30 11972 C 1102.75 1.85735 0.613326 0
M  V30 11973 O 1103.95 2.53034 0.984168 0
M  V30 11974 C 1102.41 3.27427 -1.49396 0
M  V30 11975 C 1102.02 3.32323 -3.00443 0
M  V30 11976 C 1103.76 4.03474 -1.31944 0
M  V30 11977 C 1101.67 4.71855 -3.56521 0
M  V30 11978 H 1100.6 0.683124 -0.31915 0
M  V30 11979 H 1103.25 1.25045 -1.34298 0
M  V30 11980 H 1101.63 3.84644 -0.941528 0
M  V30 11981 H 1102.8 2.84971 -3.62117 0
M  V30 11982 H 1101.12 2.69758 -3.17206 0
M  V30 11983 H 1103.72 5.06528 -1.71271 0
M  V30 11984 H 1104.06 4.15473 -0.262339 0
M  V30 11985 H 1104.59 3.52652 -1.84069 0
M  V30 11986 H 1101.33 4.65054 -4.61958 0
M  V30 11987 H 1100.85 5.19604 -2.99619 0
M  V30 11988 H 1102.53 5.40816 -3.55144 0
M  V30 11989 N 1102.66 0.908147 1.28804 0
M  V30 11990 C 1103.91 0.534332 1.94494 0
M  V30 11991 C 1104.22 -0.92552 1.72318 0
M  V30 11992 O 1105.43 -1.40724 2.32183 0
M  V30 11993 C 1103.89 0.904748 3.48342 0
M  V30 11994 C 1103.49 2.38394 3.79305 0
M  V30 11995 C 1105.24 0.601249 4.2022 0
M  V30 11996 C 1103.15 2.69478 5.26437 0
M  V30 11997 H 1102.08 0.196107 0.728051 0
M  V30 11998 H 1104.73 1.1063 1.46401 0
M  V30 11999 H 1103.11 0.261624 3.95135 0
M  V30 12000 H 1104.28 3.07333 3.43341 0
M  V30 12001 H 1102.6 2.65733 3.20586 0
M  V30 12002 H 1105.19 0.810225 5.28526 0
M  V30 12003 H 1105.54 -0.460669 4.13743 0
M  V30 12004 H 1106.07 1.20259 3.79187 0
M  V30 12005 H 1102.81 3.74501 5.37986 0
M  V30 12006 H 1102.33 2.05171 5.63618 0
M  V30 12007 H 1104.01 2.56187 5.94119 0
M  V30 12008 N 1104.14 -1.42577 0.671525 0
M  V30 12009 C 1105.09 -2.32591 -0.0205354 0
M  V30 12010 C 1106.08 -1.4964 -0.793993 0
M  V30 12011 O 1107.29 -1.65733 -0.702327 0
M  V30 12012 H 1103.66 -0.75157 -0.0254344 0
M  V30 12013 H 1105.63 -2.88662 0.756082 0
M  V30 12014 C 1104.38 -3.34175 -0.960316 0
M  V30 12015 H 1103.71 -3.98041 -0.374577 0
M  V30 12016 H 1105.15 -3.99752 -1.4133 0
M  V30 12017 C 1103.61 -2.66184 -2.06513 0
M  V30 12018 O 1104.14 -2.49125 -3.15119 0
M  V30 12019 N 1102.34 -2.25261 -1.83591 0
M  V30 12020 H 1101.89 -2.39336 -0.952689 0
M  V30 12021 H 1101.85 -1.80101 -2.57703 0
M  V30 12022 N 1105.62 -0.414636 -1.52048 0
M  V30 12023 C 1106.85 0.158456 -2.05991 0
M  V30 12024 C 1107.26 1.38947 -1.28415 0
M  V30 12025 O 1106.6 1.80698 -0.330728 0
M  V30 12026 C 1106.66 0.568392 -3.54978 0
M  V30 12027 C 1106.33 -0.552654 -4.53646 0
M  V30 12028 C 1107.32 -1.41791 -5.00191 0
M  V30 12029 C 1105.01 -0.726917 -4.97012 0
M  V30 12030 C 1107 -2.44234 -5.88752 0
M  V30 12031 C 1104.69 -1.75464 -5.85368 0
M  V30 12032 C 1105.69 -2.61075 -6.31133 0
M  V30 12033 O 1105.37 -3.62087 -7.17738 0
M  V30 12034 H 1105.11 0.0214746 -0.675659 0
M  V30 12035 H 1107.66 -0.585825 -1.96869 0
M  V30 12036 H 1105.89 1.36504 -3.61806 0
M  V30 12037 H 1107.58 1.07003 -3.91542 0
M  V30 12038 H 1108.35 -1.29471 -4.67399 0
M  V30 12039 H 1104.22 -0.0701964 -4.60947 0
M  V30 12040 H 1107.77 -3.1109 -6.24395 0
M  V30 12041 H 1103.67 -1.87813 -6.17573 0
M  V30 12042 H 1104.43 -3.58396 -7.35863 0
M  V30 12043 N 1107.1 1.56929 -0.145233 0
M  V30 12044 C 1108.03 2.13796 0.826078 0
M  V30 12045 C 1109.04 1.08697 1.21197 0
M  V30 12046 O 1110.23 1.3598 1.15635 0
M  V30 12047 C 1107.33 2.6443 2.11967 0
M  V30 12048 C 1106.5 3.9391 1.90142 0
M  V30 12049 C 1105.56 4.29872 3.03474 0
M  V30 12050 O 1104.59 4.98227 2.75242 0
M  V30 12051 N 1105.79 3.8931 4.30602 0
M  V30 12052 H 1108.56 2.97764 0.340073 0
M  V30 12053 H 1106.12 1.61854 0.0383928 0
M  V30 12054 H 1108.11 2.85502 2.86829 0
M  V30 12055 H 1106.68 1.85196 2.51836 0
M  V30 12056 H 1105.9 3.81481 0.993268 0
M  V30 12057 H 1107.19 4.78523 1.72896 0
M  V30 12058 H 1106.58 3.34229 4.56407 0
M  V30 12059 H 1105.14 4.15438 5.0225 0
M  V30 12060 N 1108.58 -0.128553 1.57075 0
M  V30 12061 C 1109.81 -0.851214 1.8825 0
M  V30 12062 C 1110.21 -1.74402 0.733531 0
M  V30 12063 O 1109.56 -1.81149 -0.305108 0
M  V30 12064 C 1109.62 -1.74451 3.14336 0
M  V30 12065 C 1109.28 -1.02699 4.45311 0
M  V30 12066 C 1110.28 -0.37224 5.18566 0
M  V30 12067 C 1107.96 -1.01101 4.9202 0
M  V30 12068 C 1109.96 0.2889 6.36745 0
M  V30 12069 C 1107.65 -0.346063 6.10119 0
M  V30 12070 C 1108.64 0.302744 6.82329 0
M  V30 12071 O 1108.33 0.9571 7.98182 0
M  V30 12072 H 1108.06 -0.250529 0.627863 0
M  V30 12073 H 1110.62 -0.120418 2.05047 0
M  V30 12074 H 1108.85 -2.51671 2.93596 0
M  V30 12075 H 1110.54 -2.34075 3.31608 0
M  V30 12076 H 1111.3 -0.376271 4.83538 0
M  V30 12077 H 1107.18 -1.50543 4.35727 0
M  V30 12078 H 1110.73 0.795901 6.93045 0
M  V30 12079 H 1106.62 -0.339762 6.44605 0
M  V30 12080 H 1107.39 0.860616 8.13963 0
M  V30 12081 N 1110.05 -1.5248 -0.398459 0
M  V30 12082 C 1111 -1.77211 -1.50662 0
M  V30 12083 C 1112 -0.639638 -1.5686 0
M  V30 12084 O 1113.2 -0.821917 -1.60139 0
M  V30 12085 H 1109.58 -0.56057 -0.501264 0
M  V30 12086 H 1111.55 -2.70028 -1.26993 0
M  V30 12087 C 1110.3 -1.94944 -2.8791 0
M  V30 12088 H 1109.62 -2.8151 -2.83888 0
M  V30 12089 H 1111.06 -2.16243 -3.64712 0
M  V30 12090 C 1109.52 -0.719402 -3.29129 0
M  V30 12091 O 1110.05 0.107671 -4.01556 0
M  V30 12092 N 1108.25 -0.552228 -2.85305 0
M  V30 12093 H 1107.8 -1.22638 -2.26534 0
M  V30 12094 H 1107.76 0.269447 -3.13243 0
M  V30 12095 N 1111.53 0.65634 -1.43283 0
M  V30 12096 C 1112.46 1.78184 -1.44164 0
M  V30 12097 C 1113.48 1.59249 -0.338177 0
M  V30 12098 O 1114.67 1.68027 -0.60242 0
M  V30 12099 C 1111.77 3.15566 -1.23577 0
M  V30 12100 C 1110.94 3.61187 -2.46704 0
M  V30 12101 C 1110 4.77361 -2.21388 0
M  V30 12102 O 1109.02 4.8696 -2.94718 0
M  V30 12103 N 1110.23 5.67351 -1.22855 0
M  V30 12104 H 1112.99 1.77907 -2.41183 0
M  V30 12105 H 1110.55 0.840076 -1.38399 0
M  V30 12106 H 1112.54 3.90968 -1.04529 0
M  V30 12107 H 1111.11 3.10633 -0.350155 0
M  V30 12108 H 1110.33 2.76263 -2.81198 0
M  V30 12109 H 1111.62 3.88413 -3.28652 0
M  V30 12110 H 1111.02 5.62265 -0.622417 0
M  V30 12111 H 1109.58 6.42487 -1.09791 0
M  V30 12112 N 1113.01 1.29761 0.894412 0
M  V30 12113 C 1114.24 1.20765 1.67629 0
M  V30 12114 C 1114.65 -0.233434 1.87754 0
M  V30 12115 O 1113.99 -1.16747 1.4183 0
M  V30 12116 C 1114.05 1.85542 3.07919 0
M  V30 12117 C 1113.72 3.34852 3.11004 0
M  V30 12118 C 1114.71 4.30994 2.90758 0
M  V30 12119 C 1112.4 3.76141 3.32901 0
M  V30 12120 C 1114.39 5.664 2.92352 0
M  V30 12121 C 1112.08 5.11667 3.34126 0
M  V30 12122 C 1113.08 6.06607 3.13874 0
M  V30 12123 O 1112.77 7.39659 3.14897 0
M  V30 12124 H 1112.5 0.419418 0.530155 0
M  V30 12125 H 1115.05 1.71754 1.12648 0
M  V30 12126 H 1113.28 1.29071 3.64524 0
M  V30 12127 H 1114.97 1.70795 3.68217 0
M  V30 12128 H 1115.74 4.00427 2.73648 0
M  V30 12129 H 1111.62 3.02694 3.47703 0
M  V30 12130 H 1115.16 6.40479 2.76464 0
M  V30 12131 H 1111.06 5.41877 3.50769 0
M  V30 12132 H 1111.82 7.4853 3.31127 0
M  V30 12133 N 1114.49 -1.10549 1.12324 0
M  V30 12134 C 1115.72 -1.8627 0.900618 0
M  V30 12135 C 1116.13 -1.80609 -0.550069 0
M  V30 12136 O 1115.49 -1.19396 -1.38025 0
M  V30 12137 C 1115.54 -3.34716 1.36556 0
M  V30 12138 O 1115.26 -3.40279 2.75938 0
M  V30 12139 C 1116.76 -4.27315 1.17969 0
M  V30 12140 H 1113.98 -0.588741 0.321908 0
M  V30 12141 H 1116.52 -1.39759 1.49291 0
M  V30 12142 H 1114.68 -3.78697 0.81652 0
M  V30 12143 H 1115.09 -4.32781 2.96312 0
M  V30 12144 H 1116.57 -5.29677 1.55391 0
M  V30 12145 H 1117.04 -4.39036 0.120158 0
M  V30 12146 H 1117.65 -3.89137 1.71617 0
M  V30 12147 N 1115.97 -0.914965 -1.28321 0
M  V30 12148 C 1116.88 -0.409424 -2.31 0
M  V30 12149 C 1117.89 0.503526 -1.66555 0
M  V30 12150 O 1119.07 0.38942 -1.97599 0
M  V30 12151 C 1116.13 0.34123 -3.45017 0
M  V30 12152 C 1115.19 -0.605087 -4.25014 0
M  V30 12153 C 1114.43 0.109837 -5.33587 0
M  V30 12154 O 1114.65 1.33136 -5.54645 0
M  V30 12155 O 1113.58 -0.555474 -5.99331 0
M  V30 12156 H 1117.41 -1.26167 -2.76253 0
M  V30 12157 H 1114.99 -0.679831 -1.33036 0
M  V30 12158 H 1116.88 0.765132 -4.14396 0
M  V30 12159 H 1115.55 1.16929 -3.01843 0
M  V30 12160 H 1114.46 -1.07841 -3.58219 0
M  V30 12161 H 1115.79 -1.39999 -4.7187 0
M  V30 12162 N 1117.44 1.42219 -0.679077 0
M  V30 12163 C 1118.35 2.346 -0.00345919 0
M  V30 12164 C 1119.37 1.55327 0.784181 0
M  V30 12165 O 1120.55 1.87878 0.725524 0
M  V30 12166 C 1117.61 3.33905 0.933194 0
M  V30 12167 C 1116.67 4.29073 0.139607 0
M  V30 12168 C 1115.9 5.23634 1.03165 0
M  V30 12169 O 1116.13 5.23234 2.27119 0
M  V30 12170 O 1115.06 5.99901 0.490159 0
M  V30 12171 H 1118.89 2.9392 -0.764525 0
M  V30 12172 H 1116.47 1.42794 -0.439329 0
M  V30 12173 H 1118.35 3.949 1.47077 0
M  V30 12174 H 1117.03 2.77052 1.67404 0
M  V30 12175 H 1115.94 3.71478 -0.442177 0
M  V30 12176 H 1117.27 4.88979 -0.562214 0
M  V30 12177 N 1118.92 0.422693 1.51826 0
M  V30 12178 C 1119.83 -0.40261 2.31119 0
M  V30 12179 C 1120.85 -1.04117 1.39412 0
M  V30 12180 O 1122.02 -1.03973 1.72486 0
M  V30 12181 C 1119.09 -1.49699 3.12716 0
M  V30 12182 C 1118.15 -0.880088 4.20182 0
M  V30 12183 C 1117.38 -1.92232 4.97878 0
M  V30 12184 O 1117.61 -3.14246 4.76031 0
M  V30 12185 O 1116.54 -1.521 5.82365 0
M  V30 12186 H 1120.37 0.244308 3.02716 0
M  V30 12187 H 1117.95 0.185569 1.48243 0
M  V30 12188 H 1119.83 -2.13202 3.63487 0
M  V30 12189 H 1118.51 -2.12826 2.43899 0
M  V30 12190 H 1117.41 -0.207404 3.73525 0
M  V30 12191 H 1118.75 -0.292535 4.9133 0
M  V30 12192 N 1120.4 -1.5685 0.153553 0
M  V30 12193 C 1121.35 -2.1709 -0.783626 0
M  V30 12194 C 1122.32 -1.10567 -1.23952 0
M  V30 12195 O 1123.5 -1.38638 -1.31088 0
M  V30 12196 C 1120.64 -2.80183 -2.01473 0
M  V30 12197 C 1119.75 -4.01117 -1.60403 0
M  V30 12198 C 1118.89 -4.5219 -2.78743 0
M  V30 12199 C 1117.93 -5.65574 -2.34079 0
M  V30 12200 N 1117.07 -6.11235 -3.4545 0
M  V30 12201 H 1121.91 -2.96836 -0.263127 0
M  V30 12202 H 1119.44 -1.46625 -0.11816 0
M  V30 12203 H 1121.4 -3.14912 -2.73654 0
M  V30 12204 H 1120.03 -2.03071 -2.50923 0
M  V30 12205 H 1119.08 -3.72325 -0.779631 0
M  V30 12206 H 1120.39 -4.83243 -1.23605 0
M  V30 12207 H 1119.55 -4.89008 -3.59105 0
M  V30 12208 H 1118.29 -3.69085 -3.18791 0
M  V30 12209 H 1117.29 -5.28326 -1.52158 0
M  V30 12210 H 1118.52 -6.50468 -1.95109 0
M  V30 12211 H 1116.46 -5.31064 -3.85106 0
M  V30 12212 H 1116.38 -6.88304 -3.12687 0
M  V30 12213 H 1117.65 -6.527 -4.26149 0
M  V30 12214 N 1121.88 0.120221 -1.57141 0
M  V30 12215 C 1122.83 1.16654 -2.01233 0
M  V30 12216 C 1123.82 1.42943 -0.909053 0
M  V30 12217 O 1125.03 1.4292 -1.09426 0
M  V30 12218 H 1121.4 0.393289 -0.640958 0
M  V30 12219 H 1123.37 0.768156 -2.88343 0
M  V30 12220 C 1122.12 2.4854 -2.43152 0
M  V30 12221 H 1121.44 2.29149 -3.27614 0
M  V30 12222 H 1122.88 3.20315 -2.77802 0
M  V30 12223 C 1121.34 3.1103 -1.29468 0
M  V30 12224 O 1121.87 3.97042 -0.609982 0
M  V30 12225 N 1120.08 2.70888 -1.05205 0
M  V30 12226 H 1119.63 2.01039 -1.61062 0
M  V30 12227 H 1119.58 3.13028 -0.293347 0
M  V30 12228 N 1123.36 1.52689 0.390367 0
M  V30 12229 C 1124.3 1.78007 1.4972 0
M  V30 12230 C 1125.3 0.647948 1.56518 0
M  V30 12231 O 1126.5 0.830398 1.59701 0
M  V30 12232 H 1122.88 0.56322 0.498284 0
M  V30 12233 H 1124.85 2.70698 1.25559 0
M  V30 12234 C 1123.6 1.96469 2.86872 0
M  V30 12235 H 1122.92 2.83012 2.82391 0
M  V30 12236 H 1124.36 2.18174 3.6356 0
M  V30 12237 C 1122.82 0.736847 3.28743 0
M  V30 12238 O 1123.35 -0.0863743 4.01607 0
M  V30 12239 N 1121.56 0.56735 2.85008 0
M  V30 12240 H 1121.1 1.23838 2.2588 0
M  V30 12241 H 1121.06 -0.252831 3.13382 0
M  V30 12242 N 1124.83 -0.648732 1.43629 0
M  V30 12243 C 1126.08 -1.40446 1.44768 0
M  V30 12244 C 1126.4 -1.95447 0.0773445 0
M  V30 12245 O 1127.6 -2.71479 -0.0337942 0
M  V30 12246 C 1126.06 -2.54194 2.54781 0
M  V30 12247 C 1125.67 -2.05781 3.97942 0
M  V30 12248 C 1127.41 -3.31529 2.65121 0
M  V30 12249 C 1125.32 -3.16767 4.99412 0
M  V30 12250 H 1124.25 -0.527717 0.538545 0
M  V30 12251 H 1126.9 -0.699756 1.69634 0
M  V30 12252 H 1125.28 -3.27156 2.23125 0
M  V30 12253 H 1126.45 -1.398 4.39081 0
M  V30 12254 H 1124.77 -1.41312 3.91688 0
M  V30 12255 H 1127.37 -4.14233 3.38105 0
M  V30 12256 H 1127.71 -3.79855 1.70341 0
M  V30 12257 H 1128.24 -2.65649 2.961 0
M  V30 12258 H 1124.98 -2.73404 5.9576 0
M  V30 12259 H 1124.5 -3.81445 4.62882 0
M  V30 12260 H 1126.18 -3.81827 5.22319 0
M  V30 12261 N 1126.31 -1.30234 -0.887518 0
M  V30 12262 C 1127.26 -1.16302 -2.01436 0
M  V30 12263 C 1128.25 -0.0755422 -1.69231 0
M  V30 12264 O 1129.46 -0.236213 -1.78443 0
M  V30 12265 H 1125.84 -0.35961 -0.660443 0
M  V30 12266 H 1127.81 -2.11677 -2.10322 0
M  V30 12267 C 1126.56 -0.869009 -3.36665 0
M  V30 12268 H 1125.88 -1.69787 -3.61956 0
M  V30 12269 H 1127.32 -0.811621 -4.16159 0
M  V30 12270 C 1125.78 0.428021 -3.3417 0
M  V30 12271 O 1126.31 1.45033 -3.74604 0
M  V30 12272 N 1124.51 0.438264 -2.87276 0
M  V30 12273 H 1124.06 -0.394142 -2.54567 0
M  V30 12274 H 1124.02 1.30604 -2.85989 0
M  V30 12275 N 1127.79 1.09952 -1.12909 0
M  V30 12276 C 1129.04 1.82016 -0.887482 0
M  V30 12277 C 1129.37 1.85445 0.586546 0
M  V30 12278 O 1128.62 1.31446 1.44984 0
M  V30 12279 C 1128.92 3.28252 -1.41369 0
M  V30 12280 C 1128.59 3.44965 -2.90362 0
M  V30 12281 C 1127.25 3.49233 -3.31043 0
M  V30 12282 C 1129.6 3.49947 -3.86247 0
M  V30 12283 C 1126.93 3.56057 -4.66305 0
M  V30 12284 C 1129.28 3.58305 -5.21345 0
M  V30 12285 C 1127.94 3.6084 -5.61561 0
M  V30 12286 H 1127.21 0.666046 -0.324753 0
M  V30 12287 H 1129.86 1.29568 -1.41012 0
M  V30 12288 H 1128.17 3.83301 -0.81163 0
M  V30 12289 H 1129.86 3.82533 -1.20289 0
M  V30 12290 H 1126.45 3.42323 -2.57901 0
M  V30 12291 H 1130.64 3.45895 -3.55908 0
M  V30 12292 H 1125.89 3.56305 -4.96847 0
M  V30 12293 H 1130.07 3.61104 -5.95463 0
M  V30 12294 H 1127.69 3.6588 -6.6636 0
M  V30 12295 N 1129.27 0.921757 1.27833 0
M  V30 12296 C 1130.22 0.406628 2.29018 0
M  V30 12297 C 1131.21 -0.505914 1.61669 0
M  V30 12298 O 1132.42 -0.386273 1.75807 0
M  V30 12299 H 1128.79 0.112914 0.743475 0
M  V30 12300 H 1130.76 1.27295 2.69886 0
M  V30 12301 C 1129.51 -0.330783 3.46123 0
M  V30 12302 H 1128.83 0.362207 3.98156 0
M  V30 12303 H 1130.27 -0.655738 4.18899 0
M  V30 12304 C 1128.73 -1.54161 2.9956 0
M  V30 12305 O 1129.26 -2.64052 3.0272 0
M  V30 12306 N 1127.47 -1.39137 2.55126 0
M  V30 12307 H 1127.02 -0.497319 2.52754 0
M  V30 12308 H 1126.97 -2.20278 2.24333 0
M  V30 12309 N 1130.75 -1.41857 0.686609 0
M  V30 12310 C 1132 -2.00594 0.21095 0
M  V30 12311 C 1132.31 -1.54974 -1.19341 0
M  V30 12312 O 1133.51 -2.0621 -1.76607 0
M  V30 12313 C 1131.97 -3.58418 0.326261 0
M  V30 12314 C 1131.58 -4.13022 1.73542 0
M  V30 12315 C 1133.32 -4.24404 -0.0900816 0
M  V30 12316 C 1131.23 -5.6325 1.80287 0
M  V30 12317 H 1130.16 -0.75025 0.0751077 0
M  V30 12318 H 1132.81 -1.62442 0.853508 0
M  V30 12319 H 1131.19 -3.9413 -0.384394 0
M  V30 12320 H 1132.37 -3.88747 2.47411 0
M  V30 12321 H 1130.68 -3.5953 2.10065 0
M  V30 12322 H 1133.28 -5.34666 -0.060004 0
M  V30 12323 H 1133.62 -4.00745 -1.12733 0
M  V30 12324 H 1134.15 -3.93695 0.569979 0
M  V30 12325 H 1130.89 -5.91724 2.82034 0
M  V30 12326 H 1130.41 -5.89479 1.1079 0
M  V30 12327 H 1132.09 -6.2787 1.56167 0
M  V30 12328 N 1132.22 -0.430739 -1.51599 0
M  V30 12329 C 1133.5 0.197543 -1.946 0
M  V30 12330 C 1133.88 1.6069 -1.36901 0
M  V30 12331 O 1133.23 2.21697 -0.553422 0
M  V30 12332 C 1133.44 0.181976 -3.48525 0
M  V30 12333 C 1134.79 0.390783 -4.22798 0
M  V30 12334 O 1135.81 0.260384 -3.55247 0
M  V30 12335 O 1134.67 0.649701 -5.42624 0
M  V30 12336 H 1131.76 0.133524 -0.81615 0
M  V30 12337 H 1134.31 -0.488243 -1.62525 0
M  V30 12338 H 1133.08 -0.803584 -3.8296 0
M  V30 12339 H 1132.71 0.910952 -3.87024 0
M  V30 12340 N 1133.7 1.56767 -0.161869 0
M  V30 12341 C 1134.98 1.88245 0.531352 0
M  V30 12342 C 1135.36 1.07025 1.81958 0
M  V30 12343 O 1134.71 0.161385 2.27929 0
M  V30 12344 C 1134.92 3.40117 0.782416 0
M  V30 12345 C 1136.27 4.09655 1.11661 0
M  V30 12346 O 1137.29 3.4538 0.871274 0
M  V30 12347 O 1136.15 5.23192 1.57901 0
M  V30 12348 H 1133.24 0.780725 0.272759 0
M  V30 12349 H 1135.79 1.68522 -0.199597 0
M  V30 12350 H 1134.56 3.91088 -0.128677 0
M  V30 12351 H 1134.18 3.65418 1.56702 0
M  V30 12352 N 1135.18 -0.111886 1.57202 0
M  V30 12353 C 1136.11 -1.13796 2.03894 0
M  V30 12354 C 1137.09 -1.4277 0.924696 0
M  V30 12355 O 1138.28 -1.53089 1.19488 0
M  V30 12356 C 1135.41 -2.46229 2.44925 0
M  V30 12357 C 1134.36 -2.31702 3.59859 0
M  V30 12358 C 1133.69 -3.69161 3.86813 0
M  V30 12359 C 1134.99 -1.77158 4.91337 0
M  V30 12360 H 1136.68 -0.749581 2.89865 0
M  V30 12361 H 1134.23 -0.359126 1.3945 0
M  V30 12362 H 1136.18 -3.18267 2.76195 0
M  V30 12363 H 1134.9 -2.86971 1.55933 0
M  V30 12364 H 1133.56 -1.62112 3.28809 0
M  V30 12365 H 1133.21 -4.07401 2.95015 0
M  V30 12366 H 1132.91 -3.60292 4.6418 0
M  V30 12367 H 1134.43 -4.42693 4.20542 0
M  V30 12368 H 1135.85 -2.3902 5.21097 0
M  V30 12369 H 1134.25 -1.79091 5.72753 0
M  V30 12370 H 1135.32 -0.729675 4.79379 0
M  V30 12371 N 1136.66 -1.52894 -0.382264 0
M  V30 12372 C 1137.88 -1.72453 -1.15216 0
M  V30 12373 C 1138.31 -0.444925 -1.82762 0
M  V30 12374 O 1137.67 0.599825 -1.7109 0
M  V30 12375 C 1137.71 -2.87939 -2.17079 0
M  V30 12376 O 1136.82 -2.55383 -3.23811 0
M  V30 12377 H 1136.16 -0.57324 -0.335099 0
M  V30 12378 H 1138.69 -1.99713 -0.444495 0
M  V30 12379 H 1138.7 -3.13628 -2.60963 0
M  V30 12380 H 1137.37 -3.80765 -1.67305 0
M  V30 12381 H 1135.95 -2.40457 -2.85018 0
M  V30 12382 N 1138.14 0.641106 -1.43971 0
M  V30 12383 C 1139.36 1.43324 -1.4991 0
M  V30 12384 C 1139.79 1.87705 -0.121908 0
M  V30 12385 O 1139.15 1.58127 0.886875 0
M  V30 12386 C 1139.19 2.63637 -2.46025 0
M  V30 12387 O 1138.3 3.63123 -1.95488 0
M  V30 12388 H 1137.64 0.429252 -0.506595 0
M  V30 12389 H 1140.17 0.783427 -1.89007 0
M  V30 12390 H 1140.18 3.11304 -2.63731 0
M  V30 12391 H 1138.85 2.30678 -3.46064 0
M  V30 12392 H 1137.43 3.22332 -1.87501 0
M  V30 12393 N 1139.62 1.30703 0.880598 0
M  V30 12394 C 1140.56 1.17455 1.98678 0
M  V30 12395 C 1141.53 0.0629569 1.65981 0
M  V30 12396 O 1142.72 0.233926 1.89361 0
M  V30 12397 C 1139.86 0.876882 3.33774 0
M  V30 12398 C 1138.97 2.07078 3.79134 0
M  V30 12399 C 1138.11 1.71082 5.02896 0
M  V30 12400 C 1137.14 2.86942 5.40676 0
M  V30 12401 N 1136.28 2.51212 6.55619 0
M  V30 12402 H 1141.12 2.12086 2.09341 0
M  V30 12403 H 1138.66 1.05514 1.02495 0
M  V30 12404 H 1140.62 0.684899 4.1154 0
M  V30 12405 H 1139.25 -0.0325633 3.22784 0
M  V30 12406 H 1138.3 2.37388 2.97239 0
M  V30 12407 H 1139.61 2.9383 4.0307 0
M  V30 12408 H 1138.76 1.48284 5.883 0
M  V30 12409 H 1137.5 0.815064 4.80841 0
M  V30 12410 H 1136.51 3.10401 4.53797 0
M  V30 12411 H 1137.73 3.77211 5.64703 0
M  V30 12412 H 1135.68 1.64147 6.35131 0
M  V30 12413 H 1135.6 3.31495 6.79446 0
M  V30 12414 H 1136.86 2.31781 7.44243 0
M  V30 12415 N 1141.09 -1.09351 1.1349 0
M  V30 12416 C 1142.02 -2.18037 0.835588 0
M  V30 12417 C 1143 -1.68856 -0.205373 0
M  V30 12418 O 1144.19 -1.94094 -0.0641357 0
M  V30 12419 C 1141.32 -3.45987 0.301661 0
M  V30 12420 C 1140.27 -4.08507 1.27696 0
M  V30 12421 C 1139.6 -5.31292 0.602758 0
M  V30 12422 C 1140.9 -4.50916 2.63575 0
M  V30 12423 H 1142.59 -2.43332 1.74441 0
M  V30 12424 H 1140.14 -1.1695 0.840166 0
M  V30 12425 H 1142.09 -4.21324 0.079928 0
M  V30 12426 H 1140.82 -3.20217 -0.642552 0
M  V30 12427 H 1139.48 -3.3519 1.4847 0
M  V30 12428 H 1139.12 -5.01802 -0.346953 0
M  V30 12429 H 1138.82 -5.74075 1.25345 0
M  V30 12430 H 1140.35 -6.09351 0.390325 0
M  V30 12431 H 1141.76 -5.17474 2.46765 0
M  V30 12432 H 1140.16 -5.04586 3.24827 0
M  V30 12433 H 1141.23 -3.63279 3.2118 0
M  V30 12434 N 1142.57 -0.928524 -1.27343 0
M  V30 12435 C 1143.52 -0.418768 -2.28799 0
M  V30 12436 C 1144.51 0.497334 -1.61935 0
M  V30 12437 O 1145.72 0.376945 -1.76009 0
M  V30 12438 H 1142.09 -0.116855 -0.742865 0
M  V30 12439 H 1144.07 -1.28725 -2.69207 0
M  V30 12440 C 1142.81 0.312422 -3.46294 0
M  V30 12441 H 1142.14 -0.383317 -3.97958 0
M  V30 12442 H 1143.58 0.633514 -4.19241 0
M  V30 12443 C 1142.04 1.5257 -3.00373 0
M  V30 12444 O 1142.57 2.62443 -3.04116 0
M  V30 12445 N 1140.77 1.37782 -2.5586 0
M  V30 12446 H 1140.32 0.483908 -2.53014 0
M  V30 12447 H 1140.28 2.19085 -2.25498 0
M  V30 12448 N 1144.05 1.41491 -0.694123 0
M  V30 12449 C 1144.96 2.34583 -0.0283414 0
M  V30 12450 C 1145.98 1.5615 0.767662 0
M  V30 12451 O 1147.15 1.88637 0.705556 0
M  V30 12452 C 1144.22 3.34876 0.897726 0
M  V30 12453 C 1143.28 4.29197 0.0940905 0
M  V30 12454 C 1142.51 5.24699 0.976051 0
M  V30 12455 O 1142.73 5.25613 2.21556 0
M  V30 12456 O 1141.67 6.00387 0.426503 0
M  V30 12457 H 1145.49 2.93092 -0.795656 0
M  V30 12458 H 1143.08 1.4232 -0.45445 0
M  V30 12459 H 1144.96 3.96438 1.4288 0
M  V30 12460 H 1143.64 2.78812 1.64456 0
M  V30 12461 H 1142.54 3.70988 -0.481552 0
M  V30 12462 H 1143.88 4.88355 -0.614045 0
M  V30 12463 N 1145.53 0.438773 1.51369 0
M  V30 12464 C 1146.75 -0.128221 2.07003 0
M  V30 12465 C 1147.18 -1.3557 1.30393 0
M  V30 12466 O 1146.54 -1.7804 0.342283 0
M  V30 12467 C 1146.58 -0.42761 3.58056 0
M  V30 12468 O 1145.69 -1.51382 3.83611 0
M  V30 12469 H 1145.03 -0.00123679 0.663999 0
M  V30 12470 H 1147.56 0.62052 1.94963 0
M  V30 12471 H 1147.57 -0.677645 4.02333 0
M  V30 12472 H 1146.24 0.469535 4.13241 0
M  V30 12473 H 1144.82 -1.25363 3.51196 0
M  V30 12474 N 1147.01 -1.56678 0.170181 0
M  V30 12475 C 1148.25 -1.96024 -0.475147 0
M  V30 12476 C 1148.57 -1.0588 -1.64465 0
M  V30 12477 O 1149.77 -1.34901 -2.35614 0
M  V30 12478 C 1148.23 -3.4855 -0.896704 0
M  V30 12479 C 1147.84 -4.47318 0.247142 0
M  V30 12480 C 1149.58 -3.96716 -1.51052 0
M  V30 12481 C 1147.49 -5.91082 -0.193982 0
M  V30 12482 H 1146.42 -0.731883 -0.181282 0
M  V30 12483 H 1149.07 -1.81674 0.25823 0
M  V30 12484 H 1147.45 -3.58314 -1.68603 0
M  V30 12485 H 1148.63 -4.49268 1.02445 0
M  V30 12486 H 1146.94 -4.09203 0.770839 0
M  V30 12487 H 1149.54 -5.01581 -1.85258 0
M  V30 12488 H 1149.88 -3.39588 -2.40802 0
M  V30 12489 H 1150.41 -3.89965 -0.785652 0
M  V30 12490 H 1147.15 -6.5208 0.668714 0
M  V30 12491 H 1146.67 -5.92441 -0.936675 0
M  V30 12492 H 1148.35 -6.43844 -0.638237 0
M  V30 12493 N 1148.48 0.103547 -1.57259 0
M  V30 12494 C 1149.43 1.14513 -2.02459 0
M  V30 12495 C 1150.43 1.4197 -0.924163 0
M  V30 12496 O 1151.63 1.41751 -1.10936 0
M  V30 12497 H 1148.01 0.386469 -0.645094 0
M  V30 12498 H 1149.98 0.737531 -2.89142 0
M  V30 12499 C 1148.73 2.45948 -2.45775 0
M  V30 12500 H 1148.05 2.25662 -3.30026 0
M  V30 12501 H 1149.49 3.17351 -2.81184 0
M  V30 12502 C 1147.95 3.09639 -1.32759 0
M  V30 12503 O 1148.48 3.96372 -0.652059 0
M  V30 12504 N 1146.68 2.69757 -1.08072 0
M  V30 12505 H 1146.23 1.9932 -1.63185 0
M  V30 12506 H 1146.19 3.127 -0.326532 0
M  V30 12507 N 1149.96 1.53094 0.37415 0
M  V30 12508 C 1150.91 1.78927 1.45787 0
M  V30 12509 C 1151.88 0.633187 1.53558 0
M  V30 12510 O 1153.06 0.874472 1.69581 0
M  V30 12511 C 1150.2 1.97726 2.8284 0
M  V30 12512 C 1149.32 3.25436 2.84104 0
M  V30 12513 C 1148.45 3.3447 4.12678 0
M  V30 12514 C 1147.49 4.56246 4.08051 0
M  V30 12515 N 1146.63 4.6248 5.28258 0
M  V30 12516 H 1151.47 2.71404 1.2306 0
M  V30 12517 H 1149 1.34453 0.596716 0
M  V30 12518 H 1150.96 2.06611 3.62447 0
M  V30 12519 H 1149.59 1.08593 3.03986 0
M  V30 12520 H 1148.64 3.25548 1.96781 0
M  V30 12521 H 1149.96 4.15112 2.76556 0
M  V30 12522 H 1149.11 3.4262 5.00696 0
M  V30 12523 H 1147.85 2.42795 4.22968 0
M  V30 12524 H 1146.85 4.48206 3.1842 0
M  V30 12525 H 1148.08 5.49254 3.99371 0
M  V30 12526 H 1146.03 3.73703 5.3915 0
M  V30 12527 H 1145.94 5.46049 5.22845 0
M  V30 12528 H 1147.21 4.74903 6.18132 0
M  V30 12529 N 1151.44 -0.633461 1.44309 0
M  V30 12530 C 1152.4 -1.72743 1.50641 0
M  V30 12531 C 1153.4 -1.56031 0.388718 0
M  V30 12532 O 1154.59 -1.61568 0.651251 0
M  V30 12533 C 1151.72 -3.11804 1.37809 0
M  V30 12534 H 1152.92 -1.68503 2.48086 0
M  V30 12535 H 1150.47 -0.846912 1.31366 0
M  V30 12536 H 1151.21 -3.2164 0.414483 0
M  V30 12537 H 1150.99 -3.2534 2.18852 0
M  V30 12538 H 1152.48 -3.91538 1.45216 0
M  V30 12539 N 1152.92 -1.31168 -0.873655 0
M  V30 12540 C 1153.85 -1.12836 -1.98351 0
M  V30 12541 C 1154.83 -0.0328679 -1.62567 0
M  V30 12542 O 1156.01 -0.18859 -1.87554 0
M  V30 12543 C 1153.14 -0.72332 -3.30886 0
M  V30 12544 C 1152.19 -1.82132 -3.85656 0
M  V30 12545 S 1153.02 -3.42604 -4.11562 0
M  V30 12546 C 1154.18 -3.04028 -5.471 0
M  V30 12547 H 1154.41 -2.06793 -2.13597 0
M  V30 12548 H 1151.94 -1.15611 -1.0234 0
M  V30 12549 H 1153.9 -0.496371 -4.07488 0
M  V30 12550 H 1152.56 0.197077 -3.13481 0
M  V30 12551 H 1151.75 -1.49046 -4.81458 0
M  V30 12552 H 1151.36 -2.00314 -3.15833 0
M  V30 12553 H 1153.65 -2.52692 -6.28612 0
M  V30 12554 H 1154.59 -3.9878 -5.85133 0
M  V30 12555 H 1155 -2.41574 -5.10198 0
M  V30 12556 N 1154.4 1.08748 -1.14068 0
M  V30 12557 C 1155.65 1.8044 -0.901352 0
M  V30 12558 C 1155.96 1.86995 0.573791 0
M  V30 12559 O 1157.16 2.55065 0.930275 0
M  V30 12560 C 1155.62 3.24185 -1.56308 0
M  V30 12561 C 1155.23 3.25875 -3.07424 0
M  V30 12562 C 1156.97 4.00584 -1.40473 0
M  V30 12563 C 1154.88 4.64186 -3.66449 0
M  V30 12564 H 1153.81 0.676201 -0.333569 0
M  V30 12565 H 1156.46 1.22169 -1.3692 0
M  V30 12566 H 1154.84 3.82561 -1.0229 0
M  V30 12567 H 1156.02 2.77225 -3.6808 0
M  V30 12568 H 1154.33 2.62969 -3.22856 0
M  V30 12569 H 1156.93 5.02781 -1.81976 0
M  V30 12570 H 1157.27 4.14823 -0.350408 0
M  V30 12571 H 1157.8 3.48668 -1.91508 0
M  V30 12572 H 1154.54 4.5515 -4.71719 0
M  V30 12573 H 1154.06 5.13132 -3.10574 0
M  V30 12574 H 1155.74 5.33161 -3.66536 0
M  V30 12575 N 1155.87 0.935264 1.26849 0
M  V30 12576 C 1156.82 0.430895 2.28574 0
M  V30 12577 C 1157.82 -0.488739 1.62196 0
M  V30 12578 O 1159.02 -0.367605 1.76206 0
M  V30 12579 H 1155.4 0.120793 0.742235 0
M  V30 12580 H 1157.37 1.3015 2.68521 0
M  V30 12581 C 1156.12 -0.294053 3.46454 0
M  V30 12582 H 1155.44 0.404416 3.97749 0
M  V30 12583 H 1156.88 -0.611272 4.19571 0
M  V30 12584 C 1155.34 -1.50975 3.01178 0
M  V30 12585 O 1155.87 -2.60826 3.05504 0
M  V30 12586 N 1154.08 -1.36423 2.56587 0
M  V30 12587 H 1153.62 -0.470483 2.53267 0
M  V30 12588 H 1153.58 -2.17886 2.26656 0
M  V30 12589 N 1157.35 -1.41121 0.701616 0
M  V30 12590 C 1158.6 -2.00359 0.232214 0
M  V30 12591 C 1158.91 -1.56231 -1.17691 0
M  V30 12592 O 1160.12 -2.08071 -1.74409 0
M  V30 12593 C 1158.58 -3.58052 0.364257 0
M  V30 12594 C 1158.18 -4.11158 1.77913 0
M  V30 12595 C 1159.93 -4.24476 -0.0450628 0
M  V30 12596 C 1157.84 -5.61306 1.8625 0
M  V30 12597 H 1156.77 -0.749411 0.0830609 0
M  V30 12598 H 1159.42 -1.61528 0.870689 0
M  V30 12599 H 1157.8 -3.94515 -0.342569 0
M  V30 12600 H 1158.97 -3.86101 2.5152 0
M  V30 12601 H 1157.29 -3.57282 2.13866 0
M  V30 12602 H 1159.88 -5.347 -0.00329209 0
M  V30 12603 H 1160.23 -4.01919 -1.08477 0
M  V30 12604 H 1160.76 -3.93069 0.611704 0
M  V30 12605 H 1157.5 -5.88699 2.88294 0
M  V30 12606 H 1157.02 -5.88271 1.17036 0
M  V30 12607 H 1158.7 -6.26179 1.62817 0
M  V30 12608 N 1158.83 -0.446794 -1.51134 0
M  V30 12609 C 1159.78 0.374154 -2.29571 0
M  V30 12610 C 1160.77 1.01241 -1.35818 0
M  V30 12611 O 1161.98 0.946293 -1.53119 0
M  V30 12612 H 1158.35 0.13948 -0.738951 0
M  V30 12613 H 1160.32 -0.308117 -2.96805 0
M  V30 12614 C 1159.07 1.45754 -3.15675 0
M  V30 12615 H 1158.4 0.975787 -3.87709 0
M  V30 12616 H 1159.84 2.00502 -3.73597 0
M  V30 12617 C 1158.3 2.44606 -2.31667 0
M  V30 12618 O 1158.83 3.49352 -1.98284 0
M  V30 12619 N 1157.03 2.15725 -1.94708 0
M  V30 12620 H 1156.58 1.30572 -2.22056 0
M  V30 12621 H 1156.54 2.82103 -1.38798 0
M  V30 12622 N 1160.31 1.56586 -0.178487 0
M  V30 12623 C 1161.26 2.18309 0.74899 0
M  V30 12624 C 1162.23 1.12525 1.22178 0
M  V30 12625 O 1163.41 1.40706 1.28866 0
M  V30 12626 C 1160.55 2.83353 1.9699 0
M  V30 12627 C 1159.66 4.03618 1.54002 0
M  V30 12628 C 1158.8 4.56567 2.71514 0
M  V30 12629 C 1157.84 5.69226 2.25051 0
M  V30 12630 N 1156.97 6.16654 3.35682 0
M  V30 12631 H 1161.81 2.97217 0.21587 0
M  V30 12632 H 1159.35 1.46794 0.0948182 0
M  V30 12633 H 1161.31 3.19226 2.68609 0
M  V30 12634 H 1159.94 2.07037 2.4766 0
M  V30 12635 H 1158.99 3.73518 0.720298 0
M  V30 12636 H 1160.3 4.85148 1.15901 0
M  V30 12637 H 1159.46 4.94659 3.5128 0
M  V30 12638 H 1158.2 3.7411 3.12879 0
M  V30 12639 H 1157.2 5.30679 1.43734 0
M  V30 12640 H 1158.43 6.5349 1.84736 0
M  V30 12641 H 1156.37 5.37124 3.76609 0
M  V30 12642 H 1156.29 6.93192 3.01697 0
M  V30 12643 H 1157.56 6.59397 4.15711 0
M  V30 12644 N 1161.79 -0.095206 1.57312 0
M  V30 12645 C 1163.03 -0.798719 1.86083 0
M  V30 12646 C 1163.36 -1.78739 0.766991 0
M  V30 12647 O 1162.62 -1.9423 -0.239425 0
M  V30 12648 C 1162.92 -1.56244 3.21438 0
M  V30 12649 C 1162.58 -0.715903 4.4518 0
M  V30 12650 C 1161.24 -0.482537 4.78774 0
M  V30 12651 C 1163.6 -0.127404 5.21044 0
M  V30 12652 C 1160.92 0.349193 5.8566 0
M  V30 12653 C 1163.28 0.691649 6.28808 0
M  V30 12654 C 1161.94 0.935107 6.60918 0
M  V30 12655 H 1161.21 -0.292272 0.680924 0
M  V30 12656 H 1163.86 -0.0602105 1.91405 0
M  V30 12657 H 1162.16 -2.37251 3.118 0
M  V30 12658 H 1163.86 -2.11116 3.40927 0
M  V30 12659 H 1160.45 -0.907902 4.18874 0
M  V30 12660 H 1164.63 -0.29486 4.95423 0
M  V30 12661 H 1159.89 0.546797 6.0895 0
M  V30 12662 H 1164.06 1.15452 6.86763 0
M  V30 12663 H 1161.69 1.58139 7.4357 0
M  V30 12664 N 1163.26 -1.53291 -0.366026 0
M  V30 12665 C 1164.19 -1.82675 -1.45437 0
M  V30 12666 C 1165.18 -0.680227 -1.55907 0
M  V30 12667 O 1166.36 -0.930032 -1.70482 0
M  V30 12668 C 1163.49 -2.01626 -2.8278 0
M  V30 12669 C 1162.44 -3.17391 -2.87135 0
M  V30 12670 C 1161.77 -3.21634 -4.27148 0
M  V30 12671 C 1163.07 -4.5599 -2.54697 0
M  V30 12672 H 1164.76 -2.73818 -1.21096 0
M  V30 12673 H 1162.31 -1.31754 -0.581108 0
M  V30 12674 H 1164.26 -2.20765 -3.58944 0
M  V30 12675 H 1162.99 -1.07193 -3.08508 0
M  V30 12676 H 1161.65 -2.98071 -2.13422 0
M  V30 12677 H 1161.29 -2.2484 -4.49951 0
M  V30 12678 H 1160.99 -3.99414 -4.30978 0
M  V30 12679 H 1162.52 -3.42957 -5.05186 0
M  V30 12680 H 1163.93 -4.75294 -3.20575 0
M  V30 12681 H 1162.33 -5.36008 -2.69844 0
M  V30 12682 H 1163.4 -4.61133 -1.49949 0
M  V30 12683 N 1164.74 0.6258 -1.44643 0
M  V30 12684 C 1165.69 1.75869 -1.52226 0
M  V30 12685 C 1166.68 1.64765 -0.39355 0
M  V30 12686 O 1167.89 1.70779 -0.568718 0
M  V30 12687 H 1164.27 0.580712 -0.477784 0
M  V30 12688 H 1166.24 1.66596 -2.47565 0
M  V30 12689 C 1164.99 3.14217 -1.48873 0
M  V30 12690 H 1164.31 3.23411 -2.35043 0
M  V30 12691 H 1165.75 3.93365 -1.58239 0
M  V30 12692 C 1164.21 3.36243 -0.210299 0
M  V30 12693 O 1164.74 3.95243 0.717335 0
M  V30 12694 N 1162.94 2.90385 -0.111744 0
M  V30 12695 H 1162.49 2.42555 -0.867466 0
M  V30 12696 H 1162.45 3.05498 0.742871 0
M  V30 12697 N 1166.22 1.31629 0.866686 0
M  V30 12698 C 1167.15 1.15377 1.98042 0
M  V30 12699 C 1168.17 0.0919633 1.6254 0
M  V30 12700 O 1169.35 0.339775 1.75236 0
M  V30 12701 C 1166.45 0.741295 3.30693 0
M  V30 12702 C 1165.63 1.88882 3.94516 0
M  V30 12703 C 1164.69 1.46186 5.05486 0
M  V30 12704 O 1163.71 2.17202 5.26129 0
M  V30 12705 N 1164.91 0.351096 5.79437 0
M  V30 12706 H 1167.68 2.11309 2.12529 0
M  V30 12707 H 1165.24 1.24007 1.04085 0
M  V30 12708 H 1167.23 0.438313 4.02319 0
M  V30 12709 H 1165.8 -0.12651 3.12344 0
M  V30 12710 H 1165.02 2.35894 3.15828 0
M  V30 12711 H 1166.31 2.65734 4.33892 0
M  V30 12712 H 1165.71 -0.240245 5.6519 0
M  V30 12713 H 1164.27 0.107663 6.51711 0
M  V30 12714 N 1167.7 -1.08142 1.14644 0
M  V30 12715 C 1168.94 -1.82183 0.926747 0
M  V30 12716 C 1169.3 -1.8434 -0.53692 0
M  V30 12717 O 1170.5 -2.54172 -0.874651 0
M  V30 12718 C 1168.78 -3.23726 1.51446 0
M  V30 12719 S 1170.33 -4.14612 1.43673 0
M  V30 12720 H 1167.15 -0.627815 0.333721 0
M  V30 12721 H 1169.75 -1.29968 1.46043 0
M  V30 12722 H 1168.46 -3.19741 2.57282 0
M  V30 12723 H 1167.99 -3.81016 0.979289 0
M  V30 12724 H 1170 -4.94384 0.424105 0
M  V30 12725 N 1169.18 -0.941978 -1.26351 0
M  V30 12726 C 1170.4 -0.606231 -1.98342 0
M  V30 12727 C 1170.83 0.812014 -1.6967 0
M  V30 12728 O 1170.19 1.54712 -0.9452 0
M  V30 12729 C 1170.23 -0.855864 -3.50296 0
M  V30 12730 O 1169.34 0.0716251 -4.12338 0
M  V30 12731 H 1168.68 -0.231815 -0.62222 0
M  V30 12732 H 1171.21 -1.26513 -1.60797 0
M  V30 12733 H 1171.22 -0.777079 -4.00531 0
M  V30 12734 H 1169.89 -1.8896 -3.70496 0
M  V30 12735 H 1168.47 -0.0582866 -3.72854 0
M  V30 12736 N 1170.66 1.40747 -0.709091 0
M  V30 12737 C 1171.9 2.013 -0.246174 0
M  V30 12738 C 1172.23 1.56078 1.15556 0
M  V30 12739 O 1171.51 0.777941 1.78265 0
M  V30 12740 C 1171.79 3.58685 -0.318945 0
M  V30 12741 C 1171.65 4.13997 -1.75859 0
M  V30 12742 C 1172.96 4.38981 0.31358 0
M  V30 12743 H 1170.08 0.73137 -0.0909255 0
M  V30 12744 H 1172.73 1.67312 -0.900365 0
M  V30 12745 H 1170.88 3.8777 0.23805 0
M  V30 12746 H 1172.55 3.95735 -2.37047 0
M  V30 12747 H 1170.79 3.6853 -2.28841 0
M  V30 12748 H 1171.46 5.23158 -1.76095 0
M  V30 12749 H 1173.94 4.15789 -0.160939 0
M  V30 12750 H 1172.81 5.48409 0.232184 0
M  V30 12751 H 1173.07 4.19474 1.39621 0
M  V30 12752 N 1172.13 0.454803 1.50895 0
M  V30 12753 C 1173.36 -0.106259 2.07128 0
M  V30 12754 C 1173.78 -1.3418 1.31823 0
M  V30 12755 O 1173.14 -1.77667 0.361147 0
M  V30 12756 C 1173.19 -0.389609 3.58489 0
M  V30 12757 O 1172.29 -1.47305 3.85195 0
M  V30 12758 H 1171.63 0.00580588 0.663975 0
M  V30 12759 H 1174.16 0.641163 1.94294 0
M  V30 12760 H 1174.17 -0.634934 4.03029 0
M  V30 12761 H 1172.85 0.513338 4.1272 0
M  V30 12762 H 1171.43 -1.21631 3.52506 0
M  V30 12763 N 1173.61 -1.56489 0.186789 0
M  V30 12764 C 1174.84 -2.01429 -0.459326 0
M  V30 12765 C 1175.25 -1.06611 -1.56303 0
M  V30 12766 O 1174.59 -0.0617053 -1.83596 0
M  V30 12767 C 1174.65 -3.42778 -1.08367 0
M  V30 12768 C 1174.32 -4.56843 -0.119719 0
M  V30 12769 C 1175.32 -5.15594 0.667782 0
M  V30 12770 C 1173 -5.02299 -0.0110494 0
M  V30 12771 C 1174.99 -6.18242 1.551 0
M  V30 12772 C 1172.68 -6.04793 0.875738 0
M  V30 12773 C 1173.68 -6.62637 1.65534 0
M  V30 12774 O 1173.37 -7.63141 2.52728 0
M  V30 12775 H 1173.1 -0.665175 -0.120492 0
M  V30 12776 H 1175.65 -2.03338 0.290283 0
M  V30 12777 H 1173.88 -3.3783 -1.8817 0
M  V30 12778 H 1175.57 -3.71577 -1.63357 0
M  V30 12779 H 1176.34 -4.81348 0.594085 0
M  V30 12780 H 1172.22 -4.56977 -0.607667 0
M  V30 12781 H 1175.76 -6.63319 2.15995 0
M  V30 12782 H 1171.66 -6.38462 0.950581 0
M  V30 12783 H 1172.43 -7.80527 2.46415 0
M  V30 12784 N 1175.09 0.086862 -1.5736 0
M  V30 12785 C 1176.02 1.10538 -2.05678 0
M  V30 12786 C 1177 1.41281 -0.947293 0
M  V30 12787 O 1178.19 1.51169 -1.21908 0
M  V30 12788 C 1175.32 2.42302 -2.48812 0
M  V30 12789 C 1174.27 2.25948 -3.63499 0
M  V30 12790 C 1173.6 3.62961 -3.92637 0
M  V30 12791 C 1174.9 1.69319 -4.94094 0
M  V30 12792 H 1176.59 0.703371 -2.91021 0
M  V30 12793 H 1174.14 0.336895 -1.40004 0
M  V30 12794 H 1176.09 3.13833 -2.81224 0
M  V30 12795 H 1174.81 2.84454 -1.60479 0
M  V30 12796 H 1173.47 1.5686 -3.31347 0
M  V30 12797 H 1173.12 4.02656 -3.01459 0
M  V30 12798 H 1172.82 3.52862 -4.69853 0
M  V30 12799 H 1174.34 4.35946 -4.27531 0
M  V30 12800 H 1175.76 2.30699 -5.24834 0
M  V30 12801 H 1174.15 1.69957 -5.7553 0
M  V30 12802 H 1175.22 0.653318 -4.80479 0
M  V30 12803 N 1176.57 1.53483 0.357892 0
M  V30 12804 C 1177.5 1.75257 1.46151 0
M  V30 12805 C 1178.48 0.601167 1.51079 0
M  V30 12806 O 1179.66 0.834661 1.69014 0
M  V30 12807 C 1176.79 1.8383 2.84472 0
M  V30 12808 C 1175.84 3.05866 2.97234 0
M  V30 12809 S 1176.67 4.65225 2.6519 0
M  V30 12810 C 1177.82 4.76657 4.05646 0
M  V30 12811 H 1178.06 2.6859 1.27462 0
M  V30 12812 H 1175.59 1.44169 0.552697 0
M  V30 12813 H 1177.55 1.89454 3.64167 0
M  V30 12814 H 1176.21 0.915345 3.00467 0
M  V30 12815 H 1175.4 3.08497 3.98555 0
M  V30 12816 H 1175 2.98393 2.25471 0
M  V30 12817 H 1177.3 4.57185 4.99988 0
M  V30 12818 H 1178.24 5.7873 4.08016 0
M  V30 12819 H 1178.65 4.05226 3.93004 0
M  V30 12820 N 1178.05 -0.61812 1.44973 0
M  V30 12821 C 1178.99 -1.75059 1.53157 0
M  V30 12822 C 1179.99 -1.64554 0.402282 0
M  V30 12823 O 1181.19 -1.70475 0.577767 0
M  V30 12824 H 1177.57 -0.57817 0.480856 0
M  V30 12825 H 1179.54 -1.65281 2.48445 0
M  V30 12826 C 1178.29 -3.13423 1.50538 0
M  V30 12827 H 1177.61 -3.2216 2.36755 0
M  V30 12828 H 1179.05 -3.92521 1.60323 0
M  V30 12829 C 1177.51 -3.36127 0.228127 0
M  V30 12830 O 1178.04 -3.95618 -0.696364 0
M  V30 12831 N 1176.25 -2.90322 0.127142 0
M  V30 12832 H 1175.79 -2.42091 0.880317 0
M  V30 12833 H 1175.75 -3.05887 -0.726659 0
M  V30 12834 N 1179.52 -1.32087 -0.859693 0
M  V30 12835 C 1180.75 -1.25486 -1.6513 0
M  V30 12836 C 1181.17 0.175015 -1.87284 0
M  V30 12837 O 1180.53 1.12468 -1.42199 0
M  V30 12838 C 1180.58 -2.01469 -2.9907 0
M  V30 12839 O 1179.68 -1.35904 -3.89363 0
M  V30 12840 H 1179.02 -0.432728 -0.503629 0
M  V30 12841 H 1181.55 -1.74322 -1.07112 0
M  V30 12842 H 1181.56 -2.11452 -3.4893 0
M  V30 12843 H 1180.24 -3.05448 -2.82266 0
M  V30 12844 H 1178.82 -1.34437 -3.47823 0
M  V30 12845 N 1181 1.07532 -1.15215 0
M  V30 12846 C 1181.93 2.1406 -0.7908 0
M  V30 12847 C 1182.91 1.60938 0.231922 0
M  V30 12848 O 1184.1 1.88125 0.118906 0
M  V30 12849 C 1181.22 3.38244 -0.175633 0
M  V30 12850 C 1180.27 4.10139 -1.16996 0
M  V30 12851 S 1181.1 4.61795 -2.71119 0
M  V30 12852 C 1182.26 5.89256 -2.11016 0
M  V30 12853 H 1182.49 2.44381 -1.69308 0
M  V30 12854 H 1180.02 1.19777 -0.974308 0
M  V30 12855 H 1181.98 4.10136 0.172859 0
M  V30 12856 H 1180.64 3.06104 0.704211 0
M  V30 12857 H 1179.84 4.99286 -0.687714 0
M  V30 12858 H 1179.44 3.44203 -1.46289 0
M  V30 12859 H 1181.73 6.61336 -1.47109 0
M  V30 12860 H 1182.67 6.42191 -2.98322 0
M  V30 12861 H 1183.08 5.4269 -1.55394 0
M  V30 12862 N 1182.48 0.948665 1.2585 0
M  V30 12863 C 1183.73 0.595938 1.92695 0
M  V30 12864 C 1184.04 -0.870229 1.75175 0
M  V30 12865 O 1185.25 -1.33266 2.36543 0
M  V30 12866 C 1183.7 1.01511 3.45288 0
M  V30 12867 C 1183.31 2.50341 3.71528 0
M  V30 12868 C 1185.06 0.734635 4.18095 0
M  V30 12869 C 1182.96 2.8609 5.17597 0
M  V30 12870 H 1181.89 0.219171 0.721443 0
M  V30 12871 H 1184.54 1.15231 1.42807 0
M  V30 12872 H 1182.93 0.387201 3.94102 0
M  V30 12873 H 1184.1 3.18101 3.3339 0
M  V30 12874 H 1182.42 2.75797 3.11969 0
M  V30 12875 H 1185.01 0.977962 5.25681 0
M  V30 12876 H 1185.36 -0.328807 4.14999 0
M  V30 12877 H 1185.89 1.32262 3.75169 0
M  V30 12878 H 1182.63 3.91427 5.25799 0
M  V30 12879 H 1182.15 2.22999 5.56805 0
M  V30 12880 H 1183.83 2.74959 5.85668 0
M  V30 12881 N 1183.96 -1.40369 0.716545 0
M  V30 12882 C 1185.37 -1.83783 0.328719 0
M  V30 12883 C 1185.72 -1.5991 -1.13681 0
M  V30 12884 O 1184.85 -1.08048 -1.87496 0
M  V30 12885 C 1185.44 -3.33626 0.589848 0
M  V30 12886 C 1184 -3.7553 0.25572 0
M  V30 12887 C 1183.15 -2.63571 0.861733 0
M  V30 12888 H 1186.1 -1.29623 0.915621 0
M  V30 12889 H 1186.12 -3.80225 -0.14459 0
M  V30 12890 H 1185.63 -3.5097 1.65655 0
M  V30 12891 H 1183.73 -3.63781 -0.805883 0
M  V30 12892 H 1183.84 -4.73577 0.725388 0
M  V30 12893 H 1182.21 -2.53047 0.289706 0
M  V30 12894 H 1182.99 -2.83727 1.93272 0
M  V30 12895 N 1185.44 -0.462799 -1.50652 0
M  V30 12896 C 1186.67 0.0928413 -2.06391 0
M  V30 12897 C 1187.07 1.34791 -1.3277 0
M  V30 12898 O 1186.42 1.79555 -0.388048 0
M  V30 12899 C 1186.48 0.45517 -3.56607 0
M  V30 12900 C 1186.14 -0.696698 -4.51658 0
M  V30 12901 C 1187.14 -1.57633 -4.95427 0
M  V30 12902 C 1184.83 -0.884669 -4.94448 0
M  V30 12903 C 1186.82 -2.62841 -5.80684 0
M  V30 12904 C 1184.51 -1.93998 -5.79489 0
M  V30 12905 C 1185.5 -2.81022 -6.22508 0
M  V30 12906 O 1185.19 -3.84738 -7.05856 0
M  V30 12907 H 1184.92 -3.18898e-05 -0.676 0
M  V30 12908 H 1187.48 -0.648161 -1.94905 0
M  V30 12909 H 1185.71 1.24924 -3.65966 0
M  V30 12910 H 1187.4 0.944923 -3.94748 0
M  V30 12911 H 1188.16 -1.44276 -4.63044 0
M  V30 12912 H 1184.04 -0.216807 -4.6049 0
M  V30 12913 H 1187.59 -3.30797 -6.14182 0
M  V30 12914 H 1183.48 -2.07366 -6.11285 0
M  V30 12915 H 1184.25 -3.81626 -7.24088 0
M  V30 12916 N 1186.91 1.56388 -0.195085 0
M  V30 12917 C 1188.16 1.97189 0.44281 0
M  V30 12918 C 1188.48 1.08312 1.62153 0
M  V30 12919 O 1187.75 0.154404 1.95291 0
M  V30 12920 H 1186.33 0.728188 0.166585 0
M  V30 12921 H 1189 1.92852 -0.281815 0
M  V30 12922 H 1188.09 3.02016 0.786945 0
M  V30 12923 N 1188.39 -0.0785156 1.57404 0
M  V30 12924 C 1189.64 -0.780092 1.87196 0
M  V30 12925 C 1189.97 -1.77562 0.78647 0
M  V30 12926 O 1189.25 -1.93428 -0.203935 0
M  V30 12927 C 1189.53 -1.49408 3.27642 0
M  V30 12928 C 1189.38 -0.515416 4.46837 0
M  V30 12929 C 1190.7 -2.44064 3.66225 0
M  V30 12930 H 1187.82 -0.282134 0.680859 0
M  V30 12931 H 1190.46 -0.0433926 1.8995 0
M  V30 12932 H 1188.61 -2.12205 3.25425 0
M  V30 12933 H 1190.28 0.106827 4.61176 0
M  V30 12934 H 1188.53 0.169832 4.33467 0
M  V30 12935 H 1189.2 -1.05247 5.41874 0
M  V30 12936 H 1191.67 -1.91349 3.69493 0
M  V30 12937 H 1190.55 -2.91029 4.65396 0
M  V30 12938 H 1190.81 -3.28569 2.95796 0
M  V30 12939 N 1189.87 -1.5367 -0.349747 0
M  V30 12940 C 1190.82 -1.81223 -1.42922 0
M  V30 12941 C 1191.79 -0.657536 -1.52531 0
M  V30 12942 O 1192.97 -0.90134 -1.68168 0
M  V30 12943 C 1190.11 -2.022 -2.79659 0
M  V30 12944 C 1189.23 -3.29915 -2.78891 0
M  V30 12945 C 1188.36 -3.40993 -4.07305 0
M  V30 12946 C 1187.4 -4.6268 -4.00741 0
M  V30 12947 N 1186.54 -4.70826 -5.20833 0
M  V30 12948 H 1191.38 -2.73328 -1.18727 0
M  V30 12949 H 1188.91 -1.35386 -0.57525 0
M  V30 12950 H 1190.87 -2.12351 -3.59114 0
M  V30 12951 H 1189.5 -1.13416 -3.0222 0
M  V30 12952 H 1188.55 -3.28637 -1.91577 0
M  V30 12953 H 1189.87 -4.19459 -2.69917 0
M  V30 12954 H 1189.02 -3.50542 -4.95182 0
M  V30 12955 H 1187.76 -2.49493 -4.19052 0
M  V30 12956 H 1186.76 -4.53215 -3.11249 0
M  V30 12957 H 1187.99 -5.55538 -3.90582 0
M  V30 12958 H 1185.93 -3.82233 -5.33136 0
M  V30 12959 H 1185.85 -5.54297 -5.14092 0
M  V30 12960 H 1187.12 -4.84677 -6.10499 0
M  V30 12961 N 1191.35 0.610423 -1.45298 0
M  V30 12962 C 1192.76 0.930872 -1.29642 0
M  V30 12963 C 1192.96 1.99976 -0.247358 0
M  V30 12964 O 1192.02 2.49925 0.359674 0
M  V30 12965 C 1193.33 1.37449 -2.67448 0
M  V30 12966 C 1194.88 1.48885 -2.75322 0
M  V30 12967 C 1195.36 1.96624 -4.13646 0
M  V30 12968 N 1196.85 2.03862 -4.15926 0
M  V30 12969 C 1197.58 2.42015 -5.19823 0
M  V30 12970 N 1197.08 2.79157 -6.34069 0
M  V30 12971 N 1198.87 2.42329 -5.07181 0
M  V30 12972 H 1191.02 -0.0961259 -2.12182 0
M  V30 12973 H 1193.29 0.0196483 -0.947796 0
M  V30 12974 H 1192.99 0.663276 -3.45389 0
M  V30 12975 H 1192.87 2.34155 -2.95721 0
M  V30 12976 H 1195.25 2.19098 -1.97686 0
M  V30 12977 H 1195.33 0.505006 -2.50765 0
M  V30 12978 H 1194.98 1.26998 -4.91766 0
M  V30 12979 H 1194.91 2.95917 -4.35592 0
M  V30 12980 H 1197.4 1.77759 -3.33482 0
M  V30 12981 H 1197.71 3.07143 -7.09142 0
M  V30 12982 H 1196.06 2.7686 -6.37474 0
M  V30 12983 H 1199.25 2.12717 -4.16976 0
M  V30 12984 H 1199.42 2.71738 -5.88271 0
M  V30 12985 N 1192.83 1.32541 0.852676 0
M  V30 12986 C 1193.76 1.24254 1.97694 0
M  V30 12987 C 1194.74 0.125971 1.69633 0
M  V30 12988 O 1195.92 0.31347 1.91653 0
M  V30 12989 C 1193.05 0.966874 3.3357 0
M  V30 12990 C 1192.01 2.0449 3.75989 0
M  V30 12991 C 1191.33 1.6216 5.09518 0
M  V30 12992 C 1192.63 3.46013 3.91244 0
M  V30 12993 H 1194.33 2.18317 2.04886 0
M  V30 12994 H 1191.87 1.05101 0.984371 0
M  V30 12995 H 1193.83 0.895444 4.11776 0
M  V30 12996 H 1192.55 -0.0093893 3.26599 0
M  V30 12997 H 1191.21 2.10651 3.00036 0
M  V30 12998 H 1190.86 0.632729 4.99005 0
M  V30 12999 H 1190.56 2.3429 5.38871 0
M  V30 13000 H 1192.08 1.56457 5.90215 0
M  V30 13001 H 1193.49 3.4243 4.59799 0
M  V30 13002 H 1191.89 4.1651 4.32017 0
M  V30 13003 H 1192.96 3.8553 2.941 0
M  V30 13004 N 1194.3 -1.0692 1.15784 0
M  V30 13005 C 1195.21 -2.17762 0.872753 0
M  V30 13006 C 1196.23 -1.73329 -0.152608 0
M  V30 13007 O 1197.41 -2.01387 0.022519 0
M  V30 13008 C 1194.47 -3.4471 0.370887 0
M  V30 13009 C 1193.53 -4.03686 1.46069 0
M  V30 13010 C 1192.77 -5.24575 0.982675 0
M  V30 13011 O 1192.99 -5.70146 -0.17006 0
M  V30 13012 O 1191.92 -5.7534 1.76828 0
M  V30 13013 H 1195.75 -2.44648 1.79948 0
M  V30 13014 H 1193.33 -1.1634 0.937303 0
M  V30 13015 H 1195.22 -4.21287 0.0976779 0
M  V30 13016 H 1193.89 -3.19366 -0.527912 0
M  V30 13017 H 1192.8 -3.28629 1.78756 0
M  V30 13018 H 1194.13 -4.33312 2.33456 0
M  V30 13019 N 1195.78 -0.955326 -1.25345 0
M  V30 13020 C 1197.06 -0.527828 -1.88344 0
M  V30 13021 C 1197.44 0.994911 -1.86185 0
M  V30 13022 O 1196.79 1.86099 -1.32587 0
M  V30 13023 C 1197 -1.10525 -3.31037 0
M  V30 13024 C 1198.35 -1.18253 -4.07801 0
M  V30 13025 O 1199.37 -1.05685 -3.4016 0
M  V30 13026 O 1198.23 -1.37978 -5.28795 0
M  V30 13027 H 1195.32 -0.174206 -0.808444 0
M  V30 13028 H 1197.87 -1.0488 -1.3341 0
M  V30 13029 H 1196.64 -2.14847 -3.27042 0
M  V30 13030 H 1196.26 -0.567568 -3.93528 0
M  V30 13031 N 1197.26 1.39987 -0.723979 0
M  V30 13032 C 1198.51 2.00731 -0.267115 0
M  V30 13033 C 1198.84 1.57424 1.14228 0
M  V30 13034 O 1198.09 0.789205 1.79081 0
M  V30 13035 C 1198.39 3.56101 -0.304472 0
M  V30 13036 C 1198.06 4.1902 -1.66533 0
M  V30 13037 C 1196.72 4.3592 -2.03783 0
M  V30 13038 C 1199.07 4.54034 -2.55935 0
M  V30 13039 C 1196.4 4.85119 -3.29964 0
M  V30 13040 C 1198.75 5.04637 -3.81477 0
M  V30 13041 C 1197.41 5.19745 -4.18833 0
M  V30 13042 H 1196.68 0.734525 -0.0977442 0
M  V30 13043 H 1199.33 1.67476 -0.928659 0
M  V30 13044 H 1197.64 3.89314 0.440647 0
M  V30 13045 H 1199.33 4.00944 0.0669875 0
M  V30 13046 H 1195.92 4.0626 -1.36569 0
M  V30 13047 H 1200.11 4.40606 -2.2843 0
M  V30 13048 H 1195.36 4.95001 -3.58865 0
M  V30 13049 H 1199.54 5.30705 -4.50916 0
M  V30 13050 H 1197.16 5.5763 -5.16675 0
M  V30 13051 N 1198.74 0.470782 1.50404 0
M  V30 13052 C 1200.02 -0.145879 1.95055 0
M  V30 13053 C 1200.4 -1.57004 1.41114 0
M  V30 13054 O 1199.74 -2.20152 0.612006 0
M  V30 13055 C 1199.95 -0.0895071 3.48885 0
M  V30 13056 C 1201.3 -0.278548 4.23685 0
M  V30 13057 O 1202.33 -0.166105 3.55812 0
M  V30 13058 O 1201.19 -0.505606 5.44156 0
M  V30 13059 H 1198.28 -0.111838 0.819403 0
M  V30 13060 H 1200.83 0.531162 1.61173 0
M  V30 13061 H 1199.6 0.904836 3.80695 0
M  V30 13062 H 1199.22 -0.808019 3.89303 0
M  V30 13063 N 1200.22 -1.56282 0.203376 0
M  V30 13064 C 1201.18 -2.18233 -0.700489 0
M  V30 13065 C 1202.18 -1.13908 -1.13497 0
M  V30 13066 O 1203.37 -1.39246 -1.04672 0
M  V30 13067 C 1200.5 -2.79107 -1.95735 0
M  V30 13068 H 1201.7 -2.99469 -0.160649 0
M  V30 13069 H 1199.25 -1.56232 -0.0462475 0
M  V30 13070 H 1199.98 -2.01691 -2.53951 0
M  V30 13071 H 1199.77 -3.55486 -1.65446 0
M  V30 13072 H 1201.26 -3.2665 -2.60172 0
M  V30 13073 N 1201.7 0.070167 -1.57444 0
M  V30 13074 C 1202.92 0.785703 -1.91941 0
M  V30 13075 C 1203.35 1.70243 -0.799932 0
M  V30 13076 O 1202.7 1.79608 0.247139 0
M  V30 13077 C 1202.75 1.55398 -3.25398 0
M  V30 13078 O 1201.86 2.66475 -3.14746 0
M  V30 13079 H 1201.2 0.214245 -0.628486 0
M  V30 13080 H 1203.73 0.0379243 -2.04565 0
M  V30 13081 H 1203.74 1.93287 -3.5931 0
M  V30 13082 H 1202.41 0.881366 -4.06454 0
M  V30 13083 H 1200.99 2.3143 -2.92394 0
M  V30 13084 N 1203.17 1.53854 0.341593 0
M  V30 13085 C 1204.1 1.84966 1.42513 0
M  V30 13086 C 1205.08 0.704944 1.54805 0
M  V30 13087 O 1206.27 0.957036 1.68981 0
M  V30 13088 C 1203.4 2.06099 2.79536 0
M  V30 13089 C 1202.35 3.21919 2.82049 0
M  V30 13090 C 1201.68 3.28389 4.21977 0
M  V30 13091 C 1202.98 4.59984 2.4741 0
M  V30 13092 H 1204.67 2.7571 1.16724 0
M  V30 13093 H 1202.22 1.32662 0.560073 0
M  V30 13094 H 1204.17 2.26448 3.55386 0
M  V30 13095 H 1202.9 1.12087 3.06764 0
M  V30 13096 H 1201.56 3.01429 2.08653 0
M  V30 13097 H 1201.2 2.3197 4.46317 0
M  V30 13098 H 1200.9 4.0622 4.24569 0
M  V30 13099 H 1202.43 3.50951 4.99666 0
M  V30 13100 H 1203.84 4.80334 3.12973 0
M  V30 13101 H 1202.24 5.40233 2.61282 0
M  V30 13102 H 1203.31 4.6346 1.42594 0
M  V30 13103 N 1204.65 -0.602709 1.4562 0
M  V30 13104 C 1205.6 -1.71312 1.54664 0
M  V30 13105 C 1206.57 -1.61403 0.392197 0
M  V30 13106 O 1207.75 -1.80911 0.606297 0
M  V30 13107 C 1204.89 -3.09629 1.52393 0
M  V30 13108 C 1204.01 -3.30308 2.78425 0
M  V30 13109 C 1203.14 -4.5876 2.67793 0
M  V30 13110 C 1202.18 -4.72713 3.88855 0
M  V30 13111 N 1201.32 -5.92469 3.76729 0
M  V30 13112 H 1206.16 -1.62918 2.49523 0
M  V30 13113 H 1203.69 -0.794324 1.2381 0
M  V30 13114 H 1205.65 -3.89661 1.49064 0
M  V30 13115 H 1204.28 -3.16968 0.610816 0
M  V30 13116 H 1203.33 -2.44018 2.9182 0
M  V30 13117 H 1204.65 -3.36491 3.68205 0
M  V30 13118 H 1203.8 -5.46993 2.62457 0
M  V30 13119 H 1202.54 -4.54983 1.75619 0
M  V30 13120 H 1201.54 -3.82903 3.94545 0
M  V30 13121 H 1202.77 -4.78284 4.82101 0
M  V30 13122 H 1200.72 -5.89728 2.87328 0
M  V30 13123 H 1200.63 -5.99833 4.60148 0
M  V30 13124 H 1201.9 -6.83187 3.75334 0
M  V30 13125 N 1206.13 -1.32992 -0.845635 0
M  V30 13126 C 1207.41 -1.14671 -1.58461 0
M  V30 13127 C 1207.79 0.289498 -2.09106 0
M  V30 13128 O 1207.13 1.28751 -1.88773 0
M  V30 13129 C 1207.34 -2.18206 -2.72373 0
M  V30 13130 C 1208.69 -2.5201 -3.41726 0
M  V30 13131 O 1209.72 -2.16821 -2.82608 0
M  V30 13132 O 1208.58 -3.12368 -4.48429 0
M  V30 13133 H 1205.67 -0.443088 -0.698285 0
M  V30 13134 H 1208.22 -1.44552 -0.888978 0
M  V30 13135 H 1206.99 -3.14707 -2.32541 0
M  V30 13136 H 1206.61 -1.89372 -3.49605 0
M  V30 13137 N 1207.61 1.06304 -1.1635 0
M  V30 13138 C 1208.57 2.11947 -0.872419 0
M  V30 13139 C 1209.57 1.60253 0.132534 0
M  V30 13140 O 1210.76 1.73922 -0.0983441 0
M  V30 13141 C 1207.89 3.39536 -0.304646 0
M  V30 13142 H 1209.09 2.39201 -1.80894 0
M  V30 13143 H 1206.64 1.22367 -0.972419 0
M  V30 13144 H 1207.37 3.17931 0.639565 0
M  V30 13145 H 1207.16 3.78363 -1.02878 0
M  V30 13146 H 1208.65 4.17431 -0.118936 0
M  V30 13147 N 1209.09 0.96196 1.24836 0
M  V30 13148 C 1210.02 0.506241 2.27946 0
M  V30 13149 C 1211 -0.451183 1.64007 0
M  V30 13150 O 1212.18 -0.348552 1.91046 0
M  V30 13151 C 1209.31 -0.209846 3.46665 0
M  V30 13152 C 1208.27 0.663035 4.22833 0
M  V30 13153 C 1207.59 -0.184216 5.34383 0
M  V30 13154 C 1208.89 1.94479 4.84742 0
M  V30 13155 H 1210.59 1.36805 2.66317 0
M  V30 13156 H 1208.13 0.65926 1.28023 0
M  V30 13157 H 1210.08 -0.539838 4.17928 0
M  V30 13158 H 1208.81 -1.10596 3.07305 0
M  V30 13159 H 1207.47 0.976216 3.53363 0
M  V30 13160 H 1207.12 -1.08031 4.91262 0
M  V30 13161 H 1206.82 0.39657 5.8626 0
M  V30 13162 H 1208.34 -0.509009 6.08475 0
M  V30 13163 H 1209.75 1.68074 5.48109 0
M  V30 13164 H 1208.15 2.47183 5.46828 0
M  V30 13165 H 1209.22 2.64332 4.06517 0
M  V30 13166 N 1210.56 -1.39601 0.731392 0
M  V30 13167 C 1211.49 -2.33268 0.1041 0
M  V30 13168 C 1212.47 -1.53724 -0.728219 0
M  V30 13169 O 1213.66 -1.82131 -0.673933 0
M  V30 13170 C 1210.79 -3.37802 -0.806646 0
M  V30 13171 C 1209.74 -4.27928 -0.0787588 0
M  V30 13172 C 1209.07 -5.23131 -1.10628 0
M  V30 13173 C 1210.37 -5.11086 1.07651 0
M  V30 13174 H 1212.06 -2.85975 0.886496 0
M  V30 13175 H 1209.61 -1.375 0.427746 0
M  V30 13176 H 1211.56 -4.02278 -1.25499 0
M  V30 13177 H 1210.29 -2.83527 -1.62112 0
M  V30 13178 H 1208.95 -3.64926 0.349926 0
M  V30 13179 H 1208.59 -4.65152 -1.91422 0
M  V30 13180 H 1208.29 -5.84277 -0.624043 0
M  V30 13181 H 1209.82 -5.90483 -1.5544 0
M  V30 13182 H 1211.23 -5.68927 0.706781 0
M  V30 13183 H 1209.63 -5.81356 1.48814 0
M  V30 13184 H 1210.7 -4.46131 1.89988 0
M  V30 13185 N 1212.04 -0.478751 -1.50152 0
M  V30 13186 C 1212.99 0.311426 -2.28689 0
M  V30 13187 C 1213.96 0.980375 -1.34082 0
M  V30 13188 O 1215.14 0.991337 -1.63025 0
M  V30 13189 C 1212.28 1.38302 -3.16175 0
M  V30 13190 C 1211.4 0.728084 -4.2582 0
M  V30 13191 C 1210.53 1.77822 -5.00552 0
M  V30 13192 C 1209.57 1.10395 -6.02063 0
M  V30 13193 N 1208.71 2.09728 -6.70044 0
M  V30 13194 H 1213.55 -0.364592 -2.95761 0
M  V30 13195 H 1211.09 -0.191645 -1.45846 0
M  V30 13196 H 1213.04 2.01606 -3.65255 0
M  V30 13197 H 1211.67 2.0281 -2.51133 0
M  V30 13198 H 1210.73 -0.0177026 -3.80396 0
M  V30 13199 H 1212.04 0.196209 -4.98414 0
M  V30 13200 H 1211.19 2.48687 -5.53389 0
M  V30 13201 H 1209.93 2.34392 -4.27682 0
M  V30 13202 H 1208.94 0.38096 -5.48479 0
M  V30 13203 H 1210.16 0.545045 -6.76909 0
M  V30 13204 H 1208.11 2.65301 -5.9996 0
M  V30 13205 H 1208.02 1.61546 -7.38538 0
M  V30 13206 H 1209.29 2.7995 -7.27495 0
M  V30 13207 N 1213.52 1.56172 -0.211661 0
M  V30 13208 C 1214.75 2.02135 0.427222 0
M  V30 13209 C 1215.16 1.09084 1.54587 0
M  V30 13210 O 1214.5 0.090906 1.83475 0
M  V30 13211 C 1214.56 3.44459 1.029 0
M  V30 13212 C 1214.23 4.56976 0.0470243 0
M  V30 13213 C 1215.22 5.14466 -0.749724 0
M  V30 13214 C 1212.91 5.02253 -0.0688634 0
M  V30 13215 C 1214.9 6.15696 -1.64916 0
M  V30 13216 C 1212.59 6.03323 -0.971844 0
M  V30 13217 C 1213.59 6.5992 -1.76055 0
M  V30 13218 O 1213.28 7.59024 -2.64837 0
M  V30 13219 H 1213.01 0.667008 0.109894 0
M  V30 13220 H 1215.56 2.02851 -0.322595 0
M  V30 13221 H 1213.79 3.4078 1.82772 0
M  V30 13222 H 1215.48 3.74128 1.57425 0
M  V30 13223 H 1216.25 4.80342 -0.670588 0
M  V30 13224 H 1212.13 4.57886 0.534889 0
M  V30 13225 H 1215.67 6.59798 -2.26521 0
M  V30 13226 H 1211.57 6.36869 -1.05203 0
M  V30 13227 H 1212.34 7.76508 -2.58801 0
M  V30 13228 N 1215 -0.0618163 1.57479 0
M  V30 13229 C 1216.25 -0.75794 1.86918 0
M  V30 13230 C 1216.56 -1.78234 0.80572 0
M  V30 13231 O 1217.77 -2.52874 0.98827 0
M  V30 13232 C 1216.22 -1.39898 3.31597 0
M  V30 13233 C 1215.83 -0.412621 4.46096 0
M  V30 13234 C 1217.57 -2.07688 3.70224 0
M  V30 13235 C 1215.48 -1.06014 5.8182 0
M  V30 13236 H 1214.41 -0.286825 0.697314 0
M  V30 13237 H 1217.06 -0.0114386 1.83496 0
M  V30 13238 H 1215.44 -2.19408 3.29661 0
M  V30 13239 H 1216.62 0.353392 4.59443 0
M  V30 13240 H 1214.93 0.161383 4.16087 0
M  V30 13241 H 1217.53 -2.56928 4.68927 0
M  V30 13242 H 1217.87 -2.88073 3.00532 0
M  V30 13243 H 1218.41 -1.34996 3.74194 0
M  V30 13244 H 1215.15 -0.296405 6.5483 0
M  V30 13245 H 1214.67 -1.79677 5.72255 0
M  V30 13246 H 1216.34 -1.57708 6.27485 0
M  V30 13247 N 1216.48 -1.54033 -0.333429 0
M  V30 13248 C 1217.71 -1.75461 -1.09073 0
M  V30 13249 C 1218.11 -0.498488 -1.82515 0
M  V30 13250 O 1217.46 0.540029 -1.75583 0
M  V30 13251 C 1217.52 -2.88744 -2.14166 0
M  V30 13252 C 1217.18 -4.27998 -1.60209 0
M  V30 13253 C 1218.18 -5.09206 -1.04907 0
M  V30 13254 C 1215.87 -4.74513 -1.6475 0
M  V30 13255 C 1217.86 -6.35035 -0.548615 0
M  V30 13256 C 1215.55 -6.00312 -1.14318 0
M  V30 13257 C 1216.54 -6.80406 -0.594667 0
M  V30 13258 O 1216.23 -8.0384 -0.097891 0
M  V30 13259 H 1215.96 -0.589586 -0.330702 0
M  V30 13260 H 1218.52 -2.01697 -0.388274 0
M  V30 13261 H 1216.75 -2.58057 -2.87999 0
M  V30 13262 H 1218.44 -2.98048 -2.7554 0
M  V30 13263 H 1219.2 -4.74428 -1.00713 0
M  V30 13264 H 1215.08 -4.12222 -2.06384 0
M  V30 13265 H 1218.63 -6.97497 -0.119823 0
M  V30 13266 H 1214.52 -6.34583 -1.18215 0
M  V30 13267 H 1215.29 -8.1822 -0.214237 0
M  V30 13268 N 1217.95 0.594978 -1.45938 0
M  V30 13269 C 1219.23 1.35477 -1.41086 0
M  V30 13270 C 1219.61 2.10917 -0.0879512 0
M  V30 13271 O 1218.96 2.08704 0.930323 0
M  V30 13272 C 1219.17 2.29106 -2.63271 0
M  V30 13273 C 1220.52 2.9132 -3.08898 0
M  V30 13274 O 1221.54 2.39423 -2.63733 0
M  V30 13275 O 1220.4 3.85553 -3.87313 0
M  V30 13276 H 1217.49 0.6081 -0.560485 0
M  V30 13277 H 1220.04 0.617016 -1.58085 0
M  V30 13278 H 1218.81 1.72707 -3.51124 0
M  V30 13279 H 1218.44 3.10241 -2.48669 0
M  V30 13280 N 1219.43 1.33438 0.838571 0
M  V30 13281 C 1220.38 1.23698 1.96981 0
M  V30 13282 C 1221.37 0.138299 1.68835 0
M  V30 13283 O 1222.58 0.302278 1.77444 0
M  V30 13284 H 1218.96 0.383874 0.646641 0
M  V30 13285 H 1220.93 2.19337 2.02321 0
M  V30 13286 C 1219.68 0.993362 3.33208 0
M  V30 13287 H 1219 1.83104 3.55405 0
M  V30 13288 H 1220.44 0.965517 4.1286 0
M  V30 13289 C 1218.9 -0.303701 3.35528 0
M  V30 13290 O 1219.43 -1.3103 3.79729 0
M  V30 13291 N 1217.63 -0.331342 2.88705 0
M  V30 13292 H 1217.18 0.488351 2.52929 0
M  V30 13293 H 1217.14 -1.199 2.9064 0
M  V30 13294 N 1220.91 -1.05686 1.16912 0
M  V30 13295 C 1222.33 -1.30744 0.915327 0
M  V30 13296 C 1222.53 -1.96895 -0.428344 0
M  V30 13297 O 1221.58 -2.23941 -1.16647 0
M  V30 13298 C 1222.9 -2.18209 2.06894 0
M  V30 13299 C 1224.44 -2.31607 2.1054 0
M  V30 13300 C 1224.92 -3.2243 3.25273 0
M  V30 13301 N 1226.41 -3.30015 3.2503 0
M  V30 13302 C 1227.14 -4.00401 4.10447 0
M  V30 13303 N 1226.64 -4.73256 5.05965 0
M  V30 13304 N 1228.43 -3.96514 3.98413 0
M  V30 13305 H 1220.58 -0.611449 2.03409 0
M  V30 13306 H 1222.85 -0.332188 0.887894 0
M  V30 13307 H 1222.55 -1.76887 3.0398 0
M  V30 13308 H 1222.43 -3.18823 2.01573 0
M  V30 13309 H 1224.81 -2.72173 1.14044 0
M  V30 13310 H 1224.9 -1.30639 2.19925 0
M  V30 13311 H 1224.54 -2.82579 4.22032 0
M  V30 13312 H 1224.47 -4.23392 3.13125 0
M  V30 13313 H 1226.96 -2.781 2.55869 0
M  V30 13314 H 1227.27 -5.24509 5.67547 0
M  V30 13315 H 1225.62 -4.72215 5.09939 0
M  V30 13316 H 1228.81 -3.38719 3.2309 0
M  V30 13317 H 1228.98 -4.511 4.65202 0
M  V30 13318 N 1222.39 -0.968567 -1.24324 0
M  V30 13319 C 1223.64 -0.629682 -1.9204 0
M  V30 13320 C 1223.96 0.837906 -1.7608 0
M  V30 13321 O 1223.23 1.5982 -1.13289 0
M  V30 13322 H 1221.81 -0.229901 -0.710742 0
M  V30 13323 H 1224.47 -1.22982 -1.512 0
M  V30 13324 H 1223.57 -0.871034 -2.99699 0
M  V30 13325 N 1223.87 1.39211 -0.738786 0
M  V30 13326 C 1225.09 2.04732 -0.298751 0
M  V30 13327 C 1225.51 1.55706 1.06776 0
M  V30 13328 O 1224.87 0.723605 1.67542 0
M  V30 13329 C 1224.92 3.60288 -0.29574 0
M  V30 13330 O 1224.64 4.07511 -1.60831 0
M  V30 13331 C 1226.14 4.43011 0.159994 0
M  V30 13332 H 1223.36 0.658296 -0.129952 0
M  V30 13333 H 1225.9 1.78186 -1.0035 0
M  V30 13334 H 1224.06 3.85722 0.360146 0
M  V30 13335 H 1224.47 5.01858 -1.52443 0
M  V30 13336 H 1225.95 5.51889 0.110941 0
M  V30 13337 H 1226.42 4.22325 1.20573 0
M  V30 13338 H 1227.03 4.22734 -0.466467 0
M  V30 13339 N 1225.34 0.486708 1.49896 0
M  V30 13340 C 1226.27 -0.288898 2.31706 0
M  V30 13341 C 1227.26 -0.975901 1.3932 0
M  V30 13342 O 1228.44 -0.970065 1.68236 0
M  V30 13343 C 1225.57 -1.36218 3.19471 0
M  V30 13344 C 1224.52 -0.795884 4.20535 0
M  V30 13345 C 1223.85 -1.96862 4.97141 0
M  V30 13346 C 1225.15 0.203421 5.21904 0
M  V30 13347 H 1226.84 0.393934 2.96797 0
M  V30 13348 H 1224.39 0.190894 1.42729 0
M  V30 13349 H 1226.34 -1.91238 3.75508 0
M  V30 13350 H 1225.07 -2.074 2.52295 0
M  V30 13351 H 1223.73 -0.267538 3.65622 0
M  V30 13352 H 1223.37 -2.66779 4.26425 0
M  V30 13353 H 1223.07 -1.59585 5.65514 0
M  V30 13354 H 1224.6 -2.52343 5.56017 0
M  V30 13355 H 1226.01 -0.258144 5.72719 0
M  V30 13356 H 1224.41 0.491273 5.98086 0
M  V30 13357 H 1225.48 1.12414 4.7169 0
M  V30 13358 N 1226.82 -1.56058 0.219941 0
M  V30 13359 C 1228.07 -1.97436 -0.412543 0
M  V30 13360 C 1228.39 -1.11058 -1.61014 0
M  V30 13361 O 1229.59 -1.42328 -2.31203 0
M  V30 13362 C 1228.05 -3.51227 -0.785362 0
M  V30 13363 C 1227.66 -4.46305 0.389328 0
M  V30 13364 C 1229.4 -4.01321 -1.38354 0
M  V30 13365 C 1227.31 -5.914 -0.00583531 0
M  V30 13366 H 1226.24 -0.73728 -0.157906 0
M  V30 13367 H 1228.89 -1.8076 0.315898 0
M  V30 13368 H 1227.27 -3.63497 -1.57118 0
M  V30 13369 H 1228.44 -4.45781 1.16686 0
M  V30 13370 H 1226.76 -4.06543 0.900633 0
M  V30 13371 H 1229.36 -5.07221 -1.69207 0
M  V30 13372 H 1229.7 -3.47077 -2.29876 0
M  V30 13373 H 1230.23 -3.92267 -0.66119 0
M  V30 13374 H 1226.97 -6.49623 0.87583 0
M  V30 13375 H 1226.49 -5.95121 -0.74772 0
M  V30 13376 H 1228.17 -6.45549 -0.43308 0
M  V30 13377 N 1228.3 0.053464 -1.57509 0
M  V30 13378 C 1229.55 0.747622 -1.87763 0
M  V30 13379 C 1229.87 1.77178 -0.814433 0
M  V30 13380 O 1229.14 1.95287 0.154862 0
M  V30 13381 H 1227.72 0.279109 -0.692898 0
M  V30 13382 H 1230.38 0.0252006 -1.94884 0
M  V30 13383 H 1229.48 1.25244 -2.85868 0
M  V30 13384 N 1229.78 1.54207 0.325255 0
M  V30 13385 C 1230.71 1.79812 1.42128 0
M  V30 13386 C 1231.72 0.68003 1.47917 0
M  V30 13387 O 1232.91 0.957107 1.50671 0
M  V30 13388 C 1230.01 1.89935 2.80674 0
M  V30 13389 C 1229.19 3.20078 2.98108 0
M  V30 13390 C 1228.25 3.20924 4.17006 0
M  V30 13391 O 1227.27 3.94571 4.10247 0
M  V30 13392 N 1228.47 2.44588 5.26457 0
M  V30 13393 H 1231.24 2.74396 1.20527 0
M  V30 13394 H 1228.8 1.53483 0.515233 0
M  V30 13395 H 1230.79 1.8793 3.58419 0
M  V30 13396 H 1229.36 1.02455 2.95333 0
M  V30 13397 H 1228.58 3.35057 2.07679 0
M  V30 13398 H 1229.87 4.06008 3.06651 0
M  V30 13399 H 1229.27 1.8434 5.34823 0
M  V30 13400 H 1227.82 2.48363 6.02627 0
M  V30 13401 N 1231.26 -0.58723 1.46251 0
M  V30 13402 C 1232.5 -1.3476 1.51551 0
M  V30 13403 C 1232.84 -1.93499 0.16483 0
M  V30 13404 O 1232.11 -1.7622 -0.823207 0
M  V30 13405 C 1232.39 -2.48033 2.61059 0
M  V30 13406 C 1232.25 -1.94358 4.05642 0
M  V30 13407 C 1233.57 -3.50096 2.66685 0
M  V30 13408 H 1230.69 -0.48863 0.551733 0
M  V30 13409 H 1233.33 -0.660097 1.78165 0
M  V30 13410 H 1231.48 -3.06679 2.38496 0
M  V30 13411 H 1233.15 -1.40204 4.39478 0
M  V30 13412 H 1231.39 -1.25217 4.15335 0
M  V30 13413 H 1232.06 -2.76105 4.77986 0
M  V30 13414 H 1234.54 -3.01324 2.86955 0
M  V30 13415 H 1233.42 -4.26817 3.45135 0
M  V30 13416 H 1233.68 -4.07032 1.7256 0
M  V30 13417 N 1232.74 -1.33881 -0.831482 0
M  V30 13418 C 1234.01 -1.16346 -1.57236 0
M  V30 13419 C 1234.39 0.267304 -2.09401 0
M  V30 13420 O 1233.74 1.26742 -1.90128 0
M  V30 13421 C 1233.95 -2.21082 -2.70044 0
M  V30 13422 C 1235.3 -2.5562 -3.39033 0
M  V30 13423 O 1236.32 -2.19806 -2.80292 0
M  V30 13424 O 1235.18 -3.17106 -4.45091 0
M  V30 13425 H 1232.28 -0.450469 -0.693546 0
M  V30 13426 H 1234.82 -1.45487 -0.873597 0
M  V30 13427 H 1233.59 -3.17155 -2.2919 0
M  V30 13428 H 1233.22 -1.9307 -3.47577 0
M  V30 13429 N 1234.21 1.05064 -1.1747 0
M  V30 13430 C 1235.63 1.30256 -0.922248 0
M  V30 13431 C 1235.83 1.97119 0.417896 0
M  V30 13432 O 1234.89 2.24557 1.15457 0
M  V30 13433 C 1236.2 2.17109 -2.08049 0
M  V30 13434 C 1237.75 2.30487 -2.11766 0
M  V30 13435 C 1238.22 3.20701 -3.26979 0
M  V30 13436 N 1239.71 3.28287 -3.26775 0
M  V30 13437 C 1240.45 3.98218 -4.12565 0
M  V30 13438 N 1239.94 4.70567 -5.08467 0
M  V30 13439 N 1241.74 3.94395 -4.00511 0
M  V30 13440 H 1233.89 0.600653 -2.0373 0
M  V30 13441 H 1236.15 0.327475 -0.889643 0
M  V30 13442 H 1235.86 1.75273 -3.04914 0
M  V30 13443 H 1235.73 3.1775 -2.03261 0
M  V30 13444 H 1238.12 2.71564 -1.15486 0
M  V30 13445 H 1238.2 1.29471 -2.20615 0
M  V30 13446 H 1237.84 2.80337 -4.23525 0
M  V30 13447 H 1237.77 4.21725 -3.15366 0
M  V30 13448 H 1240.26 2.76739 -2.5734 0
M  V30 13449 H 1240.58 5.21492 -5.70321 0
M  V30 13450 H 1238.92 4.69505 -5.12436 0
M  V30 13451 H 1242.11 3.37 -3.24882 0
M  V30 13452 H 1242.29 4.48626 -4.67588 0
M  V30 13453 N 1235.69 0.975146 1.23809 0
M  V30 13454 C 1236.62 0.530389 2.27396 0
M  V30 13455 C 1237.6 -0.433763 1.64476 0
M  V30 13456 O 1238.79 -0.32827 1.91405 0
M  V30 13457 C 1235.92 -0.173066 3.46869 0
M  V30 13458 C 1234.87 0.707844 4.22106 0
M  V30 13459 C 1234.2 -0.127527 5.34548 0
M  V30 13460 C 1235.5 1.99609 4.82652 0
M  V30 13461 H 1237.19 1.39622 2.64851 0
M  V30 13462 H 1234.74 0.672802 1.27316 0
M  V30 13463 H 1236.69 -0.495481 4.18477 0
M  V30 13464 H 1235.41 -1.0733 3.0846 0
M  V30 13465 H 1234.07 1.01364 3.52308 0
M  V30 13466 H 1233.72 -1.02814 4.9238 0
M  V30 13467 H 1233.42 0.458728 5.85807 0
M  V30 13468 H 1234.95 -0.444443 6.0898 0
M  V30 13469 H 1236.36 1.73878 5.46296 0
M  V30 13470 H 1234.76 2.52969 5.44175 0
M  V30 13471 H 1235.83 2.68629 4.03691 0
M  V30 13472 N 1237.17 -1.38817 0.746158 0
M  V30 13473 C 1238.12 -2.30521 0.113517 0
M  V30 13474 C 1239.09 -1.49795 -0.717682 0
M  V30 13475 O 1240.27 -1.78448 -0.675345 0
M  V30 13476 C 1237.41 -3.36185 -0.779343 0
M  V30 13477 C 1236.52 -4.3195 0.0656784 0
M  V30 13478 C 1235.66 -5.24684 -0.829492 0
M  V30 13479 C 1234.7 -6.12097 0.0196112 0
M  V30 13480 N 1233.84 -6.97152 -0.832107 0
M  V30 13481 H 1238.68 -2.84048 0.901136 0
M  V30 13482 H 1236.21 -1.39853 0.456025 0
M  V30 13483 H 1238.17 -3.96048 -1.31156 0
M  V30 13484 H 1236.8 -2.84085 -1.53282 0
M  V30 13485 H 1235.85 -3.73611 0.715445 0
M  V30 13486 H 1237.16 -4.93551 0.721735 0
M  V30 13487 H 1236.32 -5.89627 -1.42915 0
M  V30 13488 H 1235.06 -4.63431 -1.5193 0
M  V30 13489 H 1234.06 -5.46156 0.631991 0
M  V30 13490 H 1235.29 -6.75416 0.706369 0
M  V30 13491 H 1233.23 -6.38456 -1.507 0
M  V30 13492 H 1233.15 -7.55642 -0.232782 0
M  V30 13493 H 1234.42 -7.66513 -1.41697 0
M  V30 13494 N 1238.65 -0.49465 -1.49636 0
M  V30 13495 C 1239.92 0.114829 -1.95263 0
M  V30 13496 C 1240.3 1.54739 -1.43593 0
M  V30 13497 O 1239.65 2.1915 -0.646953 0
M  V30 13498 C 1239.86 0.0339912 -3.48983 0
M  V30 13499 C 1241.21 0.211108 -4.24075 0
M  V30 13500 O 1242.23 0.109478 -3.56032 0
M  V30 13501 O 1241.09 0.418971 -5.44892 0
M  V30 13502 H 1238.19 0.0987883 -0.821078 0
M  V30 13503 H 1240.73 -0.556736 -1.60308 0
M  V30 13504 H 1239.51 -0.965287 -3.79207 0
M  V30 13505 H 1239.13 0.745982 -3.90539 0
M  V30 13506 N 1240.13 1.55939 -0.228214 0
M  V30 13507 C 1241.07 2.20581 0.679157 0
M  V30 13508 C 1242.04 1.16355 1.18536 0
M  V30 13509 O 1243.23 1.44735 1.24324 0
M  V30 13510 C 1240.37 2.89477 1.87875 0
M  V30 13511 C 1239.48 4.08313 1.41083 0
M  V30 13512 C 1238.62 4.64974 2.56851 0
M  V30 13513 C 1237.65 5.76098 2.06828 0
M  V30 13514 N 1236.79 6.27021 3.15894 0
M  V30 13515 H 1241.63 2.97753 0.121203 0
M  V30 13516 H 1239.17 1.47021 0.0480688 0
M  V30 13517 H 1241.13 3.2761 2.58317 0
M  V30 13518 H 1239.76 2.14811 2.40948 0
M  V30 13519 H 1238.81 3.75621 0.601102 0
M  V30 13520 H 1240.12 4.8859 1.00408 0
M  V30 13521 H 1239.27 5.05584 3.35365 0
M  V30 13522 H 1238.01 3.83875 3.00818 0
M  V30 13523 H 1237.02 5.34984 1.26778 0
M  V30 13524 H 1238.24 6.59037 1.63852 0
M  V30 13525 H 1236.19 5.48833 3.5933 0
M  V30 13526 H 1236.11 7.02439 2.79491 0
M  V30 13527 H 1237.37 6.72289 3.94523 0
M  V30 13528 N 1241.6 -0.0451101 1.57535 0
M  V30 13529 C 1242.85 -0.740209 1.88809 0
M  V30 13530 C 1243.18 -1.75854 0.823956 0
M  V30 13531 O 1242.46 -1.93817 -0.16286 0
M  V30 13532 C 1242.74 -1.42424 3.30737 0
M  V30 13533 C 1242.59 -0.42052 4.4783 0
M  V30 13534 C 1243.91 -2.36241 3.7132 0
M  V30 13535 H 1241.03 -0.267628 0.686691 0
M  V30 13536 H 1243.67 -0.00309149 1.9 0
M  V30 13537 H 1241.82 -2.05254 3.29853 0
M  V30 13538 H 1243.5 0.204625 4.60846 0
M  V30 13539 H 1241.74 0.261739 4.3301 0
M  V30 13540 H 1242.41 -0.937298 5.43984 0
M  V30 13541 H 1244.89 -1.83468 3.73468 0
M  V30 13542 H 1243.76 -2.81091 4.71465 0
M  V30 13543 H 1244.02 -3.2222 3.02699 0
M  V30 13544 N 1243.08 -1.54377 -0.317073 0
M  V30 13545 C 1244.03 -1.84948 -1.41057 0
M  V30 13546 C 1245.02 -0.721887 -1.53249 0
M  V30 13547 O 1246.23 -0.905648 -1.55557 0
M  V30 13548 H 1242.61 -0.586353 -0.470844 0
M  V30 13549 H 1244.58 -2.7638 -1.12501 0
M  V30 13550 C 1243.33 -2.09932 -2.77171 0
M  V30 13551 H 1242.65 -2.96162 -2.68566 0
M  V30 13552 H 1244.09 -2.35272 -3.52737 0
M  V30 13553 C 1242.55 -0.892855 -3.24853 0
M  V30 13554 O 1243.08 -0.105336 -4.01562 0
M  V30 13555 N 1241.28 -0.702685 -2.81976 0
M  V30 13556 H 1240.83 -1.34474 -2.19715 0
M  V30 13557 H 1240.79 0.103024 -3.14231 0
M  V30 13558 N 1244.56 0.579466 -1.4656 0
M  V30 13559 C 1245.51 1.70937 -1.57744 0
M  V30 13560 C 1246.5 1.6343 -0.44577 0
M  V30 13561 O 1247.71 1.68884 -0.622762 0
M  V30 13562 H 1244.08 0.565218 -0.496017 0
M  V30 13563 H 1246.05 1.58636 -2.52739 0
M  V30 13564 C 1244.8 3.09321 -1.58794 0
M  V30 13565 H 1244.13 3.1577 -2.45213 0
M  V30 13566 H 1245.57 3.88132 -1.70674 0
M  V30 13567 C 1244.03 3.35404 -0.317165 0
M  V30 13568 O 1244.56 3.97325 0.591228 0
M  V30 13569 N 1242.76 2.89883 -0.204071 0
M  V30 13570 H 1242.31 2.39672 -0.944194 0
M  V30 13571 H 1242.27 3.07706 0.645303 0
M  V30 13572 N 1246.04 1.3432 0.824371 0
M  V30 13573 C 1247.27 1.29669 1.61226 0
M  V30 13574 C 1247.68 -0.129532 1.88355 0
M  V30 13575 O 1247.04 -1.07616 1.47394 0
M  V30 13576 C 1247.09 2.08375 2.95402 0
M  V30 13577 O 1246.81 3.45434 2.69456 0
M  V30 13578 C 1248.31 2.11103 3.89808 0
M  V30 13579 H 1245.53 0.446137 0.501201 0
M  V30 13580 H 1248.08 1.76912 1.02579 0
M  V30 13581 H 1246.23 1.64777 3.5061 0
M  V30 13582 H 1246.64 3.86101 3.55001 0
M  V30 13583 H 1248.12 2.706 4.81124 0
M  V30 13584 H 1248.6 1.10505 4.25071 0
M  V30 13585 H 1249.2 2.54784 3.40537 0
M  V30 13586 N 1247.52 -1.0444 1.18026 0
M  V30 13587 C 1248.45 -2.14297 0.927314 0
M  V30 13588 C 1249.43 -1.69575 -0.13357 0
M  V30 13589 O 1250.61 -1.94191 0.0182439 0
M  V30 13590 C 1247.74 -3.44397 0.448134 0
M  V30 13591 C 1246.7 -4.02723 1.44907 0
M  V30 13592 C 1246.02 -5.28257 0.827555 0
M  V30 13593 C 1247.32 -4.39331 2.82463 0
M  V30 13594 H 1249.02 -2.35715 1.84605 0
M  V30 13595 H 1246.56 -1.13281 0.889012 0
M  V30 13596 H 1248.52 -4.20606 0.258554 0
M  V30 13597 H 1247.24 -3.22654 -0.506159 0
M  V30 13598 H 1245.9 -3.28591 1.62552 0
M  V30 13599 H 1245.55 -5.02822 -0.13381 0
M  V30 13600 H 1245.25 -5.68242 1.49581 0
M  V30 13601 H 1246.77 -6.07147 0.64842 0
M  V30 13602 H 1248.18 -5.06543 2.68491 0
M  V30 13603 H 1246.58 -4.90355 3.45936 0
M  V30 13604 H 1247.65 -3.4933 3.36299 0
M  V30 13605 N 1248.99 -0.981699 -1.2329 0
M  V30 13606 C 1250.22 -0.669025 -1.96313 0
M  V30 13607 C 1250.64 0.757624 -1.72168 0
M  V30 13608 O 1250 1.51626 -0.993942 0
M  V30 13609 C 1250.05 -0.966875 -3.47396 0
M  V30 13610 O 1249.15 -0.0595933 -4.12357 0
M  V30 13611 H 1248.5 -0.251493 -0.61453 0
M  V30 13612 H 1251.03 -1.31564 -1.56691 0
M  V30 13613 H 1251.04 -0.904112 -3.97857 0
M  V30 13614 H 1249.71 -2.00651 -3.64296 0
M  V30 13615 H 1248.29 -0.176878 -3.7248 0
M  V30 13616 N 1250.47 1.3842 -0.753509 0
M  V30 13617 C 1251.7 2.04403 -0.320449 0
M  V30 13618 C 1252.12 1.5683 1.05118 0
M  V30 13619 O 1251.47 0.741335 1.66765 0
M  V30 13620 C 1251.52 3.59954 -0.333937 0
M  V30 13621 O 1251.24 4.05782 -1.65144 0
M  V30 13622 C 1252.75 4.43156 0.112997 0
M  V30 13623 H 1249.97 0.656881 -0.136927 0
M  V30 13624 H 1252.51 1.77112 -1.02234 0
M  V30 13625 H 1250.66 3.86083 0.319215 0
M  V30 13626 H 1251.08 5.00213 -1.57757 0
M  V30 13627 H 1252.55 5.51975 0.0523995 0
M  V30 13628 H 1253.03 4.23581 1.16087 0
M  V30 13629 H 1253.64 4.22216 -0.511278 0
M  V30 13630 N 1251.95 0.502579 1.49372 0
M  V30 13631 C 1253.23 -0.104472 1.95321 0
M  V30 13632 C 1253.61 -1.53975 1.44412 0
M  V30 13633 O 1252.96 -2.18804 0.658566 0
M  V30 13634 C 1253.17 -0.0154833 3.48997 0
M  V30 13635 C 1254.51 -0.188615 4.24181 0
M  V30 13636 O 1255.54 -0.090595 3.56085 0
M  V30 13637 O 1254.4 -0.390068 5.45106 0
M  V30 13638 H 1251.49 -0.0944325 0.821591 0
M  V30 13639 H 1254.04 0.565229 1.6001 0
M  V30 13640 H 1252.81 0.985383 3.7869 0
M  V30 13641 H 1252.43 -0.72526 3.90929 0
M  V30 13642 N 1253.43 -1.55816 0.23648 0
M  V30 13643 C 1254.68 -1.97862 -0.391579 0
M  V30 13644 C 1254.99 -1.1276 -1.59827 0
M  V30 13645 O 1256.2 -1.44772 -2.29681 0
M  V30 13646 C 1254.65 -3.5204 -0.748065 0
M  V30 13647 C 1254.26 -4.45867 0.436643 0
M  V30 13648 C 1256 -4.02766 -1.3409 0
M  V30 13649 C 1253.91 -5.91373 0.0568909 0
M  V30 13650 H 1252.84 -0.738913 -0.150078 0
M  V30 13651 H 1255.49 -1.80415 0.335052 0
M  V30 13652 H 1253.87 -3.65143 -1.53254 0
M  V30 13653 H 1255.05 -4.44519 1.21408 0
M  V30 13654 H 1253.36 -4.05565 0.943702 0
M  V30 13655 H 1255.96 -5.08987 -1.63817 0
M  V30 13656 H 1256.3 -3.49496 -2.26182 0
M  V30 13657 H 1256.84 -3.92946 -0.619548 0
M  V30 13658 H 1253.58 -6.48657 0.944682 0
M  V30 13659 H 1253.1 -5.95881 -0.684557 0
M  V30 13660 H 1254.77 -6.45972 -0.364586 0
M  V30 13661 N 1254.91 0.036755 -1.57557 0
M  V30 13662 C 1256.32 0.584324 -1.7732 0
M  V30 13663 C 1256.67 1.76025 -0.86658 0
M  V30 13664 O 1255.79 2.16318 -0.059443 0
M  V30 13665 C 1256.39 1.06679 -3.21566 0
M  V30 13666 C 1254.95 1.55994 -3.42553 0
M  V30 13667 C 1254.09 0.494604 -2.72853 0
M  V30 13668 H 1257.05 -0.189473 -1.57565 0
M  V30 13669 H 1257.07 1.93446 -3.27657 0
M  V30 13670 H 1256.58 0.210727 -3.87527 0
M  V30 13671 H 1254.68 2.43811 -2.81757 0
M  V30 13672 H 1254.79 1.61274 -4.5114 0
M  V30 13673 H 1253.16 0.947865 -2.36406 0
M  V30 13674 H 1253.94 -0.351868 -3.41492 0
M  V30 13675 N 1256.39 1.54543 0.308881 0
M  V30 13676 C 1257.63 1.73449 1.04506 0
M  V30 13677 C 1257.96 0.516034 1.8753 0
M  V30 13678 O 1257.22 -0.502106 1.89149 0
M  V30 13679 C 1257.51 2.97124 1.98626 0
M  V30 13680 C 1257.18 4.31256 1.31641 0
M  V30 13681 C 1255.84 4.67719 1.13105 0
M  V30 13682 C 1258.19 5.14437 0.836888 0
M  V30 13683 C 1255.52 5.84949 0.452878 0
M  V30 13684 C 1257.87 6.32365 0.172473 0
M  V30 13685 C 1256.54 6.67495 -0.0249143 0
M  V30 13686 H 1255.81 0.634697 0.382415 0
M  V30 13687 H 1258.46 1.88795 0.320714 0
M  V30 13688 H 1256.76 2.76526 2.77562 0
M  V30 13689 H 1258.46 3.08946 2.55643 0
M  V30 13690 H 1255.05 4.02576 1.47074 0
M  V30 13691 H 1259.23 4.86772 0.967834 0
M  V30 13692 H 1254.49 6.10717 0.288886 0
M  V30 13693 H 1258.66 6.96092 -0.207027 0
M  V30 13694 H 1256.29 7.5819 -0.552425 0
M  V30 13695 N 1257.86 -0.571685 1.46866 0
M  V30 13696 C 1258.8 -1.69475 1.54307 0
M  V30 13697 C 1259.81 -1.57006 0.430449 0
M  V30 13698 O 1261 -1.64229 0.69936 0
M  V30 13699 C 1258.1 -3.07824 1.41766 0
M  V30 13700 C 1257.27 -3.46189 2.67342 0
M  V30 13701 C 1256.33 -4.63642 2.48843 0
M  V30 13702 O 1255.36 -4.68949 3.22608 0
M  V30 13703 N 1256.56 -5.59223 1.55724 0
M  V30 13704 H 1259.32 -1.63543 2.51145 0
M  V30 13705 H 1256.88 -0.757957 1.43062 0
M  V30 13706 H 1258.88 -3.84208 1.27146 0
M  V30 13707 H 1257.45 -3.08063 0.530667 0
M  V30 13708 H 1256.67 -2.59399 2.96826 0
M  V30 13709 H 1257.95 -3.68591 3.50739 0
M  V30 13710 H 1257.35 -5.5768 0.949175 0
M  V30 13711 H 1255.91 -6.34993 1.47063 0
M  V30 13712 N 1259.34 -1.34755 -0.817236 0
M  V30 13713 C 1260.27 -1.29452 -1.94331 0
M  V30 13714 C 1261.25 -0.170902 -1.69239 0
M  V30 13715 O 1262.44 -0.364173 -1.90755 0
M  V30 13716 C 1259.57 -1.05497 -3.30889 0
M  V30 13717 C 1258.52 -2.14386 -3.70436 0
M  V30 13718 C 1257.85 -1.75612 -5.05039 0
M  V30 13719 C 1259.15 -3.56265 -3.81933 0
M  V30 13720 H 1260.84 -2.23672 -1.99025 0
M  V30 13721 H 1258.39 -1.07674 -0.956159 0
M  V30 13722 H 1260.34 -1.0043 -4.09257 0
M  V30 13723 H 1259.06 -0.0772059 -3.26509 0
M  V30 13724 H 1257.72 -2.18532 -2.94345 0
M  V30 13725 H 1257.37 -0.764809 -4.97152 0
M  V30 13726 H 1257.07 -2.48495 -5.3247 0
M  V30 13727 H 1258.6 -1.72051 -5.85859 0
M  V30 13728 H 1260.01 -3.545 -4.50558 0
M  V30 13729 H 1258.41 -4.27818 -4.20822 0
M  V30 13730 H 1259.48 -3.93192 -2.83775 0
M  V30 13731 N 1260.82 1.03812 -1.18578 0
M  V30 13732 C 1262.04 1.8124 -1.00831 0
M  V30 13733 C 1262.47 1.82917 0.43853 0
M  V30 13734 O 1261.83 1.24835 1.31476 0
M  V30 13735 C 1261.88 3.24592 -1.57075 0
M  V30 13736 O 1260.98 4.04688 -0.793824 0
M  V30 13737 H 1260.32 0.559846 -0.357028 0
M  V30 13738 H 1262.85 1.30724 -1.57393 0
M  V30 13739 H 1262.86 3.75363 -1.59896 0
M  V30 13740 H 1261.54 3.22686 -2.62387 0
M  V30 13741 H 1260.11 3.63359 -0.838134 0
M  V30 13742 N 1262.3 0.988223 1.22768 0
M  V30 13743 C 1263.24 0.534605 2.24523 0
M  V30 13744 C 1264.21 -0.430615 1.60421 0
M  V30 13745 O 1265.4 -0.336417 1.87811 0
M  V30 13746 C 1262.54 -0.149195 3.44777 0
M  V30 13747 C 1261.65 0.85721 4.2341 0
M  V30 13748 C 1260.79 0.147411 5.30995 0
M  V30 13749 C 1259.83 1.1425 6.01343 0
M  V30 13750 N 1258.96 0.461327 7.00583 0
M  V30 13751 H 1263.8 1.40708 2.62689 0
M  V30 13752 H 1261.34 0.704918 1.2911 0
M  V30 13753 H 1263.3 -0.562527 4.1339 0
M  V30 13754 H 1261.93 -0.985485 3.07389 0
M  V30 13755 H 1260.98 1.38889 3.54138 0
M  V30 13756 H 1262.29 1.61517 4.71926 0
M  V30 13757 H 1261.45 -0.32289 6.0584 0
M  V30 13758 H 1260.19 -0.643085 4.83442 0
M  V30 13759 H 1259.19 1.62348 5.25284 0
M  V30 13760 H 1260.42 1.93379 6.50985 0
M  V30 13761 H 1258.36 -0.309818 6.55268 0
M  V30 13762 H 1258.28 1.15781 7.47082 0
M  V30 13763 H 1259.55 0.0136734 7.79499 0
M  V30 13764 N 1263.78 -1.38018 0.760839 0
M  V30 13765 C 1265.01 -2.03934 0.330804 0
M  V30 13766 C 1265.41 -1.57509 -1.04821 0
M  V30 13767 O 1264.76 -0.746718 -1.67839 0
M  V30 13768 C 1264.82 -3.58384 0.28303 0
M  V30 13769 C 1264.48 -4.27896 1.6048 0
M  V30 13770 C 1265.48 -4.52769 2.5553 0
M  V30 13771 C 1263.16 -4.65943 1.87624 0
M  V30 13772 C 1265.16 -5.14732 3.75938 0
M  V30 13773 C 1262.85 -5.27629 3.08304 0
M  V30 13774 C 1263.84 -5.51959 4.02281 0
M  V30 13775 O 1263.53 -6.12358 5.20838 0
M  V30 13776 H 1263.26 -0.661733 0.138148 0
M  V30 13777 H 1265.82 -1.77551 1.03271 0
M  V30 13778 H 1264.05 -3.83769 -0.47517 0
M  V30 13779 H 1265.74 -4.05727 -0.118464 0
M  V30 13780 H 1266.5 -4.23798 2.35839 0
M  V30 13781 H 1262.38 -4.46346 1.15308 0
M  V30 13782 H 1265.93 -5.33639 4.49305 0
M  V30 13783 H 1261.82 -5.56023 3.27886 0
M  V30 13784 H 1262.59 -6.30842 5.21517 0
M  V30 13785 N 1265.25 -0.510493 -1.49103 0
M  V30 13786 C 1266.5 0.030689 -2.02777 0
M  V30 13787 C 1266.83 1.35765 -1.38858 0
M  V30 13788 O 1266.11 1.87209 -0.527528 0
M  V30 13789 C 1266.39 0.173261 -3.59683 0
M  V30 13790 C 1266.24 -1.17749 -4.34114 0
M  V30 13791 C 1267.56 0.909395 -4.30602 0
M  V30 13792 H 1264.68 0.0096789 -0.736936 0
M  V30 13793 H 1267.32 -0.663746 -1.78029 0
M  V30 13794 H 1265.47 0.764721 -3.80899 0
M  V30 13795 H 1267.15 -1.80856 -4.24369 0
M  V30 13796 H 1265.39 -1.76438 -3.96298 0
M  V30 13797 H 1266.06 -1.03094 -5.42287 0
M  V30 13798 H 1268.54 0.407677 -4.14098 0
M  V30 13799 H 1267.41 0.978012 -5.40117 0
M  V30 13800 H 1267.67 1.9553 -3.96511 0
M  V30 13801 N 1266.73 1.55688 -0.24474 0
M  V30 13802 C 1268.01 1.90796 0.430821 0
M  V30 13803 C 1268.39 1.1652 1.76029 0
M  V30 13804 O 1267.74 0.281978 2.26753 0
M  V30 13805 C 1267.95 3.43786 0.601027 0
M  V30 13806 C 1269.29 4.14998 0.897894 0
M  V30 13807 O 1270.32 3.49513 0.68697 0
M  V30 13808 O 1269.18 5.30826 1.29945 0
M  V30 13809 H 1266.27 0.794086 0.230991 0
M  V30 13810 H 1268.82 1.67227 -0.288646 0
M  V30 13811 H 1267.59 3.89856 -0.335804 0
M  V30 13812 H 1267.21 3.73211 1.37112 0
M  V30 13813 N 1268.21 -0.0283989 1.57574 0
M  V30 13814 C 1269.16 -1.04723 2.07692 0
M  V30 13815 C 1270.15 -1.37399 0.990847 0
M  V30 13816 O 1271.36 -1.36297 1.17572 0
M  V30 13817 H 1267.73 -0.355251 0.662798 0
M  V30 13818 H 1269.7 -0.598737 2.92331 0
M  V30 13819 C 1268.45 -2.33941 2.57229 0
M  V30 13820 H 1267.78 -2.09659 3.40416 0
M  V30 13821 H 1269.22 -3.03574 2.96005 0
M  V30 13822 C 1267.67 -3.02953 1.47381 0
M  V30 13823 O 1268.2 -3.9281 0.840431 0
M  V30 13824 N 1266.41 -2.64294 1.20819 0
M  V30 13825 H 1265.96 -1.91307 1.72509 0
M  V30 13826 H 1265.92 -3.10786 0.475353 0
M  V30 13827 N 1269.69 -1.54705 -0.300681 0
M  V30 13828 C 1270.62 -1.8205 -1.39249 0
M  V30 13829 C 1271.63 -0.703476 -1.46816 0
M  V30 13830 O 1272.82 -0.980957 -1.49129 0
M  V30 13831 C 1269.92 -1.94376 -2.77617 0
M  V30 13832 C 1269.09 -3.2478 -2.92979 0
M  V30 13833 C 1268.15 -3.27518 -4.11848 0
M  V30 13834 O 1267.18 -4.01047 -4.03918 0
M  V30 13835 N 1268.38 -2.52932 -5.22499 0
M  V30 13836 H 1271.15 -2.76279 -1.16146 0
M  V30 13837 H 1268.71 -1.54283 -0.49075 0
M  V30 13838 H 1270.7 -1.93609 -3.55384 0
M  V30 13839 H 1269.27 -1.07141 -2.93666 0
M  V30 13840 H 1268.49 -3.38319 -2.02322 0
M  V30 13841 H 1269.78 -4.10835 -3.00153 0
M  V30 13842 H 1269.18 -1.92825 -5.31822 0
M  V30 13843 H 1267.73 -2.57919 -5.98599 0
M  V30 13844 N 1271.17 0.563888 -1.47167 0
M  V30 13845 C 1272.58 0.889156 -1.32537 0
M  V30 13846 C 1272.78 1.99088 -0.310854 0
M  V30 13847 O 1271.84 2.50943 0.27998 0
M  V30 13848 C 1273.15 1.28871 -2.71685 0
M  V30 13849 C 1274.7 1.40051 -2.79919 0
M  V30 13850 C 1275.17 1.83364 -4.19692 0
M  V30 13851 N 1276.67 1.90526 -4.22201 0
M  V30 13852 C 1277.4 2.25355 -5.2726 0
M  V30 13853 N 1276.9 2.58844 -6.42629 0
M  V30 13854 N 1278.69 2.26071 -5.14634 0
M  V30 13855 H 1270.84 -0.163581 -2.11769 0
M  V30 13856 H 1273.1 -0.0105151 -0.947942 0
M  V30 13857 H 1272.81 0.553057 -3.47324 0
M  V30 13858 H 1272.68 2.24629 -3.03021 0
M  V30 13859 H 1275.07 2.12698 -2.04557 0
M  V30 13860 H 1275.15 0.424971 -2.52245 0
M  V30 13861 H 1274.8 1.11289 -4.95557 0
M  V30 13862 H 1274.73 2.81909 -4.44786 0
M  V30 13863 H 1277.22 1.67059 -3.38968 0
M  V30 13864 H 1277.53 2.84427 -7.18555 0
M  V30 13865 H 1275.87 2.56439 -6.4596 0
M  V30 13866 H 1279.07 1.99343 -4.23533 0
M  V30 13867 H 1279.24 2.52885 -5.96618 0
M  V30 13868 N 1272.64 1.35187 0.810078 0
M  V30 13869 C 1273.57 1.30481 1.93641 0
M  V30 13870 C 1274.56 0.179875 1.69146 0
M  V30 13871 O 1275.74 0.374284 1.90559 0
M  V30 13872 C 1272.87 1.07251 3.30325 0
M  V30 13873 C 1271.82 2.16348 3.69293 0
M  V30 13874 C 1271.15 1.78288 5.04101 0
M  V30 13875 C 1272.45 3.58285 3.80038 0
M  V30 13876 H 1274.14 2.24725 1.97836 0
M  V30 13877 H 1271.69 1.08179 0.950436 0
M  V30 13878 H 1273.64 1.02599 4.08719 0
M  V30 13879 H 1272.37 0.0945203 3.26463 0
M  V30 13880 H 1271.03 2.2009 2.93182 0
M  V30 13881 H 1270.67 0.791163 4.96739 0
M  V30 13882 H 1270.37 2.51315 5.31144 0
M  V30 13883 H 1271.9 1.75155 5.84938 0
M  V30 13884 H 1273.31 3.56884 4.48672 0
M  V30 13885 H 1271.71 4.30044 4.18548 0
M  V30 13886 H 1272.78 3.94691 2.81685 0
M  V30 13887 N 1274.12 -1.03182 1.19127 0
M  V30 13888 C 1275.05 -2.13301 0.94999 0
M  V30 13889 C 1276.03 -1.69707 -0.115577 0
M  V30 13890 O 1277.22 -1.94161 0.0388395 0
M  V30 13891 C 1274.35 -3.43902 0.484637 0
M  V30 13892 C 1273.3 -4.01164 1.4917 0
M  V30 13893 C 1272.63 -5.2735 0.883537 0
M  V30 13894 C 1273.93 -4.36311 2.87107 0
M  V30 13895 H 1275.62 -2.33743 1.87095 0
M  V30 13896 H 1273.17 -1.12332 0.900977 0
M  V30 13897 H 1275.12 -4.20308 0.30315 0
M  V30 13898 H 1273.85 -3.23173 -0.471909 0
M  V30 13899 H 1272.5 -3.26849 1.66028 0
M  V30 13900 H 1272.15 -5.02936 -0.0804712 0
M  V30 13901 H 1271.85 -5.66624 1.55599 0
M  V30 13902 H 1273.38 -6.06425 0.71278 0
M  V30 13903 H 1274.79 -5.03666 2.73848 0
M  V30 13904 H 1273.19 -4.86659 3.51117 0
M  V30 13905 H 1274.26 -3.45743 3.39985 0
M  V30 13906 N 1275.6 -0.99472 -1.22242 0
M  V30 13907 C 1276.83 -0.689809 -1.95592 0
M  V30 13908 C 1277.25 0.739321 -1.72961 0
M  V30 13909 O 1276.61 1.50563 -1.00997 0
M  V30 13910 C 1276.66 -1.00367 -3.46351 0
M  V30 13911 O 1275.76 -0.103326 -4.12271 0
M  V30 13912 H 1275.1 -0.257997 -0.611828 0
M  V30 13913 H 1277.63 -1.33219 -1.55286 0
M  V30 13914 H 1277.64 -0.946259 -3.96875 0
M  V30 13915 H 1276.32 -2.04504 -3.62148 0
M  V30 13916 H 1274.89 -0.216374 -3.72272 0
M  V30 13917 N 1277.08 1.37613 -0.768148 0
M  V30 13918 C 1278.31 2.04052 -0.342111 0
M  V30 13919 C 1278.72 1.57936 1.03449 0
M  V30 13920 O 1278.08 0.758981 1.65969 0
M  V30 13921 C 1278.13 3.5958 -0.372096 0
M  V30 13922 O 1277.85 4.04008 -1.69439 0
M  V30 13923 C 1279.35 4.43251 0.0659884 0
M  V30 13924 H 1276.57 0.655391 -0.143886 0
M  V30 13925 H 1279.12 1.76017 -1.04107 0
M  V30 13926 H 1277.27 3.86399 0.278248 0
M  V30 13927 H 1277.68 4.98511 -1.63054 0
M  V30 13928 H 1279.16 5.52 -0.00614775 0
M  V30 13929 H 1279.64 4.24788 1.11588 0
M  V30 13930 H 1280.24 4.2165 -0.55603 0
M  V30 13931 N 1278.56 0.518393 1.4883 0
M  V30 13932 C 1279.8 -0.0199053 2.0249 0
M  V30 13933 C 1280.13 -1.35375 1.39657 0
M  V30 13934 O 1279.39 -1.88454 0.527586 0
M  V30 13935 C 1279.69 -0.203001 3.56823 0
M  V30 13936 C 1279.35 1.05502 4.38384 0
M  V30 13937 C 1278.01 1.39982 4.60389 0
M  V30 13938 C 1280.37 1.89042 4.85708 0
M  V30 13939 C 1277.69 2.57922 5.26966 0
M  V30 13940 C 1280.05 3.06151 5.53583 0
M  V30 13941 C 1278.71 3.40991 5.73831 0
M  V30 13942 H 1277.98 -0.00728388 0.740964 0
M  V30 13943 H 1280.63 0.682073 1.78941 0
M  V30 13944 H 1278.93 -0.987653 3.79147 0
M  V30 13945 H 1280.63 -0.634234 3.95953 0
M  V30 13946 H 1277.22 0.77647 4.21508 0
M  V30 13947 H 1281.4 1.63716 4.6852 0
M  V30 13948 H 1276.66 2.85132 5.40842 0
M  V30 13949 H 1280.83 3.71198 5.89224 0
M  V30 13950 H 1278.46 4.32479 6.25193 0
M  V30 13951 N 1280.03 -1.55556 0.252993 0
M  V30 13952 C 1281.26 -2.03491 -0.374022 0
M  V30 13953 C 1281.68 -1.13208 -1.51094 0
M  V30 13954 O 1281.03 -0.147705 -1.81901 0
M  V30 13955 C 1281.09 -3.50724 -0.876047 0
M  V30 13956 O 1280.81 -4.37569 0.215574 0
M  V30 13957 C 1282.31 -4.14448 -1.57313 0
M  V30 13958 H 1279.53 -0.665183 -0.0881644 0
M  V30 13959 H 1282.07 -2.00964 0.378636 0
M  V30 13960 H 1280.23 -3.53766 -1.57886 0
M  V30 13961 H 1280.64 -5.24235 -0.166625 0
M  V30 13962 H 1282.11 -5.19142 -1.87606 0
M  V30 13963 H 1282.59 -3.61299 -2.49719 0
M  V30 13964 H 1283.2 -4.15346 -0.914735 0
M  V30 13965 N 1281.51 0.0200419 -1.57587 0
M  V30 13966 C 1282.42 1.0346 -2.10555 0
M  V30 13967 C 1283.44 1.39035 -1.0462 0
M  V30 13968 O 1284.61 1.48172 -1.36407 0
M  V30 13969 C 1281.68 2.31389 -2.58186 0
M  V30 13970 C 1280.74 2.02311 -3.7864 0
M  V30 13971 C 1279.97 3.24141 -4.23991 0
M  V30 13972 O 1280.2 4.35132 -3.68803 0
M  V30 13973 O 1279.13 3.09312 -5.16342 0
M  V30 13974 H 1282.96 0.614419 -2.9742 0
M  V30 13975 H 1280.54 0.237604 -1.47498 0
M  V30 13976 H 1282.42 3.06582 -2.89112 0
M  V30 13977 H 1281.1 2.72684 -1.74428 0
M  V30 13978 H 1280.01 1.24658 -3.5272 0
M  V30 13979 H 1281.34 1.65866 -4.6341 0
M  V30 13980 N 1282.99 1.54862 0.292472 0
M  V30 13981 C 1284.22 1.78291 1.04383 0
M  V30 13982 C 1284.63 0.546703 1.81129 0
M  V30 13983 O 1283.97 -0.493286 1.76953 0
M  V30 13984 C 1284.03 2.94321 2.06435 0
M  V30 13985 C 1283.7 4.32095 1.48806 0
M  V30 13986 C 1284.69 5.11808 0.91369 0
M  V30 13987 C 1282.38 4.78714 1.52112 0
M  V30 13988 C 1284.37 6.36266 0.380053 0
M  V30 13989 C 1282.06 6.03132 0.983613 0
M  V30 13990 C 1283.06 6.81744 0.41406 0
M  V30 13991 O 1282.75 8.03817 -0.115268 0
M  V30 13992 H 1282.48 0.598147 0.314954 0
M  V30 13993 H 1285.03 2.02655 0.334661 0
M  V30 13994 H 1283.26 2.65602 2.81056 0
M  V30 13995 H 1284.95 3.05249 2.67541 0
M  V30 13996 H 1285.72 4.76931 0.880988 0
M  V30 13997 H 1281.6 4.17549 1.95382 0
M  V30 13998 H 1285.14 6.9757 -0.0651481 0
M  V30 13999 H 1281.04 6.37494 1.01349 0
M  V30 14000 H 1281.81 8.185 -0.00277496 0
M  V30 14001 N 1284.47 -0.556076 1.47464 0
M  V30 14002 C 1285.72 -1.30955 1.53407 0
M  V30 14003 C 1286.03 -1.94559 0.201485 0
M  V30 14004 O 1287.24 -2.71144 0.138925 0
M  V30 14005 C 1285.69 -2.37476 2.70431 0
M  V30 14006 C 1285.3 -1.80057 4.10224 0
M  V30 14007 C 1287.04 -3.13997 2.85668 0
M  V30 14008 C 1284.95 -2.84365 5.18547 0
M  V30 14009 H 1283.88 -0.4924 0.571015 0
M  V30 14010 H 1286.53 -0.590459 1.73741 0
M  V30 14011 H 1284.91 -3.12304 2.43479 0
M  V30 14012 H 1286.09 -1.11593 4.47083 0
M  V30 14013 H 1284.4 -1.16116 3.99882 0
M  V30 14014 H 1287 -3.91892 3.63764 0
M  V30 14015 H 1287.34 -3.68253 1.94153 0
M  V30 14016 H 1287.88 -2.46281 3.12395 0
M  V30 14017 H 1284.62 -2.34963 6.11942 0
M  V30 14018 H 1284.14 -3.51235 4.86203 0
M  V30 14019 H 1285.81 -3.47836 5.45545 0
M  V30 14020 N 1285.95 -1.35615 -0.802897 0
M  V30 14021 C 1286.89 -1.28839 -1.91492 0
M  V30 14022 C 1287.86 -0.159621 -1.65331 0
M  V30 14023 O 1289.05 -0.343931 -1.87675 0
M  V30 14024 C 1286.19 -1.06999 -3.28093 0
M  V30 14025 C 1285.3 -2.28831 -3.66416 0
M  V30 14026 C 1284.44 -2.00111 -4.92066 0
M  V30 14027 C 1283.48 -3.17977 -5.23027 0
M  V30 14028 N 1282.61 -2.89009 -6.39858 0
M  V30 14029 H 1287.45 -2.2393 -1.96619 0
M  V30 14030 H 1284.99 -1.1131 -0.961687 0
M  V30 14031 H 1286.95 -0.923673 -4.06847 0
M  V30 14032 H 1285.58 -0.155684 -3.22424 0
M  V30 14033 H 1284.63 -2.54314 -2.82893 0
M  V30 14034 H 1285.94 -3.1683 -3.85253 0
M  V30 14035 H 1285.1 -1.82331 -5.78654 0
M  V30 14036 H 1283.84 -1.09402 -4.75271 0
M  V30 14037 H 1282.84 -3.3633 -4.34928 0
M  V30 14038 H 1284.07 -4.09493 -5.41749 0
M  V30 14039 H 1282.01 -2.00898 -6.24481 0
M  V30 14040 H 1281.93 -3.70544 -6.58964 0
M  V30 14041 H 1283.2 -2.74779 -7.29463 0
M  V30 14042 N 1287.43 1.02549 -1.19673 0
M  V30 14043 C 1288.37 2.13015 -0.934209 0
M  V30 14044 C 1289.37 1.69035 0.111208 0
M  V30 14045 O 1290.57 1.79959 -0.0383449 0
M  V30 14046 H 1286.95 0.696015 -0.284722 0
M  V30 14047 H 1288.92 2.32346 -1.87238 0
M  V30 14048 C 1287.67 3.44185 -0.493124 0
M  V30 14049 H 1286.99 3.78447 -1.28911 0
M  V30 14050 H 1288.43 4.22565 -0.348577 0
M  V30 14051 C 1286.89 3.27427 0.793277 0
M  V30 14052 O 1287.42 3.56362 1.85388 0
M  V30 14053 N 1285.63 2.80706 0.751837 0
M  V30 14054 H 1285.17 2.57359 -0.111517 0
M  V30 14055 H 1285.13 2.69874 1.61292 0
M  V30 14056 N 1288.9 1.00119 1.21713 0
M  V30 14057 C 1290.15 0.67713 1.89994 0
M  V30 14058 C 1290.47 -0.795149 1.78709 0
M  V30 14059 O 1291.67 -1.23113 2.41982 0
M  V30 14060 C 1290.13 1.16065 3.40671 0
M  V30 14061 C 1289.74 2.65874 3.60576 0
M  V30 14062 C 1291.48 0.911302 4.14603 0
M  V30 14063 C 1289.39 3.07785 5.04997 0
M  V30 14064 H 1288.32 0.249572 0.711498 0
M  V30 14065 H 1290.97 1.21185 1.37792 0
M  V30 14066 H 1289.35 0.554005 3.92106 0
M  V30 14067 H 1290.52 3.31954 3.19598 0
M  V30 14068 H 1288.84 2.88781 2.99991 0
M  V30 14069 H 1291.44 1.20004 5.2106 0
M  V30 14070 H 1291.78 -0.152495 4.16021 0
M  V30 14071 H 1292.31 1.48055 3.69222 0
M  V30 14072 H 1289.05 4.13376 5.08724 0
M  V30 14073 H 1288.57 2.46414 5.46846 0
M  V30 14074 H 1290.25 2.99552 5.73479 0
M  V30 14075 N 1290.38 -1.37203 0.775435 0
M  V30 14076 C 1291.63 -1.98846 0.338093 0
M  V30 14077 C 1291.94 -1.6225 -1.09244 0
M  V30 14078 O 1293.15 -2.17024 -1.63135 0
M  V30 14079 C 1291.61 -3.55618 0.553541 0
M  V30 14080 C 1291.21 -4.01149 1.99457 0
M  V30 14081 C 1292.96 -4.24118 0.180006 0
M  V30 14082 C 1290.86 -5.50644 2.15742 0
M  V30 14083 H 1289.79 -0.743955 0.122669 0
M  V30 14084 H 1292.45 -1.56685 0.955087 0
M  V30 14085 H 1290.83 -3.95777 -0.132964 0
M  V30 14086 H 1292 -3.72226 2.71633 0
M  V30 14087 H 1290.32 -3.45443 2.32504 0
M  V30 14088 H 1292.91 -5.33966 0.280145 0
M  V30 14089 H 1293.26 -4.07104 -0.870192 0
M  V30 14090 H 1293.79 -3.89274 0.819201 0
M  V30 14091 H 1290.53 -5.7259 3.19094 0
M  V30 14092 H 1290.05 -5.8124 1.48054 0
M  V30 14093 H 1291.73 -6.16668 1.95781 0
M  V30 14094 N 1291.86 -0.526279 -1.48553 0
M  V30 14095 C 1292.81 0.251938 -2.31232 0
M  V30 14096 C 1293.8 0.938991 -1.40994 0
M  V30 14097 O 1295.01 0.863798 -1.57919 0
M  V30 14098 H 1291.38 0.100114 -0.745306 0
M  V30 14099 H 1293.35 -0.465013 -2.94754 0
M  V30 14100 C 1292.1 1.28816 -3.22958 0
M  V30 14101 H 1291.43 0.768899 -3.92337 0
M  V30 14102 H 1292.87 1.80417 -3.837 0
M  V30 14103 C 1291.32 2.31982 -2.44307 0
M  V30 14104 O 1291.85 3.3835 -2.16523 0
M  V30 14105 N 1290.06 2.051 -2.05869 0
M  V30 14106 H 1289.61 1.18618 -2.28665 0
M  V30 14107 H 1289.57 2.74349 -1.53557 0
M  V30 14108 N 1293.34 1.5542 -0.261239 0
M  V30 14109 C 1294.57 2.03687 0.363225 0
M  V30 14110 C 1294.98 1.14007 1.50492 0
M  V30 14111 O 1294.34 0.157349 1.8182 0
M  V30 14112 C 1294.39 3.51184 0.857435 0
M  V30 14113 O 1294.11 4.37449 -0.238776 0
M  V30 14114 C 1295.61 4.15277 1.55113 0
M  V30 14115 H 1292.83 0.665641 0.0846356 0
M  V30 14116 H 1295.37 2.00761 -0.389288 0
M  V30 14117 H 1293.53 3.54599 1.56008 0
M  V30 14118 H 1293.94 5.24316 0.138821 0
M  V30 14119 H 1295.42 5.20129 1.8485 0
M  V30 14120 H 1295.89 3.62619 2.47799 0
M  V30 14121 H 1296.5 4.15826 0.892695 0
M  V30 14122 N 1294.82 -0.0116844 1.57596 0
M  V30 14123 C 1296.04 -0.713924 1.94725 0
M  V30 14124 C 1296.47 -1.67157 0.862565 0
M  V30 14125 O 1295.82 -1.80401 -0.180308 0
M  V30 14126 C 1295.87 -1.43214 3.30941 0
M  V30 14127 O 1294.98 -2.5461 3.24419 0
M  V30 14128 H 1294.32 -0.190772 0.636005 0
M  V30 14129 H 1296.85 0.0380247 2.04565 0
M  V30 14130 H 1296.86 -1.79819 3.66237 0
M  V30 14131 H 1295.53 -0.729906 4.09445 0
M  V30 14132 H 1294.11 -2.20419 3.00782 0
M  V30 14133 N 1296.29 -1.55015 -0.284256 0
M  V30 14134 C 1297.54 -1.74297 -1.01506 0
M  V30 14135 C 1297.86 -0.545134 -1.8785 0
M  V30 14136 O 1299.06 -0.620118 -2.64323 0
M  V30 14137 C 1297.52 -3.08438 -1.85456 0
M  V30 14138 C 1297.13 -4.35753 -1.04034 0
M  V30 14139 C 1298.87 -3.37073 -2.58035 0
M  V30 14140 C 1296.78 -5.60938 -1.87358 0
M  V30 14141 H 1295.71 -0.649656 -0.382705 0
M  V30 14142 H 1298.36 -1.81484 -0.271239 0
M  V30 14143 H 1296.74 -2.95259 -2.63891 0
M  V30 14144 H 1297.91 -4.59816 -0.300954 0
M  V30 14145 H 1296.23 -4.14178 -0.429616 0
M  V30 14146 H 1298.83 -4.27806 -3.20759 0
M  V30 14147 H 1299.17 -2.56698 -3.27738 0
M  V30 14148 H 1299.7 -3.51299 -1.86638 0
M  V30 14149 H 1296.44 -6.44029 -1.22096 0
M  V30 14150 H 1295.96 -5.41035 -2.58923 0
M  V30 14151 H 1297.64 -5.98819 -2.44999 0
M  V30 14152 N 1297.77 0.548248 -1.47757 0
M  V30 14153 C 1298.7 1.66409 -1.63799 0
M  V30 14154 C 1299.68 1.62973 -0.487211 0
M  V30 14155 O 1300.87 1.80455 -0.717612 0
M  V30 14156 C 1298 3.05035 -1.66046 0
M  V30 14157 C 1296.95 3.23322 -2.80441 0
M  V30 14158 C 1296.28 4.62824 -2.67765 0
M  V30 14159 C 1297.58 3.07837 -4.2194 0
M  V30 14160 H 1299.27 1.53239 -2.57212 0
M  V30 14161 H 1296.82 0.735783 -1.23783 0
M  V30 14162 H 1298.77 3.82951 -1.75859 0
M  V30 14163 H 1297.49 3.19185 -0.69199 0
M  V30 14164 H 1296.15 2.47816 -2.70153 0
M  V30 14165 H 1295.8 4.73786 -1.68927 0
M  V30 14166 H 1295.5 4.76007 -3.44515 0
M  V30 14167 H 1297.03 5.42864 -2.7952 0
M  V30 14168 H 1298.44 3.75563 -4.33157 0
M  V30 14169 H 1296.84 3.32525 -4.99547 0
M  V30 14170 H 1297.91 2.04474 -4.3968 0
M  V30 14171 N 1299.25 1.36039 0.795694 0
M  V30 14172 C 1300.2 1.29902 1.92946 0
M  V30 14173 C 1301.19 0.191943 1.68309 0
M  V30 14174 O 1302.4 0.358577 1.76392 0
M  V30 14175 H 1298.77 0.404252 0.634101 0
M  V30 14176 H 1300.74 2.25663 1.95241 0
M  V30 14177 C 1299.49 1.09887 3.29879 0
M  V30 14178 H 1298.82 1.94318 3.494 0
M  V30 14179 H 1300.26 1.09638 4.0958 0
M  V30 14180 C 1298.71 -0.196802 3.36325 0
M  V30 14181 O 1299.24 -1.18883 3.83705 0
M  V30 14182 N 1297.45 -0.239325 2.89613 0
M  V30 14183 H 1297 0.568571 2.51247 0
M  V30 14184 H 1296.96 -1.10593 2.94307 0
M  V30 14185 N 1300.73 -1.01913 1.20215 0
M  V30 14186 C 1301.66 -2.12282 0.97256 0
M  V30 14187 C 1302.64 -1.6982 -0.0975709 0
M  V30 14188 O 1303.82 -1.94109 0.0594307 0
M  V30 14189 C 1300.95 -3.43369 0.521085 0
M  V30 14190 C 1299.91 -3.99559 1.53417 0
M  V30 14191 C 1299.23 -5.26383 0.93942 0
M  V30 14192 C 1300.53 -4.33241 2.91718 0
M  V30 14193 H 1302.23 -2.31746 1.89563 0
M  V30 14194 H 1299.77 -1.1137 0.912841 0
M  V30 14195 H 1301.73 -4.19963 0.347713 0
M  V30 14196 H 1300.45 -3.23655 -0.437605 0
M  V30 14197 H 1299.11 -3.25069 1.69486 0
M  V30 14198 H 1298.76 -5.02993 -0.0271236 0
M  V30 14199 H 1298.46 -5.64942 1.616 0
M  V30 14200 H 1299.98 -6.05635 0.777059 0
M  V30 14201 H 1301.4 -5.00734 2.79175 0
M  V30 14202 H 1299.79 -4.82907 3.56259 0
M  V30 14203 H 1300.86 -3.42118 3.43633 0
M  V30 14204 N 1302.21 -1.00763 -1.2118 0
M  V30 14205 C 1303.62 -0.720905 -1.42391 0
M  V30 14206 C 1303.82 0.702918 -1.88842 0
M  V30 14207 O 1302.88 1.47191 -2.05161 0
M  V30 14208 C 1304.19 -1.739 -2.45315 0
M  V30 14209 C 1305.74 -1.75611 -2.59094 0
M  V30 14210 C 1306.21 -2.76323 -3.65253 0
M  V30 14211 N 1307.71 -2.75007 -3.72727 0
M  V30 14212 C 1308.44 -3.49594 -4.54502 0
M  V30 14213 N 1307.94 -4.33828 -5.40153 0
M  V30 14214 N 1309.73 -3.38232 -4.4895 0
M  V30 14215 H 1301.88 -1.92697 -0.893404 0
M  V30 14216 H 1304.14 -0.831888 -0.454606 0
M  V30 14217 H 1303.85 -2.75859 -2.18162 0
M  V30 14218 H 1303.72 -1.5438 -3.44161 0
M  V30 14219 H 1306.11 -0.743416 -2.85582 0
M  V30 14220 H 1306.19 -1.99203 -1.60474 0
M  V30 14221 H 1305.84 -3.77751 -3.39509 0
M  V30 14222 H 1305.77 -2.49996 -4.63476 0
M  V30 14223 H 1308.26 -2.13897 -3.11539 0
M  V30 14224 H 1308.57 -4.8753 -5.99612 0
M  V30 14225 H 1306.91 -4.3791 -5.39685 0
M  V30 14226 H 1310.11 -2.71855 -3.81068 0
M  V30 14227 H 1310.28 -3.96615 -5.12445 0
M  V30 14228 N 1303.68 1.3679 -0.7827 0
M  V30 14229 C 1304.91 2.03382 -0.363207 0
M  V30 14230 C 1305.32 1.59157 1.02302 0
M  V30 14231 O 1304.67 0.773325 1.66629 0
M  V30 14232 C 1304.73 3.57889 -0.34001 0
M  V30 14233 C 1304.39 4.25289 -1.67268 0
M  V30 14234 C 1305.39 4.48647 -2.62701 0
M  V30 14235 C 1303.07 4.62899 -1.95013 0
M  V30 14236 C 1305.07 5.08686 -3.8408 0
M  V30 14237 C 1302.75 5.22657 -3.16659 0
M  V30 14238 C 1303.75 5.45489 -4.11012 0
M  V30 14239 O 1303.44 6.03995 -5.30515 0
M  V30 14240 H 1303.17 0.659452 -0.148658 0
M  V30 14241 H 1305.73 1.75885 -1.06082 0
M  V30 14242 H 1303.96 3.84477 0.414055 0
M  V30 14243 H 1305.65 4.05864 0.0539009 0
M  V30 14244 H 1306.41 4.19993 -2.42551 0
M  V30 14245 H 1302.29 4.44455 -1.22395 0
M  V30 14246 H 1305.83 5.26423 -4.57738 0
M  V30 14247 H 1301.73 5.50736 -3.3669 0
M  V30 14248 H 1302.5 6.22466 -5.31487 0
M  V30 14249 N 1305.16 0.53415 1.48272 0
M  V30 14250 C 1306.07 -0.230062 2.33469 0
M  V30 14251 C 1307.09 -0.934889 1.46751 0
M  V30 14252 O 1308.26 -0.908921 1.79724 0
M  V30 14253 C 1305.33 -1.2609 3.22958 0
M  V30 14254 C 1304.39 -0.565983 4.25553 0
M  V30 14255 C 1303.62 -1.54771 5.10766 0
M  V30 14256 O 1303.85 -2.7807 4.9803 0
M  V30 14257 O 1302.78 -1.08482 5.92043 0
M  V30 14258 H 1306.61 0.468182 3.0007 0
M  V30 14259 H 1304.19 0.29502 1.46458 0
M  V30 14260 H 1306.07 -1.85652 3.783 0
M  V30 14261 H 1304.75 -1.94148 2.59014 0
M  V30 14262 H 1303.66 0.0702391 3.74034 0
M  V30 14263 H 1304.99 0.0727277 4.92146 0
M  V30 14264 N 1306.64 -1.55279 0.269478 0
M  V30 14265 C 1307.87 -2.04334 -0.355313 0
M  V30 14266 C 1308.29 -1.14677 -1.491 0
M  V30 14267 O 1307.65 -0.144215 -1.80726 0
M  V30 14268 C 1307.7 -3.51172 -0.819162 0
M  V30 14269 O 1306.8 -3.64615 -1.9269 0
M  V30 14270 H 1306.14 -0.659827 -0.0743229 0
M  V30 14271 H 1308.67 -2.00609 0.402131 0
M  V30 14272 H 1308.68 -3.92428 -1.11642 0
M  V30 14273 H 1307.36 -4.15898 0.0117821 0
M  V30 14274 H 1305.93 -3.35261 -1.63261 0
M  V30 14275 N 1308.12 0.00332656 -1.576 0
M  V30 14276 C 1309.07 1.01406 -2.09331 0
M  V30 14277 C 1310.06 1.35806 -1.01258 0
M  V30 14278 O 1311.27 1.34409 -1.19726 0
M  V30 14279 H 1307.64 0.344661 -0.668366 0
M  V30 14280 H 1309.61 0.552154 -2.93247 0
M  V30 14281 C 1308.36 2.29819 -2.60918 0
M  V30 14282 H 1307.68 2.04216 -3.43709 0
M  V30 14283 H 1309.12 2.98826 -3.00797 0
M  V30 14284 C 1307.58 3.0057 -1.52182 0
M  V30 14285 O 1308.11 3.91423 -0.902817 0
M  V30 14286 N 1306.32 2.62338 -1.25009 0
M  V30 14287 H 1305.87 1.88538 -1.75531 0
M  V30 14288 H 1305.82 3.0999 -0.524736 0
M  V30 14289 N 1309.6 1.55164 0.276031 0
M  V30 14290 C 1310.55 1.84223 1.34335 0
M  V30 14291 C 1311.53 0.700934 1.4483 0
M  V30 14292 O 1312.72 0.962204 1.48562 0
M  V30 14293 C 1309.85 2.11496 2.70415 0
M  V30 14294 C 1308.94 3.31877 2.64043 0
M  V30 14295 N 1309.33 4.51856 2.27289 0
M  V30 14296 C 1307.63 3.34406 2.95108 0
M  V30 14297 C 1308.33 5.33939 2.30833 0
M  V30 14298 N 1307.3 4.72271 2.69186 0
M  V30 14299 H 1311.11 2.74533 1.04922 0
M  V30 14300 H 1308.62 1.54999 0.484661 0
M  V30 14301 H 1310.62 2.3047 3.47404 0
M  V30 14302 H 1309.28 1.22468 3.00719 0
M  V30 14303 H 1310.29 4.78009 1.99318 0
M  V30 14304 H 1306.96 2.55561 3.30144 0
M  V30 14305 H 1308.35 6.39862 2.05004 0
M  V30 14306 N 1311.07 -0.540404 1.48045 0
M  V30 14307 C 1312 -1.65538 1.6468 0
M  V30 14308 C 1312.99 -1.62713 0.495847 0
M  V30 14309 O 1314.17 -1.80072 0.727172 0
M  V30 14310 C 1311.3 -3.0415 1.67661 0
M  V30 14311 C 1310.25 -3.2183 2.82152 0
M  V30 14312 C 1309.58 -4.61397 2.70216 0
M  V30 14313 C 1310.88 -3.05596 4.23567 0
M  V30 14314 H 1312.57 -1.51873 2.58021 0
M  V30 14315 H 1310.12 -0.729208 1.24171 0
M  V30 14316 H 1312.07 -3.82013 1.77887 0
M  V30 14317 H 1310.8 -3.18814 0.708907 0
M  V30 14318 H 1309.46 -2.4638 2.71463 0
M  V30 14319 H 1309.1 -4.72883 1.71437 0
M  V30 14320 H 1308.8 -4.74174 3.47035 0
M  V30 14321 H 1310.33 -5.41374 2.82395 0
M  V30 14322 H 1311.74 -3.73261 4.35143 0
M  V30 14323 H 1310.14 -3.29871 5.01303 0
M  V30 14324 H 1311.21 -2.0214 4.40758 0
M  V30 14325 N 1312.55 -1.36459 -0.788468 0
M  V30 14326 C 1313.8 -1.3007 -1.54158 0
M  V30 14327 C 1314.11 0.117574 -1.95246 0
M  V30 14328 O 1315.32 0.303837 -2.69795 0
M  V30 14329 C 1313.78 -2.28216 -2.78291 0
M  V30 14330 C 1313.38 -3.75484 -2.44368 0
M  V30 14331 C 1315.13 -2.30806 -3.56271 0
M  V30 14332 C 1313.04 -4.65404 -3.64902 0
M  V30 14333 H 1311.97 -0.483345 -0.5787 0
M  V30 14334 H 1314.62 -1.61827 -0.865123 0
M  V30 14335 H 1313 -1.89454 -3.4774 0
M  V30 14336 H 1314.17 -4.22986 -1.82809 0
M  V30 14337 H 1312.49 -3.75678 -1.79597 0
M  V30 14338 H 1315.08 -2.95196 -4.45829 0
M  V30 14339 H 1315.43 -1.31687 -3.94923 0
M  V30 14340 H 1315.96 -2.68189 -2.93802 0
M  V30 14341 H 1312.7 -5.65589 -3.31344 0
M  V30 14342 H 1312.22 -4.22617 -4.25623 0
M  V30 14343 H 1313.9 -4.81721 -4.31919 0
M  V30 14344 N 1314.03 1.01274 -1.20754 0
M  V30 14345 C 1315.31 1.7213 -0.929008 0
M  V30 14346 C 1315.69 2.03503 0.561217 0
M  V30 14347 O 1315.04 1.70259 1.52395 0
M  V30 14348 C 1315.25 2.98636 -1.80603 0
M  V30 14349 C 1316.59 3.71823 -2.0502 0
M  V30 14350 O 1317.62 3.08601 -1.77888 0
M  V30 14351 O 1316.48 4.8552 -2.50864 0
M  V30 14352 H 1313.57 0.750361 -0.347689 0
M  V30 14353 H 1316.12 1.07086 -1.31646 0
M  V30 14354 H 1314.89 2.71803 -2.81494 0
M  V30 14355 H 1314.51 3.7142 -1.4189 0
M  V30 14356 N 1315.51 1.01404 1.20644 0
M  V30 14357 C 1316.44 0.602465 2.25594 0
M  V30 14358 C 1317.42 -0.381216 1.65773 0
M  V30 14359 O 1318.61 -0.267209 1.92353 0
M  V30 14360 C 1315.74 -0.0626245 3.47244 0
M  V30 14361 C 1314.69 0.841776 4.1964 0
M  V30 14362 C 1314.02 0.0426002 5.34683 0
M  V30 14363 C 1315.32 2.14864 4.76058 0
M  V30 14364 H 1317.01 1.47977 2.60275 0
M  V30 14365 H 1314.56 0.712966 1.25111 0
M  V30 14366 H 1316.51 -0.362095 4.19841 0
M  V30 14367 H 1315.23 -0.974627 3.11719 0
M  V30 14368 H 1313.89 1.12521 3.48905 0
M  V30 14369 H 1313.54 -0.870973 4.95402 0
M  V30 14370 H 1313.24 0.644866 5.84051 0
M  V30 14371 H 1314.76 -0.250476 6.10086 0
M  V30 14372 H 1316.18 1.9117 5.40488 0
M  V30 14373 H 1314.57 2.70153 5.35852 0
M  V30 14374 H 1315.64 2.81336 3.9494 0
M  V30 14375 N 1316.99 -1.36373 0.789944 0
M  V30 14376 C 1318.21 -2.04011 0.373396 0
M  V30 14377 C 1318.64 -1.59171 -1.00231 0
M  V30 14378 O 1318 -0.760431 -1.64582 0
M  V30 14379 C 1318.04 -3.5783 0.446083 0
M  V30 14380 O 1317.15 -4.08759 -0.54678 0
M  V30 14381 H 1316.49 -0.644807 0.158495 0
M  V30 14382 H 1319.02 -1.74317 1.0712 0
M  V30 14383 H 1319.03 -4.06822 0.309877 0
M  V30 14384 H 1317.7 -3.89819 1.44962 0
M  V30 14385 H 1316.28 -3.71038 -0.372192 0
M  V30 14386 N 1318.47 -0.542005 -1.47987 0
M  V30 14387 C 1319.88 -0.200691 -1.58333 0
M  V30 14388 C 1320.08 1.29643 -1.54256 0
M  V30 14389 O 1319.14 2.07556 -1.43794 0
M  V30 14390 C 1320.45 -0.813878 -2.89476 0
M  V30 14391 C 1322 -0.783711 -3.0303 0
M  V30 14392 C 1322.47 -1.37569 -4.36851 0
M  V30 14393 N 1323.96 -1.33819 -4.43449 0
M  V30 14394 C 1324.7 -1.76602 -5.45527 0
M  V30 14395 N 1324.2 -2.27169 -6.54497 0
M  V30 14396 N 1325.99 -1.67765 -5.3648 0
M  V30 14397 H 1318.14 -1.51488 -1.4888 0
M  V30 14398 H 1320.4 -0.630835 -0.707638 0
M  V30 14399 H 1320.11 -1.86544 -2.98151 0
M  V30 14400 H 1319.98 -0.297978 -3.76021 0
M  V30 14401 H 1322.37 0.259118 -2.9396 0
M  V30 14402 H 1322.45 -1.33721 -2.18065 0
M  V30 14403 H 1322.09 -2.41751 -4.46675 0
M  V30 14404 H 1322.02 -0.797769 -5.20522 0
M  V30 14405 H 1324.52 -0.968147 -3.65288 0
M  V30 14406 H 1324.83 -2.57777 -7.2854 0
M  V30 14407 H 1323.17 -2.31171 -6.55427 0
M  V30 14408 H 1326.36 -1.28048 -4.50246 0
M  V30 14409 H 1326.54 -2.01426 -6.15899 0
M  V30 14410 N 1319.94 1.55134 -0.277709 0
M  V30 14411 C 1321.17 2.03765 0.341106 0
M  V30 14412 C 1321.58 1.15543 1.49822 0
M  V30 14413 O 1320.92 0.168642 1.82924 0
M  V30 14414 C 1320.99 3.48513 0.881974 0
M  V30 14415 C 1320.65 4.56764 -0.146837 0
M  V30 14416 C 1321.65 5.10823 -0.967252 0
M  V30 14417 C 1319.33 5.01509 -0.281824 0
M  V30 14418 C 1321.33 6.08147 -1.90882 0
M  V30 14419 C 1319.01 5.98658 -1.22686 0
M  V30 14420 C 1320.01 6.51859 -2.03886 0
M  V30 14421 O 1319.7 7.47108 -2.96791 0
M  V30 14422 H 1319.43 0.671068 0.0815052 0
M  V30 14423 H 1321.99 2.013 -0.408341 0
M  V30 14424 H 1320.22 3.48226 1.68154 0
M  V30 14425 H 1321.9 3.80469 1.41416 0
M  V30 14426 H 1322.67 4.77065 -0.873714 0
M  V30 14427 H 1318.55 4.59743 0.340203 0
M  V30 14428 H 1322.09 6.49597 -2.54301 0
M  V30 14429 H 1317.99 6.31834 -1.32121 0
M  V30 14430 H 1318.76 7.64832 -2.91502 0
M  V30 14431 N 1321.42 0.00503138 1.57599 0
M  V30 14432 C 1322.38 -0.969628 2.0768 0
M  V30 14433 C 1323.38 -1.26933 0.987148 0
M  V30 14434 O 1324.57 -1.21368 1.24962 0
M  V30 14435 C 1321.71 -2.29312 2.52247 0
M  V30 14436 H 1322.9 -0.536342 2.95065 0
M  V30 14437 H 1320.45 -0.242543 1.54407 0
M  V30 14438 H 1321.19 -2.7732 1.6812 0
M  V30 14439 H 1320.97 -2.08878 3.31832 0
M  V30 14440 H 1322.46 -2.99221 2.91302 0
M  V30 14441 N 1322.9 -1.55308 -0.267798 0
M  V30 14442 C 1324.12 -1.80524 -1.02107 0
M  V30 14443 C 1324.55 -0.579268 -1.78958 0
M  V30 14444 O 1323.91 0.471262 -1.75068 0
M  V30 14445 C 1323.96 -3.03248 -1.95123 0
M  V30 14446 O 1323.06 -2.78699 -3.03975 0
M  V30 14447 H 1322.4 -0.596518 -0.291655 0
M  V30 14448 H 1324.93 -2.0246 -0.295128 0
M  V30 14449 H 1324.94 -3.32121 -2.3698 0
M  V30 14450 H 1323.62 -3.92126 -1.386 0
M  V30 14451 H 1322.19 -2.60936 -2.66396 0
M  V30 14452 N 1324.38 0.532545 -1.4833 0
M  V30 14453 C 1325.32 1.63737 -1.62661 0
M  V30 14454 C 1326.29 1.59348 -0.468758 0
M  V30 14455 O 1327.48 1.77812 -0.691921 0
M  V30 14456 C 1324.62 3.02006 -1.66993 0
M  V30 14457 C 1323.73 3.16648 -2.93867 0
M  V30 14458 C 1322.87 4.4546 -2.89376 0
M  V30 14459 C 1321.91 4.53622 -4.10966 0
M  V30 14460 N 1321.04 5.7382 -4.04567 0
M  V30 14461 H 1325.88 1.50828 -2.57012 0
M  V30 14462 H 1323.42 0.734348 -1.27459 0
M  V30 14463 H 1325.38 3.82105 -1.67486 0
M  V30 14464 H 1324.01 3.13693 -0.76135 0
M  V30 14465 H 1323.06 2.29817 -3.0313 0
M  V30 14466 H 1324.37 3.1854 -3.8384 0
M  V30 14467 H 1323.53 5.33848 -2.88256 0
M  V30 14468 H 1322.27 4.46085 -1.97127 0
M  V30 14469 H 1321.27 3.63642 -4.12364 0
M  V30 14470 H 1322.5 4.54738 -5.04371 0
M  V30 14471 H 1320.44 5.75347 -3.15137 0
M  V30 14472 H 1320.36 5.77196 -4.88243 0
M  V30 14473 H 1321.63 6.64502 -4.07502 0
M  V30 14474 N 1325.86 1.36875 0.78122 0
M  V30 14475 C 1327.1 1.30886 1.53466 0
M  V30 14476 C 1327.42 -0.107218 1.95306 0
M  V30 14477 O 1328.62 -0.289525 2.69952 0
M  V30 14478 C 1327.08 2.29688 2.77076 0
M  V30 14479 C 1326.69 3.76775 2.42373 0
M  V30 14480 C 1328.43 2.32692 3.55042 0
M  V30 14481 C 1326.34 4.67332 3.62428 0
M  V30 14482 H 1325.27 0.486408 0.576128 0
M  V30 14483 H 1327.92 1.62283 0.856529 0
M  V30 14484 H 1326.3 1.91296 3.4673 0
M  V30 14485 H 1327.48 4.2395 1.80563 0
M  V30 14486 H 1325.79 3.76625 1.77602 0
M  V30 14487 H 1328.39 2.97556 4.44257 0
M  V30 14488 H 1328.73 1.33779 3.94219 0
M  V30 14489 H 1329.26 2.69743 2.92375 0
M  V30 14490 H 1326 5.67339 3.2834 0
M  V30 14491 H 1325.52 4.24868 4.23376 0
M  V30 14492 H 1327.2 4.84005 4.29358 0
M  V30 14493 N 1327.33 -1.00632 1.21289 0
M  V30 14494 C 1328.28 -2.11502 0.96798 0
M  V30 14495 C 1329.28 -1.6919 -0.0843024 0
M  V30 14496 O 1330.48 -1.79875 0.06697 0
M  V30 14497 H 1326.86 -0.691398 0.295759 0
M  V30 14498 H 1328.83 -2.29337 1.90911 0
M  V30 14499 C 1327.58 -3.43357 0.547818 0
M  V30 14500 H 1326.9 -3.76348 1.34915 0
M  V30 14501 H 1328.34 -4.21957 0.415759 0
M  V30 14502 C 1326.8 -3.28648 -0.741086 0
M  V30 14503 O 1327.33 -3.59267 -1.79695 0
M  V30 14504 N 1325.53 -2.81866 -0.707084 0
M  V30 14505 H 1325.08 -2.57149 0.152447 0
M  V30 14506 H 1325.04 -2.72406 -1.56979 0
M  V30 14507 N 1328.81 -1.02043 -1.20104 0
M  V30 14508 C 1330.06 -0.707271 -1.88893 0
M  V30 14509 C 1330.37 0.766617 -1.79951 0
M  V30 14510 O 1331.58 1.19248 -2.4391 0
M  V30 14511 C 1330.04 -1.2147 -3.38782 0
M  V30 14512 C 1329.64 -2.71576 -3.56301 0
M  V30 14513 C 1331.39 -0.977146 -4.13101 0
M  V30 14514 C 1329.29 -3.15781 -5.00037 0
M  V30 14515 H 1328.22 -0.26086 -0.707438 0
M  V30 14516 H 1330.88 -1.23361 -1.35846 0
M  V30 14517 H 1329.26 -0.616315 -3.91175 0
M  V30 14518 H 1330.43 -3.36997 -3.14276 0
M  V30 14519 H 1328.75 -2.93517 -2.95359 0
M  V30 14520 H 1331.34 -1.28278 -5.19085 0
M  V30 14521 H 1331.69 0.0862909 -4.16211 0
M  V30 14522 H 1332.22 -1.5391 -3.6682 0
M  V30 14523 H 1328.96 -4.21417 -5.02084 0
M  V30 14524 H 1328.48 -2.55083 -5.42856 0
M  V30 14525 H 1330.16 -3.08637 -5.6864 0
M  V30 14526 N 1330.29 1.35952 -0.797165 0
M  V30 14527 C 1331.54 1.98639 -0.372405 0
M  V30 14528 C 1331.86 1.63571 1.06158 0
M  V30 14529 O 1331.13 0.913516 1.73297 0
M  V30 14530 H 1329.71 0.734753 -0.13471 0
M  V30 14531 H 1332.37 1.66022 -1.02092 0
M  V30 14532 H 1331.47 3.08533 -0.47049 0
M  V30 14533 N 1331.77 0.549846 1.47697 0
M  V30 14534 C 1332.99 0.0256819 2.07384 0
M  V30 14535 C 1333.42 -1.25525 1.4009 0
M  V30 14536 O 1332.78 -1.7501 0.473406 0
M  V30 14537 C 1332.82 -0.160835 3.60241 0
M  V30 14538 O 1331.93 -1.22509 3.93783 0
M  V30 14539 H 1331.27 0.0480204 0.662261 0
M  V30 14540 H 1333.8 0.763429 1.89823 0
M  V30 14541 H 1333.81 -0.377337 4.06251 0
M  V30 14542 H 1332.48 0.774774 4.0862 0
M  V30 14543 H 1331.06 -0.98967 3.59527 0
M  V30 14544 N 1333.25 -1.54984 0.285932 0
M  V30 14545 C 1334.19 -2.2295 -0.596822 0
M  V30 14546 C 1335.16 -1.20674 -1.14136 0
M  V30 14547 O 1336.35 -1.49249 -1.18867 0
M  V30 14548 C 1333.49 -2.9625 -1.77002 0
M  V30 14549 C 1332.6 -4.13268 -1.25831 0
M  V30 14550 C 1331.74 -4.74187 -2.39417 0
M  V30 14551 C 1330.78 -5.83377 -1.85304 0
M  V30 14552 N 1329.91 -6.38313 -2.92405 0
M  V30 14553 H 1334.75 -2.97998 -0.0106104 0
M  V30 14554 H 1332.29 -1.47099 0.00653041 0
M  V30 14555 H 1334.25 -3.36971 -2.4598 0
M  V30 14556 H 1332.88 -2.23606 -2.3281 0
M  V30 14557 H 1331.93 -3.77593 -0.461278 0
M  V30 14558 H 1333.24 -4.91979 -0.822049 0
M  V30 14559 H 1332.4 -5.17683 -3.16369 0
M  V30 14560 H 1331.13 -3.94775 -2.86364 0
M  V30 14561 H 1330.14 -5.3932 -1.06835 0
M  V30 14562 H 1331.36 -6.64664 -1.3928 0
M  V30 14563 H 1329.31 -5.61791 -3.38713 0
M  V30 14564 H 1329.23 -7.12328 -2.53228 0
M  V30 14565 H 1330.5 -6.86468 -3.69299 0
M  V30 14566 N 1334.72 -0.0133892 -1.57594 0
M  V30 14567 C 1335.97 0.669624 -1.91426 0
M  V30 14568 C 1336.3 1.72675 -0.888656 0
M  V30 14569 O 1335.58 1.94288 0.0908138 0
M  V30 14570 C 1335.86 1.30051 -3.35796 0
M  V30 14571 C 1335.71 0.254021 -4.49082 0
M  V30 14572 C 1337.03 2.22297 -3.79832 0
M  V30 14573 H 1334.15 0.241958 -0.69615 0
M  V30 14574 H 1336.79 -0.0674278 -1.8988 0
M  V30 14575 H 1334.94 1.92871 -3.37243 0
M  V30 14576 H 1336.62 -0.375524 -4.59769 0
M  V30 14577 H 1334.86 -0.422267 -4.3174 0
M  V30 14578 H 1335.53 0.734756 -5.47088 0
M  V30 14579 H 1338.01 1.69481 -3.8002 0
M  V30 14580 H 1336.88 2.634 -4.81572 0
M  V30 14581 H 1337.14 3.10764 -3.14449 0
M  V30 14582 N 1336.2 1.55448 0.259558 0
M  V30 14583 C 1337.15 1.90056 1.34096 0
M  V30 14584 C 1338.14 0.778267 1.50464 0
M  V30 14585 O 1339.35 0.962758 1.52089 0
M  V30 14586 H 1335.73 0.603424 0.448758 0
M  V30 14587 H 1337.7 2.80365 1.02166 0
M  V30 14588 C 1336.45 2.20074 2.69189 0
M  V30 14589 H 1335.77 3.05926 2.57389 0
M  V30 14590 H 1337.21 2.48201 3.43762 0
M  V30 14591 C 1335.67 1.01281 3.21316 0
M  V30 14592 O 1336.2 0.2543 4.00894 0
M  V30 14593 N 1334.4 0.806855 2.79174 0
M  V30 14594 H 1333.95 1.42536 2.14572 0
M  V30 14595 H 1333.91 0.0136714 3.14397 0
M  V30 14596 N 1337.68 -0.524672 1.4861 0
M  V30 14597 C 1338.93 -1.28021 1.56898 0
M  V30 14598 C 1339.26 -1.92948 0.245203 0
M  V30 14599 O 1338.51 -1.8013 -0.764966 0
M  V30 14600 C 1338.81 -2.3871 2.65993 0
M  V30 14601 C 1338.48 -1.914 4.08261 0
M  V30 14602 C 1337.14 -1.78215 4.46982 0
M  V30 14603 C 1339.49 -1.55713 4.97396 0
M  V30 14604 C 1336.82 -1.27687 5.72637 0
M  V30 14605 C 1339.17 -1.06645 6.23546 0
M  V30 14606 C 1337.83 -0.920818 6.61118 0
M  V30 14607 H 1337.1 -0.468461 0.57413 0
M  V30 14608 H 1339.75 -0.584901 1.82349 0
M  V30 14609 H 1338.06 -3.13932 2.34422 0
M  V30 14610 H 1339.75 -2.96827 2.6962 0
M  V30 14611 H 1336.34 -2.02614 3.77684 0
M  V30 14612 H 1340.53 -1.64757 4.68155 0
M  V30 14613 H 1335.78 -1.15103 6.00468 0
M  V30 14614 H 1339.96 -0.781048 6.92006 0
M  V30 14615 H 1337.58 -0.527091 7.5837 0
M  V30 14616 N 1339.16 -1.37287 -0.77395 0
M  V30 14617 C 1340.44 -1.2291 -1.52159 0
M  V30 14618 C 1340.82 0.178249 -2.10346 0
M  V30 14619 O 1340.16 1.18564 -1.95333 0
M  V30 14620 C 1340.37 -2.32337 -2.60424 0
M  V30 14621 C 1341.72 -2.69769 -3.27887 0
M  V30 14622 O 1342.75 -2.31497 -2.70717 0
M  V30 14623 O 1341.6 -3.35699 -4.31241 0
M  V30 14624 H 1338.7 -0.47948 -0.673816 0
M  V30 14625 H 1341.24 -1.49061 -0.811105 0
M  V30 14626 H 1340.02 -3.26591 -2.15532 0
M  V30 14627 H 1339.64 -2.07638 -3.39076 0
M  V30 14628 N 1340.64 0.999871 -1.21821 0
M  V30 14629 C 1342.05 1.5529 -1.03642 0
M  V30 14630 C 1342.4 1.92032 0.402246 0
M  V30 14631 O 1341.52 1.74027 1.28622 0
M  V30 14632 C 1342.12 2.82177 -1.87514 0
M  V30 14633 C 1340.68 3.33949 -1.73653 0
M  V30 14634 C 1339.82 2.07095 -1.84409 0
M  V30 14635 H 1342.78 0.821751 -1.35768 0
M  V30 14636 H 1342.8 3.54264 -1.38842 0
M  V30 14637 H 1342.31 2.55405 -2.92216 0
M  V30 14638 H 1340.41 3.65645 -0.716554 0
M  V30 14639 H 1340.52 4.05022 -2.55918 0
M  V30 14640 H 1338.89 2.20332 -1.27773 0
M  V30 14641 H 1339.67 1.82728 -2.90629 0
M  V30 14642 N 1342.11 1.02678 1.19562 0
M  V30 14643 C 1343.36 0.717279 1.88515 0
M  V30 14644 C 1343.68 -0.757063 1.80355 0
M  V30 14645 O 1344.88 -1.17953 2.44539 0
M  V30 14646 C 1343.34 1.23265 3.38133 0
M  V30 14647 C 1342.95 2.73462 3.54856 0
M  V30 14648 C 1344.69 0.99904 4.12577 0
M  V30 14649 C 1342.6 3.18428 4.98355 0
M  V30 14650 H 1341.53 0.264608 0.706044 0
M  V30 14651 H 1344.18 1.2408 1.3519 0
M  V30 14652 H 1342.56 0.637052 3.90842 0
M  V30 14653 H 1343.73 3.38659 3.12485 0
M  V30 14654 H 1342.05 2.95079 2.93798 0
M  V30 14655 H 1344.65 1.3103 5.18397 0
M  V30 14656 H 1344.99 -0.064217 4.1625 0
M  V30 14657 H 1345.52 1.55853 3.65998 0
M  V30 14658 H 1342.26 4.24074 4.99842 0
M  V30 14659 H 1341.78 2.57958 5.41496 0
M  V30 14660 H 1343.46 3.11649 5.66996 0
M  V30 14661 N 1343.59 -1.35528 0.804364 0
M  V30 14662 C 1344.87 -1.93175 0.307049 0
M  V30 14663 C 1345.25 -1.73466 -1.20303 0
M  V30 14664 O 1344.6 -1.10235 -2.00151 0
M  V30 14665 C 1344.81 -3.41576 0.716018 0
M  V30 14666 C 1346.16 -4.18719 0.704242 0
M  V30 14667 O 1347.18 -3.50081 0.657423 0
M  V30 14668 O 1346.04 -5.41181 0.760601 0
M  V30 14669 H 1343.13 -0.823142 0.0797888 0
M  V30 14670 H 1345.68 -1.44617 0.887912 0
M  V30 14671 H 1344.45 -3.49642 1.75688 0
M  V30 14672 H 1344.07 -3.97448 0.109843 0
M  V30 14673 N 1345.07 -0.557671 -1.47404 0
M  V30 14674 C 1346.02 0.189765 -2.30019 0
M  V30 14675 C 1346.99 0.907923 -1.3909 0
M  V30 14676 O 1348.17 0.903528 -1.68051 0
M  V30 14677 C 1345.31 1.21348 -3.23061 0
M  V30 14678 C 1344.43 0.501343 -4.29081 0
M  V30 14679 C 1343.56 1.51039 -5.09275 0
M  V30 14680 C 1342.6 0.783254 -6.07068 0
M  V30 14681 N 1341.74 1.73916 -6.80219 0
M  V30 14682 H 1346.58 -0.520856 -2.93413 0
M  V30 14683 H 1344.11 -0.268686 -1.44625 0
M  V30 14684 H 1346.07 1.81961 -3.75428 0
M  V30 14685 H 1344.7 1.89213 -2.61531 0
M  V30 14686 H 1343.75 -0.219317 -3.79767 0
M  V30 14687 H 1345.07 -0.0682656 -4.98753 0
M  V30 14688 H 1344.22 2.19004 -5.65793 0
M  V30 14689 H 1342.96 2.11392 -4.39505 0
M  V30 14690 H 1341.96 0.0896883 -5.49727 0
M  V30 14691 H 1343.19 0.185464 -6.78847 0
M  V30 14692 H 1341.14 2.33125 -6.13179 0
M  V30 14693 H 1341.05 1.22171 -7.46063 0
M  V30 14694 H 1342.32 2.40993 -7.41311 0
M  V30 14695 N 1346.55 1.54831 -0.294147 0
M  V30 14696 C 1347.5 2.24707 0.600795 0
M  V30 14697 C 1348.49 1.25067 1.14257 0
M  V30 14698 O 1349.7 1.42939 1.094 0
M  V30 14699 H 1346.07 0.721399 0.212338 0
M  V30 14700 H 1348.04 2.98398 -0.0111682 0
M  V30 14701 C 1346.79 2.996 1.76451 0
M  V30 14702 H 1346.12 3.76072 1.35684 0
M  V30 14703 H 1347.56 3.51785 2.36692 0
M  V30 14704 C 1346.01 2.0617 2.6645 0
M  V30 14705 O 1346.54 1.62527 3.67353 0
M  V30 14706 N 1344.75 1.7227 2.34033 0
M  V30 14707 H 1344.3 2.07957 1.52025 0
M  V30 14708 H 1344.26 1.10031 2.94518 0
M  V30 14709 N 1348.03 0.0217466 1.57585 0
M  V30 14710 C 1348.96 -0.99116 2.06661 0
M  V30 14711 C 1349.97 -1.29346 0.988604 0
M  V30 14712 O 1351.16 -1.25941 1.26496 0
M  V30 14713 C 1348.26 -2.32047 2.46997 0
M  V30 14714 C 1347.43 -2.20441 3.77789 0
M  V30 14715 C 1346.49 -3.36243 4.04755 0
M  V30 14716 O 1345.52 -3.13458 4.75114 0
M  V30 14717 N 1346.72 -4.598 3.54351 0
M  V30 14718 H 1349.49 -0.572486 2.94181 0
M  V30 14719 H 1347.05 -0.165175 1.61055 0
M  V30 14720 H 1349.04 -3.0833 2.62135 0
M  V30 14721 H 1347.61 -2.65581 1.64881 0
M  V30 14722 H 1346.83 -1.28931 3.72519 0
M  V30 14723 H 1348.12 -2.09882 4.63494 0
M  V30 14724 H 1347.52 -4.81207 2.97416 0
M  V30 14725 H 1346.07 -5.33276 3.7478 0
M  V30 14726 N 1349.51 -1.55583 -0.251311 0
M  V30 14727 C 1350.75 -1.76411 -0.977859 0
M  V30 14728 C 1351.07 -0.584857 -1.86651 0
M  V30 14729 O 1352.27 -0.676046 -2.62948 0
M  V30 14730 C 1350.73 -3.12302 -1.78872 0
M  V30 14731 C 1350.34 -4.37862 -0.947674 0
M  V30 14732 C 1352.08 -3.42471 -2.50827 0
M  V30 14733 C 1349.99 -5.64786 -1.75417 0
M  V30 14734 H 1348.92 -0.657628 -0.368839 0
M  V30 14735 H 1351.57 -1.82019 -0.232682 0
M  V30 14736 H 1349.95 -3.0079 -2.57569 0
M  V30 14737 H 1351.13 -4.60351 -0.203352 0
M  V30 14738 H 1349.44 -4.14996 -0.341666 0
M  V30 14739 H 1352.04 -4.34514 -3.11612 0
M  V30 14740 H 1352.38 -2.63592 -3.22219 0
M  V30 14741 H 1352.91 -3.55179 -1.79145 0
M  V30 14742 H 1349.65 -6.46474 -1.08407 0
M  V30 14743 H 1349.17 -5.46405 -2.47389 0
M  V30 14744 H 1350.85 -6.03881 -2.32242 0
M  V30 14745 N 1350.98 0.516783 -1.48886 0
M  V30 14746 C 1351.92 1.63632 -1.60491 0
M  V30 14747 C 1352.93 1.55301 -0.488424 0
M  V30 14748 O 1354.12 1.6152 -0.75983 0
M  V30 14749 C 1351.22 3.02351 -1.53093 0
M  V30 14750 C 1350.39 3.36028 -2.80006 0
M  V30 14751 C 1349.45 4.54087 -2.65879 0
M  V30 14752 O 1348.48 4.56652 -3.3979 0
M  V30 14753 N 1349.68 5.53058 -1.76372 0
M  V30 14754 H 1352.44 1.54109 -2.57042 0
M  V30 14755 H 1350 0.704338 -1.45776 0
M  V30 14756 H 1352 3.79225 -1.41318 0
M  V30 14757 H 1350.57 3.05881 -0.644637 0
M  V30 14758 H 1349.79 2.48204 -3.06249 0
M  V30 14759 H 1351.07 3.5532 -3.64177 0
M  V30 14760 H 1350.47 5.53773 -1.1555 0
M  V30 14761 H 1349.03 6.29097 -1.70529 0
M  V30 14762 N 1352.46 1.37696 0.766659 0
M  V30 14763 C 1353.39 1.36576 1.89392 0
M  V30 14764 C 1354.37 0.233597 1.68488 0
M  V30 14765 O 1355.56 0.434719 1.89272 0
M  V30 14766 C 1352.69 1.17705 3.26746 0
M  V30 14767 C 1351.64 2.27987 3.62224 0
M  V30 14768 C 1350.97 1.94235 4.98174 0
M  V30 14769 C 1352.27 3.70195 3.68447 0
M  V30 14770 H 1353.96 2.30905 1.90587 0
M  V30 14771 H 1351.51 1.11148 0.915538 0
M  V30 14772 H 1353.46 1.15551 4.05248 0
M  V30 14773 H 1352.18 0.198334 3.25997 0
M  V30 14774 H 1350.84 2.29306 2.86032 0
M  V30 14775 H 1350.49 0.948796 4.93971 0
M  V30 14776 H 1350.19 2.68086 5.2288 0
M  V30 14777 H 1351.72 1.93676 5.7907 0
M  V30 14778 H 1353.13 3.70978 4.37091 0
M  V30 14779 H 1351.53 4.43142 4.04654 0
M  V30 14780 H 1352.6 4.03453 2.68986 0
M  V30 14781 N 1353.94 -0.993397 1.22349 0
M  V30 14782 C 1355.19 -1.73287 1.04775 0
M  V30 14783 C 1355.51 -1.89973 -0.417201 0
M  V30 14784 O 1354.77 -1.43966 -1.32561 0
M  V30 14785 C 1355.07 -3.14191 1.70349 0
M  V30 14786 C 1354.73 -3.17421 3.20241 0
M  V30 14787 C 1353.4 -3.1801 3.61141 0
M  V30 14788 C 1355.75 -3.13751 4.16185 0
M  V30 14789 C 1353.08 -3.12628 4.96468 0
M  V30 14790 C 1355.43 -3.09911 5.51487 0
M  V30 14791 C 1354.09 -3.08815 5.91768 0
M  V30 14792 H 1353.36 -0.634102 0.3834 0
M  V30 14793 H 1356.01 -1.16346 1.52105 0
M  V30 14794 H 1354.31 -3.74437 1.15343 0
M  V30 14795 H 1356.01 -3.70149 1.54242 0
M  V30 14796 H 1352.6 -3.17713 2.87674 0
M  V30 14797 H 1356.79 -3.12446 3.85605 0
M  V30 14798 H 1352.04 -3.10125 5.26909 0
M  V30 14799 H 1356.22 -3.06026 6.25556 0
M  V30 14800 H 1353.84 -3.044 6.96595 0
M  V30 14801 N 1355.42 -1.03311 -1.19015 0
M  V30 14802 C 1356.37 -0.611169 -2.24427 0
M  V30 14803 C 1357.36 0.358303 -1.65567 0
M  V30 14804 O 1358.57 0.22642 -1.7857 0
M  V30 14805 H 1354.94 -0.179393 -0.730289 0
M  V30 14806 H 1356.91 -1.51077 -2.57329 0
M  V30 14807 C 1355.66 0.0178126 -3.47695 0
M  V30 14808 H 1354.98 -0.71921 -3.93278 0
M  V30 14809 H 1356.42 0.275926 -4.23101 0
M  V30 14810 C 1354.88 1.26564 -3.12223 0
M  V30 14811 O 1355.41 2.35725 -3.25264 0
M  V30 14812 N 1353.62 1.15602 -2.66617 0
M  V30 14813 H 1353.17 0.267736 -2.56205 0
M  V30 14814 H 1353.12 1.99186 -2.43254 0
M  V30 14815 N 1356.9 1.35099 -0.81154 0
M  V30 14816 C 1357.83 2.32264 -0.239925 0
M  V30 14817 C 1358.81 1.57708 0.637354 0
M  V30 14818 O 1359.99 1.85751 0.566598 0
M  V30 14819 C 1357.12 3.41931 0.608325 0
M  V30 14820 C 1356.08 4.27659 -0.170869 0
M  V30 14821 C 1355.4 5.28691 0.799398 0
M  V30 14822 C 1356.7 5.0394 -1.37266 0
M  V30 14823 H 1358.4 2.8032 -1.05172 0
M  V30 14824 H 1355.94 1.34773 -0.507185 0
M  V30 14825 H 1357.89 4.08911 1.01832 0
M  V30 14826 H 1356.62 2.92496 1.45306 0
M  V30 14827 H 1355.28 3.62265 -0.562094 0
M  V30 14828 H 1354.93 4.75521 1.63977 0
M  V30 14829 H 1354.63 5.86921 0.282331 0
M  V30 14830 H 1356.15 5.98542 1.20749 0
M  V30 14831 H 1357.56 5.63838 -1.03728 0
M  V30 14832 H 1355.96 5.7169 -1.82456 0
M  V30 14833 H 1357.03 4.34295 -2.15676 0
M  V30 14834 N 1358.37 0.56548 1.47106 0
M  V30 14835 C 1359.28 -0.180488 2.33905 0
M  V30 14836 C 1360.3 -0.90355 1.48701 0
M  V30 14837 O 1361.48 -0.870595 1.81611 0
M  V30 14838 C 1358.54 -1.19212 3.2556 0
M  V30 14839 C 1357.6 -0.475589 4.26658 0
M  V30 14840 C 1356.83 -1.43902 5.13934 0
M  V30 14841 O 1357.06 -2.67443 5.03816 0
M  V30 14842 O 1355.99 -0.958998 5.94211 0
M  V30 14843 H 1359.82 0.531726 2.99009 0
M  V30 14844 H 1357.4 0.32602 1.45799 0
M  V30 14845 H 1359.28 -1.77586 3.82153 0
M  V30 14846 H 1357.96 -1.8861 2.63074 0
M  V30 14847 H 1356.87 0.149561 3.73801 0
M  V30 14848 H 1358.2 0.177103 4.91881 0
M  V30 14849 N 1359.85 -1.54672 0.302354 0
M  V30 14850 C 1361.08 -2.05041 -0.311891 0
M  V30 14851 C 1361.5 -1.17814 -1.46634 0
M  V30 14852 O 1360.86 -0.182517 -1.80379 0
M  V30 14853 C 1360.91 -3.52831 -0.744489 0
M  V30 14854 O 1360.01 -3.68621 -1.84913 0
M  V30 14855 H 1359.35 -0.661255 -0.0603102 0
M  V30 14856 H 1361.88 -1.99711 0.444593 0
M  V30 14857 H 1361.89 -3.94708 -1.03293 0
M  V30 14858 H 1360.57 -4.1578 0.0999976 0
M  V30 14859 H 1359.15 -3.38649 -1.56113 0
M  V30 14860 N 1361.33 -0.0301034 -1.57571 0
M  V30 14861 C 1362.56 0.662045 -1.9655 0
M  V30 14862 C 1362.98 1.64811 -0.906581 0
M  V30 14863 O 1362.34 1.80816 0.132415 0
M  V30 14864 C 1362.39 1.34389 -3.34622 0
M  V30 14865 O 1361.49 2.45919 -3.31056 0
M  V30 14866 H 1360.83 0.173842 -0.640839 0
M  V30 14867 H 1363.36 -0.092248 -2.04392 0
M  V30 14868 H 1363.37 1.70045 -3.70875 0
M  V30 14869 H 1362.05 0.621092 -4.11236 0
M  V30 14870 H 1360.62 2.12367 -3.06521 0
M  V30 14871 N 1362.81 1.55714 0.243056 0
M  V30 14872 C 1363.76 1.90638 1.30099 0
M  V30 14873 C 1364.73 0.761049 1.47639 0
M  V30 14874 O 1365.91 1.01505 1.61559 0
M  V30 14875 C 1363.05 2.20985 2.65065 0
M  V30 14876 C 1362.16 3.48343 2.55501 0
M  V30 14877 C 1361.3 3.68241 3.82847 0
M  V30 14878 C 1360.34 4.89187 3.67916 0
M  V30 14879 N 1359.47 5.05586 4.87162 0
M  V30 14880 H 1364.31 2.80857 0.996155 0
M  V30 14881 H 1361.85 1.39027 0.480619 0
M  V30 14882 H 1363.81 2.36585 3.43632 0
M  V30 14883 H 1362.44 1.33966 2.93689 0
M  V30 14884 H 1361.49 3.41054 1.68483 0
M  V30 14885 H 1362.8 4.37057 2.4038 0
M  V30 14886 H 1361.96 3.83822 4.69857 0
M  V30 14887 H 1360.7 2.77768 4.00869 0
M  V30 14888 H 1359.7 4.7358 2.79289 0
M  V30 14889 H 1360.93 5.81124 3.51385 0
M  V30 14890 H 1358.87 4.18051 5.05538 0
M  V30 14891 H 1358.79 5.88395 4.74686 0
M  V30 14892 H 1360.06 5.25582 5.7566 0
M  V30 14893 N 1364.29 -0.50888 1.49158 0
M  V30 14894 C 1365.54 -1.26008 1.57496 0
M  V30 14895 C 1365.85 -1.9382 0.263281 0
M  V30 14896 O 1367.05 -2.70565 0.225117 0
M  V30 14897 C 1365.51 -2.28752 2.7785 0
M  V30 14898 C 1365.12 -1.66915 4.15744 0
M  V30 14899 C 1366.86 -3.0475 2.95513 0
M  V30 14900 C 1364.77 -2.67724 5.27331 0
M  V30 14901 H 1363.7 -0.473984 0.586392 0
M  V30 14902 H 1366.35 -0.534886 1.75531 0
M  V30 14903 H 1364.73 -3.044 2.53292 0
M  V30 14904 H 1365.91 -0.973131 4.50407 0
M  V30 14905 H 1364.22 -1.03336 4.03374 0
M  V30 14906 H 1366.82 -3.80121 3.76048 0
M  V30 14907 H 1367.16 -3.6189 2.05771 0
M  V30 14908 H 1367.69 -2.36217 3.20072 0
M  V30 14909 H 1364.43 -2.15375 6.19107 0
M  V30 14910 H 1363.95 -3.35589 4.97132 0
M  V30 14911 H 1365.63 -3.30304 5.56335 0
M  V30 14912 N 1365.76 -1.381 -0.759346 0
M  V30 14913 C 1366.67 -1.37086 -1.9038 0
M  V30 14914 C 1367.69 -0.268738 -1.71912 0
M  V30 14915 O 1368.87 -0.506205 -1.94935 0
M  V30 14916 C 1365.93 -1.18905 -3.25672 0
M  V30 14917 C 1364.99 -2.3887 -3.56707 0
M  V30 14918 C 1364.23 -2.21546 -4.85544 0
M  V30 14919 O 1364.45 -1.20616 -5.57501 0
M  V30 14920 O 1363.38 -3.10009 -5.15924 0
M  V30 14921 H 1367.21 -2.33505 -1.94188 0
M  V30 14922 H 1364.79 -1.18959 -0.903826 0
M  V30 14923 H 1366.68 -1.10803 -4.06572 0
M  V30 14924 H 1365.35 -0.255675 -3.22689 0
M  V30 14925 H 1364.26 -2.52546 -2.75992 0
M  V30 14926 H 1365.59 -3.30817 -3.64446 0
M  V30 14927 N 1367.24 0.986894 -1.22875 0
M  V30 14928 C 1368.49 1.72985 -1.05849 0
M  V30 14929 C 1368.82 1.89939 0.404594 0
M  V30 14930 O 1368.1 1.44693 1.29978 0
M  V30 14931 C 1368.38 3.13193 -1.77714 0
M  V30 14932 C 1368.23 3.0385 -3.31655 0
M  V30 14933 C 1369.55 4.12486 -1.53438 0
M  V30 14934 H 1366.67 0.627877 -0.385926 0
M  V30 14935 H 1369.31 1.14936 -1.51294 0
M  V30 14936 H 1367.46 3.62751 -1.39083 0
M  V30 14937 H 1369.13 2.61866 -3.79768 0
M  V30 14938 H 1367.38 2.4051 -3.61023 0
M  V30 14939 H 1368.05 4.03092 -3.77122 0
M  V30 14940 H 1370.52 3.71709 -1.87007 0
M  V30 14941 H 1369.4 5.08694 -2.06207 0
M  V30 14942 H 1369.66 4.39613 -0.468294 0
M  V30 14943 N 1368.72 1.0394 1.18466 0
M  V30 14944 C 1369.97 0.737233 1.87744 0
M  V30 14945 C 1370.28 -0.737891 1.81148 0
M  V30 14946 O 1371.49 -1.15353 2.45776 0
M  V30 14947 C 1369.94 1.26844 3.36806 0
M  V30 14948 C 1369.55 2.7721 3.51935 0
M  V30 14949 C 1371.3 1.04274 4.11494 0
M  V30 14950 C 1369.2 3.23696 4.9495 0
M  V30 14951 H 1368.13 0.272082 0.703198 0
M  V30 14952 H 1370.78 1.25507 1.33866 0
M  V30 14953 H 1369.17 0.67847 3.90145 0
M  V30 14954 H 1370.34 3.41954 3.08875 0
M  V30 14955 H 1368.66 2.98179 2.90652 0
M  V30 14956 H 1371.25 1.3652 5.16978 0
M  V30 14957 H 1371.6 -0.0200645 4.16295 0
M  V30 14958 H 1372.13 1.59726 3.64325 0
M  V30 14959 H 1368.87 4.29351 4.95316 0
M  V30 14960 H 1368.39 2.63687 5.38729 0
M  V30 14961 H 1370.07 3.17645 5.63658 0
M  V30 14962 N 1370.2 -1.34667 0.818693 0
M  V30 14963 C 1371.13 -2.32134 0.252239 0
M  V30 14964 C 1372.11 -1.58044 -0.628982 0
M  V30 14965 O 1373.29 -1.86049 -0.55674 0
M  V30 14966 C 1370.42 -3.42249 -0.590183 0
M  V30 14967 C 1369.38 -4.27562 0.193547 0
M  V30 14968 C 1368.7 -5.29107 -0.771349 0
M  V30 14969 C 1370 -5.03205 1.39936 0
M  V30 14970 H 1371.7 -2.79758 1.06657 0
M  V30 14971 H 1369.24 -1.34502 0.514325 0
M  V30 14972 H 1371.2 -4.09445 -0.996616 0
M  V30 14973 H 1369.92 -2.93262 -1.43752 0
M  V30 14974 H 1368.58 -3.61962 0.581297 0
M  V30 14975 H 1368.23 -4.76384 -1.61453 0
M  V30 14976 H 1367.93 -5.87063 -0.251201 0
M  V30 14977 H 1369.45 -5.99174 -1.17573 0
M  V30 14978 H 1370.87 -5.6328 1.06717 0
M  V30 14979 H 1369.26 -5.70715 1.85485 0
M  V30 14980 H 1370.33 -4.33145 2.17976 0
M  V30 14981 N 1371.68 -0.573274 -1.46804 0
M  V30 14982 C 1372.62 0.165358 -2.30207 0
M  V30 14983 C 1373.59 0.89312 -1.40045 0
M  V30 14984 O 1374.78 0.885653 -1.68999 0
M  V30 14985 C 1371.92 1.17915 -3.2433 0
M  V30 14986 C 1371.03 0.455805 -4.29589 0
M  V30 14987 C 1370.17 1.45629 -5.10848 0
M  V30 14988 C 1369.21 0.718822 -6.07865 0
M  V30 14989 N 1368.34 1.66691 -6.82025 0
M  V30 14990 H 1373.18 -0.551947 -2.92844 0
M  V30 14991 H 1370.72 -0.28401 -1.44332 0
M  V30 14992 H 1372.68 1.77969 -3.77337 0
M  V30 14993 H 1371.31 1.86429 -2.63523 0
M  V30 14994 H 1370.36 -0.259584 -3.79513 0
M  V30 14995 H 1371.67 -0.121161 -4.98653 0
M  V30 14996 H 1370.83 2.1299 -5.68084 0
M  V30 14997 H 1369.56 2.06718 -4.41723 0
M  V30 14998 H 1368.57 0.0313773 -5.49791 0
M  V30 14999 H 1369.79 0.113452 -6.79005 0
M  V30 15000 H 1367.74 2.26608 -6.15617 0
M  V30 15001 H 1367.66 1.14251 -7.47317 0
M  V30 15002 H 1368.93 2.33117 -7.43826 0
M  V30 15003 N 1373.15 1.5451 -0.310553 0
M  V30 15004 C 1374.1 2.25332 0.576928 0
M  V30 15005 C 1375.1 1.26272 1.12924 0
M  V30 15006 O 1376.3 1.44092 1.07878 0
M  V30 15007 H 1372.68 0.723611 0.204674 0
M  V30 15008 H 1374.65 2.98369 -0.0428167 0
M  V30 15009 C 1373.4 3.01455 1.73263 0
M  V30 15010 H 1372.72 3.7749 1.31688 0
M  V30 15011 H 1374.16 3.54276 2.32947 0
M  V30 15012 C 1372.62 2.08984 2.64248 0
M  V30 15013 O 1373.15 1.66414 3.65608 0
M  V30 15014 N 1371.36 1.74742 2.32193 0
M  V30 15015 H 1370.9 2.09558 1.49811 0
M  V30 15016 H 1370.86 1.13148 2.93334 0
M  V30 15017 N 1374.63 0.0384594 1.57553 0
M  V30 15018 C 1375.6 -0.925358 2.0969 0
M  V30 15019 C 1376.6 -1.24811 1.01385 0
M  V30 15020 O 1377.79 -1.1869 1.27508 0
M  V30 15021 C 1374.92 -2.2391 2.57055 0
M  V30 15022 H 1376.11 -0.473633 2.96136 0
M  V30 15023 H 1373.66 -0.209736 1.54886 0
M  V30 15024 H 1374.4 -2.73691 1.73964 0
M  V30 15025 H 1374.18 -2.01793 3.36188 0
M  V30 15026 H 1375.67 -2.92974 2.97583 0
M  V30 15027 N 1376.11 -1.55841 -0.234795 0
M  V30 15028 C 1377.36 -1.77438 -0.959094 0
M  V30 15029 C 1377.67 -0.604621 -1.86021 0
M  V30 15030 O 1378.88 -0.703897 -2.62217 0
M  V30 15031 C 1377.34 -3.14182 -1.7555 0
M  V30 15032 C 1376.94 -4.38843 -0.90118 0
M  V30 15033 C 1378.69 -3.45112 -2.47181 0
M  V30 15034 C 1376.59 -5.66614 -1.69417 0
M  V30 15035 H 1375.52 -0.661503 -0.361843 0
M  V30 15036 H 1378.18 -1.82255 -0.213364 0
M  V30 15037 H 1376.56 -3.03505 -2.54364 0
M  V30 15038 H 1377.73 -4.60541 -0.154515 0
M  V30 15039 H 1376.05 -4.15335 -0.297631 0
M  V30 15040 H 1378.64 -4.37794 -3.06986 0
M  V30 15041 H 1378.99 -2.66995 -3.19405 0
M  V30 15042 H 1379.52 -3.57059 -1.75368 0
M  V30 15043 H 1376.26 -6.47587 -1.01545 0
M  V30 15044 H 1375.78 -5.48998 -2.4158 0
M  V30 15045 H 1377.46 -6.06311 -2.25824 0
M  V30 15046 N 1377.59 0.500963 -1.49426 0
M  V30 15047 C 1378.84 1.25694 -1.5915 0
M  V30 15048 C 1379.17 1.92209 -0.277365 0
M  V30 15049 O 1378.44 1.8072 0.719065 0
M  V30 15050 C 1378.73 2.32391 -2.75076 0
M  V30 15051 C 1378.58 1.70377 -4.16283 0
M  V30 15052 C 1379.9 3.33952 -2.86643 0
M  V30 15053 H 1377.02 0.455631 -0.579283 0
M  V30 15054 H 1379.66 0.555099 -1.8171 0
M  V30 15055 H 1377.81 2.92252 -2.55971 0
M  V30 15056 H 1379.48 1.14343 -4.46904 0
M  V30 15057 H 1377.72 1.00789 -4.21929 0
M  V30 15058 H 1378.4 2.47767 -4.9327 0
M  V30 15059 H 1380.87 2.84081 -3.04035 0
M  V30 15060 H 1379.75 4.05969 -3.69433 0
M  V30 15061 H 1380.01 3.96279 -1.95998 0
M  V30 15062 N 1379.07 1.38501 0.752011 0
M  V30 15063 C 1380.3 1.37832 1.53902 0
M  V30 15064 C 1380.71 -0.0333526 1.89171 0
M  V30 15065 O 1380.05 -1.01076 1.53393 0
M  V30 15066 C 1380.11 2.17098 2.86546 0
M  V30 15067 C 1379.77 3.65895 2.73807 0
M  V30 15068 C 1380.77 4.59353 2.43497 0
M  V30 15069 C 1378.46 4.0927 2.9121 0
M  V30 15070 C 1380.45 5.94167 2.30746 0
M  V30 15071 C 1378.14 5.44165 2.78079 0
M  V30 15072 C 1379.14 6.36427 2.47891 0
M  V30 15073 O 1378.82 7.68839 2.34822 0
M  V30 15074 H 1378.56 0.473187 0.482773 0
M  V30 15075 H 1381.11 1.82715 0.938324 0
M  V30 15076 H 1379.34 1.66936 3.48811 0
M  V30 15077 H 1381.03 2.08817 3.48067 0
M  V30 15078 H 1381.79 4.27147 2.29718 0
M  V30 15079 H 1377.67 3.37803 3.13704 0
M  V30 15080 H 1381.22 6.66148 2.07105 0
M  V30 15081 H 1377.11 5.75967 2.91432 0
M  V30 15082 H 1377.88 7.79379 2.50022 0
M  V30 15083 N 1380.55 -0.980364 1.23396 0
M  V30 15084 C 1381.49 -2.09401 1.01262 0
M  V30 15085 C 1382.49 -1.69331 -0.0483957 0
M  V30 15086 O 1383.69 -1.79693 0.105109 0
M  V30 15087 H 1380.07 -0.684969 0.310358 0
M  V30 15088 H 1382.04 -2.25236 1.95732 0
M  V30 15089 C 1380.79 -3.42118 0.620526 0
M  V30 15090 H 1380.11 -3.73402 1.42868 0
M  V30 15091 H 1381.55 -4.2098 0.505169 0
M  V30 15092 C 1380.01 -3.30146 -0.671208 0
M  V30 15093 O 1380.54 -3.62997 -1.72034 0
M  V30 15094 N 1378.75 -2.83303 -0.647137 0
M  V30 15095 H 1378.29 -2.56767 0.206957 0
M  V30 15096 H 1378.25 -2.75675 -1.51165 0
M  V30 15097 N 1382.02 -1.04567 -1.17913 0
M  V30 15098 C 1383.25 -0.772146 -1.92491 0
M  V30 15099 C 1383.67 0.665297 -1.75942 0
M  V30 15100 O 1383.03 1.46144 -1.07292 0
M  V30 15101 C 1383.08 -1.14966 -3.41782 0
M  V30 15102 O 1382.18 -0.278091 -4.11461 0
M  V30 15103 H 1381.52 -0.283715 -0.600335 0
M  V30 15104 H 1384.05 -1.39685 -1.49496 0
M  V30 15105 H 1384.06 -1.11374 -3.92505 0
M  V30 15106 H 1382.74 -2.1968 -3.53148 0
M  V30 15107 H 1381.32 -0.374073 -3.71019 0
M  V30 15108 N 1383.5 1.34231 -0.825823 0
M  V30 15109 C 1384.43 2.27366 -0.194964 0
M  V30 15110 C 1385.41 1.49029 0.650315 0
M  V30 15111 O 1386.6 1.7824 0.613424 0
M  V30 15112 C 1383.72 3.30796 0.727439 0
M  V30 15113 C 1382.77 4.26481 -0.0406869 0
M  V30 15114 S 1383.6 5.17151 -1.38981 0
M  V30 15115 C 1384.76 6.24115 -0.472354 0
M  V30 15116 H 1384.99 2.80524 -0.984559 0
M  V30 15117 H 1382.52 1.41323 -0.621875 0
M  V30 15118 H 1384.48 3.90875 1.25406 0
M  V30 15119 H 1383.14 2.76479 1.49058 0
M  V30 15120 H 1382.34 4.99651 0.660652 0
M  V30 15121 H 1381.94 3.7067 -0.497956 0
M  V30 15122 H 1384.23 6.76671 0.334956 0
M  V30 15123 H 1385.17 6.98303 -1.17383 0
M  V30 15124 H 1385.58 5.64469 -0.0594964 0
M  V30 15125 N 1384.98 0.581051 1.46498 0
M  V30 15126 C 1386.21 0.0714615 2.06476 0
M  V30 15127 C 1386.62 -1.23815 1.43061 0
M  V30 15128 O 1385.96 -1.75903 0.529504 0
M  V30 15129 C 1386.02 -0.170353 3.59096 0
M  V30 15130 C 1385.69 1.05341 4.44694 0
M  V30 15131 C 1386.68 1.96503 4.81334 0
M  V30 15132 C 1384.37 1.27479 4.85854 0
M  V30 15133 C 1386.36 3.08154 5.57961 0
M  V30 15134 C 1384.05 2.39434 5.62241 0
M  V30 15135 C 1385.05 3.29601 5.98207 0
M  V30 15136 O 1384.74 4.39612 6.7305 0
M  V30 15137 H 1384.47 0.0537502 0.67386 0
M  V30 15138 H 1387.02 0.800993 1.89138 0
M  V30 15139 H 1385.25 -0.954477 3.74735 0
M  V30 15140 H 1386.94 -0.628248 4.01009 0
M  V30 15141 H 1387.71 1.80615 4.50115 0
M  V30 15142 H 1383.59 0.582051 4.57311 0
M  V30 15143 H 1387.13 3.78557 5.85953 0
M  V30 15144 H 1383.03 2.55286 5.92874 0
M  V30 15145 H 1383.79 4.37959 6.91473 0
M  V30 15146 N 1386.46 -1.54343 0.318742 0
M  V30 15147 C 1387.37 -2.27856 -0.558442 0
M  V30 15148 C 1388.38 -1.32029 -1.13333 0
M  V30 15149 O 1389.56 -1.65037 -1.15433 0
M  V30 15150 C 1386.62 -3.01842 -1.70565 0
M  V30 15151 C 1385.69 -4.13245 -1.16305 0
M  V30 15152 C 1384.92 -4.83693 -2.25559 0
M  V30 15153 O 1385.14 -4.53621 -3.4581 0
M  V30 15154 O 1384.08 -5.70708 -1.91249 0
M  V30 15155 H 1387.9 -3.03676 0.0384247 0
M  V30 15156 H 1385.49 -1.4916 0.0845936 0
M  V30 15157 H 1387.37 -3.48189 -2.37365 0
M  V30 15158 H 1386.04 -2.28902 -2.28879 0
M  V30 15159 H 1384.95 -3.71258 -0.460274 0
M  V30 15160 H 1386.28 -4.88214 -0.625111 0
M  V30 15161 N 1387.94 -0.0468143 -1.5753 0
M  V30 15162 C 1388.88 0.946945 -2.12452 0
M  V30 15163 C 1389.88 1.32515 -1.05527 0
M  V30 15164 O 1391.08 1.30532 -1.23941 0
M  V30 15165 H 1387.46 0.323223 -0.678993 0
M  V30 15166 H 1389.43 0.45858 -2.94855 0
M  V30 15167 C 1388.18 2.21402 -2.68098 0
M  V30 15168 H 1387.5 1.93178 -3.50032 0
M  V30 15169 H 1388.94 2.89105 -3.10152 0
M  V30 15170 C 1387.4 2.95576 -1.61668 0
M  V30 15171 O 1387.93 3.88353 -1.02689 0
M  V30 15172 N 1386.14 2.58228 -1.33291 0
M  V30 15173 H 1385.68 1.82858 -1.8144 0
M  V30 15174 H 1385.64 3.08164 -0.623092 0
M  V30 15175 N 1389.41 1.55964 0.226527 0
M  V30 15176 C 1390.66 1.78745 0.95165 0
M  V30 15177 C 1390.99 0.614714 1.84531 0
M  V30 15178 O 1390.24 -0.401137 1.91545 0
M  V30 15179 C 1390.54 3.07235 1.82597 0
M  V30 15180 C 1390.21 4.37627 1.08596 0
M  V30 15181 C 1388.87 4.73057 0.881531 0
M  V30 15182 C 1391.22 5.1815 0.563019 0
M  V30 15183 C 1388.55 5.86528 0.142172 0
M  V30 15184 C 1390.9 6.3239 -0.162972 0
M  V30 15185 C 1389.57 6.66425 -0.378704 0
M  V30 15186 H 1388.84 0.654075 0.348233 0
M  V30 15187 H 1391.48 1.9023 0.220187 0
M  V30 15188 H 1389.79 2.9085 2.62514 0
M  V30 15189 H 1391.49 3.22063 2.38907 0
M  V30 15190 H 1388.08 4.09806 1.25527 0
M  V30 15191 H 1392.26 4.91218 0.708446 0
M  V30 15192 H 1387.52 6.1139 -0.0352481 0
M  V30 15193 H 1391.69 6.94016 -0.575719 0
M  V30 15194 H 1389.32 7.54196 -0.953549 0
M  V30 15195 N 1390.89 -0.493031 1.4969 0
M  V30 15196 C 1392.12 -1.27517 1.63567 0
M  V30 15197 C 1392.54 -1.85526 0.310105 0
M  V30 15198 O 1391.9 -1.66246 -0.723314 0
M  V30 15199 C 1391.95 -2.37551 2.71296 0
M  V30 15200 O 1391.05 -3.41617 2.31023 0
M  V30 15201 H 1390.39 -0.376116 0.547205 0
M  V30 15202 H 1392.92 -0.589328 1.95929 0
M  V30 15203 H 1392.93 -2.83196 2.93708 0
M  V30 15204 H 1391.61 -1.94697 3.67513 0
M  V30 15205 H 1390.19 -3.01836 2.18974 0
M  V30 15206 N 1392.37 -1.38898 -0.744656 0
M  V30 15207 C 1393.6 -1.38848 -1.53391 0
M  V30 15208 C 1394.01 0.0194949 -1.8879 0
M  V30 15209 O 1393.37 0.988399 -1.53417 0
M  V30 15210 C 1393.42 -2.25243 -2.8275 0
M  V30 15211 O 1393.14 -3.60557 -2.48858 0
M  V30 15212 C 1394.64 -2.33471 -3.76837 0
M  V30 15213 H 1391.86 -0.4746 -0.474338 0
M  V30 15214 H 1394.41 -1.82591 -0.920902 0
M  V30 15215 H 1392.56 -1.84938 -3.40407 0
M  V30 15216 H 1392.98 -4.06142 -3.31887 0
M  V30 15217 H 1394.45 -2.9819 -4.64528 0
M  V30 15218 H 1394.93 -1.351 -4.17905 0
M  V30 15219 H 1395.53 -2.74205 -3.25103 0
M  V30 15220 N 1393.85 0.973806 -1.23914 0
M  V30 15221 C 1395.07 1.7564 -1.10296 0
M  V30 15222 C 1395.5 1.84984 0.340954 0
M  V30 15223 O 1394.86 1.31629 1.24674 0
M  V30 15224 C 1394.9 3.15809 -1.7406 0
M  V30 15225 O 1394.01 3.99911 -1.00722 0
M  V30 15226 H 1393.35 0.540133 -0.386202 0
M  V30 15227 H 1395.88 1.22197 -1.64101 0
M  V30 15228 H 1395.89 3.66359 -1.79568 0
M  V30 15229 H 1394.56 3.08324 -2.79122 0
M  V30 15230 H 1393.14 3.58405 -1.02956 0
M  V30 15231 N 1395.33 1.05191 1.17357 0
M  V30 15232 C 1396.57 0.761984 1.87617 0
M  V30 15233 C 1396.9 -0.710976 1.8104 0
M  V30 15234 O 1396.16 -1.53566 1.21309 0
M  V30 15235 C 1396.46 1.18779 3.37085 0
M  V30 15236 C 1396.12 2.66296 3.63864 0
M  V30 15237 C 1394.78 3.06594 3.70882 0
M  V30 15238 C 1397.14 3.61622 3.75339 0
M  V30 15239 C 1394.46 4.41081 3.86865 0
M  V30 15240 C 1396.82 4.95842 3.9284 0
M  V30 15241 C 1395.48 5.35793 3.98097 0
M  V30 15242 H 1394.75 0.27883 0.686538 0
M  V30 15243 H 1397.4 1.31899 1.38834 0
M  V30 15244 H 1395.7 0.549782 3.87923 0
M  V30 15245 H 1397.4 0.940667 3.89811 0
M  V30 15246 H 1393.99 2.34089 3.59027 0
M  V30 15247 H 1398.17 3.31628 3.69238 0
M  V30 15248 H 1393.43 4.71536 3.89183 0
M  V30 15249 H 1397.6 5.696 4.00661 0
M  V30 15250 H 1395.23 6.40009 4.10234 0
M  V30 15251 N 1396.8 -1.33791 0.83293 0
M  V30 15252 C 1398.05 -1.9868 0.435624 0
M  V30 15253 C 1398.41 -1.64809 -0.992755 0
M  V30 15254 O 1397.7 -0.914608 -1.68361 0
M  V30 15255 C 1397.89 -3.52555 0.586485 0
M  V30 15256 C 1397.72 -4.01377 2.02798 0
M  V30 15257 C 1396.49 -4.29496 2.66197 0
M  V30 15258 C 1398.69 -4.18026 2.99597 0
M  V30 15259 N 1396.67 -4.64419 4.01483 0
M  V30 15260 C 1398.04 -4.5624 4.19815 0
M  V30 15261 C 1400.1 -4.003 2.96081 0
M  V30 15262 C 1398.8 -4.78581 5.36985 0
M  V30 15263 C 1400.83 -4.23813 4.12476 0
M  V30 15264 C 1400.19 -4.62324 5.31447 0
M  V30 15265 H 1396.29 -0.75391 0.207712 0
M  V30 15266 H 1398.87 -1.62017 1.07974 0
M  V30 15267 H 1397.04 -3.8839 -0.027797 0
M  V30 15268 H 1398.77 -4.04379 0.161203 0
M  V30 15269 H 1395.53 -4.20769 2.17371 0
M  V30 15270 H 1395.95 -4.86099 4.71207 0
M  V30 15271 H 1400.6 -3.69646 2.05235 0
M  V30 15272 H 1398.31 -5.08098 6.2838 0
M  V30 15273 H 1401.9 -4.11623 4.11166 0
M  V30 15274 H 1400.78 -4.80157 6.20015 0
M  V30 15275 N 1398.28 -0.588812 -1.46187 0
M  V30 15276 C 1399.53 -0.0744093 -2.01563 0
M  V30 15277 C 1399.84 1.29578 -1.46523 0
M  V30 15278 O 1401.05 1.90186 -1.93756 0
M  V30 15279 C 1399.51 -0.082408 -3.59806 0
M  V30 15280 C 1399.11 -1.45129 -4.23842 0
M  V30 15281 C 1400.86 0.377732 -4.22816 0
M  V30 15282 C 1398.77 -1.41668 -5.74181 0
M  V30 15283 H 1397.7 -0.0240481 -0.753616 0
M  V30 15284 H 1400.35 -0.741364 -1.67857 0
M  V30 15285 H 1398.73 0.650832 -3.90615 0
M  V30 15286 H 1399.9 -2.20474 -4.04633 0
M  V30 15287 H 1398.22 -1.85196 -3.7295 0
M  V30 15288 H 1400.81 0.42251 -5.33028 0
M  V30 15289 H 1401.16 1.39655 -3.92176 0
M  V30 15290 H 1401.69 -0.301638 -3.96655 0
M  V30 15291 H 1398.43 -2.4125 -6.09491 0
M  V30 15292 H 1397.95 -0.705524 -5.95636 0
M  V30 15293 H 1399.63 -1.13221 -6.37016 0
M  V30 15294 N 1399.76 1.54172 -0.326923 0
M  V30 15295 C 1401.18 1.59579 0.0256055 0
M  V30 15296 C 1401.38 1.34337 1.50186 0
M  V30 15297 O 1400.43 1.12945 2.25831 0
M  V30 15298 C 1401.75 2.98086 -0.395641 0
M  V30 15299 C 1403.29 3.11075 -0.346579 0
M  V30 15300 C 1403.77 4.51932 -0.743039 0
M  V30 15301 N 1405.26 4.57932 -0.696575 0
M  V30 15302 C 1405.99 5.65041 -0.975493 0
M  V30 15303 N 1405.49 6.80075 -1.32172 0
M  V30 15304 N 1407.28 5.54835 -0.900831 0
M  V30 15305 H 1399.43 1.68836 -1.28872 0
M  V30 15306 H 1401.7 0.789858 -0.52424 0
M  V30 15307 H 1401.4 3.21568 -1.42431 0
M  V30 15308 H 1401.28 3.76451 0.237645 0
M  V30 15309 H 1403.66 2.87326 0.672889 0
M  V30 15310 H 1403.75 2.34807 -1.01484 0
M  V30 15311 H 1403.39 4.76415 -1.76044 0
M  V30 15312 H 1403.32 5.26574 -0.0524263 0
M  V30 15313 H 1405.81 3.75318 -0.440969 0
M  V30 15314 H 1406.12 7.57708 -1.51983 0
M  V30 15315 H 1404.47 6.81563 -1.36001 0
M  V30 15316 H 1407.66 4.63844 -0.629812 0
M  V30 15317 H 1407.83 6.3822 -1.12156 0
M  V30 15318 N 1401.24 0.0551678 1.57503 0
M  V30 15319 C 1402.49 -0.617201 1.92025 0
M  V30 15320 C 1402.8 -1.71767 0.93571 0
M  V30 15321 O 1404.01 -2.44847 1.17312 0
M  V30 15322 C 1402.46 -1.14915 3.41061 0
M  V30 15323 C 1402.07 -0.0805814 4.47928 0
M  V30 15324 C 1403.81 -1.79654 3.8461 0
M  V30 15325 C 1401.72 -0.625639 5.88081 0
M  V30 15326 H 1400.65 -0.23431 0.716669 0
M  V30 15327 H 1403.3 0.124706 1.83076 0
M  V30 15328 H 1401.68 -1.9435 3.45028 0
M  V30 15329 H 1402.86 0.693222 4.55556 0
M  V30 15330 H 1401.17 0.469581 4.13744 0
M  V30 15331 H 1403.77 -2.21436 4.86693 0
M  V30 15332 H 1404.11 -2.64987 3.21073 0
M  V30 15333 H 1404.65 -1.06868 3.83176 0
M  V30 15334 H 1401.39 0.190148 6.55224 0
M  V30 15335 H 1400.91 -1.36734 5.84007 0
M  V30 15336 H 1402.58 -1.10728 6.37454 0
M  V30 15337 N 1402.72 -1.56081 -0.218252 0
M  V30 15338 C 1404.13 -1.69397 -0.784964 0
M  V30 15339 C 1404.48 -0.65775 -1.84846 0
M  V30 15340 O 1403.6 0.190478 -2.1556 0
M  V30 15341 C 1404.2 -3.07114 -1.4306 0
M  V30 15342 C 1402.76 -3.22273 -1.94466 0
M  V30 15343 C 1401.9 -2.65327 -0.80604 0
M  V30 15344 H 1404.86 -1.58699 0.0064566 0
M  V30 15345 H 1404.88 -3.03156 -2.2995 0
M  V30 15346 H 1404.39 -3.8251 -0.656335 0
M  V30 15347 H 1402.49 -2.51752 -2.74684 0
M  V30 15348 H 1402.6 -4.29526 -2.12237 0
M  V30 15349 H 1400.97 -2.23894 -1.21423 0
M  V30 15350 H 1401.75 -3.43271 -0.0443928 0
M  V30 15351 N 1404.2 0.485086 -1.49949 0
M  V30 15352 C 1405.14 1.5848 -1.67788 0
M  V30 15353 C 1406.11 1.57776 -0.519216 0
M  V30 15354 O 1407.3 1.75521 -0.748141 0
M  V30 15355 C 1404.44 2.9654 -1.76516 0
M  V30 15356 C 1403.55 3.07139 -3.03792 0
M  V30 15357 C 1402.69 4.36029 -3.03401 0
M  V30 15358 C 1401.72 4.40318 -4.2519 0
M  V30 15359 N 1400.86 5.60659 -4.22618 0
M  V30 15360 H 1405.7 1.42575 -2.6168 0
M  V30 15361 H 1403.24 0.693426 -1.29731 0
M  V30 15362 H 1405.2 3.76583 -1.79557 0
M  V30 15363 H 1403.83 3.11112 -0.860764 0
M  V30 15364 H 1402.88 2.20057 -3.10289 0
M  V30 15365 H 1404.19 3.06167 -3.9378 0
M  V30 15366 H 1403.34 5.24407 -3.05094 0
M  V30 15367 H 1402.08 4.39588 -2.11219 0
M  V30 15368 H 1401.09 3.50339 -4.23725 0
M  V30 15369 H 1402.31 4.38461 -5.18583 0
M  V30 15370 H 1400.26 5.6503 -3.33282 0
M  V30 15371 H 1400.18 5.61371 -5.06359 0
M  V30 15372 H 1401.44 6.51201 -4.28436 0
M  V30 15373 N 1405.67 1.39291 0.737279 0
M  V30 15374 C 1406.9 1.39457 1.52431 0
M  V30 15375 C 1407.31 -0.0132866 1.89195 0
M  V30 15376 O 1406.65 -0.99443 1.54456 0
M  V30 15377 C 1406.72 2.20125 2.84227 0
M  V30 15378 C 1406.38 3.68778 2.6991 0
M  V30 15379 C 1407.38 4.6191 2.38611 0
M  V30 15380 C 1405.06 4.12336 2.86853 0
M  V30 15381 C 1407.06 5.96581 2.24432 0
M  V30 15382 C 1404.74 5.47083 2.72292 0
M  V30 15383 C 1405.74 6.3902 2.41127 0
M  V30 15384 O 1405.43 7.71287 2.26654 0
M  V30 15385 H 1405.16 0.478281 0.477727 0
M  V30 15386 H 1407.72 1.837 0.918891 0
M  V30 15387 H 1405.95 1.70627 3.47021 0
M  V30 15388 H 1407.63 2.12497 3.45832 0
M  V30 15389 H 1408.4 4.29559 2.25175 0
M  V30 15390 H 1404.28 3.41111 3.10103 0
M  V30 15391 H 1407.82 6.68307 2.00028 0
M  V30 15392 H 1403.72 5.79026 2.85306 0
M  V30 15393 H 1404.49 7.81987 2.41742 0
M  V30 15394 N 1407.15 -0.967221 1.24429 0
M  V30 15395 C 1408.4 -1.71026 1.08427 0
M  V30 15396 C 1408.73 -1.90815 -0.376812 0
M  V30 15397 O 1407.98 -1.46745 -1.29477 0
M  V30 15398 C 1408.28 -3.10507 1.76975 0
M  V30 15399 C 1407.95 -3.10557 3.26902 0
M  V30 15400 C 1406.61 -3.10278 3.67806 0
M  V30 15401 C 1408.96 -3.04852 4.22746 0
M  V30 15402 C 1406.29 -3.02027 5.02988 0
M  V30 15403 C 1408.64 -2.98143 5.57937 0
M  V30 15404 C 1407.3 -2.96193 5.98185 0
M  V30 15405 H 1406.57 -0.625827 0.396764 0
M  V30 15406 H 1409.22 -1.13094 1.54538 0
M  V30 15407 H 1407.53 -3.71906 1.2326 0
M  V30 15408 H 1409.22 -3.66794 1.62058 0
M  V30 15409 H 1405.81 -3.11539 2.94349 0
M  V30 15410 H 1410 -3.04197 3.92145 0
M  V30 15411 H 1405.25 -2.98878 5.33368 0
M  V30 15412 H 1409.43 -2.92688 6.31907 0
M  V30 15413 H 1407.05 -2.89555 7.02895 0
M  V30 15414 N 1408.63 -1.05812 -1.16797 0
M  V30 15415 C 1409.58 -0.658636 -2.2308 0
M  V30 15416 C 1410.57 0.323104 -1.6629 0
M  V30 15417 O 1411.78 0.188492 -1.7901 0
M  V30 15418 H 1408.15 -0.194843 -0.72632 0
M  V30 15419 H 1410.12 -1.56501 -2.54067 0
M  V30 15420 C 1408.87 -0.0559428 -3.47655 0
M  V30 15421 H 1408.2 -0.802468 -3.91664 0
M  V30 15422 H 1409.64 0.186118 -4.23591 0
M  V30 15423 C 1408.09 1.19913 -3.14837 0
M  V30 15424 O 1408.62 2.28772 -3.30191 0
M  V30 15425 N 1406.83 1.09921 -2.69009 0
M  V30 15426 H 1406.38 0.213331 -2.56715 0
M  V30 15427 H 1406.34 1.93981 -2.47424 0
M  V30 15428 N 1410.11 1.33347 -0.840014 0
M  V30 15429 C 1411.33 2.02485 -0.448856 0
M  V30 15430 C 1411.76 1.62781 0.942543 0
M  V30 15431 O 1411.12 0.82099 1.61646 0
M  V30 15432 C 1411.16 3.55928 -0.578582 0
M  V30 15433 O 1410.27 4.10507 0.394695 0
M  V30 15434 H 1409.61 0.63848 -0.182317 0
M  V30 15435 H 1412.14 1.70221 -1.13516 0
M  V30 15436 H 1412.15 4.05391 -0.460653 0
M  V30 15437 H 1410.82 3.8417 -1.5933 0
M  V30 15438 H 1409.4 3.72164 0.234227 0
M  V30 15439 N 1411.59 0.596556 1.45873 0
M  V30 15440 C 1412.83 0.0850976 2.0152 0
M  V30 15441 C 1413.15 -1.28799 1.47208 0
M  V30 15442 O 1414.35 -1.89156 1.94762 0
M  V30 15443 C 1412.81 0.101488 3.59757 0
M  V30 15444 C 1412.42 1.47374 4.23066 0
M  V30 15445 C 1414.16 -0.355303 4.2301 0
M  V30 15446 C 1412.07 1.44711 5.73422 0
M  V30 15447 H 1411 0.0280444 0.753478 0
M  V30 15448 H 1413.65 0.750255 1.67462 0
M  V30 15449 H 1412.03 -0.630108 3.90955 0
M  V30 15450 H 1413.21 2.22617 4.03458 0
M  V30 15451 H 1411.52 1.87171 3.71962 0
M  V30 15452 H 1414.12 -0.394236 5.33245 0
M  V30 15453 H 1414.46 -1.37573 3.92911 0
M  V30 15454 H 1414.99 0.32267 3.96489 0
M  V30 15455 H 1411.73 2.44479 6.08203 0
M  V30 15456 H 1411.25 0.737102 5.95254 0
M  V30 15457 H 1412.93 1.16598 6.36407 0
M  V30 15458 N 1413.06 -1.53996 0.335095 0
M  V30 15459 C 1414.29 -2.05657 -0.268328 0
M  V30 15460 C 1414.71 -1.20897 -1.44102 0
M  V30 15461 O 1414.07 -0.220737 -1.79951 0
M  V30 15462 C 1414.12 -3.54331 -0.669481 0
M  V30 15463 O 1413.22 -3.7246 -1.77052 0
M  V30 15464 H 1412.56 -0.662386 -0.0462705 0
M  V30 15465 H 1415.09 -1.98723 0.486854 0
M  V30 15466 H 1415.1 -3.9681 -0.948971 0
M  V30 15467 H 1413.78 -4.15474 0.188168 0
M  V30 15468 H 1412.36 -3.41884 -1.48895 0
M  V30 15469 N 1414.54 -0.0635198 -1.57472 0
M  V30 15470 C 1415.47 0.90431 -2.15278 0
M  V30 15471 C 1416.45 1.31609 -1.07764 0
M  V30 15472 O 1417.64 1.38861 -1.35762 0
M  V30 15473 C 1414.77 2.17483 -2.70774 0
M  V30 15474 C 1413.72 1.90272 -3.8338 0
M  V30 15475 C 1413.05 3.23885 -4.25444 0
M  V30 15476 C 1414.35 1.21454 -5.07983 0
M  V30 15477 H 1416.04 0.422786 -2.964 0
M  V30 15478 H 1413.59 0.201918 -1.42577 0
M  V30 15479 H 1415.54 2.856 -3.09856 0
M  V30 15480 H 1414.26 2.67863 -1.86861 0
M  V30 15481 H 1412.92 1.24564 -3.44789 0
M  V30 15482 H 1412.57 3.72089 -3.38465 0
M  V30 15483 H 1412.27 3.06472 -5.01347 0
M  V30 15484 H 1413.8 3.93212 -4.67137 0
M  V30 15485 H 1415.21 1.79625 -5.44433 0
M  V30 15486 H 1413.61 1.14327 -5.89109 0
M  V30 15487 H 1414.68 0.19238 -4.84518 0
M  V30 15488 N 1416.02 1.56195 0.209972 0
M  V30 15489 C 1416.97 1.94226 1.27981 0
M  V30 15490 C 1417.96 0.825742 1.47912 0
M  V30 15491 O 1419.17 1.01066 1.48949 0
M  V30 15492 H 1415.54 0.617395 0.429333 0
M  V30 15493 H 1417.51 2.83474 0.931946 0
M  V30 15494 C 1416.26 2.28527 2.62051 0
M  V30 15495 H 1415.59 3.1396 2.47526 0
M  V30 15496 H 1417.03 2.59012 3.35692 0
M  V30 15497 C 1415.48 1.11452 3.17931 0
M  V30 15498 O 1416.01 0.381713 3.99882 0
M  V30 15499 N 1414.22 0.895263 2.76466 0
M  V30 15500 H 1413.77 1.4929 2.09929 0
M  V30 15501 H 1413.73 0.113688 3.14194 0
M  V30 15502 N 1417.5 -0.477127 1.50204 0
M  V30 15503 C 1418.45 -1.59664 1.69145 0
M  V30 15504 C 1419.44 -1.59971 0.557294 0
M  V30 15505 O 1420.65 -1.64192 0.737623 0
M  V30 15506 H 1417.02 -0.529706 0.533775 0
M  V30 15507 H 1418.99 -1.40848 2.63067 0
M  V30 15508 C 1417.74 -2.97647 1.79726 0
M  V30 15509 H 1417.06 -2.98127 2.66383 0
M  V30 15510 H 1418.5 -3.75453 1.97006 0
M  V30 15511 C 1416.96 -3.32422 0.547464 0
M  V30 15512 O 1417.49 -4.00454 -0.316115 0
M  V30 15513 N 1415.7 -2.87788 0.40328 0
M  V30 15514 H 1415.25 -2.32598 1.10706 0
M  V30 15515 H 1415.2 -3.11421 -0.431797 0
M  V30 15516 N 1418.98 -1.3968 -0.729882 0
M  V30 15517 C 1419.89 -1.41094 -1.87429 0
M  V30 15518 C 1420.9 -0.305142 -1.71303 0
M  V30 15519 O 1422.08 -0.54744 -1.93817 0
M  V30 15520 C 1419.14 -1.25786 -3.23077 0
M  V30 15521 C 1418.2 -2.46382 -3.5156 0
M  V30 15522 C 1417.44 -2.31795 -4.80735 0
M  V30 15523 O 1417.66 -1.32415 -5.54818 0
M  V30 15524 O 1416.59 -3.20883 -5.09232 0
M  V30 15525 H 1420.42 -2.37571 -1.89192 0
M  V30 15526 H 1418.01 -1.2085 -0.878389 0
M  V30 15527 H 1419.89 -1.19402 -4.0413 0
M  V30 15528 H 1418.56 -0.324065 -3.22074 0
M  V30 15529 H 1417.47 -2.58343 -2.70573 0
M  V30 15530 H 1418.8 -3.38473 -3.57347 0
M  V30 15531 N 1420.45 0.960609 -1.2494 0
M  V30 15532 C 1421.68 1.73676 -1.11894 0
M  V30 15533 C 1422.09 1.86288 0.330648 0
M  V30 15534 O 1421.44 1.35575 1.23957 0
M  V30 15535 C 1421.5 3.17142 -1.69297 0
M  V30 15536 C 1421.16 3.27978 -3.18244 0
M  V30 15537 C 1422.16 3.12754 -4.15308 0
M  V30 15538 C 1419.84 3.51991 -3.5834 0
M  V30 15539 C 1421.84 3.21379 -5.50449 0
M  V30 15540 C 1419.52 3.60253 -4.9362 0
M  V30 15541 C 1420.52 3.44961 -5.89484 0
M  V30 15542 O 1420.21 3.52893 -7.22303 0
M  V30 15543 H 1419.94 0.551226 -0.391313 0
M  V30 15544 H 1422.5 1.21418 -1.65671 0
M  V30 15545 H 1420.73 3.70736 -1.09961 0
M  V30 15546 H 1422.42 3.76592 -1.51437 0
M  V30 15547 H 1423.18 2.94079 -3.85672 0
M  V30 15548 H 1419.06 3.62957 -2.84224 0
M  V30 15549 H 1422.6 3.0936 -6.25254 0
M  V30 15550 H 1418.5 3.78444 -5.22925 0
M  V30 15551 H 1419.27 3.69563 -7.30319 0
M  V30 15552 N 1421.93 1.0643 1.16234 0
M  V30 15553 C 1423.16 0.802644 1.90697 0
M  V30 15554 C 1423.58 -0.643145 1.77508 0
M  V30 15555 O 1422.93 -1.4404 1.12065 0
M  V30 15556 C 1422.98 1.18984 3.41358 0
M  V30 15557 O 1422.7 2.5789 3.54153 0
M  V30 15558 C 1424.21 0.956132 4.32866 0
M  V30 15559 H 1421.43 0.290891 0.604668 0
M  V30 15560 H 1423.97 1.41829 1.47325 0
M  V30 15561 H 1422.12 0.618703 3.82428 0
M  V30 15562 H 1422.54 2.73431 4.47589 0
M  V30 15563 H 1424.01 1.27667 5.37034 0
M  V30 15564 H 1424.49 -0.108062 4.39067 0
M  V30 15565 H 1425.1 1.51172 3.97526 0
M  V30 15566 N 1423.41 -1.329 0.847073 0
M  V30 15567 C 1424.66 -1.96774 0.443022 0
M  V30 15568 C 1424.97 -1.67813 -1.0049 0
M  V30 15569 O 1426.18 -2.25366 -1.51402 0
M  V30 15570 C 1424.63 -3.52184 0.741268 0
M  V30 15571 C 1424.24 -3.90013 2.20441 0
M  V30 15572 C 1425.99 -4.22568 0.404569 0
M  V30 15573 C 1423.89 -5.38434 2.44627 0
M  V30 15574 H 1422.82 -0.736406 0.161932 0
M  V30 15575 H 1425.47 -1.51402 1.0368 0
M  V30 15576 H 1423.86 -3.95925 0.0770158 0
M  V30 15577 H 1425.03 -3.57304 2.90982 0
M  V30 15578 H 1423.35 -3.32633 2.50489 0
M  V30 15579 H 1425.94 -5.3173 0.562795 0
M  V30 15580 H 1426.29 -4.11144 -0.653172 0
M  V30 15581 H 1426.82 -3.84384 1.0244 0
M  V30 15582 H 1423.56 -5.5487 3.48997 0
M  V30 15583 H 1423.08 -5.72575 1.78656 0
M  V30 15584 H 1424.76 -6.05423 2.28194 0
M  V30 15585 N 1424.89 -0.604284 -1.45555 0
M  V30 15586 C 1426.14 -0.0957836 -2.01472 0
M  V30 15587 C 1426.45 1.28016 -1.47889 0
M  V30 15588 O 1427.66 1.88121 -1.95762 0
M  V30 15589 C 1426.11 -0.120566 -3.59698 0
M  V30 15590 C 1425.72 -1.49616 -4.22278 0
M  V30 15591 C 1427.46 0.332865 -4.23193 0
M  V30 15592 C 1425.37 -1.4775 -5.72646 0
M  V30 15593 H 1424.3 -0.0320399 -0.753319 0
M  V30 15594 H 1426.95 -0.759125 -1.67061 0
M  V30 15595 H 1425.33 0.609365 -3.91283 0
M  V30 15596 H 1426.51 -2.24753 -4.02272 0
M  V30 15597 H 1424.82 -1.89141 -3.70965 0
M  V30 15598 H 1427.42 0.365951 -5.33446 0
M  V30 15599 H 1427.76 1.35487 -3.93635 0
M  V30 15600 H 1428.3 -0.343692 -3.96313 0
M  V30 15601 H 1425.04 -2.47701 -6.06898 0
M  V30 15602 H 1424.56 -0.768659 -5.94854 0
M  V30 15603 H 1426.23 -1.19971 -6.3578 0
M  V30 15604 N 1426.37 1.53816 -0.343257 0
M  V30 15605 C 1427.31 2.26505 0.529002 0
M  V30 15606 C 1428.31 1.28639 1.1022 0
M  V30 15607 O 1429.51 1.46348 1.04797 0
M  V30 15608 H 1425.89 0.727789 0.189279 0
M  V30 15609 H 1427.86 2.98211 -0.106096 0
M  V30 15610 C 1426.61 3.05062 1.6683 0
M  V30 15611 H 1425.93 3.80198 1.23651 0
M  V30 15612 H 1427.37 3.59138 2.2538 0
M  V30 15613 C 1425.83 2.14543 2.59756 0
M  V30 15614 O 1426.36 1.74132 3.61996 0
M  V30 15615 N 1424.57 1.79628 2.28434 0
M  V30 15616 H 1424.11 2.12688 1.45332 0
M  V30 15617 H 1424.07 1.19345 2.90868 0
M  V30 15618 N 1427.84 0.0718701 1.57436 0
M  V30 15619 C 1429.08 -0.600882 1.95368 0
M  V30 15620 C 1429.45 -1.66772 0.951368 0
M  V30 15621 O 1430.65 -2.39603 1.21835 0
M  V30 15622 C 1428.92 -1.1628 3.37955 0
M  V30 15623 S 1430.48 -1.85067 3.97864 0
M  V30 15624 H 1427.3 -0.196749 0.683235 0
M  V30 15625 H 1429.9 0.145744 1.94956 0
M  V30 15626 H 1428.6 -0.374507 4.08688 0
M  V30 15627 H 1428.13 -1.94578 3.41911 0
M  V30 15628 H 1430.15 -3.1331 3.84774 0
M  V30 15629 N 1429.32 -1.56304 -0.201686 0
M  V30 15630 C 1430.26 -1.8907 -1.27781 0
M  V30 15631 C 1431.23 -0.75009 -1.44265 0
M  V30 15632 O 1432.42 -1.00044 -1.59761 0
M  V30 15633 C 1429.54 -2.11513 -2.64537 0
M  V30 15634 C 1428.59 -3.34214 -2.64959 0
M  V30 15635 S 1429.42 -4.89541 -2.17047 0
M  V30 15636 C 1430.58 -5.15044 -3.55641 0
M  V30 15637 H 1430.81 -2.8005 -0.997971 0
M  V30 15638 H 1428.35 -1.48997 -0.404872 0
M  V30 15639 H 1430.3 -2.25126 -3.43262 0
M  V30 15640 H 1428.96 -1.21295 -2.89735 0
M  V30 15641 H 1428.16 -3.47023 -3.65501 0
M  V30 15642 H 1427.76 -3.1956 -1.94312 0
M  V30 15643 H 1430.05 -5.05161 -4.51463 0
M  V30 15644 H 1430.99 -6.16838 -3.47731 0
M  V30 15645 H 1431.4 -4.42704 -3.50248 0
M  V30 15646 N 1430.8 0.469154 -1.50455 0
M  V30 15647 C 1431.71 1.59271 -1.7225 0
M  V30 15648 C 1432.73 1.63119 -0.605668 0
M  V30 15649 O 1433.9 1.80952 -0.884222 0
M  V30 15650 C 1430.97 2.95475 -1.81372 0
M  V30 15651 C 1430.03 3.02 -3.05114 0
M  V30 15652 C 1429.26 4.31707 -3.13791 0
M  V30 15653 O 1429.48 5.2232 -2.29211 0
M  V30 15654 O 1428.42 4.43864 -4.06532 0
M  V30 15655 H 1432.24 1.43804 -2.67496 0
M  V30 15656 H 1429.83 0.648855 -1.34574 0
M  V30 15657 H 1431.71 3.76367 -1.89541 0
M  V30 15658 H 1430.39 3.11136 -0.893094 0
M  V30 15659 H 1429.29 2.20178 -3.02444 0
M  V30 15660 H 1430.63 2.91275 -3.96761 0
M  V30 15661 N 1432.28 1.40065 0.722464 0
M  V30 15662 C 1433.23 1.39947 1.85789 0
M  V30 15663 C 1434.22 0.28089 1.67055 0
M  V30 15664 O 1435.43 0.451575 1.74244 0
M  V30 15665 H 1431.8 0.437296 0.611781 0
M  V30 15666 H 1433.77 2.35695 1.83004 0
M  V30 15667 C 1432.52 1.27218 3.2359 0
M  V30 15668 H 1431.84 2.12566 3.38609 0
M  V30 15669 H 1433.28 1.31194 4.03192 0
M  V30 15670 C 1431.74 -0.0182466 3.36895 0
M  V30 15671 O 1432.27 -0.983761 3.89468 0
M  V30 15672 N 1430.48 -0.0854707 2.90474 0
M  V30 15673 H 1430.03 0.700953 2.4788 0
M  V30 15674 H 1429.98 -0.948367 2.99755 0
M  V30 15675 N 1433.76 -0.95397 1.25448 0
M  V30 15676 C 1434.71 -2.07206 1.05681 0
M  V30 15677 C 1435.7 -1.69395 -0.0124672 0
M  V30 15678 O 1436.91 -1.79429 0.143201 0
M  V30 15679 H 1433.28 -0.678231 0.324817 0
M  V30 15680 H 1435.25 -2.21034 2.00466 0
M  V30 15681 C 1434 -3.40725 0.692955 0
M  V30 15682 H 1433.32 -3.70287 1.50756 0
M  V30 15683 H 1434.76 -4.19814 0.594351 0
M  V30 15684 C 1433.22 -3.31495 -0.601028 0
M  V30 15685 O 1433.75 -3.66565 -1.64296 0
M  V30 15686 N 1431.96 -2.84612 -0.586899 0
M  V30 15687 H 1431.51 -2.56271 0.261375 0
M  V30 15688 H 1431.46 -2.78819 -1.45284 0
M  V30 15689 N 1435.24 -1.07045 -1.15668 0
M  V30 15690 C 1436.46 -0.812802 -1.9081 0
M  V30 15691 C 1436.89 0.627827 -1.77313 0
M  V30 15692 O 1436.24 1.43836 -1.10368 0
M  V30 15693 C 1436.29 -1.2219 -3.39267 0
M  V30 15694 O 1435.4 -0.365305 -4.10779 0
M  V30 15695 H 1434.74 -0.296385 -0.594182 0
M  V30 15696 H 1437.27 -1.42825 -1.465 0
M  V30 15697 H 1437.28 -1.19674 -3.90054 0
M  V30 15698 H 1435.95 -2.27121 -3.48409 0
M  V30 15699 H 1434.53 -0.452687 -3.70142 0
M  V30 15700 N 1436.71 1.32449 -0.85411 0
M  V30 15701 C 1437.96 1.96881 -0.45632 0
M  V30 15702 C 1438.28 1.67926 0.991248 0
M  V30 15703 O 1437.55 0.986195 1.69266 0
M  V30 15704 H 1436.13 0.728378 -0.165752 0
M  V30 15705 H 1438.79 1.61542 -1.09042 0
M  V30 15706 H 1437.89 3.0626 -0.600927 0
M  V30 15707 N 1438.19 0.611994 1.45232 0
M  V30 15708 C 1439.44 0.117519 2.0306 0
M  V30 15709 C 1439.79 -1.23976 1.47132 0
M  V30 15710 O 1439.09 -1.80657 0.638249 0
M  V30 15711 C 1439.28 0.0243361 3.57392 0
M  V30 15712 C 1439.11 1.37103 4.28291 0
M  V30 15713 C 1437.88 1.95287 4.66038 0
M  V30 15714 C 1440.08 2.30076 4.59967 0
M  V30 15715 N 1438.06 3.23391 5.21816 0
M  V30 15716 C 1439.43 3.42782 5.16624 0
M  V30 15717 C 1441.48 2.29394 4.41908 0
M  V30 15718 C 1440.19 4.54975 5.57126 0
M  V30 15719 C 1442.21 3.40638 4.83446 0
M  V30 15720 C 1441.58 4.52066 5.402 0
M  V30 15721 H 1437.67 0.0864756 0.777204 0
M  V30 15722 H 1440.26 0.81131 1.76991 0
M  V30 15723 H 1438.43 -0.638687 3.83113 0
M  V30 15724 H 1440.16 -0.477205 4.01877 0
M  V30 15725 H 1436.92 1.48443 4.49735 0
M  V30 15726 H 1437.34 3.88835 5.54199 0
M  V30 15727 H 1441.98 1.44504 3.97339 0
M  V30 15728 H 1439.7 5.40587 6.00659 0
M  V30 15729 H 1443.29 3.41263 4.71202 0
M  V30 15730 H 1442.17 5.36723 5.7175 0
M  V30 15731 N 1439.67 -1.53632 0.351409 0
M  V30 15732 C 1440.62 -2.25281 -0.501724 0
M  V30 15733 C 1441.59 -1.25406 -1.08915 0
M  V30 15734 O 1442.77 -1.54157 -1.1243 0
M  V30 15735 C 1439.91 -3.03491 -1.64278 0
M  V30 15736 C 1439.02 -4.18233 -1.0819 0
M  V30 15737 C 1438.16 -4.83914 -2.1909 0
M  V30 15738 C 1437.2 -5.90712 -1.60394 0
M  V30 15739 N 1436.34 -6.50141 -2.65068 0
M  V30 15740 H 1441.18 -2.97775 0.11579 0
M  V30 15741 H 1438.71 -1.46938 0.0689141 0
M  V30 15742 H 1440.67 -3.47101 -2.31467 0
M  V30 15743 H 1439.3 -2.33279 -2.23116 0
M  V30 15744 H 1438.35 -3.7921 -0.300713 0
M  V30 15745 H 1439.66 -4.95023 -0.612644 0
M  V30 15746 H 1438.82 -5.30635 -2.94128 0
M  V30 15747 H 1437.56 -4.06565 -2.69362 0
M  V30 15748 H 1436.56 -5.43366 -0.838646 0
M  V30 15749 H 1437.79 -6.69973 -1.10964 0
M  V30 15750 H 1435.73 -5.75652 -3.14581 0
M  V30 15751 H 1435.65 -7.22427 -2.22788 0
M  V30 15752 H 1436.92 -7.01513 -3.39852 0
M  V30 15753 N 1441.15 -0.0802183 -1.57396 0
M  V30 15754 C 1442.39 0.587831 -1.94094 0
M  V30 15755 C 1442.73 1.6875 -0.961093 0
M  V30 15756 O 1442 1.94498 0.00832799 0
M  V30 15757 C 1442.28 1.15692 -3.41009 0
M  V30 15758 C 1442.14 0.0633211 -4.49755 0
M  V30 15759 C 1443.46 2.05987 -3.88918 0
M  V30 15760 H 1440.58 0.212214 -0.705786 0
M  V30 15761 H 1443.22 -0.147902 -1.89423 0
M  V30 15762 H 1441.37 1.78394 -3.4512 0
M  V30 15763 H 1443.04 -0.57019 -4.57763 0
M  V30 15764 H 1441.28 -0.605003 -4.2956 0
M  V30 15765 H 1441.95 0.502056 -5.49712 0
M  V30 15766 H 1444.43 1.5321 -3.86867 0
M  V30 15767 H 1443.31 2.42737 -4.92311 0
M  V30 15768 H 1443.57 2.97147 -3.27347 0
M  V30 15769 N 1442.63 1.56409 0.193394 0
M  V30 15770 C 1443.85 1.8519 0.933775 0
M  V30 15771 C 1444.28 0.663991 1.75991 0
M  V30 15772 O 1443.63 -0.387198 1.77117 0
M  V30 15773 C 1443.68 3.12212 1.80432 0
M  V30 15774 O 1442.79 2.92884 2.90332 0
M  V30 15775 H 1442.13 0.609754 0.262862 0
M  V30 15776 H 1444.66 2.03638 0.198195 0
M  V30 15777 H 1444.67 3.4305 2.20864 0
M  V30 15778 H 1443.34 3.98292 1.19733 0
M  V30 15779 H 1441.92 2.73349 2.53643 0
M  V30 15780 N 1444.1 -0.461169 1.50702 0
M  V30 15781 C 1445.03 -1.56576 1.73223 0
M  V30 15782 C 1446.01 -1.59855 0.581401 0
M  V30 15783 O 1447.2 -1.75964 0.821602 0
M  V30 15784 C 1444.33 -2.94835 1.83548 0
M  V30 15785 C 1443.28 -3.06421 2.98815 0
M  V30 15786 C 1442.61 -4.46425 2.94293 0
M  V30 15787 C 1443.91 -2.82714 4.3917 0
M  V30 15788 H 1445.6 -1.37982 2.65709 0
M  V30 15789 H 1443.15 -0.662362 1.27862 0
M  V30 15790 H 1445.1 -3.72047 1.97887 0
M  V30 15791 H 1443.83 -3.14608 0.876906 0
M  V30 15792 H 1442.49 -2.31644 2.84142 0
M  V30 15793 H 1442.13 -4.63131 1.96262 0
M  V30 15794 H 1441.83 -4.55111 3.71682 0
M  V30 15795 H 1443.36 -5.25644 3.10695 0
M  V30 15796 H 1444.77 -3.4967 4.54317 0
M  V30 15797 H 1443.17 -3.02835 5.18084 0
M  V30 15798 H 1444.24 -1.78492 4.50853 0
M  V30 15799 N 1445.58 -1.40446 -0.715026 0
M  V30 15800 C 1446.53 -1.40931 -1.85044 0
M  V30 15801 C 1447.52 -0.289745 -1.66904 0
M  V30 15802 O 1448.73 -0.460809 -1.74002 0
M  V30 15803 H 1445.1 -0.440534 -0.609454 0
M  V30 15804 H 1447.08 -2.36662 -1.81752 0
M  V30 15805 C 1445.82 -1.28933 -3.22911 0
M  V30 15806 H 1445.15 -2.14359 -3.37476 0
M  V30 15807 H 1446.59 -1.33331 -4.02491 0
M  V30 15808 C 1445.05 0.000379936 -3.369 0
M  V30 15809 O 1445.58 0.963093 -3.89984 0
M  V30 15810 N 1443.78 0.0700649 -2.90516 0
M  V30 15811 H 1443.33 -0.714088 -2.47505 0
M  V30 15812 H 1443.29 0.932457 -3.00254 0
M  V30 15813 N 1447.06 0.947303 -1.25952 0
M  V30 15814 C 1448.29 1.72479 -1.1373 0
M  V30 15815 C 1448.7 1.86629 0.310871 0
M  V30 15816 O 1448.04 1.36882 1.22512 0
M  V30 15817 C 1448.1 3.15328 -1.72651 0
M  V30 15818 C 1447.77 3.24584 -3.21705 0
M  V30 15819 C 1448.76 3.08331 -4.18602 0
M  V30 15820 C 1446.45 3.4817 -3.62054 0
M  V30 15821 C 1448.44 3.15523 -5.53827 0
M  V30 15822 C 1446.13 3.54997 -4.97413 0
M  V30 15823 C 1447.13 3.38689 -5.93109 0
M  V30 15824 O 1446.82 3.45212 -7.26005 0
M  V30 15825 H 1446.55 0.547044 -0.397138 0
M  V30 15826 H 1449.1 1.19654 -1.66949 0
M  V30 15827 H 1447.33 3.69549 -1.13887 0
M  V30 15828 H 1449.02 3.74965 -1.55423 0
M  V30 15829 H 1449.79 2.89971 -3.88769 0
M  V30 15830 H 1445.67 3.59922 -2.88057 0
M  V30 15831 H 1449.21 3.02711 -6.285 0
M  V30 15832 H 1445.11 3.72876 -5.26909 0
M  V30 15833 H 1445.87 3.61796 -7.34198 0
M  V30 15834 N 1448.54 1.07657 1.15099 0
M  V30 15835 C 1449.79 0.800025 1.85591 0
M  V30 15836 C 1450.11 -0.675973 1.82909 0
M  V30 15837 O 1449.38 -1.48971 1.27218 0
M  V30 15838 H 1447.96 0.292958 0.687157 0
M  V30 15839 H 1450.62 1.36096 1.39513 0
M  V30 15840 H 1449.72 1.13733 2.90639 0
M  V30 15841 N 1450.02 -1.31994 0.861122 0
M  V30 15842 C 1450.93 -2.32495 0.313555 0
M  V30 15843 C 1451.94 -1.64331 -0.571966 0
M  V30 15844 O 1453.12 -1.9582 -0.470794 0
M  V30 15845 C 1450.18 -3.43311 -0.483603 0
M  V30 15846 C 1449.24 -4.27153 0.428825 0
M  V30 15847 C 1448.48 -5.32676 -0.330383 0
M  V30 15848 O 1448.7 -5.48665 -1.55957 0
M  V30 15849 O 1447.63 -6.01116 0.307174 0
M  V30 15850 H 1451.46 -2.81234 1.14636 0
M  V30 15851 H 1449.05 -1.35734 0.624239 0
M  V30 15852 H 1450.93 -4.10877 -0.935831 0
M  V30 15853 H 1449.6 -2.9675 -1.2931 0
M  V30 15854 H 1448.51 -3.62372 0.929366 0
M  V30 15855 H 1449.84 -4.77255 1.20368 0
M  V30 15856 N 1451.49 -0.619688 -1.44906 0
M  V30 15857 C 1452.74 -0.117147 -2.0136 0
M  V30 15858 C 1453.06 1.2644 -1.49239 0
M  V30 15859 O 1454.26 1.86034 -1.97747 0
M  V30 15860 C 1452.72 -0.15871 -3.5955 0
M  V30 15861 C 1452.33 -1.54086 -4.20668 0
M  V30 15862 C 1454.07 0.287961 -4.23522 0
M  V30 15863 C 1451.98 -1.53816 -5.71047 0
M  V30 15864 H 1450.91 -0.040028 -0.752937 0
M  V30 15865 H 1453.56 -0.776802 -1.66247 0
M  V30 15866 H 1451.94 0.56783 -3.91908 0
M  V30 15867 H 1453.11 -2.29007 -3.99865 0
M  V30 15868 H 1451.43 -1.93065 -3.68938 0
M  V30 15869 H 1454.03 0.309351 -5.33804 0
M  V30 15870 H 1454.37 1.31305 -3.9505 0
M  V30 15871 H 1454.9 -0.385707 -3.95926 0
M  V30 15872 H 1451.64 -2.54124 -6.04236 0
M  V30 15873 H 1451.16 -0.831708 -5.94006 0
M  V30 15874 H 1452.84 -1.26708 -6.34472 0
M  V30 15875 N 1452.97 1.53444 -0.359552 0
M  V30 15876 C 1454.22 2.00348 0.233109 0
M  V30 15877 C 1454.53 1.25104 1.50361 0
M  V30 15878 O 1455.74 1.62566 2.1745 0
M  V30 15879 C 1454.2 3.56871 0.465951 0
M  V30 15880 C 1453.8 4.40987 -0.789571 0
M  V30 15881 C 1455.55 4.12148 1.0166 0
M  V30 15882 C 1453.46 5.8905 -0.526646 0
M  V30 15883 H 1452.39 0.748502 0.0908851 0
M  V30 15884 H 1455.04 1.77182 -0.47736 0
M  V30 15885 H 1453.42 3.76167 1.23753 0
M  V30 15886 H 1454.59 4.33465 -1.56348 0
M  V30 15887 H 1452.91 3.96784 -1.263 0
M  V30 15888 H 1455.5 5.20395 1.22853 0
M  V30 15889 H 1455.85 3.66364 1.97694 0
M  V30 15890 H 1456.38 3.96626 0.305334 0
M  V30 15891 H 1453.12 6.39099 -1.45715 0
M  V30 15892 H 1452.64 5.99436 0.208875 0
M  V30 15893 H 1454.32 6.46826 -0.149889 0
M  V30 15894 N 1454.45 0.0885642 1.57351 0
M  V30 15895 C 1455.7 -0.571435 1.95208 0
M  V30 15896 C 1456.05 -1.66196 0.96936 0
M  V30 15897 O 1455.34 -1.91599 -0.00570677 0
M  V30 15898 C 1455.54 -1.17764 3.37441 0
M  V30 15899 C 1455.37 -0.147362 4.49458 0
M  V30 15900 C 1454.14 0.273866 5.04557 0
M  V30 15901 C 1456.34 0.621935 5.10526 0
M  V30 15902 N 1454.32 1.29309 6.00127 0
M  V30 15903 C 1455.69 1.49317 6.01751 0
M  V30 15904 C 1457.74 0.676169 4.93287 0
M  V30 15905 C 1456.45 2.41386 6.77588 0
M  V30 15906 C 1458.47 1.58443 5.6978 0
M  V30 15907 C 1457.83 2.44331 6.60668 0
M  V30 15908 H 1453.93 -0.179629 0.76109 0
M  V30 15909 H 1456.52 0.169612 1.9396 0
M  V30 15910 H 1454.69 -1.88853 3.39395 0
M  V30 15911 H 1456.42 -1.79947 3.62493 0
M  V30 15912 H 1453.18 -0.112587 4.73466 0
M  V30 15913 H 1453.6 1.80072 6.52613 0
M  V30 15914 H 1458.24 0.0263199 4.22792 0
M  V30 15915 H 1455.96 3.07399 7.4735 0
M  V30 15916 H 1459.55 1.63145 5.58458 0
M  V30 15917 H 1458.43 3.1347 7.18823 0
M  V30 15918 N 1455.93 -1.56509 -0.185096 0
M  V30 15919 C 1457.16 -1.85327 -0.91986 0
M  V30 15920 C 1457.57 -0.672294 -1.76425 0
M  V30 15921 O 1456.93 0.358854 -1.78937 0
M  V30 15922 C 1456.98 -3.13047 -1.80787 0
M  V30 15923 O 1456.7 -4.26591 -0.997569 0
M  V30 15924 C 1458.2 -3.55114 -2.65347 0
M  V30 15925 H 1455.42 -0.615196 -0.267909 0
M  V30 15926 H 1457.97 -2.03622 -0.189338 0
M  V30 15927 H 1456.12 -2.96619 -2.4919 0
M  V30 15928 H 1456.53 -4.99384 -1.60362 0
M  V30 15929 H 1458.01 -4.47419 -3.23295 0
M  V30 15930 H 1458.49 -2.78576 -3.39547 0
M  V30 15931 H 1459.09 -3.74105 -2.023 0
M  V30 15932 N 1457.41 0.45317 -1.50944 0
M  V30 15933 C 1458.34 1.55655 -1.74051 0
M  V30 15934 C 1459.32 1.59545 -0.58987 0
M  V30 15935 O 1460.5 1.75526 -0.830922 0
M  V30 15936 C 1457.63 2.93857 -1.85109 0
M  V30 15937 C 1456.59 3.04832 -3.00435 0
M  V30 15938 C 1455.91 4.44858 -2.96657 0
M  V30 15939 C 1457.21 2.80381 -4.40663 0
M  V30 15940 H 1458.91 1.36571 -2.66437 0
M  V30 15941 H 1456.45 0.655572 -1.28212 0
M  V30 15942 H 1458.41 3.70992 -1.99857 0
M  V30 15943 H 1457.13 3.14138 -0.893579 0
M  V30 15944 H 1455.79 2.30134 -2.85366 0
M  V30 15945 H 1455.44 4.62083 -1.98716 0
M  V30 15946 H 1455.14 4.53134 -3.7409 0
M  V30 15947 H 1456.66 5.23989 -3.13478 0
M  V30 15948 H 1458.07 3.47255 -4.56165 0
M  V30 15949 H 1456.47 3.00083 -5.19683 0
M  V30 15950 H 1457.54 1.76099 -4.51793 0
M  V30 15951 N 1458.88 1.40823 0.707568 0
M  V30 15952 C 1459.82 1.37646 1.83265 0
M  V30 15953 C 1460.83 0.280547 1.60365 0
M  V30 15954 O 1462.02 0.541453 1.7009 0
M  V30 15955 C 1459.12 1.12121 3.19816 0
M  V30 15956 C 1458.29 2.33522 3.69846 0
M  V30 15957 C 1457.35 2.04035 4.85032 0
M  V30 15958 O 1456.38 2.76971 4.97268 0
M  V30 15959 N 1457.58 1.02322 5.71411 0
M  V30 15960 H 1460.34 2.34612 1.86486 0
M  V30 15961 H 1457.9 1.35281 0.889424 0
M  V30 15962 H 1459.9 0.903663 3.94482 0
M  V30 15963 H 1458.47 0.237941 3.11693 0
M  V30 15964 H 1457.69 2.71055 2.86221 0
M  V30 15965 H 1458.97 3.14436 4.00009 0
M  V30 15966 H 1458.37 0.419311 5.64144 0
M  V30 15967 H 1456.93 0.865571 6.46027 0
M  V30 15968 N 1460.36 -0.94061 1.26453 0
M  V30 15969 C 1461.64 -1.66421 1.02779 0
M  V30 15970 C 1462.02 -2.06429 -0.441614 0
M  V30 15971 O 1461.37 -1.78854 -1.42209 0
M  V30 15972 C 1461.58 -2.87599 1.97707 0
M  V30 15973 C 1462.93 -3.59237 2.26349 0
M  V30 15974 O 1463.95 -2.97704 1.95577 0
M  V30 15975 O 1462.81 -4.70068 2.78744 0
M  V30 15976 H 1459.9 -0.728813 0.390846 0
M  V30 15977 H 1462.45 -0.99229 1.37665 0
M  V30 15978 H 1461.22 -2.54929 2.96862 0
M  V30 15979 H 1460.84 -3.62516 1.63303 0
M  V30 15980 N 1461.84 -1.08266 -1.14527 0
M  V30 15981 C 1463.07 -0.83288 -1.89396 0
M  V30 15982 C 1463.48 0.614823 -1.78509 0
M  V30 15983 O 1462.84 1.42239 -1.14343 0
M  V30 15984 C 1462.89 -1.244 -3.39421 0
M  V30 15985 O 1462.61 -2.63491 -3.50006 0
M  V30 15986 C 1464.11 -1.02488 -4.3129 0
M  V30 15987 H 1461.33 -0.300474 -0.599964 0
M  V30 15988 H 1463.88 -1.44155 -1.4505 0
M  V30 15989 H 1462.03 -0.679466 -3.81395 0
M  V30 15990 H 1462.45 -2.80517 -4.43182 0
M  V30 15991 H 1463.92 -1.36194 -5.34935 0
M  V30 15992 H 1464.4 0.0381961 -4.39183 0
M  V30 15993 H 1465 -1.57477 -3.95071 0
M  V30 15994 N 1463.32 1.31536 -0.86811 0
M  V30 15995 C 1464.25 2.27486 -0.279749 0
M  V30 15996 C 1465.26 1.53006 0.556158 0
M  V30 15997 O 1466.45 1.74442 0.378454 0
M  V30 15998 C 1463.55 3.33139 0.622197 0
M  V30 15999 C 1462.73 4.37026 -0.180855 0
M  V30 16000 C 1461.79 5.22183 0.64894 0
M  V30 16001 O 1460.81 5.69147 0.0776395 0
M  V30 16002 N 1462.01 5.46365 1.96127 0
M  V30 16003 H 1464.78 2.78613 -1.1043 0
M  V30 16004 H 1462.34 1.44538 -0.729409 0
M  V30 16005 H 1464.33 3.87024 1.18297 0
M  V30 16006 H 1462.9 2.8207 1.34742 0
M  V30 16007 H 1462.12 3.8324 -0.923078 0
M  V30 16008 H 1463.41 5.03508 -0.731953 0
M  V30 16009 H 1462.81 5.09962 2.44857 0
M  V30 16010 H 1461.36 6.03192 2.46987 0
M  V30 16011 N 1464.8 0.627364 1.44575 0
M  V30 16012 C 1465.71 -0.0811184 2.3446 0
M  V30 16013 C 1466.72 -0.839668 1.52399 0
M  V30 16014 O 1467.9 -0.792784 1.8514 0
M  V30 16015 C 1464.96 -1.05296 3.30323 0
M  V30 16016 C 1464.03 -0.294201 4.28291 0
M  V30 16017 C 1463.26 -1.21975 5.19575 0
M  V30 16018 O 1463.48 -2.45834 5.14706 0
M  V30 16019 O 1462.42 -0.70611 5.97744 0
M  V30 16020 H 1466.24 0.658067 2.96485 0
M  V30 16021 H 1463.83 0.387565 1.44285 0
M  V30 16022 H 1465.71 -1.61218 3.89341 0
M  V30 16023 H 1464.38 -1.77283 2.70837 0
M  V30 16024 H 1463.29 0.307969 3.7283 0
M  V30 16025 H 1464.62 0.385567 4.90687 0
M  V30 16026 N 1466.28 -1.53251 0.367684 0
M  V30 16027 C 1467.52 -2.00469 -0.222481 0
M  V30 16028 C 1467.84 -1.259 -1.49695 0
M  V30 16029 O 1469.04 -1.63717 -2.16585 0
M  V30 16030 C 1467.5 -3.57113 -0.447018 0
M  V30 16031 C 1467.11 -4.40562 0.812946 0
M  V30 16032 C 1468.85 -4.12681 -0.994725 0
M  V30 16033 C 1466.76 -5.88763 0.557877 0
M  V30 16034 H 1465.69 -0.748974 -0.0869144 0
M  V30 16035 H 1468.34 -1.76927 0.48675 0
M  V30 16036 H 1466.72 -3.76818 -1.21756 0
M  V30 16037 H 1467.9 -4.3263 1.58644 0
M  V30 16038 H 1466.21 -3.96108 1.28403 0
M  V30 16039 H 1468.81 -5.2104 -1.20091 0
M  V30 16040 H 1469.15 -3.67408 -1.95748 0
M  V30 16041 H 1469.68 -3.96783 -0.284295 0
M  V30 16042 H 1466.42 -6.38317 1.49102 0
M  V30 16043 H 1465.94 -5.99539 -0.177082 0
M  V30 16044 H 1467.62 -6.46738 0.18419 0
M  V30 16045 N 1467.75 -0.0969077 -1.57302 0
M  V30 16046 C 1468.7 0.861379 -2.14124 0
M  V30 16047 C 1469.67 1.27858 -1.06026 0
M  V30 16048 O 1470.86 1.36001 -1.33822 0
M  V30 16049 C 1468 2.11443 -2.72738 0
M  V30 16050 C 1467.11 1.7476 -3.95074 0
M  V30 16051 C 1466.24 2.94864 -4.41847 0
M  V30 16052 C 1465.28 2.54316 -5.56767 0
M  V30 16053 N 1464.42 3.67261 -5.98384 0
M  V30 16054 H 1469.26 0.369968 -2.95694 0
M  V30 16055 H 1466.8 0.170943 -1.46103 0
M  V30 16056 H 1468.75 2.84829 -3.04842 0
M  V30 16057 H 1467.38 2.5808 -1.93893 0
M  V30 16058 H 1466.44 0.91335 -3.69272 0
M  V30 16059 H 1467.75 1.40946 -4.78472 0
M  V30 16060 H 1466.9 3.76501 -4.75744 0
M  V30 16061 H 1465.64 3.31889 -3.57352 0
M  V30 16062 H 1464.65 1.71106 -5.22497 0
M  V30 16063 H 1465.87 2.18432 -6.43012 0
M  V30 16064 H 1463.82 4.04001 -5.16836 0
M  V30 16065 H 1463.73 3.37298 -6.76584 0
M  V30 16066 H 1465 4.49403 -6.36912 0
M  V30 16067 N 1469.23 1.56605 0.176793 0
M  V30 16068 C 1470.16 1.9254 1.24342 0
M  V30 16069 C 1471.18 0.81792 1.40762 0
M  V30 16070 O 1472.37 1.09636 1.40862 0
M  V30 16071 C 1469.47 2.15822 2.61293 0
M  V30 16072 C 1468.64 3.47035 2.66243 0
M  V30 16073 C 1467.7 3.5921 3.84519 0
M  V30 16074 O 1466.72 4.31876 3.70771 0
M  V30 16075 N 1467.93 2.93653 5.00748 0
M  V30 16076 H 1470.69 2.84635 0.938246 0
M  V30 16077 H 1468.25 1.57695 0.366597 0
M  V30 16078 H 1470.24 2.21237 3.38875 0
M  V30 16079 H 1468.81 1.30138 2.84223 0
M  V30 16080 H 1468.03 3.53326 1.74798 0
M  V30 16081 H 1469.32 4.33388 2.66557 0
M  V30 16082 H 1468.72 2.34476 5.14818 0
M  V30 16083 H 1467.28 3.04671 5.76211 0
M  V30 16084 N 1470.71 -0.445159 1.51182 0
M  V30 16085 C 1472.13 -0.781023 1.39184 0
M  V30 16086 C 1472.33 -1.95988 0.468076 0
M  V30 16087 O 1471.38 -2.52374 -0.0796822 0
M  V30 16088 C 1472.69 -1.06874 2.81067 0
M  V30 16089 C 1474.24 -1.17364 2.90163 0
M  V30 16090 C 1474.72 -1.49433 4.32936 0
M  V30 16091 N 1476.21 -1.56373 4.36006 0
M  V30 16092 C 1476.94 -1.82743 5.435 0
M  V30 16093 N 1476.44 -2.06958 6.61166 0
M  V30 16094 N 1478.23 -1.84461 5.30971 0
M  V30 16095 H 1470.38 0.331347 2.098 0
M  V30 16096 H 1472.65 0.0858102 0.944108 0
M  V30 16097 H 1472.35 -0.275306 3.50621 0
M  V30 16098 H 1472.23 -1.99839 3.19913 0
M  V30 16099 H 1474.61 -1.95771 2.20812 0
M  V30 16100 H 1474.69 -0.22318 2.54825 0
M  V30 16101 H 1474.34 -0.715573 5.02834 0
M  V30 16102 H 1474.27 -2.45673 4.65782 0
M  V30 16103 H 1476.76 -1.39595 3.51172 0
M  V30 16104 H 1477.07 -2.26427 7.38885 0
M  V30 16105 H 1475.42 -2.04297 6.64295 0
M  V30 16106 H 1478.61 -1.65057 4.38034 0
M  V30 16107 H 1478.78 -2.04675 6.14827 0
M  V30 16108 N 1472.19 -1.41197 -0.700089 0
M  V30 16109 C 1473.43 -1.40519 -1.46227 0
M  V30 16110 C 1473.77 -0.0126108 -1.94196 0
M  V30 16111 O 1473.04 0.958837 -1.69223 0
M  V30 16112 C 1473.32 -2.40808 -2.67738 0
M  V30 16113 C 1473.18 -3.89154 -2.25563 0
M  V30 16114 C 1474.5 -2.38415 -3.69927 0
M  V30 16115 H 1471.62 -0.511724 -0.530384 0
M  V30 16116 H 1474.26 -1.72441 -0.797754 0
M  V30 16117 H 1472.41 -2.13717 -3.24434 0
M  V30 16118 H 1474.08 -4.27132 -1.74229 0
M  V30 16119 H 1472.32 -4.04239 -1.57395 0
M  V30 16120 H 1472.99 -4.54866 -3.12731 0
M  V30 16121 H 1475.47 -2.62447 -3.22895 0
M  V30 16122 H 1474.35 -3.10609 -4.52563 0
M  V30 16123 H 1474.61 -1.40116 -4.19309 0
M  V30 16124 N 1473.67 0.933891 -1.2695 0
M  V30 16125 C 1474.91 1.6834 -1.13091 0
M  V30 16126 C 1475.24 1.91484 0.32367 0
M  V30 16127 O 1474.52 1.50075 1.23724 0
M  V30 16128 C 1474.8 3.05374 -1.90838 0
M  V30 16129 C 1474.66 2.8951 -3.44244 0
M  V30 16130 C 1475.97 4.05607 -1.70795 0
M  V30 16131 H 1473.09 0.610944 -0.41221 0
M  V30 16132 H 1475.74 1.08416 -1.56032 0
M  V30 16133 H 1473.89 3.56526 -1.54343 0
M  V30 16134 H 1475.56 2.45523 -3.90533 0
M  V30 16135 H 1473.8 2.24981 -3.70899 0
M  V30 16136 H 1474.47 3.86734 -3.93879 0
M  V30 16137 H 1476.95 3.63443 -2.02604 0
M  V30 16138 H 1475.82 4.9949 -2.27597 0
M  V30 16139 H 1476.08 4.37231 -0.654327 0
M  V30 16140 N 1475.14 1.08871 1.13951 0
M  V30 16141 C 1476.39 0.821287 1.85098 0
M  V30 16142 C 1476.72 -0.65302 1.8321 0
M  V30 16143 O 1475.97 -1.49629 1.26134 0
M  V30 16144 C 1476.27 1.29443 3.33135 0
M  V30 16145 C 1475.94 2.77737 3.55208 0
M  V30 16146 C 1474.6 3.18238 3.60941 0
M  V30 16147 C 1476.95 3.7338 3.63644 0
M  V30 16148 C 1474.28 4.53165 3.72637 0
M  V30 16149 C 1476.63 5.08089 3.76867 0
M  V30 16150 C 1475.3 5.48187 3.8085 0
M  V30 16151 H 1474.57 0.30053 0.67732 0
M  V30 16152 H 1477.21 1.36249 1.34568 0
M  V30 16153 H 1475.52 0.672919 3.85978 0
M  V30 16154 H 1477.22 1.06421 3.86621 0
M  V30 16155 H 1473.81 2.45393 3.51398 0
M  V30 16156 H 1477.99 3.43207 3.58501 0
M  V30 16157 H 1473.25 4.83679 3.73985 0
M  V30 16158 H 1477.42 5.82058 3.82337 0
M  V30 16159 H 1475.05 6.52737 3.89665 0
M  V30 16160 N 1476.62 -1.31073 0.875073 0
M  V30 16161 C 1477.57 -2.28389 0.332718 0
M  V30 16162 C 1478.54 -1.55954 -0.571639 0
M  V30 16163 O 1479.72 -1.84073 -0.502185 0
M  V30 16164 C 1476.86 -3.42083 -0.455364 0
M  V30 16165 C 1475.98 -4.29358 0.477088 0
M  V30 16166 C 1475.11 -5.30201 -0.325619 0
M  V30 16167 C 1474.15 -6.09123 0.602935 0
M  V30 16168 N 1473.29 -7.01909 -0.163836 0
M  V30 16169 H 1478.13 -2.74166 1.16777 0
M  V30 16170 H 1475.66 -1.3487 0.587248 0
M  V30 16171 H 1477.62 -4.06746 -0.928104 0
M  V30 16172 H 1476.25 -2.97402 -1.25507 0
M  V30 16173 H 1475.3 -3.65091 1.06829 0
M  V30 16174 H 1476.62 -4.84425 1.18887 0
M  V30 16175 H 1475.77 -6.00565 -0.860647 0
M  V30 16176 H 1474.51 -4.75802 -1.07067 0
M  V30 16177 H 1473.51 -5.37645 1.14968 0
M  V30 16178 H 1474.74 -6.65609 1.34692 0
M  V30 16179 H 1472.69 -6.49913 -0.891604 0
M  V30 16180 H 1472.6 -7.5442 0.48851 0
M  V30 16181 H 1473.87 -7.76529 -0.679929 0
M  V30 16182 N 1478.1 -0.635022 -1.4424 0
M  V30 16183 C 1479.33 -0.148045 -2.06069 0
M  V30 16184 C 1479.74 1.1842 -1.47558 0
M  V30 16185 O 1479.08 1.73817 -0.594425 0
M  V30 16186 C 1479.14 0.0369593 -3.59481 0
M  V30 16187 C 1478.81 -1.21773 -4.40478 0
M  V30 16188 C 1479.8 -2.14233 -4.73709 0
M  V30 16189 C 1477.49 -1.45423 -4.80788 0
M  V30 16190 C 1479.48 -3.2865 -5.46139 0
M  V30 16191 C 1477.17 -2.60136 -5.52967 0
M  V30 16192 C 1478.17 -3.51576 -5.85562 0
M  V30 16193 O 1477.86 -4.64289 -6.5627 0
M  V30 16194 H 1477.59 -0.0787231 -0.671401 0
M  V30 16195 H 1480.14 -0.870639 -1.86035 0
M  V30 16196 H 1478.37 0.814739 -3.7802 0
M  V30 16197 H 1480.06 0.478984 -4.03064 0
M  V30 16198 H 1480.83 -1.97196 -4.43101 0
M  V30 16199 H 1476.71 -0.751378 -4.54835 0
M  V30 16200 H 1480.25 -4.00043 -5.71499 0
M  V30 16201 H 1476.15 -2.77114 -5.82991 0
M  V30 16202 H 1476.92 -4.6332 -6.74742 0
M  V30 16203 N 1479.58 1.53054 -0.375806 0
M  V30 16204 C 1480.8 2.06296 0.213708 0
M  V30 16205 C 1481.23 1.24675 1.40846 0
M  V30 16206 O 1480.59 0.268371 1.79303 0
M  V30 16207 C 1480.63 3.55981 0.575301 0
M  V30 16208 O 1479.74 3.77023 1.67115 0
M  V30 16209 H 1479.08 0.66338 0.0286922 0
M  V30 16210 H 1481.61 1.97362 -0.539371 0
M  V30 16211 H 1481.62 3.99187 0.843431 0
M  V30 16212 H 1480.29 4.14829 -0.298258 0
M  V30 16213 H 1478.87 3.45712 1.39778 0
M  V30 16214 N 1481.06 0.105248 1.57248 0
M  V30 16215 C 1481.99 -0.880221 2.11624 0
M  V30 16216 C 1483 -1.23924 1.05578 0
M  V30 16217 O 1484.19 -1.19059 1.32994 0
M  V30 16218 C 1481.29 -2.18628 2.5895 0
M  V30 16219 C 1480.46 -2.00105 3.88943 0
M  V30 16220 C 1479.52 -3.14315 4.2201 0
M  V30 16221 O 1478.55 -2.87832 4.91061 0
M  V30 16222 N 1479.75 -4.4037 3.78226 0
M  V30 16223 H 1482.52 -0.415742 2.96802 0
M  V30 16224 H 1480.08 -0.0795714 1.61704 0
M  V30 16225 H 1482.07 -2.94002 2.7811 0
M  V30 16226 H 1480.64 -2.56467 1.78727 0
M  V30 16227 H 1479.86 -1.09003 3.7883 0
M  V30 16228 H 1481.15 -1.85018 4.73968 0
M  V30 16229 H 1480.54 -4.64765 3.22506 0
M  V30 16230 H 1479.1 -5.1266 4.02521 0
M  V30 16231 N 1482.53 -1.56697 -0.168486 0
M  V30 16232 C 1483.47 -1.91738 -1.23741 0
M  V30 16233 C 1484.45 -0.780522 -1.42642 0
M  V30 16234 O 1485.63 -1.0341 -1.57602 0
M  V30 16235 C 1482.76 -2.17077 -2.59991 0
M  V30 16236 C 1481.8 -3.39759 -2.5781 0
M  V30 16237 S 1482.64 -4.94035 -2.06614 0
M  V30 16238 C 1483.79 -5.22472 -3.44636 0
M  V30 16239 H 1484.02 -2.82104 -0.938344 0
M  V30 16240 H 1481.56 -1.49822 -0.373177 0
M  V30 16241 H 1483.52 -2.32356 -3.38409 0
M  V30 16242 H 1482.18 -1.27413 -2.87097 0
M  V30 16243 H 1481.37 -3.54698 -3.58058 0
M  V30 16244 H 1480.97 -3.2361 -1.8749 0
M  V30 16245 H 1483.26 -5.14623 -4.40647 0
M  V30 16246 H 1484.21 -6.24075 -3.34569 0
M  V30 16247 H 1484.61 -4.50034 -3.40779 0
M  V30 16248 N 1484.01 0.437135 -1.51416 0
M  V30 16249 C 1485.26 1.1835 -1.63328 0
M  V30 16250 C 1485.57 1.92343 -0.355455 0
M  V30 16251 O 1486.78 2.69183 -0.353951 0
M  V30 16252 C 1485.24 2.15235 -2.88447 0
M  V30 16253 C 1484.84 1.46889 -4.23235 0
M  V30 16254 C 1486.59 2.90303 -3.09716 0
M  V30 16255 C 1484.5 2.42259 -5.39504 0
M  V30 16256 H 1483.43 0.445467 -0.608338 0
M  V30 16257 H 1486.08 0.450528 -1.77883 0
M  V30 16258 H 1484.46 2.91968 -2.67527 0
M  V30 16259 H 1485.63 0.757128 -4.54537 0
M  V30 16260 H 1483.95 0.839725 -4.07845 0
M  V30 16261 H 1486.54 3.61747 -3.93756 0
M  V30 16262 H 1486.89 3.5166 -2.22802 0
M  V30 16263 H 1487.42 2.20677 -3.30978 0
M  V30 16264 H 1484.16 1.85591 -6.28678 0
M  V30 16265 H 1483.68 3.11488 -5.12577 0
M  V30 16266 H 1485.36 3.03384 -5.7146 0
M  V30 16267 N 1485.49 1.41566 0.692592 0
M  V30 16268 C 1486.44 1.43857 1.82779 0
M  V30 16269 C 1487.43 0.316262 1.66422 0
M  V30 16270 O 1488.64 0.488433 1.73246 0
M  V30 16271 H 1485.01 0.450174 0.602368 0
M  V30 16272 H 1486.98 2.39524 1.77964 0
M  V30 16273 C 1485.73 1.34054 3.20819 0
M  V30 16274 H 1485.06 2.19701 3.34023 0
M  V30 16275 H 1486.5 1.39717 4.00319 0
M  V30 16276 C 1484.96 0.053218 3.36858 0
M  V30 16277 O 1485.49 -0.900928 3.91467 0
M  V30 16278 N 1483.69 -0.0238376 2.9059 0
M  V30 16279 H 1483.24 0.753374 2.46337 0
M  V30 16280 H 1483.2 -0.884571 3.017 0
M  V30 16281 N 1486.97 -0.927146 1.27443 0
M  V30 16282 C 1488.22 -1.66941 1.13197 0
M  V30 16283 C 1488.53 -1.92939 -0.32156 0
M  V30 16284 O 1489.74 -2.65124 -0.584931 0
M  V30 16285 C 1488.19 -3.00677 1.97791 0
M  V30 16286 C 1487.8 -2.82376 3.47805 0
M  V30 16287 C 1489.54 -3.78499 1.92195 0
M  V30 16288 C 1487.45 -4.1167 4.24596 0
M  V30 16289 H 1486.38 -0.626171 0.420031 0
M  V30 16290 H 1489.03 -1.02997 1.51868 0
M  V30 16291 H 1487.41 -3.65681 1.51965 0
M  V30 16292 H 1488.59 -2.26135 4.01497 0
M  V30 16293 H 1486.9 -2.17982 3.54786 0
M  V30 16294 H 1489.5 -4.74312 2.46844 0
M  V30 16295 H 1489.84 -4.0655 0.895702 0
M  V30 16296 H 1490.38 -3.20292 2.35919 0
M  V30 16297 H 1487.12 -3.88798 5.27747 0
M  V30 16298 H 1486.64 -4.67573 3.75681 0
M  V30 16299 H 1488.31 -4.80028 4.338 0
M  V30 16300 N 1488.45 -1.09474 -1.13372 0
M  V30 16301 C 1489.67 -0.853093 -1.89043 0
M  V30 16302 C 1490.1 0.590075 -1.78605 0
M  V30 16303 O 1489.45 1.41462 -1.13394 0
M  V30 16304 C 1489.5 -1.29359 -3.36599 0
M  V30 16305 O 1488.61 -0.452355 -4.09912 0
M  V30 16306 H 1487.95 -0.308922 -0.587761 0
M  V30 16307 H 1490.48 -1.459 -1.43437 0
M  V30 16308 H 1490.49 -1.27921 -3.87428 0
M  V30 16309 H 1489.16 -2.3446 -3.43513 0
M  V30 16310 H 1487.74 -0.531098 -3.69099 0
M  V30 16311 N 1489.92 1.30607 -0.882012 0
M  V30 16312 C 1491.2 1.91056 -0.419153 0
M  V30 16313 C 1491.58 1.80185 1.09985 0
M  V30 16314 O 1490.93 1.21717 1.93384 0
M  V30 16315 C 1491.14 3.3682 -0.913949 0
M  V30 16316 C 1492.49 4.13901 -0.947169 0
M  V30 16317 O 1493.51 3.45652 -0.860412 0
M  V30 16318 O 1492.37 5.35826 -1.07483 0
M  V30 16319 H 1489.46 0.81709 -0.127645 0
M  V30 16320 H 1492.01 1.39195 -0.970717 0
M  V30 16321 H 1490.78 3.38804 -1.95774 0
M  V30 16322 H 1490.41 3.96132 -0.34138 0
M  V30 16323 N 1491.4 0.642663 1.43901 0
M  V30 16324 C 1492.63 0.158971 2.05987 0
M  V30 16325 C 1493.04 -1.17635 1.48184 0
M  V30 16326 O 1492.38 -1.73499 0.603634 0
M  V30 16327 C 1492.45 -0.0178946 3.59496 0
M  V30 16328 C 1492.11 1.24107 4.39826 0
M  V30 16329 C 1493.11 2.16742 4.72566 0
M  V30 16330 C 1490.79 1.47971 4.8001 0
M  V30 16331 C 1492.79 3.31541 5.44389 0
M  V30 16332 C 1490.47 2.63065 5.5158 0
M  V30 16333 C 1491.47 3.54676 5.8369 0
M  V30 16334 O 1491.16 4.67763 6.53799 0
M  V30 16335 H 1490.89 0.0822826 0.670974 0
M  V30 16336 H 1493.44 0.880492 1.85571 0
M  V30 16337 H 1491.67 -0.79468 3.78446 0
M  V30 16338 H 1493.36 -0.457601 4.03312 0
M  V30 16339 H 1494.13 1.99543 4.42049 0
M  V30 16340 H 1490.01 0.775488 4.54431 0
M  V30 16341 H 1493.55 4.03069 5.69369 0
M  V30 16342 H 1489.45 2.80202 5.81513 0
M  V30 16343 H 1490.22 4.66892 6.72275 0
M  V30 16344 N 1492.88 -1.52852 0.383918 0
M  V30 16345 C 1494.13 -2.00694 -0.201206 0
M  V30 16346 C 1494.44 -1.2748 -1.48352 0
M  V30 16347 O 1495.65 -1.66005 -2.14836 0
M  V30 16348 C 1494.11 -3.57567 -0.409117 0
M  V30 16349 C 1493.71 -4.39675 0.859628 0
M  V30 16350 C 1495.46 -4.13713 -0.950899 0
M  V30 16351 C 1493.36 -5.88138 0.620292 0
M  V30 16352 H 1492.29 -0.749854 -0.0789656 0
M  V30 16353 H 1494.95 -1.764 0.505488 0
M  V30 16354 H 1493.33 -3.78088 -1.17753 0
M  V30 16355 H 1494.5 -4.30923 1.63224 0
M  V30 16356 H 1492.82 -3.94724 1.32597 0
M  V30 16357 H 1495.41 -5.22284 -1.14558 0
M  V30 16358 H 1495.76 -3.69463 -1.9184 0
M  V30 16359 H 1496.29 -3.97062 -0.242195 0
M  V30 16360 H 1493.03 -6.367 1.55864 0
M  V30 16361 H 1492.55 -5.99693 -0.113483 0
M  V30 16362 H 1494.23 -6.46506 0.252775 0
M  V30 16363 N 1494.36 -0.113586 -1.5719 0
M  V30 16364 C 1495.31 0.855985 -2.16277 0
M  V30 16365 C 1496.3 1.2792 -1.11053 0
M  V30 16366 O 1497.51 1.25158 -1.29366 0
M  V30 16367 H 1493.88 0.294134 -0.692091 0
M  V30 16368 H 1495.85 0.333109 -2.96535 0
M  V30 16369 C 1494.6 2.09832 -2.77247 0
M  V30 16370 H 1493.93 1.78158 -3.5791 0
M  V30 16371 H 1495.37 2.7569 -3.22135 0
M  V30 16372 C 1493.82 2.88453 -1.74059 0
M  V30 16373 O 1494.35 3.83648 -1.19068 0
M  V30 16374 N 1492.56 2.52342 -1.44124 0
M  V30 16375 H 1492.11 1.74998 -1.89033 0
M  V30 16376 H 1492.07 3.05244 -0.753234 0
M  V30 16377 N 1495.84 1.56784 0.160173 0
M  V30 16378 C 1497.25 1.51153 0.512352 0
M  V30 16379 C 1497.45 0.819774 1.84071 0
M  V30 16380 O 1496.51 0.384789 2.49551 0
M  V30 16381 C 1497.82 2.95906 0.534817 0
M  V30 16382 C 1499.37 3.06773 0.621248 0
M  V30 16383 C 1499.85 4.53006 0.674501 0
M  V30 16384 N 1501.34 4.57298 0.737087 0
M  V30 16385 C 1502.07 5.67805 0.799054 0
M  V30 16386 N 1501.57 6.87916 0.821171 0
M  V30 16387 N 1503.36 5.55804 0.838928 0
M  V30 16388 H 1495.51 2.00157 -0.710712 0
M  V30 16389 H 1497.77 0.91233 -0.257601 0
M  V30 16390 H 1497.48 3.49719 -0.372773 0
M  V30 16391 H 1497.35 3.51152 1.3774 0
M  V30 16392 H 1499.74 2.52987 1.51926 0
M  V30 16393 H 1499.82 2.54593 -0.248224 0
M  V30 16394 H 1499.47 5.07426 -0.219301 0
M  V30 16395 H 1499.4 5.02954 1.56028 0
M  V30 16396 H 1501.89 3.70825 0.727827 0
M  V30 16397 H 1502.2 7.67888 0.869938 0
M  V30 16398 H 1500.55 6.90504 0.789264 0
M  V30 16399 H 1503.74 4.60884 0.818728 0
M  V30 16400 H 1503.91 6.41945 0.883757 0
M  V30 16401 N 1497.32 -0.429099 1.51646 0
M  V30 16402 C 1498.56 -1.17644 1.65926 0
M  V30 16403 C 1498.92 -1.88715 0.374777 0
M  V30 16404 O 1498.21 -1.80952 -0.629842 0
M  V30 16405 C 1498.4 -2.2131 2.80636 0
M  V30 16406 C 1498.23 -1.60416 4.20115 0
M  V30 16407 C 1497 -1.38551 4.85934 0
M  V30 16408 C 1499.2 -1.07589 5.0292 0
M  V30 16409 N 1497.18 -0.733404 6.09503 0
M  V30 16410 C 1498.55 -0.549542 6.1756 0
M  V30 16411 C 1500.61 -0.968438 4.88391 0
M  V30 16412 C 1499.31 0.07371 7.19262 0
M  V30 16413 C 1501.34 -0.359068 5.90309 0
M  V30 16414 C 1500.7 0.156699 7.04226 0
M  V30 16415 H 1496.8 -0.417871 0.66099 0
M  V30 16416 H 1499.38 -0.471789 1.88897 0
M  V30 16417 H 1497.55 -2.89155 2.59314 0
M  V30 16418 H 1499.29 -2.88263 2.84054 0
M  V30 16419 H 1496.04 -1.64953 4.43945 0
M  V30 16420 H 1496.46 -0.424555 6.75667 0
M  V30 16421 H 1501.11 -1.35305 4.00565 0
M  V30 16422 H 1498.82 0.470433 8.0673 0
M  V30 16423 H 1502.41 -0.277718 5.81137 0
M  V30 16424 H 1501.29 0.62081 7.81739 0
M  V30 16425 N 1498.79 -1.41931 -0.685074 0
M  V30 16426 C 1500.04 -1.41147 -1.44085 0
M  V30 16427 C 1500.36 -0.0275793 -1.95581 0
M  V30 16428 O 1501.56 0.102873 -2.71305 0
M  V30 16429 C 1500.02 -2.4823 -2.60596 0
M  V30 16430 C 1499.63 -3.92576 -2.15842 0
M  V30 16431 C 1501.37 -2.56597 -3.38169 0
M  V30 16432 C 1499.28 -4.91189 -3.29374 0
M  V30 16433 H 1498.21 -0.52494 -0.541252 0
M  V30 16434 H 1500.86 -1.67798 -0.7427 0
M  V30 16435 H 1499.24 -2.14727 -3.32729 0
M  V30 16436 H 1500.41 -4.35381 -1.50929 0
M  V30 16437 H 1498.73 -3.87965 -1.51235 0
M  V30 16438 H 1501.33 -3.27453 -4.22704 0
M  V30 16439 H 1501.67 -1.60618 -3.84067 0
M  V30 16440 H 1502.2 -2.89244 -2.73099 0
M  V30 16441 H 1498.94 -5.88609 -2.88477 0
M  V30 16442 H 1498.46 -4.53024 -3.93102 0
M  V30 16443 H 1500.14 -5.12433 -3.94996 0
M  V30 16444 N 1500.27 0.920374 -1.27933 0
M  V30 16445 C 1501.52 1.66883 -1.147 0
M  V30 16446 C 1501.85 1.92082 0.305732 0
M  V30 16447 O 1501.1 1.51449 1.23942 0
M  V30 16448 C 1501.4 3.03725 -1.88377 0
M  V30 16449 C 1501.07 2.9821 -3.38203 0
M  V30 16450 C 1499.73 2.96413 -3.79068 0
M  V30 16451 C 1502.08 2.88952 -4.3377 0
M  V30 16452 C 1499.41 2.83151 -5.13851 0
M  V30 16453 C 1501.76 2.77231 -5.68618 0
M  V30 16454 C 1500.42 2.73788 -6.08766 0
M  V30 16455 H 1499.69 0.61067 -0.419718 0
M  V30 16456 H 1502.34 1.0728 -1.58629 0
M  V30 16457 H 1500.65 3.67075 -1.36978 0
M  V30 16458 H 1502.34 3.60527 -1.7556 0
M  V30 16459 H 1498.93 3.004 -3.05709 0
M  V30 16460 H 1503.12 2.89433 -4.03165 0
M  V30 16461 H 1498.37 2.78877 -5.44093 0
M  V30 16462 H 1502.55 2.69034 -6.42335 0
M  V30 16463 H 1500.17 2.63268 -7.13158 0
M  V30 16464 N 1501.75 1.10074 1.1279 0
M  V30 16465 C 1503 0.842118 1.84489 0
M  V30 16466 C 1503.33 -0.630737 1.83672 0
M  V30 16467 O 1502.6 -1.46481 1.27959 0
M  V30 16468 C 1502.89 1.3864 3.32342 0
M  V30 16469 C 1502.74 2.92585 3.41635 0
M  V30 16470 C 1504.06 1.02565 4.27982 0
M  V30 16471 H 1501.18 0.307376 0.669842 0
M  V30 16472 H 1503.82 1.36326 1.32345 0
M  V30 16473 H 1501.97 0.943134 3.76878 0
M  V30 16474 H 1503.64 3.4541 3.0576 0
M  V30 16475 H 1501.88 3.29378 2.82299 0
M  V30 16476 H 1502.56 3.25749 4.45636 0
M  V30 16477 H 1505.03 1.40807 3.91552 0
M  V30 16478 H 1503.91 1.43345 5.29852 0
M  V30 16479 H 1504.17 -0.0653712 4.42052 0
M  V30 16480 N 1503.23 -1.30138 0.888926 0
M  V30 16481 C 1504.46 -2.00143 0.524437 0
M  V30 16482 C 1504.87 -1.66608 -0.888093 0
M  V30 16483 O 1504.23 -0.905326 -1.58462 0
M  V30 16484 C 1504.28 -3.54769 0.694327 0
M  V30 16485 O 1504 -3.87112 2.05125 0
M  V30 16486 C 1505.5 -4.42045 0.333354 0
M  V30 16487 H 1502.72 -0.639775 0.202309 0
M  V30 16488 H 1505.26 -1.65929 1.19531 0
M  V30 16489 H 1503.42 -3.87335 0.0707712 0
M  V30 16490 H 1503.83 -4.81807 2.07275 0
M  V30 16491 H 1505.31 -5.49702 0.503107 0
M  V30 16492 H 1505.78 -4.33109 -0.728893 0
M  V30 16493 H 1506.39 -4.14931 0.933398 0
M  V30 16494 N 1504.71 -0.650285 -1.43559 0
M  V30 16495 C 1505.95 -0.159832 -2.01066 0
M  V30 16496 C 1506.27 1.23246 -1.51887 0
M  V30 16497 O 1507.47 1.81797 -2.01648 0
M  V30 16498 C 1505.93 -0.23494 -3.59132 0
M  V30 16499 C 1505.54 -1.62975 -4.17305 0
M  V30 16500 C 1507.28 0.198061 -4.24038 0
M  V30 16501 C 1505.19 -1.65894 -5.67656 0
M  V30 16502 H 1504.12 -0.0559899 -0.751918 0
M  V30 16503 H 1506.77 -0.811891 -1.64562 0
M  V30 16504 H 1505.15 0.484573 -3.93024 0
M  V30 16505 H 1506.33 -2.37438 -3.94918 0
M  V30 16506 H 1504.64 -2.00847 -3.64759 0
M  V30 16507 H 1507.24 0.196054 -5.3434 0
M  V30 16508 H 1507.58 1.22896 -3.97747 0
M  V30 16509 H 1508.11 -0.469602 -3.95018 0
M  V30 16510 H 1504.85 -2.66883 -5.9871 0
M  V30 16511 H 1504.37 -0.957519 -5.92108 0
M  V30 16512 H 1506.05 -1.40137 -6.31641 0
M  V30 16513 N 1506.18 1.52647 -0.392018 0
M  V30 16514 C 1507.41 2.06032 0.189293 0
M  V30 16515 C 1507.83 1.26351 1.40288 0
M  V30 16516 O 1507.18 0.310877 1.79833 0
M  V30 16517 C 1507.23 3.57187 0.55672 0
M  V30 16518 O 1506.96 4.33851 -0.608657 0
M  V30 16519 C 1508.46 4.26929 1.1936 0
M  V30 16520 H 1505.68 0.670419 0.0279177 0
M  V30 16521 H 1508.22 1.96739 -0.558033 0
M  V30 16522 H 1506.38 3.66545 1.25394 0
M  V30 16523 H 1506.79 5.23606 -0.306039 0
M  V30 16524 H 1508.26 5.33924 1.40104 0
M  V30 16525 H 1508.74 3.82315 2.16175 0
M  V30 16526 H 1509.35 4.21895 0.537069 0
M  V30 16527 N 1507.66 0.121921 1.57128 0
M  V30 16528 C 1508.61 -0.844503 2.16728 0
M  V30 16529 C 1509.6 -1.2733 1.1173 0
M  V30 16530 O 1510.81 -1.2447 1.30028 0
M  V30 16531 H 1507.19 -0.290459 0.693641 0
M  V30 16532 H 1509.16 -0.317379 2.96707 0
M  V30 16533 C 1507.91 -2.08359 2.78356 0
M  V30 16534 H 1507.23 -1.76258 3.5885 0
M  V30 16535 H 1508.67 -2.73978 3.23592 0
M  V30 16536 C 1507.13 -2.87526 1.75586 0
M  V30 16537 O 1507.66 -3.83011 1.21101 0
M  V30 16538 N 1505.86 -2.51575 1.4546 0
M  V30 16539 H 1505.41 -1.73993 1.89958 0
M  V30 16540 H 1505.37 -3.0484 0.769411 0
M  V30 16541 N 1509.14 -1.56867 -0.151857 0
M  V30 16542 C 1510.09 -1.98842 -1.20685 0
M  V30 16543 C 1511.08 -0.88007 -1.44745 0
M  V30 16544 O 1512.29 -1.06524 -1.45095 0
M  V30 16545 H 1508.66 -0.632904 -0.406123 0
M  V30 16546 H 1510.63 -2.86737 -0.826095 0
M  V30 16547 C 1509.38 -2.38095 -2.53389 0
M  V30 16548 H 1508.71 -3.2293 -2.35703 0
M  V30 16549 H 1510.15 -2.71292 -3.25847 0
M  V30 16550 C 1508.61 -1.23175 -3.13575 0
M  V30 16551 O 1509.14 -0.529864 -3.9819 0
M  V30 16552 N 1507.34 -0.997255 -2.72953 0
M  V30 16553 H 1506.89 -1.56979 -2.04243 0
M  V30 16554 H 1506.85 -0.23022 -3.13556 0
M  V30 16555 N 1510.62 0.421051 -1.51871 0
M  V30 16556 C 1512.03 0.758781 -1.40409 0
M  V30 16557 C 1512.23 1.95219 -0.499197 0
M  V30 16558 O 1511.29 2.52469 0.0395216 0
M  V30 16559 C 1512.6 1.02388 -2.82731 0
M  V30 16560 C 1514.15 1.12733 -2.91994 0
M  V30 16561 C 1514.63 1.42527 -4.35259 0
M  V30 16562 N 1516.12 1.49417 -4.38439 0
M  V30 16563 C 1516.85 1.74074 -5.46339 0
M  V30 16564 N 1516.35 1.96414 -6.64375 0
M  V30 16565 N 1518.14 1.7599 -5.33839 0
M  V30 16566 H 1510.29 -0.364682 -2.09246 0
M  V30 16567 H 1512.56 -0.100819 -0.942624 0
M  V30 16568 H 1512.26 0.219491 -3.51014 0
M  V30 16569 H 1512.14 1.94724 -3.23052 0
M  V30 16570 H 1514.52 1.92233 -2.23899 0
M  V30 16571 H 1514.6 0.182611 -2.55147 0
M  V30 16572 H 1514.25 0.635486 -5.03909 0
M  V30 16573 H 1514.18 2.38231 -4.69631 0
M  V30 16574 H 1516.67 1.3399 -3.53348 0
M  V30 16575 H 1516.98 2.14644 -7.42393 0
M  V30 16576 H 1515.33 1.93702 -6.67461 0
M  V30 16577 H 1518.52 1.58067 -4.40605 0
M  V30 16578 H 1518.69 1.94868 -6.18005 0
M  V30 16579 N 1512.1 1.42293 0.677538 0
M  V30 16580 C 1513.03 1.48344 1.80323 0
M  V30 16581 C 1514.01 0.340276 1.66662 0
M  V30 16582 O 1515.19 0.554209 1.86124 0
M  V30 16583 C 1512.32 1.38247 3.18599 0
M  V30 16584 C 1511.28 2.50562 3.46991 0
M  V30 16585 C 1510.6 2.25524 4.84812 0
M  V30 16586 C 1511.9 3.92877 3.44158 0
M  V30 16587 H 1513.6 2.42558 1.75516 0
M  V30 16588 H 1511.14 1.16746 0.842999 0
M  V30 16589 H 1513.1 1.41089 3.97079 0
M  V30 16590 H 1511.82 0.405255 3.24076 0
M  V30 16591 H 1510.48 2.47032 2.7087 0
M  V30 16592 H 1510.13 1.26102 4.86937 0
M  V30 16593 H 1509.83 3.00797 5.04772 0
M  V30 16594 H 1511.35 2.3011 5.65581 0
M  V30 16595 H 1512.76 3.98024 4.12613 0
M  V30 16596 H 1511.16 4.6798 3.75653 0
M  V30 16597 H 1512.23 4.19743 2.42783 0
M  V30 16598 N 1513.57 -0.913576 1.28419 0
M  V30 16599 C 1514.52 -2.03739 1.1222 0
M  V30 16600 C 1515.52 -1.69349 0.0414309 0
M  V30 16601 O 1516.72 -1.78883 0.200213 0
M  V30 16602 H 1513.1 -0.667554 0.34623 0
M  V30 16603 H 1515.07 -2.14544 2.07397 0
M  V30 16604 C 1513.82 -3.38348 0.801003 0
M  V30 16605 H 1513.14 -3.65304 1.6246 0
M  V30 16606 H 1514.58 -4.1771 0.727611 0
M  V30 16607 C 1513.04 -3.3324 -0.495261 0
M  V30 16608 O 1513.57 -3.71606 -1.52551 0
M  V30 16609 N 1511.78 -2.86335 -0.496054 0
M  V30 16610 H 1511.32 -2.55309 0.342773 0
M  V30 16611 H 1511.28 -2.833 -1.3634 0
M  V30 16612 N 1515.05 -1.1067 -1.12204 0
M  V30 16613 C 1516 -0.752659 -2.20086 0
M  V30 16614 C 1516.99 0.252284 -1.67511 0
M  V30 16615 O 1518.2 0.112398 -1.79649 0
M  V30 16616 H 1514.58 -0.225473 -0.717402 0
M  V30 16617 H 1516.55 -1.67136 -2.472 0
M  V30 16618 C 1515.3 -0.203345 -3.47105 0
M  V30 16619 H 1514.62 -0.967864 -3.87908 0
M  V30 16620 H 1516.06 0.00629123 -4.24 0
M  V30 16621 C 1514.52 1.06452 -3.1964 0
M  V30 16622 O 1515.05 2.14562 -3.39597 0
M  V30 16623 N 1513.25 0.984122 -2.73429 0
M  V30 16624 H 1512.8 0.104258 -2.57389 0
M  V30 16625 H 1512.76 1.83312 -2.55429 0
M  V30 16626 N 1516.53 1.29665 -0.895815 0
M  V30 16627 C 1517.76 2.00399 -0.534333 0
M  V30 16628 C 1518.18 1.66632 0.872654 0
M  V30 16629 O 1517.54 0.888811 1.58018 0
M  V30 16630 C 1517.59 3.53154 -0.729023 0
M  V30 16631 O 1516.69 4.11812 0.22023 0
M  V30 16632 H 1516.03 0.630173 -0.209233 0
M  V30 16633 H 1518.56 1.65253 -1.20634 0
M  V30 16634 H 1518.57 4.03073 -0.632179 0
M  V30 16635 H 1517.25 3.77067 -1.75481 0
M  V30 16636 H 1515.82 3.72822 0.0761687 0
M  V30 16637 N 1518.01 0.657889 1.43212 0
M  V30 16638 C 1518.96 -0.0308596 2.30779 0
M  V30 16639 C 1519.93 -0.809951 1.45014 0
M  V30 16640 O 1521.11 -0.785615 1.73876 0
M  V30 16641 C 1518.25 -0.988048 3.30653 0
M  V30 16642 C 1517.36 -0.204567 4.31515 0
M  V30 16643 C 1516.5 -1.15598 5.1847 0
M  V30 16644 C 1515.54 -0.363197 6.11022 0
M  V30 16645 N 1514.67 -1.26644 6.90584 0
M  V30 16646 H 1519.51 0.721745 2.89128 0
M  V30 16647 H 1517.05 0.367677 1.42431 0
M  V30 16648 H 1519.01 -1.55666 3.87071 0
M  V30 16649 H 1517.64 -1.70747 2.73944 0
M  V30 16650 H 1516.69 0.48041 3.77354 0
M  V30 16651 H 1518 0.411684 4.97098 0
M  V30 16652 H 1517.16 -1.79507 5.79536 0
M  V30 16653 H 1515.9 -1.80613 4.53023 0
M  V30 16654 H 1514.9 0.28922 5.49039 0
M  V30 16655 H 1516.13 0.28262 6.78512 0
M  V30 16656 H 1514.07 -1.90331 6.27782 0
M  V30 16657 H 1513.99 -0.70486 7.52707 0
M  V30 16658 H 1515.26 -1.89353 7.56152 0
M  V30 16659 N 1519.49 -1.52437 0.400108 0
M  V30 16660 C 1520.74 -2.00896 -0.179909 0
M  V30 16661 C 1521.05 -1.29046 -1.46991 0
M  V30 16662 O 1522.25 -1.68274 -2.13063 0
M  V30 16663 C 1520.71 -3.57981 -0.371169 0
M  V30 16664 C 1520.32 -4.38739 0.906213 0
M  V30 16665 C 1522.06 -4.14698 -0.906965 0
M  V30 16666 C 1519.97 -5.87447 0.682637 0
M  V30 16667 H 1518.9 -0.750649 -0.071008 0
M  V30 16668 H 1521.55 -1.75854 0.524169 0
M  V30 16669 H 1519.93 -3.79315 -1.13736 0
M  V30 16670 H 1521.11 -4.29167 1.67785 0
M  V30 16671 H 1519.42 -3.93296 1.36776 0
M  V30 16672 H 1522.02 -5.2347 -1.09012 0
M  V30 16673 H 1522.36 -3.71477 -1.87911 0
M  V30 16674 H 1522.89 -3.97297 -0.200068 0
M  V30 16675 H 1519.63 -6.35011 1.62608 0
M  V30 16676 H 1519.15 -5.99779 -0.0498716 0
M  V30 16677 H 1520.83 -6.46202 0.321331 0
M  V30 16678 N 1520.96 -0.130252 -1.57061 0
M  V30 16679 C 1522.19 0.531644 -1.99642 0
M  V30 16680 C 1522.6 1.60045 -1.00907 0
M  V30 16681 O 1521.95 1.83699 0.00452296 0
M  V30 16682 C 1522.01 1.20654 -3.38649 0
M  V30 16683 C 1521.67 0.284337 -4.56115 0
M  V30 16684 C 1522.67 -0.481472 -5.17666 0
M  V30 16685 C 1520.35 0.192125 -5.01932 0
M  V30 16686 C 1522.35 -1.32711 -6.23431 0
M  V30 16687 C 1520.03 -0.657135 -6.07557 0
M  V30 16688 C 1521.03 -1.41537 -6.68174 0
M  V30 16689 O 1520.72 -2.25051 -7.71756 0
M  V30 16690 H 1520.45 0.144394 -0.660399 0
M  V30 16691 H 1523.01 -0.216789 -2.04253 0
M  V30 16692 H 1521.24 2.00227 -3.30826 0
M  V30 16693 H 1522.93 1.76647 -3.65446 0
M  V30 16694 H 1523.69 -0.420169 -4.83177 0
M  V30 16695 H 1519.57 0.772017 -4.5449 0
M  V30 16696 H 1523.11 -1.91942 -6.70674 0
M  V30 16697 H 1519.01 -0.719791 -6.41474 0
M  V30 16698 H 1519.78 -2.18116 -7.88903 0
M  V30 16699 N 1522.44 1.56945 0.143535 0
M  V30 16700 C 1523.69 1.82728 0.854011 0
M  V30 16701 C 1524.01 0.712048 1.82179 0
M  V30 16702 O 1525.21 0.855579 2.57667 0
M  V30 16703 C 1523.67 3.23882 1.56934 0
M  V30 16704 C 1523.28 4.4335 0.643789 0
M  V30 16705 C 1525.02 3.58936 2.26639 0
M  V30 16706 C 1522.93 5.75528 1.36094 0
M  V30 16707 H 1521.86 0.681474 0.32266 0
M  V30 16708 H 1524.51 1.83189 0.106741 0
M  V30 16709 H 1522.89 3.17819 2.36236 0
M  V30 16710 H 1524.06 4.60658 -0.114257 0
M  V30 16711 H 1522.38 4.16364 0.0549721 0
M  V30 16712 H 1524.98 4.54948 2.80939 0
M  V30 16713 H 1525.32 2.85163 3.03295 0
M  V30 16714 H 1525.85 3.66676 1.54252 0
M  V30 16715 H 1522.59 6.52406 0.636157 0
M  V30 16716 H 1522.11 5.62149 2.09161 0
M  V30 16717 H 1523.79 6.18445 1.9009 0
M  V30 16718 N 1523.92 -0.412991 1.52093 0
M  V30 16719 C 1524.87 -1.52347 1.75765 0
M  V30 16720 C 1525.86 -1.57463 0.624641 0
M  V30 16721 O 1527.07 -1.60916 0.806599 0
M  V30 16722 H 1523.44 -0.50659 0.555761 0
M  V30 16723 H 1525.42 -1.29564 2.68804 0
M  V30 16724 C 1524.16 -2.89757 1.92188 0
M  V30 16725 H 1523.49 -2.86561 2.78788 0
M  V30 16726 H 1524.93 -3.66759 2.12753 0
M  V30 16727 C 1523.39 -3.29801 0.687963 0
M  V30 16728 O 1523.92 -4.01435 -0.145984 0
M  V30 16729 N 1522.12 -2.85819 0.524978 0
M  V30 16730 H 1521.67 -2.27694 1.20471 0
M  V30 16731 H 1521.63 -3.12972 -0.299325 0
M  V30 16732 N 1525.4 -1.4265 -0.669982 0
M  V30 16733 C 1526.65 -1.43093 -1.42719 0
M  V30 16734 C 1526.97 -0.0501228 -1.94936 0
M  V30 16735 O 1526.24 0.912077 -1.73372 0
M  V30 16736 H 1524.82 -0.526785 -0.529628 0
M  V30 16737 H 1527.48 -1.78113 -0.791324 0
M  V30 16738 H 1526.58 -2.13357 -2.27783 0
M  V30 16739 N 1526.88 0.906753 -1.28902 0
M  V30 16740 C 1528.29 1.18635 -1.06761 0
M  V30 16741 C 1528.49 2.00643 0.185594 0
M  V30 16742 O 1527.55 2.3647 0.885324 0
M  V30 16743 C 1528.86 1.91414 -2.31907 0
M  V30 16744 C 1530.41 2.04269 -2.37156 0
M  V30 16745 C 1530.89 2.80458 -3.62088 0
M  V30 16746 N 1532.38 2.88016 -3.62769 0
M  V30 16747 C 1533.11 3.47485 -4.56116 0
M  V30 16748 N 1532.61 4.08178 -5.59788 0
M  V30 16749 N 1534.4 3.45092 -4.43698 0
M  V30 16750 H 1526.55 0.359413 -2.09337 0
M  V30 16751 H 1528.81 0.221688 -0.921715 0
M  V30 16752 H 1528.52 1.38587 -3.23244 0
M  V30 16753 H 1528.39 2.91929 -2.38867 0
M  V30 16754 H 1530.78 2.56275 -1.46312 0
M  V30 16755 H 1530.86 1.0291 -2.34186 0
M  V30 16756 H 1530.51 2.2913 -4.53279 0
M  V30 16757 H 1530.44 3.82147 -3.62314 0
M  V30 16758 H 1532.93 2.44902 -2.87805 0
M  V30 16759 H 1533.24 4.51557 -6.27149 0
M  V30 16760 H 1531.59 4.06661 -5.63606 0
M  V30 16761 H 1534.78 2.96891 -3.61903 0
M  V30 16762 H 1534.95 3.91145 -5.16633 0
M  V30 16763 N 1528.36 1.11264 1.11616 0
M  V30 16764 C 1529.29 0.79149 2.19676 0
M  V30 16765 C 1530.27 -0.239351 1.68408 0
M  V30 16766 O 1531.45 -0.103228 1.93925 0
M  V30 16767 C 1528.58 0.231891 3.46525 0
M  V30 16768 C 1527.54 1.19439 4.10997 0
M  V30 16769 C 1526.86 0.495593 5.32398 0
M  V30 16770 C 1528.16 2.54437 4.56135 0
M  V30 16771 H 1529.86 1.69503 2.46797 0
M  V30 16772 H 1527.4 0.816433 1.18619 0
M  V30 16773 H 1529.35 -0.00497468 4.214 0
M  V30 16774 H 1528.08 -0.706938 3.18857 0
M  V30 16775 H 1526.74 1.41686 3.38113 0
M  V30 16776 H 1526.39 -0.447984 5.01001 0
M  V30 16777 H 1526.09 1.13753 5.76484 0
M  V30 16778 H 1527.61 0.267476 6.10014 0
M  V30 16779 H 1529.02 2.36289 5.22341 0
M  V30 16780 H 1527.42 3.14595 5.11028 0
M  V30 16781 H 1528.49 3.13795 3.69676 0
M  V30 16782 N 1529.83 -1.29188 0.902679 0
M  V30 16783 C 1531.08 -1.94718 0.526082 0
M  V30 16784 C 1531.4 -1.71924 -0.932816 0
M  V30 16785 O 1532.6 -2.31585 -1.41707 0
M  V30 16786 C 1531.06 -3.48723 0.889974 0
M  V30 16787 C 1530.67 -3.80312 2.36784 0
M  V30 16788 C 1532.41 -4.20472 0.58343 0
M  V30 16789 C 1530.32 -5.27574 2.67244 0
M  V30 16790 H 1529.25 -0.728875 0.193019 0
M  V30 16791 H 1531.9 -1.46869 1.10008 0
M  V30 16792 H 1530.28 -3.95242 0.244872 0
M  V30 16793 H 1531.45 -3.44641 3.05875 0
M  V30 16794 H 1529.77 -3.21709 2.64371 0
M  V30 16795 H 1532.37 -5.28864 0.787813 0
M  V30 16796 H 1532.71 -4.13544 -0.478204 0
M  V30 16797 H 1533.24 -3.79693 1.1865 0
M  V30 16798 H 1529.98 -5.39569 3.72217 0
M  V30 16799 H 1529.5 -5.64482 2.0278 0
M  V30 16800 H 1531.18 -5.95199 2.53666 0
M  V30 16801 N 1531.31 -0.665475 -1.42861 0
M  V30 16802 C 1532.59 -0.113252 -1.95272 0
M  V30 16803 C 1532.97 1.36972 -1.6063 0
M  V30 16804 O 1532.32 2.10129 -0.897662 0
M  V30 16805 C 1532.53 -0.372482 -3.47007 0
M  V30 16806 C 1533.87 -0.283982 -4.23649 0
M  V30 16807 O 1534.9 -0.305714 -3.54886 0
M  V30 16808 O 1533.76 -0.218171 -5.46064 0
M  V30 16809 H 1530.85 0.00253712 -0.826996 0
M  V30 16810 H 1533.4 -0.739561 -1.52737 0
M  V30 16811 H 1532.17 -1.40015 -3.65392 0
M  V30 16812 H 1531.79 0.286294 -3.96568 0
M  V30 16813 N 1532.79 1.52222 -0.408187 0
M  V30 16814 C 1533.72 2.24676 0.453129 0
M  V30 16815 C 1534.73 1.27605 1.01098 0
M  V30 16816 O 1535.92 1.53557 0.910084 0
M  V30 16817 C 1533.02 2.96431 1.64262 0
M  V30 16818 C 1532.2 4.20364 1.20883 0
M  V30 16819 C 1531.26 4.74951 2.26512 0
M  V30 16820 O 1530.28 5.37556 1.87142 0
M  V30 16821 N 1531.48 4.56443 3.58665 0
M  V30 16822 H 1534.25 2.9923 -0.16771 0
M  V30 16823 H 1531.81 1.60178 -0.235517 0
M  V30 16824 H 1533.8 3.29844 2.3449 0
M  V30 16825 H 1532.37 2.25068 2.1694 0
M  V30 16826 H 1531.59 3.92776 0.334712 0
M  V30 16827 H 1532.88 5.0085 0.895939 0
M  V30 16828 H 1532.28 4.06511 3.93402 0
M  V30 16829 H 1530.83 4.94295 4.24871 0
M  V30 16830 N 1534.27 0.138579 1.5699 0
M  V30 16831 C 1535.21 -0.804305 2.16332 0
M  V30 16832 C 1536.18 -1.25002 1.09379 0
M  V30 16833 O 1537.37 -1.32405 1.37381 0
M  V30 16834 C 1534.51 -2.04137 2.78248 0
M  V30 16835 C 1533.62 -1.64223 3.99568 0
M  V30 16836 C 1532.76 -2.83046 4.49509 0
M  V30 16837 C 1531.8 -2.39465 5.63314 0
M  V30 16838 N 1530.93 -3.51267 6.07911 0
M  V30 16839 H 1535.77 -0.29144 2.96571 0
M  V30 16840 H 1533.31 -0.132146 1.46505 0
M  V30 16841 H 1535.27 -2.76646 3.12286 0
M  V30 16842 H 1533.9 -2.52849 2.00667 0
M  V30 16843 H 1532.95 -0.815123 3.71564 0
M  V30 16844 H 1534.26 -1.2821 4.82041 0
M  V30 16845 H 1533.42 -3.63755 4.85559 0
M  V30 16846 H 1532.16 -3.22298 3.66026 0
M  V30 16847 H 1531.16 -1.57193 5.2685 0
M  V30 16848 H 1532.39 -2.01307 6.48577 0
M  V30 16849 H 1530.33 -3.90156 5.27365 0
M  V30 16850 H 1530.25 -3.19241 6.85289 0
M  V30 16851 H 1531.52 -4.32358 6.48604 0
M  V30 16852 N 1535.75 -1.57019 -0.13521 0
M  V30 16853 C 1537.16 -1.73319 -0.694067 0
M  V30 16854 C 1537.51 -0.754808 -1.811 0
M  V30 16855 O 1536.63 0.0759463 -2.16267 0
M  V30 16856 C 1537.23 -3.14266 -1.26579 0
M  V30 16857 C 1535.79 -3.32128 -1.7711 0
M  V30 16858 C 1534.93 -2.69226 -0.664263 0
M  V30 16859 H 1537.88 -1.58441 0.0905702 0
M  V30 16860 H 1537.91 -3.14919 -2.13557 0
M  V30 16861 H 1537.42 -3.85451 -0.452652 0
M  V30 16862 H 1535.52 -2.65959 -2.60953 0
M  V30 16863 H 1535.63 -4.40172 -1.8917 0
M  V30 16864 H 1534 -2.30016 -1.09384 0
M  V30 16865 H 1534.78 -3.43024 0.13763 0
M  V30 16866 N 1537.22 0.404919 -1.52309 0
M  V30 16867 C 1538.47 1.14859 -1.65802 0
M  V30 16868 C 1538.79 1.91546 -0.396174 0
M  V30 16869 O 1539.99 2.68372 -0.410969 0
M  V30 16870 C 1538.45 2.09068 -2.92948 0
M  V30 16871 C 1538.06 1.37878 -4.26255 0
M  V30 16872 C 1539.8 2.83669 -3.15804 0
M  V30 16873 C 1537.71 2.30761 -5.44521 0
M  V30 16874 H 1536.64 0.432463 -0.61765 0
M  V30 16875 H 1539.29 0.412695 -1.78799 0
M  V30 16876 H 1537.67 2.86228 -2.7366 0
M  V30 16877 H 1538.84 0.660543 -4.56041 0
M  V30 16878 H 1537.16 0.753026 -4.09534 0
M  V30 16879 H 1539.76 3.53313 -4.0134 0
M  V30 16880 H 1540.1 3.46855 -2.30212 0
M  V30 16881 H 1540.63 2.13607 -3.35584 0
M  V30 16882 H 1537.37 1.72214 -6.32473 0
M  V30 16883 H 1536.89 3.00546 -5.19069 0
M  V30 16884 H 1538.57 2.91195 -5.77767 0
M  V30 16885 N 1538.7 1.43003 0.662408 0
M  V30 16886 C 1539.93 1.47766 1.45533 0
M  V30 16887 C 1540.35 0.0940298 1.87865 0
M  V30 16888 O 1539.71 -0.910252 1.56793 0
M  V30 16889 C 1539.76 2.42084 2.6726 0
M  V30 16890 O 1538.86 1.90076 3.65985 0
M  V30 16891 H 1538.2 0.500167 0.436725 0
M  V30 16892 H 1540.73 1.87823 0.811399 0
M  V30 16893 H 1540.74 2.5908 3.15185 0
M  V30 16894 H 1539.42 3.42601 2.3579 0
M  V30 16895 H 1538 1.82695 3.2508 0
M  V30 16896 N 1540.18 -0.899904 1.29381 0
M  V30 16897 C 1541.13 -2.02537 1.14375 0
M  V30 16898 C 1542.12 -1.69296 0.0593904 0
M  V30 16899 O 1543.33 -1.78661 0.219174 0
M  V30 16900 H 1539.7 -0.663844 0.353291 0
M  V30 16901 H 1541.67 -2.12332 2.0966 0
M  V30 16902 C 1540.42 -3.37479 0.836845 0
M  V30 16903 H 1539.75 -3.6356 1.66326 0
M  V30 16904 H 1541.19 -4.16915 0.771873 0
M  V30 16905 C 1539.65 -3.33746 -0.459889 0
M  V30 16906 O 1540.18 -3.73203 -1.48601 0
M  V30 16907 N 1538.38 -2.86845 -0.465657 0
M  V30 16908 H 1537.93 -2.54931 0.369833 0
M  V30 16909 H 1537.89 -2.8473 -1.33327 0
M  V30 16910 N 1541.66 -1.11854 -1.11024 0
M  V30 16911 C 1542.59 -0.803129 -2.19253 0
M  V30 16912 C 1543.57 0.230417 -1.68532 0
M  V30 16913 O 1544.75 0.0929421 -1.93977 0
M  V30 16914 C 1541.88 -0.250265 -3.46397 0
M  V30 16915 C 1540.84 -1.21617 -4.10357 0
M  V30 16916 C 1540.16 -0.523821 -5.32128 0
M  V30 16917 C 1541.46 -2.56852 -4.54779 0
M  V30 16918 H 1543.16 -1.7081 -2.45895 0
M  V30 16919 H 1540.7 -0.822712 -1.18184 0
M  V30 16920 H 1542.66 -0.0173732 -4.21396 0
M  V30 16921 H 1541.38 0.690018 -3.19228 0
M  V30 16922 H 1540.04 -1.43477 -3.37357 0
M  V30 16923 H 1539.69 0.421408 -5.01232 0
M  V30 16924 H 1539.39 -1.16809 -5.75873 0
M  V30 16925 H 1540.91 -0.299823 -6.09863 0
M  V30 16926 H 1542.33 -2.39056 -5.21081 0
M  V30 16927 H 1540.72 -3.17301 -5.09353 0
M  V30 16928 H 1541.79 -3.15751 -3.68007 0
M  V30 16929 N 1543.14 1.28707 -0.909517 0
M  V30 16930 C 1544.38 1.94768 -0.539413 0
M  V30 16931 C 1544.71 1.7198 0.919133 0
M  V30 16932 O 1543.98 1.0571 1.64931 0
M  V30 16933 H 1542.56 0.720693 -0.196496 0
M  V30 16934 H 1545.22 1.56772 -1.15795 0
M  V30 16935 H 1544.31 3.03436 -0.730281 0
M  V30 16936 N 1544.61 0.673042 1.42506 0
M  V30 16937 C 1545.56 -0.0180603 2.32593 0
M  V30 16938 C 1546.56 -0.7924 1.49724 0
M  V30 16939 O 1547.76 -0.700563 1.65807 0
M  V30 16940 H 1544.14 -0.0246346 0.751596 0
M  V30 16941 H 1546.11 0.759153 2.88582 0
M  V30 16942 C 1544.86 -0.95676 3.34277 0
M  V30 16943 H 1544.18 -0.370341 3.98081 0
M  V30 16944 H 1545.62 -1.40905 3.99902 0
M  V30 16945 C 1544.08 -2.0623 2.66403 0
M  V30 16946 O 1544.61 -3.14853 2.4946 0
M  V30 16947 N 1542.82 -1.83351 2.25457 0
M  V30 16948 H 1542.36 -0.950141 2.39437 0
M  V30 16949 H 1542.32 -2.57511 1.80375 0
M  V30 16950 N 1546.09 -1.52004 0.416254 0
M  V30 16951 C 1547.34 -2.01076 -0.158591 0
M  V30 16952 C 1547.65 -1.30598 -1.45614 0
M  V30 16953 O 1548.86 -1.70525 -2.11267 0
M  V30 16954 C 1547.32 -3.58354 -0.333179 0
M  V30 16955 C 1546.92 -4.37753 0.952696 0
M  V30 16956 C 1548.67 -4.15637 -0.86293 0
M  V30 16957 C 1546.58 -5.8669 0.744905 0
M  V30 16958 H 1545.51 -0.75136 -0.0630423 0
M  V30 16959 H 1548.16 -1.75288 0.542791 0
M  V30 16960 H 1546.54 -3.805 -1.09706 0
M  V30 16961 H 1547.71 -4.27364 1.72328 0
M  V30 16962 H 1546.03 -3.91823 1.40939 0
M  V30 16963 H 1548.62 -5.24596 -1.03454 0
M  V30 16964 H 1548.97 -3.73449 -1.8396 0
M  V30 16965 H 1549.5 -3.97486 -0.157918 0
M  V30 16966 H 1546.24 -6.3325 1.69334 0
M  V30 16967 H 1545.76 -5.99798 0.0137458 0
M  V30 16968 H 1547.44 -6.45824 0.389851 0
M  V30 16969 N 1547.57 -0.146903 -1.56914 0
M  V30 16970 C 1548.52 0.804576 -2.13332 0
M  V30 16971 C 1549.5 1.2095 -1.06112 0
M  V30 16972 O 1550.7 1.17594 -1.3229 0
M  V30 16973 C 1547.83 2.0437 -2.7584 0
M  V30 16974 C 1546.91 1.66188 -3.90183 0
M  V30 16975 N 1547.3 0.988267 -4.96051 0
M  V30 16976 C 1545.6 1.9546 -4.00888 0
M  V30 16977 C 1546.3 0.803957 -5.76118 0
M  V30 16978 N 1545.28 1.33779 -5.26882 0
M  V30 16979 H 1549.08 0.280693 -2.92557 0
M  V30 16980 H 1546.59 0.0546404 -1.62308 0
M  V30 16981 H 1548.59 2.73532 -3.1462 0
M  V30 16982 H 1547.25 2.57276 -1.98089 0
M  V30 16983 H 1548.26 0.64904 -5.13817 0
M  V30 16984 H 1544.94 2.50216 -3.34213 0
M  V30 16985 H 1546.33 0.273065 -6.71345 0
M  V30 16986 N 1549.05 1.57088 0.126881 0
M  V30 16987 C 1550.01 1.98836 1.14003 0
M  V30 16988 C 1551.01 0.877454 1.34749 0
M  V30 16989 O 1552.2 1.14366 1.314 0
M  V30 16990 C 1549.33 2.32171 2.49618 0
M  V30 16991 H 1550.53 2.89541 0.7814 0
M  V30 16992 H 1548.08 1.51835 0.370915 0
M  V30 16993 H 1548.81 1.44321 2.90417 0
M  V30 16994 H 1548.6 3.13187 2.35916 0
M  V30 16995 H 1550.09 2.65238 3.2255 0
M  V30 16996 N 1550.53 -0.396836 1.52522 0
M  V30 16997 C 1551.75 -1.16857 1.71345 0
M  V30 16998 C 1552.18 -1.83178 0.427465 0
M  V30 16999 O 1551.53 -1.7051 -0.616123 0
M  V30 17000 C 1551.58 -2.19817 2.85855 0
M  V30 17001 O 1550.69 -3.26233 2.52281 0
M  V30 17002 H 1550.03 -0.340554 0.570017 0
M  V30 17003 H 1552.56 -0.463532 1.9928 0
M  V30 17004 H 1552.57 -2.63944 3.11123 0
M  V30 17005 H 1551.24 -1.70931 3.79151 0
M  V30 17006 H 1549.82 -2.87299 2.37726 0
M  V30 17007 N 1552.01 -1.43353 -0.654814 0
M  V30 17008 C 1552.95 -1.48652 -1.789 0
M  V30 17009 C 1553.95 -0.360274 -1.65525 0
M  V30 17010 O 1555.15 -0.534194 -1.71891 0
M  V30 17011 H 1551.53 -0.465987 -0.590221 0
M  V30 17012 H 1553.5 -2.44158 -1.7155 0
M  V30 17013 C 1552.25 -1.42512 -3.17152 0
M  V30 17014 H 1551.57 -2.28479 -3.28081 0
M  V30 17015 H 1553.01 -1.50282 -3.96474 0
M  V30 17016 C 1551.47 -0.142511 -3.36598 0
M  V30 17017 O 1552 0.796821 -3.93718 0
M  V30 17018 N 1550.21 -0.0532157 -2.90551 0
M  V30 17019 H 1549.75 -0.818421 -2.44253 0
M  V30 17020 H 1549.71 0.80427 -3.03939 0
M  V30 17021 N 1553.48 0.89303 -1.29857 0
M  V30 17022 C 1554.43 2.01928 -1.15447 0
M  V30 17023 C 1555.43 1.69262 -0.0683677 0
M  V30 17024 O 1556.63 1.78542 -0.228646 0
M  V30 17025 H 1553.01 0.661961 -0.356807 0
M  V30 17026 H 1554.98 2.11218 -2.10784 0
M  V30 17027 C 1553.73 3.37031 -0.85473 0
M  V30 17028 H 1553.05 3.62673 -1.68251 0
M  V30 17029 H 1554.49 4.165 -0.793973 0
M  V30 17030 C 1552.95 3.33986 0.442183 0
M  V30 17031 O 1553.48 3.73986 1.4662 0
M  V30 17032 N 1551.68 2.87088 0.450438 0
M  V30 17033 H 1551.23 2.54732 -0.383347 0
M  V30 17034 H 1551.19 2.85433 1.31815 0
M  V30 17035 N 1554.96 1.12442 1.10429 0
M  V30 17036 C 1556.21 0.874466 1.81758 0
M  V30 17037 C 1556.52 -0.601487 1.86122 0
M  V30 17038 O 1557.73 -0.968037 2.53656 0
M  V30 17039 C 1556.19 1.51478 3.2647 0
M  V30 17040 C 1555.79 3.02552 3.30403 0
M  V30 17041 C 1557.54 1.34511 4.02625 0
M  V30 17042 C 1555.44 3.59518 4.69575 0
M  V30 17043 H 1554.37 0.323494 0.681078 0
M  V30 17044 H 1557.03 1.35091 1.24188 0
M  V30 17045 H 1555.41 0.966 3.84037 0
M  V30 17046 H 1556.58 3.63924 2.82659 0
M  V30 17047 H 1554.9 3.18917 2.67733 0
M  V30 17048 H 1557.49 1.74492 5.05427 0
M  V30 17049 H 1557.84 0.288788 4.15297 0
M  V30 17050 H 1558.37 1.86311 3.51473 0
M  V30 17051 H 1555.11 4.6491 4.62103 0
M  V30 17052 H 1554.63 3.02922 5.17686 0
M  V30 17053 H 1556.31 3.58581 5.38543 0
M  V30 17054 N 1556.44 -1.28223 0.91633 0
M  V30 17055 C 1557.37 -2.25482 0.351128 0
M  V30 17056 C 1558.35 -1.53155 -0.546108 0
M  V30 17057 O 1559.53 -1.82042 -0.489182 0
M  V30 17058 C 1556.66 -3.35021 -0.497832 0
M  V30 17059 C 1555.71 -4.25187 0.334384 0
M  V30 17060 S 1556.54 -5.06348 1.74276 0
M  V30 17061 C 1557.7 -6.19378 0.901172 0
M  V30 17062 H 1557.93 -2.73075 1.17547 0
M  V30 17063 H 1555.46 -1.36703 0.717752 0
M  V30 17064 H 1557.42 -3.98586 -0.98182 0
M  V30 17065 H 1556.08 -2.8609 -1.29658 0
M  V30 17066 H 1555.27 -5.03015 -0.314884 0
M  V30 17067 H 1554.88 -3.66359 0.75212 0
M  V30 17068 H 1557.17 -6.77371 0.131985 0
M  V30 17069 H 1558.11 -6.88558 1.65208 0
M  V30 17070 H 1558.52 -5.62718 0.448206 0
M  V30 17071 N 1557.92 -0.68059 -1.42147 0
M  V30 17072 C 1559.16 -0.205263 -2.01457 0
M  V30 17073 C 1559.49 1.19015 -1.53837 0
M  V30 17074 O 1558.75 1.81423 -0.733763 0
M  V30 17075 C 1559.05 -0.194825 -3.56869 0
M  V30 17076 C 1558.71 -1.5357 -4.23942 0
M  V30 17077 C 1557.37 -1.90282 -4.4198 0
M  V30 17078 C 1559.73 -2.41852 -4.61689 0
M  V30 17079 C 1557.05 -3.14891 -4.95036 0
M  V30 17080 C 1559.41 -3.65779 -5.16129 0
M  V30 17081 C 1558.07 -4.02653 -5.32379 0
M  V30 17082 H 1557.34 -0.0751109 -0.737183 0
M  V30 17083 H 1559.99 -0.87672 -1.70252 0
M  V30 17084 H 1558.29 0.560155 -3.87775 0
M  V30 17085 H 1559.99 0.190248 -4.00548 0
M  V30 17086 H 1556.58 -1.24012 -4.10267 0
M  V30 17087 H 1560.76 -2.14773 -4.47422 0
M  V30 17088 H 1556.02 -3.43474 -5.05802 0
M  V30 17089 H 1560.19 -4.34384 -5.4432 0
M  V30 17090 H 1557.82 -4.99283 -5.73254 0
M  V30 17091 N 1559.4 1.51781 -0.424309 0
M  V30 17092 C 1560.34 2.27418 0.393668 0
M  V30 17093 C 1561.31 1.3046 1.02808 0
M  V30 17094 O 1562.5 1.59345 1.04946 0
M  V30 17095 C 1559.64 3.10983 1.49611 0
M  V30 17096 C 1558.75 4.22919 0.881123 0
M  V30 17097 C 1557.89 4.93816 1.95752 0
M  V30 17098 C 1556.92 5.97691 1.32028 0
M  V30 17099 N 1556.06 6.62047 2.33747 0
M  V30 17100 H 1560.9 2.96883 -0.257731 0
M  V30 17101 H 1558.44 1.46442 -0.138942 0
M  V30 17102 H 1560.4 3.57749 2.14642 0
M  V30 17103 H 1559.03 2.43658 2.11732 0
M  V30 17104 H 1558.08 3.80212 0.119445 0
M  V30 17105 H 1559.39 4.97383 0.375764 0
M  V30 17106 H 1558.54 5.44064 2.68476 0
M  V30 17107 H 1557.28 4.18954 2.49658 0
M  V30 17108 H 1556.29 5.46749 0.578444 0
M  V30 17109 H 1557.51 6.74504 0.788722 0
M  V30 17110 H 1555.46 5.90005 2.86757 0
M  V30 17111 H 1555.38 7.32234 1.88066 0
M  V30 17112 H 1556.64 7.16929 3.05995 0
M  V30 17113 N 1560.87 0.155222 1.56834 0
M  V30 17114 C 1561.8 -0.777258 2.20184 0
M  V30 17115 C 1562.78 -1.25102 1.15254 0
M  V30 17116 O 1563.97 -1.3071 1.43627 0
M  V30 17117 C 1561.1 -2.01326 2.82993 0
M  V30 17118 C 1560.05 -1.67596 3.93822 0
M  V30 17119 C 1559.38 -2.98529 4.43604 0
M  V30 17120 C 1560.68 -0.916302 5.142 0
M  V30 17121 H 1562.37 -0.249257 2.98361 0
M  V30 17122 H 1559.92 -0.118448 1.43512 0
M  V30 17123 H 1561.87 -2.67048 3.2598 0
M  V30 17124 H 1560.6 -2.56513 2.0216 0
M  V30 17125 H 1559.26 -1.0425 3.51465 0
M  V30 17126 H 1558.9 -3.51723 3.59583 0
M  V30 17127 H 1558.6 -2.76721 5.18362 0
M  V30 17128 H 1560.13 -3.65308 4.89267 0
M  V30 17129 H 1561.54 -1.47577 5.5398 0
M  V30 17130 H 1559.94 -0.797856 5.94772 0
M  V30 17131 H 1561.01 0.0904351 4.84816 0
M  V30 17132 N 1562.35 -1.57153 -0.118549 0
M  V30 17133 C 1563.63 -1.75846 -0.856587 0
M  V30 17134 C 1564.01 -0.730801 -1.98047 0
M  V30 17135 O 1563.36 0.245156 -2.27181 0
M  V30 17136 C 1563.57 -3.20864 -1.37286 0
M  V30 17137 C 1564.91 -3.83378 -1.82501 0
M  V30 17138 O 1565.94 -3.24469 -1.46964 0
M  V30 17139 O 1564.8 -4.86922 -2.48132 0
M  V30 17140 H 1561.89 -0.72002 -0.406817 0
M  V30 17141 H 1564.44 -1.69392 -0.102254 0
M  V30 17142 H 1563.21 -3.87177 -0.566531 0
M  V30 17143 H 1562.83 -3.31858 -2.18988 0
M  V30 17144 N 1563.83 0.388742 -1.5273 0
M  V30 17145 C 1565.08 1.13151 -1.67455 0
M  V30 17146 C 1565.4 1.90487 -0.417095 0
M  V30 17147 O 1564.67 1.87469 0.568509 0
M  V30 17148 H 1563.25 0.4207 -0.617269 0
M  V30 17149 H 1565.91 0.44098 -1.89846 0
M  V30 17150 H 1565.01 1.83427 -2.52509 0
M  V30 17151 N 1565.31 1.43698 0.647203 0
M  V30 17152 C 1566.55 1.47142 1.41876 0
M  V30 17153 C 1566.91 0.0952249 1.91764 0
M  V30 17154 O 1568.11 0.00434552 2.688 0
M  V30 17155 C 1566.38 2.48957 2.56428 0
M  V30 17156 S 1567.94 2.71323 3.44861 0
M  V30 17157 H 1564.76 0.520628 0.484218 0
M  V30 17158 H 1567.36 1.80507 0.75082 0
M  V30 17159 H 1566.07 3.47674 2.18061 0
M  V30 17160 H 1565.6 2.17109 3.28066 0
M  V30 17161 H 1567.61 2.01704 4.53354 0
M  V30 17162 N 1566.79 -0.886131 1.30328 0
M  V30 17163 C 1568.2 -1.16922 1.08634 0
M  V30 17164 C 1568.4 -2.00913 -0.15365 0
M  V30 17165 O 1567.46 -2.37849 -0.847592 0
M  V30 17166 C 1568.77 -1.87701 2.34923 0
M  V30 17167 C 1570.32 -2.0047 2.40376 0
M  V30 17168 C 1570.79 -2.74662 3.66504 0
M  V30 17169 N 1572.29 -2.82208 3.67305 0
M  V30 17170 C 1573.02 -3.40185 4.61586 0
M  V30 17171 N 1572.52 -3.99221 5.66211 0
M  V30 17172 N 1574.31 -3.37989 4.49132 0
M  V30 17173 H 1566.46 -0.326064 2.09882 0
M  V30 17174 H 1568.72 -0.206996 0.925125 0
M  V30 17175 H 1568.43 -1.33427 3.25408 0
M  V30 17176 H 1568.3 -2.88092 2.43481 0
M  V30 17177 H 1570.69 -2.53914 1.50371 0
M  V30 17178 H 1570.77 -0.991709 2.35794 0
M  V30 17179 H 1570.42 -2.2189 4.56867 0
M  V30 17180 H 1570.35 -3.76335 3.68347 0
M  V30 17181 H 1572.84 -2.40292 2.91665 0
M  V30 17182 H 1573.15 -4.41522 6.34254 0
M  V30 17183 H 1571.49 -3.97643 5.70004 0
M  V30 17184 H 1574.69 -2.91096 3.6658 0
M  V30 17185 H 1574.86 -3.82877 5.2279 0
M  V30 17186 N 1568.26 -1.13026 -1.09832 0
M  V30 17187 C 1569.54 -0.800667 -1.78462 0
M  V30 17188 C 1569.92 0.708508 -1.98855 0
M  V30 17189 O 1569.27 1.64436 -1.58661 0
M  V30 17190 C 1569.48 -1.58284 -3.11042 0
M  V30 17191 C 1570.83 -1.77285 -3.85818 0
M  V30 17192 O 1571.85 -1.54848 -3.20781 0
M  V30 17193 O 1570.71 -2.14693 -5.02563 0
M  V30 17194 H 1567.8 -0.291895 -0.773774 0
M  V30 17195 H 1570.35 -1.23464 -1.16425 0
M  V30 17196 H 1569.12 -2.60867 -2.91657 0
M  V30 17197 H 1568.75 -1.14353 -3.80801 0
M  V30 17198 N 1569.74 1.27735 -0.923117 0
M  V30 17199 C 1570.97 1.98682 -0.577317 0
M  V30 17200 C 1571.39 1.68904 0.843608 0
M  V30 17201 O 1570.74 0.947021 1.56006 0
M  V30 17202 C 1570.79 3.52804 -0.788144 0
M  V30 17203 O 1570.51 3.81537 -2.15316 0
M  V30 17204 C 1572.02 4.41006 -0.450437 0
M  V30 17205 H 1569.24 0.634186 -0.2192 0
M  V30 17206 H 1571.78 1.62702 -1.23888 0
M  V30 17207 H 1569.93 3.87012 -0.173441 0
M  V30 17208 H 1570.35 4.76142 -2.19976 0
M  V30 17209 H 1571.82 5.48175 -0.648674 0
M  V30 17210 H 1572.3 4.3489 0.613806 0
M  V30 17211 H 1572.91 4.1231 -1.04308 0
M  V30 17212 N 1571.22 0.688118 1.41784 0
M  V30 17213 C 1572.17 -0.00492036 2.27999 0
M  V30 17214 C 1573.15 -0.760299 1.41804 0
M  V30 17215 O 1574.35 -0.637019 1.6514 0
M  V30 17216 C 1571.48 -0.945951 3.3001 0
M  V30 17217 C 1570.56 -0.187213 4.23687 0
M  V30 17218 N 1570.95 0.815028 4.9919 0
M  V30 17219 C 1569.25 -0.423765 4.43982 0
M  V30 17220 C 1569.95 1.26854 5.677 0
M  V30 17221 N 1568.93 0.595901 5.40324 0
M  V30 17222 H 1572.73 0.763628 2.83806 0
M  V30 17223 H 1570.24 0.518314 1.53907 0
M  V30 17224 H 1572.24 -1.45754 3.90591 0
M  V30 17225 H 1570.9 -1.71418 2.75764 0
M  V30 17226 H 1571.91 1.19502 5.03924 0
M  V30 17227 H 1568.59 -1.17046 4.00757 0
M  V30 17228 H 1569.98 2.0998 6.38246 0
M  V30 17229 N 1572.7 -1.51554 0.432352 0
M  V30 17230 C 1574.11 -1.59377 0.0843863 0
M  V30 17231 C 1574.31 -1.44364 -1.40575 0
M  V30 17232 O 1573.37 -1.28234 -2.17514 0
M  V30 17233 C 1574.68 -2.94652 0.600046 0
M  V30 17234 C 1576.23 -3.07949 0.560049 0
M  V30 17235 C 1576.71 -4.4574 1.0526 0
M  V30 17236 N 1578.2 -4.52046 1.01038 0
M  V30 17237 C 1578.93 -5.56979 1.36242 0
M  V30 17238 N 1578.43 -6.69355 1.78707 0
M  V30 17239 N 1580.22 -5.47311 1.2809 0
M  V30 17240 H 1572.37 -1.59558 1.40197 0
M  V30 17241 H 1574.64 -0.751868 0.577406 0
M  V30 17242 H 1574.34 -3.10993 1.64245 0
M  V30 17243 H 1574.22 -3.77193 0.0222482 0
M  V30 17244 H 1576.6 -2.91279 -0.473357 0
M  V30 17245 H 1576.68 -2.27259 1.17419 0
M  V30 17246 H 1576.33 -4.63156 2.08445 0
M  V30 17247 H 1576.26 -5.24962 0.415047 0
M  V30 17248 H 1578.75 -3.71389 0.69847 0
M  V30 17249 H 1579.06 -7.45438 2.03819 0
M  V30 17250 H 1577.41 -6.70576 1.82629 0
M  V30 17251 H 1580.6 -4.58403 0.947848 0
M  V30 17252 H 1580.77 -6.28978 1.55855 0
M  V30 17253 N 1574.18 -0.163538 -1.56749 0
M  V30 17254 C 1575.41 0.489178 -2.00725 0
M  V30 17255 C 1575.81 1.57869 -1.04279 0
M  V30 17256 O 1575.16 1.83668 -0.0344434 0
M  V30 17257 C 1575.22 1.13443 -3.41132 0
M  V30 17258 C 1574.88 0.187525 -4.56615 0
M  V30 17259 C 1575.88 -0.591169 -5.16528 0
M  V30 17260 C 1573.57 0.0856149 -5.02227 0
M  V30 17261 C 1575.56 -1.45905 -6.20476 0
M  V30 17262 C 1573.25 -0.785859 -6.06026 0
M  V30 17263 C 1574.24 -1.55678 -6.65021 0
M  V30 17264 O 1573.93 -2.41371 -7.66809 0
M  V30 17265 H 1573.66 0.130353 -0.663313 0
M  V30 17266 H 1576.22 -0.260065 -2.03747 0
M  V30 17267 H 1574.45 1.93165 -3.34999 0
M  V30 17268 H 1576.14 1.68856 -3.69111 0
M  V30 17269 H 1576.9 -0.522563 -4.82177 0
M  V30 17270 H 1572.78 0.675439 -4.56025 0
M  V30 17271 H 1576.33 -2.06125 -6.66452 0
M  V30 17272 H 1572.22 -0.855696 -6.39803 0
M  V30 17273 H 1572.99 -2.34801 -7.84099 0
M  V30 17274 N 1575.65 1.57214 0.110213 0
M  V30 17275 C 1576.9 1.84498 0.815059 0
M  V30 17276 C 1577.22 0.750531 1.80628 0
M  V30 17277 O 1578.42 0.910042 2.55794 0
M  V30 17278 C 1576.88 3.27138 1.50028 0
M  V30 17279 C 1576.49 4.44616 0.549603 0
M  V30 17280 C 1578.23 3.63662 2.18975 0
M  V30 17281 C 1576.14 5.78285 1.23855 0
M  V30 17282 H 1575.07 0.688165 0.308132 0
M  V30 17283 H 1577.72 1.83374 0.0678595 0
M  V30 17284 H 1576.1 3.22758 2.29441 0
M  V30 17285 H 1577.27 4.60312 -0.211944 0
M  V30 17286 H 1575.59 4.16387 -0.0333571 0
M  V30 17287 H 1578.19 4.60804 2.71226 0
M  V30 17288 H 1578.53 2.91532 2.97178 0
M  V30 17289 H 1579.06 3.69865 1.46439 0
M  V30 17290 H 1575.8 6.53608 0.497629 0
M  V30 17291 H 1575.32 5.66459 1.9719 0
M  V30 17292 H 1577 6.22338 1.76929 0
M  V30 17293 N 1577.13 -0.380637 1.52934 0
M  V30 17294 C 1578.38 -1.12306 1.69585 0
M  V30 17295 C 1578.73 -1.87427 0.434626 0
M  V30 17296 O 1578.03 -1.82864 -0.571955 0
M  V30 17297 C 1578.22 -2.1227 2.87535 0
M  V30 17298 C 1578.05 -1.46969 4.25006 0
M  V30 17299 C 1576.82 -1.23021 4.90096 0
M  V30 17300 C 1579.02 -0.915348 5.06089 0
M  V30 17301 N 1577 -0.539124 6.11528 0
M  V30 17302 C 1578.37 -0.352792 6.18995 0
M  V30 17303 C 1580.43 -0.81257 4.91225 0
M  V30 17304 C 1579.13 0.302501 7.18664 0
M  V30 17305 C 1581.15 -0.171084 5.91152 0
M  V30 17306 C 1580.52 0.380664 7.03371 0
M  V30 17307 H 1576.62 -0.39663 0.67395 0
M  V30 17308 H 1579.2 -0.411454 1.90303 0
M  V30 17309 H 1577.37 -2.80759 2.68382 0
M  V30 17310 H 1579.1 -2.7908 2.93081 0
M  V30 17311 H 1575.86 -1.50746 4.48969 0
M  V30 17312 H 1576.28 -0.209381 6.76676 0
M  V30 17313 H 1580.92 -1.22493 4.04667 0
M  V30 17314 H 1578.64 0.72685 8.04825 0
M  V30 17315 H 1582.23 -0.0926928 5.81726 0
M  V30 17316 H 1581.11 0.8692 7.79368 0
M  V30 17317 N 1578.61 -1.44039 -0.639573 0
M  V30 17318 C 1579.86 -1.4566 -1.39521 0
M  V30 17319 C 1580.17 -0.0897878 -1.95394 0
M  V30 17320 O 1581.38 0.0165074 -2.71495 0
M  V30 17321 C 1579.83 -2.56395 -2.52566 0
M  V30 17322 C 1579.44 -3.99245 -2.03243 0
M  V30 17323 C 1581.19 -2.67226 -3.29834 0
M  V30 17324 C 1579.09 -5.01419 -3.1358 0
M  V30 17325 H 1578.02 -0.541894 -0.524277 0
M  V30 17326 H 1580.67 -1.70076 -0.688941 0
M  V30 17327 H 1579.06 -2.25204 -3.25729 0
M  V30 17328 H 1580.23 -4.39963 -1.37002 0
M  V30 17329 H 1578.55 -3.9258 -1.38816 0
M  V30 17330 H 1581.14 -3.40736 -4.12072 0
M  V30 17331 H 1581.49 -1.72756 -3.78763 0
M  V30 17332 H 1582.02 -2.97786 -2.63758 0
M  V30 17333 H 1578.76 -5.97489 -2.69605 0
M  V30 17334 H 1578.28 -4.65301 -3.7849 0
M  V30 17335 H 1579.96 -5.2474 -3.78493 0
M  V30 17336 N 1580.09 0.879207 -1.30796 0
M  V30 17337 C 1581.04 1.98553 -1.17667 0
M  V30 17338 C 1582.01 1.65974 -0.0647231 0
M  V30 17339 O 1583.19 1.89336 -0.235941 0
M  V30 17340 C 1580.33 3.3368 -0.880434 0
M  V30 17341 C 1579.44 3.78913 -2.07482 0
M  V30 17342 C 1578.58 5.02714 -1.71617 0
M  V30 17343 C 1577.62 5.40371 -2.87517 0
M  V30 17344 N 1576.75 6.55352 -2.5191 0
M  V30 17345 H 1581.59 2.09115 -2.12309 0
M  V30 17346 H 1579.13 1.02382 -1.05623 0
M  V30 17347 H 1581.09 4.11467 -0.689278 0
M  V30 17348 H 1579.72 3.22787 0.0291283 0
M  V30 17349 H 1578.77 2.96987 -2.37704 0
M  V30 17350 H 1580.08 4.02757 -2.94259 0
M  V30 17351 H 1579.24 5.88142 -1.4891 0
M  V30 17352 H 1577.98 4.80754 -0.820181 0
M  V30 17353 H 1576.98 4.53466 -3.10883 0
M  V30 17354 H 1578.21 5.64301 -3.77811 0
M  V30 17355 H 1576.15 6.34956 -1.64823 0
M  V30 17356 H 1576.07 6.79093 -3.32217 0
M  V30 17357 H 1577.34 7.43996 -2.32573 0
M  V30 17358 N 1581.57 1.13606 1.09231 0
M  V30 17359 C 1582.8 0.920958 1.84938 0
M  V30 17360 C 1583.21 -0.533706 1.81516 0
M  V30 17361 O 1582.55 -1.38127 1.21105 0
M  V30 17362 C 1582.61 1.33357 3.33851 0
M  V30 17363 C 1582.27 2.80206 3.61017 0
M  V30 17364 C 1583.27 3.78356 3.56571 0
M  V30 17365 C 1580.96 3.17415 3.89298 0
M  V30 17366 C 1582.95 5.11726 3.8002 0
M  V30 17367 C 1580.64 4.50963 4.12402 0
M  V30 17368 C 1581.64 5.47928 4.07755 0
M  V30 17369 O 1581.32 6.79066 4.3026 0
M  V30 17370 H 1581.06 0.328256 0.590952 0
M  V30 17371 H 1583.61 1.51298 1.38917 0
M  V30 17372 H 1581.84 0.684821 3.80588 0
M  V30 17373 H 1583.53 1.09061 3.90974 0
M  V30 17374 H 1584.29 3.50956 3.34746 0
M  V30 17375 H 1580.17 2.42542 3.92039 0
M  V30 17376 H 1583.72 5.87399 3.76309 0
M  V30 17377 H 1579.61 4.78088 4.33708 0
M  V30 17378 H 1580.38 6.85199 4.47711 0
M  V30 17379 N 1583.05 -1.27244 0.929878 0
M  V30 17380 C 1584.29 -1.94269 0.57146 0
M  V30 17381 C 1584.62 -1.73064 -0.887639 0
M  V30 17382 O 1583.88 -1.05422 -1.64878 0
M  V30 17383 C 1584.17 -3.47233 0.846386 0
M  V30 17384 C 1583.84 -3.88563 2.28757 0
M  V30 17385 C 1582.5 -3.99557 2.68156 0
M  V30 17386 C 1584.85 -4.09468 3.22467 0
M  V30 17387 C 1582.18 -4.28846 4.00385 0
M  V30 17388 C 1584.53 -4.40242 4.54279 0
M  V30 17389 C 1583.2 -4.4945 4.93509 0
M  V30 17390 H 1582.47 -0.710882 0.209112 0
M  V30 17391 H 1585.12 -1.51273 1.17425 0
M  V30 17392 H 1583.42 -3.91469 0.160941 0
M  V30 17393 H 1585.12 -3.97238 0.548006 0
M  V30 17394 H 1581.71 -3.80544 1.97192 0
M  V30 17395 H 1585.89 -4.00412 2.9323 0
M  V30 17396 H 1581.15 -4.34184 4.30458 0
M  V30 17397 H 1585.32 -4.55365 5.26892 0
M  V30 17398 H 1582.95 -4.71899 5.95999 0
M  V30 17399 N 1584.52 -0.695628 -1.41417 0
M  V30 17400 C 1585.47 -0.0189456 -2.32592 0
M  V30 17401 C 1586.47 0.76848 -1.50966 0
M  V30 17402 O 1587.67 0.674096 -1.66901 0
M  V30 17403 H 1584.05 0.0126742 -0.751893 0
M  V30 17404 H 1586.02 -0.804968 -2.87337 0
M  V30 17405 C 1584.77 0.903458 -3.35757 0
M  V30 17406 H 1584.09 0.306963 -3.9862 0
M  V30 17407 H 1585.53 1.34525 -4.02093 0
M  V30 17408 C 1583.99 2.01966 -2.69651 0
M  V30 17409 O 1584.52 3.10845 -2.54438 0
M  V30 17410 N 1582.72 1.79741 -2.28345 0
M  V30 17411 H 1582.27 0.911929 -2.40918 0
M  V30 17412 H 1582.23 2.54609 -1.84449 0
M  V30 17413 N 1586 1.51322 -0.440383 0
M  V30 17414 C 1586.93 2.30708 0.360013 0
M  V30 17415 C 1587.91 1.36254 1.01828 0
M  V30 17416 O 1589.1 1.65174 1.02134 0
M  V30 17417 C 1586.23 3.15132 1.45977 0
M  V30 17418 C 1585.18 4.17889 0.924825 0
M  V30 17419 C 1584.51 4.90853 2.12056 0
M  V30 17420 C 1585.81 5.22282 -0.0428362 0
M  V30 17421 H 1587.5 2.97868 -0.30248 0
M  V30 17422 H 1585.05 1.43249 -0.146914 0
M  V30 17423 H 1587 3.69449 2.02695 0
M  V30 17424 H 1585.72 2.45798 2.1506 0
M  V30 17425 H 1584.38 3.64627 0.379842 0
M  V30 17426 H 1584.03 4.1802 2.79765 0
M  V30 17427 H 1583.73 5.60339 1.769 0
M  V30 17428 H 1585.26 5.47995 2.69322 0
M  V30 17429 H 1586.67 5.71654 0.434137 0
M  V30 17430 H 1585.07 5.99314 -0.307126 0
M  V30 17431 H 1586.14 4.74923 -0.978557 0
M  V30 17432 N 1587.48 0.171848 1.5666 0
M  V30 17433 C 1588.73 -0.472968 1.96899 0
M  V30 17434 C 1589.05 -1.63217 1.05785 0
M  V30 17435 O 1588.31 -1.95483 0.0920511 0
M  V30 17436 C 1588.61 -0.99711 3.43209 0
M  V30 17437 C 1588.27 0.0462519 4.50876 0
M  V30 17438 C 1586.94 0.333002 4.80046 0
M  V30 17439 C 1589.29 0.754424 5.15711 0
M  V30 17440 C 1586.62 1.3333 5.71349 0
M  V30 17441 C 1588.97 1.74371 6.08093 0
M  V30 17442 C 1587.63 2.03791 6.3563 0
M  V30 17443 H 1586.9 -0.173071 0.720505 0
M  V30 17444 H 1589.55 0.263921 1.89673 0
M  V30 17445 H 1587.85 -1.81183 3.4739 0
M  V30 17446 H 1589.55 -1.50503 3.71685 0
M  V30 17447 H 1586.14 -0.187419 4.2819 0
M  V30 17448 H 1590.33 0.546102 4.93286 0
M  V30 17449 H 1585.58 1.56741 5.90967 0
M  V30 17450 H 1589.76 2.29782 6.57399 0
M  V30 17451 H 1587.38 2.8145 7.0618 0
M  V30 17452 N 1588.96 -1.5727 -0.101874 0
M  V30 17453 C 1590.23 -1.76745 -0.837888 0
M  V30 17454 C 1590.61 -0.751766 -1.9726 0
M  V30 17455 O 1589.96 0.221046 -2.27428 0
M  V30 17456 C 1590.17 -3.22302 -1.33875 0
M  V30 17457 C 1591.52 -3.85292 -1.78425 0
M  V30 17458 O 1592.54 -3.2601 -1.43514 0
M  V30 17459 O 1591.4 -4.89526 -2.42953 0
M  V30 17460 H 1588.5 -0.724294 -0.399157 0
M  V30 17461 H 1591.04 -1.69491 -0.0842821 0
M  V30 17462 H 1589.82 -3.87756 -0.525434 0
M  V30 17463 H 1589.44 -3.34162 -2.15456 0
M  V30 17464 N 1590.44 0.372521 -1.53134 0
M  V30 17465 C 1591.38 1.45597 -1.79082 0
M  V30 17466 C 1592.35 1.5349 -0.63482 0
M  V30 17467 O 1593.54 1.69488 -0.876276 0
M  V30 17468 C 1590.68 2.8263 -1.98026 0
M  V30 17469 C 1589.79 2.83758 -3.25738 0
M  V30 17470 C 1588.93 4.12322 -3.34909 0
M  V30 17471 C 1587.96 4.07565 -4.5668 0
M  V30 17472 N 1587.1 5.27766 -4.63042 0
M  V30 17473 H 1591.94 1.22771 -2.71535 0
M  V30 17474 H 1589.48 0.595285 -1.34517 0
M  V30 17475 H 1591.44 3.62227 -2.06997 0
M  V30 17476 H 1590.07 3.0387 -1.08917 0
M  V30 17477 H 1589.12 1.96435 -3.25757 0
M  V30 17478 H 1590.43 2.76114 -4.15406 0
M  V30 17479 H 1589.58 5.00331 -3.43153 0
M  V30 17480 H 1588.32 4.22709 -2.43245 0
M  V30 17481 H 1587.33 3.17943 -4.48545 0
M  V30 17482 H 1588.55 3.98786 -5.49678 0
M  V30 17483 H 1586.5 5.38752 -3.74276 0
M  V30 17484 H 1586.42 5.22264 -5.46605 0
M  V30 17485 H 1587.68 6.17626 -4.75561 0
M  V30 17486 N 1591.91 1.44376 0.631925 0
M  V30 17487 C 1592.82 1.5367 1.77264 0
M  V30 17488 C 1593.84 0.422425 1.68794 0
M  V30 17489 O 1595.02 0.679656 1.89585 0
M  V30 17490 C 1592.08 1.47743 3.13644 0
M  V30 17491 C 1591.14 2.70015 3.33752 0
M  V30 17492 C 1590.37 2.64362 4.63626 0
M  V30 17493 O 1590.6 1.7032 5.44378 0
M  V30 17494 O 1589.53 3.55201 4.85918 0
M  V30 17495 H 1593.36 2.5004 1.72376 0
M  V30 17496 H 1590.94 1.26614 0.793052 0
M  V30 17497 H 1592.82 1.46958 3.94945 0
M  V30 17498 H 1591.5 0.545165 3.19076 0
M  V30 17499 H 1590.41 2.76369 2.52133 0
M  V30 17500 H 1591.74 3.62286 3.33181 0
M  V30 17501 N 1593.39 -0.872258 1.31261 0
M  V30 17502 C 1594.32 -1.99517 1.21306 0
M  V30 17503 C 1595.3 -1.69801 0.100775 0
M  V30 17504 O 1596.49 -1.92098 0.284984 0
M  V30 17505 C 1593.62 -3.34968 0.917249 0
M  V30 17506 C 1592.57 -3.78984 1.98885 0
M  V30 17507 C 1591.9 -5.11869 1.54578 0
M  V30 17508 C 1593.2 -3.96338 3.40167 0
M  V30 17509 H 1594.89 -2.08104 2.15251 0
M  V30 17510 H 1592.44 -0.999865 1.03628 0
M  V30 17511 H 1594.39 -4.1306 0.834217 0
M  V30 17512 H 1593.11 -3.26549 -0.0578721 0
M  V30 17513 H 1591.77 -3.0313 2.06174 0
M  V30 17514 H 1591.42 -4.99889 0.558581 0
M  V30 17515 H 1591.12 -5.4229 2.26265 0
M  V30 17516 H 1592.65 -5.92472 1.47678 0
M  V30 17517 H 1594.06 -4.64831 3.35566 0
M  V30 17518 H 1592.46 -4.38153 4.10051 0
M  V30 17519 H 1593.53 -2.9979 3.81122 0
M  V30 17520 N 1594.87 -1.14184 -1.08627 0
M  V30 17521 C 1595.82 -0.822297 -2.1758 0
M  V30 17522 C 1596.81 0.198863 -1.68229 0
M  V30 17523 O 1598.02 0.0551869 -1.79915 0
M  V30 17524 H 1594.39 -0.248183 -0.709866 0
M  V30 17525 H 1596.36 -1.74916 -2.41758 0
M  V30 17526 C 1595.11 -0.313671 -3.46282 0
M  V30 17527 H 1594.44 -1.09078 -3.84632 0
M  V30 17528 H 1595.88 -0.128604 -4.23805 0
M  V30 17529 C 1594.33 0.962289 -3.22865 0
M  V30 17530 O 1594.86 2.03649 -3.46251 0
M  V30 17531 N 1593.07 0.896635 -2.76421 0
M  V30 17532 H 1592.62 0.0223186 -2.5759 0
M  V30 17533 H 1592.58 1.75093 -2.61132 0
M  V30 17534 N 1596.35 1.26749 -0.936613 0
M  V30 17535 C 1597.26 2.30272 -0.448573 0
M  V30 17536 C 1598.27 1.67386 0.475184 0
M  V30 17537 O 1599.45 1.98232 0.355825 0
M  V30 17538 C 1596.52 3.45546 0.28262 0
M  V30 17539 C 1595.58 4.23926 -0.677138 0
M  V30 17540 C 1594.81 5.33697 0.019255 0
M  V30 17541 O 1595.03 5.56825 1.23703 0
M  V30 17542 O 1593.97 5.98302 -0.657119 0
M  V30 17543 H 1597.79 2.74072 -1.30838 0
M  V30 17544 H 1595.38 1.31863 -0.702314 0
M  V30 17545 H 1597.26 4.15635 0.694686 0
M  V30 17546 H 1595.93 3.03784 1.11789 0
M  V30 17547 H 1594.84 3.56337 -1.13906 0
M  V30 17548 H 1596.17 4.69425 -1.47988 0
M  V30 17549 N 1597.83 0.703118 1.41046 0
M  V30 17550 C 1598.77 0.0425767 2.30761 0
M  V30 17551 C 1599.74 -0.763406 1.47517 0
M  V30 17552 O 1600.93 -0.7299 1.76287 0
M  V30 17553 C 1598.07 -0.882353 3.33629 0
M  V30 17554 C 1597.18 -0.0671799 4.31948 0
M  V30 17555 C 1596.32 -0.990443 5.21885 0
M  V30 17556 C 1595.36 -0.168622 6.11868 0
M  V30 17557 N 1594.49 -1.04609 6.94263 0
M  V30 17558 H 1599.33 0.813363 2.86685 0
M  V30 17559 H 1596.87 0.412804 1.41189 0
M  V30 17560 H 1598.83 -1.43273 3.91827 0
M  V30 17561 H 1597.46 -1.61946 2.79237 0
M  V30 17562 H 1596.51 0.600219 3.75635 0
M  V30 17563 H 1597.82 0.569624 4.95537 0
M  V30 17564 H 1596.98 -1.60979 5.84954 0
M  V30 17565 H 1595.71 -1.66109 4.5854 0
M  V30 17566 H 1594.72 0.463746 5.47841 0
M  V30 17567 H 1595.94 0.49834 6.77269 0
M  V30 17568 H 1593.89 -1.70262 6.33519 0
M  V30 17569 H 1593.81 -0.465036 7.54568 0
M  V30 17570 H 1595.08 -1.65201 7.61793 0
M  V30 17571 N 1599.3 -1.51086 0.448402 0
M  V30 17572 C 1600.21 -2.3177 -0.363323 0
M  V30 17573 C 1601.23 -1.41159 -1.01736 0
M  V30 17574 O 1602.41 -1.74226 -1.01031 0
M  V30 17575 C 1599.47 -3.15211 -1.4437 0
M  V30 17576 C 1598.53 -4.21615 -0.808643 0
M  V30 17577 C 1597.77 -5.01069 -1.83754 0
M  V30 17578 O 1597.99 -4.81296 -3.06121 0
M  V30 17579 O 1596.92 -5.84863 -1.42193 0
M  V30 17580 H 1600.75 -3.02257 0.295653 0
M  V30 17581 H 1598.33 -1.47907 0.210703 0
M  V30 17582 H 1600.22 -3.67053 -2.07002 0
M  V30 17583 H 1598.89 -2.47476 -2.08656 0
M  V30 17584 H 1597.8 -3.73823 -0.143975 0
M  V30 17585 H 1599.13 -4.91756 -0.209098 0
M  V30 17586 N 1600.78 -0.180154 -1.56567 0
M  V30 17587 C 1602.03 0.462656 -1.96322 0
M  V30 17588 C 1602.34 1.63788 -1.06925 0
M  V30 17589 O 1603.55 2.34751 -1.36398 0
M  V30 17590 C 1602.01 0.874492 -3.49114 0
M  V30 17591 C 1601.61 -0.27562 -4.47151 0
M  V30 17592 C 1603.36 1.48522 -3.9767 0
M  V30 17593 C 1601.27 0.156341 -5.91193 0
M  V30 17594 H 1600.2 0.176619 -0.733022 0
M  V30 17595 H 1602.85 -0.269793 -1.81506 0
M  V30 17596 H 1601.23 1.66318 -3.59381 0
M  V30 17597 H 1602.4 -1.05304 -4.48606 0
M  V30 17598 H 1600.72 -0.796878 -4.08704 0
M  V30 17599 H 1603.31 1.8206 -5.02751 0
M  V30 17600 H 1603.66 2.38634 -3.41115 0
M  V30 17601 H 1604.19 0.760806 -3.90457 0
M  V30 17602 H 1600.93 -0.710221 -6.51641 0
M  V30 17603 H 1600.45 0.898933 -5.93025 0
M  V30 17604 H 1602.13 0.597228 -6.44238 0
M  V30 17605 N 1602.26 1.57322 0.0935319 0
M  V30 17606 C 1603.21 2.02171 1.11336 0
M  V30 17607 C 1604.18 0.898305 1.39713 0
M  V30 17608 O 1605.36 1.16441 1.51149 0
M  V30 17609 C 1602.5 2.45243 2.42796 0
M  V30 17610 C 1601.62 3.7111 2.21136 0
M  V30 17611 C 1600.75 4.03056 3.46005 0
M  V30 17612 C 1599.79 5.22028 3.19615 0
M  V30 17613 N 1598.93 5.49718 4.36755 0
M  V30 17614 H 1603.77 2.89073 0.723924 0
M  V30 17615 H 1601.3 1.42975 0.345919 0
M  V30 17616 H 1603.26 2.68261 3.19518 0
M  V30 17617 H 1601.89 1.61348 2.79583 0
M  V30 17618 H 1600.94 3.5556 1.35209 0
M  V30 17619 H 1602.26 4.57979 1.97628 0
M  V30 17620 H 1601.41 4.26858 4.31135 0
M  V30 17621 H 1600.15 3.14712 3.72569 0
M  V30 17622 H 1599.15 4.98044 2.32879 0
M  V30 17623 H 1600.38 6.11971 2.94396 0
M  V30 17624 H 1598.32 4.64333 4.63391 0
M  V30 17625 H 1598.24 6.30961 4.16443 0
M  V30 17626 H 1599.51 5.78057 5.22944 0
M  V30 17627 N 1603.74 -0.364395 1.53329 0
M  V30 17628 C 1605.02 -1.12265 1.60174 0
M  V30 17629 C 1605.4 -2.0708 0.410015 0
M  V30 17630 O 1604.74 -2.20492 -0.599631 0
M  V30 17631 C 1604.95 -1.86071 2.9526 0
M  V30 17632 C 1606.3 -2.40562 3.49879 0
M  V30 17633 O 1607.33 -1.96196 2.97297 0
M  V30 17634 O 1606.18 -3.2167 4.41804 0
M  V30 17635 H 1603.28 -0.515062 0.647024 0
M  V30 17636 H 1605.82 -0.367563 1.65672 0
M  V30 17637 H 1604.6 -1.1688 3.73436 0
M  V30 17638 H 1604.22 -2.68486 2.93259 0
M  V30 17639 N 1605.22 -1.44709 -0.62426 0
M  V30 17640 C 1606.15 -1.54934 -1.74693 0
M  V30 17641 C 1607.13 -0.401897 -1.65284 0
M  V30 17642 O 1608.31 -0.622906 -1.83939 0
M  V30 17643 C 1605.44 -1.49976 -3.13248 0
M  V30 17644 C 1604.4 -2.63267 -3.37453 0
M  V30 17645 C 1603.72 -2.43362 -4.76108 0
M  V30 17646 C 1605.02 -4.0538 -3.2934 0
M  V30 17647 H 1606.72 -2.48905 -1.66393 0
M  V30 17648 H 1604.26 -1.19794 -0.799088 0
M  V30 17649 H 1606.22 -1.55729 -3.91569 0
M  V30 17650 H 1604.94 -0.525254 -3.22349 0
M  V30 17651 H 1603.6 -2.56915 -2.61515 0
M  V30 17652 H 1603.25 -1.44088 -4.81921 0
M  V30 17653 H 1602.95 -3.19324 -4.93261 0
M  V30 17654 H 1604.47 -2.50943 -5.56651 0
M  V30 17655 H 1605.88 -4.13064 -3.97556 0
M  V30 17656 H 1604.28 -4.81599 -3.58025 0
M  V30 17657 H 1605.35 -4.28465 -2.27038 0
M  V30 17658 N 1606.69 0.865285 -1.31722 0
M  V30 17659 C 1607.92 1.64897 -1.24469 0
M  V30 17660 C 1608.33 1.88228 0.191553 0
M  V30 17661 O 1607.68 1.44396 1.13559 0
M  V30 17662 C 1607.74 3.0371 -1.92355 0
M  V30 17663 C 1607.4 3.03468 -3.41696 0
M  V30 17664 C 1608.4 2.81086 -4.37364 0
M  V30 17665 C 1606.08 3.2444 -3.83463 0
M  V30 17666 C 1608.08 2.79663 -5.72772 0
M  V30 17667 C 1605.76 3.22645 -5.18983 0
M  V30 17668 C 1606.76 3.00284 -6.13448 0
M  V30 17669 O 1606.45 2.98342 -7.4649 0
M  V30 17670 H 1606.18 0.520681 -0.431124 0
M  V30 17671 H 1608.74 1.08795 -1.74221 0
M  V30 17672 H 1606.97 3.61558 -1.37159 0
M  V30 17673 H 1608.66 3.64321 -1.78955 0
M  V30 17674 H 1609.42 2.6466 -4.06423 0
M  V30 17675 H 1605.3 3.40874 -3.10364 0
M  V30 17676 H 1608.84 2.62128 -6.46479 0
M  V30 17677 H 1604.74 3.38612 -5.49556 0
M  V30 17678 H 1605.51 3.14371 -7.5572 0
M  V30 17679 N 1608.17 1.14759 1.0802 0
M  V30 17680 C 1609.45 0.828957 1.77166 0
M  V30 17681 C 1609.83 -0.676783 1.99957 0
M  V30 17682 O 1609.18 -1.61891 1.61256 0
M  V30 17683 C 1609.39 1.63213 3.08484 0
M  V30 17684 C 1610.74 1.834 3.82948 0
M  V30 17685 O 1611.76 1.59932 3.18277 0
M  V30 17686 O 1610.62 2.22661 4.99083 0
M  V30 17687 H 1607.71 0.304168 0.769032 0
M  V30 17688 H 1610.26 1.253 1.14446 0
M  V30 17689 H 1609.03 2.65474 2.8747 0
M  V30 17690 H 1608.65 1.20397 3.78933 0
M  V30 17691 N 1609.65 -1.26251 0.943322 0
M  V30 17692 C 1610.6 -2.28295 0.445441 0
M  V30 17693 C 1611.59 -1.62504 -0.478401 0
M  V30 17694 O 1612.8 -1.76437 -0.356378 0
M  V30 17695 H 1609.17 -0.741451 0.125517 0
M  V30 17696 H 1611.14 -2.67687 1.31858 0
M  V30 17697 C 1609.89 -3.46635 -0.271987 0
M  V30 17698 H 1609.22 -3.97484 0.429734 0
M  V30 17699 H 1610.66 -4.19951 -0.584544 0
M  V30 17700 C 1609.12 -3.02133 -1.49054 0
M  V30 17701 O 1609.65 -3.07158 -2.58876 0
M  V30 17702 N 1607.85 -2.57451 -1.34787 0
M  V30 17703 H 1607.4 -2.53562 -0.454347 0
M  V30 17704 H 1607.36 -2.28039 -2.16438 0
M  V30 17705 N 1611.13 -0.710588 -1.40671 0
M  V30 17706 C 1612.06 -0.0154749 -2.29195 0
M  V30 17707 C 1613.07 0.728938 -1.45569 0
M  V30 17708 O 1614.26 0.577147 -1.68912 0
M  V30 17709 C 1611.36 1.00232 -3.23739 0
M  V30 17710 C 1610.54 0.324464 -4.36195 0
M  V30 17711 C 1609.6 1.24695 -5.11212 0
M  V30 17712 O 1608.62 0.733634 -5.64452 0
M  V30 17713 N 1609.82 2.57841 -5.20094 0
M  V30 17714 H 1612.59 -0.775543 -2.89492 0
M  V30 17715 H 1610.15 -0.557815 -1.51987 0
M  V30 17716 H 1612.14 1.62151 -3.70795 0
M  V30 17717 H 1610.71 1.66379 -2.64644 0
M  V30 17718 H 1609.93 -0.474847 -3.9133 0
M  V30 17719 H 1611.22 -0.146269 -5.0859 0
M  V30 17720 H 1610.62 3.02047 -4.78314 0
M  V30 17721 H 1609.17 3.14917 -5.70676 0
M  V30 17722 N 1612.61 1.50847 -0.456408 0
M  V30 17723 C 1613.83 2.07139 0.104054 0
M  V30 17724 C 1614.26 1.31966 1.34039 0
M  V30 17725 O 1613.62 0.363038 1.77628 0
M  V30 17726 C 1613.66 3.5853 0.385794 0
M  V30 17727 O 1612.77 3.85351 1.46895 0
M  V30 17728 H 1612.11 0.663968 -0.00651246 0
M  V30 17729 H 1614.64 1.94226 -0.64323 0
M  V30 17730 H 1614.65 4.03097 0.630644 0
M  V30 17731 H 1613.32 4.12665 -0.51773 0
M  V30 17732 H 1611.9 3.52635 1.21256 0
M  V30 17733 N 1614.09 0.188454 1.56469 0
M  V30 17734 C 1615.03 -0.751822 2.20115 0
M  V30 17735 C 1616.03 -1.22476 1.1703 0
M  V30 17736 O 1617.23 -1.18843 1.3519 0
M  V30 17737 H 1613.61 -0.260778 0.705336 0
M  V30 17738 H 1615.58 -0.191249 2.97786 0
M  V30 17739 C 1614.33 -1.96365 2.86943 0
M  V30 17740 H 1613.65 -1.60879 3.66003 0
M  V30 17741 H 1615.09 -2.60007 3.34921 0
M  V30 17742 C 1613.55 -2.7982 1.87623 0
M  V30 17743 O 1614.08 -3.7753 1.37237 0
M  V30 17744 N 1612.29 -2.45179 1.55999 0
M  V30 17745 H 1611.83 -1.6578 1.97167 0
M  V30 17746 H 1611.79 -3.01302 0.898012 0
M  V30 17747 N 1615.56 -1.5737 -0.0851874 0
M  V30 17748 C 1616.79 -1.91183 -0.803983 0
M  V30 17749 C 1617.21 -0.78365 -1.70999 0
M  V30 17750 O 1616.57 0.264266 -1.79364 0
M  V30 17751 C 1616.62 -3.239 -1.58496 0
M  V30 17752 O 1615.72 -3.12189 -2.69466 0
M  V30 17753 H 1615.06 -0.626413 -0.220233 0
M  V30 17754 H 1617.59 -2.04519 -0.0574426 0
M  V30 17755 H 1617.6 -3.5745 -1.96707 0
M  V30 17756 H 1616.28 -4.05594 -0.920111 0
M  V30 17757 H 1614.86 -2.90173 -2.3421 0
M  V30 17758 N 1617.04 0.356258 -1.53521 0
M  V30 17759 C 1618.29 1.09573 -1.69818 0
M  V30 17760 C 1618.61 1.89559 -0.457406 0
M  V30 17761 O 1617.88 1.88633 0.528616 0
M  V30 17762 H 1616.46 0.407512 -0.626054 0
M  V30 17763 H 1619.12 0.400612 -1.90738 0
M  V30 17764 H 1618.22 1.7803 -2.56343 0
M  V30 17765 N 1618.52 1.45038 0.616577 0
M  V30 17766 C 1619.77 1.47861 1.37186 0
M  V30 17767 C 1620.08 0.120862 1.95226 0
M  V30 17768 O 1621.29 0.0266872 2.71487 0
M  V30 17769 C 1619.74 2.6038 2.48455 0
M  V30 17770 C 1619.35 4.02428 1.96866 0
M  V30 17771 C 1621.1 2.7244 3.25541 0
M  V30 17772 C 1619 5.06345 3.05563 0
M  V30 17773 H 1617.93 0.550166 0.51559 0
M  V30 17774 H 1620.58 1.71151 0.661796 0
M  V30 17775 H 1618.97 2.30357 3.22105 0
M  V30 17776 H 1620.14 4.42087 1.29985 0
M  V30 17777 H 1618.45 3.94739 1.32552 0
M  V30 17778 H 1621.05 3.47248 4.06599 0
M  V30 17779 H 1621.39 1.7876 3.75966 0
M  V30 17780 H 1621.93 3.01944 2.58988 0
M  V30 17781 H 1618.67 6.01703 2.60065 0
M  V30 17782 H 1618.19 4.71264 3.7104 0
M  V30 17783 H 1619.87 5.30695 3.70097 0
M  V30 17784 N 1620 -0.858287 1.32179 0
M  V30 17785 C 1620.93 -1.98219 1.23415 0
M  V30 17786 C 1621.91 -1.69685 0.118779 0
M  V30 17787 O 1623.09 -1.91785 0.305342 0
M  V30 17788 C 1620.22 -3.33977 0.952725 0
M  V30 17789 C 1619.18 -3.76853 2.02894 0
M  V30 17790 C 1618.5 -5.10201 1.59999 0
M  V30 17791 C 1619.8 -3.92707 3.44352 0
M  V30 17792 H 1621.5 -2.05809 2.17446 0
M  V30 17793 H 1619.04 -0.988817 1.04682 0
M  V30 17794 H 1621 -4.12152 0.87798 0
M  V30 17795 H 1619.72 -3.26592 -0.023234 0
M  V30 17796 H 1618.38 -3.00926 2.09378 0
M  V30 17797 H 1618.03 -4.99268 0.61157 0
M  V30 17798 H 1617.73 -5.39859 2.32004 0
M  V30 17799 H 1619.25 -5.90873 1.53954 0
M  V30 17800 H 1620.67 -4.61246 3.40477 0
M  V30 17801 H 1619.06 -4.33779 4.14675 0
M  V30 17802 H 1620.13 -2.95731 3.8428 0
M  V30 17803 N 1621.48 -1.1533 -1.07409 0
M  V30 17804 C 1622.42 -0.849527 -2.14597 0
M  V30 17805 C 1623.39 0.197288 -1.64924 0
M  V30 17806 O 1624.58 0.0649694 -1.90689 0
M  V30 17807 C 1621.72 -0.344327 -3.43378 0
M  V30 17808 C 1620.83 -1.45264 -4.06844 0
M  V30 17809 C 1619.97 -0.90363 -5.23458 0
M  V30 17810 C 1619 -1.98892 -5.78885 0
M  V30 17811 N 1618.14 -1.45633 -6.8683 0
M  V30 17812 H 1622.98 -1.76753 -2.39922 0
M  V30 17813 H 1620.52 -0.881942 -1.17729 0
M  V30 17814 H 1622.48 -0.0331352 -4.17187 0
M  V30 17815 H 1621.11 0.536757 -3.18306 0
M  V30 17816 H 1620.16 -1.88003 -3.30695 0
M  V30 17817 H 1621.47 -2.27207 -4.44048 0
M  V30 17818 H 1620.62 -0.544945 -6.04248 0
M  V30 17819 H 1619.36 -0.0533648 -4.87671 0
M  V30 17820 H 1618.37 -2.35644 -4.96741 0
M  V30 17821 H 1619.59 -2.84295 -6.16728 0
M  V30 17822 H 1617.54 -0.628417 -6.52983 0
M  V30 17823 H 1617.46 -2.21204 -7.22914 0
M  V30 17824 H 1618.72 -1.12587 -7.71326 0
M  V30 17825 N 1622.95 1.25748 -0.950004 0
M  V30 17826 C 1624.23 1.88566 -0.519839 0
M  V30 17827 C 1624.61 1.85761 1.00279 0
M  V30 17828 O 1623.96 1.31797 1.8666 0
M  V30 17829 C 1624.17 3.31502 -1.09121 0
M  V30 17830 C 1625.52 4.08298 -1.16524 0
M  V30 17831 O 1626.54 3.40605 -1.04243 0
M  V30 17832 O 1625.4 5.29375 -1.35735 0
M  V30 17833 H 1622.49 0.809175 -0.170777 0
M  V30 17834 H 1625.04 1.33853 -1.04314 0
M  V30 17835 H 1623.81 3.2795 -2.13458 0
M  V30 17836 H 1623.43 3.93765 -0.550881 0
M  V30 17837 N 1624.43 0.718038 1.40292 0
M  V30 17838 C 1625.68 0.258603 2.00842 0
M  V30 17839 C 1626.01 -1.14894 1.56938 0
M  V30 17840 O 1625.26 -1.79414 0.781606 0
M  V30 17841 C 1625.56 0.289374 3.56227 0
M  V30 17842 C 1625.23 1.64756 4.19722 0
M  V30 17843 C 1623.89 2.01934 4.36779 0
M  V30 17844 C 1626.24 2.54008 4.55115 0
M  V30 17845 C 1623.57 3.27905 4.86513 0
M  V30 17846 C 1625.92 3.79334 5.06249 0
M  V30 17847 C 1624.58 4.16626 5.21516 0
M  V30 17848 H 1623.85 0.0946296 0.734933 0
M  V30 17849 H 1626.5 0.921552 1.67868 0
M  V30 17850 H 1624.81 -0.457147 3.89124 0
M  V30 17851 H 1626.5 -0.0839832 4.00912 0
M  V30 17852 H 1623.09 1.34846 4.06835 0
M  V30 17853 H 1627.28 2.2656 4.4157 0
M  V30 17854 H 1622.53 3.56763 4.96518 0
M  V30 17855 H 1626.71 4.48663 5.32611 0
M  V30 17856 H 1624.33 5.14306 5.59815 0
M  V30 17857 N 1625.91 -1.50602 0.464402 0
M  V30 17858 C 1627.16 -2.03222 -0.0851766 0
M  V30 17859 C 1627.51 -1.34062 -1.38004 0
M  V30 17860 O 1626.8 -0.455266 -1.86113 0
M  V30 17861 C 1627 -3.55859 -0.331507 0
M  V30 17862 C 1626.83 -4.3981 0.937934 0
M  V30 17863 C 1625.6 -4.83161 1.47931 0
M  V30 17864 C 1627.8 -4.80583 1.83152 0
M  V30 17865 N 1625.78 -5.51412 2.69847 0
M  V30 17866 C 1627.15 -5.48177 2.89659 0
M  V30 17867 C 1629.2 -4.62546 1.8427 0
M  V30 17868 C 1627.91 -5.99645 3.97264 0
M  V30 17869 C 1629.93 -5.1495 2.90828 0
M  V30 17870 C 1629.29 -5.82513 3.96053 0
M  V30 17871 H 1625.39 -0.781952 0.00868889 0
M  V30 17872 H 1627.98 -1.84187 0.631117 0
M  V30 17873 H 1626.15 -3.74853 -1.01684 0
M  V30 17874 H 1627.88 -3.95131 -0.874835 0
M  V30 17875 H 1624.64 -4.62277 1.02943 0
M  V30 17876 H 1625.06 -5.90149 3.31743 0
M  V30 17877 H 1629.7 -4.09749 1.04238 0
M  V30 17878 H 1627.42 -6.51483 4.78117 0
M  V30 17879 H 1631.01 -5.02829 2.92668 0
M  V30 17880 H 1629.89 -6.22332 4.7715 0
M  V30 17881 N 1627.39 -0.19675 -1.56367 0
M  V30 17882 C 1628.64 0.440711 -1.97236 0
M  V30 17883 C 1628.96 1.62037 -1.08485 0
M  V30 17884 O 1628.23 1.95274 -0.156483 0
M  V30 17885 H 1626.81 0.16581 -0.728365 0
M  V30 17886 H 1629.47 -0.283867 -1.92822 0
M  V30 17887 H 1628.57 0.783731 -3.02099 0
M  V30 17888 N 1628.87 1.57413 0.0768405 0
M  V30 17889 C 1630.14 1.78056 0.809663 0
M  V30 17890 C 1630.52 0.783053 1.9604 0
M  V30 17891 O 1629.87 -0.184836 2.27751 0
M  V30 17892 C 1630.08 3.24391 1.2873 0
M  V30 17893 C 1631.43 3.88082 1.72272 0
M  V30 17894 O 1632.45 3.28251 1.38309 0
M  V30 17895 O 1631.31 4.93329 2.35135 0
M  V30 17896 H 1628.41 0.730553 0.387584 0
M  V30 17897 H 1630.95 1.69603 0.057307 0
M  V30 17898 H 1629.72 3.88543 0.463678 0
M  V30 17899 H 1629.35 3.37548 2.10112 0
M  V30 17900 N 1630.34 -0.348112 1.53707 0
M  V30 17901 C 1631.57 -1.10742 1.74412 0
M  V30 17902 C 1631.98 -1.82982 0.481049 0
M  V30 17903 O 1631.33 -1.7506 -0.556759 0
M  V30 17904 C 1631.39 -2.16911 2.86687 0
M  V30 17905 C 1631.05 -1.64286 4.26449 0
M  V30 17906 C 1632.05 -1.09761 5.08182 0
M  V30 17907 C 1629.73 -1.69271 4.72919 0
M  V30 17908 C 1631.73 -0.609186 6.34482 0
M  V30 17909 C 1629.41 -1.20041 5.99194 0
M  V30 17910 C 1630.41 -0.659566 6.79808 0
M  V30 17911 O 1630.1 -0.174591 8.0371 0
M  V30 17912 H 1629.83 -0.336313 0.586404 0
M  V30 17913 H 1632.39 -0.407502 2.01317 0
M  V30 17914 H 1630.62 -2.90449 2.55297 0
M  V30 17915 H 1632.31 -2.78371 2.95405 0
M  V30 17916 H 1633.07 -1.05235 4.73445 0
M  V30 17917 H 1628.95 -2.10308 4.10234 0
M  V30 17918 H 1632.49 -0.186374 6.97351 0
M  V30 17919 H 1628.39 -1.24265 6.33426 0
M  V30 17920 H 1629.16 -0.292303 8.17978 0
M  V30 17921 N 1631.82 -1.45363 -0.608876 0
M  V30 17922 C 1632.75 -1.56778 -1.7304 0
M  V30 17923 C 1633.73 -0.419405 -1.64848 0
M  V30 17924 O 1634.92 -0.64238 -1.83268 0
M  V30 17925 C 1632.05 -1.5329 -3.1164 0
M  V30 17926 C 1631 -2.66832 -3.34641 0
M  V30 17927 C 1630.33 -2.48398 -4.735 0
M  V30 17928 C 1631.63 -4.0885 -3.25021 0
M  V30 17929 H 1633.32 -2.50656 -1.63743 0
M  V30 17930 H 1630.87 -1.20635 -0.786338 0
M  V30 17931 H 1632.82 -1.59873 -3.89895 0
M  V30 17932 H 1631.55 -0.559414 -3.21773 0
M  V30 17933 H 1630.2 -2.59675 -2.58775 0
M  V30 17934 H 1629.85 -1.49191 -4.80366 0
M  V30 17935 H 1629.55 -3.24537 -4.89846 0
M  V30 17936 H 1631.08 -2.56833 -5.53958 0
M  V30 17937 H 1632.49 -4.17257 -3.93153 0
M  V30 17938 H 1630.89 -4.85369 -3.52897 0
M  V30 17939 H 1631.96 -4.30849 -2.2248 0
M  V30 17940 N 1633.3 0.851265 -1.32632 0
M  V30 17941 C 1634.23 1.96682 -1.17681 0
M  V30 17942 C 1635.25 1.62422 -0.110926 0
M  V30 17943 O 1636.43 1.74828 -0.360202 0
M  V30 17944 C 1633.53 3.29806 -0.779838 0
M  V30 17945 C 1632.71 3.92284 -1.93473 0
M  V30 17946 C 1631.77 5.03745 -1.52075 0
M  V30 17947 O 1630.79 5.23558 -2.23328 0
M  V30 17948 N 1631.99 5.78988 -0.418695 0
M  V30 17949 H 1634.76 2.10049 -2.13775 0
M  V30 17950 H 1632.32 1.02631 -1.25214 0
M  V30 17951 H 1634.31 4.0178 -0.485236 0
M  V30 17952 H 1632.88 3.1247 0.0900498 0
M  V30 17953 H 1632.1 3.13054 -2.39564 0
M  V30 17954 H 1633.39 4.30762 -2.7078 0
M  V30 17955 H 1632.79 5.65432 0.174269 0
M  V30 17956 H 1631.35 6.51541 -0.183714 0
M  V30 17957 N 1634.78 1.15898 1.06796 0
M  V30 17958 C 1636.01 0.959978 1.82943 0
M  V30 17959 C 1636.42 -0.495084 1.82608 0
M  V30 17960 O 1635.76 -1.35528 1.24008 0
M  V30 17961 C 1635.82 1.40408 3.30947 0
M  V30 17962 C 1635.49 2.87801 3.54993 0
M  V30 17963 C 1636.48 3.85834 3.48465 0
M  V30 17964 C 1634.17 3.25601 3.82478 0
M  V30 17965 C 1636.16 5.19672 3.6908 0
M  V30 17966 C 1633.85 4.59609 4.02744 0
M  V30 17967 C 1634.85 5.56454 3.96041 0
M  V30 17968 O 1634.53 6.8804 4.1576 0
M  V30 17969 H 1634.27 0.340717 0.583856 0
M  V30 17970 H 1636.82 1.54211 1.35677 0
M  V30 17971 H 1635.05 0.765395 3.7905 0
M  V30 17972 H 1636.74 1.1733 3.88572 0
M  V30 17973 H 1637.51 3.57977 3.27227 0
M  V30 17974 H 1633.38 2.50803 3.86806 0
M  V30 17975 H 1636.93 5.95249 3.63764 0
M  V30 17976 H 1632.83 4.8718 4.23469 0
M  V30 17977 H 1633.59 6.94541 4.33076 0
M  V30 17978 N 1636.26 -1.25243 0.956659 0
M  V30 17979 C 1637.53 -1.88287 0.529832 0
M  V30 17980 C 1637.91 -1.8629 -0.992929 0
M  V30 17981 O 1637.26 -1.32785 -1.85958 0
M  V30 17982 C 1637.47 -3.30919 1.10877 0
M  V30 17983 C 1638.82 -4.07674 1.18687 0
M  V30 17984 O 1639.84 -3.40048 1.06047 0
M  V30 17985 O 1638.7 -5.28648 1.38541 0
M  V30 17986 H 1635.8 -0.808258 0.175066 0
M  V30 17987 H 1638.34 -1.33298 1.05022 0
M  V30 17988 H 1637.11 -3.26813 2.15195 0
M  V30 17989 H 1636.74 -3.93468 0.571755 0
M  V30 17990 N 1637.73 -0.725468 -1.3991 0
M  V30 17991 C 1638.68 -0.0792833 -2.30664 0
M  V30 17992 C 1639.65 0.73984 -1.48713 0
M  V30 17993 O 1640.84 0.701762 -1.77426 0
M  V30 17994 C 1637.98 0.829164 -3.34991 0
M  V30 17995 C 1637.09 -0.00154779 -4.32 0
M  V30 17996 C 1636.22 0.907291 -5.23394 0
M  V30 17997 C 1635.26 0.0712573 -6.12059 0
M  V30 17998 N 1634.4 0.935508 -6.9584 0
M  V30 17999 H 1639.24 -0.858869 -2.85355 0
M  V30 18000 H 1636.78 -0.435214 -1.40514 0
M  V30 18001 H 1638.74 1.37021 -3.94057 0
M  V30 18002 H 1637.37 1.57483 -2.81778 0
M  V30 18003 H 1636.42 -0.659903 -3.74632 0
M  V30 18004 H 1637.73 -0.648387 -4.94568 0
M  V30 18005 H 1636.88 1.51652 -5.87441 0
M  V30 18006 H 1635.62 1.58793 -4.61125 0
M  V30 18007 H 1634.63 -0.550844 -5.47034 0
M  V30 18008 H 1635.85 -0.606025 -6.76391 0
M  V30 18009 H 1633.8 1.60162 -6.36148 0
M  V30 18010 H 1633.72 0.344932 -7.55213 0
M  V30 18011 H 1634.98 1.53061 -7.64325 0
M  V30 18012 N 1639.21 1.50354 -0.472382 0
M  V30 18013 C 1640.62 1.86692 -0.0175768 0
M  V30 18014 C 1640.97 1.38708 1.3876 0
M  V30 18015 O 1640.1 0.752614 2.02891 0
M  V30 18016 C 1640.69 3.38791 -0.0251205 0
M  V30 18017 C 1639.25 3.74535 0.37422 0
M  V30 18018 C 1638.4 2.74252 -0.410045 0
M  V30 18019 H 1641.35 1.43079 -0.686593 0
M  V30 18020 H 1641.37 3.72487 0.776754 0
M  V30 18021 H 1640.88 3.73684 -1.04795 0
M  V30 18022 H 1638.99 3.45243 1.40135 0
M  V30 18023 H 1639.1 4.79042 0.0746666 0
M  V30 18024 H 1637.46 2.54334 0.136417 0
M  V30 18025 H 1638.25 3.11989 -1.43241 0
M  V30 18026 N 1640.69 0.205039 1.56261 0
M  V30 18027 C 1641.92 -0.435787 2.01952 0
M  V30 18028 C 1642.33 -1.55048 1.08428 0
M  V30 18029 O 1641.67 -1.83512 0.0831276 0
M  V30 18030 C 1641.73 -1.04359 3.4402 0
M  V30 18031 C 1641.4 -0.0663955 4.56952 0
M  V30 18032 C 1642.4 0.727909 5.14779 0
M  V30 18033 C 1640.08 0.0475718 5.02277 0
M  V30 18034 C 1642.07 1.62305 6.16389 0
M  V30 18035 C 1639.76 0.94626 6.03729 0
M  V30 18036 C 1640.76 1.73256 6.6066 0
M  V30 18037 O 1640.45 2.61617 7.60139 0
M  V30 18038 H 1640.18 -0.112721 0.666536 0
M  V30 18039 H 1642.73 0.313993 2.02986 0
M  V30 18040 H 1640.96 -1.84215 3.40003 0
M  V30 18041 H 1642.65 -1.5901 3.73458 0
M  V30 18042 H 1643.42 0.65022 4.80622 0
M  V30 18043 H 1639.3 -0.554295 4.57656 0
M  V30 18044 H 1642.84 2.23722 6.60753 0
M  V30 18045 H 1638.74 1.02503 6.3731 0
M  V30 18046 H 1639.51 2.55507 7.77598 0
M  V30 18047 N 1642.17 -1.57451 -0.0684915 0
M  V30 18048 C 1643.4 -1.91362 -0.778724 0
M  V30 18049 C 1643.81 -0.799579 -1.71474 0
M  V30 18050 O 1643.15 0.235727 -1.82181 0
M  V30 18051 C 1643.21 -3.20767 -1.62323 0
M  V30 18052 C 1642.88 -4.48907 -0.85623 0
M  V30 18053 C 1643.87 -5.19609 -0.173992 0
M  V30 18054 C 1641.56 -4.95521 -0.822427 0
M  V30 18055 C 1643.55 -6.35178 0.531784 0
M  V30 18056 C 1641.24 -6.10996 -0.11288 0
M  V30 18057 C 1642.24 -6.80675 0.563022 0
M  V30 18058 O 1641.93 -7.93946 1.26113 0
M  V30 18059 H 1641.66 -0.636969 -0.226376 0
M  V30 18060 H 1644.21 -2.05357 -0.0420481 0
M  V30 18061 H 1642.44 -3.0299 -2.40279 0
M  V30 18062 H 1644.13 -3.40303 -2.21244 0
M  V30 18063 H 1644.9 -4.84622 -0.191393 0
M  V30 18064 H 1640.78 -4.41156 -1.33798 0
M  V30 18065 H 1644.32 -6.89501 1.05991 0
M  V30 18066 H 1640.22 -6.45432 -0.0934182 0
M  V30 18067 H 1640.98 -8.10084 1.17074 0
M  V30 18068 N 1643.65 0.339955 -1.5389 0
M  V30 18069 C 1644.58 1.44096 -1.76951 0
M  V30 18070 C 1645.56 1.50367 -0.618758 0
M  V30 18071 O 1646.74 1.68028 -0.854329 0
M  V30 18072 C 1643.87 2.82307 -1.87137 0
M  V30 18073 C 1642.92 2.93645 -3.09314 0
M  V30 18074 S 1643.75 2.59742 -4.68288 0
M  V30 18075 C 1644.9 4.00055 -4.81359 0
M  V30 18076 H 1645.14 1.24318 -2.7006 0
M  V30 18077 H 1642.67 0.535835 -1.44804 0
M  V30 18078 H 1644.63 3.61931 -1.93692 0
M  V30 18079 H 1643.29 2.99378 -0.950349 0
M  V30 18080 H 1642.48 3.94927 -3.13127 0
M  V30 18081 H 1642.08 2.21974 -3.01004 0
M  V30 18082 H 1644.38 4.94619 -4.62989 0
M  V30 18083 H 1645.32 4.01234 -5.83452 0
M  V30 18084 H 1645.73 3.88248 -4.09785 0
M  V30 18085 N 1645.13 1.45684 0.601159 0
M  V30 18086 C 1646.06 1.57694 1.72206 0
M  V30 18087 C 1647.04 0.428141 1.64624 0
M  V30 18088 O 1648.22 0.65209 1.82925 0
M  V30 18089 C 1645.35 1.54941 3.10822 0
M  V30 18090 C 1644.31 2.68603 3.33222 0
M  V30 18091 C 1643.63 2.50906 4.72176 0
M  V30 18092 C 1644.93 4.10568 3.22849 0
M  V30 18093 H 1646.63 2.51521 1.62412 0
M  V30 18094 H 1644.17 1.2105 0.779929 0
M  V30 18095 H 1646.12 1.61939 3.89042 0
M  V30 18096 H 1644.85 0.576471 3.21472 0
M  V30 18097 H 1643.51 2.61043 2.57394 0
M  V30 18098 H 1643.16 1.51736 4.79568 0
M  V30 18099 H 1642.86 3.27131 4.88118 0
M  V30 18100 H 1644.38 2.59767 5.52588 0
M  V30 18101 H 1645.79 4.19336 3.90935 0
M  V30 18102 H 1644.19 4.87234 3.50318 0
M  V30 18103 H 1645.26 4.32022 2.20192 0
M  V30 18104 N 1646.6 -0.84422 1.33082 0
M  V30 18105 C 1647.55 -1.97504 1.22862 0
M  V30 18106 C 1648.55 -1.68892 0.131141 0
M  V30 18107 O 1649.75 -1.7757 0.294753 0
M  V30 18108 H 1646.13 -0.648263 0.381129 0
M  V30 18109 H 1648.1 -2.03249 2.18478 0
M  V30 18110 C 1646.85 -3.33626 0.979228 0
M  V30 18111 H 1646.17 -3.56178 1.81596 0
M  V30 18112 H 1647.61 -4.13266 0.948007 0
M  V30 18113 C 1646.07 -3.35397 -0.317922 0
M  V30 18114 O 1646.6 -3.7917 -1.32638 0
M  V30 18115 N 1644.8 -2.88562 -0.343577 0
M  V30 18116 H 1644.35 -2.53133 0.477625 0
M  V30 18117 H 1644.31 -2.90129 -1.21131 0
M  V30 18118 N 1648.08 -1.16463 -1.0618 0
M  V30 18119 C 1649.01 -0.895399 -2.1565 0
M  V30 18120 C 1649.99 0.158729 -1.69358 0
M  V30 18121 O 1651.18 0.010586 -1.94197 0
M  V30 18122 C 1648.31 -0.396959 -3.45024 0
M  V30 18123 C 1647.26 -1.38913 -4.0483 0
M  V30 18124 C 1646.59 -0.749043 -5.29427 0
M  V30 18125 C 1647.89 -2.7591 -4.43476 0
M  V30 18126 H 1649.58 -1.81085 -2.38429 0
M  V30 18127 H 1647.13 -0.872098 -1.14588 0
M  V30 18128 H 1649.08 -0.196086 -4.20944 0
M  V30 18129 H 1647.8 0.554002 -3.21867 0
M  V30 18130 H 1646.46 -1.57657 -3.30968 0
M  V30 18131 H 1646.11 0.208439 -5.02568 0
M  V30 18132 H 1645.81 -1.41128 -5.704 0
M  V30 18133 H 1647.34 -0.558217 -6.08043 0
M  V30 18134 H 1648.75 -2.60942 -5.10473 0
M  V30 18135 H 1647.15 -3.38618 -4.95437 0
M  V30 18136 H 1648.22 -3.31076 -3.54284 0
M  V30 18137 N 1649.56 1.24734 -0.963288 0
M  V30 18138 C 1650.79 1.9646 -0.639305 0
M  V30 18139 C 1651.2 1.71708 0.794553 0
M  V30 18140 O 1650.54 0.995015 1.54419 0
M  V30 18141 C 1650.6 3.49818 -0.828696 0
M  V30 18142 C 1650.27 3.98262 -2.24135 0
M  V30 18143 C 1651.26 4.08281 -3.21874 0
M  V30 18144 C 1648.95 4.31701 -2.56786 0
M  V30 18145 C 1650.94 4.51067 -4.50352 0
M  V30 18146 C 1648.63 4.74172 -3.85492 0
M  V30 18147 C 1649.63 4.83819 -4.82087 0
M  V30 18148 O 1649.32 5.25344 -6.08497 0
M  V30 18149 H 1649.05 0.63276 -0.237888 0
M  V30 18150 H 1651.6 1.59635 -1.29251 0
M  V30 18151 H 1649.83 3.86519 -0.118332 0
M  V30 18152 H 1651.52 4.02753 -0.504465 0
M  V30 18153 H 1652.29 3.82668 -2.97976 0
M  V30 18154 H 1648.17 4.23414 -1.82323 0
M  V30 18155 H 1651.71 4.58512 -5.2575 0
M  V30 18156 H 1647.61 4.99231 -4.09192 0
M  V30 18157 H 1648.37 5.43506 -6.12 0
M  V30 18158 N 1651.04 0.732878 1.39523 0
M  V30 18159 C 1652.31 0.20629 1.94509 0
M  V30 18160 C 1652.69 -1.29152 1.66982 0
M  V30 18161 O 1652.04 -2.05607 0.996895 0
M  V30 18162 C 1652.25 0.537619 3.44834 0
M  V30 18163 C 1653.6 0.485787 4.21812 0
M  V30 18164 O 1654.62 0.474686 3.53023 0
M  V30 18165 O 1653.48 0.478457 5.44402 0
M  V30 18166 H 1650.58 0.0369228 0.826175 0
M  V30 18167 H 1653.12 0.811591 1.49035 0
M  V30 18168 H 1651.9 1.57289 3.58296 0
M  V30 18169 H 1651.52 -0.0967601 3.97482 0
M  V30 18170 N 1652.52 -1.50101 0.480349 0
M  V30 18171 C 1653.93 -1.8668 0.0274773 0
M  V30 18172 C 1654.28 -1.39442 -1.38023 0
M  V30 18173 O 1653.4 -0.763363 -2.02489 0
M  V30 18174 C 1654 -3.38773 0.043087 0
M  V30 18175 C 1652.56 -3.74728 -0.354352 0
M  V30 18176 C 1651.7 -2.7403 0.424583 0
M  V30 18177 H 1654.65 -1.42713 0.694172 0
M  V30 18178 H 1654.68 -3.72894 -0.756989 0
M  V30 18179 H 1654.19 -3.73123 1.06775 0
M  V30 18180 H 1652.29 -3.45981 -1.38303 0
M  V30 18181 H 1652.4 -4.79075 -0.0492608 0
M  V30 18182 H 1650.77 -2.54403 -0.122927 0
M  V30 18183 H 1651.55 -3.11225 1.44894 0
M  V30 18184 N 1653.99 -0.213323 -1.5615 0
M  V30 18185 C 1654.94 0.716708 -2.21283 0
M  V30 18186 C 1655.94 1.20599 -1.18963 0
M  V30 18187 O 1657.14 1.16677 -1.37064 0
M  V30 18188 H 1653.52 0.249524 -0.709395 0
M  V30 18189 H 1655.49 0.14385 -2.98053 0
M  V30 18190 C 1654.24 1.91775 -2.9003 0
M  V30 18191 H 1653.56 1.55036 -3.68516 0
M  V30 18192 H 1655 2.54646 -3.39016 0
M  V30 18193 C 1653.46 2.768 -1.92051 0
M  V30 18194 O 1653.99 3.75299 -1.43225 0
M  V30 18195 N 1652.19 2.42666 -1.5988 0
M  V30 18196 H 1651.74 1.62622 -1.99779 0
M  V30 18197 H 1651.7 2.99836 -0.945833 0
M  V30 18198 N 1655.47 1.57485 0.0601405 0
M  V30 18199 C 1656.42 2.04487 1.07023 0
M  V30 18200 C 1657.39 0.927738 1.37776 0
M  V30 18201 O 1658.57 1.19621 1.48645 0
M  V30 18202 C 1655.71 2.50338 2.37539 0
M  V30 18203 C 1654.83 3.75717 2.13215 0
M  V30 18204 C 1653.96 4.10304 3.37378 0
M  V30 18205 C 1653 5.2869 3.0847 0
M  V30 18206 N 1652.14 5.58858 4.24996 0
M  V30 18207 H 1656.98 2.90544 0.662444 0
M  V30 18208 H 1654.52 1.43676 0.315515 0
M  V30 18209 H 1656.47 2.74978 3.13756 0
M  V30 18210 H 1655.1 1.67242 2.76098 0
M  V30 18211 H 1654.16 3.58348 1.27636 0
M  V30 18212 H 1655.47 4.62068 1.87869 0
M  V30 18213 H 1654.62 4.35907 4.21983 0
M  V30 18214 H 1653.36 3.22544 3.6581 0
M  V30 18215 H 1652.37 5.02871 2.22262 0
M  V30 18216 H 1653.59 6.18077 2.81349 0
M  V30 18217 H 1651.54 4.74058 4.53437 0
M  V30 18218 H 1651.45 6.39652 4.02965 0
M  V30 18219 H 1652.72 5.89019 5.10565 0
M  V30 18220 N 1656.95 -0.331789 1.54068 0
M  V30 18221 C 1658.18 -1.08886 1.75577 0
M  V30 18222 C 1658.59 -1.82462 0.50043 0
M  V30 18223 O 1657.93 -1.7564 -0.53816 0
M  V30 18224 C 1657.99 -2.13858 2.88972 0
M  V30 18225 C 1657.66 -1.59754 4.28168 0
M  V30 18226 C 1658.65 -1.04365 5.09317 0
M  V30 18227 C 1656.34 -1.64245 4.74688 0
M  V30 18228 C 1658.33 -0.541856 6.35093 0
M  V30 18229 C 1656.02 -1.13679 6.00433 0
M  V30 18230 C 1657.02 -0.587426 6.80469 0
M  V30 18231 O 1656.71 -0.0893367 8.0385 0
M  V30 18232 H 1656.44 -0.330075 0.589938 0
M  V30 18233 H 1658.99 -0.386127 2.01738 0
M  V30 18234 H 1657.22 -2.87724 2.58363 0
M  V30 18235 H 1658.91 -2.75223 2.98341 0
M  V30 18236 H 1659.68 -1.00208 4.74535 0
M  V30 18237 H 1655.56 -2.05945 4.12441 0
M  V30 18238 H 1659.1 -0.1124 6.97509 0
M  V30 18239 H 1655 -1.1754 6.34708 0
M  V30 18240 H 1655.77 -0.205529 8.18242 0
M  V30 18241 N 1658.43 -1.46001 -0.593424 0
M  V30 18242 C 1659.67 -1.50978 -1.35401 0
M  V30 18243 C 1660.01 -0.156626 -1.93567 0
M  V30 18244 O 1659.28 0.83067 -1.7587 0
M  V30 18245 C 1659.57 -2.60005 -2.49137 0
M  V30 18246 C 1659.42 -4.04814 -1.96075 0
M  V30 18247 C 1660.74 -2.65199 -3.51223 0
M  V30 18248 H 1657.86 -0.549657 -0.490965 0
M  V30 18249 H 1660.5 -1.77883 -0.667644 0
M  V30 18250 H 1658.65 -2.37194 -3.07687 0
M  V30 18251 H 1660.32 -4.38879 -1.42066 0
M  V30 18252 H 1658.56 -4.148 -1.26976 0
M  V30 18253 H 1659.23 -4.76811 -2.78128 0
M  V30 18254 H 1661.71 -2.85675 -3.02537 0
M  V30 18255 H 1660.59 -3.43323 -4.28276 0
M  V30 18256 H 1660.85 -1.70833 -4.0776 0
M  V30 18257 N 1659.91 0.83715 -1.33527 0
M  V30 18258 C 1661.18 1.57727 -1.15678 0
M  V30 18259 C 1661.56 2.09286 0.276178 0
M  V30 18260 O 1660.91 1.89589 1.27547 0
M  V30 18261 C 1661.12 2.70978 -2.19936 0
M  V30 18262 C 1662.47 3.40114 -2.5418 0
M  V30 18263 O 1663.49 2.81221 -2.18616 0
M  V30 18264 O 1662.35 4.46431 -3.15217 0
M  V30 18265 H 1659.45 0.69545 -0.447525 0
M  V30 18266 H 1661.99 0.879756 -1.45115 0
M  V30 18267 H 1660.76 2.30532 -3.16181 0
M  V30 18268 H 1660.39 3.48393 -1.91594 0
M  V30 18269 N 1661.38 1.17024 1.05561 0
M  V30 18270 C 1662.63 0.957742 1.7876 0
M  V30 18271 C 1662.96 -0.512652 1.87311 0
M  V30 18272 O 1662.24 -1.38047 1.37016 0
M  V30 18273 C 1662.52 1.59495 3.22852 0
M  V30 18274 C 1662.37 3.13719 3.22336 0
M  V30 18275 C 1663.69 1.29576 4.20593 0
M  V30 18276 H 1660.81 0.349354 0.648938 0
M  V30 18277 H 1663.45 1.44467 1.23408 0
M  V30 18278 H 1661.6 1.18091 3.70117 0
M  V30 18279 H 1663.28 3.64156 2.83175 0
M  V30 18280 H 1661.52 3.46664 2.60781 0
M  V30 18281 H 1662.19 3.5343 4.24018 0
M  V30 18282 H 1664.67 1.65423 3.81804 0
M  V30 18283 H 1663.54 1.76751 5.19663 0
M  V30 18284 H 1663.8 0.21589 4.41573 0
M  V30 18285 N 1662.86 -1.24221 0.969889 0
M  V30 18286 C 1663.81 -2.27299 0.493765 0
M  V30 18287 C 1664.8 -1.63483 -0.443824 0
M  V30 18288 O 1666.01 -1.77153 -0.318873 0
M  V30 18289 H 1662.39 -0.738622 0.141216 0
M  V30 18290 H 1664.36 -2.6483 1.37506 0
M  V30 18291 C 1663.11 -3.47134 -0.198399 0
M  V30 18292 H 1662.43 -3.96483 0.51395 0
M  V30 18293 H 1663.87 -4.21097 -0.495334 0
M  V30 18294 C 1662.33 -3.05227 -1.42612 0
M  V30 18295 O 1662.86 -3.1258 -2.52302 0
M  V30 18296 N 1661.06 -2.60252 -1.29295 0
M  V30 18297 H 1660.61 -2.54468 -0.400461 0
M  V30 18298 H 1660.57 -2.32579 -2.11553 0
M  V30 18299 N 1664.34 -0.740267 -1.39132 0
M  V30 18300 C 1665.29 -0.0929334 -2.32414 0
M  V30 18301 C 1666.28 0.720062 -1.53334 0
M  V30 18302 O 1667.49 0.620656 -1.68961 0
M  V30 18303 H 1663.86 -0.0112531 -0.751916 0
M  V30 18304 H 1665.83 -0.895975 -2.84631 0
M  V30 18305 C 1664.58 0.796182 -3.38462 0
M  V30 18306 H 1663.91 0.17999 -3.99395 0
M  V30 18307 H 1665.35 1.21664 -4.0617 0
M  V30 18308 C 1663.81 1.93285 -2.75939 0
M  V30 18309 O 1664.34 3.02593 -2.64198 0
M  V30 18310 N 1662.54 1.72386 -2.33948 0
M  V30 18311 H 1662.09 0.834821 -2.43698 0
M  V30 18312 H 1662.05 2.48612 -1.92456 0
M  V30 18313 N 1665.82 1.49844 -0.488302 0
M  V30 18314 C 1667.06 2.02709 0.060788 0
M  V30 18315 C 1667.4 1.36828 1.37811 0
M  V30 18316 O 1666.67 0.499679 1.87972 0
M  V30 18317 C 1666.96 3.59386 0.226637 0
M  V30 18318 C 1666.81 4.35814 -1.11292 0
M  V30 18319 C 1668.13 4.29204 0.973218 0
M  V30 18320 H 1665.25 0.736712 0.0206177 0
M  V30 18321 H 1667.89 1.78995 -0.637245 0
M  V30 18322 H 1666.04 3.79722 0.821182 0
M  V30 18323 H 1667.71 4.27007 -1.74536 0
M  V30 18324 H 1665.95 3.98874 -1.70535 0
M  V30 18325 H 1666.62 5.43758 -0.950319 0
M  V30 18326 H 1669.1 4.13447 0.469106 0
M  V30 18327 H 1667.98 5.38605 1.05809 0
M  V30 18328 H 1668.24 3.93564 2.01394 0
M  V30 18329 N 1667.3 0.221601 1.56034 0
M  V30 18330 C 1668.54 -0.409277 1.97912 0
M  V30 18331 C 1668.87 -1.60291 1.11049 0
M  V30 18332 O 1668.14 -1.95 0.187529 0
M  V30 18333 H 1666.72 -0.154201 0.730911 0
M  V30 18334 H 1669.38 0.314508 1.92346 0
M  V30 18335 H 1668.47 -0.73557 3.03308 0
M  V30 18336 N 1668.77 -1.57515 -0.0517878 0
M  V30 18337 C 1670.02 -1.87396 -0.746022 0
M  V30 18338 C 1670.34 -0.817053 -1.77718 0
M  V30 18339 O 1671.54 -1.00435 -2.5224 0
M  V30 18340 C 1670 -3.32481 -1.37783 0
M  V30 18341 C 1669.61 -4.46349 -0.384208 0
M  V30 18342 C 1671.35 -3.71539 -2.05327 0
M  V30 18343 C 1669.26 -5.82484 -1.02307 0
M  V30 18344 H 1668.19 -0.699127 -0.282379 0
M  V30 18345 H 1670.84 -1.835 0.000245524 0
M  V30 18346 H 1669.22 -3.31051 -2.17304 0
M  V30 18347 H 1670.39 -4.59209 0.382639 0
M  V30 18348 H 1668.71 -4.15976 0.187873 0
M  V30 18349 H 1671.31 -4.70553 -2.53936 0
M  V30 18350 H 1671.65 -3.02361 -2.86153 0
M  V30 18351 H 1672.18 -3.75046 -1.32611 0
M  V30 18352 H 1668.92 -6.55005 -0.254704 0
M  V30 18353 H 1668.44 -5.73388 -1.7603 0
M  V30 18354 H 1670.12 -6.28476 -1.5371 0
M  V30 18355 N 1670.25 0.323614 -1.54242 0
M  V30 18356 C 1671.67 0.66795 -1.4495 0
M  V30 18357 C 1671.87 1.91649 -0.622338 0
M  V30 18358 O 1670.93 2.52209 -0.121119 0
M  V30 18359 C 1672.24 0.842006 -2.88671 0
M  V30 18360 C 1673.79 0.93935 -2.98572 0
M  V30 18361 C 1674.26 1.14557 -4.43442 0
M  V30 18362 N 1675.75 1.21231 -4.47054 0
M  V30 18363 C 1676.49 1.38976 -5.56303 0
M  V30 18364 N 1675.98 1.53764 -6.75521 0
M  V30 18365 N 1677.78 1.41684 -5.4395 0
M  V30 18366 H 1669.93 -0.497017 -2.06503 0
M  V30 18367 H 1672.19 -0.160563 -0.934304 0
M  V30 18368 H 1671.9 -0.00418568 -3.517 0
M  V30 18369 H 1671.77 1.73785 -3.34782 0
M  V30 18370 H 1674.16 1.77605 -2.35671 0
M  V30 18371 H 1674.24 0.0199775 -2.55792 0
M  V30 18372 H 1673.88 0.313732 -5.0693 0
M  V30 18373 H 1673.81 2.07882 -4.83831 0
M  V30 18374 H 1676.3 1.11247 -3.61154 0
M  V30 18375 H 1676.62 1.66996 -7.54541 0
M  V30 18376 H 1674.96 1.50862 -6.78429 0
M  V30 18377 H 1678.15 1.29726 -4.49765 0
M  V30 18378 H 1678.33 1.5517 -6.29147 0
M  V30 18379 N 1671.73 1.46313 0.585673 0
M  V30 18380 C 1672.98 1.51171 1.34134 0
M  V30 18381 C 1673.3 0.163691 1.94312 0
M  V30 18382 O 1672.57 -0.809444 1.78395 0
M  V30 18383 H 1671.15 0.556768 0.498014 0
M  V30 18384 H 1673.81 1.82423 0.686133 0
M  V30 18385 H 1672.91 2.26274 2.14957 0
M  V30 18386 N 1673.21 -0.830057 1.33969 0
M  V30 18387 C 1674.44 -1.61539 1.28797 0
M  V30 18388 C 1674.85 -1.8867 -0.14158 0
M  V30 18389 O 1674.19 -1.47356 -1.0969 0
M  V30 18390 C 1674.25 -2.98503 2.0034 0
M  V30 18391 C 1673.92 -2.94302 3.49622 0
M  V30 18392 C 1674.91 -2.69391 4.44662 0
M  V30 18393 C 1672.6 -3.14159 3.9193 0
M  V30 18394 C 1674.59 -2.64379 5.79985 0
M  V30 18395 C 1672.28 -3.08772 5.27355 0
M  V30 18396 C 1673.28 -2.83914 6.21194 0
M  V30 18397 O 1672.97 -2.78446 7.54137 0
M  V30 18398 H 1672.7 -0.509067 0.444777 0
M  V30 18399 H 1675.25 -1.04137 1.77044 0
M  V30 18400 H 1673.48 -3.57795 1.46697 0
M  V30 18401 H 1675.17 -3.59449 1.88551 0
M  V30 18402 H 1675.94 -2.53792 4.13298 0
M  V30 18403 H 1671.82 -3.32526 3.19293 0
M  V30 18404 H 1675.36 -2.44896 6.53201 0
M  V30 18405 H 1671.26 -3.23922 5.58341 0
M  V30 18406 H 1672.02 -2.94224 7.63789 0
M  V30 18407 N 1674.69 -1.17582 -1.04939 0
M  V30 18408 C 1675.62 -0.838287 -2.12245 0
M  V30 18409 C 1676.6 0.196015 -1.61414 0
M  V30 18410 O 1677.78 0.0769706 -1.88343 0
M  V30 18411 C 1674.91 -0.250934 -3.37769 0
M  V30 18412 C 1673.96 -1.26103 -4.07431 0
M  V30 18413 S 1674.79 -2.81338 -4.55641 0
M  V30 18414 C 1675.94 -2.2409 -5.8441 0
M  V30 18415 H 1676.18 -1.74709 -2.40549 0
M  V30 18416 H 1673.71 -1.00075 -1.17577 0
M  V30 18417 H 1675.67 0.0814566 -4.10419 0
M  V30 18418 H 1674.33 0.635851 -3.07597 0
M  V30 18419 H 1673.52 -0.798761 -4.9763 0
M  V30 18420 H 1673.12 -1.5392 -3.40859 0
M  V30 18421 H 1675.42 -1.61804 -6.57895 0
M  V30 18422 H 1676.36 -3.12554 -6.35386 0
M  V30 18423 H 1676.77 -1.67444 -5.39094 0
M  V30 18424 N 1676.17 1.23705 -0.976463 0
M  V30 18425 C 1677.4 1.95771 -0.660107 0
M  V30 18426 C 1677.8 1.72541 0.776297 0
M  V30 18427 O 1677.15 1.01134 1.53355 0
M  V30 18428 C 1677.21 3.4892 -0.865752 0
M  V30 18429 C 1676.87 3.95862 -2.28347 0
M  V30 18430 C 1677.87 4.04844 -3.26186 0
M  V30 18431 C 1675.55 4.28953 -2.61351 0
M  V30 18432 C 1677.55 4.46265 -4.55111 0
M  V30 18433 C 1675.24 4.70057 -3.905 0
M  V30 18434 C 1676.23 4.78679 -4.87192 0
M  V30 18435 O 1675.92 5.1886 -6.14035 0
M  V30 18436 H 1675.65 0.630202 -0.244585 0
M  V30 18437 H 1678.21 1.58255 -1.30937 0
M  V30 18438 H 1676.44 3.86372 -0.159321 0
M  V30 18439 H 1678.13 4.02195 -0.547154 0
M  V30 18440 H 1678.89 3.79486 -3.02018 0
M  V30 18441 H 1674.77 4.21456 -1.86803 0
M  V30 18442 H 1678.32 4.5291 -5.30583 0
M  V30 18443 H 1674.21 4.94863 -4.14464 0
M  V30 18444 H 1674.98 5.36984 -6.1773 0
M  V30 18445 N 1677.64 0.747635 1.38738 0
M  V30 18446 C 1678.57 0.131317 2.3313 0
M  V30 18447 C 1679.55 -0.710229 1.54563 0
M  V30 18448 O 1680.74 -0.652631 1.82905 0
M  V30 18449 C 1677.87 -0.767168 3.38721 0
M  V30 18450 C 1676.82 -0.0288124 4.2799 0
M  V30 18451 C 1676.15 -1.04515 5.24386 0
M  V30 18452 C 1677.45 1.13608 5.09795 0
M  V30 18453 H 1679.14 0.91981 2.84921 0
M  V30 18454 H 1676.69 0.443764 1.36992 0
M  V30 18455 H 1678.64 -1.20796 4.03716 0
M  V30 18456 H 1677.37 -1.58792 2.85399 0
M  V30 18457 H 1676.03 0.392491 3.64493 0
M  V30 18458 H 1675.67 -1.8598 4.67355 0
M  V30 18459 H 1675.37 -0.555813 5.84965 0
M  V30 18460 H 1676.9 -1.48538 5.92257 0
M  V30 18461 H 1678.31 0.773129 5.68063 0
M  V30 18462 H 1676.71 1.55589 5.79579 0
M  V30 18463 H 1677.78 1.95182 4.43883 0
M  V30 18464 N 1679.12 -1.49583 0.496242 0
M  V30 18465 C 1680.07 -2.29037 -0.284716 0
M  V30 18466 C 1681.04 -1.35217 -0.964661 0
M  V30 18467 O 1682.22 -1.64171 -0.972244 0
M  V30 18468 C 1679.36 -3.17767 -1.34603 0
M  V30 18469 C 1678.48 -4.26641 -0.67834 0
M  V30 18470 C 1677.61 -5.02594 -1.71969 0
M  V30 18471 C 1676.65 -6.0331 -1.03361 0
M  V30 18472 N 1675.79 -6.72446 -2.01894 0
M  V30 18473 H 1680.63 -2.95316 0.399084 0
M  V30 18474 H 1678.16 -1.45613 0.208653 0
M  V30 18475 H 1680.12 -3.67583 -1.97329 0
M  V30 18476 H 1678.75 -2.53483 -1.99866 0
M  V30 18477 H 1677.8 -3.80349 0.0620953 0
M  V30 18478 H 1679.12 -4.98609 -0.138028 0
M  V30 18479 H 1678.27 -5.56254 -2.42212 0
M  V30 18480 H 1677.01 -4.30388 -2.29385 0
M  V30 18481 H 1676.01 -5.48886 -0.316925 0
M  V30 18482 H 1677.24 -6.77499 -0.466009 0
M  V30 18483 H 1675.19 -6.03015 -2.58281 0
M  V30 18484 H 1675.1 -7.40373 -1.52916 0
M  V30 18485 H 1676.37 -7.30712 -2.7144 0
M  V30 18486 N 1680.6 -0.229873 -1.55915 0
M  V30 18487 C 1681.85 0.398775 -1.98127 0
M  V30 18488 C 1682.17 1.597 -1.11897 0
M  V30 18489 O 1681.44 1.94898 -0.197868 0
M  V30 18490 H 1680.02 0.150323 -0.731719 0
M  V30 18491 H 1682.68 -0.324704 -1.92176 0
M  V30 18492 H 1681.78 0.719475 -3.03694 0
M  V30 18493 N 1682.08 1.5754 0.0434337 0
M  V30 18494 C 1683.49 1.77071 0.591836 0
M  V30 18495 C 1683.84 0.85911 1.76391 0
M  V30 18496 O 1682.96 0.0502725 2.16342 0
M  V30 18497 C 1683.56 3.21111 1.08041 0
M  V30 18498 C 1682.12 3.41889 1.57445 0
M  V30 18499 C 1681.27 2.72641 0.506166 0
M  V30 18500 H 1684.22 1.57644 -0.182792 0
M  V30 18501 H 1684.24 3.26834 1.94833 0
M  V30 18502 H 1683.75 3.87435 0.227153 0
M  V30 18503 H 1681.85 2.80721 2.45003 0
M  V30 18504 H 1681.96 4.50452 1.63185 0
M  V30 18505 H 1680.33 2.36002 0.957878 0
M  V30 18506 H 1681.11 3.41638 -0.337389 0
M  V30 18507 N 1683.56 -0.31543 1.54411 0
M  V30 18508 C 1684.97 -0.660254 1.45302 0
M  V30 18509 C 1685.17 -1.91316 0.632493 0
M  V30 18510 O 1684.23 -2.52142 0.134493 0
M  V30 18511 C 1685.54 -0.826685 2.89113 0
M  V30 18512 C 1687.09 -0.923503 2.99066 0
M  V30 18513 C 1687.56 -1.12204 4.44043 0
M  V30 18514 N 1689.05 -1.18859 4.47691 0
M  V30 18515 C 1689.79 -1.36024 5.57032 0
M  V30 18516 N 1689.29 -1.5018 6.76327 0
M  V30 18517 N 1691.08 -1.38797 5.44694 0
M  V30 18518 H 1683.23 0.507961 2.06237 0
M  V30 18519 H 1685.49 0.165515 0.933439 0
M  V30 18520 H 1685.2 0.0228371 3.51693 0
M  V30 18521 H 1685.07 -1.72007 3.35698 0
M  V30 18522 H 1687.46 -1.76352 2.36609 0
M  V30 18523 H 1687.54 -0.00641189 2.55799 0
M  V30 18524 H 1687.18 -0.286844 5.07089 0
M  V30 18525 H 1687.11 -2.05313 4.84927 0
M  V30 18526 H 1689.61 -1.0933 3.61739 0
M  V30 18527 H 1689.92 -1.62992 7.55416 0
M  V30 18528 H 1688.26 -1.47262 6.79219 0
M  V30 18529 H 1691.45 -1.27339 4.50447 0
M  V30 18530 H 1691.63 -1.51832 6.29961 0
M  V30 18531 N 1685.03 -1.46622 -0.577906 0
M  V30 18532 C 1686.28 -1.5188 -1.3333 0
M  V30 18533 C 1686.6 -0.173993 -1.94222 0
M  V30 18534 O 1685.87 0.799972 -1.78822 0
M  V30 18535 H 1684.45 -0.559401 -0.495055 0
M  V30 18536 H 1687.12 -1.82785 -0.676449 0
M  V30 18537 H 1686.21 -2.27411 -2.13754 0
M  V30 18538 N 1686.51 0.822941 -1.34408 0
M  V30 18539 C 1687.74 1.61607 -1.29992 0
M  V30 18540 C 1688.16 1.87695 0.123301 0
M  V30 18541 O 1687.52 1.45247 1.08504 0
M  V30 18542 C 1687.57 2.934 -2.09639 0
M  V30 18543 O 1686.67 3.85467 -1.4659 0
M  V30 18544 H 1686.01 0.491504 -0.446452 0
M  V30 18545 H 1688.54 1.02264 -1.7721 0
M  V30 18546 H 1688.55 3.42966 -2.20994 0
M  V30 18547 H 1687.23 2.73736 -3.13116 0
M  V30 18548 H 1685.81 3.43984 -1.43978 0
M  V30 18549 N 1687.99 1.18137 1.04314 0
M  V30 18550 C 1689.24 0.976648 1.77734 0
M  V30 18551 C 1689.57 -0.492756 1.87844 0
M  V30 18552 O 1688.84 -1.36586 1.38472 0
M  V30 18553 C 1689.13 1.62911 3.21142 0
M  V30 18554 C 1688.98 3.1712 3.1899 0
M  V30 18555 C 1690.3 1.34029 4.19195 0
M  V30 18556 H 1687.42 0.356217 0.645197 0
M  V30 18557 H 1690.06 1.45767 1.21868 0
M  V30 18558 H 1688.21 1.22009 3.68844 0
M  V30 18559 H 1689.88 3.67139 2.79296 0
M  V30 18560 H 1688.13 3.4941 2.57089 0
M  V30 18561 H 1688.8 3.57907 4.20245 0
M  V30 18562 H 1691.27 1.69463 3.80028 0
M  V30 18563 H 1690.15 1.82253 5.1776 0
M  V30 18564 H 1690.41 0.262712 4.41319 0
M  V30 18565 N 1689.47 -1.23186 0.98301 0
M  V30 18566 C 1690.4 -2.23304 0.470158 0
M  V30 18567 C 1691.38 -1.55834 -0.464156 0
M  V30 18568 O 1692.56 -1.84379 -0.391997 0
M  V30 18569 C 1689.69 -3.37189 -0.319545 0
M  V30 18570 C 1688.74 -4.22817 0.559296 0
M  V30 18571 S 1689.57 -4.96398 2.00871 0
M  V30 18572 C 1690.73 -6.13731 1.22822 0
M  V30 18573 H 1690.96 -2.6646 1.31857 0
M  V30 18574 H 1688.49 -1.32706 0.789206 0
M  V30 18575 H 1690.45 -4.0323 -0.769158 0
M  V30 18576 H 1689.11 -2.92561 -1.14311 0
M  V30 18577 H 1688.3 -5.03977 -0.0478035 0
M  V30 18578 H 1687.91 -3.61857 0.945262 0
M  V30 18579 H 1690.2 -6.75719 0.490859 0
M  V30 18580 H 1691.14 -6.78832 2.01475 0
M  V30 18581 H 1691.55 -5.59551 0.74586 0
M  V30 18582 N 1690.95 -0.754982 -1.38339 0
M  V30 18583 C 1692.17 -0.322624 -2.04369 0
M  V30 18584 C 1692.59 1.04951 -1.56942 0
M  V30 18585 O 1691.95 1.66686 -0.743109 0
M  V30 18586 C 1692 -0.337767 -3.59919 0
M  V30 18587 O 1691.72 -1.65576 -4.05606 0
M  V30 18588 C 1693.22 0.108281 -4.43168 0
M  V30 18589 H 1690.44 -0.137626 -0.656734 0
M  V30 18590 H 1692.98 -1.02422 -1.77003 0
M  V30 18591 H 1691.14 0.315106 -3.86116 0
M  V30 18592 H 1691.55 -1.5829 -5.00045 0
M  V30 18593 H 1693.03 0.0465256 -5.5198 0
M  V30 18594 H 1693.5 1.15636 -4.23704 0
M  V30 18595 H 1694.11 -0.51577 -4.22161 0
M  V30 18596 N 1692.42 1.49318 -0.504168 0
M  V30 18597 C 1693.65 2.06869 0.0359415 0
M  V30 18598 C 1694.07 1.3641 1.30529 0
M  V30 18599 O 1693.42 0.443416 1.77031 0
M  V30 18600 C 1693.48 3.60333 0.290233 0
M  V30 18601 O 1693.2 4.28141 -0.928801 0
M  V30 18602 C 1694.7 4.34606 0.873628 0
M  V30 18603 H 1691.92 0.670643 -0.0218893 0
M  V30 18604 H 1694.46 1.92058 -0.702432 0
M  V30 18605 H 1692.62 3.74836 0.978594 0
M  V30 18606 H 1693.03 5.19894 -0.693595 0
M  V30 18607 H 1694.5 5.42846 1.00112 0
M  V30 18608 H 1694.98 3.97297 1.87221 0
M  V30 18609 H 1695.59 4.24717 0.222638 0
M  V30 18610 N 1693.9 0.238138 1.5579 0
M  V30 18611 C 1694.85 -0.681413 2.22395 0
M  V30 18612 C 1695.84 -1.18691 1.20867 0
M  V30 18613 O 1697.05 -1.14482 1.38903 0
M  V30 18614 H 1693.43 -0.238207 0.713275 0
M  V30 18615 H 1695.4 -0.0964141 2.98244 0
M  V30 18616 C 1694.15 -1.87137 2.93045 0
M  V30 18617 H 1693.47 -1.49153 3.70936 0
M  V30 18618 H 1694.91 -2.4922 3.43024 0
M  V30 18619 C 1693.37 -2.73709 1.9643 0
M  V30 18620 O 1693.9 -3.72973 1.49178 0
M  V30 18621 N 1692.1 -2.40092 1.6372 0
M  V30 18622 H 1691.65 -1.59423 2.02341 0
M  V30 18623 H 1691.61 -2.98293 0.993414 0
M  V30 18624 N 1695.38 -1.57561 -0.0350783 0
M  V30 18625 C 1696.63 -1.88177 -0.726105 0
M  V30 18626 C 1696.94 -0.835856 -1.76841 0
M  V30 18627 O 1698.15 -1.03105 -2.51161 0
M  V30 18628 C 1696.6 -3.33924 -1.34249 0
M  V30 18629 C 1696.21 -4.46732 -0.336845 0
M  V30 18630 C 1697.96 -3.73696 -2.01374 0
M  V30 18631 C 1695.86 -5.83536 -0.961234 0
M  V30 18632 H 1694.79 -0.702082 -0.274948 0
M  V30 18633 H 1697.44 -1.83489 0.0197081 0
M  V30 18634 H 1695.83 -3.33337 -2.13781 0
M  V30 18635 H 1697 -4.58777 0.431323 0
M  V30 18636 H 1695.32 -4.15753 0.231983 0
M  V30 18637 H 1697.91 -4.7322 -2.48931 0
M  V30 18638 H 1698.26 -3.05379 -2.8293 0
M  V30 18639 H 1698.79 -3.76431 -1.28626 0
M  V30 18640 H 1695.53 -6.55238 -0.185217 0
M  V30 18641 H 1695.05 -5.75223 -1.69938 0
M  V30 18642 H 1696.73 -6.30071 -1.47035 0
M  V30 18643 N 1696.86 0.307236 -1.54576 0
M  V30 18644 C 1698.09 1.06079 -1.77287 0
M  V30 18645 C 1698.5 1.81643 -0.529395 0
M  V30 18646 O 1697.84 1.76474 0.510149 0
M  V30 18647 C 1697.9 2.09234 -2.92338 0
M  V30 18648 C 1697.57 1.52922 -4.30655 0
M  V30 18649 C 1698.56 0.962487 -5.10913 0
M  V30 18650 C 1696.25 1.56673 -4.77241 0
M  V30 18651 C 1698.24 0.44075 -6.35874 0
M  V30 18652 C 1695.93 1.04112 -6.02166 0
M  V30 18653 C 1696.93 0.479095 -6.81318 0
M  V30 18654 O 1696.61 -0.0385602 -8.03891 0
M  V30 18655 H 1696.35 0.320647 -0.595114 0
M  V30 18656 H 1698.9 0.353984 -2.02327 0
M  V30 18657 H 1697.13 2.83578 -2.62908 0
M  V30 18658 H 1698.82 2.70441 -3.02682 0
M  V30 18659 H 1699.59 0.926457 -4.76069 0
M  V30 18660 H 1695.46 1.99357 -4.15665 0
M  V30 18661 H 1699.01 0.00141848 -6.976 0
M  V30 18662 H 1694.91 1.07428 -6.36498 0
M  V30 18663 H 1695.67 0.0753282 -8.18465 0
M  V30 18664 N 1698.34 1.46926 0.570122 0
M  V30 18665 C 1699.27 1.61311 1.68822 0
M  V30 18666 C 1700.25 0.462964 1.63678 0
M  V30 18667 O 1701.43 0.690745 1.815 0
M  V30 18668 C 1698.56 1.61499 3.07466 0
M  V30 18669 C 1697.52 2.7561 3.27449 0
M  V30 18670 C 1696.84 2.60865 4.66748 0
M  V30 18671 C 1698.14 4.17324 3.14067 0
M  V30 18672 H 1699.84 2.54909 1.5704 0
M  V30 18673 H 1697.38 1.22677 0.754077 0
M  V30 18674 H 1699.34 1.70155 3.8552 0
M  V30 18675 H 1698.06 0.64453 3.20177 0
M  V30 18676 H 1696.72 2.66444 2.51799 0
M  V30 18677 H 1696.37 1.61875 4.76241 0
M  V30 18678 H 1696.07 3.37411 4.81069 0
M  V30 18679 H 1697.59 2.7143 5.46954 0
M  V30 18680 H 1699 4.27534 3.81952 0
M  V30 18681 H 1697.4 4.94555 3.39905 0
M  V30 18682 H 1698.47 4.36596 2.10979 0
M  V30 18683 N 1699.82 -0.815801 1.34842 0
M  V30 18684 C 1700.76 -1.94853 1.27024 0
M  V30 18685 C 1701.76 -1.68575 0.166936 0
M  V30 18686 O 1702.96 -1.76905 0.332352 0
M  V30 18687 H 1699.34 -0.640033 0.394794 0
M  V30 18688 H 1701.31 -1.98569 2.2274 0
M  V30 18689 C 1700.06 -3.31474 1.04977 0
M  V30 18690 H 1699.38 -3.52246 1.8911 0
M  V30 18691 H 1700.82 -4.11162 1.03545 0
M  V30 18692 C 1699.28 -3.35995 -0.246708 0
M  V30 18693 O 1699.81 -3.81898 -1.24566 0
M  V30 18694 N 1698.02 -2.89226 -0.282292 0
M  V30 18695 H 1697.56 -2.52063 0.531211 0
M  V30 18696 H 1697.52 -2.92633 -1.1495 0
M  V30 18697 N 1701.29 -1.18689 -1.03686 0
M  V30 18698 C 1702.52 -1.01024 -1.81132 0
M  V30 18699 C 1702.94 0.436584 -1.82963 0
M  V30 18700 O 1702.3 1.31343 -1.24975 0
M  V30 18701 C 1702.35 -1.5742 -3.24424 0
M  V30 18702 O 1701.45 -0.79813 -4.04603 0
M  V30 18703 H 1700.79 -0.357623 -0.559465 0
M  V30 18704 H 1703.32 -1.57532 -1.30556 0
M  V30 18705 H 1703.33 -1.60295 -3.75193 0
M  V30 18706 H 1702.01 -2.6273 -3.22406 0
M  V30 18707 H 1700.59 -0.842 -3.6327 0
M  V30 18708 N 1702.77 1.22662 -0.989529 0
M  V30 18709 C 1704 1.95883 -0.681511 0
M  V30 18710 C 1704.42 1.72646 0.746646 0
M  V30 18711 O 1703.78 1.00358 1.5099 0
M  V30 18712 C 1703.83 3.46773 -0.988975 0
M  V30 18713 O 1702.93 4.12311 -0.0858485 0
M  V30 18714 H 1702.27 0.612916 -0.255401 0
M  V30 18715 H 1704.8 1.5585 -1.32559 0
M  V30 18716 H 1704.81 3.97273 -0.929426 0
M  V30 18717 H 1703.49 3.63011 -2.02967 0
M  V30 18718 H 1702.06 3.7236 -0.200592 0
M  V30 18719 N 1704.25 0.762308 1.37937 0
M  V30 18720 C 1705.18 0.156036 2.32978 0
M  V30 18721 C 1706.16 -0.693795 1.55308 0
M  V30 18722 O 1707.35 -0.633195 1.83587 0
M  V30 18723 C 1704.48 -0.731199 3.39515 0
M  V30 18724 C 1703.43 0.0165834 4.27997 0
M  V30 18725 C 1702.76 -0.989476 5.25465 0
M  V30 18726 C 1704.06 1.19009 5.08561 0
M  V30 18727 H 1705.75 0.949978 2.83929 0
M  V30 18728 H 1703.3 0.458269 1.36513 0
M  V30 18729 H 1705.25 -1.16507 4.04974 0
M  V30 18730 H 1703.97 -1.55756 2.87067 0
M  V30 18731 H 1702.63 0.431128 3.64056 0
M  V30 18732 H 1702.28 -1.81013 4.69301 0
M  V30 18733 H 1701.98 -0.493738 5.85522 0
M  V30 18734 H 1703.5 -1.42248 5.93799 0
M  V30 18735 H 1704.92 0.833336 5.67211 0
M  V30 18736 H 1703.31 1.61727 5.77896 0
M  V30 18737 H 1704.38 1.99879 4.41788 0
M  V30 18738 N 1705.73 -1.49049 0.51208 0
M  V30 18739 C 1706.96 -2.06585 -0.024934 0
M  V30 18740 C 1707.37 -1.3713 -1.30353 0
M  V30 18741 O 1706.71 -0.446872 -1.78182 0
M  V30 18742 C 1706.77 -3.57911 -0.33768 0
M  V30 18743 C 1706.43 -4.49123 0.844817 0
M  V30 18744 C 1707.43 -4.89977 1.73836 0
M  V30 18745 C 1705.12 -4.91272 1.04675 0
M  V30 18746 C 1707.11 -5.71728 2.8179 0
M  V30 18747 C 1704.8 -5.72798 2.12946 0
M  V30 18748 C 1705.8 -6.12932 3.01337 0
M  V30 18749 O 1705.48 -6.92825 4.07737 0
M  V30 18750 H 1705.22 -0.675633 0.0222573 0
M  V30 18751 H 1707.77 -1.92669 0.711891 0
M  V30 18752 H 1706 -3.69875 -1.12825 0
M  V30 18753 H 1707.69 -3.97641 -0.814628 0
M  V30 18754 H 1708.45 -4.5805 1.59421 0
M  V30 18755 H 1704.33 -4.59528 0.368089 0
M  V30 18756 H 1707.88 -6.02974 3.50811 0
M  V30 18757 H 1703.77 -6.04137 2.27351 0
M  V30 18758 H 1704.54 -7.1115 4.05226 0
M  V30 18759 N 1707.21 -0.246397 -1.55662 0
M  V30 18760 C 1708.62 0.108465 -1.59231 0
M  V30 18761 C 1708.82 1.56961 -1.26354 0
M  V30 18762 O 1707.88 2.31393 -1.01062 0
M  V30 18763 C 1709.19 -0.240265 -2.99739 0
M  V30 18764 C 1710.74 -0.184523 -3.12456 0
M  V30 18765 C 1711.21 -0.507279 -4.55182 0
M  V30 18766 N 1712.7 -0.457761 -4.60933 0
M  V30 18767 C 1713.44 -0.680664 -5.69346 0
M  V30 18768 N 1712.94 -0.966667 -6.86023 0
M  V30 18769 N 1714.73 -0.611405 -5.58765 0
M  V30 18770 H 1706.88 -1.19928 -1.75303 0
M  V30 18771 H 1709.14 -0.482503 -0.816024 0
M  V30 18772 H 1708.85 -1.25535 -3.28533 0
M  V30 18773 H 1708.72 0.432872 -3.74708 0
M  V30 18774 H 1711.11 0.821232 -2.83443 0
M  V30 18775 H 1711.19 -0.891504 -2.39762 0
M  V30 18776 H 1710.83 -1.51059 -4.84916 0
M  V30 18777 H 1710.76 0.221174 -5.26135 0
M  V30 18778 H 1713.26 -0.245414 -3.77102 0
M  V30 18779 H 1713.57 -1.12419 -7.6458 0
M  V30 18780 H 1711.91 -1.00413 -6.87708 0
M  V30 18781 H 1715.1 -0.388018 -4.66489 0
M  V30 18782 H 1715.28 -0.788519 -6.43185 0
M  V30 18783 N 1708.68 1.57577 0.026722 0
M  V30 18784 C 1709.93 1.89005 0.715645 0
M  V30 18785 C 1710.25 0.844388 1.7577 0
M  V30 18786 O 1709.52 -0.121693 1.95522 0
M  V30 18787 H 1708.1 0.697535 0.267308 0
M  V30 18788 H 1710.76 1.94898 -0.00788096 0
M  V30 18789 H 1709.86 2.87952 1.20374 0
M  V30 18790 N 1710.16 -0.299034 1.54737 0
M  V30 18791 C 1711.39 -1.0529 1.78105 0
M  V30 18792 C 1711.8 -1.80868 0.541499 0
M  V30 18793 O 1711.16 -1.75834 -0.488726 0
M  V30 18794 C 1711.21 -2.03192 2.9899 0
M  V30 18795 O 1710.93 -1.30681 4.18156 0
M  V30 18796 C 1712.43 -2.90602 3.34762 0
M  V30 18797 H 1709.65 -0.312173 0.593961 0
M  V30 18798 H 1712.2 -0.337712 2.01692 0
M  V30 18799 H 1710.35 -2.70211 2.77606 0
M  V30 18800 H 1710.77 -1.96446 4.86322 0
M  V30 18801 H 1712.24 -3.55144 4.22584 0
M  V30 18802 H 1712.72 -3.59006 2.53004 0
M  V30 18803 H 1713.32 -2.29112 3.58313 0
M  V30 18804 N 1711.64 -1.47227 -0.562322 0
M  V30 18805 C 1712.59 -1.59329 -1.66981 0
M  V30 18806 C 1713.56 -0.436558 -1.6026 0
M  V30 18807 O 1714.74 -0.655956 -1.7917 0
M  V30 18808 C 1711.88 -1.60874 -3.05309 0
M  V30 18809 C 1710.99 -2.87428 -3.22505 0
M  V30 18810 C 1710.13 -2.80342 -4.512 0
M  V30 18811 C 1709.17 -4.01744 -4.6181 0
M  V30 18812 N 1708.31 -3.92924 -5.81855 0
M  V30 18813 H 1713.15 -2.53921 -1.55975 0
M  V30 18814 H 1710.68 -1.25953 -0.759879 0
M  V30 18815 H 1712.64 -1.59753 -3.85402 0
M  V30 18816 H 1711.27 -0.697994 -3.15163 0
M  V30 18817 H 1710.32 -2.98439 -2.35878 0
M  V30 18818 H 1711.63 -3.77345 -3.26209 0
M  V30 18819 H 1710.79 -2.77442 -5.39547 0
M  V30 18820 H 1709.53 -1.881 -4.49966 0
M  V30 18821 H 1708.53 -4.04954 -3.71877 0
M  V30 18822 H 1709.76 -4.95107 -4.64807 0
M  V30 18823 H 1707.7 -3.03481 -5.8158 0
M  V30 18824 H 1707.62 -4.76514 -5.86916 0
M  V30 18825 H 1708.89 -3.94031 -6.72577 0
M  V30 18826 N 1713.12 0.808639 -1.35273 0
M  V30 18827 C 1714.36 1.56562 -1.28431 0
M  V30 18828 C 1714.69 1.93982 0.141842 0
M  V30 18829 O 1713.95 1.61409 1.10661 0
M  V30 18830 C 1714.25 2.86667 -2.1344 0
M  V30 18831 C 1713.91 2.68475 -3.6226 0
M  V30 18832 C 1712.57 2.63221 -4.02825 0
M  V30 18833 C 1714.93 2.51151 -4.56698 0
M  V30 18834 C 1712.25 2.38583 -5.35999 0
M  V30 18835 C 1714.61 2.28043 -5.90067 0
M  V30 18836 C 1713.27 2.2121 -6.2978 0
M  V30 18837 H 1712.54 0.572902 -0.469963 0
M  V30 18838 H 1715.19 0.934504 -1.6715 0
M  V30 18839 H 1713.49 3.54146 -1.67595 0
M  V30 18840 H 1715.19 3.44351 -2.05483 0
M  V30 18841 H 1711.78 2.7341 -3.30068 0
M  V30 18842 H 1715.96 2.54223 -4.26244 0
M  V30 18843 H 1711.22 2.31761 -5.65771 0
M  V30 18844 H 1715.39 2.13628 -6.62824 0
M  V30 18845 H 1713.02 2.01881 -7.32904 0
M  V30 18846 N 1714.6 1.19237 1.03055 0
M  V30 18847 C 1715.85 0.988287 1.75829 0
M  V30 18848 C 1716.16 -0.481903 1.89571 0
M  V30 18849 O 1717.36 -0.804762 2.59299 0
M  V30 18850 C 1715.82 1.71934 3.16175 0
M  V30 18851 C 1715.43 3.22952 3.10493 0
M  V30 18852 C 1717.17 1.59844 3.93256 0
M  V30 18853 C 1715.08 3.88654 4.4576 0
M  V30 18854 H 1714.01 0.366153 0.659127 0
M  V30 18855 H 1716.66 1.42716 1.15345 0
M  V30 18856 H 1715.04 1.20828 3.77116 0
M  V30 18857 H 1716.22 3.81163 2.58943 0
M  V30 18858 H 1714.53 3.35298 2.46909 0
M  V30 18859 H 1717.13 2.06283 4.93307 0
M  V30 18860 H 1717.47 0.552317 4.1262 0
M  V30 18861 H 1718 2.08286 3.38913 0
M  V30 18862 H 1714.74 4.93357 4.31601 0
M  V30 18863 H 1714.26 3.35231 4.97373 0
M  V30 18864 H 1715.94 3.92104 5.14649 0
M  V30 18865 N 1716.07 -1.22136 0.99602 0
M  V30 18866 C 1717.32 -1.9028 0.66907 0
M  V30 18867 C 1717.64 -1.7837 -0.802717 0
M  V30 18868 O 1718.84 -2.41458 -1.24138 0
M  V30 18869 C 1717.3 -3.4116 1.1462 0
M  V30 18870 C 1716.91 -3.617 2.64343 0
M  V30 18871 C 1718.65 -4.14985 0.893718 0
M  V30 18872 C 1716.56 -5.06297 3.05642 0
M  V30 18873 H 1715.49 -0.71255 0.246554 0
M  V30 18874 H 1718.14 -1.38304 1.20599 0
M  V30 18875 H 1716.52 -3.92337 0.537378 0
M  V30 18876 H 1717.69 -3.21002 3.30597 0
M  V30 18877 H 1716.01 -3.01212 2.87507 0
M  V30 18878 H 1718.61 -5.21564 1.17794 0
M  V30 18879 H 1718.95 -4.15952 -0.17013 0
M  V30 18880 H 1719.48 -3.69846 1.46488 0
M  V30 18881 H 1716.22 -5.10472 4.11216 0
M  V30 18882 H 1715.74 -5.47885 2.44094 0
M  V30 18883 H 1717.42 -5.74743 2.97118 0
M  V30 18884 N 1717.55 -0.769612 -1.37531 0
M  V30 18885 C 1718.5 -0.152627 -2.30295 0
M  V30 18886 C 1719.47 0.692154 -1.50992 0
M  V30 18887 O 1720.65 0.64496 -1.79569 0
M  V30 18888 C 1717.79 0.72217 -3.37459 0
M  V30 18889 C 1716.91 -0.138985 -4.31776 0
M  V30 18890 C 1716.04 0.740317 -5.26016 0
M  V30 18891 C 1715.08 -0.1235 -6.11975 0
M  V30 18892 N 1714.22 0.713658 -6.98464 0
M  V30 18893 H 1719.06 -0.949218 -2.82478 0
M  V30 18894 H 1716.6 -0.479697 -1.39059 0
M  V30 18895 H 1718.55 1.24415 -3.98217 0
M  V30 18896 H 1717.18 1.48438 -2.86646 0
M  V30 18897 H 1716.24 -0.778756 -3.72343 0
M  V30 18898 H 1717.55 -0.805402 -4.92255 0
M  V30 18899 H 1716.7 1.32887 -5.91968 0
M  V30 18900 H 1715.44 1.44042 -4.65943 0
M  V30 18901 H 1714.45 -0.7246 -5.45004 0
M  V30 18902 H 1715.67 -0.820907 -6.7412 0
M  V30 18903 H 1713.62 1.39842 -6.40921 0
M  V30 18904 H 1713.53 0.104492 -7.55928 0
M  V30 18905 H 1714.8 1.28667 -7.68808 0
M  V30 18906 N 1719.03 1.48775 -0.519977 0
M  V30 18907 C 1719.98 2.29461 0.248242 0
M  V30 18908 C 1720.95 1.36734 0.943027 0
M  V30 18909 O 1722.13 1.65697 0.946003 0
M  V30 18910 C 1719.27 3.19868 1.29531 0
M  V30 18911 C 1718.39 4.27666 0.610379 0
M  V30 18912 C 1717.52 5.05266 1.63951 0
M  V30 18913 C 1716.56 6.04878 0.937496 0
M  V30 18914 N 1715.7 6.75573 1.91171 0
M  V30 18915 H 1720.54 2.94643 -0.446016 0
M  V30 18916 H 1718.07 1.45262 -0.231792 0
M  V30 18917 H 1720.03 3.70675 1.91456 0
M  V30 18918 H 1718.66 2.5663 1.95808 0
M  V30 18919 H 1717.71 3.80202 -0.122598 0
M  V30 18920 H 1719.03 4.98765 0.0586864 0
M  V30 18921 H 1718.18 5.60037 2.33332 0
M  V30 18922 H 1716.92 4.33983 2.22509 0
M  V30 18923 H 1715.92 5.49321 0.229562 0
M  V30 18924 H 1717.15 6.78155 0.358166 0
M  V30 18925 H 1715.09 6.07048 2.48655 0
M  V30 18926 H 1715.01 7.42712 1.41118 0
M  V30 18927 H 1716.28 7.34938 2.59781 0
M  V30 18928 N 1720.51 0.254649 1.55529 0
M  V30 18929 C 1721.74 -0.371317 2.03236 0
M  V30 18930 C 1722.15 -1.5152 1.13306 0
M  V30 18931 O 1721.49 -1.83154 0.141468 0
M  V30 18932 C 1721.55 -0.933614 3.47166 0
M  V30 18933 C 1721.22 0.0790139 4.56932 0
M  V30 18934 C 1722.21 0.891314 5.12203 0
M  V30 18935 C 1719.9 0.207343 5.01872 0
M  V30 18936 C 1721.89 1.81833 6.10914 0
M  V30 18937 C 1719.58 1.13785 6.00413 0
M  V30 18938 C 1720.58 1.94186 6.54813 0
M  V30 18939 O 1720.26 2.85667 7.51432 0
M  V30 18940 H 1720 -0.0914583 0.669785 0
M  V30 18941 H 1722.55 0.378413 2.01884 0
M  V30 18942 H 1720.78 -1.73305 3.45691 0
M  V30 18943 H 1722.47 -1.47048 3.78327 0
M  V30 18944 H 1723.24 0.802797 4.7831 0
M  V30 18945 H 1719.11 -0.408414 4.59187 0
M  V30 18946 H 1722.66 2.4463 6.53301 0
M  V30 18947 H 1718.56 1.22726 6.33726 0
M  V30 18948 H 1719.32 2.80116 7.69075 0
M  V30 18949 N 1721.99 -1.57589 -0.0183649 0
M  V30 18950 C 1722.95 -2.06217 -1.00035 0
M  V30 18951 C 1723.95 -0.968195 -1.28385 0
M  V30 18952 O 1725.14 -1.23147 -1.23209 0
M  V30 18953 C 1722.27 -2.48815 -2.33032 0
M  V30 18954 H 1723.46 -2.94236 -0.580085 0
M  V30 18955 H 1721.02 -1.5403 -0.265438 0
M  V30 18956 H 1721.75 -1.63985 -2.79785 0
M  V30 18957 H 1721.54 -3.28694 -2.13781 0
M  V30 18958 H 1723.03 -2.86828 -3.03512 0
M  V30 18959 N 1723.46 0.290824 -1.54893 0
M  V30 18960 C 1724.69 1.04775 -1.78988 0
M  V30 18961 C 1725.11 1.79799 -0.552637 0
M  V30 18962 O 1724.47 1.74349 0.497199 0
M  V30 18963 C 1724.52 1.99603 -3.00318 0
M  V30 18964 O 1723.62 3.08079 -2.74155 0
M  V30 18965 H 1722.97 0.300478 -0.592123 0
M  V30 18966 H 1725.5 0.325151 -2.02 0
M  V30 18967 H 1725.51 2.41884 -3.28567 0
M  V30 18968 H 1724.18 1.44406 -3.90025 0
M  V30 18969 H 1722.76 2.7024 -2.56953 0
M  V30 18970 N 1724.94 1.47523 0.554506 0
M  V30 18971 C 1726.19 1.53982 1.30897 0
M  V30 18972 C 1726.51 0.20487 1.93921 0
M  V30 18973 O 1725.78 -0.771422 1.80072 0
M  V30 18974 H 1724.36 0.567206 0.486092 0
M  V30 18975 H 1727.02 1.83838 0.647284 0
M  V30 18976 H 1726.12 2.30783 2.10109 0
M  V30 18977 N 1726.42 -0.801453 1.357 0
M  V30 18978 C 1727.37 -1.93495 1.29083 0
M  V30 18979 C 1728.36 -1.68389 0.184806 0
M  V30 18980 O 1729.57 -1.76543 0.351097 0
M  V30 18981 H 1725.94 -0.635809 0.40156 0
M  V30 18982 H 1727.91 -1.96195 2.24833 0
M  V30 18983 C 1726.66 -3.30342 1.08487 0
M  V30 18984 H 1725.99 -3.50221 1.92835 0
M  V30 18985 H 1727.43 -4.10041 1.079 0
M  V30 18986 C 1725.89 -3.36238 -0.211057 0
M  V30 18987 O 1726.42 -3.83198 -1.20508 0
M  V30 18988 N 1724.62 -2.89509 -0.251599 0
M  V30 18989 H 1724.17 -2.51486 0.557916 0
M  V30 18990 H 1724.13 -2.93836 -1.11839 0
M  V30 18991 N 1727.9 -1.19782 -1.02421 0
M  V30 18992 C 1728.85 -0.93978 -2.108 0
M  V30 18993 C 1729.82 0.12716 -1.65613 0
M  V30 18994 O 1731 -0.0159669 -1.90793 0
M  V30 18995 C 1728.14 -0.489656 -3.41609 0
M  V30 18996 C 1727.25 -1.62389 -4.00317 0
M  V30 18997 C 1726.39 -1.12483 -5.19154 0
M  V30 18998 C 1725.43 -2.23266 -5.69929 0
M  V30 18999 N 1724.56 -1.74633 -6.80035 0
M  V30 19000 H 1729.4 -1.8677 -2.32209 0
M  V30 19001 H 1726.94 -0.931082 -1.13883 0
M  V30 19002 H 1728.9 -0.210049 -4.16671 0
M  V30 19003 H 1727.53 0.40127 -3.20296 0
M  V30 19004 H 1726.58 -2.0186 -3.22423 0
M  V30 19005 H 1727.89 -2.45836 -4.34011 0
M  V30 19006 H 1727.05 -0.800737 -6.01393 0
M  V30 19007 H 1725.79 -0.260155 -4.87006 0
M  V30 19008 H 1724.79 -2.56501 -4.863 0
M  V30 19009 H 1726.02 -3.10197 -6.04115 0
M  V30 19010 H 1723.96 -0.904804 -6.4973 0
M  V30 19011 H 1723.88 -2.51666 -7.12882 0
M  V30 19012 H 1725.15 -1.45201 -7.65857 0
M  V30 19013 N 1729.38 1.21606 -1.00248 0
M  V30 19014 C 1730.65 1.86191 -0.599348 0
M  V30 19015 C 1731.03 1.89847 0.923104 0
M  V30 19016 O 1730.38 1.39595 1.80902 0
M  V30 19017 C 1730.59 3.26576 -1.23082 0
M  V30 19018 C 1731.94 4.02989 -1.33736 0
M  V30 19019 O 1732.96 3.35877 -1.18595 0
M  V30 19020 O 1731.82 5.23142 -1.58065 0
M  V30 19021 H 1728.92 0.801204 -0.204943 0
M  V30 19022 H 1731.46 1.29309 -1.09897 0
M  V30 19023 H 1730.24 3.18601 -2.27176 0
M  V30 19024 H 1729.86 3.91074 -0.717394 0
M  V30 19025 N 1730.86 0.776895 1.37121 0
M  V30 19026 C 1731.8 0.154521 2.32086 0
M  V30 19027 C 1732.8 -0.679155 1.5519 0
M  V30 19028 O 1734 -0.575641 1.70547 0
M  V30 19029 H 1730.38 0.0311849 0.751353 0
M  V30 19030 H 1732.35 0.971125 2.82156 0
M  V30 19031 C 1731.1 -0.706165 3.40454 0
M  V30 19032 H 1730.42 -0.0740341 3.99731 0
M  V30 19033 H 1731.86 -1.10853 4.09253 0
M  V30 19034 C 1730.32 -1.85901 2.80967 0
M  V30 19035 O 1730.85 -2.95482 2.72128 0
M  V30 19036 N 1729.06 -1.66122 2.38436 0
M  V30 19037 H 1728.6 -0.769915 2.45825 0
M  V30 19038 H 1728.56 -2.43422 1.9898 0
M  V30 19039 N 1732.33 -1.48497 0.527859 0
M  V30 19040 C 1733.58 -2.01698 -0.00900086 0
M  V30 19041 C 1733.9 -1.4104 -1.35525 0
M  V30 19042 O 1735.1 -1.85726 -1.98035 0
M  V30 19043 C 1733.56 -3.59839 -0.0664428 0
M  V30 19044 C 1733.17 -4.2948 1.27479 0
M  V30 19045 C 1734.91 -4.20893 -0.552244 0
M  V30 19046 C 1732.82 -5.79548 1.17805 0
M  V30 19047 H 1731.75 -0.753966 -0.00713463 0
M  V30 19048 H 1734.4 -1.70779 0.67132 0
M  V30 19049 H 1732.78 -3.8759 -0.811795 0
M  V30 19050 H 1733.95 -4.13403 2.03554 0
M  V30 19051 H 1732.27 -3.80289 1.69616 0
M  V30 19052 H 1734.87 -5.30825 -0.642556 0
M  V30 19053 H 1735.21 -3.86066 -1.55752 0
M  V30 19054 H 1735.74 -3.97563 0.137363 0
M  V30 19055 H 1732.48 -6.18945 2.15841 0
M  V30 19056 H 1732 -5.98044 0.458624 0
M  V30 19057 H 1733.68 -6.41153 0.867834 0
M  V30 19058 N 1733.81 -0.262893 -1.55392 0
M  V30 19059 C 1735.06 0.357895 -1.99617 0
M  V30 19060 C 1735.39 1.56415 -1.151 0
M  V30 19061 O 1734.67 1.93273 -0.218139 0
M  V30 19062 C 1734.95 0.752095 -3.52158 0
M  V30 19063 C 1734.8 -0.460658 -4.47435 0
M  V30 19064 C 1736.12 1.59314 -4.10253 0
M  V30 19065 H 1733.24 0.128612 -0.725691 0
M  V30 19066 H 1735.88 -0.367399 -1.86414 0
M  V30 19067 H 1734.03 1.37006 -3.6354 0
M  V30 19068 H 1735.7 -1.09918 -4.48013 0
M  V30 19069 H 1733.95 -1.10093 -4.19597 0
M  V30 19070 H 1734.62 -0.141262 -5.51819 0
M  V30 19071 H 1737.09 1.07135 -4.02071 0
M  V30 19072 H 1735.97 1.83779 -5.1722 0
M  V30 19073 H 1736.23 2.57022 -3.59711 0
M  V30 19074 N 1735.29 1.57597 0.0100073 0
M  V30 19075 C 1736.71 1.55348 0.365949 0
M  V30 19076 C 1736.91 0.991487 1.75419 0
M  V30 19077 O 1735.96 0.620894 2.44747 0
M  V30 19078 C 1737.27 2.99656 0.250343 0
M  V30 19079 C 1738.82 3.11297 0.326023 0
M  V30 19080 C 1739.3 4.57373 0.239653 0
M  V30 19081 N 1740.79 4.62241 0.297863 0
M  V30 19082 C 1741.52 5.72836 0.254219 0
M  V30 19083 N 1741.02 6.92611 0.161753 0
M  V30 19084 N 1742.81 5.6127 0.30535 0
M  V30 19085 H 1734.96 1.92471 -0.898253 0
M  V30 19086 H 1737.23 0.883623 -0.343386 0
M  V30 19087 H 1736.93 3.44574 -0.704407 0
M  V30 19088 H 1736.81 3.62682 1.03643 0
M  V30 19089 H 1739.19 2.66316 1.27121 0
M  V30 19090 H 1739.27 2.51068 -0.489756 0
M  V30 19091 H 1738.92 5.03026 -0.70195 0
M  V30 19092 H 1738.85 5.15536 1.07379 0
M  V30 19093 H 1741.34 3.76074 0.371065 0
M  V30 19094 H 1741.65 7.72684 0.134073 0
M  V30 19095 H 1740 6.94883 0.127524 0
M  V30 19096 H 1743.19 4.6659 0.375713 0
M  V30 19097 H 1743.36 6.47446 0.267871 0
M  V30 19098 N 1736.77 -0.282606 1.55045 0
M  V30 19099 C 1737.72 -1.36902 1.88044 0
M  V30 19100 C 1738.71 -1.51603 0.755845 0
M  V30 19101 O 1739.92 -1.53501 0.940074 0
M  V30 19102 H 1736.29 -0.457666 0.596696 0
M  V30 19103 H 1738.26 -1.06317 2.78818 0
M  V30 19104 C 1737.01 -2.72426 2.16054 0
M  V30 19105 H 1736.33 -2.61903 3.02071 0
M  V30 19106 H 1737.77 -3.47409 2.43071 0
M  V30 19107 C 1736.23 -3.22784 0.964996 0
M  V30 19108 O 1736.76 -4.01228 0.194759 0
M  V30 19109 N 1734.97 -2.80341 0.765322 0
M  V30 19110 H 1734.52 -2.16665 1.39335 0
M  V30 19111 H 1734.47 -3.14383 -0.0330026 0
M  V30 19112 N 1738.25 -1.47815 -0.546675 0
M  V30 19113 C 1739.19 -1.61513 -1.67381 0
M  V30 19114 C 1740.19 -0.482064 -1.62396 0
M  V30 19115 O 1741.39 -0.660227 -1.67454 0
M  V30 19116 H 1737.77 -0.508484 -0.554029 0
M  V30 19117 H 1739.74 -2.5621 -1.52967 0
M  V30 19118 C 1738.49 -1.65645 -3.05707 0
M  V30 19119 H 1737.81 -2.52186 -3.10229 0
M  V30 19120 H 1739.25 -1.79277 -3.84234 0
M  V30 19121 C 1737.71 -0.391799 -3.34614 0
M  V30 19122 O 1738.24 0.502576 -3.98544 0
M  V30 19123 N 1736.45 -0.268593 -2.89356 0
M  V30 19124 H 1735.99 -0.997347 -2.37509 0
M  V30 19125 H 1735.95 0.5766 -3.09067 0
M  V30 19126 N 1739.72 0.794246 -1.36123 0
M  V30 19127 C 1741 1.53967 -1.20638 0
M  V30 19128 C 1741.38 2.10058 0.209456 0
M  V30 19129 O 1740.73 1.93551 1.2145 0
M  V30 19130 C 1740.94 2.63844 -2.28445 0
M  V30 19131 C 1742.29 3.31855 -2.64872 0
M  V30 19132 O 1743.31 2.74124 -2.27452 0
M  V30 19133 O 1742.17 4.36177 -3.2926 0
M  V30 19134 H 1739.26 0.68086 -0.469424 0
M  V30 19135 H 1741.81 0.833144 -1.4784 0
M  V30 19136 H 1740.58 2.20357 -3.23355 0
M  V30 19137 H 1740.2 3.42121 -2.02581 0
M  V30 19138 N 1741.2 1.20323 1.01785 0
M  V30 19139 C 1742.62 0.957818 1.27664 0
M  V30 19140 C 1742.82 -0.363377 1.98196 0
M  V30 19141 O 1741.87 -1.09221 2.27656 0
M  V30 19142 C 1743.19 2.13957 2.11289 0
M  V30 19143 C 1744.73 2.18041 2.2456 0
M  V30 19144 C 1745.21 3.35698 3.11562 0
M  V30 19145 N 1746.7 3.35704 3.1915 0
M  V30 19146 C 1747.44 4.2339 3.86689 0
M  V30 19147 N 1746.93 5.21251 4.56366 0
M  V30 19148 N 1748.72 4.11235 3.832 0
M  V30 19149 H 1740.88 2.05309 0.544242 0
M  V30 19150 H 1743.14 0.898335 0.302817 0
M  V30 19151 H 1742.84 3.09631 1.66798 0
M  V30 19152 H 1742.72 2.11946 3.12024 0
M  V30 19153 H 1745.11 1.22931 2.68276 0
M  V30 19154 H 1745.19 2.24101 1.23338 0
M  V30 19155 H 1744.83 4.31095 2.68551 0
M  V30 19156 H 1744.76 3.26876 4.12868 0
M  V30 19157 H 1747.25 2.64874 2.69537 0
M  V30 19158 H 1747.56 5.84485 5.05566 0
M  V30 19159 H 1745.91 5.25189 4.55195 0
M  V30 19160 H 1749.1 3.34052 3.27913 0
M  V30 19161 H 1749.27 4.79782 4.35561 0
M  V30 19162 N 1742.68 -1.21073 1.00892 0
M  V30 19163 C 1743.93 -1.90524 0.694879 0
M  V30 19164 C 1744.26 -1.78161 -0.772802 0
M  V30 19165 O 1743.53 -1.1608 -1.56063 0
M  V30 19166 C 1743.82 -3.42188 1.12156 0
M  V30 19167 C 1743.67 -3.63523 2.64898 0
M  V30 19168 C 1744.99 -4.34706 0.68694 0
M  V30 19169 H 1742.11 -0.69188 0.253912 0
M  V30 19170 H 1744.75 -1.42626 1.2553 0
M  V30 19171 H 1742.9 -3.83113 0.644742 0
M  V30 19172 H 1744.57 -3.31901 3.20374 0
M  V30 19173 H 1742.81 -3.07255 3.0623 0
M  V30 19174 H 1743.49 -4.69805 2.89806 0
M  V30 19175 H 1745.96 -4.01386 1.09674 0
M  V30 19176 H 1744.84 -5.3946 1.01361 0
M  V30 19177 H 1745.1 -4.40178 -0.411757 0
M  V30 19178 N 1744.16 -0.784156 -1.36707 0
M  V30 19179 C 1745.39 -0.365371 -2.03344 0
M  V30 19180 C 1745.8 1.02133 -1.59266 0
M  V30 19181 O 1745.14 1.66547 -0.775098 0
M  V30 19182 C 1745.2 -0.343819 -3.57852 0
M  V30 19183 C 1744.87 -1.6772 -4.25111 0
M  V30 19184 C 1745.86 -2.63179 -4.48367 0
M  V30 19185 C 1743.55 -1.95505 -4.62691 0
M  V30 19186 C 1745.54 -3.84621 -5.08277 0
M  V30 19187 C 1743.23 -3.17215 -5.2232 0
M  V30 19188 C 1744.23 -4.11592 -5.45052 0
M  V30 19189 O 1743.91 -5.31157 -6.0343 0
M  V30 19190 H 1743.65 -0.14936 -0.659293 0
M  V30 19191 H 1746.2 -1.06269 -1.75772 0
M  V30 19192 H 1744.43 0.409964 -3.84521 0
M  V30 19193 H 1746.12 0.0495818 -4.0587 0
M  V30 19194 H 1746.89 -2.42998 -4.19735 0
M  V30 19195 H 1742.76 -1.22867 -4.44325 0
M  V30 19196 H 1746.31 -4.58298 -5.25936 0
M  V30 19197 H 1742.21 -3.37276 -5.50377 0
M  V30 19198 H 1742.97 -5.32149 -6.219 0
M  V30 19199 N 1745.64 1.48215 -0.535727 0
M  V30 19200 C 1746.89 2.017 -0.0016958 0
M  V30 19201 C 1747.2 1.41756 1.34776 0
M  V30 19202 O 1748.4 1.86774 1.97048 0
M  V30 19203 C 1746.86 3.59869 0.0473588 0
M  V30 19204 C 1746.47 4.28798 -1.29754 0
M  V30 19205 C 1748.21 4.21179 0.529915 0
M  V30 19206 C 1746.12 5.78915 -1.20876 0
M  V30 19207 H 1745.05 0.753993 0.00313606 0
M  V30 19208 H 1747.7 1.70421 -0.680368 0
M  V30 19209 H 1746.08 3.88015 0.791229 0
M  V30 19210 H 1747.26 4.12318 -2.05743 0
M  V30 19211 H 1745.57 3.79384 -1.7163 0
M  V30 19212 H 1748.17 5.31158 0.614396 0
M  V30 19213 H 1748.51 3.86887 1.53702 0
M  V30 19214 H 1749.04 3.97484 -0.158445 0
M  V30 19215 H 1745.78 6.17792 -2.1912 0
M  V30 19216 H 1745.3 5.97792 -0.490333 0
M  V30 19217 H 1746.98 6.40684 -0.901824 0
M  V30 19218 N 1747.11 0.27113 1.5525 0
M  V30 19219 C 1748.06 -0.634087 2.2379 0
M  V30 19220 C 1749.06 -1.16101 1.23357 0
M  V30 19221 O 1750.26 -1.1151 1.413 0
M  V30 19222 H 1746.64 -0.223023 0.718168 0
M  V30 19223 H 1748.61 -0.0331304 2.98382 0
M  V30 19224 C 1747.36 -1.80879 2.96948 0
M  V30 19225 H 1746.68 -1.41252 3.74016 0
M  V30 19226 H 1748.12 -2.41888 3.48233 0
M  V30 19227 C 1746.58 -2.69481 2.02192 0
M  V30 19228 O 1747.11 -3.69725 1.57056 0
M  V30 19229 N 1745.32 -2.36565 1.68776 0
M  V30 19230 H 1744.86 -1.55096 2.05677 0
M  V30 19231 H 1744.82 -2.96119 1.05646 0
M  V30 19232 N 1748.59 -1.576 -0.00164943 0
M  V30 19233 C 1749.84 -1.90778 -0.68786 0
M  V30 19234 C 1750.17 -0.872138 -1.73515 0
M  V30 19235 O 1749.45 0.109349 -1.94192 0
M  V30 19236 C 1749.73 -3.34539 -1.3325 0
M  V30 19237 C 1749.58 -4.48819 -0.296862 0
M  V30 19238 C 1750.9 -3.77693 -2.25911 0
M  V30 19239 H 1748.02 -0.69381 -0.24859 0
M  V30 19240 H 1750.66 -1.89936 0.0493059 0
M  V30 19241 H 1748.81 -3.35388 -1.9608 0
M  V30 19242 H 1750.48 -4.60106 0.331635 0
M  V30 19243 H 1748.73 -4.32123 0.38105 0
M  V30 19244 H 1749.4 -5.46362 -0.786927 0
M  V30 19245 H 1751.87 -3.78386 -1.73099 0
M  V30 19246 H 1750.75 -4.79037 -2.67983 0
M  V30 19247 H 1751.01 -3.11469 -3.1375 0
M  V30 19248 N 1750.07 0.274379 -1.55193 0
M  V30 19249 C 1751.32 1.00766 -1.75995 0
M  V30 19250 C 1751.65 1.8599 -0.558679 0
M  V30 19251 O 1750.92 1.8937 0.443784 0
M  V30 19252 C 1751.21 1.89137 -3.0643 0
M  V30 19253 C 1751.06 1.06914 -4.36909 0
M  V30 19254 C 1752.38 2.87869 -3.32896 0
M  V30 19255 H 1749.5 0.364915 -0.640317 0
M  V30 19256 H 1752.14 0.280156 -1.87923 0
M  V30 19257 H 1750.29 2.51166 -2.96391 0
M  V30 19258 H 1751.96 0.469666 -4.58903 0
M  V30 19259 H 1750.21 0.372566 -4.32197 0
M  V30 19260 H 1750.88 1.72063 -5.24498 0
M  V30 19261 H 1753.35 2.35974 -3.42718 0
M  V30 19262 H 1752.23 3.46845 -4.25429 0
M  V30 19263 H 1752.49 3.62921 -2.52469 0
M  V30 19264 N 1751.55 1.48103 0.538828 0
M  V30 19265 C 1752.79 1.559 1.29704 0
M  V30 19266 C 1753.13 0.228359 1.92853 0
M  V30 19267 O 1752.4 -0.764825 1.78831 0
M  V30 19268 C 1752.69 2.69072 2.39316 0
M  V30 19269 C 1752.54 4.11812 1.80916 0
M  V30 19270 C 1753.86 2.78051 3.41138 0
M  V30 19271 H 1750.98 0.5675 0.470226 0
M  V30 19272 H 1753.62 1.80239 0.601163 0
M  V30 19273 H 1751.77 2.4845 2.98672 0
M  V30 19274 H 1753.44 4.4385 1.25679 0
M  V30 19275 H 1751.68 4.19227 1.11494 0
M  V30 19276 H 1752.35 4.86805 2.6024 0
M  V30 19277 H 1754.83 2.96707 2.91726 0
M  V30 19278 H 1753.71 3.58982 4.15239 0
M  V30 19279 H 1753.97 1.85849 4.01139 0
M  V30 19280 N 1753.03 -0.787016 1.36542 0
M  V30 19281 C 1753.97 -1.89975 1.31065 0
M  V30 19282 C 1754.94 -1.65134 0.178905 0
M  V30 19283 O 1756.13 -1.8726 0.36581 0
M  V30 19284 C 1753.27 -3.26822 1.10821 0
M  V30 19285 C 1752.38 -3.6372 2.33091 0
M  V30 19286 C 1751.52 -4.89697 2.0584 0
M  V30 19287 C 1750.56 -5.1928 3.24059 0
M  V30 19288 N 1749.69 -6.36441 2.96457 0
M  V30 19289 H 1754.53 -1.93993 2.2621 0
M  V30 19290 H 1752.07 -0.948631 1.12425 0
M  V30 19291 H 1754.03 -4.05741 0.971091 0
M  V30 19292 H 1752.66 -3.22221 0.193302 0
M  V30 19293 H 1751.71 -2.79906 2.57598 0
M  V30 19294 H 1753.02 -3.81529 3.21305 0
M  V30 19295 H 1752.18 -5.76486 1.89072 0
M  V30 19296 H 1750.91 -4.73962 1.14941 0
M  V30 19297 H 1749.92 -4.30973 3.41383 0
M  V30 19298 H 1751.14 -5.36934 4.15787 0
M  V30 19299 H 1749.09 -6.22093 2.08172 0
M  V30 19300 H 1749.01 -6.54594 3.78209 0
M  V30 19301 H 1750.28 -7.26207 2.83273 0
M  V30 19302 N 1754.5 -1.20861 -1.01145 0
M  V30 19303 C 1755.45 -0.959005 -2.1191 0
M  V30 19304 C 1756.45 0.0914738 -1.69153 0
M  V30 19305 O 1757.65 -0.0593443 -1.79902 0
M  V30 19306 H 1754.03 -0.292825 -0.692645 0
M  V30 19307 H 1756 -1.89937 -2.30145 0
M  V30 19308 C 1754.75 -0.533258 -3.43586 0
M  V30 19309 H 1754.07 -1.33319 -3.76917 0
M  V30 19310 H 1755.51 -0.397868 -4.22129 0
M  V30 19311 C 1753.97 0.755011 -3.28331 0
M  V30 19312 O 1754.5 1.81217 -3.58502 0
M  V30 19313 N 1752.71 0.719026 -2.81564 0
M  V30 19314 H 1752.25 -0.141544 -2.57211 0
M  V30 19315 H 1752.21 1.58132 -2.71738 0
M  V30 19316 N 1755.98 1.20536 -1.01532 0
M  V30 19317 C 1756.93 2.23277 -0.584486 0
M  V30 19318 C 1757.9 1.6134 0.394773 0
M  V30 19319 O 1759.08 1.88514 0.294498 0
M  V30 19320 C 1756.22 3.45024 0.0723574 0
M  V30 19321 C 1755.34 4.21395 -0.951314 0
M  V30 19322 C 1754.47 5.30535 -0.265656 0
M  V30 19323 C 1753.51 5.98649 -1.27617 0
M  V30 19324 N 1752.65 6.99381 -0.61727 0
M  V30 19325 H 1757.49 2.59489 -1.46524 0
M  V30 19326 H 1755.03 1.27507 -0.733502 0
M  V30 19327 H 1756.98 4.14541 0.470303 0
M  V30 19328 H 1755.61 3.09508 0.916768 0
M  V30 19329 H 1754.67 3.50957 -1.46743 0
M  V30 19330 H 1755.98 4.68211 -1.71989 0
M  V30 19331 H 1755.13 6.06409 0.187857 0
M  V30 19332 H 1753.87 4.84754 0.535237 0
M  V30 19333 H 1752.88 5.21537 -1.74008 0
M  V30 19334 H 1754.1 6.46516 -2.07832 0
M  V30 19335 H 1752.05 6.55796 0.163777 0
M  V30 19336 H 1751.96 7.44317 -1.32393 0
M  V30 19337 H 1753.23 7.79275 -0.187306 0
M  V30 19338 N 1757.46 0.791395 1.36289 0
M  V30 19339 C 1758.37 0.192362 2.3381 0
M  V30 19340 C 1759.39 -0.656556 1.61138 0
M  V30 19341 O 1760.56 -0.571877 1.9311 0
M  V30 19342 C 1757.63 -0.661283 3.40335 0
M  V30 19343 C 1756.69 0.206361 4.28804 0
M  V30 19344 C 1755.92 -0.606636 5.30241 0
M  V30 19345 O 1756.14 -1.84247 5.39823 0
M  V30 19346 O 1755.08 -0.00549116 6.019 0
M  V30 19347 H 1758.9 0.998723 2.86809 0
M  V30 19348 H 1756.49 0.552889 1.38793 0
M  V30 19349 H 1758.37 -1.148 4.05461 0
M  V30 19350 H 1757.05 -1.4455 2.89632 0
M  V30 19351 H 1755.95 0.739877 3.66711 0
M  V30 19352 H 1757.29 0.954142 4.82863 0
M  V30 19353 N 1758.94 -1.47929 0.54358 0
M  V30 19354 C 1760.17 -2.06591 0.0188913 0
M  V30 19355 C 1760.58 -1.39864 -1.27415 0
M  V30 19356 O 1759.92 -0.484566 -1.77194 0
M  V30 19357 C 1759.98 -3.58546 -0.261686 0
M  V30 19358 C 1759.65 -4.4723 0.939893 0
M  V30 19359 C 1760.64 -4.86179 1.8419 0
M  V30 19360 C 1758.33 -4.88941 1.15073 0
M  V30 19361 C 1760.32 -5.65622 2.93854 0
M  V30 19362 C 1758.01 -5.68152 2.25048 0
M  V30 19363 C 1759.01 -6.06402 3.1427 0
M  V30 19364 O 1758.7 -6.8402 4.22341 0
M  V30 19365 H 1758.43 -0.675009 0.0365835 0
M  V30 19366 H 1760.98 -1.91115 0.752599 0
M  V30 19367 H 1759.21 -3.72185 -1.04954 0
M  V30 19368 H 1760.9 -3.9928 -0.730099 0
M  V30 19369 H 1761.67 -4.54565 1.69101 0
M  V30 19370 H 1757.55 -4.58644 0.465479 0
M  V30 19371 H 1761.09 -5.95397 3.63522 0
M  V30 19372 H 1756.99 -5.99179 2.40115 0
M  V30 19373 H 1757.75 -7.02395 4.20219 0
M  V30 19374 N 1760.42 -0.27936 -1.55104 0
M  V30 19375 C 1761.83 0.074665 -1.59425 0
M  V30 19376 C 1762.03 1.54246 -1.29655 0
M  V30 19377 O 1761.09 2.29197 -1.05947 0
M  V30 19378 C 1762.4 -0.30379 -2.99162 0
M  V30 19379 C 1763.95 -0.250758 -3.11994 0
M  V30 19380 C 1764.43 -0.603715 -4.54004 0
M  V30 19381 N 1765.92 -0.555428 -4.59858 0
M  V30 19382 C 1766.65 -0.801278 -5.67774 0
M  V30 19383 N 1766.15 -1.11197 -6.83818 0
M  V30 19384 N 1767.94 -0.72979 -5.57342 0
M  V30 19385 H 1760.09 -1.23619 -1.7272 0
M  V30 19386 H 1762.35 -0.499704 -0.805606 0
M  V30 19387 H 1762.06 -1.32475 -3.25796 0
M  V30 19388 H 1761.93 0.353294 -3.75542 0
M  V30 19389 H 1764.32 0.760925 -2.85121 0
M  V30 19390 H 1764.4 -0.94216 -2.37817 0
M  V30 19391 H 1764.05 -1.6131 -4.81603 0
M  V30 19392 H 1763.98 0.109523 -5.26486 0
M  V30 19393 H 1766.47 -0.325348 -3.76497 0
M  V30 19394 H 1766.78 -1.28611 -7.62023 0
M  V30 19395 H 1765.13 -1.14978 -6.85423 0
M  V30 19396 H 1768.32 -0.48688 -4.65561 0
M  V30 19397 H 1768.49 -0.92477 -6.41367 0
M  V30 19398 N 1761.9 1.57599 -0.0067085 0
M  V30 19399 C 1762.83 2.11878 0.981331 0
M  V30 19400 C 1763.81 1.02949 1.35408 0
M  V30 19401 O 1764.99 1.30667 1.43665 0
M  V30 19402 C 1762.12 2.62757 2.27104 0
M  V30 19403 C 1761.08 3.76272 2.0397 0
M  V30 19404 C 1760.4 4.13491 3.39012 0
M  V30 19405 C 1761.7 5.03274 1.39688 0
M  V30 19406 H 1763.4 2.94683 0.529366 0
M  V30 19407 H 1760.94 1.41757 0.253187 0
M  V30 19408 H 1762.89 2.99359 2.96585 0
M  V30 19409 H 1761.62 1.77082 2.74426 0
M  V30 19410 H 1760.28 3.40074 1.36913 0
M  V30 19411 H 1759.93 3.24831 3.8405 0
M  V30 19412 H 1759.63 4.89972 3.24347 0
M  V30 19413 H 1761.15 4.52657 4.09797 0
M  V30 19414 H 1762.56 5.37604 1.99136 0
M  V30 19415 H 1760.96 5.84604 1.3549 0
M  V30 19416 H 1762.03 4.8351 0.366928 0
M  V30 19417 N 1763.37 -0.266145 1.55336 0
M  V30 19418 C 1764.34 -1.31242 1.87904 0
M  V30 19419 C 1765.34 -1.42022 0.754083 0
M  V30 19420 O 1766.53 -1.41054 1.02222 0
M  V30 19421 C 1763.66 -2.69285 2.09041 0
M  V30 19422 H 1764.85 -1.03592 2.81441 0
M  V30 19423 H 1762.4 -0.504537 1.47933 0
M  V30 19424 H 1763.14 -3.02106 1.17909 0
M  V30 19425 H 1762.92 -2.62846 2.90954 0
M  V30 19426 H 1764.41 -3.4487 2.35488 0
M  V30 19427 N 1764.85 -1.48386 -0.530967 0
M  V30 19428 C 1766.08 -1.60014 -1.31161 0
M  V30 19429 C 1766.49 -0.260028 -1.87001 0
M  V30 19430 O 1765.85 0.750547 -1.66352 0
M  V30 19431 C 1765.9 -2.64597 -2.46315 0
M  V30 19432 O 1765.62 -3.93407 -1.92777 0
M  V30 19433 C 1767.12 -2.86654 -3.38149 0
M  V30 19434 H 1764.34 -0.539553 -0.398902 0
M  V30 19435 H 1766.89 -1.94207 -0.64063 0
M  V30 19436 H 1765.04 -2.33265 -3.093 0
M  V30 19437 H 1765.46 -4.50774 -2.68147 0
M  V30 19438 H 1766.93 -3.63634 -4.153 0
M  V30 19439 H 1767.41 -1.95441 -3.93319 0
M  V30 19440 H 1768.01 -3.19285 -2.80957 0
M  V30 19441 N 1766.33 0.779763 -1.36958 0
M  V30 19442 C 1767.28 1.91417 -1.32145 0
M  V30 19443 C 1768.27 1.68074 -0.211572 0
M  V30 19444 O 1769.48 1.75962 -0.379139 0
M  V30 19445 H 1765.85 0.62934 -0.411624 0
M  V30 19446 H 1767.82 1.92594 -2.27926 0
M  V30 19447 C 1766.57 3.28574 -1.13729 0
M  V30 19448 H 1765.9 3.47109 -1.98383 0
M  V30 19449 H 1767.34 4.08272 -1.1441 0
M  V30 19450 C 1765.79 3.36531 0.157538 0
M  V30 19451 O 1766.32 3.85067 1.14397 0
M  V30 19452 N 1764.53 2.89872 0.205509 0
M  V30 19453 H 1764.08 2.50566 -0.597854 0
M  V30 19454 H 1764.04 2.95578 1.07151 0
M  V30 19455 N 1767.81 1.21396 1.00503 0
M  V30 19456 C 1768.77 0.974756 2.07439 0
M  V30 19457 C 1769.77 -0.0542142 1.60709 0
M  V30 19458 O 1770.96 0.183056 1.73236 0
M  V30 19459 C 1768.09 0.46989 3.37646 0
M  V30 19460 H 1769.29 1.92346 2.30094 0
M  V30 19461 H 1766.84 1.03095 1.17479 0
M  V30 19462 H 1767.57 -0.483735 3.20672 0
M  V30 19463 H 1767.36 1.2121 3.72895 0
M  V30 19464 H 1768.85 0.322393 4.16354 0
M  V30 19465 N 1769.29 -1.19996 1.0217 0
M  V30 19466 C 1770.51 -1.94007 0.733207 0
M  V30 19467 C 1770.94 -1.74565 -0.70061 0
M  V30 19468 O 1770.29 -1.04326 -1.48276 0
M  V30 19469 C 1770.34 -3.44029 1.08057 0
M  V30 19470 O 1769.45 -4.11938 0.195135 0
M  V30 19471 H 1768.79 -0.605929 0.271562 0
M  V30 19472 H 1771.32 -1.5228 1.36645 0
M  V30 19473 H 1771.33 -3.94669 1.03443 0
M  V30 19474 H 1770 -3.57502 2.1252 0
M  V30 19475 H 1768.58 -3.71697 0.299246 0
M  V30 19476 N 1770.76 -0.798611 -1.35867 0
M  V30 19477 C 1771.7 -0.161203 -2.28632 0
M  V30 19478 C 1772.71 0.634886 -1.4991 0
M  V30 19479 O 1773.9 0.468557 -1.72241 0
M  V30 19480 C 1771 0.794407 -3.29458 0
M  V30 19481 C 1770.17 0.0464031 -4.37375 0
M  V30 19482 C 1769.23 0.919313 -5.18107 0
M  V30 19483 O 1768.26 0.373179 -5.67975 0
M  V30 19484 N 1769.46 2.24243 -5.35439 0
M  V30 19485 H 1772.22 -0.958079 -2.83973 0
M  V30 19486 H 1769.78 -0.653344 -1.48132 0
M  V30 19487 H 1771.78 1.38242 -3.80357 0
M  V30 19488 H 1770.35 1.49212 -2.7469 0
M  V30 19489 H 1769.57 -0.722757 -3.87518 0
M  V30 19490 H 1770.85 -0.469417 -5.0663 0
M  V30 19491 H 1770.25 2.71017 -4.96554 0
M  V30 19492 H 1768.81 2.77986 -5.89548 0
M  V30 19493 N 1772.24 1.47639 -0.551417 0
M  V30 19494 C 1773.2 2.28419 0.188996 0
M  V30 19495 C 1774.2 1.36617 0.84808 0
M  V30 19496 O 1775.39 1.59304 0.704831 0
M  V30 19497 C 1772.53 3.16131 1.27571 0
M  V30 19498 H 1773.72 2.95348 -0.520518 0
M  V30 19499 H 1771.27 1.53232 -0.308141 0
M  V30 19500 H 1772.01 2.5388 2.0178 0
M  V30 19501 H 1771.79 3.83685 0.807984 0
M  V30 19502 H 1773.28 3.77011 1.79591 0
M  V30 19503 N 1773.72 0.287581 1.54954 0
M  V30 19504 C 1774.97 -0.324967 1.9947 0
M  V30 19505 C 1775.29 -1.55437 1.17747 0
M  V30 19506 O 1774.56 -1.9403 0.270067 0
M  V30 19507 H 1773.14 -0.123062 0.736794 0
M  V30 19508 H 1775.8 0.395805 1.90839 0
M  V30 19509 H 1774.9 -0.606265 3.06155 0
M  V30 19510 N 1775.2 -1.57593 0.0150662 0
M  V30 19511 C 1776.44 -1.91497 -0.667587 0
M  V30 19512 C 1776.78 -0.890493 -1.7258 0
M  V30 19513 O 1776.05 0.0887462 -1.94297 0
M  V30 19514 C 1776.34 -3.35934 -1.29694 0
M  V30 19515 C 1776.19 -4.49109 -0.249242 0
M  V30 19516 C 1777.51 -3.80068 -2.21893 0
M  V30 19517 H 1774.63 -0.696408 -0.241217 0
M  V30 19518 H 1777.27 -1.89873 0.0694484 0
M  V30 19519 H 1775.42 -3.37448 -1.92512 0
M  V30 19520 H 1777.09 -4.59729 0.380417 0
M  V30 19521 H 1775.33 -4.31695 0.426861 0
M  V30 19522 H 1776 -5.47166 -0.728934 0
M  V30 19523 H 1778.48 -3.80201 -1.69076 0
M  V30 19524 H 1777.36 -4.81852 -2.62887 0
M  V30 19525 H 1777.62 -3.1478 -3.10429 0
M  V30 19526 N 1776.68 0.257904 -1.55475 0
M  V30 19527 C 1777.59 1.34084 -1.92506 0
M  V30 19528 C 1778.6 1.53246 -0.824123 0
M  V30 19529 O 1779.78 1.67081 -1.12455 0
M  V30 19530 C 1776.84 2.67741 -2.20263 0
M  V30 19531 C 1775.9 2.57196 -3.43728 0
M  V30 19532 C 1775.14 3.84479 -3.7015 0
M  V30 19533 O 1775.36 4.85858 -2.98827 0
M  V30 19534 O 1774.29 3.83774 -4.63682 0
M  V30 19535 H 1778.12 1.05672 -2.84723 0
M  V30 19536 H 1775.71 0.457726 -1.42215 0
M  V30 19537 H 1777.59 3.46743 -2.39473 0
M  V30 19538 H 1776.26 2.95907 -1.31227 0
M  V30 19539 H 1775.17 1.76518 -3.29837 0
M  V30 19540 H 1776.5 2.33977 -4.33031 0
M  V30 19541 N 1778.15 1.48666 0.52309 0
M  V30 19542 C 1779.1 1.63701 1.62698 0
M  V30 19543 C 1780.07 0.478895 1.59047 0
M  V30 19544 O 1781.26 0.703229 1.77368 0
M  V30 19545 C 1778.4 1.68912 3.00936 0
M  V30 19546 C 1777.51 2.95878 3.1477 0
M  V30 19547 C 1776.64 2.92206 4.43609 0
M  V30 19548 C 1775.68 4.13846 4.50996 0
M  V30 19549 N 1774.82 4.08213 5.71233 0
M  V30 19550 H 1779.66 2.57967 1.49188 0
M  V30 19551 H 1777.2 1.27924 0.726217 0
M  V30 19552 H 1779.16 1.69915 3.81031 0
M  V30 19553 H 1777.79 0.781309 3.13202 0
M  V30 19554 H 1776.84 3.04588 2.27883 0
M  V30 19555 H 1778.15 3.85861 3.1609 0
M  V30 19556 H 1777.3 2.91649 5.32002 0
M  V30 19557 H 1776.04 1.99964 4.44821 0
M  V30 19558 H 1775.05 4.14671 3.61009 0
M  V30 19559 H 1776.27 5.07256 4.51517 0
M  V30 19560 H 1774.22 3.18794 5.73329 0
M  V30 19561 H 1774.14 4.91908 5.74075 0
M  V30 19562 H 1775.4 4.11725 6.61893 0
M  V30 19563 N 1779.63 -0.772489 1.37369 0
M  V30 19564 C 1780.88 -1.52629 1.31861 0
M  V30 19565 C 1781.19 -1.9537 -0.0947795 0
M  V30 19566 O 1782.4 -2.70131 -0.27233 0
M  V30 19567 C 1780.86 -2.75608 2.31448 0
M  V30 19568 C 1780.46 -2.39969 3.78311 0
M  V30 19569 C 1782.21 -3.53553 2.34948 0
M  V30 19570 C 1780.12 -3.59445 4.69631 0
M  V30 19571 H 1779.05 -0.573019 0.490066 0
M  V30 19572 H 1781.7 -0.846178 1.62825 0
M  V30 19573 H 1780.08 -3.45505 1.935 0
M  V30 19574 H 1781.25 -1.7786 4.25091 0
M  V30 19575 H 1779.57 -1.752 3.77748 0
M  V30 19576 H 1782.16 -4.42353 3.00379 0
M  V30 19577 H 1782.51 -3.93359 1.36287 0
M  V30 19578 H 1783.04 -2.90652 2.716 0
M  V30 19579 H 1779.78 -3.24721 5.69418 0
M  V30 19580 H 1779.3 -4.20662 4.27555 0
M  V30 19581 H 1780.98 -4.26267 4.86729 0
M  V30 19582 N 1781.11 -1.21927 -0.998575 0
M  V30 19583 C 1782.04 -1.00845 -2.106 0
M  V30 19584 C 1783.02 0.068733 -1.69961 0
M  V30 19585 O 1784.21 -0.0923686 -1.9398 0
M  V30 19586 C 1781.34 -0.57929 -3.42435 0
M  V30 19587 C 1780.29 -1.60177 -3.96897 0
M  V30 19588 C 1779.62 -1.02863 -5.24713 0
M  V30 19589 C 1780.92 -2.9903 -4.28227 0
M  V30 19590 H 1782.61 -1.93469 -2.28495 0
M  V30 19591 H 1780.16 -0.931612 -1.09804 0
M  V30 19592 H 1782.11 -0.418944 -4.19312 0
M  V30 19593 H 1780.83 0.382608 -3.24351 0
M  V30 19594 H 1779.49 -1.74979 -3.22146 0
M  V30 19595 H 1779.14 -0.058254 -5.02966 0
M  V30 19596 H 1778.84 -1.71166 -5.62117 0
M  V30 19597 H 1780.36 -0.879743 -6.04229 0
M  V30 19598 H 1781.78 -2.87634 -4.95923 0
M  V30 19599 H 1780.18 -3.64404 -4.76791 0
M  V30 19600 H 1781.25 -3.4939 -3.36236 0
M  V30 19601 N 1782.59 1.19452 -1.02805 0
M  V30 19602 C 1783.81 1.93616 -0.743485 0
M  V30 19603 C 1784.24 1.74934 0.691342 0
M  V30 19604 O 1783.6 1.05111 1.47721 0
M  V30 19605 C 1783.64 3.43451 -1.0988 0
M  V30 19606 O 1782.75 4.11829 -0.216978 0
M  V30 19607 H 1782.09 0.60448 -0.274771 0
M  V30 19608 H 1784.62 1.51554 -1.37451 0
M  V30 19609 H 1784.63 3.94115 -1.05535 0
M  V30 19610 H 1783.3 3.5637 -2.14413 0
M  V30 19611 H 1781.88 3.71533 -0.318954 0
M  V30 19612 N 1784.07 0.805805 1.35442 0
M  V30 19613 C 1785.03 0.221278 2.28129 0
M  V30 19614 C 1786.03 -0.590919 1.49549 0
M  V30 19615 O 1787.22 -0.409518 1.69318 0
M  V30 19616 C 1784.35 -0.691643 3.3381 0
M  V30 19617 H 1785.54 1.03875 2.81336 0
M  V30 19618 H 1783.1 0.5764 1.45284 0
M  V30 19619 H 1783.83 -1.53283 2.85788 0
M  V30 19620 H 1783.62 -0.110972 3.91943 0
M  V30 19621 H 1785.11 -1.09497 4.02989 0
M  V30 19622 N 1785.54 -1.47344 0.559239 0
M  V30 19623 C 1786.47 -2.32839 -0.175542 0
M  V30 19624 C 1787.46 -1.43914 -0.906787 0
M  V30 19625 O 1788.64 -1.72767 -0.886855 0
M  V30 19626 C 1785.77 -3.25735 -1.20474 0
M  V30 19627 C 1784.72 -4.23916 -0.589825 0
M  V30 19628 C 1784.05 -5.06151 -1.7238 0
M  V30 19629 C 1785.35 -5.2029 0.457733 0
M  V30 19630 H 1787.04 -2.94522 0.538225 0
M  V30 19631 H 1784.59 -1.41628 0.260282 0
M  V30 19632 H 1786.54 -3.84388 -1.72695 0
M  V30 19633 H 1785.27 -2.62111 -1.94847 0
M  V30 19634 H 1783.93 -3.66492 -0.0888897 0
M  V30 19635 H 1783.57 -4.38929 -2.45663 0
M  V30 19636 H 1783.27 -5.72625 -1.31813 0
M  V30 19637 H 1784.8 -5.67663 -2.24923 0
M  V30 19638 H 1786.21 -5.73296 0.0215019 0
M  V30 19639 H 1784.61 -5.94978 0.7824 0
M  V30 19640 H 1785.68 -4.65645 1.35286 0
M  V30 19641 N 1787.02 -0.295795 -1.54799 0
M  V30 19642 C 1787.93 0.592206 -2.27002 0
M  V30 19643 C 1788.95 1.1528 -1.30332 0
M  V30 19644 O 1790.12 1.1787 -1.63305 0
M  V30 19645 C 1787.19 1.75027 -2.99277 0
M  V30 19646 C 1786.25 1.22427 -4.11473 0
M  V30 19647 C 1785.48 2.32714 -4.80291 0
M  V30 19648 O 1785.71 3.52506 -4.48437 0
M  V30 19649 O 1784.64 1.997 -5.67806 0
M  V30 19650 H 1788.47 0.00666048 -3.03699 0
M  V30 19651 H 1786.05 -0.0624413 -1.49269 0
M  V30 19652 H 1787.93 2.42508 -3.44627 0
M  V30 19653 H 1786.61 2.32252 -2.25479 0
M  V30 19654 H 1785.52 0.515337 -3.70534 0
M  V30 19655 H 1786.85 0.697518 -4.87233 0
M  V30 19656 N 1788.5 1.57583 -0.0234236 0
M  V30 19657 C 1789.75 1.90742 0.655764 0
M  V30 19658 C 1790.06 0.900914 1.73617 0
M  V30 19659 O 1791.27 1.12355 2.47161 0
M  V30 19660 C 1789.73 3.38676 1.21763 0
M  V30 19661 C 1789.33 4.47674 0.170811 0
M  V30 19662 C 1791.08 3.80912 1.87366 0
M  V30 19663 C 1788.98 5.86702 0.743996 0
M  V30 19664 H 1787.91 0.711803 0.248701 0
M  V30 19665 H 1790.57 1.8329 -0.0877955 0
M  V30 19666 H 1788.95 3.41042 2.01262 0
M  V30 19667 H 1790.12 4.5686 -0.601298 0
M  V30 19668 H 1788.44 4.14606 -0.386127 0
M  V30 19669 H 1791.03 4.82133 2.31197 0
M  V30 19670 H 1791.38 3.15669 2.71402 0
M  V30 19671 H 1791.91 3.80945 1.14566 0
M  V30 19672 H 1788.65 6.55474 -0.0580976 0
M  V30 19673 H 1788.17 5.81133 1.48472 0
M  V30 19674 H 1789.85 6.35094 1.23549 0
M  V30 19675 N 1789.98 -0.249655 1.5561 0
M  V30 19676 C 1791.39 -0.818934 1.67781 0
M  V30 19677 C 1791.74 -1.86134 0.620374 0
M  V30 19678 O 1790.87 -2.15133 -0.233869 0
M  V30 19679 C 1791.46 -1.49219 3.0417 0
M  V30 19680 C 1790.02 -2.0092 3.18289 0
M  V30 19681 C 1789.17 -0.859333 2.63649 0
M  V30 19682 H 1792.12 -0.0255186 1.58679 0
M  V30 19683 H 1792.14 -2.36011 2.98461 0
M  V30 19684 H 1791.65 -0.733268 3.8111 0
M  V30 19685 H 1789.75 -2.79701 2.46167 0
M  V30 19686 H 1789.87 -2.20848 4.25163 0
M  V30 19687 H 1788.23 -1.2591 2.21402 0
M  V30 19688 H 1789.01 -0.113545 3.43112 0
M  V30 19689 N 1791.46 -1.48941 -0.515198 0
M  V30 19690 C 1792.73 -1.48205 -1.27651 0
M  V30 19691 C 1793.11 -0.201866 -2.10133 0
M  V30 19692 O 1792.46 0.816115 -2.13429 0
M  V30 19693 C 1792.67 -2.75274 -2.14535 0
M  V30 19694 C 1794.02 -3.24198 -2.74192 0
M  V30 19695 O 1795.04 -2.76293 -2.24813 0
M  V30 19696 O 1793.9 -4.07593 -3.64047 0
M  V30 19697 H 1791 -0.592546 -0.576904 0
M  V30 19698 H 1793.54 -1.6119 -0.530636 0
M  V30 19699 H 1792.32 -3.59949 -1.53469 0
M  V30 19700 H 1791.94 -2.6508 -2.96342 0
M  V30 19701 N 1792.94 0.765193 -1.37777 0
M  V30 19702 C 1794.18 1.52623 -1.33545 0
M  V30 19703 C 1794.51 1.94043 0.077992 0
M  V30 19704 O 1793.79 1.64566 1.03673 0
M  V30 19705 C 1794.07 2.78679 -2.28057 0
M  V30 19706 C 1793.93 2.43471 -3.78209 0
M  V30 19707 C 1795.24 3.80646 -2.20899 0
M  V30 19708 H 1792.36 0.553678 -0.486425 0
M  V30 19709 H 1795.01 0.877326 -1.68532 0
M  V30 19710 H 1793.16 3.3405 -1.9835 0
M  V30 19711 H 1794.83 1.93965 -4.1854 0
M  V30 19712 H 1793.07 1.76081 -3.96457 0
M  V30 19713 H 1793.74 3.33609 -4.39783 0
M  V30 19714 H 1796.22 3.34786 -2.47099 0
M  V30 19715 H 1795.09 4.6656 -2.89159 0
M  V30 19716 H 1795.35 4.25389 -1.20403 0
M  V30 19717 N 1794.41 1.22455 0.992094 0
M  V30 19718 C 1795.66 1.04752 1.72833 0
M  V30 19719 C 1795.98 -0.418152 1.90464 0
M  V30 19720 O 1795.25 -1.30072 1.46486 0
M  V30 19721 H 1793.83 0.384626 0.640368 0
M  V30 19722 H 1796.49 1.5398 1.19483 0
M  V30 19723 H 1795.59 1.52601 2.72249 0
M  V30 19724 N 1795.89 -1.18905 1.03437 0
M  V30 19725 C 1796.84 -2.24362 0.613557 0
M  V30 19726 C 1797.83 -1.65605 -0.356541 0
M  V30 19727 O 1799.04 -1.78594 -0.22452 0
M  V30 19728 H 1795.41 -0.730098 0.18017 0
M  V30 19729 H 1797.39 -2.57168 1.51351 0
M  V30 19730 C 1796.13 -3.47697 -0.0141125 0
M  V30 19731 H 1795.46 -3.93201 0.723394 0
M  V30 19732 H 1796.9 -4.2313 -0.271424 0
M  V30 19733 C 1795.36 -3.12357 -1.26232 0
M  V30 19734 O 1795.89 -3.25515 -2.35378 0
M  V30 19735 N 1794.09 -2.6674 -1.15318 0
M  V30 19736 H 1793.64 -2.56233 -0.26501 0
M  V30 19737 H 1793.6 -2.43466 -1.98927 0
M  V30 19738 N 1797.37 -0.812977 -1.35013 0
M  V30 19739 C 1798.3 -0.242397 -2.32238 0
M  V30 19740 C 1799.28 0.635676 -1.57776 0
M  V30 19741 O 1800.47 0.564621 -1.85811 0
M  V30 19742 C 1797.6 0.604686 -3.41995 0
M  V30 19743 C 1796.55 -0.17542 -4.2764 0
M  V30 19744 C 1795.88 0.793772 -5.28775 0
M  V30 19745 C 1797.18 -1.37802 -5.03794 0
M  V30 19746 H 1798.87 -1.0547 -2.80208 0
M  V30 19747 H 1796.42 -0.508619 -1.34718 0
M  V30 19748 H 1798.37 1.01396 -4.09019 0
M  V30 19749 H 1797.09 1.44994 -2.9265 0
M  V30 19750 H 1795.75 -0.565948 -3.62205 0
M  V30 19751 H 1795.4 1.63471 -4.75696 0
M  V30 19752 H 1795.1 0.276085 -5.86951 0
M  V30 19753 H 1796.62 1.20112 -5.9867 0
M  V30 19754 H 1798.04 -1.04328 -5.63727 0
M  V30 19755 H 1796.43 -1.83064 -5.71496 0
M  V30 19756 H 1797.5 -2.16138 -4.34065 0
M  V30 19757 N 1798.85 1.47045 -0.567045 0
M  V30 19758 C 1800.07 2.0734 -0.0498828 0
M  V30 19759 C 1800.5 1.41545 1.23881 0
M  V30 19760 O 1799.86 0.493798 1.74446 0
M  V30 19761 C 1799.9 3.60404 0.118782 0
M  V30 19762 O 1799.01 3.95186 1.17905 0
M  V30 19763 H 1798.35 0.661656 -0.055746 0
M  V30 19764 H 1800.88 1.8892 -0.78553 0
M  V30 19765 H 1800.89 4.06664 0.3299 0
M  V30 19766 H 1799.56 4.07688 -0.822409 0
M  V30 19767 H 1798.14 3.60658 0.947644 0
M  V30 19768 N 1800.33 0.304 1.5464 0
M  V30 19769 C 1801.26 -0.604475 2.21085 0
M  V30 19770 C 1802.27 -1.0952 1.20454 0
M  V30 19771 O 1803.46 -1.01214 1.47031 0
M  V30 19772 C 1800.56 -1.8399 2.84607 0
M  V30 19773 C 1799.73 -1.49116 4.11197 0
M  V30 19774 C 1798.79 -2.58205 4.58494 0
M  V30 19775 O 1797.82 -2.23171 5.23625 0
M  V30 19776 N 1799.02 -3.88798 4.31065 0
M  V30 19777 H 1801.78 -0.035633 2.99679 0
M  V30 19778 H 1799.35 0.126332 1.61406 0
M  V30 19779 H 1801.34 -2.56322 3.13179 0
M  V30 19780 H 1799.91 -2.31706 2.09836 0
M  V30 19781 H 1799.13 -0.600347 3.89602 0
M  V30 19782 H 1800.42 -1.23358 4.93619 0
M  V30 19783 H 1799.81 -4.20068 3.78892 0
M  V30 19784 H 1798.37 -4.57419 4.6434 0
M  V30 19785 N 1801.8 -1.57568 0.0317802 0
M  V30 19786 C 1803.05 -1.92194 -0.647238 0
M  V30 19787 C 1803.38 -0.908747 -1.71626 0
M  V30 19788 O 1802.66 0.0681334 -1.94381 0
M  V30 19789 C 1802.94 -3.3729 -1.26124 0
M  V30 19790 C 1802.79 -4.49348 -0.201594 0
M  V30 19791 C 1804.11 -3.824 -2.17849 0
M  V30 19792 H 1801.23 -0.698927 -0.233817 0
M  V30 19793 H 1803.87 -1.89789 0.0895831 0
M  V30 19794 H 1802.02 -3.39471 -1.88922 0
M  V30 19795 H 1803.7 -4.59299 0.429155 0
M  V30 19796 H 1801.94 -4.31218 0.472624 0
M  V30 19797 H 1802.61 -5.47908 -0.670859 0
M  V30 19798 H 1805.09 -3.81972 -1.65034 0
M  V30 19799 H 1803.96 -4.84614 -2.57761 0
M  V30 19800 H 1804.22 -3.18054 -3.07073 0
M  V30 19801 N 1803.28 0.241399 -1.5574 0
M  V30 19802 C 1804.53 0.970098 -1.78093 0
M  V30 19803 C 1804.86 1.84763 -0.598005 0
M  V30 19804 O 1804.14 1.90268 0.403516 0
M  V30 19805 C 1804.42 1.82594 -3.10373 0
M  V30 19806 C 1804.27 0.976228 -4.39078 0
M  V30 19807 C 1805.59 2.80743 -3.38927 0
M  V30 19808 H 1802.71 0.35125 -0.647914 0
M  V30 19809 H 1805.35 0.240232 -1.88475 0
M  V30 19810 H 1803.5 2.44823 -3.01652 0
M  V30 19811 H 1805.17 0.37222 -4.59796 0
M  V30 19812 H 1803.42 0.280807 -4.3289 0
M  V30 19813 H 1804.09 1.60899 -5.2803 0
M  V30 19814 H 1806.56 2.28651 -3.47646 0
M  V30 19815 H 1805.44 3.37743 -4.3269 0
M  V30 19816 H 1805.7 3.57484 -2.6011 0
M  V30 19817 N 1804.76 1.49212 0.507292 0
M  V30 19818 C 1806.01 1.58616 1.26368 0
M  V30 19819 C 1806.34 0.269215 1.92325 0
M  V30 19820 O 1805.61 -0.72672 1.80414 0
M  V30 19821 C 1805.9 2.74088 2.33555 0
M  V30 19822 C 1805.75 4.15557 1.7214 0
M  V30 19823 C 1807.07 2.85225 3.35164 0
M  V30 19824 H 1804.19 0.577347 0.458083 0
M  V30 19825 H 1806.83 1.81473 0.562797 0
M  V30 19826 H 1804.98 2.5473 2.93335 0
M  V30 19827 H 1806.65 4.46416 1.16236 0
M  V30 19828 H 1804.9 4.21498 1.02576 0
M  V30 19829 H 1805.57 4.92215 2.49856 0
M  V30 19830 H 1808.04 3.02828 2.85367 0
M  V30 19831 H 1806.92 3.67709 4.07531 0
M  V30 19832 H 1807.18 1.94316 3.97107 0
M  V30 19833 N 1806.24 -0.757876 1.38181 0
M  V30 19834 C 1807.17 -1.87937 1.29441 0
M  V30 19835 C 1808.15 -1.61685 0.172246 0
M  V30 19836 O 1809.33 -1.85244 0.348836 0
M  V30 19837 C 1806.46 -3.23459 1.00459 0
M  V30 19838 C 1805.51 -3.68604 2.14554 0
M  V30 19839 S 1806.34 -3.80645 3.76656 0
M  V30 19840 C 1807.5 -5.18993 3.49853 0
M  V30 19841 H 1807.73 -1.95064 2.2436 0
M  V30 19842 H 1805.26 -0.920415 1.23967 0
M  V30 19843 H 1807.22 -4.01725 0.844209 0
M  V30 19844 H 1805.88 -3.14016 0.0726505 0
M  V30 19845 H 1805.07 -4.66892 1.8981 0
M  V30 19846 H 1804.68 -2.97479 2.26677 0
M  V30 19847 H 1806.97 -6.0461 3.05701 0
M  V30 19848 H 1807.91 -5.48755 4.47519 0
M  V30 19849 H 1808.32 -4.87587 2.84463 0
M  V30 19850 N 1807.72 -1.22979 -0.985586 0
M  V30 19851 C 1808.66 -1.00637 -2.07704 0
M  V30 19852 C 1809.63 0.0744076 -1.65933 0
M  V30 19853 O 1810.82 -0.0766583 -1.90646 0
M  V30 19854 C 1807.96 -0.598088 -3.39878 0
M  V30 19855 C 1807.07 -1.75043 -3.94948 0
M  V30 19856 C 1806.21 -1.28943 -5.15313 0
M  V30 19857 C 1805.25 -2.41285 -5.62537 0
M  V30 19858 N 1804.38 -1.9618 -6.74135 0
M  V30 19859 H 1809.22 -1.94063 -2.26149 0
M  V30 19860 H 1806.76 -0.966841 -1.10863 0
M  V30 19861 H 1808.72 -0.342503 -4.15792 0
M  V30 19862 H 1807.35 0.299167 -3.21411 0
M  V30 19863 H 1806.4 -2.12015 -3.15838 0
M  V30 19864 H 1807.71 -2.5952 -4.25971 0
M  V30 19865 H 1806.87 -0.99166 -5.98541 0
M  V30 19866 H 1805.6 -0.41496 -4.85931 0
M  V30 19867 H 1804.61 -2.71842 -4.77893 0
M  V30 19868 H 1805.83 -3.2926 -5.9394 0
M  V30 19869 H 1803.78 -1.11105 -6.46523 0
M  V30 19870 H 1803.7 -2.74219 -7.04514 0
M  V30 19871 H 1804.97 -1.69492 -7.6085 0
M  V30 19872 N 1809.19 1.18355 -1.04066 0
M  V30 19873 C 1810.42 1.92816 -0.763979 0
M  V30 19874 C 1810.84 1.75658 0.672749 0
M  V30 19875 O 1810.2 1.06671 1.46598 0
M  V30 19876 C 1810.25 3.42267 -1.13516 0
M  V30 19877 O 1809.35 4.11576 -0.260646 0
M  V30 19878 H 1808.7 0.601532 -0.281167 0
M  V30 19879 H 1811.23 1.50087 -1.3905 0
M  V30 19880 H 1811.24 3.92973 -1.09709 0
M  V30 19881 H 1809.91 3.54076 -2.18181 0
M  V30 19882 H 1808.49 3.71174 -0.358342 0
M  V30 19883 N 1810.67 0.820125 1.3458 0
M  V30 19884 C 1811.62 0.237994 2.2957 0
M  V30 19885 C 1812.59 -0.635637 1.53456 0
M  V30 19886 O 1813.77 -0.57787 1.81839 0
M  V30 19887 C 1810.91 -0.596426 3.39907 0
M  V30 19888 C 1810.03 0.29914 4.30963 0
M  V30 19889 C 1809.16 -0.54458 5.28401 0
M  V30 19890 C 1808.2 0.350546 6.11095 0
M  V30 19891 N 1807.34 -0.453936 7.00631 0
M  V30 19892 H 1812.18 1.0534 2.7876 0
M  V30 19893 H 1809.72 0.530977 1.37183 0
M  V30 19894 H 1811.67 -1.0955 4.0256 0
M  V30 19895 H 1810.3 -1.37697 2.91958 0
M  V30 19896 H 1809.36 0.916412 3.69196 0
M  V30 19897 H 1810.67 0.987544 4.88926 0
M  V30 19898 H 1809.82 -1.10825 5.96492 0
M  V30 19899 H 1808.56 -1.2665 4.70968 0
M  V30 19900 H 1807.57 0.926375 5.41939 0
M  V30 19901 H 1808.79 1.07054 6.70609 0
M  V30 19902 H 1806.74 -1.15958 6.4567 0
M  V30 19903 H 1806.65 0.176138 7.55795 0
M  V30 19904 H 1807.92 -1.00044 7.73053 0
M  V30 19905 N 1812.15 -1.46743 0.574835 0
M  V30 19906 C 1813.1 -2.31935 -0.175778 0
M  V30 19907 C 1814.09 -1.44005 -0.892128 0
M  V30 19908 O 1815.3 -1.60674 -0.81141 0
M  V30 19909 H 1811.67 -0.748195 -0.0755558 0
M  V30 19910 H 1813.64 -2.93066 0.561671 0
M  V30 19911 C 1812.39 -3.27018 -1.18128 0
M  V30 19912 H 1811.72 -3.94652 -0.639492 0
M  V30 19913 H 1813.16 -3.89424 -1.67704 0
M  V30 19914 C 1811.62 -2.51802 -2.23824 0
M  V30 19915 O 1812.15 -2.2753 -3.31048 0
M  V30 19916 N 1810.35 -2.12501 -1.98221 0
M  V30 19917 H 1809.9 -2.32441 -1.11035 0
M  V30 19918 H 1809.86 -1.62494 -2.69153 0
M  V30 19919 N 1813.63 -0.312197 -1.54477 0
M  V30 19920 C 1814.91 0.347462 -1.92489 0
M  V30 19921 C 1815.29 1.70797 -1.24063 0
M  V30 19922 O 1814.63 2.25313 -0.380296 0
M  V30 19923 C 1814.84 0.450992 -3.46074 0
M  V30 19924 C 1816.19 0.716618 -4.18509 0
M  V30 19925 O 1817.22 0.534364 -3.52169 0
M  V30 19926 O 1816.07 1.06744 -5.35974 0
M  V30 19927 H 1813.17 0.196248 -0.803378 0
M  V30 19928 H 1815.71 -0.361078 -1.65814 0
M  V30 19929 H 1814.49 -0.504982 -3.88028 0
M  V30 19930 H 1814.11 1.20756 -3.78819 0
M  V30 19931 N 1815.11 1.57549 -0.040136 0
M  V30 19932 C 1816.04 2.07803 0.966975 0
M  V30 19933 C 1817.05 1.00363 1.28184 0
M  V30 19934 O 1818.24 1.27957 1.24456 0
M  V30 19935 C 1815.34 2.49688 2.29149 0
M  V30 19936 C 1814.51 3.80336 2.16017 0
M  V30 19937 C 1813.57 4.08652 3.31497 0
M  V30 19938 O 1812.6 4.78739 3.07892 0
M  V30 19939 N 1813.8 3.59693 4.55633 0
M  V30 19940 H 1816.57 2.94829 0.538115 0
M  V30 19941 H 1814.13 1.61237 0.146368 0
M  V30 19942 H 1816.12 2.65715 3.0525 0
M  V30 19943 H 1814.69 1.67969 2.63638 0
M  V30 19944 H 1813.91 3.73998 1.24575 0
M  V30 19945 H 1815.2 4.65912 2.04458 0
M  V30 19946 H 1814.59 3.03012 4.77703 0
M  V30 19947 H 1813.15 3.80978 5.28866 0
M  V30 19948 N 1816.58 -0.233136 1.55866 0
M  V30 19949 C 1817.83 -0.957324 1.77988 0
M  V30 19950 C 1818.15 -1.85325 0.606593 0
M  V30 19951 O 1817.42 -1.92237 -0.377047 0
M  V30 19952 H 1816 -0.356474 0.656457 0
M  V30 19953 H 1818.67 -0.247774 1.93319 0
M  V30 19954 H 1817.76 -1.57096 2.6968 0
M  V30 19955 N 1818.06 -1.49479 -0.499372 0
M  V30 19956 C 1819.31 -1.58295 -1.25003 0
M  V30 19957 C 1819.63 -0.275616 -1.93648 0
M  V30 19958 O 1820.83 -0.24234 -2.70416 0
M  V30 19959 C 1819.29 -2.793 -2.26979 0
M  V30 19960 C 1818.9 -4.16799 -1.64264 0
M  V30 19961 C 1820.64 -2.97447 -3.02862 0
M  V30 19962 C 1818.55 -5.29025 -2.6436 0
M  V30 19963 H 1817.48 -0.589398 -0.470241 0
M  V30 19964 H 1820.13 -1.75868 -0.523698 0
M  V30 19965 H 1818.51 -2.55225 -3.02781 0
M  V30 19966 H 1819.68 -4.51018 -0.944432 0
M  V30 19967 H 1818 -4.04024 -1.00765 0
M  V30 19968 H 1820.6 -3.78461 -3.77719 0
M  V30 19969 H 1820.94 -2.08071 -3.60572 0
M  V30 19970 H 1821.47 -3.2157 -2.34175 0
M  V30 19971 H 1818.21 -6.20466 -2.11429 0
M  V30 19972 H 1817.73 -4.99258 -3.32417 0
M  V30 19973 H 1819.41 -5.58427 -3.26755 0
M  V30 19974 N 1819.54 0.750537 -1.38581 0
M  V30 19975 C 1820.77 1.53978 -1.38196 0
M  V30 19976 C 1821.18 1.8878 0.0274976 0
M  V30 19977 O 1820.54 1.52997 0.994894 0
M  V30 19978 C 1820.59 2.83702 -2.24043 0
M  V30 19979 O 1820.31 2.50384 -3.59499 0
M  V30 19980 C 1821.81 3.77823 -2.31872 0
M  V30 19981 H 1819.03 0.476345 -0.472585 0
M  V30 19982 H 1821.58 0.928634 -1.82199 0
M  V30 19983 H 1819.73 3.41187 -1.83494 0
M  V30 19984 H 1820.15 3.33605 -4.04732 0
M  V30 19985 H 1821.62 4.65788 -2.96218 0
M  V30 19986 H 1822.1 4.18474 -1.33327 0
M  V30 19987 H 1822.7 3.26262 -2.72824 0
M  V30 19988 N 1821.02 1.235 0.979051 0
M  V30 19989 C 1821.97 1.01485 2.09293 0
M  V30 19990 C 1822.96 -0.0465937 1.69336 0
M  V30 19991 O 1824.17 0.107021 1.79682 0
M  V30 19992 H 1820.54 0.311087 0.684638 0
M  V30 19993 H 1822.51 1.95972 2.25028 0
M  V30 19994 C 1821.26 0.624167 3.42052 0
M  V30 19995 H 1820.59 1.43265 3.73249 0
M  V30 19996 H 1822.03 0.509648 4.20926 0
M  V30 19997 C 1820.48 -0.667694 3.30217 0
M  V30 19998 O 1821.01 -1.71648 3.6318 0
M  V30 19999 N 1819.22 -0.644122 2.83372 0
M  V30 20000 H 1818.77 0.20969 2.56745 0
M  V30 20001 H 1818.73 -1.50872 2.75835 0
M  V30 20002 N 1822.5 -1.17802 1.04693 0
M  V30 20003 C 1823.44 -2.21648 0.643478 0
M  V30 20004 C 1824.41 -1.6233 -0.351858 0
M  V30 20005 O 1825.6 -1.89228 -0.244414 0
M  V30 20006 C 1822.74 -3.45095 0.019145 0
M  V30 20007 C 1821.85 -4.18725 1.06271 0
M  V30 20008 C 1820.99 -5.29644 0.406224 0
M  V30 20009 C 1820.03 -5.95055 1.43444 0
M  V30 20010 N 1819.16 -6.97499 0.802482 0
M  V30 20011 H 1824 -2.55513 1.53352 0
M  V30 20012 H 1821.54 -1.25518 0.767051 0
M  V30 20013 H 1823.5 -4.15642 -0.36023 0
M  V30 20014 H 1822.13 -3.1183 -0.834386 0
M  V30 20015 H 1821.18 -3.46943 1.55996 0
M  V30 20016 H 1822.49 -4.63486 1.84342 0
M  V30 20017 H 1821.65 -6.06694 -0.027012 0
M  V30 20018 H 1820.39 -4.86003 -0.406525 0
M  V30 20019 H 1819.39 -5.1674 1.87775 0
M  V30 20020 H 1820.62 -6.40778 2.249 0
M  V30 20021 H 1818.56 -6.55999 0.010153 0
M  V30 20022 H 1818.48 -7.40545 1.52081 0
M  V30 20023 H 1819.75 -7.78504 0.393852 0
M  V30 20024 N 1823.98 -0.827251 -1.34143 0
M  V30 20025 C 1825.22 -0.423301 -1.99969 0
M  V30 20026 C 1825.58 0.996013 -1.64145 0
M  V30 20027 O 1826.78 1.50307 -2.22848 0
M  V30 20028 C 1825.05 -0.624388 -3.51904 0
M  V30 20029 S 1826.61 -0.31393 -4.37676 0
M  V30 20030 H 1823.43 -0.15974 -0.692823 0
M  V30 20031 H 1826.03 -1.07401 -1.63356 0
M  V30 20032 H 1824.73 -1.65696 -3.75464 0
M  V30 20033 H 1824.27 0.040897 -3.93379 0
M  V30 20034 H 1826.28 0.870745 -4.885 0
M  V30 20035 N 1825.45 1.46436 -0.582609 0
M  V30 20036 C 1826.4 2.30308 0.150697 0
M  V30 20037 C 1827.37 1.40611 0.884185 0
M  V30 20038 O 1828.56 1.6956 0.874874 0
M  V30 20039 C 1825.7 3.25074 1.15847 0
M  V30 20040 C 1824.81 4.2987 0.428442 0
M  V30 20041 C 1823.94 5.11765 1.42373 0
M  V30 20042 C 1822.98 6.0831 0.680103 0
M  V30 20043 N 1822.12 6.83073 1.62345 0
M  V30 20044 H 1826.96 2.92487 -0.570583 0
M  V30 20045 H 1824.5 1.44148 -0.293195 0
M  V30 20046 H 1826.45 3.78462 1.75563 0
M  V30 20047 H 1825.08 2.64704 1.84747 0
M  V30 20048 H 1824.14 3.7934 -0.283744 0
M  V30 20049 H 1825.45 4.98566 -0.15291 0
M  V30 20050 H 1824.6 5.69429 2.09369 0
M  V30 20051 H 1823.34 4.4303 2.03902 0
M  V30 20052 H 1822.35 5.498 -0.00363067 0
M  V30 20053 H 1823.57 6.79064 0.0702152 0
M  V30 20054 H 1821.52 6.17048 2.22684 0
M  V30 20055 H 1821.43 7.48029 1.0949 0
M  V30 20056 H 1822.7 7.45295 2.28376 0
M  V30 20057 N 1826.93 0.320385 1.54309 0
M  V30 20058 C 1827.86 -0.589487 2.20455 0
M  V30 20059 C 1828.84 -1.11816 1.1805 0
M  V30 20060 O 1830.03 -1.18276 1.46776 0
M  V30 20061 C 1827.15 -1.80854 2.86373 0
M  V30 20062 C 1826.2 -1.41139 4.0247 0
M  V30 20063 S 1827.03 -0.450803 5.33599 0
M  V30 20064 C 1828.19 -1.67721 6.03009 0
M  V30 20065 H 1828.42 -0.0275989 2.97287 0
M  V30 20066 H 1825.95 0.104475 1.54046 0
M  V30 20067 H 1827.91 -2.50803 3.24974 0
M  V30 20068 H 1826.57 -2.34161 2.0935 0
M  V30 20069 H 1825.77 -2.31969 4.47444 0
M  V30 20070 H 1825.37 -0.791646 3.65526 0
M  V30 20071 H 1827.66 -2.6151 6.24995 0
M  V30 20072 H 1828.6 -1.26968 6.96624 0
M  V30 20073 H 1829.01 -1.86274 5.32881 0
M  V30 20074 N 1828.41 -1.57525 0.0484906 0
M  V30 20075 C 1829.36 -2.12552 -0.944684 0
M  V30 20076 C 1830.35 -1.05668 -1.32403 0
M  V30 20077 O 1831.56 -1.2408 -1.304 0
M  V30 20078 H 1827.93 -0.679336 -0.3225 0
M  V30 20079 H 1829.9 -2.94904 -0.455442 0
M  V30 20080 C 1828.65 -2.68333 -2.21117 0
M  V30 20081 H 1827.98 -3.50237 -1.92806 0
M  V30 20082 H 1829.42 -3.10459 -2.88775 0
M  V30 20083 C 1827.87 -1.61982 -2.95404 0
M  V30 20084 O 1828.4 -1.03102 -3.88243 0
M  V30 20085 N 1826.61 -1.33566 -2.58086 0
M  V30 20086 H 1826.16 -1.81635 -1.82665 0
M  V30 20087 H 1826.12 -0.626371 -3.08097 0
M  V30 20088 N 1829.89 0.224867 -1.55988 0
M  V30 20089 C 1830.82 1.28192 -1.95164 0
M  V30 20090 C 1831.8 1.49062 -0.81942 0
M  V30 20091 O 1832.98 1.61301 -1.08146 0
M  V30 20092 C 1830.11 2.63237 -2.26547 0
M  V30 20093 C 1829.07 2.57029 -3.42228 0
M  V30 20094 C 1828.39 3.96073 -3.59207 0
M  V30 20095 C 1829.69 2.12101 -4.77295 0
M  V30 20096 H 1831.39 0.956495 -2.8371 0
M  V30 20097 H 1828.93 0.458673 -1.365 0
M  V30 20098 H 1830.89 3.37341 -2.52545 0
M  V30 20099 H 1829.61 2.97461 -1.3485 0
M  V30 20100 H 1828.27 1.85382 -3.16273 0
M  V30 20101 H 1827.92 4.27599 -2.64892 0
M  V30 20102 H 1827.62 3.92802 -4.37013 0
M  V30 20103 H 1829.14 4.71844 -3.8755 0
M  V30 20104 H 1830.56 2.75946 -5.0252 0
M  V30 20105 H 1828.95 2.19895 -5.5836 0
M  V30 20106 H 1830.02 1.07319 -4.72875 0
M  V30 20107 N 1831.37 1.49742 0.491438 0
M  V30 20108 C 1832.3 1.63245 1.60884 0
M  V30 20109 C 1833.31 0.514713 1.54449 0
M  V30 20110 O 1834.5 0.787136 1.60207 0
M  V30 20111 C 1831.6 1.58202 2.99709 0
M  V30 20112 C 1830.77 2.8567 3.31227 0
M  V30 20113 C 1829.83 2.73548 4.49509 0
M  V30 20114 O 1828.86 3.47492 4.50819 0
M  V30 20115 N 1830.06 1.85734 5.49985 0
M  V30 20116 H 1832.82 2.5962 1.49724 0
M  V30 20117 H 1830.39 1.46951 0.679494 0
M  V30 20118 H 1832.38 1.47734 3.76771 0
M  V30 20119 H 1830.95 0.696461 3.04743 0
M  V30 20120 H 1830.17 3.10418 2.4297 0
M  V30 20121 H 1831.46 3.70156 3.49088 0
M  V30 20122 H 1830.85 1.24933 5.51732 0
M  V30 20123 H 1829.41 1.81182 6.26112 0
M  V30 20124 N 1832.84 -0.743177 1.38977 0
M  V30 20125 C 1834.12 -1.49384 1.26269 0
M  V30 20126 C 1834.5 -2.10691 -0.131349 0
M  V30 20127 O 1833.85 -1.97925 -1.14183 0
M  V30 20128 C 1834.06 -2.55184 2.3808 0
M  V30 20129 C 1835.41 -3.21796 2.77006 0
M  V30 20130 O 1836.43 -2.65493 2.37469 0
M  V30 20131 O 1835.29 -4.23656 3.45222 0
M  V30 20132 H 1832.38 -0.662968 0.49437 0
M  V30 20133 H 1834.93 -0.7777 1.50831 0
M  V30 20134 H 1833.7 -2.08204 3.31311 0
M  V30 20135 H 1833.33 -3.34366 2.15139 0
M  V30 20136 N 1834.32 -1.24018 -0.972487 0
M  V30 20137 C 1835.27 -1.02594 -2.08752 0
M  V30 20138 C 1836.26 0.0376128 -1.69358 0
M  V30 20139 O 1837.47 -0.116549 -1.79622 0
M  V30 20140 H 1833.85 -0.314713 -0.682979 0
M  V30 20141 H 1835.82 -1.97163 -2.23985 0
M  V30 20142 C 1834.57 -0.642298 -3.41716 0
M  V30 20143 H 1833.89 -1.45243 -3.72484 0
M  V30 20144 H 1835.33 -0.531964 -4.2065 0
M  V30 20145 C 1833.79 0.650173 -3.30567 0
M  V30 20146 O 1834.32 1.6972 -3.64085 0
M  V30 20147 N 1832.52 0.629085 -2.83709 0
M  V30 20148 H 1832.07 -0.223302 -2.5663 0
M  V30 20149 H 1832.03 1.49407 -2.76631 0
M  V30 20150 N 1835.8 1.17245 -1.05316 0
M  V30 20151 C 1836.75 2.23357 -0.649174 0
M  V30 20152 C 1837.74 1.66152 0.33015 0
M  V30 20153 O 1838.95 1.78929 0.196078 0
M  V30 20154 H 1835.32 0.727139 -0.191762 0
M  V30 20155 H 1837.29 2.54728 -1.55423 0
M  V30 20156 C 1836.04 3.47676 -0.0412049 0
M  V30 20157 H 1835.37 3.92 -0.785858 0
M  V30 20158 H 1836.81 4.23509 0.204073 0
M  V30 20159 C 1835.27 3.14326 1.21247 0
M  V30 20160 O 1835.8 3.29218 2.3017 0
M  V30 20161 N 1834 2.68541 1.1106 0
M  V30 20162 H 1833.55 2.56622 0.224212 0
M  V30 20163 H 1833.51 2.466 1.95028 0
M  V30 20164 N 1837.28 0.834353 1.33702 0
M  V30 20165 C 1838.53 0.427042 1.97537 0
M  V30 20166 C 1838.85 -1.01607 1.66436 0
M  V30 20167 O 1838.12 -1.70711 0.960958 0
M  V30 20168 H 1836.7 0.154921 0.730759 0
M  V30 20169 H 1839.36 1.06632 1.63143 0
M  V30 20170 H 1838.46 0.555396 3.07118 0
M  V30 20171 N 1838.76 -1.46125 0.590367 0
M  V30 20172 C 1839.7 -2.32108 -0.151168 0
M  V30 20173 C 1840.7 -1.44943 -0.876804 0
M  V30 20174 O 1841.9 -1.61526 -0.794323 0
M  V30 20175 H 1838.28 -0.748954 -0.0676159 0
M  V30 20176 H 1840.25 -2.92454 0.592723 0
M  V30 20177 C 1839 -3.28253 -1.14653 0
M  V30 20178 H 1838.32 -3.95309 -0.597597 0
M  V30 20179 H 1839.76 -3.91181 -1.63564 0
M  V30 20180 C 1838.22 -2.54162 -2.21141 0
M  V30 20181 O 1838.75 -2.31029 -3.28616 0
M  V30 20182 N 1836.96 -2.14592 -1.95956 0
M  V30 20183 H 1836.5 -2.33606 -1.08564 0
M  V30 20184 H 1836.46 -1.65339 -2.67414 0
M  V30 20185 N 1840.23 -0.328564 -1.54137 0
M  V30 20186 C 1841.51 0.327026 -1.92847 0
M  V30 20187 C 1841.89 1.69472 -1.25867 0
M  V30 20188 O 1841.24 2.24897 -0.404172 0
M  V30 20189 C 1841.45 0.414261 -3.46533 0
M  V30 20190 C 1842.8 0.672189 -4.19245 0
M  V30 20191 O 1843.82 0.496982 -3.52716 0
M  V30 20192 O 1842.68 1.01053 -5.37076 0
M  V30 20193 H 1839.77 0.187716 -0.805414 0
M  V30 20194 H 1842.32 -0.378645 -1.65422 0
M  V30 20195 H 1841.09 -0.54611 -3.8747 0
M  V30 20196 H 1840.72 1.16731 -3.80078 0
M  V30 20197 N 1841.71 1.57497 -0.0568439 0
M  V30 20198 C 1842.96 1.9209 0.615157 0
M  V30 20199 C 1843.27 0.937538 1.71667 0
M  V30 20200 O 1844.48 1.17573 2.44722 0
M  V30 20201 C 1842.94 3.41183 1.14552 0
M  V30 20202 C 1842.54 4.47936 0.0758146 0
M  V30 20203 C 1844.29 3.84801 1.79244 0
M  V30 20204 C 1842.2 5.88148 0.619381 0
M  V30 20205 H 1841.13 0.716918 0.233547 0
M  V30 20206 H 1843.78 1.83062 -0.126654 0
M  V30 20207 H 1842.16 3.45234 1.93983 0
M  V30 20208 H 1843.33 4.55482 -0.69807 0
M  V30 20209 H 1841.65 4.13694 -0.473984 0
M  V30 20210 H 1844.24 4.86929 2.20918 0
M  V30 20211 H 1844.59 3.21355 2.64645 0
M  V30 20212 H 1845.12 3.8329 1.0646 0
M  V30 20213 H 1841.86 6.55204 -0.19712 0
M  V30 20214 H 1841.38 5.84152 1.36112 0
M  V30 20215 H 1843.06 6.37572 1.1005 0
M  V30 20216 N 1843.19 -0.216591 1.56105 0
M  V30 20217 C 1844.44 -0.938392 1.78993 0
M  V30 20218 C 1844.76 -1.84671 0.626215 0
M  V30 20219 O 1844.03 -1.92626 -0.356636 0
M  V30 20220 H 1842.61 -0.349491 0.660201 0
M  V30 20221 H 1845.27 -0.227256 1.93571 0
M  V30 20222 H 1844.37 -1.54227 2.71331 0
M  V30 20223 N 1844.67 -1.5 -0.48349 0
M  V30 20224 C 1845.92 -1.60369 -1.23645 0
M  V30 20225 C 1846.24 -0.298319 -1.92199 0
M  V30 20226 O 1845.5 0.715001 -1.82171 0
M  V30 20227 C 1845.8 -2.72475 -2.31283 0
M  V30 20228 C 1845.46 -4.13384 -1.80068 0
M  V30 20229 C 1844.13 -4.51727 -1.65821 0
M  V30 20230 C 1846.48 -5.01501 -1.41937 0
M  V30 20231 C 1843.81 -5.7594 -1.11847 0
M  V30 20232 C 1846.16 -6.2625 -0.894093 0
M  V30 20233 C 1844.82 -6.63406 -0.738151 0
M  V30 20234 H 1844.09 -0.58683 -0.452451 0
M  V30 20235 H 1846.74 -1.83893 -0.534393 0
M  V30 20236 H 1845.04 -2.42991 -3.07348 0
M  V30 20237 H 1846.74 -2.77703 -2.89278 0
M  V30 20238 H 1843.33 -3.83128 -1.92122 0
M  V30 20239 H 1847.51 -4.7252 -1.51784 0
M  V30 20240 H 1842.77 -6.03413 -0.985001 0
M  V30 20241 H 1846.94 -6.93897 -0.589916 0
M  V30 20242 H 1844.57 -7.59536 -0.317755 0
M  V30 20243 N 1846.15 0.735796 -1.39369 0
M  V30 20244 C 1847.4 1.49079 -1.35861 0
M  V30 20245 C 1847.71 1.95553 0.0429472 0
M  V30 20246 O 1848.91 2.70758 0.200614 0
M  V30 20247 C 1847.37 2.69375 -2.38674 0
M  V30 20248 C 1846.98 2.29854 -3.8454 0
M  V30 20249 C 1848.72 3.47199 -2.44239 0
M  V30 20250 C 1846.63 3.46868 -4.78996 0
M  V30 20251 H 1845.56 0.559825 -0.505086 0
M  V30 20252 H 1848.21 0.80271 -1.65012 0
M  V30 20253 H 1846.59 3.40253 -2.02592 0
M  V30 20254 H 1847.77 1.66527 -4.29657 0
M  V30 20255 H 1846.08 1.65123 -3.82261 0
M  V30 20256 H 1848.68 4.34234 -3.12002 0
M  V30 20257 H 1849.02 3.89608 -1.46668 0
M  V30 20258 H 1849.55 2.83349 -2.7921 0
M  V30 20259 H 1846.29 3.0951 -5.77827 0
M  V30 20260 H 1845.81 4.09178 -4.38558 0
M  V30 20261 H 1847.49 4.13213 -4.9786 0
M  V30 20262 N 1847.63 1.24532 0.965897 0
M  V30 20263 C 1848.87 1.08395 1.70572 0
M  V30 20264 C 1849.19 -0.377657 1.91308 0
M  V30 20265 O 1848.46 -1.26935 1.49212 0
M  V30 20266 H 1847.04 0.398123 0.632066 0
M  V30 20267 H 1849.71 1.5648 1.1619 0
M  V30 20268 H 1848.8 1.58342 2.6895 0
M  V30 20269 N 1849.1 -1.16685 1.05936 0
M  V30 20270 C 1850.35 -1.87128 0.773915 0
M  V30 20271 C 1850.68 -1.81489 -0.699434 0
M  V30 20272 O 1849.93 -1.22285 -1.5279 0
M  V30 20273 C 1850.23 -3.36322 1.20923 0
M  V30 20274 C 1849.9 -3.62161 2.68607 0
M  V30 20275 C 1848.56 -3.68923 3.08949 0
M  V30 20276 C 1850.91 -3.73029 3.64004 0
M  V30 20277 C 1848.24 -3.84049 4.43535 0
M  V30 20278 C 1850.59 -3.89675 4.98333 0
M  V30 20279 C 1849.26 -3.94678 5.38317 0
M  V30 20280 H 1848.53 -0.684749 0.283195 0
M  V30 20281 H 1851.17 -1.37992 1.3278 0
M  V30 20282 H 1849.48 -3.87566 0.574472 0
M  V30 20283 H 1851.18 -3.89204 0.965469 0
M  V30 20284 H 1847.77 -3.57529 2.3637 0
M  V30 20285 H 1851.95 -3.67119 3.33972 0
M  V30 20286 H 1847.21 -3.86173 4.74005 0
M  V30 20287 H 1851.38 -3.97026 5.72139 0
M  V30 20288 H 1849.01 -4.06151 6.42608 0
M  V30 20289 N 1850.58 -0.841432 -1.33258 0
M  V30 20290 C 1851.53 -0.248505 -2.26642 0
M  V30 20291 C 1852.52 0.59799 -1.49375 0
M  V30 20292 O 1853.71 0.449539 -1.71196 0
M  V30 20293 C 1850.84 0.573322 -3.38479 0
M  V30 20294 C 1849.92 -0.284825 -4.23142 0
M  V30 20295 N 1850.31 -1.36477 -4.8704 0
M  V30 20296 C 1848.61 -0.072296 -4.45941 0
M  V30 20297 C 1849.31 -1.89162 -5.50084 0
M  V30 20298 N 1848.29 -1.19272 -5.30354 0
M  V30 20299 H 1852.09 -1.07432 -2.73561 0
M  V30 20300 H 1849.6 -0.686153 -1.47193 0
M  V30 20301 H 1851.6 1.01441 -4.0437 0
M  V30 20302 H 1850.26 1.39708 -2.93107 0
M  V30 20303 H 1851.27 -1.74767 -4.87521 0
M  V30 20304 H 1847.95 0.717812 -4.11283 0
M  V30 20305 H 1849.34 -2.79613 -6.10955 0
M  V30 20306 N 1852.06 1.4581 -0.598108 0
M  V30 20307 C 1852.99 2.28611 0.164271 0
M  V30 20308 C 1854 1.39406 0.840827 0
M  V30 20309 O 1855.19 1.63867 0.707805 0
M  V30 20310 C 1852.29 3.14883 1.25306 0
M  V30 20311 C 1851.47 4.32308 0.66546 0
M  V30 20312 C 1850.53 4.99862 1.64392 0
M  V30 20313 O 1849.55 5.56963 1.17393 0
M  V30 20314 N 1850.75 4.98278 2.97825 0
M  V30 20315 H 1853.52 2.94681 -0.546181 0
M  V30 20316 H 1851.08 1.55893 -0.436933 0
M  V30 20317 H 1853.07 3.5694 1.90724 0
M  V30 20318 H 1851.64 2.50785 1.86616 0
M  V30 20319 H 1850.86 3.93848 -0.166567 0
M  V30 20320 H 1852.15 5.08171 0.252938 0
M  V30 20321 H 1851.55 4.53159 3.38619 0
M  V30 20322 H 1850.1 5.44228 3.58691 0
M  V30 20323 N 1853.54 0.336733 1.53961 0
M  V30 20324 C 1854.78 -0.26186 2.008 0
M  V30 20325 C 1855.11 -1.51101 1.22469 0
M  V30 20326 O 1854.37 -1.9341 0.298485 0
M  V30 20327 C 1854.67 -0.628163 3.51836 0
M  V30 20328 C 1854.33 0.523319 4.47853 0
M  V30 20329 C 1852.99 0.83934 4.73823 0
M  V30 20330 C 1855.35 1.29615 5.04826 0
M  V30 20331 C 1852.67 1.93068 5.54023 0
M  V30 20332 C 1855.03 2.37768 5.86216 0
M  V30 20333 C 1853.69 2.69937 6.10483 0
M  V30 20334 H 1852.96 -0.0958214 0.734778 0
M  V30 20335 H 1855.61 0.463238 1.85813 0
M  V30 20336 H 1853.91 -1.43388 3.64619 0
M  V30 20337 H 1855.61 -1.10309 3.8553 0
M  V30 20338 H 1852.2 0.266944 4.27768 0
M  V30 20339 H 1856.38 1.06526 4.84733 0
M  V30 20340 H 1851.64 2.18423 5.71053 0
M  V30 20341 H 1855.81 2.98087 6.29378 0
M  V30 20342 H 1853.44 3.54629 6.72415 0
M  V30 20343 N 1855.02 -1.57465 0.0651956 0
M  V30 20344 C 1855.96 -2.13542 -0.922087 0
M  V30 20345 C 1856.96 -1.07067 -1.31275 0
M  V30 20346 O 1858.16 -1.25456 -1.29076 0
M  V30 20347 H 1854.54 -0.682718 -0.315277 0
M  V30 20348 H 1856.51 -2.9537 -0.424138 0
M  V30 20349 C 1855.26 -2.70663 -2.18258 0
M  V30 20350 H 1854.58 -3.52262 -1.8908 0
M  V30 20351 H 1856.02 -3.13505 -2.85466 0
M  V30 20352 C 1854.48 -1.65106 -2.93669 0
M  V30 20353 O 1855.01 -1.07214 -3.87128 0
M  V30 20354 N 1853.22 -1.36296 -2.56655 0
M  V30 20355 H 1852.76 -1.83562 -1.80728 0
M  V30 20356 H 1852.72 -0.659013 -3.07416 0
M  V30 20357 N 1856.49 0.20831 -1.56217 0
M  V30 20358 C 1857.44 1.27775 -1.94362 0
M  V30 20359 C 1858.44 1.47824 -0.827316 0
M  V30 20360 O 1859.64 1.48841 -1.01224 0
M  V30 20361 H 1856.02 0.428676 -0.617852 0
M  V30 20362 H 1857.99 0.928929 -2.83573 0
M  V30 20363 C 1856.74 2.61808 -2.28806 0
M  V30 20364 H 1856.06 2.47192 -3.14223 0
M  V30 20365 H 1857.5 3.35416 -2.59369 0
M  V30 20366 C 1855.96 3.17812 -1.1179 0
M  V30 20367 O 1856.49 3.99841 -0.385968 0
M  V30 20368 N 1854.69 2.7637 -0.898205 0
M  V30 20369 H 1854.24 2.0977 -1.49514 0
M  V30 20370 H 1854.2 3.14182 -0.117031 0
M  V30 20371 N 1857.97 1.50255 0.475528 0
M  V30 20372 C 1859.22 1.60263 1.22468 0
M  V30 20373 C 1859.53 0.306389 1.93185 0
M  V30 20374 O 1860.74 0.285331 2.69997 0
M  V30 20375 C 1859.2 2.82876 2.22506 0
M  V30 20376 C 1858.8 4.19359 1.57612 0
M  V30 20377 C 1860.55 3.02228 2.98091 0
M  V30 20378 C 1858.45 5.33164 2.55911 0
M  V30 20379 H 1857.38 0.596804 0.460804 0
M  V30 20380 H 1860.04 1.76679 0.495653 0
M  V30 20381 H 1858.42 2.6001 2.98682 0
M  V30 20382 H 1859.59 4.52463 0.872559 0
M  V30 20383 H 1857.91 4.05576 0.943247 0
M  V30 20384 H 1860.5 3.84422 3.7165 0
M  V30 20385 H 1860.85 2.13781 3.57216 0
M  V30 20386 H 1861.38 3.25255 2.29029 0
M  V30 20387 H 1858.12 6.23751 2.01531 0
M  V30 20388 H 1857.64 5.04484 3.24432 0
M  V30 20389 H 1859.32 5.63554 3.17829 0
M  V30 20390 N 1859.45 -0.728395 1.39758 0
M  V30 20391 C 1860.41 -1.82415 1.38772 0
M  V30 20392 C 1861.41 -1.58278 0.283678 0
M  V30 20393 O 1862.6 -1.65556 0.541927 0
M  V30 20394 C 1859.73 -3.20309 1.16684 0
M  V30 20395 H 1860.93 -1.8469 2.36283 0
M  V30 20396 H 1858.48 -0.932729 1.25419 0
M  V30 20397 H 1859.22 -3.2369 0.198817 0
M  V30 20398 H 1859 -3.39226 1.96643 0
M  V30 20399 H 1860.49 -4.0036 1.18751 0
M  V30 20400 N 1860.93 -1.25042 -0.959279 0
M  V30 20401 C 1861.87 -1.0502 -2.05522 0
M  V30 20402 C 1862.84 0.039194 -1.66054 0
M  V30 20403 O 1864.03 -0.11708 -1.9044 0
M  V30 20404 C 1861.17 -0.670047 -3.38533 0
M  V30 20405 C 1860.28 -1.83381 -3.91146 0
M  V30 20406 C 1859.42 -1.39844 -5.12462 0
M  V30 20407 C 1858.46 -2.53163 -5.57293 0
M  V30 20408 N 1857.59 -2.10435 -6.69822 0
M  V30 20409 H 1862.43 -1.98816 -2.21982 0
M  V30 20410 H 1859.97 -0.990139 -1.08787 0
M  V30 20411 H 1861.93 -0.430621 -4.14972 0
M  V30 20412 H 1860.56 0.230924 -3.21973 0
M  V30 20413 H 1859.61 -2.18667 -3.1127 0
M  V30 20414 H 1860.92 -2.68497 -4.2037 0
M  V30 20415 H 1860.08 -1.1184 -5.96303 0
M  V30 20416 H 1858.82 -0.51794 -4.84942 0
M  V30 20417 H 1857.82 -2.81918 -4.7202 0
M  V30 20418 H 1859.05 -3.41784 -5.86822 0
M  V30 20419 H 1856.99 -1.24794 -6.44021 0
M  V30 20420 H 1856.91 -2.89101 -6.98539 0
M  V30 20421 H 1858.18 -1.85593 -7.57084 0
M  V30 20422 N 1862.41 1.16121 -1.06553 0
M  V30 20423 C 1863.34 2.22761 -0.699976 0
M  V30 20424 C 1864.32 1.67274 0.308783 0
M  V30 20425 O 1865.5 1.93333 0.183328 0
M  V30 20426 C 1862.63 3.47187 -0.0884044 0
M  V30 20427 C 1861.59 4.15584 -1.02343 0
M  V30 20428 C 1860.91 5.33992 -0.275022 0
M  V30 20429 C 1862.21 4.66266 -2.35358 0
M  V30 20430 H 1863.91 2.53595 -1.59153 0
M  V30 20431 H 1861.45 1.21893 -0.766686 0
M  V30 20432 H 1863.41 4.21019 0.17922 0
M  V30 20433 H 1862.13 3.15661 0.838181 0
M  V30 20434 H 1860.79 3.43683 -1.27584 0
M  V30 20435 H 1860.44 4.9872 0.654765 0
M  V30 20436 H 1860.14 5.80695 -0.898181 0
M  V30 20437 H 1861.66 6.10598 -0.0150056 0
M  V30 20438 H 1863.07 5.31665 -2.14488 0
M  V30 20439 H 1861.47 5.236 -2.93195 0
M  V30 20440 H 1862.54 3.82335 -2.98241 0
M  V30 20441 N 1863.88 0.848487 1.3281 0
M  V30 20442 C 1865.13 0.449521 1.97755 0
M  V30 20443 C 1865.46 -0.990923 1.67016 0
M  V30 20444 O 1864.74 -1.69434 0.955119 0
M  V30 20445 C 1865.02 0.681898 3.53585 0
M  V30 20446 C 1864.87 2.17031 3.93976 0
M  V30 20447 C 1866.19 0.134271 4.39895 0
M  V30 20448 H 1863.31 0.164799 0.718339 0
M  V30 20449 H 1865.95 1.06578 1.57293 0
M  V30 20450 H 1864.1 0.157353 3.88181 0
M  V30 20451 H 1865.78 2.76046 3.69589 0
M  V30 20452 H 1864.02 2.65117 3.43359 0
M  V30 20453 H 1864.69 2.28362 5.02548 0
M  V30 20454 H 1867.17 0.582756 4.11999 0
M  V30 20455 H 1866.04 0.326479 5.47928 0
M  V30 20456 H 1866.3 -0.962576 4.31494 0
M  V30 20457 N 1865.36 -1.4549 0.605832 0
M  V30 20458 C 1866.33 -2.28964 -0.104089 0
M  V30 20459 C 1867.33 -1.39671 -0.796791 0
M  V30 20460 O 1868.52 -1.6181 -0.645221 0
M  V30 20461 C 1865.65 -3.20647 -1.1575 0
M  V30 20462 H 1866.84 -2.93213 0.629776 0
M  V30 20463 H 1864.39 -1.51983 0.3648 0
M  V30 20464 H 1865.13 -2.61194 -1.92219 0
M  V30 20465 H 1864.91 -3.86419 -0.665025 0
M  V30 20466 H 1866.4 -3.83416 -1.65474 0
M  V30 20467 N 1866.84 -0.344893 -1.5378 0
M  V30 20468 C 1868.07 0.255228 -2.05824 0
M  V30 20469 C 1868.49 1.43329 -1.21812 0
M  V30 20470 O 1867.85 1.79807 -0.232191 0
M  V30 20471 C 1867.9 0.646906 -3.5475 0
M  V30 20472 O 1867 1.74677 -3.7358 0
M  V30 20473 H 1866.34 0.0420518 -0.662667 0
M  V30 20474 H 1868.87 -0.499498 -1.98409 0
M  V30 20475 H 1868.88 0.923686 -3.97407 0
M  V30 20476 H 1867.56 -0.214619 -4.15346 0
M  V30 20477 H 1866.13 1.46715 -3.42825 0
M  V30 20478 N 1868.32 1.57428 -0.0735454 0
M  V30 20479 C 1869.27 2.14028 0.910749 0
M  V30 20480 C 1870.26 1.07761 1.30705 0
M  V30 20481 O 1871.47 1.26139 1.28409 0
M  V30 20482 H 1867.84 0.684381 0.311652 0
M  V30 20483 H 1869.81 2.95591 0.408468 0
M  V30 20484 C 1868.56 2.71817 2.1682 0
M  V30 20485 H 1867.88 3.5326 1.87209 0
M  V30 20486 H 1869.32 3.15014 2.83799 0
M  V30 20487 C 1867.78 1.66661 2.92789 0
M  V30 20488 O 1868.31 1.09266 3.86554 0
M  V30 20489 N 1866.52 1.37655 2.55929 0
M  V30 20490 H 1866.07 1.84518 1.79752 0
M  V30 20491 H 1866.02 0.675307 3.07062 0
M  V30 20492 N 1869.8 -0.200022 1.56326 0
M  V30 20493 C 1871.04 -0.918015 1.81505 0
M  V30 20494 C 1871.4 -1.81093 0.649849 0
M  V30 20495 O 1870.69 -1.88279 -0.355199 0
M  V30 20496 C 1870.88 -1.77356 3.1029 0
M  V30 20497 C 1870.71 -0.964962 4.39225 0
M  V30 20498 C 1869.48 -0.651338 5.01085 0
M  V30 20499 C 1871.68 -0.320001 5.13304 0
M  V30 20500 N 1869.66 0.176405 6.13646 0
M  V30 20501 C 1871.03 0.370162 6.18894 0
M  V30 20502 C 1873.09 -0.235224 4.97344 0
M  V30 20503 C 1871.79 1.13702 7.10257 0
M  V30 20504 C 1873.82 0.518224 5.89125 0
M  V30 20505 C 1873.18 1.19685 6.94158 0
M  V30 20506 H 1869.28 -0.315481 0.715539 0
M  V30 20507 H 1871.86 -0.187131 1.93799 0
M  V30 20508 H 1870.03 -2.47609 2.9924 0
M  V30 20509 H 1871.77 -2.43066 3.23575 0
M  V30 20510 H 1868.52 -0.974575 4.63464 0
M  V30 20511 H 1868.95 0.579743 6.74513 0
M  V30 20512 H 1873.59 -0.74554 4.16175 0
M  V30 20513 H 1871.31 1.65878 7.90892 0
M  V30 20514 H 1874.89 0.58511 5.7885 0
M  V30 20515 H 1873.77 1.77053 7.63951 0
M  V30 20516 N 1871.27 -1.50505 -0.467553 0
M  V30 20517 C 1872.5 -1.65193 -1.24076 0
M  V30 20518 C 1872.91 -0.336102 -1.86191 0
M  V30 20519 O 1872.26 0.692299 -1.70156 0
M  V30 20520 C 1872.32 -2.68798 -2.38721 0
M  V30 20521 C 1871.98 -4.12256 -1.97216 0
M  V30 20522 C 1872.98 -4.98012 -1.49267 0
M  V30 20523 C 1870.66 -4.58192 -2.05829 0
M  V30 20524 C 1872.66 -6.27753 -1.10477 0
M  V30 20525 C 1870.34 -5.87938 -1.66651 0
M  V30 20526 C 1871.34 -6.72544 -1.19053 0
M  V30 20527 O 1871.03 -7.99867 -0.804197 0
M  V30 20528 H 1870.76 -0.55823 -0.381254 0
M  V30 20529 H 1873.32 -1.97502 -0.564089 0
M  V30 20530 H 1871.55 -2.31739 -3.09571 0
M  V30 20531 H 1873.24 -2.7267 -3.00675 0
M  V30 20532 H 1874 -4.63737 -1.42031 0
M  V30 20533 H 1869.88 -3.92482 -2.41825 0
M  V30 20534 H 1873.42 -6.93743 -0.732554 0
M  V30 20535 H 1869.32 -6.21733 -1.73546 0
M  V30 20536 H 1870.09 -8.13168 -0.932733 0
M  V30 20537 N 1872.75 0.720973 -1.40142 0
M  V30 20538 C 1873.7 1.8564 -1.40145 0
M  V30 20539 C 1874.69 1.67025 -0.282667 0
M  V30 20540 O 1875.9 1.74195 -0.453429 0
M  V30 20541 H 1872.28 0.611316 -0.437947 0
M  V30 20542 H 1874.25 1.82753 -2.35889 0
M  V30 20543 C 1873 3.23455 -1.27563 0
M  V30 20544 H 1872.32 3.38382 -2.12926 0
M  V30 20545 H 1873.76 4.03052 -1.31623 0
M  V30 20546 C 1872.22 3.36897 0.0146614 0
M  V30 20547 O 1872.75 3.89572 0.979616 0
M  V30 20548 N 1870.95 2.90483 0.0823795 0
M  V30 20549 H 1870.5 2.47805 -0.70359 0
M  V30 20550 H 1870.46 2.99856 0.945177 0
M  V30 20551 N 1874.23 1.25549 0.952634 0
M  V30 20552 C 1875.65 1.02414 1.22407 0
M  V30 20553 C 1875.85 -0.257807 1.99844 0
M  V30 20554 O 1874.9 -0.969999 2.33125 0
M  V30 20555 C 1876.22 2.24856 1.9965 0
M  V30 20556 C 1877.76 2.29638 2.12686 0
M  V30 20557 C 1878.24 3.51742 2.93329 0
M  V30 20558 N 1879.73 3.5215 3.00907 0
M  V30 20559 C 1880.46 4.43292 3.63703 0
M  V30 20560 N 1879.96 5.44709 4.28094 0
M  V30 20561 N 1881.75 4.30969 3.60863 0
M  V30 20562 H 1873.9 2.07905 0.434647 0
M  V30 20563 H 1876.17 0.913124 0.254772 0
M  V30 20564 H 1875.87 3.18037 1.5015 0
M  V30 20565 H 1875.75 2.28188 3.0035 0
M  V30 20566 H 1878.13 1.36978 2.61383 0
M  V30 20567 H 1878.22 2.30324 1.11285 0
M  V30 20568 H 1877.86 4.44724 2.45322 0
M  V30 20569 H 1877.79 3.48301 3.9496 0
M  V30 20570 H 1880.28 2.78789 2.55118 0
M  V30 20571 H 1880.59 6.10462 4.73873 0
M  V30 20572 H 1878.94 5.48579 4.26715 0
M  V30 20573 H 1882.13 3.50964 3.09745 0
M  V30 20574 H 1882.3 5.02196 4.09516 0
M  V30 20575 N 1875.71 -1.15554 1.07168 0
M  V30 20576 C 1876.64 -2.19841 0.648285 0
M  V30 20577 C 1877.65 -1.60045 -0.298247 0
M  V30 20578 O 1878.84 -1.78284 -0.0878565 0
M  V30 20579 C 1875.94 -3.38831 -0.068586 0
M  V30 20580 C 1875.12 -4.28173 0.89366 0
M  V30 20581 C 1874.17 -5.25763 0.214424 0
M  V30 20582 O 1873.2 -5.62744 0.854883 0
M  V30 20583 N 1874.4 -5.71096 -1.04063 0
M  V30 20584 H 1877.17 -2.56784 1.54539 0
M  V30 20585 H 1874.73 -1.30652 0.956127 0
M  V30 20586 H 1876.72 -4.01167 -0.533614 0
M  V30 20587 H 1875.29 -3.00319 -0.86761 0
M  V30 20588 H 1874.51 -3.62965 1.53785 0
M  V30 20589 H 1875.8 -4.84739 1.54613 0
M  V30 20590 H 1875.2 -5.4316 -1.58095 0
M  V30 20591 H 1873.75 -6.35481 -1.44937 0
M  V30 20592 N 1877.19 -0.855519 -1.32358 0
M  V30 20593 C 1878.44 -0.455543 -1.96488 0
M  V30 20594 C 1878.75 0.99419 -1.68449 0
M  V30 20595 O 1879.96 1.49964 -2.26325 0
M  V30 20596 C 1878.41 -0.763678 -3.51704 0
M  V30 20597 C 1878.02 -2.2292 -3.88601 0
M  V30 20598 C 1879.76 -0.431467 -4.22302 0
M  V30 20599 C 1877.67 -2.48051 -5.36866 0
M  V30 20600 H 1876.6 -0.166617 -0.73536 0
M  V30 20601 H 1879.25 -1.04642 -1.50739 0
M  V30 20602 H 1877.63 -0.102224 -3.95868 0
M  V30 20603 H 1878.81 -2.93251 -3.55444 0
M  V30 20604 H 1877.12 -2.52602 -3.31031 0
M  V30 20605 H 1879.72 -0.596641 -5.31361 0
M  V30 20606 H 1880.06 0.62698 -4.11552 0
M  V30 20607 H 1880.6 -1.04885 -3.83724 0
M  V30 20608 H 1877.33 -3.52523 -5.52637 0
M  V30 20609 H 1876.85 -1.82298 -5.71426 0
M  V30 20610 H 1878.53 -2.32044 -6.03957 0
M  V30 20611 N 1878.67 1.45167 -0.61354 0
M  V30 20612 C 1879.58 2.34372 0.103487 0
M  V30 20613 C 1880.59 1.51591 0.854172 0
M  V30 20614 O 1881.77 1.84375 0.810414 0
M  V30 20615 C 1878.83 3.29304 1.08443 0
M  V30 20616 C 1877.89 4.2799 0.335056 0
M  V30 20617 C 1877.13 5.18387 1.26928 0
M  V30 20618 O 1877.35 5.12336 2.50734 0
M  V30 20619 O 1876.28 5.97043 0.763115 0
M  V30 20620 H 1880.11 2.97099 -0.629746 0
M  V30 20621 H 1877.69 1.44649 -0.373779 0
M  V30 20622 H 1879.58 3.87785 1.64926 0
M  V30 20623 H 1878.25 2.69133 1.79859 0
M  V30 20624 H 1877.16 3.73107 -0.272378 0
M  V30 20625 H 1878.49 4.91033 -0.338727 0
M  V30 20626 N 1880.14 0.353044 1.53595 0
M  V30 20627 C 1881.56 0.0014839 1.596 0
M  V30 20628 C 1881.76 -1.47884 1.36867 0
M  V30 20629 O 1880.82 -2.23881 1.16762 0
M  V30 20630 C 1882.13 0.446178 2.97371 0
M  V30 20631 C 1883.68 0.399329 3.10442 0
M  V30 20632 C 1884.15 0.819639 4.50606 0
M  V30 20633 N 1885.64 0.7742 4.56684 0
M  V30 20634 C 1886.38 1.07126 5.63304 0
M  V30 20635 N 1885.87 1.43696 6.77734 0
M  V30 20636 N 1887.67 0.994874 5.53226 0
M  V30 20637 H 1879.82 1.31719 1.66625 0
M  V30 20638 H 1882.08 0.537571 0.780847 0
M  V30 20639 H 1881.79 1.47869 3.19105 0
M  V30 20640 H 1881.66 -0.173715 3.768 0
M  V30 20641 H 1884.05 -0.624023 2.88427 0
M  V30 20642 H 1884.13 1.05455 2.33051 0
M  V30 20643 H 1883.77 1.84105 4.73358 0
M  V30 20644 H 1883.7 0.141795 5.26409 0
M  V30 20645 H 1886.19 0.504609 3.74516 0
M  V30 20646 H 1886.51 1.64822 7.55019 0
M  V30 20647 H 1884.85 1.4755 6.79157 0
M  V30 20648 H 1888.04 0.70845 4.62708 0
M  V30 20649 H 1888.22 1.22972 6.36225 0
M  V30 20650 N 1881.62 -1.57387 0.0818932 0
M  V30 20651 C 1882.85 -1.9862 -0.597066 0
M  V30 20652 C 1883.27 -0.960277 -1.61741 0
M  V30 20653 O 1882.63 0.0728948 -1.81153 0
M  V30 20654 C 1882.68 -3.3886 -1.23315 0
M  V30 20655 O 1881.78 -3.38962 -2.34901 0
M  V30 20656 H 1881.12 -0.646208 -0.152679 0
M  V30 20657 H 1883.65 -2.03978 0.159398 0
M  V30 20658 H 1883.66 -3.76266 -1.5776 0
M  V30 20659 H 1882.34 -4.13056 -0.485551 0
M  V30 20660 H 1880.91 -3.13337 -2.02174 0
M  V30 20661 N 1883.1 0.191729 -1.56429 0
M  V30 20662 C 1884.32 0.931804 -1.85289 0
M  V30 20663 C 1884.75 1.7592 -0.665864 0
M  V30 20664 O 1884.11 1.77158 0.385313 0
M  V30 20665 C 1884.16 1.801 -3.12404 0
M  V30 20666 O 1883.26 2.9002 -2.93193 0
M  V30 20667 H 1882.6 0.262213 -0.610033 0
M  V30 20668 H 1885.13 0.196028 -2.03659 0
M  V30 20669 H 1885.14 2.20499 -3.43285 0
M  V30 20670 H 1883.82 1.19309 -3.9842 0
M  V30 20671 H 1882.39 2.53352 -2.73619 0
M  V30 20672 N 1884.58 1.50751 0.459565 0
M  V30 20673 C 1885.99 1.38432 0.794269 0
M  V30 20674 C 1886.19 0.449353 1.96426 0
M  V30 20675 O 1885.25 -0.103761 2.52287 0
M  V30 20676 C 1886.56 2.80034 1.09551 0
M  V30 20677 C 1888.11 2.8903 1.20127 0
M  V30 20678 C 1888.59 4.3149 1.53558 0
M  V30 20679 N 1890.08 4.34494 1.60527 0
M  V30 20680 C 1890.81 5.41732 1.87921 0
M  V30 20681 N 1890.31 6.59161 2.13258 0
M  V30 20682 N 1892.1 5.29187 1.89519 0
M  V30 20683 H 1884.25 2.10106 -0.311312 0
M  V30 20684 H 1886.51 0.944884 -0.0767974 0
M  V30 20685 H 1886.22 3.50342 0.308751 0
M  V30 20686 H 1886.09 3.17992 2.02882 0
M  V30 20687 H 1888.48 2.18934 1.97869 0
M  V30 20688 H 1888.56 2.546 0.247486 0
M  V30 20689 H 1888.21 5.02128 0.763522 0
M  V30 20690 H 1888.14 4.63416 2.50106 0
M  V30 20691 H 1890.63 3.49824 1.42939 0
M  V30 20692 H 1890.94 7.3669 2.33468 0
M  V30 20693 H 1889.29 6.62315 2.10626 0
M  V30 20694 H 1892.48 4.36439 1.69229 0
M  V30 20695 H 1892.65 6.12846 2.10532 0
M  V30 20696 N 1886.06 -0.713531 1.40522 0
M  V30 20697 C 1887.28 -1.5026 1.4223 0
M  V30 20698 C 1887.7 -1.88787 0.0225637 0
M  V30 20699 O 1887.06 -1.55581 -0.95398 0
M  V30 20700 C 1887.11 -2.77663 2.31486 0
M  V30 20701 O 1886.83 -2.40765 3.66011 0
M  V30 20702 C 1888.33 -3.71543 2.41807 0
M  V30 20703 H 1885.55 -0.463648 0.485048 0
M  V30 20704 H 1888.09 -0.88 1.84598 0
M  V30 20705 H 1886.25 -3.36203 1.92475 0
M  V30 20706 H 1886.66 -3.22757 4.13434 0
M  V30 20707 H 1888.14 -4.57771 3.08464 0
M  V30 20708 H 1888.61 -4.14792 1.44375 0
M  V30 20709 H 1889.22 -3.18914 2.81379 0
M  V30 20710 N 1887.53 -1.26053 -0.945962 0
M  V30 20711 C 1888.46 -1.09687 -2.06134 0
M  V30 20712 C 1889.44 -0.00341513 -1.701 0
M  V30 20713 O 1890.63 -0.174559 -1.93414 0
M  V30 20714 C 1887.76 -0.724007 -3.3967 0
M  V30 20715 C 1886.71 -1.76866 -3.89747 0
M  V30 20716 C 1886.04 -1.25025 -5.19878 0
M  V30 20717 C 1887.34 -3.16923 -4.15159 0
M  V30 20718 H 1889.03 -2.02986 -2.20084 0
M  V30 20719 H 1886.58 -0.977346 -1.05754 0
M  V30 20720 H 1888.53 -0.596411 -4.17158 0
M  V30 20721 H 1887.26 0.244695 -3.25682 0
M  V30 20722 H 1885.92 -1.88485 -3.14435 0
M  V30 20723 H 1885.56 -0.271527 -5.02267 0
M  V30 20724 H 1885.26 -1.94853 -5.54352 0
M  V30 20725 H 1886.79 -1.13523 -5.99954 0
M  V30 20726 H 1888.2 -3.08409 -4.83277 0
M  V30 20727 H 1886.6 -3.84299 -4.60906 0
M  V30 20728 H 1887.67 -3.63337 -3.21114 0
M  V30 20729 N 1889.01 1.14984 -1.07779 0
M  V30 20730 C 1890.26 1.85506 -0.802 0
M  V30 20731 C 1890.58 1.82981 0.674026 0
M  V30 20732 O 1889.85 1.27376 1.48836 0
M  V30 20733 H 1888.43 0.686845 -0.293689 0
M  V30 20734 H 1891.09 1.39368 -1.36244 0
M  V30 20735 H 1890.19 2.90518 -1.14042 0
M  V30 20736 N 1890.49 0.862526 1.31902 0
M  V30 20737 C 1891.73 0.47617 1.98776 0
M  V30 20738 C 1892.09 -0.952142 1.66728 0
M  V30 20739 O 1893.29 -1.44346 2.26754 0
M  V30 20740 C 1891.57 0.71747 3.50124 0
M  V30 20741 S 1893.12 0.429862 4.36689 0
M  V30 20742 H 1889.94 0.178053 0.688344 0
M  V30 20743 H 1892.54 1.11694 1.60451 0
M  V30 20744 H 1891.25 1.75592 3.70939 0
M  V30 20745 H 1890.78 0.0634148 3.93349 0
M  V30 20746 H 1892.79 -0.740921 4.90637 0
M  V30 20747 N 1891.97 -1.4484 0.62123 0
M  V30 20748 C 1893.19 -2.07012 0.126801 0
M  V30 20749 C 1893.62 -1.46046 -1.18542 0
M  V30 20750 O 1892.98 -0.558202 -1.72493 0
M  V30 20751 C 1893.02 -3.60597 0.0150611 0
M  V30 20752 O 1892.13 -3.9929 -1.03157 0
M  V30 20753 H 1891.47 -0.659131 0.0802646 0
M  V30 20754 H 1894 -1.85874 0.855105 0
M  V30 20755 H 1894.01 -4.07608 -0.178742 0
M  V30 20756 H 1892.68 -4.04354 0.973153 0
M  V30 20757 H 1891.26 -3.63927 -0.813135 0
M  V30 20758 N 1893.45 -0.361184 -1.53405 0
M  V30 20759 C 1894.69 0.222818 -2.02176 0
M  V30 20760 C 1895.05 1.46779 -1.24393 0
M  V30 20761 O 1894.34 1.88772 -0.327985 0
M  V30 20762 C 1894.53 0.572109 -3.52791 0
M  V30 20763 C 1894.36 -0.637467 -4.45159 0
M  V30 20764 C 1893.13 -1.1482 -4.92082 0
M  V30 20765 C 1895.33 -1.50134 -4.91899 0
M  V30 20766 N 1893.31 -2.31826 -5.68445 0
M  V30 20767 C 1894.68 -2.51811 -5.66561 0
M  V30 20768 C 1896.74 -1.52473 -4.73979 0
M  V30 20769 C 1895.44 -3.55677 -6.25209 0
M  V30 20770 C 1897.47 -2.55231 -5.3349 0
M  V30 20771 C 1896.83 -3.55631 -6.08034 0
M  V30 20772 H 1892.93 0.0443679 -0.78074 0
M  V30 20773 H 1895.51 -0.504736 -1.88044 0
M  V30 20774 H 1893.68 1.26875 -3.67093 0
M  V30 20775 H 1895.42 1.14082 -3.88288 0
M  V30 20776 H 1892.17 -0.713513 -4.68194 0
M  V30 20777 H 1892.6 -2.90951 -6.11291 0
M  V30 20778 H 1897.24 -0.762065 -4.15875 0
M  V30 20779 H 1894.96 -4.32829 -6.82411 0
M  V30 20780 H 1898.54 -2.57889 -5.21521 0
M  V30 20781 H 1897.42 -4.33841 -6.53263 0
M  V30 20782 N 1894.92 1.57341 -0.0902386 0
M  V30 20783 C 1895.83 2.17276 0.88478 0
M  V30 20784 C 1896.85 1.14089 1.31376 0
M  V30 20785 O 1898.03 1.46438 1.38268 0
M  V30 20786 C 1895.09 2.73739 2.12762 0
M  V30 20787 C 1894.15 3.91865 1.7533 0
M  V30 20788 C 1893.39 4.45626 2.93689 0
M  V30 20789 O 1893.61 3.98337 4.08269 0
M  V30 20790 O 1892.54 5.36714 2.72437 0
M  V30 20791 H 1896.37 3.00989 0.40487 0
M  V30 20792 H 1893.95 1.48799 0.133848 0
M  V30 20793 H 1895.84 3.09849 2.85608 0
M  V30 20794 H 1894.51 1.93075 2.59815 0
M  V30 20795 H 1893.42 3.60576 0.996799 0
M  V30 20796 H 1894.75 4.73878 1.33045 0
M  V30 20797 N 1896.4 -0.183431 1.56529 0
M  V30 20798 C 1897.65 -0.901995 1.81302 0
M  V30 20799 C 1897.98 -1.82765 0.665368 0
M  V30 20800 O 1897.23 -1.92578 -0.348162 0
M  V30 20801 C 1897.53 -1.74055 3.12153 0
M  V30 20802 C 1897.2 -0.964866 4.40456 0
M  V30 20803 C 1895.86 -0.750741 4.75308 0
M  V30 20804 C 1898.21 -0.419915 5.19506 0
M  V30 20805 C 1895.54 0.0196291 5.86697 0
M  V30 20806 C 1897.89 0.337305 6.317 0
M  V30 20807 C 1896.56 0.56234 6.65127 0
M  V30 20808 H 1895.83 -0.330064 0.66343 0
M  V30 20809 H 1898.47 -0.167643 1.90765 0
M  V30 20810 H 1896.78 -2.54393 2.97979 0
M  V30 20811 H 1898.47 -2.29935 3.28528 0
M  V30 20812 H 1895.06 -1.14178 4.13112 0
M  V30 20813 H 1899.25 -0.572714 4.92984 0
M  V30 20814 H 1894.5 0.203838 6.1106 0
M  V30 20815 H 1898.68 0.766889 6.92165 0
M  V30 20816 H 1896.31 1.16117 7.51279 0
M  V30 20817 N 1897.88 -1.50992 -0.451564 0
M  V30 20818 C 1899.13 -1.62192 -1.19903 0
M  V30 20819 C 1899.44 -0.337085 -1.92674 0
M  V30 20820 O 1900.65 -0.328248 -2.69508 0
M  V30 20821 C 1899.1 -2.8638 -2.17978 0
M  V30 20822 C 1898.71 -4.21814 -1.50921 0
M  V30 20823 C 1900.46 -3.06932 -2.93246 0
M  V30 20824 C 1898.36 -5.37168 -2.47396 0
M  V30 20825 H 1897.29 -0.60406 -0.451251 0
M  V30 20826 H 1899.94 -1.77445 -0.467482 0
M  V30 20827 H 1898.33 -2.64728 -2.94508 0
M  V30 20828 H 1899.5 -4.53794 -0.800466 0
M  V30 20829 H 1897.82 -4.07025 -0.878604 0
M  V30 20830 H 1900.41 -3.90286 -3.65487 0
M  V30 20831 H 1900.76 -2.19437 -3.5377 0
M  V30 20832 H 1901.29 -3.28857 -2.23826 0
M  V30 20833 H 1898.03 -6.26878 -1.91582 0
M  V30 20834 H 1897.55 -5.09581 -3.16365 0
M  V30 20835 H 1899.23 -5.68539 -3.08824 0
M  V30 20836 N 1899.36 0.706069 -1.40899 0
M  V30 20837 C 1900.77 1.2856 -1.35386 0
M  V30 20838 C 1901.12 1.96174 -0.0318902 0
M  V30 20839 O 1900.25 1.9814 0.870018 0
M  V30 20840 C 1900.84 2.33785 -2.45214 0
M  V30 20841 C 1899.4 2.87339 -2.43132 0
M  V30 20842 C 1898.55 1.61243 -2.25601 0
M  V30 20843 H 1901.5 0.501539 -1.50567 0
M  V30 20844 H 1901.52 3.14843 -2.13669 0
M  V30 20845 H 1901.03 1.84545 -3.41416 0
M  V30 20846 H 1899.13 3.40784 -1.50656 0
M  V30 20847 H 1899.24 3.38485 -3.39065 0
M  V30 20848 H 1897.61 1.86664 -1.73288 0
M  V30 20849 H 1898.39 1.14014 -3.23814 0
M  V30 20850 N 1900.84 1.26553 0.939264 0
M  V30 20851 C 1902.08 1.12376 1.68818 0
M  V30 20852 C 1902.42 -0.331784 1.91345 0
M  V30 20853 O 1901.69 -1.24359 1.4955 0
M  V30 20854 C 1901.97 1.89541 3.0618 0
M  V30 20855 C 1901.83 3.43014 2.90966 0
M  V30 20856 C 1903.15 1.69074 4.06327 0
M  V30 20857 H 1900.26 0.409616 0.612686 0
M  V30 20858 H 1902.91 1.55571 1.09076 0
M  V30 20859 H 1901.06 1.5283 3.57177 0
M  V30 20860 H 1902.73 3.89489 2.47176 0
M  V30 20861 H 1900.97 3.69942 2.26551 0
M  V30 20862 H 1901.64 3.92236 3.88401 0
M  V30 20863 H 1904.12 2.01061 3.64299 0
M  V30 20864 H 1902.99 2.25478 5.00451 0
M  V30 20865 H 1903.26 0.635787 4.37504 0
M  V30 20866 N 1902.31 -1.14411 1.08387 0
M  V30 20867 C 1903.59 -1.8162 0.726188 0
M  V30 20868 C 1903.97 -1.95755 -0.790129 0
M  V30 20869 O 1903.32 -1.51725 -1.70856 0
M  V30 20870 C 1903.53 -3.17321 1.45287 0
M  V30 20871 C 1904.88 -3.92818 1.6118 0
M  V30 20872 O 1905.9 -3.2691 1.41451 0
M  V30 20873 O 1904.76 -5.1101 1.93728 0
M  V30 20874 H 1901.85 -0.785182 0.25965 0
M  V30 20875 H 1904.4 -1.21431 1.18544 0
M  V30 20876 H 1903.17 -3.02195 2.48584 0
M  V30 20877 H 1902.8 -3.85203 0.985093 0
M  V30 20878 N 1903.79 -0.869509 -1.31443 0
M  V30 20879 C 1905.07 -0.400903 -1.91447 0
M  V30 20880 C 1905.45 1.117 -1.79127 0
M  V30 20881 O 1904.8 1.94536 -1.19866 0
M  V30 20882 C 1905.01 -0.881767 -3.37677 0
M  V30 20883 C 1906.36 -0.90763 -4.14786 0
M  V30 20884 O 1907.38 -0.82739 -3.46457 0
M  V30 20885 O 1906.24 -1.02365 -5.36827 0
M  V30 20886 H 1903.33 -0.119842 -0.818271 0
M  V30 20887 H 1905.88 -0.957391 -1.40115 0
M  V30 20888 H 1904.65 -1.92533 -3.40657 0
M  V30 20889 H 1904.27 -0.303565 -3.96439 0
M  V30 20890 N 1905.27 1.44508 -0.628902 0
M  V30 20891 C 1906.52 2.01667 -0.13224 0
M  V30 20892 C 1906.84 1.49706 1.24953 0
M  V30 20893 O 1906.11 0.699769 1.82976 0
M  V30 20894 H 1904.69 0.745589 -0.0458966 0
M  V30 20895 H 1907.35 1.77037 -0.815102 0
M  V30 20896 H 1906.45 3.11945 -0.0982328 0
M  V30 20897 N 1906.75 0.369315 1.53212 0
M  V30 20898 C 1908 -0.212093 2.02291 0
M  V30 20899 C 1908.35 -1.46118 1.25169 0
M  V30 20900 O 1907.64 -1.88595 0.337991 0
M  V30 20901 C 1907.84 -0.553392 3.5309 0
M  V30 20902 C 1907.67 0.661066 4.44815 0
M  V30 20903 C 1906.44 1.17428 4.91466 0
M  V30 20904 C 1908.63 1.52741 4.91095 0
M  V30 20905 N 1906.62 2.34837 5.67208 0
M  V30 20906 C 1907.99 2.54812 5.65218 0
M  V30 20907 C 1910.04 1.54985 4.73164 0
M  V30 20908 C 1908.75 3.58988 6.23314 0
M  V30 20909 C 1910.77 2.58056 5.32129 0
M  V30 20910 C 1910.13 3.58851 6.0614 0
M  V30 20911 H 1906.23 -0.0402269 0.780965 0
M  V30 20912 H 1908.82 0.514701 1.87774 0
M  V30 20913 H 1906.99 -1.24926 3.67761 0
M  V30 20914 H 1908.72 -1.12021 3.88887 0
M  V30 20915 H 1905.47 0.738332 4.67809 0
M  V30 20916 H 1905.9 2.94189 6.09739 0
M  V30 20917 H 1910.54 0.78411 4.15465 0
M  V30 20918 H 1908.26 4.36441 6.80106 0
M  V30 20919 H 1911.84 2.60651 5.20146 0
M  V30 20920 H 1910.72 4.37299 6.50953 0
M  V30 20921 N 1908.23 -1.57291 0.0985816 0
M  V30 20922 C 1909.48 -1.94094 -0.563189 0
M  V30 20923 C 1909.8 -0.981394 -1.68504 0
M  V30 20924 O 1909.07 -0.0340632 -1.9587 0
M  V30 20925 H 1907.65 -0.716571 -0.211033 0
M  V30 20926 H 1910.31 -1.94219 0.162732 0
M  V30 20927 H 1909.4 -2.96607 -0.971113 0
M  V30 20928 N 1909.71 0.175127 -1.56624 0
M  V30 20929 C 1910.62 1.23691 -1.99343 0
M  V30 20930 C 1911.63 1.48662 -0.904197 0
M  V30 20931 O 1912.81 1.60885 -1.21153 0
M  V30 20932 C 1909.87 2.55689 -2.34145 0
M  V30 20933 C 1908.93 2.38614 -3.56878 0
M  V30 20934 C 1908.17 3.64318 -3.9001 0
M  V30 20935 O 1908.39 4.69335 -3.24162 0
M  V30 20936 O 1907.32 3.58655 -4.83373 0
M  V30 20937 H 1911.15 0.904314 -2.89924 0
M  V30 20938 H 1908.73 0.381697 -1.44442 0
M  V30 20939 H 1910.62 3.33562 -2.57516 0
M  V30 20940 H 1909.29 2.88535 -1.46728 0
M  V30 20941 H 1908.2 1.58786 -3.3873 0
M  V30 20942 H 1909.53 2.10694 -4.44825 0
M  V30 20943 N 1911.18 1.5123 0.44355 0
M  V30 20944 C 1912.6 1.39267 0.779541 0
M  V30 20945 C 1912.8 0.470162 1.95938 0
M  V30 20946 O 1911.86 -0.0769965 2.52383 0
M  V30 20947 C 1913.17 2.8118 1.06574 0
M  V30 20948 C 1914.72 2.90288 1.17055 0
M  V30 20949 C 1915.19 4.33095 1.48973 0
M  V30 20950 N 1916.68 4.36173 1.55909 0
M  V30 20951 C 1917.42 5.43694 1.82165 0
M  V30 20952 N 1916.91 6.61386 2.06255 0
M  V30 20953 N 1918.71 5.31167 1.83896 0
M  V30 20954 H 1910.86 2.09764 -0.333579 0
M  V30 20955 H 1913.12 0.944017 -0.0868148 0
M  V30 20956 H 1912.83 3.5065 0.271575 0
M  V30 20957 H 1912.7 3.20125 1.99498 0
M  V30 20958 H 1915.09 2.2102 1.95535 0
M  V30 20959 H 1915.17 2.54848 0.220468 0
M  V30 20960 H 1914.81 5.0291 0.710222 0
M  V30 20961 H 1914.74 4.66043 2.45177 0
M  V30 20962 H 1917.23 3.5132 1.39221 0
M  V30 20963 H 1917.55 7.39125 2.25641 0
M  V30 20964 H 1915.89 6.64512 2.0359 0
M  V30 20965 H 1919.08 4.38209 1.64591 0
M  V30 20966 H 1919.26 6.15044 2.0402 0
M  V30 20967 N 1912.66 -0.698586 1.41271 0
M  V30 20968 C 1914.07 -1.2784 1.36066 0
M  V30 20969 C 1914.42 -1.96154 0.0422934 0
M  V30 20970 O 1913.55 -1.98599 -0.859498 0
M  V30 20971 C 1914.14 -2.32481 2.46451 0
M  V30 20972 C 1912.7 -2.86046 2.44652 0
M  V30 20973 C 1911.85 -1.60045 2.26453 0
M  V30 20974 H 1914.8 -0.493547 1.5083 0
M  V30 20975 H 1914.82 -3.13705 2.15335 0
M  V30 20976 H 1914.33 -1.82732 3.4239 0
M  V30 20977 H 1912.43 -3.3998 1.52461 0
M  V30 20978 H 1912.55 -3.36682 3.40855 0
M  V30 20979 H 1910.91 -1.85742 1.74275 0
M  V30 20980 H 1911.69 -1.12295 3.24414 0
M  V30 20981 N 1914.14 -1.27049 -0.93254 0
M  V30 20982 C 1915.07 -1.11867 -2.04959 0
M  V30 20983 C 1916.05 -0.0214563 -1.70086 0
M  V30 20984 O 1917.24 -0.195063 -1.93218 0
M  V30 20985 C 1914.37 -0.759993 -3.38883 0
M  V30 20986 C 1913.32 -1.8099 -3.87849 0
M  V30 20987 C 1912.65 -1.30532 -5.18522 0
M  V30 20988 C 1913.95 -3.21309 -4.11774 0
M  V30 20989 H 1915.64 -2.05309 -2.17918 0
M  V30 20990 H 1913.19 -0.988507 -1.04712 0
M  V30 20991 H 1915.14 -0.640623 -4.16502 0
M  V30 20992 H 1913.86 0.210139 -3.25923 0
M  V30 20993 H 1912.52 -1.91809 -3.12418 0
M  V30 20994 H 1912.17 -0.324784 -5.0195 0
M  V30 20995 H 1911.87 -2.00722 -5.52254 0
M  V30 20996 H 1913.39 -1.19879 -5.98716 0
M  V30 20997 H 1914.81 -3.13517 -4.79979 0
M  V30 20998 H 1913.2 -3.89166 -4.56804 0
M  V30 20999 H 1914.27 -3.66722 -3.17243 0
M  V30 21000 O 1915.66 1.06659 -1.21269 0
M  V30 21001 H 1916.35 1.67573 -0.971538 0
M  V30 END ATOM
M  V30 BEGIN BOND
M  V30 END BOND
M  V30 END CTAB
M  END
$$$$
