drugbank_target|Q14376 UDP-glucose 4-epimerase (DB01861; DB02196; DB03041; DB03095; DB03397; DB03501)
 OpenBabel12092119553D

  0  0  0     0  0            999 V3000
M  V30 BEGIN CTAB
M  V30 COUNTS 5351 5408 0 0 0
M  V30 BEGIN ATOM
M  V30 1 H -0.908 1.98254 -0.117106 0
M  V30 2 N 0 1.576 0 0
M  V30 3 C 0.933 2.03868 1.02534 0
M  V30 4 C 1.911 0.928543 1.3348 0
M  V30 5 O 3.095 1.19667 1.45644 0
M  V30 6 C 0.222 2.43627 2.35294 0
M  V30 7 C -0.732 3.65373 2.2001 0
M  V30 8 S 0.101 5.13292 1.52614 0
M  V30 9 C 1.257 5.56322 2.86805 0
M  V30 10 H 1.49 2.90518 0.631377 0
M  V30 11 H -0.977 1.52953 0.210867 0
M  V30 12 H 0.981 2.67203 3.11629 0
M  V30 13 H -0.358 1.57376 2.7183 0
M  V30 14 H -1.165 3.90944 3.18086 0
M  V30 15 H -1.563 3.418 1.51819 0
M  V30 16 H 0.729 5.58782 3.83104 0
M  V30 17 H 1.672 6.56266 2.65933 0
M  V30 18 H 2.08 4.83886 2.90714 0
M  V30 19 N 1.4781 -0.272755 1.55222 0
M  V30 20 C 2.4411 -1.32041 1.87344 0
M  V30 21 C 3.4411 -1.42342 0.74803 0
M  V30 22 O 4.6311 -1.41488 1.0162 0
M  V30 23 C 1.7631 -2.70173 2.07893 0
M  V30 24 H 2.9561 -1.04789 2.80997 0
M  V30 25 H 0.5091 -0.51083 1.47717 0
M  V30 26 H 1.2441 -3.02605 1.16622 0
M  V30 27 H 1.0291 -2.64082 2.89833 0
M  V30 28 H 2.5191 -3.45869 2.34017 0
M  V30 29 N 2.9562 -1.48159 -0.537278 0
M  V30 30 C 3.8662 -1.64807 -1.6696 0
M  V30 31 C 4.8822 -0.530651 -1.65711 0
M  V30 32 O 6.0582 -0.800784 -1.84796 0
M  V30 33 C 3.1232 -1.67708 -3.03438 0
M  V30 34 C 2.1842 -2.91025 -3.156 0
M  V30 35 C 1.4172 -2.93778 -4.45567 0
M  V30 36 O 1.6402 -2.05153 -5.3223 0
M  V30 37 O 0.5742 -3.85868 -4.61941 0
M  V30 38 H 4.4002 -2.6066 -1.55853 0
M  V30 39 H 1.9852 -1.31475 -0.709549 0
M  V30 40 H 3.8672 -1.7218 -3.84619 0
M  V30 41 H 2.5422 -0.750278 -3.14885 0
M  V30 42 H 1.4492 -2.92089 -2.33741 0
M  V30 43 H 2.7822 -3.83065 -3.09066 0
M  V30 44 N 4.4343 0.785586 -1.36625 0
M  V30 45 C 5.3813 1.89838 -1.31264 0
M  V30 46 C 6.3513 1.65115 -0.180633 0
M  V30 47 O 7.5363 1.87222 -0.36777 0
M  V30 48 C 4.6763 3.26706 -1.11163 0
M  V30 49 C 3.7893 3.63476 -2.33472 0
M  V30 50 C 2.9243 4.89481 -2.06353 0
M  V30 51 C 1.9633 5.18941 -3.24602 0
M  V30 52 N 1.1003 6.36131 -2.97123 0
M  V30 53 H 5.9403 1.93756 -2.26413 0
M  V30 54 H 3.4773 0.947454 -1.12524 0
M  V30 55 H 5.4353 4.05639 -0.975337 0
M  V30 56 H 4.0653 3.222 -0.196674 0
M  V30 57 H 3.1173 2.79636 -2.57891 0
M  V30 58 H 4.4293 3.81193 -3.21704 0
M  V30 59 H 3.5833 5.76288 -1.89675 0
M  V30 60 H 2.3223 4.73841 -1.15437 0
M  V30 61 H 1.3273 4.30615 -3.41834 0
M  V30 62 H 2.5523 5.36498 -4.16349 0
M  V30 63 H 0.4983 6.21875 -2.08823 0
M  V30 64 H 0.4153 6.54198 -3.78894 0
M  V30 65 H 1.6833 7.2591 -2.84033 0
M  V30 66 N 5.9124 1.20967 1.01018 0
M  V30 67 C 7.1584 1.02526 1.74975 0
M  V30 68 C 7.4914 -0.4408 1.89131 0
M  V30 69 O 6.7664 -1.32718 1.42184 0
M  V30 70 C 7.0494 1.71699 3.1653 0
M  V30 71 C 6.9024 3.25791 3.10129 0
M  V30 72 C 8.2214 1.45531 4.15342 0
M  V30 73 H 5.3404 0.373863 0.635134 0
M  V30 74 H 7.9824 1.49071 1.17805 0
M  V30 75 H 6.1324 1.32128 3.65341 0
M  V30 76 H 7.8044 3.74697 2.69072 0
M  V30 77 H 6.0474 3.56363 2.47362 0
M  V30 78 H 6.7184 3.69353 4.10222 0
M  V30 79 H 9.1944 1.79872 3.75213 0
M  V30 80 H 8.0704 1.96453 5.1254 0
M  V30 81 H 8.3314 0.384237 4.40427 0
M  V30 82 N 7.3905 -1.2043 1.01659 0
M  V30 83 C 8.3205 -2.25466 0.607226 0
M  V30 84 C 9.3015 -1.65853 -0.377716 0
M  V30 85 O 10.4865 -1.92409 -0.263149 0
M  V30 86 C 7.6165 -3.47256 -0.0552949 0
M  V30 87 C 6.5705 -4.19462 0.850632 0
M  V30 88 C 5.8965 -5.34673 0.0538859 0
M  V30 89 C 7.1965 -4.75603 2.15868 0
M  V30 90 H 8.8905 -2.59962 1.48526 0
M  V30 91 H 6.4365 -1.2496 0.715605 0
M  V30 92 H 8.3895 -4.19917 -0.353233 0
M  V30 93 H 7.1135 -3.11924 -0.968045 0
M  V30 94 H 5.7725 -3.48667 1.13257 0
M  V30 95 H 5.4205 -4.95585 -0.860514 0
M  V30 96 H 5.1205 -5.83913 0.657192 0
M  V30 97 H 6.6445 -6.10138 -0.237598 0
M  V30 98 H 8.0585 -5.40083 1.92311 0
M  V30 99 H 6.4555 -5.3528 2.71284 0
M  V30 100 H 7.5255 -3.94346 2.82169 0
M  V30 101 N 8.8686 -0.792821 -1.36206 0
M  V30 102 C 10.1146 -0.36733 -1.99446 0
M  V30 103 C 10.4476 1.05917 -1.62774 0
M  V30 104 O 9.7226 1.7324 -0.88421 0
M  V30 105 C 10.0056 -0.535044 -3.56103 0
M  V30 106 C 9.8586 -2.00548 -4.02617 0
M  V30 107 C 11.1776 0.0478191 -4.40074 0
M  V30 108 H 8.2966 -0.134941 -0.724541 0
M  V30 109 H 10.9386 -0.999794 -1.61568 0
M  V30 110 H 9.0886 0.00336329 -3.885 0
M  V30 111 H 10.7606 -2.60521 -3.80692 0
M  V30 112 H 9.0036 -2.50686 -3.54032 0
M  V30 113 H 9.6746 -2.07377 -5.11565 0
M  V30 114 H 12.1506 -0.411822 -4.14057 0
M  V30 115 H 11.0266 -0.0995336 -5.4881 0
M  V30 116 H 11.2876 1.14025 -4.27142 0
M  V30 117 N 10.3467 1.47872 -0.545128 0
M  V30 118 C 11.5747 2.06889 -0.021084 0
M  V30 119 C 11.9897 1.39955 1.2672 0
M  V30 120 O 11.3467 0.492036 1.75742 0
M  V30 121 C 11.3977 3.60996 0.190817 0
M  V30 122 O 11.1187 4.25419 -1.04644 0
M  V30 123 C 12.6197 4.36849 0.753521 0
M  V30 124 H 9.8397 0.669785 -0.0403635 0
M  V30 125 H 12.3837 1.90049 -0.755095 0
M  V30 126 H 10.5387 3.77391 0.87492 0
M  V30 127 H 10.9527 5.17785 -0.836611 0
M  V30 128 H 12.4267 5.45399 0.851139 0
M  V30 129 H 12.9037 4.02306 1.762 0
M  V30 130 H 13.5097 4.25169 0.105503 0
M  V30 131 N 11.8248 0.280983 1.55075 0
M  V30 132 C 13.0728 -0.333455 1.9933 0
M  V30 133 C 13.3938 -1.55937 1.17085 0
M  V30 134 O 12.6638 -1.94143 0.261805 0
M  V30 135 H 11.2438 -0.126197 0.736263 0
M  V30 136 H 13.9058 0.387678 1.91005 0
M  V30 137 H 13.0018 -0.619292 3.05894 0
M  V30 138 N 13.3029 -1.57598 0.00835791 0
M  V30 139 C 14.5509 -1.90551 -0.6734 0
M  V30 140 C 14.8719 -0.883301 -1.73847 0
M  V30 141 O 14.1419 0.0781442 -1.95744 0
M  V30 142 H 12.7219 -0.703312 -0.251717 0
M  V30 143 H 15.3839 -1.94833 0.0512592 0
M  V30 144 H 14.4799 -2.9056 -1.13935 0
M  V30 145 N 14.781 0.264519 -1.55364 0
M  V30 146 C 15.744 1.31046 -1.88042 0
M  V30 147 C 16.744 1.41943 -0.755569 0
M  V30 148 O 17.934 1.40947 -1.02369 0
M  V30 149 C 15.066 2.69067 -2.09323 0
M  V30 150 H 16.259 1.03297 -2.81549 0
M  V30 151 H 13.812 0.502989 -1.47986 0
M  V30 152 H 14.547 3.01982 -1.18226 0
M  V30 153 H 14.332 2.62542 -2.91229 0
M  V30 154 H 15.822 3.44623 -2.35848 0
M  V30 155 N 16.2591 1.48442 0.529413 0
M  V30 156 C 17.5071 1.56179 1.28267 0
M  V30 157 C 17.8281 0.237721 1.93546 0
M  V30 158 O 17.0981 -0.740779 1.81354 0
M  V30 159 H 15.6781 0.575367 0.476405 0
M  V30 160 H 18.3401 1.84909 0.61602 0
M  V30 161 H 17.4361 2.34312 2.06165 0
M  V30 162 N 17.7372 -0.778329 1.37039 0
M  V30 163 C 18.9672 -1.56507 1.34868 0
M  V30 164 C 19.3752 -1.89072 -0.0694802 0
M  V30 165 O 18.7182 -1.51434 -1.03987 0
M  V30 166 C 18.7802 -2.90641 2.11585 0
M  V30 167 C 18.4442 -2.80746 3.60598 0
M  V30 168 C 19.4412 -2.52226 4.54618 0
M  V30 169 C 17.1262 -2.98974 4.03633 0
M  V30 170 C 19.1202 -2.42054 5.89651 0
M  V30 171 C 16.8072 -2.88423 5.38754 0
M  V30 172 C 17.8052 -2.60002 6.31576 0
M  V30 173 O 17.4932 -2.49465 7.64214 0
M  V30 174 H 17.2252 -0.491723 0.463879 0
M  V30 175 H 19.7792 -0.973053 1.80889 0
M  V30 176 H 18.0092 -3.51936 1.60243 0
M  V30 177 H 19.6982 -3.51992 2.0213 0
M  V30 178 H 20.4642 -2.37835 4.22681 0
M  V30 179 H 16.3432 -3.20099 3.31749 0
M  V30 180 H 19.8872 -2.19791 6.62071 0
M  V30 181 H 15.7842 -3.0238 5.70295 0
M  V30 182 H 16.5522 -2.64864 7.74461 0
M  V30 183 N 19.2153 -1.21501 -1.00376 0
M  V30 184 C 20.4643 -1.02718 -1.73586 0
M  V30 185 C 20.7773 0.439589 -1.90596 0
M  V30 186 O 21.9833 0.746848 -2.61026 0
M  V30 187 C 20.4393 -1.78929 -3.1227 0
M  V30 188 C 20.0473 -3.29783 -3.03228 0
M  V30 189 C 21.7913 -1.68557 -3.89601 0
M  V30 190 C 19.6983 -3.98479 -4.36999 0
M  V30 191 H 18.6283 -0.380733 -0.650814 0
M  V30 192 H 21.2793 -1.45248 -1.1214 0
M  V30 193 H 19.6613 -1.29192 -3.74333 0
M  V30 194 H 20.8353 -3.86832 -2.50395 0
M  V30 195 H 19.1503 -3.40711 -2.39385 0
M  V30 196 H 21.7473 -2.17211 -4.88593 0
M  V30 197 H 22.0903 -0.644021 -4.11288 0
M  V30 198 H 22.6233 -2.15778 -3.34193 0
M  V30 199 H 19.3623 -5.02841 -4.20513 0
M  V30 200 H 18.8823 -3.46219 -4.89788 0
M  V30 201 H 20.5613 -4.03462 -5.05794 0
M  V30 202 N 20.6934 1.19889 -1.02296 0
M  V30 203 C 21.9414 1.89046 -0.714558 0
M  V30 204 C 22.2624 1.79636 0.758681 0
M  V30 205 O 21.5324 1.20292 1.54618 0
M  V30 206 H 20.1124 0.699802 -0.261317 0
M  V30 207 H 22.7744 1.45574 -1.29592 0
M  V30 208 H 21.8704 2.95524 -1.0036 0
M  V30 209 N 22.1715 0.800033 1.35784 0
M  V30 210 C 23.3965 0.388511 2.03729 0
M  V30 211 C 23.8215 -0.990481 1.5991 0
M  V30 212 O 23.1795 -1.64013 0.772612 0
M  V30 213 C 23.2275 0.4726 3.5749 0
M  V30 214 O 22.3315 -0.51646 4.09153 0
M  V30 215 H 21.6725 0.163271 0.643614 0
M  V30 216 H 24.2025 1.0841 1.73518 0
M  V30 217 H 24.2125 0.34003 4.06581 0
M  V30 218 H 22.8875 1.47848 3.88734 0
M  V30 219 H 21.4645 -0.344673 3.71304 0
M  V30 220 N 23.6496 -1.47581 0.552962 0
M  V30 221 C 24.5996 -2.26961 -0.217423 0
M  V30 222 C 25.5836 -1.34099 -0.889168 0
M  V30 223 O 26.7756 -1.58483 -0.788176 0
M  V30 224 C 23.9046 -3.19756 -1.24944 0
M  V30 225 C 22.9906 -4.20097 -0.581327 0
M  V30 226 N 23.3816 -5.04614 0.346171 0
M  V30 227 C 21.6796 -4.38099 -0.835767 0
M  V30 228 C 22.3806 -5.77052 0.733854 0
M  V30 229 N 21.3566 -5.43526 0.0896567 0
M  V30 230 H 25.1586 -2.89688 0.495761 0
M  V30 231 H 22.6726 -1.58068 0.372597 0
M  V30 232 H 24.6696 -3.75305 -1.81527 0
M  V30 233 H 23.3296 -2.58585 -1.96376 0
M  V30 234 H 24.3406 -5.12869 0.720098 0
M  V30 235 H 21.0176 -3.88102 -1.53892 0
M  V30 236 H 22.4076 -6.5504 1.49574 0
M  V30 237 N 25.1277 -0.289203 -1.54924 0
M  V30 238 C 26.3557 0.326463 -2.04308 0
M  V30 239 C 26.7707 1.48413 -1.16701 0
M  V30 240 O 26.1277 1.81507 -0.190087 0
M  V30 241 C 26.1787 0.794014 -3.52672 0
M  V30 242 O 25.8997 -0.317564 -4.36948 0
M  V30 243 C 27.4007 1.47605 -4.18004 0
M  V30 244 H 24.6207 0.0726272 -0.667058 0
M  V30 245 H 27.1647 -0.425401 -2.00026 0
M  V30 246 H 25.3197 1.49593 -3.57352 0
M  V30 247 H 25.7337 0.0443186 -5.24481 0
M  V30 248 H 27.2077 1.75447 -5.23376 0
M  V30 249 H 27.6847 2.41224 -3.67025 0
M  V30 250 H 28.2907 0.81762 -4.17367 0
M  V30 251 N 26.6058 1.57591 -0.0167156 0
M  V30 252 C 27.8518 1.91567 0.665582 0
M  V30 253 C 28.1848 0.892298 1.72487 0
M  V30 254 O 27.4598 -0.0867127 1.94307 0
M  V30 255 C 27.7428 3.36069 1.29342 0
M  V30 256 C 27.5958 4.49135 0.244541 0
M  V30 257 C 28.9148 3.803 2.21495 0
M  V30 258 H 26.0338 0.69666 0.240488 0
M  V30 259 H 28.6758 1.89866 -0.0714356 0
M  V30 260 H 26.8258 3.3765 1.92158 0
M  V30 261 H 28.4978 4.59689 -0.385228 0
M  V30 262 H 26.7408 4.3165 -0.431379 0
M  V30 263 H 27.4118 5.47242 0.723207 0
M  V30 264 H 29.8878 3.80377 1.68678 0
M  V30 265 H 28.7638 4.82127 2.62382 0
M  V30 266 H 29.0248 3.15104 3.101 0
M  V30 267 N 28.0839 -0.256276 1.55502 0
M  V30 268 C 29.0139 -1.32102 1.92539 0
M  V30 269 C 29.9949 -1.50684 0.789194 0
M  V30 270 O 31.1799 -1.63449 1.04872 0
M  V30 271 C 28.3099 -2.67752 2.21192 0
M  V30 272 C 27.2639 -2.63878 3.36975 0
M  V30 273 C 26.5899 -4.03236 3.51147 0
M  V30 274 C 27.8899 -2.21682 4.72921 0
M  V30 275 H 29.5839 -1.01351 2.81724 0
M  V30 276 H 27.1299 -0.486105 1.35547 0
M  V30 277 H 29.0829 -3.42365 2.45691 0
M  V30 278 H 27.8069 -3.0012 1.28824 0
M  V30 279 H 26.4659 -1.91722 3.12471 0
M  V30 280 H 26.1139 -4.32854 2.56216 0
M  V30 281 H 25.8139 -4.01535 4.29003 0
M  V30 282 H 27.3379 -4.79563 3.77957 0
M  V30 283 H 28.7519 -2.86023 4.96854 0
M  V30 284 H 27.1489 -2.3111 5.53812 0
M  V30 285 H 28.2189 -1.16833 4.70615 0
M  V30 286 N 29.562 -1.4872 -0.521534 0
M  V30 287 C 30.472 -1.66569 -1.65203 0
M  V30 288 C 31.488 -0.548197 -1.65139 0
M  V30 289 O 32.664 -0.820339 -1.83936 0
M  V30 290 C 29.729 -1.70917 -3.01642 0
M  V30 291 C 28.79 -2.94356 -3.12495 0
M  V30 292 C 28.023 -2.98487 -4.42426 0
M  V30 293 O 28.246 -2.10786 -5.30024 0
M  V30 294 O 27.18 -3.90746 -4.57822 0
M  V30 295 H 31.006 -2.62298 -1.5308 0
M  V30 296 H 28.591 -1.3222 -0.695565 0
M  V30 297 H 30.473 -1.7625 -3.82771 0
M  V30 298 H 29.148 -0.783633 -3.14071 0
M  V30 299 H 28.055 -2.94552 -2.3063 0
M  V30 300 H 29.388 -3.86322 -3.04986 0
M  V30 301 N 31.0401 0.771051 -1.3745 0
M  V30 302 C 31.9701 1.89827 -1.3597 0
M  V30 303 C 32.9511 1.68562 -0.228216 0
M  V30 304 O 34.1361 1.8941 -0.428675 0
M  V30 305 C 31.2661 3.2712 -1.16662 0
M  V30 306 C 30.2201 3.6295 -2.2683 0
M  V30 307 C 29.5461 4.98791 -1.92644 0
M  V30 308 C 30.8461 3.69627 -3.69017 0
M  V30 309 H 32.5401 1.91323 -2.30295 0
M  V30 310 H 30.0861 0.919082 -1.10855 0
M  V30 311 H 32.0391 4.05615 -1.14256 0
M  V30 312 H 30.7631 3.26059 -0.187926 0
M  V30 313 H 29.4221 2.86763 -2.28392 0
M  V30 314 H 29.0701 4.94271 -0.933021 0
M  V30 315 H 28.7701 5.23733 -2.66416 0
M  V30 316 H 30.2941 5.79685 -1.91826 0
M  V30 317 H 31.7081 4.38273 -3.69581 0
M  V30 318 H 30.1051 4.06067 -4.41848 0
M  V30 319 H 31.1751 2.70273 -4.02592 0
M  V30 320 N 32.5182 1.22032 0.997298 0
M  V30 321 C 33.4482 1.01065 2.10495 0
M  V30 322 C 34.4292 -0.0669542 1.69968 0
M  V30 323 O 35.6142 0.0943987 1.9397 0
M  V30 324 C 32.7442 0.582874 3.42374 0
M  V30 325 C 31.6982 1.60592 3.96729 0
M  V30 326 C 31.0242 1.03412 5.24605 0
M  V30 327 C 32.3242 2.99478 4.27914 0
M  V30 328 H 34.0182 1.93708 2.28292 0
M  V30 329 H 31.5642 0.932761 1.09707 0
M  V30 330 H 33.5172 0.423332 4.19268 0
M  V30 331 H 32.2412 -0.379213 3.24391 0
M  V30 332 H 30.9002 1.75316 3.21963 0
M  V30 333 H 30.5482 0.063518 5.0296 0
M  V30 334 H 30.2482 1.71754 5.61938 0
M  V30 335 H 31.7722 0.886066 6.04137 0
M  V30 336 H 33.1862 2.88153 4.95622 0
M  V30 337 H 31.5832 3.64903 4.76409 0
M  V30 338 H 32.6532 3.49742 3.3587 0
M  V30 339 N 33.9963 -1.19345 1.0293 0
M  V30 340 C 34.9063 -2.26245 0.620515 0
M  V30 341 C 35.9223 -1.70486 -0.347928 0
M  V30 342 O 37.0983 -2.00347 -0.205704 0
M  V30 343 C 34.1633 -3.46693 -0.0218957 0
M  V30 344 C 33.2243 -4.17632 0.994102 0
M  V30 345 C 32.4573 -5.32329 0.382253 0
M  V30 346 O 32.6803 -5.64552 -0.814676 0
M  V30 347 O 31.6143 -5.91664 1.10531 0
M  V30 348 H 35.4403 -2.63453 1.51083 0
M  V30 349 H 33.0253 -1.26207 0.799513 0
M  V30 350 H 34.9073 -4.19683 -0.380072 0
M  V30 351 H 33.5823 -3.11333 -0.886209 0
M  V30 352 H 32.4893 -3.4676 1.40387 0
M  V30 353 H 33.8223 -4.56964 1.8288 0
M  V30 354 N 35.4744 -0.807222 -1.35358 0
M  V30 355 C 36.4374 -0.223665 -2.28106 0
M  V30 356 C 37.4374 0.589354 -1.4961 0
M  V30 357 O 38.6274 0.407745 -1.69361 0
M  V30 358 C 35.7594 0.688149 -3.33882 0
M  V30 359 H 36.9524 -1.04169 -2.81227 0
M  V30 360 H 34.5054 -0.577921 -1.45223 0
M  V30 361 H 35.2404 1.52984 -2.85948 0
M  V30 362 H 35.0254 0.10687 -3.91954 0
M  V30 363 H 36.5154 1.09075 -4.03104 0
M  V30 364 N 36.9525 1.47285 -0.560781 0
M  V30 365 C 38.2005 2.02064 -0.0379868 0
M  V30 366 C 38.5215 1.43711 1.31803 0
M  V30 367 O 37.7915 0.61362 1.86042 0
M  V30 368 H 36.3715 0.746918 -0.0110531 0
M  V30 369 H 39.0335 1.80648 -0.731598 0
M  V30 370 H 38.1295 3.12064 0.0474463 0
M  V30 371 N 38.4306 0.297415 1.54768 0
M  V30 372 C 39.6606 -0.315165 2.04182 0
M  V30 373 C 40.0686 -1.4834 1.17439 0
M  V30 374 O 39.4116 -1.82695 0.191891 0
M  V30 375 C 39.4736 -0.837583 3.49607 0
M  V30 376 C 39.1376 0.204912 4.5654 0
M  V30 377 C 40.1346 1.03214 5.09552 0
M  V30 378 C 37.8196 0.345578 5.0111 0
M  V30 379 C 39.8136 1.986 6.05671 0
M  V30 380 C 37.5006 1.30289 5.97049 0
M  V30 381 C 38.4986 2.12159 6.49213 0
M  V30 382 O 38.1866 3.06268 7.43273 0
M  V30 383 H 37.9186 -0.0729646 0.672051 0
M  V30 384 H 40.4726 0.433907 2.00765 0
M  V30 385 H 38.7026 -1.63712 3.50336 0
M  V30 386 H 40.3916 -1.36566 3.82236 0
M  V30 387 H 41.1576 0.934312 4.75916 0
M  V30 388 H 37.0366 -0.28171 4.60138 0
M  V30 389 H 40.5806 2.62542 6.46311 0
M  V30 390 H 36.4776 1.40145 6.30103 0
M  V30 391 H 37.2456 3.01205 7.61064 0
M  V30 392 N 39.9087 -1.5758 0.0250728 0
M  V30 393 C 40.8387 -2.13007 -0.956575 0
M  V30 394 C 41.8197 -1.0452 -1.342 0
M  V30 395 O 43.0047 -1.32332 -1.42133 0
M  V30 396 C 40.1347 -2.65386 -2.24026 0
M  V30 397 C 39.0887 -3.78623 -1.99571 0
M  V30 398 C 38.4147 -4.17414 -3.3417 0
M  V30 399 C 39.7147 -5.04867 -1.33814 0
M  V30 400 H 41.4087 -2.9528 -0.494991 0
M  V30 401 H 38.9547 -1.42042 -0.236651 0
M  V30 402 H 40.9077 -3.02794 -2.93076 0
M  V30 403 H 39.6317 -1.80268 -2.72343 0
M  V30 404 H 38.2907 -3.41646 -1.32941 0
M  V30 405 H 37.9387 -3.29284 -3.80238 0
M  V30 406 H 37.6387 -4.93719 -3.18615 0
M  V30 407 H 39.1627 -4.57402 -4.04495 0
M  V30 408 H 40.5767 -5.39888 -1.92857 0
M  V30 409 H 38.9737 -5.86144 -1.28669 0
M  V30 410 H 40.0437 -4.83904 -0.310561 0
M  V30 411 N 41.3868 0.248026 -1.55636 0
M  V30 412 C 42.7978 0.817177 -1.67866 0
M  V30 413 C 43.1488 1.86069 -0.622322 0
M  V30 414 O 42.2738 2.15157 0.231618 0
M  V30 415 C 42.8688 1.489 -3.04326 0
M  V30 416 C 41.4278 2.00587 -3.185 0
M  V30 417 C 40.5748 0.856573 -2.63739 0
M  V30 418 H 43.5258 0.0238579 -1.58682 0
M  V30 419 H 43.5468 2.35698 -2.98708 0
M  V30 420 H 43.0588 0.729279 -3.81186 0
M  V30 421 H 41.1598 2.79443 -2.4646 0
M  V30 422 H 41.2728 2.20402 -4.25393 0
M  V30 423 H 39.6368 1.25678 -2.21534 0
M  V30 424 H 40.4198 0.109953 -3.43124 0
M  V30 425 N 42.8649 1.48995 0.513639 0
M  V30 426 C 44.1109 1.58076 1.27042 0
M  V30 427 C 44.4439 0.261026 1.92438 0
M  V30 428 O 43.7189 -0.734393 1.80103 0
M  V30 429 C 44.0019 2.73091 2.34719 0
M  V30 430 C 43.8549 4.14821 1.73907 0
M  V30 431 C 45.1739 2.83796 3.36375 0
M  V30 432 H 42.2929 0.575391 0.460536 0
M  V30 433 H 44.9349 1.81232 0.570516 0
M  V30 434 H 43.0849 2.53479 2.94416 0
M  V30 435 H 44.7569 4.45917 1.18135 0
M  V30 436 H 42.9999 4.21058 1.0437 0
M  V30 437 H 43.6709 4.91147 2.51949 0
M  V30 438 H 46.1469 3.01611 2.86653 0
M  V30 439 H 45.0229 3.65971 4.09093 0
M  V30 440 H 45.2839 1.92624 3.9793 0
M  V30 441 N 44.343 -0.763751 1.37857 0
M  V30 442 C 45.589 -1.52483 1.33704 0
M  V30 443 C 45.922 -1.94051 -0.0759612 0
M  V30 444 O 45.197 -1.64675 -1.03501 0
M  V30 445 C 45.48 -2.78441 2.28348 0
M  V30 446 C 45.333 -2.43075 3.78463 0
M  V30 447 C 46.652 -3.80415 2.21298 0
M  V30 448 H 43.771 -0.553169 0.487005 0
M  V30 449 H 46.413 -0.875562 1.68624 0
M  V30 450 H 44.563 -3.33842 1.987 0
M  V30 451 H 46.235 -1.93527 4.18742 0
M  V30 452 H 44.478 -1.75666 3.96641 0
M  V30 453 H 45.149 -3.33149 4.40132 0
M  V30 454 H 47.625 -3.34527 2.47449 0
M  V30 455 H 46.501 -4.66257 2.89647 0
M  V30 456 H 46.762 -4.25262 1.20849 0
M  V30 457 N 45.8211 -1.22559 -0.990812 0
M  V30 458 C 47.0701 -1.04553 -1.72486 0
M  V30 459 C 47.3831 0.419349 -1.91052 0
M  V30 460 O 48.5891 0.719121 -2.61803 0
M  V30 461 C 47.0451 -1.82231 -3.10355 0
M  V30 462 C 46.6531 -3.32981 -2.99713 0
M  V30 463 C 48.3971 -1.7268 -3.87791 0
M  V30 464 C 46.3041 -4.03091 -4.32748 0
M  V30 465 H 45.2341 -0.387614 -0.646739 0
M  V30 466 H 47.8851 -1.46429 -1.10593 0
M  V30 467 H 46.2671 -1.33155 -3.72942 0
M  V30 468 H 47.4411 -3.89466 -2.46278 0
M  V30 469 H 45.7561 -3.43231 -2.35758 0
M  V30 470 H 48.3531 -2.22381 -4.86262 0
M  V30 471 H 48.6961 -0.687607 -4.10582 0
M  V30 472 H 49.2291 -2.1931 -3.31885 0
M  V30 473 H 45.9681 -5.07273 -4.15156 0
M  V30 474 H 45.4881 -3.51394 -4.86089 0
M  V30 475 H 47.1671 -4.08804 -5.01486 0
M  V30 476 N 47.2992 1.18797 -1.03562 0
M  V30 477 C 48.5762 1.84469 -0.650434 0
M  V30 478 C 48.9562 1.92319 0.870433 0
M  V30 479 O 48.3042 1.44528 1.76986 0
M  V30 480 C 48.5142 3.2306 -1.32036 0
M  V30 481 C 49.8622 3.9915 -1.44792 0
M  V30 482 O 50.8862 3.32481 -1.27806 0
M  V30 483 O 49.7452 5.18587 -1.72423 0
M  V30 484 H 46.8392 0.795251 -0.226946 0
M  V30 485 H 49.3852 1.26231 -1.13419 0
M  V30 486 H 48.1572 3.1222 -2.3587 0
M  V30 487 H 47.7802 3.88949 -0.8249 0
M  V30 488 N 48.7773 0.814389 1.34928 0
M  V30 489 C 49.7253 0.218424 2.31572 0
M  V30 490 C 50.7193 -0.636128 1.57002 0
M  V30 491 O 51.9253 -0.52842 1.72069 0
M  V30 492 H 48.3003 0.0518799 0.750208 0
M  V30 493 H 50.2713 1.04852 2.79372 0
M  V30 494 C 49.0203 -0.61207 3.4227 0
M  V30 495 H 48.3433 0.0361578 3.99784 0
M  V30 496 H 49.7833 -0.995317 4.12152 0
M  V30 497 C 48.2423 -1.78087 2.85984 0
M  V30 498 O 48.7723 -2.8787 2.80168 0
M  V30 499 N 46.9783 -1.59488 2.42924 0
M  V30 500 H 46.5253 -0.701874 2.47854 0
M  V30 501 H 46.4833 -2.37846 2.05613 0
M  V30 502 N 50.2554 -1.46986 0.568584 0
M  V30 503 C 51.5024 -2.02441 0.0487986 0
M  V30 504 C 51.8304 -1.44169 -1.30559 0
M  V30 505 O 51.0854 -0.591213 -1.86556 0
M  V30 506 C 51.3844 -3.57306 -0.081836 0
M  V30 507 C 51.0504 -4.34552 1.20313 0
M  V30 508 C 49.7124 -4.55376 1.5552 0
M  V30 509 C 52.0644 -4.79016 2.05411 0
M  V30 510 C 49.3924 -5.17913 2.7565 0
M  V30 511 C 51.7444 -5.42879 3.24754 0
M  V30 512 C 50.4084 -5.61933 3.60261 0
M  V30 513 H 49.6784 -0.740785 0.0178567 0
M  V30 514 H 52.3254 -1.76525 0.742384 0
M  V30 515 H 50.6304 -3.8228 -0.858463 0
M  V30 516 H 52.3274 -3.97876 -0.499546 0
M  V30 517 H 48.9174 -4.18631 0.919014 0
M  V30 518 H 53.1014 -4.62696 1.79516 0
M  V30 519 H 48.3574 -5.30858 3.03315 0
M  V30 520 H 52.5314 -5.76293 3.90973 0
M  V30 521 H 50.1584 -6.10161 4.53439 0
M  V30 522 N 51.7335 -0.305618 -1.54608 0
M  V30 523 C 52.6835 0.583595 -2.20405 0
M  V30 524 C 53.6675 1.09539 -1.17856 0
M  V30 525 O 54.8595 1.0354 -1.43557 0
M  V30 526 C 51.9885 1.75277 -2.95183 0
M  V30 527 C 51.0745 1.25672 -4.05052 0
M  V30 528 N 51.4655 0.478998 -5.03527 0
M  V30 529 C 49.7635 1.53704 -4.18678 0
M  V30 530 C 50.4645 0.214269 -5.81305 0
M  V30 531 N 49.4405 0.795374 -5.3775 0
M  V30 532 H 53.2425 -0.0180946 -2.93894 0
M  V30 533 H 50.7565 -0.110601 -1.62023 0
M  V30 534 H 52.7535 2.4014 -3.40791 0
M  V30 535 H 51.4135 2.35812 -2.23211 0
M  V30 536 H 52.4245 0.123473 -5.17753 0
M  V30 537 H 49.1015 2.14954 -3.57912 0
M  V30 538 H 50.4915 -0.410656 -6.70644 0
M  V30 539 N 53.2116 1.57565 -0.0334293 0
M  V30 540 C 54.1596 2.1164 0.96496 0
M  V30 541 C 55.1536 1.04398 1.33407 0
M  V30 542 O 56.3596 1.22828 1.3158 0
M  V30 543 H 52.7346 0.676222 0.32898 0
M  V30 544 H 54.7056 2.94455 0.483614 0
M  V30 545 C 53.4546 2.66207 2.23672 0
M  V30 546 H 52.7776 3.48378 1.96145 0
M  V30 547 H 54.2176 3.07685 2.9173 0
M  V30 548 C 52.6766 1.59151 2.96939 0
M  V30 549 O 53.2066 0.993858 3.89211 0
M  V30 550 N 51.4126 1.31093 2.59351 0
M  V30 551 H 50.9596 1.7988 1.84393 0
M  V30 552 H 50.9176 0.596889 3.08682 0
M  V30 553 N 54.6897 -0.239769 1.55765 0
M  V30 554 C 55.6527 -1.28038 1.90103 0
M  V30 555 C 56.6527 -1.40723 0.778055 0
M  V30 556 O 57.8427 -1.39301 1.04599 0
M  V30 557 C 54.9747 -2.65702 2.13577 0
M  V30 558 H 56.1677 -0.988048 2.83157 0
M  V30 559 H 53.7207 -0.479382 1.48767 0
M  V30 560 H 54.4557 -3.00063 1.23015 0
M  V30 561 H 54.2407 -2.57875 2.95369 0
M  V30 562 H 55.7307 -3.40828 2.41301 0
M  V30 563 N 56.1678 -1.49265 -0.50573 0
M  V30 564 C 57.4148 -1.58513 -1.26015 0
M  V30 565 C 57.7428 -0.26972 -1.92621 0
M  V30 566 O 56.9978 0.741997 -1.81088 0
M  V30 567 C 57.2968 -2.69008 -2.35308 0
M  V30 568 C 56.9628 -4.10662 -1.86192 0
M  V30 569 C 55.6248 -4.49212 -1.72516 0
M  V30 570 C 57.9768 -4.99336 -1.49375 0
M  V30 571 C 55.3048 -5.74214 -1.20394 0
M  V30 572 C 57.6568 -6.24852 -0.987072 0
M  V30 573 C 56.3208 -6.62236 -0.836669 0
M  V30 574 H 55.5908 -0.580041 -0.461122 0
M  V30 575 H 58.2378 -1.83078 -0.561665 0
M  V30 576 H 56.5428 -2.38396 -3.10926 0
M  V30 577 H 58.2398 -2.73373 -2.93374 0
M  V30 578 H 54.8298 -3.8023 -1.97795 0
M  V30 579 H 59.0138 -4.70212 -1.5879 0
M  V30 580 H 54.2698 -6.01883 -1.07458 0
M  V30 581 H 58.4438 -6.92944 -0.692983 0
M  V30 582 H 56.0708 -7.58979 -0.430607 0
M  V30 583 N 57.6459 0.756429 -1.3826 0
M  V30 584 C 59.0619 1.0591 -1.19395 0
M  V30 585 C 59.2619 2.01459 -0.0406567 0
M  V30 586 O 58.3179 2.44909 0.614467 0
M  V30 587 C 59.6309 1.64191 -2.51916 0
M  V30 588 C 61.1789 1.76376 -2.58574 0
M  V30 589 C 61.6539 2.38069 -3.91264 0
M  V30 590 N 63.1449 2.45503 -3.92788 0
M  V30 591 C 63.8799 2.94126 -4.92217 0
M  V30 592 N 63.3759 3.42805 -6.02043 0
M  V30 593 N 65.1689 2.9314 -4.7961 0
M  V30 594 H 57.3199 0.122313 -2.12048 0
M  V30 595 H 59.5829 0.116892 -0.940766 0
M  V30 596 H 59.2889 1.01451 -3.3675 0
M  V30 597 H 59.1629 2.6329 -2.70108 0
M  V30 598 H 61.5499 2.38244 -1.74137 0
M  V30 599 H 61.6309 0.759894 -2.44252 0
M  V30 600 H 61.2749 1.76835 -4.76121 0
M  V30 601 H 61.2049 3.39091 -4.02895 0
M  V30 602 H 63.6959 2.1107 -3.13461 0
M  V30 603 H 64.0089 3.78354 -6.73846 0
M  V30 604 H 62.3539 3.4087 -6.05667 0
M  V30 605 H 65.5449 2.54419 -3.92923 0
M  V30 606 H 65.7179 3.30721 -5.5725 0
M  V30 607 N 59.124 1.23083 0.984299 0
M  V30 608 C 60.372 1.05848 1.72165 0
M  V30 609 C 60.693 -0.406049 1.90726 0
M  V30 610 O 59.963 -1.29139 1.47309 0
M  V30 611 H 58.543 0.388685 0.637913 0
M  V30 612 H 61.205 1.54736 1.18503 0
M  V30 613 H 60.301 1.54327 2.71274 0
M  V30 614 N 60.6021 -1.18246 1.0419 0
M  V30 615 C 61.8501 -1.87886 0.744543 0
M  V30 616 C 62.1711 -1.8082 -0.730006 0
M  V30 617 O 61.4411 -1.22736 -1.52685 0
M  V30 618 H 60.0211 -0.695556 0.272417 0
M  V30 619 H 62.6831 -1.43494 1.31892 0
M  V30 620 H 61.7791 -2.9389 1.05049 0
M  V30 621 N 62.0802 -0.821533 -1.34494 0
M  V30 622 C 63.3282 -0.408139 -1.97936 0
M  V30 623 C 63.6492 1.03193 -1.65457 0
M  V30 624 O 62.9192 1.71622 -0.944595 0
M  V30 625 H 61.4992 -0.147928 -0.732206 0
M  V30 626 H 64.1612 -1.05067 -1.64155 0
M  V30 627 H 63.2572 -0.52601 -3.07635 0
M  V30 628 N 63.5583 1.46682 -0.576371 0
M  V30 629 C 64.7833 2.07304 -0.0630475 0
M  V30 630 C 65.2083 1.42329 1.2298 0
M  V30 631 O 64.5663 0.504865 1.74129 0
M  V30 632 C 64.6143 3.60472 0.095895 0
M  V30 633 O 63.7183 3.95927 1.15394 0
M  V30 634 H 63.0593 0.661288 -0.0599463 0
M  V30 635 H 65.5893 1.88417 -0.797511 0
M  V30 636 H 65.5993 4.06865 0.304071 0
M  V30 637 H 64.2743 4.07157 -0.84828 0
M  V30 638 H 62.8513 3.61252 0.924724 0
M  V30 639 N 65.0364 0.313813 1.54444 0
M  V30 640 C 65.9664 -0.549454 2.26943 0
M  V30 641 C 66.9474 -1.12741 1.27372 0
M  V30 642 O 68.1324 -1.15436 1.56167 0
M  V30 643 C 65.2624 -1.71523 3.01989 0
M  V30 644 C 64.2164 -1.26703 4.08816 0
M  V30 645 C 63.5424 -2.51898 4.71647 0
M  V30 646 C 64.8424 -0.388962 5.2085 0
M  V30 647 H 66.5364 0.0552661 2.99349 0
M  V30 648 H 64.0824 0.0280207 1.43973 0
M  V30 649 H 66.0354 -2.32535 3.51433 0
M  V30 650 H 64.7594 -2.34639 2.27183 0
M  V30 651 H 63.4184 -0.679896 3.6024 0
M  V30 652 H 63.0664 -3.13356 3.93468 0
M  V30 653 H 62.7664 -2.22605 5.43802 0
M  V30 654 H 64.2904 -3.1369 5.23861 0
M  V30 655 H 65.7044 -0.905107 5.6611 0
M  V30 656 H 64.1014 -0.18924 5.99802 0
M  V30 657 H 65.1714 0.582699 4.81386 0
M  V30 658 N 66.5145 -1.57545 0.0417849 0
M  V30 659 C 67.9255 -1.80011 -0.495259 0
M  V30 660 C 68.2765 -0.953199 -1.71489 0
M  V30 661 O 67.4015 -0.167138 -2.15754 0
M  V30 662 C 67.9965 -3.26482 -0.905265 0
M  V30 663 C 66.5555 -3.499 -1.38734 0
M  V30 664 C 65.7025 -2.74979 -0.358056 0
M  V30 665 H 68.6535 -1.56425 0.267736 0
M  V30 666 H 68.6745 -3.36887 -1.76882 0
M  V30 667 H 68.1865 -3.88096 -0.017401 0
M  V30 668 H 66.2875 -2.93553 -2.29471 0
M  V30 669 H 66.4005 -4.58615 -1.38598 0
M  V30 670 H 64.7645 -2.40834 -0.828912 0
M  V30 671 H 65.5475 -3.39315 0.521561 0
M  V30 672 N 67.9926 0.231505 -1.5589 0
M  V30 673 C 68.9026 1.308 -1.94752 0
M  V30 674 C 69.9186 1.51826 -0.849989 0
M  V30 675 O 71.0946 1.6515 -1.15271 0
M  V30 676 C 68.1596 2.63968 -2.24771 0
M  V30 677 C 67.2206 2.51331 -3.48039 0
M  V30 678 C 66.4536 3.78148 -3.76616 0
M  V30 679 O 66.6766 4.80722 -3.07022 0
M  V30 680 O 65.6106 3.75857 -4.70123 0
M  V30 681 H 69.4366 1.0083 -2.86474 0
M  V30 682 H 67.0216 0.433547 -1.42971 0
M  V30 683 H 68.9036 3.42633 -2.45318 0
M  V30 684 H 67.5786 2.9364 -1.36225 0
M  V30 685 H 66.4856 1.709 -3.32782 0
M  V30 686 H 67.8186 2.26601 -4.36936 0
M  V30 687 N 69.4707 1.49531 0.497807 0
M  V30 688 C 70.6957 1.63159 1.28039 0
M  V30 689 C 71.1207 0.30418 1.85624 0
M  V30 690 O 70.4787 -0.728618 1.66015 0
M  V30 691 C 70.5267 2.70537 2.38416 0
M  V30 692 O 69.6307 2.29931 3.42353 0
M  V30 693 H 68.9717 0.546001 0.377861 0
M  V30 694 H 71.5017 1.9574 0.59558 0
M  V30 695 H 71.5117 2.92802 2.84132 0
M  V30 696 H 70.1867 3.6689 1.95869 0
M  V30 697 H 68.7637 2.18009 3.02533 0
M  V30 698 N 70.9488 -0.749086 1.3866 0
M  V30 699 C 71.8788 -1.8764 1.38973 0
M  V30 700 C 72.8598 -1.68178 0.255004 0
M  V30 701 O 74.0448 -1.88704 0.458754 0
M  V30 702 C 71.1748 -3.25222 1.21851 0
M  V30 703 C 70.1288 -3.59295 2.32575 0
M  V30 704 C 69.4548 -4.95663 2.00555 0
M  V30 705 C 70.7548 -3.63709 3.7485 0
M  V30 706 H 72.4488 -1.87635 2.3331 0
M  V30 707 H 69.9948 -0.901329 1.12303 0
M  V30 708 H 71.9478 -4.03746 1.20695 0
M  V30 709 H 70.6718 -3.25719 0.239775 0
M  V30 710 H 69.3308 -2.83093 2.32925 0
M  V30 711 H 68.9788 -4.92724 1.01154 0
M  V30 712 H 68.6788 -5.19429 2.74714 0
M  V30 713 H 70.2028 -5.7656 2.01024 0
M  V30 714 H 71.6168 -4.32338 3.76506 0
M  V30 715 H 70.0138 -3.98986 4.48252 0
M  V30 716 H 71.0838 -2.63834 4.06841 0
M  V30 717 N 72.4269 -1.23603 -0.977757 0
M  V30 718 C 73.8429 -0.999251 -1.24447 0
M  V30 719 C 74.0429 0.298053 -1.99283 0
M  V30 720 O 73.0989 1.01681 -2.31122 0
M  V30 721 C 74.4119 -2.20784 -2.04144 0
M  V30 722 C 75.9599 -2.25303 -2.17273 0
M  V30 723 C 76.4349 -3.45755 -3.00362 0
M  V30 724 N 77.9259 -3.4601 -3.07947 0
M  V30 725 C 78.6609 -4.35868 -3.72568 0
M  V30 726 N 78.1569 -5.35966 -4.38991 0
M  V30 727 N 79.9499 -4.23605 -3.6948 0
M  V30 728 H 72.1009 -2.06986 -0.476483 0
M  V30 729 H 74.3639 -0.907801 -0.273134 0
M  V30 730 H 74.0699 -3.14945 -1.56533 0
M  V30 731 H 73.9439 -2.22085 -3.04891 0
M  V30 732 H 76.3309 -1.3168 -2.64092 0
M  V30 733 H 76.4119 -2.28033 -1.15907 0
M  V30 734 H 76.0559 -4.39687 -2.5424 0
M  V30 735 H 75.9859 -3.40266 -4.01904 0
M  V30 736 H 78.4769 -2.73588 -2.60688 0
M  V30 737 H 78.7899 -6.00783 -4.86086 0
M  V30 738 H 77.1349 -5.39863 -4.37691 0
M  V30 739 H 80.3259 -3.44647 -3.16759 0
M  V30 740 H 80.4989 -4.93836 -4.1956 0
M  V30 741 N 73.905 1.17692 -1.04816 0
M  V30 742 C 75.321 1.39863 -0.768794 0
M  V30 743 C 75.521 1.91118 0.638451 0
M  V30 744 O 74.577 2.10036 1.40146 0
M  V30 745 C 75.89 2.39274 -1.82122 0
M  V30 746 C 77.438 2.52987 -1.843 0
M  V30 747 C 77.913 3.55669 -2.88555 0
M  V30 748 N 79.404 3.63183 -2.87493 0
M  V30 749 C 80.139 4.42381 -3.64811 0
M  V30 750 N 79.635 5.25125 -4.51903 0
M  V30 751 N 81.428 4.37217 -3.53267 0
M  V30 752 H 73.579 0.82752 -1.95617 0
M  V30 753 H 75.842 0.426123 -0.846831 0
M  V30 754 H 75.548 2.08678 -2.83102 0
M  V30 755 H 75.422 3.38725 -1.65967 0
M  V30 756 H 77.809 2.82896 -0.839869 0
M  V30 757 H 77.89 1.53623 -2.04532 0
M  V30 758 H 77.534 3.26499 -3.89051 0
M  V30 759 H 77.464 4.54728 -2.65575 0
M  V30 760 H 79.955 3.04103 -2.24343 0
M  V30 761 H 80.268 5.82728 -5.07591 0
M  V30 762 H 78.613 5.24519 -4.55966 0
M  V30 763 H 81.804 3.71626 -2.84625 0
M  V30 764 H 81.977 4.98696 -4.13771 0
M  V30 765 N 75.3831 0.828654 1.34056 0
M  V30 766 C 76.6291 0.42008 1.98402 0
M  V30 767 C 76.9621 -1.01564 1.65525 0
M  V30 768 O 76.2371 -1.70834 0.929831 0
M  V30 769 C 76.5201 0.62927 3.54559 0
M  V30 770 C 76.3731 2.11152 3.97159 0
M  V30 771 C 77.6921 0.0688756 4.40046 0
M  V30 772 H 74.8111 0.154104 0.720709 0
M  V30 773 H 77.4531 1.04228 1.5886 0
M  V30 774 H 75.6031 0.0996418 3.88372 0
M  V30 775 H 77.2751 2.70522 3.73651 0
M  V30 776 H 75.5181 2.59985 3.47261 0
M  V30 777 H 76.1891 2.20868 5.05887 0
M  V30 778 H 78.6651 0.521458 4.1282 0
M  V30 779 H 77.5411 0.245006 5.48353 0
M  V30 780 H 77.8021 -1.0266 4.30015 0
M  V30 781 N 76.8612 -1.46375 0.584142 0
M  V30 782 C 77.7932 -2.28443 -0.186119 0
M  V30 783 C 78.8062 -1.38596 -0.854115 0
M  V30 784 O 79.9952 -1.63183 -0.723438 0
M  V30 785 C 77.0952 -3.13671 -1.28311 0
M  V30 786 C 76.2682 -4.31652 -0.706758 0
M  V30 787 C 75.3272 -4.98267 -1.69163 0
M  V30 788 O 74.3532 -5.55815 -1.22712 0
M  V30 789 N 75.5552 -4.95408 -3.02575 0
M  V30 790 H 78.3202 -2.9519 0.517986 0
M  V30 791 H 75.8812 -1.56303 0.42201 0
M  V30 792 H 77.8732 -3.55101 -1.94128 0
M  V30 793 H 76.4432 -2.48989 -1.89005 0
M  V30 794 H 75.6632 -3.93989 0.128908 0
M  V30 795 H 76.9512 -5.07906 -0.301506 0
M  V30 796 H 76.3492 -4.49902 -3.42936 0
M  V30 797 H 74.9062 -5.40774 -3.63877 0
M  V30 798 N 78.3393 -0.321999 -1.54275 0
M  V30 799 C 79.2493 0.553631 -2.27974 0
M  V30 800 C 80.2653 1.13054 -1.32268 0
M  V30 801 O 81.4413 1.15084 -1.6528 0
M  V30 802 C 78.5063 1.69927 -3.02201 0
M  V30 803 C 77.5673 1.15433 -4.1349 0
M  V30 804 C 76.8003 2.24537 -4.84168 0
M  V30 805 O 77.0233 3.44852 -4.5435 0
M  V30 806 O 75.9573 1.90044 -5.7111 0
M  V30 807 H 79.7833 -0.0448345 -3.03667 0
M  V30 808 H 77.3683 -0.0877418 -1.49142 0
M  V30 809 H 79.2503 2.3663 -3.48689 0
M  V30 810 H 77.9253 2.28395 -2.29385 0
M  V30 811 H 76.8323 0.452436 -3.71354 0
M  V30 812 H 78.1653 0.614805 -4.88345 0
M  V30 813 N 79.8174 1.5752 -0.0501392 0
M  V30 814 C 80.7474 2.14502 0.922566 0
M  V30 815 C 81.7284 1.06642 1.3252 0
M  V30 816 O 82.9134 1.34577 1.4001 0
M  V30 817 C 80.0434 2.68916 2.19776 0
M  V30 818 C 78.9974 3.8175 1.93523 0
M  V30 819 C 78.3234 4.22677 3.27487 0
M  V30 820 C 79.6234 5.06932 1.25765 0
M  V30 821 H 81.3174 2.9603 0.447952 0
M  V30 822 H 78.8634 1.42401 0.214024 0
M  V30 823 H 80.8164 3.07419 2.88222 0
M  V30 824 H 79.5404 1.84578 2.69441 0
M  V30 825 H 78.1994 3.43718 1.27489 0
M  V30 826 H 77.8474 3.35291 3.74952 0
M  V30 827 H 77.5474 4.98725 3.1072 0
M  V30 828 H 79.0714 4.63779 3.97166 0
M  V30 829 H 80.4854 5.42888 1.84244 0
M  V30 830 H 78.8824 5.88116 1.19328 0
M  V30 831 H 79.9524 4.84337 0.233536 0
M  V30 832 N 81.2955 -0.223234 1.56011 0
M  V30 833 C 82.5235 -0.964812 1.83027 0
M  V30 834 C 82.9385 -1.78013 0.62904 0
M  V30 835 O 82.2955 -1.78008 -0.402414 0
M  V30 836 C 82.3465 -1.88373 3.08542 0
M  V30 837 O 82.0675 -1.10137 4.2403 0
M  V30 838 C 83.5685 -2.73934 3.48533 0
M  V30 839 H 80.7885 -0.282842 0.608475 0
M  V30 840 H 83.3325 -0.238971 2.03099 0
M  V30 841 H 81.4875 -2.56354 2.9045 0
M  V30 842 H 81.9015 -1.72501 4.95322 0
M  V30 843 H 83.3755 -3.34117 4.39397 0
M  V30 844 H 83.8525 -3.46244 2.70207 0
M  V30 845 H 84.4585 -2.11369 3.69057 0
M  V30 846 N 82.7736 -1.49793 -0.48987 0
M  V30 847 C 84.0216 -1.59525 -1.24081 0
M  V30 848 C 84.3426 -0.288953 -1.92847 0
M  V30 849 O 83.6126 0.692436 -1.83254 0
M  V30 850 H 82.1926 -0.587796 -0.460983 0
M  V30 851 H 84.8546 -1.86477 -0.566778 0
M  V30 852 H 83.9506 -2.39696 -1.99881 0
M  V30 853 N 84.2517 0.741722 -1.39055 0
M  V30 854 C 85.6677 1.04638 -1.20512 0
M  V30 855 C 85.8677 2.01405 -0.0620218 0
M  V30 856 O 84.9237 2.45547 0.588457 0
M  V30 857 C 86.2367 1.6151 -2.53643 0
M  V30 858 C 87.7847 1.73623 -2.6043 0
M  V30 859 C 88.2597 2.33906 -3.93767 0
M  V30 860 N 89.7507 2.41323 -3.9537 0
M  V30 861 C 90.4857 2.88888 -4.95309 0
M  V30 862 N 89.9817 3.36401 -6.05645 0
M  V30 863 N 91.7747 2.88037 -4.82692 0
M  V30 864 H 83.9257 0.0998155 -2.12165 0
M  V30 865 H 86.1887 0.106907 -0.941953 0
M  V30 866 H 85.8947 0.978739 -3.37807 0
M  V30 867 H 85.7687 2.60411 -2.72885 0
M  V30 868 H 88.1557 2.36384 -1.76655 0
M  V30 869 H 88.2367 0.733945 -2.45045 0
M  V30 870 H 87.8807 1.71776 -4.7797 0
M  V30 871 H 87.8107 3.34799 -4.06469 0
M  V30 872 H 90.3017 2.07734 -3.15682 0
M  V30 873 H 90.6147 3.71186 -6.77821 0
M  V30 874 H 88.9597 3.34427 -6.09248 0
M  V30 875 H 92.1507 2.50237 -3.95599 0
M  V30 876 H 92.3237 3.24792 -5.60726 0
M  V30 877 N 85.7298 1.2412 0.971189 0
M  V30 878 C 86.9548 1.10667 1.75407 0
M  V30 879 C 87.3798 -0.337048 1.85056 0
M  V30 880 O 86.7378 -1.24396 1.31892 0
M  V30 881 C 86.7858 1.74726 3.15441 0
M  V30 882 O 85.8898 1.01566 3.99697 0
M  V30 883 H 85.2308 0.387341 0.539317 0
M  V30 884 H 87.7608 1.64358 1.2185 0
M  V30 885 H 87.7708 1.80341 3.6598 0
M  V30 886 H 86.4458 2.79773 3.07734 0
M  V30 887 H 85.0228 1.03713 3.58187 0
M  V30 888 N 87.2079 -1.17134 1.05439 0
M  V30 889 C 88.4539 -1.87733 0.767077 0
M  V30 890 C 88.7869 -1.8098 -0.704253 0
M  V30 891 O 88.0619 -1.21951 -1.5152 0
M  V30 892 C 88.3449 -3.37659 1.25133 0
M  V30 893 C 88.1979 -3.53149 2.78578 0
M  V30 894 C 89.5169 -4.31768 0.852324 0
M  V30 895 H 86.6359 -0.681687 0.280129 0
M  V30 896 H 89.2779 -1.37732 1.30881 0
M  V30 897 H 87.4279 -3.80373 0.790469 0
M  V30 898 H 89.0999 -3.19434 3.32806 0
M  V30 899 H 87.3429 -2.95345 3.17732 0
M  V30 900 H 88.0139 -4.58403 3.07523 0
M  V30 901 H 90.4899 -3.96909 1.24911 0
M  V30 902 H 89.3659 -5.35199 1.21873 0
M  V30 903 H 89.6269 -4.41429 -0.243485 0
M  V30 904 N 88.686 -0.835752 -1.33615 0
M  V30 905 C 89.596 -0.269088 -2.33052 0
M  V30 906 C 90.612 0.603251 -1.63208 0
M  V30 907 O 91.788 0.508112 -1.94885 0
M  V30 908 C 88.853 0.549091 -3.42324 0
M  V30 909 C 87.914 -0.347156 -4.27894 0
M  V30 910 C 87.147 0.43207 -5.31948 0
M  V30 911 O 87.37 1.66409 -5.45586 0
M  V30 912 O 86.304 -0.192298 -6.01593 0
M  V30 913 H 90.13 -1.09243 -2.83372 0
M  V30 914 H 87.715 -0.598198 -1.36901 0
M  V30 915 H 89.597 1.01414 -4.09015 0
M  V30 916 H 88.272 1.34955 -2.94226 0
M  V30 917 H 87.179 -0.859979 -3.64081 0
M  V30 918 H 88.512 -1.1123 -4.79467 0
M  V30 919 N 90.1641 1.46063 -0.591896 0
M  V30 920 C 91.4111 2.02338 -0.0809991 0
M  V30 921 C 91.7391 1.46228 1.28249 0
M  V30 922 O 90.9941 0.620818 1.85592 0
M  V30 923 C 91.2931 3.57391 0.0249813 0
M  V30 924 C 90.9591 4.32583 -1.27211 0
M  V30 925 C 89.6211 4.52844 -1.62745 0
M  V30 926 C 91.9731 4.75687 -2.13005 0
M  V30 927 C 89.3011 5.13462 -2.83855 0
M  V30 928 C 91.6531 5.37644 -3.3335 0
M  V30 929 C 90.3171 5.5613 -3.69155 0
M  V30 930 H 89.5871 0.740407 -0.0296397 0
M  V30 931 H 92.2341 1.75321 -0.770374 0
M  V30 932 H 90.5391 3.83597 0.797537 0
M  V30 933 H 92.2361 3.98621 0.436184 0
M  V30 934 H 88.8261 4.17116 -0.985499 0
M  V30 935 H 93.0101 4.59782 -1.86855 0
M  V30 936 H 88.2661 5.25965 -3.11722 0
M  V30 937 H 92.4401 5.7 -4.00092 0
M  V30 938 H 90.0671 6.0287 -4.63089 0
M  V30 939 N 91.6422 0.330177 1.54103 0
M  V30 940 C 92.5522 -0.541534 2.28264 0
M  V30 941 C 93.5682 -1.12351 1.32866 0
M  V30 942 O 94.7442 -1.14206 1.65888 0
M  V30 943 C 91.8092 -1.68322 3.03098 0
M  V30 944 C 90.8702 -1.13238 4.14096 0
M  V30 945 C 90.1032 -2.21966 4.85352 0
M  V30 946 O 90.3262 -3.42437 4.56172 0
M  V30 947 O 89.2602 -1.87013 5.7211 0
M  V30 948 H 93.0862 0.060938 3.03639 0
M  V30 949 H 90.6712 0.09565 1.49093 0
M  V30 950 H 92.5532 -2.34777 3.49939 0
M  V30 951 H 91.2282 -2.27176 2.30593 0
M  V30 952 H 90.1352 -0.432736 3.71589 0
M  V30 953 H 91.4682 -0.588898 4.88664 0
M  V30 954 N 93.1203 -1.57491 0.0584922 0
M  V30 955 C 94.0303 -2.15448 -0.928414 0
M  V30 956 C 95.0463 -1.11416 -1.3365 0
M  V30 957 O 96.2223 -1.4362 -1.41193 0
M  V30 958 C 93.2873 -2.69393 -2.18239 0
M  V30 959 C 92.3483 -3.88249 -1.83196 0
M  V30 960 C 91.5813 -4.39613 -3.02616 0
M  V30 961 O 91.8043 -3.90023 -4.16219 0
M  V30 962 O 90.7383 -5.31111 -2.83204 0
M  V30 963 H 94.5643 -3.00112 -0.465483 0
M  V30 964 H 92.1493 -1.48499 -0.163826 0
M  V30 965 H 94.0313 -3.04026 -2.91798 0
M  V30 966 H 92.7063 -1.87796 -2.63656 0
M  V30 967 H 91.6133 -3.58492 -1.06931 0
M  V30 968 H 92.9463 -4.71098 -1.42573 0
M  V30 969 N 94.5984 0.214957 -1.56127 0
M  V30 970 C 95.5314 1.29382 -1.87977 0
M  V30 971 C 96.5094 1.44897 -0.737807 0
M  V30 972 O 97.6934 1.60605 -0.986833 0
M  V30 973 C 94.8204 2.66325 -2.09258 0
M  V30 974 C 93.8664 2.67789 -3.31951 0
M  V30 975 S 94.6994 2.21198 -4.8768 0
M  V30 976 C 95.8554 3.60003 -5.12004 0
M  V30 977 H 96.0884 1.02173 -2.79192 0
M  V30 978 H 93.6214 0.417516 -1.48648 0
M  V30 979 H 95.5794 3.45162 -2.22201 0
M  V30 980 H 94.2404 2.90755 -1.18829 0
M  V30 981 H 93.4334 3.68436 -3.43906 0
M  V30 982 H 93.0354 1.9702 -3.17898 0
M  V30 983 H 95.3274 4.55739 -5.01307 0
M  V30 984 H 96.2704 3.52959 -6.13861 0
M  V30 985 H 96.6784 3.53996 -4.39712 0
M  V30 986 N 96.0765 1.50051 0.48192 0
M  V30 987 C 97.3535 1.51009 1.2432 0
M  V30 988 C 97.7335 0.248587 2.09631 0
M  V30 989 O 97.0815 -0.768409 2.15192 0
M  V30 990 C 97.2915 2.79981 2.08355 0
M  V30 991 C 98.6395 3.3022 2.66908 0
M  V30 992 O 99.6635 2.81228 2.18607 0
M  V30 993 O 98.5225 4.15595 3.54884 0
M  V30 994 H 95.6165 0.605239 0.563573 0
M  V30 995 H 98.1625 1.62332 0.494627 0
M  V30 996 H 96.9345 3.63275 1.45419 0
M  V30 997 H 96.5575 2.7161 2.90368 0
M  V30 998 N 97.5546 -0.734337 1.39446 0
M  V30 999 C 98.8036 -1.48937 1.36017 0
M  V30 1000 C 99.1166 -1.95557 -0.0409005 0
M  V30 1001 O 100.323 -2.70779 -0.19778 0
M  V30 1002 C 98.7786 -2.69125 2.38955 0
M  V30 1003 C 98.3866 -2.29452 3.8478 0
M  V30 1004 C 100.131 -3.46944 2.44603 0
M  V30 1005 C 98.0376 -3.46366 4.79358 0
M  V30 1006 H 96.9676 -0.559296 0.505672 0
M  V30 1007 H 99.6186 -0.800983 1.65095 0
M  V30 1008 H 98.0006 -3.40041 2.02948 0
M  V30 1009 H 99.1746 -1.66077 4.29831 0
M  V30 1010 H 97.4896 -1.64723 3.82433 0
M  V30 1011 H 100.087 -4.33907 3.12456 0
M  V30 1012 H 100.43 -3.89454 1.47076 0
M  V30 1013 H 100.963 -2.83056 2.79507 0
M  V30 1014 H 97.7016 -3.08905 5.78151 0
M  V30 1015 H 97.2216 -4.08719 4.38986 0
M  V30 1016 H 98.9006 -4.12691 4.98292 0
M  V30 1017 N 99.0327 -1.24633 -0.964593 0
M  V30 1018 C 99.9627 -1.06611 -2.07741 0
M  V30 1019 C 100.944 0.0218666 -1.70086 0
M  V30 1020 O 102.129 -0.145793 -1.93652 0
M  V30 1021 C 99.2587 -0.673444 -3.40708 0
M  V30 1022 C 98.2127 -1.71054 -3.92332 0
M  V30 1023 C 97.5387 -1.17285 -5.21678 0
M  V30 1024 C 98.8387 -3.10718 -4.19824 0
M  V30 1025 H 100.533 -1.99693 -2.23076 0
M  V30 1026 H 98.0787 -0.96152 -1.07195 0
M  V30 1027 H 100.032 -0.534345 -4.17998 0
M  V30 1028 H 98.7557 0.293073 -3.25282 0
M  V30 1029 H 97.4147 -1.83791 -3.17201 0
M  V30 1030 H 97.0627 -0.196847 -5.02615 0
M  V30 1031 H 96.7627 -1.86592 -5.57187 0
M  V30 1032 H 98.2867 -1.04593 -6.01575 0
M  V30 1033 H 99.7007 -3.01192 -4.87808 0
M  V30 1034 H 98.0977 -3.77406 -4.66567 0
M  V30 1035 H 99.1677 -3.58524 -3.26479 0
M  V30 1036 N 100.511 1.16574 -1.06058 0
M  V30 1037 C 101.788 1.83048 -0.689416 0
M  V30 1038 C 102.168 1.94122 0.829443 0
M  V30 1039 O 101.516 1.48249 1.7388 0
M  V30 1040 C 101.726 3.20186 -1.38859 0
M  V30 1041 C 103.074 3.95989 -1.53226 0
M  V30 1042 O 104.098 3.29696 -1.3483 0
M  V30 1043 O 102.957 5.14813 -1.83384 0
M  V30 1044 H 100.051 0.790258 -0.243764 0
M  V30 1045 H 102.597 1.23797 -1.16071 0
M  V30 1046 H 101.369 3.07146 -2.4244 0
M  V30 1047 H 100.992 3.87112 -0.907216 0
M  V30 1048 N 101.989 0.842826 1.3317 0
M  V30 1049 C 102.921 0.236245 2.27979 0
M  V30 1050 C 103.934 -0.585282 1.51915 0
M  V30 1051 O 105.123 -0.411705 1.73687 0
M  V30 1052 C 102.223 -0.685717 3.3189 0
M  V30 1053 C 101.396 0.0973448 4.37292 0
M  V30 1054 C 100.455 -0.748565 5.20848 0
M  V30 1055 O 99.4809 -0.186339 5.68895 0
M  V30 1056 N 100.683 -2.06527 5.42519 0
M  V30 1057 H 103.448 1.05088 2.80672 0
M  V30 1058 H 101.009 0.701667 1.45905 0
M  V30 1059 H 103.001 -1.25669 3.84694 0
M  V30 1060 H 101.571 -1.40105 2.79445 0
M  V30 1061 H 100.791 0.849706 3.84933 0
M  V30 1062 H 102.079 0.635643 5.04814 0
M  V30 1063 H 101.477 -2.54554 5.05192 0
M  V30 1064 H 100.034 -2.58464 5.98364 0
M  V30 1065 N 103.467 -1.45747 0.599634 0
M  V30 1066 C 104.715 -2.01893 0.0915472 0
M  V30 1067 C 105.036 -1.47155 -1.27946 0
M  V30 1068 O 104.306 -0.66273 -1.84349 0
M  V30 1069 H 102.886 -0.746363 0.0308524 0
M  V30 1070 H 105.548 -1.78645 0.779237 0
M  V30 1071 H 104.644 -3.1208 0.0353086 0
M  V30 1072 N 104.945 -0.338344 -1.53925 0
M  V30 1073 C 105.908 0.508299 -2.23493 0
M  V30 1074 C 106.908 1.03175 -1.23335 0
M  V30 1075 O 108.098 0.921826 -1.47811 0
M  V30 1076 C 105.23 1.70754 -2.95052 0
M  V30 1077 H 106.423 -0.100058 -2.99733 0
M  V30 1078 H 103.976 -0.0896198 -1.56043 0
M  V30 1079 H 104.711 2.35474 -2.22986 0
M  V30 1080 H 104.496 1.33946 -3.68512 0
M  V30 1081 H 105.986 2.30818 -3.48013 0
M  V30 1082 N 106.423 1.57458 -0.0668435 0
M  V30 1083 C 107.353 2.15468 0.899764 0
M  V30 1084 C 108.334 1.08042 1.31381 0
M  V30 1085 O 109.519 1.36054 1.38574 0
M  V30 1086 C 106.649 2.71232 2.16911 0
M  V30 1087 C 105.603 3.83781 1.89463 0
M  V30 1088 C 104.929 4.26127 3.22986 0
M  V30 1089 C 106.229 5.08238 1.20381 0
M  V30 1090 H 107.923 2.96488 0.416529 0
M  V30 1091 H 105.469 1.4262 0.198908 0
M  V30 1092 H 107.422 3.10458 2.84945 0
M  V30 1093 H 106.146 1.87426 2.67468 0
M  V30 1094 H 104.805 3.45051 1.23836 0
M  V30 1095 H 104.453 3.39249 3.71374 0
M  V30 1096 H 104.153 5.01993 3.05413 0
M  V30 1097 H 105.677 4.67966 3.92225 0
M  V30 1098 H 107.091 5.44811 1.78475 0
M  V30 1099 H 105.488 5.89349 1.13083 0
M  V30 1100 H 106.558 4.84558 0.182153 0
M  V30 1101 N 107.901 -0.206675 1.56239 0
M  V30 1102 C 108.833 -1.27997 1.9013 0
M  V30 1103 C 109.846 -1.42299 0.790883 0
M  V30 1104 O 111.035 -1.42931 1.06925 0
M  V30 1105 C 108.135 -2.65368 2.10792 0
M  V30 1106 C 107.308 -2.72824 3.41886 0
M  V30 1107 C 106.367 -3.9131 3.51799 0
M  V30 1108 O 105.393 -3.78953 4.24716 0
M  V30 1109 N 106.595 -5.06265 2.84035 0
M  V30 1110 H 109.36 -0.992444 2.82791 0
M  V30 1111 H 106.921 -0.396652 1.56966 0
M  V30 1112 H 108.913 -3.43039 2.14724 0
M  V30 1113 H 107.483 -2.86657 1.24685 0
M  V30 1114 H 106.703 -1.81515 3.49923 0
M  V30 1115 H 107.991 -2.74786 4.28217 0
M  V30 1116 H 107.389 -5.19203 2.246 0
M  V30 1117 H 105.946 -5.81925 2.93609 0
M  V30 1118 N 109.379 -1.50304 -0.473955 0
M  V30 1119 C 110.795 -1.37667 -0.807466 0
M  V30 1120 C 110.995 -0.430555 -1.96846 0
M  V30 1121 O 110.051 0.127874 -2.52176 0
M  V30 1122 C 111.364 -2.78974 -1.12223 0
M  V30 1123 C 112.912 -2.87868 -1.22885 0
M  V30 1124 C 113.387 -4.30003 -1.57676 0
M  V30 1125 N 114.878 -4.3294 -1.64673 0
M  V30 1126 C 115.613 -5.3991 -1.93091 0
M  V30 1127 N 115.109 -6.57092 -2.1955 0
M  V30 1128 N 116.902 -5.27351 -1.94569 0
M  V30 1129 H 109.053 -2.10394 0.291212 0
M  V30 1130 H 111.316 -0.945575 0.0677609 0
M  V30 1131 H 111.022 -3.50031 -0.342229 0
M  V30 1132 H 110.896 -3.16038 -2.05913 0
M  V30 1133 H 113.283 -2.17032 -1.99953 0
M  V30 1134 H 113.364 -2.54352 -0.271814 0
M  V30 1135 H 113.008 -5.01375 -0.81149 0
M  V30 1136 H 112.938 -4.61004 -2.54525 0
M  V30 1137 H 115.429 -3.48441 -1.46277 0
M  V30 1138 H 115.742 -7.34425 -2.405 0
M  V30 1139 H 114.087 -6.60272 -2.16948 0
M  V30 1140 H 117.278 -4.34801 -1.73394 0
M  V30 1141 H 117.451 -6.10805 -2.16381 0
M  V30 1142 N 110.857 0.726932 -1.39834 0
M  V30 1143 C 111.787 1.85405 -1.41941 0
M  V30 1144 C 112.768 1.67751 -0.281728 0
M  V30 1145 O 113.953 1.8795 -0.488717 0
M  V30 1146 C 111.083 3.23243 -1.2701 0
M  V30 1147 C 110.037 3.55549 -2.38262 0
M  V30 1148 C 109.363 4.9241 -2.08415 0
M  V30 1149 C 110.663 3.577 -3.80589 0
M  V30 1150 H 112.357 1.83899 -2.36266 0
M  V30 1151 H 109.903 0.883349 -1.13723 0
M  V30 1152 H 111.856 4.01775 -1.27103 0
M  V30 1153 H 110.58 3.25296 -0.291564 0
M  V30 1154 H 109.239 2.79351 -2.37399 0
M  V30 1155 H 108.887 4.91052 -1.0898 0
M  V30 1156 H 108.587 5.14992 -2.82943 0
M  V30 1157 H 110.111 5.73289 -2.10171 0
M  V30 1158 H 111.525 4.26293 -3.83337 0
M  V30 1159 H 109.922 3.91804 -4.54543 0
M  V30 1160 H 110.992 2.57328 -4.10987 0
M  V30 1161 N 112.336 1.25143 0.95797 0
M  V30 1162 C 113.583 1.09692 1.70217 0
M  V30 1163 C 113.911 -0.362654 1.91089 0
M  V30 1164 O 113.166 -1.28386 1.47701 0
M  V30 1165 C 113.465 1.79272 3.09187 0
M  V30 1166 C 113.131 3.29196 3.08125 0
M  V30 1167 C 111.793 3.70096 3.07543 0
M  V30 1168 C 114.145 4.24995 3.0171 0
M  V30 1169 C 111.473 5.05213 2.9829 0
M  V30 1170 C 113.825 5.60132 2.93999 0
M  V30 1171 C 112.489 6.00365 2.9175 0
M  V30 1172 H 111.759 0.401393 0.622868 0
M  V30 1173 H 114.406 1.55372 1.11945 0
M  V30 1174 H 112.711 1.26014 3.70982 0
M  V30 1175 H 114.408 1.64773 3.65583 0
M  V30 1176 H 110.998 2.96651 3.09348 0
M  V30 1177 H 115.182 3.9439 3.01281 0
M  V30 1178 H 110.438 5.35569 2.94916 0
M  V30 1179 H 114.612 6.3406 2.87996 0
M  V30 1180 H 112.239 7.05023 2.84336 0
M  V30 1181 N 113.814 -1.1601 1.06675 0
M  V30 1182 C 114.761 -2.20525 0.680967 0
M  V30 1183 C 115.731 -1.62904 -0.324283 0
M  V30 1184 O 116.916 -1.89615 -0.212294 0
M  V30 1185 C 114.056 -3.45013 0.0776551 0
M  V30 1186 C 113.169 -4.16863 1.13355 0
M  V30 1187 C 112.304 -5.2888 0.49597 0
M  V30 1188 C 111.343 -5.92537 1.53513 0
M  V30 1189 N 110.48 -6.96038 0.920631 0
M  V30 1190 H 115.32 -2.52876 1.57663 0
M  V30 1191 H 112.857 -1.24199 0.788223 0
M  V30 1192 H 114.815 -4.16193 -0.289704 0
M  V30 1193 H 113.445 -3.132 -0.781393 0
M  V30 1194 H 112.497 -3.44248 1.61857 0
M  V30 1195 H 113.809 -4.60294 1.92174 0
M  V30 1196 H 112.963 -6.06653 0.0758604 0
M  V30 1197 H 111.702 -4.86622 -0.324062 0
M  V30 1198 H 110.707 -5.13482 1.9651 0
M  V30 1199 H 111.932 -6.36873 2.35733 0
M  V30 1200 H 109.878 -6.55888 0.12138 0
M  V30 1201 H 109.795 -7.3786 1.64616 0
M  V30 1202 H 111.063 -7.77725 0.525795 0
M  V30 1203 N 115.292 -0.849877 -1.32721 0
M  V30 1204 C 116.239 -0.289033 -2.28983 0
M  V30 1205 C 117.209 0.601324 -1.54833 0
M  V30 1206 O 118.394 0.537253 -1.8308 0
M  V30 1207 C 115.534 0.520623 -3.4115 0
M  V30 1208 C 114.647 -0.394989 -4.3019 0
M  V30 1209 C 113.782 0.426834 -5.29482 0
M  V30 1210 C 112.821 -0.486476 -6.10164 0
M  V30 1211 N 111.958 0.297879 -7.01468 0
M  V30 1212 H 116.798 -1.11519 -2.76347 0
M  V30 1213 H 114.335 -0.56138 -1.35967 0
M  V30 1214 H 116.293 1.00563 -4.04899 0
M  V30 1215 H 114.923 1.31165 -2.9495 0
M  V30 1216 H 113.975 -0.99836 -3.67065 0
M  V30 1217 H 115.287 -1.09612 -4.86607 0
M  V30 1218 H 114.441 0.975205 -5.98811 0
M  V30 1219 H 113.18 1.16136 -4.73671 0
M  V30 1220 H 112.185 -1.04677 -5.39743 0
M  V30 1221 H 113.41 -1.21953 -6.6806 0
M  V30 1222 H 111.356 1.01558 -6.48091 0
M  V30 1223 H 111.273 -0.344318 -7.55216 0
M  V30 1224 H 112.541 0.828131 -7.75089 0
M  V30 1225 N 116.77 1.45427 -0.607355 0
M  V30 1226 C 118 2.06314 -0.108656 0
M  V30 1227 C 118.408 1.45269 1.21217 0
M  V30 1228 O 117.751 0.561115 1.74921 0
M  V30 1229 C 117.813 3.59345 0.105618 0
M  V30 1230 C 117.477 4.42723 -1.13337 0
M  V30 1231 C 118.474 4.77715 -2.05145 0
M  V30 1232 C 116.159 4.83478 -1.36213 0
M  V30 1233 C 118.153 5.52317 -3.18158 0
M  V30 1234 C 115.84 5.57835 -2.49527 0
M  V30 1235 C 116.838 5.92171 -3.40327 0
M  V30 1236 O 116.526 6.65019 -4.51669 0
M  V30 1237 H 116.258 0.672782 -0.0658842 0
M  V30 1238 H 118.812 1.87664 -0.834945 0
M  V30 1239 H 117.042 3.76394 0.886796 0
M  V30 1240 H 118.731 4.02076 0.555886 0
M  V30 1241 H 119.497 4.46787 -1.88697 0
M  V30 1242 H 115.376 4.56188 -0.664362 0
M  V30 1243 H 118.92 5.79036 -3.89054 0
M  V30 1244 H 114.817 5.88177 -2.65928 0
M  V30 1245 H 115.585 6.83469 -4.50348 0
M  V30 1246 N 118.248 0.346503 1.53744 0
M  V30 1247 C 119.473 -0.253074 2.0585 0
M  V30 1248 C 119.898 -1.43202 1.21962 0
M  V30 1249 O 119.256 -1.79783 0.234073 0
M  V30 1250 C 119.304 -0.643193 3.54817 0
M  V30 1251 O 118.408 -1.74286 3.73762 0
M  V30 1252 H 117.749 -0.0413583 0.662711 0
M  V30 1253 H 120.279 0.501574 1.98357 0
M  V30 1254 H 120.289 -0.919526 3.97503 0
M  V30 1255 H 118.964 0.218966 4.15323 0
M  V30 1256 H 117.541 -1.46356 3.42979 0
M  V30 1257 N 119.726 -1.57421 0.075193 0
M  V30 1258 C 120.973 -1.93618 -0.593146 0
M  V30 1259 C 121.301 -0.955484 -1.69413 0
M  V30 1260 O 120.556 0.0283251 -1.9568 0
M  V30 1261 C 120.855 -3.36428 -1.20626 0
M  V30 1262 C 120.521 -4.50307 -0.231078 0
M  V30 1263 C 119.183 -4.81186 0.0371936 0
M  V30 1264 C 121.535 -5.19374 0.435888 0
M  V30 1265 C 118.863 -5.78466 0.979461 0
M  V30 1266 C 121.215 -6.17665 1.3665 0
M  V30 1267 C 119.879 -6.46958 1.6432 0
M  V30 1268 H 119.149 -0.708499 -0.217047 0
M  V30 1269 H 121.796 -1.90937 0.146793 0
M  V30 1270 H 120.101 -3.35592 -2.02201 0
M  V30 1271 H 121.798 -3.61727 -1.73073 0
M  V30 1272 H 118.388 -4.26227 -0.450357 0
M  V30 1273 H 122.572 -4.95711 0.241748 0
M  V30 1274 H 117.828 -5.99487 1.20106 0
M  V30 1275 H 122.002 -6.70284 1.88924 0
M  V30 1276 H 119.629 -7.2215 2.37494 0
M  V30 1277 N 121.204 0.198386 -1.56346 0
M  V30 1278 C 122.137 1.27381 -1.89339 0
M  V30 1279 C 123.115 1.44106 -0.753134 0
M  V30 1280 O 124.299 1.59549 -1.00381 0
M  V30 1281 C 121.426 2.6409 -2.12071 0
M  V30 1282 C 120.472 2.64253 -3.34772 0
M  V30 1283 S 121.305 2.16013 -4.89999 0
M  V30 1284 C 122.461 3.54553 -5.15794 0
M  V30 1285 H 122.694 0.992058 -2.8026 0
M  V30 1286 H 120.227 0.401726 -1.49082 0
M  V30 1287 H 122.185 3.42786 -2.2585 0
M  V30 1288 H 120.846 2.89478 -1.21906 0
M  V30 1289 H 120.039 3.64768 -3.47794 0
M  V30 1290 H 119.641 1.93637 -3.1997 0
M  V30 1291 H 121.933 4.50396 -5.06112 0
M  V30 1292 H 122.876 3.46428 -6.1757 0
M  V30 1293 H 123.284 3.49313 -4.43442 0
M  V30 1294 N 122.682 1.50554 0.465978 0
M  V30 1295 C 123.645 1.69233 1.54574 0
M  V30 1296 C 124.645 0.562901 1.50626 0
M  V30 1297 O 125.835 0.830016 1.53155 0
M  V30 1298 C 122.967 1.7223 2.94193 0
M  V30 1299 H 124.16 2.65571 1.39327 0
M  V30 1300 H 121.713 1.40111 0.692711 0
M  V30 1301 H 122.448 0.77603 3.14878 0
M  V30 1302 H 122.233 2.54285 2.98466 0
M  V30 1303 H 123.723 1.88618 3.72576 0
M  V30 1304 N 124.16 -0.719506 1.40217 0
M  V30 1305 C 125.406 -1.48152 1.38488 0
M  V30 1306 C 125.739 -1.94195 -0.0141867 0
M  V30 1307 O 125.014 -1.67884 -0.982096 0
M  V30 1308 C 125.297 -2.71035 2.37091 0
M  V30 1309 C 125.15 -2.30912 3.86005 0
M  V30 1310 C 126.469 -3.73182 2.33288 0
M  V30 1311 H 123.588 -0.537395 0.504357 0
M  V30 1312 H 126.23 -0.821472 1.71324 0
M  V30 1313 H 124.38 -3.27352 2.0922 0
M  V30 1314 H 126.052 -1.80107 4.24687 0
M  V30 1315 H 124.295 -1.62958 4.02029 0
M  V30 1316 H 124.966 -3.18978 4.50508 0
M  V30 1317 H 127.442 -3.26485 2.57966 0
M  V30 1318 H 126.318 -4.56806 3.04334 0
M  V30 1319 H 126.579 -4.21202 1.34317 0
M  V30 1320 N 125.638 -1.25649 -0.95132 0
M  V30 1321 C 126.887 -1.09988 -1.69073 0
M  V30 1322 C 127.2 0.358355 -1.92289 0
M  V30 1323 O 128.406 0.635466 -2.63958 0
M  V30 1324 C 126.862 -1.92012 -3.044 0
M  V30 1325 C 126.47 -3.42347 -2.88968 0
M  V30 1326 C 128.214 -1.8493 -3.82101 0
M  V30 1327 C 126.121 -4.16655 -4.19705 0
M  V30 1328 H 125.051 -0.407993 -0.63408 0
M  V30 1329 H 127.702 -1.49873 -1.05879 0
M  V30 1330 H 126.084 -1.44952 -3.68517 0
M  V30 1331 H 127.258 -3.97104 -2.33762 0
M  V30 1332 H 125.573 -3.50557 -2.24719 0
M  V30 1333 H 128.17 -2.37739 -4.78941 0
M  V30 1334 H 128.513 -0.817883 -4.08187 0
M  V30 1335 H 129.046 -2.29758 -3.2474 0
M  V30 1336 H 125.785 -5.20224 -3.98807 0
M  V30 1337 H 125.305 -3.66681 -4.74663 0
M  V30 1338 H 126.984 -4.24551 -4.88227 0
M  V30 1339 N 127.117 1.15442 -1.07289 0
M  V30 1340 C 128.067 2.18164 -0.662467 0
M  V30 1341 C 129.051 1.57845 0.312074 0
M  V30 1342 O 130.243 1.76552 0.125905 0
M  V30 1343 C 127.372 3.43246 -0.0611295 0
M  V30 1344 C 126.458 4.1062 -1.06077 0
M  V30 1345 N 126.849 4.53491 -2.24008 0
M  V30 1346 C 125.147 4.36949 -0.893964 0
M  V30 1347 C 125.848 5.05731 -2.87422 0
M  V30 1348 N 124.824 4.99236 -2.15091 0
M  V30 1349 H 128.626 2.49038 -1.56068 0
M  V30 1350 H 126.14 1.32003 -0.945988 0
M  V30 1351 H 128.137 4.16145 0.250792 0
M  V30 1352 H 126.797 3.13854 0.832207 0
M  V30 1353 H 127.808 4.46898 -2.6173 0
M  V30 1354 H 124.485 4.17466 -0.0534693 0
M  V30 1355 H 125.875 5.48865 -3.87553 0
M  V30 1356 N 128.595 0.856903 1.32268 0
M  V30 1357 C 129.842 0.461386 1.97174 0
M  V30 1358 C 130.17 -0.983491 1.67803 0
M  V30 1359 O 129.425 -1.70541 0.959903 0
M  V30 1360 C 129.724 0.649919 3.51441 0
M  V30 1361 C 129.39 2.0656 4.00804 0
M  V30 1362 C 128.052 2.45279 4.13995 0
M  V30 1363 C 130.404 2.98947 4.26943 0
M  V30 1364 C 127.732 3.75653 4.50668 0
M  V30 1365 C 130.084 4.28822 4.65075 0
M  V30 1366 C 128.748 4.67472 4.76472 0
M  V30 1367 H 128.018 0.168833 0.72151 0
M  V30 1368 H 130.665 1.08739 1.57633 0
M  V30 1369 H 128.97 -0.0593018 3.91755 0
M  V30 1370 H 130.667 0.32391 3.9969 0
M  V30 1371 H 127.257 1.75495 3.91024 0
M  V30 1372 H 131.441 2.70265 4.16258 0
M  V30 1373 H 126.697 4.05379 4.57688 0
M  V30 1374 H 130.871 5.0047 4.84255 0
M  V30 1375 H 128.498 5.68539 5.04646 0
M  V30 1376 N 130.073 -1.45103 0.615059 0
M  V30 1377 C 131.036 -2.29025 -0.0895485 0
M  V30 1378 C 132.036 -1.40174 -0.787906 0
M  V30 1379 O 133.226 -1.62217 -0.634933 0
M  V30 1380 C 130.358 -3.21376 -1.13711 0
M  V30 1381 H 131.551 -2.92807 0.648382 0
M  V30 1382 H 129.104 -1.51749 0.374444 0
M  V30 1383 H 129.839 -2.6241 -1.90556 0
M  V30 1384 H 129.624 -3.86834 -0.640475 0
M  V30 1385 H 131.114 -3.84459 -1.63036 0
M  V30 1386 N 131.551 -0.354651 -1.53558 0
M  V30 1387 C 132.799 0.237972 -2.00694 0
M  V30 1388 C 133.12 1.50173 -1.24391 0
M  V30 1389 O 132.39 1.92673 -0.354135 0
M  V30 1390 H 130.97 0.0909256 -0.741446 0
M  V30 1391 H 133.632 -0.478368 -1.88938 0
M  V30 1392 H 132.728 0.47264 -3.085 0
M  V30 1393 N 133.029 1.57378 -0.0835403 0
M  V30 1394 C 133.959 2.1641 0.87686 0
M  V30 1395 C 134.94 1.09429 1.30228 0
M  V30 1396 O 136.125 1.37516 1.37124 0
M  V30 1397 C 133.255 2.73517 2.14022 0
M  V30 1398 C 132.209 3.85769 1.85381 0
M  V30 1399 C 131.535 4.29529 3.18448 0
M  V30 1400 C 132.835 5.09486 1.14984 0
M  V30 1401 H 134.529 2.96914 0.385059 0
M  V30 1402 H 132.075 1.42823 0.18377 0
M  V30 1403 H 134.028 3.13463 2.81636 0
M  V30 1404 H 132.752 1.90252 2.65465 0
M  V30 1405 H 131.411 3.46345 1.20169 0
M  V30 1406 H 131.059 3.43169 3.67755 0
M  V30 1407 H 130.759 5.05204 3.00071 0
M  V30 1408 H 132.283 4.72099 3.8724 0
M  V30 1409 H 133.697 5.46674 1.72687 0
M  V30 1410 H 132.094 5.90515 1.06826 0
M  V30 1411 H 133.164 4.84724 0.130749 0
M  V30 1412 N 134.507 -0.190092 1.56449 0
M  V30 1413 C 135.454 -1.23557 1.94942 0
M  V30 1414 C 136.424 -1.44972 0.810696 0
M  V30 1415 O 137.609 -1.58023 1.06927 0
M  V30 1416 C 134.749 -2.57416 2.2985 0
M  V30 1417 C 133.862 -2.43537 3.5681 0
M  V30 1418 C 132.997 -3.70134 3.81017 0
M  V30 1419 C 132.036 -3.51109 5.01387 0
M  V30 1420 N 131.173 -4.6973 5.21822 0
M  V30 1421 H 136.013 -0.900304 2.84075 0
M  V30 1422 H 133.55 -0.43318 1.40577 0
M  V30 1423 H 135.508 -3.35409 2.48106 0
M  V30 1424 H 134.138 -2.88975 1.43852 0
M  V30 1425 H 133.19 -1.56816 3.46573 0
M  V30 1426 H 134.502 -2.25415 4.4496 0
M  V30 1427 H 133.656 -4.56566 3.9954 0
M  V30 1428 H 132.395 -3.91215 2.91207 0
M  V30 1429 H 131.4 -2.63063 4.82782 0
M  V30 1430 H 132.625 -3.31468 5.9271 0
M  V30 1431 H 130.571 -4.91065 4.34961 0
M  V30 1432 H 130.488 -4.54452 6.0416 0
M  V30 1433 H 131.756 -5.57499 5.44808 0
M  V30 1434 N 135.985 -1.50799 -0.457987 0
M  V30 1435 C 136.948 -1.7005 -1.53674 0
M  V30 1436 C 137.948 -0.570881 -1.50325 0
M  V30 1437 O 139.138 -0.838126 -1.52712 0
M  V30 1438 C 136.27 -1.73788 -2.93276 0
M  V30 1439 H 137.463 -2.66306 -1.37917 0
M  V30 1440 H 135.016 -1.40477 -0.685271 0
M  V30 1441 H 135.751 -0.792717 -3.14462 0
M  V30 1442 H 135.536 -2.55864 -2.97113 0
M  V30 1443 H 137.026 -1.90591 -3.71571 0
M  V30 1444 N 137.463 0.71206 -1.40597 0
M  V30 1445 C 138.709 1.47416 -1.39271 0
M  V30 1446 C 139.042 1.942 0.00388791 0
M  V30 1447 O 138.317 1.68403 0.973179 0
M  V30 1448 C 138.6 2.69774 -2.38525 0
M  V30 1449 C 138.453 2.28861 -3.87224 0
M  V30 1450 C 139.772 3.71939 -2.35264 0
M  V30 1451 H 136.891 0.534713 -0.5072 0
M  V30 1452 H 139.533 0.812375 -1.71757 0
M  V30 1453 H 137.683 3.26238 -2.10953 0
M  V30 1454 H 139.355 1.77852 -4.25636 0
M  V30 1455 H 137.598 1.60824 -4.02887 0
M  V30 1456 H 138.269 3.16584 -4.52193 0
M  V30 1457 H 140.745 3.25113 -2.59694 0
M  V30 1458 H 139.621 4.55186 -3.06753 0
M  V30 1459 H 139.882 4.20484 -1.36549 0
M  V30 1460 N 138.941 1.26152 0.944643 0
M  V30 1461 C 140.189 1.11271 1.6871 0
M  V30 1462 C 140.51 -0.345166 1.91921 0
M  V30 1463 O 139.78 -1.24387 1.51343 0
M  V30 1464 H 138.36 0.408783 0.625224 0
M  V30 1465 H 141.022 1.58427 1.1352 0
M  V30 1466 H 140.118 1.62879 2.66227 0
M  V30 1467 N 140.419 -1.14872 1.07899 0
M  V30 1468 C 141.329 -2.2341 0.715915 0
M  V30 1469 C 142.345 -1.71808 -0.275306 0
M  V30 1470 O 143.521 -2.01039 -0.120545 0
M  V30 1471 C 140.586 -3.46474 0.125168 0
M  V30 1472 C 139.647 -4.13039 1.17034 0
M  V30 1473 C 138.88 -5.30229 0.607688 0
M  V30 1474 O 139.103 -5.675 -0.574497 0
M  V30 1475 O 138.037 -5.86444 1.35526 0
M  V30 1476 H 141.863 -2.56808 1.62121 0
M  V30 1477 H 139.448 -1.22702 0.852322 0
M  V30 1478 H 141.33 -4.20917 -0.201729 0
M  V30 1479 H 140.005 -3.14811 -0.753364 0
M  V30 1480 H 138.912 -3.40493 1.54968 0
M  V30 1481 H 140.245 -4.48796 2.02097 0
M  V30 1482 N 141.898 -0.863906 -1.31812 0
M  V30 1483 C 143.123 -0.48527 -2.01643 0
M  V30 1484 C 143.548 0.913058 -1.64453 0
M  V30 1485 O 142.906 1.6014 -0.849985 0
M  V30 1486 C 142.954 -0.642625 -3.54828 0
M  V30 1487 O 142.058 0.320659 -4.11151 0
M  V30 1488 H 141.399 -0.193793 -0.635091 0
M  V30 1489 H 143.929 -1.16565 -1.68148 0
M  V30 1490 H 143.939 -0.533628 -4.04495 0
M  V30 1491 H 142.614 -1.66227 -3.81237 0
M  V30 1492 H 141.191 0.167126 -3.72525 0
M  V30 1493 N 143.376 1.44774 -0.622745 0
M  V30 1494 C 144.622 2.0242 -0.124083 0
M  V30 1495 C 144.955 1.4881 1.24777 0
M  V30 1496 O 144.23 0.668799 1.8264 0
M  V30 1497 C 144.513 3.59957 -0.101619 0
M  V30 1498 C 144.366 4.23867 -1.50521 0
M  V30 1499 C 145.685 4.36284 0.578272 0
M  V30 1500 H 142.804 0.735528 -0.0465645 0
M  V30 1501 H 145.446 1.72447 -0.797617 0
M  V30 1502 H 143.596 3.85623 0.471934 0
M  V30 1503 H 145.268 4.09336 -2.12701 0
M  V30 1504 H 143.511 3.81684 -2.06154 0
M  V30 1505 H 144.182 5.32843 -1.4416 0
M  V30 1506 H 146.658 4.16001 0.0906057 0
M  V30 1507 H 145.534 5.46004 0.563149 0
M  V30 1508 H 145.795 4.10271 1.64713 0
M  V30 1509 N 144.854 0.36279 1.53368 0
M  V30 1510 C 145.786 -0.519668 2.23231 0
M  V30 1511 C 146.799 -1.04844 1.24546 0
M  V30 1512 O 147.988 -0.955296 1.50786 0
M  V30 1513 C 145.088 -1.72995 2.9142 0
M  V30 1514 C 144.261 -1.33316 4.16588 0
M  V30 1515 C 143.32 -2.40521 4.68013 0
M  V30 1516 O 142.346 -2.03027 5.3176 0
M  V30 1517 N 143.548 -3.72065 4.45587 0
M  V30 1518 H 146.313 0.078751 2.99597 0
M  V30 1519 H 143.874 0.187833 1.60807 0
M  V30 1520 H 145.866 -2.44184 3.22733 0
M  V30 1521 H 144.436 -2.2353 2.18525 0
M  V30 1522 H 143.656 -0.451236 3.91609 0
M  V30 1523 H 144.944 -1.04432 4.97967 0
M  V30 1524 H 144.342 -4.05304 3.94646 0
M  V30 1525 H 142.899 -4.39366 4.81457 0
M  V30 1526 N 146.332 -1.57332 0.0918853 0
M  V30 1527 C 147.279 -2.13847 -0.868211 0
M  V30 1528 C 148.249 -1.05618 -1.28196 0
M  V30 1529 O 149.434 -1.33387 -1.36427 0
M  V30 1530 C 146.574 -2.72062 -2.12312 0
M  V30 1531 C 145.687 -3.94514 -1.7602 0
M  V30 1532 C 144.822 -4.40903 -2.96273 0
M  V30 1533 C 143.861 -5.55953 -2.56092 0
M  V30 1534 N 142.998 -5.97209 -3.69169 0
M  V30 1535 H 147.838 -2.95575 -0.379406 0
M  V30 1536 H 145.375 -1.46048 -0.175606 0
M  V30 1537 H 147.333 -3.03931 -2.858 0
M  V30 1538 H 145.963 -1.93068 -2.58698 0
M  V30 1539 H 145.015 -3.68979 -0.925135 0
M  V30 1540 H 146.327 -4.7802 -1.42472 0
M  V30 1541 H 145.481 -4.74539 -3.78018 0
M  V30 1542 H 144.22 -3.56291 -3.33029 0
M  V30 1543 H 143.225 -5.21948 -1.72773 0
M  V30 1544 H 144.45 -6.42311 -2.20484 0
M  V30 1545 H 142.396 -5.15543 -4.05649 0
M  V30 1546 H 142.313 -6.75504 -3.39456 0
M  V30 1547 H 143.581 -6.35475 -4.51434 0
M  V30 1548 N 147.81 0.181792 -1.56548 0
M  V30 1549 C 149.221 0.745244 -1.71181 0
M  V30 1550 C 149.572 1.83262 -0.70068 0
M  V30 1551 O 148.697 2.15946 0.140154 0
M  V30 1552 C 149.292 1.35859 -3.10367 0
M  V30 1553 C 147.851 1.86898 -3.2672 0
M  V30 1554 C 146.998 0.743942 -2.67134 0
M  V30 1555 H 149.949 -0.0434661 -1.5864 0
M  V30 1556 H 149.97 2.22817 -3.08436 0
M  V30 1557 H 149.482 0.566948 -3.83937 0
M  V30 1558 H 147.583 2.68738 -2.5809 0
M  V30 1559 H 147.696 2.02162 -4.34359 0
M  V30 1560 H 146.06 1.16169 -2.26665 0
M  V30 1561 H 146.843 -0.035676 -3.43281 0
M  V30 1562 N 149.288 1.51039 0.449983 0
M  V30 1563 C 150.218 1.74379 1.55288 0
M  V30 1564 C 151.199 0.593236 1.5942 0
M  V30 1565 O 152.384 0.834625 1.7535 0
M  V30 1566 C 149.514 1.85728 2.93466 0
M  V30 1567 C 148.468 3.01078 3.04197 0
M  V30 1568 C 147.794 2.97595 4.44231 0
M  V30 1569 C 149.094 4.41254 2.7945 0
M  V30 1570 H 150.788 2.66725 1.36008 0
M  V30 1571 H 148.334 1.2835 0.652864 0
M  V30 1572 H 150.287 2.0064 3.70569 0
M  V30 1573 H 149.011 0.900207 3.13949 0
M  V30 1574 H 147.67 2.85851 2.29531 0
M  V30 1575 H 147.318 1.99691 4.61663 0
M  V30 1576 H 147.018 3.75046 4.52343 0
M  V30 1577 H 148.542 3.14583 5.23326 0
M  V30 1578 H 149.956 4.56897 3.46292 0
M  V30 1579 H 148.353 5.20315 2.98985 0
M  V30 1580 H 149.423 4.52164 1.75144 0
M  V30 1581 N 150.766 -0.704594 1.40972 0
M  V30 1582 C 152.043 -1.45847 1.30338 0
M  V30 1583 C 152.423 -2.10973 -0.0732344 0
M  V30 1584 O 151.771 -2.00997 -1.08685 0
M  V30 1585 C 151.981 -2.48525 2.45023 0
M  V30 1586 C 153.329 -3.1404 2.8577 0
M  V30 1587 O 154.353 -2.58848 2.44696 0
M  V30 1588 O 153.212 -4.13981 3.56766 0
M  V30 1589 H 150.306 -0.649092 0.512454 0
M  V30 1590 H 152.852 -0.735836 1.52917 0
M  V30 1591 H 151.624 -1.98994 3.36923 0
M  V30 1592 H 151.247 -3.2831 2.24272 0
M  V30 1593 N 152.244 -1.26651 -0.937939 0
M  V30 1594 C 153.474 -1.15006 -1.71631 0
M  V30 1595 C 153.882 0.297026 -1.86854 0
M  V30 1596 O 153.225 1.21493 -1.37786 0
M  V30 1597 C 153.287 -1.74984 -3.14039 0
M  V30 1598 C 152.951 -3.24103 -3.2219 0
M  V30 1599 C 153.948 -4.20877 -3.05219 0
M  V30 1600 C 151.633 -3.64625 -3.45476 0
M  V30 1601 C 153.627 -5.56151 -3.11408 0
M  V30 1602 C 151.314 -5.00032 -3.513 0
M  V30 1603 C 152.312 -5.95604 -3.34282 0
M  V30 1604 O 152 -7.28545 -3.3982 0
M  V30 1605 H 151.732 -0.401183 -0.544085 0
M  V30 1606 H 154.286 -1.67832 -1.18413 0
M  V30 1607 H 152.516 -1.16624 -3.68695 0
M  V30 1608 H 154.205 -1.58199 -3.73802 0
M  V30 1609 H 154.971 -3.90908 -2.87081 0
M  V30 1610 H 150.85 -2.90718 -3.57777 0
M  V30 1611 H 154.394 -6.30727 -2.98043 0
M  V30 1612 H 150.291 -5.29659 -3.68959 0
M  V30 1613 H 151.059 -7.3686 -3.56343 0
M  V30 1614 N 153.722 1.14298 -1.08507 0
M  V30 1615 C 154.952 1.88945 -0.835663 0
M  V30 1616 C 155.36 1.78894 0.615928 0
M  V30 1617 O 154.703 1.1468 1.43506 0
M  V30 1618 C 154.765 3.39585 -1.17994 0
M  V30 1619 C 154.429 3.7342 -2.63451 0
M  V30 1620 C 155.426 3.73454 -3.61702 0
M  V30 1621 C 153.111 4.03368 -2.99332 0
M  V30 1622 C 155.105 4.02961 -4.93864 0
M  V30 1623 C 152.792 4.32538 -4.31687 0
M  V30 1624 C 153.79 4.32318 -5.28763 0
M  V30 1625 O 153.478 4.6078 -6.58739 0
M  V30 1626 H 153.21 0.605307 -0.300965 0
M  V30 1627 H 155.764 1.45673 -1.44806 0
M  V30 1628 H 153.994 3.83315 -0.51055 0
M  V30 1629 H 155.683 3.9554 -0.911182 0
M  V30 1630 H 156.449 3.50403 -3.35325 0
M  V30 1631 H 152.328 4.02692 -2.24411 0
M  V30 1632 H 155.872 4.02704 -5.69627 0
M  V30 1633 H 151.769 4.55059 -4.57812 0
M  V30 1634 H 152.537 4.78492 -6.64069 0
M  V30 1635 N 155.201 0.870884 1.31352 0
M  V30 1636 C 156.617 0.562932 1.49343 0
M  V30 1637 C 156.817 -0.902725 1.80148 0
M  V30 1638 O 155.873 -1.68484 1.88067 0
M  V30 1639 C 157.186 1.46393 2.62659 0
M  V30 1640 C 158.734 1.46607 2.76542 0
M  V30 1641 C 159.209 2.35266 3.92955 0
M  V30 1642 N 160.7 2.33151 4.00243 0
M  V30 1643 C 161.435 2.98471 4.89594 0
M  V30 1644 N 160.931 3.72964 5.8384 0
M  V30 1645 N 162.724 2.87775 4.82848 0
M  V30 1646 H 154.875 1.81923 1.09626 0
M  V30 1647 H 157.138 0.777934 0.541777 0
M  V30 1648 H 156.844 2.50689 2.46674 0
M  V30 1649 H 156.718 1.16314 3.58819 0
M  V30 1650 H 159.105 0.43069 2.9194 0
M  V30 1651 H 159.186 1.8071 1.81046 0
M  V30 1652 H 158.83 3.38881 3.78315 0
M  V30 1653 H 158.76 1.98487 4.87761 0
M  V30 1654 H 161.251 1.79006 3.32814 0
M  V30 1655 H 161.564 4.19932 6.4875 0
M  V30 1656 H 159.909 3.77073 5.83816 0
M  V30 1657 H 163.1 2.29116 4.08195 0
M  V30 1658 H 163.273 3.38961 5.52277 0
M  V30 1659 N 156.679 -1.44442 0.630414 0
M  V30 1660 C 157.925 -2.02351 0.134816 0
M  V30 1661 C 158.258 -1.4947 -1.23986 0
M  V30 1662 O 157.533 -0.678475 -1.82283 0
M  V30 1663 C 157.816 -3.59898 0.120707 0
M  V30 1664 C 157.669 -4.23063 1.52767 0
M  V30 1665 C 158.988 -4.36585 -0.555127 0
M  V30 1666 H 156.107 -0.73527 0.0504646 0
M  V30 1667 H 158.749 -1.72022 0.806751 0
M  V30 1668 H 156.899 -3.85868 -0.451477 0
M  V30 1669 H 158.571 -4.08202 2.14869 0
M  V30 1670 H 156.814 -3.80586 2.08175 0
M  V30 1671 H 157.485 -5.32071 1.46984 0
M  V30 1672 H 159.961 -4.16044 -0.0685429 0
M  V30 1673 H 158.837 -5.46294 -0.534185 0
M  V30 1674 H 159.098 -4.11138 -1.62535 0
M  V30 1675 N 158.157 -0.370918 -1.53173 0
M  V30 1676 C 159.105 0.488101 -2.27421 0
M  V30 1677 C 160.099 1.07884 -1.30604 0
M  V30 1678 O 161.305 1.02143 -1.48212 0
M  V30 1679 H 157.68 0.176134 -0.731082 0
M  V30 1680 H 159.651 -0.159815 -2.97972 0
M  V30 1681 C 158.4 1.61306 -3.08019 0
M  V30 1682 H 157.723 1.1678 -3.82364 0
M  V30 1683 H 159.163 2.18872 -3.63141 0
M  V30 1684 C 157.622 2.55848 -2.19188 0
M  V30 1685 O 158.152 3.58799 -1.80626 0
M  V30 1686 N 156.358 2.2516 -1.83715 0
M  V30 1687 H 155.905 1.41476 -2.15273 0
M  V30 1688 H 155.863 2.8867 -1.24567 0
M  V30 1689 N 159.635 1.57281 -0.100228 0
M  V30 1690 C 160.565 2.17328 0.853857 0
M  V30 1691 C 161.546 1.10804 1.2906 0
M  V30 1692 O 162.731 1.38963 1.35657 0
M  V30 1693 C 159.861 2.75772 2.11109 0
M  V30 1694 C 158.815 3.87713 1.81279 0
M  V30 1695 C 158.141 4.32882 3.13874 0
M  V30 1696 C 159.441 5.10677 1.09574 0
M  V30 1697 H 161.135 2.97305 0.353545 0
M  V30 1698 H 158.681 1.43009 0.168612 0
M  V30 1699 H 160.634 3.16433 2.78296 0
M  V30 1700 H 159.358 1.93057 2.63432 0
M  V30 1701 H 158.017 3.476 1.16489 0
M  V30 1702 H 157.665 3.47051 3.64095 0
M  V30 1703 H 157.365 5.08358 2.94696 0
M  V30 1704 H 158.889 4.7618 3.82211 0
M  V30 1705 H 160.303 5.48474 1.66879 0
M  V30 1706 H 158.7 5.91615 1.00557 0
M  V30 1707 H 159.77 4.84835 0.0793299 0
M  V30 1708 N 161.113 -0.173488 1.56642 0
M  V30 1709 C 162.341 -0.906095 1.86004 0
M  V30 1710 C 162.756 -1.75921 0.685355 0
M  V30 1711 O 162.113 -1.79198 -0.345578 0
M  V30 1712 C 162.164 -1.78462 3.14378 0
M  V30 1713 O 161.885 -0.965914 4.27319 0
M  V30 1714 C 163.386 -2.62707 3.57071 0
M  V30 1715 H 160.606 -0.263341 0.617165 0
M  V30 1716 H 163.15 -0.174236 2.03756 0
M  V30 1717 H 161.305 -2.46984 2.98459 0
M  V30 1718 H 161.719 -1.56655 5.00559 0
M  V30 1719 H 163.193 -3.19969 4.49804 0
M  V30 1720 H 163.67 -3.37472 2.81086 0
M  V30 1721 H 164.276 -1.99521 3.75595 0
M  V30 1722 N 162.591 -1.51276 -0.441967 0
M  V30 1723 C 163.839 -1.63392 -1.18943 0
M  V30 1724 C 164.16 -0.350159 -1.9183 0
M  V30 1725 O 163.43 0.633784 -1.85364 0
M  V30 1726 H 162.01 -0.602164 -0.442049 0
M  V30 1727 H 164.672 -1.88186 -0.507165 0
M  V30 1728 H 163.768 -2.45934 -1.92154 0
M  V30 1729 N 164.069 0.697108 -1.41344 0
M  V30 1730 C 165.297 1.48593 -1.43972 0
M  V30 1731 C 165.712 1.88747 -0.0445612 0
M  V30 1732 O 165.069 1.56682 0.935785 0
M  V30 1733 C 165.12 2.74946 -2.34706 0
M  V30 1734 O 164.841 2.36484 -3.68791 0
M  V30 1735 C 166.342 3.687 -2.46121 0
M  V30 1736 H 163.562 0.457964 -0.490418 0
M  V30 1737 H 166.106 0.858429 -1.8561 0
M  V30 1738 H 164.261 3.33937 -1.9638 0
M  V30 1739 H 164.675 3.17918 -4.17167 0
M  V30 1740 H 166.149 4.54145 -3.13777 0
M  V30 1741 H 166.626 4.13081 -1.49199 0
M  V30 1742 H 167.232 3.15613 -2.85076 0
M  V30 1743 N 165.547 1.27147 0.931209 0
M  V30 1744 C 166.796 1.12664 1.67302 0
M  V30 1745 C 167.109 -0.327718 1.92835 0
M  V30 1746 O 168.315 -0.593392 2.64936 0
M  V30 1747 C 166.771 1.9683 3.01307 0
M  V30 1748 C 166.379 3.46901 2.83485 0
M  V30 1749 C 168.123 1.90985 3.79111 0
M  V30 1750 C 166.03 4.23279 4.13024 0
M  V30 1751 H 164.96 0.41803 0.627509 0
M  V30 1752 H 167.611 1.51539 1.03481 0
M  V30 1753 H 165.993 1.50797 3.66164 0
M  V30 1754 H 167.167 4.00773 2.27415 0
M  V30 1755 H 165.482 3.54088 2.19113 0
M  V30 1756 H 168.079 2.45328 4.75098 0
M  V30 1757 H 168.422 0.882718 4.06834 0
M  V30 1758 H 168.955 2.34895 3.21044 0
M  V30 1759 H 165.694 5.26503 3.90481 0
M  V30 1760 H 165.214 3.74186 4.6877 0
M  V30 1761 H 166.893 4.32265 4.81411 0
M  V30 1762 N 167.025 -1.13721 1.09112 0
M  V30 1763 C 167.957 -2.1871 0.685467 0
M  V30 1764 C 168.97 -1.60527 -0.271068 0
M  V30 1765 O 170.159 -1.78407 -0.0576148 0
M  V30 1766 C 167.259 -3.38898 -0.0111255 0
M  V30 1767 C 166.432 -4.26597 0.966131 0
M  V30 1768 C 165.491 -5.25324 0.303539 0
M  V30 1769 O 164.517 -5.61213 0.950177 0
M  V30 1770 N 165.719 -5.72779 -0.943651 0
M  V30 1771 H 168.484 -2.54126 1.58871 0
M  V30 1772 H 166.045 -1.29012 0.978143 0
M  V30 1773 H 168.037 -4.02014 -0.465517 0
M  V30 1774 H 166.607 -3.01747 -0.816565 0
M  V30 1775 H 165.827 -3.60306 1.59917 0
M  V30 1776 H 167.115 -4.82048 1.6281 0
M  V30 1777 H 166.513 -5.45762 -1.48862 0
M  V30 1778 H 165.07 -6.37847 -1.34142 0
M  V30 1779 N 168.503 -0.877838 -1.30888 0
M  V30 1780 C 169.433 -0.35534 -2.3078 0
M  V30 1781 C 170.414 0.557994 -1.60687 0
M  V30 1782 O 171.599 0.473355 -1.88343 0
M  V30 1783 C 168.729 0.437221 -3.44537 0
M  V30 1784 C 167.683 -0.383715 -4.26276 0
M  V30 1785 C 167.009 0.535014 -5.32017 0
M  V30 1786 C 168.309 -1.62201 -4.96476 0
M  V30 1787 H 170.003 -1.19007 -2.74732 0
M  V30 1788 H 167.549 -0.573698 -1.32078 0
M  V30 1789 H 169.502 0.813334 -4.13477 0
M  V30 1790 H 168.226 1.30553 -2.99372 0
M  V30 1791 H 166.885 -0.741874 -3.59015 0
M  V30 1792 H 166.533 1.40083 -4.831 0
M  V30 1793 H 166.233 -0.0104211 -5.87599 0
M  V30 1794 H 167.757 0.907799 -6.03814 0
M  V30 1795 H 169.171 -1.31689 -5.5797 0
M  V30 1796 H 167.568 -2.10711 -5.61891 0
M  V30 1797 H 168.638 -2.37044 -4.23011 0
M  V30 1798 N 169.982 1.44106 -0.638065 0
M  V30 1799 C 170.912 2.33448 0.0494287 0
M  V30 1800 C 171.893 1.48606 0.827672 0
M  V30 1801 O 173.078 1.77308 0.792173 0
M  V30 1802 C 170.208 3.31771 1.02691 0
M  V30 1803 C 169.162 4.26485 0.359823 0
M  V30 1804 C 168.488 5.14729 1.44769 0
M  V30 1805 C 169.788 5.17056 -0.738296 0
M  V30 1806 H 171.482 2.91183 -0.696636 0
M  V30 1807 H 169.028 1.40014 -0.336456 0
M  V30 1808 H 170.981 3.93161 1.51666 0
M  V30 1809 H 169.705 2.7226 1.80395 0
M  V30 1810 H 168.364 3.66437 -0.10934 0
M  V30 1811 H 168.012 4.51566 2.21578 0
M  V30 1812 H 167.712 5.78913 1.00668 0
M  V30 1813 H 169.236 5.78991 1.93911 0
M  V30 1814 H 170.65 5.72342 -0.331354 0
M  V30 1815 H 169.047 5.89879 -1.10286 0
M  V30 1816 H 170.117 4.57652 -1.60258 0
M  V30 1817 N 171.46 0.379036 1.52974 0
M  V30 1818 C 172.37 -0.468639 2.29872 0
M  V30 1819 C 173.386 -1.08067 1.36373 0
M  V30 1820 O 174.562 -1.08871 1.69438 0
M  V30 1821 C 171.627 -1.58594 3.083 0
M  V30 1822 C 170.688 -1.00007 4.17489 0
M  V30 1823 C 169.921 -2.06413 4.92168 0
M  V30 1824 O 170.144 -3.27751 4.66835 0
M  V30 1825 O 169.078 -1.68717 5.7777 0
M  V30 1826 H 172.904 0.157508 3.03291 0
M  V30 1827 H 170.489 0.143035 1.48714 0
M  V30 1828 H 172.371 -2.23525 3.57232 0
M  V30 1829 H 171.046 -2.19724 2.37703 0
M  V30 1830 H 169.953 -0.314299 3.72777 0
M  V30 1831 H 171.286 -0.433135 4.90291 0
M  V30 1832 N 172.938 -1.57226 0.108567 0
M  V30 1833 C 174.187 -1.94008 -0.551703 0
M  V30 1834 C 174.5 -0.993442 -1.68494 0
M  V30 1835 O 175.706 -1.25551 -2.40726 0
M  V30 1836 C 174.162 -3.44763 -1.03279 0
M  V30 1837 C 173.77 -4.47943 0.0714193 0
M  V30 1838 C 175.514 -3.90483 -1.66503 0
M  V30 1839 C 173.421 -5.89865 -0.425779 0
M  V30 1840 H 172.351 -0.724206 -0.209863 0
M  V30 1841 H 175.002 -1.82547 0.186741 0
M  V30 1842 H 173.384 -3.51422 -1.82533 0
M  V30 1843 H 174.558 -4.52942 0.847365 0
M  V30 1844 H 172.873 -4.11913 0.609669 0
M  V30 1845 H 175.47 -4.93925 -2.04798 0
M  V30 1846 H 175.813 -3.29877 -2.53942 0
M  V30 1847 H 176.346 -3.86581 -0.938074 0
M  V30 1848 H 173.085 -6.54202 0.412316 0
M  V30 1849 H 172.605 -5.88309 -1.16843 0
M  V30 1850 H 174.284 -6.40844 -0.890397 0
M  V30 1851 N 174.416 0.165178 -1.56732 0
M  V30 1852 C 175.349 1.23336 -1.91998 0
M  V30 1853 C 176.327 1.42476 -0.783531 0
M  V30 1854 O 177.511 1.57384 -1.03743 0
M  V30 1855 C 174.638 2.59533 -2.17625 0
M  V30 1856 C 173.684 2.57093 -3.40302 0
M  V30 1857 S 174.517 2.05571 -4.9447 0
M  V30 1858 C 175.673 3.43532 -5.23198 0
M  V30 1859 H 175.906 0.932387 -2.82301 0
M  V30 1860 H 173.439 0.370013 -1.49901 0
M  V30 1861 H 175.397 3.37918 -2.3307 0
M  V30 1862 H 174.058 2.86827 -1.28019 0
M  V30 1863 H 173.251 3.57308 -3.55453 0
M  V30 1864 H 172.853 1.86806 -3.24005 0
M  V30 1865 H 175.145 4.39559 -5.15552 0
M  V30 1866 H 176.088 3.33251 -6.2478 0
M  V30 1867 H 176.496 3.39828 -4.50752 0
M  V30 1868 N 175.894 1.51508 0.433938 0
M  V30 1869 C 176.841 1.73068 1.52696 0
M  V30 1870 C 177.811 0.572441 1.55924 0
M  V30 1871 O 178.996 0.807253 1.72882 0
M  V30 1872 C 176.136 1.86474 2.90381 0
M  V30 1873 C 175.249 3.14037 2.96656 0
M  V30 1874 C 174.384 3.18019 4.25485 0
M  V30 1875 C 173.423 4.39882 4.2564 0
M  V30 1876 N 172.56 4.41394 5.45999 0
M  V30 1877 H 177.4 2.66366 1.33615 0
M  V30 1878 H 174.937 1.32008 0.649018 0
M  V30 1879 H 176.895 1.92229 3.70275 0
M  V30 1880 H 175.525 0.965809 3.08013 0
M  V30 1881 H 174.577 3.17575 2.09404 0
M  V30 1882 H 175.889 4.0394 2.92633 0
M  V30 1883 H 175.043 3.22708 5.13755 0
M  V30 1884 H 173.782 2.2601 4.3217 0
M  V30 1885 H 172.787 4.35366 3.35763 0
M  V30 1886 H 174.012 5.33159 4.20617 0
M  V30 1887 H 171.958 3.52258 5.53399 0
M  V30 1888 H 171.875 5.25111 5.4387 0
M  V30 1889 H 173.143 4.50281 6.36292 0
M  V30 1890 N 177.372 -0.689602 1.41712 0
M  V30 1891 C 178.335 -1.78521 1.43746 0
M  V30 1892 C 179.335 -1.57436 0.327191 0
M  V30 1893 O 180.525 -1.64 0.587348 0
M  V30 1894 C 177.657 -3.16971 1.25467 0
M  V30 1895 H 178.85 -1.78108 2.41283 0
M  V30 1896 H 176.403 -0.89781 1.27942 0
M  V30 1897 H 177.138 -3.23019 0.287948 0
M  V30 1898 H 176.923 -3.33678 2.05917 0
M  V30 1899 H 178.413 -3.96935 1.2974 0
M  V30 1900 N 178.85 -1.27639 -0.924453 0
M  V30 1901 C 179.8 -1.07295 -2.01176 0
M  V30 1902 C 180.784 5.77352e-05 -1.609 0
M  V30 1903 O 181.976 -0.218855 -1.75642 0
M  V30 1904 C 179.105 -0.725592 -3.35544 0
M  V30 1905 C 178.191 -1.83691 -3.82254 0
M  V30 1906 N 178.582 -3.07697 -4.01443 0
M  V30 1907 C 176.88 -1.72433 -4.11319 0
M  V30 1908 C 177.581 -3.80037 -4.40394 0
M  V30 1909 N 176.557 -3.0782 -4.48049 0
M  V30 1910 H 180.359 -2.01399 -2.14046 0
M  V30 1911 H 177.873 -1.18401 -1.11153 0
M  V30 1912 H 179.87 -0.560959 -4.13109 0
M  V30 1913 H 178.53 0.207782 -3.24034 0
M  V30 1914 H 179.541 -3.43424 -3.8766 0
M  V30 1915 H 176.218 -0.862005 -4.08504 0
M  V30 1916 H 177.608 -4.86632 -4.63291 0
M  V30 1917 N 180.328 1.1314 -1.09713 0
M  V30 1918 C 181.576 1.84119 -0.833338 0
M  V30 1919 C 181.897 1.84097 0.642904 0
M  V30 1920 O 181.167 1.29881 1.46655 0
M  V30 1921 H 179.747 0.681766 -0.305293 0
M  V30 1922 H 182.409 1.37038 -1.38588 0
M  V30 1923 H 181.505 2.88543 -1.18951 0
M  V30 1924 N 181.806 0.884767 1.30421 0
M  V30 1925 C 183.052 0.503851 1.96441 0
M  V30 1926 C 183.385 -0.944518 1.69684 0
M  V30 1927 O 182.66 -1.66737 1.00145 0
M  V30 1928 C 182.943 0.779085 3.51571 0
M  V30 1929 C 182.796 2.27807 3.87846 0
M  V30 1930 C 184.115 0.255452 4.39358 0
M  V30 1931 H 181.234 0.184533 0.713524 0
M  V30 1932 H 183.876 1.10872 1.54297 0
M  V30 1933 H 182.026 0.264274 3.876 0
M  V30 1934 H 183.698 2.86127 3.61841 0
M  V30 1935 H 181.941 2.74479 3.35922 0
M  V30 1936 H 182.612 2.42125 4.96064 0
M  V30 1937 H 185.088 0.696079 4.10236 0
M  V30 1938 H 183.964 0.477361 5.4682 0
M  V30 1939 H 184.225 -0.843293 4.33983 0
M  V30 1940 N 183.284 -1.43765 0.645699 0
M  V30 1941 C 184.231 -2.30745 -0.0504648 0
M  V30 1942 C 185.201 -1.4432 -0.822241 0
M  V30 1943 O 186.386 -1.73202 -0.800358 0
M  V30 1944 C 183.526 -3.29802 -1.0161 0
M  V30 1945 C 182.639 -4.31326 -0.241219 0
M  V30 1946 C 181.774 -5.17469 -1.19998 0
M  V30 1947 C 180.813 -6.10691 -0.415094 0
M  V30 1948 N 179.95 -6.89483 -1.32506 0
M  V30 1949 H 184.79 -2.8973 0.697155 0
M  V30 1950 H 182.327 -1.42738 0.355563 0
M  V30 1951 H 184.285 -3.85734 -1.58949 0
M  V30 1952 H 182.915 -2.72483 -1.73069 0
M  V30 1953 H 181.967 -3.77749 0.448334 0
M  V30 1954 H 183.279 -4.9743 0.369437 0
M  V30 1955 H 182.433 -5.7799 -1.84424 0
M  V30 1956 H 181.172 -4.51473 -1.84455 0
M  V30 1957 H 180.177 -5.49265 0.242565 0
M  V30 1958 H 181.402 -6.78727 0.224966 0
M  V30 1959 H 179.348 -6.26142 -1.95657 0
M  V30 1960 H 179.265 -7.52081 -0.768783 0
M  V30 1961 H 180.533 -7.54516 -1.9577 0
M  V30 1962 N 184.763 -0.387143 -1.52771 0
M  V30 1963 C 185.711 0.463953 -2.27926 0
M  V30 1964 C 186.705 1.06493 -1.31741 0
M  V30 1965 O 187.911 1.00565 -1.49287 0
M  V30 1966 H 184.286 0.16837 -0.732909 0
M  V30 1967 H 186.257 -0.19141 -2.97785 0
M  V30 1968 C 185.006 1.5803 -3.09713 0
M  V30 1969 H 184.329 1.12718 -3.83581 0
M  V30 1970 H 185.769 2.15008 -3.65442 0
M  V30 1971 C 184.228 2.53509 -2.2189 0
M  V30 1972 O 184.758 3.56863 -1.84422 0
M  V30 1973 N 182.964 2.23199 -1.86093 0
M  V30 1974 H 182.511 1.39185 -2.16761 0
M  V30 1975 H 182.469 2.87333 -1.27621 0
M  V30 1976 N 186.241 1.57166 -0.116904 0
M  V30 1977 C 187.171 2.18222 0.830759 0
M  V30 1978 C 188.152 1.12167 1.27877 0
M  V30 1979 O 189.337 1.40394 1.34176 0
M  V30 1980 C 186.467 2.77996 2.08172 0
M  V30 1981 C 185.421 3.89614 1.77157 0
M  V30 1982 C 184.747 4.36187 3.09265 0
M  V30 1983 C 186.047 5.1181 1.04151 0
M  V30 1984 H 187.741 2.97664 0.321992 0
M  V30 1985 H 185.287 1.4318 0.153434 0
M  V30 1986 H 187.24 3.19366 2.74924 0
M  V30 1987 H 185.964 1.9584 2.6137 0
M  V30 1988 H 184.623 3.48816 1.12796 0
M  V30 1989 H 184.271 3.50893 3.60393 0
M  V30 1990 H 183.971 5.11455 2.89288 0
M  V30 1991 H 185.495 4.80207 3.77139 0
M  V30 1992 H 186.909 5.50214 1.61052 0
M  V30 1993 H 185.306 5.92648 0.942762 0
M  V30 1994 H 186.376 4.84892 0.0279022 0
M  V30 1995 N 187.719 -0.156864 1.56817 0
M  V30 1996 C 188.965 -0.872416 1.83076 0
M  V30 1997 C 189.298 -1.81261 0.697001 0
M  V30 1998 O 188.573 -1.92171 -0.30008 0
M  V30 1999 C 188.856 -1.65551 3.19789 0
M  V30 2000 C 188.709 -0.737467 4.43713 0
M  V30 2001 C 190.028 -2.62012 3.53606 0
M  V30 2002 H 187.147 -0.315715 0.665953 0
M  V30 2003 H 189.789 -0.138004 1.89498 0
M  V30 2004 H 187.939 -2.28159 3.14445 0
M  V30 2005 H 189.611 -0.123143 4.61136 0
M  V30 2006 H 187.854 -0.0464067 4.33775 0
M  V30 2007 H 188.525 -1.32122 5.35955 0
M  V30 2008 H 191.001 -2.09525 3.59497 0
M  V30 2009 H 189.877 -3.13861 4.50314 0
M  V30 2010 H 190.138 -3.42902 2.79053 0
M  V30 2011 N 189.197 -1.51736 -0.425897 0
M  V30 2012 C 190.444 -1.6497 -1.17436 0
M  V30 2013 C 190.772 -0.371445 -1.9092 0
M  V30 2014 O 190.027 0.644963 -1.84767 0
M  V30 2015 C 190.326 -2.81103 -2.20717 0
M  V30 2016 C 189.992 -4.19954 -1.64162 0
M  V30 2017 C 188.654 -4.57725 -1.48462 0
M  V30 2018 C 191.006 -5.06552 -1.22696 0
M  V30 2019 C 188.334 -5.79789 -0.897873 0
M  V30 2020 C 190.686 -6.29205 -0.654464 0
M  V30 2021 C 189.35 -6.6574 -0.484456 0
M  V30 2022 H 188.62 -0.603668 -0.429727 0
M  V30 2023 H 191.267 -1.85798 -0.463829 0
M  V30 2024 H 189.572 -2.54542 -2.97852 0
M  V30 2025 H 191.269 -2.8854 -2.78471 0
M  V30 2026 H 187.859 -3.90181 -1.77361 0
M  V30 2027 H 192.043 -4.77968 -1.33642 0
M  V30 2028 H 187.299 -6.06733 -0.75402 0
M  V30 2029 H 191.473 -6.95643 -0.324694 0
M  V30 2030 H 189.1 -7.60195 -0.0276833 0
M  V30 2031 N 190.675 0.682077 -1.42076 0
M  V30 2032 C 191.9 1.47558 -1.45744 0
M  V30 2033 C 192.325 1.87977 -0.0680981 0
M  V30 2034 O 191.683 1.55522 0.9318 0
M  V30 2035 C 191.731 2.70575 -2.38373 0
M  V30 2036 O 190.835 3.68573 -1.85007 0
M  V30 2037 H 190.176 0.443585 -0.494093 0
M  V30 2038 H 192.706 0.837238 -1.86686 0
M  V30 2039 H 192.716 3.18729 -2.54707 0
M  V30 2040 H 191.391 2.40495 -3.39315 0
M  V30 2041 H 189.968 3.2757 -1.78192 0
M  V30 2042 N 192.153 1.28127 0.917671 0
M  V30 2043 C 193.378 1.18007 1.70555 0
M  V30 2044 C 193.803 -0.258257 1.86319 0
M  V30 2045 O 193.161 -1.1869 1.37049 0
M  V30 2046 C 193.209 1.87948 3.07746 0
M  V30 2047 O 192.313 1.18427 3.9503 0
M  V30 2048 H 191.654 0.409867 0.522403 0
M  V30 2049 H 194.184 1.69379 1.1477 0
M  V30 2050 H 194.194 1.95701 3.58001 0
M  V30 2051 H 192.869 2.92573 2.95591 0
M  V30 2052 H 191.446 1.18811 3.53466 0
M  V30 2053 N 193.631 -1.12557 1.10312 0
M  V30 2054 C 194.856 -1.88405 0.867085 0
M  V30 2055 C 195.281 -1.79038 -0.576817 0
M  V30 2056 O 194.639 -1.14439 -1.40618 0
M  V30 2057 C 194.687 -3.3563 1.31851 0
M  V30 2058 O 193.791 -4.09565 0.482734 0
M  V30 2059 H 193.132 -0.585455 0.313271 0
M  V30 2060 H 195.662 -1.42352 1.4696 0
M  V30 2061 H 195.672 -3.86469 1.3079 0
M  V30 2062 H 194.347 -3.41765 2.37001 0
M  V30 2063 H 192.924 -3.68695 0.558448 0
M  V30 2064 N 195.109 -0.891671 -1.2995 0
M  V30 2065 C 196.072 -0.36828 -2.26222 0
M  V30 2066 C 197.072 0.493014 -1.53056 0
M  V30 2067 O 198.262 0.299213 -1.71611 0
M  V30 2068 C 195.394 0.47442 -3.37583 0
M  V30 2069 H 196.587 -1.21844 -2.74033 0
M  V30 2070 H 194.14 -0.669107 -1.41254 0
M  V30 2071 H 194.875 1.34489 -2.95099 0
M  V30 2072 H 194.66 -0.142615 -3.91841 0
M  V30 2073 H 196.15 0.83218 -4.09224 0
M  V30 2074 N 196.587 1.43421 -0.653314 0
M  V30 2075 C 197.815 2.06163 -0.174491 0
M  V30 2076 C 198.23 1.48969 1.1599 0
M  V30 2077 O 197.587 0.621042 1.71608 0
M  V30 2078 C 197.638 3.61417 -0.0774865 0
M  V30 2079 O 197.359 4.16485 -1.35912 0
M  V30 2080 C 198.86 4.41235 0.427402 0
M  V30 2081 H 196.08 0.664946 -0.0899353 0
M  V30 2082 H 198.624 1.83924 -0.893988 0
M  V30 2083 H 196.779 3.82841 0.59257 0
M  V30 2084 H 197.193 5.10153 -1.21839 0
M  V30 2085 H 198.667 5.5021 0.44423 0
M  V30 2086 H 199.144 4.14268 1.45873 0
M  V30 2087 H 199.75 4.2478 -0.210167 0
M  V30 2088 N 198.065 0.39524 1.52563 0
M  V30 2089 C 199.311 -0.185318 2.01952 0
M  V30 2090 C 199.644 -1.45964 1.28095 0
M  V30 2091 O 198.919 -1.90689 0.38315 0
M  V30 2092 C 199.202 -0.447193 3.57312 0
M  V30 2093 C 199.055 0.842828 4.41833 0
M  V30 2094 C 200.374 -1.23529 4.22408 0
M  V30 2095 H 197.493 -0.0658788 0.73405 0
M  V30 2096 H 200.135 0.525975 1.82575 0
M  V30 2097 H 198.285 -1.05312 3.73954 0
M  V30 2098 H 199.957 1.4795 4.36931 0
M  V30 2099 H 198.2 1.45686 4.08605 0
M  V30 2100 H 198.871 0.614165 5.48573 0
M  V30 2101 H 201.347 -0.722445 4.0978 0
M  V30 2102 H 200.223 -1.38727 5.3108 0
M  V30 2103 H 200.484 -2.25213 3.80436 0
M  V30 2104 N 199.544 -1.57102 0.125237 0
M  V30 2105 C 200.774 -1.99472 -0.538015 0
M  V30 2106 C 201.182 -1.00395 -1.60366 0
M  V30 2107 O 200.525 0.0103875 -1.83697 0
M  V30 2108 C 200.587 -3.38262 -1.21734 0
M  V30 2109 C 200.251 -4.56021 -0.298897 0
M  V30 2110 C 201.248 -5.17817 0.464943 0
M  V30 2111 C 198.933 -5.01869 -0.208149 0
M  V30 2112 C 200.927 -6.23852 1.3072 0
M  V30 2113 C 198.614 -6.07763 0.637736 0
M  V30 2114 C 199.612 -6.68622 1.39403 0
M  V30 2115 O 199.3 -7.7247 2.22586 0
M  V30 2116 H 199.032 -0.659934 -0.146501 0
M  V30 2117 H 201.586 -2.04321 0.210267 0
M  V30 2118 H 199.816 -3.30185 -2.01282 0
M  V30 2119 H 201.505 -3.6488 -1.77813 0
M  V30 2120 H 202.271 -4.83308 0.404741 0
M  V30 2121 H 198.15 -4.54241 -0.786522 0
M  V30 2122 H 201.694 -6.71284 1.898 0
M  V30 2123 H 197.591 -6.41701 0.699309 0
M  V30 2124 H 198.359 -7.89595 2.15596 0
M  V30 2125 N 201.022 0.148545 -1.56898 0
M  V30 2126 C 202.27 0.859717 -1.82902 0
M  V30 2127 C 202.591 1.81775 -0.70588 0
M  V30 2128 O 201.861 1.93994 0.272586 0
M  V30 2129 H 200.441 0.320469 -0.674766 0
M  V30 2130 H 203.103 0.142918 -1.94375 0
M  V30 2131 H 202.199 1.4229 -2.77777 0
M  V30 2132 N 202.5 1.5196 0.417844 0
M  V30 2133 C 203.448 1.75278 1.52907 0
M  V30 2134 C 204.442 0.619611 1.57662 0
M  V30 2135 O 205.648 0.801457 1.61173 0
M  V30 2136 H 202.023 0.554141 0.508362 0
M  V30 2137 H 203.994 2.68389 1.30422 0
M  V30 2138 C 202.743 1.91262 2.90369 0
M  V30 2139 H 202.066 2.77872 2.8745 0
M  V30 2140 H 203.506 2.11581 3.67436 0
M  V30 2141 C 201.965 0.677431 3.30019 0
M  V30 2142 O 202.495 -0.158799 4.01386 0
M  V30 2143 N 200.701 0.515851 2.85985 0
M  V30 2144 H 200.248 1.19744 2.28077 0
M  V30 2145 H 200.206 -0.309315 3.12875 0
M  V30 2146 N 203.978 -0.674533 1.42435 0
M  V30 2147 C 205.389 -1.25514 1.38214 0
M  V30 2148 C 205.74 -1.96055 0.0755464 0
M  V30 2149 O 204.865 -2.00028 -0.8257 0
M  V30 2150 C 205.46 -2.28269 2.50357 0
M  V30 2151 C 204.019 -2.81856 2.49467 0
M  V30 2152 C 203.166 -1.56182 2.29134 0
M  V30 2153 H 206.117 -0.467902 1.51646 0
M  V30 2154 H 206.138 -3.10009 2.20624 0
M  V30 2155 H 205.65 -1.769 3.45439 0
M  V30 2156 H 203.751 -3.37346 1.58204 0
M  V30 2157 H 203.864 -3.30854 3.46515 0
M  V30 2158 H 202.228 -1.82761 1.774 0
M  V30 2159 H 203.011 -1.06778 3.26272 0
M  V30 2160 N 205.456 -1.28612 -0.910864 0
M  V30 2161 C 206.388 -1.08589 -2.01844 0
M  V30 2162 C 207.401 -0.0367419 -1.62759 0
M  V30 2163 O 208.59 -0.280101 -1.76289 0
M  V30 2164 C 205.69 -0.628626 -3.33019 0
M  V30 2165 C 204.863 -1.75382 -4.00699 0
M  V30 2166 C 203.922 -1.28945 -5.10156 0
M  V30 2167 O 202.948 -1.9922 -5.33198 0
M  V30 2168 N 204.15 -0.154224 -5.80295 0
M  V30 2169 H 206.915 -2.03973 -2.19579 0
M  V30 2170 H 204.476 -1.20403 -1.08234 0
M  V30 2171 H 206.468 -0.301508 -4.03575 0
M  V30 2172 H 205.038 0.232451 -3.11735 0
M  V30 2173 H 204.258 -2.25039 -3.23653 0
M  V30 2174 H 205.546 -2.50854 -4.42662 0
M  V30 2175 H 204.944 0.43194 -5.64049 0
M  V30 2176 H 203.501 0.113599 -6.51701 0
M  V30 2177 N 206.934 1.1197 -1.10907 0
M  V30 2178 C 208.164 1.8713 -0.875553 0
M  V30 2179 C 208.572 1.8016 0.577843 0
M  V30 2180 O 207.915 1.17699 1.41042 0
M  V30 2181 C 207.977 3.37005 -1.2517 0
M  V30 2182 C 207.641 3.67748 -2.71313 0
M  V30 2183 C 208.638 3.65698 -3.69542 0
M  V30 2184 C 206.323 3.96928 -3.07821 0
M  V30 2185 C 208.317 3.92395 -5.023 0
M  V30 2186 C 206.004 4.23284 -4.40765 0
M  V30 2187 C 207.002 4.21005 -5.37814 0
M  V30 2188 O 206.69 4.46704 -6.68364 0
M  V30 2189 H 206.422 0.598786 -0.313737 0
M  V30 2190 H 208.976 1.42568 -1.47863 0
M  V30 2191 H 207.206 3.82146 -0.591741 0
M  V30 2192 H 208.895 3.93519 -0.994877 0
M  V30 2193 H 209.661 3.43211 -3.42682 0
M  V30 2194 H 205.54 3.97841 -2.32902 0
M  V30 2195 H 209.084 3.90531 -5.78041 0
M  V30 2196 H 204.981 4.45246 -4.67361 0
M  V30 2197 H 205.749 4.64299 -6.74069 0
M  V30 2198 N 208.412 0.89855 1.29475 0
M  V30 2199 C 209.342 0.39201 2.30186 0
M  V30 2200 C 210.323 -0.532359 1.61555 0
M  V30 2201 O 211.508 -0.443331 1.89072 0
M  V30 2202 C 208.638 -0.382353 3.45189 0
M  V30 2203 C 207.592 0.451483 4.25612 0
M  V30 2204 C 206.918 -0.450307 5.328 0
M  V30 2205 C 208.218 1.70079 4.93832 0
M  V30 2206 H 209.912 1.23362 2.72804 0
M  V30 2207 H 207.458 0.594638 1.31149 0
M  V30 2208 H 209.411 -0.747451 4.14718 0
M  V30 2209 H 208.135 -1.25774 3.01411 0
M  V30 2210 H 206.794 0.798897 3.57789 0
M  V30 2211 H 206.442 -1.32379 4.85268 0
M  V30 2212 H 206.142 0.103902 5.87508 0
M  V30 2213 H 207.666 -0.811623 6.05182 0
M  V30 2214 H 209.08 1.40549 5.55805 0
M  V30 2215 H 207.477 2.19623 5.58467 0
M  V30 2216 H 208.547 2.43744 4.19186 0
M  V30 2217 N 209.89 -1.43072 0.660911 0
M  V30 2218 C 211.301 -1.84932 0.256348 0
M  V30 2219 C 211.652 -1.55325 -1.19868 0
M  V30 2220 O 210.777 -1.00607 -1.91591 0
M  V30 2221 C 211.372 -3.35684 0.458475 0
M  V30 2222 C 209.931 -3.76245 0.108161 0
M  V30 2223 C 209.078 -2.66749 0.757641 0
M  V30 2224 H 212.029 -1.33116 0.864051 0
M  V30 2225 H 212.05 -3.79365 -0.293683 0
M  V30 2226 H 211.562 -3.572 1.51755 0
M  V30 2227 H 209.663 -3.60338 -0.948014 0
M  V30 2228 H 209.776 -4.76058 0.538992 0
M  V30 2229 H 208.14 -2.53989 0.190185 0
M  V30 2230 H 208.923 -2.91092 1.81989 0
M  V30 2231 N 211.368 -0.403325 -1.52352 0
M  V30 2232 C 212.298 0.416205 -2.29761 0
M  V30 2233 C 213.279 1.05123 -1.33728 0
M  V30 2234 O 214.464 1.06134 -1.62632 0
M  V30 2235 C 211.594 1.53624 -3.11475 0
M  V30 2236 C 210.548 1.02653 -4.15507 0
M  V30 2237 C 209.874 2.23971 -4.85532 0
M  V30 2238 C 211.174 0.08463 -5.22231 0
M  V30 2239 H 212.868 -0.229701 -2.98518 0
M  V30 2240 H 210.414 -0.111913 -1.43564 0
M  V30 2241 H 212.367 2.1165 -3.64393 0
M  V30 2242 H 211.091 2.20994 -2.40477 0
M  V30 2243 H 209.75 0.46871 -3.63591 0
M  V30 2244 H 209.398 2.89883 -4.11068 0
M  V30 2245 H 209.098 1.90521 -5.55856 0
M  V30 2246 H 210.622 2.82614 -5.41259 0
M  V30 2247 H 212.036 0.573509 -5.70424 0
M  V30 2248 H 210.433 -0.160783 -5.99885 0
M  V30 2249 H 211.503 -0.86237 -4.7717 0
M  V30 2250 N 212.846 1.57033 -0.133567 0
M  V30 2251 C 214.123 1.87256 0.56522 0
M  V30 2252 C 214.503 1.03726 1.83859 0
M  V30 2253 O 213.851 0.120247 2.28183 0
M  V30 2254 C 214.061 3.3865 0.843636 0
M  V30 2255 C 215.409 4.07574 1.19032 0
M  V30 2256 O 216.433 3.43752 0.933429 0
M  V30 2257 O 215.292 5.20259 1.67312 0
M  V30 2258 H 212.386 0.775678 0.286796 0
M  V30 2259 H 214.932 1.68855 -0.169168 0
M  V30 2260 H 213.704 3.91257 -0.0581149 0
M  V30 2261 H 213.327 3.62532 1.63268 0
M  V30 2262 N 214.325 -0.140222 1.56975 0
M  V30 2263 C 215.235 -1.19223 2.02047 0
M  V30 2264 C 216.251 -1.46612 0.937062 0
M  V30 2265 O 217.427 -1.58148 1.24704 0
M  V30 2266 C 214.492 -2.50414 2.39778 0
M  V30 2267 C 213.553 -2.30612 3.621 0
M  V30 2268 C 212.786 -3.55547 3.98023 0
M  V30 2269 O 213.009 -4.62004 3.34528 0
M  V30 2270 O 211.943 -3.47808 4.91237 0
M  V30 2271 H 215.769 -0.839559 2.91865 0
M  V30 2272 H 213.354 -0.349453 1.45256 0
M  V30 2273 H 215.236 -3.27747 2.64877 0
M  V30 2274 H 213.911 -2.85198 1.53114 0
M  V30 2275 H 212.818 -1.51207 3.4218 0
M  V30 2276 H 214.151 -2.00741 4.49404 0
M  V30 2277 N 215.803 -1.52179 -0.40978 0
M  V30 2278 C 216.766 -1.74853 -1.48186 0
M  V30 2279 C 217.766 -0.618417 -1.48433 0
M  V30 2280 O 218.956 -0.886286 -1.49969 0
M  V30 2281 C 216.088 -1.8303 -2.87598 0
M  V30 2282 H 217.281 -2.70559 -1.29374 0
M  V30 2283 H 214.834 -1.42586 -0.640233 0
M  V30 2284 H 215.569 -0.89236 -3.11781 0
M  V30 2285 H 215.354 -2.65187 -2.88822 0
M  V30 2286 H 216.844 -2.02316 -3.65319 0
M  V30 2287 N 217.281 0.66697 -1.42791 0
M  V30 2288 C 218.231 1.77313 -1.43332 0
M  V30 2289 C 219.215 1.5801 -0.303586 0
M  V30 2290 O 220.407 1.68356 -0.546385 0
M  V30 2291 C 217.536 3.15822 -1.34578 0
M  V30 2292 C 216.622 3.40721 -2.52528 0
M  V30 2293 N 217.013 3.36162 -3.77927 0
M  V30 2294 C 215.311 3.71387 -2.46956 0
M  V30 2295 C 216.012 3.60762 -4.56318 0
M  V30 2296 N 214.988 3.81908 -3.86843 0
M  V30 2297 H 218.79 1.72193 -2.38174 0
M  V30 2298 H 216.304 0.868114 -1.3725 0
M  V30 2299 H 218.301 3.951 -1.33048 0
M  V30 2300 H 216.961 3.22133 -0.407453 0
M  V30 2301 H 217.972 3.15885 -4.10411 0
M  V30 2302 H 214.649 3.84897 -1.61743 0
M  V30 2303 H 216.039 3.63132 -5.65318 0
M  V30 2304 N 218.759 1.29093 0.90403 0
M  V30 2305 C 220.17 1.15186 1.46932 0
M  V30 2306 C 220.521 -0.254587 1.94541 0
M  V30 2307 O 219.646 -1.14972 1.83332 0
M  V30 2308 C 220.241 2.08492 2.67051 0
M  V30 2309 C 218.8 1.98621 3.19729 0
M  V30 2310 C 217.947 1.9967 1.92425 0
M  V30 2311 H 220.898 1.41641 0.715789 0
M  V30 2312 H 220.919 1.65461 3.42641 0
M  V30 2313 H 220.431 3.10847 2.3237 0
M  V30 2314 H 218.532 0.993389 3.59114 0
M  V30 2315 H 218.645 2.86068 3.8432 0
M  V30 2316 H 217.009 1.44208 2.09943 0
M  V30 2317 H 217.792 3.03721 1.60026 0
M  V30 2318 N 220.237 -1.11381 1.11499 0
M  V30 2319 C 221.465 -1.86934 0.88675 0
M  V30 2320 C 221.88 -1.80195 -0.563476 0
M  V30 2321 O 221.237 -1.18367 -1.38908 0
M  V30 2322 C 221.288 -3.35722 1.34064 0
M  V30 2323 O 221.009 -3.4232 2.73401 0
M  V30 2324 C 222.51 -4.2818 1.14791 0
M  V30 2325 H 219.73 -0.591117 0.317523 0
M  V30 2326 H 222.274 -1.40865 1.48248 0
M  V30 2327 H 220.429 -3.79294 0.788355 0
M  V30 2328 H 220.843 -4.34971 2.93087 0
M  V30 2329 H 222.317 -5.30817 1.5145 0
M  V30 2330 H 222.794 -4.39113 0.0875279 0
M  V30 2331 H 223.4 -3.90402 1.68721 0
M  V30 2332 N 221.715 -0.905404 -1.28997 0
M  V30 2333 C 222.963 -0.533192 -1.9494 0
M  V30 2334 C 223.284 0.924618 -1.71685 0
M  V30 2335 O 222.554 1.65268 -1.05183 0
M  V30 2336 H 221.134 -0.194194 -0.721317 0
M  V30 2337 H 223.796 -1.15294 -1.57141 0
M  V30 2338 H 222.892 -0.72059 -3.03667 0
M  V30 2339 N 223.193 1.4272 -0.668489 0
M  V30 2340 C 224.441 2.01226 -0.187769 0
M  V30 2341 C 224.762 1.53092 1.2078 0
M  V30 2342 O 224.032 0.74993 1.80977 0
M  V30 2343 H 222.612 0.744041 -0.0664272 0
M  V30 2344 H 225.274 1.74723 -0.863583 0
M  V30 2345 H 224.37 3.11556 -0.184166 0
M  V30 2346 N 224.671 0.411399 1.52136 0
M  V30 2347 C 225.911 -0.163143 2.03748 0
M  V30 2348 C 226.275 -1.42187 1.29022 0
M  V30 2349 O 227.476 -2.075 1.70872 0
M  V30 2350 C 225.747 -0.402651 3.55125 0
M  V30 2351 S 227.306 -0.944315 4.28519 0
M  V30 2352 H 224.124 -0.0439833 0.709638 0
M  V30 2353 H 226.726 0.56484 1.87163 0
M  V30 2354 H 225.43 0.520212 4.0709 0
M  V30 2355 H 224.961 -1.15844 3.75957 0
M  V30 2356 H 226.976 -2.22463 4.43536 0
M  V30 2357 N 226.149 -1.5696 0.141893 0
M  V30 2358 C 227.377 -2.00322 -0.517579 0
M  V30 2359 C 227.792 -1.02193 -1.58752 0
M  V30 2360 O 227.149 -0.0181619 -1.82491 0
M  V30 2361 C 227.2 -3.43618 -1.12289 0
M  V30 2362 O 226.921 -4.37995 -0.0956929 0
M  V30 2363 C 228.422 -4.02231 -1.86347 0
M  V30 2364 H 225.642 -0.657243 -0.135177 0
M  V30 2365 H 228.186 -2.03146 0.234973 0
M  V30 2366 H 226.341 -3.41662 -1.82609 0
M  V30 2367 H 226.755 -5.21729 -0.538469 0
M  V30 2368 H 228.229 -5.04509 -2.23997 0
M  V30 2369 H 228.706 -3.42655 -2.74744 0
M  V30 2370 H 229.312 -4.07802 -1.20737 0
M  V30 2371 N 227.627 0.131896 -1.57047 0
M  V30 2372 C 228.575 1.18146 -2.0036 0
M  V30 2373 C 229.569 1.43614 -0.898406 0
M  V30 2374 O 230.775 1.43729 -1.08361 0
M  V30 2375 H 227.15 0.398042 -0.638018 0
M  V30 2376 H 229.121 0.789564 -2.87765 0
M  V30 2377 C 227.87 2.50341 -2.41298 0
M  V30 2378 H 227.193 2.31578 -3.25902 0
M  V30 2379 H 228.633 3.22371 -2.75414 0
M  V30 2380 C 227.092 3.11984 -1.27153 0
M  V30 2381 O 227.622 3.97484 -0.580459 0
M  V30 2382 N 225.828 2.71662 -1.03189 0
M  V30 2383 H 225.375 2.02231 -1.59564 0
M  V30 2384 H 225.333 3.13238 -0.270077 0
M  V30 2385 N 229.106 1.52395 0.401703 0
M  V30 2386 C 230.517 1.58899 0.980202 0
M  V30 2387 C 230.868 0.434032 1.91339 0
M  V30 2388 O 229.993 -0.444619 2.11783 0
M  V30 2389 C 230.588 2.87994 1.78451 0
M  V30 2390 C 229.147 2.96953 2.31292 0
M  V30 2391 C 228.294 2.53903 1.11483 0
M  V30 2392 H 231.245 1.57657 0.18168 0
M  V30 2393 H 231.266 2.73765 2.64259 0
M  V30 2394 H 230.778 3.72035 1.10506 0
M  V30 2395 H 228.879 2.17422 3.02586 0
M  V30 2396 H 228.992 4.01344 2.61649 0
M  V30 2397 H 227.356 2.07925 1.47104 0
M  V30 2398 H 228.139 3.40326 0.450928 0
M  V30 2399 N 230.584 -0.659388 1.43143 0
M  V30 2400 C 231.814 -1.44513 1.47646 0
M  V30 2401 C 232.222 -1.88981 0.0910095 0
M  V30 2402 O 231.565 -1.59702 -0.907789 0
M  V30 2403 C 231.627 -2.71663 2.35456 0
M  V30 2404 C 231.291 -2.49175 3.83094 0
M  V30 2405 C 232.288 -2.1279 4.74359 0
M  V30 2406 C 229.973 -2.63691 4.27519 0
M  V30 2407 C 231.967 -1.9121 6.08044 0
M  V30 2408 C 229.654 -2.41726 5.61259 0
M  V30 2409 C 230.652 -2.0554 6.51339 0
M  V30 2410 O 230.34 -1.838 7.82606 0
M  V30 2411 H 230.072 -0.45064 0.503884 0
M  V30 2412 H 232.626 -0.816248 1.88485 0
M  V30 2413 H 230.856 -3.37089 1.89493 0
M  V30 2414 H 232.545 -3.33595 2.31235 0
M  V30 2415 H 233.311 -2.01157 4.41317 0
M  V30 2416 H 229.19 -2.90832 3.57684 0
M  V30 2417 H 232.734 -1.62889 6.78316 0
M  V30 2418 H 228.631 -2.52959 5.9387 0
M  V30 2419 H 229.399 -1.98275 7.94122 0
M  V30 2420 N 232.062 -1.29571 -0.897171 0
M  V30 2421 C 233.31 -1.17456 -1.64464 0
M  V30 2422 C 233.631 0.273698 -1.9307 0
M  V30 2423 O 232.901 1.18684 -1.55855 0
M  V30 2424 H 231.481 -0.431706 -0.609622 0
M  V30 2425 H 234.143 -1.62531 -1.07562 0
M  V30 2426 H 233.239 -1.72648 -2.59998 0
M  V30 2427 N 233.54 1.10788 -1.12088 0
M  V30 2428 C 234.487 2.17025 -0.785407 0
M  V30 2429 C 235.457 1.64265 0.246191 0
M  V30 2430 O 236.642 1.90412 0.121584 0
M  V30 2431 C 233.782 3.44249 -0.242177 0
M  V30 2432 C 232.895 4.1098 -1.33115 0
M  V30 2433 C 232.03 5.25911 -0.747741 0
M  V30 2434 C 231.069 5.84538 -1.81609 0
M  V30 2435 N 230.206 6.90853 -1.25167 0
M  V30 2436 H 235.046 2.45066 -1.69548 0
M  V30 2437 H 232.583 1.20297 -0.846582 0
M  V30 2438 H 234.541 4.17101 0.0908026 0
M  V30 2439 H 233.171 3.16571 0.631072 0
M  V30 2440 H 232.223 3.36133 -1.78097 0
M  V30 2441 H 233.535 4.50601 -2.13917 0
M  V30 2442 H 232.689 6.056 -0.365216 0
M  V30 2443 H 231.428 4.87614 0.0915188 0
M  V30 2444 H 230.433 5.03522 -2.20785 0
M  V30 2445 H 231.658 6.249 -2.6585 0
M  V30 2446 H 229.604 6.54562 -0.434174 0
M  V30 2447 H 229.521 7.29166 -1.99633 0
M  V30 2448 H 230.789 7.7433 -0.896259 0
M  V30 2449 N 235.018 0.912232 1.28515 0
M  V30 2450 C 236.243 0.559774 1.99703 0
M  V30 2451 C 236.668 -0.851393 1.67729 0
M  V30 2452 O 236.026 -1.56875 0.908834 0
M  V30 2453 C 236.074 0.773874 3.52198 0
M  V30 2454 O 235.178 -0.167842 4.12058 0
M  V30 2455 H 234.519 0.21723 0.627461 0
M  V30 2456 H 237.049 1.22725 1.63706 0
M  V30 2457 H 237.059 0.683386 4.02236 0
M  V30 2458 H 235.734 1.80261 3.74805 0
M  V30 2459 H 234.311 -0.0287509 3.72889 0
M  V30 2460 N 236.496 -1.42363 0.676048 0
M  V30 2461 C 237.443 -2.308 -0.00150904 0
M  V30 2462 C 238.413 -1.46032 -0.791444 0
M  V30 2463 O 239.598 -1.74861 -0.76344 0
M  V30 2464 C 236.738 -3.31883 -0.945919 0
M  V30 2465 C 235.851 -4.31741 -0.149675 0
M  V30 2466 C 234.986 -5.19898 -1.08995 0
M  V30 2467 C 234.025 -6.11434 -0.285465 0
M  V30 2468 N 233.162 -6.92138 -1.17851 0
M  V30 2469 H 238.002 -2.88187 0.758455 0
M  V30 2470 H 235.539 -1.41952 0.38576 0
M  V30 2471 H 237.497 -3.89019 -1.50731 0
M  V30 2472 H 236.127 -2.76093 -1.6725 0
M  V30 2473 H 235.179 -3.76713 0.528359 0
M  V30 2474 H 236.491 -4.96534 0.474866 0
M  V30 2475 H 235.645 -5.81772 -1.72123 0
M  V30 2476 H 234.384 -4.55284 -1.74837 0
M  V30 2477 H 233.389 -5.48627 0.359018 0
M  V30 2478 H 234.614 -6.78097 0.368883 0
M  V30 2479 H 232.56 -6.30152 -1.82332 0
M  V30 2480 H 232.477 -7.53542 -0.609082 0
M  V30 2481 H 233.745 -7.58499 -1.79722 0
M  V30 2482 N 237.974 -0.419461 -1.51915 0
M  V30 2483 C 239.221 0.152939 -2.01922 0
M  V30 2484 C 239.549 1.4426 -1.30458 0
M  V30 2485 O 238.804 1.91514 -0.402593 0
M  V30 2486 C 239.103 0.437067 -3.54717 0
M  V30 2487 C 238.769 -0.764632 -4.44369 0
M  V30 2488 C 237.431 -1.09423 -4.68594 0
M  V30 2489 C 239.783 -1.56713 -4.97082 0
M  V30 2490 C 237.111 -2.22732 -5.42777 0
M  V30 2491 C 239.463 -2.69107 -5.72507 0
M  V30 2492 C 238.127 -3.02541 -5.95 0
M  V30 2493 H 237.397 0.0559644 -0.738884 0
M  V30 2494 H 240.044 -0.562998 -1.83037 0
M  V30 2495 H 238.349 1.23469 -3.71837 0
M  V30 2496 H 240.046 0.893083 -3.90928 0
M  V30 2497 H 236.636 -0.497775 -4.257 0
M  V30 2498 H 240.82 -1.32571 -4.78266 0
M  V30 2499 H 236.076 -2.48971 -5.58411 0
M  V30 2500 H 240.25 -3.31671 -6.12346 0
M  V30 2501 H 237.877 -3.90457 -6.52264 0
M  V30 2502 N 239.452 1.56882 -0.150215 0
M  V30 2503 C 240.699 1.96228 0.500093 0
M  V30 2504 C 241.027 1.03522 1.64661 0
M  V30 2505 O 240.282 0.0650683 1.95592 0
M  V30 2506 C 240.581 3.41801 1.04437 0
M  V30 2507 C 240.247 4.50897 0.0159671 0
M  V30 2508 C 238.909 4.8046 -0.266731 0
M  V30 2509 C 241.261 5.16703 -0.683192 0
M  V30 2510 C 238.589 5.73135 -1.25434 0
M  V30 2511 C 240.941 6.10441 -1.65964 0
M  V30 2512 C 239.605 6.38382 -1.95 0
M  V30 2513 H 238.875 0.718048 0.182997 0
M  V30 2514 H 241.522 1.90019 -0.237724 0
M  V30 2515 H 239.827 3.44857 1.85959 0
M  V30 2516 H 241.524 3.69573 1.55618 0
M  V30 2517 H 238.114 4.27891 0.246485 0
M  V30 2518 H 242.298 4.93993 -0.477983 0
M  V30 2519 H 237.554 5.93074 -1.48571 0
M  V30 2520 H 241.728 6.60507 -2.20689 0
M  V30 2521 H 239.355 7.09996 -2.71679 0
M  V30 2522 N 240.93 -0.123565 1.57115 0
M  V30 2523 C 242.179 -0.830704 1.83799 0
M  V30 2524 C 242.492 -1.81259 0.735158 0
M  V30 2525 O 243.698 -2.56558 0.888278 0
M  V30 2526 C 242.154 -1.52802 3.25852 0
M  V30 2527 C 241.762 -0.587356 4.44133 0
M  V30 2528 C 243.506 -2.22056 3.61789 0
M  V30 2529 C 241.413 -1.28764 5.77212 0
M  V30 2530 H 240.343 -0.313967 0.685522 0
M  V30 2531 H 242.994 -0.0834359 1.8331 0
M  V30 2532 H 241.376 -2.32175 3.20797 0
M  V30 2533 H 242.55 0.172829 4.60476 0
M  V30 2534 H 240.865 -0.00201892 4.164 0
M  V30 2535 H 243.462 -2.75131 4.58483 0
M  V30 2536 H 243.805 -2.99644 2.88997 0
M  V30 2537 H 244.338 -1.49576 3.68608 0
M  V30 2538 H 241.077 -0.55314 6.53162 0
M  V30 2539 H 240.597 -2.01995 5.64764 0
M  V30 2540 H 242.276 -1.8221 6.20813 0
M  V30 2541 N 242.408 -1.52605 -0.393616 0
M  V30 2542 C 243.318 -1.79971 -1.50492 0
M  V30 2543 C 244.334 -0.686181 -1.59899 0
M  V30 2544 O 245.51 -0.973274 -1.76322 0
M  V30 2545 C 242.575 -1.95867 -2.86072 0
M  V30 2546 C 241.636 -3.19781 -2.86424 0
M  V30 2547 C 240.869 -3.34909 -4.15538 0
M  V30 2548 O 241.092 -2.54948 -5.10253 0
M  V30 2549 O 240.026 -4.28141 -4.23059 0
M  V30 2550 H 243.852 -2.74328 -1.30299 0
M  V30 2551 H 241.437 -1.3764 -0.581005 0
M  V30 2552 H 243.319 -2.08056 -3.66457 0
M  V30 2553 H 241.994 -1.04699 -3.063 0
M  V30 2554 H 240.901 -3.13038 -2.04837 0
M  V30 2555 H 242.234 -4.1078 -2.71147 0
M  V30 2556 N 243.887 0.651787 -1.4349 0
M  V30 2557 C 244.797 1.79368 -1.5121 0
M  V30 2558 C 245.813 1.69361 -0.399093 0
M  V30 2559 O 246.989 1.90505 -0.653431 0
M  V30 2560 C 244.054 3.15653 -1.43401 0
M  V30 2561 C 243.115 3.37446 -2.65384 0
M  V30 2562 C 242.348 4.67229 -2.57939 0
M  V30 2563 O 242.571 5.46676 -1.62792 0
M  V30 2564 O 241.505 4.90773 -3.48462 0
M  V30 2565 H 245.331 1.7581 -2.47638 0
M  V30 2566 H 242.916 0.810447 -1.25507 0
M  V30 2567 H 244.798 3.96935 -1.41494 0
M  V30 2568 H 243.473 3.19798 -0.501085 0
M  V30 2569 H 242.38 2.55923 -2.72863 0
M  V30 2570 H 243.713 3.38148 -3.57654 0
M  V30 2571 N 245.365 1.30045 0.890287 0
M  V30 2572 C 246.298 1.10301 1.99772 0
M  V30 2573 C 247.276 0.0121631 1.62595 0
M  V30 2574 O 248.46 0.16469 1.87779 0
M  V30 2575 C 245.587 0.681125 3.31781 0
M  V30 2576 C 244.633 1.77206 3.87944 0
M  V30 2577 S 245.466 3.37335 4.15891 0
M  V30 2578 C 246.622 2.97036 5.50927 0
M  V30 2579 H 246.855 2.04057 2.16213 0
M  V30 2580 H 244.388 1.14299 1.03804 0
M  V30 2581 H 246.346 0.444439 4.08087 0
M  V30 2582 H 245.007 -0.236981 3.13205 0
M  V30 2583 H 244.2 1.42903 4.83316 0
M  V30 2584 H 243.802 1.96275 3.18358 0
M  V30 2585 H 246.094 2.44666 6.31779 0
M  V30 2586 H 247.037 3.91296 5.90164 0
M  V30 2587 H 247.445 2.35057 5.13233 0
M  V30 2588 N 246.843 -1.10192 1.12674 0
M  V30 2589 C 248.092 -1.81573 0.8783 0
M  V30 2590 C 248.405 -1.86249 -0.597557 0
M  V30 2591 O 249.611 -2.5386 -0.962681 0
M  V30 2592 C 248.067 -3.26149 1.52167 0
M  V30 2593 C 247.675 -3.29763 3.03249 0
M  V30 2594 C 249.419 -4.0234 1.3536 0
M  V30 2595 C 247.326 -4.68815 3.60508 0
M  V30 2596 H 246.256 -0.680394 0.324931 0
M  V30 2597 H 248.907 -1.23902 1.35353 0
M  V30 2598 H 247.289 -3.83832 0.974104 0
M  V30 2599 H 248.463 -2.8189 3.6452 0
M  V30 2600 H 246.778 -2.67059 3.19481 0
M  V30 2601 H 249.375 -5.05058 1.75559 0
M  V30 2602 H 249.718 -4.15235 0.297554 0
M  V30 2603 H 250.251 -3.51079 1.87052 0
M  V30 2604 H 246.99 -4.61121 4.65884 0
M  V30 2605 H 246.51 -5.17045 3.04014 0
M  V30 2606 H 248.189 -5.37785 3.59717 0
M  V30 2607 N 248.321 -0.919034 -1.28029 0
M  V30 2608 C 249.737 -0.617972 -1.4715 0
M  V30 2609 C 249.937 0.835242 -1.83374 0
M  V30 2610 O 248.993 1.61388 -1.94191 0
M  V30 2611 C 250.306 -1.56041 -2.57044 0
M  V30 2612 C 251.854 -1.56769 -2.7091 0
M  V30 2613 C 252.329 -2.49688 -3.83953 0
M  V30 2614 N 253.82 -2.47845 -3.91314 0
M  V30 2615 C 254.555 -3.16437 -4.78179 0
M  V30 2616 N 254.051 -3.94376 -5.69596 0
M  V30 2617 N 255.844 -3.05498 -4.71834 0
M  V30 2618 H 247.995 -1.85866 -1.02798 0
M  V30 2619 H 250.258 -0.797506 -0.512531 0
M  V30 2620 H 249.964 -2.59671 -2.372 0
M  V30 2621 H 249.838 -1.29551 -3.54255 0
M  V30 2622 H 252.225 -0.538745 -2.90141 0
M  V30 2623 H 252.306 -1.87305 -1.74214 0
M  V30 2624 H 251.95 -3.52688 -3.65477 0
M  V30 2625 H 251.88 -2.16453 -4.80058 0
M  V30 2626 H 254.371 -1.91234 -3.25941 0
M  V30 2627 H 254.684 -4.43721 -6.32718 0
M  V30 2628 H 253.029 -3.98481 -5.69419 0
M  V30 2629 H 256.22 -2.44108 -3.99411 0
M  V30 2630 H 256.393 -3.59225 -5.39316 0
M  V30 2631 N 249.799 1.42003 -0.683588 0
M  V30 2632 C 251.076 1.95112 -0.138075 0
M  V30 2633 C 251.456 1.62359 1.34918 0
M  V30 2634 O 250.804 0.924311 2.08971 0
M  V30 2635 C 251.014 3.46505 -0.416581 0
M  V30 2636 C 252.362 4.23254 -0.337834 0
M  V30 2637 O 253.386 3.54468 -0.35082 0
M  V30 2638 O 252.245 5.45743 -0.287596 0
M  V30 2639 H 249.339 0.826961 -0.00797996 0
M  V30 2640 H 251.885 1.51784 -0.758924 0
M  V30 2641 H 250.657 3.63582 -1.4465 0
M  V30 2642 H 250.28 3.969 0.235839 0
M  V30 2643 N 251.277 0.427512 1.51691 0
M  V30 2644 C 252.207 -0.3796 2.30394 0
M  V30 2645 C 253.188 -1.02982 1.35384 0
M  V30 2646 O 254.373 -1.03534 1.643 0
M  V30 2647 C 251.503 -1.48649 3.1388 0
M  V30 2648 C 250.457 -0.960294 4.17088 0
M  V30 2649 C 249.783 -2.16219 4.89033 0
M  V30 2650 C 251.083 -0.00153679 5.223 0
M  V30 2651 H 252.777 0.277164 2.98114 0
M  V30 2652 H 250.323 0.134739 1.43368 0
M  V30 2653 H 252.276 -2.05826 3.67714 0
M  V30 2654 H 251 -2.1714 2.43962 0
M  V30 2655 H 249.659 -0.410806 3.64291 0
M  V30 2656 H 249.307 -2.83307 4.15628 0
M  V30 2657 H 249.007 -1.81654 5.58816 0
M  V30 2658 H 250.531 -2.73968 5.45687 0
M  V30 2659 H 251.945 -0.482687 5.71264 0
M  V30 2660 H 250.342 0.256199 5.99553 0
M  V30 2661 H 251.412 0.938174 4.75738 0
M  V30 2662 N 252.755 -1.56801 0.158532 0
M  V30 2663 C 253.995 -1.98383 -0.49229 0
M  V30 2664 C 254.359 -1.04184 -1.61275 0
M  V30 2665 O 255.56 -1.34856 -2.32524 0
M  V30 2666 C 253.831 -3.4385 -0.974766 0
M  V30 2667 S 255.39 -4.07459 -1.62857 0
M  V30 2668 H 252.208 -0.693041 -0.158794 0
M  V30 2669 H 254.81 -1.93856 0.252974 0
M  V30 2670 H 253.514 -4.10131 -0.148688 0
M  V30 2671 H 253.045 -3.52115 -1.75438 0
M  V30 2672 H 255.06 -4.01458 -2.91627 0
M  V30 2673 N 254.233 0.115231 -1.57178 0
M  V30 2674 C 255.165 1.16694 -1.97269 0
M  V30 2675 C 256.178 1.37445 -0.872502 0
M  V30 2676 O 257.367 1.36454 -1.15077 0
M  V30 2677 C 254.467 2.52627 -2.25905 0
M  V30 2678 C 253.64 2.52427 -3.57211 0
M  V30 2679 C 252.699 3.70134 -3.74016 0
M  V30 2680 O 251.725 3.53546 -4.46087 0
M  V30 2681 N 252.927 4.88844 -3.13068 0
M  V30 2682 H 255.692 0.82588 -2.88096 0
M  V30 2683 H 253.253 0.304461 -1.59011 0
M  V30 2684 H 255.245 3.29937 -2.34359 0
M  V30 2685 H 253.815 2.789 -1.41186 0
M  V30 2686 H 253.035 1.60805 -3.5991 0
M  V30 2687 H 254.323 2.49353 -4.43509 0
M  V30 2688 H 253.721 5.05225 -2.54489 0
M  V30 2689 H 252.278 5.63817 -3.27037 0
M  V30 2690 N 255.711 1.52812 0.385517 0
M  V30 2691 C 256.674 1.77188 1.45386 0
M  V30 2692 C 257.674 0.641953 1.4743 0
M  V30 2693 O 258.864 0.910033 1.4854 0
M  V30 2694 C 255.996 1.87582 2.8465 0
M  V30 2695 H 257.189 2.72583 1.25054 0
M  V30 2696 H 254.742 1.43586 0.617467 0
M  V30 2697 H 255.477 0.941849 3.10322 0
M  V30 2698 H 255.262 2.69748 2.84567 0
M  V30 2699 H 256.752 2.08102 3.62054 0
M  V30 2700 N 257.189 -0.644168 1.43834 0
M  V30 2701 C 258.466 -1.40188 1.36406 0
M  V30 2702 C 258.846 -2.11094 0.0163124 0
M  V30 2703 O 258.194 -2.05426 -1.00062 0
M  V30 2704 C 258.404 -2.3791 2.55343 0
M  V30 2705 C 259.752 -3.01637 2.98832 0
M  V30 2706 O 260.776 -2.48237 2.55455 0
M  V30 2707 O 259.635 -3.98477 3.74003 0
M  V30 2708 H 256.729 -0.626773 0.539523 0
M  V30 2709 H 259.275 -0.670317 1.559 0
M  V30 2710 H 258.047 -1.84525 3.4506 0
M  V30 2711 H 257.67 -3.18503 2.37995 0
M  V30 2712 N 258.668 -1.30515 -0.883378 0
M  V30 2713 C 259.615 -1.17032 -1.98927 0
M  V30 2714 C 260.585 -0.0594241 -1.65994 0
M  V30 2715 O 261.77 -0.229895 -1.8941 0
M  V30 2716 C 258.91 -0.869777 -3.33959 0
M  V30 2717 C 258.023 -2.06271 -3.79574 0
M  V30 2718 C 257.158 -1.70011 -5.03259 0
M  V30 2719 C 256.197 -2.8579 -5.41286 0
M  V30 2720 N 255.334 -2.49816 -6.56153 0
M  V30 2721 H 260.174 -2.1164 -2.09792 0
M  V30 2722 H 257.711 -1.05296 -1.02719 0
M  V30 2723 H 259.669 -0.676138 -4.11685 0
M  V30 2724 H 258.299 0.0394332 -3.22776 0
M  V30 2725 H 257.351 -2.36755 -2.97744 0
M  V30 2726 H 258.663 -2.92971 -4.03694 0
M  V30 2727 H 257.817 -1.47032 -5.88614 0
M  V30 2728 H 256.556 -0.804829 -4.81013 0
M  V30 2729 H 255.561 -3.09434 -4.54456 0
M  V30 2730 H 256.786 -3.76008 -5.65504 0
M  V30 2731 H 254.732 -1.62795 -6.35479 0
M  V30 2732 H 254.649 -3.30048 -6.8015 0
M  V30 2733 H 255.917 -2.30197 -7.44735 0
M  V30 2734 N 260.146 1.09593 -1.13257 0
M  V30 2735 C 261.374 1.855 -0.916378 0
M  V30 2736 C 261.789 1.81069 0.534738 0
M  V30 2737 O 261.146 1.20562 1.37007 0
M  V30 2738 C 261.197 3.33546 -1.39388 0
M  V30 2739 O 260.918 3.37927 -2.78813 0
M  V30 2740 C 262.419 4.26299 -1.21588 0
M  V30 2741 H 259.639 0.585991 -0.326887 0
M  V30 2742 H 262.183 1.38488 -1.5047 0
M  V30 2743 H 260.338 3.77992 -0.848597 0
M  V30 2744 H 260.752 4.30254 -2.9997 0
M  V30 2745 H 262.226 5.28341 -1.59876 0
M  V30 2746 H 262.703 4.38918 -0.157376 0
M  V30 2747 H 263.309 3.87668 -1.7491 0
M  V30 2748 N 261.624 0.925811 1.2754 0
M  V30 2749 C 262.87 0.575575 1.95086 0
M  V30 2750 C 263.225 -0.873246 1.71441 0
M  V30 2751 O 262.518 -1.61443 1.03183 0
M  V30 2752 C 262.712 0.835296 3.47502 0
M  V30 2753 C 262.541 2.30781 3.85967 0
M  V30 2754 C 261.311 2.96017 4.09514 0
M  V30 2755 C 263.509 3.28519 3.95702 0
M  V30 2756 N 261.491 4.3344 4.34744 0
M  V30 2757 C 262.862 4.51146 4.25285 0
M  V30 2758 C 264.917 3.23753 3.7827 0
M  V30 2759 C 263.62 5.69606 4.39251 0
M  V30 2760 C 265.646 4.41523 3.9346 0
M  V30 2761 C 265.008 5.62928 4.23428 0
M  V30 2762 H 261.107 0.260711 0.737261 0
M  V30 2763 H 263.691 1.19204 1.53943 0
M  V30 2764 H 261.862 0.248005 3.87607 0
M  V30 2765 H 263.594 0.447878 4.02214 0
M  V30 2766 H 260.349 2.46695 4.04275 0
M  V30 2767 H 260.773 5.04528 4.5142 0
M  V30 2768 H 265.415 2.3096 3.54143 0
M  V30 2769 H 263.133 6.62866 4.62205 0
M  V30 2770 H 266.719 4.39351 3.81394 0
M  V30 2771 H 265.599 6.52538 4.34929 0
M  V30 2772 N 263.102 -1.41638 0.69111 0
M  V30 2773 C 264.05 -2.32597 0.0115199 0
M  V30 2774 C 265.044 -1.5072 -0.773296 0
M  V30 2775 O 266.25 -1.66685 -0.67942 0
M  V30 2776 H 262.625 -0.751849 -0.0150746 0
M  V30 2777 H 264.596 -2.87593 0.795791 0
M  V30 2778 C 263.345 -3.35467 -0.914172 0
M  V30 2779 H 262.668 -3.9852 -0.319687 0
M  V30 2780 H 264.108 -4.01662 -1.35808 0
M  V30 2781 C 262.567 -2.69004 -2.02826 0
M  V30 2782 O 263.097 -2.53444 -3.11655 0
M  V30 2783 N 261.303 -2.2777 -1.80469 0
M  V30 2784 H 260.85 -2.40626 -0.919615 0
M  V30 2785 H 260.808 -1.83635 -2.55197 0
M  V30 2786 N 264.58 -0.43555 -1.51462 0
M  V30 2787 C 265.543 0.365137 -2.26273 0
M  V30 2788 C 266.543 0.951227 -1.29647 0
M  V30 2789 O 267.733 0.825958 -1.53374 0
M  V30 2790 C 264.865 1.51645 -3.05314 0
M  V30 2791 H 266.058 -0.290474 -2.9849 0
M  V30 2792 H 263.611 -0.188676 -1.55157 0
M  V30 2793 H 264.346 2.20816 -2.3751 0
M  V30 2794 H 264.131 1.10238 -3.76284 0
M  V30 2795 H 265.621 2.08218 -3.61987 0
M  V30 2796 N 266.058 1.56714 -0.166846 0
M  V30 2797 C 267.304 1.97039 0.479962 0
M  V30 2798 C 267.637 1.05264 1.63197 0
M  V30 2799 O 266.912 0.0988833 1.94248 0
M  V30 2800 C 267.195 3.46867 0.967212 0
M  V30 2801 C 267.048 4.49421 -0.18466 0
M  V30 2802 C 268.367 3.9968 1.84238 0
M  V30 2803 H 265.486 0.71641 0.172992 0
M  V30 2804 H 268.128 1.8832 -0.252079 0
M  V30 2805 H 266.278 3.54428 1.59101 0
M  V30 2806 H 267.95 4.53924 -0.821621 0
M  V30 2807 H 266.193 4.25573 -0.840837 0
M  V30 2808 H 266.864 5.51644 0.198317 0
M  V30 2809 H 269.34 3.94723 1.31655 0
M  V30 2810 H 268.216 5.04941 2.15234 0
M  V30 2811 H 268.477 3.43226 2.78654 0
M  V30 2812 N 267.536 -0.106894 1.57237 0
M  V30 2813 C 268.466 -1.13148 2.04254 0
M  V30 2814 C 269.447 -1.42476 0.929224 0
M  V30 2815 O 270.632 -1.52709 1.19973 0
M  V30 2816 C 267.762 -2.4545 2.45706 0
M  V30 2817 C 266.716 -2.30558 3.60592 0
M  V30 2818 C 266.042 -3.67931 3.87983 0
M  V30 2819 C 267.342 -1.75597 4.91897 0
M  V30 2820 H 269.036 -0.740374 2.90101 0
M  V30 2821 H 266.582 -0.354696 1.39563 0
M  V30 2822 H 268.535 -3.17389 2.77205 0
M  V30 2823 H 267.259 -2.86475 1.56843 0
M  V30 2824 H 265.918 -1.61067 3.29322 0
M  V30 2825 H 265.566 -4.06462 2.96306 0
M  V30 2826 H 265.266 -3.58817 4.65322 0
M  V30 2827 H 266.79 -4.41356 4.21945 0
M  V30 2828 H 268.204 -2.37364 5.21854 0
M  V30 2829 H 266.601 -1.77272 5.73319 0
M  V30 2830 H 267.671 -0.714451 4.79608 0
M  V30 2831 N 269.014 -1.53014 -0.377408 0
M  V30 2832 C 269.944 -1.81589 -1.46791 0
M  V30 2833 C 270.925 -0.668622 -1.56408 0
M  V30 2834 O 272.11 -0.917337 -1.71168 0
M  V30 2835 C 269.24 -1.99519 -2.8427 0
M  V30 2836 C 268.194 -3.15249 -2.89486 0
M  V30 2837 C 267.52 -3.18451 -4.29527 0
M  V30 2838 C 268.82 -4.54084 -2.58079 0
M  V30 2839 H 270.514 -2.7291 -1.23127 0
M  V30 2840 H 268.06 -1.31319 -0.590883 0
M  V30 2841 H 270.013 -2.18092 -3.60575 0
M  V30 2842 H 268.737 -1.04897 -3.09296 0
M  V30 2843 H 267.396 -2.96477 -2.15631 0
M  V30 2844 H 267.044 -2.2149 -4.5161 0
M  V30 2845 H 266.744 -3.962 -4.33934 0
M  V30 2846 H 268.268 -3.39193 -5.07721 0
M  V30 2847 H 269.682 -4.72899 -3.24098 0
M  V30 2848 H 268.079 -5.33987 -2.7382 0
M  V30 2849 H 269.149 -4.60006 -1.53372 0
M  V30 2850 N 270.492 0.636531 -1.44174 0
M  V30 2851 C 271.908 0.954104 -1.27941 0
M  V30 2852 C 272.108 2.0039 -0.211248 0
M  V30 2853 O 271.164 2.49236 0.404695 0
M  V30 2854 C 272.477 1.4225 -2.64925 0
M  V30 2855 C 274.025 1.53827 -2.72592 0
M  V30 2856 C 274.5 2.04053 -4.10032 0
M  V30 2857 N 275.991 2.11331 -4.12182 0
M  V30 2858 C 276.726 2.51352 -5.15374 0
M  V30 2859 N 276.222 2.90549 -6.2893 0
M  V30 2860 N 278.015 2.51438 -5.02728 0
M  V30 2861 H 270.166 -0.0578386 -2.12321 0
M  V30 2862 H 272.429 0.0367406 -0.947288 0
M  V30 2863 H 272.135 0.725466 -3.44136 0
M  V30 2864 H 272.009 2.39451 -2.9145 0
M  V30 2865 H 274.396 2.22628 -1.93702 0
M  V30 2866 H 274.477 0.550154 -2.49814 0
M  V30 2867 H 274.121 1.35848 -4.89395 0
M  V30 2868 H 274.051 3.03726 -4.30184 0
M  V30 2869 H 276.542 1.83745 -3.30222 0
M  V30 2870 H 276.855 3.19884 -7.03487 0
M  V30 2871 H 275.2 2.88313 -6.32377 0
M  V30 2872 H 278.391 2.20203 -4.13072 0
M  V30 2873 H 278.564 2.82304 -5.83274 0
M  V30 2874 N 271.97 1.30982 0.876444 0
M  V30 2875 C 273.2 1.23063 1.65949 0
M  V30 2876 C 273.608 -0.207537 1.88058 0
M  V30 2877 O 272.951 -1.14781 1.43426 0
M  V30 2878 C 273.013 1.89768 3.05333 0
M  V30 2879 C 272.677 3.39106 3.0636 0
M  V30 2880 C 273.674 4.3496 2.84791 0
M  V30 2881 C 271.359 3.80693 3.27686 0
M  V30 2882 C 273.353 5.70375 2.84519 0
M  V30 2883 C 271.04 5.16223 3.27043 0
M  V30 2884 C 272.038 6.10875 3.05485 0
M  V30 2885 O 271.726 7.43928 3.04674 0
M  V30 2886 H 271.458 0.426685 0.524324 0
M  V30 2887 H 274.012 1.7329 1.10271 0
M  V30 2888 H 272.242 1.34082 3.6271 0
M  V30 2889 H 273.931 1.75853 3.65829 0
M  V30 2890 H 274.697 4.0416 2.68103 0
M  V30 2891 H 270.576 3.07457 3.43499 0
M  V30 2892 H 274.12 6.44228 2.67611 0
M  V30 2893 H 270.017 5.4666 3.43269 0
M  V30 2894 H 270.785 7.53022 3.2078 0
M  V30 2895 N 273.449 -1.08991 1.13837 0
M  V30 2896 C 274.696 -1.81258 0.902882 0
M  V30 2897 C 275.024 -1.85936 -0.570803 0
M  V30 2898 O 274.279 -1.3267 -1.43865 0
M  V30 2899 C 274.578 -3.27042 1.44147 0
M  V30 2900 C 274.244 -3.4249 2.93276 0
M  V30 2901 C 272.906 -3.46414 3.33992 0
M  V30 2902 C 275.258 -3.4666 3.892 0
M  V30 2903 C 272.586 -3.52091 4.69307 0
M  V30 2904 C 274.938 -3.53872 5.24364 0
M  V30 2905 C 273.602 -3.56066 5.646 0
M  V30 2906 H 272.872 -0.663268 0.330388 0
M  V30 2907 H 275.519 -1.28368 1.42105 0
M  V30 2908 H 273.824 -3.82599 0.844097 0
M  V30 2909 H 275.521 -3.81499 1.23528 0
M  V30 2910 H 272.111 -3.40124 2.60794 0
M  V30 2911 H 276.295 -3.42865 3.58828 0
M  V30 2912 H 271.551 -3.52079 4.9985 0
M  V30 2913 H 275.725 -3.56043 5.98503 0
M  V30 2914 H 273.352 -3.60218 6.69438 0
M  V30 2915 N 274.927 -0.932562 -1.27047 0
M  V30 2916 C 275.875 -0.42603 -2.28665 0
M  V30 2917 C 276.869 0.49219 -1.62092 0
M  V30 2918 O 278.075 0.371355 -1.76128 0
M  V30 2919 H 274.45 -0.119213 -0.742491 0
M  V30 2920 H 276.421 -1.29579 -2.68797 0
M  V30 2921 C 275.17 0.301426 -3.46391 0
M  V30 2922 H 274.493 -0.39595 -3.97834 0
M  V30 2923 H 275.933 0.6202 -4.1944 0
M  V30 2924 C 274.392 1.51616 -3.00856 0
M  V30 2925 O 274.922 2.61476 -3.04948 0
M  V30 2926 N 273.128 1.36969 -2.56296 0
M  V30 2927 H 272.675 0.475873 -2.53166 0
M  V30 2928 H 272.633 2.18368 -2.26192 0
M  V30 2929 N 276.405 1.4127 -0.698611 0
M  V30 2930 C 277.816 1.84187 -0.305289 0
M  V30 2931 C 278.167 1.58449 1.15708 0
M  V30 2932 O 277.292 1.05651 1.88856 0
M  V30 2933 C 277.887 3.3435 -0.547314 0
M  V30 2934 C 276.446 3.75826 -0.207878 0
M  V30 2935 C 275.593 2.64647 -0.828099 0
M  V30 2936 H 278.544 1.30778 -0.89904 0
M  V30 2937 H 278.565 3.8001 0.192998 0
M  V30 2938 H 278.077 3.53051 -1.61172 0
M  V30 2939 H 276.178 3.62725 0.852143 0
M  V30 2940 H 276.291 4.74462 -0.665021 0
M  V30 2941 H 274.655 2.53395 -0.257458 0
M  V30 2942 H 275.438 2.86165 -1.89643 0
M  V30 2943 N 277.883 0.443576 1.51229 0
M  V30 2944 C 279.111 -0.11929 2.06556 0
M  V30 2945 C 279.526 -1.35921 1.31038 0
M  V30 2946 O 278.883 -1.78675 0.371704 0
M  V30 2947 C 278.934 -0.435228 3.5887 0
M  V30 2948 O 278.655 0.755486 4.31537 0
M  V30 2949 C 280.156 -1.04808 4.30732 0
M  V30 2950 H 277.376 -0.0051584 0.67098 0
M  V30 2951 H 279.92 0.624453 1.94733 0
M  V30 2952 H 278.075 -1.12887 3.70588 0
M  V30 2953 H 278.489 0.483491 5.22267 0
M  V30 2954 H 279.963 -1.2191 5.3837 0
M  V30 2955 H 280.44 -2.03081 3.89429 0
M  V30 2956 H 281.046 -0.393637 4.23474 0
M  V30 2957 N 279.361 -1.56624 0.175154 0
M  V30 2958 C 280.609 -1.96609 -0.467885 0
M  V30 2959 C 280.93 -1.06238 -1.63519 0
M  V30 2960 O 280.2 -0.129523 -1.95471 0
M  V30 2961 H 278.78 -0.726008 -0.175845 0
M  V30 2962 H 281.442 -1.93195 0.257234 0
M  V30 2963 H 280.538 -3.00989 -0.825342 0
M  V30 2964 N 280.839 0.0985539 -1.57292 0
M  V30 2965 C 281.802 1.10402 -2.00858 0
M  V30 2966 C 282.802 1.33146 -0.901593 0
M  V30 2967 O 283.992 1.29318 -1.16716 0
M  V30 2968 C 281.124 2.45394 -2.36632 0
M  V30 2969 H 282.317 0.729099 -2.90902 0
M  V30 2970 H 279.87 0.343495 -1.52479 0
M  V30 2971 H 280.605 2.87769 -1.49531 0
M  V30 2972 H 280.39 2.30235 -3.17387 0
M  V30 2973 H 281.88 3.17718 -2.71007 0
M  V30 2974 N 282.317 1.53212 0.369288 0
M  V30 2975 C 283.267 1.75769 1.45222 0
M  V30 2976 C 284.251 0.612136 1.48801 0
M  V30 2977 O 285.443 0.870674 1.54105 0
M  V30 2978 C 282.572 1.94769 2.82701 0
M  V30 2979 C 281.658 3.15315 2.83615 0
M  V30 2980 N 282.049 4.37295 2.54178 0
M  V30 2981 C 280.347 3.15962 3.14776 0
M  V30 2982 C 281.048 5.19015 2.62675 0
M  V30 2983 N 280.024 4.55142 2.97232 0
M  V30 2984 H 283.826 2.67691 1.2132 0
M  V30 2985 H 281.34 1.51787 0.577438 0
M  V30 2986 H 283.337 2.09056 3.60696 0
M  V30 2987 H 281.997 1.04073 3.07569 0
M  V30 2988 H 283.008 4.65091 2.27839 0
M  V30 2989 H 279.685 2.35144 3.44983 0
M  V30 2990 H 281.075 6.26305 2.43294 0
M  V30 2991 N 283.795 -0.628877 1.44509 0
M  V30 2992 C 284.758 -1.72263 1.51188 0
M  V30 2993 C 285.758 -1.55907 0.39367 0
M  V30 2994 O 286.948 -1.61361 0.656377 0
M  V30 2995 C 284.08 -3.11365 1.38798 0
M  V30 2996 H 285.273 -1.67714 2.4862 0
M  V30 2997 H 282.826 -0.842737 1.31634 0
M  V30 2998 H 283.561 -3.21507 0.424693 0
M  V30 2999 H 283.346 -3.24644 2.19884 0
M  V30 3000 H 284.836 -3.91075 1.46458 0
M  V30 3001 N 285.273 -1.31445 -0.869486 0
M  V30 3002 C 286.498 -1.24256 -1.66058 0
M  V30 3003 C 286.923 0.188928 -1.87149 0
M  V30 3004 O 286.281 1.13522 -1.4136 0
M  V30 3005 C 286.329 -1.9924 -3.00559 0
M  V30 3006 O 285.433 -1.33007 -3.90362 0
M  V30 3007 H 284.774 -0.428973 -0.506831 0
M  V30 3008 H 287.304 -1.73521 -1.08404 0
M  V30 3009 H 287.314 -2.08854 -3.50491 0
M  V30 3010 H 285.989 -3.03342 -2.84528 0
M  V30 3011 H 284.566 -1.31848 -3.48813 0
M  V30 3012 N 286.751 1.08385 -1.14413 0
M  V30 3013 C 287.999 1.80419 -0.910679 0
M  V30 3014 C 288.32 1.86658 0.564243 0
M  V30 3015 O 287.59 1.35985 1.41014 0
M  V30 3016 H 286.17 0.668204 -0.333934 0
M  V30 3017 H 288.832 1.31037 -1.44275 0
M  V30 3018 H 287.928 2.83238 -1.31082 0
M  V30 3019 N 288.23 0.939286 1.26551 0
M  V30 3020 C 289.47 0.5933 1.956 0
M  V30 3021 C 289.834 -0.851515 1.72085 0
M  V30 3022 O 291.035 -1.30634 2.34921 0
M  V30 3023 C 289.306 0.923996 3.45249 0
M  V30 3024 S 290.865 0.688269 4.33369 0
M  V30 3025 H 287.683 0.218591 0.676564 0
M  V30 3026 H 290.285 1.2102 1.5354 0
M  V30 3027 H 288.989 1.97297 3.59864 0
M  V30 3028 H 288.52 0.296746 3.92279 0
M  V30 3029 H 290.535 -0.448434 4.9417 0
M  V30 3030 N 289.708 -1.40897 0.706093 0
M  V30 3031 C 290.957 -2.00284 0.238574 0
M  V30 3032 C 291.27 -1.56604 -1.17194 0
M  V30 3033 O 292.476 -2.08624 -1.73748 0
M  V30 3034 C 290.932 -3.57934 0.375623 0
M  V30 3035 C 290.54 -4.10591 1.79217 0
M  V30 3036 C 292.284 -4.24488 -0.0315857 0
M  V30 3037 C 290.191 -5.60712 1.88032 0
M  V30 3038 H 289.121 -0.749144 0.0854398 0
M  V30 3039 H 291.772 -1.61251 0.875813 0
M  V30 3040 H 290.154 -3.94622 -0.330042 0
M  V30 3041 H 291.328 -3.85301 2.52745 0
M  V30 3042 H 289.643 -3.56601 2.15 0
M  V30 3043 H 292.24 -5.34698 0.0136842 0
M  V30 3044 H 292.583 -4.02261 -1.072 0
M  V30 3045 H 293.116 -3.92873 0.624181 0
M  V30 3046 H 289.855 -5.87781 2.90161 0
M  V30 3047 H 289.375 -5.87896 1.18903 0
M  V30 3048 H 291.054 -6.25658 1.64805 0
M  V30 3049 N 291.186 -0.45159 -1.50991 0
M  V30 3050 C 292.434 0.109857 -2.01801 0
M  V30 3051 C 292.755 1.41958 -1.3369 0
M  V30 3052 O 292.025 1.9003 -0.475951 0
M  V30 3053 H 290.605 0.0435884 -0.745727 0
M  V30 3054 H 293.267 -0.597557 -1.85514 0
M  V30 3055 H 292.363 0.275489 -3.10882 0
M  V30 3056 N 292.664 1.56529 -0.183458 0
M  V30 3057 C 293.574 2.22144 0.754272 0
M  V30 3058 C 294.59 1.21684 1.24374 0
M  V30 3059 O 295.766 1.54385 1.29333 0
M  V30 3060 C 292.831 2.85884 1.96141 0
M  V30 3061 C 291.892 4.01579 1.51765 0
M  V30 3062 C 291.125 4.6227 2.66725 0
M  V30 3063 O 291.348 4.21865 3.83909 0
M  V30 3064 O 290.282 5.51936 2.40104 0
M  V30 3065 H 294.108 3.02861 0.225527 0
M  V30 3066 H 291.693 1.49331 0.0453032 0
M  V30 3067 H 293.575 3.26253 2.66715 0
M  V30 3068 H 292.25 2.08154 2.47899 0
M  V30 3069 H 291.157 3.65856 0.781049 0
M  V30 3070 H 292.49 4.80938 1.04686 0
M  V30 3071 N 294.142 -0.090211 1.57342 0
M  V30 3072 C 295.419 -0.824761 1.77361 0
M  V30 3073 C 295.799 -1.96698 0.76637 0
M  V30 3074 O 295.147 -2.27586 -0.204179 0
M  V30 3075 C 295.357 -1.31481 3.23286 0
M  V30 3076 C 296.705 -1.75563 3.86604 0
M  V30 3077 O 297.729 -1.41093 3.27065 0
M  V30 3078 O 296.588 -2.39317 4.91314 0
M  V30 3079 H 293.682 -0.393776 0.727234 0
M  V30 3080 H 296.228 -0.0717138 1.69548 0
M  V30 3081 H 295 -0.496671 3.88135 0
M  V30 3082 H 294.623 -2.12973 3.35751 0
M  V30 3083 N 295.62 -1.53406 -0.361157 0
M  V30 3084 C 297.031 -1.61442 -0.937728 0
M  V30 3085 C 297.382 -0.48461 -1.90121 0
M  V30 3086 O 296.507 0.388312 -2.12888 0
M  V30 3087 C 297.102 -2.92624 -1.70753 0
M  V30 3088 C 295.661 -3.02981 -2.23337 0
M  V30 3089 C 294.808 -2.5677 -1.04712 0
M  V30 3090 H 297.759 -1.58083 -0.139816 0
M  V30 3091 H 297.78 -2.80675 -2.56908 0
M  V30 3092 H 297.292 -3.74834 -1.00604 0
M  V30 3093 H 295.393 -2.25368 -2.96715 0
M  V30 3094 H 295.506 -4.0814 -2.50916 0
M  V30 3095 H 293.87 -2.11752 -1.41539 0
M  V30 3096 H 294.653 -3.41402 -0.360539 0
M  V30 3097 N 297.098 0.621204 -1.44841 0
M  V30 3098 C 298.03 1.74615 -1.48466 0
M  V30 3099 C 299.043 1.58377 -0.37691 0
M  V30 3100 O 300.232 1.66508 -0.643215 0
M  V30 3101 C 297.332 3.12459 -1.31236 0
M  V30 3102 C 296.505 3.55064 -2.55438 0
M  V30 3103 C 295.564 4.71821 -2.32963 0
M  V30 3104 O 294.59 4.79628 -3.06505 0
M  V30 3105 N 295.792 5.64186 -1.36654 0
M  V30 3106 H 298.557 1.71973 -2.45449 0
M  V30 3107 H 296.118 0.806077 -1.40407 0
M  V30 3108 H 298.11 3.88302 -1.14032 0
M  V30 3109 H 296.68 3.09686 -0.4258 0
M  V30 3110 H 295.9 2.69324 -2.87851 0
M  V30 3111 H 297.188 3.80284 -3.38026 0
M  V30 3112 H 296.586 5.6058 -0.759344 0
M  V30 3113 H 295.143 6.39618 -1.25425 0
M  V30 3114 N 298.576 1.31904 0.862503 0
M  V30 3115 C 299.824 1.21776 1.61292 0
M  V30 3116 C 300.145 -0.222413 1.93727 0
M  V30 3117 O 299.415 -1.1451 1.58947 0
M  V30 3118 H 297.995 0.447717 0.597962 0
M  V30 3119 H 300.657 1.65326 1.03215 0
M  V30 3120 H 299.753 1.7948 2.5533 0
M  V30 3121 N 300.054 -1.07777 1.14986 0
M  V30 3122 C 301.303 -1.79669 0.916617 0
M  V30 3123 C 301.616 -1.87474 -0.557917 0
M  V30 3124 O 302.822 -2.55845 -0.908617 0
M  V30 3125 C 301.278 -3.22848 1.59051 0
M  V30 3126 C 300.886 -3.23257 3.10176 0
M  V30 3127 C 302.63 -3.99379 1.43864 0
M  V30 3128 C 300.537 -4.61063 3.70372 0
M  V30 3129 H 299.467 -0.673349 0.33929 0
M  V30 3130 H 302.118 -1.21003 1.37951 0
M  V30 3131 H 300.5 -3.8168 1.0553 0
M  V30 3132 H 301.674 -2.74095 3.70417 0
M  V30 3133 H 299.989 -2.60222 3.25074 0
M  V30 3134 H 302.586 -5.0122 1.86232 0
M  V30 3135 H 302.929 -4.14511 0.385564 0
M  V30 3136 H 303.462 -3.47032 1.94457 0
M  V30 3137 H 300.201 -4.51135 4.7556 0
M  V30 3138 H 299.721 -5.1048 3.14913 0
M  V30 3139 H 301.4 -5.30034 3.71043 0
M  V30 3140 N 301.532 -0.945985 -1.26051 0
M  V30 3141 C 302.943 -0.638096 -1.75457 0
M  V30 3142 C 303.294 0.846672 -1.76991 0
M  V30 3143 O 302.419 1.66262 -1.38513 0
M  V30 3144 C 303.014 -1.15157 -3.18629 0
M  V30 3145 C 301.573 -0.894004 -3.65629 0
M  V30 3146 C 300.72 -1.29967 -2.44957 0
M  V30 3147 H 303.671 -1.12376 -1.1206 0
M  V30 3148 H 303.692 -0.507615 -3.77099 0
M  V30 3149 H 303.204 -2.23222 -3.1748 0
M  V30 3150 H 301.305 0.172057 -3.72203 0
M  V30 3151 H 301.418 -1.52439 -4.54202 0
M  V30 3152 H 299.782 -0.718078 -2.44368 0
M  V30 3153 H 300.565 -2.38935 -2.46505 0
M  V30 3154 N 303.011 1.40521 -0.713556 0
M  V30 3155 C 303.959 2.32549 -0.0485227 0
M  V30 3156 C 304.953 1.51931 0.74922 0
M  V30 3157 O 306.159 1.67745 0.652816 0
M  V30 3158 H 302.534 0.751994 0.00311138 0
M  V30 3159 H 304.505 2.86291 -0.841443 0
M  V30 3160 C 303.254 3.36879 0.860687 0
M  V30 3161 H 302.577 3.98978 0.256246 0
M  V30 3162 H 304.017 4.03772 1.294 0
M  V30 3163 C 302.476 2.72197 1.9852 0
M  V30 3164 O 303.006 2.5837 3.07584 0
M  V30 3165 N 301.212 2.30612 1.76823 0
M  V30 3166 H 300.759 2.42059 0.881217 0
M  V30 3167 H 300.717 1.87672 2.52243 0
M  V30 3168 N 304.489 0.459591 1.5075 0
M  V30 3169 C 305.437 -0.354678 2.2988 0
M  V30 3170 C 306.431 -1.00086 1.36672 0
M  V30 3171 O 307.637 -0.933277 1.53915 0
M  V30 3172 H 304.012 -0.13321 0.740107 0
M  V30 3173 H 305.983 0.333269 2.96533 0
M  V30 3174 C 304.732 -1.43073 3.169 0
M  V30 3175 H 304.055 -0.942882 3.88523 0
M  V30 3176 H 305.495 -1.97328 3.75284 0
M  V30 3177 C 303.954 -2.42633 2.33732 0
M  V30 3178 O 304.484 -3.47658 2.01238 0
M  V30 3179 N 302.69 -2.14066 1.9653 0
M  V30 3180 H 302.237 -1.28685 2.23155 0
M  V30 3181 H 302.195 -2.80917 1.41185 0
M  V30 3182 N 305.967 -1.56429 0.191757 0
M  V30 3183 C 306.897 -2.21937 -0.725696 0
M  V30 3184 C 307.878 -1.1814 -1.2238 0
M  V30 3185 O 309.063 -1.46636 -1.27325 0
M  V30 3186 C 306.193 -2.87611 -1.94672 0
M  V30 3187 C 305.147 -3.97623 -1.58366 0
M  V30 3188 C 304.473 -4.50446 -2.88102 0
M  V30 3189 C 305.773 -5.16197 -0.796133 0
M  V30 3190 H 307.467 -2.98861 -0.179606 0
M  V30 3191 H 305.013 -1.43749 -0.0849464 0
M  V30 3192 H 306.966 -3.3212 -2.59373 0
M  V30 3193 H 305.69 -2.08087 -2.51728 0
M  V30 3194 H 304.349 -3.53801 -0.960247 0
M  V30 3195 H 303.997 -3.67688 -3.43241 0
M  V30 3196 H 303.697 -5.24675 -2.64556 0
M  V30 3197 H 305.221 -4.97654 -3.53798 0
M  V30 3198 H 306.635 -5.57271 -1.34618 0
M  V30 3199 H 305.032 -5.96471 -0.658928 0
M  V30 3200 H 306.102 -4.84473 0.203478 0
M  V30 3201 N 307.445 0.0818655 -1.57387 0
M  V30 3202 C 308.378 1.12986 -1.98266 0
M  V30 3203 C 309.356 1.38123 -0.857954 0
M  V30 3204 O 310.54 1.51663 -1.1194 0
M  V30 3205 C 307.667 2.47632 -2.31076 0
M  V30 3206 C 306.713 2.38693 -3.53452 0
M  V30 3207 S 307.546 1.79071 -5.04672 0
M  V30 3208 C 308.702 3.15316 -5.40673 0
M  V30 3209 H 308.935 0.781435 -2.86846 0
M  V30 3210 H 306.468 0.290034 -1.51651 0
M  V30 3211 H 308.426 3.25089 -2.50654 0
M  V30 3212 H 307.087 2.79638 -1.43043 0
M  V30 3213 H 306.28 3.37964 -3.73893 0
M  V30 3214 H 305.882 1.69369 -3.33452 0
M  V30 3215 H 308.174 4.11613 -5.38127 0
M  V30 3216 H 309.117 2.99664 -6.41566 0
M  V30 3217 H 309.525 3.15457 -4.68132 0
M  V30 3218 N 308.923 1.53595 0.353017 0
M  V30 3219 C 310.334 1.61937 0.929153 0
M  V30 3220 C 310.685 0.494686 1.89861 0
M  V30 3221 O 309.81 -0.377017 2.1309 0
M  V30 3222 C 310.405 2.93526 1.69199 0
M  V30 3223 C 308.964 3.04161 2.21727 0
M  V30 3224 C 308.111 2.57322 1.03348 0
M  V30 3225 H 311.062 1.58155 0.131431 0
M  V30 3226 H 311.083 2.82034 2.55416 0
M  V30 3227 H 310.595 3.75362 0.986144 0
M  V30 3228 H 308.696 2.26938 2.95516 0
M  V30 3229 H 308.809 4.09465 2.48748 0
M  V30 3230 H 307.173 2.12499 1.40414 0
M  V30 3231 H 307.956 3.41588 0.342428 0
M  V30 3232 N 310.401 -0.613514 1.45168 0
M  V30 3233 C 311.631 -1.39743 1.52169 0
M  V30 3234 C 312.039 -1.88596 0.151086 0
M  V30 3235 O 311.382 -1.6251 -0.856521 0
M  V30 3236 C 311.444 -2.64035 2.43979 0
M  V30 3237 C 311.108 -2.36861 3.90827 0
M  V30 3238 C 312.105 -1.97591 4.80889 0
M  V30 3239 C 309.79 -2.49956 4.35692 0
M  V30 3240 C 311.784 -1.71768 6.1382 0
M  V30 3241 C 309.471 -2.23747 5.68665 0
M  V30 3242 C 310.469 -1.84714 6.57548 0
M  V30 3243 O 310.157 -1.58809 7.88058 0
M  V30 3244 H 309.889 -0.434382 0.517966 0
M  V30 3245 H 312.443 -0.75587 1.90986 0
M  V30 3246 H 310.673 -3.3089 2.00122 0
M  V30 3247 H 312.362 -3.26069 2.41731 0
M  V30 3248 H 313.128 -1.87015 4.47493 0
M  V30 3249 H 309.007 -2.79305 3.66756 0
M  V30 3250 H 312.551 -1.41227 6.83155 0
M  V30 3251 H 308.448 -2.33938 6.01617 0
M  V30 3252 H 309.216 -1.7291 8.00028 0
M  V30 3253 N 311.879 -1.3236 -0.855495 0
M  V30 3254 C 313.125 -1.23054 -1.612 0
M  V30 3255 C 313.458 0.207404 -1.93089 0
M  V30 3256 O 312.733 1.14432 -1.57275 0
M  V30 3257 C 313.016 -2.08937 -2.93287 0
M  V30 3258 C 312.869 -3.61105 -2.68185 0
M  V30 3259 C 314.188 -1.94986 -3.94549 0
M  V30 3260 H 311.307 -0.448364 -0.584926 0
M  V30 3261 H 313.949 -1.62297 -0.987917 0
M  V30 3262 H 312.099 -1.75599 -3.46551 0
M  V30 3263 H 313.771 -4.04652 -2.21483 0
M  V30 3264 H 312.014 -3.83813 -2.02164 0
M  V30 3265 H 312.685 -4.16522 -3.62234 0
M  V30 3266 H 315.161 -2.24189 -3.5054 0
M  V30 3267 H 314.037 -2.57356 -4.84829 0
M  V30 3268 H 314.298 -0.917263 -4.3248 0
M  V30 3269 N 313.357 1.07166 -1.15556 0
M  V30 3270 C 314.582 1.84053 -0.955988 0
M  V30 3271 C 315.007 1.81586 0.490739 0
M  V30 3272 O 314.365 1.21018 1.34997 0
M  V30 3273 C 314.413 3.28957 -1.47714 0
M  V30 3274 O 313.517 4.06795 -0.677593 0
M  V30 3275 H 312.858 0.569842 -0.340847 0
M  V30 3276 H 315.388 1.35178 -1.53584 0
M  V30 3277 H 315.398 3.79788 -1.4908 0
M  V30 3278 H 314.073 3.30068 -2.53037 0
M  V30 3279 H 312.65 3.6561 -0.733721 0
M  V30 3280 N 314.835 0.952656 1.25548 0
M  V30 3281 C 315.767 0.428609 2.25157 0
M  V30 3282 C 316.78 -0.454428 1.56329 0
M  V30 3283 O 317.969 -0.263023 1.76552 0
M  V30 3284 C 315.069 -0.401972 3.36508 0
M  V30 3285 C 314.242 0.467601 4.34893 0
M  V30 3286 C 313.301 -0.30445 5.25319 0
M  V30 3287 O 312.327 0.296473 5.68427 0
M  V30 3288 N 313.529 -1.59805 5.5807 0
M  V30 3289 H 316.294 1.28497 2.70756 0
M  V30 3290 H 313.855 0.822798 1.39433 0
M  V30 3291 H 315.847 -0.926134 3.9396 0
M  V30 3292 H 314.417 -1.15918 2.90313 0
M  V30 3293 H 313.637 1.17288 3.76347 0
M  V30 3294 H 314.925 1.06119 4.97611 0
M  V30 3295 H 314.323 -2.10823 5.24948 0
M  V30 3296 H 312.88 -2.06822 6.18116 0
M  V30 3297 N 316.313 -1.40141 0.720998 0
M  V30 3298 C 317.559 -2.01084 0.263231 0
M  V30 3299 C 317.892 -1.57052 -1.14229 0
M  V30 3300 O 317.167 -0.793027 -1.77599 0
M  V30 3301 C 317.45 -3.58401 0.349344 0
M  V30 3302 C 317.303 -4.12491 1.79363 0
M  V30 3303 C 318.622 -4.39231 -0.276351 0
M  V30 3304 H 315.741 -0.730572 0.0971228 0
M  V30 3305 H 318.383 -1.66543 0.914518 0
M  V30 3306 H 316.533 -3.87958 -0.205165 0
M  V30 3307 H 318.205 -3.93711 2.40394 0
M  V30 3308 H 316.448 -3.66576 2.31958 0
M  V30 3309 H 317.119 -5.21646 1.80524 0
M  V30 3310 H 319.595 -4.15637 0.196184 0
M  V30 3311 H 318.471 -5.48586 -0.185681 0
M  V30 3312 H 318.732 -4.20643 -1.36059 0
M  V30 3313 N 317.792 -0.46758 -1.50504 0
M  V30 3314 C 318.755 0.317059 -2.26996 0
M  V30 3315 C 319.755 0.923513 -1.31635 0
M  V30 3316 O 320.945 0.793239 -1.55091 0
M  V30 3317 C 318.077 1.45134 -3.08462 0
M  V30 3318 H 319.27 -0.353723 -2.97807 0
M  V30 3319 H 316.823 -0.221545 -1.54722 0
M  V30 3320 H 317.558 2.15728 -2.4214 0
M  V30 3321 H 317.343 1.02232 -3.78538 0
M  V30 3322 H 318.833 2.00493 -3.66323 0
M  V30 3323 N 319.27 1.56325 -0.20005 0
M  V30 3324 C 320.519 1.96895 0.437652 0
M  V30 3325 C 320.832 1.08999 1.62415 0
M  V30 3326 O 322.038 1.39372 2.32997 0
M  V30 3327 C 320.494 3.50198 0.830025 0
M  V30 3328 C 320.102 4.46765 -0.332461 0
M  V30 3329 C 321.846 3.99526 1.43453 0
M  V30 3330 C 319.753 5.91344 0.0811468 0
M  V30 3331 H 318.683 0.735209 0.167282 0
M  V30 3332 H 321.334 1.81148 -0.292853 0
M  V30 3333 H 319.716 3.61467 1.61734 0
M  V30 3334 H 320.89 4.47231 -1.11 0
M  V30 3335 H 319.205 4.07657 -0.848789 0
M  V30 3336 H 321.802 5.05025 1.75652 0
M  V30 3337 H 322.145 3.44122 2.34277 0
M  V30 3338 H 322.678 3.91393 0.71109 0
M  V30 3339 H 319.417 6.50685 -0.793033 0
M  V30 3340 H 318.937 5.94121 0.823445 0
M  V30 3341 H 320.616 6.44945 0.515252 0
M  V30 3342 N 320.748 -0.0735177 1.57428 0
M  V30 3343 C 321.996 -0.771472 1.86796 0
M  V30 3344 C 322.317 -1.78201 0.791804 0
M  V30 3345 O 321.587 -1.95074 -0.179718 0
M  V30 3346 H 320.167 -0.28791 0.689287 0
M  V30 3347 H 322.829 -0.0500161 1.94836 0
M  V30 3348 H 321.925 -1.28874 2.8425 0
M  V30 3349 N 322.226 -1.5378 -0.344866 0
M  V30 3350 C 323.642 -1.44015 -0.687888 0
M  V30 3351 C 323.842 -0.595834 -1.92489 0
M  V30 3352 O 322.898 -0.0863064 -2.52352 0
M  V30 3353 C 324.211 -2.87481 -0.881758 0
M  V30 3354 C 325.759 -2.97247 -0.980459 0
M  V30 3355 C 326.234 -4.41819 -1.20665 0
M  V30 3356 N 327.725 -4.45339 -1.27389 0
M  V30 3357 C 328.46 -5.54333 -1.46639 0
M  V30 3358 N 327.956 -6.73335 -1.63071 0
M  V30 3359 N 329.749 -5.41944 -1.49176 0
M  V30 3360 H 321.9 -2.07169 0.468475 0
M  V30 3361 H 324.163 -0.93643 0.147655 0
M  V30 3362 H 323.869 -3.51672 -0.0443444 0
M  V30 3363 H 323.743 -3.32352 -1.78388 0
M  V30 3364 H 326.13 -2.33197 -1.8084 0
M  V30 3365 H 326.211 -2.5574 -0.0552713 0
M  V30 3366 H 325.855 -5.06449 -0.383652 0
M  V30 3367 H 325.785 -4.80917 -2.14539 0
M  V30 3368 H 328.276 -3.59585 -1.1622 0
M  V30 3369 H 328.589 -7.52165 -1.77391 0
M  V30 3370 H 326.934 -6.76282 -1.60209 0
M  V30 3371 H 330.125 -4.47932 -1.3592 0
M  V30 3372 H 330.298 -6.26946 -1.63837 0
M  V30 3373 N 323.704 0.605807 -1.45491 0
M  V30 3374 C 325.12 0.926751 -1.29936 0
M  V30 3375 C 325.32 1.99896 -0.253706 0
M  V30 3376 O 324.376 2.50038 0.351737 0
M  V30 3377 C 325.689 1.36599 -2.67883 0
M  V30 3378 C 327.237 1.4801 -2.75793 0
M  V30 3379 C 327.712 1.95309 -4.14268 0
M  V30 3380 N 329.203 2.0254 -4.16571 0
M  V30 3381 C 329.938 2.40363 -5.20589 0
M  V30 3382 N 329.434 2.77143 -6.34952 0
M  V30 3383 N 331.227 2.40718 -5.07948 0
M  V30 3384 H 323.378 -0.102862 -2.12151 0
M  V30 3385 H 325.641 0.016639 -0.947854 0
M  V30 3386 H 325.347 0.652306 -3.45598 0
M  V30 3387 H 325.221 2.33215 -2.96463 0
M  V30 3388 H 327.608 2.1847 -1.98381 0
M  V30 3389 H 327.689 0.497041 -2.50925 0
M  V30 3390 H 327.333 1.25436 -4.92167 0
M  V30 3391 H 327.263 2.94532 -4.3653 0
M  V30 3392 H 329.754 1.76699 -3.34045 0
M  V30 3393 H 330.067 3.0489 -7.10114 0
M  V30 3394 H 328.412 2.74834 -6.3835 0
M  V30 3395 H 331.603 2.11392 -4.1765 0
M  V30 3396 H 331.776 2.69869 -5.89131 0
M  V30 3397 N 325.182 1.32811 0.848464 0
M  V30 3398 C 326.092 1.24278 1.98978 0
M  V30 3399 C 327.108 0.155176 1.73307 0
M  V30 3400 O 328.284 0.376999 1.9784 0
M  V30 3401 C 325.349 0.972444 3.32783 0
M  V30 3402 C 324.41 2.14911 3.71634 0
M  V30 3403 C 323.643 1.89157 4.99054 0
M  V30 3404 O 323.866 0.837165 5.64223 0
M  V30 3405 O 322.8 2.75433 5.35183 0
M  V30 3406 H 326.626 2.20238 2.09115 0
M  V30 3407 H 324.211 1.12762 0.980052 0
M  V30 3408 H 326.093 0.838432 4.12975 0
M  V30 3409 H 324.768 0.043051 3.23671 0
M  V30 3410 H 323.675 2.33862 2.91992 0
M  V30 3411 H 325.008 3.06151 3.85399 0
M  V30 3412 N 326.66 -1.06551 1.16123 0
M  V30 3413 C 327.623 -2.12132 0.867906 0
M  V30 3414 C 328.623 -1.60224 -0.135944 0
M  V30 3415 O 329.813 -1.73943 0.0946422 0
M  V30 3416 C 326.945 -3.396 0.297419 0
M  V30 3417 H 328.138 -2.39586 1.80385 0
M  V30 3418 H 325.691 -1.22574 0.969812 0
M  V30 3419 H 326.426 -3.17794 -0.64633 0
M  V30 3420 H 326.211 -3.78581 1.02073 0
M  V30 3421 H 327.701 -4.17455 0.110052 0
M  V30 3422 N 328.138 -0.959301 -1.25041 0
M  V30 3423 C 329.068 -0.501388 -2.28053 0
M  V30 3424 C 330.049 0.454673 -1.63911 0
M  V30 3425 O 331.234 0.352618 -1.90972 0
M  V30 3426 C 328.364 0.217224 -3.4662 0
M  V30 3427 C 327.318 -0.654034 -4.22973 0
M  V30 3428 C 326.644 0.195589 -5.34342 0
M  V30 3429 C 327.944 -1.93447 -4.85155 0
M  V30 3430 H 329.638 -1.36238 -2.66608 0
M  V30 3431 H 327.184 -0.656534 -1.28163 0
M  V30 3432 H 329.137 0.548732 -4.17812 0
M  V30 3433 H 327.861 1.1125 -3.07068 0
M  V30 3434 H 326.52 -0.968693 -3.5357 0
M  V30 3435 H 326.168 1.09076 -4.91031 0
M  V30 3436 H 325.868 -0.384091 -5.86343 0
M  V30 3437 H 327.392 0.521958 -6.08365 0
M  V30 3438 H 328.806 -1.66908 -5.48466 0
M  V30 3439 H 327.203 -2.46018 -5.47353 0
M  V30 3440 H 328.273 -2.63466 -4.07079 0
M  V30 3441 N 329.616 1.39756 -0.72842 0
M  V30 3442 C 330.564 2.32485 -0.0731849 0
M  V30 3443 C 331.558 1.52717 0.733063 0
M  V30 3444 O 332.764 1.68428 0.634988 0
M  V30 3445 H 329.139 0.751984 -0.00486469 0
M  V30 3446 H 331.11 2.85382 -0.871761 0
M  V30 3447 C 329.859 3.37773 0.824908 0
M  V30 3448 H 329.182 3.99227 0.213915 0
M  V30 3449 H 330.622 4.05121 1.25111 0
M  V30 3450 C 329.081 2.74287 1.95622 0
M  V30 3451 O 329.611 2.61618 3.04826 0
M  V30 3452 N 327.817 2.32475 1.74367 0
M  V30 3453 H 327.364 2.4298 0.855494 0
M  V30 3454 H 327.322 1.90337 2.50238 0
M  V30 3455 N 331.094 0.475555 1.50254 0
M  V30 3456 C 332.34 -0.0780073 2.0265 0
M  V30 3457 C 332.673 -1.38968 1.35652 0
M  V30 3458 O 331.948 -1.8839 0.483691 0
M  V30 3459 C 332.231 -0.257161 3.59181 0
M  V30 3460 C 332.084 1.07585 4.36744 0
M  V30 3461 C 333.403 -1.00965 4.28362 0
M  V30 3462 H 330.522 -0.0268758 0.73651 0
M  V30 3463 H 333.164 0.622015 1.7953 0
M  V30 3464 H 331.314 -0.853412 3.79011 0
M  V30 3465 H 332.986 1.70902 4.28474 0
M  V30 3466 H 331.229 1.6714 4.00308 0
M  V30 3467 H 331.9 0.904088 5.44546 0
M  V30 3468 H 334.376 -0.504214 4.13034 0
M  V30 3469 H 333.252 -1.10381 5.37687 0
M  V30 3470 H 333.513 -2.04731 3.91839 0
M  V30 3471 N 332.573 -1.56217 0.208337 0
M  V30 3472 C 333.82 -1.97949 -0.42692 0
M  V30 3473 C 334.148 -1.09562 -1.60706 0
M  V30 3474 O 333.403 -0.137616 -1.95216 0
M  V30 3475 C 333.702 -3.45441 -0.916797 0
M  V30 3476 C 333.368 -4.50646 0.151391 0
M  V30 3477 C 332.03 -4.79139 0.444867 0
M  V30 3478 C 334.382 -5.13811 0.874492 0
M  V30 3479 C 331.71 -5.68084 1.46619 0
M  V30 3480 C 334.062 -6.03861 1.88506 0
M  V30 3481 C 332.726 -6.30704 2.18559 0
M  V30 3482 H 331.996 -0.724345 -0.156221 0
M  V30 3483 H 334.643 -1.89006 0.308084 0
M  V30 3484 H 332.948 -3.51521 -1.73032 0
M  V30 3485 H 334.645 -3.75094 -1.41794 0
M  V30 3486 H 331.235 -4.28511 -0.0875068 0
M  V30 3487 H 335.419 -4.91879 0.660996 0
M  V30 3488 H 330.675 -5.87151 1.7048 0
M  V30 3489 H 334.849 -6.51861 2.45051 0
M  V30 3490 H 332.476 -6.99424 2.97843 0
M  V30 3491 N 334.051 0.0651679 -1.57465 0
M  V30 3492 C 335.299 0.761555 -1.87202 0
M  V30 3493 C 335.62 1.77778 -0.801243 0
M  V30 3494 O 334.89 1.95166 0.16937 0
M  V30 3495 H 333.47 0.284251 -0.690804 0
M  V30 3496 H 336.132 0.0396827 -1.9486 0
M  V30 3497 H 335.228 1.27365 -2.84929 0
M  V30 3498 N 335.529 1.53961 0.336706 0
M  V30 3499 C 336.477 1.83136 1.43401 0
M  V30 3500 C 337.471 0.702313 1.54156 0
M  V30 3501 O 338.677 0.885765 1.56698 0
M  V30 3502 H 335.052 0.580309 0.478273 0
M  V30 3503 H 337.023 2.74925 1.16012 0
M  V30 3504 C 335.772 2.06385 2.79822 0
M  V30 3505 H 335.095 2.92718 2.72316 0
M  V30 3506 H 336.535 2.30761 3.55704 0
M  V30 3507 C 334.994 0.851414 3.25964 0
M  V30 3508 O 335.524 0.0541904 4.01663 0
M  V30 3509 N 333.73 0.66672 2.82848 0
M  V30 3510 H 333.277 1.31665 2.21409 0
M  V30 3511 H 333.235 -0.143032 3.14074 0
M  V30 3512 N 337.007 -0.598083 1.45811 0
M  V30 3513 C 338.284 -1.35777 1.40797 0
M  V30 3514 C 338.664 -2.10935 0.083462 0
M  V30 3515 O 338.012 -2.08505 -0.934763 0
M  V30 3516 C 338.222 -2.29666 2.62783 0
M  V30 3517 C 339.57 -2.91977 3.08277 0
M  V30 3518 O 340.594 -2.39984 2.63223 0
M  V30 3519 O 339.453 -3.86376 3.86491 0
M  V30 3520 H 336.547 -0.609291 0.55919 0
M  V30 3521 H 339.093 -0.620379 1.57954 0
M  V30 3522 H 337.865 -1.73454 3.50756 0
M  V30 3523 H 337.488 -3.1077 2.48008 0
M  V30 3524 N 338.485 -1.33259 -0.841409 0
M  V30 3525 C 339.715 -1.2742 -1.62628 0
M  V30 3526 C 340.123 0.157604 -1.88542 0
M  V30 3527 O 339.466 1.10938 -1.46419 0
M  V30 3528 C 339.528 -1.97797 -3.00194 0
M  V30 3529 C 339.192 -3.47109 -2.97261 0
M  V30 3530 C 340.189 -4.42358 -2.73159 0
M  V30 3531 C 337.874 -3.89247 -3.17478 0
M  V30 3532 C 339.868 -5.77718 -2.69296 0
M  V30 3533 C 337.555 -5.24713 -3.13241 0
M  V30 3534 C 338.553 -6.1876 -2.89181 0
M  V30 3535 O 338.241 -7.51745 -2.84843 0
M  V30 3536 H 337.973 -0.440436 -0.512827 0
M  V30 3537 H 340.527 -1.76153 -1.05638 0
M  V30 3538 H 338.757 -1.43652 -3.59028 0
M  V30 3539 H 340.446 -1.8549 -3.61038 0
M  V30 3540 H 341.212 -4.11127 -2.57294 0
M  V30 3541 H 337.091 -3.16456 -3.35226 0
M  V30 3542 H 340.635 -6.51097 -2.50436 0
M  V30 3543 H 336.532 -5.55569 -3.28654 0
M  V30 3544 H 337.3 -7.61262 -3.00702 0
M  V30 3545 N 339.963 1.05934 -1.16686 0
M  V30 3546 C 341.24 1.75643 -0.860747 0
M  V30 3547 C 341.62 2.01144 0.640641 0
M  V30 3548 O 340.968 1.64147 1.58959 0
M  V30 3549 C 341.178 3.05493 -1.68745 0
M  V30 3550 C 342.526 3.79581 -1.90271 0
M  V30 3551 O 343.55 3.15344 -1.65641 0
M  V30 3552 O 342.409 4.9499 -2.31618 0
M  V30 3553 H 339.503 0.763426 -0.317977 0
M  V30 3554 H 342.049 1.1217 -1.27342 0
M  V30 3555 H 340.821 2.8264 -2.70611 0
M  V30 3556 H 340.444 3.76702 -1.27206 0
M  V30 3557 N 341.441 0.965919 1.2453 0
M  V30 3558 C 342.669 0.644385 1.96609 0
M  V30 3559 C 343.084 -0.785823 1.71669 0
M  V30 3560 O 342.441 -1.52703 0.999399 0
M  V30 3561 C 342.492 0.907375 3.49927 0
M  V30 3562 O 342.213 2.28136 3.74013 0
M  V30 3563 C 343.714 0.599784 4.39224 0
M  V30 3564 H 340.934 0.240588 0.626385 0
M  V30 3565 H 343.478 1.29337 1.58405 0
M  V30 3566 H 341.633 0.304631 3.862 0
M  V30 3567 H 342.047 2.36002 4.68405 0
M  V30 3568 H 343.521 0.834263 5.45659 0
M  V30 3569 H 343.998 -0.465921 4.36722 0
M  V30 3570 H 344.604 1.18235 4.08535 0
M  V30 3571 N 342.919 -1.39368 0.735821 0
M  V30 3572 C 343.829 -2.34395 0.0979693 0
M  V30 3573 C 344.845 -1.58361 -0.720968 0
M  V30 3574 O 346.021 -1.90648 -0.649245 0
M  V30 3575 C 343.086 -3.37393 -0.797916 0
M  V30 3576 C 342.147 -4.29287 0.0333662 0
M  V30 3577 C 341.38 -5.27365 -0.819854 0
M  V30 3578 O 341.603 -5.31959 -2.05855 0
M  V30 3579 O 340.537 -6.01389 -0.248079 0
M  V30 3580 H 344.363 -2.90601 0.882315 0
M  V30 3581 H 341.948 -1.40909 0.4965 0
M  V30 3582 H 343.83 -4.00505 -1.31048 0
M  V30 3583 H 342.505 -2.83571 -1.56106 0
M  V30 3584 H 341.412 -3.69395 0.591475 0
M  V30 3585 H 342.745 -4.86317 0.758752 0
M  V30 3586 N 344.397 -0.483516 -1.5 0
M  V30 3587 C 345.674 0.129337 -1.95172 0
M  V30 3588 C 346.054 1.55802 -1.4244 0
M  V30 3589 O 345.402 2.19625 -0.630649 0
M  V30 3590 C 345.612 0.0599251 -3.48949 0
M  V30 3591 C 346.96 0.242617 -4.23906 0
M  V30 3592 O 347.984 0.135933 -3.55941 0
M  V30 3593 O 346.843 0.459454 -5.44565 0
M  V30 3594 H 343.937 0.104887 -0.820322 0
M  V30 3595 H 346.483 -0.544807 -1.60717 0
M  V30 3596 H 345.255 -0.937079 -3.79914 0
M  V30 3597 H 344.878 0.774984 -3.89974 0
M  V30 3598 N 345.875 1.56104 -0.216619 0
M  V30 3599 C 347.123 1.97781 0.415593 0
M  V30 3600 C 347.444 1.10536 1.60645 0
M  V30 3601 O 346.714 0.181303 1.95059 0
M  V30 3602 H 345.294 0.730415 0.156534 0
M  V30 3603 H 347.956 1.92445 -0.308366 0
M  V30 3604 H 347.052 3.03072 0.74525 0
M  V30 3605 N 347.353 -0.0568162 1.57498 0
M  V30 3606 C 348.581 -0.765626 1.92213 0
M  V30 3607 C 348.996 -1.70353 0.813961 0
M  V30 3608 O 348.353 -1.81268 -0.211701 0
M  V30 3609 C 348.404 -1.5465 3.2675 0
M  V30 3610 O 348.125 -0.646278 4.33307 0
M  V30 3611 C 349.626 -2.35497 3.75574 0
M  V30 3612 H 346.846 -0.216835 0.634999 0
M  V30 3613 H 349.39 -0.0226146 2.04487 0
M  V30 3614 H 347.545 -2.24165 3.15957 0
M  V30 3615 H 347.959 -1.19093 5.108 0
M  V30 3616 H 349.433 -2.85722 4.72299 0
M  V30 3617 H 349.91 -3.15692 3.05344 0
M  V30 3618 H 350.516 -1.7111 3.8936 0
M  V30 3619 N 348.832 -1.54138 -0.328536 0
M  V30 3620 C 350.08 -1.71765 -1.06496 0
M  V30 3621 C 350.401 -0.49149 -1.88704 0
M  V30 3622 O 349.671 0.494539 -1.89555 0
M  V30 3623 H 348.251 -0.633295 -0.396164 0
M  V30 3624 H 350.913 -1.91429 -0.366176 0
M  V30 3625 H 350.009 -2.5951 -1.73381 0
M  V30 3626 N 350.31 0.590341 -1.46126 0
M  V30 3627 C 351.556 1.35082 -1.51264 0
M  V30 3628 C 351.889 1.93534 -0.160711 0
M  V30 3629 O 351.164 1.76045 0.826956 0
M  V30 3630 C 351.447 2.48588 -2.6053 0
M  V30 3631 C 351.3 1.95221 -4.05227 0
M  V30 3632 C 352.619 3.50662 -2.6594 0
M  V30 3633 H 349.738 0.489803 -0.550692 0
M  V30 3634 H 352.38 0.663887 -1.78024 0
M  V30 3635 H 350.53 3.07186 -2.37843 0
M  V30 3636 H 352.202 1.41139 -4.39178 0
M  V30 3637 H 350.445 1.26101 -4.15068 0
M  V30 3638 H 351.116 2.77121 -4.77397 0
M  V30 3639 H 353.592 3.01934 -2.86313 0
M  V30 3640 H 352.468 4.27551 -3.44226 0
M  V30 3641 H 352.729 4.07399 -1.71694 0
M  V30 3642 N 351.788 1.33704 0.83433 0
M  V30 3643 C 353.204 1.13137 1.12571 0
M  V30 3644 C 353.404 -0.0747261 2.01361 0
M  V30 3645 O 352.46 -0.753647 2.4099 0
M  V30 3646 C 353.773 2.42105 1.78342 0
M  V30 3647 C 355.321 2.48054 1.90888 0
M  V30 3648 C 355.796 3.76995 2.60075 0
M  V30 3649 N 357.287 3.78092 2.67584 0
M  V30 3650 C 358.022 4.74574 3.21818 0
M  V30 3651 N 357.518 5.81434 3.76705 0
M  V30 3652 N 359.311 4.62044 3.20112 0
M  V30 3653 H 351.462 2.11 0.243489 0
M  V30 3654 H 353.725 0.932532 0.17055 0
M  V30 3655 H 353.431 3.30391 1.20561 0
M  V30 3656 H 353.305 2.54594 2.7832 0
M  V30 3657 H 355.692 1.60215 2.47821 0
M  V30 3658 H 355.773 2.39502 0.898459 0
M  V30 3659 H 355.417 4.65219 2.03799 0
M  V30 3660 H 355.347 3.82825 3.61597 0
M  V30 3661 H 357.838 3.00865 2.28667 0
M  V30 3662 H 358.151 6.51084 4.16305 0
M  V30 3663 H 356.496 5.85163 3.7498 0
M  V30 3664 H 359.687 3.77716 2.76493 0
M  V30 3665 H 359.86 5.37406 3.62076 0
M  V30 3666 N 353.266 -1.05314 1.17247 0
M  V30 3667 C 354.543 -1.75184 0.87005 0
M  V30 3668 C 354.923 -2.01481 -0.629965 0
M  V30 3669 O 354.271 -1.64988 -1.58086 0
M  V30 3670 C 354.481 -3.04594 1.70363 0
M  V30 3671 C 355.829 -3.78567 1.92281 0
M  V30 3672 O 356.853 -3.14461 1.67311 0
M  V30 3673 O 355.712 -4.93755 2.3424 0
M  V30 3674 H 352.806 -0.761729 0.322021 0
M  V30 3675 H 355.352 -1.11493 1.27935 0
M  V30 3676 H 354.124 -2.81201 2.72106 0
M  V30 3677 H 353.747 -3.76022 1.29202 0
M  V30 3678 N 354.744 -0.972509 -1.24016 0
M  V30 3679 C 355.974 -0.653853 -1.9598 0
M  V30 3680 C 356.382 0.781801 -1.72292 0
M  V30 3681 O 355.725 1.53677 -1.00644 0
M  V30 3682 C 355.787 -0.854608 -3.49194 0
M  V30 3683 C 355.451 -2.27082 -3.96589 0
M  V30 3684 C 356.448 -3.24892 -4.05883 0
M  V30 3685 C 354.133 -2.5998 -4.29786 0
M  V30 3686 C 356.127 -4.53684 -4.47716 0
M  V30 3687 C 353.814 -3.88997 -4.71301 0
M  V30 3688 C 354.812 -4.85661 -4.80232 0
M  V30 3689 O 354.5 -6.12376 -5.20818 0
M  V30 3690 H 354.232 -0.242572 -0.630979 0
M  V30 3691 H 356.786 -1.30431 -1.58673 0
M  V30 3692 H 355.016 -0.146985 -3.86421 0
M  V30 3693 H 356.705 -0.534311 -4.02368 0
M  V30 3694 H 357.471 -3.00805 -3.80449 0
M  V30 3695 H 353.35 -1.85457 -4.22051 0
M  V30 3696 H 356.894 -5.29135 -4.54601 0
M  V30 3697 H 352.791 -4.12882 -4.96184 0
M  V30 3698 H 353.559 -6.16013 -5.38953 0
M  V30 3699 N 356.222 1.38976 -0.743202 0
M  V30 3700 C 357.471 1.99581 -0.291592 0
M  V30 3701 C 357.784 1.59656 1.13001 0
M  V30 3702 O 358.99 2.13157 1.68156 0
M  V30 3703 C 357.446 3.56813 -0.470391 0
M  V30 3704 C 357.054 4.05695 -1.90041 0
M  V30 3705 C 358.798 4.24423 -0.0809709 0
M  V30 3706 C 356.705 5.5553 -2.02832 0
M  V30 3707 H 355.635 0.746615 -0.105272 0
M  V30 3708 H 358.286 1.58872 -0.918258 0
M  V30 3709 H 356.668 3.95359 0.225299 0
M  V30 3710 H 357.842 3.78464 -2.62872 0
M  V30 3711 H 356.157 3.50775 -2.24379 0
M  V30 3712 H 358.754 5.34474 -0.155445 0
M  V30 3713 H 359.097 4.04962 0.96497 0
M  V30 3714 H 359.63 3.9108 -0.728124 0
M  V30 3715 H 356.369 5.79881 -3.05643 0
M  V30 3716 H 355.889 5.84537 -1.34448 0
M  V30 3717 H 357.568 6.21069 -1.81335 0
M  V30 3718 N 357.7 0.491464 1.49741 0
M  V30 3719 C 358.65 -0.311086 2.25868 0
M  V30 3720 C 359.634 -0.943857 1.30308 0
M  V30 3721 O 360.826 -0.853035 1.55088 0
M  V30 3722 C 357.955 -1.38059 3.14316 0
M  V30 3723 C 357.041 -0.754541 4.17334 0
M  V30 3724 N 357.432 0.137216 5.05614 0
M  V30 3725 C 355.73 -1.01621 4.34269 0
M  V30 3726 C 356.431 0.494614 5.79593 0
M  V30 3727 N 355.407 -0.135169 5.43432 0
M  V30 3728 H 359.209 0.37555 2.91491 0
M  V30 3729 H 356.723 0.306917 1.59473 0
M  V30 3730 H 358.72 -1.96891 3.67477 0
M  V30 3731 H 357.38 -2.06901 2.50244 0
M  V30 3732 H 358.391 0.50741 5.15408 0
M  V30 3733 H 355.068 -1.69808 3.81407 0
M  V30 3734 H 356.458 1.2236 6.60665 0
M  V30 3735 N 359.178 -1.55987 0.224894 0
M  V30 3736 C 360.424 -1.98684 -0.406502 0
M  V30 3737 C 360.757 -1.11248 -1.59177 0
M  V30 3738 O 360.032 -0.170909 -1.93748 0
M  V30 3739 C 360.315 -3.50218 -0.837808 0
M  V30 3740 C 360.168 -4.48426 0.351332 0
M  V30 3741 C 361.487 -4.06243 -1.69278 0
M  V30 3742 H 358.606 -0.722337 -0.146283 0
M  V30 3743 H 361.248 -1.87255 0.321799 0
M  V30 3744 H 359.398 -3.60089 -1.45837 0
M  V30 3745 H 361.07 -4.50562 0.989526 0
M  V30 3746 H 359.313 -4.22159 0.998207 0
M  V30 3747 H 359.984 -5.52 0.00655905 0
M  V30 3748 H 362.46 -3.99337 -1.16914 0
M  V30 3749 H 361.336 -5.12581 -1.96346 0
M  V30 3750 H 361.597 -3.53332 -2.65723 0
M  V30 3751 N 360.656 0.0484629 -1.57525 0
M  V30 3752 C 361.902 0.744226 -1.88651 0
M  V30 3753 C 362.235 1.76029 -0.820212 0
M  V30 3754 O 361.51 1.93782 0.166985 0
M  V30 3755 C 361.793 1.43128 -3.30434 0
M  V30 3756 C 361.646 0.43005 -4.47739 0
M  V30 3757 C 362.965 2.37031 -3.70816 0
M  V30 3758 H 360.084 0.269089 -0.68612 0
M  V30 3759 H 362.726 0.00713532 -1.89999 0
M  V30 3760 H 360.876 2.05956 -3.29415 0
M  V30 3761 H 362.548 -0.194816 -4.60888 0
M  V30 3762 H 360.791 -0.252522 -4.33064 0
M  V30 3763 H 361.462 0.948874 -5.43783 0
M  V30 3764 H 363.938 1.84263 -3.73077 0
M  V30 3765 H 362.814 2.82094 -4.70865 0
M  V30 3766 H 363.075 3.22864 -3.02012 0
M  V30 3767 N 362.134 1.5431 0.320358 0
M  V30 3768 C 363.411 1.63322 1.07635 0
M  V30 3769 C 363.791 0.46912 2.05821 0
M  V30 3770 O 363.139 -0.536274 2.22118 0
M  V30 3771 C 363.349 3.00465 1.77544 0
M  V30 3772 C 364.697 3.56621 2.30449 0
M  V30 3773 O 365.721 3.02791 1.87606 0
M  V30 3774 O 364.58 4.5083 3.08892 0
M  V30 3775 H 361.674 0.661502 0.496331 0
M  V30 3776 H 364.22 1.66656 0.319992 0
M  V30 3777 H 362.992 3.76629 1.06143 0
M  V30 3778 H 362.615 3.00824 2.59982 0
M  V30 3779 N 363.613 -0.582584 1.46437 0
M  V30 3780 C 364.543 -1.70187 1.59871 0
M  V30 3781 C 365.524 -1.64066 0.449042 0
M  V30 3782 O 366.709 -1.82081 0.6753 0
M  V30 3783 C 363.839 -3.08827 1.58881 0
M  V30 3784 C 362.793 -3.29779 2.72819 0
M  V30 3785 C 362.119 -4.68947 2.5689 0
M  V30 3786 C 363.419 -3.17601 4.1464 0
M  V30 3787 H 365.113 -1.592 2.53566 0
M  V30 3788 H 362.659 -0.764472 1.22032 0
M  V30 3789 H 364.612 -3.86951 1.66873 0
M  V30 3790 H 363.336 -3.20713 0.617306 0
M  V30 3791 H 361.995 -2.54054 2.64296 0
M  V30 3792 H 361.643 -4.77599 1.57823 0
M  V30 3793 H 361.343 -4.83919 3.33312 0
M  V30 3794 H 362.867 -5.4924 2.66773 0
M  V30 3795 H 364.281 -3.8557 4.24274 0
M  V30 3796 H 362.678 -3.44094 4.9165 0
M  V30 3797 H 363.748 -2.14681 4.34788 0
M  V30 3798 N 365.091 -1.34144 -0.827227 0
M  V30 3799 C 366.054 -1.25264 -1.91942 0
M  V30 3800 C 367.054 -0.168866 -1.59911 0
M  V30 3801 O 368.244 -0.421198 -1.69031 0
M  V30 3802 C 365.376 -0.932952 -3.27885 0
M  V30 3803 H 366.569 -2.22357 -2.0124 0
M  V30 3804 H 364.122 -1.1837 -1.0207 0
M  V30 3805 H 364.857 0.0349917 -3.24281 0
M  V30 3806 H 364.642 -1.71682 -3.52516 0
M  V30 3807 H 366.132 -0.895874 -4.07877 0
M  V30 3808 N 366.569 1.04691 -1.17803 0
M  V30 3809 C 367.516 2.12557 -0.899343 0
M  V30 3810 C 368.486 1.65339 0.158771 0
M  V30 3811 O 369.671 1.90789 0.0204797 0
M  V30 3812 C 366.811 3.42481 -0.424315 0
M  V30 3813 C 365.924 4.03346 -1.54713 0
M  V30 3814 C 365.059 5.21208 -1.02546 0
M  V30 3815 C 364.098 5.74089 -2.12339 0
M  V30 3816 N 363.235 6.83247 -1.61612 0
M  V30 3817 H 368.075 2.35734 -1.823 0
M  V30 3818 H 365.612 1.1564 -0.909159 0
M  V30 3819 H 367.57 4.16996 -0.130421 0
M  V30 3820 H 366.2 3.19471 0.462377 0
M  V30 3821 H 365.252 3.2622 -1.95664 0
M  V30 3822 H 366.564 4.38628 -2.37501 0
M  V30 3823 H 365.718 6.02812 -0.685718 0
M  V30 3824 H 364.457 4.87414 -0.167084 0
M  V30 3825 H 363.462 4.91111 -2.47165 0
M  V30 3826 H 364.687 6.0993 -2.98601 0
M  V30 3827 H 362.633 6.5134 -0.780533 0
M  V30 3828 H 362.55 7.17559 -2.38003 0
M  V30 3829 H 363.818 7.68491 -1.30545 0
M  V30 3830 N 368.047 0.979072 1.23499 0
M  V30 3831 C 369.295 0.645941 1.91499 0
M  V30 3832 C 369.616 -0.822948 1.76784 0
M  V30 3833 O 368.886 -1.58854 1.14639 0
M  V30 3834 H 367.466 0.235919 0.708767 0
M  V30 3835 H 370.128 1.2426 1.50152 0
M  V30 3836 H 369.224 0.896411 2.9895 0
M  V30 3837 N 369.525 -1.3858 0.750561 0
M  V30 3838 C 370.475 -2.27795 0.0965949 0
M  V30 3839 C 371.459 -1.45048 -0.696411 0
M  V30 3840 O 372.651 -1.67812 -0.562863 0
M  V30 3841 C 369.78 -3.33894 -0.798085 0
M  V30 3842 C 368.866 -4.241 0.0016067 0
M  V30 3843 N 369.257 -4.95067 1.03647 0
M  V30 3844 C 367.555 -4.45429 -0.225674 0
M  V30 3845 C 368.256 -5.61489 1.52004 0
M  V30 3846 N 367.232 -5.37135 0.835874 0
M  V30 3847 H 371.034 -2.80125 0.889228 0
M  V30 3848 H 368.548 -1.51446 0.586323 0
M  V30 3849 H 370.545 -3.96693 -1.28219 0
M  V30 3850 H 369.205 -2.83123 -1.5897 0
M  V30 3851 H 370.216 -4.98104 1.41819 0
M  V30 3852 H 366.893 -4.05571 -0.990872 0
M  V30 3853 H 368.283 -6.28264 2.38188 0
M  V30 3854 N 371.003 -0.499398 -1.49478 0
M  V30 3855 C 372.252 0.0475259 -2.01644 0
M  V30 3856 C 372.565 1.38195 -1.38425 0
M  V30 3857 O 373.771 2.01547 -1.8191 0
M  V30 3858 C 372.227 0.135164 -3.59646 0
M  V30 3859 C 371.835 -1.19252 -4.31837 0
M  V30 3860 C 373.579 0.632538 -4.19761 0
M  V30 3861 C 371.486 -1.06713 -5.81693 0
M  V30 3862 H 370.416 0.0215349 -0.753692 0
M  V30 3863 H 373.067 -0.638577 -1.7203 0
M  V30 3864 H 371.449 0.885681 -3.85969 0
M  V30 3865 H 372.623 -1.9562 -4.17216 0
M  V30 3866 H 370.938 -1.62321 -3.83459 0
M  V30 3867 H 373.535 0.743833 -5.29501 0
M  V30 3868 H 373.878 1.63098 -3.83021 0
M  V30 3869 H 374.411 -0.0613987 -3.97753 0
M  V30 3870 H 371.15 -2.03979 -6.22955 0
M  V30 3871 H 370.67 -0.344307 -5.98811 0
M  V30 3872 H 372.349 -0.745208 -6.42694 0
M  V30 3873 N 372.481 1.55866 -0.233164 0
M  V30 3874 C 373.444 2.1953 0.658715 0
M  V30 3875 C 374.444 1.16053 1.11303 0
M  V30 3876 O 375.634 1.41218 1.01996 0
M  V30 3877 C 372.766 2.82791 1.90373 0
M  V30 3878 H 373.959 2.99721 0.10347 0
M  V30 3879 H 371.512 1.56291 0.0164245 0
M  V30 3880 H 372.247 2.06501 2.50056 0
M  V30 3881 H 372.032 3.58578 1.58632 0
M  V30 3882 H 373.522 3.31556 2.53891 0
M  V30 3883 N 373.959 -0.0401083 1.57549 0
M  V30 3884 C 374.922 -1.02871 2.04817 0
M  V30 3885 C 375.922 -1.29708 0.950388 0
M  V30 3886 O 377.112 -1.24897 1.21435 0
M  V30 3887 C 374.244 -2.36443 2.45576 0
M  V30 3888 H 375.437 -0.620631 2.93408 0
M  V30 3889 H 372.99 -0.286667 1.53649 0
M  V30 3890 H 373.725 -2.82021 1.60108 0
M  V30 3891 H 373.51 -2.18296 3.25713 0
M  V30 3892 H 375 -3.07441 2.82612 0
M  V30 3893 N 375.437 -1.54477 -0.31217 0
M  V30 3894 C 376.367 -1.87652 -1.38957 0
M  V30 3895 C 377.348 -0.734358 -1.53431 0
M  V30 3896 O 378.533 -0.98911 -1.67123 0
M  V30 3897 C 375.663 -2.11396 -2.75552 0
M  V30 3898 C 374.617 -3.27243 -2.75855 0
M  V30 3899 C 373.943 -3.36382 -4.15633 0
M  V30 3900 C 375.243 -4.64622 -2.38587 0
M  V30 3901 H 376.937 -2.77887 -1.11442 0
M  V30 3902 H 374.483 -1.33707 -0.534655 0
M  V30 3903 H 376.436 -2.33189 -3.51 0
M  V30 3904 H 375.16 -1.17921 -3.04569 0
M  V30 3905 H 373.819 -3.05356 -2.02863 0
M  V30 3906 H 373.467 -2.40445 -4.41809 0
M  V30 3907 H 373.167 -4.14249 -4.1674 0
M  V30 3908 H 374.691 -3.60422 -4.92877 0
M  V30 3909 H 376.105 -4.86219 -3.03749 0
M  V30 3910 H 374.502 -5.45121 -2.50925 0
M  V30 3911 H 375.572 -4.66097 -1.33723 0
M  V30 3912 N 376.915 0.57481 -1.46744 0
M  V30 3913 C 378.331 0.898981 -1.31873 0
M  V30 3914 C 378.531 1.99313 -0.29605 0
M  V30 3915 O 377.587 2.50728 0.298621 0
M  V30 3916 C 378.9 1.30886 -2.7072 0
M  V30 3917 C 380.448 1.42127 -2.78871 0
M  V30 3918 C 380.923 1.86478 -4.18318 0
M  V30 3919 N 382.414 1.93658 -4.20774 0
M  V30 3920 C 383.149 2.29267 -5.2557 0
M  V30 3921 N 382.645 2.63612 -6.40688 0
M  V30 3922 N 384.438 2.29889 -5.1294 0
M  V30 3923 H 376.589 -0.147839 -2.11885 0
M  V30 3924 H 378.852 -0.00347013 -0.947994 0
M  V30 3925 H 378.558 0.578853 -3.46904 0
M  V30 3926 H 378.432 2.26874 -3.01343 0
M  V30 3927 H 380.819 2.14213 -2.0297 0
M  V30 3928 H 380.9 0.443705 -2.51922 0
M  V30 3929 H 380.544 1.14968 -4.94717 0
M  V30 3930 H 380.474 2.85207 -4.42679 0
M  V30 3931 H 382.965 1.69574 -3.37718 0
M  V30 3932 H 383.278 2.89759 -7.16421 0
M  V30 3933 H 381.623 2.61232 -6.44036 0
M  V30 3934 H 384.814 2.02485 -4.22039 0
M  V30 3935 H 384.987 2.57312 -5.94722 0
M  V30 3936 N 378.394 1.34581 0.820102 0
M  V30 3937 C 379.341 1.2639 1.93117 0
M  V30 3938 C 380.311 0.138554 1.65521 0
M  V30 3939 O 381.496 0.320004 1.88097 0
M  V30 3940 C 378.636 1.02812 3.29429 0
M  V30 3941 C 377.749 2.24146 3.693 0
M  V30 3942 C 376.884 1.93829 4.94574 0
M  V30 3943 C 375.923 3.1129 5.27034 0
M  V30 3944 N 375.06 2.80838 6.43486 0
M  V30 3945 H 379.9 2.21408 1.99455 0
M  V30 3946 H 377.437 1.10077 0.975784 0
M  V30 3947 H 379.395 0.871788 4.0799 0
M  V30 3948 H 378.025 0.114612 3.22596 0
M  V30 3949 H 377.077 2.50691 2.86109 0
M  V30 3950 H 378.389 3.11899 3.89257 0
M  V30 3951 H 377.543 1.74948 5.80929 0
M  V30 3952 H 376.282 1.03341 4.76626 0
M  V30 3953 H 375.287 3.30764 4.39175 0
M  V30 3954 H 376.512 4.02561 5.4692 0
M  V30 3955 H 374.458 1.92929 6.26988 0
M  V30 3956 H 374.375 3.62123 6.63629 0
M  V30 3957 H 375.643 2.65467 7.32903 0
M  V30 3958 N 379.872 -1.04064 1.18357 0
M  V30 3959 C 380.802 -2.14001 0.934113 0
M  V30 3960 C 381.783 -1.69616 -0.128186 0
M  V30 3961 O 382.968 -1.94185 0.0244093 0
M  V30 3962 C 380.098 -3.44253 0.459066 0
M  V30 3963 C 379.052 -4.02261 1.46185 0
M  V30 3964 C 378.378 -5.27992 0.844322 0
M  V30 3965 C 379.678 -4.38432 2.83856 0
M  V30 3966 H 381.372 -2.35127 1.85352 0
M  V30 3967 H 378.918 -1.12998 0.892604 0
M  V30 3968 H 380.871 -4.20522 0.271907 0
M  V30 3969 H 379.595 -3.22813 -0.495912 0
M  V30 3970 H 378.254 -3.28074 1.63595 0
M  V30 3971 H 377.902 -5.02862 -0.117845 0
M  V30 3972 H 377.602 -5.67765 1.51384 0
M  V30 3973 H 379.126 -6.06938 0.667693 0
M  V30 3974 H 380.54 -5.05688 2.70098 0
M  V30 3975 H 378.937 -4.89254 3.47491 0
M  V30 3976 H 380.007 -3.4826 3.37406 0
M  V30 3977 N 381.35 -0.985608 -1.22978 0
M  V30 3978 C 382.297 -0.529825 -2.24636 0
M  V30 3979 C 383.267 0.434028 -1.60329 0
M  V30 3980 O 384.452 0.340414 -1.87739 0
M  V30 3981 C 381.592 0.156533 -3.44745 0
M  V30 3982 C 380.705 -0.848197 -4.23591 0
M  V30 3983 C 379.84 -0.136109 -5.31026 0
M  V30 3984 C 378.879 -1.1297 -6.01585 0
M  V30 3985 N 378.016 -0.446415 -7.00679 0
M  V30 3986 H 382.856 -1.40148 -2.62988 0
M  V30 3987 H 380.393 -0.702168 -1.29259 0
M  V30 3988 H 382.351 0.571324 -4.1327 0
M  V30 3989 H 380.981 0.992025 -3.07179 0
M  V30 3990 H 380.033 -1.38135 -3.54433 0
M  V30 3991 H 381.345 -1.60512 -4.72268 0
M  V30 3992 H 380.499 0.335784 -6.0577 0
M  V30 3993 H 379.238 0.653373 -4.83304 0
M  V30 3994 H 378.243 -1.6123 -5.25628 0
M  V30 3995 H 379.468 -1.91993 -6.51395 0
M  V30 3996 H 377.414 0.323763 -6.55201 0
M  V30 3997 H 377.331 -1.1419 -7.47326 0
M  V30 3998 H 378.599 0.00291697 -7.795 0
M  V30 3999 N 382.828 1.3818 -0.7579 0
M  V30 4000 C 383.738 2.3421 -0.135247 0
M  V30 4001 C 384.754 1.59487 0.695683 0
M  V30 4002 O 385.93 1.91657 0.618832 0
M  V30 4003 C 382.995 3.3862 0.744139 0
M  V30 4004 C 382.056 4.2918 -0.101658 0
M  V30 4005 C 381.289 5.28603 0.735851 0
M  V30 4006 O 381.512 5.35166 1.97366 0
M  V30 4007 O 380.446 6.01707 0.152372 0
M  V30 4008 H 384.272 2.8916 -0.928436 0
M  V30 4009 H 381.857 1.40101 -0.518855 0
M  V30 4010 H 383.739 4.02539 1.2466 0
M  V30 4011 H 382.414 2.86019 1.51575 0
M  V30 4012 H 381.321 3.68407 -0.650167 0
M  V30 4013 H 382.654 4.85048 -0.836024 0
M  V30 4014 N 384.306 0.507319 1.49211 0
M  V30 4015 C 385.238 -0.304532 2.27168 0
M  V30 4016 C 386.251 -0.924956 1.33972 0
M  V30 4017 O 387.44 -0.807227 1.59205 0
M  V30 4018 C 384.54 -1.44431 3.06583 0
M  V30 4019 C 383.713 -0.930026 4.27398 0
M  V30 4020 C 382.772 -1.94817 4.88807 0
M  V30 4021 O 381.798 -1.51418 5.4869 0
M  V30 4022 N 383 -3.279 4.79022 0
M  V30 4023 H 385.765 0.36395 2.97482 0
M  V30 4024 H 383.326 0.340249 1.58284 0
M  V30 4025 H 385.318 -2.12311 3.44537 0
M  V30 4026 H 383.888 -2.01684 2.38835 0
M  V30 4027 H 383.108 -0.0759244 3.94127 0
M  V30 4028 H 384.396 -0.564932 5.05654 0
M  V30 4029 H 383.794 -3.65843 4.3148 0
M  V30 4030 H 382.351 -3.91476 5.21142 0
M  V30 4031 N 385.784 -1.5574 0.241426 0
M  V30 4032 C 387.024 -2.00714 -0.38644 0
M  V30 4033 C 387.388 -1.12586 -1.55526 0
M  V30 4034 O 388.589 -1.46992 -2.25048 0
M  V30 4035 C 386.86 -3.48534 -0.791128 0
M  V30 4036 S 388.419 -4.15519 -1.41029 0
M  V30 4037 H 385.237 -0.700484 -0.121834 0
M  V30 4038 H 387.839 -1.92243 0.355377 0
M  V30 4039 H 386.543 -4.10342 0.0689225 0
M  V30 4040 H 386.074 -3.6092 -1.56526 0
M  V30 4041 H 388.089 -4.16352 -2.69936 0
M  V30 4042 N 387.262 0.0317525 -1.57568 0
M  V30 4043 C 388.51 0.721676 -1.88776 0
M  V30 4044 C 388.831 1.76039 -0.838772 0
M  V30 4045 O 388.101 1.95482 0.127935 0
M  V30 4046 H 386.681 0.269534 -0.696678 0
M  V30 4047 H 389.343 -0.00165879 -1.949 0
M  V30 4048 H 388.439 1.21293 -2.87566 0
M  V30 4049 N 388.74 1.54641 0.303973 0
M  V30 4050 C 389.98 1.75516 1.04755 0
M  V30 4051 C 390.344 0.528211 1.84591 0
M  V30 4052 O 391.545 0.614645 2.61678 0
M  V30 4053 C 389.816 3.00685 1.93193 0
M  V30 4054 S 391.375 3.42549 2.74237 0
M  V30 4055 H 388.193 0.616987 0.353339 0
M  V30 4056 H 390.795 1.92842 0.321292 0
M  V30 4057 H 389.499 3.8811 1.33411 0
M  V30 4058 H 389.03 2.85937 2.70191 0
M  V30 4059 H 391.045 2.99386 3.95705 0
M  V30 4060 N 390.218 -0.567019 1.47046 0
M  V30 4061 C 391.634 -0.891975 1.32348 0
M  V30 4062 C 391.834 -1.99154 0.306616 0
M  V30 4063 O 390.89 -2.50883 -0.28532 0
M  V30 4064 C 392.203 -1.29449 2.7141 0
M  V30 4065 C 393.751 -1.40646 2.79621 0
M  V30 4066 C 394.226 -1.84257 4.19301 0
M  V30 4067 N 395.717 -1.91424 4.21795 0
M  V30 4068 C 396.452 -2.26476 5.26779 0
M  V30 4069 N 395.948 -2.60211 6.42077 0
M  V30 4070 N 397.741 -2.27166 5.14152 0
M  V30 4071 H 389.892 0.159074 2.11803 0
M  V30 4072 H 392.155 0.00849752 0.947962 0
M  V30 4073 H 391.861 -0.560448 3.47206 0
M  V30 4074 H 391.735 -2.25273 3.02542 0
M  V30 4075 H 394.122 -2.13133 2.04104 0
M  V30 4076 H 394.203 -0.430339 2.52154 0
M  V30 4077 H 393.847 -1.12343 4.95319 0
M  V30 4078 H 393.777 -2.82855 4.44185 0
M  V30 4079 H 396.268 -1.6778 3.38612 0
M  V30 4080 H 396.581 -2.85956 7.17948 0
M  V30 4081 H 394.926 -2.57813 6.45413 0
M  V30 4082 H 398.117 -2.00244 4.23107 0
M  V30 4083 H 398.29 -2.54154 5.96079 0
M  V30 4084 N 391.696 -1.35014 -0.812953 0
M  V30 4085 C 392.945 -1.27269 -1.56479 0
M  V30 4086 C 393.258 0.152771 -1.95002 0
M  V30 4087 O 394.464 0.352451 -2.69203 0
M  V30 4088 C 392.92 -2.23159 -2.82362 0
M  V30 4089 C 392.528 -3.71016 -2.511 0
M  V30 4090 C 394.272 -2.24342 -3.60376 0
M  V30 4091 C 392.179 -4.58746 -3.73237 0
M  V30 4092 H 391.109 -0.472829 -0.587324 0
M  V30 4093 H 393.76 -1.6024 -0.894171 0
M  V30 4094 H 392.142 -1.83151 -3.51101 0
M  V30 4095 H 393.316 -4.1962 -1.90409 0
M  V30 4096 H 391.631 -3.72378 -1.86343 0
M  V30 4097 H 394.228 -2.87107 -4.51081 0
M  V30 4098 H 394.571 -1.24542 -3.97234 0
M  V30 4099 H 395.104 -2.62846 -2.98591 0
M  V30 4100 H 391.843 -5.59521 -3.41492 0
M  V30 4101 H 391.363 -4.14871 -4.33176 0
M  V30 4102 H 393.042 -4.73852 -4.40537 0
M  V30 4103 N 393.175 1.03435 -1.18907 0
M  V30 4104 C 394.405 1.8012 -1.01195 0
M  V30 4105 C 394.813 1.8395 0.442613 0
M  V30 4106 O 394.156 1.27836 1.31923 0
M  V30 4107 C 394.218 3.26792 -1.49823 0
M  V30 4108 C 393.882 3.46609 -2.97844 0
M  V30 4109 C 394.879 3.37278 -3.95651 0
M  V30 4110 C 392.564 3.73001 -3.36416 0
M  V30 4111 C 394.558 3.54054 -5.30023 0
M  V30 4112 C 392.245 3.89423 -4.70949 0
M  V30 4113 C 393.243 3.79951 -5.67562 0
M  V30 4114 O 392.931 3.95895 -6.99659 0
M  V30 4115 H 392.663 0.573865 -0.357289 0
M  V30 4116 H 395.217 1.31207 -1.58031 0
M  V30 4117 H 393.447 3.76703 -0.873578 0
M  V30 4118 H 395.136 3.85055 -1.28404 0
M  V30 4119 H 395.902 3.16846 -3.67197 0
M  V30 4120 H 391.781 3.79469 -2.61772 0
M  V30 4121 H 395.325 3.46577 -6.05417 0
M  V30 4122 H 391.222 4.09351 -4.99101 0
M  V30 4123 H 391.99 4.13019 -7.06653 0
M  V30 4124 N 394.653 0.992116 1.22453 0
M  V30 4125 C 395.601 0.534644 2.26372 0
M  V30 4126 C 396.595 -0.414293 1.64256 0
M  V30 4127 O 397.801 -0.286899 1.77699 0
M  V30 4128 H 394.176 0.154502 0.735957 0
M  V30 4129 H 396.147 1.42256 2.62309 0
M  V30 4130 C 394.896 -0.135815 3.47435 0
M  V30 4131 H 394.219 0.585311 3.95492 0
M  V30 4132 H 395.659 -0.419374 4.21921 0
M  V30 4133 C 394.118 -1.37089 3.07747 0
M  V30 4134 O 394.648 -2.46629 3.17076 0
M  V30 4135 N 392.854 -1.24585 2.62539 0
M  V30 4136 H 392.401 -0.354542 2.55149 0
M  V30 4137 H 392.359 -2.07327 2.36353 0
M  V30 4138 N 396.131 -1.37776 0.765217 0
M  V30 4139 C 397.061 -2.32945 0.160953 0
M  V30 4140 C 398.042 -1.55454 -0.690516 0
M  V30 4141 O 399.227 -1.83721 -0.629318 0
M  V30 4142 C 396.357 -3.39669 -0.724031 0
M  V30 4143 C 395.311 -4.27992 0.0256173 0
M  V30 4144 C 394.637 -5.25673 -0.978383 0
M  V30 4145 C 395.937 -5.08309 1.20082 0
M  V30 4146 H 397.631 -2.83728 0.955969 0
M  V30 4147 H 395.177 -1.36416 0.461149 0
M  V30 4148 H 397.13 -4.05219 -1.15652 0
M  V30 4149 H 395.854 -2.87396 -1.5515 0
M  V30 4150 H 394.513 -3.63964 0.438812 0
M  V30 4151 H 394.161 -4.69682 -1.80022 0
M  V30 4152 H 393.861 -5.85625 -0.481378 0
M  V30 4153 H 395.385 -5.94098 -1.40995 0
M  V30 4154 H 396.799 -5.67034 0.845307 0
M  V30 4155 H 395.196 -5.77554 1.62947 0
M  V30 4156 H 396.266 -4.41365 2.00811 0
M  V30 4157 N 397.609 -0.515225 -1.4894 0
M  V30 4158 C 398.857 0.0241671 -2.02086 0
M  V30 4159 C 399.178 1.3616 -1.3959 0
M  V30 4160 O 398.448 1.87841 -0.556121 0
M  V30 4161 H 397.028 0.0119203 -0.746905 0
M  V30 4162 H 399.69 -0.675702 -1.82812 0
M  V30 4163 H 398.786 0.143385 -3.1177 0
M  V30 4164 N 399.087 1.5561 -0.249682 0
M  V30 4165 C 400.315 2.03411 0.378352 0
M  V30 4166 C 400.73 1.12886 1.51335 0
M  V30 4167 O 400.087 0.143833 1.81932 0
M  V30 4168 C 400.138 3.50537 0.88351 0
M  V30 4169 O 399.859 4.37614 -0.20626 0
M  V30 4170 C 401.36 4.14113 1.58195 0
M  V30 4171 H 398.58 0.664994 0.08958 0
M  V30 4172 H 401.124 2.01044 -0.374357 0
M  V30 4173 H 399.279 3.5343 1.58639 0
M  V30 4174 H 399.693 5.24199 0.177782 0
M  V30 4175 H 401.167 5.18741 1.8871 0
M  V30 4176 H 401.644 3.60767 2.50487 0
M  V30 4177 H 402.25 4.15151 0.923573 0
M  V30 4178 N 400.565 -0.0233959 1.57583 0
M  V30 4179 C 401.813 -0.711654 1.89156 0
M  V30 4180 C 402.134 -1.75591 0.848096 0
M  V30 4181 O 401.404 -1.95547 -0.117566 0
M  V30 4182 H 399.984 -0.265835 0.698098 0
M  V30 4183 H 402.646 0.0119948 1.94896 0
M  V30 4184 H 401.742 -1.19766 2.88206 0
M  V30 4185 N 402.043 -1.548 -0.295768 0
M  V30 4186 C 403.271 -1.78327 -1.04914 0
M  V30 4187 C 403.686 -0.545316 -1.80753 0
M  V30 4188 O 403.043 0.485013 -1.75937 0
M  V30 4189 C 403.094 -2.99418 -2.02561 0
M  V30 4190 O 402.815 -4.18431 -1.29798 0
M  V30 4191 C 404.316 -3.35375 -2.89895 0
M  V30 4192 H 401.536 -0.594618 -0.310918 0
M  V30 4193 H 404.08 -2.01763 -0.333454 0
M  V30 4194 H 402.235 -2.78175 -2.69624 0
M  V30 4195 H 402.649 -4.86736 -1.95419 0
M  V30 4196 H 404.123 -4.23332 -3.54251 0
M  V30 4197 H 404.6 -2.53761 -3.58472 0
M  V30 4198 H 405.206 -3.58796 -2.28355 0
M  V30 4199 N 403.521 0.559213 -1.47345 0
M  V30 4200 C 404.769 1.31388 -1.53563 0
M  V30 4201 C 405.09 1.93985 -0.198678 0
M  V30 4202 O 404.36 1.79825 0.777167 0
M  V30 4203 H 402.94 0.487901 -0.565652 0
M  V30 4204 H 405.602 0.65315 -1.8363 0
M  V30 4205 H 404.698 2.10844 -2.30111 0
M  V30 4206 N 404.999 1.35443 0.805782 0
M  V30 4207 C 406.229 1.31687 1.59192 0
M  V30 4208 C 406.637 -0.10756 1.88894 0
M  V30 4209 O 405.98 -1.07017 1.49309 0
M  V30 4210 C 406.042 2.05686 2.94845 0
M  V30 4211 C 405.706 3.54868 2.87954 0
M  V30 4212 C 406.703 4.49444 2.61335 0
M  V30 4213 C 404.388 3.97528 3.07046 0
M  V30 4214 C 406.382 5.84655 2.53885 0
M  V30 4215 C 404.069 5.32833 2.99219 0
M  V30 4216 C 405.067 6.26209 2.72674 0
M  V30 4217 O 404.755 7.59032 2.64811 0
M  V30 4218 H 404.487 0.453878 0.50097 0
M  V30 4219 H 407.041 1.78892 1.0093 0
M  V30 4220 H 405.271 1.5312 3.55093 0
M  V30 4221 H 406.96 1.94998 3.55993 0
M  V30 4222 H 407.726 4.17804 2.46303 0
M  V30 4223 H 403.605 3.25233 3.26718 0
M  V30 4224 H 407.149 6.57508 2.33086 0
M  V30 4225 H 403.046 5.64087 3.13809 0
M  V30 4226 H 403.814 7.68967 2.80413 0
M  V30 4227 N 406.477 -1.02803 1.19454 0
M  V30 4228 C 407.702 -1.80378 1.02364 0
M  V30 4229 C 408.127 -1.83282 -0.423007 0
M  V30 4230 O 407.485 -1.25945 -1.30413 0
M  V30 4231 C 407.533 -3.23248 1.59821 0
M  V30 4232 O 406.637 -4.04 0.828105 0
M  V30 4233 H 405.978 -0.556799 0.361761 0
M  V30 4234 H 408.508 -1.29385 1.58495 0
M  V30 4235 H 408.518 -3.73994 1.63073 0
M  V30 4236 H 407.193 -3.2045 2.65113 0
M  V30 4237 H 405.77 -3.62635 0.86891 0
M  V30 4238 N 407.956 -0.998596 -1.21925 0
M  V30 4239 C 409.202 -0.678667 -1.91107 0
M  V30 4240 C 409.535 0.78791 -1.77498 0
M  V30 4241 O 408.81 1.57043 -1.1475 0
M  V30 4242 C 409.093 -1.09245 -3.43129 0
M  V30 4243 C 408.946 -2.61801 -3.6576 0
M  V30 4244 C 410.265 -0.649984 -4.35274 0
M  V30 4245 H 407.384 -0.248025 -0.694012 0
M  V30 4246 H 410.026 -1.24314 -1.43688 0
M  V30 4247 H 408.176 -0.612171 -3.83647 0
M  V30 4248 H 409.848 -3.17543 -3.34611 0
M  V30 4249 H 408.091 -3.03609 -3.09845 0
M  V30 4250 H 408.762 -2.85804 -4.7225 0
M  V30 4251 H 411.238 -1.0626 -4.02303 0
M  V30 4252 H 410.114 -0.967743 -5.40302 0
M  V30 4253 H 410.375 0.449139 -4.39813 0
M  V30 4254 N 409.434 1.37368 -0.772513 0
M  V30 4255 C 410.364 2.32856 -0.173304 0
M  V30 4256 C 411.345 1.55818 0.682262 0
M  V30 4257 O 412.53 1.84052 0.619566 0
M  V30 4258 C 409.66 3.40048 0.706007 0
M  V30 4259 C 408.614 4.27973 -0.0483144 0
M  V30 4260 C 407.94 5.26184 0.950491 0
M  V30 4261 C 409.24 5.07665 -1.22776 0
M  V30 4262 H 410.934 2.83217 -0.971002 0
M  V30 4263 H 408.48 1.3617 -0.468377 0
M  V30 4264 H 410.433 4.05827 1.13501 0
M  V30 4265 H 409.157 2.88214 1.53623 0
M  V30 4266 H 407.816 3.63726 -0.458107 0
M  V30 4267 H 407.464 4.7063 1.77529 0
M  V30 4268 H 407.164 5.85872 0.450314 0
M  V30 4269 H 408.688 5.94838 1.37842 0
M  V30 4270 H 410.102 5.66578 -0.875366 0
M  V30 4271 H 408.499 5.76681 -1.66007 0
M  V30 4272 H 409.569 4.40294 -2.03149 0
M  V30 4273 N 410.912 0.523116 1.48665 0
M  V30 4274 C 411.844 -0.280421 2.27478 0
M  V30 4275 C 412.857 -0.910694 1.34945 0
M  V30 4276 O 414.046 -0.790295 1.60052 0
M  V30 4277 C 411.146 -1.41171 3.08097 0
M  V30 4278 C 410.319 -0.884642 4.28361 0
M  V30 4279 C 409.378 -1.89622 4.90846 0
M  V30 4280 O 408.404 -1.4559 5.50265 0
M  V30 4281 N 409.606 -3.22801 4.82472 0
M  V30 4282 H 412.371 0.395481 2.97079 0
M  V30 4283 H 409.932 0.357018 1.57915 0
M  V30 4284 H 411.924 -2.08645 3.4677 0
M  V30 4285 H 410.494 -1.99139 2.40961 0
M  V30 4286 H 409.714 -0.0341177 3.94185 0
M  V30 4287 H 411.002 -0.511268 5.06225 0
M  V30 4288 H 410.4 -3.61246 4.35336 0
M  V30 4289 H 408.957 -3.85927 5.25265 0
M  V30 4290 N 412.39 -1.55475 0.257931 0
M  V30 4291 C 413.323 -2.179 -0.677862 0
M  V30 4292 C 414.301 -1.13448 -1.16483 0
M  V30 4293 O 415.485 -1.41889 -1.24095 0
M  V30 4294 C 412.612 -2.78851 -1.92249 0
M  V30 4295 C 411.658 -3.96454 -1.57246 0
M  V30 4296 S 412.491 -5.31349 -0.665501 0
M  V30 4297 C 413.647 -5.9576 -1.91889 0
M  V30 4298 H 413.88 -2.96934 -0.147396 0
M  V30 4299 H 411.413 -1.54342 0.0423023 0
M  V30 4300 H 413.371 -3.14602 -2.63697 0
M  V30 4301 H 412.032 -1.99742 -2.42409 0
M  V30 4302 H 411.225 -4.37731 -2.49814 0
M  V30 4303 H 410.827 -3.62038 -0.938325 0
M  V30 4304 H 413.119 -6.13947 -2.86487 0
M  V30 4305 H 414.062 -6.9094 -1.54942 0
M  V30 4306 H 414.47 -5.2494 -2.076 0
M  V30 4307 N 413.868 0.0150385 -1.57593 0
M  V30 4308 C 415.114 0.704043 -1.90187 0
M  V30 4309 C 415.447 1.74249 -0.857366 0
M  V30 4310 O 414.722 1.94092 0.125843 0
M  V30 4311 C 415.005 1.36087 -3.33395 0
M  V30 4312 C 414.858 0.334981 -4.48551 0
M  V30 4313 C 416.177 2.29112 -3.7576 0
M  V30 4314 H 413.296 0.254475 -0.691673 0
M  V30 4315 H 415.938 -0.0331678 -1.89971 0
M  V30 4316 H 414.088 1.98922 -3.3371 0
M  V30 4317 H 415.76 -0.292534 -4.60372 0
M  V30 4318 H 414.003 -0.344325 -4.32431 0
M  V30 4319 H 414.674 0.833316 -5.45674 0
M  V30 4320 H 417.15 1.76308 -3.76902 0
M  V30 4321 H 416.026 2.72043 -4.76743 0
M  V30 4322 H 416.287 3.16385 -3.08793 0
M  V30 4323 N 415.346 1.54954 0.287554 0
M  V30 4324 C 416.278 1.83224 1.37701 0
M  V30 4325 C 417.291 0.715898 1.46215 0
M  V30 4326 O 418.48 0.993565 1.48292 0
M  V30 4327 C 415.58 1.96723 2.75959 0
M  V30 4328 C 414.753 3.27253 2.90215 0
M  V30 4329 C 413.812 3.30998 4.09056 0
M  V30 4330 O 412.838 4.04457 4.00503 0
M  V30 4331 N 414.04 2.57353 5.20336 0
M  V30 4332 H 416.805 2.77254 1.138 0
M  V30 4333 H 414.366 1.54694 0.477652 0
M  V30 4334 H 416.358 1.96615 3.5373 0
M  V30 4335 H 414.928 1.09626 2.92747 0
M  V30 4336 H 414.148 3.40022 1.99447 0
M  V30 4337 H 415.436 4.13365 2.96659 0
M  V30 4338 H 414.834 1.97327 5.30169 0
M  V30 4339 H 413.391 2.62984 5.96391 0
M  V30 4340 N 416.824 -0.551391 1.4764 0
M  V30 4341 C 417.787 -1.64007 1.60107 0
M  V30 4342 C 418.787 -1.53601 0.47576 0
M  V30 4343 O 419.977 -1.57655 0.740988 0
M  V30 4344 C 417.109 -3.03569 1.55108 0
M  V30 4345 H 418.302 -1.543 2.57161 0
M  V30 4346 H 415.855 -0.771776 1.35917 0
M  V30 4347 H 416.59 -3.18804 0.594519 0
M  V30 4348 H 416.375 -3.12532 2.36783 0
M  V30 4349 H 417.865 -3.82762 1.66982 0
M  V30 4350 N 418.302 -1.35869 -0.798587 0
M  V30 4351 C 419.235 -1.23801 -1.91699 0
M  V30 4352 C 420.213 -0.124143 -1.62125 0
M  V30 4353 O 421.397 -0.293656 -1.86199 0
M  V30 4354 C 418.524 -0.908063 -3.263 0
M  V30 4355 C 417.57 -2.0351 -3.74815 0
M  V30 4356 S 418.403 -3.65183 -3.91665 0
M  V30 4357 C 419.559 -3.34283 -5.29156 0
M  V30 4358 H 419.792 -2.18466 -2.01643 0
M  V30 4359 H 417.325 -1.21178 -0.956833 0
M  V30 4360 H 419.283 -0.724506 -4.04056 0
M  V30 4361 H 417.944 0.0206584 -3.14093 0
M  V30 4362 H 417.137 -1.75858 -4.72324 0
M  V30 4363 H 416.739 -2.1774 -3.04081 0
M  V30 4364 H 419.031 -2.87607 -6.13424 0
M  V30 4365 H 419.974 -4.31022 -5.61806 0
M  V30 4366 H 420.382 -2.69854 -4.95822 0
M  V30 4367 N 419.78 1.02168 -1.19998 0
M  V30 4368 C 420.69 2.14069 -0.959774 0
M  V30 4369 C 421.706 1.73804 0.082655 0
M  V30 4370 O 422.882 2.01133 -0.103633 0
M  V30 4371 C 419.947 3.42936 -0.509459 0
M  V30 4372 C 419.008 3.97474 -1.62213 0
M  V30 4373 C 418.241 5.2019 -1.19321 0
M  V30 4374 O 418.464 5.70369 -0.0597726 0
M  V30 4375 O 417.398 5.67749 -1.99863 0
M  V30 4376 H 421.224 2.37199 -1.89658 0
M  V30 4377 H 418.809 1.12469 -0.983411 0
M  V30 4378 H 420.691 4.20551 -0.267322 0
M  V30 4379 H 419.366 3.21234 0.398821 0
M  V30 4380 H 418.273 3.21161 -1.9185 0
M  V30 4381 H 419.606 4.23555 -2.50723 0
M  V30 4382 N 421.258 1.00505 1.21394 0
M  V30 4383 C 422.205 0.565496 2.23765 0
M  V30 4384 C 423.175 -0.408466 1.60999 0
M  V30 4385 O 424.36 -0.310503 1.88257 0
M  V30 4386 C 421.5 -0.101667 3.4495 0
M  V30 4387 C 420.613 0.915479 4.22188 0
M  V30 4388 C 419.748 0.220574 5.30742 0
M  V30 4389 C 418.787 1.22527 5.99711 0
M  V30 4390 N 417.924 0.557831 6.9988 0
M  V30 4391 H 422.764 1.44314 2.60725 0
M  V30 4392 H 420.301 0.722643 1.28126 0
M  V30 4393 H 422.259 -0.505504 4.14126 0
M  V30 4394 H 420.889 -0.94303 3.08718 0
M  V30 4395 H 419.941 1.43756 3.52191 0
M  V30 4396 H 421.253 1.68005 4.69655 0
M  V30 4397 H 420.407 -0.239368 6.06228 0
M  V30 4398 H 419.146 -0.576401 4.84282 0
M  V30 4399 H 418.151 1.69571 5.22997 0
M  V30 4400 H 419.376 2.02332 6.48258 0
M  V30 4401 H 417.322 -0.219486 6.55633 0
M  V30 4402 H 417.239 1.26065 7.45415 0
M  V30 4403 H 418.507 0.121095 7.79406 0
M  V30 4404 N 422.737 -1.36956 0.779787 0
M  V30 4405 C 423.7 -2.2851 0.177662 0
M  V30 4406 C 424.7 -1.48393 -0.619377 0
M  V30 4407 O 425.89 -1.68505 -0.441785 0
M  V30 4408 C 423.022 -3.32428 -0.755279 0
M  V30 4409 H 424.215 -2.83269 0.984823 0
M  V30 4410 H 421.768 -1.46358 0.548544 0
M  V30 4411 H 422.503 -2.82808 -1.58714 0
M  V30 4412 H 422.288 -3.91659 -0.185817 0
M  V30 4413 H 423.778 -4.00824 -1.17174 0
M  V30 4414 N 424.215 -0.530993 -1.48385 0
M  V30 4415 C 425.44 0.000729535 -2.074 0
M  V30 4416 C 425.865 1.27298 -1.3848 0
M  V30 4417 O 425.223 1.75599 -0.451081 0
M  V30 4418 C 425.271 0.206697 -3.60007 0
M  V30 4419 O 424.375 1.27514 -3.92191 0
M  V30 4420 H 423.716 -0.039583 -0.662819 0
M  V30 4421 H 426.246 -0.739194 -1.9078 0
M  V30 4422 H 426.256 0.42904 -4.05738 0
M  V30 4423 H 424.931 -0.722675 -4.09573 0
M  V30 4424 H 423.508 1.03537 -3.58238 0
M  V30 4425 N 425.693 1.55336 -0.266172 0
M  V30 4426 C 426.941 1.99003 0.35246 0
M  V30 4427 C 427.262 1.15591 1.57047 0
M  V30 4428 O 426.532 0.243268 1.94384 0
M  V30 4429 H 425.112 0.735025 0.133217 0
M  V30 4430 H 427.774 1.91367 -0.369434 0
M  V30 4431 H 426.87 3.05289 0.648453 0
M  V30 4432 N 427.171 -0.0066808 1.57599 0
M  V30 4433 C 428.118 -1.00024 2.08 0
M  V30 4434 C 429.088 -1.34549 0.973943 0
M  V30 4435 O 430.273 -1.44502 1.24595 0
M  V30 4436 C 427.413 -2.2891 2.58252 0
M  V30 4437 C 426.526 -2.00346 3.82734 0
M  V30 4438 C 425.661 -3.23265 4.21513 0
M  V30 4439 C 424.7 -2.90357 5.3885 0
M  V30 4440 N 423.837 -4.05793 5.72954 0
M  V30 4441 H 428.677 -0.563499 2.92624 0
M  V30 4442 H 426.214 -0.266592 1.44664 0
M  V30 4443 H 428.172 -3.04247 2.85464 0
M  V30 4444 H 426.802 -2.70265 1.76512 0
M  V30 4445 H 425.854 -1.15406 3.62471 0
M  V30 4446 H 427.166 -1.72086 4.68175 0
M  V30 4447 H 426.32 -4.06953 4.49971 0
M  V30 4448 H 425.059 -3.54657 3.34768 0
M  V30 4449 H 424.064 -2.05075 5.10122 0
M  V30 4450 H 425.289 -2.60219 6.27266 0
M  V30 4451 H 423.235 -4.37094 4.89167 0
M  V30 4452 H 423.152 -3.81034 6.52954 0
M  V30 4453 H 424.42 -4.90289 6.06001 0
M  V30 4454 N 428.649 -1.55105 -0.279332 0
M  V30 4455 C 429.596 -1.8755 -1.34513 0
M  V30 4456 C 430.566 -0.726384 -1.49375 0
M  V30 4457 O 431.751 -0.977063 -1.63884 0
M  V30 4458 C 428.891 -2.14738 -2.70151 0
M  V30 4459 C 428.004 -3.42285 -2.63562 0
M  V30 4460 C 427.139 -3.59206 -3.91337 0
M  V30 4461 C 426.178 -4.80467 -3.79233 0
M  V30 4462 N 425.315 -4.94079 -4.98829 0
M  V30 4463 H 430.155 -2.78456 -1.06143 0
M  V30 4464 H 427.692 -1.37867 -0.512936 0
M  V30 4465 H 429.65 -2.28501 -3.49061 0
M  V30 4466 H 428.28 -1.27075 -2.96735 0
M  V30 4467 H 427.332 -3.37029 -1.76397 0
M  V30 4468 H 428.644 -4.31328 -2.50515 0
M  V30 4469 H 427.798 -3.72751 -4.78687 0
M  V30 4470 H 426.537 -2.68337 -4.07243 0
M  V30 4471 H 425.542 -4.66932 -2.90266 0
M  V30 4472 H 426.767 -5.72765 -3.64852 0
M  V30 4473 H 424.713 -4.06139 -5.15158 0
M  V30 4474 H 424.63 -5.77156 -4.8829 0
M  V30 4475 H 425.898 -5.12003 -5.8777 0
M  V30 4476 N 430.127 0.543554 -1.4793 0
M  V30 4477 C 431.376 1.29649 -1.54512 0
M  V30 4478 C 431.689 1.94382 -0.217973 0
M  V30 4479 O 432.895 2.71017 -0.161908 0
M  V30 4480 C 431.351 2.35175 -2.72435 0
M  V30 4481 C 430.959 1.76572 -4.11736 0
M  V30 4482 C 432.703 3.11564 -2.8832 0
M  V30 4483 C 430.61 2.79958 -5.20939 0
M  V30 4484 H 429.54 0.487541 -0.57517 0
M  V30 4485 H 432.191 0.575708 -1.74235 0
M  V30 4486 H 430.573 3.10229 -2.46118 0
M  V30 4487 H 431.747 1.07799 -4.48013 0
M  V30 4488 H 430.062 1.12722 -4.00852 0
M  V30 4489 H 432.659 3.88794 -3.67074 0
M  V30 4490 H 433.002 3.66594 -1.97268 0
M  V30 4491 H 433.535 2.43623 -3.14472 0
M  V30 4492 H 430.274 2.29766 -6.13912 0
M  V30 4493 H 429.794 3.47101 -4.89164 0
M  V30 4494 H 431.473 3.43198 -5.48474 0
M  V30 4495 N 431.605 1.3629 0.791371 0
M  V30 4496 C 433.016 1.27225 1.36641 0
M  V30 4497 C 433.367 -0.0887968 1.95999 0
M  V30 4498 O 432.492 -0.990207 1.92416 0
M  V30 4499 C 433.087 2.30375 2.48421 0
M  V30 4500 C 431.646 2.25004 3.01746 0
M  V30 4501 C 430.793 2.15259 1.7481 0
M  V30 4502 H 433.744 1.47198 0.593173 0
M  V30 4503 H 433.765 1.93905 3.27385 0
M  V30 4504 H 433.277 3.29422 2.05189 0
M  V30 4505 H 431.378 1.29417 3.49403 0
M  V30 4506 H 431.491 3.1761 3.58693 0
M  V30 4507 H 429.855 1.61482 1.96966 0
M  V30 4508 H 430.638 3.16191 1.33709 0
M  V30 4509 N 433.083 -1.0153 1.20538 0
M  V30 4510 C 434.313 -1.78487 1.04048 0
M  V30 4511 C 434.721 -1.84631 -0.413292 0
M  V30 4512 O 434.064 -1.29919 -1.29872 0
M  V30 4513 C 434.126 -3.24367 1.55003 0
M  V30 4514 C 433.79 -3.41827 3.0332 0
M  V30 4515 C 434.787 -3.30941 4.00966 0
M  V30 4516 C 432.472 -3.67602 3.42307 0
M  V30 4517 C 434.466 -3.45577 5.35589 0
M  V30 4518 C 432.153 -3.81881 4.77085 0
M  V30 4519 C 433.151 -3.70874 5.73534 0
M  V30 4520 O 432.839 -3.84714 7.05868 0
M  V30 4521 H 432.571 -0.568108 0.366373 0
M  V30 4522 H 435.125 -1.28677 1.60098 0
M  V30 4523 H 433.355 -3.75266 0.933397 0
M  V30 4524 H 435.044 -3.82963 1.34514 0
M  V30 4525 H 435.81 -3.10964 3.72191 0
M  V30 4526 H 431.689 -3.75256 2.67776 0
M  V30 4527 H 435.233 -3.36902 6.10854 0
M  V30 4528 H 431.13 -4.01359 5.0555 0
M  V30 4529 H 431.898 -4.01724 7.13134 0
M  V30 4530 N 434.561 -1.01147 -1.20859 0
M  V30 4531 C 435.508 -0.577354 -2.23462 0
M  V30 4532 C 436.478 0.399922 -1.61214 0
M  V30 4533 O 437.663 0.300515 -1.88419 0
M  V30 4534 C 434.803 0.083372 -3.44999 0
M  V30 4535 C 433.916 -0.937856 -4.21697 0
M  V30 4536 C 433.051 -0.248717 -5.30617 0
M  V30 4537 C 432.09 -1.25705 -5.99053 0
M  V30 4538 N 431.227 -0.594939 -6.99575 0
M  V30 4539 H 436.067 -1.45695 -2.59956 0
M  V30 4540 H 433.604 -0.729428 -1.27741 0
M  V30 4541 H 435.562 0.483535 -4.14388 0
M  V30 4542 H 434.192 0.926645 -3.09214 0
M  V30 4543 H 433.244 -1.45622 -3.51423 0
M  V30 4544 H 434.556 -1.70493 -4.68757 0
M  V30 4545 H 433.71 0.207215 -6.06346 0
M  V30 4546 H 432.449 0.55071 -4.84581 0
M  V30 4547 H 431.454 -1.72343 -5.2209 0
M  V30 4548 H 432.679 -2.05767 -6.47176 0
M  V30 4549 H 430.625 0.184713 -6.5574 0
M  V30 4550 H 430.542 -1.30017 -7.44736 0
M  V30 4551 H 431.81 -0.162427 -7.79331 0
M  V30 4552 N 436.039 1.36541 -0.78704 0
M  V30 4553 C 437.285 1.99599 -0.358872 0
M  V30 4554 C 437.618 1.62323 1.06606 0
M  V30 4555 O 436.893 0.876858 1.73613 0
M  V30 4556 C 437.176 3.56327 -0.519944 0
M  V30 4557 C 437.029 4.03464 -1.98839 0
M  V30 4558 C 438.348 4.4005 0.0664737 0
M  V30 4559 H 435.467 0.725107 -0.131869 0
M  V30 4560 H 438.109 1.6199 -0.992936 0
M  V30 4561 H 436.259 3.88495 0.0198321 0
M  V30 4562 H 437.931 3.81793 -2.58905 0
M  V30 4563 H 436.174 3.55092 -2.49183 0
M  V30 4564 H 436.845 5.12439 -2.05207 0
M  V30 4565 H 439.321 4.14228 -0.394267 0
M  V30 4566 H 438.197 5.48847 -0.0762682 0
M  V30 4567 H 438.458 4.26655 1.15835 0
M  V30 4568 N 437.518 0.538854 1.48102 0
M  V30 4569 C 438.764 0.00801365 2.02798 0
M  V30 4570 C 439.097 -1.3309 1.41424 0
M  V30 4571 O 438.372 -1.86169 0.563158 0
M  V30 4572 C 438.655 -0.104589 3.59948 0
M  V30 4573 C 438.508 1.26012 4.31788 0
M  V30 4574 C 439.827 -0.827055 4.32259 0
M  V30 4575 H 436.946 0.00438624 0.736987 0
M  V30 4576 H 439.588 0.6976 1.7673 0
M  V30 4577 H 437.738 -0.691893 3.82289 0
M  V30 4578 H 439.41 1.88922 4.2084 0
M  V30 4579 H 437.653 1.83968 3.92859 0
M  V30 4580 H 438.324 1.13424 5.40221 0
M  V30 4581 H 440.8 -0.328578 4.14801 0
M  V30 4582 H 439.676 -0.87476 5.41885 0
M  V30 4583 H 439.937 -1.87927 4.0017 0
M  V30 4584 N 438.996 -1.55193 0.274407 0
M  V30 4585 C 439.959 -2.212 -0.600279 0
M  V30 4586 C 440.959 -1.18963 -1.08187 0
M  V30 4587 O 442.149 -1.43873 -0.982158 0
M  V30 4588 C 439.281 -2.87739 -1.82809 0
M  V30 4589 H 440.474 -2.9989 -0.0239682 0
M  V30 4590 H 438.027 -1.5628 0.0250192 0
M  V30 4591 H 438.762 -2.13058 -2.44493 0
M  V30 4592 H 438.547 -3.62658 -1.49069 0
M  V30 4593 H 440.037 -3.38171 -2.45011 0
M  V30 4594 N 440.474 -0.00167713 -1.576 0
M  V30 4595 C 441.89 0.354422 -1.55615 0
M  V30 4596 C 442.09 1.74679 -1.00447 0
M  V30 4597 O 441.146 2.4428 -0.639022 0
M  V30 4598 C 442.459 0.22812 -2.99833 0
M  V30 4599 C 444.007 0.302934 -3.11531 0
M  V30 4600 C 444.482 0.205737 -4.57538 0
M  V30 4601 N 445.973 0.263584 -4.62449 0
M  V30 4602 C 446.708 0.211742 -5.73009 0
M  V30 4603 N 446.204 0.110399 -6.92712 0
M  V30 4604 N 447.997 0.263729 -5.61481 0
M  V30 4605 H 440.148 -0.912498 -1.918 0
M  V30 4606 H 442.411 -0.349928 -0.881053 0
M  V30 4607 H 442.117 -0.729934 -3.44042 0
M  V30 4608 H 441.991 1.00951 -3.6344 0
M  V30 4609 H 444.378 1.25143 -2.67251 0
M  V30 4610 H 444.459 -0.508357 -2.50698 0
M  V30 4611 H 444.103 -0.739225 -5.02492 0
M  V30 4612 H 444.033 1.03554 -5.16318 0
M  V30 4613 H 446.524 0.343173 -3.76339 0
M  V30 4614 H 446.837 0.0767828 -7.72762 0
M  V30 4615 H 445.182 0.0760025 -6.94958 0
M  V30 4616 H 448.373 0.34111 -4.66855 0
M  V30 4617 H 448.546 0.219862 -6.47627 0
M  V30 4618 N 441.952 1.55251 0.271103 0
M  V30 4619 C 443.368 1.47133 0.618393 0
M  V30 4620 C 443.568 0.686994 1.89427 0
M  V30 4621 O 442.624 0.206609 2.51653 0
M  V30 4622 C 443.937 2.91361 0.743593 0
M  V30 4623 C 445.485 3.01587 0.837522 0
M  V30 4624 C 445.96 4.47073 0.994483 0
M  V30 4625 N 447.451 4.50909 1.05996 0
M  V30 4626 C 448.186 5.60698 1.20024 0
M  V30 4627 N 447.682 6.80348 1.30759 0
M  V30 4628 N 449.475 5.48444 1.23149 0
M  V30 4629 H 441.626 2.04698 -0.566784 0
M  V30 4630 H 443.889 0.928319 -0.192165 0
M  V30 4631 H 443.595 3.51483 -0.123493 0
M  V30 4632 H 443.469 3.40484 1.62328 0
M  V30 4633 H 445.856 2.4156 1.69507 0
M  V30 4634 H 445.937 2.55713 -0.0668086 0
M  V30 4635 H 445.581 5.07703 0.141582 0
M  V30 4636 H 445.511 4.90605 1.91349 0
M  V30 4637 H 448.002 3.6472 0.989316 0
M  V30 4638 H 448.315 7.59772 1.41303 0
M  V30 4639 H 446.66 6.83156 1.27761 0
M  V30 4640 H 449.851 4.53907 1.14394 0
M  V30 4641 H 450.024 6.34049 1.33738 0
M  V30 4642 N 443.43 -0.535701 1.48216 0
M  V30 4643 C 444.34 -1.66785 1.64985 0
M  V30 4644 C 445.356 -1.65654 0.532414 0
M  V30 4645 O 446.532 -1.8471 0.80275 0
M  V30 4646 C 443.597 -3.0326 1.68031 0
M  V30 4647 C 442.658 -3.1529 2.9136 0
M  V30 4648 C 441.891 -4.45255 2.94252 0
M  V30 4649 O 442.114 -5.32011 2.05719 0
M  V30 4650 O 441.048 -4.6153 3.86359 0
M  V30 4651 H 444.874 -1.55576 2.60825 0
M  V30 4652 H 442.459 -0.70815 1.31551 0
M  V30 4653 H 444.341 -3.84436 1.72589 0
M  V30 4654 H 443.016 -3.14805 0.753628 0
M  V30 4655 H 441.923 -2.3343 2.92337 0
M  V30 4656 H 443.256 -3.08658 3.83394 0
M  V30 4657 N 444.908 -1.36708 -0.784132 0
M  V30 4658 C 446.156 -1.30972 -1.53918 0
M  V30 4659 C 446.477 0.109086 -1.94695 0
M  V30 4660 O 445.747 1.05048 -1.65353 0
M  V30 4661 H 444.327 -0.481819 -0.570841 0
M  V30 4662 H 446.989 -1.71063 -0.934002 0
M  V30 4663 H 446.085 -1.94061 -2.44431 0
M  V30 4664 N 446.386 1.0089 -1.21074 0
M  V30 4665 C 447.663 1.71834 -0.934469 0
M  V30 4666 C 448.043 2.0368 0.554753 0
M  V30 4667 O 447.391 1.70742 1.51854 0
M  V30 4668 C 447.601 2.98061 -1.8155 0
M  V30 4669 C 448.949 3.7117 -2.06199 0
M  V30 4670 O 449.973 3.08034 -1.78867 0
M  V30 4671 O 448.832 4.84721 -2.52404 0
M  V30 4672 H 445.926 0.749253 -0.35007 0
M  V30 4673 H 448.472 1.06668 -1.31985 0
M  V30 4674 H 447.244 2.70908 -2.82355 0
M  V30 4675 H 446.867 3.70968 -1.43068 0
M  V30 4676 N 447.864 1.01787 1.20321 0
M  V30 4677 C 449.11 0.708985 1.90003 0
M  V30 4678 C 449.443 -0.759572 1.78729 0
M  V30 4679 O 448.718 -1.55198 1.17234 0
M  V30 4680 C 449.001 1.1469 3.41348 0
M  V30 4681 C 448.854 2.67586 3.61549 0
M  V30 4682 C 450.173 0.71915 4.34185 0
M  V30 4683 H 447.292 0.259034 0.689978 0
M  V30 4684 H 449.934 1.26584 1.41692 0
M  V30 4685 H 448.084 0.673128 3.82624 0
M  V30 4686 H 449.756 3.22826 3.29517 0
M  V30 4687 H 447.999 3.085 3.04976 0
M  V30 4688 H 448.67 2.93281 4.67643 0
M  V30 4689 H 451.146 1.12647 4.00562 0
M  V30 4690 H 450.022 1.05358 5.38694 0
M  V30 4691 H 450.283 -0.379111 4.40472 0
M  V30 4692 N 449.342 -1.36122 0.79427 0
M  V30 4693 C 450.305 -2.28309 0.201889 0
M  V30 4694 C 451.305 -1.49041 -0.603603 0
M  V30 4695 O 452.495 -1.68964 -0.423888 0
M  V30 4696 C 449.627 -3.3321 -0.719978 0
M  V30 4697 H 450.82 -2.82208 1.01481 0
M  V30 4698 H 448.373 -1.45768 0.564037 0
M  V30 4699 H 449.108 -2.84475 -1.55706 0
M  V30 4700 H 448.893 -3.91835 -0.144266 0
M  V30 4701 H 450.383 -4.02044 -1.12916 0
M  V30 4702 N 450.82 -0.546701 -1.47814 0
M  V30 4703 C 451.783 0.196287 -2.28358 0
M  V30 4704 C 452.783 0.852437 -1.36346 0
M  V30 4705 O 453.973 0.709913 -1.59078 0
M  V30 4706 C 451.105 1.28579 -3.15722 0
M  V30 4707 H 452.298 -0.511086 -2.95513 0
M  V30 4708 H 449.851 -0.303248 -1.5333 0
M  V30 4709 H 450.586 2.0259 -2.53235 0
M  V30 4710 H 450.371 0.820229 -3.83425 0
M  V30 4711 H 451.861 1.80793 -3.76435 0
M  V30 4712 N 452.299 1.55045 -0.282633 0
M  V30 4713 C 453.539 2.01668 0.333088 0
M  V30 4714 C 453.903 1.1667 1.52486 0
M  V30 4715 O 455.104 1.52907 2.21072 0
M  V30 4716 C 453.375 3.50509 0.698442 0
M  V30 4717 S 454.934 4.19112 1.29963 0
M  V30 4718 H 451.752 0.703468 0.103219 0
M  V30 4719 H 454.354 1.91233 -0.406222 0
M  V30 4720 H 453.058 4.10015 -0.177693 0
M  V30 4721 H 452.589 3.64943 1.46902 0
M  V30 4722 H 454.604 4.23362 2.58803 0
M  V30 4723 N 453.777 0.010035 1.57597 0
M  V30 4724 C 455.007 -0.682422 1.95004 0
M  V30 4725 C 455.415 -1.67278 0.884014 0
M  V30 4726 O 454.758 -1.83129 -0.144672 0
M  V30 4727 C 454.82 -1.46141 3.28456 0
M  V30 4728 C 454.484 -0.631523 4.52615 0
M  V30 4729 C 455.481 0.0850905 5.1983 0
M  V30 4730 C 453.166 -0.574539 4.99003 0
M  V30 4731 C 455.16 0.847566 6.3174 0
M  V30 4732 C 452.847 0.191655 6.10799 0
M  V30 4733 C 453.845 0.901432 6.77025 0
M  V30 4734 O 453.533 1.65511 7.86677 0
M  V30 4735 H 453.265 -0.194361 0.647456 0
M  V30 4736 H 455.819 0.060312 2.05311 0
M  V30 4737 H 454.049 -2.24885 3.14585 0
M  V30 4738 H 455.738 -2.04016 3.50902 0
M  V30 4739 H 456.504 0.0502812 4.84974 0
M  V30 4740 H 452.383 -1.11654 4.47274 0
M  V30 4741 H 455.927 1.4021 6.83364 0
M  V30 4742 H 451.824 0.228249 6.45096 0
M  V30 4743 H 452.592 1.57287 8.03245 0
M  V30 4744 N 455.255 -1.55392 -0.262866 0
M  V30 4745 C 456.218 -1.88181 -1.30846 0
M  V30 4746 C 457.218 -0.757079 -1.41862 0
M  V30 4747 O 458.408 -1.02519 -1.40838 0
M  V30 4748 C 455.54 -2.09609 -2.68844 0
M  V30 4749 H 456.733 -2.81659 -1.02997 0
M  V30 4750 H 454.286 -1.48039 -0.501414 0
M  V30 4751 H 455.021 -1.18547 -3.01856 0
M  V30 4752 H 454.806 -2.91508 -2.62231 0
M  V30 4753 H 456.296 -2.36215 -3.44372 0
M  V30 4754 N 456.733 0.527833 -1.48498 0
M  V30 4755 C 457.681 1.65313 -1.63628 0
M  V30 4756 C 458.675 1.6177 -0.502676 0
M  V30 4757 O 459.881 1.66601 -0.681469 0
M  V30 4758 H 456.256 0.547518 -0.515488 0
M  V30 4759 H 458.227 1.49696 -2.58135 0
M  V30 4760 C 456.976 3.03576 -1.6952 0
M  V30 4761 H 456.299 3.06997 -2.56111 0
M  V30 4762 H 457.739 3.81923 -1.84149 0
M  V30 4763 C 456.198 3.34089 -0.43432 0
M  V30 4764 O 456.728 3.99151 0.451852 0
M  V30 4765 N 454.934 2.88991 -0.305368 0
M  V30 4766 H 454.481 2.36222 -1.02747 0
M  V30 4767 H 454.439 3.09776 0.537249 0
M  V30 4768 N 458.211 1.37122 0.776871 0
M  V30 4769 C 459.622 1.28667 1.35284 0
M  V30 4770 C 459.973 -0.0680035 1.96082 0
M  V30 4771 O 459.098 -0.969743 1.93455 0
M  V30 4772 C 459.693 2.32997 2.45963 0
M  V30 4773 C 458.252 2.28191 2.99342 0
M  V30 4774 C 457.399 2.17101 1.72517 0
M  V30 4775 H 460.35 1.47819 0.577527 0
M  V30 4776 H 460.371 1.97366 3.2531 0
M  V30 4777 H 459.883 3.3158 2.01684 0
M  V30 4778 H 457.984 1.33115 3.4801 0
M  V30 4779 H 458.097 3.21397 3.55304 0
M  V30 4780 H 456.461 1.63562 1.95242 0
M  V30 4781 H 457.244 3.17591 1.30348 0
M  V30 4782 N 459.689 -1.00246 1.21608 0
M  V30 4783 C 460.914 -1.78167 1.06167 0
M  V30 4784 C 461.339 -1.84138 -0.384035 0
M  V30 4785 O 460.697 -1.28683 -1.27712 0
M  V30 4786 C 460.745 -3.19786 1.66642 0
M  V30 4787 O 459.849 -4.02153 0.913613 0
M  V30 4788 H 459.19 -0.549 0.37349 0
M  V30 4789 H 461.72 -1.25994 1.61204 0
M  V30 4790 H 461.73 -3.70451 1.70969 0
M  V30 4791 H 460.405 -3.14754 2.7185 0
M  V30 4792 H 458.982 -3.60711 0.945635 0
M  V30 4793 N 461.167 -1.02423 -1.1978 0
M  V30 4794 C 462.097 -0.62157 -2.25075 0
M  V30 4795 C 463.078 0.367148 -1.6609 0
M  V30 4796 O 464.263 0.250892 -1.92573 0
M  V30 4797 C 461.393 0.0331826 -3.47284 0
M  V30 4798 C 460.347 -0.877323 -4.18912 0
M  V30 4799 C 459.673 -0.0879296 -5.34628 0
M  V30 4800 C 460.973 -2.18892 -4.74219 0
M  V30 4801 H 462.667 -1.50179 -2.59011 0
M  V30 4802 H 460.213 -0.723547 -1.24502 0
M  V30 4803 H 462.166 0.326488 -4.20133 0
M  V30 4804 H 460.89 0.948164 -3.12534 0
M  V30 4805 H 459.549 -1.15475 -3.47938 0
M  V30 4806 H 459.197 0.828941 -4.96123 0
M  V30 4807 H 458.897 -0.694359 -5.83483 0
M  V30 4808 H 460.421 0.198743 -6.10276 0
M  V30 4809 H 461.835 -1.95746 -5.38847 0
M  V30 4810 H 460.232 -2.74686 -5.33542 0
M  V30 4811 H 461.302 -2.84674 -3.92541 0
M  V30 4812 N 462.645 1.35699 -0.801477 0
M  V30 4813 C 463.608 2.28199 -0.213994 0
M  V30 4814 C 464.608 1.49359 0.595691 0
M  V30 4815 O 465.798 1.69186 0.414921 0
M  V30 4816 C 462.93 3.33587 0.702297 0
M  V30 4817 H 464.123 2.81666 -1.02976 0
M  V30 4818 H 461.676 1.45467 -0.571759 0
M  V30 4819 H 462.411 2.85297 1.54195 0
M  V30 4820 H 462.196 3.91906 0.123484 0
M  V30 4821 H 463.686 4.02638 1.10783 0
M  V30 4822 N 464.123 0.554532 1.47522 0
M  V30 4823 C 465.055 -0.232106 2.28022 0
M  V30 4824 C 466.068 -0.881865 1.36847 0
M  V30 4825 O 467.257 -0.756168 1.61692 0
M  V30 4826 C 464.357 -1.34604 3.11022 0
M  V30 4827 C 463.53 -0.793582 4.30141 0
M  V30 4828 C 462.589 -1.79168 4.94758 0
M  V30 4829 O 461.615 -1.33886 5.5323 0
M  V30 4830 N 462.817 -3.12495 4.89211 0
M  V30 4831 H 465.582 0.458407 2.96173 0
M  V30 4832 H 463.143 0.390433 1.57122 0
M  V30 4833 H 465.135 -2.01243 3.51118 0
M  V30 4834 H 463.705 -1.93983 2.45131 0
M  V30 4835 H 462.925 0.0495025 3.94169 0
M  V30 4836 H 464.213 -0.403776 5.07195 0
M  V30 4837 H 463.611 -3.51931 4.42901 0
M  V30 4838 H 462.168 -3.74698 5.33333 0
M  V30 4839 N 465.601 -1.54893 0.290851 0
M  V30 4840 C 466.511 -2.26812 -0.59945 0
M  V30 4841 C 467.527 -1.29963 -1.15696 0
M  V30 4842 O 468.703 -1.62928 -1.18391 0
M  V30 4843 C 465.768 -2.98716 -1.75982 0
M  V30 4844 C 464.829 -4.1108 -1.2374 0
M  V30 4845 C 464.062 -4.79546 -2.34246 0
M  V30 4846 O 464.285 -4.47309 -3.53936 0
M  V30 4847 O 463.219 -5.67165 -2.01512 0
M  V30 4848 H 467.045 -3.03696 -0.0163561 0
M  V30 4849 H 464.63 -1.49289 0.0576755 0
M  V30 4850 H 466.512 -3.43851 -2.43607 0
M  V30 4851 H 465.187 -2.24737 -2.3297 0
M  V30 4852 H 464.094 -3.70367 -0.527163 0
M  V30 4853 H 465.427 -4.87007 -0.71307 0
M  V30 4854 N 467.08 -0.0183926 -1.57589 0
M  V30 4855 C 467.99 0.982943 -2.13015 0
M  V30 4856 C 469.006 1.36443 -1.07979 0
M  V30 4857 O 470.182 1.44802 -1.3998 0
M  V30 4858 C 467.247 2.25024 -2.63752 0
M  V30 4859 C 466.308 1.93018 -3.83461 0
M  V30 4860 C 465.541 3.13706 -4.31769 0
M  V30 4861 O 465.764 4.2601 -3.79305 0
M  V30 4862 O 464.698 2.96629 -5.23732 0
M  V30 4863 H 468.524 0.541709 -2.9883 0
M  V30 4864 H 466.109 0.201565 -1.48034 0
M  V30 4865 H 467.991 2.99441 -2.96502 0
M  V30 4866 H 466.666 2.68349 -1.81026 0
M  V30 4867 H 465.573 1.16019 -3.55655 0
M  V30 4868 H 466.906 1.54516 -4.67317 0
M  V30 4869 N 468.558 1.5553 0.254621 0
M  V30 4870 C 469.488 1.9268 1.31897 0
M  V30 4871 C 470.469 0.790797 1.506 0
M  V30 4872 O 471.654 1.05045 1.63337 0
M  V30 4873 C 468.784 2.21477 2.67517 0
M  V30 4874 C 467.738 3.37256 2.63519 0
M  V30 4875 C 467.064 3.51576 4.02862 0
M  V30 4876 C 468.364 4.73157 2.21179 0
M  V30 4877 H 470.058 2.81832 1.01051 0
M  V30 4878 H 467.604 1.35599 0.484662 0
M  V30 4879 H 469.557 2.46055 3.42104 0
M  V30 4880 H 468.281 1.29144 2.99982 0
M  V30 4881 H 466.94 3.12675 1.9139 0
M  V30 4882 H 466.588 2.56676 4.32581 0
M  V30 4883 H 466.288 4.2943 4.01078 0
M  V30 4884 H 467.812 3.78467 4.79161 0
M  V30 4885 H 469.226 4.97158 2.85494 0
M  V30 4886 H 467.623 5.54058 2.30521 0
M  V30 4887 H 468.693 4.70739 1.16332 0
M  V30 4888 N 470.036 -0.519951 1.48776 0
M  V30 4889 C 471.284 -1.2727 1.56993 0
M  V30 4890 C 471.605 -1.9339 0.25004 0
M  V30 4891 O 470.875 -1.81822 -0.729216 0
M  V30 4892 H 469.455 -0.472732 0.578389 0
M  V30 4893 H 472.117 -0.604234 1.85297 0
M  V30 4894 H 471.213 -2.04669 2.3562 0
M  V30 4895 N 471.514 -1.37532 -0.769588 0
M  V30 4896 C 472.76 -1.34063 -1.52966 0
M  V30 4897 C 473.115 0.0737942 -1.92258 0
M  V30 4898 O 472.408 1.03291 -1.61374 0
M  V30 4899 C 472.602 -2.21558 -2.8044 0
M  V30 4900 C 472.431 -3.71367 -2.53608 0
M  V30 4901 C 471.201 -4.40464 -2.47628 0
M  V30 4902 C 473.399 -4.64177 -2.21459 0
M  V30 4903 N 471.381 -5.758 -2.12902 0
M  V30 4904 C 472.752 -5.87907 -1.9689 0
M  V30 4905 C 474.807 -4.52541 -2.07633 0
M  V30 4906 C 473.51 -7.01304 -1.59892 0
M  V30 4907 C 475.536 -5.65825 -1.72034 0
M  V30 4908 C 474.898 -6.88606 -1.48327 0
M  V30 4909 H 470.997 -0.545856 -0.559969 0
M  V30 4910 H 473.581 -1.72773 -0.897634 0
M  V30 4911 H 471.752 -1.85061 -3.41478 0
M  V30 4912 H 473.484 -2.09332 -3.46356 0
M  V30 4913 H 470.239 -3.93491 -2.63556 0
M  V30 4914 H 470.663 -6.47328 -1.9823 0
M  V30 4915 H 475.305 -3.58183 -2.24643 0
M  V30 4916 H 473.023 -7.95594 -1.4162 0
M  V30 4917 H 476.609 -5.58793 -1.61991 0
M  V30 4918 H 475.489 -7.74779 -1.21189 0
M  V30 4919 N 472.992 0.995999 -1.22138 0
M  V30 4920 C 474.22 1.77066 -1.07029 0
M  V30 4921 C 474.635 1.8495 0.379357 0
M  V30 4922 O 473.992 1.3174 1.26297 0
M  V30 4923 C 474.043 3.20533 -1.67155 0
M  V30 4924 O 473.764 3.13082 -3.06449 0
M  V30 4925 C 475.265 4.14461 -1.5728 0
M  V30 4926 H 472.485 0.556179 -0.375374 0
M  V30 4927 H 475.029 1.25238 -1.61666 0
M  V30 4928 H 473.184 3.6944 -1.16589 0
M  V30 4929 H 473.598 4.03283 -3.35355 0
M  V30 4930 H 475.072 5.1289 -2.04078 0
M  V30 4931 H 475.549 4.36005 -0.528795 0
M  V30 4932 H 476.155 3.71449 -2.07136 0
M  V30 4933 N 474.47 1.03057 1.19235 0
M  V30 4934 C 475.433 0.617418 2.20727 0
M  V30 4935 C 476.433 -0.319856 1.57587 0
M  V30 4936 O 477.623 -0.106633 1.73873 0
M  V30 4937 C 474.755 -0.096296 3.40764 0
M  V30 4938 H 475.948 1.51544 2.58794 0
M  V30 4939 H 473.501 0.821949 1.32942 0
M  V30 4940 H 474.236 -1.00859 3.08217 0
M  V30 4941 H 474.021 0.577217 3.87828 0
M  V30 4942 H 475.511 -0.372219 4.15938 0
M  V30 4943 N 475.948 -1.35272 0.808662 0
M  V30 4944 C 476.911 -2.28082 0.226093 0
M  V30 4945 C 477.911 -1.49673 -0.587762 0
M  V30 4946 O 479.101 -1.69404 -0.405943 0
M  V30 4947 C 476.233 -3.33955 -0.684596 0
M  V30 4948 H 477.426 -2.81116 1.04469 0
M  V30 4949 H 474.979 -1.45162 0.579466 0
M  V30 4950 H 475.714 -2.86111 -1.5268 0
M  V30 4951 H 475.499 -3.91965 -0.102699 0
M  V30 4952 H 476.989 -4.03219 -1.08646 0
M  V30 4953 N 477.426 -0.562348 -1.47226 0
M  V30 4954 C 478.356 0.170627 -2.32876 0
M  V30 4955 C 479.337 0.903748 -1.44106 0
M  V30 4956 O 480.522 0.883206 -1.72954 0
M  V30 4957 C 477.652 1.19786 -3.25989 0
M  V30 4958 C 476.606 0.580875 -4.2404 0
M  V30 4959 C 475.932 1.71311 -5.06514 0
M  V30 4960 C 477.232 -0.468714 -5.20193 0
M  V30 4961 H 478.926 -0.544441 -2.94408 0
M  V30 4962 H 476.472 -0.263271 -1.41573 0
M  V30 4963 H 478.425 1.71884 -3.84752 0
M  V30 4964 H 477.149 1.94294 -2.62521 0
M  V30 4965 H 475.808 0.0811538 -3.6651 0
M  V30 4966 H 475.456 2.44736 -4.39447 0
M  V30 4967 H 475.156 1.30604 -5.72902 0
M  V30 4968 H 476.68 2.23725 -5.68137 0
M  V30 4969 H 478.094 -0.0336028 -5.7329 0
M  V30 4970 H 476.491 -0.794957 -5.94811 0
M  V30 4971 H 477.561 -1.36269 -4.65359 0
M  V30 4972 N 478.904 1.54736 -0.299062 0
M  V30 4973 C 480.152 1.99706 0.31017 0
M  V30 4974 C 480.473 1.18896 1.54559 0
M  V30 4975 O 479.743 0.284445 1.93824 0
M  V30 4976 H 478.323 0.737686 0.117596 0
M  V30 4977 H 480.985 1.9054 -0.409943 0
M  V30 4978 H 480.081 3.06596 0.58355 0
M  V30 4979 N 480.382 0.0267497 1.57577 0
M  V30 4980 C 481.312 -0.954308 2.13108 0
M  V30 4981 C 482.293 -1.34088 1.04663 0
M  V30 4982 O 483.478 -1.41992 1.32484 0
M  V30 4983 C 480.608 -2.23744 2.65624 0
M  V30 4984 C 479.562 -1.99168 3.78835 0
M  V30 4985 C 478.888 -3.33726 4.17769 0
M  V30 4986 C 480.188 -1.33277 5.0501 0
M  V30 4987 H 481.882 -0.491848 2.95332 0
M  V30 4988 H 479.428 -0.23514 1.42067 0
M  V30 4989 H 481.381 -2.92754 3.03106 0
M  V30 4990 H 480.105 -2.72151 1.80558 0
M  V30 4991 H 478.764 -1.32577 3.41788 0
M  V30 4992 H 478.412 -3.79888 3.29688 0
M  V30 4993 H 478.112 -3.18089 4.94058 0
M  V30 4994 H 479.636 -4.04008 4.57832 0
M  V30 4995 H 481.05 -1.92283 5.40093 0
M  V30 4996 H 479.447 -1.28045 5.8628 0
M  V30 4997 H 480.517 -0.305411 4.83937 0
M  V30 4998 N 481.861 -1.55662 -0.24637 0
M  V30 4999 C 483.138 -1.68272 -0.997198 0
M  V30 5000 C 483.518 -0.566785 -2.03349 0
M  V30 5001 O 482.866 0.429688 -2.24424 0
M  V30 5002 C 483.076 -3.08594 -1.63006 0
M  V30 5003 C 484.424 -3.6721 -2.13171 0
M  V30 5004 O 485.448 -3.11397 -1.72946 0
M  V30 5005 O 484.307 -4.65054 -2.87031 0
M  V30 5006 H 481.401 -0.684429 -0.464205 0
M  V30 5007 H 483.947 -1.67993 -0.240114 0
M  V30 5008 H 482.719 -3.81264 -0.880527 0
M  V30 5009 H 482.342 -3.12886 -2.45333 0
M  V30 5010 N 483.339 0.512053 -1.4905 0
M  V30 5011 C 484.755 0.84224 -1.35567 0
M  V30 5012 C 484.955 1.97878 -0.380319 0
M  V30 5013 O 484.011 2.51769 0.19201 0
M  V30 5014 C 485.324 1.19286 -2.76028 0
M  V30 5015 C 486.872 1.30171 -2.84648 0
M  V30 5016 C 487.347 1.68568 -4.25851 0
M  V30 5017 N 488.838 1.75638 -4.28609 0
M  V30 5018 C 489.573 2.06769 -5.34821 0
M  V30 5019 N 489.069 2.36201 -6.51292 0
M  V30 5020 N 490.862 2.07927 -5.22229 0
M  V30 5021 H 483.013 -0.237574 -2.11067 0
M  V30 5022 H 485.276 -0.0436747 -0.946993 0
M  V30 5023 H 484.982 0.431199 -3.49047 0
M  V30 5024 H 484.856 2.13889 -3.10695 0
M  V30 5025 H 487.243 2.05411 -2.11873 0
M  V30 5026 H 487.324 0.336457 -2.53578 0
M  V30 5027 H 486.968 0.938824 -4.99148 0
M  V30 5028 H 486.898 2.66174 -4.54377 0
M  V30 5029 H 489.389 1.55097 -3.44606 0
M  V30 5030 H 489.702 2.59112 -7.28066 0
M  V30 5031 H 488.047 2.33681 -6.54536 0
M  V30 5032 H 491.238 1.84403 -4.30248 0
M  V30 5033 H 491.411 2.31856 -6.05101 0
M  V30 5034 N 484.817 1.37938 0.762283 0
M  V30 5035 C 485.75 1.2884 1.88349 0
M  V30 5036 C 486.728 0.167084 1.61739 0
M  V30 5037 O 487.912 0.34292 1.85355 0
M  V30 5038 C 485.039 0.994257 3.23778 0
M  V30 5039 C 484.085 2.13376 3.69287 0
M  V30 5040 S 484.918 3.75439 3.81845 0
M  V30 5041 C 486.074 3.48195 5.20107 0
M  V30 5042 H 486.307 2.23736 1.95779 0
M  V30 5043 H 483.84 1.23672 0.924368 0
M  V30 5044 H 485.798 0.83138 4.01993 0
M  V30 5045 H 484.459 0.0626251 3.14038 0
M  V30 5046 H 483.652 1.88319 4.67495 0
M  V30 5047 H 483.254 2.25726 2.98201 0
M  V30 5048 H 485.546 3.0377 6.05583 0
M  V30 5049 H 486.489 4.45765 5.50181 0
M  V30 5050 H 486.897 2.82905 4.88493 0
M  V30 5051 N 486.295 -0.989507 1.22664 0
M  V30 5052 C 487.535 -1.7447 1.06488 0
M  V30 5053 C 487.899 -1.8794 -0.392737 0
M  V30 5054 O 489.1 -2.60175 -0.675446 0
M  V30 5055 C 487.371 -3.11043 1.76031 0
M  V30 5056 S 488.93 -4.02258 1.7531 0
M  V30 5057 H 485.748 -0.600123 0.381278 0
M  V30 5058 H 488.35 -1.18283 1.55658 0
M  V30 5059 H 487.054 -2.98884 2.81241 0
M  V30 5060 H 486.585 -3.72301 1.27105 0
M  V30 5061 H 488.6 -4.89623 0.805208 0
M  V30 5062 N 487.773 -1.03688 -1.18687 0
M  V30 5063 C 488.683 -0.634908 -2.25845 0
M  V30 5064 C 489.699 0.337065 -1.70704 0
M  V30 5065 O 490.875 0.192943 -2.00474 0
M  V30 5066 C 487.94 -0.000180054 -3.467 0
M  V30 5067 C 487.001 -1.02067 -4.1699 0
M  V30 5068 C 486.234 -0.41614 -5.32075 0
M  V30 5069 O 486.457 0.778712 -5.65059 0
M  V30 5070 O 485.391 -1.14296 -5.90948 0
M  V30 5071 H 489.217 -1.52757 -2.62486 0
M  V30 5072 H 486.802 -0.807533 -1.25695 0
M  V30 5073 H 488.684 0.353342 -4.19916 0
M  V30 5074 H 487.359 0.866367 -3.11891 0
M  V30 5075 H 486.266 -1.42592 -3.45859 0
M  V30 5076 H 487.599 -1.85786 -4.5579 0
M  V30 5077 N 489.251 1.34841 -0.815825 0
M  V30 5078 C 490.528 1.92908 -0.323416 0
M  V30 5079 C 490.908 1.74479 1.18828 0
M  V30 5080 O 490.256 1.11928 1.99209 0
M  V30 5081 C 490.466 3.40957 -0.744952 0
M  V30 5082 C 491.814 4.18107 -0.739716 0
M  V30 5083 O 492.838 3.49511 -0.68708 0
M  V30 5084 O 491.697 5.40517 -0.806456 0
M  V30 5085 H 488.791 0.822436 -0.0867646 0
M  V30 5086 H 491.337 1.4386 -0.90014 0
M  V30 5087 H 490.109 3.4814 -1.78646 0
M  V30 5088 H 489.732 3.97341 -0.143535 0
M  V30 5089 N 490.729 0.570148 1.46925 0
M  V30 5090 C 491.659 -0.158274 2.32963 0
M  V30 5091 C 492.64 -0.896093 1.44583 0
M  V30 5092 O 493.825 -0.874022 1.7342 0
M  V30 5093 C 490.955 -1.18055 3.26619 0
M  V30 5094 C 489.909 -0.558379 4.24342 0
M  V30 5095 C 489.235 -1.68623 5.07415 0
M  V30 5096 C 490.535 0.496295 5.19937 0
M  V30 5097 H 492.229 0.560046 2.94115 0
M  V30 5098 H 489.775 0.270775 1.41431 0
M  V30 5099 H 491.728 -1.69841 3.85658 0
M  V30 5100 H 490.452 -1.92899 2.63548 0
M  V30 5101 H 489.111 -0.0617157 3.66548 0
M  V30 5102 H 488.759 -2.42402 4.40738 0
M  V30 5103 H 488.459 -1.27564 5.73586 0
M  V30 5104 H 489.983 -2.20709 5.69315 0
M  V30 5105 H 491.397 0.0640052 5.73264 0
M  V30 5106 H 489.794 0.82649 5.94381 0
M  V30 5107 H 490.864 1.38735 4.6463 0
M  V30 5108 N 492.207 -1.54576 0.307264 0
M  V30 5109 C 493.453 -2.01272 -0.293453 0
M  V30 5110 C 493.808 -1.19178 -1.51044 0
M  V30 5111 O 493.101 -0.261704 -1.89804 0
M  V30 5112 C 493.295 -3.50572 -0.695253 0
M  V30 5113 C 493.124 -4.47118 0.481249 0
M  V30 5114 C 491.894 -4.958 0.97524 0
M  V30 5115 C 494.092 -4.96853 1.32823 0
M  V30 5116 N 492.074 -5.76212 2.11785 0
M  V30 5117 C 493.445 -5.75028 2.31824 0
M  V30 5118 C 495.5 -4.79026 1.35788 0
M  V30 5119 C 494.203 -6.37276 3.33574 0
M  V30 5120 C 496.229 -5.42097 2.364 0
M  V30 5121 C 495.591 -6.2011 3.34129 0
M  V30 5122 H 491.69 -0.778709 -0.0716705 0
M  V30 5123 H 494.274 -1.89695 0.438602 0
M  V30 5124 H 492.445 -3.62427 -1.39647 0
M  V30 5125 H 494.177 -3.84056 -1.27604 0
M  V30 5126 H 490.932 -4.70405 0.549184 0
M  V30 5127 H 491.356 -6.21101 2.69375 0
M  V30 5128 H 495.998 -4.18288 0.616021 0
M  V30 5129 H 493.716 -6.97144 4.08676 0
M  V30 5130 H 497.302 -5.30229 2.39475 0
M  V30 5131 H 496.182 -6.68049 4.10707 0
M  V30 5132 N 493.685 -0.035106 -1.57561 0
M  V30 5133 C 495.101 0.321334 -1.56332 0
M  V30 5134 C 495.301 1.72509 -1.04129 0
M  V30 5135 O 494.357 2.4287 -0.690694 0
M  V30 5136 C 495.67 0.164469 -3.0025 0
M  V30 5137 C 497.218 0.236786 -3.12103 0
M  V30 5138 C 497.693 0.10864 -4.57871 0
M  V30 5139 N 499.184 0.165433 -4.62904 0
M  V30 5140 C 499.919 0.0901506 -5.73329 0
M  V30 5141 N 499.415 -0.0365606 -6.9279 0
M  V30 5142 N 501.208 0.144572 -5.61914 0
M  V30 5143 H 493.359 -0.952976 -1.89821 0
M  V30 5144 H 495.622 -0.368537 -0.873432 0
M  V30 5145 H 495.328 -0.802746 -3.42416 0
M  V30 5146 H 495.202 0.932194 -3.655 0
M  V30 5147 H 497.589 1.19446 -2.69845 0
M  V30 5148 H 497.67 -0.561419 -2.49563 0
M  V30 5149 H 497.314 -0.845644 -5.00811 0
M  V30 5150 H 497.244 0.925786 -5.18398 0
M  V30 5151 H 499.735 0.263269 -3.76982 0
M  V30 5152 H 500.048 -0.0871487 -7.72751 0
M  V30 5153 H 498.393 -0.0714256 -6.94963 0
M  V30 5154 H 501.584 0.242006 -4.67474 0
M  V30 5155 H 501.757 0.0824413 -6.47948 0
M  V30 5156 N 495.163 1.55791 0.238111 0
M  V30 5157 C 496.409 1.79211 0.962035 0
M  V30 5158 C 496.764 0.605463 1.82625 0
M  V30 5159 O 496.057 -0.40104 1.87356 0
M  V30 5160 C 496.251 3.05869 1.84875 0
M  V30 5161 C 496.08 4.36739 1.07186 0
M  V30 5162 C 494.85 4.99346 0.773424 0
M  V30 5163 C 497.048 5.1237 0.445168 0
M  V30 5164 N 495.03 6.13894 -0.0266037 0
M  V30 5165 C 496.401 6.19613 -0.219023 0
M  V30 5166 C 498.456 4.96622 0.356522 0
M  V30 5167 C 497.159 7.1282 -0.963358 0
M  V30 5168 C 499.185 5.90214 -0.374304 0
M  V30 5169 C 498.547 6.96872 -1.0271 0
M  V30 5170 H 494.646 0.707627 0.332849 0
M  V30 5171 H 497.23 1.93284 0.234368 0
M  V30 5172 H 495.401 2.93108 2.54837 0
M  V30 5173 H 497.133 3.17547 2.5089 0
M  V30 5174 H 493.888 4.60948 1.08738 0
M  V30 5175 H 494.312 6.75727 -0.414968 0
M  V30 5176 H 498.954 4.14232 0.846878 0
M  V30 5177 H 496.672 7.94704 -1.46529 0
M  V30 5178 H 500.258 5.80106 -0.443678 0
M  V30 5179 H 499.138 7.68045 -1.58358 0
M  V30 5180 N 496.642 -0.504142 1.49319 0
M  V30 5181 C 497.574 -1.62265 1.61872 0
M  V30 5182 C 498.587 -1.54881 0.501573 0
M  V30 5183 O 499.776 -1.6087 0.773497 0
M  V30 5184 C 496.876 -3.01042 1.55651 0
M  V30 5185 C 496.049 -3.33642 2.82845 0
M  V30 5186 C 495.108 -4.51816 2.69719 0
M  V30 5187 O 494.134 -4.53755 3.4365 0
M  V30 5188 N 495.336 -5.51543 1.81055 0
M  V30 5189 H 498.101 -1.51924 2.58339 0
M  V30 5190 H 495.662 -0.691954 1.46368 0
M  V30 5191 H 497.654 -3.78013 1.44528 0
M  V30 5192 H 496.224 -3.05323 0.670546 0
M  V30 5193 H 495.444 -2.45598 3.08343 0
M  V30 5194 H 496.732 -3.5222 3.67177 0
M  V30 5195 H 496.13 -5.52774 1.20241 0
M  V30 5196 H 494.687 -6.27629 1.75856 0
M  V30 5197 N 498.12 -1.38341 -0.754957 0
M  V30 5198 C 499.067 -1.3546 -1.86867 0
M  V30 5199 C 500.037 -0.217369 -1.64672 0
M  V30 5200 O 501.222 -0.409383 -1.86356 0
M  V30 5201 C 498.362 -1.18413 -3.24149 0
M  V30 5202 C 497.475 -2.41511 -3.58185 0
M  V30 5203 C 496.61 -2.17205 -4.84763 0
M  V30 5204 C 495.649 -3.36081 -5.11582 0
M  V30 5205 N 494.786 -3.11219 -6.29354 0
M  V30 5206 H 499.626 -2.30672 -1.88664 0
M  V30 5207 H 497.163 -1.14607 -0.922154 0
M  V30 5208 H 499.121 -1.06545 -4.03366 0
M  V30 5209 H 497.751 -0.268397 -3.21682 0
M  V30 5210 H 496.803 -2.64056 -2.73822 0
M  V30 5211 H 498.115 -3.30115 -3.73932 0
M  V30 5212 H 497.269 -2.02465 -5.7192 0
M  V30 5213 H 496.008 -1.25964 -4.71152 0
M  V30 5214 H 495.013 -3.51341 -4.22894 0
M  V30 5215 H 496.238 -4.28196 -5.27091 0
M  V30 5216 H 494.184 -2.22624 -6.17069 0
M  V30 5217 H 494.101 -3.93373 -6.45596 0
M  V30 5218 H 495.369 -3.00132 -7.19403 0
M  V30 5219 N 499.598 0.982988 -1.23187 0
M  V30 5220 C 500.53 2.07729 -0.968572 0
M  V30 5221 C 501.543 1.62702 0.0564821 0
M  V30 5222 O 502.732 1.77603 -0.178733 0
M  V30 5223 C 499.832 3.36071 -0.436974 0
M  V30 5224 C 499.005 4.10081 -1.52159 0
M  V30 5225 C 498.064 5.16701 -0.99532 0
M  V30 5226 O 497.09 5.43727 -1.68373 0
M  V30 5227 N 498.292 5.80226 0.178192 0
M  V30 5228 H 501.057 2.30894 -1.9107 0
M  V30 5229 H 498.618 1.14949 -1.1401 0
M  V30 5230 H 500.61 4.04639 -0.0700051 0
M  V30 5231 H 499.18 3.09893 0.410509 0
M  V30 5232 H 498.4 3.36004 -2.06144 0
M  V30 5233 H 499.688 4.56295 -2.25105 0
M  V30 5234 H 499.086 5.60651 0.754096 0
M  V30 5235 H 497.643 6.49982 0.486449 0
M  V30 5236 N 501.076 1.04316 1.18135 0
M  V30 5237 C 502.024 0.630175 2.23901 0
M  V30 5238 C 503.018 -0.344254 1.65865 0
M  V30 5239 O 504.224 -0.211273 1.78756 0
M  V30 5240 H 500.599 0.185578 0.728742 0
M  V30 5241 H 502.57 1.53253 2.56039 0
M  V30 5242 C 501.319 0.011666 3.47698 0
M  V30 5243 H 500.642 0.752526 3.92654 0
M  V30 5244 H 502.082 -0.240046 4.2332 0
M  V30 5245 C 500.541 -1.23913 3.13285 0
M  V30 5246 O 501.071 -2.32959 3.27251 0
M  V30 5247 N 499.277 -1.13338 2.67587 0
M  V30 5248 H 498.824 -0.246006 2.56423 0
M  V30 5249 H 498.782 -1.97116 2.44934 0
M  V30 5250 N 502.554 -1.34406 0.822964 0
M  V30 5251 C 503.965 -1.8069 0.469879 0
M  V30 5252 C 504.316 -1.68223 -1.00972 0
M  V30 5253 O 503.441 -1.22226 -1.78577 0
M  V30 5254 C 504.036 -3.28064 0.846118 0
M  V30 5255 C 502.595 -3.72428 0.545402 0
M  V30 5256 C 501.742 -2.56116 1.06301 0
M  V30 5257 H 504.693 -1.22153 1.01313 0
M  V30 5258 H 504.714 -3.80205 0.149922 0
M  V30 5259 H 504.226 -3.37107 1.92304 0
M  V30 5260 H 502.327 -3.68924 -0.522109 0
M  V30 5261 H 502.44 -4.66548 1.0895 0
M  V30 5262 H 500.804 -2.50048 0.484554 0
M  V30 5263 H 501.587 -2.67928 2.14638 0
M  V30 5264 N 504.032 -0.577932 -1.46621 0
M  V30 5265 C 505.257 -0.0652536 -2.07297 0
M  V30 5266 C 505.682 1.22828 -1.4246 0
M  V30 5267 O 505.04 1.74075 -0.506718 0
M  V30 5268 C 505.088 0.0920589 -3.60482 0
M  V30 5269 O 504.192 1.14972 -3.96049 0
M  V30 5270 H 503.533 -0.06065 -0.661224 0
M  V30 5271 H 506.063 -0.799515 -1.88332 0
M  V30 5272 H 506.073 0.299741 -4.06897 0
M  V30 5273 H 504.748 -0.852612 -4.07067 0
M  V30 5274 H 503.325 0.920879 -3.61351 0
M  V30 5275 N 505.51 1.54411 -0.315457 0
M  V30 5276 C 506.758 2.00023 0.288971 0
M  V30 5277 C 507.079 1.20529 1.5329 0
M  V30 5278 O 506.349 0.304986 1.93511 0
M  V30 5279 H 504.929 0.738891 0.109766 0
M  V30 5280 H 507.591 1.90094 -0.430129 0
M  V30 5281 H 506.687 3.07198 0.550999 0
M  V30 5282 N 506.988 0.0434614 1.5754 0
M  V30 5283 C 508.235 -0.632035 1.92384 0
M  V30 5284 C 508.563 -1.71304 0.921157 0
M  V30 5285 O 507.818 -1.95583 -0.067744 0
M  V30 5286 C 508.117 -1.2738 3.3393 0
M  V30 5287 C 507.783 -0.321757 4.49751 0
M  V30 5288 C 506.445 -0.0597611 4.81163 0
M  V30 5289 C 508.797 0.331158 5.20147 0
M  V30 5290 C 506.125 0.862715 5.80322 0
M  V30 5291 C 508.477 1.24178 6.20292 0
M  V30 5292 C 507.141 1.51252 6.50138 0
M  V30 5293 H 506.411 -0.231278 0.703983 0
M  V30 5294 H 509.058 0.108294 1.91194 0
M  V30 5295 H 507.363 -2.08921 3.3145 0
M  V30 5296 H 509.06 -1.80326 3.58167 0
M  V30 5297 H 505.65 -0.53614 4.25233 0
M  V30 5298 H 509.834 0.141826 4.96097 0
M  V30 5299 H 505.09 1.08003 6.01785 0
M  V30 5300 H 509.264 1.75381 6.73954 0
M  V30 5301 H 506.891 2.22897 7.26788 0
M  V30 5302 N 508.466 -1.55915 -0.229846 0
M  V30 5303 C 509.714 -1.7819 -0.953565 0
M  V30 5304 C 510.035 -0.610504 -1.85197 0
M  V30 5305 O 509.305 0.372988 -1.92316 0
M  V30 5306 H 507.885 -0.657208 -0.355087 0
M  V30 5307 H 510.547 -1.9337 -0.243693 0
M  V30 5308 H 509.643 -2.70011 -1.56527 0
M  V30 5309 N 509.944 0.496216 -1.49584 0
M  V30 5310 C 511.172 1.27394 -1.63029 0
M  V30 5311 C 511.587 1.86344 -0.303569 0
M  V30 5312 O 510.944 1.68057 0.711547 0
M  V30 5313 C 510.995 2.40077 -2.70269 0
M  V30 5314 O 510.716 1.83549 -3.97796 0
M  V30 5315 C 512.217 3.31372 -2.94462 0
M  V30 5316 H 509.437 0.386211 -0.54871 0
M  V30 5317 H 511.981 0.595163 -1.95648 0
M  V30 5318 H 510.136 3.03775 -2.40415 0
M  V30 5319 H 510.55 2.57561 -4.56905 0
M  V30 5320 H 512.024 4.06707 -3.73221 0
M  V30 5321 H 512.501 3.88654 -2.0456 0
M  V30 5322 H 513.107 2.73435 -3.25751 0
M  V30 5323 N 511.423 1.38739 0.74761 0
M  V30 5324 C 512.355 1.32341 1.87132 0
M  V30 5325 C 513.368 0.234502 1.61102 0
M  V30 5326 O 514.557 0.492516 1.71571 0
M  V30 5327 C 511.657 1.02915 3.22896 0
M  V30 5328 C 510.83 2.22834 3.76383 0
M  V30 5329 C 509.889 1.90059 4.90677 0
M  V30 5330 O 508.915 2.62615 5.04997 0
M  V30 5331 N 510.117 0.859141 5.74107 0
M  V30 5332 H 512.882 2.29175 1.93129 0
M  V30 5333 H 510.443 1.32678 0.927805 0
M  V30 5334 H 512.435 0.79031 3.96908 0
M  V30 5335 H 511.005 0.148572 3.12247 0
M  V30 5336 H 510.225 2.62747 2.93867 0
M  V30 5337 H 511.513 3.02851 4.08851 0
M  V30 5338 H 510.911 0.257564 5.65113 0
M  V30 5339 H 509.468 0.680189 6.48241 0
M  V30 5340 N 512.901 -0.976442 1.23707 0
M  V30 5341 C 513.864 -2.0511 1.02287 0
M  V30 5342 C 514.864 -1.60791 -0.0167195 0
M  V30 5343 O 516.054 -1.72761 0.223408 0
M  V30 5344 C 513.186 -3.36458 0.548507 0
M  V30 5345 H 514.379 -2.25545 1.9766 0
M  V30 5346 H 511.932 -1.15042 1.05806 0
M  V30 5347 H 512.667 -3.21713 -0.408818 0
M  V30 5348 H 512.452 -3.69967 1.29874 0
M  V30 5349 H 513.942 -4.15489 0.419406 0
M  V30 5350 O 514.418 -1.17461 -1.10838 0
M  V30 5351 H 515.109 -0.912283 -1.70872 0
M  V30 END ATOM
M  V30 BEGIN BOND
M  V30 END BOND
M  V30 END CTAB
M  END
$$$$
