drugbank_target|P03915 NADH-ubiquinone oxidoreductase chain 5 (DB00157)
 OpenBabel12092119353D

  0  0  0     0  0            999 V3000
M  V30 BEGIN CTAB
M  V30 COUNTS 9617 9740 0 0 0
M  V30 BEGIN ATOM
M  V30 1 H -0.908 1.98254 -0.117106 0
M  V30 2 N 0 1.576 0 0
M  V30 3 C 0.933 2.03868 1.02534 0
M  V30 4 C 1.911 0.928543 1.3348 0
M  V30 5 O 3.095 1.19667 1.45644 0
M  V30 6 C 0.222 2.43627 2.35294 0
M  V30 7 C -0.732 3.65373 2.2001 0
M  V30 8 S 0.101 5.13292 1.52614 0
M  V30 9 C 1.257 5.56322 2.86805 0
M  V30 10 H 1.49 2.90518 0.631377 0
M  V30 11 H -0.977 1.52953 0.210867 0
M  V30 12 H 0.981 2.67203 3.11629 0
M  V30 13 H -0.358 1.57376 2.7183 0
M  V30 14 H -1.165 3.90944 3.18086 0
M  V30 15 H -1.563 3.418 1.51819 0
M  V30 16 H 0.729 5.58782 3.83104 0
M  V30 17 H 1.672 6.56266 2.65933 0
M  V30 18 H 2.08 4.83886 2.90714 0
M  V30 19 N 1.4781 -0.272755 1.55222 0
M  V30 20 C 2.7061 -1.02255 1.79865 0
M  V30 21 C 3.1211 -1.79924 0.572088 0
M  V30 22 O 2.4781 -1.76638 -0.458842 0
M  V30 23 C 2.5291 -1.98094 3.02392 0
M  V30 24 O 2.2501 -1.23572 4.20311 0
M  V30 25 C 3.7511 -2.84884 3.39641 0
M  V30 26 H 0.9711 -0.302057 0.599168 0
M  V30 27 H 3.5151 -0.303465 2.02236 0
M  V30 28 H 1.6701 -2.65465 2.82147 0
M  V30 29 H 2.0841 -1.88172 4.89583 0
M  V30 30 H 3.5581 -3.47927 4.28545 0
M  V30 31 H 4.0351 -3.54665 2.59055 0
M  V30 32 H 4.6411 -2.23003 3.62146 0
M  V30 33 N 2.9562 -1.48159 -0.537278 0
M  V30 34 C 3.8892 -1.567 -1.65893 0
M  V30 35 C 4.8672 -0.41787 -1.57139 0
M  V30 36 O 6.0512 -0.628461 -1.77715 0
M  V30 37 C 3.1782 -1.48818 -3.04255 0
M  V30 38 C 2.2242 -2.68482 -3.31391 0
M  V30 39 S 3.0572 -4.30516 -3.1846 0
M  V30 40 C 4.2132 -4.2522 -4.59281 0
M  V30 41 H 4.4462 -2.5159 -1.58397 0
M  V30 42 H 1.9792 -1.36602 -0.719672 0
M  V30 43 H 3.9372 -1.44958 -3.84054 0
M  V30 44 H 2.5982 -0.552777 -3.09198 0
M  V30 45 H 1.7912 -2.59085 -4.32309 0
M  V30 46 H 1.3932 -2.69567 -2.59248 0
M  V30 47 H 3.6852 -3.94703 -5.5065 0
M  V30 48 H 4.6282 -5.26292 -4.73732 0
M  V30 49 H 5.0362 -3.55791 -4.38261 0
M  V30 50 N 4.4343 0.785586 -1.36625 0
M  V30 51 C 5.3843 1.88822 -1.27789 0
M  V30 52 C 6.3683 1.60014 -0.168579 0
M  V30 53 O 7.5603 1.72381 -0.401737 0
M  V30 54 C 4.6893 3.26092 -1.07327 0
M  V30 55 C 3.7753 3.60897 -2.22743 0
M  V30 56 N 4.1663 3.66982 -3.48077 0
M  V30 57 C 2.4643 3.90981 -2.14593 0
M  V30 58 C 3.1653 3.98137 -4.24101 0
M  V30 59 N 2.1413 4.13319 -3.53084 0
M  V30 60 H 5.9433 1.91759 -2.22723 0
M  V30 61 H 3.4573 0.981311 -1.29399 0
M  V30 62 H 5.4543 4.04954 -0.990842 0
M  V30 63 H 4.1143 3.24428 -0.132977 0
M  V30 64 H 5.1253 3.49531 -3.82163 0
M  V30 65 H 1.8023 3.9722 -1.2854 0
M  V30 66 H 3.1923 4.09737 -5.32509 0
M  V30 67 N 5.9124 1.20967 1.01018 0
M  V30 68 C 7.1404 1.04956 1.78303 0
M  V30 69 C 7.5554 -0.400915 1.84494 0
M  V30 70 O 6.9124 -1.27826 1.30257 0
M  V30 71 C 6.9634 1.63403 3.22462 0
M  V30 72 O 6.6844 3.02775 3.16637 0
M  V30 73 C 8.1854 1.52432 4.16268 0
M  V30 74 H 5.4054 0.368858 0.560522 0
M  V30 75 H 7.9494 1.60193 1.27116 0
M  V30 76 H 6.1044 1.1227 3.70775 0
M  V30 77 H 6.5184 3.30626 4.07169 0
M  V30 78 H 7.9924 1.98078 5.15237 0
M  V30 79 H 8.4694 0.477875 4.36592 0
M  V30 80 H 9.0754 2.02787 3.73841 0
M  V30 81 N 7.3905 -1.2043 1.01659 0
M  V30 82 C 8.6185 -1.93777 0.725132 0
M  V30 83 C 9.0335 -1.74772 -0.714166 0
M  V30 84 O 8.3905 -1.06169 -1.4844 0
M  V30 85 C 8.4415 -3.45876 1.05129 0
M  V30 86 O 8.1625 -3.6426 2.43406 0
M  V30 87 C 9.6635 -4.36368 0.780891 0
M  V30 88 H 6.8835 -0.615901 0.266284 0
M  V30 89 H 9.4275 -1.52922 1.35776 0
M  V30 90 H 7.5825 -3.8461 0.464065 0
M  V30 91 H 7.9965 -4.58246 2.55169 0
M  V30 92 H 9.4705 -5.41743 1.05918 0
M  V30 93 H 9.9475 -4.38275 -0.284937 0
M  V30 94 H 10.5535 -4.03296 1.35027 0
M  V30 95 N 8.8686 -0.792821 -1.36206 0
M  V30 96 C 9.8016 -0.139422 -2.27774 0
M  V30 97 C 10.7796 0.68649 -1.47398 0
M  V30 98 O 11.9636 0.656738 -1.7669 0
M  V30 99 C 9.0906 0.807947 -3.28922 0
M  V30 100 C 8.1366 0.0633999 -4.26453 0
M  V30 101 S 8.9696 -1.26319 -5.20388 0
M  V30 102 C 10.1256 -0.31991 -6.25082 0
M  V30 103 H 10.3586 -0.915809 -2.82843 0
M  V30 104 H 7.8916 -0.587203 -1.42798 0
M  V30 105 H 9.8496 1.34908 -3.87699 0
M  V30 106 H 8.5106 1.55761 -2.72759 0
M  V30 107 H 7.7036 0.782386 -4.9789 0
M  V30 108 H 7.3056 -0.407352 -3.71775 0
M  V30 109 H 9.5976 0.499985 -6.75653 0
M  V30 110 H 10.5406 -1.00307 -7.00959 0
M  V30 111 H 10.9486 0.0782694 -5.64446 0
M  V30 112 N 10.3467 1.47872 -0.545128 0
M  V30 113 C 11.5747 2.06889 -0.021084 0
M  V30 114 C 11.9897 1.39955 1.2672 0
M  V30 115 O 11.3467 0.492036 1.75742 0
M  V30 116 C 11.3977 3.60996 0.190817 0
M  V30 117 O 11.1187 4.25419 -1.04644 0
M  V30 118 C 12.6197 4.36849 0.753521 0
M  V30 119 H 9.8397 0.669785 -0.0403635 0
M  V30 120 H 12.3837 1.90049 -0.755095 0
M  V30 121 H 10.5387 3.77391 0.87492 0
M  V30 122 H 10.9527 5.17785 -0.836611 0
M  V30 123 H 12.4267 5.45399 0.851139 0
M  V30 124 H 12.9037 4.02306 1.762 0
M  V30 125 H 13.5097 4.25169 0.105503 0
M  V30 126 N 11.8248 0.280983 1.55075 0
M  V30 127 C 13.0528 -0.337293 2.04132 0
M  V30 128 C 13.4678 -1.4903 1.15912 0
M  V30 129 O 12.8248 -1.81606 0.180459 0
M  V30 130 C 12.8758 -0.812706 3.52246 0
M  V30 131 O 12.5968 0.294387 4.3711 0
M  V30 132 C 14.0978 -1.4982 4.17216 0
M  V30 133 H 11.3178 -0.0761638 0.666663 0
M  V30 134 H 13.8618 0.414787 2.00249 0
M  V30 135 H 12.0168 -1.51486 3.56554 0
M  V30 136 H 12.4308 -0.0721325 5.2445 0
M  V30 137 H 13.9048 -1.7822 5.22438 0
M  V30 138 H 14.3818 -2.43168 3.65741 0
M  V30 139 H 14.9878 -0.839742 4.16927 0
M  V30 140 N 13.3029 -1.57598 0.00835791 0
M  V30 141 C 14.2329 -2.1198 -0.979113 0
M  V30 142 C 15.2139 -1.03091 -1.35301 0
M  V30 143 O 16.3989 -1.30818 -1.43528 0
M  V30 144 C 13.5289 -2.62995 -2.26828 0
M  V30 145 C 12.4829 -3.76485 -2.03576 0
M  V30 146 C 11.8089 -4.13846 -3.38579 0
M  V30 147 C 13.1089 -5.0342 -1.39161 0
M  V30 148 H 14.8029 -2.94738 -0.526281 0
M  V30 149 H 12.3489 -1.41783 -0.251704 0
M  V30 150 H 14.3019 -2.99669 -2.96271 0
M  V30 151 H 13.0259 -1.7737 -2.7424 0
M  V30 152 H 11.6849 -3.40217 -1.36557 0
M  V30 153 H 11.3329 -3.25232 -3.83709 0
M  V30 154 H 11.0329 -4.90312 -3.23834 0
M  V30 155 H 12.5569 -4.53086 -4.09323 0
M  V30 156 H 13.9709 -5.37812 -1.98573 0
M  V30 157 H 12.3679 -5.84746 -1.34878 0
M  V30 158 H 13.4379 -4.83548 -0.361868 0
M  V30 159 N 14.781 0.264519 -1.55364 0
M  V30 160 C 16.009 1.013 -1.80405 0
M  V30 161 C 16.424 1.79618 -0.581622 0
M  V30 162 O 15.781 1.76879 0.449468 0
M  V30 163 C 15.832 1.96487 -3.03439 0
M  V30 164 O 15.553 1.21341 -4.20961 0
M  V30 165 C 17.054 2.83079 -3.41147 0
M  V30 166 H 14.274 0.298875 -0.600762 0
M  V30 167 H 16.818 0.292736 -2.02394 0
M  V30 168 H 14.973 2.63965 -2.83551 0
M  V30 169 H 15.387 1.85573 -4.90574 0
M  V30 170 H 16.861 3.4565 -4.30384 0
M  V30 171 H 17.338 3.53286 -2.60932 0
M  V30 172 H 17.944 2.2108 -3.63323 0
M  V30 173 N 16.2591 1.48442 0.529413 0
M  V30 174 C 17.1891 1.65902 1.64313 0
M  V30 175 C 18.1701 0.507897 1.6234 0
M  V30 176 O 19.3551 0.740503 1.79528 0
M  V30 177 C 16.4851 1.69911 3.02898 0
M  V30 178 C 15.4391 2.8453 3.19729 0
M  V30 179 C 14.7651 2.73629 4.59381 0
M  V30 180 C 16.0651 4.25821 3.02447 0
M  V30 181 H 17.7591 2.5914 1.49955 0
M  V30 182 H 15.3051 1.24709 0.719982 0
M  V30 183 H 17.2581 1.80715 3.80684 0
M  V30 184 H 15.9821 0.732524 3.18279 0
M  V30 185 H 14.6411 2.73283 2.44361 0
M  V30 186 H 14.2891 1.74938 4.71599 0
M  V30 187 H 13.9891 3.50541 4.71588 0
M  V30 188 H 15.5131 2.86401 5.39265 0
M  V30 189 H 16.9271 4.37898 3.70024 0
M  V30 190 H 15.3241 5.03735 3.26146 0
M  V30 191 H 16.3941 4.42244 1.98867 0
M  V30 192 N 17.7372 -0.778329 1.37039 0
M  V30 193 C 18.9652 -1.56734 1.35063 0
M  V30 194 C 19.3802 -1.88686 -0.0655597 0
M  V30 195 O 18.7372 -1.5096 -1.02554 0
M  V30 196 C 18.7882 -2.88163 2.18276 0
M  V30 197 O 18.5092 -2.57583 3.54376 0
M  V30 198 C 20.0102 -3.82422 2.24206 0
M  V30 199 H 17.2302 -0.485778 0.462883 0
M  V30 200 H 19.7742 -0.965185 1.8029 0
M  V30 201 H 17.9292 -3.44818 1.76576 0
M  V30 202 H 18.3432 -3.41699 3.97922 0
M  V30 203 H 19.8172 -4.71667 2.86765 0
M  V30 204 H 20.2942 -4.21078 1.24861 0
M  V30 205 H 20.9002 -3.31697 2.6619 0
M  V30 206 N 19.2153 -1.21501 -1.00376 0
M  V30 207 C 20.4403 -1.05977 -1.78279 0
M  V30 208 C 20.8653 0.385994 -1.84097 0
M  V30 209 O 20.2233 1.27849 -1.28547 0
M  V30 210 C 20.2713 -1.66302 -3.19963 0
M  V30 211 O 19.3753 -0.909333 -4.0225 0
M  V30 212 H 18.7163 -0.372906 -0.549397 0
M  V30 213 H 21.2463 -1.6107 -1.26165 0
M  V30 214 H 21.2563 -1.70574 -3.70632 0
M  V30 215 H 19.9313 -2.71515 -3.15043 0
M  V30 216 H 18.5083 -0.941795 -3.60811 0
M  V30 217 N 20.6934 1.19889 -1.02296 0
M  V30 218 C 21.6234 2.25141 -0.619174 0
M  V30 219 C 22.6044 1.66051 0.368915 0
M  V30 220 O 23.7894 1.92546 0.252941 0
M  V30 221 C 20.9194 3.4728 0.0368783 0
M  V30 222 C 19.8734 4.19005 -0.872865 0
M  V30 223 C 19.1994 5.34637 -0.0822402 0
M  V30 224 C 20.4994 4.74452 -2.18387 0
M  V30 225 H 22.1934 2.59171 -1.49903 0
M  V30 226 H 19.7394 1.24579 -0.722222 0
M  V30 227 H 21.6924 4.20098 0.330958 0
M  V30 228 H 20.4164 3.12433 0.95149 0
M  V30 229 H 19.0754 3.48061 -1.15105 0
M  V30 230 H 18.7234 4.96034 0.83422 0
M  V30 231 H 18.4234 5.83557 -0.688149 0
M  V30 232 H 19.9474 6.10255 0.205238 0
M  V30 233 H 21.3614 5.39055 -1.95172 0
M  V30 234 H 19.7584 5.33834 -2.74119 0
M  V30 235 H 20.8284 3.92844 -2.84257 0
M  V30 236 N 22.1715 0.800033 1.35784 0
M  V30 237 C 23.4205 0.37387 1.98205 0
M  V30 238 C 23.7335 -1.06302 1.64193 0
M  V30 239 O 24.9395 -1.59198 2.19928 0
M  V30 240 C 23.3955 0.617532 3.54562 0
M  V30 241 C 23.0035 2.06654 3.9749 0
M  V30 242 C 24.7475 0.256401 4.23725 0
M  V30 243 C 22.6545 2.2563 5.46667 0
M  V30 244 H 21.5845 0.136055 0.741623 0
M  V30 245 H 24.2355 0.983166 1.54939 0
M  V30 246 H 22.6175 -0.0616248 3.95952 0
M  V30 247 H 23.7915 2.78296 3.67271 0
M  V30 248 H 22.1065 2.38691 3.41197 0
M  V30 249 H 24.7035 0.376318 5.33374 0
M  V30 250 H 25.0465 -0.796692 4.08606 0
M  V30 251 H 25.5795 0.889214 3.87734 0
M  V30 252 H 22.3185 3.2936 5.66747 0
M  V30 253 H 21.8385 1.58504 5.78478 0
M  V30 254 H 23.5175 2.06861 6.1304 0
M  V30 255 N 23.6496 -1.47581 0.552962 0
M  V30 256 C 25.0606 -1.86324 0.118463 0
M  V30 257 C 25.4116 -1.46006 -1.3106 0
M  V30 258 O 24.5366 -0.861182 -1.98526 0
M  V30 259 C 25.1316 -3.3816 0.20821 0
M  V30 260 C 23.6906 -3.7601 -0.171226 0
M  V30 261 C 22.8376 -2.71634 0.557686 0
M  V30 262 H 25.7886 -1.39159 0.762928 0
M  V30 263 H 25.8096 -3.76141 -0.574278 0
M  V30 264 H 25.3216 -3.67473 1.24841 0
M  V30 265 H 23.4226 -3.52313 -1.21269 0
M  V30 266 H 23.5356 -4.78745 0.184379 0
M  V30 267 H 21.8996 -2.547 0.00125792 0
M  V30 268 H 22.6826 -3.0379 1.59896 0
M  V30 269 N 25.1277 -0.289203 -1.54924 0
M  V30 270 C 26.5387 0.205791 -1.85562 0
M  V30 271 C 26.8897 1.54351 -1.2112 0
M  V30 272 O 26.0147 2.10435 -0.504601 0
M  V30 273 C 26.6097 0.380177 -3.3666 0
M  V30 274 C 25.1687 0.819395 -3.67373 0
M  V30 275 C 24.3157 -0.079159 -2.77187 0
M  V30 276 H 27.2667 -0.510577 -1.50262 0
M  V30 277 H 27.2877 1.21659 -3.60526 0
M  V30 278 H 26.7997 -0.593589 -3.83534 0
M  V30 279 H 24.9007 1.80413 -3.26009 0
M  V30 280 H 25.0137 0.646957 -4.74712 0
M  V30 281 H 23.3777 0.439565 -2.50878 0
M  V30 282 H 24.1607 -1.04906 -3.26878 0
M  V30 283 N 26.6058 1.57591 -0.0167156 0
M  V30 284 C 27.8548 1.90461 0.663877 0
M  V30 285 C 28.1678 0.893515 1.73999 0
M  V30 286 O 29.3738 1.11302 2.47637 0
M  V30 287 C 27.8298 3.38155 1.23204 0
M  V30 288 C 27.4378 4.47597 0.189866 0
M  V30 289 C 29.1818 3.80111 1.88986 0
M  V30 290 C 27.0888 5.86379 0.768964 0
M  V30 291 H 26.0188 0.710738 0.251729 0
M  V30 292 H 28.6698 1.83326 -0.0799926 0
M  V30 293 H 27.0518 3.40182 2.02712 0
M  V30 294 H 28.2258 4.57112 -0.581846 0
M  V30 295 H 26.5408 4.14766 -0.368475 0
M  V30 296 H 29.1378 4.81145 2.33247 0
M  V30 297 H 29.4808 3.14511 2.72743 0
M  V30 298 H 30.0138 3.80454 1.16187 0
M  V30 299 H 26.7528 6.55493 -0.0301957 0
M  V30 300 H 26.2728 5.80496 1.50945 0
M  V30 301 H 27.9518 6.34563 1.26251 0
M  V30 302 N 28.0839 -0.256276 1.55502 0
M  V30 303 C 29.0139 -1.32102 1.92539 0
M  V30 304 C 29.9949 -1.50684 0.789194 0
M  V30 305 O 31.1799 -1.63449 1.04872 0
M  V30 306 C 28.3099 -2.67752 2.21192 0
M  V30 307 C 27.2639 -2.63878 3.36975 0
M  V30 308 C 26.5899 -4.03236 3.51147 0
M  V30 309 C 27.8899 -2.21682 4.72921 0
M  V30 310 H 29.5839 -1.01351 2.81724 0
M  V30 311 H 27.1299 -0.486105 1.35547 0
M  V30 312 H 29.0829 -3.42365 2.45691 0
M  V30 313 H 27.8069 -3.0012 1.28824 0
M  V30 314 H 26.4659 -1.91722 3.12471 0
M  V30 315 H 26.1139 -4.32854 2.56216 0
M  V30 316 H 25.8139 -4.01535 4.29003 0
M  V30 317 H 27.3379 -4.79563 3.77957 0
M  V30 318 H 28.7519 -2.86023 4.96854 0
M  V30 319 H 27.1489 -2.3111 5.53812 0
M  V30 320 H 28.2189 -1.16833 4.70615 0
M  V30 321 N 29.562 -1.4872 -0.521534 0
M  V30 322 C 30.79 -1.60843 -1.30142 0
M  V30 323 C 31.205 -0.271897 -1.86832 0
M  V30 324 O 30.562 0.739969 -1.66825 0
M  V30 325 C 30.613 -2.66155 -2.4463 0
M  V30 326 O 30.334 -3.94623 -1.90275 0
M  V30 327 C 31.835 -2.88795 -3.36322 0
M  V30 328 H 29.055 -0.542075 -0.395468 0
M  V30 329 H 31.599 -1.94609 -0.628285 0
M  V30 330 H 29.754 -2.35224 -3.07812 0
M  V30 331 H 30.168 -4.52468 -2.65279 0
M  V30 332 H 31.642 -3.66264 -4.12983 0
M  V30 333 H 32.119 -1.97934 -3.9207 0
M  V30 334 H 32.725 -3.21063 -2.78924 0
M  V30 335 N 31.0401 0.771051 -1.3745 0
M  V30 336 C 32.2681 1.56015 -1.35893 0
M  V30 337 C 32.6831 1.88718 0.0555523 0
M  V30 338 O 32.0401 1.51502 1.01752 0
M  V30 339 C 32.0911 2.87001 -2.19801 0
M  V30 340 O 31.8121 2.557 -3.55738 0
M  V30 341 C 33.3131 3.81228 -2.26231 0
M  V30 342 H 30.5331 0.483317 -0.465453 0
M  V30 343 H 33.0771 0.955611 -1.80799 0
M  V30 344 H 31.2321 3.43877 -1.78402 0
M  V30 345 H 31.6461 3.39584 -3.99729 0
M  V30 346 H 33.1201 4.70139 -2.89263 0
M  V30 347 H 33.5971 4.20409 -1.27093 0
M  V30 348 H 34.2031 3.30281 -2.67945 0
M  V30 349 N 32.5182 1.22032 0.997298 0
M  V30 350 C 33.4482 1.01065 2.10495 0
M  V30 351 C 34.4292 -0.0669542 1.69968 0
M  V30 352 O 35.6142 0.0943987 1.9397 0
M  V30 353 C 32.7442 0.582874 3.42374 0
M  V30 354 C 31.6982 1.60592 3.96729 0
M  V30 355 C 31.0242 1.03412 5.24605 0
M  V30 356 C 32.3242 2.99478 4.27914 0
M  V30 357 H 34.0182 1.93708 2.28292 0
M  V30 358 H 31.5642 0.932761 1.09707 0
M  V30 359 H 33.5172 0.423332 4.19268 0
M  V30 360 H 32.2412 -0.379213 3.24391 0
M  V30 361 H 30.9002 1.75316 3.21963 0
M  V30 362 H 30.5482 0.063518 5.0296 0
M  V30 363 H 30.2482 1.71754 5.61938 0
M  V30 364 H 31.7722 0.886066 6.04137 0
M  V30 365 H 33.1862 2.88153 4.95622 0
M  V30 366 H 31.5832 3.64903 4.76409 0
M  V30 367 H 32.6532 3.49742 3.3587 0
M  V30 368 N 33.9963 -1.19345 1.0293 0
M  V30 369 C 35.2423 -1.89318 0.727083 0
M  V30 370 C 35.5753 -1.79446 -0.742483 0
M  V30 371 O 34.8503 -1.1871 -1.54072 0
M  V30 372 C 35.1333 -3.40238 1.17942 0
M  V30 373 C 34.9863 -3.58979 2.71024 0
M  V30 374 C 36.3053 -4.33479 0.760548 0
M  V30 375 H 33.4243 -0.687475 0.265606 0
M  V30 376 H 36.0663 -1.40477 1.2793 0
M  V30 377 H 34.2163 -3.81964 0.709608 0
M  V30 378 H 35.8883 -3.26421 3.25955 0
M  V30 379 H 34.1313 -3.02018 3.11396 0
M  V30 380 H 34.8023 -4.64823 2.9773 0
M  V30 381 H 37.2783 -3.99469 1.16464 0
M  V30 382 H 36.1543 -5.37664 1.10493 0
M  V30 383 H 36.4153 -4.40813 -0.337063 0
M  V30 384 N 35.4744 -0.807222 -1.35358 0
M  V30 385 C 36.4224 -0.20614 -2.31685 0
M  V30 386 C 37.4164 0.644445 -1.56663 0
M  V30 387 O 38.6224 0.537538 -1.71786 0
M  V30 388 H 34.9974 -0.0479006 -0.750473 0
M  V30 389 H 36.9684 -1.03369 -2.79924 0
M  V30 390 C 35.7174 0.630212 -3.41941 0
M  V30 391 H 35.0404 -0.0149558 -3.99797 0
M  V30 392 H 36.4804 1.01716 -4.11619 0
M  V30 393 C 34.9394 1.79601 -2.85035 0
M  V30 394 O 35.4694 2.89351 -2.78637 0
M  V30 395 N 33.6754 1.60774 -2.42074 0
M  V30 396 H 33.2224 0.715009 -2.47478 0
M  V30 397 H 33.1804 2.38933 -2.04349 0
M  V30 398 N 36.9525 1.47285 -0.560781 0
M  V30 399 C 38.3635 1.86258 -0.128343 0
M  V30 400 C 38.7145 1.46699 1.30284 0
M  V30 401 O 37.8395 0.871698 1.98067 0
M  V30 402 C 38.4345 3.38044 -0.22614 0
M  V30 403 C 36.9935 3.76096 0.151283 0
M  V30 404 C 36.1405 2.71335 -0.572084 0
M  V30 405 H 39.0915 1.38752 -0.770297 0
M  V30 406 H 39.1125 3.76441 0.554322 0
M  V30 407 H 38.6245 3.66806 -1.26788 0
M  V30 408 H 36.7255 3.52951 1.19399 0
M  V30 409 H 36.8385 4.78641 -0.209765 0
M  V30 410 H 35.2025 2.54696 -0.0147653 0
M  V30 411 H 35.9855 3.02938 -1.61504 0
M  V30 412 N 38.4306 0.297415 1.54768 0
M  V30 413 C 39.3786 -0.596051 2.24833 0
M  V30 414 C 40.3726 -1.13992 1.25308 0
M  V30 415 O 41.5786 -1.09098 1.4317 0
M  V30 416 H 37.9536 -0.210814 0.721846 0
M  V30 417 H 39.9246 0.0174667 2.98395 0
M  V30 418 C 38.6736 -1.75818 2.99972 0
M  V30 419 H 37.9966 -1.3489 3.76357 0
M  V30 420 H 39.4366 -2.35949 3.52284 0
M  V30 421 C 37.8956 -2.66014 2.06732 0
M  V30 422 O 38.4256 -3.67009 1.63302 0
M  V30 423 N 36.6316 -2.33669 1.72763 0
M  V30 424 H 36.1786 -1.51586 2.08277 0
M  V30 425 H 36.1366 -2.94285 1.10652 0
M  V30 426 N 39.9087 -1.5758 0.0250728 0
M  V30 427 C 40.8557 -2.09973 -0.958129 0
M  V30 428 C 41.8257 -1.00085 -1.3256 0
M  V30 429 O 43.0107 -1.27481 -1.41962 0
M  V30 430 C 40.1507 -2.62812 -2.2366 0
M  V30 431 C 39.2637 -3.86693 -1.92594 0
M  V30 432 C 38.3987 -4.27941 -3.14707 0
M  V30 433 C 37.4377 -5.44591 -2.79442 0
M  V30 434 N 36.5747 -5.81014 -3.94167 0
M  V30 435 H 41.4147 -2.937 -0.504428 0
M  V30 436 H 38.9517 -1.45172 -0.237392 0
M  V30 437 H 40.9097 -2.91536 -2.98434 0
M  V30 438 H 39.5397 -1.81922 -2.66654 0
M  V30 439 H 38.5917 -3.64723 -1.0808 0
M  V30 440 H 39.9037 -4.71547 -1.62619 0
M  V30 441 H 39.0577 -4.58079 -3.97804 0
M  V30 442 H 37.7967 -3.41845 -3.4784 0
M  V30 443 H 36.8017 -5.1415 -1.94755 0
M  V30 444 H 38.0267 -6.32382 -2.47528 0
M  V30 445 H 35.9727 -4.97874 -4.2715 0
M  V30 446 H 35.8897 -6.60498 -3.67801 0
M  V30 447 H 37.1577 -6.15756 -4.7798 0
M  V30 448 N 41.3868 0.248026 -1.55636 0
M  V30 449 C 42.3338 1.30707 -1.90222 0
M  V30 450 C 43.3038 1.47881 -0.756332 0
M  V30 451 O 44.4888 1.61883 -1.00988 0
M  V30 452 C 41.6288 2.65769 -2.20138 0
M  V30 453 C 40.7418 2.56612 -3.47526 0
M  V30 454 C 39.8768 3.8402 -3.67017 0
M  V30 455 C 38.9158 3.69476 -4.8801 0
M  V30 456 N 38.0528 4.88774 -5.04029 0
M  V30 457 H 42.8928 1.00512 -2.80538 0
M  V30 458 H 40.4298 0.485055 -1.38873 0
M  V30 459 H 42.3878 3.44386 -2.35487 0
M  V30 460 H 41.0178 2.94115 -1.33027 0
M  V30 461 H 40.0698 1.69571 -3.40514 0
M  V30 462 H 41.3818 2.41774 -4.36287 0
M  V30 463 H 40.5358 4.7108 -3.8232 0
M  V30 464 H 39.2748 4.01754 -2.76487 0
M  V30 465 H 38.2798 2.80799 -4.72686 0
M  V30 466 H 39.5048 3.53238 -5.8 0
M  V30 467 H 37.4508 5.0687 -4.16435 0
M  V30 468 H 37.3678 4.76562 -5.86877 0
M  V30 469 H 38.6358 5.77335 -5.23741 0
M  V30 470 N 42.8649 1.48995 0.513639 0
M  V30 471 C 43.8129 1.65199 1.63744 0
M  V30 472 C 44.8069 0.51809 1.61283 0
M  V30 473 O 46.0129 0.697335 1.65943 0
M  V30 474 H 42.3879 0.52069 0.542574 0
M  V30 475 H 44.3589 2.59552 1.47226 0
M  V30 476 C 43.1079 1.72409 3.01945 0
M  V30 477 H 42.4309 2.59029 3.04539 0
M  V30 478 H 43.8709 1.87785 3.80148 0
M  V30 479 C 42.3299 0.46618 3.33659 0
M  V30 480 O 42.8599 -0.413744 3.99564 0
M  V30 481 N 41.0659 0.332931 2.88687 0
M  V30 482 H 40.6129 1.04996 2.35231 0
M  V30 483 H 40.5709 -0.507665 3.10274 0
M  V30 484 N 44.343 -0.763751 1.37857 0
M  V30 485 C 45.568 -1.55805 1.36893 0
M  V30 486 C 45.993 -1.88054 -0.0416135 0
M  V30 487 O 45.351 -1.49825 -1.02089 0
M  V30 488 C 45.399 -2.84012 2.22192 0
M  V30 489 O 44.503 -3.78732 1.63204 0
M  V30 490 H 43.844 -0.471638 0.46739 0
M  V30 491 H 46.374 -0.944657 1.81487 0
M  V30 492 H 46.384 -3.33037 2.35691 0
M  V30 493 H 45.059 -2.59869 3.24716 0
M  V30 494 H 43.636 -3.37402 1.58791 0
M  V30 495 N 45.8211 -1.22559 -0.990812 0
M  V30 496 C 47.0511 -1.07623 -1.76355 0
M  V30 497 C 47.4591 0.37601 -1.85426 0
M  V30 498 O 46.8021 1.27228 -1.32509 0
M  V30 499 C 46.8641 -1.61507 -3.21179 0
M  V30 500 C 46.5281 -3.10146 -3.35646 0
M  V30 501 C 47.5251 -4.07553 -3.22796 0
M  V30 502 C 45.2101 -3.49644 -3.60631 0
M  V30 503 C 47.2041 -5.42442 -3.34716 0
M  V30 504 C 44.8911 -4.84682 -3.72192 0
M  V30 505 C 45.8891 -5.8089 -3.59243 0
M  V30 506 O 45.5771 -7.13476 -3.70415 0
M  V30 507 H 45.3091 -0.377745 -0.560611 0
M  V30 508 H 47.8631 -1.62658 -1.25425 0
M  V30 509 H 46.0931 -1.00881 -3.73309 0
M  V30 510 H 47.7821 -1.42202 -3.80175 0
M  V30 511 H 48.5481 -3.78381 -3.03403 0
M  V30 512 H 44.4271 -2.75282 -3.69785 0
M  V30 513 H 47.9711 -6.17518 -3.24526 0
M  V30 514 H 43.8681 -5.13534 -3.91092 0
M  V30 515 H 44.6361 -7.21083 -3.87275 0
M  V30 516 N 47.2992 1.18797 -1.03562 0
M  V30 517 C 48.7102 1.70322 -0.764676 0
M  V30 518 C 49.0612 1.82708 0.714996 0
M  V30 519 O 48.1862 1.50299 1.55689 0
M  V30 520 C 48.7812 3.09356 -1.38145 0
M  V30 521 C 47.3402 3.58114 -1.15895 0
M  V30 522 C 46.4872 2.34798 -1.4753 0
M  V30 523 H 49.4382 1.03543 -1.20268 0
M  V30 524 H 49.4592 3.72378 -0.781977 0
M  V30 525 H 48.9712 3.00309 -2.45837 0
M  V30 526 H 47.0722 3.72464 -0.100544 0
M  V30 527 H 47.1852 4.4184 -1.8524 0
M  V30 528 H 45.5492 2.38464 -0.894829 0
M  V30 529 H 46.3322 2.28375 -2.56319 0
M  V30 530 N 48.7773 0.814389 1.34928 0
M  V30 531 C 49.7273 0.202752 2.27097 0
M  V30 532 C 50.7113 -0.62799 1.48139 0
M  V30 533 O 51.9033 -0.483969 1.70255 0
M  V30 534 C 49.0323 -0.64146 3.37254 0
M  V30 535 C 48.1183 0.19944 4.23631 0
M  V30 536 N 48.5093 1.26628 4.89693 0
M  V30 537 C 46.8073 -0.0176433 4.45997 0
M  V30 538 C 47.5083 1.78031 5.53787 0
M  V30 539 N 46.4843 1.08553 5.32651 0
M  V30 540 H 50.2863 1.01893 2.75672 0
M  V30 541 H 47.8003 0.656332 1.48546 0
M  V30 542 H 49.7973 -1.09575 4.02243 0
M  V30 543 H 48.4573 -1.4559 2.9023 0
M  V30 544 H 49.4683 1.64901 4.90946 0
M  V30 545 H 46.1453 -0.800601 4.09752 0
M  V30 546 H 47.5353 2.67236 6.16469 0
M  V30 547 N 50.2554 -1.46986 0.568584 0
M  V30 548 C 51.4854 -2.0653 0.0539173 0
M  V30 549 C 51.8934 -1.42004 -1.25026 0
M  V30 550 O 51.2364 -0.514541 -1.76347 0
M  V30 551 C 51.2984 -3.58938 -0.200854 0
M  V30 552 C 50.9624 -4.45572 1.01559 0
M  V30 553 C 51.9594 -4.82986 1.92407 0
M  V30 554 C 49.6444 -4.8692 1.23346 0
M  V30 555 C 51.6384 -5.60559 3.03402 0
M  V30 556 C 49.3254 -5.64255 2.34649 0
M  V30 557 C 50.3234 -6.00986 3.24507 0
M  V30 558 O 50.0114 -6.76761 4.33878 0
M  V30 559 H 49.7434 -0.674292 0.0480234 0
M  V30 560 H 52.2974 -1.89812 0.784896 0
M  V30 561 H 50.5274 -3.73911 -0.986279 0
M  V30 562 H 52.2164 -4.0046 -0.662294 0
M  V30 563 H 52.9824 -4.51633 1.76785 0
M  V30 564 H 48.8614 -4.57789 0.543178 0
M  V30 565 H 52.4054 -5.89147 3.73565 0
M  V30 566 H 48.3024 -5.95021 2.5024 0
M  V30 567 H 49.0704 -6.95168 4.32068 0
M  V30 568 N 51.7335 -0.305618 -1.54608 0
M  V30 569 C 52.9795 0.302746 -2.00528 0
M  V30 570 C 53.3125 1.53184 -1.19367 0
M  V30 571 O 52.5875 1.92598 -0.271321 0
M  V30 572 C 52.8705 0.654756 -3.54097 0
M  V30 573 C 52.7235 -0.583793 -4.45995 0
M  V30 574 C 54.0425 1.47947 -4.14487 0
M  V30 575 H 51.1615 0.108564 -0.72896 0
M  V30 576 H 53.8035 -0.418634 -1.85331 0
M  V30 577 H 51.9535 1.26935 -3.67178 0
M  V30 578 H 53.6255 -1.22224 -4.44814 0
M  V30 579 H 51.8685 -1.21615 -4.16404 0
M  V30 580 H 52.5395 -0.293287 -5.5122 0
M  V30 581 H 55.0155 0.96013 -4.04871 0
M  V30 582 H 53.8915 1.69454 -5.22088 0
M  V30 583 H 54.1525 2.47011 -3.66658 0
M  V30 584 N 53.2116 1.57565 -0.0334293 0
M  V30 585 C 54.1586 2.10478 0.946981 0
M  V30 586 C 55.1286 1.00787 1.32027 0
M  V30 587 O 56.3136 1.28232 1.41284 0
M  V30 588 C 53.4536 2.63994 2.22263 0
M  V30 589 C 52.5666 3.87709 1.90541 0
M  V30 590 C 51.7016 4.29604 3.12433 0
M  V30 591 C 50.7406 5.46065 2.76549 0
M  V30 592 N 49.8776 5.83096 3.9108 0
M  V30 593 H 54.7176 2.93963 0.488846 0
M  V30 594 H 52.2546 1.45296 0.22969 0
M  V30 595 H 54.2126 2.93114 2.96884 0
M  V30 596 H 52.8426 1.83333 2.65685 0
M  V30 597 H 51.8946 3.65291 1.06144 0
M  V30 598 H 53.2066 4.72403 1.60116 0
M  V30 599 H 52.3606 4.60182 3.9537 0
M  V30 600 H 51.0996 3.43685 3.46023 0
M  V30 601 H 50.1046 5.15176 1.92026 0
M  V30 602 H 51.3296 6.33685 2.44171 0
M  V30 603 H 49.2756 5.00132 4.24504 0
M  V30 604 H 49.1926 6.6244 3.64293 0
M  V30 605 H 50.4606 6.18282 4.74708 0
M  V30 606 N 54.6897 -0.239769 1.55765 0
M  V30 607 C 55.9147 -0.988373 1.82335 0
M  V30 608 C 56.3397 -1.77886 0.611421 0
M  V30 609 O 55.6977 -1.75889 -0.439639 0
M  V30 610 C 55.7457 -1.89627 3.06715 0
M  V30 611 O 54.8497 -2.98904 2.84131 0
M  V30 612 H 54.1907 -0.280858 0.601677 0
M  V30 613 H 56.7207 -0.258597 2.02959 0
M  V30 614 H 56.7307 -2.30957 3.36338 0
M  V30 615 H 55.4057 -1.31511 3.9456 0
M  V30 616 H 53.9827 -2.61651 2.65694 0
M  V30 617 N 56.1678 -1.49265 -0.50573 0
M  V30 618 C 57.4168 -1.57761 -1.25675 0
M  V30 619 C 57.7298 -0.267371 -1.93764 0
M  V30 620 O 58.9358 -0.230827 -2.70517 0
M  V30 621 C 57.3918 -2.78332 -2.28165 0
M  V30 622 C 56.9998 -4.16096 -1.66037 0
M  V30 623 C 58.7438 -2.96155 -3.04125 0
M  V30 624 C 56.6508 -5.27895 -2.6661 0
M  V30 625 H 55.5808 -0.587391 -0.472745 0
M  V30 626 H 58.2318 -1.75644 -0.53118 0
M  V30 627 H 56.6138 -2.53934 -3.03865 0
M  V30 628 H 57.7878 -4.50612 -0.963622 0
M  V30 629 H 56.1028 -4.03591 -1.02484 0
M  V30 630 H 58.6998 -3.76849 -3.79327 0
M  V30 631 H 59.0428 -2.06534 -3.61455 0
M  V30 632 H 59.5758 -3.2057 -2.35541 0
M  V30 633 H 56.3148 -6.1956 -2.14068 0
M  V30 634 H 55.8348 -4.97839 -3.34539 0
M  V30 635 H 57.5138 -5.57031 -3.29129 0
M  V30 636 N 57.6459 0.756429 -1.3826 0
M  V30 637 C 58.8919 1.51772 -1.34511 0
M  V30 638 C 59.2249 1.94089 0.0656691 0
M  V30 639 O 58.4999 1.65221 1.02626 0
M  V30 640 C 58.7829 2.77226 -2.29821 0
M  V30 641 C 58.6359 2.41065 -3.79747 0
M  V30 642 C 59.9549 3.79236 -2.23312 0
M  V30 643 H 57.0739 0.550578 -0.489931 0
M  V30 644 H 59.7159 0.866607 -1.69086 0
M  V30 645 H 57.8659 3.32784 -2.00467 0
M  V30 646 H 59.5379 1.91303 -4.19763 0
M  V30 647 H 57.7809 1.7356 -3.97567 0
M  V30 648 H 58.4519 3.3081 -4.41892 0
M  V30 649 H 60.9279 3.3321 -2.49219 0
M  V30 650 H 59.8039 4.64714 -2.92116 0
M  V30 651 H 60.0649 4.24615 -1.23102 0
M  V30 652 N 59.124 1.23083 0.984299 0
M  V30 653 C 60.087 1.00979 2.05757 0
M  V30 654 C 61.087 -0.0269573 1.60777 0
M  V30 655 O 62.277 0.212403 1.729 0
M  V30 656 C 59.409 0.527072 3.36801 0
M  V30 657 H 60.602 1.9622 2.26799 0
M  V30 658 H 58.155 1.05072 1.15714 0
M  V30 659 H 58.89 -0.429294 3.21446 0
M  V30 660 H 58.675 1.27515 3.70786 0
M  V30 661 H 60.165 0.392942 4.15747 0
M  V30 662 N 60.6021 -1.18246 1.0419 0
M  V30 663 C 61.8271 -1.92736 0.765996 0
M  V30 664 C 62.2521 -1.75728 -0.67091 0
M  V30 665 O 61.6101 -1.06825 -1.46486 0
M  V30 666 C 61.6581 -3.42148 1.13875 0
M  V30 667 O 60.7621 -4.11548 0.264954 0
M  V30 668 H 60.1031 -0.601238 0.281797 0
M  V30 669 H 62.6331 -1.49942 1.39207 0
M  V30 670 H 62.6431 -3.92858 1.1012 0
M  V30 671 H 61.3181 -3.53848 2.18551 0
M  V30 672 H 59.8951 -3.71137 0.362226 0
M  V30 673 N 62.0802 -0.821533 -1.34494 0
M  V30 674 C 63.3082 -0.421884 -2.02553 0
M  V30 675 C 63.7232 0.971745 -1.61872 0
M  V30 676 O 63.0802 1.62864 -0.823496 0
M  V30 677 C 63.1312 -0.51285 -3.57844 0
M  V30 678 O 62.8522 -1.85155 -3.97051 0
M  V30 679 C 64.3532 -0.107921 -4.43169 0
M  V30 680 H 61.5732 -0.169482 -0.649243 0
M  V30 681 H 64.1172 -1.1093 -1.71798 0
M  V30 682 H 62.2722 0.126474 -3.87193 0
M  V30 683 H 62.6862 -1.82482 -4.91732 0
M  V30 684 H 64.1602 -0.222657 -5.51551 0
M  V30 685 H 64.6372 0.948401 -4.28838 0
M  V30 686 H 65.2432 -0.720989 -4.19144 0
M  V30 687 N 63.5583 1.46682 -0.576371 0
M  V30 688 C 64.8053 2.02412 -0.0595339 0
M  V30 689 C 65.1333 1.44859 1.29793 0
M  V30 690 O 64.3883 0.601099 1.8624 0
M  V30 691 C 64.6873 3.57345 0.062886 0
M  V30 692 C 64.3533 4.33908 -1.22616 0
M  V30 693 C 63.0153 4.54544 -1.57933 0
M  V30 694 C 65.3673 4.77919 -2.07948 0
M  V30 695 C 62.6953 5.16444 -2.78393 0
M  V30 696 C 65.0473 5.41149 -3.27629 0
M  V30 697 C 63.7113 5.60014 -3.63236 0
M  V30 698 H 62.9813 0.74068 -0.021785 0
M  V30 699 H 65.6283 1.76128 -0.751735 0
M  V30 700 H 63.9333 3.82729 0.838178 0
M  V30 701 H 65.6303 3.98136 0.478439 0
M  V30 702 H 62.2203 4.18138 -0.941202 0
M  V30 703 H 66.4043 4.61738 -1.81967 0
M  V30 704 H 61.6603 5.29242 -3.06126 0
M  V30 705 H 65.8343 5.74211 -3.94023 0
M  V30 706 H 63.4613 6.07748 -4.56669 0
M  V30 707 N 65.0364 0.313813 1.54444 0
M  V30 708 C 66.2854 -0.292519 1.99568 0
M  V30 709 C 66.5984 -1.54011 1.20582 0
M  V30 710 O 67.8044 -2.22183 1.56035 0
M  V30 711 C 66.2604 -0.571752 3.55329 0
M  V30 712 C 65.8684 0.658229 4.43138 0
M  V30 713 C 67.6124 -1.13857 4.08946 0
M  V30 714 C 65.5194 0.351439 5.90355 0
M  V30 715 H 64.4494 -0.113079 0.745472 0
M  V30 716 H 67.1004 0.424518 1.78522 0
M  V30 717 H 65.4824 -1.34872 3.72325 0
M  V30 718 H 66.6564 1.43403 4.37918 0
M  V30 719 H 64.9714 1.14458 4.0036 0
M  V30 720 H 67.5684 -1.38257 5.16516 0
M  V30 721 H 67.9114 -2.08489 3.6033 0
M  V30 722 H 68.4444 -0.423015 3.95544 0
M  V30 723 H 65.1834 1.26667 6.43145 0
M  V30 724 H 64.7034 -0.386842 5.98551 0
M  V30 725 H 66.3824 -0.0423134 6.46986 0
M  V30 726 N 66.5145 -1.57545 0.0417849 0
M  V30 727 C 67.7635 -1.91494 -0.633492 0
M  V30 728 C 68.0765 -0.921084 -1.72556 0
M  V30 729 O 69.2825 -1.15228 -2.45835 0
M  V30 730 C 67.7385 -3.40072 -1.17808 0
M  V30 731 C 67.3465 -4.47843 -0.118633 0
M  V30 732 C 69.0905 -3.8307 -1.82915 0
M  V30 733 C 66.9975 -5.87529 -0.675578 0
M  V30 734 H 65.9275 -0.714653 -0.24039 0
M  V30 735 H 68.5785 -1.83175 0.109148 0
M  V30 736 H 66.9605 -3.43364 -1.97274 0
M  V30 737 H 68.1345 -4.56128 0.654494 0
M  V30 738 H 66.4495 -4.14128 0.434414 0
M  V30 739 H 69.0465 -4.84794 -2.25563 0
M  V30 740 H 69.3895 -3.1881 -2.67705 0
M  V30 741 H 69.9225 -3.82255 -1.10119 0
M  V30 742 H 66.6615 -6.55362 0.134475 0
M  V30 743 H 66.1815 -5.82824 -1.4169 0
M  V30 744 H 67.8605 -6.36491 -1.1614 0
M  V30 745 N 67.9926 0.231505 -1.5589 0
M  V30 746 C 69.2176 0.978689 -1.82856 0
M  V30 747 C 69.6426 1.77559 -0.620846 0
M  V30 748 O 69.0006 1.76119 0.430305 0
M  V30 749 C 69.0486 1.87997 -3.07716 0
M  V30 750 O 68.1526 2.97393 -2.85712 0
M  V30 751 H 67.4936 0.277663 -0.603158 0
M  V30 752 H 70.0236 0.24783 -2.03093 0
M  V30 753 H 70.0336 2.2917 -3.37558 0
M  V30 754 H 68.7086 1.29417 -3.95252 0
M  V30 755 H 67.2856 2.60238 -2.67078 0
M  V30 756 N 69.4707 1.49531 0.497807 0
M  V30 757 C 70.4007 1.6935 1.60757 0
M  V30 758 C 71.3817 0.542218 1.61227 0
M  V30 759 O 72.5667 0.778417 1.77917 0
M  V30 760 C 69.6967 1.76298 2.99226 0
M  V30 761 C 68.6507 2.91248 3.13622 0
M  V30 762 C 67.9767 2.83312 4.53474 0
M  V30 763 C 69.2767 4.3214 2.93346 0
M  V30 764 H 70.9707 2.62263 1.44425 0
M  V30 765 H 68.5167 1.26208 0.693367 0
M  V30 766 H 70.4697 1.88749 3.76765 0
M  V30 767 H 69.1937 0.799871 3.16654 0
M  V30 768 H 67.8527 2.78404 2.38509 0
M  V30 769 H 67.5007 1.84902 4.67782 0
M  V30 770 H 67.2007 3.60465 4.64046 0
M  V30 771 H 68.7247 2.97775 5.33069 0
M  V30 772 H 70.1387 4.45649 3.60652 0
M  V30 773 H 68.5357 5.1054 3.15387 0
M  V30 774 H 69.6057 4.46363 1.89441 0
M  V30 775 N 70.9488 -0.749086 1.3866 0
M  V30 776 C 72.1958 -1.50833 1.35114 0
M  V30 777 C 72.5238 -1.94415 -0.0574049 0
M  V30 778 O 71.7788 -1.66065 -1.03541 0
M  V30 779 C 72.0778 -2.7712 2.25697 0
M  V30 780 C 71.7438 -2.52477 3.73585 0
M  V30 781 C 70.4058 -2.45466 4.13884 0
M  V30 782 C 72.7578 -2.31066 4.67181 0
M  V30 783 C 70.0858 -2.15064 5.45861 0
M  V30 784 C 72.4378 -2.02183 5.9942 0
M  V30 785 C 71.1018 -1.93631 6.38798 0
M  V30 786 H 70.3718 -0.551936 0.494416 0
M  V30 787 H 73.0188 -0.860979 1.71054 0
M  V30 788 H 71.3238 -3.46528 1.82827 0
M  V30 789 H 73.0208 -3.35096 2.20254 0
M  V30 790 H 69.6108 -2.58807 3.41638 0
M  V30 791 H 73.7948 -2.35459 4.3689 0
M  V30 792 H 69.0508 -2.06954 5.75308 0
M  V30 793 H 73.2248 -1.8462 6.71482 0
M  V30 794 H 70.8518 -1.69839 7.40985 0
M  V30 795 N 72.4269 -1.23603 -0.977757 0
M  V30 796 C 73.8379 -1.06424 -1.53398 0
M  V30 797 C 74.1889 0.367578 -1.92726 0
M  V30 798 O 73.3139 1.25465 -1.76316 0
M  V30 799 C 73.9089 -1.92568 -2.78753 0
M  V30 800 C 72.4679 -1.79642 -3.30765 0
M  V30 801 C 71.6149 -1.88111 -2.03739 0
M  V30 802 H 74.5659 -1.37227 -0.797152 0
M  V30 803 H 74.5869 -1.45203 -3.51705 0
M  V30 804 H 74.0989 -2.96771 -2.50098 0
M  V30 805 H 72.1999 -0.782325 -3.64294 0
M  V30 806 H 72.3129 -2.63174 -4.00345 0
M  V30 807 H 70.6769 -1.31723 -2.17994 0
M  V30 808 H 71.4599 -2.93875 -1.77461 0
M  V30 809 N 73.905 1.17692 -1.04816 0
M  V30 810 C 75.133 1.91786 -0.776254 0
M  V30 811 C 75.548 1.76604 0.667577 0
M  V30 812 O 74.905 1.10067 1.45573 0
M  V30 813 C 74.956 3.42967 -1.14263 0
M  V30 814 O 74.677 3.57678 -2.52978 0
M  V30 815 C 76.178 4.34144 -0.896311 0
M  V30 816 H 73.398 0.608624 -0.282519 0
M  V30 817 H 75.942 1.49268 -1.39783 0
M  V30 818 H 74.097 3.83245 -0.565874 0
M  V30 819 H 74.511 4.51319 -2.67229 0
M  V30 820 H 75.985 5.38744 -1.20244 0
M  V30 821 H 76.462 4.38876 0.168636 0
M  V30 822 H 77.068 3.99574 -1.45672 0
M  V30 823 N 75.3831 0.828654 1.34056 0
M  V30 824 C 76.6111 0.43262 2.02326 0
M  V30 825 C 77.0261 -0.963147 1.62385 0
M  V30 826 O 76.3831 -1.62425 0.832121 0
M  V30 827 C 76.4341 0.53182 3.57567 0
M  V30 828 O 76.1551 1.87258 3.96063 0
M  V30 829 C 77.6561 0.131422 4.43105 0
M  V30 830 H 74.8761 0.172923 0.648335 0
M  V30 831 H 77.4201 1.1184 1.71208 0
M  V30 832 H 75.5751 -0.105938 3.87255 0
M  V30 833 H 75.9891 1.85087 4.90758 0
M  V30 834 H 77.4631 0.251904 5.51425 0
M  V30 835 H 77.9401 -0.925645 4.29335 0
M  V30 836 H 78.5461 0.743207 4.18756 0
M  V30 837 N 76.8612 -1.46375 0.584142 0
M  V30 838 C 77.7942 -2.27351 -0.196676 0
M  V30 839 C 78.7722 -1.35715 -0.895561 0
M  V30 840 O 79.9562 -1.65126 -0.90916 0
M  V30 841 C 77.0832 -3.13486 -1.28235 0
M  V30 842 C 76.1292 -4.20896 -0.689145 0
M  V30 843 S 76.9622 -5.33299 0.48507 0
M  V30 844 C 78.1182 -6.23 -0.601767 0
M  V30 845 H 78.3512 -2.93228 0.490395 0
M  V30 846 H 75.8842 -1.49875 0.371071 0
M  V30 847 H 77.8422 -3.63676 -1.90395 0
M  V30 848 H 76.5032 -2.4692 -1.94138 0
M  V30 849 H 75.6962 -4.80997 -1.50527 0
M  V30 850 H 75.2982 -3.73726 -0.143181 0
M  V30 851 H 77.5902 -6.60979 -1.48705 0
M  V30 852 H 78.5332 -7.0809 -0.0374799 0
M  V30 853 H 78.9412 -5.57173 -0.906557 0
M  V30 854 N 78.3393 -0.321999 -1.54275 0
M  V30 855 C 79.5863 0.281044 -2.0054 0
M  V30 856 C 79.9143 1.52265 -1.21019 0
M  V30 857 O 79.1693 1.93687 -0.279982 0
M  V30 858 C 79.4683 0.661769 -3.5122 0
M  V30 859 C 79.1343 -0.480482 -4.48333 0
M  V30 860 C 77.7963 -0.794005 -4.74604 0
M  V30 861 C 80.1483 -1.24783 -5.06042 0
M  V30 862 C 77.4763 -1.87763 -5.55844 0
M  V30 863 C 79.8283 -2.32153 -5.88462 0
M  V30 864 C 78.4923 -2.64089 -6.13036 0
M  V30 865 H 77.7623 0.102841 -0.733829 0
M  V30 866 H 80.4093 -0.445453 -1.86247 0
M  V30 867 H 78.7143 1.46867 -3.63232 0
M  V30 868 H 80.4113 1.13989 -3.84457 0
M  V30 869 H 77.0013 -0.226039 -4.28004 0
M  V30 870 H 81.1853 -1.01887 -4.85729 0
M  V30 871 H 76.4413 -2.12954 -5.73115 0
M  V30 872 H 80.6153 -2.92057 -6.32199 0
M  V30 873 H 78.2423 -3.48185 -6.75775 0
M  V30 874 N 79.8174 1.5752 -0.0501392 0
M  V30 875 C 80.7504 2.07026 0.959962 0
M  V30 876 C 81.7284 0.970539 1.30458 0
M  V30 877 O 82.9124 1.2424 1.41763 0
M  V30 878 C 80.0394 2.5099 2.27424 0
M  V30 879 C 79.0854 3.72188 2.08275 0
M  V30 880 S 79.9184 5.17888 1.36207 0
M  V30 881 C 81.0744 5.65165 2.6896 0
M  V30 882 H 81.3074 2.9238 0.538631 0
M  V30 883 H 78.8404 1.53547 0.162099 0
M  V30 884 H 80.7984 2.76982 3.02971 0
M  V30 885 H 79.4594 1.65944 2.66686 0
M  V30 886 H 78.6524 4.00866 3.05487 0
M  V30 887 H 78.2544 3.46457 1.40868 0
M  V30 888 H 80.5464 5.70687 3.65133 0
M  V30 889 H 81.4894 6.64394 2.4492 0
M  V30 890 H 81.8974 4.9289 2.75172 0
M  V30 891 N 81.2955 -0.223234 1.56011 0
M  V30 892 C 82.5355 -0.954962 1.8072 0
M  V30 893 C 82.8995 -1.81598 0.623384 0
M  V30 894 O 84.1005 -2.58132 0.749745 0
M  V30 895 C 82.3715 -1.77313 3.10314 0
M  V30 896 S 83.9305 -2.56073 3.56332 0
M  V30 897 H 80.7485 -0.320812 0.634508 0
M  V30 898 H 83.3505 -0.220686 1.9425 0
M  V30 899 H 82.0545 -1.13071 3.94516 0
M  V30 900 H 81.5855 -2.54974 2.99586 0
M  V30 901 H 83.6005 -3.79619 3.19536 0
M  V30 902 N 82.7736 -1.49793 -0.48987 0
M  V30 903 C 83.7036 -1.70201 -1.59856 0
M  V30 904 C 84.6846 -0.55076 -1.60937 0
M  V30 905 O 85.8696 -0.787841 -1.77501 0
M  V30 906 C 82.9996 -1.77882 -2.98287 0
M  V30 907 C 81.9536 -2.92907 -3.12073 0
M  V30 908 C 81.2796 -2.85712 -4.51965 0
M  V30 909 C 82.5796 -4.3369 -2.91051 0
M  V30 910 H 84.2736 -2.63025 -1.43032 0
M  V30 911 H 81.8196 -1.26574 -0.686664 0
M  V30 912 H 83.7726 -1.90744 -3.75759 0
M  V30 913 H 82.4966 -0.816653 -3.16225 0
M  V30 914 H 81.1556 -2.79665 -2.37029 0
M  V30 915 H 80.8036 -1.8738 -4.66795 0
M  V30 916 H 80.5036 -3.62921 -4.62128 0
M  V30 917 H 82.0276 -3.00598 -5.31482 0
M  V30 918 H 83.4416 -4.47555 -3.58284 0
M  V30 919 H 81.8386 -5.12205 -3.12675 0
M  V30 920 H 82.9086 -4.47362 -1.87071 0
M  V30 921 N 84.2517 0.741722 -1.39055 0
M  V30 922 C 85.5287 1.49252 -1.26425 0
M  V30 923 C 85.9087 2.10705 0.129144 0
M  V30 924 O 85.2567 1.98045 1.13976 0
M  V30 925 C 85.4667 2.54934 -2.38347 0
M  V30 926 C 86.8147 3.21506 -2.77343 0
M  V30 927 O 87.8387 2.65245 -2.37747 0
M  V30 928 O 86.6977 4.23294 -3.45665 0
M  V30 929 H 83.7917 0.662451 -0.495064 0
M  V30 930 H 86.3377 0.776121 -1.50912 0
M  V30 931 H 85.1097 2.07857 -3.31529 0
M  V30 932 H 84.7327 3.34141 -2.15489 0
M  V30 933 N 85.7298 1.2412 0.971189 0
M  V30 934 C 86.6618 0.988349 2.06795 0
M  V30 935 C 87.6748 -0.0409541 1.62748 0
M  V30 936 O 88.8638 0.195673 1.77424 0
M  V30 937 C 85.9638 0.469023 3.35639 0
M  V30 938 C 85.1368 1.56065 4.08611 0
M  V30 939 C 84.1958 1.04458 5.15728 0
M  V30 940 O 83.2218 1.73553 5.42096 0
M  V30 941 N 84.4238 -0.122817 5.8037 0
M  V30 942 H 87.1888 1.93265 2.29061 0
M  V30 943 H 84.7498 1.15102 1.13856 0
M  V30 944 H 86.7418 0.108613 4.04554 0
M  V30 945 H 85.3118 -0.380919 3.1027 0
M  V30 946 H 84.5318 2.09341 3.34021 0
M  V30 947 H 85.8198 2.29449 4.54126 0
M  V30 948 H 85.2178 -0.700563 5.61345 0
M  V30 949 H 83.7748 -0.424404 6.50417 0
M  V30 950 N 87.2079 -1.17134 1.05439 0
M  V30 951 C 88.1179 -2.24878 0.668365 0
M  V30 952 C 89.1339 -1.71186 -0.311687 0
M  V30 953 O 90.3099 -2.00738 -0.163161 0
M  V30 954 C 87.3749 -3.46662 0.051648 0
M  V30 955 C 86.4359 -4.15429 1.08246 0
M  V30 956 C 85.6689 -5.31399 0.495082 0
M  V30 957 O 85.8919 -5.66153 -0.694743 0
M  V30 958 O 84.8259 -5.89187 1.23056 0
M  V30 959 H 88.6519 -2.60189 1.56637 0
M  V30 960 H 86.2369 -1.24482 0.826104 0
M  V30 961 H 88.1189 -4.20394 -0.290966 0
M  V30 962 H 86.7939 -3.13142 -0.819971 0
M  V30 963 H 85.7009 -3.43704 1.47711 0
M  V30 964 H 87.0339 -4.52982 1.92532 0
M  V30 965 N 88.686 -0.835752 -1.33615 0
M  V30 966 C 89.932 -0.430596 -1.98176 0
M  V30 967 C 90.265 1.00684 -1.66061 0
M  V30 968 O 89.54 1.70339 -0.938877 0
M  V30 969 C 89.823 -0.648065 -3.5422 0
M  V30 970 C 89.676 -2.13255 -3.96033 0
M  V30 971 C 90.995 -0.0922113 -4.40003 0
M  V30 972 H 88.114 -0.157924 -0.719881 0
M  V30 973 H 90.756 -1.05069 -1.58305 0
M  V30 974 H 88.906 -0.120237 -3.88314 0
M  V30 975 H 90.578 -2.725 -3.72211 0
M  V30 976 H 88.821 -2.61823 -3.45878 0
M  V30 977 H 89.492 -2.23547 -5.04708 0
M  V30 978 H 91.968 -0.543343 -4.12537 0
M  V30 979 H 90.844 -0.274083 -5.48215 0
M  V30 980 H 91.105 1.00378 -4.30554 0
M  V30 981 N 90.1641 1.46063 -0.591896 0
M  V30 982 C 91.4131 2.01547 -0.0786637 0
M  V30 983 C 91.7261 1.46796 1.29268 0
M  V30 984 O 92.9321 1.94157 1.89777 0
M  V30 985 C 91.3881 3.59787 -0.0900024 0
M  V30 986 C 90.9961 4.23534 -1.46023 0
M  V30 987 C 92.7401 4.22895 0.368806 0
M  V30 988 C 90.6471 5.73881 -1.4288 0
M  V30 989 H 89.5771 0.753564 -0.0256388 0
M  V30 990 H 92.2281 1.677 -0.744905 0
M  V30 991 H 90.6101 3.90752 0.642586 0
M  V30 992 H 91.7841 4.04167 -2.21328 0
M  V30 993 H 90.0991 3.72558 -1.85982 0
M  V30 994 H 92.6961 5.33116 0.411258 0
M  V30 995 H 93.0391 3.9247 1.38827 0
M  V30 996 H 93.5721 3.9659 -0.31001 0
M  V30 997 H 90.3111 6.0898 -2.42536 0
M  V30 998 H 89.8311 5.95486 -0.718095 0
M  V30 999 H 91.5101 6.36776 -1.14565 0
M  V30 1000 N 91.6422 0.330177 1.54103 0
M  V30 1001 C 92.8912 -0.271336 1.99867 0
M  V30 1002 C 93.2042 -1.52723 1.22209 0
M  V30 1003 O 94.4102 -2.20515 1.58383 0
M  V30 1004 C 92.8662 -0.534032 3.55916 0
M  V30 1005 C 92.4742 0.705193 4.42415 0
M  V30 1006 C 94.2182 -1.09514 4.1013 0
M  V30 1007 C 92.1252 0.414035 5.89949 0
M  V30 1008 H 91.0552 -0.105166 0.74663 0
M  V30 1009 H 93.7062 0.443429 1.78062 0
M  V30 1010 H 92.0882 -1.30915 3.73734 0
M  V30 1011 H 93.2622 1.4804 4.36372 0
M  V30 1012 H 91.5772 1.18698 3.99124 0
M  V30 1013 H 94.1742 -1.3277 5.17954 0
M  V30 1014 H 94.5172 -2.04656 3.62521 0
M  V30 1015 H 95.0502 -0.381038 3.95971 0
M  V30 1016 H 91.7892 1.33481 6.41766 0
M  V30 1017 H 91.3092 -0.323336 5.98928 0
M  V30 1018 H 92.9882 0.0263105 6.46995 0
M  V30 1019 N 93.1203 -1.57491 0.0584922 0
M  V30 1020 C 94.3453 -1.97711 -0.62652 0
M  V30 1021 C 94.7703 -0.936132 -1.63151 0
M  V30 1022 O 94.1283 0.099811 -1.81025 0
M  V30 1023 C 94.1763 -3.36989 -1.28338 0
M  V30 1024 O 93.2803 -3.35433 -2.39913 0
M  V30 1025 H 92.6213 -0.643868 -0.162266 0
M  V30 1026 H 95.1513 -2.04193 0.129064 0
M  V30 1027 H 95.1613 -3.73879 -1.63335 0
M  V30 1028 H 93.8363 -4.12289 -0.546889 0
M  V30 1029 H 92.4133 -3.10298 -2.06809 0
M  V30 1030 N 94.5984 0.214957 -1.56127 0
M  V30 1031 C 95.5464 1.28601 -1.93816 0
M  V30 1032 C 96.5404 1.48175 -0.821016 0
M  V30 1033 O 97.7464 1.49271 -1.0059 0
M  V30 1034 H 94.1214 0.431302 -0.616022 0
M  V30 1035 H 96.0924 0.940991 -2.83175 0
M  V30 1036 C 94.8414 2.62779 -2.27689 0
M  V30 1037 H 94.1644 2.48527 -3.13168 0
M  V30 1038 H 95.6044 3.36517 -2.57939 0
M  V30 1039 C 94.0634 3.18285 -1.10436 0
M  V30 1040 O 94.5934 4.00002 -0.368945 0
M  V30 1041 N 92.7994 2.7675 -0.886433 0
M  V30 1042 H 92.3464 2.10404 -1.48619 0
M  V30 1043 H 92.3044 3.14229 -0.103656 0
M  V30 1044 N 96.0765 1.50051 0.48192 0
M  V30 1045 C 97.3225 1.61706 1.2338 0
M  V30 1046 C 97.6775 0.308488 1.89911 0
M  V30 1047 O 96.9705 -0.692798 1.78636 0
M  V30 1048 C 97.1645 2.72717 2.30998 0
M  V30 1049 C 96.9935 4.14242 1.75024 0
M  V30 1050 C 95.7635 4.80786 1.55476 0
M  V30 1051 C 97.9615 4.98846 1.25128 0
M  V30 1052 N 95.9435 6.06563 0.946311 0
M  V30 1053 C 97.3145 6.15258 0.765382 0
M  V30 1054 C 99.3695 4.84702 1.13881 0
M  V30 1055 C 98.0725 7.19079 0.178113 0
M  V30 1056 C 100.098 5.8869 0.565486 0
M  V30 1057 C 99.4605 7.04343 0.0899105 0
M  V30 1058 H 95.5595 0.645958 0.440753 0
M  V30 1059 H 98.1435 1.8713 0.537624 0
M  V30 1060 H 96.3145 2.49033 2.98055 0
M  V30 1061 H 98.0465 2.73789 2.9803 0
M  V30 1062 H 94.8015 4.37899 1.80392 0
M  V30 1063 H 95.2255 6.73767 0.660812 0
M  V30 1064 H 99.8675 3.95583 1.49244 0
M  V30 1065 H 97.5855 8.07882 -0.187749 0
M  V30 1066 H 101.171 5.79808 0.480974 0
M  V30 1067 H 100.051 7.83433 -0.346782 0
M  V30 1068 N 97.5546 -0.734337 1.39446 0
M  V30 1069 C 98.5046 -1.83949 1.34709 0
M  V30 1070 C 99.4886 -1.59279 0.227851 0
M  V30 1071 O 100.681 -1.70771 0.465438 0
M  V30 1072 C 97.8096 -3.21884 1.19356 0
M  V30 1073 C 96.8956 -3.52381 2.35984 0
M  V30 1074 N 97.2866 -3.53811 3.61457 0
M  V30 1075 C 95.5846 -3.82747 2.28956 0
M  V30 1076 C 96.2856 -3.82122 4.38586 0
M  V30 1077 N 95.2616 -3.9993 3.68181 0
M  V30 1078 H 99.0636 -1.83361 2.29687 0
M  V30 1079 H 96.5776 -0.932609 1.32952 0
M  V30 1080 H 98.5746 -4.00998 1.14046 0
M  V30 1081 H 97.2346 -3.23711 0.253295 0
M  V30 1082 H 98.2456 -3.35107 3.94872 0
M  V30 1083 H 94.9226 -3.92175 1.43194 0
M  V30 1084 H 96.3126 -3.89691 5.47349 0
M  V30 1085 N 99.0327 -1.24633 -0.964593 0
M  V30 1086 C 100.279 -1.09957 -1.71117 0
M  V30 1087 C 100.634 0.357422 -1.89051 0
M  V30 1088 O 99.9267 1.26029 -1.44317 0
M  V30 1089 C 100.121 -1.7763 -3.10133 0
M  V30 1090 C 99.9497 -3.29759 -3.05759 0
M  V30 1091 C 98.7197 -3.98981 -3.10068 0
M  V30 1092 C 100.918 -4.26305 -2.87695 0
M  V30 1093 N 98.8997 -5.37966 -2.95747 0
M  V30 1094 C 100.271 -5.52308 -2.81702 0
M  V30 1095 C 102.326 -4.16842 -2.72299 0
M  V30 1096 C 101.029 -6.69931 -2.61887 0
M  V30 1097 C 103.055 -5.34147 -2.53853 0
M  V30 1098 C 102.417 -6.59084 -2.48572 0
M  V30 1099 H 98.5157 -0.457003 -0.634564 0
M  V30 1100 H 101.1 -1.57592 -1.14337 0
M  V30 1101 H 99.2707 -1.32504 -3.65099 0
M  V30 1102 H 101.003 -1.55786 -3.73514 0
M  V30 1103 H 97.7577 -3.50169 -3.18871 0
M  V30 1104 H 98.1817 -6.10877 -2.91818 0
M  V30 1105 H 102.824 -3.21007 -2.75163 0
M  V30 1106 H 100.542 -7.65886 -2.57767 0
M  V30 1107 H 104.128 -5.28678 -2.4288 0
M  V30 1108 H 103.008 -7.48324 -2.34481 0
M  V30 1109 N 100.511 1.16574 -1.06058 0
M  V30 1110 C 101.474 2.19085 -0.673392 0
M  V30 1111 C 102.474 1.5835 0.279648 0
M  V30 1112 O 103.664 1.74088 0.0623488 0
M  V30 1113 C 100.796 3.40899 0.00954234 0
M  V30 1114 H 101.989 2.54853 -1.58081 0
M  V30 1115 H 99.5418 1.30808 -0.855516 0
M  V30 1116 H 100.277 3.10684 0.929826 0
M  V30 1117 H 100.062 3.86233 -0.67573 0
M  V30 1118 H 101.552 4.1675 0.266245 0
M  V30 1119 N 101.989 0.842826 1.3317 0
M  V30 1120 C 103.217 0.454055 2.01856 0
M  V30 1121 C 103.632 -0.94587 1.63397 0
M  V30 1122 O 102.989 -1.61534 0.849302 0
M  V30 1123 C 103.04 0.569715 3.56982 0
M  V30 1124 O 102.761 1.91448 3.94055 0
M  V30 1125 C 104.262 0.178412 4.42941 0
M  V30 1126 H 101.482 0.17979 0.646465 0
M  V30 1127 H 104.026 1.1365 1.70012 0
M  V30 1128 H 102.181 -0.0648587 3.87346 0
M  V30 1129 H 102.595 1.90282 4.88767 0
M  V30 1130 H 104.069 0.310376 5.51127 0
M  V30 1131 H 104.546 -0.880056 4.30293 0
M  V30 1132 H 105.152 0.787579 4.17944 0
M  V30 1133 N 103.467 -1.45747 0.599634 0
M  V30 1134 C 104.695 -2.06668 0.0978551 0
M  V30 1135 C 105.11 -1.44562 -1.21439 0
M  V30 1136 O 104.467 -0.556923 -1.73795 0
M  V30 1137 C 104.518 -3.61456 -0.0567044 0
M  V30 1138 O 104.239 -4.21242 1.20361 0
M  V30 1139 C 105.74 -4.39345 -0.590869 0
M  V30 1140 H 102.96 -0.667825 0.0651943 0
M  V30 1141 H 105.504 -1.87115 0.82511 0
M  V30 1142 H 103.659 -3.80378 -0.734251 0
M  V30 1143 H 104.073 -5.14323 1.02821 0
M  V30 1144 H 105.547 -5.48182 -0.648131 0
M  V30 1145 H 106.024 -4.08568 -1.61147 0
M  V30 1146 H 106.63 -4.25268 0.0523679 0
M  V30 1147 N 104.945 -0.338344 -1.53925 0
M  V30 1148 C 105.877 0.555117 -2.22376 0
M  V30 1149 C 106.89 1.06812 -1.22862 0
M  V30 1150 O 108.079 0.979163 -1.49247 0
M  V30 1151 C 105.179 1.77609 -2.88631 0
M  V30 1152 C 104.352 1.39927 -4.14414 0
M  V30 1153 C 103.411 2.47936 -4.64127 0
M  V30 1154 O 102.437 2.11461 -5.28463 0
M  V30 1155 N 103.639 3.79107 -4.39612 0
M  V30 1156 H 106.404 -0.0310778 -2.99684 0
M  V30 1157 H 103.965 -0.162226 -1.61085 0
M  V30 1158 H 105.957 2.49287 -3.18807 0
M  V30 1159 H 104.527 2.26978 -2.14941 0
M  V30 1160 H 103.747 0.513481 -3.90841 0
M  V30 1161 H 105.035 1.12341 -4.96243 0
M  V30 1162 H 104.433 4.11531 -3.88148 0
M  V30 1163 H 102.99 4.4697 -4.74406 0
M  V30 1164 N 106.423 1.57458 -0.0668435 0
M  V30 1165 C 107.651 1.97624 0.612565 0
M  V30 1166 C 108.066 0.94502 1.63447 0
M  V30 1167 O 107.423 -0.0689276 1.8237 0
M  V30 1168 C 107.474 3.37869 1.28555 0
M  V30 1169 O 107.195 4.3704 0.304557 0
M  V30 1170 C 108.696 3.92882 2.05325 0
M  V30 1171 H 105.916 0.650045 0.166381 0
M  V30 1172 H 108.46 2.04035 -0.137782 0
M  V30 1173 H 106.615 3.3256 1.98702 0
M  V30 1174 H 107.029 5.18565 0.786779 0
M  V30 1175 H 108.503 4.93247 2.47812 0
M  V30 1176 H 108.98 3.29156 2.9078 0
M  V30 1177 H 109.586 4.01577 1.40056 0
M  V30 1178 N 107.901 -0.206675 1.56239 0
M  V30 1179 C 109.129 -0.945345 1.8404 0
M  V30 1180 C 109.544 -1.77336 0.647885 0
M  V30 1181 O 108.901 -1.78425 -0.383511 0
M  V30 1182 C 108.952 -1.8509 3.10522 0
M  V30 1183 O 108.673 -1.05634 4.25174 0
M  V30 1184 C 110.174 -2.70222 3.51418 0
M  V30 1185 H 107.394 -0.276372 0.61144 0
M  V30 1186 H 109.938 -0.217417 2.03341 0
M  V30 1187 H 108.093 -2.53259 2.93153 0
M  V30 1188 H 108.507 -1.67238 4.97124 0
M  V30 1189 H 109.981 -3.29438 4.42916 0
M  V30 1190 H 110.458 -3.43358 2.73864 0
M  V30 1191 H 111.064 -2.07443 3.71278 0
M  V30 1192 N 109.379 -1.50304 -0.473955 0
M  V30 1193 C 110.311 -1.65109 -1.58971 0
M  V30 1194 C 111.324 -0.532676 -1.53839 0
M  V30 1195 O 112.513 -0.805751 -1.59279 0
M  V30 1196 C 109.613 -1.61684 -2.97845 0
M  V30 1197 C 108.786 -2.8951 -3.27876 0
M  V30 1198 C 107.845 -2.78768 -4.4629 0
M  V30 1199 O 106.871 -3.52722 -4.46739 0
M  V30 1200 N 108.073 -1.9213 -5.47783 0
M  V30 1201 H 110.838 -2.61347 -1.46689 0
M  V30 1202 H 108.399 -1.47732 -0.662324 0
M  V30 1203 H 110.391 -1.52114 -3.75024 0
M  V30 1204 H 108.961 -0.731925 -3.03911 0
M  V30 1205 H 108.181 -3.13228 -2.39336 0
M  V30 1206 H 109.469 -3.74199 -3.4475 0
M  V30 1207 H 108.867 -1.31353 -5.50239 0
M  V30 1208 H 107.424 -1.88466 -6.23958 0
M  V30 1209 N 110.857 0.726932 -1.39834 0
M  V30 1210 C 111.787 1.85405 -1.41941 0
M  V30 1211 C 112.768 1.67751 -0.281728 0
M  V30 1212 O 113.953 1.8795 -0.488717 0
M  V30 1213 C 111.083 3.23243 -1.2701 0
M  V30 1214 C 110.037 3.55549 -2.38262 0
M  V30 1215 C 109.363 4.9241 -2.08415 0
M  V30 1216 C 110.663 3.577 -3.80589 0
M  V30 1217 H 112.357 1.83899 -2.36266 0
M  V30 1218 H 109.903 0.883349 -1.13723 0
M  V30 1219 H 111.856 4.01775 -1.27103 0
M  V30 1220 H 110.58 3.25296 -0.291564 0
M  V30 1221 H 109.239 2.79351 -2.37399 0
M  V30 1222 H 108.887 4.91052 -1.0898 0
M  V30 1223 H 108.587 5.14992 -2.82943 0
M  V30 1224 H 110.111 5.73289 -2.10171 0
M  V30 1225 H 111.525 4.26293 -3.83337 0
M  V30 1226 H 109.922 3.91804 -4.54543 0
M  V30 1227 H 110.992 2.57328 -4.10987 0
M  V30 1228 N 112.336 1.25143 0.95797 0
M  V30 1229 C 113.561 1.12521 1.74223 0
M  V30 1230 C 113.986 -0.317402 1.85403 0
M  V30 1231 O 113.344 -1.2299 1.33204 0
M  V30 1232 C 113.392 1.78062 3.1357 0
M  V30 1233 O 112.496 1.058 3.98598 0
M  V30 1234 H 111.837 0.39304 0.535178 0
M  V30 1235 H 114.367 1.65641 1.201 0
M  V30 1236 H 114.377 1.84213 3.64046 0
M  V30 1237 H 113.052 2.83021 3.04749 0
M  V30 1238 H 111.629 1.07506 3.57067 0
M  V30 1239 N 113.814 -1.1601 1.06675 0
M  V30 1240 C 114.744 -2.22688 0.702307 0
M  V30 1241 C 115.725 -1.67306 -0.307032 0
M  V30 1242 O 116.91 -1.93352 -0.181305 0
M  V30 1243 C 114.04 -3.47178 0.092038 0
M  V30 1244 C 112.994 -4.15477 1.02777 0
M  V30 1245 C 112.32 -5.33963 0.28061 0
M  V30 1246 C 113.62 -4.66019 2.35846 0
M  V30 1247 H 115.314 -2.53429 1.59419 0
M  V30 1248 H 112.86 -1.21813 0.767961 0
M  V30 1249 H 114.813 -4.21037 -0.174814 0
M  V30 1250 H 113.537 -3.15749 -0.834877 0
M  V30 1251 H 112.196 -3.43549 1.27944 0
M  V30 1252 H 111.844 -4.98788 -0.649545 0
M  V30 1253 H 111.544 -5.806 0.904258 0
M  V30 1254 H 113.068 -6.10596 0.021396 0
M  V30 1255 H 114.482 -5.3144 2.15045 0
M  V30 1256 H 112.879 -5.23293 2.93743 0
M  V30 1257 H 113.949 -3.82023 2.98641 0
M  V30 1258 N 115.292 -0.849877 -1.32721 0
M  V30 1259 C 116.517 -0.463856 -2.02146 0
M  V30 1260 C 116.942 0.930449 -1.63476 0
M  V30 1261 O 116.3 1.61033 -0.832952 0
M  V30 1262 C 116.348 -0.604955 -3.55489 0
M  V30 1263 O 115.452 0.36425 -4.10788 0
M  V30 1264 H 114.793 -0.187046 -0.637111 0
M  V30 1265 H 117.323 -1.14775 -1.69375 0
M  V30 1266 H 117.333 -0.490696 -4.05038 0
M  V30 1267 H 116.008 -1.62174 -3.82978 0
M  V30 1268 H 114.585 0.206628 -3.72327 0
M  V30 1269 N 116.77 1.45427 -0.607355 0
M  V30 1270 C 118.017 2.02241 -0.102455 0
M  V30 1271 C 118.345 1.4758 1.26691 0
M  V30 1272 O 117.6 0.640468 1.84923 0
M  V30 1273 C 117.899 3.57398 -0.0129263 0
M  V30 1274 C 117.565 4.3121 -1.31792 0
M  V30 1275 C 116.227 4.51092 -1.67539 0
M  V30 1276 C 118.579 4.73401 -2.18039 0
M  V30 1277 C 115.907 5.10422 -2.89285 0
M  V30 1278 C 118.259 5.34078 -3.39034 0
M  V30 1279 C 116.923 5.52184 -3.75033 0
M  V30 1280 H 116.193 0.740051 -0.037491 0
M  V30 1281 H 118.84 1.74494 -0.788926 0
M  V30 1282 H 117.145 3.84421 0.756806 0
M  V30 1283 H 118.842 3.99061 0.393881 0
M  V30 1284 H 115.432 4.16047 -1.02968 0
M  V30 1285 H 119.616 4.57774 -1.91721 0
M  V30 1286 H 114.872 5.22629 -3.17283 0
M  V30 1287 H 119.046 5.65724 -4.06115 0
M  V30 1288 H 116.673 5.97925 -4.69457 0
M  V30 1289 N 118.248 0.346503 1.53744 0
M  V30 1290 C 119.195 -0.508914 2.25119 0
M  V30 1291 C 120.165 -1.09315 1.25058 0
M  V30 1292 O 121.35 -1.12921 1.53797 0
M  V30 1293 C 118.49 -1.65246 3.02965 0
M  V30 1294 C 117.603 -1.09525 4.17886 0
M  V30 1295 C 116.738 -2.20634 4.83212 0
M  V30 1296 C 115.777 -1.62279 5.90196 0
M  V30 1297 N 114.914 -2.67143 6.49291 0
M  V30 1298 H 119.754 0.106283 2.9781 0
M  V30 1299 H 117.291 0.0642227 1.4696 0
M  V30 1300 H 119.249 -2.32574 3.4636 0
M  V30 1301 H 117.879 -2.2386 2.32565 0
M  V30 1302 H 116.931 -0.312818 3.79112 0
M  V30 1303 H 118.243 -0.628444 4.94825 0
M  V30 1304 H 117.397 -2.95821 5.29693 0
M  V30 1305 H 116.136 -2.70659 4.05703 0
M  V30 1306 H 115.141 -0.855989 5.43096 0
M  V30 1307 H 116.366 -1.13102 6.69615 0
M  V30 1308 H 114.312 -3.16417 5.74645 0
M  V30 1309 H 114.229 -2.25093 7.21713 0
M  V30 1310 H 115.497 -3.4209 7.00425 0
M  V30 1311 N 119.726 -1.57421 0.075193 0
M  V30 1312 C 120.656 -2.15942 -0.888324 0
M  V30 1313 C 121.637 -1.08737 -1.30806 0
M  V30 1314 O 122.822 -1.36787 -1.37851 0
M  V30 1315 C 119.952 -2.72379 -2.1547 0
M  V30 1316 C 118.906 -3.8478 -1.87425 0
M  V30 1317 C 118.232 -4.27834 -3.20721 0
M  V30 1318 C 119.532 -5.08869 -1.17684 0
M  V30 1319 H 121.226 -2.96705 -0.400799 0
M  V30 1320 H 118.772 -1.42723 -0.191342 0
M  V30 1321 H 120.725 -3.11965 -2.83295 0
M  V30 1322 H 119.449 -1.88841 -2.6647 0
M  V30 1323 H 118.108 -3.45703 -1.22004 0
M  V30 1324 H 117.756 -3.41214 -3.6957 0
M  V30 1325 H 117.456 -5.03605 -3.02746 0
M  V30 1326 H 118.98 -4.70039 -3.89738 0
M  V30 1327 H 120.394 -5.4575 -1.75584 0
M  V30 1328 H 118.791 -5.8994 -1.09956 0
M  V30 1329 H 119.861 -4.84648 -0.156453 0
M  V30 1330 N 121.204 0.198386 -1.56346 0
M  V30 1331 C 122.481 0.944982 -1.71258 0
M  V30 1332 C 122.861 2.0151 -0.629048 0
M  V30 1333 O 122.209 2.25639 0.360473 0
M  V30 1334 C 122.419 1.5344 -3.1346 0
M  V30 1335 C 123.767 2.01778 -3.73591 0
M  V30 1336 O 124.791 1.63288 -3.16568 0
M  V30 1337 O 123.65 2.72594 -4.73661 0
M  V30 1338 H 120.744 0.442939 -0.69838 0
M  V30 1339 H 123.29 0.188342 -1.68652 0
M  V30 1340 H 122.062 0.762869 -3.83792 0
M  V30 1341 H 121.685 2.35596 -3.20282 0
M  V30 1342 N 122.682 1.50554 0.465978 0
M  V30 1343 C 123.912 1.65323 1.23903 0
M  V30 1344 C 124.32 0.338051 1.86155 0
M  V30 1345 O 123.663 -0.690518 1.70228 0
M  V30 1346 C 123.725 2.69048 2.3844 0
M  V30 1347 C 123.389 4.12462 1.96784 0
M  V30 1348 C 124.386 4.98168 1.48745 0
M  V30 1349 C 122.071 4.58407 2.05349 0
M  V30 1350 C 124.065 6.27868 1.0982 0
M  V30 1351 C 121.752 5.88112 1.66035 0
M  V30 1352 C 122.75 6.72668 1.18349 0
M  V30 1353 O 122.438 7.99951 0.795825 0
M  V30 1354 H 122.17 0.558629 0.38067 0
M  V30 1355 H 124.724 1.97561 0.562022 0
M  V30 1356 H 122.954 2.32062 3.09328 0
M  V30 1357 H 124.643 2.72985 3.0039 0
M  V30 1358 H 125.409 4.63885 1.41546 0
M  V30 1359 H 121.288 3.92735 2.41414 0
M  V30 1360 H 124.832 6.93819 0.725293 0
M  V30 1361 H 120.729 6.21914 1.72895 0
M  V30 1362 H 121.497 8.13265 0.924222 0
M  V30 1363 N 124.16 -0.719506 1.40217 0
M  V30 1364 C 125.407 -1.47933 1.38283 0
M  V30 1365 C 125.735 -1.94493 -0.0161536 0
M  V30 1366 O 124.99 -1.68224 -0.999956 0
M  V30 1367 C 125.289 -2.72271 2.31524 0
M  V30 1368 C 124.955 -2.44496 3.78857 0
M  V30 1369 C 123.617 -2.36631 4.18998 0
M  V30 1370 C 125.969 -2.21104 4.71977 0
M  V30 1371 C 123.297 -2.03437 5.503 0
M  V30 1372 C 125.649 -1.89423 6.03574 0
M  V30 1373 C 124.313 -1.80038 6.42762 0
M  V30 1374 H 123.583 -0.541325 0.506012 0
M  V30 1375 H 126.23 -0.824502 1.72842 0
M  V30 1376 H 124.535 -3.42572 1.90137 0
M  V30 1377 H 126.232 -3.30348 2.27313 0
M  V30 1378 H 122.822 -2.51503 3.47051 0
M  V30 1379 H 127.006 -2.26139 4.41786 0
M  V30 1380 H 122.262 -1.94705 5.79569 0
M  V30 1381 H 126.436 -1.70336 6.75247 0
M  V30 1382 H 124.063 -1.54083 7.44421 0
M  V30 1383 N 125.638 -1.25649 -0.95132 0
M  V30 1384 C 126.863 -1.13443 -1.73624 0
M  V30 1385 C 127.288 0.307565 -1.85568 0
M  V30 1386 O 126.646 1.22282 -1.33854 0
M  V30 1387 C 126.694 -1.79723 -3.12621 0
M  V30 1388 O 125.798 -1.07912 -3.98031 0
M  V30 1389 H 125.139 -0.395872 -0.533086 0
M  V30 1390 H 127.669 -1.66276 -1.1922 0
M  V30 1391 H 127.679 -1.86141 -3.63064 0
M  V30 1392 H 126.354 -2.84633 -3.03244 0
M  V30 1393 H 124.931 -1.09398 -3.56492 0
M  V30 1394 N 127.117 1.15442 -1.07289 0
M  V30 1395 C 128.05 2.19135 -0.636798 0
M  V30 1396 C 129.028 1.58884 0.34562 0
M  V30 1397 O 130.212 1.86805 0.252195 0
M  V30 1398 C 127.339 3.38638 0.0650014 0
M  V30 1399 C 126.385 4.17412 -0.87576 0
M  V30 1400 S 127.218 4.79882 -2.37642 0
M  V30 1401 C 128.374 6.02753 -1.6864 0
M  V30 1402 H 128.607 2.55787 -1.51526 0
M  V30 1403 H 126.14 1.26394 -0.886793 0
M  V30 1404 H 128.098 4.07873 0.463664 0
M  V30 1405 H 126.759 3.00331 0.919801 0
M  V30 1406 H 125.952 5.02909 -0.33143 0
M  V30 1407 H 125.554 3.53722 -1.21478 0
M  V30 1408 H 127.846 6.70113 -0.997753 0
M  V30 1409 H 128.789 6.61754 -2.51967 0
M  V30 1410 H 129.197 5.52355 -1.16465 0
M  V30 1411 N 128.595 0.856903 1.32268 0
M  V30 1412 C 129.528 0.247937 2.26849 0
M  V30 1413 C 130.506 -0.615382 1.50505 0
M  V30 1414 O 131.69 -0.571689 1.79622 0
M  V30 1415 C 128.817 -0.650093 3.32403 0
M  V30 1416 C 127.863 0.140138 4.2627 0
M  V30 1417 S 128.696 1.51004 5.13769 0
M  V30 1418 C 129.852 0.61778 6.22844 0
M  V30 1419 H 130.085 1.04971 2.78152 0
M  V30 1420 H 127.618 0.654665 1.39834 0
M  V30 1421 H 129.576 -1.16256 3.93694 0
M  V30 1422 H 128.237 -1.4257 2.7988 0
M  V30 1423 H 127.43 -0.543945 5.01056 0
M  V30 1424 H 127.032 0.584267 3.69408 0
M  V30 1425 H 129.324 -0.177053 6.77269 0
M  V30 1426 H 130.267 1.33636 6.95375 0
M  V30 1427 H 130.675 0.191124 5.64176 0
M  V30 1428 N 130.073 -1.45103 0.615059 0
M  V30 1429 C 131.32 -2.02183 0.113179 0
M  V30 1430 C 131.648 -1.48249 -1.25906 0
M  V30 1431 O 130.903 -0.650265 -1.84581 0
M  V30 1432 C 131.202 -3.57386 0.0318797 0
M  V30 1433 C 130.868 -4.30505 1.34077 0
M  V30 1434 C 129.53 -4.50197 1.69929 0
M  V30 1435 C 131.882 -4.72238 2.20546 0
M  V30 1436 C 129.21 -5.08881 2.91988 0
M  V30 1437 C 131.562 -5.32272 3.41861 0
M  V30 1438 C 130.226 -5.50187 3.77956 0
M  V30 1439 H 129.496 -0.739842 0.0414151 0
M  V30 1440 H 132.143 -1.74073 0.798168 0
M  V30 1441 H 130.448 -3.84817 -0.736409 0
M  V30 1442 H 132.145 -3.99264 -0.372712 0
M  V30 1443 H 128.735 -4.15496 1.05173 0
M  V30 1444 H 132.919 -4.56751 1.94146 0
M  V30 1445 H 128.175 -5.20939 3.2005 0
M  V30 1446 H 132.349 -5.63563 4.09109 0
M  V30 1447 H 129.976 -5.95427 4.72622 0
M  V30 1448 N 131.551 -0.354651 -1.53558 0
M  V30 1449 C 132.8 0.239504 -2.00273 0
M  V30 1450 C 133.113 1.50759 -1.24623 0
M  V30 1451 O 134.319 2.17968 -1.61871 0
M  V30 1452 C 132.775 0.477341 -3.5672 0
M  V30 1453 C 132.383 -0.775488 -4.41237 0
M  V30 1454 C 134.127 1.02975 -4.11821 0
M  V30 1455 C 132.034 -0.507838 -5.89216 0
M  V30 1456 H 130.964 0.0932743 -0.748208 0
M  V30 1457 H 133.615 -0.471701 -1.77334 0
M  V30 1458 H 131.997 1.24953 -3.7577 0
M  V30 1459 H 133.171 -1.54963 -4.33962 0
M  V30 1460 H 131.486 -1.25033 -3.97185 0
M  V30 1461 H 134.083 1.24513 -5.2 0
M  V30 1462 H 134.426 1.98862 -3.65731 0
M  V30 1463 H 134.959 0.317994 -3.96527 0
M  V30 1464 H 131.698 -1.43674 -6.39561 0
M  V30 1465 H 131.218 0.228011 -5.99366 0
M  V30 1466 H 132.897 -0.129238 -6.46871 0
M  V30 1467 N 133.029 1.57378 -0.0835403 0
M  V30 1468 C 134.44 1.81261 0.447358 0
M  V30 1469 C 134.791 0.998331 1.68902 0
M  V30 1470 O 133.916 0.224282 2.15235 0
M  V30 1471 C 134.511 3.28767 0.818386 0
M  V30 1472 C 133.07 3.53455 1.29409 0
M  V30 1473 C 132.217 2.75831 0.285024 0
M  V30 1474 H 135.168 1.5566 -0.309115 0
M  V30 1475 H 135.189 3.41459 1.67887 0
M  V30 1476 H 134.701 3.88006 -0.0855019 0
M  V30 1477 H 132.802 2.99534 2.21608 0
M  V30 1478 H 132.915 4.62128 1.2639 0
M  V30 1479 H 131.279 2.42947 0.764767 0
M  V30 1480 H 132.062 3.37813 -0.611341 0
M  V30 1481 N 134.507 -0.190092 1.56449 0
M  V30 1482 C 135.753 -0.911052 1.81184 0
M  V30 1483 C 136.086 -1.82699 0.658396 0
M  V30 1484 O 135.361 -1.91491 -0.340775 0
M  V30 1485 C 135.644 -1.72297 3.16205 0
M  V30 1486 C 135.497 -0.831419 4.42049 0
M  V30 1487 C 136.816 -2.69454 3.47969 0
M  V30 1488 H 133.935 -0.32977 0.659106 0
M  V30 1489 H 136.577 -0.178169 1.89163 0
M  V30 1490 H 134.727 -2.34778 3.09534 0
M  V30 1491 H 136.399 -0.220929 4.60771 0
M  V30 1492 H 134.642 -0.138406 4.33579 0
M  V30 1493 H 135.313 -1.43461 5.33032 0
M  V30 1494 H 137.789 -2.17104 3.54972 0
M  V30 1495 H 136.665 -3.23342 4.43555 0
M  V30 1496 H 136.926 -3.48744 2.71717 0
M  V30 1497 N 135.985 -1.50799 -0.457987 0
M  V30 1498 C 136.948 -1.7005 -1.53674 0
M  V30 1499 C 137.948 -0.570881 -1.50325 0
M  V30 1500 O 139.138 -0.838126 -1.52712 0
M  V30 1501 C 136.27 -1.73788 -2.93276 0
M  V30 1502 H 137.463 -2.66306 -1.37917 0
M  V30 1503 H 135.016 -1.40477 -0.685271 0
M  V30 1504 H 135.751 -0.792717 -3.14462 0
M  V30 1505 H 135.536 -2.55864 -2.97113 0
M  V30 1506 H 137.026 -1.90591 -3.71571 0
M  V30 1507 N 137.463 0.71206 -1.40597 0
M  V30 1508 C 138.393 1.83889 -1.43899 0
M  V30 1509 C 139.374 1.67442 -0.299504 0
M  V30 1510 O 140.559 1.87421 -0.508624 0
M  V30 1511 C 137.689 3.21877 -1.30431 0
M  V30 1512 C 136.643 3.53002 -2.42019 0
M  V30 1513 C 135.969 4.90172 -2.13626 0
M  V30 1514 C 137.269 3.53643 -3.84362 0
M  V30 1515 H 138.963 1.81383 -2.38203 0
M  V30 1516 H 136.509 0.871237 -1.14654 0
M  V30 1517 H 138.462 4.00404 -1.31357 0
M  V30 1518 H 137.186 3.24968 -0.326049 0
M  V30 1519 H 135.845 2.76818 -2.40349 0
M  V30 1520 H 135.493 4.89869 -1.14182 0
M  V30 1521 H 135.193 5.11962 -2.88389 0
M  V30 1522 H 136.717 5.71028 -2.1624 0
M  V30 1523 H 138.131 4.22203 -3.87837 0
M  V30 1524 H 136.528 3.86961 -4.58673 0
M  V30 1525 H 137.598 2.52954 -4.13693 0
M  V30 1526 N 138.941 1.26152 0.944643 0
M  V30 1527 C 140.188 1.11492 1.69044 0
M  V30 1528 C 140.516 -0.342366 1.91463 0
M  V30 1529 O 139.771 -1.26812 1.49054 0
M  V30 1530 C 140.07 1.82541 3.07268 0
M  V30 1531 C 139.736 3.32445 3.04616 0
M  V30 1532 C 138.398 3.73337 3.036 0
M  V30 1533 C 140.75 4.28171 2.97185 0
M  V30 1534 C 138.078 5.08348 2.92915 0
M  V30 1535 C 140.43 5.63218 2.88041 0
M  V30 1536 C 139.094 6.03426 2.85366 0
M  V30 1537 H 138.364 0.407977 0.618576 0
M  V30 1538 H 141.011 1.56551 1.10291 0
M  V30 1539 H 139.316 1.29941 3.69625 0
M  V30 1540 H 141.013 1.68642 3.63815 0
M  V30 1541 H 137.603 2.99915 3.06185 0
M  V30 1542 H 141.787 3.97563 2.97081 0
M  V30 1543 H 137.043 5.38667 2.89219 0
M  V30 1544 H 141.217 6.37078 2.81254 0
M  V30 1545 H 138.844 7.07999 2.76842 0
M  V30 1546 N 140.419 -1.14872 1.07899 0
M  V30 1547 C 141.665 -1.86064 0.806725 0
M  V30 1548 C 141.998 -1.82434 -0.665706 0
M  V30 1549 O 141.273 -1.25138 -1.48899 0
M  V30 1550 C 141.556 -3.34929 1.32267 0
M  V30 1551 C 141.409 -3.47161 2.86006 0
M  V30 1552 C 142.728 -4.29863 0.943717 0
M  V30 1553 H 139.847 -0.675591 0.294526 0
M  V30 1554 H 142.489 -1.34925 1.33773 0
M  V30 1555 H 140.639 -3.78611 0.870974 0
M  V30 1556 H 142.311 -3.12302 3.39507 0
M  V30 1557 H 140.554 -2.88539 3.23925 0
M  V30 1558 H 141.225 -4.51777 3.17177 0
M  V30 1559 H 143.701 -3.9417 1.33302 0
M  V30 1560 H 142.577 -5.32494 1.33198 0
M  V30 1561 H 142.838 -4.41846 -0.149796 0
M  V30 1562 N 141.898 -0.863906 -1.31812 0
M  V30 1563 C 143.126 -0.486111 -2.01108 0
M  V30 1564 C 143.541 0.919755 -1.64882 0
M  V30 1565 O 142.898 1.60162 -0.874893 0
M  V30 1566 C 142.949 -0.626435 -3.56031 0
M  V30 1567 O 142.67 -1.97693 -3.90959 0
M  V30 1568 C 144.171 -0.248857 -4.42601 0
M  V30 1569 H 141.391 -0.190052 -0.643523 0
M  V30 1570 H 143.935 -1.1634 -1.68182 0
M  V30 1571 H 142.09 0.00322717 -3.874 0
M  V30 1572 H 142.504 -1.98034 -4.85678 0
M  V30 1573 H 143.978 -0.398016 -5.50563 0
M  V30 1574 H 144.455 0.811489 -4.31638 0
M  V30 1575 H 145.061 -0.853971 -4.16638 0
M  V30 1576 N 143.376 1.44774 -0.622745 0
M  V30 1577 C 144.622 2.02968 -0.13257 0
M  V30 1578 C 144.977 1.48047 1.22881 0
M  V30 1579 O 144.27 0.651625 1.80179 0
M  V30 1580 C 144.464 3.57364 -0.0508323 0
M  V30 1581 C 144.293 4.27262 -1.40275 0
M  V30 1582 C 143.063 4.64577 -1.98737 0
M  V30 1583 C 145.261 4.58248 -2.3348 0
M  V30 1584 N 143.243 5.19404 -3.27251 0
M  V30 1585 C 144.614 5.14069 -3.46603 0
M  V30 1586 C 146.669 4.40195 -2.32664 0
M  V30 1587 C 145.372 5.53738 -4.59093 0
M  V30 1588 C 147.398 4.80907 -3.44213 0
M  V30 1589 C 146.76 5.36834 -4.56058 0
M  V30 1590 H 142.859 0.776541 -0.0922354 0
M  V30 1591 H 145.443 1.76385 -0.82441 0
M  V30 1592 H 143.614 3.83576 0.610265 0
M  V30 1593 H 145.346 4.02219 0.447397 0
M  V30 1594 H 142.101 4.48622 -1.51774 0
M  V30 1595 H 142.525 5.51301 -3.92933 0
M  V30 1596 H 147.167 3.96257 -1.47446 0
M  V30 1597 H 144.885 5.96635 -5.45025 0
M  V30 1598 H 148.471 4.68659 -3.44747 0
M  V30 1599 H 147.351 5.67755 -5.40947 0
M  V30 1600 N 144.854 0.36279 1.53368 0
M  V30 1601 C 146.079 -0.231226 2.06107 0
M  V30 1602 C 146.504 -1.419 1.23474 0
M  V30 1603 O 145.862 -1.79524 0.253128 0
M  V30 1604 C 145.91 -0.605523 3.5548 0
M  V30 1605 O 145.014 -1.70312 3.7559 0
M  V30 1606 H 144.355 -0.034327 0.663112 0
M  V30 1607 H 146.885 0.522584 1.97814 0
M  V30 1608 H 146.895 -0.877314 3.98456 0
M  V30 1609 H 145.57 0.263004 4.15068 0
M  V30 1610 H 144.147 -1.4271 3.44512 0
M  V30 1611 N 146.332 -1.57332 0.0918853 0
M  V30 1612 C 147.581 -1.93412 -0.572249 0
M  V30 1613 C 147.894 -0.975515 -1.69538 0
M  V30 1614 O 149.1 -1.22991 -2.42045 0
M  V30 1615 C 147.556 -3.43648 -1.0693 0
M  V30 1616 C 147.164 -4.47994 0.0239049 0
M  V30 1617 C 148.908 -3.88695 -1.70635 0
M  V30 1618 C 146.815 -5.89381 -0.488319 0
M  V30 1619 H 145.745 -0.721939 -0.217532 0
M  V30 1620 H 148.396 -1.82735 0.167369 0
M  V30 1621 H 146.778 -3.49466 -1.8625 0
M  V30 1622 H 147.952 -4.53815 0.799277 0
M  V30 1623 H 146.267 -4.12536 0.565946 0
M  V30 1624 H 148.864 -4.91725 -2.10025 0
M  V30 1625 H 149.207 -3.27166 -2.57426 0
M  V30 1626 H 149.74 -3.85564 -0.979023 0
M  V30 1627 H 146.479 -6.54602 0.342906 0
M  V30 1628 H 145.999 -5.87037 -1.23077 0
M  V30 1629 H 147.678 -6.39863 -0.958317 0
M  V30 1630 N 147.81 0.181792 -1.56548 0
M  V30 1631 C 148.743 1.25366 -1.90679 0
M  V30 1632 C 149.721 1.43299 -0.768376 0
M  V30 1633 O 150.905 1.58475 -1.02068 0
M  V30 1634 C 148.032 2.61826 -2.1486 0
M  V30 1635 C 147.078 2.60688 -3.37556 0
M  V30 1636 S 147.911 2.10804 -4.92262 0
M  V30 1637 C 149.067 3.49062 -5.19525 0
M  V30 1638 H 149.3 0.962277 -2.81296 0
M  V30 1639 H 146.833 0.385892 -1.495 0
M  V30 1640 H 148.791 3.40371 -2.29473 0
M  V30 1641 H 147.452 2.88169 -1.24969 0
M  V30 1642 H 146.645 3.61058 -3.51643 0
M  V30 1643 H 146.247 1.90232 -3.22006 0
M  V30 1644 H 148.539 4.45003 -5.10861 0
M  V30 1645 H 149.482 3.39859 -6.2121 0
M  V30 1646 H 149.89 3.4459 -4.47122 0
M  V30 1647 N 149.288 1.51039 0.449983 0
M  V30 1648 C 150.198 1.74261 1.57067 0
M  V30 1649 C 151.214 0.626363 1.62335 0
M  V30 1650 O 152.39 0.907162 1.79812 0
M  V30 1651 C 149.455 1.85114 2.93144 0
M  V30 1652 C 148.516 3.0893 2.98095 0
M  V30 1653 C 147.749 3.19256 4.27681 0
M  V30 1654 O 147.972 2.35835 5.19363 0
M  V30 1655 O 146.906 4.12144 4.38658 0
M  V30 1656 H 150.732 2.69303 1.40391 0
M  V30 1657 H 148.317 1.35389 0.631688 0
M  V30 1658 H 150.199 1.94311 3.73926 0
M  V30 1659 H 148.874 0.932588 3.09975 0
M  V30 1660 H 147.781 3.0522 2.16314 0
M  V30 1661 H 149.114 4.00433 2.86206 0
M  V30 1662 N 150.766 -0.704594 1.40972 0
M  V30 1663 C 152.013 -1.46458 1.39844 0
M  V30 1664 C 152.341 -1.94499 0.00447594 0
M  V30 1665 O 151.596 -1.69275 -0.982057 0
M  V30 1666 C 151.895 -2.698 2.34399 0
M  V30 1667 C 151.561 -2.40464 3.81429 0
M  V30 1668 C 150.223 -2.32174 4.21484 0
M  V30 1669 C 152.575 -2.16086 4.74296 0
M  V30 1670 C 149.903 -1.97589 5.52427 0
M  V30 1671 C 152.255 -1.83011 6.05549 0
M  V30 1672 C 150.919 -1.7321 6.44635 0
M  V30 1673 H 150.189 -0.535927 0.511725 0
M  V30 1674 H 152.836 -0.806124 1.73706 0
M  V30 1675 H 151.141 -3.40536 1.93759 0
M  V30 1676 H 152.838 -3.27919 2.30804 0
M  V30 1677 H 149.428 -2.47808 3.49699 0
M  V30 1678 H 153.612 -2.2144 4.4416 0
M  V30 1679 H 148.868 -1.88547 5.81601 0
M  V30 1680 H 153.042 -1.63164 6.77016 0
M  V30 1681 H 150.669 -1.46179 7.46013 0
M  V30 1682 N 152.244 -1.26651 -0.937939 0
M  V30 1683 C 153.469 -1.15279 -1.72411 0
M  V30 1684 C 153.894 0.287866 -1.85884 0
M  V30 1685 O 153.252 1.20855 -1.35143 0
M  V30 1686 C 153.3 -1.83028 -3.10698 0
M  V30 1687 O 152.404 -1.12128 -3.96864 0
M  V30 1688 H 151.745 -0.401504 -0.528858 0
M  V30 1689 H 154.275 -1.67531 -1.1745 0
M  V30 1690 H 154.285 -1.89981 -3.6107 0
M  V30 1691 H 152.96 -2.87833 -3.00208 0
M  V30 1692 H 151.537 -1.13173 -3.55312 0
M  V30 1693 N 153.722 1.14298 -1.08507 0
M  V30 1694 C 154.652 2.21542 -0.737646 0
M  V30 1695 C 155.633 1.67773 0.280377 0
M  V30 1696 O 156.818 1.93616 0.150521 0
M  V30 1697 C 153.948 3.46988 -0.147259 0
M  V30 1698 C 152.902 4.13789 -1.09374 0
M  V30 1699 C 152.228 5.33449 -0.365524 0
M  V30 1700 C 153.528 4.62208 -2.4323 0
M  V30 1701 H 155.222 2.5086 -1.6343 0
M  V30 1702 H 152.768 1.20576 -0.787243 0
M  V30 1703 H 154.721 4.21262 0.107808 0
M  V30 1704 H 153.445 3.17037 0.784538 0
M  V30 1705 H 152.104 3.4147 -1.33393 0
M  V30 1706 H 151.752 4.99759 0.57011 0
M  V30 1707 H 151.452 5.79088 -0.996512 0
M  V30 1708 H 152.976 6.10485 -0.118534 0
M  V30 1709 H 154.39 5.27952 -2.23472 0
M  V30 1710 H 152.787 5.18553 -3.02031 0
M  V30 1711 H 153.857 3.77224 -3.04681 0
M  V30 1712 N 155.201 0.870884 1.31352 0
M  V30 1713 C 156.447 0.492314 1.97352 0
M  V30 1714 C 156.802 -0.945174 1.67583 0
M  V30 1715 O 156.095 -1.65674 0.962423 0
M  V30 1716 C 156.289 0.687157 3.50732 0
M  V30 1717 C 156.118 2.14203 3.95407 0
M  V30 1718 C 154.888 2.78382 4.21701 0
M  V30 1719 C 157.086 3.1144 4.09279 0
M  V30 1720 N 155.068 4.14611 4.52737 0
M  V30 1721 C 156.439 4.32702 4.44037 0
M  V30 1722 C 158.494 3.07418 3.91661 0
M  V30 1723 C 157.197 5.50463 4.63015 0
M  V30 1724 C 159.223 4.24438 4.11833 0
M  V30 1725 C 158.585 5.44463 4.46923 0
M  V30 1726 H 154.684 0.229206 0.747655 0
M  V30 1727 H 157.268 1.12568 1.5886 0
M  V30 1728 H 155.439 0.083384 3.8831 0
M  V30 1729 H 157.171 0.276883 4.03752 0
M  V30 1730 H 153.926 2.29326 4.14375 0
M  V30 1731 H 154.35 4.84928 4.72413 0
M  V30 1732 H 158.992 2.15732 3.6362 0
M  V30 1733 H 156.71 6.42666 4.89904 0
M  V30 1734 H 160.296 4.2278 3.99685 0
M  V30 1735 H 159.176 6.33504 4.62214 0
M  V30 1736 N 156.679 -1.44442 0.630414 0
M  V30 1737 C 157.909 -2.06115 0.141465 0
M  V30 1738 C 158.317 -1.47179 -1.1889 0
M  V30 1739 O 157.66 -0.588873 -1.74006 0
M  V30 1740 C 157.722 -3.59467 -0.0484355 0
M  V30 1741 C 157.386 -4.40864 1.20366 0
M  V30 1742 C 158.383 -4.74391 2.12719 0
M  V30 1743 C 156.068 -4.8125 1.43887 0
M  V30 1744 C 158.062 -5.47186 3.26904 0
M  V30 1745 C 155.749 -5.53795 2.5837 0
M  V30 1746 C 156.747 -5.86682 3.49705 0
M  V30 1747 O 156.435 -6.57749 4.62191 0
M  V30 1748 H 156.167 -0.671648 0.0765792 0
M  V30 1749 H 158.721 -1.86312 0.864695 0
M  V30 1750 H 156.951 -3.77758 -0.826803 0
M  V30 1751 H 158.64 -4.02909 -0.491849 0
M  V30 1752 H 159.406 -4.43728 1.95781 0
M  V30 1753 H 155.285 -4.55073 0.736853 0
M  V30 1754 H 158.829 -5.72773 3.98217 0
M  V30 1755 H 154.726 -5.83872 2.75251 0
M  V30 1756 H 155.494 -6.76217 4.61164 0
M  V30 1757 N 158.157 -0.370918 -1.53173 0
M  V30 1758 C 159.09 0.516727 -2.22273 0
M  V30 1759 C 160.068 1.07877 -1.21661 0
M  V30 1760 O 161.252 1.13389 -1.50583 0
M  V30 1761 C 158.379 1.71346 -2.92161 0
M  V30 1762 C 157.425 1.27838 -4.0689 0
M  V30 1763 S 158.258 0.275217 -5.34792 0
M  V30 1764 C 159.414 1.47816 -6.08195 0
M  V30 1765 H 159.647 -0.0701054 -2.97217 0
M  V30 1766 H 157.18 -0.155038 -1.5362 0
M  V30 1767 H 159.138 2.39988 -3.3304 0
M  V30 1768 H 157.799 2.27156 -2.16931 0
M  V30 1769 H 156.992 2.17141 -4.54825 0
M  V30 1770 H 156.594 0.671105 -3.6793 0
M  V30 1771 H 158.886 2.40831 -6.33251 0
M  V30 1772 H 159.829 1.04008 -7.0042 0
M  V30 1773 H 160.237 1.68663 -5.38714 0
M  V30 1774 N 159.635 1.57281 -0.100228 0
M  V30 1775 C 160.583 2.15542 0.874328 0
M  V30 1776 C 161.577 1.09962 1.28859 0
M  V30 1777 O 162.783 1.28298 1.26252 0
M  V30 1778 H 159.158 0.689567 0.300003 0
M  V30 1779 H 161.129 2.96241 0.35829 0
M  V30 1780 C 159.878 2.75454 2.1218 0
M  V30 1781 H 159.201 3.56384 1.81193 0
M  V30 1782 H 160.641 3.19781 2.78417 0
M  V30 1783 C 159.1 1.71602 2.89921 0
M  V30 1784 O 159.63 1.15804 3.84646 0
M  V30 1785 N 157.836 1.41975 2.53558 0
M  V30 1786 H 157.383 1.87539 1.76598 0
M  V30 1787 H 157.341 0.727274 3.05873 0
M  V30 1788 N 161.113 -0.173488 1.56642 0
M  V30 1789 C 162.338 -0.910149 1.86363 0
M  V30 1790 C 162.763 -1.75132 0.686318 0
M  V30 1791 O 162.121 -1.77595 -0.364643 0
M  V30 1792 C 162.169 -1.76447 3.14482 0
M  V30 1793 O 161.273 -2.86584 2.96553 0
M  V30 1794 H 160.614 -0.255086 0.613047 0
M  V30 1795 H 163.144 -0.172283 2.03873 0
M  V30 1796 H 163.154 -2.16483 3.45831 0
M  V30 1797 H 161.829 -1.14658 3.99783 0
M  V30 1798 H 160.406 -2.50146 2.76553 0
M  V30 1799 N 162.591 -1.51276 -0.441967 0
M  V30 1800 C 163.868 -1.54252 -1.20273 0
M  V30 1801 C 164.248 -0.30408 -2.08898 0
M  V30 1802 O 163.596 0.711084 -2.17154 0
M  V30 1803 C 163.806 -2.85406 -2.00859 0
M  V30 1804 C 165.154 -3.37181 -2.58059 0
M  V30 1805 O 166.178 -2.86925 -2.11074 0
M  V30 1806 O 165.037 -4.24858 -3.43741 0
M  V30 1807 H 162.131 -0.619969 -0.547328 0
M  V30 1808 H 164.677 -1.63586 -0.451413 0
M  V30 1809 H 163.449 -3.67003 -1.35736 0
M  V30 1810 H 163.072 -2.79213 -2.83065 0
M  V30 1811 N 164.069 0.697108 -1.41344 0
M  V30 1812 C 165.48 1.27697 -1.36199 0
M  V30 1813 C 165.831 1.9615 -0.0443463 0
M  V30 1814 O 164.956 1.98689 0.857419 0
M  V30 1815 C 165.551 2.32223 -2.46694 0
M  V30 1816 C 164.11 2.8579 -2.44952 0
M  V30 1817 C 163.257 1.59807 -2.26621 0
M  V30 1818 H 166.208 0.491968 -1.50882 0
M  V30 1819 H 166.229 3.1348 -2.15664 0
M  V30 1820 H 165.741 1.82373 -3.42581 0
M  V30 1821 H 163.842 3.3982 -1.52817 0
M  V30 1822 H 163.955 3.36325 -3.41207 0
M  V30 1823 H 162.319 1.8556 -1.7447 0
M  V30 1824 H 163.102 1.11956 -3.24532 0
M  V30 1825 N 165.547 1.27147 0.931209 0
M  V30 1826 C 166.495 1.09398 2.05268 0
M  V30 1827 C 167.489 0.0180591 1.6939 0
M  V30 1828 O 168.695 0.17551 1.79142 0
M  V30 1829 H 165.07 0.336986 0.672268 0
M  V30 1830 H 167.041 2.04416 2.17386 0
M  V30 1831 C 165.79 0.75424 3.39421 0
M  V30 1832 H 165.113 1.57404 3.67511 0
M  V30 1833 H 166.553 0.669903 4.18674 0
M  V30 1834 C 165.012 -0.541197 3.32525 0
M  V30 1835 O 165.542 -1.57664 3.69466 0
M  V30 1836 N 163.748 -0.535517 2.85623 0
M  V30 1837 H 163.295 0.307511 2.55758 0
M  V30 1838 H 163.253 -1.40236 2.81392 0
M  V30 1839 N 167.025 -1.13721 1.09112 0
M  V30 1840 C 168.274 -1.84275 0.82009 0
M  V30 1841 C 168.587 -1.84253 -0.656509 0
M  V30 1842 O 169.793 -2.50668 -1.04296 0
M  V30 1843 C 168.249 -3.30825 1.41714 0
M  V30 1844 C 167.857 -3.39244 2.92605 0
M  V30 1845 C 169.601 -4.06443 1.22492 0
M  V30 1846 C 167.508 -4.80047 3.45411 0
M  V30 1847 H 166.438 -0.690387 0.30312 0
M  V30 1848 H 169.089 -1.28146 1.31343 0
M  V30 1849 H 167.471 -3.86737 0.851498 0
M  V30 1850 H 168.645 -2.93344 3.55367 0
M  V30 1851 H 166.96 -2.77088 3.10823 0
M  V30 1852 H 169.557 -5.10387 1.59402 0
M  V30 1853 H 169.9 -4.15972 0.165299 0
M  V30 1854 H 170.433 -3.56852 1.75788 0
M  V30 1855 H 167.172 -4.75709 4.50978 0
M  V30 1856 H 166.692 -5.26455 2.87411 0
M  V30 1857 H 168.371 -5.48957 3.42425 0
M  V30 1858 N 168.503 -0.877838 -1.30888 0
M  V30 1859 C 169.451 -0.328662 -2.30266 0
M  V30 1860 C 170.445 0.560496 -1.59859 0
M  V30 1861 O 171.651 0.445722 -1.74394 0
M  V30 1862 H 168.026 -0.0876142 -0.746879 0
M  V30 1863 H 169.997 -1.18061 -2.74051 0
M  V30 1864 C 168.746 0.448071 -3.44801 0
M  V30 1865 H 168.069 -0.226859 -3.99156 0
M  V30 1866 H 169.509 0.797541 -4.16432 0
M  V30 1867 C 167.968 1.64239 -2.94155 0
M  V30 1868 O 168.498 2.74175 -2.93583 0
M  V30 1869 N 166.704 1.47716 -2.50256 0
M  V30 1870 H 166.251 0.582821 -2.5092 0
M  V30 1871 H 166.209 2.27765 -2.16727 0
M  V30 1872 N 169.982 1.44106 -0.638065 0
M  V30 1873 C 170.914 2.28976 0.101205 0
M  V30 1874 C 171.927 1.4167 0.802088 0
M  V30 1875 O 173.116 1.65755 0.662375 0
M  V30 1876 C 170.216 3.18217 1.16581 0
M  V30 1877 C 169.389 4.33978 0.546066 0
M  V30 1878 C 168.448 5.04202 1.50554 0
M  V30 1879 O 167.474 5.59986 1.01999 0
M  V30 1880 N 168.676 5.06296 2.8398 0
M  V30 1881 H 171.441 2.93064 -0.627186 0
M  V30 1882 H 169.002 1.54629 -0.479731 0
M  V30 1883 H 170.994 3.62061 1.80815 0
M  V30 1884 H 169.564 2.55833 1.79634 0
M  V30 1885 H 168.784 3.93239 -0.275046 0
M  V30 1886 H 170.072 5.08675 0.112793 0
M  V30 1887 H 169.47 4.62319 3.26002 0
M  V30 1888 H 168.027 5.53907 3.43556 0
M  V30 1889 N 171.46 0.379036 1.52974 0
M  V30 1890 C 172.707 -0.206421 2.01445 0
M  V30 1891 C 173.035 -1.47668 1.26587 0
M  V30 1892 O 172.29 -1.92514 0.351675 0
M  V30 1893 C 172.589 -0.53096 3.53434 0
M  V30 1894 C 172.255 0.646546 4.46241 0
M  V30 1895 C 170.917 0.969604 4.7133 0
M  V30 1896 C 173.269 1.43479 5.01062 0
M  V30 1897 C 170.597 2.08263 5.48492 0
M  V30 1898 C 172.949 2.53834 5.7944 0
M  V30 1899 C 171.613 2.86659 6.02812 0
M  V30 1900 H 170.883 -0.0755349 0.73714 0
M  V30 1901 H 173.53 0.514271 1.84465 0
M  V30 1902 H 171.835 -1.33285 3.68432 0
M  V30 1903 H 173.532 -0.996417 3.88423 0
M  V30 1904 H 170.122 0.384734 4.2687 0
M  V30 1905 H 174.306 1.19844 4.81613 0
M  V30 1906 H 169.562 2.34078 5.64816 0
M  V30 1907 H 173.736 3.15319 6.20924 0
M  V30 1908 H 171.363 3.73026 6.62387 0
M  V30 1909 N 172.938 -1.57226 0.108567 0
M  V30 1910 C 174.185 -1.94833 -0.551943 0
M  V30 1911 C 174.513 -0.991204 -1.67348 0
M  V30 1912 O 173.768 -0.0131878 -1.95696 0
M  V30 1913 C 174.067 -3.38911 -1.13463 0
M  V30 1914 C 173.733 -4.50696 -0.135509 0
M  V30 1915 C 172.395 -4.80998 0.139252 0
M  V30 1916 C 174.747 -5.18333 0.545957 0
M  V30 1917 C 172.075 -5.76259 1.10194 0
M  V30 1918 C 174.427 -6.14627 1.49721 0
M  V30 1919 C 173.091 -6.43327 1.78006 0
M  V30 1920 H 172.361 -0.712944 -0.20197 0
M  V30 1921 H 175.008 -1.90582 0.18726 0
M  V30 1922 H 173.313 -3.39805 -1.95037 0
M  V30 1923 H 175.01 -3.65317 -1.65362 0
M  V30 1924 H 171.6 -4.27087 -0.359846 0
M  V30 1925 H 175.784 -4.95087 0.346842 0
M  V30 1926 H 171.04 -5.96804 1.32795 0
M  V30 1927 H 175.214 -6.66126 2.03099 0
M  V30 1928 H 172.841 -7.1695 2.52759 0
M  V30 1929 N 174.416 0.165178 -1.56732 0
M  V30 1930 C 175.363 1.2044 -1.96883 0
M  V30 1931 C 176.333 1.43664 -0.833657 0
M  V30 1932 O 177.518 1.56302 -1.09427 0
M  V30 1933 C 174.658 2.53727 -2.33916 0
M  V30 1934 C 173.771 2.3783 -3.6064 0
M  V30 1935 C 172.906 3.64026 -3.86857 0
M  V30 1936 C 171.945 3.43088 -5.06909 0
M  V30 1937 N 171.082 4.61369 -5.29229 0
M  V30 1938 H 175.922 0.854996 -2.85471 0
M  V30 1939 H 173.459 0.41076 -1.41249 0
M  V30 1940 H 175.417 3.31419 -2.53411 0
M  V30 1941 H 174.047 2.8665 -1.48431 0
M  V30 1942 H 173.099 1.51282 -3.49024 0
M  V30 1943 H 174.411 2.18308 -4.4849 0
M  V30 1944 H 173.565 4.50152 -4.06753 0
M  V30 1945 H 172.304 3.86533 -2.97394 0
M  V30 1946 H 171.309 2.55349 -4.86906 0
M  V30 1947 H 172.534 3.21997 -5.97909 0
M  V30 1948 H 170.48 4.84084 -4.42718 0
M  V30 1949 H 170.397 4.44783 -6.11313 0
M  V30 1950 H 171.665 5.48761 -5.53608 0
M  V30 1951 N 175.894 1.51508 0.433938 0
M  V30 1952 C 177.124 1.67914 1.20369 0
M  V30 1953 C 177.532 0.377461 1.85397 0
M  V30 1954 O 176.875 -0.654255 1.71654 0
M  V30 1955 C 176.937 2.74045 2.32679 0
M  V30 1956 C 176.601 4.16543 1.87991 0
M  V30 1957 C 177.598 5.01211 1.38145 0
M  V30 1958 C 175.283 4.6266 1.95579 0
M  V30 1959 C 177.277 6.30056 0.964774 0
M  V30 1960 C 174.964 5.91501 1.53523 0
M  V30 1961 C 175.962 6.75027 1.04055 0
M  V30 1962 O 175.65 8.01459 0.625964 0
M  V30 1963 H 175.382 0.566578 0.368735 0
M  V30 1964 H 177.936 1.98709 0.51999 0
M  V30 1965 H 176.166 2.38572 3.04336 0
M  V30 1966 H 177.855 2.79295 2.94532 0
M  V30 1967 H 178.621 4.66783 1.31675 0
M  V30 1968 H 174.5 3.97767 2.33029 0
M  V30 1969 H 178.044 6.95202 0.57796 0
M  V30 1970 H 173.941 6.25442 1.59665 0
M  V30 1971 H 174.709 8.15043 0.751509 0
M  V30 1972 N 177.372 -0.689602 1.41712 0
M  V30 1973 C 178.302 -1.81577 1.46806 0
M  V30 1974 C 179.283 -1.66945 0.326105 0
M  V30 1975 O 180.468 -1.86588 0.538377 0
M  V30 1976 C 177.598 -3.19762 1.35535 0
M  V30 1977 C 176.552 -3.49107 2.47605 0
M  V30 1978 C 175.878 -4.86711 2.21397 0
M  V30 1979 C 177.178 -3.47483 3.89939 0
M  V30 1980 H 178.872 -1.7757 2.41058 0
M  V30 1981 H 176.418 -0.852887 1.16025 0
M  V30 1982 H 178.371 -3.98263 1.3771 0
M  V30 1983 H 177.095 -3.24409 0.377708 0
M  V30 1984 H 175.754 -2.72959 2.44722 0
M  V30 1985 H 175.402 -4.8799 1.21961 0
M  V30 1986 H 175.102 -5.0731 2.96497 0
M  V30 1987 H 176.626 -5.67515 2.25297 0
M  V30 1988 H 178.04 -4.1598 3.94505 0
M  V30 1989 H 176.437 -3.79615 4.64771 0
M  V30 1990 H 177.507 -2.46341 4.17665 0
M  V30 1991 N 178.85 -1.27639 -0.924453 0
M  V30 1992 C 179.78 -1.13166 -2.04244 0
M  V30 1993 C 180.761 -0.032256 -1.70069 0
M  V30 1994 O 181.946 -0.207328 -1.9309 0
M  V30 1995 C 179.076 -0.781496 -3.38393 0
M  V30 1996 C 178.03 -1.83449 -3.86692 0
M  V30 1997 C 177.356 -1.33822 -5.17683 0
M  V30 1998 C 178.656 -3.23917 -4.09726 0
M  V30 1999 H 180.35 -2.06689 -2.1661 0
M  V30 2000 H 177.896 -0.995136 -1.04082 0
M  V30 2001 H 179.849 -0.667057 -4.16087 0
M  V30 2002 H 178.573 0.189439 -3.2605 0
M  V30 2003 H 177.232 -1.93789 -3.11193 0
M  V30 2004 H 176.88 -0.35665 -5.01734 0
M  V30 2005 H 176.58 -2.04224 -5.50968 0
M  V30 2006 H 178.104 -1.23679 -5.97943 0
M  V30 2007 H 179.518 -3.16559 -4.77978 0
M  V30 2008 H 177.915 -3.92059 -4.54324 0
M  V30 2009 H 178.985 -3.68729 -3.14908 0
M  V30 2010 N 180.328 1.1314 -1.09713 0
M  V30 2011 C 181.577 1.83838 -0.829851 0
M  V30 2012 C 181.89 1.84599 0.646728 0
M  V30 2013 O 183.096 2.51218 1.02965 0
M  V30 2014 C 181.552 3.30069 -1.43466 0
M  V30 2015 C 181.16 3.37688 -2.94399 0
M  V30 2016 C 182.904 4.05788 -1.24645 0
M  V30 2017 C 180.811 4.78209 -3.47952 0
M  V30 2018 H 179.741 0.68877 -0.306777 0
M  V30 2019 H 182.392 1.27448 -1.3202 0
M  V30 2020 H 180.774 3.8628 -0.871996 0
M  V30 2021 H 181.948 2.91456 -3.56918 0
M  V30 2022 H 180.263 2.75436 -3.12289 0
M  V30 2023 H 182.86 5.09535 -1.62107 0
M  V30 2024 H 183.203 4.15878 -0.187357 0
M  V30 2025 H 183.736 3.55915 -1.77678 0
M  V30 2026 H 180.475 4.73311 -4.53495 0
M  V30 2027 H 179.995 5.24924 -2.90198 0
M  V30 2028 H 181.674 5.47133 -3.45332 0
M  V30 2029 N 181.806 0.884767 1.30421 0
M  V30 2030 C 183.053 0.503105 1.96151 0
M  V30 2031 C 183.381 -0.947676 1.69851 0
M  V30 2032 O 182.636 -1.68467 0.995861 0
M  V30 2033 C 182.935 0.724318 3.49983 0
M  V30 2034 C 182.601 2.15015 3.96332 0
M  V30 2035 C 181.263 2.54005 4.08699 0
M  V30 2036 C 183.615 3.07936 4.20505 0
M  V30 2037 C 180.943 3.85128 4.42599 0
M  V30 2038 C 183.295 4.3859 4.55874 0
M  V30 2039 C 181.959 4.77474 4.66449 0
M  V30 2040 H 181.229 0.184099 0.717766 0
M  V30 2041 H 183.876 1.12058 1.55291 0
M  V30 2042 H 182.181 0.0238086 3.91793 0
M  V30 2043 H 183.878 0.408617 3.98913 0
M  V30 2044 H 180.468 1.8375 3.87213 0
M  V30 2045 H 184.652 2.79033 4.10431 0
M  V30 2046 H 179.908 4.14996 4.48986 0
M  V30 2047 H 184.082 5.10629 4.7353 0
M  V30 2048 H 181.709 5.79115 4.92473 0
M  V30 2049 N 183.284 -1.43765 0.645699 0
M  V30 2050 C 184.214 -2.33471 -0.0370477 0
M  V30 2051 C 185.195 -1.49042 -0.819779 0
M  V30 2052 O 186.38 -1.77726 -0.782758 0
M  V30 2053 C 183.51 -3.32311 -1.0093 0
M  V30 2054 C 182.464 -4.2667 -0.337201 0
M  V30 2055 C 181.79 -5.1549 -1.42037 0
M  V30 2056 C 183.09 -5.16657 0.765706 0
M  V30 2057 H 184.784 -2.90809 0.712069 0
M  V30 2058 H 182.33 -1.39834 0.343876 0
M  V30 2059 H 184.283 -3.9396 -1.49578 0
M  V30 2060 H 183.007 -2.73213 -1.78948 0
M  V30 2061 H 181.666 -3.66374 0.128771 0
M  V30 2062 H 181.314 -4.52735 -2.1918 0
M  V30 2063 H 181.014 -5.79438 -0.975966 0
M  V30 2064 H 182.538 -5.80012 -1.90838 0
M  V30 2065 H 183.952 -5.72158 0.361702 0
M  V30 2066 H 182.349 -5.89286 1.13413 0
M  V30 2067 H 183.419 -4.56796 1.62683 0
M  V30 2068 N 184.763 -0.387143 -1.52771 0
M  V30 2069 C 186.012 0.19697 -2.00736 0
M  V30 2070 C 186.325 1.48082 -1.27793 0
M  V30 2071 O 187.531 2.14485 -1.66458 0
M  V30 2072 C 185.987 0.401568 -3.57653 0
M  V30 2073 C 185.595 -0.868907 -4.39493 0
M  V30 2074 C 187.339 0.942164 -4.13912 0
M  V30 2075 C 185.246 -0.632705 -5.88006 0
M  V30 2076 H 184.176 0.0773827 -0.750019 0
M  V30 2077 H 186.827 -0.50921 -1.76293 0
M  V30 2078 H 185.209 1.16954 -3.78335 0
M  V30 2079 H 186.383 -1.64133 -4.30577 0
M  V30 2080 H 184.698 -1.33429 -3.94443 0
M  V30 2081 H 187.295 1.13455 -5.22525 0
M  V30 2082 H 187.638 1.9106 -3.69867 0
M  V30 2083 H 188.171 0.233814 -3.97112 0
M  V30 2084 H 184.91 -1.57208 -6.36369 0
M  V30 2085 H 184.43 0.100825 -5.99715 0
M  V30 2086 H 186.109 -0.26642 -6.46451 0
M  V30 2087 N 186.241 1.57166 -0.116904 0
M  V30 2088 C 187.469 1.99473 0.549383 0
M  V30 2089 C 187.884 0.996541 1.60357 0
M  V30 2090 O 187.241 -0.0108731 1.82497 0
M  V30 2091 C 187.292 3.41788 1.17741 0
M  V30 2092 O 187.013 4.37788 0.165362 0
M  V30 2093 C 188.514 3.99216 1.92722 0
M  V30 2094 H 185.734 0.655009 0.145616 0
M  V30 2095 H 188.278 2.03494 -0.202625 0
M  V30 2096 H 186.433 3.38713 1.88021 0
M  V30 2097 H 186.847 5.20806 0.621403 0
M  V30 2098 H 188.321 5.00882 2.31995 0
M  V30 2099 H 188.798 3.3824 2.80161 0
M  V30 2100 H 189.404 4.0583 1.27209 0
M  V30 2101 N 187.719 -0.156864 1.56817 0
M  V30 2102 C 188.652 -1.22316 1.9265 0
M  V30 2103 C 189.63 -1.42059 0.791076 0
M  V30 2104 O 190.814 -1.56831 1.04576 0
M  V30 2105 C 187.941 -2.58375 2.18998 0
M  V30 2106 C 186.987 -2.55284 3.41661 0
M  V30 2107 S 187.82 -2.02946 4.95553 0
M  V30 2108 C 188.976 -3.40753 5.25013 0
M  V30 2109 H 189.209 -0.917403 2.82791 0
M  V30 2110 H 186.742 -0.362059 1.50095 0
M  V30 2111 H 188.7 -3.36677 2.34859 0
M  V30 2112 H 187.361 -2.86145 1.29538 0
M  V30 2113 H 186.554 -3.55418 3.57343 0
M  V30 2114 H 186.156 -1.85086 3.24991 0
M  V30 2115 H 188.448 -4.36819 5.17876 0
M  V30 2116 H 189.391 -3.29933 6.26538 0
M  V30 2117 H 189.799 -3.37433 4.52548 0
M  V30 2118 N 189.197 -1.51736 -0.425897 0
M  V30 2119 C 190.127 -1.76827 -1.52494 0
M  V30 2120 C 191.108 -0.618524 -1.58456 0
M  V30 2121 O 192.293 -0.862416 -1.74 0
M  V30 2122 C 189.423 -1.90374 -2.90474 0
M  V30 2123 C 188.377 -3.0588 -2.99369 0
M  V30 2124 C 187.703 -3.04625 -4.3944 0
M  V30 2125 C 189.003 -4.45644 -2.72394 0
M  V30 2126 H 190.697 -2.68855 -1.31748 0
M  V30 2127 H 188.243 -1.29372 -0.632362 0
M  V30 2128 H 190.196 -2.0651 -3.6733 0
M  V30 2129 H 188.92 -0.95004 -3.12477 0
M  V30 2130 H 187.579 -2.89467 -2.24954 0
M  V30 2131 H 187.227 -2.0701 -4.58428 0
M  V30 2132 H 186.927 -3.82195 -4.46319 0
M  V30 2133 H 188.451 -3.22869 -5.18255 0
M  V30 2134 H 189.865 -4.62348 -3.38979 0
M  V30 2135 H 188.262 -5.25006 -2.9067 0
M  V30 2136 H 189.332 -4.54893 -1.67929 0
M  V30 2137 N 190.675 0.682077 -1.42076 0
M  V30 2138 C 191.924 1.43786 -1.41451 0
M  V30 2139 C 192.237 1.95574 -0.0317074 0
M  V30 2140 O 193.443 2.71326 0.0971462 0
M  V30 2141 C 191.899 2.60071 -2.48779 0
M  V30 2142 C 191.507 2.15013 -3.93031 0
M  V30 2143 C 193.251 3.37626 -2.57311 0
M  V30 2144 C 191.158 3.28336 -4.91883 0
M  V30 2145 H 190.088 0.540143 -0.526082 0
M  V30 2146 H 192.739 0.739157 -1.67955 0
M  V30 2147 H 191.121 3.32275 -2.15429 0
M  V30 2148 H 192.295 1.5001 -4.35699 0
M  V30 2149 H 190.61 1.50416 -3.88284 0
M  V30 2150 H 193.207 4.22012 -3.28345 0
M  V30 2151 H 193.55 3.83727 -1.61429 0
M  V30 2152 H 194.083 2.72488 -2.89819 0
M  V30 2153 H 190.822 2.87234 -5.89217 0
M  V30 2154 H 190.342 3.92145 -4.53853 0
M  V30 2155 H 192.021 3.93913 -5.13265 0
M  V30 2156 N 192.153 1.28127 0.917671 0
M  V30 2157 C 193.083 1.14248 2.03641 0
M  V30 2158 C 194.064 0.0412748 1.7005 0
M  V30 2159 O 195.249 0.217566 1.92977 0
M  V30 2160 C 192.379 0.799431 3.37974 0
M  V30 2161 C 191.333 1.85497 3.85713 0
M  V30 2162 C 190.659 1.36565 5.16966 0
M  V30 2163 C 191.959 3.26085 4.08002 0
M  V30 2164 H 193.653 2.07835 2.15511 0
M  V30 2165 H 191.199 1.00064 1.03553 0
M  V30 2166 H 193.152 0.689114 4.15727 0
M  V30 2167 H 191.876 -0.172145 3.26146 0
M  V30 2168 H 190.535 1.95437 3.10161 0
M  V30 2169 H 190.183 0.383253 5.01538 0
M  V30 2170 H 189.883 2.07143 5.49878 0
M  V30 2171 H 191.407 1.26848 5.97279 0
M  V30 2172 H 192.821 3.19089 4.76293 0
M  V30 2173 H 191.218 3.94462 4.52238 0
M  V30 2174 H 192.288 3.70394 3.12948 0
M  V30 2175 N 193.631 -1.12557 1.10312 0
M  V30 2176 C 194.877 -1.84311 0.846011 0
M  V30 2177 C 195.21 -1.83805 -0.626859 0
M  V30 2178 O 194.485 -1.28268 -1.46211 0
M  V30 2179 C 194.768 -3.32048 1.39341 0
M  V30 2180 C 194.621 -3.41016 2.93305 0
M  V30 2181 C 195.94 -4.27764 1.03468 0
M  V30 2182 H 193.059 -0.669192 0.30879 0
M  V30 2183 H 195.701 -1.32057 1.36605 0
M  V30 2184 H 193.851 -3.76678 0.951087 0
M  V30 2185 H 195.523 -3.05031 3.46055 0
M  V30 2186 H 193.766 -2.81603 3.29973 0
M  V30 2187 H 194.437 -4.44948 3.26689 0
M  V30 2188 H 196.913 -3.91253 1.41633 0
M  V30 2189 H 195.789 -5.29549 1.44463 0
M  V30 2190 H 196.05 -4.42064 -0.0560404 0
M  V30 2191 N 195.109 -0.891671 -1.2995 0
M  V30 2192 C 196.337 -0.52866 -2.00032 0
M  V30 2193 C 196.752 0.884574 -1.66795 0
M  V30 2194 O 196.109 1.5827 -0.908669 0
M  V30 2195 C 196.16 -0.701814 -3.54622 0
M  V30 2196 O 195.881 -2.05942 -3.86678 0
M  V30 2197 C 197.382 -0.342683 -4.41973 0
M  V30 2198 H 194.602 -0.203659 -0.639347 0
M  V30 2199 H 197.146 -1.19881 -1.65677 0
M  V30 2200 H 195.301 -0.0789468 -3.8732 0
M  V30 2201 H 195.715 -2.08291 -4.81368 0
M  V30 2202 H 197.189 -0.514709 -5.49595 0
M  V30 2203 H 197.666 0.71975 -4.33262 0
M  V30 2204 H 198.272 -0.942154 -4.14733 0
M  V30 2205 N 196.587 1.43421 -0.653314 0
M  V30 2206 C 197.55 2.29182 0.0287951 0
M  V30 2207 C 198.55 1.42213 0.750465 0
M  V30 2208 O 199.74 1.63843 0.591701 0
M  V30 2209 C 196.872 3.24278 1.05151 0
M  V30 2210 H 198.065 2.90985 -0.725786 0
M  V30 2211 H 195.618 1.50702 -0.414545 0
M  V30 2212 H 196.353 2.6737 1.83532 0
M  V30 2213 H 196.138 3.88396 0.537687 0
M  V30 2214 H 197.628 3.88647 1.52786 0
M  V30 2215 N 198.065 0.39524 1.52563 0
M  V30 2216 C 199.013 -0.451859 2.28169 0
M  V30 2217 C 200.007 -1.05792 1.32304 0
M  V30 2218 O 201.213 -0.997718 1.49818 0
M  V30 2219 H 197.588 -0.164481 0.733792 0
M  V30 2220 H 199.559 0.207199 2.9768 0
M  V30 2221 C 198.308 -1.56385 3.10546 0
M  V30 2222 H 197.631 -1.10682 3.84174 0
M  V30 2223 H 199.071 -2.13067 3.66577 0
M  V30 2224 C 197.53 -2.52328 2.23231 0
M  V30 2225 O 198.06 -3.5588 1.86312 0
M  V30 2226 N 196.266 -2.22209 1.87274 0
M  V30 2227 H 195.813 -1.38033 2.17496 0
M  V30 2228 H 195.771 -2.86652 1.29143 0
M  V30 2229 N 199.544 -1.57102 0.125237 0
M  V30 2230 C 200.492 -2.16905 -0.839927 0
M  V30 2231 C 201.486 -1.11998 -1.27094 0
M  V30 2232 O 202.692 -1.3029 -1.24195 0
M  V30 2233 H 199.067 -0.694252 -0.288995 0
M  V30 2234 H 201.038 -2.96774 -0.311115 0
M  V30 2235 C 199.787 -2.78795 -2.07771 0
M  V30 2236 H 199.11 -3.59221 -1.755 0
M  V30 2237 H 200.55 -3.2417 -2.73295 0
M  V30 2238 C 199.009 -1.76193 -2.87155 0
M  V30 2239 O 199.539 -1.21909 -3.82755 0
M  V30 2240 N 197.745 -1.45991 -2.51267 0
M  V30 2241 H 197.292 -1.90325 -1.73592 0
M  V30 2242 H 197.25 -0.775844 -3.04677 0
M  V30 2243 N 201.022 0.148545 -1.56898 0
M  V30 2244 C 201.952 1.18524 -2.01182 0
M  V30 2245 C 202.933 1.4489 -0.891123 0
M  V30 2246 O 204.118 1.55836 -1.15882 0
M  V30 2247 C 201.248 2.51879 -2.39112 0
M  V30 2248 C 200.202 2.40038 -3.54353 0
M  V30 2249 C 199.528 3.78089 -3.78091 0
M  V30 2250 C 200.828 1.88577 -4.87069 0
M  V30 2251 H 202.522 0.817029 -2.88036 0
M  V30 2252 H 200.068 0.391575 -1.38574 0
M  V30 2253 H 202.021 3.24627 -2.68692 0
M  V30 2254 H 200.745 2.90532 -1.49193 0
M  V30 2255 H 199.404 1.69742 -3.24936 0
M  V30 2256 H 199.052 4.14175 -2.85426 0
M  V30 2257 H 198.752 3.71028 -4.55645 0
M  V30 2258 H 200.276 4.52387 -4.10095 0
M  V30 2259 H 201.69 2.51117 -5.15377 0
M  V30 2260 H 200.087 1.9241 -5.68417 0
M  V30 2261 H 201.157 0.84136 -4.77545 0
M  V30 2262 N 202.5 1.5196 0.417844 0
M  V30 2263 C 203.747 1.65591 1.16559 0
M  V30 2264 C 204.075 0.381565 1.90721 0
M  V30 2265 O 203.33 -0.635156 1.85106 0
M  V30 2266 C 203.629 2.82269 2.19223 0
M  V30 2267 C 203.295 4.20819 1.61933 0
M  V30 2268 C 201.957 4.58506 1.46033 0
M  V30 2269 C 204.309 5.07196 1.20008 0
M  V30 2270 C 201.637 5.80257 0.867113 0
M  V30 2271 C 203.989 6.29544 0.621086 0
M  V30 2272 C 202.653 6.65987 0.449144 0
M  V30 2273 H 201.923 0.605939 0.42652 0
M  V30 2274 H 204.57 1.86041 0.45397 0
M  V30 2275 H 202.875 2.56118 2.96498 0
M  V30 2276 H 204.572 2.90012 2.76936 0
M  V30 2277 H 201.162 3.91116 1.7529 0
M  V30 2278 H 205.346 4.7867 1.31105 0
M  V30 2279 H 200.602 6.07124 0.721833 0
M  V30 2280 H 204.776 6.95805 0.287798 0
M  V30 2281 H 202.403 7.60199 -0.012632 0
M  V30 2282 N 203.978 -0.674533 1.42435 0
M  V30 2283 C 204.91 -1.80005 1.41883 0
M  V30 2284 C 205.923 -1.59667 0.31787 0
M  V30 2285 O 207.112 -1.68781 0.580973 0
M  V30 2286 C 204.212 -3.17114 1.19549 0
M  V30 2287 C 203.385 -3.64299 2.42084 0
M  V30 2288 C 202.444 -4.80142 2.15291 0
M  V30 2289 O 201.47 -4.90673 2.88493 0
M  V30 2290 N 202.672 -5.68869 1.1562 0
M  V30 2291 H 205.437 -1.80964 2.38898 0
M  V30 2292 H 202.998 -0.857633 1.37318 0
M  V30 2293 H 204.99 -3.92267 0.995417 0
M  V30 2294 H 203.56 -3.11053 0.310569 0
M  V30 2295 H 202.78 -2.79822 2.77657 0
M  V30 2296 H 204.068 -3.92567 3.23679 0
M  V30 2297 H 203.466 -5.63012 0.550765 0
M  V30 2298 H 202.023 -6.43833 1.016 0
M  V30 2299 N 205.456 -1.28612 -0.910864 0
M  V30 2300 C 206.386 -1.15326 -2.03032 0
M  V30 2301 C 207.367 -0.0502924 -1.70026 0
M  V30 2302 O 208.552 -0.227797 -1.92859 0
M  V30 2303 C 205.682 -0.817343 -3.37545 0
M  V30 2304 C 204.636 -1.8754 -3.84724 0
M  V30 2305 C 203.962 -1.39305 -5.16235 0
M  V30 2306 C 205.262 -3.28244 -4.06267 0
M  V30 2307 H 206.956 -2.08975 -2.14406 0
M  V30 2308 H 204.502 -1.00612 -1.03021 0
M  V30 2309 H 206.455 -0.711151 -4.15356 0
M  V30 2310 H 205.179 0.154846 -3.26233 0
M  V30 2311 H 203.838 -1.97079 -3.09121 0
M  V30 2312 H 203.486 -0.409846 -5.01328 0
M  V30 2313 H 203.186 -2.10057 -5.48771 0
M  V30 2314 H 204.71 -1.30014 -5.96598 0
M  V30 2315 H 206.124 -3.21611 -4.74594 0
M  V30 2316 H 204.521 -3.96855 -4.5014 0
M  V30 2317 H 205.591 -3.72048 -3.10979 0
M  V30 2318 N 206.934 1.1197 -1.10907 0
M  V30 2319 C 208.181 1.83588 -0.854507 0
M  V30 2320 C 208.509 1.84357 0.6199 0
M  V30 2321 O 207.764 1.28809 1.47332 0
M  V30 2322 C 208.063 3.30749 -1.35425 0
M  V30 2323 C 207.729 3.50146 -2.84093 0
M  V30 2324 C 206.391 3.55148 -3.2469 0
M  V30 2325 C 208.743 3.56857 -3.79872 0
M  V30 2326 C 206.071 3.6441 -4.59806 0
M  V30 2327 C 208.423 3.6765 -5.14797 0
M  V30 2328 C 207.087 3.7091 -5.54961 0
M  V30 2329 H 206.357 0.671795 -0.312686 0
M  V30 2330 H 209.004 1.32091 -1.38652 0
M  V30 2331 H 207.309 3.84703 -0.742361 0
M  V30 2332 H 209.006 3.8464 -1.1337 0
M  V30 2333 H 205.596 3.46919 -2.51685 0
M  V30 2334 H 209.78 3.52258 -3.49611 0
M  V30 2335 H 205.036 3.65208 -4.9034 0
M  V30 2336 H 209.21 3.71786 -5.88853 0
M  V30 2337 H 206.837 3.7784 -6.59652 0
M  V30 2338 N 208.412 0.89855 1.29475 0
M  V30 2339 C 209.661 0.519863 1.94885 0
M  V30 2340 C 209.974 -0.9383 1.71625 0
M  V30 2341 O 211.18 -1.42445 2.31131 0
M  V30 2342 C 209.636 0.878836 3.49005 0
M  V30 2343 C 209.244 2.35569 3.81066 0
M  V30 2344 C 210.988 0.570004 4.20656 0
M  V30 2345 C 208.895 2.65558 5.28425 0
M  V30 2346 H 207.825 0.190692 0.729488 0
M  V30 2347 H 210.476 1.09539 1.47219 0
M  V30 2348 H 208.858 0.232253 3.95318 0
M  V30 2349 H 210.032 3.04773 3.45616 0
M  V30 2350 H 208.347 2.63343 3.22552 0
M  V30 2351 H 210.944 0.770925 5.29113 0
M  V30 2352 H 211.287 -0.491404 4.1339 0
M  V30 2353 H 211.82 1.17438 3.8007 0
M  V30 2354 H 208.559 3.70493 5.40754 0
M  V30 2355 H 208.079 2.00977 5.65127 0
M  V30 2356 H 209.758 2.51765 5.96006 0
M  V30 2357 N 209.89 -1.43072 0.660911 0
M  V30 2358 C 211.138 -2.01323 0.177094 0
M  V30 2359 C 211.459 -1.5245 -1.2159 0
M  V30 2360 O 210.729 -0.740322 -1.81373 0
M  V30 2361 H 209.309 -0.744382 0.0624804 0
M  V30 2362 H 211.971 -1.75179 0.854305 0
M  V30 2363 H 211.067 -3.11649 0.167641 0
M  V30 2364 N 211.368 -0.403325 -1.52352 0
M  V30 2365 C 212.614 0.167015 -2.02713 0
M  V30 2366 C 212.969 1.43296 -1.28391 0
M  V30 2367 O 212.262 1.87796 -0.379885 0
M  V30 2368 C 212.456 0.474665 -3.54234 0
M  V30 2369 C 212.285 -0.759909 -4.43233 0
M  V30 2370 C 211.055 -1.28338 -4.88731 0
M  V30 2371 C 213.253 -1.63634 -4.87574 0
M  V30 2372 N 211.235 -2.47404 -5.6184 0
M  V30 2373 C 212.606 -2.67329 -5.59406 0
M  V30 2374 C 214.661 -1.65478 -4.69597 0
M  V30 2375 C 213.364 -3.72773 -6.15169 0
M  V30 2376 C 215.39 -2.69837 -5.26253 0
M  V30 2377 C 214.752 -3.72253 -5.98002 0
M  V30 2378 H 210.851 0.0228343 -0.781667 0
M  V30 2379 H 213.435 -0.556368 -1.86581 0
M  V30 2380 H 211.606 1.16709 -3.7045 0
M  V30 2381 H 213.338 1.03338 -3.91284 0
M  V30 2382 H 210.093 -0.842273 -4.6605 0
M  V30 2383 H 210.517 -3.07688 -6.0304 0
M  V30 2384 H 215.159 -0.876389 -4.13617 0
M  V30 2385 H 212.877 -4.51471 -6.70223 0
M  V30 2386 H 216.463 -2.72164 -5.14216 0
M  V30 2387 H 215.343 -4.51679 -6.41058 0
M  V30 2388 N 212.846 1.57033 -0.133567 0
M  V30 2389 C 213.756 2.19632 0.824564 0
M  V30 2390 C 214.772 1.17666 1.28182 0
M  V30 2391 O 215.948 1.50193 1.3418 0
M  V30 2392 C 213.013 2.79499 2.05137 0
M  V30 2393 C 212.074 3.96548 1.64464 0
M  V30 2394 C 211.307 4.5355 2.81297 0
M  V30 2395 O 211.53 4.09438 3.97136 0
M  V30 2396 O 210.464 5.44018 2.57542 0
M  V30 2397 H 214.29 3.01991 0.321766 0
M  V30 2398 H 211.875 1.49112 0.0927889 0
M  V30 2399 H 213.757 3.17602 2.7696 0
M  V30 2400 H 212.432 2.00162 2.54395 0
M  V30 2401 H 211.339 3.63186 0.897048 0
M  V30 2402 H 212.672 4.77364 1.19934 0
M  V30 2403 N 214.325 -0.140222 1.56975 0
M  V30 2404 C 215.573 -0.850005 1.83356 0
M  V30 2405 C 215.894 -1.81399 0.71551 0
M  V30 2406 O 215.164 -1.94136 -0.262294 0
M  V30 2407 H 213.744 -0.316886 0.676456 0
M  V30 2408 H 216.406 -0.132608 1.94448 0
M  V30 2409 H 215.502 -1.40814 2.78528 0
M  V30 2410 N 215.803 -1.52179 -0.40978 0
M  V30 2411 C 217.049 -1.66453 -1.15851 0
M  V30 2412 C 217.382 -0.392972 -1.90182 0
M  V30 2413 O 216.657 0.608579 -1.84734 0
M  V30 2414 C 216.94 -2.88612 -2.15349 0
M  V30 2415 C 216.793 -4.25815 -1.44918 0
M  V30 2416 C 218.112 -3.06294 -3.16026 0
M  V30 2417 H 215.231 -0.60575 -0.419805 0
M  V30 2418 H 217.873 -1.84732 -0.444314 0
M  V30 2419 H 216.023 -2.73158 -2.76255 0
M  V30 2420 H 217.695 -4.52995 -0.871365 0
M  V30 2421 H 215.938 -4.27247 -0.751159 0
M  V30 2422 H 216.609 -5.07337 -2.17516 0
M  V30 2423 H 219.085 -3.20641 -2.65195 0
M  V30 2424 H 217.961 -3.93283 -3.8291 0
M  V30 2425 H 218.222 -2.19579 -3.83715 0
M  V30 2426 N 217.281 0.66697 -1.42791 0
M  V30 2427 C 218.529 1.42417 -1.43394 0
M  V30 2428 C 218.85 1.94925 -0.0542373 0
M  V30 2429 O 218.12 1.73564 0.908415 0
M  V30 2430 H 216.7 0.528515 -0.527902 0
M  V30 2431 H 219.362 0.787562 -1.78279 0
M  V30 2432 H 218.458 2.27333 -2.13837 0
M  V30 2433 N 218.759 1.29093 0.90403 0
M  V30 2434 C 220.008 1.16187 1.64874 0
M  V30 2435 C 220.321 -0.286742 1.93487 0
M  V30 2436 O 221.527 -0.537062 2.66135 0
M  V30 2437 C 219.983 2.03177 2.97064 0
M  V30 2438 C 219.591 3.52836 2.76062 0
M  V30 2439 C 221.335 1.98984 3.74974 0
M  V30 2440 C 219.242 4.31945 4.03952 0
M  V30 2441 H 218.172 0.431246 0.618501 0
M  V30 2442 H 220.823 1.53699 1.00243 0
M  V30 2443 H 219.205 1.5853 3.62883 0
M  V30 2444 H 220.379 4.05507 2.18863 0
M  V30 2445 H 218.694 3.58656 2.11553 0
M  V30 2446 H 221.291 2.55351 4.69787 0
M  V30 2447 H 221.634 0.968815 4.0487 0
M  V30 2448 H 222.167 2.41652 3.15989 0
M  V30 2449 H 218.906 5.34667 3.79225 0
M  V30 2450 H 218.426 3.84045 4.60727 0
M  V30 2451 H 220.105 4.42379 4.72133 0
M  V30 2452 N 220.237 -1.11381 1.11499 0
M  V30 2453 C 221.17 -2.16621 0.71769 0
M  V30 2454 C 222.148 -1.60058 -0.286413 0
M  V30 2455 O 223.332 -1.87613 -0.182689 0
M  V30 2456 C 220.459 -3.38646 0.0607265 0
M  V30 2457 C 219.505 -4.13874 1.03008 0
M  V30 2458 S 220.338 -4.70731 2.55289 0
M  V30 2459 C 221.494 -5.96079 1.90895 0
M  V30 2460 H 221.727 -2.49987 1.60915 0
M  V30 2461 H 219.26 -1.23015 0.933092 0
M  V30 2462 H 221.218 -4.09313 -0.311965 0
M  V30 2463 H 219.879 -3.03537 -0.807702 0
M  V30 2464 H 219.072 -5.01333 0.517853 0
M  V30 2465 H 218.674 -3.4897 1.34522 0
M  V30 2466 H 220.966 -6.65948 1.24577 0
M  V30 2467 H 221.909 -6.51946 2.76354 0
M  V30 2468 H 222.317 -5.47652 1.36885 0
M  V30 2469 N 221.715 -0.905404 -1.28997 0
M  V30 2470 C 222.94 -0.549175 -1.99997 0
M  V30 2471 C 223.365 0.860276 -1.67275 0
M  V30 2472 O 222.723 1.57355 -0.900502 0
M  V30 2473 C 222.771 -0.755185 -3.52604 0
M  V30 2474 O 221.875 0.189692 -4.11964 0
M  V30 2475 H 221.216 -0.213899 -0.628604 0
M  V30 2476 H 223.746 -1.21856 -1.64354 0
M  V30 2477 H 223.756 -0.662045 -4.02593 0
M  V30 2478 H 222.431 -1.78271 -3.75755 0
M  V30 2479 H 221.008 0.0485257 -3.72868 0
M  V30 2480 N 223.193 1.4272 -0.668489 0
M  V30 2481 C 224.44 2.01624 -0.18814 0
M  V30 2482 C 224.768 1.5282 1.20317 0
M  V30 2483 O 224.023 0.718323 1.8204 0
M  V30 2484 C 224.322 3.57021 -0.164499 0
M  V30 2485 C 223.988 4.25232 -1.49962 0
M  V30 2486 C 222.65 4.4358 -1.8652 0
M  V30 2487 C 225.002 4.63727 -2.37921 0
M  V30 2488 C 222.33 4.97694 -3.10674 0
M  V30 2489 C 224.682 5.19218 -3.6138 0
M  V30 2490 C 223.346 5.3578 -3.98115 0
M  V30 2491 H 222.616 0.737795 -0.0688454 0
M  V30 2492 H 225.263 1.70991 -0.862225 0
M  V30 2493 H 223.568 3.87285 0.593079 0
M  V30 2494 H 225.265 4.00372 0.224271 0
M  V30 2495 H 221.855 4.11306 -1.20522 0
M  V30 2496 H 226.039 4.4923 -2.10964 0
M  V30 2497 H 221.295 5.08702 -3.39164 0
M  V30 2498 H 225.469 5.4799 -4.29743 0
M  V30 2499 H 223.096 5.77475 -4.94395 0
M  V30 2500 N 224.671 0.411399 1.52136 0
M  V30 2501 C 225.601 -0.404015 2.29978 0
M  V30 2502 C 226.582 -1.04412 1.34284 0
M  V30 2503 O 227.767 -1.0527 1.63192 0
M  V30 2504 C 224.897 -1.5197 3.12286 0
M  V30 2505 C 223.851 -1.00448 4.16046 0
M  V30 2506 C 223.177 -2.21393 4.86712 0
M  V30 2507 C 224.477 -0.0569336 5.22269 0
M  V30 2508 H 226.171 0.245529 2.98392 0
M  V30 2509 H 223.717 0.119525 1.43503 0
M  V30 2510 H 225.67 -2.09715 3.6551 0
M  V30 2511 H 224.394 -2.19716 2.41646 0
M  V30 2512 H 223.053 -0.449421 3.63835 0
M  V30 2513 H 222.701 -2.87699 4.12599 0
M  V30 2514 H 222.401 -1.87571 5.56858 0
M  V30 2515 H 223.925 -2.7974 5.4275 0
M  V30 2516 H 225.339 -0.54325 5.7072 0
M  V30 2517 H 223.736 0.192594 5.99791 0
M  V30 2518 H 224.806 0.887663 4.76706 0
M  V30 2519 N 226.149 -1.5696 0.141893 0
M  V30 2520 C 227.079 -2.19516 -0.795936 0
M  V30 2521 C 228.06 -1.14187 -1.26077 0
M  V30 2522 O 229.245 -1.42511 -1.31925 0
M  V30 2523 C 226.375 -2.81272 -2.03723 0
M  V30 2524 C 225.329 -3.92384 -1.70936 0
M  V30 2525 C 224.655 -4.41052 -3.02287 0
M  V30 2526 C 225.955 -5.13403 -0.959954 0
M  V30 2527 H 227.649 -2.98138 -0.274596 0
M  V30 2528 H 225.195 -1.43406 -0.130636 0
M  V30 2529 H 227.148 -3.237 -2.69808 0
M  V30 2530 H 225.872 -1.99973 -2.58221 0
M  V30 2531 H 224.531 -3.50566 -1.07232 0
M  V30 2532 H 224.179 -3.56582 -3.54765 0
M  V30 2533 H 223.879 -5.15993 -2.81114 0
M  V30 2534 H 225.403 -4.86146 -3.69451 0
M  V30 2535 H 226.817 -5.52706 -1.52279 0
M  V30 2536 H 225.214 -5.94073 -0.848357 0
M  V30 2537 H 226.284 -4.84875 0.0492434 0
M  V30 2538 N 227.627 0.131896 -1.57047 0
M  V30 2539 C 228.876 0.84044 -1.83356 0
M  V30 2540 C 229.189 1.81646 -0.725535 0
M  V30 2541 O 230.395 2.57025 -0.874659 0
M  V30 2542 C 228.851 1.54528 -3.25037 0
M  V30 2543 C 228.459 0.610902 -4.43815 0
M  V30 2544 C 230.203 2.23972 -3.60606 0
M  V30 2545 C 228.11 1.31823 -5.76521 0
M  V30 2546 H 227.04 0.317599 -0.683847 0
M  V30 2547 H 229.691 0.0931561 -1.83263 0
M  V30 2548 H 228.073 2.33873 -3.19561 0
M  V30 2549 H 229.247 -0.148407 -4.60561 0
M  V30 2550 H 227.562 0.0241016 -4.16393 0
M  V30 2551 H 230.159 2.77558 -4.57018 0
M  V30 2552 H 230.502 3.01173 -2.87403 0
M  V30 2553 H 231.035 1.51529 -3.6781 0
M  V30 2554 H 227.774 0.587771 -6.52859 0
M  V30 2555 H 227.294 2.04987 -5.63685 0
M  V30 2556 H 228.973 1.855 -6.19838 0
M  V30 2557 N 229.106 1.52395 0.401703 0
M  V30 2558 C 230.331 1.70972 1.17403 0
M  V30 2559 C 230.756 0.421615 1.83314 0
M  V30 2560 O 230.114 -0.621564 1.70312 0
M  V30 2561 C 230.162 2.85151 2.20728 0
M  V30 2562 O 229.266 2.51238 3.27037 0
M  V30 2563 H 228.607 0.568927 0.342372 0
M  V30 2564 H 231.137 1.99131 0.469891 0
M  V30 2565 H 231.147 3.10279 2.64936 0
M  V30 2566 H 229.822 3.78603 1.7214 0
M  V30 2567 H 228.399 2.36808 2.88057 0
M  V30 2568 N 230.584 -0.659388 1.43143 0
M  V30 2569 C 231.83 -1.41984 1.45644 0
M  V30 2570 C 232.185 -1.92245 0.0771718 0
M  V30 2571 O 231.478 -1.68976 -0.903205 0
M  V30 2572 C 231.672 -2.62206 2.42864 0
M  V30 2573 C 231.501 -2.23711 3.90107 0
M  V30 2574 C 230.271 -2.12332 4.58523 0
M  V30 2575 C 232.469 -1.84384 4.80112 0
M  V30 2576 N 230.451 -1.67102 5.9072 0
M  V30 2577 C 231.822 -1.5019 6.01534 0
M  V30 2578 C 233.877 -1.71512 4.67427 0
M  V30 2579 C 232.58 -1.04414 7.11681 0
M  V30 2580 C 234.606 -1.27142 5.77572 0
M  V30 2581 C 233.968 -0.938808 6.98116 0
M  V30 2582 H 230.067 -0.515448 0.588079 0
M  V30 2583 H 232.651 -0.759409 1.79279 0
M  V30 2584 H 230.822 -3.25917 2.11265 0
M  V30 2585 H 232.554 -3.28877 2.35843 0
M  V30 2586 H 229.309 -2.31893 4.12944 0
M  V30 2587 H 229.733 -1.46866 6.60878 0
M  V30 2588 H 234.375 -1.95868 3.74694 0
M  V30 2589 H 232.093 -0.788061 8.04248 0
M  V30 2590 H 235.679 -1.17681 5.69774 0
M  V30 2591 H 234.559 -0.6007 7.81896 0
M  V30 2592 N 232.062 -1.29571 -0.897171 0
M  V30 2593 C 233.308 -1.18873 -1.65048 0
M  V30 2594 C 233.663 0.256707 -1.9068 0
M  V30 2595 O 232.956 1.18202 -1.50794 0
M  V30 2596 C 233.15 -1.9382 -3.00281 0
M  V30 2597 C 232.979 -3.45503 -2.8785 0
M  V30 2598 C 231.749 -4.14856 -2.88483 0
M  V30 2599 C 233.947 -4.40956 -2.64693 0
M  V30 2600 N 231.929 -5.52886 -2.66815 0
M  V30 2601 C 233.3 -5.66464 -2.5203 0
M  V30 2602 C 235.355 -4.3069 -2.49821 0
M  V30 2603 C 234.058 -6.82871 -2.26008 0
M  V30 2604 C 236.084 -5.46852 -2.25182 0
M  V30 2605 C 235.446 -6.71333 -2.13286 0
M  V30 2606 H 231.545 -0.489998 -0.609447 0
M  V30 2607 H 234.129 -1.63431 -1.05822 0
M  V30 2608 H 232.3 -1.51671 -3.57562 0
M  V30 2609 H 234.032 -1.75366 -3.64731 0
M  V30 2610 H 230.787 -3.66579 -2.99861 0
M  V30 2611 H 231.211 -6.25487 -2.59027 0
M  V30 2612 H 235.853 -3.35141 -2.5776 0
M  V30 2613 H 233.571 -7.78473 -2.16806 0
M  V30 2614 H 237.157 -5.40809 -2.14515 0
M  V30 2615 H 236.037 -7.59701 -1.94485 0
M  V30 2616 N 233.54 1.10788 -1.12088 0
M  V30 2617 C 234.77 1.86191 -0.895351 0
M  V30 2618 C 235.178 1.80763 0.558702 0
M  V30 2619 O 234.521 1.19188 1.39785 0
M  V30 2620 C 234.583 3.35659 -1.28737 0
M  V30 2621 C 234.247 3.64849 -2.75198 0
M  V30 2622 C 235.244 3.61757 -3.734 0
M  V30 2623 C 232.929 3.93641 -3.12013 0
M  V30 2624 C 234.923 3.87045 -5.06434 0
M  V30 2625 C 232.61 4.18585 -4.4523 0
M  V30 2626 C 233.608 4.15277 -5.42249 0
M  V30 2627 O 233.296 4.3959 -6.73065 0
M  V30 2628 H 233.028 0.595425 -0.32007 0
M  V30 2629 H 235.582 1.40992 -1.49367 0
M  V30 2630 H 233.812 3.81497 -0.63224 0
M  V30 2631 H 235.501 3.92441 -1.03656 0
M  V30 2632 H 236.267 3.39557 -3.46303 0
M  V30 2633 H 232.146 3.95348 -2.37109 0
M  V30 2634 H 235.69 3.84378 -5.82151 0
M  V30 2635 H 231.587 4.40264 -4.72057 0
M  V30 2636 H 232.355 4.57123 -6.78956 0
M  V30 2637 N 235.018 0.912232 1.28515 0
M  V30 2638 C 235.981 0.404223 2.25607 0
M  V30 2639 C 236.981 -0.468602 1.53821 0
M  V30 2640 O 238.171 -0.271873 1.72065 0
M  V30 2641 C 235.303 -0.420653 3.38295 0
M  V30 2642 H 236.496 1.26188 2.7206 0
M  V30 2643 H 234.049 0.691495 1.40171 0
M  V30 2644 H 234.784 -1.29777 2.97201 0
M  V30 2645 H 234.569 0.204935 3.91564 0
M  V30 2646 H 236.059 -0.766971 4.10496 0
M  V30 2647 N 236.496 -1.42363 0.676048 0
M  V30 2648 C 237.912 -1.55811 0.345718 0
M  V30 2649 C 238.112 -1.65544 -1.14879 0
M  V30 2650 O 237.168 -1.62306 -1.93424 0
M  V30 2651 C 238.481 -2.80746 1.07713 0
M  V30 2652 C 240.029 -2.9452 1.05958 0
M  V30 2653 C 240.504 -4.22318 1.77233 0
M  V30 2654 N 241.995 -4.29233 1.74108 0
M  V30 2655 C 242.73 -5.26935 2.26113 0
M  V30 2656 N 242.226 -6.30783 2.86505 0
M  V30 2657 N 244.019 -5.18741 2.1648 0
M  V30 2658 H 236.17 -1.34289 1.6456 0
M  V30 2659 H 238.433 -0.646506 0.69335 0
M  V30 2660 H 238.139 -2.79696 2.13221 0
M  V30 2661 H 238.013 -3.71676 0.64316 0
M  V30 2662 H 240.4 -2.95097 0.0128255 0
M  V30 2663 H 240.481 -2.04817 1.53244 0
M  V30 2664 H 240.125 -4.22502 2.81877 0
M  V30 2665 H 240.055 -5.10958 1.27396 0
M  V30 2666 H 242.546 -3.54814 1.30059 0
M  V30 2667 H 242.859 -7.01691 3.23805 0
M  V30 2668 H 241.204 -6.31341 2.90575 0
M  V30 2669 H 244.395 -4.36533 1.68987 0
M  V30 2670 H 244.568 -5.94721 2.57316 0
M  V30 2671 N 237.974 -0.419461 -1.51915 0
M  V30 2672 C 238.937 0.389116 -2.25873 0
M  V30 2673 C 239.937 0.964924 -1.28631 0
M  V30 2674 O 241.127 0.842179 -1.52489 0
M  V30 2675 C 238.259 1.54874 -3.03689 0
M  V30 2676 H 239.452 -0.258799 -2.98781 0
M  V30 2677 H 237.005 -0.172209 -1.55348 0
M  V30 2678 H 237.74 2.23323 -2.35154 0
M  V30 2679 H 237.525 1.14223 -3.75094 0
M  V30 2680 H 239.015 2.12046 -3.59759 0
M  V30 2681 N 239.452 1.56882 -0.150215 0
M  V30 2682 C 240.729 1.87844 0.545327 0
M  V30 2683 C 241.109 1.0567 1.82749 0
M  V30 2684 O 240.457 0.144442 2.28043 0
M  V30 2685 C 240.667 3.39526 0.80767 0
M  V30 2686 C 242.015 4.08814 1.14703 0
M  V30 2687 O 243.039 3.44723 0.896917 0
M  V30 2688 O 241.898 5.22004 1.61784 0
M  V30 2689 H 238.992 0.778677 0.278553 0
M  V30 2690 H 241.538 1.68666 -0.187068 0
M  V30 2691 H 240.31 3.91173 -0.0996096 0
M  V30 2692 H 239.933 3.64243 1.59413 0
M  V30 2693 N 240.93 -0.123565 1.57115 0
M  V30 2694 C 241.893 -1.13583 1.99076 0
M  V30 2695 C 242.893 -1.34564 0.880296 0
M  V30 2696 O 244.083 -1.31158 1.14644 0
M  V30 2697 C 241.215 -2.49128 2.32698 0
M  V30 2698 H 242.408 -0.775287 2.89706 0
M  V30 2699 H 239.961 -0.36771 1.51913 0
M  V30 2700 H 240.696 -2.90111 1.44934 0
M  V30 2701 H 240.481 -2.35255 3.13684 0
M  V30 2702 H 241.971 -3.2199 2.65918 0
M  V30 2703 N 242.408 -1.52605 -0.393616 0
M  V30 2704 C 243.356 -1.77688 -1.50099 0
M  V30 2705 C 244.35 -0.644615 -1.56656 0
M  V30 2706 O 245.556 -0.826997 -1.59877 0
M  V30 2707 H 241.931 -0.562159 -0.499481 0
M  V30 2708 H 243.902 -2.7043 -1.26135 0
M  V30 2709 C 242.651 -1.95858 -2.87289 0
M  V30 2710 H 241.974 -2.8241 -2.82992 0
M  V30 2711 H 243.414 -2.174 -3.64024 0
M  V30 2712 C 241.873 -0.729848 -3.28899 0
M  V30 2713 O 242.403 0.0949217 -4.01588 0
M  V30 2714 N 240.609 -0.561283 -2.85128 0
M  V30 2715 H 240.156 -1.23357 -2.26143 0
M  V30 2716 H 240.114 0.2595 -3.13327 0
M  V30 2717 N 243.887 0.651787 -1.4349 0
M  V30 2718 C 245.115 1.43937 -1.48626 0
M  V30 2719 C 245.53 1.8851 -0.104587 0
M  V30 2720 O 244.887 1.5958 0.885464 0
M  V30 2721 C 244.938 2.6734 -2.43334 0
M  V30 2722 O 244.659 2.24631 -3.76128 0
M  V30 2723 C 246.16 3.60683 -2.57726 0
M  V30 2724 H 243.38 0.44213 -0.504739 0
M  V30 2725 H 245.924 0.798944 -1.88248 0
M  V30 2726 H 244.079 3.2752 -2.06904 0
M  V30 2727 H 244.493 3.04485 -4.2707 0
M  V30 2728 H 245.967 4.43933 -3.28067 0
M  V30 2729 H 246.444 4.08126 -1.62265 0
M  V30 2730 H 247.05 3.06384 -2.94973 0
M  V30 2731 N 245.365 1.30045 0.890287 0
M  V30 2732 C 246.328 1.15963 1.977 0
M  V30 2733 C 247.328 0.0923777 1.60534 0
M  V30 2734 O 248.518 0.340071 1.70848 0
M  V30 2735 C 245.65 0.775451 3.31963 0
M  V30 2736 H 246.843 2.12502 2.11619 0
M  V30 2737 H 244.396 1.13366 1.07601 0
M  V30 2738 H 245.131 -0.189671 3.23745 0
M  V30 2739 H 244.916 1.54668 3.60306 0
M  V30 2740 H 246.406 0.700251 4.11687 0
M  V30 2741 N 246.843 -1.10192 1.12674 0
M  V30 2742 C 247.806 -2.14786 0.799979 0
M  V30 2743 C 248.806 -1.59711 -0.18685 0
M  V30 2744 O 249.996 -1.74156 0.0392558 0
M  V30 2745 C 247.128 -3.40374 0.189228 0
M  V30 2746 H 248.321 -2.45203 1.72671 0
M  V30 2747 H 245.874 -1.25597 0.930326 0
M  V30 2748 H 246.609 -3.15577 -0.747107 0
M  V30 2749 H 246.394 -3.81637 0.899766 0
M  V30 2750 H 247.884 -4.17594 -0.0228143 0
M  V30 2751 N 248.321 -0.919034 -1.28029 0
M  V30 2752 C 249.57 -0.550802 -1.94034 0
M  V30 2753 C 249.883 0.910877 -1.73096 0
M  V30 2754 O 251.089 1.3875 -2.33368 0
M  V30 2755 C 249.545 -0.934249 -3.47563 0
M  V30 2756 C 249.153 -2.41602 -3.7727 0
M  V30 2757 C 250.897 -0.636854 -4.19696 0
M  V30 2758 C 248.804 -2.73932 -5.24133 0
M  V30 2759 H 247.734 -0.202273 -0.726362 0
M  V30 2760 H 250.385 -1.11867 -1.45458 0
M  V30 2761 H 248.767 -0.295115 -3.94899 0
M  V30 2762 H 249.941 -3.10233 -3.40723 0
M  V30 2763 H 248.256 -2.68441 -3.18321 0
M  V30 2764 H 250.853 -0.855005 -5.2782 0
M  V30 2765 H 251.196 0.425575 -4.14119 0
M  V30 2766 H 251.729 -1.23469 -3.78154 0
M  V30 2767 H 248.468 -3.79049 -5.34792 0
M  V30 2768 H 247.988 -2.09942 -5.61858 0
M  V30 2769 H 249.667 -2.61215 -5.91925 0
M  V30 2770 N 249.799 1.42003 -0.683588 0
M  V30 2771 C 250.731 2.29183 0.0283068 0
M  V30 2772 C 251.744 1.4415 0.756611 0
M  V30 2773 O 252.933 1.67779 0.609306 0
M  V30 2774 C 250.033 3.21765 1.06398 0
M  V30 2775 C 249.206 4.35496 0.407723 0
M  V30 2776 C 248.265 5.08737 1.34437 0
M  V30 2777 O 247.291 5.62948 0.841318 0
M  V30 2778 N 248.493 5.15075 2.67728 0
M  V30 2779 H 251.258 2.9092 -0.720105 0
M  V30 2780 H 248.819 1.53025 -0.528682 0
M  V30 2781 H 250.811 3.6763 1.69204 0
M  V30 2782 H 249.381 2.61418 1.71404 0
M  V30 2783 H 248.601 3.92165 -0.400012 0
M  V30 2784 H 249.889 5.08776 -0.0490956 0
M  V30 2785 H 249.287 4.72457 3.11129 0
M  V30 2786 H 247.844 5.64556 3.2576 0
M  V30 2787 N 251.277 0.427512 1.51691 0
M  V30 2788 C 252.24 -0.377132 2.26076 0
M  V30 2789 C 253.24 -0.958089 1.29141 0
M  V30 2790 O 254.43 -0.83408 1.52934 0
M  V30 2791 C 251.562 -1.53262 3.04506 0
M  V30 2792 H 252.755 0.27464 2.9864 0
M  V30 2793 H 250.308 0.180445 1.55255 0
M  V30 2794 H 251.043 -2.22072 2.36335 0
M  V30 2795 H 250.828 -1.12232 3.75694 0
M  V30 2796 H 252.318 -2.10135 3.60878 0
M  V30 2797 N 252.755 -1.56801 0.158532 0
M  V30 2798 C 254.004 -1.95665 -0.489702 0
M  V30 2799 C 254.317 -1.04654 -1.65248 0
M  V30 2800 O 255.523 -1.33146 -2.3661 0
M  V30 2801 C 253.979 -3.47874 -0.922582 0
M  V30 2802 C 253.587 -4.47489 0.213893 0
M  V30 2803 C 255.331 -3.95583 -1.53996 0
M  V30 2804 C 253.238 -5.90921 -0.237903 0
M  V30 2805 H 252.168 -0.730516 -0.186716 0
M  V30 2806 H 254.819 -1.81861 0.244722 0
M  V30 2807 H 253.201 -3.57051 -1.71261 0
M  V30 2808 H 254.375 -4.50017 0.991036 0
M  V30 2809 H 252.69 -4.09764 0.740407 0
M  V30 2810 H 255.287 -5.0019 -1.8898 0
M  V30 2811 H 255.63 -3.37789 -2.43319 0
M  V30 2812 H 256.163 -3.8937 -0.814611 0
M  V30 2813 H 252.902 -6.52559 0.620236 0
M  V30 2814 H 252.422 -5.91729 -0.980676 0
M  V30 2815 H 254.101 -6.43352 -0.686067 0
M  V30 2816 N 254.233 0.115231 -1.57178 0
M  V30 2817 C 255.163 1.1423 -2.03651 0
M  V30 2818 C 256.144 1.42967 -0.921655 0
M  V30 2819 O 257.329 1.53343 -1.19162 0
M  V30 2820 C 254.459 2.4675 -2.44401 0
M  V30 2821 C 253.413 2.32467 -3.59365 0
M  V30 2822 C 252.739 3.69984 -3.86026 0
M  V30 2823 C 254.039 1.78203 -4.90959 0
M  V30 2824 H 255.733 0.755749 -2.89705 0
M  V30 2825 H 253.279 0.362093 -1.39373 0
M  V30 2826 H 255.232 3.18854 -2.75517 0
M  V30 2827 H 253.956 2.87302 -1.55322 0
M  V30 2828 H 252.615 1.62811 -3.28463 0
M  V30 2829 H 252.263 4.08028 -2.94147 0
M  V30 2830 H 251.963 3.61279 -4.63412 0
M  V30 2831 H 253.487 4.43587 -4.19599 0
M  V30 2832 H 254.901 2.40128 -5.20587 0
M  V30 2833 H 253.298 1.8031 -5.72371 0
M  V30 2834 H 254.368 0.739876 -4.79222 0
M  V30 2835 N 255.711 1.52812 0.385517 0
M  V30 2836 C 256.941 1.71658 1.14966 0
M  V30 2837 C 257.349 0.436253 1.84102 0
M  V30 2838 O 256.692 -0.599313 1.73649 0
M  V30 2839 C 256.754 2.81309 2.23843 0
M  V30 2840 C 256.418 4.22313 1.74644 0
M  V30 2841 C 257.415 5.05352 1.22129 0
M  V30 2842 C 255.1 4.68648 1.80761 0
M  V30 2843 C 257.094 6.32807 0.763838 0
M  V30 2844 C 254.781 5.96086 1.34627 0
M  V30 2845 C 255.779 6.77996 0.825264 0
M  V30 2846 O 255.467 8.03045 0.370669 0
M  V30 2847 H 255.199 0.578022 0.350523 0
M  V30 2848 H 257.753 2.00263 0.456509 0
M  V30 2849 H 255.983 2.48133 2.96592 0
M  V30 2850 H 257.672 2.88524 2.85497 0
M  V30 2851 H 258.438 4.70736 1.16758 0
M  V30 2852 H 254.317 4.04979 2.20256 0
M  V30 2853 H 257.861 6.96689 0.356494 0
M  V30 2854 H 253.758 6.30205 1.39686 0
M  V30 2855 H 254.526 8.17021 0.491829 0
M  V30 2856 N 257.189 -0.644168 1.43834 0
M  V30 2857 C 258.137 -1.77793 1.49974 0
M  V30 2858 C 259.131 -1.65253 0.372536 0
M  V30 2859 O 260.337 -1.7149 0.546924 0
M  V30 2860 H 256.712 -0.58675 0.47035 0
M  V30 2861 H 258.683 -1.69736 2.45423 0
M  V30 2862 C 257.432 -3.16087 1.4486 0
M  V30 2863 H 256.755 -3.26378 2.30905 0
M  V30 2864 H 258.195 -3.95349 1.53217 0
M  V30 2865 C 256.654 -3.36484 0.167463 0
M  V30 2866 O 257.184 -3.94298 -0.767609 0
M  V30 2867 N 255.39 -2.90504 0.0747556 0
M  V30 2868 H 254.937 -2.4364 0.836507 0
M  V30 2869 H 254.895 -3.04527 -0.781714 0
M  V30 2870 N 258.668 -1.30515 -0.883378 0
M  V30 2871 C 260.084 -1.08881 -1.16692 0
M  V30 2872 C 260.284 0.149409 -2.00945 0
M  V30 2873 O 259.34 0.84257 -2.38027 0
M  V30 2874 C 260.653 -2.35319 -1.87204 0
M  V30 2875 C 262.201 -2.40799 -1.99962 0
M  V30 2876 C 262.676 -3.67083 -2.73887 0
M  V30 2877 N 264.167 -3.679 -2.81432 0
M  V30 2878 C 264.902 -4.62303 -3.3921 0
M  V30 2879 N 264.398 -5.67052 -3.98025 0
M  V30 2880 N 266.191 -4.49845 -3.3704 0
M  V30 2881 H 258.342 -2.09951 -0.321633 0
M  V30 2882 H 260.605 -0.92556 -0.205043 0
M  V30 2883 H 260.311 -3.25689 -1.3274 0
M  V30 2884 H 260.185 -2.44089 -2.87577 0
M  V30 2885 H 262.572 -1.50907 -2.53597 0
M  V30 2886 H 262.653 -2.36003 -0.98673 0
M  V30 2887 H 262.297 -4.57334 -2.20925 0
M  V30 2888 H 262.227 -3.69141 -3.75556 0
M  V30 2889 H 264.718 -2.92171 -2.39676 0
M  V30 2890 H 265.031 -6.35184 -4.40183 0
M  V30 2891 H 263.376 -5.70842 -3.96439 0
M  V30 2892 H 266.567 -3.67194 -2.90321 0
M  V30 2893 H 266.74 -5.23597 -3.81772 0
M  V30 2894 N 260.146 1.09593 -1.13257 0
M  V30 2895 C 261.395 1.81105 -0.887917 0
M  V30 2896 C 261.708 1.86563 0.587672 0
M  V30 2897 O 262.914 2.54367 0.949204 0
M  V30 2898 C 261.37 3.25338 -1.53895 0
M  V30 2899 C 260.978 3.28151 -3.04994 0
M  V30 2900 C 262.722 4.01617 -1.37492 0
M  V30 2901 C 260.629 4.66897 -3.6299 0
M  V30 2902 H 259.559 0.678661 -0.328534 0
M  V30 2903 H 262.21 1.23183 -1.36008 0
M  V30 2904 H 260.592 3.8331 -0.994446 0
M  V30 2905 H 261.766 2.79953 -3.66009 0
M  V30 2906 H 260.081 2.65361 -3.20893 0
M  V30 2907 H 262.678 5.04119 -1.78235 0
M  V30 2908 H 263.021 4.15072 -0.31957 0
M  V30 2909 H 263.554 3.50082 -1.88912 0
M  V30 2910 H 260.293 4.58643 -4.68323 0
M  V30 2911 H 259.813 5.15426 -3.06752 0
M  V30 2912 H 261.492 5.3587 -3.62563 0
M  V30 2913 N 261.624 0.925811 1.2754 0
M  V30 2914 C 262.872 0.564138 1.94067 0
M  V30 2915 C 263.193 -0.897188 1.73134 0
M  V30 2916 O 262.463 -1.63573 1.07799 0
M  V30 2917 H 261.043 0.205645 0.718136 0
M  V30 2918 H 263.705 1.1778 1.55287 0
M  V30 2919 H 262.801 0.76881 3.02483 0
M  V30 2920 N 263.102 -1.41638 0.69111 0
M  V30 2921 C 264.379 -1.95036 0.148421 0
M  V30 2922 C 264.759 -1.63072 -1.34055 0
M  V30 2923 O 264.107 -0.93538 -2.08478 0
M  V30 2924 C 264.317 -3.46279 0.434951 0
M  V30 2925 C 265.665 -4.23069 0.360275 0
M  V30 2926 O 266.689 -3.54277 0.369613 0
M  V30 2927 O 265.548 -5.45583 0.316534 0
M  V30 2928 H 262.642 -0.826908 0.0123654 0
M  V30 2929 H 265.188 -1.5138 0.766963 0
M  V30 2930 H 263.96 -3.6281 1.46576 0
M  V30 2931 H 263.583 -3.97019 -0.214787 0
M  V30 2932 N 264.58 -0.43555 -1.51462 0
M  V30 2933 C 265.829 0.133007 -2.01261 0
M  V30 2934 C 266.142 1.43942 -1.32439 0
M  V30 2935 O 267.348 2.09081 -1.73198 0
M  V30 2936 C 265.804 0.287581 -3.58749 0
M  V30 2937 C 265.412 -1.00829 -4.36506 0
M  V30 2938 C 267.156 0.810004 -4.167 0
M  V30 2939 C 265.063 -0.819454 -5.85695 0
M  V30 2940 H 263.993 0.0534822 -0.752101 0
M  V30 2941 H 266.644 -0.565038 -1.74584 0
M  V30 2942 H 265.026 1.04859 -3.81865 0
M  V30 2943 H 266.2 -1.77749 -4.25138 0
M  V30 2944 H 264.515 -1.45911 -3.89999 0
M  V30 2945 H 267.112 0.967743 -5.2587 0
M  V30 2946 H 267.455 1.79196 -3.75758 0
M  V30 2947 H 267.988 0.107357 -3.97655 0
M  V30 2948 H 264.727 -1.77374 -6.31046 0
M  V30 2949 H 264.247 -0.0900208 -5.99732 0
M  V30 2950 H 265.926 -0.471949 -6.45276 0
M  V30 2951 N 266.058 1.56714 -0.166846 0
M  V30 2952 C 267.306 1.96358 0.478305 0
M  V30 2953 C 267.627 1.0537 1.6408 0
M  V30 2954 O 266.897 0.119154 1.95537 0
M  V30 2955 H 265.477 0.725065 0.179692 0
M  V30 2956 H 268.139 1.93329 -0.246985 0
M  V30 2957 H 267.235 3.00547 0.841292 0
M  V30 2958 N 267.536 -0.106894 1.57237 0
M  V30 2959 C 268.783 -0.812526 1.85484 0
M  V30 2960 C 269.111 -1.79304 0.753687 0
M  V30 2961 O 268.366 -1.94047 -0.253853 0
M  V30 2962 C 268.665 -1.58628 3.20268 0
M  V30 2963 C 268.331 -0.748967 4.44636 0
M  V30 2964 C 266.993 -0.518104 4.78403 0
M  V30 2965 C 269.345 -0.166122 5.20935 0
M  V30 2966 C 266.673 0.305659 5.85903 0
M  V30 2967 C 269.025 0.644899 6.29304 0
M  V30 2968 C 267.689 0.885965 6.61594 0
M  V30 2969 H 266.959 -0.297324 0.678734 0
M  V30 2970 H 269.606 -0.0744332 1.91355 0
M  V30 2971 H 267.911 -2.39562 3.10028 0
M  V30 2972 H 269.608 -2.13643 3.39349 0
M  V30 2973 H 266.198 -0.939006 4.18187 0
M  V30 2974 H 270.382 -0.33167 4.95191 0
M  V30 2975 H 265.638 0.501528 6.0934 0
M  V30 2976 H 269.812 1.10345 6.87602 0
M  V30 2977 H 267.439 1.52609 7.44725 0
M  V30 2978 N 269.014 -1.53014 -0.377408 0
M  V30 2979 C 270.263 -1.67845 -1.11853 0
M  V30 2980 C 270.576 -0.430625 -1.90801 0
M  V30 2981 O 271.782 -0.459261 -2.67587 0
M  V30 2982 C 270.238 -2.96668 -2.03756 0
M  V30 2983 C 269.846 -4.28671 -1.30175 0
M  V30 2984 C 271.59 -3.20865 -2.77932 0
M  V30 2985 C 269.497 -5.48591 -2.20911 0
M  V30 2986 H 268.427 -0.625343 -0.421263 0
M  V30 2987 H 271.078 -1.79514 -0.380409 0
M  V30 2988 H 269.46 -2.78773 -2.8125 0
M  V30 2989 H 270.634 -4.57157 -0.578259 0
M  V30 2990 H 268.949 -4.10825 -0.679108 0
M  V30 2991 H 271.546 -4.07642 -3.46024 0
M  V30 2992 H 271.889 -2.36424 -3.4265 0
M  V30 2993 H 272.422 -3.39379 -2.07525 0
M  V30 2994 H 269.161 -6.35474 -1.6079 0
M  V30 2995 H 268.681 -5.244 -2.91144 0
M  V30 2996 H 270.36 -5.8292 -2.80736 0
M  V30 2997 N 270.492 0.636531 -1.44174 0
M  V30 2998 C 271.422 1.76003 -1.53444 0
M  V30 2999 C 272.403 1.65619 -0.387841 0
M  V30 3000 O 273.588 1.84461 -0.607257 0
M  V30 3001 C 270.718 3.14511 -1.4731 0
M  V30 3002 C 269.672 3.39677 -2.60391 0
M  V30 3003 C 268.998 4.78159 -2.39308 0
M  V30 3004 C 270.298 3.32772 -4.02567 0
M  V30 3005 H 271.992 1.68501 -2.47483 0
M  V30 3006 H 269.538 0.809237 -1.19111 0
M  V30 3007 H 271.491 3.92878 -1.52397 0
M  V30 3008 H 270.215 3.22783 -0.49785 0
M  V30 3009 H 268.874 2.63688 -2.54684 0
M  V30 3010 H 268.522 4.83128 -1.39988 0
M  V30 3011 H 268.222 4.95956 -3.15122 0
M  V30 3012 H 269.746 5.58762 -2.46205 0
M  V30 3013 H 271.16 4.01051 -4.09672 0
M  V30 3014 H 269.557 3.62104 -4.7854 0
M  V30 3015 H 270.627 2.30669 -4.2652 0
M  V30 3016 N 271.97 1.30982 0.876444 0
M  V30 3017 C 272.933 1.18054 1.96459 0
M  V30 3018 C 273.933 0.109399 1.60427 0
M  V30 3019 O 275.123 0.358173 1.70478 0
M  V30 3020 C 272.255 0.810616 3.31122 0
M  V30 3021 H 273.448 2.14735 2.09354 0
M  V30 3022 H 271.001 1.145 1.06392 0
M  V30 3023 H 271.736 -0.155322 3.23928 0
M  V30 3024 H 271.521 1.58481 3.58645 0
M  V30 3025 H 273.011 0.743876 4.10921 0
M  V30 3026 N 273.449 -1.08991 1.13837 0
M  V30 3027 C 274.379 -2.17771 0.842507 0
M  V30 3028 C 275.36 -1.6892 -0.20001 0
M  V30 3029 O 276.545 -1.94113 -0.0579731 0
M  V30 3030 C 273.675 -3.4589 0.312644 0
M  V30 3031 C 272.629 -4.08099 1.28992 0
M  V30 3032 C 271.955 -5.31098 0.619623 0
M  V30 3033 C 273.255 -4.50077 2.65005 0
M  V30 3034 H 274.949 -2.42777 1.75213 0
M  V30 3035 H 272.495 -1.16682 0.843875 0
M  V30 3036 H 274.448 -4.21297 0.0933043 0
M  V30 3037 H 273.172 -3.20419 -0.632382 0
M  V30 3038 H 271.831 -3.34717 1.49533 0
M  V30 3039 H 271.479 -5.0191 -0.33102 0
M  V30 3040 H 271.179 -5.73674 1.27167 0
M  V30 3041 H 272.703 -6.09224 0.409669 0
M  V30 3042 H 274.117 -5.16688 2.48407 0
M  V30 3043 H 272.514 -5.03553 3.26427 0
M  V30 3044 H 273.584 -3.62257 3.22332 0
M  V30 3045 N 274.927 -0.932562 -1.27047 0
M  V30 3046 C 275.89 -0.440064 -2.24936 0
M  V30 3047 C 276.89 0.444071 -1.54547 0
M  V30 3048 O 278.08 0.244465 -1.72476 0
M  V30 3049 C 275.212 0.36678 -3.38921 0
M  V30 3050 H 276.405 -1.305 -2.70018 0
M  V30 3051 H 273.958 -0.713707 -1.39054 0
M  V30 3052 H 274.693 1.25033 -2.99228 0
M  V30 3053 H 274.478 -0.267204 -3.91188 0
M  V30 3054 H 275.968 0.701567 -4.11665 0
M  V30 3055 N 276.405 1.4127 -0.698611 0
M  V30 3056 C 277.651 2.01979 -0.239972 0
M  V30 3057 C 278.006 1.54353 1.14861 0
M  V30 3058 O 277.299 0.746218 1.76471 0
M  V30 3059 C 277.493 3.56592 -0.240192 0
M  V30 3060 C 277.322 4.19226 -1.62726 0
M  V30 3061 C 276.092 4.53389 -2.23084 0
M  V30 3062 C 278.29 4.45228 -2.57443 0
M  V30 3063 N 276.272 5.01327 -3.54323 0
M  V30 3064 C 277.643 4.94973 -3.73365 0
M  V30 3065 C 279.698 4.27243 -2.55671 0
M  V30 3066 C 278.401 5.28624 -4.878 0
M  V30 3067 C 280.427 4.61985 -3.69221 0
M  V30 3068 C 279.789 5.11904 -4.83873 0
M  V30 3069 H 275.888 0.770561 -0.133269 0
M  V30 3070 H 278.472 1.71767 -0.916748 0
M  V30 3071 H 276.643 3.86271 0.406082 0
M  V30 3072 H 278.375 4.04025 0.23356 0
M  V30 3073 H 275.13 4.39946 -1.75341 0
M  V30 3074 H 275.554 5.29697 -4.21604 0
M  V30 3075 H 280.196 3.87884 -1.68243 0
M  V30 3076 H 277.914 5.66905 -5.75885 0
M  V30 3077 H 281.5 4.49725 -3.69105 0
M  V30 3078 H 280.38 5.38282 -5.70282 0
M  V30 3079 N 277.883 0.443576 1.51229 0
M  V30 3080 C 279.13 -0.120796 2.02139 0
M  V30 3081 C 279.458 -1.42166 1.32736 0
M  V30 3082 O 278.713 -1.90849 0.43301 0
M  V30 3083 C 279.012 -0.380579 3.55368 0
M  V30 3084 C 278.678 0.83523 4.43097 0
M  V30 3085 C 277.34 1.16864 4.66794 0
M  V30 3086 C 279.692 1.64601 4.94526 0
M  V30 3087 C 277.02 2.31339 5.39165 0
M  V30 3088 C 279.372 2.78181 5.68153 0
M  V30 3089 C 278.036 3.11969 5.90112 0
M  V30 3090 H 277.306 -0.0442023 0.73968 0
M  V30 3091 H 279.953 0.592046 1.82118 0
M  V30 3092 H 278.258 -1.17538 3.73754 0
M  V30 3093 H 279.955 -0.830777 3.923 0
M  V30 3094 H 276.545 0.565437 4.24854 0
M  V30 3095 H 280.729 1.40163 4.76097 0
M  V30 3096 H 275.985 2.57823 5.5438 0
M  V30 3097 H 280.159 3.41371 6.06992 0
M  V30 3098 H 277.786 4.00784 6.45969 0
M  V30 3099 N 279.361 -1.56624 0.175154 0
M  V30 3100 C 280.61 -1.96173 -0.468921 0
M  V30 3101 C 280.923 -1.06401 -1.64128 0
M  V30 3102 O 282.129 -1.35648 -2.35185 0
M  V30 3103 C 280.585 -3.48833 -0.885633 0
M  V30 3104 C 280.193 -4.47237 0.261343 0
M  V30 3105 C 281.937 -3.97194 -1.49791 0
M  V30 3106 C 279.844 -5.9114 -0.175214 0
M  V30 3107 H 278.774 -0.732455 -0.178958 0
M  V30 3108 H 281.425 -1.81591 0.263997 0
M  V30 3109 H 279.807 -3.58848 -1.67464 0
M  V30 3110 H 280.981 -4.4894 1.03871 0
M  V30 3111 H 279.296 -4.08956 0.783827 0
M  V30 3112 H 281.893 -5.02167 -1.83665 0
M  V30 3113 H 282.236 -3.40351 -2.39722 0
M  V30 3114 H 282.769 -3.90212 -0.773267 0
M  V30 3115 H 279.508 -6.51865 0.689414 0
M  V30 3116 H 279.028 -5.92735 -0.91786 0
M  V30 3117 H 280.707 -6.44044 -0.617792 0
M  V30 3118 N 280.839 0.0985539 -1.57292 0
M  V30 3119 C 281.769 1.12064 -2.04851 0
M  V30 3120 C 282.75 1.41981 -0.936767 0
M  V30 3121 O 283.935 1.52071 -1.20781 0
M  V30 3122 C 281.065 2.44144 -2.47004 0
M  V30 3123 C 280.019 2.28643 -3.6181 0
M  V30 3124 C 279.345 3.65869 -3.89929 0
M  V30 3125 C 280.645 1.72986 -4.92822 0
M  V30 3126 H 282.339 0.724979 -2.9049 0
M  V30 3127 H 279.885 0.34729 -1.39749 0
M  V30 3128 H 281.838 3.15914 -2.78884 0
M  V30 3129 H 280.562 2.85639 -1.5836 0
M  V30 3130 H 279.221 1.59318 -3.30172 0
M  V30 3131 H 278.869 4.04885 -2.98458 0
M  V30 3132 H 278.569 3.56344 -4.67218 0
M  V30 3133 H 280.093 4.39112 -4.2428 0
M  V30 3134 H 281.507 2.34593 -5.23105 0
M  V30 3135 H 279.904 1.74229 -5.74251 0
M  V30 3136 H 280.974 0.689007 -4.7998 0
M  V30 3137 N 282.317 1.53212 0.369288 0
M  V30 3138 C 283.267 1.75769 1.45222 0
M  V30 3139 C 284.251 0.612136 1.48801 0
M  V30 3140 O 285.443 0.870674 1.54105 0
M  V30 3141 C 282.572 1.94769 2.82701 0
M  V30 3142 C 281.658 3.15315 2.83615 0
M  V30 3143 N 282.049 4.37295 2.54178 0
M  V30 3144 C 280.347 3.15962 3.14776 0
M  V30 3145 C 281.048 5.19015 2.62675 0
M  V30 3146 N 280.024 4.55142 2.97232 0
M  V30 3147 H 283.826 2.67691 1.2132 0
M  V30 3148 H 281.34 1.51787 0.577438 0
M  V30 3149 H 283.337 2.09056 3.60696 0
M  V30 3150 H 281.997 1.04073 3.07569 0
M  V30 3151 H 283.008 4.65091 2.27839 0
M  V30 3152 H 279.685 2.35144 3.44983 0
M  V30 3153 H 281.075 6.26305 2.43294 0
M  V30 3154 N 283.795 -0.628877 1.44509 0
M  V30 3155 C 285.02 -1.42048 1.5112 0
M  V30 3156 C 285.445 -1.87594 0.137818 0
M  V30 3157 O 284.803 -1.58873 -0.873437 0
M  V30 3158 C 284.851 -2.61541 2.48251 0
M  V30 3159 O 283.955 -3.61453 1.98559 0
M  V30 3160 H 283.296 -0.424942 0.510216 0
M  V30 3161 H 285.826 -0.767374 1.89664 0
M  V30 3162 H 285.836 -3.09057 2.66361 0
M  V30 3163 H 284.511 -2.27736 3.48007 0
M  V30 3164 H 283.088 -3.20731 1.90227 0
M  V30 3165 N 285.273 -1.31445 -0.869486 0
M  V30 3166 C 286.221 -1.19067 -1.99814 0
M  V30 3167 C 287.215 -0.0988569 -1.69111 0
M  V30 3168 O 288.421 -0.260781 -1.78101 0
M  V30 3169 H 284.796 -0.368677 -0.655425 0
M  V30 3170 H 286.767 -2.14555 -2.07385 0
M  V30 3171 C 285.516 -0.915323 -3.35436 0
M  V30 3172 H 284.839 -1.74759 -3.59582 0
M  V30 3173 H 286.279 -0.868895 -4.15001 0
M  V30 3174 C 284.738 0.381928 -3.34728 0
M  V30 3175 O 285.268 1.39857 -3.76567 0
M  V30 3176 N 283.474 0.398633 -2.87853 0
M  V30 3177 H 283.021 -0.429186 -2.54 0
M  V30 3178 H 282.979 1.26651 -2.87762 0
M  V30 3179 N 286.751 1.08385 -1.14413 0
M  V30 3180 C 287.976 1.85057 -0.936413 0
M  V30 3181 C 288.401 1.81055 0.509971 0
M  V30 3182 O 287.759 1.1958 1.36273 0
M  V30 3183 C 287.807 3.30505 -1.44217 0
M  V30 3184 O 286.911 4.07491 -0.634409 0
M  V30 3185 H 286.252 0.573425 -0.334784 0
M  V30 3186 H 288.782 1.36799 -1.52142 0
M  V30 3187 H 288.792 3.81348 -1.45043 0
M  V30 3188 H 287.467 3.32734 -2.49522 0
M  V30 3189 H 286.044 3.66368 -0.694902 0
M  V30 3190 N 288.23 0.939286 1.26551 0
M  V30 3191 C 289.476 0.596234 1.94465 0
M  V30 3192 C 289.831 -0.855013 1.72358 0
M  V30 3193 O 289.124 -1.6034 1.04889 0
M  V30 3194 C 289.318 0.872106 3.46596 0
M  V30 3195 C 289.147 2.34862 3.83497 0
M  V30 3196 C 287.917 3.00344 4.06352 0
M  V30 3197 C 290.115 3.32697 3.92195 0
M  V30 3198 N 288.097 4.38027 4.30123 0
M  V30 3199 C 289.468 4.55631 4.20476 0
M  V30 3200 C 291.523 3.27747 3.74815 0
M  V30 3201 C 290.226 5.74233 4.33185 0
M  V30 3202 C 292.252 4.45672 3.88755 0
M  V30 3203 C 291.614 5.67388 4.17433 0
M  V30 3204 H 287.713 0.268515 0.734455 0
M  V30 3205 H 290.297 1.2083 1.5267 0
M  V30 3206 H 288.468 0.289102 3.87323 0
M  V30 3207 H 290.2 0.490513 4.01716 0
M  V30 3208 H 286.955 2.50969 4.01636 0
M  V30 3209 H 287.379 5.09288 4.46044 0
M  V30 3210 H 292.021 2.34703 3.51673 0
M  V30 3211 H 289.739 6.67731 4.55149 0
M  V30 3212 H 293.325 4.43372 3.76713 0
M  V30 3213 H 292.205 6.57115 4.27983 0
M  V30 3214 N 289.708 -1.40897 0.706093 0
M  V30 3215 C 290.985 -1.94868 0.169099 0
M  V30 3216 C 291.365 -1.64485 -1.32318 0
M  V30 3217 O 290.713 -0.95744 -2.07474 0
M  V30 3218 C 290.923 -3.45798 0.471654 0
M  V30 3219 C 292.271 -4.22663 0.405127 0
M  V30 3220 O 293.295 -3.53865 0.407168 0
M  V30 3221 O 292.154 -5.45216 0.374383 0
M  V30 3222 H 289.248 -0.82673 0.0211352 0
M  V30 3223 H 291.794 -1.50558 0.782976 0
M  V30 3224 H 290.566 -3.61235 1.50416 0
M  V30 3225 H 290.189 -3.97225 -0.172666 0
M  V30 3226 N 291.186 -0.45159 -1.50991 0
M  V30 3227 C 292.597 0.00818571 -1.86698 0
M  V30 3228 C 292.948 1.40661 -1.3678 0
M  V30 3229 O 292.073 2.0391 -0.724546 0
M  V30 3230 C 292.668 0.0216303 -3.38793 0
M  V30 3231 C 291.227 0.425865 -3.73983 0
M  V30 3232 C 290.374 -0.372163 -2.74791 0
M  V30 3233 H 293.325 -0.666785 -1.44013 0
M  V30 3234 H 293.346 0.828078 -3.7138 0
M  V30 3235 H 292.858 -0.996288 -3.75094 0
M  V30 3236 H 290.959 1.44886 -3.43277 0
M  V30 3237 H 291.072 0.140761 -4.78893 0
M  V30 3238 H 289.436 0.171498 -2.54122 0
M  V30 3239 H 290.219 -1.38922 -3.13935 0
M  V30 3240 N 292.664 1.56529 -0.183458 0
M  V30 3241 C 293.596 2.15747 0.773697 0
M  V30 3242 C 294.609 1.1162 1.1851 0
M  V30 3243 O 295.798 1.3876 1.12285 0
M  V30 3244 C 292.898 2.6952 2.05456 0
M  V30 3245 C 292.071 3.98429 1.8048 0
M  V30 3246 C 291.13 4.37145 2.92901 0
M  V30 3247 O 290.156 5.04791 2.6301 0
M  V30 3248 N 291.358 3.99695 4.2098 0
M  V30 3249 H 294.123 2.98505 0.26736 0
M  V30 3250 H 291.684 1.619 -0.0010878 0
M  V30 3251 H 293.676 2.92412 2.79781 0
M  V30 3252 H 292.246 1.91282 2.47245 0
M  V30 3253 H 291.466 3.8379 0.899947 0
M  V30 3254 H 292.754 4.82597 1.61175 0
M  V30 3255 H 292.152 3.4526 4.48121 0
M  V30 3256 H 290.709 4.27562 4.9197 0
M  V30 3257 N 294.142 -0.090211 1.57342 0
M  V30 3258 C 295.074 -1.13541 1.99101 0
M  V30 3259 C 296.087 -1.3604 0.894258 0
M  V30 3260 O 297.276 -1.34606 1.17233 0
M  V30 3261 C 294.376 -2.49001 2.29895 0
M  V30 3262 C 293.549 -2.46712 3.61182 0
M  V30 3263 C 292.608 -3.64136 3.79857 0
M  V30 3264 O 291.634 -3.46405 4.51655 0
M  V30 3265 N 292.836 -4.83802 3.20806 0
M  V30 3266 H 295.601 -0.779942 2.89373 0
M  V30 3267 H 293.162 -0.279125 1.59476 0
M  V30 3268 H 295.154 -3.26166 2.39578 0
M  V30 3269 H 293.724 -2.76619 1.45605 0
M  V30 3270 H 292.944 -1.55058 3.62423 0
M  V30 3271 H 294.232 -2.42265 4.4742 0
M  V30 3272 H 293.63 -5.01112 2.62494 0
M  V30 3273 H 292.187 -5.58543 3.35966 0
M  V30 3274 N 295.62 -1.53406 -0.361157 0
M  V30 3275 C 296.553 -1.74946 -1.46524 0
M  V30 3276 C 297.531 -0.59795 -1.51206 0
M  V30 3277 O 298.715 -0.831062 -1.69191 0
M  V30 3278 C 295.842 -1.83224 -2.84863 0
M  V30 3279 C 294.888 -3.05233 -2.97885 0
M  V30 3280 S 295.721 -4.6466 -2.66179 0
M  V30 3281 C 296.877 -4.75793 -4.06659 0
M  V30 3282 H 297.11 -2.68319 -1.28033 0
M  V30 3283 H 294.643 -1.44051 -0.555764 0
M  V30 3284 H 296.601 -1.88679 -3.64569 0
M  V30 3285 H 295.262 -0.908948 -3.00661 0
M  V30 3286 H 294.455 -3.07648 -3.9921 0
M  V30 3287 H 294.057 -2.97913 -2.26106 0
M  V30 3288 H 296.349 -4.5612 -5.0096 0
M  V30 3289 H 297.292 -5.7786 -4.09247 0
M  V30 3290 H 297.7 -4.04389 -3.93865 0
M  V30 3291 N 297.098 0.621204 -1.44841 0
M  V30 3292 C 298.061 1.71459 -1.521 0
M  V30 3293 C 299.061 1.55696 -0.401933 0
M  V30 3294 O 300.251 1.61011 -0.664925 0
M  V30 3295 C 297.383 3.10624 -1.40447 0
M  V30 3296 H 298.576 1.66394 -2.49506 0
M  V30 3297 H 296.129 0.835745 -1.3208 0
M  V30 3298 H 296.864 3.21277 -0.441737 0
M  V30 3299 H 296.649 3.23473 -2.21602 0
M  V30 3300 H 298.139 3.90293 -1.4853 0
M  V30 3301 N 298.576 1.31904 0.862503 0
M  V30 3302 C 299.506 1.22782 1.98612 0
M  V30 3303 C 300.487 0.113362 1.69722 0
M  V30 3304 O 301.672 0.299218 1.91881 0
M  V30 3305 C 298.802 0.942058 3.34279 0
M  V30 3306 C 297.756 2.0169 3.77499 0
M  V30 3307 C 297.082 1.58369 5.10709 0
M  V30 3308 C 298.382 3.43096 3.93805 0
M  V30 3309 H 300.076 2.16788 2.06502 0
M  V30 3310 H 297.622 1.04366 0.992154 0
M  V30 3311 H 299.575 0.864818 4.1243 0
M  V30 3312 H 298.299 -0.0336603 3.26583 0
M  V30 3313 H 296.958 2.08416 3.01593 0
M  V30 3314 H 296.606 0.595628 4.99461 0
M  V30 3315 H 296.306 2.30279 5.40597 0
M  V30 3316 H 297.83 1.52067 5.91361 0
M  V30 3317 H 299.244 3.39003 4.62331 0
M  V30 3318 H 297.641 4.13288 4.35101 0
M  V30 3319 H 298.711 3.83334 2.96957 0
M  V30 3320 N 300.054 -1.07777 1.14986 0
M  V30 3321 C 300.984 -2.16865 0.865557 0
M  V30 3322 C 301.965 -1.69123 -0.182083 0
M  V30 3323 O 303.15 -1.94164 -0.0373815 0
M  V30 3324 C 300.28 -3.45539 0.349313 0
M  V30 3325 C 299.234 -4.06708 1.33313 0
M  V30 3326 C 298.56 -5.30411 0.675918 0
M  V30 3327 C 299.86 -4.47241 2.69764 0
M  V30 3328 H 301.554 -2.40905 1.77778 0
M  V30 3329 H 299.1 -1.15781 0.856203 0
M  V30 3330 H 301.053 -4.21174 0.137983 0
M  V30 3331 H 299.777 -3.21072 -0.598362 0
M  V30 3332 H 298.436 -3.33112 1.53075 0
M  V30 3333 H 298.084 -5.02232 -0.277767 0
M  V30 3334 H 297.784 -5.72293 1.33244 0
M  V30 3335 H 299.308 -6.08755 0.474262 0
M  V30 3336 H 300.722 -5.14025 2.53873 0
M  V30 3337 H 299.119 -5.00062 3.3175 0
M  V30 3338 H 300.189 -3.58818 3.26156 0
M  V30 3339 N 301.532 -0.945985 -1.26051 0
M  V30 3340 C 302.48 -0.450259 -2.282 0
M  V30 3341 C 303.474 0.47497 -1.62605 0
M  V30 3342 O 304.68 0.352653 -1.76512 0
M  V30 3343 H 301.055 -0.127081 -0.741184 0
M  V30 3344 H 303.026 -1.32422 -2.67408 0
M  V30 3345 C 301.775 0.26467 -3.46691 0
M  V30 3346 H 301.098 -0.438123 -3.97392 0
M  V30 3347 H 302.538 0.575678 -4.20074 0
M  V30 3348 C 300.997 1.48416 -3.02447 0
M  V30 3349 O 301.527 2.58227 -3.07704 0
M  V30 3350 N 299.733 1.34243 -2.57735 0
M  V30 3351 H 299.28 0.448994 -2.53657 0
M  V30 3352 H 299.238 2.15957 -2.28495 0
M  V30 3353 N 303.011 1.40521 -0.713556 0
M  V30 3354 C 303.974 2.29098 -0.0684347 0
M  V30 3355 C 304.974 1.45268 0.689472 0
M  V30 3356 O 306.164 1.66205 0.521677 0
M  V30 3357 C 303.296 3.28446 0.913024 0
M  V30 3358 H 304.489 2.87645 -0.84855 0
M  V30 3359 H 302.042 1.48809 -0.47809 0
M  V30 3360 H 302.777 2.74913 1.72027 0
M  V30 3361 H 302.562 3.90327 0.372472 0
M  V30 3362 H 304.052 3.94777 1.36165 0
M  V30 3363 N 304.489 0.459591 1.5075 0
M  V30 3364 C 305.437 -0.354678 2.2988 0
M  V30 3365 C 306.431 -1.00086 1.36672 0
M  V30 3366 O 307.637 -0.933277 1.53915 0
M  V30 3367 H 304.012 -0.13321 0.740107 0
M  V30 3368 H 305.983 0.333269 2.96533 0
M  V30 3369 C 304.732 -1.43073 3.169 0
M  V30 3370 H 304.055 -0.942882 3.88523 0
M  V30 3371 H 305.495 -1.97328 3.75284 0
M  V30 3372 C 303.954 -2.42633 2.33732 0
M  V30 3373 O 304.484 -3.47658 2.01238 0
M  V30 3374 N 302.69 -2.14066 1.9653 0
M  V30 3375 H 302.237 -1.28685 2.23155 0
M  V30 3376 H 302.195 -2.80917 1.41185 0
M  V30 3377 N 305.967 -1.56429 0.191757 0
M  V30 3378 C 307.378 -1.83912 -0.321428 0
M  V30 3379 C 307.729 -1.11231 -1.61623 0
M  V30 3380 O 306.854 -0.37202 -2.13178 0
M  V30 3381 C 307.449 -3.33624 -0.589961 0
M  V30 3382 C 306.008 -3.6153 -1.04753 0
M  V30 3383 C 305.155 -2.7714 -0.0943327 0
M  V30 3384 H 308.106 -1.53161 0.415612 0
M  V30 3385 H 308.127 -3.52213 -1.43966 0
M  V30 3386 H 307.639 -3.86495 0.352588 0
M  V30 3387 H 305.74 -3.14089 -2.00447 0
M  V30 3388 H 305.853 -4.69737 -0.942549 0
M  V30 3389 H 304.217 -2.47638 -0.595589 0
M  V30 3390 H 305 -3.32799 0.842601 0
M  V30 3391 N 307.445 0.0818655 -1.57387 0
M  V30 3392 C 308.67 0.799946 -1.91352 0
M  V30 3393 C 309.095 1.70833 -0.787258 0
M  V30 3394 O 308.453 1.79419 0.26048 0
M  V30 3395 C 308.501 1.57812 -3.24234 0
M  V30 3396 O 307.605 2.68806 -3.12757 0
M  V30 3397 H 306.946 0.21891 -0.626877 0
M  V30 3398 H 309.476 0.0531256 -2.04531 0
M  V30 3399 H 309.486 1.95952 -3.57864 0
M  V30 3400 H 308.161 0.911548 -4.05788 0
M  V30 3401 H 306.738 2.33597 -2.90666 0
M  V30 3402 N 308.923 1.53595 0.353017 0
M  V30 3403 C 309.853 1.83902 1.43883 0
M  V30 3404 C 310.834 0.693421 1.55324 0
M  V30 3405 O 312.019 0.944452 1.69687 0
M  V30 3406 C 309.149 2.04016 2.8106 0
M  V30 3407 C 308.103 3.19814 2.84434 0
M  V30 3408 C 307.429 3.25244 4.24406 0
M  V30 3409 C 308.729 4.58133 2.50822 0
M  V30 3410 H 310.423 2.74835 1.1877 0
M  V30 3411 H 307.969 1.32242 0.569917 0
M  V30 3412 H 309.922 2.238 3.57059 0
M  V30 3413 H 308.646 1.09804 3.07588 0
M  V30 3414 H 307.305 2.9987 2.10887 0
M  V30 3415 H 306.953 2.28646 4.48029 0
M  V30 3416 H 306.653 4.03054 4.27576 0
M  V30 3417 H 308.177 3.47228 5.0226 0
M  V30 3418 H 309.591 4.77995 3.16534 0
M  V30 3419 H 307.988 5.38276 2.6529 0
M  V30 3420 H 309.058 4.62387 1.46034 0
M  V30 3421 N 310.401 -0.613514 1.45168 0
M  V30 3422 C 311.629 -1.39946 1.5239 0
M  V30 3423 C 312.044 -1.88167 0.154531 0
M  V30 3424 O 311.401 -1.61872 -0.842843 0
M  V30 3425 C 311.452 -2.60795 2.50337 0
M  V30 3426 O 311.173 -2.1458 3.81952 0
M  V30 3427 C 312.674 -3.53723 2.67198 0
M  V30 3428 H 309.894 -0.428593 0.516284 0
M  V30 3429 H 312.438 -0.748753 1.903 0
M  V30 3430 H 310.593 -3.21919 2.15515 0
M  V30 3431 H 311.007 -2.93055 4.34993 0
M  V30 3432 H 312.481 -4.35079 3.39721 0
M  V30 3433 H 312.958 -4.0368 1.73029 0
M  V30 3434 H 313.564 -2.98456 3.02992 0
M  V30 3435 N 311.879 -1.3236 -0.855495 0
M  V30 3436 C 313.29 -1.2056 -1.42556 0
M  V30 3437 C 313.641 0.182209 -1.95352 0
M  V30 3438 O 312.766 1.08088 -1.87472 0
M  V30 3439 C 313.361 -2.1826 -2.59129 0
M  V30 3440 C 311.92 -2.10351 -3.12137 0
M  V30 3441 C 311.067 -2.06674 -1.84882 0
M  V30 3442 H 314.018 -1.442 -0.662727 0
M  V30 3443 H 314.039 -1.78064 -3.36264 0
M  V30 3444 H 313.551 -3.19257 -2.20673 0
M  V30 3445 H 311.652 -1.12599 -3.55179 0
M  V30 3446 H 311.765 -3.00135 -3.73438 0
M  V30 3447 H 310.129 -1.51901 -2.04446 0
M  V30 3448 H 310.912 -3.09451 -1.48643 0
M  V30 3449 N 313.357 1.07166 -1.15556 0
M  V30 3450 C 314.287 2.16403 -0.877046 0
M  V30 3451 C 315.268 1.69217 0.173111 0
M  V30 3452 O 316.453 1.94181 0.027084 0
M  V30 3453 C 313.583 3.45349 -0.367632 0
M  V30 3454 C 312.537 4.05995 -1.35468 0
M  V30 3455 C 311.863 5.30045 -0.704038 0
M  V30 3456 C 313.163 4.45804 -2.72132 0
M  V30 3457 H 314.857 2.39959 -1.79053 0
M  V30 3458 H 312.403 1.15325 -0.862331 0
M  V30 3459 H 314.356 4.21095 -0.160317 0
M  V30 3460 H 313.08 3.21385 0.581326 0
M  V30 3461 H 311.739 3.32296 -1.54839 0
M  V30 3462 H 311.387 5.02373 0.251128 0
M  V30 3463 H 311.087 5.71579 -1.36277 0
M  V30 3464 H 312.611 6.08495 -0.50654 0
M  V30 3465 H 314.025 5.12671 -2.56595 0
M  V30 3466 H 312.422 4.98296 -3.34397 0
M  V30 3467 H 313.492 3.57083 -3.28054 0
M  V30 3468 N 314.835 0.952656 1.25548 0
M  V30 3469 C 315.765 0.489287 2.28316 0
M  V30 3470 C 316.746 -0.463359 1.63667 0
M  V30 3471 O 317.931 -0.36274 1.90782 0
M  V30 3472 C 315.061 -0.235603 3.465 0
M  V30 3473 C 314.015 0.631593 4.23314 0
M  V30 3474 C 313.341 -0.223923 5.34231 0
M  V30 3475 C 314.641 1.90871 4.86174 0
M  V30 3476 H 316.335 1.34822 2.67326 0
M  V30 3477 H 313.881 0.649728 1.28509 0
M  V30 3478 H 315.834 -0.570882 4.17515 0
M  V30 3479 H 314.558 -1.12877 3.06474 0
M  V30 3480 H 313.217 0.949929 3.54079 0
M  V30 3481 H 312.865 -1.11678 4.90446 0
M  V30 3482 H 312.565 0.35299 5.86539 0
M  V30 3483 H 314.089 -0.554214 6.0808 0
M  V30 3484 H 315.503 1.63997 5.49343 0
M  V30 3485 H 313.9 2.43112 5.4865 0
M  V30 3486 H 314.97 2.61304 4.08471 0
M  V30 3487 N 316.313 -1.40141 0.720998 0
M  V30 3488 C 317.561 -2.0039 0.262323 0
M  V30 3489 C 317.882 -1.57469 -1.15015 0
M  V30 3490 O 317.152 -0.816582 -1.78069 0
M  V30 3491 H 315.732 -0.741063 0.093996 0
M  V30 3492 H 318.394 -1.71398 0.927835 0
M  V30 3493 H 317.49 -3.10658 0.299671 0
M  V30 3494 N 317.792 -0.46758 -1.50504 0
M  V30 3495 C 318.722 0.318381 -2.31319 0
M  V30 3496 C 319.703 0.993564 -1.38066 0
M  V30 3497 O 320.888 0.991411 -1.66987 0
M  V30 3498 C 318.018 1.40275 -3.17711 0
M  V30 3499 C 316.972 0.849373 -4.19487 0
M  V30 3500 C 316.298 2.03177 -4.94594 0
M  V30 3501 C 317.598 -0.136942 -5.2212 0
M  V30 3502 H 319.292 -0.356106 -2.97275 0
M  V30 3503 H 316.838 -0.172703 -1.42961 0
M  V30 3504 H 318.791 1.96004 -3.73042 0
M  V30 3505 H 317.515 2.10596 -2.49634 0
M  V30 3506 H 316.174 0.314076 -3.65252 0
M  V30 3507 H 315.822 2.72187 -4.22993 0
M  V30 3508 H 315.522 1.66774 -5.63436 0
M  V30 3509 H 317.046 2.59403 -5.52759 0
M  V30 3510 H 318.46 0.331056 -5.72343 0
M  V30 3511 H 316.857 -0.41507 -5.98663 0
M  V30 3512 H 317.927 -1.06398 -4.73083 0
M  V30 3513 N 319.27 1.56325 -0.20005 0
M  V30 3514 C 320.2 2.22318 0.713916 0
M  V30 3515 C 321.181 1.18788 1.21752 0
M  V30 3516 O 322.366 1.47309 1.26545 0
M  V30 3517 C 319.496 2.88639 1.93144 0
M  V30 3518 C 318.45 3.98457 1.56255 0
M  V30 3519 C 317.776 4.51967 2.85709 0
M  V30 3520 C 319.076 5.16612 0.768747 0
M  V30 3521 H 320.77 2.98952 0.163755 0
M  V30 3522 H 318.316 1.43792 0.0773219 0
M  V30 3523 H 320.269 3.33491 2.57608 0
M  V30 3524 H 318.993 2.09419 2.50621 0
M  V30 3525 H 317.652 3.54305 0.941471 0
M  V30 3526 H 317.3 3.69503 3.41287 0
M  V30 3527 H 317 5.26071 2.6177 0
M  V30 3528 H 318.524 4.99523 3.51154 0
M  V30 3529 H 319.938 5.57977 1.3166 0
M  V30 3530 H 318.335 5.96812 0.627286 0
M  V30 3531 H 319.405 4.84358 -0.229168 0
M  V30 3532 N 320.748 -0.0735177 1.57428 0
M  V30 3533 C 321.678 -1.0879 2.06608 0
M  V30 3534 C 322.659 -1.40473 0.959237 0
M  V30 3535 O 323.844 -1.5013 1.23185 0
M  V30 3536 C 320.974 -2.40183 2.50857 0
M  V30 3537 C 319.928 -2.22858 3.65402 0
M  V30 3538 C 319.254 -3.59619 3.957 0
M  V30 3539 C 320.554 -1.65123 4.95511 0
M  V30 3540 H 322.248 -0.678673 2.91607 0
M  V30 3541 H 319.794 -0.325013 1.40284 0
M  V30 3542 H 321.747 -3.11437 2.83874 0
M  V30 3543 H 320.471 -2.83083 1.62885 0
M  V30 3544 H 319.13 -1.54045 3.32664 0
M  V30 3545 H 318.778 -4.00086 3.04861 0
M  V30 3546 H 318.478 -3.48866 4.72828 0
M  V30 3547 H 320.002 -4.32306 4.31212 0
M  V30 3548 H 321.416 -2.26241 5.26771 0
M  V30 3549 H 319.813 -1.65071 5.7695 0
M  V30 3550 H 320.883 -0.612559 4.81015 0
M  V30 3551 N 322.226 -1.5378 -0.344866 0
M  V30 3552 C 323.189 -1.80981 -1.40637 0
M  V30 3553 C 324.189 -0.680816 -1.45676 0
M  V30 3554 O 325.379 -0.949095 -1.46075 0
M  V30 3555 C 322.511 -1.95063 -2.79577 0
M  V30 3556 H 323.704 -2.75803 -1.17783 0
M  V30 3557 H 321.257 -1.45173 -0.579181 0
M  V30 3558 H 321.992 -1.02379 -3.07716 0
M  V30 3559 H 321.777 -2.77198 -2.77315 0
M  V30 3560 H 323.267 -2.17629 -3.56409 0
M  V30 3561 N 323.704 0.605807 -1.45491 0
M  V30 3562 C 324.667 1.69836 -1.5391 0
M  V30 3563 C 325.667 1.55261 -0.418424 0
M  V30 3564 O 326.857 1.60296 -0.681965 0
M  V30 3565 C 323.989 3.09117 -1.43734 0
M  V30 3566 H 325.182 1.63738 -2.51257 0
M  V30 3567 H 322.735 0.821689 -1.32959 0
M  V30 3568 H 323.47 3.20791 -0.475788 0
M  V30 3569 H 323.255 3.21104 -2.25021 0
M  V30 3570 H 324.745 3.88696 -1.52661 0
M  V30 3571 N 325.182 1.32811 0.848464 0
M  V30 3572 C 326.145 1.22194 1.9391 0
M  V30 3573 C 327.145 0.143404 1.60159 0
M  V30 3574 O 328.335 0.394253 1.6968 0
M  V30 3575 C 325.467 0.88067 3.29328 0
M  V30 3576 H 326.66 2.19127 2.04752 0
M  V30 3577 H 324.213 1.16731 1.0394 0
M  V30 3578 H 324.948 -0.0865776 3.24184 0
M  V30 3579 H 324.733 1.66052 3.55203 0
M  V30 3580 H 326.223 0.830871 4.09251 0
M  V30 3581 N 326.66 -1.06551 1.16123 0
M  V30 3582 C 327.908 -1.78947 0.939267 0
M  V30 3583 C 328.229 -1.87532 -0.534476 0
M  V30 3584 O 327.499 -1.38211 -1.38833 0
M  V30 3585 H 326.079 -0.662807 0.344523 0
M  V30 3586 H 328.741 -1.28725 1.46342 0
M  V30 3587 H 327.837 -2.81117 1.35572 0
M  V30 3588 N 328.138 -0.959301 -1.25041 0
M  V30 3589 C 329.085 -0.482057 -2.2571 0
M  V30 3590 C 330.055 0.467939 -1.59372 0
M  V30 3591 O 331.24 0.380159 -1.86974 0
M  V30 3592 C 328.38 0.229623 -3.44335 0
M  V30 3593 C 327.493 -0.758156 -4.25295 0
M  V30 3594 C 326.628 -0.0234403 -5.31195 0
M  V30 3595 C 325.667 -1.00184 -6.03846 0
M  V30 3596 N 324.804 -0.29769 -7.01469 0
M  V30 3597 H 329.644 -1.34538 -2.65901 0
M  V30 3598 H 327.181 -0.674592 -1.3072 0
M  V30 3599 H 329.139 0.658856 -4.11965 0
M  V30 3600 H 327.769 1.05696 -3.05005 0
M  V30 3601 H 326.821 -1.30586 -3.57284 0
M  V30 3602 H 328.133 -1.50458 -4.75567 0
M  V30 3603 H 327.287 0.464201 -6.04922 0
M  V30 3604 H 326.026 0.755741 -4.81809 0
M  V30 3605 H 325.031 -1.50044 -5.2893 0
M  V30 3606 H 326.256 -1.78133 -6.55321 0
M  V30 3607 H 324.202 0.462668 -6.54366 0
M  V30 3608 H 324.119 -0.983128 -7.4958 0
M  V30 3609 H 325.387 0.16826 -7.79318 0
M  V30 3610 N 329.616 1.39756 -0.72842 0
M  V30 3611 C 330.841 2.05472 -0.282159 0
M  V30 3612 C 331.266 1.54549 1.07221 0
M  V30 3613 O 330.624 0.686372 1.67805 0
M  V30 3614 C 330.672 3.59462 -0.286264 0
M  V30 3615 O 329.776 4.05918 0.728298 0
M  V30 3616 H 329.117 0.651226 -0.129618 0
M  V30 3617 H 331.647 1.78915 -0.992499 0
M  V30 3618 H 331.657 4.07798 -0.128373 0
M  V30 3619 H 330.332 3.95889 -1.27456 0
M  V30 3620 H 328.909 3.69012 0.537081 0
M  V30 3621 N 331.094 0.475555 1.50254 0
M  V30 3622 C 332.057 -0.305016 2.27161 0
M  V30 3623 C 333.057 -0.916519 1.32123 0
M  V30 3624 O 334.247 -0.785003 1.5551 0
M  V30 3625 C 331.379 -1.43496 3.09227 0
M  V30 3626 H 332.572 0.369511 2.97615 0
M  V30 3627 H 330.125 0.229747 1.54602 0
M  V30 3628 H 330.86 -2.14441 2.43281 0
M  V30 3629 H 330.645 -1.00223 3.79075 0
M  V30 3630 H 332.135 -1.98548 3.67381 0
M  V30 3631 N 332.573 -1.56217 0.208337 0
M  V30 3632 C 333.505 -2.1695 -0.739276 0
M  V30 3633 C 334.518 -1.13492 -1.1672 0
M  V30 3634 O 335.707 -1.40529 -1.10063 0
M  V30 3635 C 332.807 -2.72755 -2.01142 0
M  V30 3636 C 331.98 -4.0125 -1.74118 0
M  V30 3637 C 331.039 -4.41749 -2.85909 0
M  V30 3638 O 330.065 -5.08912 -2.54946 0
M  V30 3639 N 331.267 -4.06342 -4.14568 0
M  V30 3640 H 334.032 -2.98893 -0.219837 0
M  V30 3641 H 331.593 -1.61878 0.0268445 0
M  V30 3642 H 333.585 -2.96826 -2.75094 0
M  V30 3643 H 332.155 -1.95191 -2.4417 0
M  V30 3644 H 331.375 -3.85173 -0.838775 0
M  V30 3645 H 332.663 -4.851 -1.53477 0
M  V30 3646 H 332.061 -3.52345 -4.42571 0
M  V30 3647 H 330.618 -4.35335 -4.85105 0
M  V30 3648 N 334.051 0.0651679 -1.57465 0
M  V30 3649 C 334.981 1.07693 -2.07182 0
M  V30 3650 C 335.962 1.39962 -0.966673 0
M  V30 3651 O 337.147 1.49475 -1.2398 0
M  V30 3652 C 334.277 2.3885 -2.52127 0
M  V30 3653 C 333.231 2.20917 -3.66579 0
M  V30 3654 C 332.557 3.57515 -3.97601 0
M  V30 3655 C 333.857 1.62493 -4.9638 0
M  V30 3656 H 335.551 0.663199 -2.91962 0
M  V30 3657 H 333.097 0.317569 -1.40455 0
M  V30 3658 H 335.05 3.09928 -2.85522 0
M  V30 3659 H 333.774 2.82215 -1.64384 0
M  V30 3660 H 332.433 1.52279 -3.33477 0
M  V30 3661 H 332.081 3.98463 -3.06979 0
M  V30 3662 H 331.781 3.46353 -4.74672 0
M  V30 3663 H 333.305 4.30013 -4.33499 0
M  V30 3664 H 334.719 2.23445 -5.27963 0
M  V30 3665 H 333.116 1.62009 -5.77818 0
M  V30 3666 H 334.186 0.587041 -4.81333 0
M  V30 3667 N 335.529 1.53961 0.336706 0
M  V30 3668 C 336.777 1.71197 1.07405 0
M  V30 3669 C 337.098 0.481475 1.88962 0
M  V30 3670 O 336.368 -0.504585 1.8929 0
M  V30 3671 H 334.948 0.631185 0.399517 0
M  V30 3672 H 337.61 1.91232 0.376323 0
M  V30 3673 H 336.706 2.58587 1.74755 0
M  V30 3674 N 337.007 -0.598083 1.45811 0
M  V30 3675 C 337.937 -1.71873 1.58057 0
M  V30 3676 C 338.918 -1.64533 0.431615 0
M  V30 3677 O 340.103 -1.82787 0.65595 0
M  V30 3678 C 337.233 -3.10495 1.55597 0
M  V30 3679 C 336.187 -3.32654 2.69305 0
M  V30 3680 C 335.513 -4.71646 2.51902 0
M  V30 3681 C 336.813 -3.21981 4.11248 0
M  V30 3682 H 338.507 -1.61881 2.51863 0
M  V30 3683 H 336.053 -0.777372 1.21214 0
M  V30 3684 H 338.006 -3.88699 1.6276 0
M  V30 3685 H 336.73 -3.2135 0.583255 0
M  V30 3686 H 335.389 -2.56843 2.61586 0
M  V30 3687 H 335.037 -4.79246 1.52748 0
M  V30 3688 H 334.737 -4.87426 3.2816 0
M  V30 3689 H 336.261 -5.52038 2.60933 0
M  V30 3690 H 337.675 -3.90049 4.20161 0
M  V30 3691 H 336.072 -3.49289 4.87972 0
M  V30 3692 H 337.142 -2.1928 4.32486 0
M  V30 3693 N 338.485 -1.33259 -0.841409 0
M  V30 3694 C 339.435 -1.19872 -1.93945 0
M  V30 3695 C 340.419 -0.102269 -1.60575 0
M  V30 3696 O 341.611 -0.330114 -1.73894 0
M  V30 3697 C 338.74 -0.937517 -3.30251 0
M  V30 3698 C 337.826 -2.07629 -3.69799 0
M  V30 3699 N 338.217 -3.32604 -3.81062 0
M  V30 3700 C 336.515 -1.98242 -3.9952 0
M  V30 3701 C 337.216 -4.07275 -4.15333 0
M  V30 3702 N 336.192 -3.35691 -4.27566 0
M  V30 3703 H 339.994 -2.14604 -2.00805 0
M  V30 3704 H 337.508 -1.2523 -1.03398 0
M  V30 3705 H 339.505 -0.822545 -4.08705 0
M  V30 3706 H 338.165 0.00128798 -3.247 0
M  V30 3707 H 339.176 -3.67382 -3.65035 0
M  V30 3708 H 335.853 -1.12005 -4.02195 0
M  V30 3709 H 337.243 -5.1511 -4.31406 0
M  V30 3710 N 339.963 1.05934 -1.16686 0
M  V30 3711 C 341.374 1.60263 -0.957745 0
M  V30 3712 C 341.725 1.89789 0.49745 0
M  V30 3713 O 340.85 1.67401 1.37135 0
M  V30 3714 C 341.445 2.91172 -1.73218 0
M  V30 3715 C 340.004 3.42188 -1.56794 0
M  V30 3716 C 339.151 2.16028 -1.73859 0
M  V30 3717 H 342.102 0.888392 -1.31504 0
M  V30 3718 H 342.123 3.60744 -1.21014 0
M  V30 3719 H 341.635 2.6965 -2.79124 0
M  V30 3720 H 339.736 3.68762 -0.533437 0
M  V30 3721 H 339.849 4.17273 -2.35414 0
M  V30 3722 H 338.213 2.26426 -1.16633 0
M  V30 3723 H 338.996 1.96985 -2.81161 0
M  V30 3724 N 341.441 0.965919 1.2453 0
M  V30 3725 C 342.687 0.637349 1.93156 0
M  V30 3726 C 343.042 -0.818261 1.74133 0
M  V30 3727 O 342.335 -1.58079 1.08266 0
M  V30 3728 C 342.529 0.945428 3.44669 0
M  V30 3729 C 342.358 2.42944 3.78429 0
M  V30 3730 C 341.128 3.08895 3.9989 0
M  V30 3731 C 343.326 3.40941 3.8505 0
M  V30 3732 N 341.308 4.47052 4.20735 0
M  V30 3733 C 342.679 4.64448 4.10717 0
M  V30 3734 C 344.734 3.35624 3.67779 0
M  V30 3735 C 343.437 5.83292 4.20907 0
M  V30 3736 C 345.463 4.53818 3.79214 0
M  V30 3737 C 344.825 5.76114 4.05304 0
M  V30 3738 H 340.924 0.284034 0.728594 0
M  V30 3739 H 343.508 1.24041 1.50073 0
M  V30 3740 H 341.679 0.371193 3.86622 0
M  V30 3741 H 343.411 0.575613 4.00586 0
M  V30 3742 H 340.166 2.59432 3.96222 0
M  V30 3743 H 340.59 5.18634 4.35141 0
M  V30 3744 H 345.232 2.4211 3.46616 0
M  V30 3745 H 342.95 6.77236 4.40883 0
M  V30 3746 H 346.536 4.51263 3.67224 0
M  V30 3747 H 345.416 6.66045 4.13949 0
M  V30 3748 N 342.919 -1.39368 0.735821 0
M  V30 3749 C 343.849 -2.33234 0.111506 0
M  V30 3750 C 344.83 -1.53954 -0.723334 0
M  V30 3751 O 346.015 -1.82344 -0.668147 0
M  V30 3752 C 343.145 -3.38057 -0.795917 0
M  V30 3753 C 342.099 -4.2795 -0.065172 0
M  V30 3754 C 341.425 -5.23479 -1.08967 0
M  V30 3755 C 342.725 -5.10741 1.09273 0
M  V30 3756 H 344.419 -2.85692 0.895571 0
M  V30 3757 H 341.965 -1.37364 0.432109 0
M  V30 3758 H 343.918 -4.02675 -1.24221 0
M  V30 3759 H 342.642 -2.8404 -1.61211 0
M  V30 3760 H 341.301 -3.64813 0.361511 0
M  V30 3761 H 340.949 -4.65758 -1.89944 0
M  V30 3762 H 340.649 -5.84472 -0.605489 0
M  V30 3763 H 342.173 -5.90974 -1.53565 0
M  V30 3764 H 343.587 -5.68699 0.724841 0
M  V30 3765 H 341.984 -5.8088 1.50659 0
M  V30 3766 H 343.054 -4.45525 1.91404 0
M  V30 3767 N 344.397 -0.483516 -1.5 0
M  V30 3768 C 345.808 -0.0314176 -1.86674 0
M  V30 3769 C 346.159 1.37728 -1.39733 0
M  V30 3770 O 345.284 2.02327 -0.767635 0
M  V30 3771 C 345.879 -0.0502376 -3.38763 0
M  V30 3772 C 344.438 0.346442 -3.74802 0
M  V30 3773 C 343.585 -0.430366 -2.7394 0
M  V30 3774 H 346.536 -0.697182 -1.42566 0
M  V30 3775 H 346.557 0.749116 -3.73053 0
M  V30 3776 H 346.069 -1.07563 -3.72897 0
M  V30 3777 H 344.17 1.37572 -3.46273 0
M  V30 3778 H 344.283 0.0391486 -4.79084 0
M  V30 3779 H 342.647 0.117557 -2.54429 0
M  V30 3780 H 343.43 -1.4555 -3.10918 0
M  V30 3781 N 345.875 1.56104 -0.216619 0
M  V30 3782 C 347.1 2.0301 0.424462 0
M  V30 3783 C 347.525 1.0955 1.52907 0
M  V30 3784 O 346.883 0.0827914 1.81111 0
M  V30 3785 C 346.931 3.4819 0.937883 0
M  V30 3786 O 346.035 3.57865 2.04955 0
M  V30 3787 H 345.376 0.656925 0.0966755 0
M  V30 3788 H 347.906 2.01859 -0.33381 0
M  V30 3789 H 347.916 3.88413 1.24897 0
M  V30 3790 H 346.591 4.15699 0.129387 0
M  V30 3791 H 345.168 3.29527 1.74546 0
M  V30 3792 N 347.353 -0.0568162 1.57498 0
M  V30 3793 C 348.316 -1.05038 2.03715 0
M  V30 3794 C 349.316 -1.30709 0.936577 0
M  V30 3795 O 350.506 -1.26178 1.20103 0
M  V30 3796 C 347.638 -2.39034 2.43055 0
M  V30 3797 H 348.831 -0.651715 2.92733 0
M  V30 3798 H 346.384 -0.302947 1.53336 0
M  V30 3799 H 347.119 -2.83703 1.57108 0
M  V30 3800 H 346.904 -2.21739 3.2338 0
M  V30 3801 H 348.394 -3.10421 2.79336 0
M  V30 3802 N 348.832 -1.54138 -0.328536 0
M  V30 3803 C 349.765 -1.78014 -1.4278 0
M  V30 3804 C 350.743 -0.629889 -1.49904 0
M  V30 3805 O 351.927 -0.866763 -1.6739 0
M  V30 3806 C 349.054 -1.89225 -2.80912 0
M  V30 3807 C 348.1 -3.11483 -2.91343 0
M  V30 3808 S 348.933 -4.70201 -2.56263 0
M  V30 3809 C 350.089 -4.84312 -3.96476 0
M  V30 3810 H 350.322 -2.70974 -1.22313 0
M  V30 3811 H 347.855 -1.45197 -0.525084 0
M  V30 3812 H 349.813 -1.9637 -3.60485 0
M  V30 3813 H 348.474 -0.972518 -2.98665 0
M  V30 3814 H 347.667 -3.16046 -3.92595 0
M  V30 3815 H 347.269 -3.02642 -2.19736 0
M  V30 3816 H 349.561 -4.66643 -4.91173 0
M  V30 3817 H 350.504 -5.86411 -3.96898 0
M  V30 3818 H 350.912 -4.12652 -3.85199 0
M  V30 3819 N 350.31 0.590341 -1.46126 0
M  V30 3820 C 351.22 1.72793 -1.58681 0
M  V30 3821 C 352.236 1.67516 -0.470566 0
M  V30 3822 O 353.412 1.87562 -0.733642 0
M  V30 3823 C 350.477 3.09287 -1.5666 0
M  V30 3824 C 349.538 3.25886 -2.79458 0
M  V30 3825 C 348.771 4.55869 -2.77524 0
M  V30 3826 O 348.994 5.3928 -1.85832 0
M  V30 3827 O 347.928 4.75552 -3.68964 0
M  V30 3828 H 351.754 1.65149 -2.54872 0
M  V30 3829 H 349.339 0.756486 -1.28832 0
M  V30 3830 H 351.221 3.90577 -1.58202 0
M  V30 3831 H 349.896 3.17385 -0.636271 0
M  V30 3832 H 348.803 2.44119 -2.83472 0
M  V30 3833 H 350.136 3.22675 -3.71674 0
M  V30 3834 N 351.788 1.33704 0.83433 0
M  V30 3835 C 353.036 1.25169 1.58673 0
M  V30 3836 C 353.357 -0.18127 1.94156 0
M  V30 3837 O 352.627 -1.11113 1.6134 0
M  V30 3838 H 351.207 0.4603 0.58833 0
M  V30 3839 H 353.869 1.67478 0.996847 0
M  V30 3840 H 352.965 1.84856 2.51465 0
M  V30 3841 N 353.266 -1.05314 1.17247 0
M  V30 3842 C 354.677 -1.59753 0.96623 0
M  V30 3843 C 355.028 -1.9005 -0.487378 0
M  V30 3844 O 354.153 -1.68126 -1.36245 0
M  V30 3845 C 354.748 -2.90249 1.74759 0
M  V30 3846 C 353.307 -3.41352 1.58606 0
M  V30 3847 C 352.454 -2.15103 1.75002 0
M  V30 3848 H 355.405 -0.881406 1.31973 0
M  V30 3849 H 355.426 -3.60097 1.22925 0
M  V30 3850 H 354.938 -2.68166 2.8055 0
M  V30 3851 H 353.039 -3.68474 0.552985 0
M  V30 3852 H 353.152 -4.16019 2.37624 0
M  V30 3853 H 351.516 -2.25804 1.17833 0
M  V30 3854 H 352.299 -1.95491 2.82202 0
M  V30 3855 N 354.744 -0.972509 -1.24016 0
M  V30 3856 C 355.972 -0.654803 -1.96265 0
M  V30 3857 C 356.387 0.776708 -1.72083 0
M  V30 3858 O 355.744 1.52171 -1.00748 0
M  V30 3859 C 355.795 -0.92592 -3.49441 0
M  V30 3860 O 355.516 -2.30116 -3.72798 0
M  V30 3861 C 357.017 -0.623068 -4.38899 0
M  V30 3862 H 354.237 -0.243907 -0.6251 0
M  V30 3863 H 356.781 -1.30175 -1.57717 0
M  V30 3864 H 354.936 -0.325108 -3.86033 0
M  V30 3865 H 355.35 -2.38483 -4.67147 0
M  V30 3866 H 356.824 -0.863189 -5.45209 0
M  V30 3867 H 357.301 0.442754 -4.36963 0
M  V30 3868 H 357.907 -1.204 -4.07902 0
M  V30 3869 N 356.222 1.38976 -0.743202 0
M  V30 3870 C 357.633 1.83123 -0.363732 0
M  V30 3871 C 357.984 1.6205 1.10609 0
M  V30 3872 O 357.109 1.11606 1.854 0
M  V30 3873 C 357.704 3.32439 -0.653408 0
M  V30 3874 C 356.263 3.74974 -0.327338 0
M  V30 3875 C 355.41 2.61878 -0.911875 0
M  V30 3876 H 358.361 1.27852 -0.940191 0
M  V30 3877 H 358.382 3.80432 0.0720031 0
M  V30 3878 H 357.894 3.47745 -1.72323 0
M  V30 3879 H 355.995 3.65252 0.736314 0
M  V30 3880 H 356.108 4.72106 -0.815631 0
M  V30 3881 H 354.472 2.52448 -0.337944 0
M  V30 3882 H 355.255 2.79987 -1.98651 0
M  V30 3883 N 357.7 0.491464 1.49741 0
M  V30 3884 C 358.946 -0.0565092 2.02721 0
M  V30 3885 C 359.279 -1.37522 1.37118 0
M  V30 3886 O 358.554 -1.87866 0.503645 0
M  V30 3887 C 358.837 -0.219051 3.59433 0
M  V30 3888 C 358.69 1.12211 4.35579 0
M  V30 3889 C 360.009 -0.964157 4.29409 0
M  V30 3890 H 357.128 -0.0190627 0.736753 0
M  V30 3891 H 359.77 0.641021 1.7886 0
M  V30 3892 H 357.92 -0.813165 3.79895 0
M  V30 3893 H 359.592 1.75437 4.26637 0
M  V30 3894 H 357.835 1.71377 3.98513 0
M  V30 3895 H 358.506 0.961794 5.43556 0
M  V30 3896 H 360.982 -0.460378 4.13545 0
M  V30 3897 H 359.858 -1.04671 5.38828 0
M  V30 3898 H 360.119 -2.00563 3.93988 0
M  V30 3899 N 359.178 -1.55987 0.224894 0
M  V30 3900 C 360.403 -2.03232 -0.41369 0
M  V30 3901 C 360.828 -1.10359 -1.52323 0
M  V30 3902 O 360.186 -0.092395 -1.81064 0
M  V30 3903 C 360.234 -3.48682 -0.919405 0
M  V30 3904 O 359.338 -3.58947 -2.03054 0
M  V30 3905 H 358.679 -0.657428 -0.0931903 0
M  V30 3906 H 361.209 -2.01679 0.34451 0
M  V30 3907 H 361.219 -3.8907 -1.22835 0
M  V30 3908 H 359.894 -4.15761 -0.107339 0
M  V30 3909 H 358.471 -3.30448 -1.72796 0
M  V30 3910 N 360.656 0.0484629 -1.57525 0
M  V30 3911 C 361.619 1.03956 -2.04269 0
M  V30 3912 C 362.619 1.30211 -0.943496 0
M  V30 3913 O 363.809 1.25539 -1.20771 0
M  V30 3914 C 360.941 2.37742 -2.44319 0
M  V30 3915 H 362.134 0.636182 -2.93075 0
M  V30 3916 H 359.687 0.294811 -1.53494 0
M  V30 3917 H 360.422 2.82866 -1.5861 0
M  V30 3918 H 360.207 2.20021 -3.24551 0
M  V30 3919 H 361.697 3.08936 -2.80978 0
M  V30 3920 N 362.134 1.5431 0.320358 0
M  V30 3921 C 363.064 1.86912 1.3995 0
M  V30 3922 C 364.045 0.726211 1.53819 0
M  V30 3923 O 365.23 0.980233 1.67646 0
M  V30 3924 C 362.36 2.09932 2.7667 0
M  V30 3925 C 361.314 3.25776 2.77586 0
M  V30 3926 C 360.64 3.34173 4.17412 0
M  V30 3927 C 361.94 4.6335 2.41048 0
M  V30 3928 H 363.634 2.77292 1.12914 0
M  V30 3929 H 361.18 1.33421 0.541738 0
M  V30 3930 H 363.133 2.31324 3.52232 0
M  V30 3931 H 361.857 1.16304 3.0519 0
M  V30 3932 H 360.516 3.04276 2.04479 0
M  V30 3933 H 360.164 2.38098 4.43078 0
M  V30 3934 H 359.864 4.12033 4.18931 0
M  V30 3935 H 361.388 3.57803 4.94782 0
M  V30 3936 H 362.802 4.84602 3.06324 0
M  V30 3937 H 361.199 5.43782 2.53813 0
M  V30 3938 H 362.269 4.65381 1.36193 0
M  V30 3939 N 363.613 -0.582584 1.46437 0
M  V30 3940 C 364.543 -1.70187 1.59871 0
M  V30 3941 C 365.524 -1.64066 0.449042 0
M  V30 3942 O 366.709 -1.82081 0.6753 0
M  V30 3943 C 363.839 -3.08827 1.58881 0
M  V30 3944 C 362.793 -3.29779 2.72819 0
M  V30 3945 C 362.119 -4.68947 2.5689 0
M  V30 3946 C 363.419 -3.17601 4.1464 0
M  V30 3947 H 365.113 -1.592 2.53566 0
M  V30 3948 H 362.659 -0.764472 1.22032 0
M  V30 3949 H 364.612 -3.86951 1.66873 0
M  V30 3950 H 363.336 -3.20713 0.617306 0
M  V30 3951 H 361.995 -2.54054 2.64296 0
M  V30 3952 H 361.643 -4.77599 1.57823 0
M  V30 3953 H 361.343 -4.83919 3.33312 0
M  V30 3954 H 362.867 -5.4924 2.66773 0
M  V30 3955 H 364.281 -3.8557 4.24274 0
M  V30 3956 H 362.678 -3.44094 4.9165 0
M  V30 3957 H 363.748 -2.14681 4.34788 0
M  V30 3958 N 365.091 -1.34144 -0.827227 0
M  V30 3959 C 366.041 -1.21923 -1.92663 0
M  V30 3960 C 367.025 -0.119294 -1.60457 0
M  V30 3961 O 368.217 -0.348539 -1.73534 0
M  V30 3962 C 365.346 -0.972492 -3.29238 0
M  V30 3963 C 364.432 -2.1154 -3.67576 0
M  V30 3964 N 364.823 -3.36627 -3.77512 0
M  V30 3965 C 363.121 -2.02468 -3.97395 0
M  V30 3966 C 363.822 -4.11658 -4.1099 0
M  V30 3967 N 362.798 -3.40207 -4.23981 0
M  V30 3968 H 366.6 -2.16721 -1.98517 0
M  V30 3969 H 364.114 -1.2632 -1.02064 0
M  V30 3970 H 366.111 -0.865847 -4.0781 0
M  V30 3971 H 364.771 -0.0331509 -3.24683 0
M  V30 3972 H 365.782 -3.71234 -3.61118 0
M  V30 3973 H 362.459 -1.16265 -4.00985 0
M  V30 3974 H 363.849 -5.19657 -4.25918 0
M  V30 3975 N 366.569 1.04691 -1.17803 0
M  V30 3976 C 367.794 1.81984 -0.994813 0
M  V30 3977 C 368.219 1.82586 0.452112 0
M  V30 3978 O 367.577 1.23854 1.324 0
M  V30 3979 C 367.625 3.2575 -1.54659 0
M  V30 3980 O 366.729 4.05267 -0.763728 0
M  V30 3981 H 366.07 0.562483 -0.352857 0
M  V30 3982 H 368.6 1.3189 -1.56417 0
M  V30 3983 H 368.61 3.76541 -1.57102 0
M  V30 3984 H 367.285 3.24627 -2.59981 0
M  V30 3985 H 365.862 3.63972 -0.811108 0
M  V30 3986 N 368.047 0.979072 1.23499 0
M  V30 3987 C 369.272 0.664845 1.96455 0
M  V30 3988 C 369.697 -0.761287 1.72006 0
M  V30 3989 O 369.055 -1.51837 0.990713 0
M  V30 3990 C 369.103 0.959479 3.47601 0
M  V30 3991 O 368.207 0.0508168 4.12369 0
M  V30 3992 H 367.548 0.250185 0.615064 0
M  V30 3993 H 370.078 1.31231 1.5697 0
M  V30 3994 H 370.088 0.895642 3.98048 0
M  V30 3995 H 368.763 1.99876 3.64723 0
M  V30 3996 H 367.34 0.16895 3.72517 0
M  V30 3997 N 369.525 -1.3858 0.750561 0
M  V30 3998 C 370.753 -2.04471 0.316098 0
M  V30 3999 C 371.168 -1.56606 -1.05452 0
M  V30 4000 O 370.525 -0.737784 -1.66922 0
M  V30 4001 C 370.576 -3.60025 0.326275 0
M  V30 4002 O 370.297 -4.06133 1.6428 0
M  V30 4003 C 371.798 -4.43131 -0.122429 0
M  V30 4004 H 369.018 -0.65717 0.135528 0
M  V30 4005 H 371.562 -1.77329 1.01857 0
M  V30 4006 H 369.717 -3.86014 -0.327431 0
M  V30 4007 H 370.131 -5.00547 1.56693 0
M  V30 4008 H 371.605 -5.51963 -0.0641473 0
M  V30 4009 H 372.082 -4.23333 -1.16988 0
M  V30 4010 H 372.688 -4.22323 0.50229 0
M  V30 4011 N 371.003 -0.499398 -1.49478 0
M  V30 4012 C 371.936 0.326491 -2.25852 0
M  V30 4013 C 372.914 0.971776 -1.30366 0
M  V30 4014 O 374.098 1.00219 -1.59651 0
M  V30 4015 C 371.225 1.45969 -3.05632 0
M  V30 4016 C 370.271 0.928938 -4.16261 0
M  V30 4017 S 371.104 -0.179012 -5.35201 0
M  V30 4018 C 372.26 0.957389 -6.18534 0
M  V30 4019 H 372.493 -0.321746 -2.95554 0
M  V30 4020 H 370.026 -0.284674 -1.51753 0
M  V30 4021 H 371.984 2.109 -3.52181 0
M  V30 4022 H 370.645 2.07953 -2.35402 0
M  V30 4023 H 369.838 1.77813 -4.71592 0
M  V30 4024 H 369.44 0.356869 -3.72293 0
M  V30 4025 H 371.732 1.86296 -6.51383 0
M  V30 4026 H 372.675 0.442733 -7.06715 0
M  V30 4027 H 373.083 1.224 -5.5107 0
M  V30 4028 N 372.481 1.55866 -0.233164 0
M  V30 4029 C 373.727 1.98897 0.395959 0
M  V30 4030 C 374.06 1.12091 1.58585 0
M  V30 4031 O 373.335 0.181182 1.93654 0
M  V30 4032 C 373.618 3.50658 0.819224 0
M  V30 4033 C 373.471 4.48233 -0.375109 0
M  V30 4034 C 374.79 4.07135 1.67121 0
M  V30 4035 H 371.909 0.723102 0.142451 0
M  V30 4036 H 374.551 1.87082 -0.331725 0
M  V30 4037 H 372.701 3.60857 1.43925 0
M  V30 4038 H 374.373 4.50031 -1.01341 0
M  V30 4039 H 372.616 4.21624 -1.02058 0
M  V30 4040 H 373.287 5.51988 -0.0358328 0
M  V30 4041 H 375.763 3.99952 1.14795 0
M  V30 4042 H 374.639 5.13615 1.93625 0
M  V30 4043 H 374.9 3.54736 2.63846 0
M  V30 4044 N 373.959 -0.0401083 1.57549 0
M  V30 4045 C 375.205 -0.734211 1.89043 0
M  V30 4046 C 375.538 -1.75591 0.829535 0
M  V30 4047 O 374.813 -1.93868 -0.156706 0
M  V30 4048 C 375.096 -1.41374 3.31188 0
M  V30 4049 C 374.949 -0.406299 4.47961 0
M  V30 4050 C 376.268 -2.35061 3.72068 0
M  V30 4051 H 373.387 -0.265447 0.687537 0
M  V30 4052 H 376.029 0.00294087 1.9 0
M  V30 4053 H 374.179 -2.04206 3.30503 0
M  V30 4054 H 375.851 0.219255 4.60779 0
M  V30 4055 H 374.094 0.275485 4.32924 0
M  V30 4056 H 374.765 -0.920022 5.44279 0
M  V30 4057 H 377.241 -1.82282 3.74049 0
M  V30 4058 H 376.117 -2.79593 4.72355 0
M  V30 4059 H 376.378 -3.21258 3.0372 0
M  V30 4060 N 375.437 -1.54477 -0.31217 0
M  V30 4061 C 376.4 -1.83923 -1.36766 0
M  V30 4062 C 377.4 -0.711563 -1.44199 0
M  V30 4063 O 378.59 -0.979866 -1.44029 0
M  V30 4064 C 375.722 -2.0095 -2.75376 0
M  V30 4065 H 376.915 -2.78239 -1.11906 0
M  V30 4066 H 374.468 -1.46369 -0.548257 0
M  V30 4067 H 375.203 -1.08883 -3.05475 0
M  V30 4068 H 374.988 -2.83018 -2.71373 0
M  V30 4069 H 376.478 -2.2514 -3.51713 0
M  V30 4070 N 376.915 0.57481 -1.46744 0
M  V30 4071 C 378.163 1.33009 -1.52161 0
M  V30 4072 C 378.484 1.94185 -0.178092 0
M  V30 4073 O 377.754 1.7899 0.796196 0
M  V30 4074 H 376.334 0.493873 -0.560445 0
M  V30 4075 H 378.996 0.672589 -1.82927 0
M  V30 4076 H 378.092 2.13273 -2.27862 0
M  V30 4077 N 378.394 1.34581 0.820102 0
M  V30 4078 C 379.643 1.26437 1.57151 0
M  V30 4079 C 379.956 -0.163111 1.94919 0
M  V30 4080 O 381.162 -0.366722 2.69012 0
M  V30 4081 C 379.618 2.21658 2.83541 0
M  V30 4082 C 379.226 3.69679 2.53065 0
M  V30 4083 C 380.97 2.22428 3.61561 0
M  V30 4084 C 378.877 4.56761 3.75664 0
M  V30 4085 H 377.807 0.469707 0.589823 0
M  V30 4086 H 380.458 1.59763 0.902656 0
M  V30 4087 H 378.84 1.81287 3.52067 0
M  V30 4088 H 380.014 4.18605 1.92631 0
M  V30 4089 H 378.329 3.71384 1.88316 0
M  V30 4090 H 380.926 2.8471 4.52597 0
M  V30 4091 H 381.269 1.22434 3.97889 0
M  V30 4092 H 381.802 2.61259 2.99981 0
M  V30 4093 H 378.541 5.57702 3.44454 0
M  V30 4094 H 378.061 4.12568 4.35371 0
M  V30 4095 H 379.74 4.71509 4.43044 0
M  V30 4096 N 379.872 -1.04064 1.18357 0
M  V30 4097 C 381.119 -1.77265 0.978947 0
M  V30 4098 C 381.447 -1.88189 -0.491428 0
M  V30 4099 O 380.702 -1.38653 -1.38108 0
M  V30 4100 C 381.001 -3.20634 1.57888 0
M  V30 4101 C 380.667 -3.29743 3.07539 0
M  V30 4102 C 379.329 -3.31937 3.48384 0
M  V30 4103 C 381.681 -3.29841 4.03552 0
M  V30 4104 C 379.009 -3.3187 4.83818 0
M  V30 4105 C 381.361 -3.31313 5.38901 0
M  V30 4106 C 380.025 -3.31799 5.79194 0
M  V30 4107 H 379.295 -0.648659 0.358222 0
M  V30 4108 H 381.942 -1.22225 1.47422 0
M  V30 4109 H 380.247 -3.78675 1.00561 0
M  V30 4110 H 381.944 -3.75917 1.39598 0
M  V30 4111 H 378.534 -3.28757 2.74986 0
M  V30 4112 H 382.718 -3.27337 3.73047 0
M  V30 4113 H 377.974 -3.30562 5.14333 0
M  V30 4114 H 382.148 -3.30338 6.13066 0
M  V30 4115 H 379.775 -3.315 6.84114 0
M  V30 4116 N 381.35 -0.985608 -1.22978 0
M  V30 4117 C 382.28 -0.549649 -2.26939 0
M  V30 4118 C 383.261 0.419803 -1.64838 0
M  V30 4119 O 384.446 0.31203 -1.91677 0
M  V30 4120 C 381.576 0.143652 -3.47003 0
M  V30 4121 C 380.53 -0.743606 -4.21491 0
M  V30 4122 C 379.856 0.0822027 -5.34637 0
M  V30 4123 C 381.156 -2.03694 -4.80943 0
M  V30 4124 H 382.85 -1.41862 -2.63658 0
M  V30 4125 H 380.396 -0.683571 -1.26741 0
M  V30 4126 H 382.349 0.459985 -4.18882 0
M  V30 4127 H 381.073 1.04711 -3.09359 0
M  V30 4128 H 379.732 -1.04347 -3.51436 0
M  V30 4129 H 379.38 0.986359 -4.93234 0
M  V30 4130 H 379.08 -0.508377 -5.85397 0
M  V30 4131 H 380.604 0.392797 -6.09335 0
M  V30 4132 H 382.018 -1.78504 -5.44802 0
M  V30 4133 H 380.415 -2.57573 -5.42011 0
M  V30 4134 H 381.485 -2.72042 -4.01399 0
M  V30 4135 N 382.828 1.3818 -0.7579 0
M  V30 4136 C 383.758 2.33027 -0.148597 0
M  V30 4137 C 384.739 1.55085 0.69875 0
M  V30 4138 O 385.924 1.83384 0.639053 0
M  V30 4139 C 383.054 3.3928 0.742034 0
M  V30 4140 C 382.008 4.28 -0.00291946 0
M  V30 4141 C 381.334 5.25146 1.00625 0
M  V30 4142 C 382.634 5.08938 -1.17385 0
M  V30 4143 H 384.328 2.84231 -0.940909 0
M  V30 4144 H 381.874 1.36659 -0.453908 0
M  V30 4145 H 383.827 4.046 1.17799 0
M  V30 4146 H 382.551 2.86569 1.56671 0
M  V30 4147 H 381.21 3.64192 -0.419504 0
M  V30 4148 H 380.858 4.68721 1.8251 0
M  V30 4149 H 380.558 5.85361 0.512428 0
M  V30 4150 H 382.082 5.93342 1.44143 0
M  V30 4151 H 383.496 5.67474 -0.815224 0
M  V30 4152 H 381.893 5.7841 -1.59882 0
M  V30 4153 H 382.963 4.42424 -1.98468 0
M  V30 4154 N 384.306 0.507319 1.49211 0
M  V30 4155 C 385.555 -0.0368315 2.01666 0
M  V30 4156 C 385.868 -1.37459 1.39156 0
M  V30 4157 O 387.074 -2.00579 1.82976 0
M  V30 4158 C 385.53 -0.116089 3.59713 0
M  V30 4159 C 385.138 1.2154 4.31198 0
M  V30 4160 C 386.882 -0.610268 4.2009 0
M  V30 4161 C 384.789 1.09796 5.81119 0
M  V30 4162 H 383.719 -0.0175376 0.753796 0
M  V30 4163 H 386.37 0.647691 1.71689 0
M  V30 4164 H 384.752 -0.8652 3.86433 0
M  V30 4165 H 385.926 1.9783 4.16173 0
M  V30 4166 H 384.241 1.64352 3.82593 0
M  V30 4167 H 386.838 -0.715742 5.29888 0
M  V30 4168 H 387.181 -1.61064 3.8388 0
M  V30 4169 H 387.714 0.0824916 3.97714 0
M  V30 4170 H 384.453 2.0728 6.21864 0
M  V30 4171 H 383.973 0.376058 5.9862 0
M  V30 4172 H 385.652 0.779281 6.4229 0
M  V30 4173 N 385.784 -1.5574 0.241426 0
M  V30 4174 C 387.2 -1.59196 -0.113548 0
M  V30 4175 C 387.4 -1.25852 -1.57364 0
M  V30 4176 O 386.456 -1.00322 -2.31715 0
M  V30 4177 C 387.769 -2.99814 0.230695 0
M  V30 4178 C 389.317 -3.12513 0.174547 0
M  V30 4179 C 389.792 -4.55342 0.492744 0
M  V30 4180 N 391.283 -4.61076 0.443043 0
M  V30 4181 C 392.018 -5.6956 0.662484 0
M  V30 4182 N 391.514 -6.86328 0.944761 0
M  V30 4183 N 393.307 -5.58957 0.593564 0
M  V30 4184 H 385.458 -1.75685 1.19368 0
M  V30 4185 H 387.721 -0.81756 0.479896 0
M  V30 4186 H 387.427 -3.28932 1.24485 0
M  V30 4187 H 387.301 -3.74568 -0.444833 0
M  V30 4188 H 389.688 -2.83179 -0.830277 0
M  V30 4189 H 389.769 -2.40045 0.883845 0
M  V30 4190 H 389.413 -4.85396 1.4951 0
M  V30 4191 H 389.343 -5.26062 -0.23797 0
M  V30 4192 H 391.834 -3.77179 0.233374 0
M  V30 4193 H 392.147 -7.64935 1.09977 0
M  V30 4194 H 390.492 -6.88025 0.982175 0
M  V30 4195 H 393.683 -4.66611 0.373123 0
M  V30 4196 H 393.856 -6.43433 0.767981 0
M  V30 4197 N 387.262 0.0317525 -1.57568 0
M  V30 4198 C 388.509 0.723104 -1.89149 0
M  V30 4199 C 388.837 1.75504 -0.838377 0
M  V30 4200 O 388.092 1.95037 0.160982 0
M  V30 4201 C 388.391 1.43167 -3.27472 0
M  V30 4202 C 388.057 0.535972 -4.47703 0
M  V30 4203 C 386.719 0.289262 -4.8033 0
M  V30 4204 C 389.071 -0.0826125 -5.21135 0
M  V30 4205 C 386.399 -0.584853 -5.83778 0
M  V30 4206 C 388.751 -0.944414 -6.25511 0
M  V30 4207 C 387.415 -1.20061 -6.56614 0
M  V30 4208 H 386.685 0.264602 -0.692146 0
M  V30 4209 H 389.332 -0.0169496 -1.91492 0
M  V30 4210 H 387.637 2.24497 -3.21105 0
M  V30 4211 H 389.334 1.97209 -3.49155 0
M  V30 4212 H 385.924 0.738414 -4.22191 0
M  V30 4213 H 390.108 0.0950302 -4.96209 0
M  V30 4214 H 385.364 -0.79168 -6.06253 0
M  V30 4215 H 389.538 -1.43026 -6.81554 0
M  V30 4216 H 387.165 -1.87967 -7.36595 0
M  V30 4217 N 388.74 1.54641 0.303973 0
M  V30 4218 C 389.69 1.8177 1.37636 0
M  V30 4219 C 390.674 0.674697 1.46071 0
M  V30 4220 O 391.866 0.935251 1.50273 0
M  V30 4221 C 388.995 2.06584 2.74186 0
M  V30 4222 C 388.081 3.2706 2.69986 0
M  V30 4223 N 388.472 4.47682 2.35402 0
M  V30 4224 C 386.77 3.29028 3.01092 0
M  V30 4225 C 387.471 5.29689 2.40426 0
M  V30 4226 N 386.447 4.67339 2.7766 0
M  V30 4227 H 390.249 2.72596 1.09857 0
M  V30 4228 H 387.763 1.541 0.51254 0
M  V30 4229 H 389.76 2.24166 3.51504 0
M  V30 4230 H 388.42 1.17024 3.02879 0
M  V30 4231 H 389.431 4.74336 2.07908 0
M  V30 4232 H 386.108 2.49565 3.34699 0
M  V30 4233 H 387.498 6.3606 2.16512 0
M  V30 4234 N 390.218 -0.567019 1.47046 0
M  V30 4235 C 391.629 -1.14916 1.47143 0
M  V30 4236 C 391.98 -1.94954 0.220767 0
M  V30 4237 O 391.105 -2.05602 -0.67505 0
M  V30 4238 C 391.7 -2.09069 2.666 0
M  V30 4239 C 390.259 -2.62575 2.69687 0
M  V30 4240 C 389.406 -1.38755 2.40088 0
M  V30 4241 H 392.357 -0.354126 1.54699 0
M  V30 4242 H 392.378 -2.92789 2.43011 0
M  V30 4243 H 391.89 -1.50789 3.57609 0
M  V30 4244 H 389.991 -3.24681 1.82792 0
M  V30 4245 H 390.104 -3.04239 3.70102 0
M  V30 4246 H 388.468 -1.69098 1.90468 0
M  V30 4247 H 389.251 -0.822822 3.33293 0
M  V30 4248 N 391.696 -1.35014 -0.812953 0
M  V30 4249 C 392.626 -1.30069 -1.93919 0
M  V30 4250 C 393.607 -0.176275 -1.69184 0
M  V30 4251 O 394.792 -0.370227 -1.90638 0
M  V30 4252 C 391.922 -1.06547 -3.30552 0
M  V30 4253 C 390.876 -2.15561 -3.69753 0
M  V30 4254 C 390.202 -1.77214 -5.04479 0
M  V30 4255 C 391.502 -3.57476 -3.808 0
M  V30 4256 H 393.196 -2.24303 -1.98314 0
M  V30 4257 H 390.742 -1.07977 -0.952736 0
M  V30 4258 H 392.695 -1.01729 -4.08937 0
M  V30 4259 H 391.419 -0.0875719 -3.26483 0
M  V30 4260 H 390.078 -2.19466 -2.9365 0
M  V30 4261 H 389.726 -0.780589 -4.96906 0
M  V30 4262 H 389.426 -2.50184 -5.31678 0
M  V30 4263 H 390.95 -1.7391 -5.8531 0
M  V30 4264 H 392.364 -3.55929 -4.4943 0
M  V30 4265 H 390.761 -4.29152 -4.19462 0
M  V30 4266 H 391.831 -3.94091 -2.82525 0
M  V30 4267 N 393.175 1.03435 -1.18907 0
M  V30 4268 C 394.138 2.09756 -0.923844 0
M  V30 4269 C 395.138 1.60528 0.093416 0
M  V30 4270 O 396.328 1.73631 -0.140727 0
M  V30 4271 C 393.46 3.38692 -0.387354 0
M  V30 4272 H 394.653 2.34719 -1.86674 0
M  V30 4273 H 392.206 1.19959 -1.00197 0
M  V30 4274 H 392.941 3.19396 0.561845 0
M  V30 4275 H 392.726 3.75742 -1.12074 0
M  V30 4276 H 394.216 4.17016 -0.220694 0
M  V30 4277 N 394.653 0.992116 1.22453 0
M  V30 4278 C 395.563 0.55065 2.28046 0
M  V30 4279 C 396.579 -0.400189 1.69335 0
M  V30 4280 O 397.755 -0.267215 1.99619 0
M  V30 4281 C 394.82 -0.128496 3.46462 0
M  V30 4282 C 393.881 0.865208 4.20491 0
M  V30 4283 C 393.114 0.218377 5.33253 0
M  V30 4284 O 393.337 -0.987894 5.6178 0
M  V30 4285 O 392.271 0.922845 5.94783 0
M  V30 4286 H 396.097 1.4291 2.67975 0
M  V30 4287 H 393.682 0.760326 1.28606 0
M  V30 4288 H 395.564 -0.508947 4.18315 0
M  V30 4289 H 394.239 -0.981526 3.0846 0
M  V30 4290 H 393.146 1.29658 3.50913 0
M  V30 4291 H 394.479 1.68741 4.62371 0
M  V30 4292 N 396.131 -1.37776 0.765217 0
M  V30 4293 C 397.079 -2.32209 0.134798 0
M  V30 4294 C 398.073 -1.54607 -0.692315 0
M  V30 4295 O 399.279 -1.70052 -0.590109 0
M  V30 4296 H 395.654 -0.751591 0.0248005 0
M  V30 4297 H 397.625 -2.8297 0.947119 0
M  V30 4298 C 396.374 -3.39841 -0.735063 0
M  V30 4299 H 395.697 -3.99654 -0.107991 0
M  V30 4300 H 397.137 -4.08296 -1.14326 0
M  V30 4301 C 395.596 -2.79378 -1.88281 0
M  V30 4302 O 396.126 -2.69608 -2.97783 0
M  V30 4303 N 394.332 -2.37016 -1.68142 0
M  V30 4304 H 393.879 -2.45162 -0.790772 0
M  V30 4305 H 393.837 -1.96905 -2.45104 0
M  V30 4306 N 397.609 -0.515225 -1.4894 0
M  V30 4307 C 398.834 0.022727 -2.07388 0
M  V30 4308 C 399.259 1.2876 -1.37122 0
M  V30 4309 O 398.617 1.76067 -0.432431 0
M  V30 4310 C 398.665 0.244869 -3.59768 0
M  V30 4311 O 397.769 1.31667 -3.90817 0
M  V30 4312 H 397.11 -0.0325506 -0.663202 0
M  V30 4313 H 399.64 -0.718918 -1.91553 0
M  V30 4314 H 399.65 0.47205 -4.0526 0
M  V30 4315 H 398.325 -0.679194 -4.10317 0
M  V30 4316 H 396.902 1.07331 -3.5712 0
M  V30 4317 N 399.087 1.5561 -0.249682 0
M  V30 4318 C 400.498 1.84979 0.252949 0
M  V30 4319 C 400.849 1.17153 1.57384 0
M  V30 4320 O 399.974 0.450884 2.11651 0
M  V30 4321 C 400.569 3.35584 0.465732 0
M  V30 4322 C 399.128 3.65169 0.912624 0
M  V30 4323 C 398.275 2.77299 -0.00859085 0
M  V30 4324 H 401.226 1.51513 -0.47217 0
M  V30 4325 H 401.247 3.57313 1.30795 0
M  V30 4326 H 400.759 3.8492 -0.49579 0
M  V30 4327 H 398.86 3.21312 1.88652 0
M  V30 4328 H 398.973 4.72912 0.767559 0
M  V30 4329 H 397.337 2.49678 0.50327 0
M  V30 4330 H 398.12 3.29442 -0.965537 0
M  V30 4331 N 400.565 -0.0233959 1.57583 0
M  V30 4332 C 401.495 -1.02162 2.09965 0
M  V30 4333 C 402.476 -1.3735 1.00344 0
M  V30 4334 O 403.661 -1.46135 1.27899 0
M  V30 4335 C 400.791 -2.32081 2.58371 0
M  V30 4336 C 399.745 -2.1112 3.72307 0
M  V30 4337 C 399.071 -3.46848 4.06941 0
M  V30 4338 C 400.371 -1.49276 5.00514 0
M  V30 4339 H 402.065 -0.585557 2.93618 0
M  V30 4340 H 399.611 -0.280218 1.41247 0
M  V30 4341 H 401.564 -3.02249 2.93639 0
M  V30 4342 H 400.288 -2.77758 1.71808 0
M  V30 4343 H 398.947 -1.43384 3.37397 0
M  V30 4344 H 398.595 -3.90184 3.17436 0
M  V30 4345 H 398.295 -3.33646 4.83688 0
M  V30 4346 H 399.819 -4.18369 4.44747 0
M  V30 4347 H 401.233 -2.09368 5.33702 0
M  V30 4348 H 399.63 -1.46632 5.8191 0
M  V30 4349 H 400.7 -0.459217 4.82721 0
M  V30 4350 N 402.043 -1.548 -0.295768 0
M  V30 4351 C 403.292 -1.73538 -1.02798 0
M  V30 4352 C 403.605 -0.531159 -1.8825 0
M  V30 4353 O 404.811 -0.600458 -2.64777 0
M  V30 4354 C 403.267 -3.07051 -1.87744 0
M  V30 4355 C 402.875 -4.34968 -1.07269 0
M  V30 4356 C 404.619 -3.35146 -2.60533 0
M  V30 4357 C 402.526 -5.5953 -1.91521 0
M  V30 4358 H 401.456 -0.646794 -0.387522 0
M  V30 4359 H 404.107 -1.81278 -0.284718 0
M  V30 4360 H 402.489 -2.93289 -2.66078 0
M  V30 4361 H 403.663 -4.5958 -0.335117 0
M  V30 4362 H 401.978 -4.13847 -0.460384 0
M  V30 4363 H 404.575 -4.2541 -3.23929 0
M  V30 4364 H 404.918 -2.54255 -3.29636 0
M  V30 4365 H 405.451 -3.49902 -1.89244 0
M  V30 4366 H 402.19 -6.43103 -1.26878 0
M  V30 4367 H 401.71 -5.39096 -2.62937 0
M  V30 4368 H 403.389 -5.96982 -2.49442 0
M  V30 4369 N 403.521 0.559213 -1.47345 0
M  V30 4370 C 404.453 1.68161 -1.55738 0
M  V30 4371 C 405.466 1.56636 -0.443744 0
M  V30 4372 O 406.655 1.6363 -0.713258 0
M  V30 4373 C 403.755 3.06611 -1.4437 0
M  V30 4374 C 402.928 3.4391 -2.70268 0
M  V30 4375 C 401.987 4.61515 -2.52765 0
M  V30 4376 O 401.013 4.66197 -3.26572 0
M  V30 4377 N 402.215 5.57883 -1.6046 0
M  V30 4378 H 404.98 1.61408 -2.52522 0
M  V30 4379 H 402.541 0.7458 -1.43699 0
M  V30 4380 H 404.533 3.83117 -1.30398 0
M  V30 4381 H 403.103 3.07602 -0.556766 0
M  V30 4382 H 402.323 2.56873 -2.99015 0
M  V30 4383 H 403.611 3.65605 -3.53851 0
M  V30 4384 H 403.009 5.56855 -0.996422 0
M  V30 4385 H 401.566 6.33723 -1.52441 0
M  V30 4386 N 404.999 1.35443 0.805782 0
M  V30 4387 C 406.227 1.31878 1.59423 0
M  V30 4388 C 406.642 -0.103562 1.88516 0
M  V30 4389 O 405.999 -1.05575 1.48863 0
M  V30 4390 C 406.05 2.12426 2.92502 0
M  V30 4391 O 405.771 3.49115 2.6467 0
M  V30 4392 C 407.272 2.16455 3.86862 0
M  V30 4393 H 404.492 0.453002 0.495005 0
M  V30 4394 H 407.036 1.78309 1.00131 0
M  V30 4395 H 405.191 1.69593 3.48306 0
M  V30 4396 H 405.605 3.90957 3.49647 0
M  V30 4397 H 407.079 2.77204 4.77349 0
M  V30 4398 H 407.556 1.16352 4.23508 0
M  V30 4399 H 408.162 2.59453 3.36993 0
M  V30 4400 N 406.477 -1.02803 1.19454 0
M  V30 4401 C 407.407 -2.12999 0.956758 0
M  V30 4402 C 408.388 -1.69743 -0.110188 0
M  V30 4403 O 409.573 -1.94148 0.0450038 0
M  V30 4404 C 406.703 -3.43746 0.495553 0
M  V30 4405 C 405.657 -4.00688 1.50443 0
M  V30 4406 C 404.983 -5.27067 0.900275 0
M  V30 4407 C 406.283 -4.35397 2.8849 0
M  V30 4408 H 407.977 -2.33148 1.87836 0
M  V30 4409 H 405.523 -1.12045 0.904539 0
M  V30 4410 H 407.476 -4.2021 0.316493 0
M  V30 4411 H 406.2 -3.23321 -0.461646 0
M  V30 4412 H 404.859 -3.2632 1.67065 0
M  V30 4413 H 404.507 -5.02959 -0.064503 0
M  V30 4414 H 404.207 -5.66127 1.57397 0
M  V30 4415 H 405.731 -6.06196 0.73203 0
M  V30 4416 H 407.145 -5.02795 2.75446 0
M  V30 4417 H 405.542 -4.85541 3.52661 0
M  V30 4418 H 406.612 -3.44662 3.41081 0
M  V30 4419 N 407.956 -0.998596 -1.21925 0
M  V30 4420 C 409.184 -0.696286 -1.94832 0
M  V30 4421 C 409.599 0.740032 -1.73692 0
M  V30 4422 O 408.956 1.5 -1.03953 0
M  V30 4423 C 409.007 -0.999833 -3.47398 0
M  V30 4424 O 408.728 -2.37972 -3.67833 0
M  V30 4425 C 410.229 -0.716025 -4.37479 0
M  V30 4426 H 407.449 -0.257111 -0.619786 0
M  V30 4427 H 409.993 -1.33491 -1.54921 0
M  V30 4428 H 408.148 -0.406918 -3.85257 0
M  V30 4429 H 408.562 -2.48338 -4.61983 0
M  V30 4430 H 410.036 -0.978642 -5.43256 0
M  V30 4431 H 410.513 0.349968 -4.37803 0
M  V30 4432 H 411.119 -1.29025 -4.05256 0
M  V30 4433 N 409.434 1.37368 -0.772513 0
M  V30 4434 C 410.364 2.32856 -0.173304 0
M  V30 4435 C 411.345 1.55818 0.682262 0
M  V30 4436 O 412.53 1.84052 0.619566 0
M  V30 4437 C 409.66 3.40048 0.706007 0
M  V30 4438 C 408.614 4.27973 -0.0483144 0
M  V30 4439 C 407.94 5.26184 0.950491 0
M  V30 4440 C 409.24 5.07665 -1.22776 0
M  V30 4441 H 410.934 2.83217 -0.971002 0
M  V30 4442 H 408.48 1.3617 -0.468377 0
M  V30 4443 H 410.433 4.05827 1.13501 0
M  V30 4444 H 409.157 2.88214 1.53623 0
M  V30 4445 H 407.816 3.63726 -0.458107 0
M  V30 4446 H 407.464 4.7063 1.77529 0
M  V30 4447 H 407.164 5.85872 0.450314 0
M  V30 4448 H 408.688 5.94838 1.37842 0
M  V30 4449 H 410.102 5.66578 -0.875366 0
M  V30 4450 H 408.499 5.76681 -1.66007 0
M  V30 4451 H 409.569 4.40294 -2.03149 0
M  V30 4452 N 410.912 0.523116 1.48665 0
M  V30 4453 C 412.152 -0.0115588 2.04397 0
M  V30 4454 C 412.516 -1.32225 1.39214 0
M  V30 4455 O 413.717 -1.94253 1.85793 0
M  V30 4456 C 411.988 -0.138119 3.57133 0
M  V30 4457 S 413.547 -0.623849 4.34343 0
M  V30 4458 H 410.365 0.00877706 0.710946 0
M  V30 4459 H 412.967 0.702116 1.82457 0
M  V30 4460 H 411.671 0.820748 4.02109 0
M  V30 4461 H 411.202 -0.876377 3.83514 0
M  V30 4462 H 413.217 -1.8895 4.58816 0
M  V30 4463 N 412.39 -1.55475 0.257931 0
M  V30 4464 C 413.32 -2.24815 -0.630912 0
M  V30 4465 C 414.301 -1.23224 -1.17259 0
M  V30 4466 O 415.486 -1.51904 -1.20991 0
M  V30 4467 C 412.616 -2.95609 -1.82298 0
M  V30 4468 C 411.57 -4.03982 -1.41359 0
M  V30 4469 C 410.896 -4.6226 -2.68738 0
M  V30 4470 C 412.196 -5.19109 -0.57648 0
M  V30 4471 H 413.89 -2.99354 -0.0526878 0
M  V30 4472 H 411.436 -1.4398 -0.023901 0
M  V30 4473 H 413.389 -3.42822 -2.45054 0
M  V30 4474 H 412.113 -2.18577 -2.42676 0
M  V30 4475 H 410.772 -3.57555 -0.809324 0
M  V30 4476 H 410.42 -3.81915 -3.27338 0
M  V30 4477 H 410.12 -5.35424 -2.42065 0
M  V30 4478 H 411.644 -5.12212 -3.32372 0
M  V30 4479 H 413.058 -5.62479 -1.10861 0
M  V30 4480 H 411.455 -5.98729 -0.405351 0
M  V30 4481 H 412.525 -4.83174 0.408776 0
M  V30 4482 N 413.868 0.0150385 -1.57593 0
M  V30 4483 C 415.116 0.701613 -1.8953 0
M  V30 4484 C 415.437 1.75139 -0.857396 0
M  V30 4485 O 414.707 1.95607 0.107194 0
M  V30 4486 H 413.287 0.26213 -0.699498 0
M  V30 4487 H 415.949 -0.0223304 -1.94887 0
M  V30 4488 H 415.045 1.18236 -2.88837 0
M  V30 4489 N 415.346 1.54954 0.287554 0
M  V30 4490 C 416.309 1.86076 1.33823 0
M  V30 4491 C 417.309 0.734414 1.43049 0
M  V30 4492 O 418.499 1.00266 1.42452 0
M  V30 4493 C 415.631 2.05305 2.72144 0
M  V30 4494 H 416.824 2.79984 1.07465 0
M  V30 4495 H 414.377 1.47223 0.524902 0
M  V30 4496 H 415.112 1.1373 3.03704 0
M  V30 4497 H 414.897 2.873 2.66836 0
M  V30 4498 H 416.387 2.30706 3.48087 0
M  V30 4499 N 416.824 -0.551391 1.4764 0
M  V30 4500 C 418.073 -1.30467 1.53822 0
M  V30 4501 C 418.386 -1.94495 0.207661 0
M  V30 4502 O 419.592 -2.71099 0.147533 0
M  V30 4503 C 418.048 -2.36616 2.71184 0
M  V30 4504 C 417.656 -1.78754 4.10793 0
M  V30 4505 C 419.4 -3.13088 2.86663 0
M  V30 4506 C 417.307 -2.82717 5.19447 0
M  V30 4507 H 416.237 -0.490584 0.572576 0
M  V30 4508 H 418.888 -0.58494 1.73927 0
M  V30 4509 H 417.27 -3.11529 2.4447 0
M  V30 4510 H 418.444 -1.10173 4.47435 0
M  V30 4511 H 416.759 -1.14846 4.00249 0
M  V30 4512 H 419.356 -3.90736 3.65007 0
M  V30 4513 H 419.699 -3.67635 1.95321 0
M  V30 4514 H 420.232 -2.45288 3.13175 0
M  V30 4515 H 416.971 -2.33018 6.12685 0
M  V30 4516 H 416.491 -3.4969 4.87316 0
M  V30 4517 H 418.17 -3.46102 5.46646 0
M  V30 4518 N 418.302 -1.35869 -0.798587 0
M  V30 4519 C 419.53 -1.32722 -1.58722 0
M  V30 4520 C 419.945 0.0935631 -1.88568 0
M  V30 4521 O 419.302 1.04784 -1.49421 0
M  V30 4522 C 419.353 -2.13974 -2.91371 0
M  V30 4523 O 419.074 -3.50514 -2.62815 0
M  V30 4524 C 420.575 -2.18504 -3.85708 0
M  V30 4525 H 417.795 -0.45562 -0.492596 0
M  V30 4526 H 420.339 -1.78837 -0.991843 0
M  V30 4527 H 418.494 -1.71438 -3.47402 0
M  V30 4528 H 418.908 -3.92806 -3.47568 0
M  V30 4529 H 420.382 -2.79732 -4.75872 0
M  V30 4530 H 420.859 -1.18597 -4.22885 0
M  V30 4531 H 421.465 -2.61236 -3.35612 0
M  V30 4532 N 419.78 1.02168 -1.19998 0
M  V30 4533 C 421.008 1.79296 -1.03249 0
M  V30 4534 C 421.423 1.84103 0.418502 0
M  V30 4535 O 420.78 1.29031 1.29063 0
M  V30 4536 C 420.831 3.24007 -1.60319 0
M  V30 4537 O 420.552 3.19512 -2.99739 0
M  V30 4538 C 422.053 4.17704 -1.48453 0
M  V30 4539 H 419.273 0.564016 -0.363493 0
M  V30 4540 H 421.817 1.28639 -1.58973 0
M  V30 4541 H 419.972 3.7183 -1.08727 0
M  V30 4542 H 420.386 4.10306 -3.26725 0
M  V30 4543 H 421.86 5.17104 -1.93153 0
M  V30 4544 H 422.337 4.37029 -0.436193 0
M  V30 4545 H 422.943 3.7576 -1.99211 0
M  V30 4546 N 421.258 1.00505 1.21394 0
M  V30 4547 C 422.188 0.585684 2.26035 0
M  V30 4548 C 423.169 -0.393525 1.65485 0
M  V30 4549 O 424.354 -0.281497 1.92149 0
M  V30 4550 C 421.484 -0.0884283 3.47187 0
M  V30 4551 C 420.438 0.810567 4.20254 0
M  V30 4552 C 419.764 0.00286382 5.347 0
M  V30 4553 C 421.064 2.1132 4.77641 0
M  V30 4554 H 422.758 1.46039 2.61368 0
M  V30 4555 H 420.304 0.703648 1.25638 0
M  V30 4556 H 422.257 -0.393286 4.19561 0
M  V30 4557 H 420.981 -0.997766 3.10986 0
M  V30 4558 H 419.64 1.09925 3.49731 0
M  V30 4559 H 419.288 -0.907765 4.94741 0
M  V30 4560 H 418.988 0.601444 5.84514 0
M  V30 4561 H 420.512 -0.295808 6.09883 0
M  V30 4562 H 421.926 1.87148 5.41893 0
M  V30 4563 H 420.323 2.66164 5.37845 0
M  V30 4564 H 421.393 2.78393 3.9702 0
M  V30 4565 N 422.737 -1.36956 0.779787 0
M  V30 4566 C 423.984 -1.99491 0.347766 0
M  V30 4567 C 424.312 -1.61898 -1.07793 0
M  V30 4568 O 423.567 -0.86071 -1.75756 0
M  V30 4569 C 423.866 -3.54585 0.447686 0
M  V30 4570 C 423.532 -4.1197 1.83279 0
M  V30 4571 C 422.194 -4.27356 2.2118 0
M  V30 4572 C 424.546 -4.43354 2.74019 0
M  V30 4573 C 421.874 -4.71432 3.4924 0
M  V30 4574 C 424.226 -4.88858 4.01497 0
M  V30 4575 C 422.89 -5.0245 4.39432 0
M  V30 4576 H 422.16 -0.729991 0.127257 0
M  V30 4577 H 424.807 -1.63599 0.995376 0
M  V30 4578 H 423.112 -3.90773 -0.283447 0
M  V30 4579 H 424.809 -4.00888 0.0945948 0
M  V30 4580 H 421.399 -4.00428 1.52825 0
M  V30 4581 H 425.583 -4.31045 2.45995 0
M  V30 4582 H 420.839 -4.80141 3.78516 0
M  V30 4583 H 425.013 -5.12108 4.71931 0
M  V30 4584 H 422.64 -5.36362 5.38721 0
M  V30 4585 N 424.215 -0.530993 -1.48385 0
M  V30 4586 C 425.178 0.220497 -2.28137 0
M  V30 4587 C 426.178 0.866851 -1.35434 0
M  V30 4588 O 427.368 0.726746 -1.58316 0
M  V30 4589 C 424.5 1.31921 -3.1434 0
M  V30 4590 H 425.693 -0.479714 -2.96038 0
M  V30 4591 H 423.246 -0.286968 -1.53643 0
M  V30 4592 H 423.981 2.05264 -2.51072 0
M  V30 4593 H 423.766 0.86085 -3.82533 0
M  V30 4594 H 425.256 1.84776 -3.74497 0
M  V30 4595 N 425.693 1.55336 -0.266172 0
M  V30 4596 C 426.656 2.20878 0.612001 0
M  V30 4597 C 427.656 1.18388 1.08816 0
M  V30 4598 O 428.846 1.4335 0.989774 0
M  V30 4599 C 425.978 2.86765 1.84332 0
M  V30 4600 H 427.171 2.99873 0.0398718 0
M  V30 4601 H 424.724 1.56291 -0.0167309 0
M  V30 4602 H 425.459 2.11759 2.45619 0
M  V30 4603 H 425.244 3.61862 1.5099 0
M  V30 4604 H 426.734 3.36867 2.46801 0
M  V30 4605 N 427.171 -0.0066808 1.57599 0
M  V30 4606 C 428.417 -0.693947 1.90558 0
M  V30 4607 C 428.75 -1.73792 0.866594 0
M  V30 4608 O 428.025 -1.94156 -0.115548 0
M  V30 4609 C 428.308 -1.34317 3.34112 0
M  V30 4610 C 428.161 -0.311189 4.48722 0
M  V30 4611 C 429.48 -2.27116 3.7697 0
M  V30 4612 H 426.599 -0.250803 0.693013 0
M  V30 4613 H 429.241 0.043242 1.89951 0
M  V30 4614 H 427.391 -1.9715 3.3476 0
M  V30 4615 H 429.063 0.316944 4.6021 0
M  V30 4616 H 427.306 0.367253 4.32243 0
M  V30 4617 H 427.977 -0.804366 5.46108 0
M  V30 4618 H 430.453 -1.74306 3.77831 0
M  V30 4619 H 429.329 -2.69511 4.78179 0
M  V30 4620 H 429.59 -3.14743 3.10466 0
M  V30 4621 N 428.649 -1.55105 -0.279332 0
M  V30 4622 C 429.889 -1.7716 -1.01949 0
M  V30 4623 C 430.253 -0.557511 -1.83728 0
M  V30 4624 O 431.454 -0.656198 -2.60667 0
M  V30 4625 C 429.725 -3.0372 -1.88385 0
M  V30 4626 S 431.284 -3.46868 -2.68752 0
M  V30 4627 H 428.102 -0.62253 -0.343478 0
M  V30 4628 H 430.704 -1.93329 -0.290572 0
M  V30 4629 H 429.408 -3.90184 -1.2722 0
M  V30 4630 H 428.939 -2.902 -2.65608 0
M  V30 4631 H 430.954 -3.05643 -3.90892 0
M  V30 4632 N 430.127 0.543554 -1.4793 0
M  V30 4633 C 431.09 1.63156 -1.60975 0
M  V30 4634 C 432.09 1.53346 -0.483899 0
M  V30 4635 O 433.28 1.5726 -0.749339 0
M  V30 4636 C 430.412 3.02743 -1.56716 0
M  V30 4637 H 431.605 1.52934 -2.57975 0
M  V30 4638 H 429.158 0.764557 -1.36324 0
M  V30 4639 H 429.893 3.18484 -0.611418 0
M  V30 4640 H 429.678 3.11272 -2.38438 0
M  V30 4641 H 431.168 3.81871 -1.6901 0
M  V30 4642 N 431.605 1.3629 0.791371 0
M  V30 4643 C 432.535 1.33137 1.91825 0
M  V30 4644 C 433.516 0.203168 1.68882 0
M  V30 4645 O 434.701 0.400509 1.90025 0
M  V30 4646 C 431.831 1.11793 3.28816 0
M  V30 4647 C 430.785 2.21417 3.66277 0
M  V30 4648 C 430.111 1.85218 5.01596 0
M  V30 4649 C 431.411 3.63489 3.75064 0
M  V30 4650 H 433.105 2.2743 1.9472 0
M  V30 4651 H 430.651 1.09479 0.935437 0
M  V30 4652 H 432.604 1.08222 4.07266 0
M  V30 4653 H 431.328 0.139501 3.26302 0
M  V30 4654 H 429.987 2.2411 2.90121 0
M  V30 4655 H 429.635 0.859544 4.95602 0
M  V30 4656 H 429.335 2.58611 5.27631 0
M  V30 4657 H 430.859 1.832 5.82469 0
M  V30 4658 H 432.273 3.63034 4.43711 0
M  V30 4659 H 430.67 4.35771 4.12582 0
M  V30 4660 H 431.74 3.98536 2.76219 0
M  V30 4661 N 433.083 -1.0153 1.20538 0
M  V30 4662 C 434.311 -1.78746 1.04199 0
M  V30 4663 C 434.726 -1.84323 -0.408733 0
M  V30 4664 O 434.083 -1.29714 -1.28377 0
M  V30 4665 C 434.134 -3.23152 1.62035 0
M  V30 4666 O 433.855 -3.17918 3.0143 0
M  V30 4667 C 435.356 -4.16911 1.50666 0
M  V30 4668 H 432.576 -0.56208 0.366479 0
M  V30 4669 H 435.12 -1.27794 1.59653 0
M  V30 4670 H 433.275 -3.71248 1.10697 0
M  V30 4671 H 433.689 -4.08567 3.28897 0
M  V30 4672 H 435.163 -5.16072 1.95892 0
M  V30 4673 H 435.64 -4.36791 0.459363 0
M  V30 4674 H 436.246 -3.74698 2.01201 0
M  V30 4675 N 434.561 -1.01147 -1.20859 0
M  V30 4676 C 435.493 -0.535546 -2.22855 0
M  V30 4677 C 436.506 0.379323 -1.58319 0
M  V30 4678 O 437.695 0.178489 -1.77605 0
M  V30 4679 C 434.795 0.240962 -3.38042 0
M  V30 4680 C 433.968 -0.674562 -4.32167 0
M  V30 4681 C 433.027 0.053467 -5.26173 0
M  V30 4682 O 432.053 -0.567339 -5.66366 0
M  V30 4683 N 433.255 1.32997 -5.65059 0
M  V30 4684 H 436.02 -1.41268 -2.64317 0
M  V30 4685 H 433.581 -0.888386 -1.35349 0
M  V30 4686 H 435.573 0.737115 -3.97931 0
M  V30 4687 H 434.143 1.01935 -2.95513 0
M  V30 4688 H 433.363 -1.35111 -3.70322 0
M  V30 4689 H 434.651 -1.2974 -4.91981 0
M  V30 4690 H 434.049 1.85536 -5.34409 0
M  V30 4691 H 432.606 1.77095 -6.2728 0
M  V30 4692 N 436.039 1.36541 -0.78704 0
M  V30 4693 C 436.987 2.31965 -0.171724 0
M  V30 4694 C 437.981 1.55689 0.667631 0
M  V30 4695 O 439.187 1.70969 0.562981 0
M  V30 4696 H 435.562 0.751101 -0.0367545 0
M  V30 4697 H 437.533 2.81428 -0.992017 0
M  V30 4698 C 436.282 3.40968 0.680904 0
M  V30 4699 H 435.605 3.99775 0.0443961 0
M  V30 4700 H 437.045 4.10063 1.07815 0
M  V30 4701 C 435.504 2.82338 1.83813 0
M  V30 4702 O 436.034 2.74311 2.93456 0
M  V30 4703 N 434.24 2.39661 1.6435 0
M  V30 4704 H 433.787 2.46389 0.751668 0
M  V30 4705 H 433.745 2.00779 2.4194 0
M  V30 4706 N 437.518 0.538854 1.48102 0
M  V30 4707 C 438.795 -0.0568108 1.95517 0
M  V30 4708 C 439.175 -1.50408 1.48124 0
M  V30 4709 O 438.523 -2.17133 0.711727 0
M  V30 4710 C 438.733 0.0696262 3.48931 0
M  V30 4711 C 440.081 -0.0851202 4.24515 0
M  V30 4712 O 441.105 -0.0037347 3.562 0
M  V30 4713 O 439.964 -0.257025 5.45895 0
M  V30 4714 H 437.058 -0.0743695 0.823649 0
M  V30 4715 H 439.604 0.604081 1.58584 0
M  V30 4716 H 438.376 1.07744 3.76174 0
M  V30 4717 H 437.999 -0.629714 3.92582 0
M  V30 4718 N 438.996 -1.55193 0.274407 0
M  V30 4719 C 440.245 -1.98758 -0.343213 0
M  V30 4720 C 440.558 -1.16624 -1.5703 0
M  V30 4721 O 441.764 -1.5033 -2.26082 0
M  V30 4722 C 440.22 -3.53759 -0.661996 0
M  V30 4723 C 439.828 -4.4467 0.54524 0
M  V30 4724 C 441.572 -4.05916 -1.24228 0
M  V30 4725 C 439.479 -5.91058 0.201084 0
M  V30 4726 H 438.409 -0.742353 -0.132014 0
M  V30 4727 H 441.06 -1.79545 0.378948 0
M  V30 4728 H 439.442 -3.68772 -1.44304 0
M  V30 4729 H 440.616 -4.41426 1.32212 0
M  V30 4730 H 438.931 -4.03143 1.04232 0
M  V30 4731 H 441.528 -5.12831 -1.51357 0
M  V30 4732 H 441.871 -3.54908 -2.17592 0
M  V30 4733 H 442.404 -3.9434 -0.523542 0
M  V30 4734 H 439.143 -6.46161 1.10258 0
M  V30 4735 H 438.663 -5.97373 -0.539045 0
M  V30 4736 H 440.342 -6.46669 -0.206954 0
M  V30 4737 N 440.474 -0.00167713 -1.576 0
M  V30 4738 C 441.421 0.989195 -2.08527 0
M  V30 4739 C 442.391 1.34031 -0.981065 0
M  V30 4740 O 443.576 1.43839 -1.2536 0
M  V30 4741 C 440.716 2.27537 -2.59463 0
M  V30 4742 C 439.829 1.98314 -3.83791 0
M  V30 4743 C 438.964 3.21025 -4.23222 0
M  V30 4744 C 438.003 2.87495 -5.40382 0
M  V30 4745 N 437.14 4.02749 -5.75098 0
M  V30 4746 H 441.98 0.547973 -2.92919 0
M  V30 4747 H 439.517 0.258917 -1.44803 0
M  V30 4748 H 441.475 3.02729 -2.87073 0
M  V30 4749 H 440.105 2.69325 -1.77943 0
M  V30 4750 H 439.157 1.13482 -3.63078 0
M  V30 4751 H 440.469 1.69601 -4.69081 0
M  V30 4752 H 439.623 4.04561 -4.52123 0
M  V30 4753 H 438.362 3.52877 -3.36644 0
M  V30 4754 H 437.367 2.02367 -5.11202 0
M  V30 4755 H 438.592 2.56889 -6.28637 0
M  V30 4756 H 436.538 4.34494 -4.91478 0
M  V30 4757 H 436.455 3.77566 -6.54966 0
M  V30 4758 H 437.723 4.87068 -6.08592 0
M  V30 4759 N 441.952 1.55251 0.271103 0
M  V30 4760 C 442.899 1.88261 1.33516 0
M  V30 4761 C 443.869 0.734296 1.48988 0
M  V30 4762 O 445.054 0.985741 1.63364 0
M  V30 4763 C 442.194 2.16168 2.69008 0
M  V30 4764 C 441.307 3.43678 2.61743 0
M  V30 4765 C 440.442 3.61276 3.89427 0
M  V30 4766 C 439.481 4.82472 3.7668 0
M  V30 4767 N 438.618 4.96717 4.96202 0
M  V30 4768 H 443.458 2.79015 1.04665 0
M  V30 4769 H 440.995 1.38137 0.505618 0
M  V30 4770 H 442.953 2.30349 3.47844 0
M  V30 4771 H 441.583 1.28646 2.96057 0
M  V30 4772 H 440.635 3.37959 1.74607 0
M  V30 4773 H 441.947 4.3265 2.48224 0
M  V30 4774 H 441.101 3.75284 4.76704 0
M  V30 4775 H 439.84 2.70492 4.05814 0
M  V30 4776 H 438.845 4.68465 2.87786 0
M  V30 4777 H 440.07 5.74692 3.61809 0
M  V30 4778 H 438.016 4.08865 5.12997 0
M  V30 4779 H 437.933 5.79738 4.85222 0
M  V30 4780 H 439.201 5.15113 5.85046 0
M  V30 4781 N 443.43 -0.535701 1.48216 0
M  V30 4782 C 444.679 -1.28828 1.55197 0
M  V30 4783 C 444.992 -1.94263 0.228278 0
M  V30 4784 O 446.198 -2.70927 0.176278 0
M  V30 4785 C 444.654 -2.33727 2.73678 0
M  V30 4786 C 444.262 -1.74386 4.12666 0
M  V30 4787 C 446.006 -3.1003 2.89968 0
M  V30 4788 C 443.913 -2.77192 5.22416 0
M  V30 4789 H 442.843 -0.484484 0.577747 0
M  V30 4790 H 445.494 -0.56646 1.74538 0
M  V30 4791 H 443.876 -3.08919 2.4776 0
M  V30 4792 H 445.05 -1.05421 4.48579 0
M  V30 4793 H 443.365 -1.10595 4.01445 0
M  V30 4794 H 445.962 -3.86842 3.6913 0
M  V30 4795 H 446.305 -3.65542 1.9921 0
M  V30 4796 H 446.838 -2.41952 3.15759 0
M  V30 4797 H 443.577 -2.26507 6.15122 0
M  V30 4798 H 443.097 -3.44502 4.90998 0
M  V30 4799 H 444.776 -3.40285 5.50286 0
M  V30 4800 N 444.908 -1.36708 -0.784132 0
M  V30 4801 C 446.154 -1.31426 -1.54451 0
M  V30 4802 C 446.487 0.10476 -1.93917 0
M  V30 4803 O 445.762 1.05934 -1.6312 0
M  V30 4804 C 446.045 -2.24189 -2.818 0
M  V30 4805 C 445.898 -3.74813 -2.48667 0
M  V30 4806 C 447.217 -2.15626 -3.83658 0
M  V30 4807 H 444.336 -0.478739 -0.560337 0
M  V30 4808 H 446.978 -1.67305 -0.900498 0
M  V30 4809 H 445.128 -1.93722 -3.36755 0
M  V30 4810 H 446.8 -4.15823 -1.99722 0
M  V30 4811 H 445.043 -3.93989 -1.81535 0
M  V30 4812 H 445.714 -4.35138 -3.39646 0
M  V30 4813 H 448.19 -2.42456 -3.38163 0
M  V30 4814 H 447.066 -2.82694 -4.70506 0
M  V30 4815 H 447.327 -1.14522 -4.27009 0
M  V30 4816 N 446.386 1.0089 -1.21074 0
M  V30 4817 C 447.349 2.0775 -0.968129 0
M  V30 4818 C 448.349 1.6069 0.0593445 0
M  V30 4819 O 449.539 1.73293 -0.177525 0
M  V30 4820 C 446.671 3.37794 -0.459108 0
M  V30 4821 H 447.864 2.30707 -1.9161 0
M  V30 4822 H 445.417 1.17807 -1.02719 0
M  V30 4823 H 446.152 3.20516 0.49397 0
M  V30 4824 H 445.937 3.7328 -1.20019 0
M  V30 4825 H 447.427 4.16454 -0.309099 0
M  V30 4826 N 447.864 1.01787 1.20321 0
M  V30 4827 C 449.111 0.707936 1.89722 0
M  V30 4828 C 449.439 -0.762535 1.78929 0
M  V30 4829 O 448.694 -1.56977 1.16861 0
M  V30 4830 C 448.993 1.09076 3.40349 0
M  V30 4831 C 448.659 2.55765 3.71342 0
M  V30 4832 C 447.321 2.95845 3.79511 0
M  V30 4833 C 449.673 3.50723 3.85542 0
M  V30 4834 C 447.001 4.2982 3.99339 0
M  V30 4835 C 449.353 4.84387 4.06881 0
M  V30 4836 C 448.017 5.24172 4.1328 0
M  V30 4837 H 447.287 0.259052 0.694243 0
M  V30 4838 H 449.934 1.27868 1.42555 0
M  V30 4839 H 448.239 0.438453 3.89339 0
M  V30 4840 H 449.936 0.828636 3.92345 0
M  V30 4841 H 446.526 2.2371 3.65584 0
M  V30 4842 H 450.71 3.20916 3.78585 0
M  V30 4843 H 445.966 4.60196 4.02529 0
M  V30 4844 H 450.14 5.57891 4.1681 0
M  V30 4845 H 447.767 6.27997 4.28396 0
M  V30 4846 N 449.342 -1.36122 0.79427 0
M  V30 4847 C 450.567 -2.03891 0.379871 0
M  V30 4848 C 450.992 -1.59488 -0.997251 0
M  V30 4849 O 450.35 -0.765652 -1.64339 0
M  V30 4850 C 450.398 -3.57687 0.457442 0
M  V30 4851 O 449.502 -4.08931 -0.5338 0
M  V30 4852 H 448.843 -0.6443 0.160541 0
M  V30 4853 H 451.373 -1.73976 1.07673 0
M  V30 4854 H 451.383 -4.06721 0.322792 0
M  V30 4855 H 450.058 -3.89357 1.46199 0
M  V30 4856 H 448.635 -3.71154 -0.360409 0
M  V30 4857 N 450.82 -0.546701 -1.47814 0
M  V30 4858 C 452.048 -0.0232857 -2.06887 0
M  V30 4859 C 452.463 1.26571 -1.4009 0
M  V30 4860 O 451.82 1.7569 -0.493906 0
M  V30 4861 C 451.871 0.186975 -3.61016 0
M  V30 4862 O 451.592 -1.05097 -4.25307 0
M  V30 4863 C 453.093 0.748872 -4.36929 0
M  V30 4864 H 450.313 -0.0410763 -0.669742 0
M  V30 4865 H 452.857 -0.757117 -1.89968 0
M  V30 4866 H 451.012 0.870903 -3.77484 0
M  V30 4867 H 451.426 -0.842121 -5.17695 0
M  V30 4868 H 452.9 0.845334 -5.45489 0
M  V30 4869 H 453.377 1.75772 -4.02493 0
M  V30 4870 H 453.983 0.100979 -4.2518 0
M  V30 4871 N 452.299 1.55045 -0.282633 0
M  V30 4872 C 453.524 2.04628 0.337977 0
M  V30 4873 C 453.949 1.15937 1.48123 0
M  V30 4874 O 453.307 0.159532 1.80597 0
M  V30 4875 C 453.355 3.51854 0.78936 0
M  V30 4876 O 452.459 3.66236 1.89592 0
M  V30 4877 H 451.8 0.660434 0.0687261 0
M  V30 4878 H 454.33 2.00261 -0.419124 0
M  V30 4879 H 454.34 3.93361 1.08311 0
M  V30 4880 H 453.015 4.15873 -0.0470419 0
M  V30 4881 H 451.592 3.36633 1.60413 0
M  V30 4882 N 453.777 0.010035 1.57597 0
M  V30 4883 C 455.002 -0.687021 1.95691 0
M  V30 4884 C 455.427 -1.65952 0.885519 0
M  V30 4885 O 454.785 -1.80633 -0.15543 0
M  V30 4886 C 454.833 -1.3864 3.32884 0
M  V30 4887 O 453.937 -2.50115 3.27897 0
M  V30 4888 H 453.278 -0.181989 0.638573 0
M  V30 4889 H 455.808 0.0662122 2.04493 0
M  V30 4890 H 455.818 -1.74754 3.6868 0
M  V30 4891 H 454.493 -0.673411 4.10412 0
M  V30 4892 H 453.07 -2.16253 3.03791 0
M  V30 4893 N 455.255 -1.55392 -0.262866 0
M  V30 4894 C 456.187 -1.85392 -1.34768 0
M  V30 4895 C 457.2 -0.739069 -1.45057 0
M  V30 4896 O 458.389 -1.01703 -1.46693 0
M  V30 4897 C 455.489 -2.01088 -2.72795 0
M  V30 4898 C 454.662 -3.31828 -2.84972 0
M  V30 4899 C 453.721 -3.37464 -4.03738 0
M  V30 4900 O 452.747 -4.10778 -3.94018 0
M  V30 4901 N 453.949 -2.65599 -5.16176 0
M  V30 4902 H 456.714 -2.79029 -1.09375 0
M  V30 4903 H 454.275 -1.55434 -0.452981 0
M  V30 4904 H 456.267 -2.02217 -3.50557 0
M  V30 4905 H 454.837 -1.1427 -2.90966 0
M  V30 4906 H 454.057 -3.43152 -1.94012 0
M  V30 4907 H 455.345 -4.18032 -2.90045 0
M  V30 4908 H 454.743 -2.05736 -5.26962 0
M  V30 4909 H 453.3 -2.72439 -5.92132 0
M  V30 4910 N 456.733 0.527833 -1.48498 0
M  V30 4911 C 457.663 1.64136 -1.66077 0
M  V30 4912 C 458.644 1.62286 -0.509625 0
M  V30 4913 O 459.829 1.79449 -0.742413 0
M  V30 4914 C 456.959 3.02717 -1.70234 0
M  V30 4915 C 455.913 3.19426 -2.8487 0
M  V30 4916 C 455.239 4.5909 -2.74118 0
M  V30 4917 C 456.539 3.01993 -4.26142 0
M  V30 4918 H 458.233 1.4968 -2.593 0
M  V30 4919 H 455.779 0.718654 -1.24785 0
M  V30 4920 H 457.732 3.80491 -1.8112 0
M  V30 4921 H 456.456 3.18201 -0.735911 0
M  V30 4922 H 455.115 2.4407 -2.73542 0
M  V30 4923 H 454.763 4.71413 -1.7544 0
M  V30 4924 H 454.463 4.71214 -3.51042 0
M  V30 4925 H 455.987 5.3896 -2.86974 0
M  V30 4926 H 457.401 3.69558 -4.38292 0
M  V30 4927 H 455.798 3.2561 -5.04082 0
M  V30 4928 H 456.868 1.98396 -4.42456 0
M  V30 4929 N 458.211 1.37122 0.776871 0
M  V30 4930 C 459.459 1.31787 1.53221 0
M  V30 4931 C 459.78 -0.0987589 1.9475 0
M  V30 4932 O 459.05 -1.0417 1.65908 0
M  V30 4933 H 457.63 0.484839 0.568278 0
M  V30 4934 H 460.292 1.71556 0.924917 0
M  V30 4935 H 459.388 1.95355 2.43398 0
M  V30 4936 N 459.689 -1.00246 1.21608 0
M  V30 4937 C 460.619 -2.10921 1.00172 0
M  V30 4938 C 461.6 -1.69938 -0.0741587 0
M  V30 4939 O 462.785 -1.94009 0.0861753 0
M  V30 4940 C 459.915 -3.42618 0.568355 0
M  V30 4941 C 458.869 -3.97407 1.58909 0
M  V30 4942 C 458.195 -5.25038 1.01187 0
M  V30 4943 C 459.495 -4.2918 2.97661 0
M  V30 4944 H 461.189 -2.29112 1.92739 0
M  V30 4945 H 458.735 -1.10101 0.928102 0
M  V30 4946 H 460.688 -4.19444 0.405555 0
M  V30 4947 H 459.412 -3.24227 -0.392961 0
M  V30 4948 H 458.071 -3.22703 1.73949 0
M  V30 4949 H 457.719 -5.02982 0.0421965 0
M  V30 4950 H 457.419 -5.62661 1.6937 0
M  V30 4951 H 458.943 -6.04507 0.860448 0
M  V30 4952 H 460.357 -4.96839 2.86049 0
M  V30 4953 H 458.754 -4.77952 3.6288 0
M  V30 4954 H 459.824 -3.3735 3.48315 0
M  V30 4955 N 461.167 -1.02423 -1.1978 0
M  V30 4956 C 462.1 -0.545641 -2.21581 0
M  V30 4957 C 463.078 0.411024 -1.57319 0
M  V30 4958 O 464.262 0.329223 -1.85603 0
M  V30 4959 C 461.389 0.204973 -3.38079 0
M  V30 4960 C 460.435 -0.70241 -4.20676 0
M  V30 4961 S 461.268 -2.17595 -4.89298 0
M  V30 4962 C 462.424 -1.43572 -6.09211 0
M  V30 4963 H 462.657 -1.4082 -2.61834 0
M  V30 4964 H 460.19 -0.833771 -1.29952 0
M  V30 4965 H 462.148 0.631924 -4.05607 0
M  V30 4966 H 460.809 1.0432 -2.9627 0
M  V30 4967 H 460.002 -0.123193 -5.03849 0
M  V30 4968 H 459.604 -1.06747 -3.58442 0
M  V30 4969 H 461.896 -0.719806 -6.73665 0
M  V30 4970 H 462.839 -2.24388 -6.71607 0
M  V30 4971 H 463.247 -0.935252 -5.56699 0
M  V30 4972 N 462.645 1.35699 -0.801477 0
M  V30 4973 C 463.578 2.2768 -0.153922 0
M  V30 4974 C 464.556 1.47832 0.67709 0
M  V30 4975 O 465.74 1.77104 0.645474 0
M  V30 4976 C 462.867 3.2943 0.786986 0
M  V30 4977 C 461.913 4.26485 0.0362447 0
M  V30 4978 S 462.746 5.19573 -1.2963 0
M  V30 4979 C 463.902 6.24866 -0.359705 0
M  V30 4980 H 464.135 2.82254 -0.9338 0
M  V30 4981 H 461.668 1.42421 -0.596283 0
M  V30 4982 H 463.626 3.8855 1.32436 0
M  V30 4983 H 462.287 2.73745 1.54021 0
M  V30 4984 H 461.48 4.98378 0.750668 0
M  V30 4985 H 461.082 3.71508 -0.431017 0
M  V30 4986 H 463.374 6.75957 0.456954 0
M  V30 4987 H 464.317 7.00307 -1.04768 0
M  V30 4988 H 464.725 5.64484 0.0423274 0
M  V30 4989 N 464.123 0.554532 1.47522 0
M  V30 4990 C 465.369 0.0295227 2.02779 0
M  V30 4991 C 465.702 -1.31582 1.42828 0
M  V30 4992 O 464.977 -1.85561 0.582872 0
M  V30 4993 C 465.26 -0.0664057 3.60039 0
M  V30 4994 C 465.113 1.30585 4.30427 0
M  V30 4995 C 466.432 -0.781162 4.33112 0
M  V30 4996 H 463.551 0.0122027 0.736899 0
M  V30 4997 H 466.193 0.716305 1.7598 0
M  V30 4998 H 464.343 -0.651307 3.83002 0
M  V30 4999 H 466.015 1.93374 4.18813 0
M  V30 5000 H 464.258 1.88125 3.90886 0
M  V30 5001 H 464.929 1.19147 5.38988 0
M  V30 5002 H 467.405 -0.284565 4.15126 0
M  V30 5003 H 466.281 -0.817237 5.42782 0
M  V30 5004 H 466.542 -1.83672 4.0214 0
M  V30 5005 N 465.601 -1.54893 0.290851 0
M  V30 5006 C 466.829 -2.04343 -0.324288 0
M  V30 5007 C 467.244 -1.16859 -1.48289 0
M  V30 5008 O 466.601 -0.192018 -1.81487 0
M  V30 5009 C 466.652 -3.52756 -0.79026 0
M  V30 5010 O 466.373 -4.36913 0.322213 0
M  V30 5011 C 467.874 -4.18161 -1.4716 0
M  V30 5012 H 465.094 -0.667135 -0.0719173 0
M  V30 5013 H 467.638 -1.99981 0.427529 0
M  V30 5014 H 465.793 -3.57511 -1.49213 0
M  V30 5015 H 466.207 -5.24486 -0.0387372 0
M  V30 5016 H 467.681 -5.23562 -1.7489 0
M  V30 5017 H 468.158 -3.67282 -2.40834 0
M  V30 5018 H 468.764 -4.17454 -0.813178 0
M  V30 5019 N 467.08 -0.0183926 -1.57589 0
M  V30 5020 C 468.329 0.66185 -1.90532 0
M  V30 5021 C 468.642 1.73904 -0.895366 0
M  V30 5022 O 469.848 2.47518 -1.11566 0
M  V30 5023 C 468.304 1.22844 -3.38286 0
M  V30 5024 C 467.912 0.185103 -4.47617 0
M  V30 5025 C 469.656 1.88581 -3.80312 0
M  V30 5026 C 467.563 0.762723 -5.86461 0
M  V30 5027 H 466.493 0.250972 -0.711006 0
M  V30 5028 H 469.144 -0.0819435 -1.83317 0
M  V30 5029 H 467.526 2.0235 -3.40398 0
M  V30 5030 H 468.7 -0.58671 -4.5705 0
M  V30 5031 H 467.015 -0.372889 -4.14727 0
M  V30 5032 H 469.612 2.32735 -4.81392 0
M  V30 5033 H 469.955 2.72408 -3.14801 0
M  V30 5034 H 470.488 1.15782 -3.80578 0
M  V30 5035 H 467.227 -0.0371713 -6.55489 0
M  V30 5036 H 466.747 1.50327 -5.80656 0
M  V30 5037 H 468.426 1.25576 -6.34697 0
M  V30 5038 N 468.558 1.5553 0.254621 0
M  V30 5039 C 469.806 1.7665 0.981793 0
M  V30 5040 C 470.127 0.580963 1.86145 0
M  V30 5041 O 469.397 -0.403537 1.91699 0
M  V30 5042 H 467.977 0.651475 0.365498 0
M  V30 5043 H 470.639 1.92958 0.274426 0
M  V30 5044 H 469.735 2.67486 1.60802 0
M  V30 5045 N 470.036 -0.519951 1.48776 0
M  V30 5046 C 471.285 -1.27175 1.56555 0
M  V30 5047 C 471.598 -1.9401 0.248869 0
M  V30 5048 O 472.804 -2.70725 0.205004 0
M  V30 5049 C 471.26 -2.30811 2.76142 0
M  V30 5050 C 470.868 -1.7 4.14493 0
M  V30 5051 C 472.612 -3.06937 2.9324 0
M  V30 5052 C 470.519 -2.71635 5.25327 0
M  V30 5053 H 469.449 -0.478329 0.582853 0
M  V30 5054 H 472.1 -0.547916 1.75129 0
M  V30 5055 H 470.482 -3.06274 2.51023 0
M  V30 5056 H 471.656 -1.00658 4.49672 0
M  V30 5057 H 469.971 -1.06331 4.02595 0
M  V30 5058 H 472.568 -3.82905 3.73213 0
M  V30 5059 H 472.911 -3.63409 2.03075 0
M  V30 5060 H 473.444 -2.38589 3.18308 0
M  V30 5061 H 470.183 -2.1997 6.1749 0
M  V30 5062 H 469.703 -3.39275 4.94624 0
M  V30 5063 H 471.382 -3.34429 5.53865 0
M  V30 5064 N 471.514 -1.37532 -0.769588 0
M  V30 5065 C 472.462 -1.33561 -1.90432 0
M  V30 5066 C 473.456 -0.224027 -1.67912 0
M  V30 5067 O 474.662 -0.392174 -1.75676 0
M  V30 5068 H 471.037 -0.416279 -0.626271 0
M  V30 5069 H 473.008 -2.29348 -1.90899 0
M  V30 5070 C 471.757 -1.16162 -3.27722 0
M  V30 5071 H 471.08 -2.00951 -3.45628 0
M  V30 5072 H 472.52 -1.17434 -4.07413 0
M  V30 5073 C 470.979 0.132583 -3.36639 0
M  V30 5074 O 471.509 1.11539 -3.85904 0
M  V30 5075 N 469.715 0.184013 -2.90017 0
M  V30 5076 H 469.262 -0.616415 -2.50116 0
M  V30 5077 H 469.22 1.04956 -2.96364 0
M  V30 5078 N 472.992 0.995999 -1.22138 0
M  V30 5079 C 473.924 2.08745 -0.946485 0
M  V30 5080 C 474.937 1.62633 0.0737356 0
M  V30 5081 O 476.126 1.77782 -0.159886 0
M  V30 5082 C 473.226 3.36516 -0.401305 0
M  V30 5083 C 472.399 4.11672 -1.47801 0
M  V30 5084 C 471.458 5.17728 -0.940461 0
M  V30 5085 O 470.484 5.45482 -1.62596 0
M  V30 5086 N 471.686 5.80005 0.239723 0
M  V30 5087 H 474.451 2.32908 -1.88611 0
M  V30 5088 H 472.012 1.16152 -1.12785 0
M  V30 5089 H 474.004 4.04691 -0.0270837 0
M  V30 5090 H 472.574 3.0944 0.443354 0
M  V30 5091 H 471.794 3.38171 -2.02568 0
M  V30 5092 H 473.082 4.58657 -2.20253 0
M  V30 5093 H 472.48 5.5982 0.813518 0
M  V30 5094 H 471.037 6.4943 0.555361 0
M  V30 5095 N 474.47 1.03057 1.19235 0
M  V30 5096 C 475.881 0.757449 1.70645 0
M  V30 5097 C 476.232 -0.722735 1.82403 0
M  V30 5098 O 475.357 -1.56325 1.49638 0
M  V30 5099 C 475.952 1.36833 3.09939 0
M  V30 5100 C 474.511 1.14375 3.58602 0
M  V30 5101 C 473.658 1.46533 2.35422 0
M  V30 5102 H 476.609 1.19828 1.04052 0
M  V30 5103 H 476.63 0.766184 3.72706 0
M  V30 5104 H 476.142 2.44562 3.01349 0
M  V30 5105 H 474.243 0.0847542 3.72504 0
M  V30 5106 H 474.356 1.83366 4.42622 0
M  V30 5107 H 472.72 0.884712 2.38841 0
M  V30 5108 H 473.503 2.55349 2.2946 0
M  V30 5109 N 475.948 -1.35272 0.808662 0
M  V30 5110 C 476.898 -2.27181 0.193124 0
M  V30 5111 C 477.882 -1.47871 -0.634265 0
M  V30 5112 O 479.074 -1.70048 -0.491182 0
M  V30 5113 C 476.203 -3.36979 -0.655751 0
M  V30 5114 C 475.289 -4.23712 0.181481 0
M  V30 5115 N 475.68 -4.90225 1.24551 0
M  V30 5116 C 473.978 -4.45985 -0.0365493 0
M  V30 5117 C 474.679 -5.54537 1.75682 0
M  V30 5118 N 473.655 -5.33107 1.06294 0
M  V30 5119 H 477.457 -2.76101 1.00724 0
M  V30 5120 H 474.971 -1.48823 0.650029 0
M  V30 5121 H 476.968 -4.01774 -1.11279 0
M  V30 5122 H 475.628 -2.89611 -1.46819 0
M  V30 5123 H 476.639 -4.91641 1.62818 0
M  V30 5124 H 473.316 -4.09409 -0.817964 0
M  V30 5125 H 474.706 -6.17597 2.64621 0
M  V30 5126 N 477.426 -0.562348 -1.47226 0
M  V30 5127 C 478.356 0.170627 -2.32876 0
M  V30 5128 C 479.337 0.903748 -1.44106 0
M  V30 5129 O 480.522 0.883206 -1.72954 0
M  V30 5130 C 477.652 1.19786 -3.25989 0
M  V30 5131 C 476.606 0.580875 -4.2404 0
M  V30 5132 C 475.932 1.71311 -5.06514 0
M  V30 5133 C 477.232 -0.468714 -5.20193 0
M  V30 5134 H 478.926 -0.544441 -2.94408 0
M  V30 5135 H 476.472 -0.263271 -1.41573 0
M  V30 5136 H 478.425 1.71884 -3.84752 0
M  V30 5137 H 477.149 1.94294 -2.62521 0
M  V30 5138 H 475.808 0.0811538 -3.6651 0
M  V30 5139 H 475.456 2.44736 -4.39447 0
M  V30 5140 H 475.156 1.30604 -5.72902 0
M  V30 5141 H 476.68 2.23725 -5.68137 0
M  V30 5142 H 478.094 -0.0336028 -5.7329 0
M  V30 5143 H 476.491 -0.794957 -5.94811 0
M  V30 5144 H 477.561 -1.36269 -4.65359 0
M  V30 5145 N 478.904 1.54736 -0.299062 0
M  V30 5146 C 479.867 2.22127 0.565012 0
M  V30 5147 C 480.867 1.20669 1.06281 0
M  V30 5148 O 482.057 1.45417 0.959145 0
M  V30 5149 C 479.189 2.90611 1.78208 0
M  V30 5150 H 480.382 2.99891 -0.0237448 0
M  V30 5151 H 477.935 1.5622 -0.0498788 0
M  V30 5152 H 478.67 2.16921 2.41072 0
M  V30 5153 H 478.455 3.64984 1.43281 0
M  V30 5154 H 479.945 3.42026 2.396 0
M  V30 5155 N 480.382 0.0267497 1.57577 0
M  V30 5156 C 481.629 -0.652404 1.91703 0
M  V30 5157 C 481.957 -1.72271 0.902936 0
M  V30 5158 O 481.212 -1.955 -0.0884843 0
M  V30 5159 C 481.511 -1.30914 3.3256 0
M  V30 5160 C 481.177 -0.369441 4.49384 0
M  V30 5161 C 479.839 -0.110791 4.81072 0
M  V30 5162 C 482.191 0.275971 5.20469 0
M  V30 5163 C 479.519 0.801116 5.81205 0
M  V30 5164 C 481.871 1.17592 6.21575 0
M  V30 5165 C 480.535 1.44348 6.51705 0
M  V30 5166 H 479.805 -0.238732 0.70149 0
M  V30 5167 H 482.452 0.0880091 1.91298 0
M  V30 5168 H 480.757 -2.12425 3.29216 0
M  V30 5169 H 482.454 -1.84115 3.56234 0
M  V30 5170 H 479.044 -0.581211 4.24641 0
M  V30 5171 H 483.228 0.0892 4.9622 0
M  V30 5172 H 478.484 1.01614 6.02897 0
M  V30 5173 H 482.658 1.68223 6.75777 0
M  V30 5174 H 480.285 2.15176 7.29111 0
M  V30 5175 N 481.861 -1.55662 -0.24637 0
M  V30 5176 C 482.791 -1.93377 -1.30873 0
M  V30 5177 C 483.772 -0.798773 -1.50179 0
M  V30 5178 O 484.957 -1.0591 -1.62778 0
M  V30 5179 C 482.087 -2.22893 -2.66338 0
M  V30 5180 C 481.041 -3.38649 -2.61727 0
M  V30 5181 C 480.367 -3.53708 -4.00992 0
M  V30 5182 C 481.667 -4.74323 -2.18666 0
M  V30 5183 H 483.361 -2.82363 -0.995552 0
M  V30 5184 H 480.907 -1.35854 -0.477464 0
M  V30 5185 H 482.86 -2.47866 -3.40794 0
M  V30 5186 H 481.584 -1.30733 -2.99293 0
M  V30 5187 H 480.243 -3.13685 -1.89729 0
M  V30 5188 H 479.891 -2.58967 -4.31214 0
M  V30 5189 H 479.591 -4.31551 -3.98795 0
M  V30 5190 H 481.115 -3.81003 -4.77147 0
M  V30 5191 H 482.529 -4.98665 -2.82854 0
M  V30 5192 H 480.926 -5.55273 -2.27579 0
M  V30 5193 H 481.996 -4.71349 -1.13834 0
M  V30 5194 N 483.339 0.512053 -1.4905 0
M  V30 5195 C 484.289 1.61142 -1.61298 0
M  V30 5196 C 485.273 1.53908 -0.46916 0
M  V30 5197 O 486.465 1.61625 -0.721547 0
M  V30 5198 C 483.594 2.998 -1.67256 0
M  V30 5199 C 482.68 3.12072 -2.87179 0
M  V30 5200 N 483.071 2.94263 -4.11391 0
M  V30 5201 C 481.369 3.43156 -2.84886 0
M  V30 5202 C 482.07 3.10426 -4.91946 0
M  V30 5203 N 481.046 3.38808 -4.251 0
M  V30 5204 H 484.848 1.46011 -2.55065 0
M  V30 5205 H 482.362 0.717934 -1.45669 0
M  V30 5206 H 484.359 3.78794 -1.74128 0
M  V30 5207 H 483.019 3.1601 -0.746195 0
M  V30 5208 H 484.03 2.70661 -4.41546 0
M  V30 5209 H 480.707 3.65611 -2.01581 0
M  V30 5210 H 482.097 3.01243 -6.00585 0
M  V30 5211 N 484.817 1.37938 0.762283 0
M  V30 5212 C 486.066 1.32989 1.51647 0
M  V30 5213 C 486.379 -0.0802922 1.95435 0
M  V30 5214 O 487.585 -0.252295 2.70325 0
M  V30 5215 C 486.041 2.33485 2.73885 0
M  V30 5216 C 485.649 3.80079 2.37157 0
M  V30 5217 C 487.393 2.37563 3.51801 0
M  V30 5218 C 485.3 4.72283 3.55954 0
M  V30 5219 H 484.23 0.494301 0.56937 0
M  V30 5220 H 486.881 1.63448 0.834083 0
M  V30 5221 H 485.263 1.96056 3.44061 0
M  V30 5222 H 486.437 4.26398 1.74704 0
M  V30 5223 H 484.752 3.79037 1.72395 0
M  V30 5224 H 487.349 3.0365 4.40114 0
M  V30 5225 H 487.692 1.39199 3.92338 0
M  V30 5226 H 488.225 2.73747 2.8863 0
M  V30 5227 H 484.964 5.7181 3.2049 0
M  V30 5228 H 484.484 4.30663 4.1748 0
M  V30 5229 H 486.163 4.89876 4.22647 0
M  V30 5230 N 486.295 -0.989507 1.22664 0
M  V30 5231 C 487.535 -1.7447 1.06488 0
M  V30 5232 C 487.899 -1.8794 -0.392737 0
M  V30 5233 O 489.1 -2.60175 -0.675446 0
M  V30 5234 C 487.371 -3.11043 1.76031 0
M  V30 5235 S 488.93 -4.02258 1.7531 0
M  V30 5236 H 485.748 -0.600123 0.381278 0
M  V30 5237 H 488.35 -1.18283 1.55658 0
M  V30 5238 H 487.054 -2.98884 2.81241 0
M  V30 5239 H 486.585 -3.72301 1.27105 0
M  V30 5240 H 488.6 -4.89623 0.805208 0
M  V30 5241 N 487.773 -1.03688 -1.18687 0
M  V30 5242 C 489.001 -0.757918 -1.92518 0
M  V30 5243 C 489.416 0.684398 -1.75959 0
M  V30 5244 O 488.773 1.46617 -1.08673 0
M  V30 5245 C 488.824 -1.10985 -3.44042 0
M  V30 5246 O 488.545 -2.49554 -3.60076 0
M  V30 5247 C 490.046 -0.854844 -4.3498 0
M  V30 5248 H 487.266 -0.276699 -0.611293 0
M  V30 5249 H 489.81 -1.38352 -1.50595 0
M  V30 5250 H 487.965 -0.529279 -3.83767 0
M  V30 5251 H 488.379 -2.6291 -4.53849 0
M  V30 5252 H 489.853 -1.15098 -5.39867 0
M  V30 5253 H 490.33 0.210507 -4.38695 0
M  V30 5254 H 490.936 -1.41853 -4.00946 0
M  V30 5255 N 489.251 1.34841 -0.815825 0
M  V30 5256 C 490.201 2.27075 -0.205169 0
M  V30 5257 C 491.185 1.48205 0.626414 0
M  V30 5258 O 492.377 1.70306 0.482157 0
M  V30 5259 C 489.506 3.37322 0.637871 0
M  V30 5260 C 488.592 4.23609 -0.203948 0
M  V30 5261 N 488.983 4.89558 -1.27149 0
M  V30 5262 C 487.281 4.45998 0.0128971 0
M  V30 5263 C 487.982 5.53597 -1.7862 0
M  V30 5264 N 486.958 5.32535 -1.0912 0
M  V30 5265 H 490.76 2.75563 -1.02187 0
M  V30 5266 H 488.274 1.48477 -0.657912 0
M  V30 5267 H 490.271 4.02359 1.09146 0
M  V30 5268 H 488.931 2.90385 1.45281 0
M  V30 5269 H 489.942 4.9077 -1.65423 0
M  V30 5270 H 486.619 4.09837 0.79624 0
M  V30 5271 H 488.009 6.16184 -2.67892 0
M  V30 5272 N 490.729 0.570148 1.46925 0
M  V30 5273 C 491.692 -0.159933 2.28641 0
M  V30 5274 C 492.692 -0.830638 1.37685 0
M  V30 5275 O 493.882 -0.684516 1.60187 0
M  V30 5276 C 491.014 -1.2354 3.17727 0
M  V30 5277 H 492.207 0.558035 2.94662 0
M  V30 5278 H 489.76 0.327603 1.52828 0
M  V30 5279 H 490.495 -1.98535 2.56426 0
M  V30 5280 H 490.28 -0.759125 3.84681 0
M  V30 5281 H 491.77 -1.74782 3.79264 0
M  V30 5282 N 492.207 -1.54576 0.307264 0
M  V30 5283 C 493.454 -2.00263 -0.300167 0
M  V30 5284 C 493.782 -1.19561 -1.53413 0
M  V30 5285 O 493.037 -0.261487 -1.93945 0
M  V30 5286 C 493.336 -3.50572 -0.695253 0
M  V30 5287 C 493.002 -4.48771 0.437679 0
M  V30 5288 C 491.664 -4.7534 0.748681 0
M  V30 5289 C 494.016 -5.0721 1.19949 0
M  V30 5290 C 491.344 -5.5761 1.8245 0
M  V30 5291 C 493.696 -5.90651 2.26527 0
M  V30 5292 C 492.36 -6.15528 2.58227 0
M  V30 5293 H 491.63 -0.732814 -0.109839 0
M  V30 5294 H 494.277 -1.86664 0.427661 0
M  V30 5295 H 492.582 -3.61814 -1.50326 0
M  V30 5296 H 494.279 -3.83352 -1.17653 0
M  V30 5297 H 490.869 -4.282 0.185187 0
M  V30 5298 H 495.053 -4.86679 0.972474 0
M  V30 5299 H 490.309 -5.75121 2.07476 0
M  V30 5300 H 494.483 -6.34957 2.86011 0
M  V30 5301 H 492.11 -6.79066 3.4172 0
M  V30 5302 N 493.685 -0.035106 -1.57561 0
M  V30 5303 C 494.932 0.642229 -1.92046 0
M  V30 5304 C 495.26 1.7179 -0.91206 0
M  V30 5305 O 494.515 1.95544 0.0781153 0
M  V30 5306 C 494.814 1.29149 -3.3325 0
M  V30 5307 C 494.48 0.345604 -4.49574 0
M  V30 5308 C 493.142 0.0852775 -4.81124 0
M  V30 5309 C 495.494 -0.303569 -5.20315 0
M  V30 5310 C 492.822 -0.831927 -5.80772 0
M  V30 5311 C 495.174 -1.20886 -6.20942 0
M  V30 5312 C 493.838 -1.47802 -6.50931 0
M  V30 5313 H 493.108 0.235008 -0.702746 0
M  V30 5314 H 495.755 -0.0981529 -1.91248 0
M  V30 5315 H 494.06 2.10676 -3.30337 0
M  V30 5316 H 495.757 1.82223 -3.57205 0
M  V30 5317 H 492.347 0.558683 -4.24943 0
M  V30 5318 H 496.531 -0.115515 -4.96166 0
M  V30 5319 H 491.787 -1.0481 -6.02349 0
M  V30 5320 H 495.961 -1.71804 -6.74875 0
M  V30 5321 H 493.588 -2.19039 -7.2796 0
M  V30 5322 N 495.163 1.55791 0.238111 0
M  V30 5323 C 496.11 1.9105 1.29493 0
M  V30 5324 C 497.08 0.765733 1.47397 0
M  V30 5325 O 498.265 1.02017 1.61236 0
M  V30 5326 C 495.405 2.21826 2.64362 0
M  V30 5327 C 494.518 3.49153 2.54394 0
M  V30 5328 C 493.653 3.69455 3.81676 0
M  V30 5329 C 492.692 4.90353 3.66361 0
M  V30 5330 N 491.829 5.07131 4.85554 0
M  V30 5331 H 496.669 2.81172 0.987233 0
M  V30 5332 H 494.206 1.39179 0.476203 0
M  V30 5333 H 496.164 2.37675 3.4288 0
M  V30 5334 H 494.794 1.34897 2.93262 0
M  V30 5335 H 493.846 3.41587 1.67399 0
M  V30 5336 H 495.158 4.37818 2.38991 0
M  V30 5337 H 494.312 3.85311 4.68636 0
M  V30 5338 H 493.051 2.7904 3.99985 0
M  V30 5339 H 492.056 4.74464 2.77784 0
M  V30 5340 H 493.281 5.82237 3.49538 0
M  V30 5341 H 491.227 4.19654 5.04209 0
M  V30 5342 H 491.144 5.89899 4.72816 0
M  V30 5343 H 492.412 5.27407 5.73988 0
M  V30 5344 N 496.642 -0.504142 1.49319 0
M  V30 5345 C 497.605 -1.5883 1.65244 0
M  V30 5346 C 498.605 -1.52009 0.524386 0
M  V30 5347 O 499.795 -1.55218 0.79077 0
M  V30 5348 C 496.927 -2.98481 1.64687 0
M  V30 5349 H 498.12 -1.4604 2.61939 0
M  V30 5350 H 495.673 -0.728144 1.38303 0
M  V30 5351 H 496.408 -3.16751 0.695644 0
M  V30 5352 H 496.193 -3.0484 2.46607 0
M  V30 5353 H 497.683 -3.77256 1.79075 0
M  V30 5354 N 498.12 -1.38341 -0.754957 0
M  V30 5355 C 499.053 -1.29837 -1.87663 0
M  V30 5356 C 500.031 -0.175659 -1.61648 0
M  V30 5357 O 501.215 -0.352745 -1.8517 0
M  V30 5358 C 498.342 -1.01141 -3.23246 0
M  V30 5359 C 497.388 -2.15331 -3.6815 0
M  V30 5360 S 498.221 -3.77459 -3.79849 0
M  V30 5361 C 499.377 -3.50948 -5.18253 0
M  V30 5362 H 499.61 -2.24771 -1.9459 0
M  V30 5363 H 497.143 -1.24161 -0.917796 0
M  V30 5364 H 499.101 -0.852687 -4.01546 0
M  V30 5365 H 497.762 -0.0792784 -3.14 0
M  V30 5366 H 496.955 -1.90795 -4.6649 0
M  V30 5367 H 496.557 -2.27304 -2.97 0
M  V30 5368 H 498.849 -3.06977 -6.03963 0
M  V30 5369 H 499.792 -4.48677 -5.47809 0
M  V30 5370 H 500.2 -2.85492 -4.86985 0
M  V30 5371 N 499.598 0.982988 -1.23187 0
M  V30 5372 C 500.528 2.09301 -1.03515 0
M  V30 5373 C 501.509 1.70035 0.0471136 0
M  V30 5374 O 502.694 1.93847 -0.117029 0
M  V30 5375 C 499.824 3.4167 -0.622791 0
M  V30 5376 C 498.778 3.94828 -1.65211 0
M  V30 5377 C 498.104 5.23362 -1.09527 0
M  V30 5378 C 499.404 4.2439 -3.04451 0
M  V30 5379 H 501.098 2.26016 -1.96359 0
M  V30 5380 H 498.644 1.08611 -0.945501 0
M  V30 5381 H 500.597 4.18746 -0.472233 0
M  V30 5382 H 499.321 3.24811 0.341329 0
M  V30 5383 H 497.98 3.19895 -1.79061 0
M  V30 5384 H 497.628 5.02852 -0.122211 0
M  V30 5385 H 497.328 5.59895 -1.783 0
M  V30 5386 H 498.852 6.03062 -0.956511 0
M  V30 5387 H 500.266 4.92225 -2.93917 0
M  V30 5388 H 498.663 4.72118 -3.70438 0
M  V30 5389 H 499.733 3.31765 -3.53638 0
M  V30 5390 N 501.076 1.04316 1.18135 0
M  V30 5391 C 502.323 0.74802 1.88178 0
M  V30 5392 C 502.651 -0.72441 1.80506 0
M  V30 5393 O 501.906 -1.54463 1.20165 0
M  V30 5394 C 502.205 1.16271 3.37958 0
M  V30 5395 C 501.871 2.63585 3.65833 0
M  V30 5396 C 500.533 3.03829 3.73151 0
M  V30 5397 C 502.885 3.58822 3.78016 0
M  V30 5398 C 500.213 4.38194 3.90132 0
M  V30 5399 C 502.565 4.92909 3.96514 0
M  V30 5400 C 501.229 5.3282 4.02068 0
M  V30 5401 H 500.499 0.27372 0.688592 0
M  V30 5402 H 503.146 1.30863 1.39811 0
M  V30 5403 H 501.451 0.520938 3.88321 0
M  V30 5404 H 503.148 0.911672 3.90499 0
M  V30 5405 H 499.738 2.31414 3.60757 0
M  V30 5406 H 503.922 3.28875 3.71692 0
M  V30 5407 H 499.178 4.68631 3.92677 0
M  V30 5408 H 503.352 5.66606 4.04883 0
M  V30 5409 H 500.979 6.36943 4.14979 0
M  V30 5410 N 502.554 -1.34406 0.822964 0
M  V30 5411 C 503.487 -2.27407 0.190124 0
M  V30 5412 C 504.465 -1.4889 -0.653486 0
M  V30 5413 O 505.649 -1.78109 -0.617216 0
M  V30 5414 C 502.776 -3.3064 -0.734477 0
M  V30 5415 C 501.822 -4.26488 0.0316099 0
M  V30 5416 S 502.655 -5.17445 1.3788 0
M  V30 5417 C 503.811 -6.24214 0.45907 0
M  V30 5418 H 504.044 -2.80733 0.978586 0
M  V30 5419 H 501.577 -1.41455 0.618866 0
M  V30 5420 H 503.535 -3.90607 -1.26238 0
M  V30 5421 H 502.196 -2.76161 -1.49646 0
M  V30 5422 H 501.389 -4.9951 -0.671285 0
M  V30 5423 H 500.991 -3.70775 0.490066 0
M  V30 5424 H 503.283 -6.76599 -0.349357 0
M  V30 5425 H 504.226 -6.98551 1.15896 0
M  V30 5426 H 504.634 -5.6448 0.0474825 0
M  V30 5427 N 504.032 -0.577932 -1.46621 0
M  V30 5428 C 505.272 -0.0643097 -2.04299 0
M  V30 5429 C 505.636 1.26967 -1.44026 0
M  V30 5430 O 506.837 1.87224 -1.92875 0
M  V30 5431 C 505.108 0.00547588 -3.574 0
M  V30 5432 S 506.667 0.462216 -4.36359 0
M  V30 5433 H 503.485 -0.0351573 -0.71013 0
M  V30 5434 H 506.087 -0.76935 -1.79725 0
M  V30 5435 H 504.791 -0.969423 -3.98786 0
M  V30 5436 H 504.322 0.733435 -3.86503 0
M  V30 5437 H 506.337 1.71791 -4.65513 0
M  V30 5438 N 505.51 1.54411 -0.315457 0
M  V30 5439 C 506.735 2.05299 0.294496 0
M  V30 5440 C 507.16 1.19052 1.4563 0
M  V30 5441 O 506.518 0.197804 1.80218 0
M  V30 5442 C 506.566 3.5345 0.714549 0
M  V30 5443 O 505.67 3.70175 1.81781 0
M  V30 5444 H 505.011 0.661743 0.0547019 0
M  V30 5445 H 507.541 1.99327 -0.461508 0
M  V30 5446 H 507.551 3.9557 0.999426 0
M  V30 5447 H 506.226 4.1568 -0.135244 0
M  V30 5448 H 504.803 3.3996 1.53236 0
M  V30 5449 N 506.988 0.0434614 1.5754 0
M  V30 5450 C 508.236 -0.630786 1.92004 0
M  V30 5451 C 508.557 -1.71836 0.921807 0
M  V30 5452 O 507.827 -1.9587 -0.034522 0
M  V30 5453 H 506.407 -0.235988 0.708745 0
M  V30 5454 H 509.069 0.0946462 1.9467 0
M  V30 5455 H 508.165 -1.07434 2.93026 0
M  V30 5456 N 508.466 -1.55915 -0.229846 0
M  V30 5457 C 509.691 -1.8296 -0.976743 0
M  V30 5458 C 510.116 -0.622735 -1.77493 0
M  V30 5459 O 509.474 0.428431 -1.76165 0
M  V30 5460 C 509.522 -3.07916 -1.8767 0
M  V30 5461 O 508.626 -2.86028 -2.97088 0
M  V30 5462 H 507.967 -0.603453 -0.277021 0
M  V30 5463 H 510.497 -2.0312 -0.245669 0
M  V30 5464 H 510.507 -3.37802 -2.2881 0
M  V30 5465 H 509.182 -3.95389 -1.28996 0
M  V30 5466 H 507.759 -2.67355 -2.59954 0
M  V30 5467 N 509.944 0.496216 -1.49584 0
M  V30 5468 C 511.193 1.24668 -1.58558 0
M  V30 5469 C 511.506 1.9359 -0.279703 0
M  V30 5470 O 512.712 2.70365 -0.248048 0
M  V30 5471 C 511.168 2.26388 -2.79779 0
M  V30 5472 C 510.776 1.63384 -4.17145 0
M  V30 5473 C 512.52 3.02233 -2.98086 0
M  V30 5474 C 510.427 2.63243 -5.29582 0
M  V30 5475 H 509.357 0.468995 -0.590389 0
M  V30 5476 H 512.008 0.519985 -1.75978 0
M  V30 5477 H 510.39 3.02241 -2.55863 0
M  V30 5478 H 511.564 0.93491 -4.51216 0
M  V30 5479 H 509.879 0.999121 -4.04236 0
M  V30 5480 H 512.476 3.76919 -3.79257 0
M  V30 5481 H 512.819 3.60132 -2.08831 0
M  V30 5482 H 513.352 2.33495 -3.22063 0
M  V30 5483 H 510.091 2.10119 -6.20911 0
M  V30 5484 H 509.611 3.31363 -4.99959 0
M  V30 5485 H 511.29 3.25575 -5.59115 0
M  V30 5486 N 511.423 1.38739 0.74761 0
M  V30 5487 C 512.672 1.3459 1.50228 0
M  V30 5488 C 512.985 -0.0595592 1.95509 0
M  V30 5489 O 514.191 -0.22361 2.70578 0
M  V30 5490 C 512.647 2.36377 2.71393 0
M  V30 5491 C 512.255 3.82573 2.33113 0
M  V30 5492 C 513.999 2.41281 3.49262 0
M  V30 5493 C 511.906 4.76032 3.50924 0
M  V30 5494 H 510.836 0.500312 0.564096 0
M  V30 5495 H 513.487 1.64324 0.8167 0
M  V30 5496 H 511.869 1.99694 3.41962 0
M  V30 5497 H 513.043 4.28227 1.70171 0
M  V30 5498 H 511.358 3.80844 1.68365 0
M  V30 5499 H 513.955 3.08301 4.36869 0
M  V30 5500 H 514.298 1.43353 3.9084 0
M  V30 5501 H 514.831 2.76793 2.85711 0
M  V30 5502 H 511.57 5.75177 3.14408 0
M  V30 5503 H 511.09 4.35066 4.12889 0
M  V30 5504 H 512.769 4.94331 4.17427 0
M  V30 5505 N 512.901 -0.976442 1.23707 0
M  V30 5506 C 513.851 -2.0544 0.988851 0
M  V30 5507 C 514.835 -1.60762 -0.0665901 0
M  V30 5508 O 516.027 -1.76396 0.14604 0
M  V30 5509 C 513.156 -3.38258 0.586223 0
M  V30 5510 C 512.242 -3.89523 1.67728 0
M  V30 5511 N 512.633 -4.13823 2.90834 0
M  V30 5512 C 510.931 -4.18097 1.55277 0
M  V30 5513 C 511.632 -4.55731 3.61502 0
M  V30 5514 N 510.608 -4.60394 2.8903 0
M  V30 5515 H 514.41 -2.22191 1.92376 0
M  V30 5516 H 511.924 -1.15954 1.13704 0
M  V30 5517 H 513.921 -4.15075 0.389658 0
M  V30 5518 H 512.581 -3.22898 -0.341594 0
M  V30 5519 H 513.592 -4.01529 3.271 0
M  V30 5520 H 510.269 -4.11719 0.692351 0
M  V30 5521 H 511.659 -4.83018 4.67059 0
M  V30 5522 N 514.379 -1.04941 -1.1758 0
M  V30 5523 C 515.327 -0.64204 -2.23563 0
M  V30 5524 C 516.321 0.335453 -1.66045 0
M  V30 5525 O 517.527 0.20179 -1.78865 0
M  V30 5526 H 513.902 -0.18944 -0.727748 0
M  V30 5527 H 515.873 -1.54609 -2.55223 0
M  V30 5528 C 514.622 -0.0301051 -3.47687 0
M  V30 5529 H 513.945 -0.773339 -3.92249 0
M  V30 5530 H 515.385 0.217592 -4.23441 0
M  V30 5531 C 513.844 1.2225 -3.13937 0
M  V30 5532 O 514.374 2.3122 -3.28482 0
M  V30 5533 N 512.58 1.11917 -2.68185 0
M  V30 5534 H 512.127 0.232403 -2.5655 0
M  V30 5535 H 512.085 1.95814 -2.45976 0
M  V30 5536 N 515.857 1.33968 -0.830081 0
M  V30 5537 C 516.787 2.31911 -0.271911 0
M  V30 5538 C 517.768 1.58571 0.61556 0
M  V30 5539 O 518.953 1.86514 0.540946 0
M  V30 5540 C 516.083 3.42737 0.561146 0
M  V30 5541 C 515.037 4.27383 -0.229789 0
M  V30 5542 C 514.363 5.29742 0.726463 0
M  V30 5543 C 515.663 5.02 -1.44197 0
M  V30 5544 H 517.357 2.78844 -1.09025 0
M  V30 5545 H 514.903 1.34061 -0.52571 0
M  V30 5546 H 516.856 4.10276 0.961867 0
M  V30 5547 H 515.58 2.94471 1.41261 0
M  V30 5548 H 514.239 3.61456 -0.611964 0
M  V30 5549 H 513.887 4.77736 1.57408 0
M  V30 5550 H 513.587 5.87255 0.20142 0
M  V30 5551 H 515.111 6.00149 1.12489 0
M  V30 5552 H 516.525 5.62355 -1.11488 0
M  V30 5553 H 514.922 5.69122 -1.90317 0
M  V30 5554 H 515.992 4.31281 -2.2164 0
M  V30 5555 N 517.335 0.585699 1.46312 0
M  V30 5556 C 518.283 -0.158577 2.32059 0
M  V30 5557 C 519.277 -0.881427 1.44662 0
M  V30 5558 O 520.483 -0.799476 1.61271 0
M  V30 5559 H 516.858 -0.0700066 0.748734 0
M  V30 5560 H 518.829 0.583383 2.92642 0
M  V30 5561 C 517.578 -1.15701 3.27885 0
M  V30 5562 H 516.901 -0.610215 3.95116 0
M  V30 5563 H 518.341 -1.64812 3.90657 0
M  V30 5564 C 516.8 -2.21951 2.53455 0
M  V30 5565 O 517.33 -3.29352 2.29978 0
M  V30 5566 N 515.536 -1.9664 2.13965 0
M  V30 5567 H 515.083 -1.09309 2.33258 0
M  V30 5568 H 515.041 -2.6794 1.64485 0
M  V30 5569 N 518.813 -1.54241 0.323641 0
M  V30 5570 C 519.761 -2.25813 -0.557804 0
M  V30 5571 C 520.755 -1.27225 -1.11849 0
M  V30 5572 O 521.961 -1.45001 -1.06652 0
M  V30 5573 H 518.336 -0.72532 -0.198532 0
M  V30 5574 H 520.307 -2.98322 0.0681112 0
M  V30 5575 C 519.056 -3.02913 -1.70701 0
M  V30 5576 H 518.379 -3.78593 -1.28482 0
M  V30 5577 H 519.819 -3.56238 -2.29935 0
M  V30 5578 C 518.278 -2.11217 -2.62467 0
M  V30 5579 O 518.808 -1.69508 -3.64184 0
M  V30 5580 N 517.014 -1.76704 -2.30703 0
M  V30 5581 H 516.561 -2.1082 -1.48029 0
M  V30 5582 H 516.519 -1.15631 -2.92364 0
M  V30 5583 N 520.291 -0.0518155 -1.57515 0
M  V30 5584 C 521.201 0.937539 -2.15052 0
M  V30 5585 C 522.217 1.34121 -1.10849 0
M  V30 5586 O 523.393 1.418 -1.4302 0
M  V30 5587 C 520.458 2.19379 -2.68466 0
M  V30 5588 C 519.519 1.84841 -3.87469 0
M  V30 5589 C 518.752 3.04477 -4.38326 0
M  V30 5590 O 518.975 4.17868 -3.88256 0
M  V30 5591 O 517.909 2.85453 -5.29906 0
M  V30 5592 H 521.735 0.478201 -2.99912 0
M  V30 5593 H 519.32 0.17012 -1.48428 0
M  V30 5594 H 521.202 2.93084 -3.02787 0
M  V30 5595 H 519.877 2.64449 -1.86677 0
M  V30 5596 H 518.784 1.08449 -3.58036 0
M  V30 5597 H 520.117 1.44569 -4.7049 0
M  V30 5598 N 521.769 1.56035 0.221574 0
M  V30 5599 C 522.701 1.889 1.29805 0
M  V30 5600 C 523.714 0.777269 1.43047 0
M  V30 5601 O 524.903 1.05557 1.43945 0
M  V30 5602 C 522.003 2.0825 2.67367 0
M  V30 5603 C 521.176 3.39267 2.76073 0
M  V30 5604 C 520.235 3.48049 3.94649 0
M  V30 5605 O 519.261 4.2108 3.82988 0
M  V30 5606 N 520.463 2.79191 5.08953 0
M  V30 5607 H 523.228 2.81831 1.01938 0
M  V30 5608 H 520.789 1.5658 0.411612 0
M  V30 5609 H 522.781 2.11441 3.45072 0
M  V30 5610 H 521.351 1.21944 2.87834 0
M  V30 5611 H 520.571 3.48175 1.84846 0
M  V30 5612 H 521.859 4.25575 2.7886 0
M  V30 5613 H 521.257 2.19635 5.21322 0
M  V30 5614 H 519.814 2.88043 5.84701 0
M  V30 5615 N 523.247 -0.488276 1.49845 0
M  V30 5616 C 524.524 -1.24959 1.50481 0
M  V30 5617 C 524.904 -2.09735 0.239698 0
M  V30 5618 O 524.252 -2.14865 -0.777524 0
M  V30 5619 C 524.462 -2.0954 2.79095 0
M  V30 5620 C 525.81 -2.68305 3.29086 0
M  V30 5621 O 526.834 -2.19797 2.80299 0
M  V30 5622 O 525.693 -3.56643 4.14087 0
M  V30 5623 H 522.787 -0.566133 0.602845 0
M  V30 5624 H 525.333 -0.501504 1.6212 0
M  V30 5625 H 524.105 -1.46958 3.62656 0
M  V30 5626 H 523.728 -2.91517 2.70377 0
M  V30 5627 N 524.725 -1.39134 -0.740242 0
M  V30 5628 C 525.974 -1.35384 -1.49512 0
M  V30 5629 C 526.287 0.04919 -1.95538 0
M  V30 5630 O 527.493 0.209257 -2.70692 0
M  V30 5631 C 525.949 -2.37812 -2.70136 0
M  V30 5632 C 525.557 -3.83804 -2.31081 0
M  V30 5633 C 527.301 -2.4313 -3.47977 0
M  V30 5634 C 525.208 -4.77886 -3.48395 0
M  V30 5635 H 524.138 -0.503297 -0.561434 0
M  V30 5636 H 526.789 -1.64754 -0.807974 0
M  V30 5637 H 525.171 -2.01505 -3.40899 0
M  V30 5638 H 526.345 -4.29123 -1.67898 0
M  V30 5639 H 524.66 -3.81732 -1.66343 0
M  V30 5640 H 527.257 -3.10614 -4.35228 0
M  V30 5641 H 527.6 -1.45423 -3.90074 0
M  V30 5642 H 528.133 -2.78304 -2.84239 0
M  V30 5643 H 524.872 -5.76836 -3.11353 0
M  V30 5644 H 524.392 -4.3725 -4.10576 0
M  V30 5645 H 526.071 -4.96538 -4.148 0
M  V30 5646 N 526.204 0.969867 -1.24223 0
M  V30 5647 C 527.62 1.23809 -1.00716 0
M  V30 5648 C 527.82 1.99469 0.285358 0
M  V30 5649 O 526.876 2.31764 1.00207 0
M  V30 5650 C 528.189 2.02734 -2.2208 0
M  V30 5651 C 529.737 2.15834 -2.26681 0
M  V30 5652 C 530.212 2.98154 -3.47661 0
M  V30 5653 N 531.703 3.05737 -3.47964 0
M  V30 5654 C 532.438 3.69785 -4.38231 0
M  V30 5655 N 531.934 4.35569 -5.3875 0
M  V30 5656 N 533.727 3.66775 -4.25949 0
M  V30 5657 H 525.878 0.463294 -2.07286 0
M  V30 5658 H 528.141 0.267348 -0.909521 0
M  V30 5659 H 527.847 1.54524 -3.15935 0
M  V30 5660 H 527.721 3.0347 -2.24021 0
M  V30 5661 H 530.108 2.63248 -1.33359 0
M  V30 5662 H 530.189 1.14453 -2.28767 0
M  V30 5663 H 529.833 2.51435 -4.41297 0
M  V30 5664 H 529.763 3.99729 -3.42818 0
M  V30 5665 H 532.254 2.58941 -2.75242 0
M  V30 5666 H 532.567 4.82251 -6.03866 0
M  V30 5667 H 530.912 4.34244 -5.42639 0
M  V30 5668 H 534.103 3.14558 -3.46657 0
M  V30 5669 H 534.276 4.16407 -4.96497 0
M  V30 5670 N 527.682 1.05563 1.17022 0
M  V30 5671 C 528.629 0.659893 2.21165 0
M  V30 5672 C 529.599 -0.339813 1.62587 0
M  V30 5673 O 530.784 -0.230378 1.89404 0
M  V30 5674 C 527.924 0.0447297 3.45071 0
M  V30 5675 C 527.037 1.09372 4.17926 0
M  V30 5676 C 526.172 0.445481 5.29329 0
M  V30 5677 C 525.211 1.47852 5.93975 0
M  V30 5678 N 524.348 0.854172 6.96885 0
M  V30 5679 H 529.188 1.55243 2.54369 0
M  V30 5680 H 526.725 0.776336 1.24946 0
M  V30 5681 H 528.683 -0.329404 4.15898 0
M  V30 5682 H 527.313 -0.811244 3.1244 0
M  V30 5683 H 526.365 1.58564 3.45777 0
M  V30 5684 H 527.677 1.87773 4.62107 0
M  V30 5685 H 526.831 0.0179688 6.06697 0
M  V30 5686 H 525.57 -0.370481 4.86291 0
M  V30 5687 H 524.575 1.91601 5.15334 0
M  V30 5688 H 525.8 2.29645 6.39093 0
M  V30 5689 H 523.746 0.0587882 6.55974 0
M  V30 5690 H 523.663 1.57567 7.39397 0
M  V30 5691 H 524.931 0.451559 7.78191 0
M  V30 5692 N 529.16 -1.33526 0.837174 0
M  V30 5693 C 530.093 -2.27192 0.214233 0
M  V30 5694 C 531.071 -1.49575 -0.637657 0
M  V30 5695 O 532.255 -1.78753 -0.598291 0
M  V30 5696 C 529.382 -3.31401 -0.699367 0
M  V30 5697 C 528.428 -4.26431 0.0768429 0
M  V30 5698 S 529.261 -5.15954 1.4336 0
M  V30 5699 C 530.417 -6.23692 0.525251 0
M  V30 5700 H 530.65 -2.79679 1.00831 0
M  V30 5701 H 528.183 -1.4079 0.633834 0
M  V30 5702 H 530.141 -3.91924 -1.22088 0
M  V30 5703 H 528.802 -2.77732 -1.46709 0
M  V30 5704 H 527.995 -5.00193 -0.618268 0
M  V30 5705 H 527.597 -3.70235 0.529364 0
M  V30 5706 H 529.889 -6.76931 -0.277575 0
M  V30 5707 H 530.832 -6.97283 1.23299 0
M  V30 5708 H 531.24 -5.64398 0.107351 0
M  V30 5709 N 530.638 -0.59345 -1.46 0
M  V30 5710 C 531.886 -0.082988 -2.0193 0
M  V30 5711 C 532.207 1.28569 -1.46612 0
M  V30 5712 O 531.477 1.84629 -0.654909 0
M  V30 5713 H 530.057 -0.0276882 -0.746487 0
M  V30 5714 H 532.719 -0.771657 -1.78973 0
M  V30 5715 H 531.815 -0.022079 -3.12092 0
M  V30 5716 N 532.116 1.54067 -0.331816 0
M  V30 5717 C 533.364 2.00319 0.267739 0
M  V30 5718 C 533.685 1.22148 1.52003 0
M  V30 5719 O 532.955 0.325494 1.93177 0
M  V30 5720 H 531.535 0.740014 0.101922 0
M  V30 5721 H 534.197 1.89628 -0.450267 0
M  V30 5722 H 533.293 3.07765 0.518385 0
M  V30 5723 N 533.594 0.0601682 1.57485 0
M  V30 5724 C 534.524 -0.90889 2.15085 0
M  V30 5725 C 535.505 -1.31838 1.07484 0
M  V30 5726 O 536.69 -1.3915 1.35466 0
M  V30 5727 C 533.82 -2.18059 2.7031 0
M  V30 5728 C 532.774 -1.91088 3.82974 0
M  V30 5729 C 532.1 -3.24789 4.24754 0
M  V30 5730 C 533.4 -1.22535 5.07723 0
M  V30 5731 H 535.094 -0.429093 2.96309 0
M  V30 5732 H 532.64 -0.204952 1.42534 0
M  V30 5733 H 534.593 -2.86258 3.09248 0
M  V30 5734 H 533.317 -2.6826 1.8629 0
M  V30 5735 H 531.976 -1.25297 3.44523 0
M  V30 5736 H 531.624 -3.72809 3.37672 0
M  V30 5737 H 531.324 -3.07538 5.00694 0
M  V30 5738 H 532.848 -3.94205 4.66299 0
M  V30 5739 H 534.262 -1.80783 5.4405 0
M  V30 5740 H 532.659 -1.1558 5.88864 0
M  V30 5741 H 533.729 -0.202692 4.84476 0
M  V30 5742 N 535.072 -1.5615 -0.213296 0
M  V30 5743 C 536.002 -1.96109 -1.26742 0
M  V30 5744 C 536.983 -0.830448 -1.48451 0
M  V30 5745 O 538.168 -1.09339 -1.60495 0
M  V30 5746 C 535.298 -2.28492 -2.61551 0
M  V30 5747 C 534.252 -3.44124 -2.54485 0
M  V30 5748 C 533.578 -3.62134 -3.93399 0
M  V30 5749 C 534.878 -4.78855 -2.08556 0
M  V30 5750 H 536.572 -2.84412 -0.935434 0
M  V30 5751 H 534.118 -1.36836 -0.44854 0
M  V30 5752 H 536.071 -2.55039 -3.3546 0
M  V30 5753 H 534.795 -1.37052 -2.96453 0
M  V30 5754 H 533.454 -3.17639 -1.83033 0
M  V30 5755 H 533.102 -2.68055 -4.25623 0
M  V30 5756 H 532.802 -4.39913 -3.89551 0
M  V30 5757 H 534.326 -3.91038 -4.68958 0
M  V30 5758 H 535.74 -5.04552 -2.72213 0
M  V30 5759 H 534.137 -5.59975 -2.1575 0
M  V30 5760 H 535.207 -4.73657 -1.03811 0
M  V30 5761 N 536.55 0.480323 -1.50102 0
M  V30 5762 C 537.497 1.57946 -1.6829 0
M  V30 5763 C 538.467 1.57611 -0.524223 0
M  V30 5764 O 539.652 1.75282 -0.753709 0
M  V30 5765 C 536.792 2.95978 -1.77457 0
M  V30 5766 C 535.905 3.06173 -3.04766 0
M  V30 5767 C 535.04 4.35063 -3.04784 0
M  V30 5768 C 534.079 4.38966 -4.26586 0
M  V30 5769 N 533.216 5.59314 -4.24396 0
M  V30 5770 H 538.056 1.41743 -2.62131 0
M  V30 5771 H 535.593 0.689304 -1.2995 0
M  V30 5772 H 537.551 3.76011 -1.80752 0
M  V30 5773 H 536.181 3.10837 -0.870637 0
M  V30 5774 H 535.233 2.19071 -3.10986 0
M  V30 5775 H 536.545 3.04916 -3.9475 0
M  V30 5776 H 535.699 5.23436 -3.06757 0
M  V30 5777 H 534.438 4.38915 -2.12614 0
M  V30 5778 H 533.443 3.48992 -4.24835 0
M  V30 5779 H 534.668 4.36813 -5.19972 0
M  V30 5780 H 532.614 5.63969 -3.35074 0
M  V30 5781 H 532.531 5.5976 -5.08138 0
M  V30 5782 H 533.799 6.49837 -4.30502 0
M  V30 5783 N 538.028 1.39524 0.732853 0
M  V30 5784 C 539.256 1.40143 1.52209 0
M  V30 5785 C 539.671 -0.00348836 1.888 0
M  V30 5786 O 539.028 -0.975357 1.5425 0
M  V30 5787 C 539.079 2.27632 2.8083 0
M  V30 5788 O 538.8 3.62654 2.45792 0
M  V30 5789 C 540.301 2.36658 3.74844 0
M  V30 5790 H 537.521 0.478604 0.470297 0
M  V30 5791 H 540.065 1.83366 0.905388 0
M  V30 5792 H 538.22 1.87818 3.38826 0
M  V30 5793 H 538.634 4.08941 3.28431 0
M  V30 5794 H 540.108 3.02118 4.61984 0
M  V30 5795 H 540.585 1.38638 4.16745 0
M  V30 5796 H 541.191 2.76951 3.22766 0
M  V30 5797 N 539.506 -0.963266 1.24736 0
M  V30 5798 C 540.439 -2.05758 0.986852 0
M  V30 5799 C 541.417 -1.62398 -0.0809272 0
M  V30 5800 O 542.601 -1.88414 0.0569347 0
M  V30 5801 C 539.728 -3.35135 0.490095 0
M  V30 5802 C 538.774 -3.97451 1.54709 0
M  V30 5803 S 539.607 -4.34519 3.12976 0
M  V30 5804 C 540.763 -5.67026 2.65014 0
M  V30 5805 H 540.996 -2.27539 1.91346 0
M  V30 5806 H 538.529 -1.10176 1.08169 0
M  V30 5807 H 540.487 -4.09962 0.21012 0
M  V30 5808 H 539.148 -3.11335 -0.415873 0
M  V30 5809 H 538.341 -4.90704 1.15003 0
M  V30 5810 H 537.943 -3.29071 1.77731 0
M  V30 5811 H 540.235 -6.44748 2.08102 0
M  V30 5812 H 541.178 -6.11594 3.56873 0
M  V30 5813 H 541.586 -5.25847 2.05294 0
M  V30 5814 N 540.985 -1.06182 -1.16461 0
M  V30 5815 C 542.396 -0.802426 -1.68576 0
M  V30 5816 C 542.747 0.67412 -1.84255 0
M  V30 5817 O 541.872 1.52303 -1.5373 0
M  V30 5818 C 542.467 -1.45002 -3.06202 0
M  V30 5819 C 541.026 -1.23843 -3.55443 0
M  V30 5820 C 540.173 -1.52724 -2.31454 0
M  V30 5821 H 543.124 -1.22545 -1.00839 0
M  V30 5822 H 543.145 -0.864731 -3.70544 0
M  V30 5823 H 542.657 -2.52466 -2.94759 0
M  V30 5824 H 540.758 -0.183487 -3.72148 0
M  V30 5825 H 540.871 -1.95036 -4.37604 0
M  V30 5826 H 539.235 -0.947726 -2.36411 0
M  V30 5827 H 540.018 -2.61343 -2.22609 0
M  V30 5828 N 542.463 1.3308 -0.844243 0
M  V30 5829 C 543.393 2.3161 -0.296493 0
M  V30 5830 C 544.374 1.59215 0.598707 0
M  V30 5831 O 545.559 1.87077 0.521134 0
M  V30 5832 C 542.689 3.43313 0.524762 0
M  V30 5833 C 541.643 4.27115 -0.275106 0
M  V30 5834 C 540.969 5.30483 0.670236 0
M  V30 5835 C 542.269 5.00443 -1.49514 0
M  V30 5836 H 543.963 2.77672 -1.11976 0
M  V30 5837 H 541.509 1.33496 -0.539899 0
M  V30 5838 H 543.462 4.11273 0.918298 0
M  V30 5839 H 542.186 2.95952 1.3813 0
M  V30 5840 H 540.845 3.60787 -0.650267 0
M  V30 5841 H 540.493 4.79379 1.52332 0
M  V30 5842 H 540.193 5.87435 0.139123 0
M  V30 5843 H 541.717 6.01308 1.06117 0
M  V30 5844 H 543.131 5.61141 -1.17447 0
M  V30 5845 H 541.528 5.67071 -1.96343 0
M  V30 5846 H 542.598 4.28906 -2.26202 0
M  V30 5847 N 543.941 0.601185 1.45683 0
M  V30 5848 C 545.169 0.100054 2.06658 0
M  V30 5849 C 545.584 -1.21285 1.44691 0
M  V30 5850 O 544.941 -1.73735 0.558772 0
M  V30 5851 C 544.992 -0.0528579 3.61461 0
M  V30 5852 O 544.713 1.20809 4.21114 0
M  V30 5853 C 546.214 -0.586193 4.39407 0
M  V30 5854 H 543.434 0.065905 0.667756 0
M  V30 5855 H 545.978 0.827101 1.87028 0
M  V30 5856 H 544.133 -0.730203 3.80456 0
M  V30 5857 H 544.547 1.03368 5.14213 0
M  V30 5858 H 546.021 -0.642297 5.4825 0
M  V30 5859 H 546.498 -1.60713 4.0874 0
M  V30 5860 H 547.104 0.0568935 4.25262 0
M  V30 5861 N 545.419 -1.53889 0.339982 0
M  V30 5862 C 546.644 -2.05741 -0.261798 0
M  V30 5863 C 547.069 -1.21354 -1.43718 0
M  V30 5864 O 546.427 -0.22645 -1.7988 0
M  V30 5865 C 546.475 -3.54542 -0.658228 0
M  V30 5866 O 545.579 -3.7302 -1.75869 0
M  V30 5867 H 544.92 -0.662529 -0.0441672 0
M  V30 5868 H 547.45 -1.98568 0.493161 0
M  V30 5869 H 547.46 -3.9711 -0.936368 0
M  V30 5870 H 546.135 -4.15412 0.201358 0
M  V30 5871 H 544.712 -3.42355 -1.47809 0
M  V30 5872 N 546.897 -0.0685191 -1.57451 0
M  V30 5873 C 548.125 0.610462 -1.97689 0
M  V30 5874 C 548.54 1.63346 -0.946758 0
M  V30 5875 O 547.897 1.82377 0.0669868 0
M  V30 5876 C 547.948 1.28196 -3.38006 0
M  V30 5877 O 547.669 0.299906 -4.37072 0
M  V30 5878 C 549.17 2.04907 -3.931 0
M  V30 5879 H 546.39 0.165689 -0.650222 0
M  V30 5880 H 548.934 -0.139953 -2.04021 0
M  V30 5881 H 547.089 1.98348 -3.32771 0
M  V30 5882 H 547.503 0.78126 -5.18649 0
M  V30 5883 H 548.977 2.47287 -4.93511 0
M  V30 5884 H 549.454 2.9043 -3.29465 0
M  V30 5885 H 550.06 1.39629 -4.01726 0
M  V30 5886 N 548.375 1.56261 0.205012 0
M  V30 5887 C 549.6 1.84491 0.947512 0
M  V30 5888 C 550.025 0.650894 1.76479 0
M  V30 5889 O 549.383 -0.40035 1.76824 0
M  V30 5890 C 549.431 3.10863 1.82747 0
M  V30 5891 O 548.535 2.90719 2.925 0
M  V30 5892 H 547.876 0.607783 0.267386 0
M  V30 5893 H 550.406 2.03485 0.213323 0
M  V30 5894 H 550.416 3.41399 2.23407 0
M  V30 5895 H 549.091 3.97392 1.2269 0
M  V30 5896 H 547.668 2.71457 2.55667 0
M  V30 5897 N 549.853 -0.472356 1.50355 0
M  V30 5898 C 550.783 -1.57859 1.72055 0
M  V30 5899 C 551.764 -1.60283 0.569505 0
M  V30 5900 O 552.949 -1.7657 0.808503 0
M  V30 5901 C 550.079 -2.96191 1.81351 0
M  V30 5902 C 549.033 -3.08633 2.96529 0
M  V30 5903 C 548.359 -4.486 2.90968 0
M  V30 5904 C 549.659 -2.85969 4.37057 0
M  V30 5905 H 551.353 -1.39953 2.64676 0
M  V30 5906 H 548.899 -0.671846 1.27367 0
M  V30 5907 H 550.852 -3.73507 1.95117 0
M  V30 5908 H 549.576 -3.15251 0.853502 0
M  V30 5909 H 548.235 -2.33749 2.82413 0
M  V30 5910 H 547.883 -4.64577 1.92815 0
M  V30 5911 H 547.583 -4.57861 3.68289 0
M  V30 5912 H 549.107 -5.27938 3.0678 0
M  V30 5913 H 550.521 -3.53036 4.51706 0
M  V30 5914 H 548.918 -3.06677 5.15819 0
M  V30 5915 H 549.988 -1.81838 4.49514 0
M  V30 5916 N 551.331 -1.39911 -0.725443 0
M  V30 5917 C 552.559 -1.40949 -1.51463 0
M  V30 5918 C 552.974 -0.0065242 -1.88799 0
M  V30 5919 O 552.331 0.967163 -1.54765 0
M  V30 5920 C 552.382 -2.29119 -2.79619 0
M  V30 5921 O 552.103 -3.63952 -2.43866 0
M  V30 5922 C 553.604 -2.38642 -3.73584 0
M  V30 5923 H 550.824 -0.481091 -0.467752 0
M  V30 5924 H 553.368 -1.83843 -0.895651 0
M  V30 5925 H 551.523 -1.89612 -3.37826 0
M  V30 5926 H 551.937 -4.10677 -3.26258 0
M  V30 5927 H 553.411 -3.04563 -4.60375 0
M  V30 5928 H 553.888 -1.40846 -4.16004 0
M  V30 5929 H 554.494 -2.78659 -3.21293 0
M  V30 5930 N 552.809 0.956637 -1.25245 0
M  V30 5931 C 554.058 1.69537 -1.0927 0
M  V30 5932 C 554.371 1.92136 0.366503 0
M  V30 5933 O 555.577 2.63687 0.64665 0
M  V30 5934 C 554.033 3.05211 -1.9072 0
M  V30 5935 C 553.641 2.90416 -3.41119 0
M  V30 5936 C 555.385 3.82882 -1.83308 0
M  V30 5937 C 553.292 4.21468 -4.14872 0
M  V30 5938 H 552.222 0.635804 -0.405302 0
M  V30 5939 H 554.873 1.06513 -1.49423 0
M  V30 5940 H 553.255 3.69128 -1.43389 0
M  V30 5941 H 554.429 2.35444 -3.9611 0
M  V30 5942 H 552.744 2.26203 -3.49602 0
M  V30 5943 H 555.341 4.79944 -2.35706 0
M  V30 5944 H 555.684 4.0853 -0.800572 0
M  V30 5945 H 556.217 3.25711 -2.28379 0
M  V30 5946 H 552.956 4.01009 -5.18529 0
M  V30 5947 H 552.476 4.76213 -3.64665 0
M  V30 5948 H 554.155 4.90022 -4.22478 0
M  V30 5949 N 554.287 1.06798 1.15896 0
M  V30 5950 C 555.535 0.786211 1.8618 0
M  V30 5951 C 555.856 -0.689547 1.82401 0
M  V30 5952 O 555.126 -1.49913 1.26107 0
M  V30 5953 H 553.706 0.287843 0.689315 0
M  V30 5954 H 556.368 1.35055 1.40521 0
M  V30 5955 H 555.464 1.1157 2.91477 0
M  V30 5956 N 555.766 -1.3263 0.851289 0
M  V30 5957 C 556.991 -2.02097 0.466006 0
M  V30 5958 C 557.416 -1.63574 -0.928709 0
M  V30 5959 O 556.774 -0.834665 -1.60944 0
M  V30 5960 C 556.822 -3.55425 0.608737 0
M  V30 5961 O 555.926 -4.10827 -0.359878 0
M  V30 5962 H 555.267 -0.636911 0.187724 0
M  V30 5963 H 557.797 -1.69253 1.14955 0
M  V30 5964 H 557.807 -4.04986 0.495006 0
M  V30 5965 H 556.482 -3.82806 1.62581 0
M  V30 5966 H 555.059 -3.72349 -0.202666 0
M  V30 5967 N 557.244 -0.608902 -1.45362 0
M  V30 5968 C 558.174 0.0964526 -2.33301 0
M  V30 5969 C 559.155 0.857444 -1.46908 0
M  V30 5970 O 560.34 0.827735 -1.75676 0
M  V30 5971 C 557.47 1.09354 -3.29635 0
M  V30 5972 C 556.424 0.445676 -4.25673 0
M  V30 5973 C 555.75 1.5511 -5.11708 0
M  V30 5974 C 557.05 -0.633972 -5.18438 0
M  V30 5975 H 558.744 -0.637829 -2.92527 0
M  V30 5976 H 556.29 -0.308178 -1.40664 0
M  V30 5977 H 558.243 1.59556 -3.90025 0
M  V30 5978 H 556.967 1.85843 -2.6857 0
M  V30 5979 H 555.626 -0.0354897 -3.66583 0
M  V30 5980 H 555.274 2.30631 -4.4701 0
M  V30 5981 H 554.974 1.12311 -5.76767 0
M  V30 5982 H 556.498 2.05537 -5.74967 0
M  V30 5983 H 557.912 -0.215974 -5.72893 0
M  V30 5984 H 556.309 -0.983789 -5.91981 0
M  V30 5985 H 557.379 -1.51005 -4.60788 0
M  V30 5986 N 558.722 1.53707 -0.348139 0
M  V30 5987 C 559.685 2.23812 0.494058 0
M  V30 5988 C 560.685 1.23989 1.02388 0
M  V30 5989 O 561.875 1.48395 0.912396 0
M  V30 5990 C 559.007 2.96133 1.68872 0
M  V30 5991 H 560.2 2.99663 -0.119141 0
M  V30 5992 H 557.753 1.55983 -0.0995539 0
M  V30 5993 H 558.488 2.24481 2.34049 0
M  V30 5994 H 558.273 3.69357 1.31596 0
M  V30 5995 H 559.763 3.49475 2.28597 0
M  V30 5996 N 560.2 0.0768682 1.57412 0
M  V30 5997 C 561.13 -0.886026 2.16037 0
M  V30 5998 C 562.111 -1.30691 1.08876 0
M  V30 5999 O 563.296 -1.37705 1.36934 0
M  V30 6000 C 560.426 -2.1518 2.72608 0
M  V30 6001 C 559.38 -1.87015 3.8498 0
M  V30 6002 C 558.706 -3.20266 4.28175 0
M  V30 6003 C 560.006 -1.17143 5.08994 0
M  V30 6004 H 561.7 -0.397642 2.96748 0
M  V30 6005 H 559.246 -0.189823 1.42743 0
M  V30 6006 H 561.199 -2.82962 3.12266 0
M  V30 6007 H 559.923 -2.66269 1.89125 0
M  V30 6008 H 558.582 -1.21636 3.45833 0
M  V30 6009 H 558.23 -3.69207 3.41607 0
M  V30 6010 H 557.93 -3.0221 5.03927 0
M  V30 6011 H 559.454 -3.89237 4.70454 0
M  V30 6012 H 560.868 -1.75003 5.45937 0
M  V30 6013 H 559.265 -1.09328 5.90057 0
M  V30 6014 H 560.335 -0.151295 4.84664 0
M  V30 6015 N 561.678 -1.56367 -0.196722 0
M  V30 6016 C 562.641 -1.93561 -1.22746 0
M  V30 6017 C 563.641 -0.816566 -1.38524 0
M  V30 6018 O 564.831 -1.084 -1.36363 0
M  V30 6019 C 561.963 -2.20823 -2.59712 0
M  V30 6020 H 563.156 -2.85774 -0.909586 0
M  V30 6021 H 560.709 -1.50032 -0.438174 0
M  V30 6022 H 561.444 -1.31243 -2.96557 0
M  V30 6023 H 561.229 -3.02368 -2.49632 0
M  V30 6024 H 562.719 -2.50608 -3.34044 0
M  V30 6025 N 563.156 0.464375 -1.50603 0
M  V30 6026 C 564.404 1.21356 -1.61608 0
M  V30 6027 C 564.725 1.92329 -0.321643 0
M  V30 6028 O 563.995 1.84403 0.661232 0
M  V30 6029 H 562.575 0.45094 -0.595535 0
M  V30 6030 H 565.237 0.535046 -1.87412 0
M  V30 6031 H 564.333 1.95783 -2.43054 0
M  V30 6032 N 564.634 1.40294 0.718013 0
M  V30 6033 C 565.567 1.34767 1.84155 0
M  V30 6034 C 566.545 0.218455 1.61126 0
M  V30 6035 O 567.729 0.401716 1.8417 0
M  V30 6036 C 564.856 1.09676 3.20451 0
M  V30 6037 C 563.902 2.25016 3.62312 0
M  V30 6038 S 564.735 3.87397 3.69707 0
M  V30 6039 C 565.891 3.64565 5.08766 0
M  V30 6040 H 566.124 2.29851 1.88562 0
M  V30 6041 H 563.657 1.2655 0.884555 0
M  V30 6042 H 565.615 0.95885 3.99144 0
M  V30 6043 H 564.276 0.162502 3.13679 0
M  V30 6044 H 563.469 2.03097 4.61268 0
M  V30 6045 H 563.071 2.35098 2.90869 0
M  V30 6046 H 565.363 3.22882 5.95612 0
M  V30 6047 H 566.306 4.63043 5.35721 0
M  V30 6048 H 566.714 2.98303 4.79245 0
M  V30 6049 N 566.112 -0.949982 1.2575 0
M  V30 6050 C 567.523 -1.50989 1.09815 0
M  V30 6051 C 567.874 -1.93497 -0.324556 0
M  V30 6052 O 566.999 -1.79068 -1.21506 0
M  V30 6053 C 567.594 -2.74394 1.98729 0
M  V30 6054 C 566.153 -3.26682 1.86965 0
M  V30 6055 C 565.3 -1.99498 1.92603 0
M  V30 6056 H 568.251 -0.766387 1.38968 0
M  V30 6057 H 568.272 -3.48383 1.53001 0
M  V30 6058 H 567.784 -2.43425 3.02268 0
M  V30 6059 H 565.885 -3.62461 0.863279 0
M  V30 6060 H 565.998 -3.94383 2.72027 0
M  V30 6061 H 564.362 -2.15005 1.36546 0
M  V30 6062 H 565.145 -1.70871 2.97755 0
M  V30 6063 N 567.59 -1.07411 -1.15328 0
M  V30 6064 C 568.837 -0.797649 -1.86128 0
M  V30 6065 C 569.165 0.676298 -1.82364 0
M  V30 6066 O 568.42 1.51223 -1.24218 0
M  V30 6067 C 568.719 -1.25191 -3.34757 0
M  V30 6068 C 568.385 -2.73191 -3.58716 0
M  V30 6069 C 567.047 -3.13616 -3.64964 0
M  V30 6070 C 569.399 -3.68718 -3.6837 0
M  V30 6071 C 566.727 -4.48383 -3.78377 0
M  V30 6072 C 569.079 -5.03248 -3.83306 0
M  V30 6073 C 567.743 -5.43293 -3.878 0
M  V30 6074 H 567.013 -0.29188 -0.681092 0
M  V30 6075 H 569.66 -1.34524 -1.36292 0
M  V30 6076 H 567.965 -0.623712 -3.86804 0
M  V30 6077 H 569.662 -1.01489 -3.87945 0
M  V30 6078 H 566.252 -2.40898 -3.54494 0
M  V30 6079 H 570.436 -3.38614 -3.62842 0
M  V30 6080 H 565.692 -4.78877 -3.80114 0
M  V30 6081 H 569.866 -5.77142 -3.89718 0
M  V30 6082 H 567.493 -6.47721 -3.97946 0
M  V30 6083 N 569.068 1.32177 -0.85831 0
M  V30 6084 C 569.998 2.31282 -0.321041 0
M  V30 6085 C 570.979 1.59841 0.581786 0
M  V30 6086 O 572.164 1.87619 0.501262 0
M  V30 6087 C 569.294 3.4385 0.48832 0
M  V30 6088 C 568.248 4.26799 -0.320391 0
M  V30 6089 C 567.574 5.31164 0.613934 0
M  V30 6090 C 568.874 4.98829 -1.54813 0
M  V30 6091 H 570.568 2.76469 -1.14915 0
M  V30 6092 H 568.114 1.32916 -0.554028 0
M  V30 6093 H 570.067 4.12224 0.874626 0
M  V30 6094 H 568.791 2.97401 1.34983 0
M  V30 6095 H 567.45 3.60077 -0.688497 0
M  V30 6096 H 567.098 4.80967 1.47239 0
M  V30 6097 H 566.798 5.8755 0.0768097 0
M  V30 6098 H 568.322 6.024 0.997336 0
M  V30 6099 H 569.736 5.59864 -1.23392 0
M  V30 6100 H 568.133 5.64957 -2.02346 0
M  V30 6101 H 569.203 4.26483 -2.30739 0
M  V30 6102 N 570.547 0.616602 1.45037 0
M  V30 6103 C 571.775 0.121968 2.0654 0
M  V30 6104 C 572.19 -1.19743 1.45969 0
M  V30 6105 O 571.547 -1.73133 0.577168 0
M  V30 6106 C 571.598 -0.0145171 3.61497 0
M  V30 6107 O 571.319 1.25269 4.19809 0
M  V30 6108 C 572.82 -0.539555 4.40004 0
M  V30 6109 H 570.04 0.0729837 0.667019 0
M  V30 6110 H 572.584 0.846891 1.8614 0
M  V30 6111 H 570.739 -0.689809 3.81209 0
M  V30 6112 H 571.153 1.08816 5.13088 0
M  V30 6113 H 572.627 -0.584112 5.48901 0
M  V30 6114 H 573.104 -1.56368 4.10421 0
M  V30 6115 H 573.71 0.101995 4.25178 0
M  V30 6116 N 572.025 -1.5352 0.356285 0
M  V30 6117 C 573.273 -2.00719 -0.235837 0
M  V30 6118 C 573.594 -1.24551 -1.5004 0
M  V30 6119 O 572.864 -0.356185 -1.92635 0
M  V30 6120 H 571.444 -0.741542 -0.0901366 0
M  V30 6121 H 574.106 -1.88887 0.480378 0
M  V30 6122 H 573.202 -3.08551 -0.469357 0
M  V30 6123 N 573.503 -0.0852151 -1.57369 0
M  V30 6124 C 574.75 0.580806 -1.93992 0
M  V30 6125 C 575.078 1.68801 -0.966252 0
M  V30 6126 O 574.333 1.95694 0.0158649 0
M  V30 6127 C 574.632 1.18482 -3.3719 0
M  V30 6128 C 574.298 0.2024 -4.50446 0
M  V30 6129 C 572.96 -0.0678318 -4.81152 0
M  V30 6130 C 575.312 -0.46895 -5.19086 0
M  V30 6131 C 572.64 -1.01627 -5.77831 0
M  V30 6132 C 574.992 -1.4058 -6.16782 0
M  V30 6133 C 573.656 -1.68436 -6.45899 0
M  V30 6134 H 572.926 0.212532 -0.709867 0
M  V30 6135 H 575.573 -0.158947 -1.90839 0
M  V30 6136 H 573.878 2.0006 -3.36873 0
M  V30 6137 H 575.575 1.70767 -3.62822 0
M  V30 6138 H 572.165 0.423208 -4.26505 0
M  V30 6139 H 576.349 -0.273307 -4.95547 0
M  V30 6140 H 571.605 -1.2392 -5.9871 0
M  V30 6141 H 575.779 -1.93188 -6.69068 0
M  V30 6142 H 573.406 -2.42088 -7.20623 0
M  V30 6143 N 574.981 1.5647 0.188427 0
M  V30 6144 C 576.211 1.84863 0.922463 0
M  V30 6145 C 576.619 0.666413 1.77075 0
M  V30 6146 O 575.962 -0.374044 1.79852 0
M  V30 6147 C 576.024 3.07447 1.86324 0
M  V30 6148 C 575.688 4.41066 1.19625 0
M  V30 6149 C 576.685 5.16767 0.569946 0
M  V30 6150 C 574.37 4.87802 1.19811 0
M  V30 6151 C 576.364 6.37384 -0.045594 0
M  V30 6152 C 574.051 6.08353 0.57874 0
M  V30 6153 C 575.049 6.82987 -0.0420259 0
M  V30 6154 O 574.737 8.01254 -0.651675 0
M  V30 6155 H 574.469 0.61784 0.274316 0
M  V30 6156 H 577.023 2.04437 0.198613 0
M  V30 6157 H 575.253 2.83774 2.62696 0
M  V30 6158 H 576.942 3.2243 2.46564 0
M  V30 6159 H 577.708 4.81749 0.560601 0
M  V30 6160 H 573.587 4.29662 1.67069 0
M  V30 6161 H 577.131 6.95578 -0.530731 0
M  V30 6162 H 573.028 6.42838 0.58561 0
M  V30 6163 H 573.796 8.16655 -0.549236 0
M  V30 6164 N 576.459 -0.456382 1.50847 0
M  V30 6165 C 577.684 -1.2349 1.66628 0
M  V30 6166 C 578.109 -1.84715 0.355254 0
M  V30 6167 O 577.467 -1.67961 -0.682559 0
M  V30 6168 C 577.515 -2.30865 2.77009 0
M  V30 6169 O 576.619 -3.35882 2.39285 0
M  V30 6170 H 575.96 -0.36266 0.556214 0
M  V30 6171 H 578.49 -0.541374 1.97308 0
M  V30 6172 H 578.5 -2.75949 3.00526 0
M  V30 6173 H 577.175 -1.85677 3.72152 0
M  V30 6174 H 575.752 -2.96406 2.26269 0
M  V30 6175 N 577.937 -1.40673 -0.710563 0
M  V30 6176 C 578.884 -1.41336 -1.82463 0
M  V30 6177 C 579.854 -0.269648 -1.63897 0
M  V30 6178 O 581.039 -0.468463 -1.8496 0
M  V30 6179 C 578.179 -1.28665 -3.20218 0
M  V30 6180 C 577.292 -2.52784 -3.5032 0
M  V30 6181 C 576.427 -2.32517 -4.77608 0
M  V30 6182 C 575.466 -3.52187 -5.0063 0
M  V30 6183 N 574.603 -3.31084 -6.19135 0
M  V30 6184 H 579.443 -2.36558 -1.8123 0
M  V30 6185 H 576.98 -1.17483 -0.885226 0
M  V30 6186 H 578.938 -1.19324 -3.99772 0
M  V30 6187 H 577.568 -0.370602 -3.20666 0
M  V30 6188 H 576.62 -2.72634 -2.65283 0
M  V30 6189 H 577.932 -3.41845 -3.63241 0
M  V30 6190 H 577.086 -2.20558 -5.65189 0
M  V30 6191 H 575.825 -1.40889 -4.66906 0
M  V30 6192 H 574.83 -3.64617 -4.11502 0
M  V30 6193 H 576.055 -4.44749 -5.13201 0
M  V30 6194 H 574.001 -2.42143 -6.09674 0
M  V30 6195 H 573.918 -4.13713 -6.32754 0
M  V30 6196 H 575.186 -3.22868 -7.0949 0
M  V30 6197 N 579.415 0.9433 -1.26252 0
M  V30 6198 C 580.692 1.66639 -1.02424 0
M  V30 6199 C 581.072 2.06335 0.446006 0
M  V30 6200 O 580.42 1.78551 1.42589 0
M  V30 6201 C 580.63 2.88019 -1.97094 0
M  V30 6202 C 581.978 3.59718 -2.25584 0
M  V30 6203 O 583.002 2.9812 -1.94943 0
M  V30 6204 O 581.861 4.7066 -2.77743 0
M  V30 6205 H 578.955 0.729643 -0.389294 0
M  V30 6206 H 581.501 0.995218 -1.37454 0
M  V30 6207 H 580.273 2.5556 -2.96319 0
M  V30 6208 H 579.896 3.62863 -1.62532 0
M  V30 6209 N 580.893 1.08022 1.14757 0
M  V30 6210 C 581.843 0.676345 2.17737 0
M  V30 6211 C 582.827 -0.302018 1.5804 0
M  V30 6212 O 584.019 -0.11466 1.76628 0
M  V30 6213 C 581.148 0.082984 3.432 0
M  V30 6214 C 580.234 1.0869 4.09936 0
M  V30 6215 N 580.625 2.26891 4.52055 0
M  V30 6216 C 578.923 0.921768 4.36371 0
M  V30 6217 C 579.624 2.90636 5.0389 0
M  V30 6218 N 578.6 2.18266 4.97856 0
M  V30 6219 H 582.402 1.5765 2.4804 0
M  V30 6220 H 579.916 0.954374 1.31398 0
M  V30 6221 H 581.913 -0.224289 4.16296 0
M  V30 6222 H 580.573 -0.812206 3.14378 0
M  V30 6223 H 581.584 2.6457 4.45223 0
M  V30 6224 H 578.261 0.0800499 4.17423 0
M  V30 6225 H 579.651 3.9104 5.46386 0
M  V30 6226 N 582.371 -1.3172 0.865308 0
M  V30 6227 C 583.62 -1.96145 0.470098 0
M  V30 6228 C 583.933 -1.69182 -0.981674 0
M  V30 6229 O 585.139 -2.27431 -1.48281 0
M  V30 6230 C 583.595 -3.51129 0.789732 0
M  V30 6231 C 583.203 -3.86938 2.25795 0
M  V30 6232 C 584.947 -4.2197 0.462765 0
M  V30 6233 C 582.854 -5.35012 2.52024 0
M  V30 6234 H 581.784 -0.734105 0.172065 0
M  V30 6235 H 584.435 -1.49959 1.05757 0
M  V30 6236 H 582.817 -3.95781 0.131571 0
M  V30 6237 H 583.991 -3.5326 2.95879 0
M  V30 6238 H 582.306 -3.29149 2.55049 0
M  V30 6239 H 584.903 -5.30904 0.636019 0
M  V30 6240 H 585.246 -4.12005 -0.59645 0
M  V30 6241 H 585.779 -3.82936 1.07727 0
M  V30 6242 H 582.518 -5.50008 3.56611 0
M  V30 6243 H 582.038 -5.70058 1.8653 0
M  V30 6244 H 583.717 -6.0222 2.36515 0
M  V30 6245 N 583.85 -0.624285 -1.44708 0
M  V30 6246 C 585.099 -0.123539 -2.01321 0
M  V30 6247 C 585.412 1.25966 -1.49639 0
M  V30 6248 O 586.618 1.85405 -1.98336 0
M  V30 6249 C 585.074 -0.170124 -3.59498 0
M  V30 6250 C 584.682 -1.55421 -4.20176 0
M  V30 6251 C 586.426 0.274513 -4.23611 0
M  V30 6252 C 584.332 -1.55628 -5.70556 0
M  V30 6253 H 583.263 -0.0424183 -0.752806 0
M  V30 6254 H 585.913 -0.782076 -1.65999 0
M  V30 6255 H 584.296 0.555385 -3.92086 0
M  V30 6256 H 585.47 -2.30276 -3.99136 0
M  V30 6257 H 583.784 -1.94235 -3.68323 0
M  V30 6258 H 586.382 0.292402 -5.339 0
M  V30 6259 H 586.725 1.3005 -3.95465 0
M  V30 6260 H 587.258 -0.398275 -3.95801 0
M  V30 6261 H 583.997 -2.56041 -6.03426 0
M  V30 6262 H 583.517 -0.850563 -5.93739 0
M  V30 6263 H 585.196 -1.28721 -6.34066 0
M  V30 6264 N 585.328 1.53329 -0.364422 0
M  V30 6265 C 586.238 2.29414 0.490552 0
M  V30 6266 C 587.254 1.35335 1.09363 0
M  V30 6267 O 588.43 1.68391 1.10483 0
M  V30 6268 C 585.495 3.06772 1.61529 0
M  V30 6269 C 584.556 4.16516 1.03986 0
M  V30 6270 C 583.789 4.90176 2.111 0
M  V30 6271 O 584.012 4.63687 3.32191 0
M  V30 6272 O 582.946 5.76134 1.74222 0
M  V30 6273 H 586.772 3.03428 -0.12856 0
M  V30 6274 H 584.357 1.48843 -0.128837 0
M  V30 6275 H 586.239 3.55082 2.26924 0
M  V30 6276 H 584.914 2.35596 2.21983 0
M  V30 6277 H 583.821 3.7246 0.349856 0
M  V30 6278 H 585.154 4.89855 0.4799 0
M  V30 6279 N 586.806 0.0935595 1.57322 0
M  V30 6280 C 588.034 -0.578934 1.98635 0
M  V30 6281 C 588.449 -1.61819 0.972626 0
M  V30 6282 O 587.806 -1.82461 -0.0379638 0
M  V30 6283 C 587.857 -1.22802 3.40003 0
M  V30 6284 O 587.578 -0.230334 4.37494 0
M  V30 6285 C 589.079 -1.98627 3.96311 0
M  V30 6286 H 586.299 -0.155324 0.652775 0
M  V30 6287 H 588.843 0.172393 2.03772 0
M  V30 6288 H 586.998 -1.93029 3.35885 0
M  V30 6289 H 587.412 -0.698649 5.19826 0
M  V30 6290 H 588.886 -2.39405 4.97382 0
M  V30 6291 H 589.363 -2.85151 3.34044 0
M  V30 6292 H 589.969 -1.3322 4.03897 0
M  V30 6293 N 588.284 -1.56567 -0.180126 0
M  V30 6294 C 589.247 -1.94852 -1.20686 0
M  V30 6295 C 590.247 -0.831212 -1.3765 0
M  V30 6296 O 591.437 -1.09841 -1.35206 0
M  V30 6297 C 588.569 -2.23565 -2.57355 0
M  V30 6298 H 589.762 -2.86722 -0.879225 0
M  V30 6299 H 587.315 -1.50489 -0.422237 0
M  V30 6300 H 588.05 -1.34381 -2.95148 0
M  V30 6301 H 587.835 -3.04999 -2.46411 0
M  V30 6302 H 589.325 -2.54137 -3.31367 0
M  V30 6303 N 589.762 0.448376 -1.51087 0
M  V30 6304 C 590.71 1.56407 -1.72161 0
M  V30 6305 C 591.704 1.58878 -0.587721 0
M  V30 6306 O 592.91 1.62755 -0.768822 0
M  V30 6307 H 589.285 0.519423 -0.543786 0
M  V30 6308 H 591.256 1.35803 -2.65707 0
M  V30 6309 C 590.005 2.94163 -1.85373 0
M  V30 6310 H 589.328 2.9299 -2.72024 0
M  V30 6311 H 590.768 3.71625 -2.04135 0
M  V30 6312 C 589.227 3.31317 -0.610803 0
M  V30 6313 O 589.757 4.00985 0.239636 0
M  V30 6314 N 587.963 2.86966 -0.458127 0
M  V30 6315 H 587.51 2.30443 -1.15124 0
M  V30 6316 H 587.468 3.12188 0.372289 0
M  V30 6317 N 591.24 1.41047 0.703093 0
M  V30 6318 C 592.173 1.36713 1.82715 0
M  V30 6319 C 593.151 0.235533 1.60885 0
M  V30 6320 O 594.335 0.421227 1.83733 0
M  V30 6321 C 591.462 1.13069 3.1927 0
M  V30 6322 C 590.508 2.28846 3.59905 0
M  V30 6323 S 591.341 3.91297 3.65578 0
M  V30 6324 C 592.497 3.69941 5.04871 0
M  V30 6325 H 592.73 2.31838 1.86114 0
M  V30 6326 H 590.263 1.27481 0.871083 0
M  V30 6327 H 592.221 1.00113 3.98105 0
M  V30 6328 H 590.882 0.195763 3.13489 0
M  V30 6329 H 590.075 2.07977 4.59088 0
M  V30 6330 H 589.677 2.3817 2.88359 0
M  V30 6331 H 591.969 3.29181 5.92154 0
M  V30 6332 H 592.912 4.68699 5.30779 0
M  V30 6333 H 593.32 3.03369 4.76054 0
M  V30 6334 N 592.718 -0.936591 1.26751 0
M  V30 6335 C 593.943 -1.72288 1.15462 0
M  V30 6336 C 594.368 -1.85915 -0.285887 0
M  V30 6337 O 593.726 -1.35272 -1.20711 0
M  V30 6338 C 593.774 -3.10503 1.83359 0
M  V30 6339 O 592.878 -3.96745 1.1255 0
M  V30 6340 H 592.219 -0.52843 0.402067 0
M  V30 6341 H 594.749 -1.17271 1.67656 0
M  V30 6342 H 594.759 -3.60867 1.90365 0
M  V30 6343 H 593.434 -2.99901 2.88153 0
M  V30 6344 H 592.011 -3.55191 1.13551 0
M  V30 6345 N 594.196 -1.08629 -1.14182 0
M  V30 6346 C 595.426 -0.837673 -1.88856 0
M  V30 6347 C 595.834 0.614024 -1.78959 0
M  V30 6348 O 595.177 1.43384 -1.14833 0
M  V30 6349 C 595.239 -1.18355 -3.39459 0
M  V30 6350 C 594.903 -2.63848 -3.73139 0
M  V30 6351 C 595.9 -3.62099 -3.73069 0
M  V30 6352 C 593.585 -2.99761 -4.03049 0
M  V30 6353 C 595.579 -4.94292 -4.02435 0
M  V30 6354 C 593.266 -4.32147 -4.32078 0
M  V30 6355 C 594.264 -5.29223 -4.31755 0
M  V30 6356 O 593.952 -6.59229 -4.60079 0
M  V30 6357 H 593.684 -0.301609 -0.604986 0
M  V30 6358 H 596.238 -1.44961 -1.45518 0
M  V30 6359 H 594.468 -0.514628 -3.8326 0
M  V30 6360 H 596.157 -0.915391 -3.95443 0
M  V30 6361 H 596.923 -3.35698 -3.50046 0
M  V30 6362 H 592.802 -2.2484 -4.02453 0
M  V30 6363 H 596.346 -5.70055 -4.02098 0
M  V30 6364 H 592.243 -4.58296 -4.54571 0
M  V30 6365 H 593.011 -6.64578 -4.77785 0
M  V30 6366 N 595.674 1.31259 -0.872281 0
M  V30 6367 C 596.902 2.00795 -0.498907 0
M  V30 6368 C 597.317 1.65464 0.909238 0
M  V30 6369 O 596.674 0.885073 1.59602 0
M  V30 6370 C 596.725 3.55625 -0.649092 0
M  V30 6371 O 596.446 3.89692 -2.00179 0
M  V30 6372 C 597.947 4.42434 -0.277034 0
M  V30 6373 H 595.167 0.642299 -0.194145 0
M  V30 6374 H 597.711 1.67438 -1.17408 0
M  V30 6375 H 595.866 3.87394 -0.0214402 0
M  V30 6376 H 596.28 4.84407 -2.01122 0
M  V30 6377 H 597.754 5.50299 -0.433064 0
M  V30 6378 H 598.231 4.32146 0.783989 0
M  V30 6379 H 598.837 4.16086 -0.880483 0
M  V30 6380 N 597.152 0.631951 1.44375 0
M  V30 6381 C 598.1 -0.0846693 2.32446 0
M  V30 6382 C 599.094 -0.834957 1.47393 0
M  V30 6383 O 600.3 -0.747764 1.63733 0
M  V30 6384 H 596.675 -0.0461508 0.750583 0
M  V30 6385 H 598.646 0.67619 2.90638 0
M  V30 6386 C 597.395 -1.05211 3.314 0
M  V30 6387 H 596.718 -0.484203 3.96857 0
M  V30 6388 H 598.158 -1.523 3.95703 0
M  V30 6389 C 596.617 -2.13776 2.60387 0
M  V30 6390 O 597.147 -3.21869 2.4034 0
M  V30 6391 N 595.353 -1.89733 2.20113 0
M  V30 6392 H 594.9 -1.01833 2.36618 0
M  V30 6393 H 594.858 -2.62572 1.72926 0
M  V30 6394 N 598.631 -1.53133 0.372548 0
M  V30 6395 C 599.594 -2.24569 -0.458389 0
M  V30 6396 C 600.594 -1.25603 -1.00402 0
M  V30 6397 O 601.784 -1.49827 -0.888672 0
M  V30 6398 C 598.916 -2.98783 -1.6414 0
M  V30 6399 H 600.109 -2.99436 0.166799 0
M  V30 6400 H 597.662 -1.55805 0.124357 0
M  V30 6401 H 598.397 -2.28176 -2.30448 0
M  V30 6402 H 598.182 -3.71404 -1.25704 0
M  V30 6403 H 599.672 -3.53068 -2.23008 0
M  V30 6404 N 600.109 -0.101901 -1.5727 0
M  V30 6405 C 601.355 0.554864 -1.95686 0
M  V30 6406 C 601.71 1.65368 -0.983415 0
M  V30 6407 O 601.003 1.91597 -0.0105374 0
M  V30 6408 C 601.197 1.14898 -3.38427 0
M  V30 6409 C 601.026 0.109251 -4.49567 0
M  V30 6410 C 599.796 -0.316633 -5.04307 0
M  V30 6411 C 601.994 -0.665196 -5.0998 0
M  V30 6412 N 599.976 -1.34393 -5.99009 0
M  V30 6413 C 601.347 -1.54413 -6.00464 0
M  V30 6414 C 603.402 -0.717966 -4.92696 0
M  V30 6415 C 602.105 -2.47122 -6.75517 0
M  V30 6416 C 604.131 -1.63268 -5.68417 0
M  V30 6417 C 603.493 -2.49923 -6.58572 0
M  V30 6418 H 599.592 0.17317 -0.762585 0
M  V30 6419 H 602.176 -0.18605 -1.93809 0
M  V30 6420 H 600.347 1.85969 -3.40984 0
M  V30 6421 H 602.079 1.76867 -3.64006 0
M  V30 6422 H 598.834 0.0724419 -4.73545 0
M  V30 6423 H 599.258 -1.85598 -6.51062 0
M  V30 6424 H 603.9 -0.0621637 -4.22754 0
M  V30 6425 H 601.618 -3.13724 -7.44717 0
M  V30 6426 H 605.204 -1.67874 -5.57054 0
M  V30 6427 H 604.084 -3.19553 -7.16139 0
M  V30 6428 N 601.587 1.56661 0.17182 0
M  V30 6429 C 602.55 1.9549 1.19651 0
M  V30 6430 C 603.55 0.838501 1.37207 0
M  V30 6431 O 604.74 1.10556 1.34622 0
M  V30 6432 C 601.872 2.24927 2.56166 0
M  V30 6433 H 603.065 2.87184 0.864007 0
M  V30 6434 H 600.618 1.50711 0.41425 0
M  V30 6435 H 601.353 1.35944 2.94431 0
M  V30 6436 H 601.138 3.06301 2.4479 0
M  V30 6437 H 602.628 2.55891 3.30014 0
M  V30 6438 N 603.065 -0.440357 1.51323 0
M  V30 6439 C 603.995 -1.54174 1.75364 0
M  V30 6440 C 604.976 -1.59039 0.603375 0
M  V30 6441 O 606.161 -1.74815 0.845774 0
M  V30 6442 C 603.291 -2.92277 1.87593 0
M  V30 6443 C 602.245 -3.02274 3.03009 0
M  V30 6444 C 601.571 -4.42327 3.00418 0
M  V30 6445 C 602.871 -2.76634 4.43024 0
M  V30 6446 H 604.565 -1.34307 2.67585 0
M  V30 6447 H 602.111 -0.644678 1.28763 0
M  V30 6448 H 604.064 -3.69284 2.02995 0
M  V30 6449 H 602.788 -3.13369 0.920179 0
M  V30 6450 H 601.447 -2.27706 2.87307 0
M  V30 6451 H 601.095 -4.60382 2.02626 0
M  V30 6452 H 600.795 -4.49946 3.77918 0
M  V30 6453 H 602.319 -5.21312 3.17909 0
M  V30 6454 H 603.733 -3.43376 4.59093 0
M  V30 6455 H 602.13 -2.95666 5.22208 0
M  V30 6456 H 603.2 -1.72262 4.5327 0
M  V30 6457 N 604.543 -1.41418 -0.695603 0
M  V30 6458 C 605.768 -1.44329 -1.48942 0
M  V30 6459 C 606.193 -0.0501579 -1.88033 0
M  V30 6460 O 605.551 0.946598 -1.54626 0
M  V30 6461 C 605.599 -2.3578 -2.72837 0
M  V30 6462 O 604.703 -1.81482 -3.70322 0
M  V30 6463 H 604.044 -0.489838 -0.44828 0
M  V30 6464 H 606.574 -1.85878 -0.855014 0
M  V30 6465 H 606.584 -2.51654 -3.21145 0
M  V30 6466 H 605.259 -3.37005 -2.43722 0
M  V30 6467 H 603.836 -1.75058 -3.29255 0
M  V30 6468 N 606.021 0.929856 -1.27246 0
M  V30 6469 C 607.27 1.67182 -1.12842 0
M  V30 6470 C 607.583 1.9287 0.325666 0
M  V30 6471 O 608.789 2.64999 0.590572 0
M  V30 6472 C 607.245 3.01097 -1.97151 0
M  V30 6473 C 606.853 2.83115 -3.47203 0
M  V30 6474 C 608.597 3.78907 -1.91389 0
M  V30 6475 C 606.504 4.12573 -4.23719 0
M  V30 6476 H 605.434 0.627064 -0.418697 0
M  V30 6477 H 608.085 1.0332 -1.51649 0
M  V30 6478 H 606.467 3.66004 -1.51186 0
M  V30 6479 H 607.641 2.26989 -4.01015 0
M  V30 6480 H 605.956 2.18736 -3.54321 0
M  V30 6481 H 608.553 4.74837 -2.45834 0
M  V30 6482 H 608.896 4.0674 -0.887047 0
M  V30 6483 H 609.429 3.20794 -2.35237 0
M  V30 6484 H 606.168 3.8992 -5.26918 0
M  V30 6485 H 605.688 4.68371 -3.74685 0
M  V30 6486 H 607.367 4.8095 -4.32777 0
M  V30 6487 N 607.499 1.09233 1.13605 0
M  V30 6488 C 608.727 0.848908 1.88683 0
M  V30 6489 C 609.142 -0.599667 1.79024 0
M  V30 6490 O 608.499 -1.41265 1.15544 0
M  V30 6491 C 608.55 1.27273 3.38355 0
M  V30 6492 O 608.271 2.66449 3.47759 0
M  V30 6493 C 609.772 1.0614 4.30406 0
M  V30 6494 H 606.992 0.305549 0.597395 0
M  V30 6495 H 609.536 1.4538 1.43823 0
M  V30 6496 H 607.691 0.711776 3.80805 0
M  V30 6497 H 608.105 2.84264 4.40788 0
M  V30 6498 H 609.579 1.40725 5.33761 0
M  V30 6499 H 610.056 -0.000960332 4.392 0
M  V30 6500 H 610.662 1.60821 3.93722 0
M  V30 6501 N 608.977 -1.30795 0.87923 0
M  V30 6502 C 609.907 -2.30742 0.357796 0
M  V30 6503 C 610.888 -1.60747 -0.556283 0
M  V30 6504 O 612.073 -1.88393 -0.47135 0
M  V30 6505 C 609.203 -3.44583 -0.433555 0
M  V30 6506 C 608.157 -4.26235 0.388251 0
M  V30 6507 C 607.483 -5.32073 -0.529352 0
M  V30 6508 C 608.783 -4.96303 1.62729 0
M  V30 6509 H 610.477 -2.74605 1.19299 0
M  V30 6510 H 608.023 -1.32017 0.575104 0
M  V30 6511 H 609.976 -4.13563 -0.808934 0
M  V30 6512 H 608.7 -2.99511 -1.30234 0
M  V30 6513 H 607.359 -3.58936 0.745695 0
M  V30 6514 H 607.007 -4.83249 -1.39569 0
M  V30 6515 H 606.707 -5.87598 0.0166741 0
M  V30 6516 H 608.231 -6.0391 -0.901373 0
M  V30 6517 H 609.645 -5.5783 1.32283 0
M  V30 6518 H 608.042 -5.61666 2.11309 0
M  V30 6519 H 609.112 -4.22758 2.37494 0
M  V30 6520 N 610.455 -0.639598 -1.44038 0
M  V30 6521 C 611.704 -0.144885 -2.01179 0
M  V30 6522 C 612.017 1.24372 -1.50967 0
M  V30 6523 O 613.223 1.83291 -2.00292 0
M  V30 6524 C 611.679 -0.208244 -3.59297 0
M  V30 6525 C 611.287 -1.59869 -4.18504 0
M  V30 6526 C 613.031 0.229568 -4.23879 0
M  V30 6527 C 610.938 -1.61671 -5.68873 0
M  V30 6528 H 609.868 -0.0504005 -0.752314 0
M  V30 6529 H 612.519 -0.799639 -1.65161 0
M  V30 6530 H 610.901 0.513767 -3.92653 0
M  V30 6531 H 612.075 -2.34496 -3.96671 0
M  V30 6532 H 610.39 -1.98131 -3.66242 0
M  V30 6533 H 612.987 0.235758 -5.3418 0
M  V30 6534 H 613.33 1.25848 -3.96822 0
M  V30 6535 H 613.863 -0.440233 -3.95357 0
M  V30 6536 H 610.602 -2.62427 -6.00677 0
M  V30 6537 H 610.122 -0.913489 -5.92803 0
M  V30 6538 H 611.801 -1.35439 -6.32665 0
M  V30 6539 N 611.933 1.52934 -0.380664 0
M  V30 6540 C 612.896 2.24809 0.446473 0
M  V30 6541 C 613.896 1.26133 0.997347 0
M  V30 6542 O 615.086 1.50297 0.880714 0
M  V30 6543 C 612.218 2.99649 1.62553 0
M  V30 6544 H 613.411 2.99343 -0.182677 0
M  V30 6545 H 610.964 1.55736 -0.132618 0
M  V30 6546 H 611.699 2.29395 2.29235 0
M  V30 6547 H 611.484 3.72066 1.23732 0
M  V30 6548 H 612.974 3.54246 2.21133 0
M  V30 6549 N 613.412 0.11024 1.57214 0
M  V30 6550 C 614.64 -0.557834 1.99238 0
M  V30 6551 C 615.055 -1.60778 0.989734 0
M  V30 6552 O 614.412 -1.82491 -0.0186092 0
M  V30 6553 C 614.463 -1.19189 3.41286 0
M  V30 6554 O 614.184 -0.183919 4.37714 0
M  V30 6555 C 615.685 -1.94413 3.98395 0
M  V30 6556 H 612.905 -0.148392 0.654386 0
M  V30 6557 H 615.449 0.193996 2.03578 0
M  V30 6558 H 613.604 -1.89456 3.37913 0
M  V30 6559 H 614.018 -0.643475 5.20538 0
M  V30 6560 H 615.492 -2.34116 4.99894 0
M  V30 6561 H 615.969 -2.81592 3.3705 0
M  V30 6562 H 616.575 -1.28928 4.05287 0
M  V30 6563 N 614.89 -1.56749 -0.16351 0
M  V30 6564 C 616.115 -1.86938 -0.898264 0
M  V30 6565 C 616.54 -0.697456 -1.74692 0
M  V30 6566 O 615.898 0.353327 -1.77824 0
M  V30 6567 C 615.946 -3.15599 -1.74441 0
M  V30 6568 O 615.05 -2.98371 -2.8469 0
M  V30 6569 H 614.391 -0.614659 -0.251178 0
M  V30 6570 H 616.921 -2.03979 -0.159298 0
M  V30 6571 H 616.931 -3.47202 -2.14277 0
M  V30 6572 H 615.606 -4.00505 -1.1211 0
M  V30 6573 H 614.183 -2.7814 -2.4838 0
M  V30 6574 N 616.368 0.432326 -1.51554 0
M  V30 6575 C 617.298 1.53242 -1.76179 0
M  V30 6576 C 618.279 1.58717 -0.611801 0
M  V30 6577 O 619.464 1.74364 -0.855033 0
M  V30 6578 C 616.594 2.91278 -1.89141 0
M  V30 6579 C 615.548 3.00663 -3.04608 0
M  V30 6580 C 614.874 4.40728 -3.02759 0
M  V30 6581 C 616.174 2.74281 -4.44485 0
M  V30 6582 H 617.868 1.32886 -2.68294 0
M  V30 6583 H 615.414 0.637841 -1.29103 0
M  V30 6584 H 617.367 3.68203 -2.04951 0
M  V30 6585 H 616.091 3.12877 -0.936785 0
M  V30 6586 H 614.75 2.26179 -2.88511 0
M  V30 6587 H 614.398 4.59301 -2.05065 0
M  V30 6588 H 614.098 4.47936 -3.80299 0
M  V30 6589 H 615.622 5.19619 -3.20669 0
M  V30 6590 H 617.036 3.40936 -4.60907 0
M  V30 6591 H 615.433 2.92893 -5.23769 0
M  V30 6592 H 616.503 1.69856 -4.54177 0
M  V30 6593 N 617.846 1.41785 0.688094 0
M  V30 6594 C 619.074 1.44915 1.47673 0
M  V30 6595 C 619.489 0.0565786 1.88715 0
M  V30 6596 O 618.846 -0.92579 1.57275 0
M  V30 6597 C 618.897 2.36452 2.73446 0
M  V30 6598 O 618.618 3.7029 2.34131 0
M  V30 6599 C 620.119 2.48463 3.67125 0
M  V30 6600 H 617.339 0.493324 0.454832 0
M  V30 6601 H 619.883 1.86153 0.846594 0
M  V30 6602 H 618.038 1.98502 3.3268 0
M  V30 6603 H 618.452 4.19183 3.15255 0
M  V30 6604 H 619.926 3.16662 4.52138 0
M  V30 6605 H 620.403 1.51826 4.12123 0
M  V30 6606 H 621.009 2.8708 3.13792 0
M  V30 6607 N 619.324 -0.923095 1.27737 0
M  V30 6608 C 620.549 -1.71054 1.17283 0
M  V30 6609 C 620.974 -1.86208 -0.266153 0
M  V30 6610 O 620.332 -1.36545 -1.1927 0
M  V30 6611 C 620.38 -3.0854 1.86642 0
M  V30 6612 O 619.484 -3.95528 1.16752 0
M  V30 6613 H 618.825 -0.524136 0.407649 0
M  V30 6614 H 621.355 -1.15487 1.6889 0
M  V30 6615 H 621.365 -3.58828 1.94182 0
M  V30 6616 H 620.04 -2.96828 2.91317 0
M  V30 6617 H 618.617 -3.53967 1.17312 0
M  V30 6618 N 620.802 -1.09834 -1.13024 0
M  V30 6619 C 621.765 -0.745058 -2.16752 0
M  V30 6620 C 622.765 0.227435 -1.59183 0
M  V30 6621 O 623.955 0.0050786 -1.74199 0
M  V30 6622 C 621.087 -0.102543 -3.40746 0
M  V30 6623 H 622.28 -1.66375 -2.49518 0
M  V30 6624 H 619.833 -0.898061 -1.27924 0
M  V30 6625 H 620.568 0.827177 -3.13573 0
M  V30 6626 H 620.353 -0.80235 -3.83803 0
M  V30 6627 H 621.843 0.129082 -4.174 0
M  V30 6628 N 622.28 1.30327 -0.886154 0
M  V30 6629 C 623.51 1.99964 -0.519421 0
M  V30 6630 C 623.918 1.66593 0.89686 0
M  V30 6631 O 623.261 0.899886 1.60149 0
M  V30 6632 C 623.323 3.54187 -0.615795 0
M  V30 6633 C 622.987 4.11078 -1.9966 0
M  V30 6634 C 623.984 4.26985 -2.96614 0
M  V30 6635 C 621.669 4.46429 -2.30231 0
M  V30 6636 C 623.663 4.77456 -4.22273 0
M  V30 6637 C 621.35 4.966 -3.56135 0
M  V30 6638 C 622.348 5.12066 -4.5197 0
M  V30 6639 O 622.036 5.61154 -5.7564 0
M  V30 6640 H 621.768 0.645979 -0.199217 0
M  V30 6641 H 624.322 1.67154 -1.19368 0
M  V30 6642 H 622.552 3.86528 0.115448 0
M  V30 6643 H 624.241 4.05065 -0.26017 0
M  V30 6644 H 625.007 3.99975 -2.74308 0
M  V30 6645 H 620.886 4.33658 -1.56404 0
M  V30 6646 H 624.43 4.89444 -4.97082 0
M  V30 6647 H 620.327 5.23045 -3.78277 0
M  V30 6648 H 621.095 5.79494 -5.78039 0
M  V30 6649 N 623.758 0.647228 1.43697 0
M  V30 6650 C 624.983 0.164083 2.0675 0
M  V30 6651 C 625.408 -1.15892 1.48158 0
M  V30 6652 O 624.766 -1.71459 0.589194 0
M  V30 6653 C 624.814 0.0800368 3.60511 0
M  V30 6654 O 623.918 -0.959453 4.01084 0
M  V30 6655 H 623.259 0.0921288 0.657578 0
M  V30 6656 H 625.789 0.88846 1.84303 0
M  V30 6657 H 625.799 -0.105263 4.07864 0
M  V30 6658 H 624.474 1.04586 4.02535 0
M  V30 6659 H 623.051 -0.747425 3.65333 0
M  V30 6660 N 625.236 -1.5273 0.388769 0
M  V30 6661 C 626.464 -2.05992 -0.193677 0
M  V30 6662 C 626.879 -1.26053 -1.40557 0
M  V30 6663 O 626.236 -0.307049 -1.79898 0
M  V30 6664 C 626.287 -3.57068 -0.564321 0
M  V30 6665 O 626.008 -4.3398 0.599422 0
M  V30 6666 C 627.509 -4.26674 -1.20269 0
M  V30 6667 H 624.729 -0.670358 -0.0293445 0
M  V30 6668 H 627.273 -1.96857 0.553844 0
M  V30 6669 H 625.428 -3.66277 -1.26174 0
M  V30 6670 H 625.842 -5.2367 0.294895 0
M  V30 6671 H 627.316 -5.33625 -1.4124 0
M  V30 6672 H 627.793 -3.81854 -2.16989 0
M  V30 6673 H 628.399 -4.2178 -0.546047 0
M  V30 6674 N 626.714 -0.118576 -1.57153 0
M  V30 6675 C 628.13 0.238014 -1.57815 0
M  V30 6676 C 628.33 1.66747 -1.13127 0
M  V30 6677 O 627.386 2.38867 -0.818462 0
M  V30 6678 C 628.699 0.00508207 -3.007 0
M  V30 6679 C 630.247 0.0710139 -3.12919 0
M  V30 6680 C 630.722 -0.13422 -4.57803 0
M  V30 6681 N 632.213 -0.0801755 -4.63131 0
M  V30 6682 C 632.948 -0.213885 -5.73001 0
M  V30 6683 N 632.444 -0.403742 -6.91623 0
M  V30 6684 N 634.237 -0.15349 -5.6189 0
M  V30 6685 H 626.388 -1.05226 -1.84503 0
M  V30 6686 H 628.651 -0.414318 -0.852669 0
M  V30 6687 H 628.357 -0.983125 -3.3768 0
M  V30 6688 H 628.231 0.73714 -3.69927 0
M  V30 6689 H 630.618 1.04975 -2.75798 0
M  V30 6690 H 630.699 -0.692918 -2.46236 0
M  V30 6691 H 630.343 -1.10992 -4.95624 0
M  V30 6692 H 630.273 0.649692 -5.22577 0
M  V30 6693 H 632.764 0.0630689 -3.77847 0
M  V30 6694 H 633.077 -0.496645 -7.71202 0
M  V30 6695 H 631.422 -0.43971 -6.93608 0
M  V30 6696 H 634.613 -0.00613174 -4.681 0
M  V30 6697 H 634.786 -0.261138 -6.47474 0
M  V30 6698 N 628.193 1.56834 0.155195 0
M  V30 6699 C 629.126 1.9278 1.22111 0
M  V30 6700 C 630.104 0.792588 1.41975 0
M  V30 6701 O 631.288 1.04743 1.5672 0
M  V30 6702 C 628.415 2.19273 2.58142 0
M  V30 6703 C 627.461 3.41932 2.54921 0
M  V30 6704 S 628.294 4.95769 2.02418 0
M  V30 6705 C 629.45 5.25375 3.40194 0
M  V30 6706 H 629.683 2.82889 0.914393 0
M  V30 6707 H 627.216 1.50133 0.360461 0
M  V30 6708 H 629.174 2.35217 3.36427 0
M  V30 6709 H 627.835 1.29843 2.86007 0
M  V30 6710 H 627.028 3.57721 3.55038 0
M  V30 6711 H 626.63 3.25188 1.8474 0
M  V30 6712 H 628.922 5.1834 4.36268 0
M  V30 6713 H 629.865 6.26889 3.29266 0
M  V30 6714 H 630.273 4.52906 3.36951 0
M  V30 6715 N 629.671 -0.424282 1.51781 0
M  V30 6716 C 630.92 -1.16961 1.64326 0
M  V30 6717 C 631.233 -1.92035 0.371749 0
M  V30 6718 O 632.439 -2.68873 0.37676 0
M  V30 6719 C 630.895 -2.12782 2.90262 0
M  V30 6720 C 630.503 -1.43295 4.24465 0
M  V30 6721 C 632.247 -2.87667 3.12166 0
M  V30 6722 C 630.154 -2.37676 5.41538 0
M  V30 6723 H 629.084 -0.440293 0.612093 0
M  V30 6724 H 631.735 -0.435431 1.78259 0
M  V30 6725 H 630.117 -2.8969 2.69992 0
M  V30 6726 H 631.291 -0.718564 4.55163 0
M  V30 6727 H 629.606 -0.805118 4.08542 0
M  V30 6728 H 632.203 -3.58395 3.96808 0
M  V30 6729 H 632.546 -3.49758 2.25776 0
M  V30 6730 H 633.079 -2.17863 3.32837 0
M  V30 6731 H 629.818 -1.80255 6.30229 0
M  V30 6732 H 629.338 -3.07132 5.15199 0
M  V30 6733 H 631.017 -2.98529 5.74012 0
M  V30 6734 N 631.149 -1.42148 -0.680565 0
M  V30 6735 C 632.079 -1.4796 -1.80638 0
M  V30 6736 C 633.06 -0.336728 -1.66734 0
M  V30 6737 O 634.245 -0.550247 -1.86242 0
M  V30 6738 C 631.375 -1.37569 -3.18892 0
M  V30 6739 C 630.329 -2.49823 -3.47524 0
M  V30 6740 C 629.655 -2.24491 -4.85291 0
M  V30 6741 C 630.955 -3.92144 -3.44994 0
M  V30 6742 H 632.649 -2.42184 -1.76032 0
M  V30 6743 H 630.195 -1.16566 -0.845481 0
M  V30 6744 H 632.148 -1.40243 -3.97379 0
M  V30 6745 H 630.872 -0.398357 -3.24162 0
M  V30 6746 H 629.531 -2.46455 -2.71395 0
M  V30 6747 H 629.179 -1.25066 -4.87204 0
M  V30 6748 H 628.879 -2.99722 -5.05411 0
M  V30 6749 H 630.403 -2.28906 -5.66069 0
M  V30 6750 H 631.817 -3.97145 -4.13459 0
M  V30 6751 H 630.214 -4.67179 -3.76648 0
M  V30 6752 H 631.284 -4.19225 -2.43676 0
M  V30 6753 N 632.627 0.916307 -1.28225 0
M  V30 6754 C 633.557 2.0352 -1.14464 0
M  V30 6755 C 634.538 1.70045 -0.0430844 0
M  V30 6756 O 635.723 1.92954 -0.219619 0
M  V30 6757 C 632.853 3.37889 -0.803027 0
M  V30 6758 C 631.807 3.85516 -1.85908 0
M  V30 6759 C 631.133 5.1682 -1.37116 0
M  V30 6760 C 632.433 4.07655 -3.26519 0
M  V30 6761 H 634.127 2.1529 -2.08064 0
M  V30 6762 H 631.673 1.03446 -1.00174 0
M  V30 6763 H 633.626 4.15654 -0.693537 0
M  V30 6764 H 632.35 3.26164 0.168674 0
M  V30 6765 H 631.009 3.09953 -1.95767 0
M  V30 6766 H 630.657 5.01497 -0.38859 0
M  V30 6767 H 630.357 5.49657 -2.07728 0
M  V30 6768 H 631.881 5.97143 -1.27484 0
M  V30 6769 H 633.295 4.75953 -3.19596 0
M  V30 6770 H 631.692 4.51818 -3.94943 0
M  V30 6771 H 632.762 3.12553 -3.70727 0
M  V30 6772 N 634.105 1.10431 1.1244 0
M  V30 6773 C 635.333 0.868872 1.87772 0
M  V30 6774 C 635.748 -0.580645 1.7965 0
M  V30 6775 O 635.105 -1.40031 1.17036 0
M  V30 6776 C 635.156 1.30855 3.36986 0
M  V30 6777 O 634.877 2.70123 3.44914 0
M  V30 6778 C 636.378 1.107 4.29256 0
M  V30 6779 H 633.598 0.311868 0.59412 0
M  V30 6780 H 636.142 1.46897 1.42273 0
M  V30 6781 H 634.297 0.752126 3.80029 0
M  V30 6782 H 634.711 2.88923 4.37748 0
M  V30 6783 H 636.185 1.46378 5.32238 0
M  V30 6784 H 636.662 0.0456228 4.39176 0
M  V30 6785 H 637.268 1.64988 3.91994 0
M  V30 6786 N 635.583 -1.29855 0.893053 0
M  V30 6787 C 636.513 -2.3035 0.382249 0
M  V30 6788 C 637.494 -1.61328 -0.539203 0
M  V30 6789 O 638.679 -1.88882 -0.451342 0
M  V30 6790 C 635.809 -3.45024 -0.396983 0
M  V30 6791 C 634.763 -4.258 0.433437 0
M  V30 6792 C 634.089 -5.32605 -0.472889 0
M  V30 6793 C 635.389 -4.94549 1.67984 0
M  V30 6794 H 637.083 -2.73325 1.22205 0
M  V30 6795 H 634.629 -1.314 0.589073 0
M  V30 6796 H 636.582 -4.14398 -0.765024 0
M  V30 6797 H 635.306 -3.00875 -1.2705 0
M  V30 6798 H 633.965 -3.58125 0.783723 0
M  V30 6799 H 633.613 -4.84702 -1.34435 0
M  V30 6800 H 633.313 -5.87547 0.0789958 0
M  V30 6801 H 634.837 -6.04832 -0.837269 0
M  V30 6802 H 636.251 -5.56395 1.38192 0
M  V30 6803 H 634.648 -5.59393 2.17254 0
M  V30 6804 H 635.718 -4.20215 2.41965 0
M  V30 6805 N 637.061 -0.65484 -1.43351 0
M  V30 6806 C 638.289 -0.176685 -2.06144 0
M  V30 6807 C 638.704 1.15831 -1.49093 0
M  V30 6808 O 638.061 1.71542 -0.622868 0
M  V30 6809 C 638.112 -0.0813326 -3.61408 0
M  V30 6810 O 637.833 -1.36355 -4.1634 0
M  V30 6811 C 639.334 0.422706 -4.4128 0
M  V30 6812 H 636.554 -0.0906429 -0.66485 0
M  V30 6813 H 639.098 -0.895945 -1.83829 0
M  V30 6814 H 637.253 0.588496 -3.82904 0
M  V30 6815 H 637.667 -1.22381 -5.10023 0
M  V30 6816 H 639.141 0.438375 -5.50257 0
M  V30 6817 H 639.618 1.45432 -4.14423 0
M  V30 6818 H 640.224 -0.214687 -4.24758 0
M  V30 6819 N 638.539 1.52521 -0.396863 0
M  V30 6820 C 639.787 2.01274 0.182536 0
M  V30 6821 C 640.108 1.28485 1.46685 0
M  V30 6822 O 639.378 0.407134 1.91623 0
M  V30 6823 H 637.958 0.743671 0.0704442 0
M  V30 6824 H 640.62 1.87547 -0.530289 0
M  V30 6825 H 639.716 3.09687 0.387385 0
M  V30 6826 N 640.017 0.126909 1.57088 0
M  V30 6827 C 640.949 -0.850973 2.12817 0
M  V30 6828 C 641.962 -1.22457 1.07276 0
M  V30 6829 O 643.151 -1.17215 1.34622 0
M  V30 6830 C 640.251 -2.15039 2.61938 0
M  V30 6831 C 639.424 -1.94726 3.91664 0
M  V30 6832 C 638.483 -3.0847 4.26301 0
M  V30 6833 O 637.509 -2.81038 4.94981 0
M  V30 6834 N 638.711 -4.35116 3.84259 0
M  V30 6835 H 641.476 -0.3748 2.97347 0
M  V30 6836 H 639.037 -0.0572793 1.61799 0
M  V30 6837 H 641.029 -2.90141 2.82135 0
M  V30 6838 H 639.599 -2.5398 1.82244 0
M  V30 6839 H 638.819 -1.03772 3.80296 0
M  V30 6840 H 640.107 -1.78469 4.76473 0
M  V30 6841 H 639.505 -4.60276 3.2888 0
M  V30 6842 H 638.062 -5.07064 4.09548 0
M  V30 6843 N 641.495 -1.56914 -0.146875 0
M  V30 6844 C 642.906 -1.72799 -0.706928 0
M  V30 6845 C 643.257 -0.741329 -1.81656 0
M  V30 6846 O 642.382 0.0920162 -2.16204 0
M  V30 6847 C 642.977 -3.13317 -1.28911 0
M  V30 6848 C 641.536 -3.30803 -1.79573 0
M  V30 6849 C 640.683 -2.68725 -0.684252 0
M  V30 6850 H 643.634 -1.58504 0.0787931 0
M  V30 6851 H 643.655 -3.13323 -2.15891 0
M  V30 6852 H 643.167 -3.85104 -0.481284 0
M  V30 6853 H 641.268 -2.64012 -2.62923 0
M  V30 6854 H 641.381 -4.38754 -1.92436 0
M  V30 6855 H 639.745 -2.29196 -1.11091 0
M  V30 6856 H 640.528 -3.43117 0.112134 0
M  V30 6857 N 642.974 0.416227 -1.52004 0
M  V30 6858 C 644.39 0.754319 -1.40649 0
M  V30 6859 C 644.59 1.95059 -0.505392 0
M  V30 6860 O 643.646 2.5248 0.0315057 0
M  V30 6861 C 644.959 1.0149 -2.83055 0
M  V30 6862 C 646.507 1.11805 -2.9235 0
M  V30 6863 C 646.982 1.41144 -4.35709 0
M  V30 6864 N 648.473 1.48024 -4.38911 0
M  V30 6865 C 649.208 1.72338 -5.46889 0
M  V30 6866 N 648.704 1.94303 -6.64995 0
M  V30 6867 N 650.497 1.74294 -5.34395 0
M  V30 6868 H 642.648 -0.371324 -2.09129 0
M  V30 6869 H 644.911 -0.103811 -0.942299 0
M  V30 6870 H 644.617 0.208345 -3.51082 0
M  V30 6871 H 644.491 1.93697 -3.23668 0
M  V30 6872 H 646.878 1.91521 -2.24508 0
M  V30 6873 H 646.959 0.17451 -2.55204 0
M  V30 6874 H 646.603 0.619484 -5.04108 0
M  V30 6875 H 646.533 2.36739 -4.70385 0
M  V30 6876 H 649.024 1.32868 -3.53772 0
M  V30 6877 H 649.337 2.12286 -7.43071 0
M  V30 6878 H 647.682 1.91582 -6.68073 0
M  V30 6879 H 650.873 1.56667 -4.41104 0
M  V30 6880 H 651.046 1.92904 -6.18621 0
M  V30 6881 N 644.452 1.42507 0.673017 0
M  V30 6882 C 645.699 1.43072 1.43306 0
M  V30 6883 C 646.027 0.0478004 1.94441 0
M  V30 6884 O 645.282 -0.944106 1.71421 0
M  V30 6885 C 645.581 2.40351 2.64511 0
M  V30 6886 C 645.247 3.8669 2.31908 0
M  V30 6887 C 643.909 4.26551 2.22728 0
M  V30 6888 C 646.261 4.78991 2.05467 0
M  V30 6889 C 643.589 5.56691 1.85234 0
M  V30 6890 C 645.941 6.09476 1.69477 0
M  V30 6891 C 644.605 6.48334 1.58808 0
M  V30 6892 H 643.875 0.523536 0.524395 0
M  V30 6893 H 646.522 1.75459 0.76723 0
M  V30 6894 H 644.827 2.01297 3.36135 0
M  V30 6895 H 646.524 2.38051 3.22696 0
M  V30 6896 H 643.114 3.55132 2.39956 0
M  V30 6897 H 647.298 4.48982 2.11492 0
M  V30 6898 H 642.554 5.85657 1.75545 0
M  V30 6899 H 646.728 6.80482 1.48043 0
M  V30 6900 H 644.355 7.49084 1.29525 0
M  V30 6901 N 645.93 -0.909495 1.28709 0
M  V30 6902 C 647.341 -1.47419 1.14563 0
M  V30 6903 C 647.692 -1.94432 -0.262832 0
M  V30 6904 O 646.817 -1.82842 -1.15748 0
M  V30 6905 C 647.412 -2.67933 2.07358 0
M  V30 6906 C 645.971 -3.20568 1.97264 0
M  V30 6907 C 645.118 -1.93269 1.98852 0
M  V30 6908 H 648.069 -0.721787 1.41336 0
M  V30 6909 H 648.09 -3.43339 1.64007 0
M  V30 6910 H 647.602 -2.33685 3.09859 0
M  V30 6911 H 645.703 -3.59531 0.978157 0
M  V30 6912 H 645.816 -3.85529 2.84436 0
M  V30 6913 H 644.18 -2.10553 1.43317 0
M  V30 6914 H 644.963 -1.61312 3.0304 0
M  V30 6915 N 647.408 -1.11026 -1.11852 0
M  V30 6916 C 648.636 -0.878818 -1.87308 0
M  V30 6917 C 649.051 0.57111 -1.79955 0
M  V30 6918 O 648.408 1.39409 -1.17777 0
M  V30 6919 C 648.459 -1.3264 -3.36287 0
M  V30 6920 O 648.18 -2.71948 -3.43476 0
M  V30 6921 C 649.681 -1.12974 -4.28663 0
M  V30 6922 H 646.901 -0.315015 -0.592458 0
M  V30 6923 H 649.445 -1.47649 -1.41492 0
M  V30 6924 H 647.6 -0.772269 -3.79625 0
M  V30 6925 H 648.014 -2.91241 -4.3621 0
M  V30 6926 H 649.488 -1.49198 -5.31454 0
M  V30 6927 H 649.965 -0.0689127 -4.39146 0
M  V30 6928 H 650.571 -1.67064 -3.91113 0
M  V30 6929 N 648.886 1.2938 -0.899927 0
M  V30 6930 C 649.816 2.30144 -0.39446 0
M  V30 6931 C 650.797 1.61611 0.530639 0
M  V30 6932 O 651.982 1.89119 0.441319 0
M  V30 6933 C 649.112 3.45229 0.37868 0
M  V30 6934 C 648.066 4.25564 -0.456012 0
M  V30 6935 C 647.392 5.32848 0.444637 0
M  V30 6936 C 648.692 4.93651 -1.70605 0
M  V30 6937 H 650.386 2.72673 -1.23653 0
M  V30 6938 H 647.932 1.31086 -0.596034 0
M  V30 6939 H 649.885 4.14797 0.743037 0
M  V30 6940 H 648.609 3.01545 1.25453 0
M  V30 6941 H 647.268 3.57704 -0.802704 0
M  V30 6942 H 646.916 4.85408 1.31863 0
M  V30 6943 H 646.616 5.87497 -0.110154 0
M  V30 6944 H 648.14 6.05268 0.805182 0
M  V30 6945 H 649.554 5.55655 -1.41141 0
M  V30 6946 H 647.951 5.58233 -2.20217 0
M  V30 6947 H 649.021 4.18926 -2.4419 0
M  V30 6948 N 650.364 0.662433 1.43002 0
M  V30 6949 C 651.592 0.187615 2.06048 0
M  V30 6950 C 652.007 -1.15039 1.49705 0
M  V30 6951 O 651.364 -1.71209 0.631956 0
M  V30 6952 C 651.415 0.100498 3.6136 0
M  V30 6953 O 651.136 1.38562 4.15611 0
M  V30 6954 C 652.637 -0.399298 4.41498 0
M  V30 6955 H 649.857 0.0941675 0.664359 0
M  V30 6956 H 652.401 0.905681 1.83351 0
M  V30 6957 H 650.556 -0.568181 3.83211 0
M  V30 6958 H 650.97 1.25084 5.09366 0
M  V30 6959 H 652.444 -0.409187 5.50481 0
M  V30 6960 H 652.921 -1.43232 4.15188 0
M  V30 6961 H 653.527 0.23721 4.24638 0
M  V30 6962 N 651.842 -1.52309 0.404946 0
M  V30 6963 C 652.79 -2.28452 -0.437321 0
M  V30 6964 C 653.784 -1.32975 -1.04948 0
M  V30 6965 O 654.99 -1.50451 -0.988159 0
M  V30 6966 H 651.365 -0.734824 -0.159805 0
M  V30 6967 H 653.336 -2.97542 0.22615 0
M  V30 6968 C 652.085 -3.11536 -1.54404 0
M  V30 6969 H 651.408 -3.84871 -1.08233 0
M  V30 6970 H 652.848 -3.67926 -2.10729 0
M  V30 6971 C 651.307 -2.24833 -2.50902 0
M  V30 6972 O 651.837 -1.88574 -3.54687 0
M  V30 6973 N 650.043 -1.88685 -2.21012 0
M  V30 6974 H 649.59 -2.18371 -1.36646 0
M  V30 6975 H 649.548 -1.30966 -2.85824 0
M  V30 6976 N 653.32 -0.135238 -1.57019 0
M  V30 6977 C 654.569 0.518694 -1.94917 0
M  V30 6978 C 654.882 1.66783 -1.0219 0
M  V30 6979 O 656.088 2.38561 -1.29619 0
M  V30 6980 C 654.544 0.974123 -3.46466 0
M  V30 6981 C 654.152 -0.147439 -4.47757 0
M  V30 6982 C 655.896 1.59851 -3.93253 0
M  V30 6983 C 653.803 0.325599 -5.90503 0
M  V30 6984 H 652.733 0.19754 -0.727663 0
M  V30 6985 H 655.384 -0.217698 -1.82204 0
M  V30 6986 H 653.766 1.76542 -3.5447 0
M  V30 6987 H 654.94 -0.924122 -4.51438 0
M  V30 6988 H 653.255 -0.679496 -4.10818 0
M  V30 6989 H 655.852 1.96385 -4.9733 0
M  V30 6990 H 656.195 2.48306 -3.3414 0
M  V30 6991 H 656.728 0.872323 -3.88118 0
M  V30 6992 H 653.467 -0.523295 -6.53408 0
M  V30 6993 H 652.987 1.06841 -5.90208 0
M  V30 6994 H 654.666 0.781498 -6.42263 0
M  V30 6995 N 654.798 1.5699 0.138552 0
M  V30 6996 C 655.746 1.99858 1.18994 0
M  V30 6997 C 656.74 0.89231 1.43994 0
M  V30 6998 O 657.946 1.0775 1.44187 0
M  V30 6999 H 654.321 0.636325 0.400743 0
M  V30 7000 H 656.292 2.87427 0.801755 0
M  V30 7001 C 655.041 2.40235 2.51361 0
M  V30 7002 H 654.364 3.24917 2.32957 0
M  V30 7003 H 655.804 2.74045 3.23535 0
M  V30 7004 C 654.263 1.25829 3.1252 0
M  V30 7005 O 654.793 0.563604 3.97727 0
M  V30 7006 N 652.999 1.02036 2.72097 0
M  V30 7007 H 652.546 1.58705 2.02905 0
M  V30 7008 H 652.504 0.256796 3.1335 0
M  V30 7009 N 656.276 -0.40816 1.52223 0
M  V30 7010 C 657.186 -1.52202 1.78526 0
M  V30 7011 C 658.202 -1.60546 0.670892 0
M  V30 7012 O 659.378 -1.77242 0.956404 0
M  V30 7013 C 656.443 -2.87928 1.93128 0
M  V30 7014 C 655.504 -2.89463 3.17033 0
M  V30 7015 C 654.737 -4.18715 3.30929 0
M  V30 7016 O 654.96 -5.12662 2.50067 0
M  V30 7017 O 653.894 -4.27125 4.24084 0
M  V30 7018 H 657.72 -1.32911 2.73072 0
M  V30 7019 H 655.305 -0.594112 1.37079 0
M  V30 7020 H 657.187 -3.68426 2.04549 0
M  V30 7021 H 655.862 -3.07285 1.01772 0
M  V30 7022 H 654.769 -2.07815 3.11069 0
M  V30 7023 H 656.102 -2.75055 4.08174 0
M  V30 7024 N 657.755 -1.42862 -0.66545 0
M  V30 7025 C 658.703 -1.47319 -1.8 0
M  V30 7026 C 659.697 -0.347963 -1.65788 0
M  V30 7027 O 660.903 -0.521406 -1.72283 0
M  V30 7028 H 657.278 -0.461588 -0.593667 0
M  V30 7029 H 659.249 -2.42876 -1.7336 0
M  V30 7030 C 657.998 -1.40152 -3.18203 0
M  V30 7031 H 657.321 -2.26035 -3.2977 0
M  V30 7032 H 658.761 -1.47331 -3.9758 0
M  V30 7033 C 657.22 -0.117493 -3.36695 0
M  V30 7034 O 657.75 0.826058 -3.93115 0
M  V30 7035 N 655.956 -0.0316218 -2.90583 0
M  V30 7036 H 655.503 -0.800247 -2.44855 0
M  V30 7037 H 655.461 0.826835 -3.03333 0
M  V30 7038 N 659.233 0.902656 -1.29189 0
M  V30 7039 C 660.181 2.0278 -1.13943 0
M  V30 7040 C 661.175 1.69308 -0.055787 0
M  V30 7041 O 662.381 1.78707 -0.215371 0
M  V30 7042 H 658.756 0.664595 -0.351877 0
M  V30 7043 H 660.727 2.12778 -2.09208 0
M  V30 7044 C 659.476 3.37657 -0.82966 0
M  V30 7045 H 658.799 3.63913 -1.65551 0
M  V30 7046 H 660.239 4.17078 -0.762998 0
M  V30 7047 C 658.698 3.33648 0.466991 0
M  V30 7048 O 659.228 3.72886 1.49395 0
M  V30 7049 N 657.434 2.86745 0.471761 0
M  V30 7050 H 656.981 2.55009 -0.364406 0
M  V30 7051 H 656.939 2.84446 1.33933 0
M  V30 7052 N 660.711 1.11618 1.11262 0
M  V30 7053 C 662.122 0.881942 1.64556 0
M  V30 7054 C 662.473 -0.585442 1.87262 0
M  V30 7055 O 661.598 -1.44795 1.60821 0
M  V30 7056 C 662.193 1.59446 2.98935 0
M  V30 7057 C 660.752 1.40661 3.4913 0
M  V30 7058 C 659.899 1.63593 2.23903 0
M  V30 7059 H 662.85 1.27217 0.94877 0
M  V30 7060 H 662.871 1.04054 3.65996 0
M  V30 7061 H 662.383 2.66241 2.82378 0
M  V30 7062 H 660.484 0.360835 3.70849 0
M  V30 7063 H 660.597 2.15693 4.27801 0
M  V30 7064 H 658.961 1.05944 2.3162 0
M  V30 7065 H 659.744 2.71666 2.09886 0
M  V30 7066 N 662.189 -1.289 0.906776 0
M  V30 7067 C 663.417 -1.99401 0.551969 0
M  V30 7068 C 663.832 -1.67816 -0.865048 0
M  V30 7069 O 663.189 -0.927078 -1.57199 0
M  V30 7070 C 663.24 -3.53779 0.743152 0
M  V30 7071 O 662.961 -3.84248 2.1044 0
M  V30 7072 C 664.462 -4.41543 0.39424 0
M  V30 7073 H 661.682 -0.636926 0.211106 0
M  V30 7074 H 664.226 -1.64266 1.21807 0
M  V30 7075 H 662.381 -3.87201 0.124143 0
M  V30 7076 H 662.795 -4.78904 2.13895 0
M  V30 7077 H 664.269 -5.48957 0.578814 0
M  V30 7078 H 664.746 -4.34073 -0.669137 0
M  V30 7079 H 665.352 -4.13605 0.990491 0
M  V30 7080 N 663.667 -0.670007 -1.42649 0
M  V30 7081 C 664.597 -0.00258501 -2.335 0
M  V30 7082 C 665.578 0.794364 -1.50412 0
M  V30 7083 O 666.763 0.75248 -1.79029 0
M  V30 7084 C 663.893 0.952748 -3.33976 0
M  V30 7085 C 662.847 0.264733 -4.2718 0
M  V30 7086 C 662.173 1.33267 -5.17826 0
M  V30 7087 C 663.473 -0.853289 -5.15283 0
M  V30 7088 H 665.167 -0.761326 -2.89559 0
M  V30 7089 H 662.713 -0.367561 -1.3923 0
M  V30 7090 H 664.666 1.4287 -3.96442 0
M  V30 7091 H 663.39 1.74285 -2.7621 0
M  V30 7092 H 662.049 -0.190938 -3.66102 0
M  V30 7093 H 661.697 2.11464 -4.5639 0
M  V30 7094 H 661.397 0.877476 -5.81011 0
M  V30 7095 H 662.921 1.80965 -5.83167 0
M  V30 7096 H 664.335 -0.458763 -5.71462 0
M  V30 7097 H 662.732 -1.23398 -5.87276 0
M  V30 7098 H 663.802 -1.70412 -4.53969 0
M  V30 7099 N 665.145 1.52092 -0.413018 0
M  V30 7100 C 666.075 2.30021 0.401567 0
M  V30 7101 C 667.056 1.34395 1.04269 0
M  V30 7102 O 668.241 1.63304 1.05097 0
M  V30 7103 C 665.371 3.12447 1.51638 0
M  V30 7104 C 664.325 4.16153 1.00005 0
M  V30 7105 C 663.651 4.86948 2.20875 0
M  V30 7106 C 664.951 5.22275 0.0513757 0
M  V30 7107 H 666.645 2.98365 -0.248704 0
M  V30 7108 H 664.191 1.4349 -0.121052 0
M  V30 7109 H 666.144 3.65733 2.09326 0
M  V30 7110 H 664.868 2.41879 2.19458 0
M  V30 7111 H 663.527 3.63882 0.445549 0
M  V30 7112 H 663.175 4.12905 2.8726 0
M  V30 7113 H 662.875 5.57057 1.86978 0
M  V30 7114 H 664.399 5.43048 2.79162 0
M  V30 7115 H 665.813 5.70778 0.537176 0
M  V30 7116 H 664.21 5.9977 -0.198977 0
M  V30 7117 H 665.28 4.76611 -0.892736 0
M  V30 7118 N 666.623 0.143563 1.56945 0
M  V30 7119 C 667.571 -0.814556 2.17871 0
M  V30 7120 C 668.565 -1.25778 1.13474 0
M  V30 7121 O 669.771 -1.22666 1.31731 0
M  V30 7122 H 666.146 -0.280873 0.697578 0
M  V30 7123 H 668.117 -0.276459 2.97117 0
M  V30 7124 C 666.866 -2.04503 2.81201 0
M  V30 7125 H 666.189 -1.71296 3.61245 0
M  V30 7126 H 667.629 -2.69493 3.27337 0
M  V30 7127 C 666.088 -2.85079 1.79532 0
M  V30 7128 O 666.618 -3.81306 1.26368 0
M  V30 7129 N 664.824 -2.49546 1.48913 0
M  V30 7130 H 664.371 -1.71359 1.92338 0
M  V30 7131 H 664.329 -3.03751 0.811348 0
M  V30 7132 N 668.101 -1.57061 -0.130224 0
M  V30 7133 C 669.512 -1.73539 -0.68856 0
M  V30 7134 C 669.863 -0.760554 -1.80859 0
M  V30 7135 O 668.988 0.0690796 -2.1629 0
M  V30 7136 C 669.583 -3.14666 -1.25581 0
M  V30 7137 C 668.142 -3.32689 -1.76055 0
M  V30 7138 C 667.289 -2.69436 -0.655712 0
M  V30 7139 H 670.24 -1.58412 0.0956002 0
M  V30 7140 H 670.261 -3.15595 -2.12556 0
M  V30 7141 H 669.773 -3.85593 -0.440412 0
M  V30 7142 H 667.874 -2.66786 -2.60108 0
M  V30 7143 H 667.987 -4.4077 -1.87772 0
M  V30 7144 H 666.351 -2.30362 -1.08654 0
M  V30 7145 H 667.134 -3.42979 0.14852 0
M  V30 7146 N 669.579 0.400081 -1.52437 0
M  V30 7147 C 670.828 1.14332 -1.66166 0
M  V30 7148 C 671.141 1.91419 -0.402253 0
M  V30 7149 O 672.347 2.6824 -0.419487 0
M  V30 7150 C 670.803 2.08137 -2.9361 0
M  V30 7151 C 670.411 1.36524 -4.26691 0
M  V30 7152 C 672.155 2.82664 -3.16703 0
M  V30 7153 C 670.062 2.29031 -5.45251 0
M  V30 7154 H 668.992 0.430499 -0.61902 0
M  V30 7155 H 671.643 0.407017 -1.78929 0
M  V30 7156 H 670.025 2.85358 -2.74567 0
M  V30 7157 H 671.199 0.646061 -4.56249 0
M  V30 7158 H 669.514 0.74002 -4.09771 0
M  V30 7159 H 672.111 3.52037 -4.0246 0
M  V30 7160 H 672.454 3.46122 -2.31312 0
M  V30 7161 H 672.987 2.12541 -3.36261 0
M  V30 7162 H 669.726 1.70206 -6.33017 0
M  V30 7163 H 669.246 2.98896 -5.2002 0
M  V30 7164 H 670.925 2.89359 -5.78689 0
M  V30 7165 N 671.057 1.43213 0.657864 0
M  V30 7166 C 672.004 1.48011 1.77092 0
M  V30 7167 C 672.974 0.330291 1.62783 0
M  V30 7168 O 674.159 0.536787 1.83094 0
M  V30 7169 C 671.299 1.40461 3.15222 0
M  V30 7170 C 670.412 2.65612 3.40697 0
M  V30 7171 C 669.547 2.50083 4.68649 0
M  V30 7172 C 668.586 3.70525 4.87214 0
M  V30 7173 N 667.723 3.53835 6.0642 0
M  V30 7174 H 672.563 2.43121 1.72326 0
M  V30 7175 H 670.1 1.20687 0.841013 0
M  V30 7176 H 672.058 1.34079 3.95068 0
M  V30 7177 H 670.688 0.489359 3.19069 0
M  V30 7178 H 669.74 2.82292 2.54982 0
M  V30 7179 H 671.052 3.5509 3.50303 0
M  V30 7180 H 670.206 2.41383 5.56614 0
M  V30 7181 H 668.945 1.58121 4.61356 0
M  V30 7182 H 667.95 3.79639 3.97686 0
M  V30 7183 H 669.175 4.63489 4.96341 0
M  V30 7184 H 667.121 2.64604 6.00267 0
M  V30 7185 H 667.038 4.36912 6.16963 0
M  V30 7186 H 668.306 3.48978 6.97019 0
M  V30 7187 N 672.536 -0.895792 1.29666 0
M  V30 7188 C 673.952 -1.17726 1.07763 0
M  V30 7189 C 674.152 -2.00794 -0.168576 0
M  V30 7190 O 673.208 -2.37213 -0.865244 0
M  V30 7191 C 674.521 -1.89441 2.33522 0
M  V30 7192 C 676.069 -2.02251 2.3888 0
M  V30 7193 C 676.544 -2.77378 3.64452 0
M  V30 7194 N 678.035 -2.8493 3.65198 0
M  V30 7195 C 678.77 -3.43606 4.59045 0
M  V30 7196 N 678.266 -4.03417 5.63228 0
M  V30 7197 N 680.059 -3.41317 4.46608 0
M  V30 7198 H 672.21 -0.341652 2.09634 0
M  V30 7199 H 674.473 -0.213865 0.923561 0
M  V30 7200 H 674.179 -1.35842 3.24407 0
M  V30 7201 H 674.053 -2.89893 2.41334 0
M  V30 7202 H 676.44 -2.55025 1.4848 0
M  V30 7203 H 676.521 -1.0092 2.3505 0
M  V30 7204 H 676.165 -2.25279 4.55205 0
M  V30 7205 H 676.095 -3.79062 3.65541 0
M  V30 7206 H 678.586 -2.42453 2.89871 0
M  V30 7207 H 678.899 -4.46224 6.30955 0
M  V30 7208 H 677.244 -4.01868 5.67033 0
M  V30 7209 H 680.435 -2.93812 3.64407 0
M  V30 7210 H 680.608 -3.86751 5.1993 0
M  V30 7211 N 674.014 -1.12206 -1.10668 0
M  V30 7212 C 674.944 -0.810086 -2.18997 0
M  V30 7213 C 675.925 0.225065 -1.68604 0
M  V30 7214 O 677.11 0.086783 -1.94006 0
M  V30 7215 C 674.24 -0.261262 -3.46316 0
M  V30 7216 C 673.194 -1.2292 -4.09969 0
M  V30 7217 C 672.52 -0.540713 -5.31959 0
M  V30 7218 C 673.82 -2.58295 -4.53962 0
M  V30 7219 H 675.514 -1.7159 -2.45352 0
M  V30 7220 H 673.06 -0.82646 -1.17922 0
M  V30 7221 H 675.013 -0.0307522 -4.21389 0
M  V30 7222 H 673.737 0.679879 -3.19445 0
M  V30 7223 H 672.396 -1.44548 -3.369 0
M  V30 7224 H 672.044 0.405492 -5.01363 0
M  V30 7225 H 671.744 -1.18637 -5.75499 0
M  V30 7226 H 673.268 -0.319184 -6.09765 0
M  V30 7227 H 674.682 -2.40709 -5.20319 0
M  V30 7228 H 673.079 -3.18916 -5.08343 0
M  V30 7229 H 674.149 -3.16918 -3.67002 0
M  V30 7230 N 675.492 1.28418 -0.913599 0
M  V30 7231 C 676.455 2.25564 -0.406624 0
M  V30 7232 C 677.455 1.5387 0.466965 0
M  V30 7233 O 678.645 1.72094 0.270042 0
M  V30 7234 C 675.777 3.38339 0.417053 0
M  V30 7235 H 676.97 2.71926 -1.26477 0
M  V30 7236 H 674.523 1.40098 -0.692986 0
M  V30 7237 H 675.258 2.97339 1.29461 0
M  V30 7238 H 675.043 3.91542 -0.209102 0
M  V30 7239 H 676.533 4.10578 0.762602 0
M  V30 7240 N 676.97 0.677563 1.42291 0
M  V30 7241 C 677.933 0.0101085 2.29198 0
M  V30 7242 C 678.933 -0.726219 1.43467 0
M  V30 7243 O 680.123 -0.563807 1.64824 0
M  V30 7244 C 677.255 -0.996316 3.26016 0
M  V30 7245 H 678.448 0.775071 2.89711 0
M  V30 7246 H 676.001 0.440065 1.49977 0
M  V30 7247 H 676.736 -1.78967 2.70446 0
M  V30 7248 H 676.521 -0.471687 3.89253 0
M  V30 7249 H 678.011 -1.46167 3.91184 0
M  V30 7250 N 678.448 -1.51871 0.421078 0
M  V30 7251 C 679.696 -2.01539 -0.150492 0
M  V30 7252 C 680.017 -1.30803 -1.44623 0
M  V30 7253 O 679.287 -0.437568 -1.90951 0
M  V30 7254 H 677.867 -0.744698 -0.0586041 0
M  V30 7255 H 680.529 -1.8668 0.560059 0
M  V30 7256 H 679.625 -3.10264 -0.338068 0
M  V30 7257 N 679.926 -0.151884 -1.56866 0
M  V30 7258 C 681.151 0.508044 -2.01081 0
M  V30 7259 C 681.576 1.57306 -1.03134 0
M  V30 7260 O 680.934 1.81298 -0.0078309 0
M  V30 7261 C 680.982 1.08106 -3.44014 0
M  V30 7262 O 680.086 2.19577 -3.49084 0
M  V30 7263 H 679.427 0.123757 -0.652365 0
M  V30 7264 H 681.957 -0.250055 -2.03066 0
M  V30 7265 H 681.967 1.40851 -3.82916 0
M  V30 7266 H 680.642 0.301168 -4.14808 0
M  V30 7267 H 679.219 1.88023 -3.22027 0
M  V30 7268 N 681.404 1.57128 0.121893 0
M  V30 7269 C 682.334 2.03165 1.15092 0
M  V30 7270 C 683.315 0.915587 1.43356 0
M  V30 7271 O 684.5 1.1851 1.53847 0
M  V30 7272 C 681.63 2.43352 2.47784 0
M  V30 7273 C 680.584 3.58376 2.33989 0
M  V30 7274 C 679.91 3.84454 3.71617 0
M  V30 7275 C 681.21 4.90199 1.80283 0
M  V30 7276 H 682.904 2.89382 0.768023 0
M  V30 7277 H 680.45 1.39218 0.367998 0
M  V30 7278 H 682.403 2.74163 3.20019 0
M  V30 7279 H 681.127 1.54103 2.87958 0
M  V30 7280 H 679.786 3.2777 1.64202 0
M  V30 7281 H 679.434 2.92414 4.09271 0
M  V30 7282 H 679.134 4.61877 3.6324 0
M  V30 7283 H 680.658 4.17714 4.45362 0
M  V30 7284 H 682.072 5.19565 2.42333 0
M  V30 7285 H 680.469 5.71601 1.82735 0
M  V30 7286 H 681.539 4.78904 0.760184 0
M  V30 7287 N 682.882 -0.391992 1.52647 0
M  V30 7288 C 684.129 -1.13732 1.67545 0
M  V30 7289 C 684.457 -1.90045 0.413881 0
M  V30 7290 O 683.712 -1.86157 -0.603646 0
M  V30 7291 C 684.011 -2.14401 2.85949 0
M  V30 7292 C 683.677 -1.54767 4.23507 0
M  V30 7293 C 682.339 -1.38229 4.60919 0
M  V30 7294 C 684.691 -1.11382 5.0916 0
M  V30 7295 C 682.019 -0.7685 5.81645 0
M  V30 7296 C 684.371 -0.514143 6.30507 0
M  V30 7297 C 683.035 -0.33604 6.66654 0
M  V30 7298 H 682.305 -0.416174 0.613091 0
M  V30 7299 H 684.952 -0.422327 1.86785 0
M  V30 7300 H 683.257 -2.92108 2.61114 0
M  V30 7301 H 684.954 -2.71974 2.94671 0
M  V30 7302 H 681.544 -1.68626 3.94035 0
M  V30 7303 H 685.728 -1.22962 4.80826 0
M  V30 7304 H 680.984 -0.618681 6.08262 0
M  V30 7305 H 685.158 -0.169657 6.96193 0
M  V30 7306 H 682.785 0.14166 7.60068 0
M  V30 7307 N 684.36 -1.4356 -0.65026 0
M  V30 7308 C 685.323 -1.48615 -1.74489 0
M  V30 7309 C 686.323 -0.370483 -1.56474 0
M  V30 7310 O 687.513 -0.632351 -1.62317 0
M  V30 7311 C 684.645 -1.34161 -3.13391 0
M  V30 7312 H 685.838 -2.46103 -1.71387 0
M  V30 7313 H 683.391 -1.30369 -0.862186 0
M  V30 7314 H 684.126 -0.376918 -3.22102 0
M  V30 7315 H 683.911 -2.1504 -3.27872 0
M  V30 7316 H 685.401 -1.40637 -3.93206 0
M  V30 7317 N 685.838 0.888903 -1.30139 0
M  V30 7318 C 687.086 1.63713 -1.18501 0
M  V30 7319 C 687.407 1.9324 0.261399 0
M  V30 7320 O 686.677 1.56608 1.17689 0
M  V30 7321 H 685.257 0.606861 -0.435579 0
M  V30 7322 H 687.919 1.06525 -1.63213 0
M  V30 7323 H 687.015 2.58894 -1.743 0
M  V30 7324 N 687.317 1.12792 1.10072 0
M  V30 7325 C 688.564 0.885545 1.82111 0
M  V30 7326 C 688.892 -0.588519 1.85383 0
M  V30 7327 O 688.147 -1.45124 1.31292 0
M  V30 7328 C 688.446 1.4102 3.28403 0
M  V30 7329 C 688.112 2.89995 3.45273 0
M  V30 7330 C 686.774 3.30671 3.49585 0
M  V30 7331 C 689.126 3.85874 3.50358 0
M  V30 7332 C 686.454 4.65925 3.56553 0
M  V30 7333 C 688.806 5.20963 3.58859 0
M  V30 7334 C 687.47 5.61177 3.61437 0
M  V30 7335 H 686.74 0.324044 0.666391 0
M  V30 7336 H 689.387 1.40874 1.29718 0
M  V30 7337 H 687.692 0.807551 3.83387 0
M  V30 7338 H 689.389 1.19882 3.82661 0
M  V30 7339 H 685.979 2.57537 3.42597 0
M  V30 7340 H 690.163 3.5554 3.46273 0
M  V30 7341 H 685.419 4.96468 3.56833 0
M  V30 7342 H 689.593 5.95079 3.61738 0
M  V30 7343 H 687.22 6.6597 3.66589 0
M  V30 7344 N 688.795 -1.27931 0.920396 0
M  V30 7345 C 689.725 -2.29487 0.431024 0
M  V30 7346 C 690.706 -1.62435 -0.504861 0
M  V30 7347 O 691.891 -1.89797 -0.411176 0
M  V30 7348 C 689.021 -3.45788 -0.323709 0
M  V30 7349 C 687.975 -4.24784 0.523658 0
M  V30 7350 C 687.301 -5.33488 -0.359809 0
M  V30 7351 C 688.601 -4.90874 1.78437 0
M  V30 7352 H 690.295 -2.70671 1.27975 0
M  V30 7353 H 687.841 -1.30121 0.616813 0
M  V30 7354 H 689.794 -4.15927 -0.676952 0
M  V30 7355 H 688.518 -3.03502 -1.2064 0
M  V30 7356 H 687.177 -3.56382 0.85951 0
M  V30 7357 H 686.825 -4.87445 -1.24124 0
M  V30 7358 H 686.525 -5.87247 0.203605 0
M  V30 7359 H 688.049 -6.06472 -0.708787 0
M  V30 7360 H 689.463 -5.53339 1.49963 0
M  V30 7361 H 687.86 -5.54659 2.29071 0
M  V30 7362 H 688.93 -4.14988 2.50824 0
M  V30 7363 N 690.273 -0.685099 -1.4193 0
M  V30 7364 C 691.522 -0.208816 -2.00616 0
M  V30 7365 C 691.835 1.19506 -1.54847 0
M  V30 7366 O 693.041 1.76826 -2.06021 0
M  V30 7367 C 691.497 -0.322446 -3.58453 0
M  V30 7368 C 691.105 -1.73102 -4.13206 0
M  V30 7369 C 692.849 0.0945979 -4.24395 0
M  V30 7370 C 690.756 -1.79687 -5.63442 0
M  V30 7371 H 689.686 -0.0743092 -0.750329 0
M  V30 7372 H 692.337 -0.851778 -1.62533 0
M  V30 7373 H 690.719 0.388588 -3.94089 0
M  V30 7374 H 691.893 -2.46997 -3.8901 0
M  V30 7375 H 690.208 -2.09682 -3.59753 0
M  V30 7376 H 692.805 0.0656937 -5.3466 0
M  V30 7377 H 693.148 1.1316 -4.00625 0
M  V30 7378 H 693.681 -0.56579 -3.93756 0
M  V30 7379 H 690.42 -2.81404 -5.92024 0
M  V30 7380 H 689.94 -1.10162 -5.89597 0
M  V30 7381 H 691.619 -1.55498 -6.28036 0
M  V30 7382 N 691.751 1.51645 -0.429126 0
M  V30 7383 C 692.979 2.06433 0.138994 0
M  V30 7384 C 693.394 1.29735 1.37165 0
M  V30 7385 O 692.751 0.354638 1.79021 0
M  V30 7386 C 692.802 3.58439 0.469452 0
M  V30 7387 O 692.523 4.32238 -0.714273 0
M  V30 7388 C 694.024 4.29712 1.08914 0
M  V30 7389 H 691.244 0.6709 0.0115608 0
M  V30 7390 H 693.788 1.9532 -0.605843 0
M  V30 7391 H 691.943 3.69494 1.16419 0
M  V30 7392 H 692.357 5.22704 -0.433633 0
M  V30 7393 H 693.831 5.37182 1.27042 0
M  V30 7394 H 694.308 3.87473 2.06788 0
M  V30 7395 H 694.914 4.2308 0.434028 0
M  V30 7396 N 693.229 0.160201 1.56784 0
M  V30 7397 C 694.177 -0.791402 2.18723 0
M  V30 7398 C 695.171 -1.24567 1.14801 0
M  V30 7399 O 696.377 -1.21262 1.33025 0
M  V30 7400 H 692.752 -0.273458 0.700517 0
M  V30 7401 H 694.723 -0.244931 2.97393 0
M  V30 7402 C 693.472 -2.01509 2.83354 0
M  V30 7403 H 692.795 -1.67454 3.63041 0
M  V30 7404 H 694.235 -2.66006 3.30177 0
M  V30 7405 C 692.694 -2.83159 1.82545 0
M  V30 7406 O 693.224 -3.79944 1.30405 0
M  V30 7407 N 691.43 -2.47953 1.51552 0
M  V30 7408 H 690.977 -1.69309 1.94144 0
M  V30 7409 H 690.935 -3.02873 0.843519 0
M  V30 7410 N 694.707 -1.5719 -0.113559 0
M  V30 7411 C 695.655 -2.01725 -1.158 0
M  V30 7412 C 696.649 -0.915105 -1.42556 0
M  V30 7413 O 697.855 -1.10031 -1.42454 0
M  V30 7414 H 694.23 -0.64262 -0.390569 0
M  V30 7415 H 696.201 -2.88666 -0.755926 0
M  V30 7416 C 694.95 -2.44203 -2.47507 0
M  V30 7417 H 694.273 -3.28582 -2.27758 0
M  V30 7418 H 695.713 -2.79158 -3.19135 0
M  V30 7419 C 694.172 -1.30785 -3.10478 0
M  V30 7420 O 694.702 -0.626807 -3.9678 0
M  V30 7421 N 692.908 -1.06352 -2.7044 0
M  V30 7422 H 692.455 -1.61913 -2.00355 0
M  V30 7423 H 692.413 -0.306614 -3.12901 0
M  V30 7424 N 696.185 0.383891 -1.52853 0
M  V30 7425 C 697.434 1.12563 -1.67369 0
M  V30 7426 C 697.747 1.90982 -0.422533 0
M  V30 7427 O 698.953 2.6778 -0.447914 0
M  V30 7428 C 697.409 2.05011 -2.95801 0
M  V30 7429 C 697.017 1.31991 -4.28115 0
M  V30 7430 C 698.761 2.79289 -3.19684 0
M  V30 7431 C 696.668 2.23235 -5.4765 0
M  V30 7432 H 695.598 0.42391 -0.623552 0
M  V30 7433 H 698.249 0.388016 -1.79351 0
M  V30 7434 H 696.631 2.82429 -2.77578 0
M  V30 7435 H 697.805 0.597633 -4.56908 0
M  V30 7436 H 696.12 0.696517 -4.10533 0
M  V30 7437 H 698.717 3.47749 -4.06171 0
M  V30 7438 H 699.06 3.43649 -2.3497 0
M  V30 7439 H 699.593 2.08962 -3.38496 0
M  V30 7440 H 696.332 1.63482 -6.34786 0
M  V30 7441 H 695.852 2.93364 -5.23161 0
M  V30 7442 H 697.531 2.83205 -5.81725 0
M  V30 7443 N 697.663 1.43903 0.642637 0
M  V30 7444 C 698.888 1.49758 1.43483 0
M  V30 7445 C 699.313 0.119911 1.87717 0
M  V30 7446 O 698.671 -0.888558 1.58033 0
M  V30 7447 C 698.719 2.45744 2.63898 0
M  V30 7448 O 697.823 1.95101 3.63331 0
M  V30 7449 H 697.164 0.506138 0.429791 0
M  V30 7450 H 699.694 1.88923 0.785438 0
M  V30 7451 H 699.704 2.63399 3.11584 0
M  V30 7452 H 698.379 3.45818 2.31046 0
M  V30 7453 H 696.956 1.87158 3.22531 0
M  V30 7454 N 699.141 -0.881989 1.30609 0
M  V30 7455 C 700.552 -1.44956 1.17664 0
M  V30 7456 C 700.903 -1.94945 -0.221531 0
M  V30 7457 O 700.028 -1.85257 -1.11844 0
M  V30 7458 C 700.623 -2.63474 2.12995 0
M  V30 7459 C 699.182 -3.16312 2.04019 0
M  V30 7460 C 698.329 -1.89008 2.02907 0
M  V30 7461 H 701.28 -0.691645 1.42835 0
M  V30 7462 H 701.301 -3.39783 1.71253 0
M  V30 7463 H 700.813 -2.2706 3.14746 0
M  V30 7464 H 698.914 -3.57376 1.0542 0
M  V30 7465 H 699.027 -3.79409 2.9255 0
M  V30 7466 H 697.391 -2.07465 1.47751 0
M  V30 7467 H 698.174 -1.54848 3.06394 0
M  V30 7468 N 700.619 -1.13374 -1.09472 0
M  V30 7469 C 701.582 -0.813639 -2.14272 0
M  V30 7470 C 702.582 0.176677 -1.59826 0
M  V30 7471 O 703.772 -0.0503441 -1.74127 0
M  V30 7472 C 700.904 -0.210897 -3.40247 0
M  V30 7473 H 702.097 -1.74229 -2.44099 0
M  V30 7474 H 699.65 -0.938304 -1.25002 0
M  V30 7475 H 700.385 0.726998 -3.16046 0
M  V30 7476 H 700.17 -0.924048 -3.81056 0
M  V30 7477 H 701.66 -0.00377603 -4.176 0
M  V30 7478 N 702.098 1.27442 -0.927168 0
M  V30 7479 C 703.323 1.99036 -0.583042 0
M  V30 7480 C 703.748 1.68711 0.83176 0
M  V30 7481 O 703.106 0.927081 1.55804 0
M  V30 7482 C 703.154 3.51271 -0.814925 0
M  V30 7483 O 702.258 4.12226 0.119742 0
M  V30 7484 H 701.599 0.624883 -0.224538 0
M  V30 7485 H 704.129 1.62263 -1.24628 0
M  V30 7486 H 704.139 4.01411 -0.730282 0
M  V30 7487 H 702.814 3.72676 -1.84623 0
M  V30 7488 H 701.391 3.72897 -0.0147688 0
M  V30 7489 N 703.576 0.692616 1.41565 0
M  V30 7490 C 704.987 0.297478 1.84315 0
M  V30 7491 C 705.338 -1.16379 1.57957 0
M  V30 7492 O 704.463 -1.89303 1.0485 0
M  V30 7493 C 705.058 0.533136 3.34579 0
M  V30 7494 C 703.617 0.191944 3.7591 0
M  V30 7495 C 702.764 0.816873 2.64995 0
M  V30 7496 H 705.715 0.893488 1.31158 0
M  V30 7497 H 705.736 -0.209105 3.79925 0
M  V30 7498 H 705.248 1.59674 3.53731 0
M  V30 7499 H 703.349 -0.867512 3.6236 0
M  V30 7500 H 703.462 0.644902 4.7474 0
M  V30 7501 H 701.826 0.246715 2.53502 0
M  V30 7502 H 702.609 1.88429 2.86966 0
M  V30 7503 N 705.054 -1.51416 0.437162 0
M  V30 7504 C 706.301 -2.02086 -0.129364 0
M  V30 7505 C 706.629 -1.32133 -1.42728 0
M  V30 7506 O 705.884 -0.424916 -1.91031 0
M  V30 7507 C 706.183 -3.55203 -0.39564 0
M  V30 7508 C 705.849 -4.43447 0.81644 0
M  V30 7509 C 704.511 -4.67285 1.14884 0
M  V30 7510 C 706.863 -4.95219 1.62503 0
M  V30 7511 C 704.191 -5.40141 2.29052 0
M  V30 7512 C 706.543 -5.69327 2.7577 0
M  V30 7513 C 705.207 -5.91429 3.09464 0
M  V30 7514 H 704.477 -0.739486 -0.0473375 0
M  V30 7515 H 707.124 -1.82368 0.584321 0
M  V30 7516 H 705.429 -3.73252 -1.19121 0
M  V30 7517 H 707.126 -3.91944 -0.847399 0
M  V30 7518 H 703.716 -4.2509 0.547422 0
M  V30 7519 H 707.9 -4.76686 1.38144 0
M  V30 7520 H 703.156 -5.55468 2.55471 0
M  V30 7521 H 707.33 -6.08433 3.38795 0
M  V30 7522 H 704.957 -6.47662 3.98042 0
M  V30 7523 N 706.532 -0.168513 -1.56696 0
M  V30 7524 C 707.464 0.794249 -2.14998 0
M  V30 7525 C 708.477 1.1957 -1.10485 0
M  V30 7526 O 709.666 1.13604 -1.37682 0
M  V30 7527 C 706.766 2.08018 -2.67547 0
M  V30 7528 C 705.939 1.84274 -3.96689 0
M  V30 7529 C 704.998 2.97059 -4.3433 0
M  V30 7530 O 704.024 2.67815 -5.02259 0
M  V30 7531 N 705.226 4.24775 -3.9566 0
M  V30 7532 H 707.991 0.295832 -2.98236 0
M  V30 7533 H 705.552 0.0143611 -1.61894 0
M  V30 7534 H 707.544 2.82559 -2.89729 0
M  V30 7535 H 706.114 2.49059 -1.88914 0
M  V30 7536 H 705.334 0.936528 -3.82914 0
M  V30 7537 H 706.622 1.65773 -4.81037 0
M  V30 7538 H 706.02 4.51395 -3.40968 0
M  V30 7539 H 704.577 4.96027 -4.22848 0
M  V30 7540 N 708.01 1.57248 0.105221 0
M  V30 7541 C 709.238 1.89768 0.82437 0
M  V30 7542 C 709.653 0.761192 1.72775 0
M  V30 7543 O 709.01 -0.267342 1.80531 0
M  V30 7544 C 709.061 3.2184 1.64625 0
M  V30 7545 O 708.782 4.31115 0.779217 0
M  V30 7546 C 710.283 3.68155 2.46935 0
M  V30 7547 H 707.503 0.628031 0.236259 0
M  V30 7548 H 710.047 2.04321 0.085485 0
M  V30 7549 H 708.202 3.08915 2.33775 0
M  V30 7550 H 708.616 5.06897 1.34745 0
M  V30 7551 H 710.09 4.6329 3.00111 0
M  V30 7552 H 710.567 2.95492 3.24932 0
M  V30 7553 H 711.173 3.83914 1.83002 0
M  V30 7554 N 709.488 -0.375779 1.53054 0
M  V30 7555 C 710.716 -1.14036 1.72637 0
M  V30 7556 C 711.131 -1.83342 0.450687 0
M  V30 7557 O 710.488 -1.7318 -0.575749 0
M  V30 7558 C 710.539 -2.17841 2.88492 0
M  V30 7559 O 710.26 -1.51358 4.11123 0
M  V30 7560 C 711.761 -3.06924 3.19863 0
M  V30 7561 H 708.981 -0.341386 0.577665 0
M  V30 7562 H 711.525 -0.437809 1.99759 0
M  V30 7563 H 709.68 -2.8371 2.63794 0
M  V30 7564 H 710.094 -2.20439 4.75928 0
M  V30 7565 H 711.568 -3.75763 4.04359 0
M  V30 7566 H 712.045 -3.71169 2.34798 0
M  V30 7567 H 712.651 -2.46684 3.46449 0
M  V30 7568 N 710.966 -1.44241 -0.634997 0
M  V30 7569 C 712.215 -1.46102 -1.39058 0
M  V30 7570 C 712.528 -0.0959909 -1.95364 0
M  V30 7571 O 713.734 0.00788751 -2.71499 0
M  V30 7572 C 712.19 -2.57195 -2.51751 0
M  V30 7573 C 711.798 -3.99888 -2.01974 0
M  V30 7574 C 713.542 -2.68272 -3.28984 0
M  V30 7575 C 711.449 -5.02412 -3.11987 0
M  V30 7576 H 710.379 -0.543556 -0.522554 0
M  V30 7577 H 713.03 -1.70294 -0.683538 0
M  V30 7578 H 711.412 -2.26237 -3.25012 0
M  V30 7579 H 712.586 -4.40396 -1.35604 0
M  V30 7580 H 710.901 -3.93019 -1.37568 0
M  V30 7581 H 713.498 -3.42042 -4.10988 0
M  V30 7582 H 713.841 -1.73957 -3.78212 0
M  V30 7583 H 714.374 -2.98622 -2.62812 0
M  V30 7584 H 711.113 -5.98342 -2.67707 0
M  V30 7585 H 710.633 -4.66501 -3.77011 0
M  V30 7586 H 712.312 -5.25939 -3.76825 0
M  V30 7587 N 712.444 0.87505 -1.31075 0
M  V30 7588 C 713.855 1.4433 -1.18431 0
M  V30 7589 C 714.206 1.9506 0.211189 0
M  V30 7590 O 713.331 1.85847 1.10859 0
M  V30 7591 C 713.926 2.62341 -2.14389 0
M  V30 7592 C 712.485 3.15225 -2.05694 0
M  V30 7593 C 711.632 1.87929 -2.03907 0
M  V30 7594 H 714.583 0.684061 -1.432 0
M  V30 7595 H 714.604 3.3887 -1.73053 0
M  V30 7596 H 714.116 2.25388 -3.15946 0
M  V30 7597 H 712.217 3.56812 -1.07314 0
M  V30 7598 H 712.33 3.77853 -2.94558 0
M  V30 7599 H 710.694 2.06679 -1.48849 0
M  V30 7600 H 711.477 1.53221 -3.07211 0
M  V30 7601 N 713.922 1.13953 1.08869 0
M  V30 7602 C 714.852 0.844824 2.17681 0
M  V30 7603 C 715.833 -0.198213 1.68941 0
M  V30 7604 O 717.018 -0.0559073 1.9412 0
M  V30 7605 C 714.148 0.316325 3.45856 0
M  V30 7606 C 713.102 1.29426 4.07962 0
M  V30 7607 C 712.428 0.625275 5.31031 0
M  V30 7608 C 713.728 2.65484 4.49795 0
M  V30 7609 H 715.422 1.75471 2.42591 0
M  V30 7610 H 712.968 0.845116 1.16592 0
M  V30 7611 H 714.921 0.0977876 4.21287 0
M  V30 7612 H 713.645 -0.628972 3.20486 0
M  V30 7613 H 712.304 1.49889 3.34558 0
M  V30 7614 H 711.952 -0.325678 5.01945 0
M  V30 7615 H 711.652 1.27777 5.73539 0
M  V30 7616 H 713.176 0.416152 6.0918 0
M  V30 7617 H 714.59 2.48957 5.16424 0
M  V30 7618 H 712.987 3.26963 5.03205 0
M  V30 7619 H 714.057 3.22717 3.61914 0
M  V30 7620 N 715.4 -1.26948 0.933913 0
M  V30 7621 C 716.63 -1.97898 0.593279 0
M  V30 7622 C 717.038 -1.69806 -0.834412 0
M  V30 7623 O 716.381 -0.958704 -1.56699 0
M  V30 7624 C 716.443 -3.51657 0.746825 0
M  V30 7625 C 716.107 -4.03384 2.14779 0
M  V30 7626 C 717.104 -4.15682 3.12257 0
M  V30 7627 C 714.789 -4.37577 2.46641 0
M  V30 7628 C 716.783 -4.61455 4.39702 0
M  V30 7629 C 714.47 -4.8304 3.7432 0
M  V30 7630 C 715.468 -4.94939 4.70664 0
M  V30 7631 O 715.156 -5.39403 5.96071 0
M  V30 7632 H 714.888 -0.63814 0.223055 0
M  V30 7633 H 717.442 -1.62608 1.2549 0
M  V30 7634 H 715.672 -3.8669 0.0280889 0
M  V30 7635 H 717.361 -4.03821 0.410328 0
M  V30 7636 H 718.127 -3.89519 2.88964 0
M  V30 7637 H 714.006 -4.27554 1.72391 0
M  V30 7638 H 717.55 -4.70658 5.14905 0
M  V30 7639 H 713.447 -5.08646 3.97429 0
M  V30 7640 H 714.215 -5.57641 5.99148 0
M  V30 7641 N 716.879 -0.700114 -1.41195 0
M  V30 7642 C 717.809 -0.0521132 -2.33442 0
M  V30 7643 C 718.79 0.76228 -1.52063 0
M  V30 7644 O 719.975 0.714336 -1.80585 0
M  V30 7645 C 717.105 0.881693 -3.35922 0
M  V30 7646 C 716.059 0.174062 -4.27646 0
M  V30 7647 C 715.385 1.22254 -5.20536 0
M  V30 7648 C 716.685 -0.962396 -5.13357 0
M  V30 7649 H 718.379 -0.822574 -2.87879 0
M  V30 7650 H 715.925 -0.397011 -1.38419 0
M  V30 7651 H 717.878 1.34429 -3.99383 0
M  V30 7652 H 716.602 1.68387 -2.79845 0
M  V30 7653 H 715.261 -0.268551 -3.65615 0
M  V30 7654 H 714.909 2.01736 -4.60773 0
M  V30 7655 H 714.609 0.754038 -5.82742 0
M  V30 7656 H 716.133 1.68555 -5.86874 0
M  V30 7657 H 717.547 -0.579875 -5.7036 0
M  V30 7658 H 715.944 -1.35828 -5.84526 0
M  V30 7659 H 717.014 -1.80003 -4.50252 0
M  V30 7660 N 718.357 1.51182 -0.445186 0
M  V30 7661 C 719.304 2.27939 0.362291 0
M  V30 7662 C 720.274 1.31864 1.01 0
M  V30 7663 O 721.459 1.60776 1.02741 0
M  V30 7664 C 718.599 3.13016 1.45311 0
M  V30 7665 C 717.712 4.24093 0.822757 0
M  V30 7666 C 716.847 4.96467 1.88928 0
M  V30 7667 C 715.886 5.99454 1.23778 0
M  V30 7668 N 715.023 6.65206 2.24602 0
M  V30 7669 H 719.863 2.965 -0.29862 0
M  V30 7670 H 717.4 1.46237 -0.15911 0
M  V30 7671 H 719.358 3.60673 2.09692 0
M  V30 7672 H 717.988 2.46553 2.08354 0
M  V30 7673 H 717.04 3.80341 0.0670364 0
M  V30 7674 H 718.352 4.97853 0.307184 0
M  V30 7675 H 717.506 5.47712 2.60953 0
M  V30 7676 H 716.245 4.22355 2.4386 0
M  V30 7677 H 715.25 5.47494 0.503042 0
M  V30 7678 H 716.475 6.75527 0.695694 0
M  V30 7679 H 714.421 5.93901 2.78599 0
M  V30 7680 H 714.338 7.34756 1.77958 0
M  V30 7681 H 715.606 7.21078 2.96085 0
M  V30 7682 N 719.835 0.176821 1.56605 0
M  V30 7683 C 720.765 -0.746841 2.21234 0
M  V30 7684 C 721.746 -1.23502 1.16967 0
M  V30 7685 O 722.931 -1.28718 1.45414 0
M  V30 7686 C 720.061 -1.97407 2.8574 0
M  V30 7687 C 719.015 -1.62153 3.96094 0
M  V30 7688 C 718.341 -2.92387 4.47676 0
M  V30 7689 C 719.641 -0.845353 5.15413 0
M  V30 7690 H 721.335 -0.208116 2.98676 0
M  V30 7691 H 718.881 -0.0986594 1.43662 0
M  V30 7692 H 720.834 -2.62531 3.2963 0
M  V30 7693 H 719.558 -2.53703 2.05676 0
M  V30 7694 H 718.217 -0.993964 3.52868 0
M  V30 7695 H 717.865 -3.46734 3.64396 0
M  V30 7696 H 717.565 -2.69551 5.22127 0
M  V30 7697 H 719.089 -3.5853 4.94255 0
M  V30 7698 H 720.503 -1.39929 5.55961 0
M  V30 7699 H 718.9 -0.715814 5.95815 0
M  V30 7700 H 719.97 0.157239 4.84645 0
M  V30 7701 N 721.313 -1.57302 -0.09688 0
M  V30 7702 C 722.541 -1.90202 -0.814295 0
M  V30 7703 C 722.956 -0.770344 -1.72369 0
M  V30 7704 O 722.313 0.257764 -1.8067 0
M  V30 7705 C 722.364 -3.22708 -1.62916 0
M  V30 7706 O 722.085 -4.31522 -0.756343 0
M  V30 7707 C 723.586 -3.69459 -2.44979 0
M  V30 7708 H 720.806 -0.629275 -0.232925 0
M  V30 7709 H 723.35 -2.04364 -0.0746482 0
M  V30 7710 H 721.505 -3.1015 -2.32133 0
M  V30 7711 H 721.919 -5.07604 -1.32054 0
M  V30 7712 H 723.393 -4.64875 -2.9765 0
M  V30 7713 H 723.87 -2.97211 -3.23361 0
M  V30 7714 H 724.476 -3.84879 -1.80964 0
M  V30 7715 N 722.791 0.367657 -1.53252 0
M  V30 7716 C 723.754 1.43308 -1.78873 0
M  V30 7717 C 724.754 1.46671 -0.659115 0
M  V30 7718 O 725.944 1.47468 -0.927306 0
M  V30 7719 C 723.076 2.82442 -1.90892 0
M  V30 7720 H 724.269 1.21864 -2.74024 0
M  V30 7721 H 721.822 0.600668 -1.44297 0
M  V30 7722 H 722.557 3.09202 -0.978 0
M  V30 7723 H 722.342 2.81399 -2.73051 0
M  V30 7724 H 723.832 3.59601 -2.12314 0
M  V30 7725 N 724.269 1.44576 0.627338 0
M  V30 7726 C 725.199 1.54562 1.75022 0
M  V30 7727 C 726.18 0.398378 1.65369 0
M  V30 7728 O 727.365 0.61899 1.84071 0
M  V30 7729 C 724.495 1.49309 3.13567 0
M  V30 7730 C 723.449 2.62549 3.38012 0
M  V30 7731 C 722.775 2.42348 4.76625 0
M  V30 7732 C 724.075 4.04678 3.30202 0
M  V30 7733 H 725.769 2.4855 1.66922 0
M  V30 7734 H 723.315 1.19624 0.801636 0
M  V30 7735 H 725.268 1.54895 3.919 0
M  V30 7736 H 723.992 0.518392 3.2246 0
M  V30 7737 H 722.651 2.56358 2.62061 0
M  V30 7738 H 722.299 1.43062 4.82226 0
M  V30 7739 H 721.999 3.18273 4.93939 0
M  V30 7740 H 723.523 2.49758 5.57183 0
M  V30 7741 H 724.937 4.12217 3.98435 0
M  V30 7742 H 723.334 4.80836 3.5905 0
M  V30 7743 H 724.404 4.2798 2.27949 0
M  V30 7744 N 725.747 -0.868086 1.31537 0
M  V30 7745 C 726.71 -1.95703 1.19302 0
M  V30 7746 C 727.71 -1.60355 0.119612 0
M  V30 7747 O 728.9 -1.70247 0.36902 0
M  V30 7748 C 726.032 -3.30599 0.831684 0
M  V30 7749 H 727.225 -2.07982 2.16064 0
M  V30 7750 H 724.778 -1.05661 1.15176 0
M  V30 7751 H 725.513 -3.2402 -0.134694 0
M  V30 7752 H 725.298 -3.57629 1.60761 0
M  V30 7753 H 726.788 -4.10439 0.770026 0
M  V30 7754 N 727.225 -1.14528 -1.08264 0
M  V30 7755 C 728.471 -0.91576 -1.80947 0
M  V30 7756 C 728.804 0.55623 -1.86064 0
M  V30 7757 O 728.079 1.41207 -1.33756 0
M  V30 7758 C 728.362 -1.51917 -3.26486 0
M  V30 7759 C 728.215 -3.06111 -3.2957 0
M  V30 7760 C 729.534 -1.19724 -4.23502 0
M  V30 7761 H 726.653 -0.334113 -0.656915 0
M  V30 7762 H 729.295 -1.41547 -1.26746 0
M  V30 7763 H 727.445 -1.0942 -3.72773 0
M  V30 7764 H 729.117 -3.57448 -2.91597 0
M  V30 7765 H 727.36 -3.40483 -2.688 0
M  V30 7766 H 728.031 -3.43438 -4.32151 0
M  V30 7767 H 730.507 -1.56467 -3.85561 0
M  V30 7768 H 729.383 -1.64575 -5.23647 0
M  V30 7769 H 729.644 -0.112771 -4.41956 0
M  V30 7770 N 728.703 1.26451 -0.940633 0
M  V30 7771 C 729.931 1.97868 -0.604642 0
M  V30 7772 C 730.346 1.70051 0.820251 0
M  V30 7773 O 729.703 0.96843 1.54686 0
M  V30 7774 C 729.754 3.51684 -0.836689 0
M  V30 7775 O 729.475 3.78533 -2.20554 0
M  V30 7776 C 730.976 4.40343 -0.511169 0
M  V30 7777 H 728.196 0.631105 -0.227919 0
M  V30 7778 H 730.74 1.60979 -1.26119 0
M  V30 7779 H 728.895 3.86736 -0.226759 0
M  V30 7780 H 729.309 4.73065 -2.26517 0
M  V30 7781 H 730.783 5.47229 -0.724157 0
M  V30 7782 H 731.26 4.35694 0.553815 0
M  V30 7783 H 731.866 4.10834 -1.0998 0
M  V30 7784 N 730.181 0.707592 1.40822 0
M  V30 7785 C 731.428 0.243671 2.01029 0
M  V30 7786 C 731.756 -1.16057 1.5608 0
M  V30 7787 O 731.011 -1.7999 0.768251 0
M  V30 7788 C 731.31 0.262892 3.56432 0
M  V30 7789 C 730.976 1.61632 4.20935 0
M  V30 7790 C 729.638 1.98682 4.38268 0
M  V30 7791 C 731.99 2.50619 4.5699 0
M  V30 7792 C 729.318 3.2428 4.88937 0
M  V30 7793 C 731.67 3.75562 5.09054 0
M  V30 7794 C 730.334 4.12739 5.24598 0
M  V30 7795 H 729.604 0.0891654 0.735616 0
M  V30 7796 H 732.251 0.909051 1.68548 0
M  V30 7797 H 730.556 -0.486052 3.88773 0
M  V30 7798 H 732.253 -0.113775 4.00839 0
M  V30 7799 H 728.843 1.31818 4.07826 0
M  V30 7800 H 733.027 2.23272 4.43242 0
M  V30 7801 H 728.283 3.53064 4.99155 0
M  V30 7802 H 732.457 4.44692 5.35931 0
M  V30 7803 H 730.084 5.10132 5.63622 0
M  V30 7804 N 731.66 -1.50943 0.453197 0
M  V30 7805 C 732.59 -2.31005 -0.34044 0
M  V30 7806 C 733.571 -1.37112 -1.00669 0
M  V30 7807 O 734.756 -1.66033 -1.0073 0
M  V30 7808 C 731.886 -3.16358 -1.433 0
M  V30 7809 C 730.84 -4.18658 -0.889363 0
M  V30 7810 C 730.166 -4.92633 -2.07887 0
M  V30 7811 C 731.466 -5.22227 0.0871142 0
M  V30 7812 H 733.16 -2.97601 0.327723 0
M  V30 7813 H 730.706 -1.43119 0.159054 0
M  V30 7814 H 732.659 -3.71155 -1.99555 0
M  V30 7815 H 731.383 -2.47613 -2.12968 0
M  V30 7816 H 730.042 -3.64936 -0.348915 0
M  V30 7817 H 729.69 -4.20376 -2.76211 0
M  V30 7818 H 729.39 -5.61819 -1.72143 0
M  V30 7819 H 730.914 -5.50258 -2.64666 0
M  V30 7820 H 732.328 -5.72001 -0.385656 0
M  V30 7821 H 730.725 -5.99032 0.357926 0
M  V30 7822 H 731.795 -4.74077 1.01879 0
M  V30 7823 N 733.138 -0.185124 -1.56509 0
M  V30 7824 C 734.386 0.455357 -1.96903 0
M  V30 7825 C 734.707 1.62839 -1.07277 0
M  V30 7826 O 733.977 1.95385 -0.141966 0
M  V30 7827 H 732.557 0.171218 -0.727113 0
M  V30 7828 H 735.219 -0.26953 -1.93027 0
M  V30 7829 H 734.315 0.80616 -3.01509 0
M  V30 7830 N 734.616 1.57351 0.0885366 0
M  V30 7831 C 735.546 2.05561 1.10757 0
M  V30 7832 C 736.527 0.945789 1.41382 0
M  V30 7833 O 737.712 1.21747 1.51299 0
M  V30 7834 C 734.842 2.48554 2.42566 0
M  V30 7835 C 733.796 3.63259 2.26334 0
M  V30 7836 C 733.122 3.9225 3.63378 0
M  V30 7837 C 734.422 4.93913 1.69844 0
M  V30 7838 H 736.116 2.90946 0.706468 0
M  V30 7839 H 733.662 1.39968 0.338385 0
M  V30 7840 H 735.615 2.8089 3.14132 0
M  V30 7841 H 734.339 1.60176 2.84625 0
M  V30 7842 H 732.998 3.31179 1.57213 0
M  V30 7843 H 732.646 3.0103 4.02976 0
M  V30 7844 H 732.346 4.69478 3.53362 0
M  V30 7845 H 733.87 4.27067 4.36401 0
M  V30 7846 H 735.284 5.24588 2.31258 0
M  V30 7847 H 733.681 5.75349 1.70569 0
M  V30 7848 H 734.751 4.80409 0.65843 0
M  V30 7849 N 736.094 -0.359525 1.53444 0
M  V30 7850 C 737.024 -1.44662 1.8329 0
M  V30 7851 C 738.005 -1.55617 0.68683 0
M  V30 7852 O 739.19 -1.70086 0.93725 0
M  V30 7853 C 736.32 -2.81923 2.02822 0
M  V30 7854 C 735.274 -2.85787 3.18606 0
M  V30 7855 C 734.6 -4.25781 3.23442 0
M  V30 7856 C 735.9 -2.52762 4.57065 0
M  V30 7857 H 737.594 -1.19934 2.74329 0
M  V30 7858 H 735.14 -0.575517 1.31999 0
M  V30 7859 H 737.093 -3.58005 2.22285 0
M  V30 7860 H 735.817 -3.08051 1.085 0
M  V30 7861 H 734.476 -2.12157 2.98973 0
M  V30 7862 H 734.124 -4.48994 2.26745 0
M  V30 7863 H 733.824 -4.29281 4.01238 0
M  V30 7864 H 735.348 -5.03727 3.45096 0
M  V30 7865 H 736.762 -3.18557 4.76649 0
M  V30 7866 H 735.159 -2.67569 5.37147 0
M  V30 7867 H 736.229 -1.47993 4.61764 0
M  V30 7868 N 737.572 -1.44907 -0.619662 0
M  V30 7869 C 738.8 -1.51795 -1.40591 0
M  V30 7870 C 739.215 -0.146553 -1.8823 0
M  V30 7871 O 738.572 0.849698 -1.61513 0
M  V30 7872 C 738.623 -2.49229 -2.61853 0
M  V30 7873 O 738.344 -3.81039 -2.16197 0
M  V30 7874 C 739.845 -2.65696 -3.54853 0
M  V30 7875 H 737.065 -0.514463 -0.430777 0
M  V30 7876 H 739.609 -1.8998 -0.756813 0
M  V30 7877 H 737.764 -2.14149 -3.2283 0
M  V30 7878 H 738.178 -4.33747 -2.94896 0
M  V30 7879 H 739.652 -3.37874 -4.36515 0
M  V30 7880 H 740.129 -1.71316 -4.0441 0
M  V30 7881 H 740.735 -3.01724 -2.99737 0
M  V30 7882 N 739.05 0.861098 -1.31996 0
M  V30 7883 C 740.013 1.95068 -1.20338 0
M  V30 7884 C 741.013 1.60289 -0.128114 0
M  V30 7885 O 742.203 1.70048 -0.378044 0
M  V30 7886 C 739.335 3.30153 -0.849205 0
M  V30 7887 H 740.528 2.06833 -2.17164 0
M  V30 7888 H 738.081 1.05049 -1.15734 0
M  V30 7889 H 738.816 3.24087 0.117508 0
M  V30 7890 H 738.601 3.56771 -1.62655 0
M  V30 7891 H 740.091 4.10025 -0.791782 0
M  V30 7892 N 740.528 1.15101 1.07655 0
M  V30 7893 C 741.458 0.867864 2.16773 0
M  V30 7894 C 742.439 -0.180283 1.69142 0
M  V30 7895 O 743.624 -0.0353152 1.94168 0
M  V30 7896 C 740.754 0.35299 3.45501 0
M  V30 7897 C 739.708 1.33746 4.06566 0
M  V30 7898 C 739.034 0.681562 5.30338 0
M  V30 7899 C 740.334 2.7024 4.46954 0
M  V30 7900 H 742.028 1.78034 2.40716 0
M  V30 7901 H 739.574 0.857435 1.15689 0
M  V30 7902 H 741.527 0.142465 4.21159 0
M  V30 7903 H 740.251 -0.594945 3.21135 0
M  V30 7904 H 738.91 1.53429 3.32949 0
M  V30 7905 H 738.558 -0.272422 5.02262 0
M  V30 7906 H 738.258 1.33853 5.72151 0
M  V30 7907 H 739.782 0.48074 6.08705 0
M  V30 7908 H 741.196 2.5442 5.13754 0
M  V30 7909 H 739.593 3.32282 4.99709 0
M  V30 7910 H 740.663 3.26537 3.58471 0
M  V30 7911 N 742.006 -1.2595 0.947325 0
M  V30 7912 C 743.283 -1.88676 0.515824 0
M  V30 7913 C 743.663 -1.85547 -1.00675 0
M  V30 7914 O 743.011 -1.31399 -1.8694 0
M  V30 7915 C 743.221 -3.31734 1.08415 0
M  V30 7916 C 744.569 -4.08545 1.15654 0
M  V30 7917 O 745.593 -3.40826 1.03517 0
M  V30 7918 O 744.452 -5.29663 1.34608 0
M  V30 7919 H 741.546 -0.809537 0.169055 0
M  V30 7920 H 744.092 -1.34075 1.04029 0
M  V30 7921 H 742.864 -3.28404 2.1276 0
M  V30 7922 H 742.487 -3.93882 0.542499 0
M  V30 7923 N 743.484 -0.715051 -1.40445 0
M  V30 7924 C 744.414 -0.0768699 -2.33373 0
M  V30 7925 C 745.395 0.746109 -1.52863 0
M  V30 7926 O 746.58 0.695142 -1.81332 0
M  V30 7927 C 743.71 0.846014 -3.36838 0
M  V30 7928 C 742.664 0.128694 -4.27806 0
M  V30 7929 C 741.99 1.16726 -5.21804 0
M  V30 7930 C 743.29 -1.01679 -5.12307 0
M  V30 7931 H 744.984 -0.853061 -2.8699 0
M  V30 7932 H 742.53 -0.41167 -1.3799 0
M  V30 7933 H 744.483 1.30185 -4.00786 0
M  V30 7934 H 743.207 1.6541 -2.81615 0
M  V30 7935 H 741.866 -0.307314 -3.6531 0
M  V30 7936 H 741.514 1.96838 -4.62887 0
M  V30 7937 H 741.214 0.692188 -5.83509 0
M  V30 7938 H 742.738 1.62321 -5.88629 0
M  V30 7939 H 744.152 -0.640337 -5.69713 0
M  V30 7940 H 742.549 -1.4202 -5.83053 0
M  V30 7941 H 743.619 -1.84769 -4.48317 0
M  V30 7942 N 744.962 1.50701 -0.461195 0
M  V30 7943 C 745.91 2.29918 0.352231 0
M  V30 7944 C 746.904 1.36778 0.999403 0
M  V30 7945 O 748.11 1.54015 0.931639 0
M  V30 7946 H 744.485 0.740249 0.132423 0
M  V30 7947 H 746.456 2.96497 -0.336424 0
M  V30 7948 C 745.205 3.17052 1.42736 0
M  V30 7949 H 744.528 3.88623 0.938747 0
M  V30 7950 H 745.968 3.75493 1.96928 0
M  V30 7951 C 744.427 2.3399 2.42384 0
M  V30 7952 O 744.957 2.01608 3.47444 0
M  V30 7953 N 743.163 1.96758 2.13857 0
M  V30 7954 H 742.71 2.23292 1.28447 0
M  V30 7955 H 742.668 1.41484 2.80766 0
M  V30 7956 N 746.441 0.193421 1.56409 0
M  V30 7957 C 747.671 -0.450783 2.01622 0
M  V30 7958 C 748.079 -1.5585 1.07273 0
M  V30 7959 O 747.422 -1.83569 0.0694875 0
M  V30 7960 C 747.484 -1.06913 3.43235 0
M  V30 7961 C 747.148 -0.100352 4.5689 0
M  V30 7962 C 748.145 0.689633 5.15306 0
M  V30 7963 C 745.83 0.0102436 5.02299 0
M  V30 7964 C 747.824 1.5772 6.17579 0
M  V30 7965 C 745.511 0.901368 6.04416 0
M  V30 7966 C 746.509 1.68341 6.61929 0
M  V30 7967 O 746.197 2.5596 7.62063 0
M  V30 7968 H 745.929 -0.117671 0.66568 0
M  V30 7969 H 748.483 0.2989 2.03214 0
M  V30 7970 H 746.713 -1.86736 3.38624 0
M  V30 7971 H 748.402 -1.61781 3.72266 0
M  V30 7972 H 749.168 0.614485 4.81092 0
M  V30 7973 H 745.047 -0.58829 4.57231 0
M  V30 7974 H 748.591 2.18805 6.62397 0
M  V30 7975 H 744.488 0.977637 6.38054 0
M  V30 7976 H 745.256 2.49721 7.79475 0
M  V30 7977 N 747.919 -1.57396 -0.0801906 0
M  V30 7978 C 748.849 -2.06145 -1.09665 0
M  V30 7979 C 749.83 -0.953273 -1.40878 0
M  V30 7980 O 751.015 -1.22548 -1.50651 0
M  V30 7981 C 748.145 -2.49836 -2.41245 0
M  V30 7982 C 747.099 -3.64454 -2.24405 0
M  V30 7983 C 746.425 -3.94172 -3.61293 0
M  V30 7984 C 747.725 -4.94807 -1.67223 0
M  V30 7985 H 749.419 -2.91316 -0.691028 0
M  V30 7986 H 746.965 -1.40145 -0.330957 0
M  V30 7987 H 748.918 -2.82552 -3.12638 0
M  V30 7988 H 747.642 -1.61683 -2.83771 0
M  V30 7989 H 746.301 -3.32008 -1.55454 0
M  V30 7990 H 745.949 -3.03163 -4.01374 0
M  V30 7991 H 745.649 -4.71345 -3.50867 0
M  V30 7992 H 747.173 -4.29376 -4.3413 0
M  V30 7993 H 748.587 -5.25807 -2.28472 0
M  V30 7994 H 746.984 -5.76245 -1.67515 0
M  V30 7995 H 748.054 -4.80751 -0.632944 0
M  V30 7996 N 749.397 0.351382 -1.53633 0
M  V30 7997 C 750.625 1.11275 -1.74429 0
M  V30 7998 C 751.04 1.82602 -0.479798 0
M  V30 7999 O 750.397 1.74074 0.548125 0
M  V30 8000 C 750.448 2.13223 -2.91921 0
M  V30 8001 O 750.169 1.44798 -4.13479 0
M  V30 8002 C 751.67 3.01797 -3.24706 0
M  V30 8003 H 748.89 0.332153 -0.583023 0
M  V30 8004 H 751.434 0.405974 -2.0043 0
M  V30 8005 H 749.589 2.79477 -2.68274 0
M  V30 8006 H 750.003 2.12839 -4.79374 0
M  V30 8007 H 751.477 3.69282 -4.10286 0
M  V30 8008 H 751.954 3.67387 -2.40673 0
M  V30 8009 H 752.56 2.41141 -3.5033 0
M  V30 8010 N 750.875 1.45233 0.611969 0
M  V30 8011 C 751.823 1.53898 1.74408 0
M  V30 8012 C 752.817 0.409254 1.64382 0
M  V30 8013 O 754.023 0.584988 1.70229 0
M  V30 8014 H 750.398 0.483303 0.576127 0
M  V30 8015 H 752.369 2.49143 1.64227 0
M  V30 8016 C 751.118 1.51865 3.12782 0
M  V30 8017 H 750.441 2.38118 3.21154 0
M  V30 8018 H 751.881 1.61986 3.91838 0
M  V30 8019 C 750.34 0.242374 3.36027 0
M  V30 8020 O 750.87 -0.679587 3.9591 0
M  V30 8021 N 749.076 0.139448 2.90265 0
M  V30 8022 H 748.623 0.890571 2.41716 0
M  V30 8023 H 748.581 -0.713686 3.06193 0
M  V30 8024 N 752.353 -0.854086 1.3245 0
M  V30 8025 C 753.3 -1.96271 1.21434 0
M  V30 8026 C 754.27 -1.6582 0.0963851 0
M  V30 8027 O 755.455 -1.88851 0.27203 0
M  V30 8028 C 752.595 -3.31939 0.943952 0
M  V30 8029 C 751.708 -3.74885 2.14675 0
M  V30 8030 C 750.843 -4.99347 1.81179 0
M  V30 8031 C 749.882 -5.34785 2.97777 0
M  V30 8032 N 749.019 -6.50425 2.6437 0
M  V30 8033 H 753.859 -2.05025 2.16261 0
M  V30 8034 H 751.396 -1.00348 1.07558 0
M  V30 8035 H 753.354 -4.10076 0.767675 0
M  V30 8036 H 751.984 -3.22784 0.0324763 0
M  V30 8037 H 751.036 -2.92396 2.43328 0
M  V30 8038 H 752.348 -3.97068 3.01891 0
M  V30 8039 H 751.502 -5.85193 1.60107 0
M  V30 8040 H 750.241 -4.79101 0.911777 0
M  V30 8041 H 749.246 -4.47451 3.1948 0
M  V30 8042 H 750.471 -5.56988 3.88511 0
M  V30 8043 H 748.417 -6.31695 1.7691 0
M  V30 8044 H 748.334 -6.7263 3.45116 0
M  V30 8045 H 749.602 -7.39422 2.46729 0
M  V30 8046 N 753.831 -1.1567 -1.07043 0
M  V30 8047 C 754.761 -0.879348 -2.16309 0
M  V30 8048 C 755.742 0.171311 -1.69235 0
M  V30 8049 O 756.927 0.0250175 -1.94184 0
M  V30 8050 C 754.057 -0.371307 -3.45309 0
M  V30 8051 C 753.011 -1.359 -4.05851 0
M  V30 8052 C 752.337 -0.709678 -5.29969 0
M  V30 8053 C 753.637 -2.72606 -4.45514 0
M  V30 8054 H 755.331 -1.79308 -2.39768 0
M  V30 8055 H 752.877 -0.863558 -1.15233 0
M  V30 8056 H 754.83 -0.164798 -4.21078 0
M  V30 8057 H 753.554 0.577906 -3.21446 0
M  V30 8058 H 752.213 -1.55193 -3.32131 0
M  V30 8059 H 751.861 0.245782 -5.02399 0
M  V30 8060 H 751.561 -1.36886 -5.71433 0
M  V30 8061 H 753.085 -0.513015 -6.08441 0
M  V30 8062 H 754.499 -2.57141 -5.12398 0
M  V30 8063 H 752.896 -3.34927 -4.97939 0
M  V30 8064 H 753.966 -3.28434 -3.56734 0
M  V30 8065 N 755.309 1.25446 -0.953992 0
M  V30 8066 C 756.256 2.25912 -0.472485 0
M  V30 8067 C 757.226 1.59173 0.47469 0
M  V30 8068 O 758.411 1.86812 0.388082 0
M  V30 8069 C 755.551 3.44235 0.244218 0
M  V30 8070 C 754.664 4.25613 -0.740121 0
M  V30 8071 C 753.799 5.312 -0.000922267 0
M  V30 8072 C 752.838 6.04265 -0.976236 0
M  V30 8073 N 751.975 7.01589 -0.267952 0
M  V30 8074 H 756.815 2.66469 -1.3341 0
M  V30 8075 H 754.352 1.31005 -0.669045 0
M  V30 8076 H 756.31 4.11682 0.676314 0
M  V30 8077 H 754.94 3.04554 1.06988 0
M  V30 8078 H 753.992 3.57834 -1.2907 0
M  V30 8079 H 755.304 4.762 -1.48441 0
M  V30 8080 H 754.458 6.04719 0.48984 0
M  V30 8081 H 753.197 4.81484 0.776159 0
M  V30 8082 H 752.202 5.29561 -1.478 0
M  V30 8083 H 753.427 6.5607 -1.75354 0
M  V30 8084 H 751.373 6.54164 0.490403 0
M  V30 8085 H 751.29 7.4999 -0.951344 0
M  V30 8086 H 752.558 7.7924 0.201294 0
M  V30 8087 N 756.787 0.722489 1.40064 0
M  V30 8088 C 757.72 0.0233443 2.28188 0
M  V30 8089 C 758.698 -0.7606 1.43714 0
M  V30 8090 O 759.882 -0.745791 1.73119 0
M  V30 8091 C 757.009 -0.974264 3.24385 0
M  V30 8092 C 756.055 -0.280307 4.25578 0
M  V30 8093 S 756.888 0.996769 5.26141 0
M  V30 8094 C 758.044 0.00143923 6.259 0
M  V30 8095 H 758.277 0.770705 2.87137 0
M  V30 8096 H 755.81 0.513783 1.45601 0
M  V30 8097 H 757.768 -1.5446 3.80332 0
M  V30 8098 H 756.429 -1.69438 2.6448 0
M  V30 8099 H 755.622 -1.03471 4.93264 0
M  V30 8100 H 755.224 0.217657 3.73366 0
M  V30 8101 H 757.516 -0.843126 6.72233 0
M  V30 8102 H 758.459 0.645104 7.05155 0
M  V30 8103 H 758.867 -0.365371 5.63316 0
M  V30 8104 N 758.265 -1.50454 0.469181 0
M  V30 8105 C 759.212 -2.28486 -0.325982 0
M  V30 8106 C 760.182 -1.33455 -0.988893 0
M  V30 8107 O 761.367 -1.6239 -1.0017 0
M  V30 8108 C 758.507 -3.15288 -1.40313 0
M  V30 8109 C 757.62 -4.25348 -0.755183 0
M  V30 8110 C 756.755 -4.9941 -1.81006 0
M  V30 8111 C 755.794 -6.01348 -1.14226 0
M  V30 8112 N 754.931 -6.68695 -2.1399 0
M  V30 8113 H 759.771 -2.95987 0.345753 0
M  V30 8114 H 757.308 -1.45965 0.182355 0
M  V30 8115 H 759.266 -3.63964 -2.03927 0
M  V30 8116 H 757.896 -2.49837 -2.04405 0
M  V30 8117 H 756.948 -3.80399 -0.00651901 0
M  V30 8118 H 758.26 -4.98279 -0.227941 0
M  V30 8119 H 757.414 -5.51794 -2.52206 0
M  V30 8120 H 756.153 -4.26181 -2.3711 0
M  V30 8121 H 755.158 -5.48225 -0.415876 0
M  V30 8122 H 756.383 -6.76548 -0.588135 0
M  V30 8123 H 754.329 -5.98258 -2.69115 0
M  V30 8124 H 754.246 -7.37495 -1.66246 0
M  V30 8125 H 755.514 -7.25697 -2.84576 0
M  V30 8126 N 759.743 -0.201713 -1.56304 0
M  V30 8127 C 760.968 0.443815 -2.02596 0
M  V30 8128 C 761.393 1.53945 -1.08086 0
M  V30 8129 O 760.751 1.81182 -0.0655056 0
M  V30 8130 C 760.799 0.971066 -3.47279 0
M  V30 8131 O 759.903 2.0836 -3.55893 0
M  V30 8132 H 759.244 0.10294 -0.655972 0
M  V30 8133 H 761.774 -0.314533 -2.02168 0
M  V30 8134 H 761.784 1.28598 -3.87204 0
M  V30 8135 H 760.459 0.169048 -4.15556 0
M  V30 8136 H 759.036 1.77683 -3.27846 0
M  V30 8137 N 761.222 1.57436 0.0718424 0
M  V30 8138 C 762.633 1.75975 0.623678 0
M  V30 8139 C 762.984 0.827155 1.77912 0
M  V30 8140 O 762.109 0.0112425 2.16397 0
M  V30 8141 C 762.704 3.1911 1.13816 0
M  V30 8142 C 761.263 3.38994 1.63586 0
M  V30 8143 C 760.41 2.71684 0.555261 0
M  V30 8144 H 763.361 1.57948 -0.154328 0
M  V30 8145 H 763.382 3.23267 2.00696 0
M  V30 8146 H 762.894 3.86962 0.296998 0
M  V30 8147 H 760.995 2.76256 2.50027 0
M  V30 8148 H 761.108 4.47436 1.71283 0
M  V30 8149 H 759.472 2.34236 1.00029 0
M  V30 8150 H 760.255 3.42191 -0.275712 0
M  V30 8151 N 762.7 -0.34323 1.53817 0
M  V30 8152 C 763.63 -1.42709 1.84814 0
M  V30 8153 C 764.611 -1.5488 0.703297 0
M  V30 8154 O 765.796 -1.69082 0.955237 0
M  V30 8155 C 762.926 -2.79756 2.05801 0
M  V30 8156 C 761.88 -2.82392 3.21619 0
M  V30 8157 C 761.206 -4.22326 3.2794 0
M  V30 8158 C 762.506 -2.479 4.59721 0
M  V30 8159 H 764.2 -1.17018 2.75585 0
M  V30 8160 H 761.746 -0.561485 1.32602 0
M  V30 8161 H 763.699 -3.55627 2.26069 0
M  V30 8162 H 762.423 -3.06883 1.11761 0
M  V30 8163 H 761.082 -2.08974 3.01207 0
M  V30 8164 H 760.73 -4.46564 2.31494 0
M  V30 8165 H 760.43 -4.25001 4.05768 0
M  V30 8166 H 761.954 -5.00039 3.50419 0
M  V30 8167 H 763.368 -3.13484 4.80001 0
M  V30 8168 H 761.765 -2.61857 5.39954 0
M  V30 8169 H 762.835 -1.43087 4.63308 0
M  V30 8170 N 764.178 -1.45556 -0.604258 0
M  V30 8171 C 765.418 -1.51289 -1.37445 0
M  V30 8172 C 765.782 -0.152112 -1.91397 0
M  V30 8173 O 766.983 -0.0841419 -2.68668 0
M  V30 8174 C 765.254 -2.5646 -2.48924 0
M  V30 8175 S 766.813 -2.81442 -3.36654 0
M  V30 8176 H 763.631 -0.534774 -0.468549 0
M  V30 8177 H 766.233 -1.82657 -0.696902 0
M  V30 8178 H 764.937 -3.53995 -2.07644 0
M  V30 8179 H 764.468 -2.26753 -3.21476 0
M  V30 8180 H 766.483 -2.15074 -4.47166 0
M  V30 8181 N 765.656 0.84705 -1.32902 0
M  V30 8182 C 766.884 1.63403 -1.26913 0
M  V30 8183 C 767.299 1.88108 0.161483 0
M  V30 8184 O 766.656 1.45546 1.10103 0
M  V30 8185 C 766.707 2.98896 -2.03331 0
M  V30 8186 O 766.428 2.75281 -3.40811 0
M  V30 8187 C 767.929 3.93335 -2.04457 0
M  V30 8188 H 765.149 0.508701 -0.437566 0
M  V30 8189 H 767.693 1.05567 -1.75145 0
M  V30 8190 H 765.848 3.53356 -1.58802 0
M  V30 8191 H 766.262 3.61504 -3.8002 0
M  V30 8192 H 767.736 4.85647 -2.62394 0
M  V30 8193 H 768.213 4.26885 -1.03274 0
M  V30 8194 H 768.819 3.44812 -2.48967 0
M  V30 8195 N 767.134 1.16236 1.06428 0
M  V30 8196 C 768.381 0.943034 1.79201 0
M  V30 8197 C 768.709 -0.529243 1.87161 0
M  V30 8198 O 767.964 -1.40874 1.35842 0
M  V30 8199 C 768.263 1.51396 3.2375 0
M  V30 8200 C 767.929 3.00833 3.35873 0
M  V30 8201 C 766.591 3.41626 3.38888 0
M  V30 8202 C 768.943 3.96825 3.37904 0
M  V30 8203 C 766.271 4.77033 3.4155 0
M  V30 8204 C 768.623 5.32116 3.42104 0
M  V30 8205 C 767.287 5.72392 3.43401 0
M  V30 8206 H 766.557 0.34508 0.655744 0
M  V30 8207 H 769.204 1.44929 1.25171 0
M  V30 8208 H 767.509 0.929114 3.80624 0
M  V30 8209 H 769.206 1.31996 3.78653 0
M  V30 8210 H 765.796 2.68306 3.3423 0
M  V30 8211 H 769.98 3.66376 3.34787 0
M  V30 8212 H 765.236 5.07569 3.40858 0
M  V30 8213 H 769.41 6.06286 3.42623 0
M  V30 8214 H 767.037 6.77296 3.45216 0
M  V30 8215 N 768.612 -1.24939 0.960631 0
M  V30 8216 C 769.842 -1.96595 0.635123 0
M  V30 8217 C 770.25 -1.71538 -0.798206 0
M  V30 8218 O 769.593 -0.991727 -1.5463 0
M  V30 8219 C 769.655 -3.49994 0.821248 0
M  V30 8220 C 769.319 -3.98738 2.23287 0
M  V30 8221 C 770.316 -4.08965 3.21004 0
M  V30 8222 C 768.001 -4.32247 2.55867 0
M  V30 8223 C 769.995 -4.52025 4.49391 0
M  V30 8224 C 767.682 -4.74991 3.84482 0
M  V30 8225 C 768.68 -4.84844 4.81056 0
M  V30 8226 O 768.368 -5.26638 6.07378 0
M  V30 8227 H 768.1 -0.633265 0.23654 0
M  V30 8228 H 770.654 -1.5991 1.28911 0
M  V30 8229 H 768.884 -3.86543 0.110105 0
M  V30 8230 H 770.573 -4.02859 0.495892 0
M  V30 8231 H 771.339 -3.83302 2.97161 0
M  V30 8232 H 767.218 -4.23801 1.81421 0
M  V30 8233 H 770.762 -4.5963 5.24773 0
M  V30 8234 H 766.659 -5.00101 4.08129 0
M  V30 8235 H 767.427 -5.44807 6.10842 0
M  V30 8236 N 770.09 -0.729906 -1.39679 0
M  V30 8237 C 771.337 -0.275622 -2.00615 0
M  V30 8238 C 771.665 1.13559 -1.57907 0
M  V30 8239 O 770.92 1.78745 -0.796789 0
M  V30 8240 C 771.219 -0.319564 -3.55968 0
M  V30 8241 C 770.885 -1.68308 -4.1831 0
M  V30 8242 C 769.547 -2.05629 -4.35052 0
M  V30 8243 C 771.899 -2.57857 -4.52945 0
M  V30 8244 C 769.227 -3.32018 -4.83716 0
M  V30 8245 C 771.579 -3.83613 -5.03015 0
M  V30 8246 C 770.243 -4.21033 -5.17965 0
M  V30 8247 H 769.513 -0.100857 -0.734104 0
M  V30 8248 H 772.16 -0.93575 -1.67081 0
M  V30 8249 H 770.465 0.42414 -3.89497 0
M  V30 8250 H 772.162 0.0499905 -4.00969 0
M  V30 8251 H 768.752 -1.3829 -4.05677 0
M  V30 8252 H 772.936 -2.30295 -4.39634 0
M  V30 8253 H 768.192 -3.6096 -4.93475 0
M  V30 8254 H 772.366 -4.53162 -5.28788 0
M  V30 8255 H 769.993 -5.19034 -5.55435 0
M  V30 8256 N 771.568 1.50203 -0.477153 0
M  V30 8257 C 772.793 2.07263 0.0754986 0
M  V30 8258 C 773.218 1.33801 1.32208 0
M  V30 8259 O 772.576 0.387482 1.77111 0
M  V30 8260 C 772.624 3.59028 0.336348 0
M  V30 8261 O 771.728 3.87339 1.4157 0
M  V30 8262 H 771.069 0.663815 -0.015662 0
M  V30 8263 H 773.599 1.93321 -0.669936 0
M  V30 8264 H 773.609 4.03927 0.575034 0
M  V30 8265 H 772.284 4.11912 -0.574551 0
M  V30 8266 H 770.861 3.54272 1.16385 0
M  V30 8267 N 773.046 0.209999 1.56195 0
M  V30 8268 C 773.994 -0.721416 2.2113 0
M  V30 8269 C 774.988 -1.20852 1.18706 0
M  V30 8270 O 776.194 -1.16968 1.36815 0
M  V30 8271 H 772.569 -0.251033 0.708863 0
M  V30 8272 H 774.54 -0.150193 2.98022 0
M  V30 8273 C 773.289 -1.92392 2.89621 0
M  V30 8274 H 772.612 -1.5582 3.68185 0
M  V30 8275 H 774.052 -2.55367 3.38473 0
M  V30 8276 C 772.511 -2.77208 1.91461 0
M  V30 8277 O 773.041 -3.75603 1.42426 0
M  V30 8278 N 771.247 -2.43006 1.59363 0
M  V30 8279 H 770.794 -1.63047 1.99433 0
M  V30 8280 H 770.752 -3.00036 0.939449 0
M  V30 8281 N 774.524 -1.57472 -0.0634922 0
M  V30 8282 C 775.457 -1.99571 -1.10664 0
M  V30 8283 C 776.435 -0.874015 -1.37112 0
M  V30 8284 O 777.619 -1.13702 -1.50347 0
M  V30 8285 C 774.746 -2.3395 -2.44918 0
M  V30 8286 C 773.792 -3.56213 -2.34551 0
M  V30 8287 S 774.625 -5.06727 -1.73169 0
M  V30 8288 C 775.781 -5.44316 -3.08984 0
M  V30 8289 H 776.014 -2.87739 -0.747905 0
M  V30 8290 H 773.547 -1.5198 -0.272316 0
M  V30 8291 H 775.505 -2.54431 -3.22141 0
M  V30 8292 H 774.166 -1.46297 -2.7795 0
M  V30 8293 H 773.359 -3.77812 -3.33578 0
M  V30 8294 H 772.961 -3.35406 -1.65466 0
M  V30 8295 H 775.253 -5.42894 -4.05305 0
M  V30 8296 H 776.196 -6.4502 -2.92156 0
M  V30 8297 H 776.604 -4.71781 -3.09972 0
M  V30 8298 N 776.003 0.335068 -1.53997 0
M  V30 8299 C 776.933 1.41727 -1.85568 0
M  V30 8300 C 777.914 1.54505 -0.7115 0
M  V30 8301 O 779.099 1.68573 -0.964191 0
M  V30 8302 C 776.229 2.7866 -2.07282 0
M  V30 8303 C 775.183 2.80682 -3.23112 0
M  V30 8304 C 774.509 4.20581 -3.30175 0
M  V30 8305 C 775.809 2.45458 -4.61029 0
M  V30 8306 H 777.503 1.15555 -2.76202 0
M  V30 8307 H 775.049 0.554445 -1.32898 0
M  V30 8308 H 777.002 3.54423 -2.27952 0
M  V30 8309 H 775.726 3.06286 -1.13387 0
M  V30 8310 H 774.385 2.07373 -3.02311 0
M  V30 8311 H 774.033 4.4533 -2.33859 0
M  V30 8312 H 773.733 4.22843 -4.08016 0
M  V30 8313 H 775.257 4.98174 -3.53066 0
M  V30 8314 H 776.671 3.10934 -4.81656 0
M  V30 8315 H 775.068 2.5899 -5.41336 0
M  V30 8316 H 776.138 1.40628 -4.6406 0
M  V30 8317 N 777.481 1.45874 0.596531 0
M  V30 8318 C 778.729 1.5017 1.35253 0
M  V30 8319 C 779.05 0.149246 1.94428 0
M  V30 8320 O 778.32 -0.82268 1.77789 0
M  V30 8321 H 776.9 0.553052 0.502138 0
M  V30 8322 H 779.562 1.81908 0.699671 0
M  V30 8323 H 778.658 2.24671 2.16632 0
M  V30 8324 N 778.959 -0.83999 1.33349 0
M  V30 8325 C 780.206 -1.59517 1.24742 0
M  V30 8326 C 780.534 -1.93598 -0.187077 0
M  V30 8327 O 779.789 -1.58782 -1.14398 0
M  V30 8328 C 780.088 -2.91571 2.06691 0
M  V30 8329 C 779.754 -2.76856 3.55895 0
M  V30 8330 C 778.416 -2.72551 3.96572 0
M  V30 8331 C 780.768 -2.61741 4.50712 0
M  V30 8332 C 778.096 -2.51028 5.30285 0
M  V30 8333 C 780.448 -2.41752 5.84584 0
M  V30 8334 C 779.112 -2.35848 6.24445 0
M  V30 8335 H 778.382 -0.583714 0.456463 0
M  V30 8336 H 781.029 -0.973261 1.64924 0
M  V30 8337 H 779.334 -3.57961 1.59284 0
M  V30 8338 H 781.031 -3.49053 1.9739 0
M  V30 8339 H 777.621 -2.81039 3.23597 0
M  V30 8340 H 781.805 -2.64102 4.20195 0
M  V30 8341 H 777.061 -2.44903 5.60208 0
M  V30 8342 H 781.235 -2.2904 6.57658 0
M  V30 8343 H 778.862 -2.18931 7.27993 0
M  V30 8344 N 780.437 -1.16799 -1.0581 0
M  V30 8345 C 781.667 -0.975454 -1.82122 0
M  V30 8346 C 782.075 0.479584 -1.83021 0
M  V30 8347 O 781.418 1.34471 -1.25153 0
M  V30 8348 C 781.48 -1.43209 -3.29744 0
M  V30 8349 C 781.144 -2.908 -3.5254 0
M  V30 8350 C 782.141 -3.88775 -3.45181 0
M  V30 8351 C 779.826 -3.28832 -3.79703 0
M  V30 8352 C 781.82 -5.22782 -3.64661 0
M  V30 8353 C 779.507 -4.63007 -3.98832 0
M  V30 8354 C 780.505 -5.59791 -3.91309 0
M  V30 8355 O 780.193 -6.9154 -4.09911 0
M  V30 8356 H 779.925 -0.345655 -0.580947 0
M  V30 8357 H 782.479 -1.55355 -1.34365 0
M  V30 8358 H 780.709 -0.797504 -3.78387 0
M  V30 8359 H 782.398 -1.2062 -3.87564 0
M  V30 8360 H 783.164 -3.60738 -3.2418 0
M  V30 8361 H 779.043 -2.54073 -3.84666 0
M  V30 8362 H 782.587 -5.98312 -3.58705 0
M  V30 8363 H 778.484 -4.90752 -4.19324 0
M  V30 8364 H 779.252 -6.98188 -4.27172 0
M  V30 8365 N 781.915 1.24427 -0.967243 0
M  V30 8366 C 783.326 1.74349 -0.667785 0
M  V30 8367 C 783.677 1.78403 0.816509 0
M  V30 8368 O 782.802 1.41315 1.63887 0
M  V30 8369 C 783.397 3.16628 -1.20548 0
M  V30 8370 C 781.956 3.64059 -0.955934 0
M  V30 8371 C 781.103 2.42715 -1.34106 0
M  V30 8372 H 784.054 1.10136 -1.14262 0
M  V30 8373 H 784.075 3.76183 -0.571547 0
M  V30 8374 H 783.587 3.13646 -2.28578 0
M  V30 8375 H 781.688 3.72441 0.108858 0
M  V30 8376 H 781.801 4.51549 -1.60126 0
M  V30 8377 H 780.165 2.43114 -0.759452 0
M  V30 8378 H 780.948 2.42414 -2.43085 0
M  V30 8379 N 783.393 0.737304 1.3929 0
M  V30 8380 C 784.618 0.295237 2.05288 0
M  V30 8381 C 785.043 -1.06235 1.55228 0
M  V30 8382 O 784.401 -1.67365 0.697043 0
M  V30 8383 C 784.449 0.309146 3.59272 0
M  V30 8384 O 783.553 -0.702437 4.06374 0
M  V30 8385 H 782.894 0.133762 0.650387 0
M  V30 8386 H 785.424 1.00387 1.78279 0
M  V30 8387 H 785.434 0.154336 4.07708 0
M  V30 8388 H 784.109 1.29974 3.95069 0
M  V30 8389 H 782.686 -0.513574 3.69346 0
M  V30 8390 N 784.871 -1.49948 0.485112 0
M  V30 8391 C 786.12 -2.01589 -0.066765 0
M  V30 8392 C 786.433 -1.371 -1.39509 0
M  V30 8393 O 787.639 -1.79978 -2.03274 0
M  V30 8394 C 786.095 -3.59501 -0.169476 0
M  V30 8395 C 785.703 -4.32955 1.15126 0
M  V30 8396 C 787.447 -4.19138 -0.672564 0
M  V30 8397 C 785.354 -5.82684 1.01158 0
M  V30 8398 H 784.284 -0.753453 -0.0287259 0
M  V30 8399 H 786.935 -1.72632 0.622132 0
M  V30 8400 H 785.317 -3.85106 -0.922471 0
M  V30 8401 H 786.491 -4.19064 1.9163 0
M  V30 8402 H 784.806 -3.84991 1.58654 0
M  V30 8403 H 787.403 -5.28767 -0.794325 0
M  V30 8404 H 787.746 -3.81447 -1.66745 0
M  V30 8405 H 788.279 -3.97793 0.0234415 0
M  V30 8406 H 785.018 -6.24873 1.98025 0
M  V30 8407 H 784.538 -5.99112 0.287151 0
M  V30 8408 H 786.217 -6.43376 0.683847 0
M  V30 8409 N 786.349 -0.21828 -1.56081 0
M  V30 8410 C 787.577 0.419258 -2.02608 0
M  V30 8411 C 787.992 1.53578 -1.09814 0
M  V30 8412 O 787.349 1.82185 -0.107149 0
M  V30 8413 C 787.4 0.953955 -3.48686 0
M  V30 8414 O 787.121 -0.11805 -4.37941 0
M  V30 8415 C 788.622 1.66506 -4.10841 0
M  V30 8416 H 785.842 0.10296 -0.663054 0
M  V30 8417 H 788.386 -0.333776 -2.01758 0
M  V30 8418 H 786.541 1.65727 -3.50162 0
M  V30 8419 H 786.955 0.283359 -5.23734 0
M  V30 8420 H 788.429 1.99123 -5.14834 0
M  V30 8421 H 788.906 2.57705 -3.55647 0
M  V30 8422 H 789.512 1.00703 -4.13206 0
M  V30 8423 N 787.827 1.57504 0.0551401 0
M  V30 8424 C 788.777 2.0128 1.071 0
M  V30 8425 C 789.761 0.897592 1.33537 0
M  V30 8426 O 790.953 1.16151 1.33558 0
M  V30 8427 C 788.082 2.47414 2.37994 0
M  V30 8428 C 787.168 3.65703 2.14761 0
M  V30 8429 N 787.559 4.79323 1.61504 0
M  V30 8430 C 785.857 3.72574 2.45162 0
M  V30 8431 C 786.558 5.61089 1.53472 0
M  V30 8432 N 785.534 5.05426 2.00114 0
M  V30 8433 H 789.336 2.86558 0.652829 0
M  V30 8434 H 786.85 1.60274 0.26193 0
M  V30 8435 H 788.847 2.77023 3.11551 0
M  V30 8436 H 787.507 1.6353 2.80514 0
M  V30 8437 H 788.518 5.01284 1.30134 0
M  V30 8438 H 785.195 2.99439 2.90934 0
M  V30 8439 H 786.585 6.62328 1.13008 0
M  V30 8440 N 789.305 -0.326896 1.54172 0
M  V30 8441 C 790.721 -0.671034 1.44808 0
M  V30 8442 C 790.921 -1.91781 0.618258 0
M  V30 8443 O 789.977 -2.52235 0.115751 0
M  V30 8444 C 791.29 -0.848147 2.88491 0
M  V30 8445 C 792.838 -0.945702 2.98371 0
M  V30 8446 C 793.313 -1.15501 4.43197 0
M  V30 8447 N 794.804 -1.22183 4.46795 0
M  V30 8448 C 795.539 -1.4016 5.56006 0
M  V30 8449 N 795.035 -1.55202 6.75192 0
M  V30 8450 N 796.828 -1.42841 5.43648 0
M  V30 8451 H 788.979 0.49262 2.06608 0
M  V30 8452 H 791.242 0.158574 0.934643 0
M  V30 8453 H 790.948 -0.00329969 3.517 0
M  V30 8454 H 790.822 -1.74497 3.34411 0
M  V30 8455 H 793.209 -1.78106 2.35292 0
M  V30 8456 H 793.29 -0.0254215 2.55787 0
M  V30 8457 H 792.934 -0.324521 5.06862 0
M  V30 8458 H 792.864 -2.08911 4.83388 0
M  V30 8459 H 795.355 -1.12016 3.60917 0
M  V30 8460 H 795.668 -1.68601 7.54184 0
M  V30 8461 H 794.013 -1.52306 6.78106 0
M  V30 8462 H 797.204 -1.30683 4.49488 0
M  V30 8463 H 797.377 -1.56509 6.28816 0
M  V30 8464 N 790.784 -1.46188 -0.588786 0
M  V30 8465 C 792.012 -1.54743 -1.37339 0
M  V30 8466 C 792.427 -0.186446 -1.87877 0
M  V30 8467 O 791.784 0.815247 -1.63279 0
M  V30 8468 C 791.835 -2.54727 -2.56508 0
M  V30 8469 O 791.556 -3.85539 -2.08066 0
M  V30 8470 C 793.057 -2.73163 -3.49137 0
M  V30 8471 H 790.277 -0.523484 -0.419768 0
M  V30 8472 H 792.821 -1.91543 -0.716345 0
M  V30 8473 H 790.976 -2.20948 -3.18215 0
M  V30 8474 H 791.39 -4.39905 -2.85629 0
M  V30 8475 H 792.864 -3.47057 -4.2925 0
M  V30 8476 H 793.341 -1.79856 -4.00685 0
M  V30 8477 H 793.947 -3.08014 -2.9327 0
M  V30 8478 N 792.262 0.832906 -1.33792 0
M  V30 8479 C 793.511 1.58351 -1.24932 0
M  V30 8480 C 793.824 1.94754 0.181703 0
M  V30 8481 O 795.03 2.6865 0.392375 0
M  V30 8482 C 793.486 2.85643 -2.18943 0
M  V30 8483 C 793.094 2.56581 -3.67247 0
M  V30 8484 C 794.838 3.63667 -2.18968 0
M  V30 8485 C 792.745 3.80006 -4.53155 0
M  V30 8486 H 791.675 0.594278 -0.464058 0
M  V30 8487 H 794.326 0.91786 -1.58895 0
M  V30 8488 H 792.708 3.53781 -1.77919 0
M  V30 8489 H 793.882 1.96617 -4.16747 0
M  V30 8490 H 792.197 1.91851 -3.6957 0
M  V30 8491 H 794.794 4.55293 -2.80379 0
M  V30 8492 H 795.137 3.99039 -1.18631 0
M  V30 8493 H 795.67 3.0246 -2.58384 0
M  V30 8494 H 792.409 3.4976 -5.5439 0
M  V30 8495 H 791.929 4.39288 -4.08395 0
M  V30 8496 H 793.608 4.47523 -4.6726 0
M  V30 8497 N 793.74 1.17359 1.05189 0
M  V30 8498 C 795.151 0.96793 1.5965 0
M  V30 8499 C 795.502 -0.485355 1.90102 0
M  V30 8500 O 794.627 -1.36066 1.6827 0
M  V30 8501 C 795.222 1.75068 2.90063 0
M  V30 8502 C 793.781 1.58969 3.41183 0
M  V30 8503 C 792.928 1.75231 2.14917 0
M  V30 8504 H 795.879 1.32067 0.880001 0
M  V30 8505 H 795.9 1.23308 3.59966 0
M  V30 8506 H 795.412 2.80835 2.67868 0
M  V30 8507 H 793.513 0.556906 3.68415 0
M  V30 8508 H 793.626 2.38067 4.15766 0
M  V30 8509 H 791.99 1.18073 2.25679 0
M  V30 8510 H 792.773 2.8241 1.95191 0
M  V30 8511 N 795.218 -1.23913 0.973828 0
M  V30 8512 C 796.448 -1.95911 0.655938 0
M  V30 8513 C 796.856 -1.72375 -0.779967 0
M  V30 8514 O 796.199 -1.00807 -1.5357 0
M  V30 8515 C 796.261 -3.49103 0.858324 0
M  V30 8516 C 795.925 -3.96347 2.27504 0
M  V30 8517 C 796.922 -4.05537 3.25324 0
M  V30 8518 C 794.607 -4.29509 2.60437 0
M  V30 8519 C 796.601 -4.47233 4.5416 0
M  V30 8520 C 794.288 -4.70887 3.89498 0
M  V30 8521 C 795.286 -4.79714 4.86172 0
M  V30 8522 O 794.974 -5.20166 6.1293 0
M  V30 8523 H 794.706 -0.630721 0.243244 0
M  V30 8524 H 797.26 -1.58534 1.30599 0
M  V30 8525 H 795.49 -3.86405 0.151097 0
M  V30 8526 H 797.179 -4.02311 0.538592 0
M  V30 8527 H 797.945 -3.80128 3.0121 0
M  V30 8528 H 793.824 -4.21853 1.85906 0
M  V30 8529 H 797.368 -4.54038 5.29618 0
M  V30 8530 H 793.265 -4.95744 4.1341 0
M  V30 8531 H 794.033 -5.38298 6.16586 0
M  V30 8532 N 796.696 -0.74468 -1.38897 0
M  V30 8533 C 797.626 -0.126355 -2.33158 0
M  V30 8534 C 798.607 0.713517 -1.54412 0
M  V30 8535 O 799.792 0.656523 -1.82766 0
M  V30 8536 C 796.922 0.774375 -3.38557 0
M  V30 8537 C 795.876 0.0379214 -4.27983 0
M  V30 8538 C 795.202 1.05631 -5.24162 0
M  V30 8539 C 796.502 -1.12523 -5.10035 0
M  V30 8540 H 798.196 -0.913744 -2.85116 0
M  V30 8541 H 795.742 -0.440847 -1.37086 0
M  V30 8542 H 797.695 1.21655 -4.03458 0
M  V30 8543 H 796.419 1.59399 -2.85061 0
M  V30 8544 H 795.078 -0.384733 -3.64576 0
M  V30 8545 H 794.726 1.86975 -4.66958 0
M  V30 8546 H 794.426 0.568261 -5.84846 0
M  V30 8547 H 795.95 1.49799 -5.9194 0
M  V30 8548 H 797.364 -0.761037 -5.68226 0
M  V30 8549 H 795.761 -1.54355 -5.79909 0
M  V30 8550 H 796.831 -1.94237 -4.44297 0
M  V30 8551 N 798.174 1.49689 -0.493057 0
M  V30 8552 C 799.422 2.02027 0.0541642 0
M  V30 8553 C 799.743 1.37554 1.38217 0
M  V30 8554 O 799.013 0.528174 1.88646 0
M  V30 8555 H 797.593 0.746646 0.0230069 0
M  V30 8556 H 800.255 1.83795 -0.648489 0
M  V30 8557 H 799.351 3.11523 0.189652 0
M  V30 8558 N 799.652 0.226554 1.55963 0
M  V30 8559 C 800.582 -0.676079 2.23498 0
M  V30 8560 C 801.563 -1.19718 1.20837 0
M  V30 8561 O 802.748 -1.24027 1.49436 0
M  V30 8562 C 799.878 -1.88217 2.91876 0
M  V30 8563 C 798.832 -1.4947 4.01052 0
M  V30 8564 C 798.158 -2.77997 4.56751 0
M  V30 8565 C 799.458 -0.680951 5.17842 0
M  V30 8566 H 801.152 -0.112989 2.99187 0
M  V30 8567 H 798.698 -0.0529046 1.43903 0
M  V30 8568 H 800.651 -2.51911 3.37815 0
M  V30 8569 H 799.375 -2.47031 2.13643 0
M  V30 8570 H 798.034 -0.881199 3.55852 0
M  V30 8571 H 797.682 -3.34966 3.75243 0
M  V30 8572 H 797.382 -2.52803 5.30438 0
M  V30 8573 H 798.906 -3.42625 5.05411 0
M  V30 8574 H 800.32 -1.22171 5.60131 0
M  V30 8575 H 798.717 -0.525898 5.97791 0
M  V30 8576 H 799.787 0.311346 4.83899 0
M  V30 8577 N 801.13 -1.57531 -0.0467866 0
M  V30 8578 C 802.06 -2.08425 -1.05268 0
M  V30 8579 C 803.041 -0.982941 -1.38825 0
M  V30 8580 O 804.226 -1.25716 -1.48018 0
M  V30 8581 C 801.356 -2.54897 -2.35891 0
M  V30 8582 C 800.31 -3.69132 -2.16623 0
M  V30 8583 C 799.636 -4.01747 -3.52851 0
M  V30 8584 C 800.936 -4.98243 -1.56689 0
M  V30 8585 H 802.63 -2.92716 -0.62908 0
M  V30 8586 H 800.176 -1.40816 -0.301156 0
M  V30 8587 H 802.129 -2.8912 -3.06574 0
M  V30 8588 H 800.853 -1.67666 -2.80278 0
M  V30 8589 H 799.512 -3.35231 -1.48377 0
M  V30 8590 H 799.16 -3.11608 -3.94853 0
M  V30 8591 H 798.86 -4.78681 -3.4079 0
M  V30 8592 H 800.384 -4.38487 -4.24925 0
M  V30 8593 H 801.798 -5.30535 -2.17268 0
M  V30 8594 H 800.195 -5.79669 -1.55255 0
M  V30 8595 H 801.265 -4.81986 -0.530827 0
M  V30 8596 N 802.608 0.318715 -1.54344 0
M  V30 8597 C 803.836 1.0755 -1.7675 0
M  V30 8598 C 804.251 1.81543 -0.518422 0
M  V30 8599 O 803.608 1.75198 0.511078 0
M  V30 8600 C 803.659 2.06983 -2.96378 0
M  V30 8601 O 803.38 1.35995 -4.16458 0
M  V30 8602 C 804.881 2.94841 -3.31034 0
M  V30 8603 H 802.101 0.319711 -0.589937 0
M  V30 8604 H 804.645 0.363369 -2.01246 0
M  V30 8605 H 802.8 2.73724 -2.74142 0
M  V30 8606 H 803.214 2.02623 -4.83781 0
M  V30 8607 H 804.688 3.60496 -4.18027 0
M  V30 8608 H 805.165 3.62199 -2.48412 0
M  V30 8609 H 805.771 2.33656 -3.55366 0
M  V30 8610 N 804.086 1.46499 0.581025 0
M  V30 8611 C 805.311 1.55708 1.37002 0
M  V30 8612 C 805.736 0.19942 1.8704 0
M  V30 8613 O 805.094 -0.820731 1.61659 0
M  V30 8614 C 805.142 2.56716 2.53238 0
M  V30 8615 O 804.246 2.10336 3.54729 0
M  V30 8616 H 803.587 0.523912 0.407937 0
M  V30 8617 H 806.117 1.92085 0.704602 0
M  V30 8618 H 806.127 2.76378 3.00132 0
M  V30 8619 H 804.802 3.55307 2.16171 0
M  V30 8620 H 803.379 2.00669 3.14303 0
M  V30 8621 N 805.565 -0.825799 1.34232 0
M  V30 8622 C 806.497 -1.94401 1.21413 0
M  V30 8623 C 807.51 -1.6218 0.141902 0
M  V30 8624 O 808.699 -1.74109 0.3935 0
M  V30 8625 C 805.799 -3.28257 0.842635 0
M  V30 8626 C 804.972 -3.88521 2.00924 0
M  V30 8627 C 804.031 -5.00752 1.61661 0
M  V30 8628 O 803.057 -5.19201 2.33279 0
M  V30 8629 N 804.259 -5.78084 0.52911 0
M  V30 8630 H 807.024 -2.05931 2.17744 0
M  V30 8631 H 804.585 -1.00223 1.27149 0
M  V30 8632 H 806.577 -4.00781 0.561822 0
M  V30 8633 H 805.147 -3.12585 -0.0304029 0
M  V30 8634 H 804.367 -3.08425 2.45495 0
M  V30 8635 H 805.655 -4.25516 2.78951 0
M  V30 8636 H 805.053 -5.65661 -0.0663322 0
M  V30 8637 H 803.61 -6.51072 0.308017 0
M  V30 8638 N 807.043 -1.17915 -1.04565 0
M  V30 8639 C 807.991 -0.897919 -2.1457 0
M  V30 8640 C 808.985 0.139883 -1.68821 0
M  V30 8641 O 810.191 -0.00779463 -1.79998 0
M  V30 8642 H 806.566 -0.272867 -0.700748 0
M  V30 8643 H 808.537 -1.83268 -2.3549 0
M  V30 8644 C 807.286 -0.434634 -3.44973 0
M  V30 8645 H 806.609 -1.22469 -3.8058 0
M  V30 8646 H 808.049 -0.276804 -4.23095 0
M  V30 8647 C 806.508 0.848738 -3.26034 0
M  V30 8648 O 807.038 1.9141 -3.53164 0
M  V30 8649 N 805.244 0.799373 -2.79389 0
M  V30 8650 H 804.791 -0.0678192 -2.57511 0
M  V30 8651 H 804.749 1.6585 -2.67098 0
M  V30 8652 N 808.521 1.23394 -0.980386 0
M  V30 8653 C 809.451 2.2717 -0.540024 0
M  V30 8654 C 810.432 1.64659 0.426787 0
M  V30 8655 O 811.617 1.91543 0.320153 0
M  V30 8656 C 808.747 3.46939 0.15836 0
M  V30 8657 C 807.701 4.21802 -0.725732 0
M  V30 8658 C 807.027 5.34597 0.104866 0
M  V30 8659 C 808.327 4.81802 -2.01654 0
M  V30 8660 H 810.021 2.64257 -1.40743 0
M  V30 8661 H 807.567 1.2703 -0.678193 0
M  V30 8662 H 809.52 4.18683 0.477737 0
M  V30 8663 H 808.244 3.08912 1.06022 0
M  V30 8664 H 806.903 3.51875 -1.02857 0
M  V30 8665 H 806.551 4.92812 1.00726 0
M  V30 8666 H 806.251 5.85607 -0.483557 0
M  V30 8667 H 807.775 6.09163 0.418624 0
M  V30 8668 H 809.189 5.45554 -1.76193 0
M  V30 8669 H 807.586 5.43098 -2.55273 0
M  V30 8670 H 808.656 4.02549 -2.70338 0
M  V30 8671 N 809.999 0.752036 1.385 0
M  V30 8672 C 811.41 0.375385 1.82887 0
M  V30 8673 C 811.761 -1.09575 1.62751 0
M  V30 8674 O 810.886 -1.84685 1.12785 0
M  V30 8675 C 811.481 0.674563 3.32017 0
M  V30 8676 C 810.04 0.351208 3.74758 0
M  V30 8677 C 809.187 0.928531 2.61292 0
M  V30 8678 H 812.138 0.948313 1.27251 0
M  V30 8679 H 812.159 -0.0477781 3.8047 0
M  V30 8680 H 811.671 1.74533 3.46641 0
M  V30 8681 H 809.772 -0.713042 3.65714 0
M  V30 8682 H 809.885 0.845675 4.71577 0
M  V30 8683 H 808.249 0.354012 2.52228 0
M  V30 8684 H 809.032 2.0043 2.78716 0
M  V30 8685 N 811.477 -1.49425 0.500989 0
M  V30 8686 C 812.407 -2.31971 -0.266775 0
M  V30 8687 C 813.388 -1.40245 -0.962563 0
M  V30 8688 O 814.573 -1.69154 -0.953968 0
M  V30 8689 C 811.703 -3.20757 -1.33163 0
M  V30 8690 C 810.657 -4.21275 -0.75572 0
M  V30 8691 C 809.983 -4.98997 -1.92109 0
M  V30 8692 C 811.283 -5.21686 0.253213 0
M  V30 8693 H 812.977 -2.96408 0.422237 0
M  V30 8694 H 810.523 -1.4254 0.204505 0
M  V30 8695 H 812.476 -3.77315 -1.87646 0
M  V30 8696 H 811.2 -2.54263 -2.04983 0
M  V30 8697 H 809.859 -3.65861 -0.232637 0
M  V30 8698 H 809.507 -4.28951 -2.62698 0
M  V30 8699 H 809.207 -5.67011 -1.54182 0
M  V30 8700 H 810.731 -5.584 -2.47026 0
M  V30 8701 H 812.145 -5.72939 -0.203483 0
M  V30 8702 H 810.542 -5.9759 0.548322 0
M  V30 8703 H 811.612 -4.70596 1.16909 0
M  V30 8704 N 812.955 -0.234822 -1.55841 0
M  V30 8705 C 813.885 0.664217 -2.23854 0
M  V30 8706 C 814.866 1.19076 -1.2147 0
M  V30 8707 O 816.051 1.23232 -1.50091 0
M  V30 8708 C 813.181 1.86666 -2.9287 0
M  V30 8709 C 812.135 1.47341 -4.01839 0
M  V30 8710 C 811.461 2.75571 -4.58219 0
M  V30 8711 C 812.761 0.653479 -5.18196 0
M  V30 8712 H 814.455 0.0971213 -2.99242 0
M  V30 8713 H 812.001 0.0452724 -1.43929 0
M  V30 8714 H 813.954 2.50116 -3.39146 0
M  V30 8715 H 812.678 2.45894 -2.1495 0
M  V30 8716 H 811.337 0.862314 -3.56314 0
M  V30 8717 H 810.985 3.32971 -3.77014 0
M  V30 8718 H 810.685 2.49987 -5.31771 0
M  V30 8719 H 812.209 3.39939 -5.07221 0
M  V30 8720 H 813.623 1.19198 -5.60771 0
M  V30 8721 H 812.02 0.494188 -5.98062 0
M  V30 8722 H 813.09 -0.337004 -4.83728 0
M  V30 8723 N 814.433 1.57553 0.0384317 0
M  V30 8724 C 815.363 2.0898 1.04161 0
M  V30 8725 C 816.344 0.99029 1.38301 0
M  V30 8726 O 817.529 1.26499 1.47349 0
M  V30 8727 C 814.659 2.56145 2.34536 0
M  V30 8728 C 813.613 3.70275 2.14663 0
M  V30 8729 C 812.939 4.03612 3.50715 0
M  V30 8730 C 814.239 4.99067 1.54045 0
M  V30 8731 H 815.933 2.93046 0.613548 0
M  V30 8732 H 813.479 1.40973 0.293684 0
M  V30 8733 H 815.432 2.90741 3.05037 0
M  V30 8734 H 814.156 1.6915 2.79385 0
M  V30 8735 H 812.815 3.36013 1.46597 0
M  V30 8736 H 812.463 3.13698 3.93195 0
M  V30 8737 H 812.163 4.80482 3.38247 0
M  V30 8738 H 813.687 4.40735 4.22593 0
M  V30 8739 H 815.101 5.3168 2.14451 0
M  V30 8740 H 813.498 5.80484 1.52178 0
M  V30 8741 H 814.568 4.8226 0.505259 0
M  V30 8742 N 815.911 -0.310526 1.54511 0
M  V30 8743 C 816.841 -1.38757 1.878 0
M  V30 8744 C 817.822 -1.53353 0.735991 0
M  V30 8745 O 819.007 -1.67018 0.990887 0
M  V30 8746 C 816.137 -2.75327 2.11689 0
M  V30 8747 C 815.091 -2.75506 3.27537 0
M  V30 8748 C 814.417 -4.15275 3.36824 0
M  V30 8749 C 815.717 -2.38093 4.64875 0
M  V30 8750 H 817.411 -1.11146 2.78005 0
M  V30 8751 H 814.957 -0.533232 1.33763 0
M  V30 8752 H 816.91 -3.50752 2.33562 0
M  V30 8753 H 815.634 -3.04443 1.18245 0
M  V30 8754 H 814.293 -2.02538 3.05572 0
M  V30 8755 H 813.941 -4.41553 2.40915 0
M  V30 8756 H 813.641 -4.16299 4.14692 0
M  V30 8757 H 815.165 -4.92493 3.60947 0
M  V30 8758 H 816.579 -3.03232 4.86542 0
M  V30 8759 H 814.976 -2.50345 5.45387 0
M  V30 8760 H 816.046 -1.33227 4.66239 0
M  V30 8761 N 817.389 -1.46805 -0.573248 0
M  V30 8762 C 818.666 -1.43082 -1.33368 0
M  V30 8763 C 819.046 -0.119252 -2.10763 0
M  V30 8764 O 818.394 0.899239 -2.10062 0
M  V30 8765 C 818.604 -2.66643 -2.25172 0
M  V30 8766 C 819.952 -3.13188 -2.86702 0
M  V30 8767 O 820.976 -2.67258 -2.35482 0
M  V30 8768 O 819.835 -3.92994 -3.79761 0
M  V30 8769 H 816.929 -0.569451 -0.599712 0
M  V30 8770 H 819.475 -1.58984 -0.59348 0
M  V30 8771 H 818.247 -3.53649 -1.67475 0
M  V30 8772 H 817.87 -2.53247 -3.06516 0
M  V30 8773 N 818.867 0.818669 -1.34668 0
M  V30 8774 C 819.797 1.94468 -1.29245 0
M  V30 8775 C 820.778 1.69257 -0.169101 0
M  V30 8776 O 821.963 1.90794 -0.362143 0
M  V30 8777 C 819.093 3.31001 -1.05145 0
M  V30 8778 C 818.047 3.70663 -2.13992 0
M  V30 8779 C 817.373 5.05226 -1.75074 0
M  V30 8780 C 818.673 3.82312 -3.55858 0
M  V30 8781 H 820.367 1.99263 -2.2346 0
M  V30 8782 H 817.913 0.957304 -1.07572 0
M  V30 8783 H 819.866 4.09364 -0.999949 0
M  V30 8784 H 818.59 3.26517 -0.0737312 0
M  V30 8785 H 817.249 2.94578 -2.18219 0
M  V30 8786 H 816.897 4.97233 -0.759518 0
M  V30 8787 H 816.597 5.32734 -2.47928 0
M  V30 8788 H 818.121 5.86042 -1.71427 0
M  V30 8789 H 819.535 4.50935 -3.5402 0
M  V30 8790 H 817.932 4.21278 -4.2737 0
M  V30 8791 H 819.002 2.84193 -3.9289 0
M  V30 8792 N 820.346 1.18468 1.03938 0
M  V30 8793 C 821.574 1.00576 1.80809 0
M  V30 8794 C 821.989 -0.445786 1.83462 0
M  V30 8795 O 821.346 -1.30964 1.27101 0
M  V30 8796 C 821.397 1.55491 3.26351 0
M  V30 8797 O 821.118 2.94963 3.23926 0
M  V30 8798 C 822.619 1.42236 4.19862 0
M  V30 8799 H 819.839 0.35508 0.56935 0
M  V30 8800 H 822.383 1.57046 1.30984 0
M  V30 8801 H 820.538 1.03195 3.73403 0
M  V30 8802 H 820.952 3.20598 4.15111 0
M  V30 8803 H 822.426 1.85455 5.19914 0
M  V30 8804 H 822.903 0.371267 4.37628 0
M  V30 8805 H 823.509 1.9361 3.78675 0
M  V30 8806 N 821.824 -1.22873 0.986916 0
M  V30 8807 C 823.07 -1.92047 0.670042 0
M  V30 8808 C 823.425 -1.75497 -0.788587 0
M  V30 8809 O 822.718 -1.10934 -1.56218 0
M  V30 8810 C 822.912 -3.43014 1.00379 0
M  V30 8811 C 822.741 -3.74251 2.49332 0
M  V30 8812 C 821.511 -3.94589 3.15638 0
M  V30 8813 C 823.709 -3.79208 3.47428 0
M  V30 8814 N 821.691 -4.13086 4.54129 0
M  V30 8815 C 823.062 -4.02775 4.71352 0
M  V30 8816 C 825.117 -3.62029 3.41818 0
M  V30 8817 C 823.82 -4.10946 5.90352 0
M  V30 8818 C 825.846 -3.71457 4.60189 0
M  V30 8819 C 825.208 -3.95468 5.82911 0
M  V30 8820 H 821.307 -0.723668 0.29636 0
M  V30 8821 H 823.891 -1.47946 1.26571 0
M  V30 8822 H 822.062 -3.85936 0.436762 0
M  V30 8823 H 823.794 -3.99551 0.643522 0
M  V30 8824 H 820.549 -3.91762 2.66119 0
M  V30 8825 H 820.973 -4.26275 5.25945 0
M  V30 8826 H 825.615 -3.42457 2.47958 0
M  V30 8827 H 823.333 -4.29324 6.84621 0
M  V30 8828 H 826.919 -3.59511 4.57431 0
M  V30 8829 H 825.799 -4.02584 6.72975 0
M  V30 8830 N 823.302 -0.75937 -1.38099 0
M  V30 8831 C 824.232 -0.151077 -2.33011 0
M  V30 8832 C 825.213 0.697099 -1.5516 0
M  V30 8833 O 826.398 0.637101 -1.83452 0
M  V30 8834 C 823.528 0.738423 -3.39359 0
M  V30 8835 C 822.482 -0.0074741 -4.27999 0
M  V30 8836 C 821.808 1.00066 -5.25253 0
M  V30 8837 C 823.108 -1.17926 -5.08813 0
M  V30 8838 H 824.802 -0.943933 -2.84131 0
M  V30 8839 H 822.348 -0.455362 -1.36611 0
M  V30 8840 H 824.301 1.17369 -4.04725 0
M  V30 8841 H 823.025 1.56366 -2.86735 0
M  V30 8842 H 821.684 -0.423379 -3.64147 0
M  V30 8843 H 821.332 1.82012 -4.68914 0
M  V30 8844 H 821.032 0.506199 -5.85416 0
M  V30 8845 H 822.556 1.43512 -5.93495 0
M  V30 8846 H 823.97 -0.821262 -5.67387 0
M  V30 8847 H 822.367 -1.60497 -5.78239 0
M  V30 8848 H 823.437 -1.98938 -4.42212 0
M  V30 8849 N 824.78 1.49157 -0.508906 0
M  V30 8850 C 825.69 2.33045 0.269656 0
M  V30 8851 C 826.706 1.45143 0.959662 0
M  V30 8852 O 827.882 1.78155 0.939295 0
M  V30 8853 C 824.947 3.20772 1.31554 0
M  V30 8854 C 824.008 4.24531 0.638131 0
M  V30 8855 C 823.241 5.08065 1.63418 0
M  V30 8856 O 823.464 4.93238 2.86483 0
M  V30 8857 O 822.398 5.90117 1.18516 0
M  V30 8858 H 826.224 3.00821 -0.417183 0
M  V30 8859 H 823.809 1.46938 -0.270119 0
M  V30 8860 H 825.691 3.75095 1.92047 0
M  V30 8861 H 824.366 2.55681 1.98516 0
M  V30 8862 H 823.273 3.74099 -0.00674357 0
M  V30 8863 H 824.606 4.92199 0.0108155 0
M  V30 8864 N 826.258 0.243083 1.55714 0
M  V30 8865 C 827.205 -0.658078 2.21219 0
M  V30 8866 C 828.175 -1.1742 1.17481 0
M  V30 8867 O 829.36 -1.22937 1.45915 0
M  V30 8868 C 826.5 -1.85104 2.91257 0
M  V30 8869 C 825.613 -1.3718 4.09641 0
M  V30 8870 C 824.748 -2.52403 4.67404 0
M  V30 8871 C 823.787 -2.01321 5.78045 0
M  V30 8872 N 822.924 -3.09896 6.30007 0
M  V30 8873 H 827.764 -0.0927854 2.97856 0
M  V30 8874 H 825.301 -0.0340375 1.47061 0
M  V30 8875 H 827.259 -2.55179 3.3006 0
M  V30 8876 H 825.889 -2.38887 2.17101 0
M  V30 8877 H 824.941 -0.565232 3.76177 0
M  V30 8878 H 826.253 -0.957409 4.89525 0
M  V30 8879 H 825.407 -3.30525 5.08761 0
M  V30 8880 H 824.146 -2.97142 3.86728 0
M  V30 8881 H 823.151 -1.21667 5.36169 0
M  V30 8882 H 824.376 -1.57556 6.6057 0
M  V30 8883 H 822.322 -3.54077 5.52237 0
M  V30 8884 H 822.239 -2.72776 7.05074 0
M  V30 8885 H 823.507 -3.8809 6.76023 0
M  V30 8886 N 827.736 -1.57571 -0.0300757 0
M  V30 8887 C 828.666 -2.0953 -1.03051 0
M  V30 8888 C 829.647 -0.99761 -1.37774 0
M  V30 8889 O 830.832 -1.27279 -1.46676 0
M  V30 8890 C 827.962 -2.57385 -2.33174 0
M  V30 8891 C 826.916 -3.71409 -2.12696 0
M  V30 8892 C 826.242 -4.05467 -3.4857 0
M  V30 8893 C 827.542 -4.99877 -1.51396 0
M  V30 8894 H 829.236 -2.93367 -0.597999 0
M  V30 8895 H 826.782 -1.41127 -0.286203 0
M  V30 8896 H 828.735 -2.92355 -3.03491 0
M  V30 8897 H 827.459 -1.70629 -2.78484 0
M  V30 8898 H 826.118 -3.36786 -1.44813 0
M  V30 8899 H 825.766 -3.15779 -3.91526 0
M  V30 8900 H 825.466 -4.82269 -3.35694 0
M  V30 8901 H 826.99 -4.4297 -4.2025 0
M  V30 8902 H 828.404 -5.3281 -2.11629 0
M  V30 8903 H 826.801 -5.81283 -1.49098 0
M  V30 8904 H 827.871 -4.82522 -0.479676 0
M  V30 8905 N 829.214 0.302327 -1.54673 0
M  V30 8906 C 830.144 1.37759 -1.88533 0
M  V30 8907 C 831.125 1.52961 -0.744113 0
M  V30 8908 O 832.31 1.6649 -0.999731 0
M  V30 8909 C 829.44 2.74201 -2.13146 0
M  V30 8910 C 828.394 2.73765 -3.28993 0
M  V30 8911 C 827.72 4.13483 -3.39022 0
M  V30 8912 C 829.02 2.35624 -4.66132 0
M  V30 8913 H 830.714 1.0967 -2.78591 0
M  V30 8914 H 828.26 0.52613 -1.34044 0
M  V30 8915 H 830.213 3.49508 -2.35419 0
M  V30 8916 H 828.937 3.03812 -1.19858 0
M  V30 8917 H 827.596 2.00914 -3.06642 0
M  V30 8918 H 827.244 4.40269 -2.43253 0
M  V30 8919 H 826.944 4.14093 -4.16894 0
M  V30 8920 H 828.468 4.90572 -3.63553 0
M  V30 8921 H 829.882 3.00647 -4.88143 0
M  V30 8922 H 828.279 2.47449 -5.46707 0
M  V30 8923 H 829.349 1.30753 -4.66939 0
M  V30 8924 N 830.692 1.47107 0.565454 0
M  V30 8925 C 832.103 1.47266 1.1476 0
M  V30 8926 C 832.454 0.222841 1.9493 0
M  V30 8927 O 831.579 -0.672862 2.05673 0
M  V30 8928 C 832.174 2.66822 2.08785 0
M  V30 8929 C 830.733 2.69967 2.62288 0
M  V30 8930 C 829.88 2.40236 1.38499 0
M  V30 8931 H 832.831 1.54736 0.352479 0
M  V30 8932 H 832.852 2.43323 2.92531 0
M  V30 8933 H 832.364 3.5777 1.50408 0
M  V30 8934 H 830.465 1.83137 3.24487 0
M  V30 8935 H 830.578 3.70426 3.03845 0
M  V30 8936 H 828.942 1.90648 1.68895 0
M  V30 8937 H 829.725 3.33381 0.819274 0
M  V30 8938 N 832.17 -0.811516 1.35101 0
M  V30 8939 C 833.117 -1.92308 1.27617 0
M  V30 8940 C 834.087 -1.6543 0.149091 0
M  V30 8941 O 835.272 -1.8789 0.331974 0
M  V30 8942 C 832.412 -3.28768 1.04908 0
M  V30 8943 C 831.525 -3.67865 2.26493 0
M  V30 8944 C 830.66 -4.9333 1.96974 0
M  V30 8945 C 829.699 -5.25041 3.1464 0
M  V30 8946 N 828.836 -6.41685 2.84929 0
M  V30 8947 H 833.676 -1.98041 2.22674 0
M  V30 8948 H 831.213 -0.968755 1.10696 0
M  V30 8949 H 833.171 -4.07426 0.897749 0
M  V30 8950 H 831.801 -3.22517 0.135151 0
M  V30 8951 H 830.853 -2.84507 2.52507 0
M  V30 8952 H 832.165 -3.87263 3.14371 0
M  V30 8953 H 831.319 -5.79803 1.78643 0
M  V30 8954 H 830.058 -4.75958 1.06374 0
M  V30 8955 H 829.063 -4.3706 3.33554 0
M  V30 8956 H 830.288 -5.44346 4.06035 0
M  V30 8957 H 828.234 -6.25747 1.96918 0
M  V30 8958 H 828.151 -6.6131 3.66341 0
M  V30 8959 H 829.419 -7.31198 2.70128 0
M  V30 8960 N 833.648 -1.19017 -1.03309 0
M  V30 8961 C 834.876 -1.01534 -1.80273 0
M  V30 8962 C 835.291 0.43605 -1.83696 0
M  V30 8963 O 834.648 1.30288 -1.27794 0
M  V30 8964 C 834.699 -1.5722 -3.25522 0
M  V30 8965 O 834.42 -2.96677 -3.22358 0
M  V30 8966 C 835.921 -1.4446 -4.19102 0
M  V30 8967 H 833.141 -0.358094 -0.567459 0
M  V30 8968 H 835.685 -1.57738 -1.3015 0
M  V30 8969 H 833.84 -1.05174 -3.7285 0
M  V30 8970 H 834.254 -3.22795 -4.13405 0
M  V30 8971 H 835.728 -1.88209 -5.18923 0
M  V30 8972 H 836.205 -0.394471 -4.37425 0
M  V30 8973 H 836.811 -1.95616 -3.77643 0
M  V30 8974 N 835.127 1.22348 -0.993418 0
M  V30 8975 C 836.376 1.90422 -0.665019 0
M  V30 8976 C 836.689 1.78199 0.806512 0
M  V30 8977 O 837.895 2.41193 1.24652 0
M  V30 8978 C 836.351 3.41403 -1.13893 0
M  V30 8979 C 835.959 3.62262 -2.63572 0
M  V30 8980 C 837.703 4.15175 -0.884884 0
M  V30 8981 C 835.61 5.06947 -3.04564 0
M  V30 8982 H 834.54 0.713073 -0.245037 0
M  V30 8983 H 837.191 1.3856 -1.20305 0
M  V30 8984 H 835.573 3.9245 -0.529027 0
M  V30 8985 H 836.747 3.21705 -3.29913 0
M  V30 8986 H 835.062 3.01824 -2.86865 0
M  V30 8987 H 837.659 5.21813 -1.16684 0
M  V30 8988 H 838.002 4.15915 0.178982 0
M  V30 8989 H 838.535 3.70157 -1.45701 0
M  V30 8990 H 835.274 5.11346 -4.10128 0
M  V30 8991 H 834.794 5.48404 -2.42927 0
M  V30 8992 H 836.473 5.75374 -2.95894 0
M  V30 8993 N 836.605 0.766683 1.37694 0
M  V30 8994 C 837.83 0.338715 2.04615 0
M  V30 8995 C 838.255 -1.02918 1.57447 0
M  V30 8996 O 837.613 -1.65849 0.732386 0
M  V30 8997 C 837.661 0.385284 3.58536 0
M  V30 8998 O 836.765 -0.616081 4.07772 0
M  V30 8999 H 836.106 0.147527 0.647404 0
M  V30 9000 H 838.636 1.04146 1.7611 0
M  V30 9001 H 838.646 0.240782 4.07289 0
M  V30 9002 H 837.321 1.38325 3.92223 0
M  V30 9003 H 835.898 -0.435115 3.70353 0
M  V30 9004 N 838.083 -1.48885 0.516809 0
M  V30 9005 C 839.015 -2.27357 -0.290061 0
M  V30 9006 C 840.028 -1.34558 -0.916406 0
M  V30 9007 O 841.217 -1.59715 -0.797073 0
M  V30 9008 C 838.317 -3.07496 -1.42476 0
M  V30 9009 C 837.49 -4.27982 -0.902793 0
M  V30 9010 C 836.549 -4.90038 -1.91701 0
M  V30 9011 O 835.575 -5.49643 -1.47922 0
M  V30 9012 N 836.777 -4.811 -3.24843 0
M  V30 9013 H 839.542 -2.97244 0.382884 0
M  V30 9014 H 837.103 -1.58064 0.35032 0
M  V30 9015 H 839.095 -3.45882 -2.10113 0
M  V30 9016 H 837.665 -2.40115 -2.00159 0
M  V30 9017 H 836.885 -3.94167 -0.0508272 0
M  V30 9018 H 838.173 -5.06003 -0.532723 0
M  V30 9019 H 837.571 -4.33801 -3.63088 0
M  V30 9020 H 836.128 -5.23625 -3.8815 0
M  V30 9021 N 839.561 -0.251338 -1.55583 0
M  V30 9022 C 840.511 0.660351 -2.18228 0
M  V30 9023 C 841.495 1.13596 -1.13951 0
M  V30 9024 O 842.687 1.08499 -1.39846 0
M  V30 9025 C 839.816 1.85498 -2.88869 0
M  V30 9026 C 838.902 1.39767 -4.00407 0
M  V30 9027 N 839.293 0.654876 -5.01543 0
M  V30 9028 C 837.591 1.68259 -4.13044 0
M  V30 9029 C 838.292 0.417521 -5.802 0
M  V30 9030 N 837.268 0.983032 -5.34638 0
M  V30 9031 H 841.07 0.0847425 -2.93778 0
M  V30 9032 H 838.584 -0.0538456 -1.62311 0
M  V30 9033 H 840.581 2.51916 -3.3218 0
M  V30 9034 H 839.241 2.43477 -2.14823 0
M  V30 9035 H 840.252 0.304545 -5.17004 0
M  V30 9036 H 836.929 2.27344 -3.50172 0
M  V30 9037 H 838.319 -0.175764 -6.7167 0
M  V30 9038 N 841.039 1.57585 0.0217189 0
M  V30 9039 C 841.971 2.03849 1.04777 0
M  V30 9040 C 842.984 0.952558 1.32023 0
M  V30 9041 O 844.173 1.22974 1.29381 0
M  V30 9042 C 841.273 2.40504 2.3877 0
M  V30 9043 C 840.446 3.71566 2.30775 0
M  V30 9044 C 839.505 3.95329 3.47277 0
M  V30 9045 O 838.531 4.66289 3.26441 0
M  V30 9046 N 839.733 3.41536 4.69397 0
M  V30 9047 H 842.498 2.92491 0.653395 0
M  V30 9048 H 840.059 1.60538 0.209527 0
M  V30 9049 H 842.051 2.53532 3.15442 0
M  V30 9050 H 840.621 1.57494 2.70027 0
M  V30 9051 H 839.841 3.68822 1.39155 0
M  V30 9052 H 841.129 4.5753 2.22584 0
M  V30 9053 H 840.527 2.84033 4.89226 0
M  V30 9054 H 839.084 3.59932 5.43408 0
M  V30 9055 N 842.517 -0.29412 1.54831 0
M  V30 9056 C 843.766 -1.02614 1.73647 0
M  V30 9057 C 844.079 -1.88193 0.533162 0
M  V30 9058 O 845.285 -2.64713 0.603275 0
M  V30 9059 C 843.741 -1.87417 3.07251 0
M  V30 9060 C 843.349 -1.06806 4.35082 0
M  V30 9061 C 845.093 -2.60176 3.35423 0
M  V30 9062 C 843 -1.90926 5.59733 0
M  V30 9063 H 841.93 -0.386834 0.647206 0
M  V30 9064 H 844.581 -0.282789 1.81308 0
M  V30 9065 H 842.963 -2.65765 2.93572 0
M  V30 9066 H 844.137 -0.330226 4.59615 0
M  V30 9067 H 842.452 -0.455979 4.13896 0
M  V30 9068 H 845.049 -3.23476 4.25755 0
M  V30 9069 H 845.392 -3.29365 2.54606 0
M  V30 9070 H 845.925 -1.88871 3.50103 0
M  V30 9071 H 842.664 -1.26194 6.43238 0
M  V30 9072 H 842.184 -2.62363 5.39375 0
M  V30 9073 H 843.863 -2.48807 5.97247 0
M  V30 9074 N 843.995 -1.47404 -0.557645 0
M  V30 9075 C 845.22 -1.57868 -1.34508 0
M  V30 9076 C 845.645 -0.229151 -1.86699 0
M  V30 9077 O 845.003 0.794908 -1.62944 0
M  V30 9078 C 845.051 -2.60712 -2.49122 0
M  V30 9079 O 844.155 -2.15952 -3.51338 0
M  V30 9080 H 843.496 -0.530335 -0.399551 0
M  V30 9081 H 846.026 -1.93181 -0.673954 0
M  V30 9082 H 846.036 -2.81118 -2.95697 0
M  V30 9083 H 844.711 -3.58701 -2.10491 0
M  V30 9084 H 843.288 -2.05644 -3.11071 0
M  V30 9085 N 845.473 0.80434 -1.35529 0
M  V30 9086 C 846.701 1.59283 -1.32048 0
M  V30 9087 C 847.116 1.88527 0.101556 0
M  V30 9088 O 846.473 1.48975 1.05417 0
M  V30 9089 C 846.524 2.92276 -2.12737 0
M  V30 9090 O 846.245 2.64299 -3.49396 0
M  V30 9091 C 847.746 3.86631 -2.16867 0
M  V30 9092 H 844.966 0.494523 -0.453528 0
M  V30 9093 H 847.51 0.999415 -1.78415 0
M  V30 9094 H 845.665 3.48125 -1.69964 0
M  V30 9095 H 846.079 3.4923 -3.91329 0
M  V30 9096 H 847.553 4.77053 -2.77712 0
M  V30 9097 H 848.03 4.23384 -1.16803 0
M  V30 9098 H 848.636 3.36717 -2.59811 0
M  V30 9099 N 846.951 1.19563 1.02676 0
M  V30 9100 C 848.176 1.02556 1.80269 0
M  V30 9101 C 848.601 -0.421056 1.83327 0
M  V30 9102 O 847.959 -1.30279 1.26084 0
M  V30 9103 C 848.007 1.60165 3.23078 0
M  V30 9104 O 847.111 0.832404 4.03912 0
M  V30 9105 H 846.452 0.362354 0.556413 0
M  V30 9106 H 848.982 1.58633 1.29216 0
M  V30 9107 H 848.992 1.6347 3.7382 0
M  V30 9108 H 847.667 2.65454 3.20167 0
M  V30 9109 H 846.244 0.872768 3.62543 0
M  V30 9110 N 848.429 -1.21819 0.999893 0
M  V30 9111 C 849.678 -1.90066 0.675108 0
M  V30 9112 C 849.991 -1.78624 -0.79705 0
M  V30 9113 O 851.197 -2.41851 -1.23371 0
M  V30 9114 C 849.653 -3.40795 1.15702 0
M  V30 9115 C 849.261 -3.60859 2.6549 0
M  V30 9116 C 851.005 -4.147 0.906889 0
M  V30 9117 C 848.912 -5.05324 3.07248 0
M  V30 9118 H 847.842 -0.711763 0.248815 0
M  V30 9119 H 850.493 -1.3792 1.21038 0
M  V30 9120 H 848.875 -3.92164 0.549832 0
M  V30 9121 H 850.049 -3.19951 3.31614 0
M  V30 9122 H 848.364 -3.00298 2.88461 0
M  V30 9123 H 850.961 -5.21187 1.1945 0
M  V30 9124 H 851.304 -4.16004 -0.156923 0
M  V30 9125 H 851.837 -3.69379 1.47662 0
M  V30 9126 H 848.576 -5.09164 4.12834 0
M  V30 9127 H 848.096 -5.47108 2.45832 0
M  V30 9128 H 849.775 -5.73797 2.98941 0
M  V30 9129 N 849.908 -0.773975 -1.37286 0
M  V30 9130 C 851.157 -0.335977 -1.98882 0
M  V30 9131 C 851.47 1.09416 -1.62134 0
M  V30 9132 O 852.676 1.63366 -2.1685 0
M  V30 9133 C 851.132 -0.549756 -3.55676 0
M  V30 9134 C 850.74 -1.9903 -4.01361 0
M  V30 9135 C 852.484 -0.175493 -4.24137 0
M  V30 9136 C 850.391 -2.15156 -5.50874 0
M  V30 9137 H 849.321 -0.121877 -0.744085 0
M  V30 9138 H 851.972 -0.953419 -1.56787 0
M  V30 9139 H 850.354 0.137175 -3.95762 0
M  V30 9140 H 851.528 -2.71237 -3.72515 0
M  V30 9141 H 849.843 -2.32137 -3.4569 0
M  V30 9142 H 852.44 -0.274463 -5.33995 0
M  V30 9143 H 852.783 0.874524 -4.07011 0
M  V30 9144 H 853.316 -0.815058 -3.89361 0
M  V30 9145 H 850.055 -3.18485 -5.72929 0
M  V30 9146 H 849.575 -1.47435 -5.81397 0
M  V30 9147 H 851.254 -1.95124 -6.16876 0
M  V30 9148 N 851.386 1.48609 -0.524698 0
M  V30 9149 C 852.614 2.06899 0.00742946 0
M  V30 9150 C 853.029 1.38196 1.28637 0
M  V30 9151 O 852.386 0.467771 1.76403 0
M  V30 9152 C 852.437 3.60699 0.240548 0
M  V30 9153 O 852.158 4.26821 -0.987715 0
M  V30 9154 C 853.659 4.35769 0.813652 0
M  V30 9155 H 850.879 0.670278 -0.0311294 0
M  V30 9156 H 853.423 1.91071 -0.728832 0
M  V30 9157 H 851.578 3.76149 0.926845 0
M  V30 9158 H 851.992 5.18889 -0.765175 0
M  V30 9159 H 853.466 5.44174 0.926219 0
M  V30 9160 H 853.943 3.9984 1.81728 0
M  V30 9161 H 854.549 4.24983 0.164086 0
M  V30 9162 N 852.864 0.259585 1.55447 0
M  V30 9163 C 854.089 -0.368317 2.04103 0
M  V30 9164 C 854.514 -1.49827 1.13725 0
M  V30 9165 O 853.872 -1.80814 0.132705 0
M  V30 9166 C 853.92 -0.841506 3.50644 0
M  V30 9167 O 853.024 -1.95008 3.63381 0
M  V30 9168 H 852.365 -0.0785227 0.659341 0
M  V30 9169 H 854.895 0.389349 2.00861 0
M  V30 9170 H 854.905 -1.14138 3.9171 0
M  V30 9171 H 853.58 -0.0147001 4.15897 0
M  V30 9172 H 852.157 -1.65393 3.34215 0
M  V30 9173 N 854.342 -1.57594 -0.0133615 0
M  V30 9174 C 855.57 -1.94251 -0.712328 0
M  V30 9175 C 855.985 -0.86063 -1.68043 0
M  V30 9176 O 855.342 0.161632 -1.81783 0
M  V30 9177 C 855.393 -3.30891 -1.45581 0
M  V30 9178 O 855.114 -4.34924 -0.526539 0
M  V30 9179 C 856.615 -3.81926 -2.2505 0
M  V30 9180 H 853.835 -0.640737 -0.199241 0
M  V30 9181 H 856.379 -2.04472 0.0337855 0
M  V30 9182 H 854.534 -3.22019 -2.15366 0
M  V30 9183 H 854.948 -5.1389 -1.04962 0
M  V30 9184 H 856.422 -4.79999 -2.72589 0
M  V30 9185 H 856.899 -3.13934 -3.07152 0
M  V30 9186 H 857.505 -3.93931 -1.60308 0
M  V30 9187 N 855.82 0.285905 -1.54985 0
M  V30 9188 C 856.752 1.37505 -1.83371 0
M  V30 9189 C 857.765 1.46138 -0.717454 0
M  V30 9190 O 858.954 1.48186 -0.995142 0
M  V30 9191 C 856.054 2.7575 -1.97016 0
M  V30 9192 C 855.227 2.89866 -3.27561 0
M  V30 9193 C 854.286 4.08704 -3.31433 0
M  V30 9194 O 853.312 4.00073 -4.04883 0
M  V30 9195 N 854.514 5.20062 -2.57907 0
M  V30 9196 H 857.279 1.13505 -2.77375 0
M  V30 9197 H 854.84 0.476006 -1.54744 0
M  V30 9198 H 856.832 3.5352 -1.96991 0
M  V30 9199 H 855.402 2.9263 -1.09938 0
M  V30 9200 H 854.622 1.99085 -3.40234 0
M  V30 9201 H 855.91 2.96219 -4.13681 0
M  V30 9202 H 855.308 5.29958 -1.97891 0
M  V30 9203 H 853.865 5.96111 -2.63619 0
M  V30 9204 N 857.298 1.47698 0.54982 0
M  V30 9205 C 858.245 1.60739 1.65625 0
M  V30 9206 C 859.215 0.450129 1.59884 0
M  V30 9207 O 860.4 0.671123 1.78607 0
M  V30 9208 C 857.54 1.63457 3.03934 0
M  V30 9209 C 856.653 2.90152 3.20056 0
M  V30 9210 C 855.788 2.84157 4.48807 0
M  V30 9211 C 854.827 4.05644 4.58387 0
M  V30 9212 N 853.964 3.97843 5.78503 0
M  V30 9213 H 858.804 2.55234 1.53817 0
M  V30 9214 H 856.341 1.26593 0.749173 0
M  V30 9215 H 858.299 1.63015 3.84034 0
M  V30 9216 H 856.929 0.724689 3.1456 0
M  V30 9217 H 855.981 3.00428 2.33339 0
M  V30 9218 H 857.293 3.80097 3.22998 0
M  V30 9219 H 856.447 2.82006 5.37175 0
M  V30 9220 H 855.186 1.91908 4.48356 0
M  V30 9221 H 854.191 4.08092 3.6843 0
M  V30 9222 H 855.416 4.9903 4.60593 0
M  V30 9223 H 853.362 3.08401 5.78986 0
M  V30 9224 H 853.279 4.81473 5.82855 0
M  V30 9225 H 854.547 3.99719 6.69212 0
M  V30 9226 N 858.776 -0.797141 1.35954 0
M  V30 9227 C 860.024 -1.55161 1.29497 0
M  V30 9228 C 860.345 -1.94582 -0.127659 0
M  V30 9229 O 859.615 -1.64343 -1.06622 0
M  V30 9230 H 858.195 -0.575413 0.47635 0
M  V30 9231 H 860.857 -0.950282 1.70164 0
M  V30 9232 H 859.953 -2.46272 1.9172 0
M  V30 9233 N 860.254 -1.20106 -1.0204 0
M  V30 9234 C 861.187 -0.889795 -2.10138 0
M  V30 9235 C 862.165 0.156595 -1.61844 0
M  V30 9236 O 863.349 0.0310192 -1.88474 0
M  V30 9237 C 860.476 -0.333227 -3.37057 0
M  V30 9238 C 859.522 -1.36001 -4.04235 0
M  V30 9239 S 860.355 -2.92366 -4.48645 0
M  V30 9240 C 861.511 -2.38274 -5.78771 0
M  V30 9241 H 861.744 -1.80523 -2.36217 0
M  V30 9242 H 859.277 -1.02912 -1.15102 0
M  V30 9243 H 861.235 -0.0186507 -4.10496 0
M  V30 9244 H 859.896 0.560652 -3.09056 0
M  V30 9245 H 859.089 -0.919874 -4.95534 0
M  V30 9246 H 858.691 -1.62186 -3.37004 0
M  V30 9247 H 860.983 -1.77799 -6.53754 0
M  V30 9248 H 861.926 -3.27955 -6.27576 0
M  V30 9249 H 862.334 -1.8054 -5.34851 0
M  V30 9250 N 861.732 1.21287 -1.00634 0
M  V30 9251 C 862.981 1.89706 -0.685178 0
M  V30 9252 C 863.294 1.79044 0.787566 0
M  V30 9253 O 864.5 2.42502 1.22086 0
M  V30 9254 C 862.956 3.40176 -1.17508 0
M  V30 9255 C 862.564 3.59446 -2.674 0
M  V30 9256 C 864.308 4.14213 -0.928869 0
M  V30 9257 C 862.215 5.03688 -3.09923 0
M  V30 9258 H 861.145 0.710434 -0.252586 0
M  V30 9259 H 863.796 1.37277 -1.21768 0
M  V30 9260 H 862.178 3.91867 -0.570622 0
M  V30 9261 H 863.352 3.18188 -3.33306 0
M  V30 9262 H 861.667 2.98764 -2.9005 0
M  V30 9263 H 864.264 5.20546 -1.22212 0
M  V30 9264 H 864.607 4.16082 0.134859 0
M  V30 9265 H 865.14 3.68591 -1.49619 0
M  V30 9266 H 861.879 5.06968 -4.15529 0
M  V30 9267 H 861.399 5.45796 -2.4873 0
M  V30 9268 H 863.078 5.72204 -3.0198 0
M  V30 9269 N 863.21 0.781244 1.36873 0
M  V30 9270 C 864.157 0.172146 2.30157 0
M  V30 9271 C 865.127 -0.679328 1.51573 0
M  V30 9272 O 866.312 -0.629713 1.80109 0
M  V30 9273 C 863.452 -0.693534 3.38059 0
M  V30 9274 C 862.565 0.175586 4.31643 0
M  V30 9275 C 861.7 -0.695695 5.26625 0
M  V30 9276 C 860.739 0.17538 6.11849 0
M  V30 9277 N 859.876 -0.654416 6.99043 0
M  V30 9278 H 864.716 0.973133 2.81663 0
M  V30 9279 H 862.253 0.491469 1.38647 0
M  V30 9280 H 864.211 -1.21035 3.99257 0
M  V30 9281 H 862.841 -1.46003 2.87894 0
M  V30 9282 H 861.893 0.810295 3.7167 0
M  V30 9283 H 863.205 0.847107 4.91554 0
M  V30 9284 H 862.359 -1.27863 5.93073 0
M  V30 9285 H 861.098 -1.40087 4.67148 0
M  V30 9286 H 860.103 0.77078 5.4437 0
M  V30 9287 H 861.328 0.87803 6.734 0
M  V30 9288 H 859.274 -1.34403 6.42084 0
M  V30 9289 H 859.191 -0.0403998 7.55989 0
M  V30 9290 H 860.459 -1.22144 7.69871 0
M  V30 9291 N 864.689 -1.48329 0.532571 0
M  V30 9292 C 865.619 -2.32485 -0.217511 0
M  V30 9293 C 866.6 -1.42255 -0.932598 0
M  V30 9294 O 867.785 -1.7114 -0.917873 0
M  V30 9295 C 864.915 -3.23509 -1.26329 0
M  V30 9296 C 863.869 -4.22784 -0.666191 0
M  V30 9297 C 863.195 -5.0296 -1.81482 0
M  V30 9298 C 864.495 -5.21031 0.363813 0
M  V30 9299 H 866.189 -2.95445 0.485014 0
M  V30 9300 H 863.735 -1.42075 0.234694 0
M  V30 9301 H 865.688 -3.81211 -1.79601 0
M  V30 9302 H 864.412 -2.58554 -1.99543 0
M  V30 9303 H 863.071 -3.66272 -0.15498 0
M  V30 9304 H 862.719 -4.34427 -2.5354 0
M  V30 9305 H 862.419 -5.70154 -1.4212 0
M  V30 9306 H 863.943 -5.63514 -2.35126 0
M  V30 9307 H 865.357 -5.73241 -0.0819079 0
M  V30 9308 H 863.754 -5.96292 0.674956 0
M  V30 9309 H 864.824 -4.6801 1.26865 0
M  V30 9310 N 866.167 -0.267825 -1.55308 0
M  V30 9311 C 867.397 0.354073 -2.03543 0
M  V30 9312 C 867.805 1.50554 -1.14586 0
M  V30 9313 O 867.148 1.83028 -0.156991 0
M  V30 9314 C 867.21 0.904148 -3.47945 0
M  V30 9315 C 866.874 -0.11775 -4.56848 0
M  V30 9316 C 867.871 -0.934707 -5.11429 0
M  V30 9317 C 865.556 -0.249885 -5.01678 0
M  V30 9318 C 867.55 -1.87005 -6.0935 0
M  V30 9319 C 865.237 -1.18872 -5.99427 0
M  V30 9320 C 866.235 -1.99731 -6.53144 0
M  V30 9321 O 865.923 -2.92028 -7.48983 0
M  V30 9322 H 865.655 0.0857765 -0.670536 0
M  V30 9323 H 868.209 -0.395515 -2.01556 0
M  V30 9324 H 866.439 1.70368 -3.47148 0
M  V30 9325 H 868.128 1.43835 -3.79561 0
M  V30 9326 H 868.894 -0.84332 -4.77612 0
M  V30 9327 H 864.773 0.369469 -4.59517 0
M  V30 9328 H 868.317 -2.5016 -6.51203 0
M  V30 9329 H 864.214 -1.28095 -6.32663 0
M  V30 9330 H 864.982 -2.86627 -7.66673 0
M  V30 9331 N 867.645 1.57599 0.00500368 0
M  V30 9332 C 868.892 1.90349 0.690895 0
M  V30 9333 C 869.22 0.868045 1.74055 0
M  V30 9334 O 868.475 -0.127855 1.95282 0
M  V30 9335 C 868.774 3.29855 1.37588 0
M  V30 9336 C 868.44 4.48548 0.459906 0
M  V30 9337 C 867.102 4.80752 0.207693 0
M  V30 9338 C 869.454 5.20919 -0.171054 0
M  V30 9339 C 866.782 5.82701 -0.683855 0
M  V30 9340 C 869.134 6.23818 -1.05045 0
M  V30 9341 C 867.798 6.54481 -1.31189 0
M  V30 9342 H 867.068 0.696538 0.252816 0
M  V30 9343 H 869.715 1.91436 -0.0494495 0
M  V30 9344 H 868.02 3.24869 2.19015 0
M  V30 9345 H 869.717 3.52452 1.91255 0
M  V30 9346 H 866.307 4.23384 0.666648 0
M  V30 9347 H 870.491 4.96299 0.0107942 0
M  V30 9348 H 865.747 6.04822 -0.894467 0
M  V30 9349 H 869.921 6.79029 -1.54574 0
M  V30 9350 H 867.548 7.33299 -2.00442 0
M  V30 9351 N 869.123 -0.277682 1.55134 0
M  V30 9352 C 870.053 -1.34742 1.90701 0
M  V30 9353 C 871.034 -1.51757 0.768354 0
M  V30 9354 O 872.219 -1.64879 1.02609 0
M  V30 9355 C 869.349 -2.70775 2.17481 0
M  V30 9356 C 868.303 -2.68497 3.33307 0
M  V30 9357 C 867.629 -4.08037 3.45557 0
M  V30 9358 C 868.929 -2.28178 4.69821 0
M  V30 9359 H 870.623 -1.05224 2.803 0
M  V30 9360 H 868.169 -0.504738 1.34864 0
M  V30 9361 H 870.122 -3.45719 2.40949 0
M  V30 9362 H 868.846 -3.01867 1.24676 0
M  V30 9363 H 867.505 -1.9601 3.09799 0
M  V30 9364 H 867.153 -4.36344 2.50226 0
M  V30 9365 H 866.853 -4.07409 4.23429 0
M  V30 9366 H 868.377 -4.84726 3.71312 0
M  V30 9367 H 869.791 -2.92843 4.92865 0
M  V30 9368 H 868.188 -2.3872 5.50575 0
M  V30 9369 H 869.258 -1.23308 4.6896 0
M  V30 9370 N 870.601 -1.47988 -0.541979 0
M  V30 9371 C 871.826 -1.59286 -1.32826 0
M  V30 9372 C 872.251 -0.24894 -1.86445 0
M  V30 9373 O 871.609 0.777581 -1.63778 0
M  V30 9374 C 871.657 -2.6334 -2.46343 0
M  V30 9375 O 870.761 -2.19667 -3.49028 0
M  V30 9376 H 870.102 -0.534543 -0.393903 0
M  V30 9377 H 872.632 -1.93885 -0.653427 0
M  V30 9378 H 872.642 -2.84238 -2.92699 0
M  V30 9379 H 871.317 -3.60913 -2.06675 0
M  V30 9380 H 869.894 -2.08932 -3.08872 0
M  V30 9381 N 872.079 0.78992 -1.36375 0
M  V30 9382 C 873.326 1.54777 -1.30576 0
M  V30 9383 C 873.654 1.94159 0.115095 0
M  V30 9384 O 872.909 1.62918 1.08426 0
M  V30 9385 C 873.208 2.83698 -2.17371 0
M  V30 9386 C 872.874 2.63457 -3.65925 0
M  V30 9387 C 871.536 2.57645 -4.06415 0
M  V30 9388 C 873.888 2.44833 -4.60115 0
M  V30 9389 C 871.216 2.31174 -5.39236 0
M  V30 9390 C 873.568 2.19889 -5.93154 0
M  V30 9391 C 872.232 2.1251 -6.32768 0
M  V30 9392 H 871.502 0.566371 -0.477813 0
M  V30 9393 H 874.149 0.91138 -1.68422 0
M  V30 9394 H 872.454 3.51802 -1.72459 0
M  V30 9395 H 874.151 3.41487 -2.10209 0
M  V30 9396 H 870.741 2.68836 -3.33804 0
M  V30 9397 H 874.925 2.48325 -4.29707 0
M  V30 9398 H 870.181 2.23942 -5.68911 0
M  V30 9399 H 874.355 2.04473 -6.65705 0
M  V30 9400 H 871.982 1.91761 -7.35616 0
M  V30 9401 N 873.557 1.20646 1.01402 0
M  V30 9402 C 874.804 1.01819 1.7504 0
M  V30 9403 C 875.132 -0.449386 1.89237 0
M  V30 9404 O 874.387 -1.34985 1.41695 0
M  V30 9405 C 874.686 1.64991 3.17037 0
M  V30 9406 C 874.352 3.14808 3.22811 0
M  V30 9407 C 873.014 3.55692 3.24094 0
M  V30 9408 C 875.366 4.108 3.2077 0
M  V30 9409 C 872.694 4.9109 3.2101 0
M  V30 9410 C 875.046 5.46147 3.19227 0
M  V30 9411 C 873.71 5.86441 3.18815 0
M  V30 9412 H 872.98 0.372582 0.640518 0
M  V30 9413 H 875.627 1.50108 1.18911 0
M  V30 9414 H 873.932 1.08971 3.76341 0
M  V30 9415 H 875.629 1.47937 3.72714 0
M  V30 9416 H 872.219 2.8224 3.2255 0
M  V30 9417 H 876.403 3.80246 3.18946 0
M  V30 9418 H 871.659 5.21569 3.19023 0
M  V30 9419 H 875.833 6.20272 3.166 0
M  V30 9420 H 873.46 6.91328 3.16179 0
M  V30 9421 N 875.035 -1.20752 1.01276 0
M  V30 9422 C 876.282 -1.90021 0.699887 0
M  V30 9423 C 876.61 -1.78604 -0.770113 0
M  V30 9424 O 875.865 -1.16195 -1.57471 0
M  V30 9425 C 876.164 -3.40808 1.07633 0
M  V30 9426 C 875.83 -3.72423 2.54189 0
M  V30 9427 C 874.492 -3.80762 2.94234 0
M  V30 9428 C 876.844 -3.87025 3.49086 0
M  V30 9429 C 874.172 -4.01158 4.28123 0
M  V30 9430 C 876.524 -4.0893 4.82658 0
M  V30 9431 C 875.188 -4.15498 5.22415 0
M  V30 9432 H 874.458 -0.695335 0.256107 0
M  V30 9433 H 877.105 -1.43096 1.27263 0
M  V30 9434 H 875.41 -3.89521 0.421944 0
M  V30 9435 H 877.107 -3.92693 0.811997 0
M  V30 9436 H 873.697 -3.66529 2.22158 0
M  V30 9437 H 877.881 -3.79942 3.19309 0
M  V30 9438 H 873.137 -4.04476 4.58486 0
M  V30 9439 H 877.311 -4.19172 5.56119 0
M  V30 9440 H 874.938 -4.31055 6.26176 0
M  V30 9441 N 876.513 -0.788492 -1.36457 0
M  V30 9442 C 877.924 -0.423742 -1.81828 0
M  V30 9443 C 878.275 1.05221 -1.65599 0
M  V30 9444 O 877.4 1.8163 -1.17641 0
M  V30 9445 C 877.995 -0.762354 -3.30112 0
M  V30 9446 C 876.554 -0.450445 -3.73695 0
M  V30 9447 C 875.701 -0.997482 -2.58738 0
M  V30 9448 H 878.652 -0.981718 -1.24692 0
M  V30 9449 H 878.673 -0.0531136 -3.80463 0
M  V30 9450 H 878.185 -1.83662 -3.41891 0
M  V30 9451 H 876.286 0.615829 -3.67476 0
M  V30 9452 H 876.399 -0.970408 -4.69169 0
M  V30 9453 H 874.763 -0.420761 -2.51201 0
M  V30 9454 H 875.546 -2.07749 -2.73304 0
M  V30 9455 N 877.991 1.48044 -0.54043 0
M  V30 9456 C 878.921 2.32597 0.205178 0
M  V30 9457 C 879.902 1.42748 0.925041 0
M  V30 9458 O 881.087 1.71624 0.908784 0
M  V30 9459 C 878.217 3.24175 1.24612 0
M  V30 9460 C 877.171 4.23131 0.64376 0
M  V30 9461 C 876.497 5.03915 1.78812 0
M  V30 9462 C 877.797 5.20831 -0.39144 0
M  V30 9463 H 879.491 2.95184 -0.500676 0
M  V30 9464 H 877.037 1.41948 -0.242225 0
M  V30 9465 H 878.99 3.82158 1.77576 0
M  V30 9466 H 877.714 2.59608 1.98169 0
M  V30 9467 H 876.373 3.66349 0.135554 0
M  V30 9468 H 876.021 4.35765 2.51232 0
M  V30 9469 H 875.721 5.709 1.39094 0
M  V30 9470 H 877.245 5.64753 2.32134 0
M  V30 9471 H 878.659 5.73277 0.0515064 0
M  V30 9472 H 877.056 5.95926 -0.706569 0
M  V30 9473 H 878.126 4.6733 -1.29345 0
M  V30 9474 N 879.47 0.276058 1.55163 0
M  V30 9475 C 880.719 -0.341098 1.98795 0
M  V30 9476 C 881.032 -1.56905 1.16791 0
M  V30 9477 O 882.238 -2.25922 1.50571 0
M  V30 9478 C 880.694 -0.658231 3.5383 0
M  V30 9479 C 880.302 0.549972 4.44611 0
M  V30 9480 C 882.046 -1.23796 4.06048 0
M  V30 9481 C 879.953 0.207373 5.91036 0
M  V30 9482 H 878.883 -0.131224 0.742493 0
M  V30 9483 H 881.534 0.380858 1.79504 0
M  V30 9484 H 879.916 -1.43911 3.68925 0
M  V30 9485 H 881.09 1.32681 4.41285 0
M  V30 9486 H 879.405 1.04661 4.03032 0
M  V30 9487 H 882.002 -1.50811 5.12991 0
M  V30 9488 H 882.345 -2.17214 3.55139 0
M  V30 9489 H 882.878 -0.519345 3.94395 0
M  V30 9490 H 879.617 1.10946 6.46043 0
M  V30 9491 H 879.137 -0.532687 5.9743 0
M  V30 9492 H 880.816 -0.200072 6.46691 0
M  V30 9493 N 880.948 -1.576 0.00335426 0
M  V30 9494 C 881.878 -2.11668 -0.985839 0
M  V30 9495 C 882.859 -1.02661 -1.35627 0
M  V30 9496 O 884.044 -1.30361 -1.43943 0
M  V30 9497 C 881.174 -2.62273 -2.27662 0
M  V30 9498 C 880.128 -3.75837 -2.0477 0
M  V30 9499 C 879.454 -4.12769 -3.39891 0
M  V30 9500 C 880.754 -5.02975 -1.40759 0
M  V30 9501 H 882.448 -2.9457 -0.535637 0
M  V30 9502 H 879.994 -1.41702 -0.256204 0
M  V30 9503 H 881.947 -2.98727 -2.97221 0
M  V30 9504 H 880.671 -1.76498 -2.74802 0
M  V30 9505 H 879.33 -3.39782 -1.37636 0
M  V30 9506 H 878.978 -3.24013 -3.8474 0
M  V30 9507 H 878.678 -4.89281 -3.25389 0
M  V30 9508 H 880.202 -4.51784 -4.1076 0
M  V30 9509 H 881.616 -5.37179 -2.00279 0
M  V30 9510 H 880.013 -5.84315 -1.36734 0
M  V30 9511 H 881.083 -4.83431 -0.377218 0
M  V30 9512 N 882.426 0.269451 -1.5528 0
M  V30 9513 C 883.654 1.01872 -1.80082 0
M  V30 9514 C 884.069 1.79802 -0.575917 0
M  V30 9515 O 883.426 1.76735 0.455081 0
M  V30 9516 C 883.477 1.9745 -3.02813 0
M  V30 9517 O 883.198 1.22677 -4.20573 0
M  V30 9518 C 884.699 2.8416 -3.40247 0
M  V30 9519 H 881.919 0.300781 -0.59981 0
M  V30 9520 H 884.463 0.29916 -2.023 0
M  V30 9521 H 882.618 2.64864 -2.82712 0
M  V30 9522 H 883.032 1.87129 -4.89982 0
M  V30 9523 H 884.506 3.47014 -4.29284 0
M  V30 9524 H 884.983 3.54113 -2.59809 0
M  V30 9525 H 885.589 2.22232 -3.6262 0
M  V30 9526 N 883.904 1.48273 0.534124 0
M  V30 9527 C 884.834 1.6538 1.64839 0
M  V30 9528 C 885.815 0.502741 1.62501 0
M  V30 9529 O 887 0.734799 1.79762 0
M  V30 9530 C 884.13 1.68949 3.03436 0
M  V30 9531 C 883.084 2.83513 3.20631 0
M  V30 9532 C 882.41 2.72169 4.60248 0
M  V30 9533 C 883.71 4.24858 3.03797 0
M  V30 9534 H 885.404 2.58663 1.50777 0
M  V30 9535 H 882.95 1.24479 0.723937 0
M  V30 9536 H 884.903 1.79505 3.81256 0
M  V30 9537 H 883.627 0.722415 3.1851 0
M  V30 9538 H 882.286 2.72505 2.45227 0
M  V30 9539 H 881.934 1.7344 4.72152 0
M  V30 9540 H 881.634 3.49042 4.72698 0
M  V30 9541 H 883.158 2.84687 5.40172 0
M  V30 9542 H 884.572 4.36721 3.71413 0
M  V30 9543 H 882.969 5.02697 3.27743 0
M  V30 9544 H 884.039 4.41611 2.0027 0
M  V30 9545 N 885.382 -0.782676 1.36792 0
M  V30 9546 C 886.312 -1.90973 1.34356 0
M  V30 9547 C 887.293 -1.6875 0.213917 0
M  V30 9548 O 888.478 -1.89766 0.412601 0
M  V30 9549 C 885.608 -3.28097 1.13884 0
M  V30 9550 C 884.562 -3.6486 2.23744 0
M  V30 9551 C 883.888 -5.00406 1.88408 0
M  V30 9552 C 885.188 -3.72742 3.6587 0
M  V30 9553 H 886.882 -1.93268 2.28665 0
M  V30 9554 H 884.428 -0.928447 1.10072 0
M  V30 9555 H 886.381 -4.06569 1.10813 0
M  V30 9556 H 885.105 -3.26206 0.160275 0
M  V30 9557 H 883.764 -2.88689 2.25952 0
M  V30 9558 H 883.412 -4.95044 0.891083 0
M  V30 9559 H 883.112 -5.25973 2.61966 0
M  V30 9560 H 884.636 -5.81291 1.86905 0
M  V30 9561 H 886.05 -4.4139 3.65852 0
M  V30 9562 H 884.447 -4.09798 4.38389 0
M  V30 9563 H 885.517 -2.73676 4.00287 0
M  V30 9564 N 886.86 -1.21182 -1.00761 0
M  V30 9565 C 887.79 -0.992773 -2.11344 0
M  V30 9566 C 888.771 0.0813618 -1.69905 0
M  V30 9567 O 889.956 -0.0779503 -1.94043 0
M  V30 9568 C 887.086 -0.553826 -3.42856 0
M  V30 9569 C 886.04 -1.57223 -3.98077 0
M  V30 9570 C 885.366 -0.989605 -5.25463 0
M  V30 9571 C 886.666 -2.95839 -4.30438 0
M  V30 9572 H 888.36 -1.91766 -2.29927 0
M  V30 9573 H 885.906 -0.923426 -1.10494 0
M  V30 9574 H 887.859 -0.387771 -4.19612 0
M  V30 9575 H 886.583 0.406702 -3.24058 0
M  V30 9576 H 885.242 -1.7258 -3.23437 0
M  V30 9577 H 884.89 -0.0208743 -5.02996 0
M  V30 9578 H 884.59 -1.66984 -5.63374 0
M  V30 9579 H 886.114 -0.834815 -6.04866 0
M  V30 9580 H 887.528 -2.8394 -4.98047 0
M  V30 9581 H 885.925 -3.60851 -4.79486 0
M  V30 9582 H 886.995 -3.46882 -3.38823 0
M  V30 9583 N 888.338 1.20213 -1.01915 0
M  V30 9584 C 889.587 1.88968 -0.705261 0
M  V30 9585 C 889.9 1.79869 0.768531 0
M  V30 9586 O 891.106 2.43783 1.19508 0
M  V30 9587 C 889.562 3.38911 -1.21109 0
M  V30 9588 C 889.17 3.5659 -2.71197 0
M  V30 9589 C 890.914 4.13204 -0.97275 0
M  V30 9590 C 888.821 5.00372 -3.15248 0
M  V30 9591 H 887.751 0.707715 -0.260107 0
M  V30 9592 H 890.402 1.35977 -1.23217 0
M  V30 9593 H 888.784 3.9124 -0.612152 0
M  V30 9594 H 889.958 3.14635 -3.36662 0
M  V30 9595 H 888.273 2.95671 -2.93202 0
M  V30 9596 H 890.87 5.19221 -1.27726 0
M  V30 9597 H 891.213 4.16201 0.09072 0
M  V30 9598 H 891.746 3.66983 -1.5352 0
M  V30 9599 H 888.485 5.02532 -4.20882 0
M  V30 9600 H 888.005 5.43127 -2.54505 0
M  V30 9601 H 889.684 5.68969 -3.08032 0
M  V30 9602 N 889.816 0.795718 1.36037 0
M  V30 9603 C 891.044 0.383153 2.03321 0
M  V30 9604 C 891.459 -1.00246 1.59988 0
M  V30 9605 O 890.816 -1.64406 0.792265 0
M  V30 9606 C 890.867 0.444467 3.58757 0
M  V30 9607 O 890.588 1.77544 4.00512 0
M  V30 9608 C 892.089 0.0233291 4.43294 0
M  V30 9609 H 889.309 0.157061 0.652359 0
M  V30 9610 H 891.853 1.07632 1.73884 0
M  V30 9611 H 890.008 -0.200341 3.86882 0
M  V30 9612 H 890.422 1.73065 4.95125 0
M  V30 9613 H 891.896 0.117361 5.51875 0
M  V30 9614 H 892.373 -1.03007 4.2695 0
M  V30 9615 H 892.979 0.64087 4.20444 0
M  V30 9616 O 891.333 -1.46044 0.689439 0
M  V30 9617 H 892.024 -1.92374 0.226226 0
M  V30 END ATOM
M  V30 BEGIN BOND
M  V30 END BOND
M  V30 END CTAB
M  END
$$$$
