drugbank_target|P23181 Gentamicin 3-N-acetyltransferase (DB01992; DB03566)
 OpenBabel12092120023D

  0  0  0     0  0            999 V3000
M  V30 BEGIN CTAB
M  V30 COUNTS 2726 2751 0 0 0
M  V30 BEGIN ATOM
M  V30 1 H -0.908 1.98254 -0.117106 0
M  V30 2 N 0 1.576 0 0
M  V30 3 C 0.933 2.03868 1.02534 0
M  V30 4 C 1.911 0.928543 1.3348 0
M  V30 5 O 3.095 1.19667 1.45644 0
M  V30 6 C 0.222 2.43627 2.35294 0
M  V30 7 C -0.732 3.65373 2.2001 0
M  V30 8 S 0.101 5.13292 1.52614 0
M  V30 9 C 1.257 5.56322 2.86805 0
M  V30 10 H 1.49 2.90518 0.631377 0
M  V30 11 H -0.977 1.52953 0.210867 0
M  V30 12 H 0.981 2.67203 3.11629 0
M  V30 13 H -0.358 1.57376 2.7183 0
M  V30 14 H -1.165 3.90944 3.18086 0
M  V30 15 H -1.563 3.418 1.51819 0
M  V30 16 H 0.729 5.58782 3.83104 0
M  V30 17 H 1.672 6.56266 2.65933 0
M  V30 18 H 2.08 4.83886 2.90714 0
M  V30 19 N 1.4781 -0.272755 1.55222 0
M  V30 20 C 2.4081 -1.34136 1.91127 0
M  V30 21 C 3.3891 -1.51513 0.773168 0
M  V30 22 O 4.5741 -1.64552 1.03132 0
M  V30 23 C 1.7041 -2.70083 2.1834 0
M  V30 24 C 0.6581 -2.67437 3.34158 0
M  V30 25 C -0.0159 -4.06938 3.46851 0
M  V30 26 C 1.2841 -2.26686 4.70543 0
M  V30 27 H 2.9781 -1.04333 2.80633 0
M  V30 28 H 0.5241 -0.500454 1.35024 0
M  V30 29 H 2.4771 -3.44952 2.42046 0
M  V30 30 H 1.2011 -3.01469 1.25634 0
M  V30 31 H -0.1399 -1.95026 3.1042 0
M  V30 32 H -0.4919 -4.35547 2.51611 0
M  V30 33 H -0.7919 -4.06062 4.2472 0
M  V30 34 H 0.7321 -4.83545 3.72849 0
M  V30 35 H 2.1461 -2.91277 4.93792 0
M  V30 36 H 0.5431 -2.36971 5.5133 0
M  V30 37 H 1.6131 -1.21818 4.69349 0
M  V30 38 N 2.9562 -1.48159 -0.537278 0
M  V30 39 C 4.3722 -1.34118 -0.865129 0
M  V30 40 C 4.5722 -0.346678 -1.98495 0
M  V30 41 O 3.6282 0.234715 -2.51407 0
M  V30 42 C 4.9412 -2.73963 -1.23954 0
M  V30 43 C 6.4892 -2.82397 -1.34984 0
M  V30 44 C 6.9642 -4.22928 -1.75772 0
M  V30 45 N 8.4552 -4.25566 -1.82887 0
M  V30 46 C 9.1902 -5.31235 -2.15817 0
M  V30 47 N 8.6862 -6.47189 -2.47222 0
M  V30 48 N 10.4792 -5.18624 -2.16761 0
M  V30 49 H 2.6302 -2.1144 0.201715 0
M  V30 50 H 4.8932 -0.947598 0.0275949 0
M  V30 51 H 4.5992 -3.48264 -0.490381 0
M  V30 52 H 4.4732 -3.0702 -2.19132 0
M  V30 53 H 6.8602 -2.08356 -2.08978 0
M  V30 54 H 6.9412 -2.5297 -0.379448 0
M  V30 55 H 6.5852 -4.97482 -1.02341 0
M  V30 56 H 6.5152 -4.49794 -2.73848 0
M  V30 57 H 9.0062 -3.41924 -1.60924 0
M  V30 58 H 9.3192 -7.23564 -2.71433 0
M  V30 59 H 7.6642 -6.50476 -2.44757 0
M  V30 60 H 10.8552 -4.27056 -1.91679 0
M  V30 61 H 11.0282 -6.01078 -2.42093 0
M  V30 62 N 4.4343 0.785586 -1.36625 0
M  V30 63 C 5.6593 1.57963 -1.34397 0
M  V30 64 C 6.0843 1.87964 0.071526 0
M  V30 65 O 5.4423 1.48182 1.0446 0
M  V30 66 C 5.4903 2.87511 -2.17646 0
M  V30 67 O 4.5943 3.81281 -1.57158 0
M  V30 68 H 3.9353 0.479014 -0.459828 0
M  V30 69 H 6.4653 0.973411 -1.79961 0
M  V30 70 H 6.4753 3.36745 -2.30362 0
M  V30 71 H 5.1503 2.65002 -3.20541 0
M  V30 72 H 3.7273 3.39885 -1.53403 0
M  V30 73 N 5.9124 1.20967 1.01018 0
M  V30 74 C 7.1374 1.0503 1.78839 0
M  V30 75 C 7.5624 -0.395752 1.8389 0
M  V30 76 O 6.9204 -1.28529 1.27867 0
M  V30 77 C 6.9684 1.64602 3.2084 0
M  V30 78 O 6.0724 0.887988 4.02726 0
M  V30 79 H 5.4134 0.369987 0.551367 0
M  V30 80 H 7.9434 1.60399 1.27018 0
M  V30 81 H 7.9534 1.68607 3.71532 0
M  V30 82 H 6.6284 2.69841 3.16479 0
M  V30 83 H 5.2054 0.922648 3.61305 0
M  V30 84 N 7.3905 -1.2043 1.01659 0
M  V30 85 C 8.3385 -2.25249 0.580143 0
M  V30 86 C 9.3325 -1.65057 -0.381115 0
M  V30 87 O 10.5385 -1.78241 -0.251039 0
M  V30 88 H 6.9135 -0.732695 0.169299 0
M  V30 89 H 8.8845 -2.59389 1.47512 0
M  V30 90 C 7.6335 -3.47638 -0.065788 0
M  V30 91 H 6.9565 -3.94233 0.664874 0
M  V30 92 H 8.3965 -4.2268 -0.334282 0
M  V30 93 C 6.8555 -3.10447 -1.3086 0
M  V30 94 O 7.3855 -3.21981 -2.4019 0
M  V30 95 N 5.5915 -2.64996 -1.1927 0
M  V30 96 H 5.1385 -2.55811 -0.303064 0
M  V30 97 H 5.0965 -2.40482 -2.02523 0
M  V30 98 N 8.8686 -0.792821 -1.36206 0
M  V30 99 C 10.1456 -0.290627 -1.93429 0
M  V30 100 C 10.5256 1.21773 -1.72437 0
M  V30 101 O 9.8736 2.0108 -1.08531 0
M  V30 102 C 10.0836 -0.686973 -3.42172 0
M  V30 103 C 11.4316 -0.668643 -4.19302 0
M  V30 104 O 12.4556 -0.627658 -3.50626 0
M  V30 105 O 11.3146 -0.714597 -5.41808 0
M  V30 106 H 8.4086 -0.0727927 -0.82379 0
M  V30 107 H 10.9546 -0.875593 -1.45367 0
M  V30 108 H 9.7266 -1.72711 -3.51122 0
M  V30 109 H 9.3496 -0.0760733 -3.97527 0
M  V30 110 N 10.3467 1.47872 -0.545128 0
M  V30 111 C 11.5927 2.02793 -0.0166104 0
M  V30 112 C 11.9257 1.41987 1.32489 0
M  V30 113 O 11.2007 0.571045 1.85928 0
M  V30 114 C 11.4837 3.59989 0.0893294 0
M  V30 115 C 11.3367 4.3125 -1.27841 0
M  V30 116 C 12.6557 4.32606 0.808724 0
M  V30 117 H 9.7747 0.736962 -0.00751035 0
M  V30 118 H 12.4167 1.76433 -0.705085 0
M  V30 119 H 10.5667 3.82579 0.675681 0
M  V30 120 H 12.2387 4.20035 -1.90704 0
M  V30 121 H 10.4817 3.92076 -1.85632 0
M  V30 122 H 11.1527 5.39736 -1.15713 0
M  V30 123 H 13.6287 4.14936 0.310992 0
M  V30 124 H 12.5047 5.42251 0.851782 0
M  V30 125 H 12.7657 4.00963 1.86229 0
M  V30 126 N 11.8248 0.280983 1.55075 0
M  V30 127 C 13.0528 -0.337293 2.04132 0
M  V30 128 C 13.4678 -1.4903 1.15912 0
M  V30 129 O 12.8248 -1.81606 0.180459 0
M  V30 130 C 12.8758 -0.812706 3.52246 0
M  V30 131 O 12.5968 0.294387 4.3711 0
M  V30 132 C 14.0978 -1.4982 4.17216 0
M  V30 133 H 11.3178 -0.0761638 0.666663 0
M  V30 134 H 13.8618 0.414787 2.00249 0
M  V30 135 H 12.0168 -1.51486 3.56554 0
M  V30 136 H 12.4308 -0.0721325 5.2445 0
M  V30 137 H 13.9048 -1.7822 5.22438 0
M  V30 138 H 14.3818 -2.43168 3.65741 0
M  V30 139 H 14.9878 -0.839742 4.16927 0
M  V30 140 N 13.3029 -1.57598 0.00835791 0
M  V30 141 C 14.2349 -2.05811 -1.00868 0
M  V30 142 C 15.2479 -0.977579 -1.30182 0
M  V30 143 O 16.4369 -1.25421 -1.27011 0
M  V30 144 C 13.5369 -2.45016 -2.34137 0
M  V30 145 C 12.7099 -3.75903 -2.23643 0
M  V30 146 C 11.7689 -4.01884 -3.3967 0
M  V30 147 O 10.7949 -4.72433 -3.17483 0
M  V30 148 N 11.9969 -3.50432 -4.62793 0
M  V30 149 H 14.7619 -2.93684 -0.597458 0
M  V30 150 H 12.3229 -1.60909 -0.178852 0
M  V30 151 H 14.3149 -2.59506 -3.10546 0
M  V30 152 H 12.8849 -1.62618 -2.66972 0
M  V30 153 H 12.1049 -3.7141 -1.32091 0
M  V30 154 H 13.3929 -4.61695 -2.13812 0
M  V30 155 H 12.7909 -2.93317 -4.83716 0
M  V30 156 H 11.3479 -3.70236 -5.3644 0
M  V30 157 N 14.781 0.264519 -1.55364 0
M  V30 158 C 15.713 1.34965 -1.85248 0
M  V30 159 C 16.726 1.45136 -0.737525 0
M  V30 160 O 17.915 1.46801 -1.01547 0
M  V30 161 C 15.015 2.73008 -2.00797 0
M  V30 162 C 14.188 2.85324 -3.31525 0
M  V30 163 C 13.247 4.04097 -3.37034 0
M  V30 164 O 12.273 3.94455 -4.10358 0
M  V30 165 N 13.475 5.16458 -2.65049 0
M  V30 166 H 16.24 1.09672 -2.78913 0
M  V30 167 H 13.801 0.454635 -1.55386 0
M  V30 168 H 15.793 3.50772 -2.01844 0
M  V30 169 H 14.363 2.91087 -1.1396 0
M  V30 170 H 13.583 1.94377 -3.42945 0
M  V30 171 H 14.871 2.9049 -4.17724 0
M  V30 172 H 14.269 5.27181 -2.05175 0
M  V30 173 H 12.826 5.92422 -2.71809 0
M  V30 174 N 16.2591 1.48442 0.529413 0
M  V30 175 C 17.5071 1.56179 1.28267 0
M  V30 176 C 17.8281 0.237721 1.93546 0
M  V30 177 O 17.0981 -0.740779 1.81354 0
M  V30 178 H 15.6781 0.575367 0.476405 0
M  V30 179 H 18.3401 1.84909 0.61602 0
M  V30 180 H 17.4361 2.34312 2.06165 0
M  V30 181 N 17.7372 -0.778329 1.37039 0
M  V30 182 C 18.9622 -1.57248 1.35233 0
M  V30 183 C 19.3872 -1.87999 -0.0615568 0
M  V30 184 O 18.7452 -1.48734 -1.03672 0
M  V30 185 C 18.7932 -2.86353 2.19167 0
M  V30 186 O 17.8972 -3.80442 1.59178 0
M  V30 187 H 17.2382 -0.476569 0.462362 0
M  V30 188 H 19.7682 -0.963853 1.80474 0
M  V30 189 H 19.7782 -3.35519 2.32145 0
M  V30 190 H 18.4532 -2.63299 3.21942 0
M  V30 191 H 17.0302 -3.39067 1.55203 0
M  V30 192 N 19.2153 -1.21501 -1.00376 0
M  V30 193 C 20.6313 -0.972629 -1.26539 0
M  V30 194 C 20.8313 0.340257 -1.98606 0
M  V30 195 O 19.8873 1.06561 -2.28913 0
M  V30 196 C 21.2003 -2.16404 -2.08781 0
M  V30 197 C 22.7483 -2.20643 -2.22004 0
M  V30 198 C 23.2233 -3.39306 -3.07629 0
M  V30 199 N 24.7143 -3.39401 -3.15217 0
M  V30 200 C 25.4493 -4.27867 -3.81729 0
M  V30 201 N 24.9453 -5.26533 -4.5026 0
M  V30 202 N 26.7383 -4.15672 -3.78382 0
M  V30 203 H 18.8893 -2.05929 -0.520281 0
M  V30 204 H 21.1523 -0.901803 -0.292328 0
M  V30 205 H 20.8583 -3.11554 -1.63178 0
M  V30 206 H 20.7323 -2.15567 -3.09533 0
M  V30 207 H 23.1193 -1.26048 -2.66825 0
M  V30 208 H 23.2003 -2.25523 -1.20718 0
M  V30 209 H 22.8443 -4.34195 -2.63509 0
M  V30 210 H 22.7743 -3.31665 -4.09031 0
M  V30 211 H 25.2653 -2.67997 -2.66432 0
M  V30 212 H 25.5783 -5.90337 -4.98721 0
M  V30 213 H 23.9233 -5.30457 -4.49044 0
M  V30 214 H 27.1143 -3.3785 -3.23998 0
M  V30 215 H 27.2873 -4.84825 -4.2994 0
M  V30 216 N 20.6934 1.19889 -1.02296 0
M  V30 217 C 22.1044 1.71124 -0.746568 0
M  V30 218 C 22.4554 1.81939 0.734335 0
M  V30 219 O 21.5804 1.48639 1.57275 0
M  V30 220 C 22.1754 3.10804 -1.34857 0
M  V30 221 C 20.7344 3.59323 -1.1209 0
M  V30 222 C 19.8814 2.3635 -1.45031 0
M  V30 223 H 22.8324 1.04813 -1.19163 0
M  V30 224 H 22.8534 3.73186 -0.742437 0
M  V30 225 H 22.3654 3.029 -2.42638 0
M  V30 226 H 20.4664 3.7255 -0.0610337 0
M  V30 227 H 20.5794 4.4378 -1.80544 0
M  V30 228 H 18.9434 2.39399 -0.869487 0
M  V30 229 H 19.7264 2.31081 -2.53883 0
M  V30 230 N 22.1715 0.800033 1.35784 0
M  V30 231 C 23.1185 0.203848 2.29898 0
M  V30 232 C 24.0885 -0.658375 1.52495 0
M  V30 233 O 25.2735 -0.604832 1.8096 0
M  V30 234 C 22.4135 -0.64688 3.38983 0
M  V30 235 C 21.5265 0.235054 4.3136 0
M  V30 236 C 20.6615 -0.623054 5.27533 0
M  V30 237 C 19.7005 0.259682 6.11549 0
M  V30 238 N 18.8375 -0.558019 6.99879 0
M  V30 239 H 23.6775 1.01186 2.80295 0
M  V30 240 H 21.2145 0.51053 1.37957 0
M  V30 241 H 23.1725 -1.15521 4.00887 0
M  V30 242 H 21.8025 -1.42021 2.89879 0
M  V30 243 H 20.8545 0.861438 3.70518 0
M  V30 244 H 22.1665 0.914768 4.9034 0
M  V30 245 H 21.3205 -1.19678 5.94779 0
M  V30 246 H 20.0595 -1.33636 4.69034 0
M  V30 247 H 19.0645 0.845726 5.43256 0
M  V30 248 H 20.2895 0.970748 6.72126 0
M  V30 249 H 18.2355 -1.25542 6.43875 0
M  V30 250 H 18.1525 0.0637872 7.55973 0
M  V30 251 H 19.4205 -1.11523 7.71481 0
M  V30 252 N 23.6496 -1.47581 0.552962 0
M  V30 253 C 24.8776 -2.06875 0.0320556 0
M  V30 254 C 25.2926 -1.40625 -1.25976 0
M  V30 255 O 24.6496 -0.501349 -1.75479 0
M  V30 256 C 24.7006 -3.61092 -0.17167 0
M  V30 257 O 24.4216 -4.24858 1.06899 0
M  V30 258 C 25.9226 -4.37242 -0.730344 0
M  V30 259 H 23.1426 -0.669561 0.043915 0
M  V30 260 H 25.6866 -1.89646 0.765163 0
M  V30 261 H 23.8416 -3.7785 -0.854894 0
M  V30 262 H 24.2556 -5.17334 0.864059 0
M  V30 263 H 25.7296 -5.45842 -0.822203 0
M  V30 264 H 26.2066 -4.03235 -1.74064 0
M  V30 265 H 26.8126 -4.25219 -0.0829543 0
M  V30 266 N 25.1277 -0.289203 -1.54924 0
M  V30 267 C 26.0747 0.592115 -2.23075 0
M  V30 268 C 27.0447 1.13881 -1.20915 0
M  V30 269 O 28.2297 1.18551 -1.495 0
M  V30 270 C 25.3697 1.76376 -2.96623 0
M  V30 271 C 24.4827 1.24959 -4.13533 0
M  V30 272 C 23.6177 2.38416 -4.74691 0
M  V30 273 C 22.6567 1.84072 -5.83767 0
M  V30 274 N 21.7937 2.91057 -6.38929 0
M  V30 275 H 26.6337 0.00432038 -2.98 0
M  V30 276 H 24.1707 -0.00963529 -1.47097 0
M  V30 277 H 26.1287 2.45268 -3.3749 0
M  V30 278 H 24.7587 2.32337 -2.24097 0
M  V30 279 H 23.8107 0.453307 -3.77689 0
M  V30 280 H 25.1227 0.811662 -4.92152 0
M  V30 281 H 24.2767 3.15276 -5.18349 0
M  V30 282 H 23.0157 2.8553 -3.95378 0
M  V30 283 H 22.0207 1.05697 -5.39545 0
M  V30 284 H 23.2457 1.37877 -6.64956 0
M  V30 285 H 21.1917 3.37526 -5.62505 0
M  V30 286 H 21.1087 2.51724 -7.12861 0
M  V30 287 H 22.3767 3.6785 -6.87246 0
M  V30 288 N 26.6058 1.57591 -0.0167156 0
M  V30 289 C 27.5358 2.12496 0.967858 0
M  V30 290 C 28.5168 1.03807 1.34752 0
M  V30 291 O 29.7018 1.31577 1.42833 0
M  V30 292 C 26.8318 2.64194 2.25431 0
M  V30 293 C 25.7858 3.77559 2.01576 0
M  V30 294 C 25.1118 4.15636 3.36379 0
M  V30 295 C 26.4118 5.04151 1.36489 0
M  V30 296 H 28.1058 2.95013 0.510643 0
M  V30 297 H 25.6518 1.41915 0.244181 0
M  V30 298 H 27.6048 3.01236 2.94678 0
M  V30 299 H 26.3288 1.78821 2.73296 0
M  V30 300 H 24.9878 3.40937 1.34751 0
M  V30 301 H 24.6358 3.27263 3.81979 0
M  V30 302 H 24.3358 4.92022 3.21229 0
M  V30 303 H 25.8598 4.5525 4.06915 0
M  V30 304 H 27.2738 5.38857 1.95718 0
M  V30 305 H 25.6708 5.85453 1.31776 0
M  V30 306 H 26.7408 4.83733 0.336219 0
M  V30 307 N 28.0839 -0.256276 1.55502 0
M  V30 308 C 29.3319 -0.983672 1.76545 0
M  V30 309 C 29.6529 -1.86206 0.578982 0
M  V30 310 O 28.9229 -1.91656 -0.405577 0
M  V30 311 H 27.5029 -0.366191 0.651086 0
M  V30 312 H 30.1649 -0.276479 1.92929 0
M  V30 313 H 29.2609 -1.61087 2.67315 0
M  V30 314 N 29.562 -1.4872 -0.521534 0
M  V30 315 C 30.81 -1.56857 -1.27437 0
M  V30 316 C 31.131 -0.247982 -1.93417 0
M  V30 317 O 30.401 0.731151 -1.81744 0
M  V30 318 H 28.981 -0.577885 -0.473347 0
M  V30 319 H 31.643 -1.85233 -0.606205 0
M  V30 320 H 30.739 -2.35402 -2.0492 0
M  V30 321 N 31.0401 0.771051 -1.3745 0
M  V30 322 C 32.2651 1.56529 -1.36065 0
M  V30 323 C 32.6901 1.88029 0.0515859 0
M  V30 324 O 32.0481 1.49282 1.02882 0
M  V30 325 C 32.0961 2.85187 -2.20683 0
M  V30 326 O 31.2001 3.79593 -1.61193 0
M  V30 327 H 30.5411 0.47411 -0.464883 0
M  V30 328 H 33.0711 0.954269 -1.80983 0
M  V30 329 H 33.0811 3.34283 -2.33921 0
M  V30 330 H 31.7561 2.61588 -3.23334 0
M  V30 331 H 30.3331 3.38239 -1.56999 0
M  V30 332 N 32.5182 1.22032 0.997298 0
M  V30 333 C 33.7432 1.06921 1.77715 0
M  V30 334 C 34.1682 -0.376226 1.84299 0
M  V30 335 O 33.5262 -1.27165 1.29223 0
M  V30 336 C 33.5742 1.67996 3.19076 0
M  V30 337 O 32.6782 0.930653 4.01762 0
M  V30 338 H 32.0192 0.375814 0.547412 0
M  V30 339 H 34.5492 1.61737 1.25309 0
M  V30 340 H 34.5592 1.72538 3.69723 0
M  V30 341 H 33.2342 2.73182 3.13599 0
M  V30 342 H 31.8112 0.960917 3.60307 0
M  V30 343 N 33.9963 -1.19345 1.0293 0
M  V30 344 C 34.9293 -2.21347 0.555029 0
M  V30 345 C 35.9073 -1.57492 -0.404351 0
M  V30 346 O 37.0913 -1.85741 -0.321352 0
M  V30 347 C 34.2183 -3.38163 -0.19064 0
M  V30 348 C 33.2643 -4.20375 0.720236 0
M  V30 349 S 34.0973 -4.88371 2.19668 0
M  V30 350 C 35.2533 -6.08597 1.46153 0
M  V30 351 H 35.4863 -2.61235 1.41929 0
M  V30 352 H 33.0193 -1.29598 0.839272 0
M  V30 353 H 34.9773 -4.05871 -0.614724 0
M  V30 354 H 33.6383 -2.9671 -1.03063 0
M  V30 355 H 32.8313 -5.03793 0.14455 0
M  V30 356 H 32.4333 -3.57987 1.08266 0
M  V30 357 H 34.7253 -6.73354 0.748357 0
M  V30 358 H 35.6683 -6.7065 2.27233 0
M  V30 359 H 36.0763 -5.56297 0.958842 0
M  V30 360 N 35.4744 -0.807222 -1.35358 0
M  V30 361 C 36.7224 -0.387122 -1.98358 0
M  V30 362 C 37.0434 1.04942 -1.64354 0
M  V30 363 O 36.3134 1.72615 -0.926339 0
M  V30 364 H 34.8934 -0.140154 -0.733734 0
M  V30 365 H 37.5554 -1.0332 -1.6526 0
M  V30 366 H 36.6514 -0.493352 -3.08176 0
M  V30 367 N 36.9525 1.47285 -0.560781 0
M  V30 368 C 38.2015 2.01668 -0.035895 0
M  V30 369 C 38.5145 1.44021 1.32353 0
M  V30 370 O 39.7205 1.90088 1.93853 0
M  V30 371 C 38.1765 3.59897 -0.0136659 0
M  V30 372 C 37.7845 4.26536 -1.37006 0
M  V30 373 C 39.5285 4.22017 0.458425 0
M  V30 374 C 37.4355 5.76782 -1.30675 0
M  V30 375 H 36.3655 0.753938 -0.00964879 0
M  V30 376 H 39.0165 1.69243 -0.709166 0
M  V30 377 H 37.3985 3.89301 0.725325 0
M  V30 378 H 38.5725 4.0877 -2.12705 0
M  V30 379 H 36.8875 3.76419 -1.78038 0
M  V30 380 H 39.4845 5.32124 0.524247 0
M  V30 381 H 39.8275 3.89437 1.4712 0
M  V30 382 H 40.3605 3.97159 -0.225818 0
M  V30 383 H 37.0995 6.13988 -2.29564 0
M  V30 384 H 36.6195 5.96875 -0.591622 0
M  V30 385 H 38.2985 6.39063 -1.01033 0
M  V30 386 N 38.4306 0.297415 1.54768 0
M  V30 387 C 39.6796 -0.313669 1.99246 0
M  V30 388 C 39.9926 -1.55281 1.18942 0
M  V30 389 O 41.1986 -2.23825 1.5367 0
M  V30 390 C 39.6546 -0.609407 3.54703 0
M  V30 391 C 39.2626 0.611192 4.43811 0
M  V30 392 C 41.0066 -1.18188 4.07715 0
M  V30 393 C 38.9136 0.288805 5.90694 0
M  V30 394 H 37.8436 -0.120979 0.744231 0
M  V30 395 H 40.4946 0.40556 1.78962 0
M  V30 396 H 38.8766 -1.38813 3.70873 0
M  V30 397 H 40.0506 1.3875 4.39414 0
M  V30 398 H 38.3656 1.10205 4.01552 0
M  V30 399 H 40.9626 -1.43727 5.15021 0
M  V30 400 H 41.3056 -2.12299 3.58099 0
M  V30 401 H 41.8386 -0.464944 3.95074 0
M  V30 402 H 38.5776 1.19838 6.44453 0
M  V30 403 H 38.0976 -0.450305 5.98107 0
M  V30 404 H 39.7766 -0.110933 6.46905 0
M  V30 405 N 39.9087 -1.5758 0.0250728 0
M  V30 406 C 41.3247 -1.56124 -0.331282 0
M  V30 407 C 41.5247 -1.03029 -1.73169 0
M  V30 408 O 40.5807 -0.675215 -2.43305 0
M  V30 409 C 41.8937 -3.00139 -0.183584 0
M  V30 410 C 43.4417 -3.11946 -0.256654 0
M  V30 411 C 43.9167 -4.57793 -0.137792 0
M  V30 412 N 45.4077 -4.6279 -0.194904 0
M  V30 413 C 46.1427 -5.7326 -0.126655 0
M  V30 414 N 45.6387 -6.928 -0.00755288 0
M  V30 415 N 47.4317 -5.61811 -0.180348 0
M  V30 416 H 39.5827 -1.90424 0.94087 0
M  V30 417 H 41.8457 -0.875761 0.362968 0
M  V30 418 H 41.5517 -3.4292 0.780927 0
M  V30 419 H 41.4257 -3.64899 -0.955448 0
M  V30 420 H 43.8127 -2.69079 -1.21162 0
M  V30 421 H 43.8937 -2.49915 0.545517 0
M  V30 422 H 43.5377 -5.01339 0.813739 0
M  V30 423 H 43.4677 -5.17798 -0.958775 0
M  V30 424 H 45.9587 -3.76807 -0.287267 0
M  V30 425 H 46.2717 -7.72791 0.0379428 0
M  V30 426 H 44.6167 -6.94995 0.0271731 0
M  V30 427 H 47.8077 -4.6731 -0.271767 0
M  V30 428 H 47.9807 -6.47882 -0.123697 0
M  V30 429 N 41.3868 0.248026 -1.55636 0
M  V30 430 C 42.6148 0.993808 -1.81469 0
M  V30 431 C 43.0298 1.78991 -0.60064 0
M  V30 432 O 42.3868 1.77345 0.430682 0
M  V30 433 C 42.4378 1.93258 -3.05506 0
M  V30 434 O 42.1588 1.16869 -4.22224 0
M  V30 435 C 43.6598 2.79444 -3.4413 0
M  V30 436 H 40.8798 0.292486 -0.603898 0
M  V30 437 H 43.4238 0.271253 -2.02693 0
M  V30 438 H 41.5788 2.60943 -2.86335 0
M  V30 439 H 41.9928 1.80359 -4.92515 0
M  V30 440 H 43.4668 3.41066 -4.34026 0
M  V30 441 H 43.9438 3.50499 -2.64665 0
M  V30 442 H 44.5498 2.17214 -3.65648 0
M  V30 443 N 42.8649 1.48995 0.513639 0
M  V30 444 C 44.1049 1.59452 1.27885 0
M  V30 445 C 44.4689 0.269479 1.90099 0
M  V30 446 O 45.6699 0.249139 2.67643 0
M  V30 447 C 43.9409 2.71277 2.32688 0
M  V30 448 S 45.4999 3.01604 3.18717 0
M  V30 449 H 42.3179 0.562565 0.434789 0
M  V30 450 H 44.9199 1.86595 0.583301 0
M  V30 451 H 43.6239 3.66089 1.8549 0
M  V30 452 H 43.1549 2.46086 3.06929 0
M  V30 453 H 45.1699 2.42155 4.331 0
M  V30 454 N 44.343 -0.763751 1.37857 0
M  V30 455 C 45.759 -1.06542 1.18832 0
M  V30 456 C 45.959 -2.01478 0.0299722 0
M  V30 457 O 45.015 -2.4458 -0.627447 0
M  V30 458 C 46.328 -1.65525 2.51042 0
M  V30 459 C 47.876 -1.77745 2.57635 0
M  V30 460 C 48.351 -2.4014 3.89996 0
M  V30 461 N 49.842 -2.47582 3.91481 0
M  V30 462 C 50.577 -2.96732 4.9065 0
M  V30 463 N 50.073 -3.45993 6.00217 0
M  V30 464 N 51.866 -2.95679 4.78048 0
M  V30 465 H 44.017 -0.133556 2.1198 0
M  V30 466 H 46.28 -0.121879 0.940133 0
M  V30 467 H 45.986 -1.03236 3.36207 0
M  V30 468 H 45.86 -2.64719 2.68707 0
M  V30 469 H 48.247 -2.39164 1.72872 0
M  V30 470 H 48.328 -0.772836 2.43846 0
M  V30 471 H 47.972 -1.79358 4.75177 0
M  V30 472 H 47.902 -3.41223 4.01092 0
M  V30 473 H 50.393 -2.1273 3.12337 0
M  V30 474 H 50.706 -3.81922 6.7183 0
M  V30 475 H 49.051 -3.44077 6.03851 0
M  V30 476 H 52.242 -2.56499 3.91568 0
M  V30 477 H 52.415 -3.33672 5.55488 0
M  V30 478 N 45.8211 -1.22559 -0.990812 0
M  V30 479 C 46.7511 -1.0218 -2.09956 0
M  V30 480 C 47.7321 0.0579394 -1.70001 0
M  V30 481 O 48.9171 -0.104684 -1.93918 0
M  V30 482 C 46.0471 -0.601023 -3.4206 0
M  V30 483 C 45.0011 -1.62694 -3.95872 0
M  V30 484 C 44.3271 -1.06193 -5.24049 0
M  V30 485 C 45.6271 -3.01743 -4.2632 0
M  V30 486 H 47.3211 -1.94916 -2.27262 0
M  V30 487 H 44.8671 -0.938566 -1.09211 0
M  V30 488 H 46.8201 -0.445561 -4.19038 0
M  V30 489 H 45.5441 0.362005 -3.24588 0
M  V30 490 H 44.2031 -1.77021 -3.21028 0
M  V30 491 H 43.8511 -0.0901903 -5.02919 0
M  V30 492 H 43.5511 -1.74732 -5.61019 0
M  V30 493 H 45.0751 -0.918092 -6.03658 0
M  V30 494 H 46.4891 -2.90777 -4.94087 0
M  V30 495 H 44.8861 -3.67425 -4.74467 0
M  V30 496 H 45.9561 -3.51518 -3.34011 0
M  V30 497 N 47.2992 1.18797 -1.03562 0
M  V30 498 C 48.5472 1.88278 -0.734569 0
M  V30 499 C 48.8682 1.8043 0.739586 0
M  V30 500 O 48.1382 1.21925 1.53333 0
M  V30 501 H 46.7182 0.696991 -0.268725 0
M  V30 502 H 49.3802 1.44192 -1.31129 0
M  V30 503 H 48.4762 2.94443 -1.03489 0
M  V30 504 N 48.7773 0.814389 1.34928 0
M  V30 505 C 50.1883 0.458364 1.80986 0
M  V30 506 C 50.5393 -1.02042 1.67577 0
M  V30 507 O 49.6643 -1.79352 1.21086 0
M  V30 508 C 50.2593 0.825212 3.28597 0
M  V30 509 C 48.8183 0.521677 3.72767 0
M  V30 510 C 47.9653 1.04668 2.56788 0
M  V30 511 H 50.9163 1.00533 1.22795 0
M  V30 512 H 50.9373 0.12571 3.80292 0
M  V30 513 H 50.4493 1.90154 3.38324 0
M  V30 514 H 48.5503 -0.545589 3.68584 0
M  V30 515 H 48.6633 1.05977 4.67232 0
M  V30 516 H 47.0273 0.468622 2.50352 0
M  V30 517 H 47.8103 2.12927 2.6929 0
M  V30 518 N 50.2554 -1.46986 0.568584 0
M  V30 519 C 51.5324 -1.95592 -0.0174074 0
M  V30 520 C 51.9124 -1.51124 -1.47393 0
M  V30 521 O 51.2604 -0.755329 -2.15655 0
M  V30 522 C 51.4704 -3.48719 0.139913 0
M  V30 523 C 52.8184 -4.246 0.000426376 0
M  V30 524 O 53.8424 -3.56135 0.0680316 0
M  V30 525 O 52.7014 -5.46302 -0.146988 0
M  V30 526 H 49.7954 -0.82498 -0.0577599 0
M  V30 527 H 52.3414 -1.57335 0.635909 0
M  V30 528 H 51.1134 -3.73927 1.15301 0
M  V30 529 H 50.7364 -3.93771 -0.550491 0
M  V30 530 N 51.7335 -0.305618 -1.54608 0
M  V30 531 C 52.6655 0.602161 -2.21149 0
M  V30 532 C 53.6785 1.09394 -1.20569 0
M  V30 533 O 54.8675 1.0106 -1.47136 0
M  V30 534 C 51.9675 1.83692 -2.84799 0
M  V30 535 C 51.1405 1.48686 -4.11353 0
M  V30 536 C 50.1995 2.57725 -4.58764 0
M  V30 537 O 49.2255 2.22623 -5.23858 0
M  V30 538 N 50.4275 3.88346 -4.31471 0
M  V30 539 H 53.1925 0.0324966 -2.99682 0
M  V30 540 H 50.7535 -0.128021 -1.61393 0
M  V30 541 H 52.7455 2.55994 -3.13448 0
M  V30 542 H 51.3155 2.31486 -2.10078 0
M  V30 543 H 50.5355 0.596269 -3.89664 0
M  V30 544 H 51.8235 1.22842 -4.93748 0
M  V30 545 H 51.2215 4.19671 -3.79331 0
M  V30 546 H 49.7785 4.56932 -4.64818 0
M  V30 547 N 53.2116 1.57565 -0.0334293 0
M  V30 548 C 54.4576 1.92262 0.645226 0
M  V30 549 C 54.7906 0.910543 1.71531 0
M  V30 550 O 54.0656 -0.066099 1.94388 0
M  V30 551 C 54.3486 3.37422 1.2577 0
M  V30 552 C 54.2016 4.49369 0.196891 0
M  V30 553 C 55.5206 3.82628 2.17449 0
M  V30 554 H 52.6396 0.699171 0.233085 0
M  V30 555 H 55.2816 1.89779 -0.0915694 0
M  V30 556 H 53.4316 3.39669 1.88566 0
M  V30 557 H 55.1036 4.59254 -0.433962 0
M  V30 558 H 53.3466 4.31168 -0.477137 0
M  V30 559 H 54.0176 5.47978 0.665124 0
M  V30 560 H 56.4936 3.82145 1.64634 0
M  V30 561 H 55.3696 4.84883 2.57254 0
M  V30 562 H 55.6306 3.18376 3.0674 0
M  V30 563 N 54.6897 -0.239769 1.55765 0
M  V30 564 C 55.6367 -1.29696 1.90913 0
M  V30 565 C 56.6067 -1.47478 0.764164 0
M  V30 566 O 57.7917 -1.61345 1.01845 0
M  V30 567 C 54.9317 -2.64598 2.21544 0
M  V30 568 C 54.0447 -2.54765 3.48882 0
M  V30 569 C 53.1797 -3.82069 3.69049 0
M  V30 570 C 52.2187 -3.66883 4.89963 0
M  V30 571 N 51.3557 -4.86094 5.06614 0
M  V30 572 H 56.1957 -0.990224 2.81067 0
M  V30 573 H 53.7327 -0.477684 1.39128 0
M  V30 574 H 55.6907 -3.43132 2.3731 0
M  V30 575 H 54.3207 -2.93405 1.34585 0
M  V30 576 H 53.3727 -1.67763 3.41409 0
M  V30 577 H 54.6847 -2.39457 4.37563 0
M  V30 578 H 53.8387 -4.69046 3.84812 0
M  V30 579 H 52.5777 -4.00282 2.78614 0
M  V30 580 H 51.5827 -2.78289 4.74168 0
M  V30 581 H 52.8077 -3.50157 5.81865 0
M  V30 582 H 50.7537 -5.04655 4.19117 0
M  V30 583 H 50.6707 -4.73443 5.89396 0
M  V30 584 H 51.9387 -5.74549 5.26795 0
M  V30 585 N 56.1678 -1.49265 -0.50573 0
M  V30 586 C 57.3928 -1.62478 -1.28902 0
M  V30 587 C 57.8178 -0.294332 -1.85783 0
M  V30 588 O 57.1758 0.737412 -1.65626 0
M  V30 589 C 57.2238 -2.69268 -2.39848 0
M  V30 590 O 56.3278 -2.28113 -3.43567 0
M  V30 591 H 55.6688 -0.54399 -0.380751 0
M  V30 592 H 58.1988 -1.95421 -0.605952 0
M  V30 593 H 58.2088 -2.91291 -2.85681 0
M  V30 594 H 56.8838 -3.65846 -1.97812 0
M  V30 595 H 55.4608 -2.16401 -3.03685 0
M  V30 596 N 57.6459 0.756429 -1.3826 0
M  V30 597 C 58.5789 1.87802 -1.29637 0
M  V30 598 C 59.5569 1.61667 -0.173939 0
M  V30 599 O 60.7409 1.85208 -0.350775 0
M  V30 600 C 57.8679 3.23354 -1.00797 0
M  V30 601 C 56.9139 3.68379 -2.14939 0
M  V30 602 S 57.7469 3.8025 -3.77054 0
M  V30 603 C 58.9029 5.18626 -3.50396 0
M  V30 604 H 59.1359 1.94829 -2.24564 0
M  V30 605 H 56.6689 0.919117 -1.24063 0
M  V30 606 H 58.6269 4.01637 -0.848413 0
M  V30 607 H 57.2879 3.14008 -0.0759369 0
M  V30 608 H 56.4809 4.66693 -1.90299 0
M  V30 609 H 56.0829 2.97242 -2.26988 0
M  V30 610 H 58.3749 6.04289 -3.06334 0
M  V30 611 H 59.3179 5.48286 -4.48094 0
M  V30 612 H 59.7259 4.87289 -2.84973 0
M  V30 613 N 59.124 1.23083 0.984299 0
M  V30 614 C 60.54 0.992637 1.24975 0
M  V30 615 C 60.74 -0.308618 1.99123 0
M  V30 616 O 59.796 -1.02905 2.30579 0
M  V30 617 C 61.109 2.19698 2.05312 0
M  V30 618 C 62.657 2.24147 2.18465 0
M  V30 619 C 63.132 3.44157 3.02192 0
M  V30 620 N 64.623 3.44372 3.09777 0
M  V30 621 C 65.358 4.33886 3.74874 0
M  V30 622 N 64.854 5.3363 4.41827 0
M  V30 623 N 66.647 4.21639 3.71721 0
M  V30 624 H 58.798 2.06731 0.487453 0
M  V30 625 H 61.061 0.906339 0.277944 0
M  V30 626 H 60.767 3.1411 1.58201 0
M  V30 627 H 60.641 2.20465 3.06064 0
M  V30 628 H 63.028 1.30277 2.64786 0
M  V30 629 H 63.109 2.27415 1.17115 0
M  V30 630 H 62.753 4.38332 2.56568 0
M  V30 631 H 62.683 3.3813 4.03702 0
M  V30 632 H 65.174 2.72201 2.62135 0
M  V30 633 H 65.487 5.98196 4.89266 0
M  V30 634 H 63.832 5.37534 4.40548 0
M  V30 635 H 67.023 3.42962 3.18582 0
M  V30 636 H 67.196 4.91604 4.22173 0
M  V30 637 N 60.6021 -1.18246 1.0419 0
M  V30 638 C 61.5651 -2.20128 0.638452 0
M  V30 639 C 62.5651 -1.57885 -0.304805 0
M  V30 640 O 63.7551 -1.73967 -0.0900369 0
M  V30 641 C 60.8871 -3.4084 -0.0637751 0
M  V30 642 H 62.0801 -2.57336 1.54007 0
M  V30 643 H 59.6331 -1.32152 0.834598 0
M  V30 644 H 60.3681 -3.09166 -0.979136 0
M  V30 645 H 60.1531 -3.8726 0.614198 0
M  V30 646 H 61.6431 -4.16274 -0.332512 0
M  V30 647 N 62.0802 -0.821533 -1.34494 0
M  V30 648 C 63.0432 -0.247847 -2.27856 0
M  V30 649 C 64.0432 0.573453 -1.50227 0
M  V30 650 O 65.2332 0.389759 -1.69784 0
M  V30 651 C 62.3652 0.652698 -3.34593 0
M  V30 652 H 63.5582 -1.07146 -2.80107 0
M  V30 653 H 61.1112 -0.593291 -1.44602 0
M  V30 654 H 61.8462 1.49943 -2.87555 0
M  V30 655 H 61.6312 0.065292 -3.92046 0
M  V30 656 H 63.1212 1.04793 -4.04238 0
M  V30 657 N 63.5583 1.46682 -0.576371 0
M  V30 658 C 64.4883 2.33028 0.148397 0
M  V30 659 C 65.4693 1.44961 0.889956 0
M  V30 660 O 66.6543 1.73789 0.866662 0
M  V30 661 C 63.7843 3.27117 1.1667 0
M  V30 662 C 62.7383 4.24575 0.540386 0
M  V30 663 C 62.0643 5.08126 1.6647 0
M  V30 664 C 63.3643 5.19722 -0.518331 0
M  V30 665 H 65.0583 2.93875 -0.572509 0
M  V30 666 H 62.6043 1.41315 -0.276768 0
M  V30 667 H 64.5573 3.86374 1.68204 0
M  V30 668 H 63.2813 2.64364 1.9178 0
M  V30 669 H 61.9403 3.66571 0.0461769 0
M  V30 670 H 61.5883 4.41762 2.40531 0
M  V30 671 H 61.2883 5.74122 1.25131 0
M  V30 672 H 62.8123 5.70246 2.18293 0
M  V30 673 H 64.2263 5.73232 -0.0883058 0
M  V30 674 H 62.6233 5.94026 -0.851679 0
M  V30 675 H 63.6933 4.64037 -1.40703 0
M  V30 676 N 65.0364 0.313813 1.54444 0
M  V30 677 C 66.3134 -0.345447 1.92525 0
M  V30 678 C 66.6934 -1.70667 1.24242 0
M  V30 679 O 66.0414 -2.25273 0.382654 0
M  V30 680 C 66.2514 -0.44737 3.46121 0
M  V30 681 C 67.5994 -0.712238 4.18584 0
M  V30 682 O 68.6234 -0.530678 3.52225 0
M  V30 683 O 67.4824 -1.06183 5.36085 0
M  V30 684 H 64.5764 -0.195407 0.803583 0
M  V30 685 H 67.1224 0.362813 1.65776 0
M  V30 686 H 65.8944 0.509043 3.87975 0
M  V30 687 H 65.5174 -1.20359 3.78945 0
M  V30 688 N 66.5145 -1.57545 0.0417849 0
M  V30 689 C 67.4445 -2.14009 -0.933929 0
M  V30 690 C 68.4255 -1.05938 -1.33083 0
M  V30 691 O 69.6105 -1.33833 -1.40721 0
M  V30 692 C 66.7405 -2.67747 -2.21199 0
M  V30 693 C 65.6945 -3.80718 -1.95544 0
M  V30 694 C 65.0205 -4.20935 -3.29724 0
M  V30 695 C 66.3205 -5.06258 -1.28452 0
M  V30 696 H 68.0145 -2.95788 -0.463645 0
M  V30 697 H 65.5605 -1.42285 -0.221573 0
M  V30 698 H 67.5135 -3.05886 -2.89848 0
M  V30 699 H 66.2375 -1.83147 -2.70416 0
M  V30 700 H 64.8965 -3.43037 -1.2931 0
M  V30 701 H 64.5445 -3.33298 -3.76724 0
M  V30 702 H 64.2445 -4.9707 -3.13361 0
M  V30 703 H 65.7685 -4.61666 -3.9962 0
M  V30 704 H 67.1825 -5.41903 -1.8712 0
M  V30 705 H 65.5795 -5.87475 -1.22445 0
M  V30 706 H 66.6495 -4.84207 -0.259219 0
M  V30 707 N 67.9926 0.231505 -1.5589 0
M  V30 708 C 69.2396 0.957352 -1.78441 0
M  V30 709 C 69.5676 1.84726 -0.60882 0
M  V30 710 O 68.8226 1.91416 0.40725 0
M  V30 711 C 69.1216 1.83577 -3.0665 0
M  V30 712 C 68.7876 1.09993 -4.37278 0
M  V30 713 C 67.4496 0.896629 -4.72773 0
M  V30 714 C 69.8016 0.579558 -5.17968 0
M  V30 715 C 67.1296 0.160896 -5.86479 0
M  V30 716 C 69.4816 -0.142783 -6.32439 0
M  V30 717 C 68.1456 -0.357427 -6.66542 0
M  V30 718 H 67.4156 0.35032 -0.65296 0
M  V30 719 H 70.0626 0.226259 -1.90159 0
M  V30 720 H 68.3676 2.63441 -2.90011 0
M  V30 721 H 70.0646 2.39934 -3.21298 0
M  V30 722 H 66.6546 1.26835 -4.09403 0
M  V30 723 H 70.8386 0.724125 -4.90989 0
M  V30 724 H 66.0946 -0.0157293 -6.11398 0
M  V30 725 H 70.2686 -0.553559 -6.94196 0
M  V30 726 H 67.8956 -0.929466 -7.54497 0
M  V30 727 N 69.4707 1.49531 0.497807 0
M  V30 728 C 70.7187 1.58865 1.24926 0
M  V30 729 C 71.0397 0.278721 1.92998 0
M  V30 730 O 70.3097 -0.702144 1.82885 0
M  V30 731 H 68.8897 0.585343 0.464094 0
M  V30 732 H 71.5517 1.86174 0.57666 0
M  V30 733 H 70.6477 2.38633 2.01149 0
M  V30 734 N 70.9488 -0.749086 1.3866 0
M  V30 735 C 72.3648 -1.05276 1.19955 0
M  V30 736 C 72.5648 -2.01435 0.05134 0
M  V30 737 O 71.6208 -2.45232 -0.60147 0
M  V30 738 C 72.9338 -1.62853 2.52783 0
M  V30 739 C 74.4818 -1.75002 2.59506 0
M  V30 740 C 74.9568 -2.35991 3.92521 0
M  V30 741 N 76.4478 -2.43416 3.94085 0
M  V30 742 C 77.1828 -2.91511 4.9377 0
M  V30 743 N 76.6788 -3.39608 6.03853 0
M  V30 744 N 78.4718 -2.90592 4.81157 0
M  V30 745 H 70.6228 -0.111066 2.12109 0
M  V30 746 H 72.8858 -0.111901 0.941373 0
M  V30 747 H 72.5918 -0.99664 3.37283 0
M  V30 748 H 72.4658 -2.61854 2.715 0
M  V30 749 H 74.8528 -2.37317 1.75398 0
M  V30 750 H 74.9338 -0.74693 2.44652 0
M  V30 751 H 74.5778 -1.74308 4.77053 0
M  V30 752 H 74.5078 -3.3695 4.04688 0
M  V30 753 H 76.9988 -2.09405 3.14576 0
M  V30 754 H 77.3118 -3.74775 6.75843 0
M  V30 755 H 75.6568 -3.37653 6.07466 0
M  V30 756 H 78.8478 -2.52332 3.94267 0
M  V30 757 H 79.0208 -3.27762 5.58996 0
M  V30 758 N 72.4269 -1.23603 -0.977757 0
M  V30 759 C 73.3369 -1.03632 -2.1047 0
M  V30 760 C 74.3529 0.0199435 -1.73989 0
M  V30 761 O 75.5289 -0.176076 -2.00629 0
M  V30 762 C 72.5939 -0.63276 -3.40877 0
M  V30 763 C 71.6549 -1.76437 -3.91367 0
M  V30 764 C 70.8879 -1.37997 -5.15551 0
M  V30 765 O 71.1109 -0.265357 -5.69782 0
M  V30 766 O 70.0449 -2.20201 -5.60174 0
M  V30 767 H 73.8709 -1.98086 -2.30208 0
M  V30 768 H 71.4559 -1.02332 -1.08851 0
M  V30 769 H 73.3379 -0.418761 -4.19314 0
M  V30 770 H 72.0129 0.282754 -3.22463 0
M  V30 771 H 70.9199 -2.03304 -3.14036 0
M  V30 772 H 72.2529 -2.6583 -4.14241 0
M  V30 773 N 73.905 1.17692 -1.04816 0
M  V30 774 C 75.152 1.87859 -0.75599 0
M  V30 775 C 75.48 1.80812 0.716752 0
M  V30 776 O 74.735 1.20819 1.53952 0
M  V30 777 C 75.034 3.37462 -1.17703 0
M  V30 778 C 74.7 3.64713 -2.65133 0
M  V30 779 C 73.362 3.71859 -3.05408 0
M  V30 780 C 75.714 3.76492 -3.60421 0
M  V30 781 C 73.042 3.88271 -4.39843 0
M  V30 782 C 75.394 3.94421 -4.94585 0
M  V30 783 C 74.058 3.99806 -5.3452 0
M  V30 784 H 73.328 0.687425 -0.276636 0
M  V30 785 H 75.975 1.39255 -1.31455 0
M  V30 786 H 74.28 3.88097 -0.537395 0
M  V30 787 H 75.977 3.90109 -0.928218 0
M  V30 788 H 72.567 3.59772 -2.32942 0
M  V30 789 H 76.751 3.70295 -3.30447 0
M  V30 790 H 72.007 3.90687 -4.70291 0
M  V30 791 H 76.181 4.02477 -5.68318 0
M  V30 792 H 73.808 4.12276 -6.38696 0
M  V30 793 N 75.3831 0.828654 1.34056 0
M  V30 794 C 76.6311 0.41863 1.97717 0
M  V30 795 C 76.9521 -1.02314 1.66002 0
M  V30 796 O 76.2221 -1.71119 0.953683 0
M  V30 797 H 74.8021 0.151809 0.731412 0
M  V30 798 H 77.4641 1.05936 1.63596 0
M  V30 799 H 76.5601 0.542318 3.07352 0
M  V30 800 N 76.8612 -1.46375 0.584142 0
M  V30 801 C 78.1382 -1.956 0.0033388 0
M  V30 802 C 78.5182 -1.52679 -1.45782 0
M  V30 803 O 77.8662 -0.77816 -2.14842 0
M  V30 804 C 78.0762 -3.48551 0.176891 0
M  V30 805 C 79.4242 -4.24576 0.0454609 0
M  V30 806 O 80.4482 -3.56043 0.105801 0
M  V30 807 O 79.3072 -5.46427 -0.0890376 0
M  V30 808 H 76.4012 -0.825547 -0.0490066 0
M  V30 809 H 78.9472 -1.56652 0.65256 0
M  V30 810 H 77.7192 -3.72683 1.1926 0
M  V30 811 H 77.3422 -3.94332 -0.508695 0
M  V30 812 N 78.3393 -0.321999 -1.54275 0
M  V30 813 C 79.5853 0.281461 -2.00837 0
M  V30 814 C 79.9183 1.51909 -1.20985 0
M  V30 815 O 79.1933 1.923 -0.291733 0
M  V30 816 C 79.4763 0.617162 -3.54772 0
M  V30 817 C 79.3293 -0.631064 -4.45351 0
M  V30 818 C 80.6483 1.43542 -4.16033 0
M  V30 819 H 77.7673 0.100826 -0.730071 0
M  V30 820 H 80.4093 -0.438268 -1.84876 0
M  V30 821 H 78.5593 1.23034 -3.68504 0
M  V30 822 H 80.2313 -1.26934 -4.43492 0
M  V30 823 H 78.4743 -1.26025 -4.15091 0
M  V30 824 H 79.1453 -0.351735 -5.50878 0
M  V30 825 H 81.6213 0.917134 -4.05867 0
M  V30 826 H 80.4973 1.63907 -5.23856 0
M  V30 827 H 80.7583 2.43108 -3.69257 0
M  V30 828 N 79.8174 1.5752 -0.0501392 0
M  V30 829 C 80.7804 2.1037 0.909786 0
M  V30 830 C 81.7804 1.02308 1.24056 0
M  V30 831 O 82.9704 1.28385 1.17741 0
M  V30 832 C 80.1024 2.58708 2.21998 0
M  V30 833 H 81.2954 2.96479 0.451665 0
M  V30 834 H 78.8484 1.55038 0.198248 0
M  V30 835 H 79.5834 1.75989 2.72394 0
M  V30 836 H 79.3684 3.37675 1.99295 0
M  V30 837 H 80.8584 2.99747 2.9076 0
M  V30 838 N 81.2955 -0.223234 1.56011 0
M  V30 839 C 82.5235 -0.964812 1.83027 0
M  V30 840 C 82.9385 -1.78013 0.62904 0
M  V30 841 O 82.2955 -1.78008 -0.402414 0
M  V30 842 C 82.3465 -1.88373 3.08542 0
M  V30 843 O 82.0675 -1.10137 4.2403 0
M  V30 844 C 83.5685 -2.73934 3.48533 0
M  V30 845 H 80.7885 -0.282842 0.608475 0
M  V30 846 H 83.3325 -0.238971 2.03099 0
M  V30 847 H 81.4875 -2.56354 2.9045 0
M  V30 848 H 81.9015 -1.72501 4.95322 0
M  V30 849 H 83.3755 -3.34117 4.39397 0
M  V30 850 H 83.8525 -3.46244 2.70207 0
M  V30 851 H 84.4585 -2.11369 3.69057 0
M  V30 852 N 82.7736 -1.49793 -0.48987 0
M  V30 853 C 84.0036 -1.6333 -1.26518 0
M  V30 854 C 84.4116 -0.308392 -1.8667 0
M  V30 855 O 83.7546 0.717512 -1.69108 0
M  V30 856 C 83.8166 -2.6522 -2.4269 0
M  V30 857 C 83.4806 -4.09279 -2.03321 0
M  V30 858 C 84.4776 -4.95738 -1.56652 0
M  V30 859 C 82.1626 -4.55082 -2.12616 0
M  V30 860 C 84.1566 -6.26041 -1.19795 0
M  V30 861 C 81.8436 -5.85396 -1.75371 0
M  V30 862 C 82.8416 -6.707 -1.29036 0
M  V30 863 O 82.5296 -7.98584 -0.92299 0
M  V30 864 H 82.2616 -0.552502 -0.389509 0
M  V30 865 H 84.8156 -1.96642 -0.593381 0
M  V30 866 H 83.0456 -2.27112 -3.12981 0
M  V30 867 H 84.7346 -2.68171 -3.04695 0
M  V30 868 H 85.5006 -4.61575 -1.48908 0
M  V30 869 H 81.3796 -3.88844 -2.47631 0
M  V30 870 H 84.9236 -6.92578 -0.835582 0
M  V30 871 H 80.8206 -6.19085 -1.82768 0
M  V30 872 H 81.5886 -8.11692 -1.05349 0
M  V30 873 N 84.2517 0.741722 -1.39055 0
M  V30 874 C 85.4767 1.53607 -1.39354 0
M  V30 875 C 85.9017 1.88096 0.0116905 0
M  V30 876 O 85.2597 1.5143 0.996924 0
M  V30 877 C 85.3077 2.80441 -2.26682 0
M  V30 878 O 84.4117 3.76088 -1.69208 0
M  V30 879 H 83.7527 0.464142 -0.474835 0
M  V30 880 H 86.2827 0.915665 -1.82967 0
M  V30 881 H 86.2927 3.29246 -2.40959 0
M  V30 882 H 84.9677 2.5467 -3.2881 0
M  V30 883 H 83.5447 3.34833 -1.64138 0
M  V30 884 N 85.7298 1.2412 0.971189 0
M  V30 885 C 86.6618 0.988349 2.06795 0
M  V30 886 C 87.6748 -0.0409541 1.62748 0
M  V30 887 O 88.8638 0.195673 1.77424 0
M  V30 888 C 85.9638 0.469023 3.35639 0
M  V30 889 C 85.1368 1.56065 4.08611 0
M  V30 890 C 84.1958 1.04458 5.15728 0
M  V30 891 O 83.2218 1.73553 5.42096 0
M  V30 892 N 84.4238 -0.122817 5.8037 0
M  V30 893 H 87.1888 1.93265 2.29061 0
M  V30 894 H 84.7498 1.15102 1.13856 0
M  V30 895 H 86.7418 0.108613 4.04554 0
M  V30 896 H 85.3118 -0.380919 3.1027 0
M  V30 897 H 84.5318 2.09341 3.34021 0
M  V30 898 H 85.8198 2.29449 4.54126 0
M  V30 899 H 85.2178 -0.700563 5.61345 0
M  V30 900 H 83.7748 -0.424404 6.50417 0
M  V30 901 N 87.2079 -1.17134 1.05439 0
M  V30 902 C 88.1579 -2.1919 0.627675 0
M  V30 903 C 89.1419 -1.57328 -0.337147 0
M  V30 904 O 90.3339 -1.76329 -0.153976 0
M  V30 905 C 87.4629 -3.43299 0.00651435 0
M  V30 906 C 86.5489 -4.12255 0.995312 0
M  V30 907 N 86.9399 -4.56997 2.16765 0
M  V30 908 C 85.2379 -4.38316 0.824336 0
M  V30 909 C 85.9389 -5.10239 2.7934 0
M  V30 910 N 84.9149 -5.02595 2.07122 0
M  V30 911 H 88.7169 -2.5149 1.52086 0
M  V30 912 H 86.2309 -1.33491 0.924868 0
M  V30 913 H 88.2279 -4.15693 -0.316965 0
M  V30 914 H 86.8879 -3.1249 -0.882033 0
M  V30 915 H 87.8989 -4.51006 2.54587 0
M  V30 916 H 84.5759 -4.17498 -0.0129526 0
M  V30 917 H 85.9659 -5.54961 3.78772 0
M  V30 918 N 88.686 -0.835752 -1.33615 0
M  V30 919 C 89.618 -0.224151 -2.28101 0
M  V30 920 C 90.631 0.593331 -1.51603 0
M  V30 921 O 91.82 0.420911 -1.73466 0
M  V30 922 C 88.92 0.703309 -3.31522 0
M  V30 923 C 88.093 -0.0741528 -4.37337 0
M  V30 924 C 87.152 0.776176 -5.20444 0
M  V30 925 O 86.178 0.216506 -5.68788 0
M  V30 926 N 87.38 2.09401 -5.41416 0
M  V30 927 H 90.145 -1.03598 -2.81225 0
M  V30 928 H 87.706 -0.69392 -1.46275 0
M  V30 929 H 89.698 1.27707 -3.84022 0
M  V30 930 H 88.268 1.41585 -2.78698 0
M  V30 931 H 87.488 -0.82928 -3.85378 0
M  V30 932 H 88.776 -0.608863 -5.05144 0
M  V30 933 H 88.174 2.57229 -5.03835 0
M  V30 934 H 86.731 2.61633 -5.96985 0
M  V30 935 N 90.1641 1.46063 -0.591896 0
M  V30 936 C 91.5751 1.85944 -0.167822 0
M  V30 937 C 91.9261 1.49429 1.27143 0
M  V30 938 O 91.0511 0.913515 1.96173 0
M  V30 939 C 91.6461 3.37489 -0.297794 0
M  V30 940 C 90.2051 3.76332 0.0714732 0
M  V30 941 C 89.3521 2.7006 -0.629509 0
M  V30 942 H 92.3031 1.37087 -0.799555 0
M  V30 943 H 92.3241 3.77532 0.474349 0
M  V30 944 H 91.8361 3.64034 -1.3454 0
M  V30 945 H 89.9371 3.55405 1.11886 0
M  V30 946 H 90.0501 4.78088 -0.311245 0
M  V30 947 H 88.4141 2.54607 -0.0687867 0
M  V30 948 H 89.1971 2.99444 -1.67894 0
M  V30 949 N 91.6422 0.330177 1.54103 0
M  V30 950 C 92.9192 -0.325007 1.92881 0
M  V30 951 C 93.2992 -1.6934 1.26045 0
M  V30 952 O 92.6472 -2.24855 0.406526 0
M  V30 953 C 92.8572 -0.410634 3.46576 0
M  V30 954 C 94.2052 -0.667801 4.19316 0
M  V30 955 O 95.2292 -0.49329 3.52768 0
M  V30 956 O 94.0882 -1.00491 5.37181 0
M  V30 957 H 91.1822 -0.186873 0.80561 0
M  V30 958 H 93.7282 0.380376 1.65382 0
M  V30 959 H 92.5002 0.550164 3.87413 0
M  V30 960 H 92.1232 -1.16333 3.802 0
M  V30 961 N 93.1203 -1.57491 0.0584922 0
M  V30 962 C 94.3453 -1.97711 -0.62652 0
M  V30 963 C 94.7703 -0.936132 -1.63151 0
M  V30 964 O 94.1283 0.099811 -1.81025 0
M  V30 965 C 94.1763 -3.36989 -1.28338 0
M  V30 966 O 93.2803 -3.35433 -2.39913 0
M  V30 967 H 92.6213 -0.643868 -0.162266 0
M  V30 968 H 95.1513 -2.04193 0.129064 0
M  V30 969 H 95.1613 -3.73879 -1.63335 0
M  V30 970 H 93.8363 -4.12289 -0.546889 0
M  V30 971 H 92.4133 -3.10298 -2.06809 0
M  V30 972 N 94.5984 0.214957 -1.56127 0
M  V30 973 C 95.8754 0.963093 -1.70247 0
M  V30 974 C 96.2554 2.02166 -0.60764 0
M  V30 975 O 95.6034 2.25244 0.384385 0
M  V30 976 C 95.8134 1.56756 -3.11815 0
M  V30 977 C 97.1614 2.0573 -3.7143 0
M  V30 978 O 98.1854 1.66637 -3.14818 0
M  V30 979 O 97.0444 2.77603 -4.70743 0
M  V30 980 H 94.1384 0.450321 -0.693643 0
M  V30 981 H 96.6844 0.206219 -1.68442 0
M  V30 982 H 95.4564 0.803533 -3.82961 0
M  V30 983 H 95.0794 2.3898 -3.17765 0
M  V30 984 N 96.0765 1.50051 0.48192 0
M  V30 985 C 97.3065 1.63999 1.2565 0
M  V30 986 C 97.7145 0.318288 1.86504 0
M  V30 987 O 97.0575 -0.708534 1.69486 0
M  V30 988 C 97.1195 2.66504 2.4128 0
M  V30 989 C 96.7835 4.10352 2.01148 0
M  V30 990 C 97.7805 4.96562 1.54021 0
M  V30 991 C 95.4655 4.56203 2.10199 0
M  V30 992 C 97.4595 6.26668 1.16473 0
M  V30 993 C 95.1465 5.86318 1.72264 0
M  V30 994 C 96.1445 6.71375 1.25477 0
M  V30 995 O 95.8325 7.99062 0.880626 0
M  V30 996 H 95.5645 0.55456 0.386574 0
M  V30 997 H 98.1185 1.96954 0.582944 0
M  V30 998 H 96.3485 2.28769 3.11772 0
M  V30 999 H 98.0375 2.69783 3.03268 0
M  V30 1000 H 98.8035 4.62358 1.46458 0
M  V30 1001 H 94.6825 3.90152 2.45566 0
M  V30 1002 H 98.2265 6.93011 0.798841 0
M  V30 1003 H 94.1235 6.20046 1.79482 0
M  V30 1004 H 94.8915 8.12239 1.01043 0
M  V30 1005 N 97.5546 -0.734337 1.39446 0
M  V30 1006 C 98.4846 -1.86155 1.40955 0
M  V30 1007 C 99.4656 -1.67898 0.272827 0
M  V30 1008 O 100.651 -1.88207 0.478743 0
M  V30 1009 C 97.7806 -3.23912 1.25294 0
M  V30 1010 C 96.7346 -3.56808 2.36373 0
M  V30 1011 C 96.0606 -4.93508 2.058 0
M  V30 1012 C 97.3606 -3.59713 3.78687 0
M  V30 1013 H 99.0546 -1.8515 2.35287 0
M  V30 1014 H 96.6006 -0.889367 1.13253 0
M  V30 1015 H 98.5536 -4.02443 1.2497 0
M  V30 1016 H 97.2776 -3.25446 0.274308 0
M  V30 1017 H 95.9366 -2.80606 2.35914 0
M  V30 1018 H 95.5846 -4.91623 1.06374 0
M  V30 1019 H 95.2846 -5.16486 2.80208 0
M  V30 1020 H 96.8086 -5.74396 2.07128 0
M  V30 1021 H 98.2226 -4.2832 3.81071 0
M  V30 1022 H 96.6196 -3.94209 4.52459 0
M  V30 1023 H 97.6896 -2.59504 4.09617 0
M  V30 1024 N 99.0327 -1.24633 -0.964593 0
M  V30 1025 C 100.281 -1.08573 -1.70459 0
M  V30 1026 C 100.602 0.375655 -1.91347 0
M  V30 1027 O 99.8717 1.26779 -1.49345 0
M  V30 1028 H 98.4517 -0.398784 -0.631649 0
M  V30 1029 H 101.114 -1.56601 -1.16026 0
M  V30 1030 H 100.21 -1.58623 -2.68785 0
M  V30 1031 N 100.511 1.16574 -1.06058 0
M  V30 1032 C 101.459 2.22941 -0.663343 0
M  V30 1033 C 102.453 1.66358 0.319593 0
M  V30 1034 O 103.659 1.7905 0.184713 0
M  V30 1035 H 100.034 0.725907 -0.196376 0
M  V30 1036 H 102.005 2.53736 -1.57037 0
M  V30 1037 C 100.754 3.47642 -0.0632808 0
M  V30 1038 H 100.077 3.91493 -0.810733 0
M  V30 1039 H 101.517 4.2363 0.177177 0
M  V30 1040 C 99.9758 3.1509 1.19248 0
M  V30 1041 O 100.506 3.30673 2.28075 0
M  V30 1042 N 98.7118 2.6924 1.09353 0
M  V30 1043 H 98.2588 2.5676 0.207912 0
M  V30 1044 H 98.2168 2.47833 1.93458 0
M  V30 1045 N 101.989 0.842826 1.3317 0
M  V30 1046 C 102.919 0.294028 2.31641 0
M  V30 1047 C 103.9 -0.600401 1.59151 0
M  V30 1048 O 105.085 -0.523124 1.87022 0
M  V30 1049 C 102.215 -0.528416 3.43257 0
M  V30 1050 C 101.169 0.27056 4.27144 0
M  V30 1051 C 100.495 -0.675881 5.30411 0
M  V30 1052 C 101.795 1.48981 5.00602 0
M  V30 1053 H 103.489 1.11681 2.77791 0
M  V30 1054 H 101.035 0.538478 1.33553 0
M  V30 1055 H 102.988 -0.922674 4.11175 0
M  V30 1056 H 101.712 -1.38445 2.95805 0
M  V30 1057 H 100.371 0.646427 3.60856 0
M  V30 1058 H 100.019 -1.52842 4.79216 0
M  V30 1059 H 99.7189 -0.145374 5.8742 0
M  V30 1060 H 101.243 -1.06757 6.01195 0
M  V30 1061 H 102.657 1.16849 5.61266 0
M  V30 1062 H 101.054 1.95739 5.6728 0
M  V30 1063 H 102.124 2.25746 4.29147 0
M  V30 1064 N 103.467 -1.45747 0.599634 0
M  V30 1065 C 104.397 -2.33235 -0.111306 0
M  V30 1066 C 105.378 -1.46359 -0.866781 0
M  V30 1067 O 106.563 -1.75146 -0.838904 0
M  V30 1068 C 103.693 -3.28932 -1.11451 0
M  V30 1069 C 102.647 -4.25381 -0.472772 0
M  V30 1070 C 101.973 -5.1071 -1.58365 0
M  V30 1071 C 103.273 -5.18831 0.600948 0
M  V30 1072 H 104.967 -2.92927 0.61919 0
M  V30 1073 H 102.513 -1.40857 0.299215 0
M  V30 1074 H 104.466 -3.89002 -1.62036 0
M  V30 1075 H 103.19 -2.67381 -1.8755 0
M  V30 1076 H 101.849 -3.66598 0.0121472 0
M  V30 1077 H 101.497 -4.45533 -2.33473 0
M  V30 1078 H 101.197 -5.7604 -1.15982 0
M  V30 1079 H 102.721 -5.73647 -2.09194 0
M  V30 1080 H 104.135 -5.73019 0.179491 0
M  V30 1081 H 102.532 -5.92595 0.946076 0
M  V30 1082 H 103.602 -4.6174 1.48068 0
M  V30 1083 N 104.945 -0.338344 -1.53925 0
M  V30 1084 C 106.361 0.0137736 -1.59594 0
M  V30 1085 C 106.561 1.49186 -1.35447 0
M  V30 1086 O 105.617 2.24987 -1.14616 0
M  V30 1087 C 106.93 -0.41773 -2.97784 0
M  V30 1088 C 108.478 -0.369633 -3.1081 0
M  V30 1089 C 108.953 -0.776524 -4.51369 0
M  V30 1090 N 110.444 -0.730506 -4.57403 0
M  V30 1091 C 111.179 -1.01736 -5.64303 0
M  V30 1092 N 110.675 -1.3721 -6.79077 0
M  V30 1093 N 112.468 -0.941942 -5.54151 0
M  V30 1094 H 104.619 -1.3012 -1.67876 0
M  V30 1095 H 106.882 -0.530082 -0.78595 0
M  V30 1096 H 106.588 -1.44811 -3.20504 0
M  V30 1097 H 106.462 0.209729 -3.76616 0
M  V30 1098 H 108.849 0.651568 -2.87817 0
M  V30 1099 H 108.93 -1.03223 -2.34049 0
M  V30 1100 H 108.574 -1.79571 -4.75096 0
M  V30 1101 H 108.504 -0.0914649 -5.26521 0
M  V30 1102 H 110.995 -0.468783 -3.74981 0
M  V30 1103 H 111.308 -1.57597 -7.5656 0
M  V30 1104 H 109.653 -1.4105 -6.80536 0
M  V30 1105 H 112.844 -0.664184 -4.63364 0
M  V30 1106 H 113.017 -1.16884 -6.37371 0
M  V30 1107 N 106.423 1.57458 -0.0668435 0
M  V30 1108 C 107.648 1.9804 0.616027 0
M  V30 1109 C 108.073 0.944771 1.62652 0
M  V30 1110 O 107.431 -0.0902094 1.81075 0
M  V30 1111 C 107.479 3.37665 1.26549 0
M  V30 1112 O 106.583 3.36701 2.38131 0
M  V30 1113 H 105.924 0.644719 0.158849 0
M  V30 1114 H 108.454 2.04121 -0.139891 0
M  V30 1115 H 108.464 3.7474 1.6135 0
M  V30 1116 H 107.139 4.12573 0.525016 0
M  V30 1117 H 105.716 3.1139 2.0516 0
M  V30 1118 N 107.901 -0.206675 1.56239 0
M  V30 1119 C 108.848 -1.25617 1.93621 0
M  V30 1120 C 109.818 -1.45824 0.795274 0
M  V30 1121 O 111.003 -1.59148 1.05245 0
M  V30 1122 C 108.143 -2.59839 2.27107 0
M  V30 1123 C 107.256 -2.47308 3.54207 0
M  V30 1124 C 106.391 -3.74155 3.7707 0
M  V30 1125 C 105.43 -3.56407 4.97635 0
M  V30 1126 N 104.567 -4.75238 5.1681 0
M  V30 1127 H 109.407 -0.930383 2.83104 0
M  V30 1128 H 106.944 -0.448065 1.4011 0
M  V30 1129 H 108.902 -3.38021 2.44535 0
M  V30 1130 H 107.532 -2.90485 1.40778 0
M  V30 1131 H 106.584 -1.60483 3.4489 0
M  V30 1132 H 107.896 -2.30122 4.42544 0
M  V30 1133 H 107.05 -4.60778 3.94675 0
M  V30 1134 H 105.789 -3.94282 2.87042 0
M  V30 1135 H 104.794 -2.68168 4.79964 0
M  V30 1136 H 106.019 -3.37736 5.89161 0
M  V30 1137 H 103.965 -4.95651 4.29728 0
M  V30 1138 H 103.882 -4.60835 5.99306 0
M  V30 1139 H 105.15 -5.63246 5.38864 0
M  V30 1140 N 109.379 -1.50304 -0.473955 0
M  V30 1141 C 110.607 -1.64902 -1.24959 0
M  V30 1142 C 111.022 -0.331198 -1.85872 0
M  V30 1143 O 110.379 0.68652 -1.69095 0
M  V30 1144 C 110.43 -2.73803 -2.36038 0
M  V30 1145 O 110.151 -4.00477 -1.77624 0
M  V30 1146 C 111.652 -2.99349 -3.26964 0
M  V30 1147 H 108.872 -0.554383 -0.378022 0
M  V30 1148 H 111.416 -1.9651 -0.566054 0
M  V30 1149 H 109.571 -2.44898 -3.00173 0
M  V30 1150 H 109.985 -4.60678 -2.5075 0
M  V30 1151 H 111.459 -3.79217 -4.01121 0
M  V30 1152 H 111.936 -2.10307 -3.85574 0
M  V30 1153 H 112.542 -3.29774 -2.68569 0
M  V30 1154 N 110.857 0.726932 -1.39834 0
M  V30 1155 C 112.104 1.48664 -1.37496 0
M  V30 1156 C 112.432 1.94482 0.0264678 0
M  V30 1157 O 111.687 1.67692 1.00886 0
M  V30 1158 C 111.986 2.73495 -2.30077 0
M  V30 1159 C 111.652 2.46502 -3.77555 0
M  V30 1160 C 110.314 2.3885 -4.17737 0
M  V30 1161 C 112.666 2.23604 -4.70798 0
M  V30 1162 C 109.994 2.06352 -5.49214 0
M  V30 1163 C 112.346 1.92622 -6.02561 0
M  V30 1164 C 111.01 1.83444 -6.41798 0
M  V30 1165 H 110.28 0.544001 -0.503135 0
M  V30 1166 H 112.927 0.833657 -1.72402 0
M  V30 1167 H 111.232 3.43575 -1.88317 0
M  V30 1168 H 112.929 3.31549 -2.25558 0
M  V30 1169 H 109.519 2.5334 -3.45712 0
M  V30 1170 H 113.703 2.28479 -4.40581 0
M  V30 1171 H 108.959 1.97776 -5.78528 0
M  V30 1172 H 113.133 1.73914 -6.74334 0
M  V30 1173 H 110.76 1.58029 -7.43593 0
M  V30 1174 N 112.336 1.25143 0.95797 0
M  V30 1175 C 113.585 1.0909 1.69654 0
M  V30 1176 C 113.898 -0.368548 1.92097 0
M  V30 1177 O 115.104 -0.649455 2.63618 0
M  V30 1178 C 113.56 1.90395 3.05414 0
M  V30 1179 C 113.168 3.4081 2.90779 0
M  V30 1180 C 114.912 1.82901 3.83076 0
M  V30 1181 C 112.819 4.14423 4.21909 0
M  V30 1182 H 111.749 0.404625 0.636235 0
M  V30 1183 H 114.4 1.4931 1.06672 0
M  V30 1184 H 112.782 1.42996 3.69281 0
M  V30 1185 H 113.956 3.95859 2.35865 0
M  V30 1186 H 112.271 3.49361 2.26575 0
M  V30 1187 H 114.868 2.35196 4.80195 0
M  V30 1188 H 115.211 0.796224 4.08615 0
M  V30 1189 H 115.744 2.28033 3.25954 0
M  V30 1190 H 112.483 5.18102 4.01561 0
M  V30 1191 H 112.003 3.64159 4.76601 0
M  V30 1192 H 113.682 4.21956 4.90471 0
M  V30 1193 N 113.814 -1.1601 1.06675 0
M  V30 1194 C 114.777 -2.18724 0.685001 0
M  V30 1195 C 115.777 -1.58496 -0.271246 0
M  V30 1196 O 116.967 -1.74119 -0.0531156 0
M  V30 1197 C 114.099 -3.40899 0.00853648 0
M  V30 1198 H 115.292 -2.54011 1.59431 0
M  V30 1199 H 112.845 -1.30352 0.862441 0
M  V30 1200 H 113.58 -3.11173 -0.913337 0
M  V30 1201 H 113.365 -3.8587 0.696204 0
M  V30 1202 H 114.855 -4.16886 -0.24414 0
M  V30 1203 N 115.292 -0.849877 -1.32721 0
M  V30 1204 C 116.222 -0.306308 -2.31482 0
M  V30 1205 C 117.203 0.591952 -1.59468 0
M  V30 1206 O 118.388 0.513199 -1.87296 0
M  V30 1207 C 115.518 0.510204 -3.43532 0
M  V30 1208 C 114.472 -0.293209 -4.26994 0
M  V30 1209 C 113.798 0.647743 -5.30762 0
M  V30 1210 C 115.098 -1.51634 -4.99804 0
M  V30 1211 H 116.792 -1.13153 -2.77195 0
M  V30 1212 H 114.338 -0.545553 -1.33266 0
M  V30 1213 H 116.291 0.900856 -4.11658 0
M  V30 1214 H 115.015 1.36874 -2.96535 0
M  V30 1215 H 113.674 -0.665555 -3.60508 0
M  V30 1216 H 113.322 1.50299 -4.8002 0
M  V30 1217 H 113.022 0.11422 -5.87489 0
M  V30 1218 H 114.546 1.03567 -6.01753 0
M  V30 1219 H 115.96 -1.19824 -5.60638 0
M  V30 1220 H 114.357 -1.98745 -5.66234 0
M  V30 1221 H 115.427 -2.28018 -4.27943 0
M  V30 1222 N 116.77 1.45427 -0.607355 0
M  V30 1223 C 117.733 2.28974 0.101693 0
M  V30 1224 C 118.733 1.39754 0.795329 0
M  V30 1225 O 119.923 1.61878 0.643527 0
M  V30 1226 C 117.055 3.20768 1.15414 0
M  V30 1227 H 118.248 2.93147 -0.632844 0
M  V30 1228 H 115.801 1.51945 -0.366391 0
M  V30 1229 H 116.536 2.61395 1.91945 0
M  V30 1230 H 116.321 3.86489 0.66098 0
M  V30 1231 H 117.811 3.83589 1.65073 0
M  V30 1232 N 118.248 0.346503 1.53744 0
M  V30 1233 C 119.211 -0.496439 2.23759 0
M  V30 1234 C 120.211 -1.0252 1.2388 0
M  V30 1235 O 121.401 -0.913974 1.48297 0
M  V30 1236 C 118.533 -1.69187 2.95954 0
M  V30 1237 H 119.726 0.115952 2.99676 0
M  V30 1238 H 117.279 0.0978939 1.55993 0
M  V30 1239 H 118.014 -2.34288 2.24231 0
M  V30 1240 H 117.799 -1.31989 3.69217 0
M  V30 1241 H 119.289 -2.28969 3.49232 0
M  V30 1242 N 119.726 -1.57421 0.075193 0
M  V30 1243 C 120.973 -1.93618 -0.593146 0
M  V30 1244 C 121.301 -0.955484 -1.69413 0
M  V30 1245 O 120.556 0.0283251 -1.9568 0
M  V30 1246 C 120.855 -3.36428 -1.20626 0
M  V30 1247 C 120.521 -4.50307 -0.231078 0
M  V30 1248 C 119.183 -4.81186 0.0371936 0
M  V30 1249 C 121.535 -5.19374 0.435888 0
M  V30 1250 C 118.863 -5.78466 0.979461 0
M  V30 1251 C 121.215 -6.17665 1.3665 0
M  V30 1252 C 119.879 -6.46958 1.6432 0
M  V30 1253 H 119.149 -0.708499 -0.217047 0
M  V30 1254 H 121.796 -1.90937 0.146793 0
M  V30 1255 H 120.101 -3.35592 -2.02201 0
M  V30 1256 H 121.798 -3.61727 -1.73073 0
M  V30 1257 H 118.388 -4.26227 -0.450357 0
M  V30 1258 H 122.572 -4.95711 0.241748 0
M  V30 1259 H 117.828 -5.99487 1.20106 0
M  V30 1260 H 122.002 -6.70284 1.88924 0
M  V30 1261 H 119.629 -7.2215 2.37494 0
M  V30 1262 N 121.204 0.198386 -1.56346 0
M  V30 1263 C 122.481 0.944982 -1.71258 0
M  V30 1264 C 122.861 2.0151 -0.629048 0
M  V30 1265 O 122.209 2.25639 0.360473 0
M  V30 1266 C 122.419 1.5344 -3.1346 0
M  V30 1267 C 123.767 2.01778 -3.73591 0
M  V30 1268 O 124.791 1.63288 -3.16568 0
M  V30 1269 O 123.65 2.72594 -4.73661 0
M  V30 1270 H 120.744 0.442939 -0.69838 0
M  V30 1271 H 123.29 0.188342 -1.68652 0
M  V30 1272 H 122.062 0.762869 -3.83792 0
M  V30 1273 H 121.685 2.35596 -3.20282 0
M  V30 1274 N 122.682 1.50554 0.465978 0
M  V30 1275 C 123.614 1.65949 1.58093 0
M  V30 1276 C 124.627 0.540827 1.53554 0
M  V30 1277 O 125.816 0.814187 1.5885 0
M  V30 1278 C 122.916 1.63261 2.96983 0
M  V30 1279 C 122.089 2.91245 3.26336 0
M  V30 1280 C 121.148 2.8113 4.44806 0
M  V30 1281 O 120.174 3.55086 4.44862 0
M  V30 1282 N 121.376 1.95032 5.46756 0
M  V30 1283 H 124.141 2.62122 1.45301 0
M  V30 1284 H 121.702 1.48082 0.65448 0
M  V30 1285 H 123.694 1.54101 3.74212 0
M  V30 1286 H 122.264 0.748032 3.03518 0
M  V30 1287 H 121.484 3.14493 2.37672 0
M  V30 1288 H 122.772 3.76022 3.42761 0
M  V30 1289 H 122.17 1.3427 5.49534 0
M  V30 1290 H 120.727 1.91772 6.2295 0
M  V30 1291 N 124.16 -0.719506 1.40217 0
M  V30 1292 C 125.07 -1.86378 1.42479 0
M  V30 1293 C 126.086 -1.71073 0.317834 0
M  V30 1294 O 127.262 -1.93406 0.561794 0
M  V30 1295 C 124.327 -3.22136 1.28178 0
M  V30 1296 C 123.388 -3.49723 2.48982 0
M  V30 1297 C 122.621 -4.79004 2.35353 0
M  V30 1298 O 122.844 -5.53821 1.36524 0
M  V30 1299 O 121.778 -5.06839 3.2465 0
M  V30 1300 H 125.604 -1.87425 2.38968 0
M  V30 1301 H 123.189 -0.869405 1.21498 0
M  V30 1302 H 125.071 -4.03234 1.22395 0
M  V30 1303 H 123.746 -3.21825 0.347934 0
M  V30 1304 H 122.653 -2.6865 2.60342 0
M  V30 1305 H 123.986 -3.54828 3.41113 0
M  V30 1306 N 125.638 -1.25649 -0.95132 0
M  V30 1307 C 126.601 -1.06399 -2.03007 0
M  V30 1308 C 127.601 -0.0156794 -1.60792 0
M  V30 1309 O 128.791 -0.25817 -1.72276 0
M  V30 1310 C 125.923 -0.616184 -3.35285 0
M  V30 1311 H 127.116 -2.02164 -2.21517 0
M  V30 1312 H 124.669 -1.08103 -1.12887 0
M  V30 1313 H 125.404 0.343917 -3.22471 0
M  V30 1314 H 125.189 -1.37301 -3.67275 0
M  V30 1315 H 126.679 -0.503032 -4.14559 0
M  V30 1316 N 127.117 1.15442 -1.07289 0
M  V30 1317 C 128.363 1.86489 -0.796846 0
M  V30 1318 C 128.696 1.82078 0.675371 0
M  V30 1319 O 127.971 1.24346 1.4956 0
M  V30 1320 C 128.254 3.35626 -1.30489 0
M  V30 1321 C 128.107 3.48673 -2.84161 0
M  V30 1322 C 129.426 4.30357 -0.920907 0
M  V30 1323 H 126.545 0.677144 -0.290939 0
M  V30 1324 H 129.187 1.35633 -1.33056 0
M  V30 1325 H 127.337 3.79068 -0.850883 0
M  V30 1326 H 129.009 3.14099 -3.37846 0
M  V30 1327 H 127.252 2.90253 -3.22391 0
M  V30 1328 H 127.923 4.53453 -3.14777 0
M  V30 1329 H 130.399 3.94871 -1.3121 0
M  V30 1330 H 129.275 5.33193 -1.30372 0
M  V30 1331 H 129.536 4.4176 0.173226 0
M  V30 1332 N 128.595 0.856903 1.32268 0
M  V30 1333 C 129.841 0.462069 1.97466 0
M  V30 1334 C 130.174 -0.980298 1.67642 0
M  V30 1335 O 129.449 -1.68824 0.965858 0
M  V30 1336 C 129.732 0.704336 3.53145 0
M  V30 1337 C 129.585 2.19529 3.9259 0
M  V30 1338 C 130.904 0.1622 4.39801 0
M  V30 1339 H 128.023 0.169357 0.717278 0
M  V30 1340 H 130.665 1.07574 1.56614 0
M  V30 1341 H 128.815 0.181999 3.88073 0
M  V30 1342 H 130.487 2.78387 3.67829 0
M  V30 1343 H 128.73 2.67292 3.41668 0
M  V30 1344 H 129.401 2.31549 5.01088 0
M  V30 1345 H 131.877 0.608905 4.11621 0
M  V30 1346 H 130.753 0.361265 5.4771 0
M  V30 1347 H 131.014 -0.935158 4.32096 0
M  V30 1348 N 130.073 -1.45103 0.615059 0
M  V30 1349 C 131.321 -2.01784 0.112955 0
M  V30 1350 C 131.642 -1.48504 -1.26378 0
M  V30 1351 O 130.912 -0.682245 -1.83636 0
M  V30 1352 H 129.492 -0.745993 0.0387668 0
M  V30 1353 H 132.154 -1.77808 0.798141 0
M  V30 1354 H 131.25 -3.12025 0.0684069 0
M  V30 1355 N 131.551 -0.354651 -1.53558 0
M  V30 1356 C 132.514 0.484566 -2.24019 0
M  V30 1357 C 133.514 1.01861 -1.24422 0
M  V30 1358 O 134.704 0.906097 -1.4878 0
M  V30 1359 C 131.836 1.67615 -2.96847 0
M  V30 1360 H 133.029 -0.131843 -2.9961 0
M  V30 1361 H 130.582 -0.106165 -1.55939 0
M  V30 1362 H 131.317 2.33095 -2.25471 0
M  V30 1363 H 131.102 1.30029 -3.69912 0
M  V30 1364 H 132.592 2.27114 -3.50441 0
M  V30 1365 N 133.029 1.57378 -0.0835403 0
M  V30 1366 C 133.959 2.1641 0.87686 0
M  V30 1367 C 134.94 1.09429 1.30228 0
M  V30 1368 O 136.125 1.37516 1.37124 0
M  V30 1369 C 133.255 2.73517 2.14022 0
M  V30 1370 C 132.209 3.85769 1.85381 0
M  V30 1371 C 131.535 4.29529 3.18448 0
M  V30 1372 C 132.835 5.09486 1.14984 0
M  V30 1373 H 134.529 2.96914 0.385059 0
M  V30 1374 H 132.075 1.42823 0.18377 0
M  V30 1375 H 134.028 3.13463 2.81636 0
M  V30 1376 H 132.752 1.90252 2.65465 0
M  V30 1377 H 131.411 3.46345 1.20169 0
M  V30 1378 H 131.059 3.43169 3.67755 0
M  V30 1379 H 130.759 5.05204 3.00071 0
M  V30 1380 H 132.283 4.72099 3.8724 0
M  V30 1381 H 133.697 5.46674 1.72687 0
M  V30 1382 H 132.094 5.90515 1.06826 0
M  V30 1383 H 133.164 4.84724 0.130749 0
M  V30 1384 N 134.507 -0.190092 1.56449 0
M  V30 1385 C 135.47 -1.21925 1.9408 0
M  V30 1386 C 136.47 -1.38176 0.822431 0
M  V30 1387 O 137.66 -1.35903 1.08977 0
M  V30 1388 C 134.792 -2.58773 2.21922 0
M  V30 1389 H 135.985 -0.897464 2.86157 0
M  V30 1390 H 133.538 -0.43181 1.50217 0
M  V30 1391 H 134.273 -2.95998 1.32499 0
M  V30 1392 H 134.058 -2.48348 3.03424 0
M  V30 1393 H 135.548 -3.32978 2.52022 0
M  V30 1394 N 135.985 -1.50799 -0.457987 0
M  V30 1395 C 136.948 -1.7005 -1.53674 0
M  V30 1396 C 137.948 -0.570881 -1.50325 0
M  V30 1397 O 139.138 -0.838126 -1.52712 0
M  V30 1398 C 136.27 -1.73788 -2.93276 0
M  V30 1399 H 137.463 -2.66306 -1.37917 0
M  V30 1400 H 135.016 -1.40477 -0.685271 0
M  V30 1401 H 135.751 -0.792717 -3.14462 0
M  V30 1402 H 135.536 -2.55864 -2.97113 0
M  V30 1403 H 137.026 -1.90591 -3.71571 0
M  V30 1404 N 137.463 0.71206 -1.40597 0
M  V30 1405 C 138.693 1.49894 -1.42181 0
M  V30 1406 C 139.101 1.89189 -0.0208078 0
M  V30 1407 O 138.444 1.56223 0.966436 0
M  V30 1408 C 138.506 2.80215 -2.25211 0
M  V30 1409 C 138.17 2.63221 -3.73582 0
M  V30 1410 C 139.167 2.30249 -4.66135 0
M  V30 1411 C 136.852 2.79376 -4.17438 0
M  V30 1412 C 138.846 2.13645 -6.00529 0
M  V30 1413 C 136.533 2.6239 -5.51901 0
M  V30 1414 C 137.531 2.29573 -6.43262 0
M  V30 1415 O 137.219 2.12719 -7.75246 0
M  V30 1416 H 136.951 0.469031 -0.486812 0
M  V30 1417 H 139.505 0.88564 -1.85326 0
M  V30 1418 H 137.735 3.4389 -1.76852 0
M  V30 1419 H 139.424 3.41947 -2.18694 0
M  V30 1420 H 140.19 2.17398 -4.33547 0
M  V30 1421 H 136.069 3.03906 -3.46644 0
M  V30 1422 H 139.613 1.87953 -6.71803 0
M  V30 1423 H 135.51 2.74826 -5.84073 0
M  V30 1424 H 136.278 2.27611 -7.86216 0
M  V30 1425 N 138.941 1.26152 0.944643 0
M  V30 1426 C 140.187 1.11657 1.69294 0
M  V30 1427 C 140.52 -0.339926 1.91202 0
M  V30 1428 O 139.795 -1.24994 1.49019 0
M  V30 1429 C 140.078 1.88236 3.06984 0
M  V30 1430 C 139.931 3.41772 2.92424 0
M  V30 1431 C 141.25 1.67343 4.07043 0
M  V30 1432 H 138.369 0.407004 0.614424 0
M  V30 1433 H 141.011 1.55106 1.09737 0
M  V30 1434 H 139.161 1.51308 3.57824 0
M  V30 1435 H 140.833 3.88433 2.48832 0
M  V30 1436 H 139.076 3.68974 2.28124 0
M  V30 1437 H 139.747 3.90579 3.90067 0
M  V30 1438 H 142.223 1.99509 3.65151 0
M  V30 1439 H 141.099 2.23346 5.01406 0
M  V30 1440 H 141.36 0.617158 4.37771 0
M  V30 1441 N 140.419 -1.14872 1.07899 0
M  V30 1442 C 141.349 -2.2193 0.725887 0
M  V30 1443 C 142.33 -1.67622 -0.28927 0
M  V30 1444 O 143.515 -1.93533 -0.160787 0
M  V30 1445 C 140.645 -3.47061 0.128856 0
M  V30 1446 C 139.599 -4.14363 1.07178 0
M  V30 1447 C 138.925 -5.33636 0.337229 0
M  V30 1448 C 140.225 -4.63492 2.40775 0
M  V30 1449 H 141.919 -2.51724 1.62097 0
M  V30 1450 H 139.465 -1.20991 0.780838 0
M  V30 1451 H 141.418 -4.21199 -0.130147 0
M  V30 1452 H 140.142 -3.16617 -0.80134 0
M  V30 1453 H 138.801 -3.42173 1.3158 0
M  V30 1454 H 138.449 -4.99449 -0.596606 0
M  V30 1455 H 138.149 -5.79609 0.965788 0
M  V30 1456 H 139.673 -6.10539 0.0861567 0
M  V30 1457 H 141.087 -5.2913 2.20669 0
M  V30 1458 H 139.484 -5.20148 2.99276 0
M  V30 1459 H 140.554 -3.78834 3.02676 0
M  V30 1460 N 141.898 -0.863906 -1.31812 0
M  V30 1461 C 143.309 -0.52522 -1.7916 0
M  V30 1462 C 143.66 0.957518 -1.71248 0
M  V30 1463 O 142.785 1.74734 -1.27659 0
M  V30 1464 C 143.38 -0.9466 -3.25307 0
M  V30 1465 C 141.939 -0.659668 -3.70574 0
M  V30 1466 C 141.086 -1.14126 -2.52726 0
M  V30 1467 H 144.037 -1.05022 -1.1898 0
M  V30 1468 H 144.058 -0.266766 -3.79564 0
M  V30 1469 H 143.57 -2.02579 -3.31034 0
M  V30 1470 H 141.671 0.408416 -3.70355 0
M  V30 1471 H 141.784 -1.23245 -4.62977 0
M  V30 1472 H 140.148 -0.561216 -2.4844 0
M  V30 1473 H 140.931 -2.22775 -2.61201 0
M  V30 1474 N 143.376 1.44774 -0.622745 0
M  V30 1475 C 144.792 1.56986 -0.287652 0
M  V30 1476 C 144.992 1.61167 1.20944 0
M  V30 1477 O 144.048 1.55015 1.99315 0
M  V30 1478 C 145.361 2.84551 -0.972188 0
M  V30 1479 C 146.909 2.9825 -0.949536 0
M  V30 1480 C 147.384 4.28605 -1.61437 0
M  V30 1481 N 148.875 4.35399 -1.58057 0
M  V30 1482 C 149.61 5.34964 -2.064 0
M  V30 1483 N 149.106 6.40981 -2.62897 0
M  V30 1484 N 150.899 5.26419 -1.97078 0
M  V30 1485 H 143.05 1.40304 -1.59463 0
M  V30 1486 H 145.313 0.671794 -0.668878 0
M  V30 1487 H 145.019 2.87417 -2.02693 0
M  V30 1488 H 144.893 3.73807 -0.504771 0
M  V30 1489 H 147.28 2.94941 0.0967067 0
M  V30 1490 H 147.361 2.10364 -1.45536 0
M  V30 1491 H 147.005 4.32672 -2.66002 0
M  V30 1492 H 146.935 5.15334 -1.08344 0
M  V30 1493 H 149.426 3.59397 -1.16801 0
M  V30 1494 H 149.739 7.13225 -2.97539 0
M  V30 1495 H 148.084 6.4169 -2.66943 0
M  V30 1496 H 151.275 4.42504 -1.52669 0
M  V30 1497 H 151.448 6.03861 -2.35066 0
M  V30 1498 N 144.854 0.36279 1.53368 0
M  V30 1499 C 146.101 -0.227776 2.01215 0
M  V30 1500 C 146.429 -1.49003 1.25014 0
M  V30 1501 O 145.684 -1.92876 0.331236 0
M  V30 1502 C 145.983 -0.568417 3.52851 0
M  V30 1503 C 145.649 0.59918 4.46901 0
M  V30 1504 C 144.311 0.919559 4.72332 0
M  V30 1505 C 146.663 1.38156 5.02556 0
M  V30 1506 C 143.991 2.02434 5.5067 0
M  V30 1507 C 146.343 2.47674 5.821 0
M  V30 1508 C 145.007 2.8025 6.05819 0
M  V30 1509 H 144.277 -0.083349 0.736297 0
M  V30 1510 H 146.924 0.494677 1.85001 0
M  V30 1511 H 145.229 -1.37185 3.66998 0
M  V30 1512 H 146.926 -1.03756 3.87344 0
M  V30 1513 H 143.516 0.339437 4.27254 0
M  V30 1514 H 147.7 1.14729 4.82857 0
M  V30 1515 H 142.956 2.28075 5.67267 0
M  V30 1516 H 147.13 3.08716 6.24234 0
M  V30 1517 H 144.757 3.65979 6.66306 0
M  V30 1518 N 146.332 -1.57332 0.0918853 0
M  V30 1519 C 147.242 -2.17368 -0.882505 0
M  V30 1520 C 148.258 -1.14226 -1.31257 0
M  V30 1521 O 149.434 -1.46582 -1.38115 0
M  V30 1522 C 146.499 -2.73962 -2.12476 0
M  V30 1523 C 145.56 -3.92048 -1.7492 0
M  V30 1524 C 144.793 -4.45933 -2.93223 0
M  V30 1525 O 145.016 -3.98764 -4.07852 0
M  V30 1526 O 143.95 -5.36999 -2.71875 0
M  V30 1527 H 147.776 -3.01031 -0.40172 0
M  V30 1528 H 145.361 -1.48813 -0.132291 0
M  V30 1529 H 147.243 -3.10147 -2.85283 0
M  V30 1530 H 145.918 -1.93347 -2.59613 0
M  V30 1531 H 144.825 -3.6068 -0.993025 0
M  V30 1532 H 146.158 -4.74017 -1.32548 0
M  V30 1533 N 147.81 0.181792 -1.56548 0
M  V30 1534 C 148.742 1.24956 -1.92142 0
M  V30 1535 C 149.755 1.41022 -0.813422 0
M  V30 1536 O 150.944 1.41212 -1.09186 0
M  V30 1537 C 148.044 2.61981 -2.14987 0
M  V30 1538 C 147.217 2.6735 -3.46183 0
M  V30 1539 C 146.276 3.85664 -3.5798 0
M  V30 1540 O 145.302 3.72148 -4.30691 0
M  V30 1541 N 146.504 5.01683 -2.92053 0
M  V30 1542 H 149.269 0.947329 -2.84334 0
M  V30 1543 H 146.83 0.371629 -1.57577 0
M  V30 1544 H 148.822 3.3958 -2.20154 0
M  V30 1545 H 147.392 2.84637 -1.2923 0
M  V30 1546 H 146.612 1.75925 -3.52766 0
M  V30 1547 H 147.9 2.67939 -4.32534 0
M  V30 1548 H 147.298 5.15564 -2.32832 0
M  V30 1549 H 145.855 5.77181 -3.0283 0
M  V30 1550 N 149.288 1.51039 0.449983 0
M  V30 1551 C 150.699 1.557 1.03026 0
M  V30 1552 C 151.05 0.372939 1.92623 0
M  V30 1553 O 150.175 -0.511771 2.10261 0
M  V30 1554 C 150.77 2.82171 1.87523 0
M  V30 1555 C 149.329 2.89444 2.40622 0
M  V30 1556 C 148.476 2.50228 1.19504 0
M  V30 1557 H 151.427 1.56999 0.231745 0
M  V30 1558 H 151.448 2.65219 2.72835 0
M  V30 1559 H 150.96 3.68331 1.22286 0
M  V30 1560 H 149.061 2.07685 3.0935 0
M  V30 1561 H 149.174 3.92816 2.74285 0
M  V30 1562 H 147.538 2.03139 1.53644 0
M  V30 1563 H 148.321 3.38719 0.558972 0
M  V30 1564 N 150.766 -0.704594 1.40972 0
M  V30 1565 C 152.182 -1.01406 1.23244 0
M  V30 1566 C 152.382 -2.01169 0.115399 0
M  V30 1567 O 151.438 -2.47021 -0.523147 0
M  V30 1568 C 152.751 -1.54728 2.57836 0
M  V30 1569 C 154.299 -1.66658 2.64942 0
M  V30 1570 C 154.774 -2.23383 3.9983 0
M  V30 1571 N 156.265 -2.30756 4.01629 0
M  V30 1572 C 157 -2.75655 5.02794 0
M  V30 1573 N 156.496 -3.20225 6.14352 0
M  V30 1574 N 158.289 -2.75138 4.90159 0
M  V30 1575 H 150.44 -0.0435285 2.12355 0
M  V30 1576 H 152.703 -0.0818951 0.944456 0
M  V30 1577 H 152.409 -0.888832 3.40283 0
M  V30 1578 H 152.283 -2.53084 2.79693 0
M  V30 1579 H 154.67 -2.31617 1.8286 0
M  V30 1580 H 154.751 -0.668717 2.46904 0
M  V30 1581 H 154.395 -1.59043 4.82357 0
M  V30 1582 H 154.325 -3.23904 4.15203 0
M  V30 1583 H 156.816 -1.99291 3.21079 0
M  V30 1584 H 157.129 -3.53084 6.87424 0
M  V30 1585 H 155.474 -3.18156 6.17901 0
M  V30 1586 H 158.665 -2.39661 4.02095 0
M  V30 1587 H 158.838 -3.09812 5.6914 0
M  V30 1588 N 152.244 -1.26651 -0.937939 0
M  V30 1589 C 153.469 -1.15279 -1.72411 0
M  V30 1590 C 153.894 0.287866 -1.85884 0
M  V30 1591 O 153.252 1.20855 -1.35143 0
M  V30 1592 C 153.3 -1.83028 -3.10698 0
M  V30 1593 O 152.404 -1.12128 -3.96864 0
M  V30 1594 H 151.745 -0.401504 -0.528858 0
M  V30 1595 H 154.275 -1.67531 -1.1745 0
M  V30 1596 H 154.285 -1.89981 -3.6107 0
M  V30 1597 H 152.96 -2.87833 -3.00208 0
M  V30 1598 H 151.537 -1.13173 -3.55312 0
M  V30 1599 N 153.722 1.14298 -1.08507 0
M  V30 1600 C 154.632 2.23027 -0.727753 0
M  V30 1601 C 155.648 1.71952 0.26619 0
M  V30 1602 O 156.824 2.011 0.109882 0
M  V30 1603 C 153.889 3.46403 -0.143541 0
M  V30 1604 C 152.95 4.12413 -1.19223 0
M  V30 1605 C 152.183 5.29899 -0.635798 0
M  V30 1606 O 152.406 5.67796 0.544393 0
M  V30 1607 O 151.34 5.85717 -1.38634 0
M  V30 1608 H 155.166 2.55945 -1.63481 0
M  V30 1609 H 152.751 1.22248 -0.858817 0
M  V30 1610 H 154.633 4.21018 0.179404 0
M  V30 1611 H 153.308 3.15206 0.736659 0
M  V30 1612 H 152.215 3.39667 -1.56772 0
M  V30 1613 H 153.548 4.47718 -2.04474 0
M  V30 1614 N 155.201 0.870884 1.31352 0
M  V30 1615 C 156.45 0.478408 1.95944 0
M  V30 1616 C 156.763 -0.974493 1.69597 0
M  V30 1617 O 157.969 -1.47316 2.28058 0
M  V30 1618 C 156.425 0.804609 3.50791 0
M  V30 1619 C 156.033 2.27433 3.85977 0
M  V30 1620 C 157.777 0.480648 4.2177 0
M  V30 1621 C 155.684 2.5429 5.33939 0
M  V30 1622 H 154.614 0.175175 0.733369 0
M  V30 1623 H 157.265 1.06391 1.4951 0
M  V30 1624 H 155.647 0.148347 3.95722 0
M  V30 1625 H 156.821 2.97373 3.52002 0
M  V30 1626 H 155.136 2.56442 3.28065 0
M  V30 1627 H 157.733 0.658519 5.30629 0
M  V30 1628 H 158.076 -0.578979 4.12254 0
M  V30 1629 H 158.609 1.09349 3.82476 0
M  V30 1630 H 155.348 3.58939 5.48491 0
M  V30 1631 H 154.868 1.88945 5.69263 0
M  V30 1632 H 156.547 2.39066 6.01212 0
M  V30 1633 N 156.679 -1.44442 0.630414 0
M  V30 1634 C 157.909 -2.06115 0.141465 0
M  V30 1635 C 158.317 -1.47179 -1.1889 0
M  V30 1636 O 157.66 -0.588873 -1.74006 0
M  V30 1637 C 157.722 -3.59467 -0.0484355 0
M  V30 1638 C 157.386 -4.40864 1.20366 0
M  V30 1639 C 158.383 -4.74391 2.12719 0
M  V30 1640 C 156.068 -4.8125 1.43887 0
M  V30 1641 C 158.062 -5.47186 3.26904 0
M  V30 1642 C 155.749 -5.53795 2.5837 0
M  V30 1643 C 156.747 -5.86682 3.49705 0
M  V30 1644 O 156.435 -6.57749 4.62191 0
M  V30 1645 H 156.167 -0.671648 0.0765792 0
M  V30 1646 H 158.721 -1.86312 0.864695 0
M  V30 1647 H 156.951 -3.77758 -0.826803 0
M  V30 1648 H 158.64 -4.02909 -0.491849 0
M  V30 1649 H 159.406 -4.43728 1.95781 0
M  V30 1650 H 155.285 -4.55073 0.736853 0
M  V30 1651 H 158.829 -5.72773 3.98217 0
M  V30 1652 H 154.726 -5.83872 2.75251 0
M  V30 1653 H 155.494 -6.76217 4.61164 0
M  V30 1654 N 158.157 -0.370918 -1.53173 0
M  V30 1655 C 159.406 0.218249 -2.00516 0
M  V30 1656 C 159.719 1.49429 -1.26215 0
M  V30 1657 O 160.925 2.16239 -1.64174 0
M  V30 1658 C 159.381 0.43948 -3.57207 0
M  V30 1659 C 158.989 -0.822244 -4.4039 0
M  V30 1660 C 160.733 0.986012 -4.1289 0
M  V30 1661 C 158.64 -0.570304 -5.88644 0
M  V30 1662 H 157.57 0.0853333 -0.749156 0
M  V30 1663 H 160.221 -0.490483 -1.76823 0
M  V30 1664 H 158.603 1.20961 -3.77074 0
M  V30 1665 H 159.777 -1.59557 -4.32294 0
M  V30 1666 H 158.092 -1.29238 -3.95836 0
M  V30 1667 H 160.689 1.18991 -5.21292 0
M  V30 1668 H 161.032 1.94972 -3.6782 0
M  V30 1669 H 161.565 0.27592 -3.96842 0
M  V30 1670 H 158.304 -1.50449 -6.38001 0
M  V30 1671 H 157.824 0.164427 -5.99575 0
M  V30 1672 H 159.503 -0.19784 -6.46697 0
M  V30 1673 N 159.635 1.57281 -0.100228 0
M  V30 1674 C 160.865 1.98591 0.569681 0
M  V30 1675 C 161.273 0.978315 1.61943 0
M  V30 1676 O 160.616 -0.0396108 1.83657 0
M  V30 1677 C 160.678 3.36282 1.271 0
M  V30 1678 C 160.342 4.55488 0.371409 0
M  V30 1679 C 161.339 5.18491 -0.382504 0
M  V30 1680 C 159.024 5.01474 0.287965 0
M  V30 1681 C 161.018 6.25852 -1.20779 0
M  V30 1682 C 158.705 6.08701 -0.540965 0
M  V30 1683 C 159.703 6.70755 -1.28749 0
M  V30 1684 O 159.391 7.75914 -2.10269 0
M  V30 1685 H 159.123 0.65752 0.156982 0
M  V30 1686 H 161.677 2.0463 -0.177734 0
M  V30 1687 H 159.907 3.26941 2.0651 0
M  V30 1688 H 161.596 3.62005 1.83595 0
M  V30 1689 H 162.362 4.83891 -0.3278 0
M  V30 1690 H 158.241 4.52932 0.858689 0
M  V30 1691 H 161.785 6.74218 -1.79096 0
M  V30 1692 H 157.682 6.42732 -0.597131 0
M  V30 1693 H 158.45 7.92925 -2.03007 0
M  V30 1694 N 161.113 -0.173488 1.56642 0
M  V30 1695 C 162.39 -0.917617 1.7274 0
M  V30 1696 C 162.77 -2.00484 0.661027 0
M  V30 1697 O 162.118 -2.26184 -0.32453 0
M  V30 1698 C 162.328 -1.48433 3.15862 0
M  V30 1699 C 163.676 -1.95809 3.76754 0
M  V30 1700 O 164.7 -1.58231 3.19126 0
M  V30 1701 O 163.559 -2.65024 4.77938 0
M  V30 1702 H 160.653 -0.431772 0.705338 0
M  V30 1703 H 163.199 -0.161487 1.6893 0
M  V30 1704 H 161.971 -0.701715 3.84957 0
M  V30 1705 H 161.594 -2.30471 3.23989 0
M  V30 1706 N 162.591 -1.51276 -0.441967 0
M  V30 1707 C 163.521 -1.752 -1.54361 0
M  V30 1708 C 164.502 -0.601682 -1.59103 0
M  V30 1709 O 165.687 -0.843913 -1.74905 0
M  V30 1710 C 162.817 -1.87282 -2.92477 0
M  V30 1711 C 161.771 -3.02687 -3.02596 0
M  V30 1712 C 161.097 -2.99947 -4.42647 0
M  V30 1713 C 162.397 -4.4273 -2.77106 0
M  V30 1714 H 164.091 -2.67442 -1.34592 0
M  V30 1715 H 161.637 -1.28694 -0.646048 0
M  V30 1716 H 163.59 -2.02602 -3.695 0
M  V30 1717 H 162.314 -0.916844 -3.13467 0
M  V30 1718 H 160.973 -2.87065 -2.28012 0
M  V30 1719 H 160.621 -2.02136 -4.60597 0
M  V30 1720 H 160.321 -3.77439 -4.50348 0
M  V30 1721 H 161.845 -3.17354 -5.2165 0
M  V30 1722 H 163.259 -4.58727 -3.43864 0
M  V30 1723 H 161.656 -5.21893 -2.96222 0
M  V30 1724 H 162.726 -4.53087 -1.72744 0
M  V30 1725 N 164.069 0.697108 -1.41344 0
M  V30 1726 C 165.032 1.79281 -1.42797 0
M  V30 1727 C 166.032 1.57607 -0.318837 0
M  V30 1728 O 167.222 1.64309 -0.578642 0
M  V30 1729 C 164.354 3.17632 -1.23785 0
M  V30 1730 H 165.547 1.79385 -2.40335 0
M  V30 1731 H 163.1 0.904582 -1.27464 0
M  V30 1732 H 163.835 3.23167 -0.270814 0
M  V30 1733 H 163.62 3.34765 -2.04144 0
M  V30 1734 H 165.11 3.97617 -1.27633 0
M  V30 1735 N 165.547 1.27147 0.931209 0
M  V30 1736 C 166.793 1.13446 1.68101 0
M  V30 1737 C 167.126 -0.319628 1.91552 0
M  V30 1738 O 166.401 -1.23407 1.50336 0
M  V30 1739 C 166.684 1.91482 3.0497 0
M  V30 1740 C 166.537 3.44855 2.88782 0
M  V30 1741 C 167.856 1.71651 4.05246 0
M  V30 1742 H 164.975 0.413498 0.610072 0
M  V30 1743 H 167.617 1.56261 1.08086 0
M  V30 1744 H 165.767 1.55095 3.56199 0
M  V30 1745 H 167.439 3.9105 2.44698 0
M  V30 1746 H 165.682 3.71373 2.24198 0
M  V30 1747 H 166.353 3.94694 3.85902 0
M  V30 1748 H 168.829 2.0337 3.63015 0
M  V30 1749 H 167.705 2.28651 4.99009 0
M  V30 1750 H 167.966 0.663555 4.37092 0
M  V30 1751 N 167.025 -1.13721 1.09112 0
M  V30 1752 C 168.25 -1.89314 0.847053 0
M  V30 1753 C 168.675 -1.78416 -0.595774 0
M  V30 1754 O 168.033 -1.12942 -1.41823 0
M  V30 1755 C 168.081 -3.3701 1.28284 0
M  V30 1756 O 167.185 -4.10054 0.439267 0
M  V30 1757 H 166.526 -0.588745 0.307044 0
M  V30 1758 H 169.056 -1.43902 1.45442 0
M  V30 1759 H 169.066 -3.87834 1.26683 0
M  V30 1760 H 167.741 -3.4426 2.33363 0
M  V30 1761 H 166.318 -3.69266 0.519312 0
M  V30 1762 N 168.503 -0.877838 -1.30888 0
M  V30 1763 C 169.751 -0.491723 -1.96027 0
M  V30 1764 C 170.072 0.960827 -1.69685 0
M  V30 1765 O 169.342 1.67462 -1.01654 0
M  V30 1766 H 167.922 -0.17885 -0.725273 0
M  V30 1767 H 170.584 -1.11935 -1.59551 0
M  V30 1768 H 169.68 -0.656016 -3.05128 0
M  V30 1769 N 169.982 1.44106 -0.638065 0
M  V30 1770 C 170.892 2.34513 0.0637334 0
M  V30 1771 C 171.908 1.53018 0.828346 0
M  V30 1772 O 173.084 1.85723 0.779036 0
M  V30 1773 C 170.149 3.31095 1.02844 0
M  V30 1774 C 169.21 4.28497 0.26244 0
M  V30 1775 C 168.443 5.20465 1.1812 0
M  V30 1776 O 168.666 5.16514 2.42011 0
M  V30 1777 O 167.6 5.98251 0.661774 0
M  V30 1778 H 171.426 2.95989 -0.68003 0
M  V30 1779 H 169.011 1.43994 -0.398252 0
M  V30 1780 H 170.893 3.90526 1.58327 0
M  V30 1781 H 169.568 2.72144 1.7527 0
M  V30 1782 H 168.475 3.72592 -0.335602 0
M  V30 1783 H 169.808 4.90388 -0.421936 0
M  V30 1784 N 171.46 0.379036 1.52974 0
M  V30 1785 C 172.41 -0.477772 2.22938 0
M  V30 1786 C 173.394 -1.03792 1.22948 0
M  V30 1787 O 174.586 -0.965725 1.48333 0
M  V30 1788 C 171.715 -1.60994 3.03209 0
M  V30 1789 C 170.801 -1.06203 4.10587 0
M  V30 1790 N 171.192 -0.238214 5.05239 0
M  V30 1791 C 169.49 -1.33554 4.25534 0
M  V30 1792 C 170.191 0.0633235 5.81666 0
M  V30 1793 N 169.167 -0.537901 5.40932 0
M  V30 1794 H 172.969 0.158295 2.93473 0
M  V30 1795 H 170.483 0.187778 1.61311 0
M  V30 1796 H 172.48 -2.23607 3.5186 0
M  V30 1797 H 171.14 -2.24893 2.34207 0
M  V30 1798 H 172.151 0.123695 5.17752 0
M  V30 1799 H 168.828 -1.97632 3.6776 0
M  V30 1800 H 170.218 0.730161 6.67921 0
M  V30 1801 N 172.938 -1.57226 0.108567 0
M  V30 1802 C 174.354 -1.5766 -0.248058 0
M  V30 1803 C 174.554 -1.12063 -1.67464 0
M  V30 1804 O 173.61 -0.803236 -2.39383 0
M  V30 1805 C 174.923 -3.0069 -0.0242287 0
M  V30 1806 C 176.471 -3.12868 -0.0909372 0
M  V30 1807 C 176.946 -4.57879 0.105067 0
M  V30 1808 N 178.437 -4.63172 0.0506846 0
M  V30 1809 C 179.172 -5.73126 0.177396 0
M  V30 1810 N 178.668 -6.91866 0.359696 0
M  V30 1811 N 180.461 -5.61977 0.117709 0
M  V30 1812 H 172.612 -1.85169 1.04049 0
M  V30 1813 H 174.875 -0.85529 0.40888 0
M  V30 1814 H 174.581 -3.38299 0.961604 0
M  V30 1815 H 174.455 -3.6945 -0.76068 0
M  V30 1816 H 176.842 -2.75124 -1.06729 0
M  V30 1817 H 176.923 -2.46672 0.677225 0
M  V30 1818 H 176.567 -4.96321 1.07834 0
M  V30 1819 H 176.497 -5.22153 -0.682954 0
M  V30 1820 H 178.988 -3.778 -0.0871266 0
M  V30 1821 H 179.301 -7.71503 0.447529 0
M  V30 1822 H 177.646 -6.93874 0.395536 0
M  V30 1823 H 180.837 -4.68094 -0.0236741 0
M  V30 1824 H 181.01 -6.47627 0.219905 0
M  V30 1825 N 174.416 0.165178 -1.56732 0
M  V30 1826 C 175.832 0.517174 -1.50988 0
M  V30 1827 C 176.032 1.84331 -0.813894 0
M  V30 1828 O 175.088 2.49672 -0.37682 0
M  V30 1829 C 176.401 0.544261 -2.95733 0
M  V30 1830 C 177.949 0.631039 -3.06573 0
M  V30 1831 C 178.424 0.68896 -4.52788 0
M  V30 1832 N 179.915 0.751683 -4.5706 0
M  V30 1833 C 180.65 0.817177 -5.67547 0
M  V30 1834 N 180.146 0.843129 -6.8765 0
M  V30 1835 N 181.939 0.856668 -5.55534 0
M  V30 1836 H 174.09 -0.704318 -2.00382 0
M  V30 1837 H 176.353 -0.254687 -0.913148 0
M  V30 1838 H 176.059 -0.361607 -3.49836 0
M  V30 1839 H 175.933 1.3886 -3.5071 0
M  V30 1840 H 178.32 1.52733 -2.52501 0
M  V30 1841 H 178.401 -0.240095 -2.54671 0
M  V30 1842 H 178.045 -0.2031 -5.07494 0
M  V30 1843 H 177.975 1.57633 -5.02454 0
M  V30 1844 H 180.466 0.739661 -3.70591 0
M  V30 1845 H 180.779 0.894448 -7.67606 0
M  V30 1846 H 179.124 0.811304 -6.90248 0
M  V30 1847 H 182.315 0.833437 -4.60621 0
M  V30 1848 H 182.488 0.904247 -6.4166 0
M  V30 1849 N 175.894 1.51508 0.433938 0
M  V30 1850 C 176.826 1.69266 1.54537 0
M  V30 1851 C 177.839 0.573276 1.52373 0
M  V30 1852 O 179.028 0.847698 1.57087 0
M  V30 1853 C 176.128 1.69524 2.93453 0
M  V30 1854 C 175.301 2.98101 3.20085 0
M  V30 1855 C 174.36 2.90502 4.38742 0
M  V30 1856 O 173.386 3.64442 4.3723 0
M  V30 1857 N 174.588 2.06586 5.42496 0
M  V30 1858 H 177.353 2.65145 1.39708 0
M  V30 1859 H 174.914 1.49437 0.622922 0
M  V30 1860 H 176.906 1.62004 3.70859 0
M  V30 1861 H 175.476 0.812245 3.01863 0
M  V30 1862 H 174.696 3.19464 2.30947 0
M  V30 1863 H 175.984 3.83207 3.34708 0
M  V30 1864 H 175.382 1.45896 5.46563 0
M  V30 1865 H 173.939 2.04943 6.18742 0
M  V30 1866 N 177.372 -0.689602 1.41712 0
M  V30 1867 C 178.62 -1.4468 1.4111 0
M  V30 1868 C 178.941 -1.94986 0.0232196 0
M  V30 1869 O 178.211 -1.72097 -0.935913 0
M  V30 1870 H 176.791 -0.536847 0.519427 0
M  V30 1871 H 179.453 -0.815825 1.77004 0
M  V30 1872 H 178.549 -2.30706 2.10193 0
M  V30 1873 N 178.85 -1.27639 -0.924453 0
M  V30 1874 C 180.099 -1.13549 -1.66702 0
M  V30 1875 C 180.412 0.317487 -1.93006 0
M  V30 1876 O 181.618 0.579333 -2.65247 0
M  V30 1877 C 180.074 -1.98426 -3.00259 0
M  V30 1878 C 179.682 -3.484 -2.81641 0
M  V30 1879 C 181.426 -1.92993 -3.78092 0
M  V30 1880 C 179.333 -4.25464 -4.10773 0
M  V30 1881 H 178.263 -0.421351 -0.625283 0
M  V30 1882 H 180.914 -1.52085 -1.02676 0
M  V30 1883 H 179.296 -1.52736 -3.6536 0
M  V30 1884 H 180.47 -4.01973 -2.25287 0
M  V30 1885 H 178.785 -3.55245 -2.17232 0
M  V30 1886 H 181.382 -2.47844 -4.7379 0
M  V30 1887 H 181.725 -0.904281 -4.0636 0
M  V30 1888 H 182.258 -2.36595 -3.19793 0
M  V30 1889 H 178.997 -5.28566 -3.87683 0
M  V30 1890 H 178.517 -3.76667 -4.66779 0
M  V30 1891 H 180.196 -4.34812 -4.79111 0
M  V30 1892 N 180.328 1.1314 -1.09713 0
M  V30 1893 C 181.291 2.16831 -0.742751 0
M  V30 1894 C 182.291 1.59159 0.229129 0
M  V30 1895 O 183.481 1.74199 0.00693237 0
M  V30 1896 C 180.613 3.40756 -0.0989168 0
M  V30 1897 H 181.806 2.49695 -1.66109 0
M  V30 1898 H 179.359 1.2802 -0.896699 0
M  V30 1899 H 180.094 3.13485 0.830514 0
M  V30 1900 H 179.879 3.83888 -0.798265 0
M  V30 1901 H 181.369 4.17386 0.133524 0
M  V30 1902 N 181.806 0.884767 1.30421 0
M  V30 1903 C 183.034 0.518044 2.0031 0
M  V30 1904 C 183.449 -0.893408 1.66324 0
M  V30 1905 O 182.806 -1.5875 0.900262 0
M  V30 1906 C 182.857 0.682997 3.54989 0
M  V30 1907 O 182.578 2.03888 3.87764 0
M  V30 1908 C 184.079 0.31924 4.42149 0
M  V30 1909 H 181.299 0.200265 0.640418 0
M  V30 1910 H 183.843 1.19001 1.6631 0
M  V30 1911 H 181.998 0.0584052 3.87356 0
M  V30 1912 H 182.412 2.05735 4.82466 0
M  V30 1913 H 183.886 0.485555 5.4986 0
M  V30 1914 H 184.363 -0.742717 4.32875 0
M  V30 1915 H 184.969 0.920147 4.15227 0
M  V30 1916 N 183.284 -1.43765 0.645699 0
M  V30 1917 C 184.247 -2.29163 -0.0409488 0
M  V30 1918 C 185.247 -1.41813 -0.757996 0
M  V30 1919 O 186.437 -1.63527 -0.600382 0
M  V30 1920 C 183.569 -3.23716 -1.06869 0
M  V30 1921 H 184.762 -2.91366 0.710345 0
M  V30 1922 H 182.315 -1.5092 0.406547 0
M  V30 1923 H 183.05 -2.66393 -1.84947 0
M  V30 1924 H 182.835 -3.88105 -0.558277 0
M  V30 1925 H 184.325 -3.87831 -1.54845 0
M  V30 1926 N 184.763 -0.387143 -1.52771 0
M  V30 1927 C 185.693 0.440551 -2.29306 0
M  V30 1928 C 186.674 1.06535 -1.32606 0
M  V30 1929 O 187.859 1.07853 -1.61497 0
M  V30 1930 C 184.989 1.56919 -3.09829 0
M  V30 1931 C 183.943 1.07054 -4.14395 0
M  V30 1932 C 183.269 2.29109 -4.83129 0
M  V30 1933 C 184.569 0.140015 -5.22112 0
M  V30 1934 H 186.263 -0.198026 -2.98744 0
M  V30 1935 H 183.809 -0.09668 -1.43675 0
M  V30 1936 H 185.762 2.15503 -3.62128 0
M  V30 1937 H 184.486 2.23532 -2.3812 0
M  V30 1938 H 183.145 0.507247 -3.63074 0
M  V30 1939 H 182.793 2.94227 -4.0797 0
M  V30 1940 H 182.493 1.96406 -5.53804 0
M  V30 1941 H 184.017 2.88339 -5.38231 0
M  V30 1942 H 185.431 0.633978 -5.69784 0
M  V30 1943 H 183.828 -0.0971485 -6.00021 0
M  V30 1944 H 184.898 -0.811711 -4.78058 0
M  V30 1945 N 186.241 1.57166 -0.116904 0
M  V30 1946 C 187.49 1.94298 0.541407 0
M  V30 1947 C 187.803 1.00236 1.67964 0
M  V30 1948 O 189.009 1.26826 2.40057 0
M  V30 1949 C 187.465 3.45306 1.01449 0
M  V30 1950 C 187.073 4.47899 -0.0951738 0
M  V30 1951 C 188.817 3.91361 1.6443 0
M  V30 1952 C 186.724 5.90083 0.394491 0
M  V30 1953 H 185.654 0.725308 0.206019 0
M  V30 1954 H 188.305 1.82446 -0.196419 0
M  V30 1955 H 186.687 3.52385 1.80667 0
M  V30 1956 H 187.861 4.52486 -0.871374 0
M  V30 1957 H 186.176 4.11583 -0.631505 0
M  V30 1958 H 188.773 4.95004 2.02176 0
M  V30 1959 H 189.116 3.3122 2.52189 0
M  V30 1960 H 189.649 3.87073 0.917559 0
M  V30 1961 H 186.388 6.53974 -0.447004 0
M  V30 1962 H 185.908 5.88921 1.13722 0
M  V30 1963 H 187.587 6.41307 0.856399 0
M  V30 1964 N 187.719 -0.156864 1.56817 0
M  V30 1965 C 188.667 -1.21319 1.98455 0
M  V30 1966 C 189.661 -1.45025 0.875444 0
M  V30 1967 O 190.867 -1.45435 1.0606 0
M  V30 1968 H 187.242 -0.408142 0.631605 0
M  V30 1969 H 189.213 -0.835244 2.86472 0
M  V30 1970 C 187.962 -2.54148 2.37285 0
M  V30 1971 H 187.285 -2.36733 3.22176 0
M  V30 1972 H 188.725 -3.26712 2.70251 0
M  V30 1973 C 187.184 -3.13967 1.22173 0
M  V30 1974 O 187.714 -3.98357 0.517149 0
M  V30 1975 N 185.92 -2.7327 0.988536 0
M  V30 1976 H 185.467 -2.04744 1.56326 0
M  V30 1977 H 185.425 -3.13628 0.220209 0
M  V30 1978 N 189.197 -1.51736 -0.425897 0
M  V30 1979 C 190.127 -1.76827 -1.52494 0
M  V30 1980 C 191.108 -0.618524 -1.58456 0
M  V30 1981 O 192.293 -0.862416 -1.74 0
M  V30 1982 C 189.423 -1.90374 -2.90474 0
M  V30 1983 C 188.377 -3.0588 -2.99369 0
M  V30 1984 C 187.703 -3.04625 -4.3944 0
M  V30 1985 C 189.003 -4.45644 -2.72394 0
M  V30 1986 H 190.697 -2.68855 -1.31748 0
M  V30 1987 H 188.243 -1.29372 -0.632362 0
M  V30 1988 H 190.196 -2.0651 -3.6733 0
M  V30 1989 H 188.92 -0.95004 -3.12477 0
M  V30 1990 H 187.579 -2.89467 -2.24954 0
M  V30 1991 H 187.227 -2.0701 -4.58428 0
M  V30 1992 H 186.927 -3.82195 -4.46319 0
M  V30 1993 H 188.451 -3.22869 -5.18255 0
M  V30 1994 H 189.865 -4.62348 -3.38979 0
M  V30 1995 H 188.262 -5.25006 -2.9067 0
M  V30 1996 H 189.332 -4.54893 -1.67929 0
M  V30 1997 N 190.675 0.682077 -1.42076 0
M  V30 1998 C 191.605 1.80796 -1.47767 0
M  V30 1999 C 192.586 1.6677 -0.334954 0
M  V30 2000 O 193.771 1.863 -0.548264 0
M  V30 2001 C 190.901 3.19038 -1.37229 0
M  V30 2002 C 189.855 3.47789 -2.49453 0
M  V30 2003 C 189.181 4.8553 -2.23975 0
M  V30 2004 C 190.481 3.45411 -3.91776 0
M  V30 2005 H 192.175 1.7629 -2.41997 0
M  V30 2006 H 189.721 0.846721 -1.16476 0
M  V30 2007 H 191.674 3.97528 -1.39821 0
M  V30 2008 H 190.398 3.24204 -0.394907 0
M  V30 2009 H 189.057 2.71657 -2.46166 0
M  V30 2010 H 188.705 4.87337 -1.24547 0
M  V30 2011 H 188.405 5.0573 -2.99184 0
M  V30 2012 H 189.929 5.66312 -2.28304 0
M  V30 2013 H 191.343 4.13882 -3.96705 0
M  V30 2014 H 189.74 3.77145 -4.66778 0
M  V30 2015 H 190.81 2.44122 -4.18966 0
M  V30 2016 N 192.153 1.28127 0.917671 0
M  V30 2017 C 193.1 1.11717 2.0196 0
M  V30 2018 C 194.07 0.0153929 1.66093 0
M  V30 2019 O 195.255 0.179596 1.89953 0
M  V30 2020 C 192.395 0.780927 3.36148 0
M  V30 2021 C 191.508 1.96135 3.84909 0
M  V30 2022 C 190.643 1.56609 5.0759 0
M  V30 2023 C 189.682 2.71339 5.48673 0
M  V30 2024 N 188.819 2.32332 6.62545 0
M  V30 2025 H 193.659 2.06003 2.15329 0
M  V30 2026 H 191.196 1.02535 1.05475 0
M  V30 2027 H 193.154 0.56675 4.13333 0
M  V30 2028 H 191.784 -0.124998 3.22558 0
M  V30 2029 H 190.836 2.28777 3.03916 0
M  V30 2030 H 192.148 2.82165 4.1132 0
M  V30 2031 H 191.302 1.31374 5.92305 0
M  V30 2032 H 190.041 0.677014 4.82978 0
M  V30 2033 H 189.046 2.97276 4.62501 0
M  V30 2034 H 190.271 3.60882 5.75274 0
M  V30 2035 H 188.217 1.45889 6.39572 0
M  V30 2036 H 188.134 3.11899 6.88662 0
M  V30 2037 H 189.402 2.10371 7.50576 0
M  V30 2038 N 193.631 -1.12557 1.10312 0
M  V30 2039 C 194.581 -2.16331 0.720076 0
M  V30 2040 C 195.565 -1.58616 -0.270115 0
M  V30 2041 O 196.757 -1.76823 -0.0790507 0
M  V30 2042 C 193.886 -3.42963 0.152113 0
M  V30 2043 C 192.972 -4.07663 1.16927 0
M  V30 2044 N 193.363 -4.47392 2.35953 0
M  V30 2045 C 191.661 -4.34425 1.0095 0
M  V30 2046 C 192.362 -4.97932 3.0073 0
M  V30 2047 N 191.338 -4.93358 2.28252 0
M  V30 2048 H 195.14 -2.44813 1.62616 0
M  V30 2049 H 192.654 -1.29449 0.980654 0
M  V30 2050 H 194.651 -4.16664 -0.14037 0
M  V30 2051 H 193.311 -3.1595 -0.748701 0
M  V30 2052 H 194.322 -4.39802 2.73486 0
M  V30 2053 H 190.999 -4.17177 0.164134 0
M  V30 2054 H 192.389 -5.38397 4.01969 0
M  V30 2055 N 195.109 -0.891671 -1.2995 0
M  V30 2056 C 196.019 -0.367691 -2.31701 0
M  V30 2057 C 197.035 0.533486 -1.6562 0
M  V30 2058 O 198.211 0.424997 -1.96865 0
M  V30 2059 C 195.276 0.403406 -3.44345 0
M  V30 2060 C 194.337 -0.528328 -4.26037 0
M  V30 2061 C 193.57 0.206063 -5.33302 0
M  V30 2062 O 193.793 1.43119 -5.52153 0
M  V30 2063 O 192.727 -0.447281 -6.00236 0
M  V30 2064 H 196.553 -1.21163 -2.78484 0
M  V30 2065 H 194.138 -0.655725 -1.34241 0
M  V30 2066 H 196.02 0.839753 -4.12948 0
M  V30 2067 H 194.695 1.22354 -2.99685 0
M  V30 2068 H 193.602 -1.01362 -3.60106 0
M  V30 2069 H 194.935 -1.31465 -4.74318 0
M  V30 2070 N 196.587 1.43421 -0.653314 0
M  V30 2071 C 197.55 2.29182 0.0287951 0
M  V30 2072 C 198.55 1.42213 0.750465 0
M  V30 2073 O 199.74 1.63843 0.591701 0
M  V30 2074 C 196.872 3.24278 1.05151 0
M  V30 2075 H 198.065 2.90985 -0.725786 0
M  V30 2076 H 195.618 1.50702 -0.414545 0
M  V30 2077 H 196.353 2.6737 1.83532 0
M  V30 2078 H 196.138 3.88396 0.537687 0
M  V30 2079 H 197.628 3.88647 1.52786 0
M  V30 2080 N 198.065 0.39524 1.52563 0
M  V30 2081 C 199.013 -0.451859 2.28169 0
M  V30 2082 C 200.007 -1.05792 1.32304 0
M  V30 2083 O 201.213 -0.997718 1.49818 0
M  V30 2084 H 197.588 -0.164481 0.733792 0
M  V30 2085 H 199.559 0.207199 2.9768 0
M  V30 2086 C 198.308 -1.56385 3.10546 0
M  V30 2087 H 197.631 -1.10682 3.84174 0
M  V30 2088 H 199.071 -2.13067 3.66577 0
M  V30 2089 C 197.53 -2.52328 2.23231 0
M  V30 2090 O 198.06 -3.5588 1.86312 0
M  V30 2091 N 196.266 -2.22209 1.87274 0
M  V30 2092 H 195.813 -1.38033 2.17496 0
M  V30 2093 H 195.771 -2.86652 1.29143 0
M  V30 2094 N 199.544 -1.57102 0.125237 0
M  V30 2095 C 200.507 -2.14471 -0.80838 0
M  V30 2096 C 201.507 -1.0811 -1.19033 0
M  V30 2097 O 202.697 -1.33856 -1.11482 0
M  V30 2098 C 199.829 -2.69005 -2.09402 0
M  V30 2099 H 201.022 -2.98297 -0.309696 0
M  V30 2100 H 198.575 -1.55807 -0.124051 0
M  V30 2101 H 199.31 -1.88785 -2.63687 0
M  V30 2102 H 199.095 -3.46799 -1.82957 0
M  V30 2103 H 200.585 -3.13278 -2.76128 0
M  V30 2104 N 201.022 0.148545 -1.56898 0
M  V30 2105 C 201.952 1.18524 -2.01182 0
M  V30 2106 C 202.933 1.4489 -0.891123 0
M  V30 2107 O 204.118 1.55836 -1.15882 0
M  V30 2108 C 201.248 2.51879 -2.39112 0
M  V30 2109 C 200.202 2.40038 -3.54353 0
M  V30 2110 C 199.528 3.78089 -3.78091 0
M  V30 2111 C 200.828 1.88577 -4.87069 0
M  V30 2112 H 202.522 0.817029 -2.88036 0
M  V30 2113 H 200.068 0.391575 -1.38574 0
M  V30 2114 H 202.021 3.24627 -2.68692 0
M  V30 2115 H 200.745 2.90532 -1.49193 0
M  V30 2116 H 199.404 1.69742 -3.24936 0
M  V30 2117 H 199.052 4.14175 -2.85426 0
M  V30 2118 H 198.752 3.71028 -4.55645 0
M  V30 2119 H 200.276 4.52387 -4.10095 0
M  V30 2120 H 201.69 2.51117 -5.15377 0
M  V30 2121 H 200.087 1.9241 -5.68417 0
M  V30 2122 H 201.157 0.84136 -4.77545 0
M  V30 2123 N 202.5 1.5196 0.417844 0
M  V30 2124 C 203.748 1.65263 1.16329 0
M  V30 2125 C 204.069 0.380634 1.91249 0
M  V30 2126 O 203.339 -0.604214 1.86349 0
M  V30 2127 H 201.919 0.60912 0.432414 0
M  V30 2128 H 204.581 1.88969 0.477162 0
M  V30 2129 H 203.677 2.4896 1.88217 0
M  V30 2130 N 203.978 -0.674533 1.42435 0
M  V30 2131 C 204.941 -1.76986 1.45632 0
M  V30 2132 C 205.941 -1.5708 0.343871 0
M  V30 2133 O 207.131 -1.63367 0.604709 0
M  V30 2134 C 204.263 -3.15623 1.28822 0
M  V30 2135 H 205.456 -1.75539 2.43158 0
M  V30 2136 H 203.009 -0.884189 1.28887 0
M  V30 2137 H 203.744 -3.22696 0.322193 0
M  V30 2138 H 203.529 -3.31475 2.09444 0
M  V30 2139 H 205.019 -3.95537 1.33942 0
M  V30 2140 N 205.456 -1.28612 -0.910864 0
M  V30 2141 C 206.686 -1.1862 -1.69153 0
M  V30 2142 C 207.094 0.257324 -1.87442 0
M  V30 2143 O 206.437 1.18543 -1.40332 0
M  V30 2144 C 206.499 -1.81606 -3.10257 0
M  V30 2145 C 206.163 -3.30864 -3.15243 0
M  V30 2146 C 207.16 -4.27256 -2.96223 0
M  V30 2147 C 204.845 -3.71871 -3.37664 0
M  V30 2148 C 206.839 -5.62631 -2.99541 0
M  V30 2149 C 204.526 -5.07371 -3.40614 0
M  V30 2150 C 205.524 -6.02561 -3.21573 0
M  V30 2151 O 205.212 -7.35589 -3.2429 0
M  V30 2152 H 204.944 -0.412633 -0.535453 0
M  V30 2153 H 207.498 -1.70306 -1.14827 0
M  V30 2154 H 205.728 -1.24418 -3.66138 0
M  V30 2155 H 207.417 -1.66092 -3.70362 0
M  V30 2156 H 208.183 -3.9691 -2.78725 0
M  V30 2157 H 204.062 -2.98241 -3.5153 0
M  V30 2158 H 207.606 -6.36907 -2.84597 0
M  V30 2159 H 203.503 -5.37366 -3.57642 0
M  V30 2160 H 204.271 -7.44252 -3.40633 0
M  V30 2161 N 206.934 1.1197 -1.10907 0
M  V30 2162 C 208.18 1.8386 -0.855773 0
M  V30 2163 C 208.513 1.84134 0.617103 0
M  V30 2164 O 207.788 1.29041 1.45529 0
M  V30 2165 C 208.071 3.31305 -1.411 0
M  V30 2166 C 207.924 3.39456 -2.9511 0
M  V30 2167 C 209.243 4.2721 -1.05736 0
M  V30 2168 H 206.362 0.667545 -0.312334 0
M  V30 2169 H 209.004 1.31331 -1.37303 0
M  V30 2170 H 207.154 3.76169 -0.97105 0
M  V30 2171 H 208.826 3.03191 -3.47668 0
M  V30 2172 H 207.069 2.79849 -3.31462 0
M  V30 2173 H 207.74 4.43209 -3.29044 0
M  V30 2174 H 210.216 3.90497 -1.43706 0
M  V30 2175 H 209.092 5.28775 -1.47269 0
M  V30 2176 H 209.353 4.42088 0.0325958 0
M  V30 2177 N 208.412 0.89855 1.29475 0
M  V30 2178 C 209.661 0.519863 1.94885 0
M  V30 2179 C 209.974 -0.9383 1.71625 0
M  V30 2180 O 211.18 -1.42445 2.31131 0
M  V30 2181 C 209.636 0.878836 3.49005 0
M  V30 2182 C 209.244 2.35569 3.81066 0
M  V30 2183 C 210.988 0.570004 4.20656 0
M  V30 2184 C 208.895 2.65558 5.28425 0
M  V30 2185 H 207.825 0.190692 0.729488 0
M  V30 2186 H 210.476 1.09539 1.47219 0
M  V30 2187 H 208.858 0.232253 3.95318 0
M  V30 2188 H 210.032 3.04773 3.45616 0
M  V30 2189 H 208.347 2.63343 3.22552 0
M  V30 2190 H 210.944 0.770925 5.29113 0
M  V30 2191 H 211.287 -0.491404 4.1339 0
M  V30 2192 H 211.82 1.17438 3.8007 0
M  V30 2193 H 208.559 3.70493 5.40754 0
M  V30 2194 H 208.079 2.00977 5.65127 0
M  V30 2195 H 209.758 2.51765 5.96006 0
M  V30 2196 N 209.89 -1.43072 0.660911 0
M  V30 2197 C 211.12 -2.05769 0.185153 0
M  V30 2198 C 211.528 -1.49668 -1.15742 0
M  V30 2199 O 210.871 -0.625649 -1.72717 0
M  V30 2200 C 210.933 -3.59489 0.0278237 0
M  V30 2201 C 210.597 -4.38212 1.2969 0
M  V30 2202 C 211.594 -4.69772 2.22734 0
M  V30 2203 C 209.279 -4.7809 1.54063 0
M  V30 2204 C 211.273 -5.40129 3.38437 0
M  V30 2205 C 208.96 -5.4819 2.70058 0
M  V30 2206 C 209.958 -5.79132 3.62071 0
M  V30 2207 O 209.646 -6.47798 4.76039 0
M  V30 2208 H 209.378 -0.669873 0.0908086 0
M  V30 2209 H 211.932 -1.84436 0.90402 0
M  V30 2210 H 210.162 -3.79426 -0.746489 0
M  V30 2211 H 211.851 -4.03862 -0.406275 0
M  V30 2212 H 212.617 -4.39476 2.05149 0
M  V30 2213 H 208.496 -4.53408 0.833215 0
M  V30 2214 H 212.04 -5.64198 4.10277 0
M  V30 2215 H 207.937 -5.77902 2.87574 0
M  V30 2216 H 208.705 -6.66283 4.75404 0
M  V30 2217 N 211.368 -0.403325 -1.52352 0
M  V30 2218 C 212.614 0.174605 -2.02047 0
M  V30 2219 C 212.947 1.45282 -1.28867 0
M  V30 2220 O 212.222 1.90483 -0.393257 0
M  V30 2221 C 212.505 0.428238 -3.57545 0
M  V30 2222 C 212.358 -0.866248 -4.4138 0
M  V30 2223 C 213.677 1.21287 -4.23057 0
M  V30 2224 H 210.796 0.0619851 -0.734389 0
M  V30 2225 H 213.438 -0.53565 -1.82293 0
M  V30 2226 H 211.588 1.03327 -3.74507 0
M  V30 2227 H 213.26 -1.50265 -4.3614 0
M  V30 2228 H 211.503 -1.47851 -4.07827 0
M  V30 2229 H 212.174 -0.643249 -5.48239 0
M  V30 2230 H 214.65 0.700703 -4.10158 0
M  V30 2231 H 213.526 1.35909 -5.31808 0
M  V30 2232 H 213.787 2.23193 -3.81625 0
M  V30 2233 N 212.846 1.57033 -0.133567 0
M  V30 2234 C 213.778 2.13176 0.841944 0
M  V30 2235 C 214.791 1.07794 1.22001 0
M  V30 2236 O 215.98 1.35117 1.16643 0
M  V30 2237 C 213.08 2.62847 2.13926 0
M  V30 2238 C 212.253 3.92486 1.93064 0
M  V30 2239 C 211.312 4.27605 3.0666 0
M  V30 2240 O 210.338 4.96168 2.78937 0
M  V30 2241 N 211.54 3.861 4.33483 0
M  V30 2242 H 214.305 2.97503 0.362192 0
M  V30 2243 H 211.866 1.61821 0.05042 0
M  V30 2244 H 213.858 2.83363 2.88942 0
M  V30 2245 H 212.428 1.83319 2.53205 0
M  V30 2246 H 211.648 3.80732 1.02159 0
M  V30 2247 H 212.936 4.77225 1.76447 0
M  V30 2248 H 212.334 3.30828 4.58878 0
M  V30 2249 H 210.891 4.11694 5.05323 0
M  V30 2250 N 214.325 -0.140222 1.56975 0
M  V30 2251 C 215.288 -1.15689 1.97861 0
M  V30 2252 C 216.288 -1.3549 0.865974 0
M  V30 2253 O 217.478 -1.32367 1.13246 0
M  V30 2254 C 214.61 -2.51582 2.30042 0
M  V30 2255 H 215.803 -0.805971 2.88867 0
M  V30 2256 H 213.356 -0.383801 1.51515 0
M  V30 2257 H 214.091 -2.91632 1.41849 0
M  V30 2258 H 213.876 -2.38569 3.11171 0
M  V30 2259 H 215.366 -3.24792 2.62488 0
M  V30 2260 N 215.803 -1.52179 -0.40978 0
M  V30 2261 C 217.08 -1.56769 -1.16974 0
M  V30 2262 C 217.46 -0.348322 -2.08206 0
M  V30 2263 O 216.808 0.664862 -2.18613 0
M  V30 2264 C 217.018 -2.89603 -1.9476 0
M  V30 2265 C 218.366 -3.42579 -2.50849 0
M  V30 2266 O 219.39 -2.91338 -2.04941 0
M  V30 2267 O 218.249 -4.32054 -3.34652 0
M  V30 2268 H 215.343 -0.631439 -0.534054 0
M  V30 2269 H 217.889 -1.64507 -0.416613 0
M  V30 2270 H 216.661 -3.698 -1.27921 0
M  V30 2271 H 216.284 -2.85155 -2.77079 0
M  V30 2272 N 217.281 0.66697 -1.42791 0
M  V30 2273 C 218.511 1.45294 -1.46878 0
M  V30 2274 C 218.919 1.89027 -0.0809861 0
M  V30 2275 O 218.262 1.59219 0.916246 0
M  V30 2276 C 218.324 2.72908 -2.34012 0
M  V30 2277 C 217.988 2.51203 -3.81767 0
M  V30 2278 C 218.985 2.15302 -4.73224 0
M  V30 2279 C 216.67 2.65954 -4.26115 0
M  V30 2280 C 218.664 1.94431 -6.07022 0
M  V30 2281 C 216.351 2.44699 -5.59969 0
M  V30 2282 C 217.349 2.08992 -6.5024 0
M  V30 2283 O 217.037 1.87948 -7.81621 0
M  V30 2284 H 216.769 0.453306 -0.501487 0
M  V30 2285 H 219.323 0.826232 -1.88049 0
M  V30 2286 H 217.553 3.38089 -1.87703 0
M  V30 2287 H 219.242 3.34816 -2.29462 0
M  V30 2288 H 220.008 2.03495 -4.40244 0
M  V30 2289 H 215.887 2.92724 -3.56137 0
M  V30 2290 H 219.431 1.66484 -6.77443 0
M  V30 2291 H 215.328 2.56105 -5.9252 0
M  V30 2292 H 216.096 2.02483 -7.93059 0
M  V30 2293 N 218.759 1.29093 0.90403 0
M  V30 2294 C 220.007 1.16583 1.65085 0
M  V30 2295 C 220.328 -0.283933 1.92922 0
M  V30 2296 O 219.598 -1.19509 1.55224 0
M  V30 2297 H 218.178 0.428467 0.611903 0
M  V30 2298 H 220.84 1.61959 1.08422 0
M  V30 2299 H 219.936 1.71266 2.6091 0
M  V30 2300 N 220.237 -1.11381 1.11499 0
M  V30 2301 C 221.514 -1.7955 0.775965 0
M  V30 2302 C 221.894 -1.97859 -0.73588 0
M  V30 2303 O 221.242 -1.56376 -1.66609 0
M  V30 2304 C 221.452 -3.13196 1.53977 0
M  V30 2305 C 222.8 -3.88227 1.71944 0
M  V30 2306 O 223.824 -3.22887 1.50407 0
M  V30 2307 O 222.683 -5.05477 2.07738 0
M  V30 2308 H 219.777 -0.777728 0.28119 0
M  V30 2309 H 222.323 -1.18118 1.21845 0
M  V30 2310 H 221.095 -2.95229 2.56818 0
M  V30 2311 H 220.718 -3.82342 1.09088 0
M  V30 2312 N 221.715 -0.905404 -1.28997 0
M  V30 2313 C 222.992 -0.453513 -1.9027 0
M  V30 2314 C 223.372 1.06721 -1.82137 0
M  V30 2315 O 222.72 1.91159 -1.25182 0
M  V30 2316 C 222.93 -0.974494 -3.35119 0
M  V30 2317 C 224.278 -1.0216 -4.12127 0
M  V30 2318 O 225.302 -0.922557 -3.44046 0
M  V30 2319 O 224.161 -1.17121 -5.33802 0
M  V30 2320 H 221.255 -0.142347 -0.814657 0
M  V30 2321 H 223.801 -0.995642 -1.37423 0
M  V30 2322 H 222.573 -2.01848 -3.35221 0
M  V30 2323 H 222.196 -0.412706 -3.95452 0
M  V30 2324 N 223.193 1.4272 -0.668489 0
M  V30 2325 C 224.604 1.84793 -0.266151 0
M  V30 2326 C 224.955 1.55959 1.19043 0
M  V30 2327 O 224.08 1.01622 1.91055 0
M  V30 2328 C 224.675 3.35436 -0.476271 0
M  V30 2329 C 223.234 3.76182 -0.128113 0
M  V30 2330 C 222.381 2.66344 -0.771777 0
M  V30 2331 H 225.332 1.32656 -0.871098 0
M  V30 2332 H 225.353 3.79515 0.273561 0
M  V30 2333 H 224.865 3.5639 -1.53647 0
M  V30 2334 H 222.966 3.60836 0.928891 0
M  V30 2335 H 223.079 4.75766 -0.564231 0
M  V30 2336 H 221.443 2.53885 -0.203652 0
M  V30 2337 H 222.226 2.90123 -1.83531 0
M  V30 2338 N 224.671 0.411399 1.52136 0
M  V30 2339 C 225.634 -0.401089 2.25663 0
M  V30 2340 C 226.634 -0.971732 1.28117 0
M  V30 2341 O 227.824 -0.850254 1.52041 0
M  V30 2342 C 224.956 -1.56483 3.02863 0
M  V30 2343 H 226.149 0.24295 2.98914 0
M  V30 2344 H 223.702 0.163968 1.55438 0
M  V30 2345 H 224.437 -2.24567 2.33967 0
M  V30 2346 H 224.222 -1.16211 3.74483 0
M  V30 2347 H 225.712 -2.13951 3.58629 0
M  V30 2348 N 226.149 -1.5696 0.141893 0
M  V30 2349 C 227.395 -1.9625 -0.511248 0
M  V30 2350 C 227.728 -1.02654 -1.64851 0
M  V30 2351 O 227.003 -0.0679676 -1.94381 0
M  V30 2352 C 227.286 -3.45285 -1.02227 0
M  V30 2353 C 227.139 -4.49658 0.113138 0
M  V30 2354 C 228.458 -3.96698 -1.90574 0
M  V30 2355 H 225.577 -0.713567 -0.184367 0
M  V30 2356 H 228.219 -1.88698 0.222087 0
M  V30 2357 H 226.369 -3.51852 -1.64719 0
M  V30 2358 H 228.041 -4.55174 0.749302 0
M  V30 2359 H 226.284 -4.26857 0.773026 0
M  V30 2360 H 226.955 -5.51258 -0.286053 0
M  V30 2361 H 229.431 -3.92578 -1.37918 0
M  V30 2362 H 228.307 -5.01453 -2.2324 0
M  V30 2363 H 228.568 -3.3875 -2.84079 0
M  V30 2364 N 227.627 0.131896 -1.57047 0
M  V30 2365 C 228.59 1.14638 -1.98471 0
M  V30 2366 C 229.59 1.35029 -0.873148 0
M  V30 2367 O 230.78 1.31764 -1.13946 0
M  V30 2368 C 227.912 2.50358 -2.31373 0
M  V30 2369 H 229.105 0.79064 -2.8929 0
M  V30 2370 H 226.658 0.375761 -1.51716 0
M  V30 2371 H 227.393 2.90876 -1.43393 0
M  V30 2372 H 227.178 2.36915 -3.12432 0
M  V30 2373 H 228.668 3.23395 -2.64207 0
M  V30 2374 N 229.106 1.52395 0.401703 0
M  V30 2375 C 230.036 1.79231 1.49661 0
M  V30 2376 C 231.017 0.643654 1.57452 0
M  V30 2377 O 232.202 0.889989 1.72606 0
M  V30 2378 C 229.332 1.94971 2.87409 0
M  V30 2379 C 228.286 3.10604 2.94465 0
M  V30 2380 C 227.612 3.11577 4.34538 0
M  V30 2381 C 228.912 4.49921 2.6527 0
M  V30 2382 H 230.606 2.70917 1.27454 0
M  V30 2383 H 228.152 1.30362 0.6117 0
M  V30 2384 H 230.105 2.12328 3.63999 0
M  V30 2385 H 228.829 0.999632 3.10926 0
M  V30 2386 H 227.488 2.93009 2.20321 0
M  V30 2387 H 227.136 2.14277 4.55076 0
M  V30 2388 H 226.836 3.89247 4.40183 0
M  V30 2389 H 228.36 3.31073 5.13053 0
M  V30 2390 H 229.774 4.67683 3.31581 0
M  V30 2391 H 228.171 5.29564 2.82281 0
M  V30 2392 H 229.241 4.57507 1.60671 0
M  V30 2393 N 230.584 -0.659388 1.43143 0
M  V30 2394 C 231.814 -1.44513 1.47646 0
M  V30 2395 C 232.222 -1.88981 0.0910095 0
M  V30 2396 O 231.565 -1.59702 -0.907789 0
M  V30 2397 C 231.627 -2.71663 2.35456 0
M  V30 2398 C 231.291 -2.49175 3.83094 0
M  V30 2399 C 232.288 -2.1279 4.74359 0
M  V30 2400 C 229.973 -2.63691 4.27519 0
M  V30 2401 C 231.967 -1.9121 6.08044 0
M  V30 2402 C 229.654 -2.41726 5.61259 0
M  V30 2403 C 230.652 -2.0554 6.51339 0
M  V30 2404 O 230.34 -1.838 7.82606 0
M  V30 2405 H 230.072 -0.45064 0.503884 0
M  V30 2406 H 232.626 -0.816248 1.88485 0
M  V30 2407 H 230.856 -3.37089 1.89493 0
M  V30 2408 H 232.545 -3.33595 2.31235 0
M  V30 2409 H 233.311 -2.01157 4.41317 0
M  V30 2410 H 229.19 -2.90832 3.57684 0
M  V30 2411 H 232.734 -1.62889 6.78316 0
M  V30 2412 H 228.631 -2.52959 5.9387 0
M  V30 2413 H 229.399 -1.98275 7.94122 0
M  V30 2414 N 232.062 -1.29571 -0.897171 0
M  V30 2415 C 233.29 -1.20583 -1.68129 0
M  V30 2416 C 233.705 0.233181 -1.87354 0
M  V30 2417 O 233.062 1.15579 -1.41236 0
M  V30 2418 C 233.113 -1.91772 -3.06441 0
M  V30 2419 O 232.834 -3.30053 -2.88091 0
M  V30 2420 C 234.335 -1.89291 -4.00854 0
M  V30 2421 H 231.555 -0.417826 -0.525036 0
M  V30 2422 H 234.099 -1.70987 -1.12177 0
M  V30 2423 H 232.254 -1.45196 -3.59161 0
M  V30 2424 H 232.668 -3.65942 -3.75748 0
M  V30 2425 H 234.142 -2.43662 -4.95311 0
M  V30 2426 H 234.619 -0.869014 -4.30517 0
M  V30 2427 H 235.225 -2.35622 -3.54066 0
M  V30 2428 N 233.54 1.10788 -1.12088 0
M  V30 2429 C 234.487 2.17025 -0.785407 0
M  V30 2430 C 235.457 1.64265 0.246191 0
M  V30 2431 O 236.642 1.90412 0.121584 0
M  V30 2432 C 233.782 3.44249 -0.242177 0
M  V30 2433 C 232.895 4.1098 -1.33115 0
M  V30 2434 C 232.03 5.25911 -0.747741 0
M  V30 2435 C 231.069 5.84538 -1.81609 0
M  V30 2436 N 230.206 6.90853 -1.25167 0
M  V30 2437 H 235.046 2.45066 -1.69548 0
M  V30 2438 H 232.583 1.20297 -0.846582 0
M  V30 2439 H 234.541 4.17101 0.0908026 0
M  V30 2440 H 233.171 3.16571 0.631072 0
M  V30 2441 H 232.223 3.36133 -1.78097 0
M  V30 2442 H 233.535 4.50601 -2.13917 0
M  V30 2443 H 232.689 6.056 -0.365216 0
M  V30 2444 H 231.428 4.87614 0.0915188 0
M  V30 2445 H 230.433 5.03522 -2.20785 0
M  V30 2446 H 231.658 6.249 -2.6585 0
M  V30 2447 H 229.604 6.54562 -0.434174 0
M  V30 2448 H 229.521 7.29166 -1.99633 0
M  V30 2449 H 230.789 7.7433 -0.896259 0
M  V30 2450 N 235.018 0.912232 1.28515 0
M  V30 2451 C 235.948 0.416403 2.29757 0
M  V30 2452 C 236.929 -0.515194 1.6211 0
M  V30 2453 O 238.114 -0.423253 1.89532 0
M  V30 2454 C 235.244 -0.34572 3.45575 0
M  V30 2455 C 234.198 0.496599 4.25109 0
M  V30 2456 C 233.524 -0.393771 5.33248 0
M  V30 2457 C 234.824 1.75307 4.92001 0
M  V30 2458 H 236.518 1.26249 2.7148 0
M  V30 2459 H 234.064 0.608515 1.30511 0
M  V30 2460 H 236.017 -0.703422 4.15488 0
M  V30 2461 H 234.741 -1.2257 3.02728 0
M  V30 2462 H 233.4 0.8368 3.56922 0
M  V30 2463 H 233.048 -1.27225 4.86644 0
M  V30 2464 H 232.748 0.166209 5.87365 0
M  V30 2465 H 234.272 -0.747389 6.06009 0
M  V30 2466 H 235.686 1.46437 5.54283 0
M  V30 2467 H 234.083 2.25534 5.56106 0
M  V30 2468 H 235.153 2.48176 4.16577 0
M  V30 2469 N 236.496 -1.42363 0.676048 0
M  V30 2470 C 237.744 -2.01123 0.198437 0
M  V30 2471 C 238.065 -1.53731 -1.19966 0
M  V30 2472 O 237.335 -0.759518 -1.80577 0
M  V30 2473 H 235.915 -0.743678 0.0703721 0
M  V30 2474 H 238.577 -1.74263 0.872837 0
M  V30 2475 H 237.673 -3.11454 0.200686 0
M  V30 2476 N 237.974 -0.419461 -1.51915 0
M  V30 2477 C 239.223 0.154346 -2.01109 0
M  V30 2478 C 239.536 1.45338 -1.30905 0
M  V30 2479 O 240.742 2.10906 -1.7097 0
M  V30 2480 C 239.198 0.325615 -3.58424 0
M  V30 2481 C 238.806 -0.961934 -4.37551 0
M  V30 2482 C 240.55 0.854155 -4.15818 0
M  V30 2483 C 238.457 -0.757287 -5.86531 0
M  V30 2484 H 237.387 0.0614563 -0.751491 0
M  V30 2485 H 240.038 -0.54649 -1.75173 0
M  V30 2486 H 238.42 1.08903 -3.80731 0
M  V30 2487 H 239.594 -1.7323 -4.26999 0
M  V30 2488 H 237.909 -1.41766 -3.91524 0
M  V30 2489 H 240.506 1.02346 -5.24814 0
M  V30 2490 H 240.849 1.83172 -3.73837 0
M  V30 2491 H 241.382 0.149528 -3.97519 0
M  V30 2492 H 238.121 -1.70671 -6.32892 0
M  V30 2493 H 237.641 -0.0264061 -5.99794 0
M  V30 2494 H 239.32 -0.403482 -6.45741 0
M  V30 2495 N 239.452 1.56882 -0.150215 0
M  V30 2496 C 240.868 1.58263 0.20617 0
M  V30 2497 C 241.068 1.16464 1.64434 0
M  V30 2498 O 240.124 0.866422 2.3717 0
M  V30 2499 C 241.437 3.00649 -0.0555025 0
M  V30 2500 C 242.985 3.12999 0.00795388 0
M  V30 2501 C 243.46 4.5744 -0.226429 0
M  V30 2502 N 244.951 4.62875 -0.173469 0
M  V30 2503 C 245.686 5.72454 -0.329288 0
M  V30 2504 N 245.182 6.90669 -0.543005 0
M  V30 2505 N 246.975 5.61467 -0.266666 0
M  V30 2506 H 239.126 1.82345 -1.08922 0
M  V30 2507 H 241.389 0.844149 -0.431413 0
M  V30 2508 H 241.095 3.3563 -1.05096 0
M  V30 2509 H 240.969 3.71337 0.66246 0
M  V30 2510 H 243.356 2.77857 0.993966 0
M  V30 2511 H 243.437 2.4479 -0.742388 0
M  V30 2512 H 243.081 4.93287 -1.20956 0
M  V30 2513 H 243.011 5.2378 0.544274 0
M  V30 2514 H 245.502 3.77898 -0.0130709 0
M  V30 2515 H 245.815 7.70045 -0.651922 0
M  V30 2516 H 244.16 6.92581 -0.579366 0
M  V30 2517 H 247.351 4.67992 -0.100441 0
M  V30 2518 H 247.524 6.46816 -0.391535 0
M  V30 2519 N 240.93 -0.123565 1.57115 0
M  V30 2520 C 241.84 -1.17074 2.033 0
M  V30 2521 C 242.856 -1.4561 0.952559 0
M  V30 2522 O 244.032 -1.56817 1.26374 0
M  V30 2523 C 241.097 -2.47857 2.42421 0
M  V30 2524 C 240.158 -2.26758 3.64526 0
M  V30 2525 C 239.391 -3.51305 4.01771 0
M  V30 2526 O 239.614 -4.5843 3.39409 0
M  V30 2527 O 238.548 -3.42578 4.94898 0
M  V30 2528 H 242.374 -0.808555 2.92739 0
M  V30 2529 H 239.959 -0.334027 1.45618 0
M  V30 2530 H 241.841 -3.2492 2.68338 0
M  V30 2531 H 240.516 -2.83558 1.5613 0
M  V30 2532 H 239.423 -1.47569 3.43765 0
M  V30 2533 H 240.756 -1.95963 4.51508 0
M  V30 2534 N 242.408 -1.52605 -0.393616 0
M  V30 2535 C 243.318 -1.79971 -1.50492 0
M  V30 2536 C 244.334 -0.686181 -1.59899 0
M  V30 2537 O 245.51 -0.973274 -1.76322 0
M  V30 2538 C 242.575 -1.95867 -2.86072 0
M  V30 2539 C 241.636 -3.19781 -2.86424 0
M  V30 2540 C 240.869 -3.34909 -4.15538 0
M  V30 2541 O 241.092 -2.54948 -5.10253 0
M  V30 2542 O 240.026 -4.28141 -4.23059 0
M  V30 2543 H 243.852 -2.74328 -1.30299 0
M  V30 2544 H 241.437 -1.3764 -0.581005 0
M  V30 2545 H 243.319 -2.08056 -3.66457 0
M  V30 2546 H 241.994 -1.04699 -3.063 0
M  V30 2547 H 240.901 -3.13038 -2.04837 0
M  V30 2548 H 242.234 -4.1078 -2.71147 0
M  V30 2549 N 243.887 0.651787 -1.4349 0
M  V30 2550 C 245.133 1.41376 -1.45398 0
M  V30 2551 C 245.466 1.94041 -0.0784823 0
M  V30 2552 O 244.741 1.72379 0.900878 0
M  V30 2553 C 245.024 2.59414 -2.49752 0
M  V30 2554 C 244.877 2.12232 -3.96582 0
M  V30 2555 C 246.196 3.61626 -2.50827 0
M  V30 2556 H 243.315 0.512719 -0.529422 0
M  V30 2557 H 245.957 0.738796 -1.75048 0
M  V30 2558 H 244.107 3.16997 -2.246 0
M  V30 2559 H 245.779 1.59639 -4.32797 0
M  V30 2560 H 244.022 1.43592 -4.09346 0
M  V30 2561 H 244.693 2.9712 -4.65214 0
M  V30 2562 H 247.169 3.13805 -2.7325 0
M  V30 2563 H 246.045 4.41766 -3.25783 0
M  V30 2564 H 246.306 4.14314 -1.5426 0
M  V30 2565 N 245.365 1.30045 0.890287 0
M  V30 2566 C 246.298 1.10301 1.99772 0
M  V30 2567 C 247.276 0.0121631 1.62595 0
M  V30 2568 O 248.46 0.16469 1.87779 0
M  V30 2569 C 245.587 0.681125 3.31781 0
M  V30 2570 C 244.633 1.77206 3.87944 0
M  V30 2571 S 245.466 3.37335 4.15891 0
M  V30 2572 C 246.622 2.97036 5.50927 0
M  V30 2573 H 246.855 2.04057 2.16213 0
M  V30 2574 H 244.388 1.14299 1.03804 0
M  V30 2575 H 246.346 0.444439 4.08087 0
M  V30 2576 H 245.007 -0.236981 3.13205 0
M  V30 2577 H 244.2 1.42903 4.83316 0
M  V30 2578 H 243.802 1.96275 3.18358 0
M  V30 2579 H 246.094 2.44666 6.31779 0
M  V30 2580 H 247.037 3.91296 5.90164 0
M  V30 2581 H 247.445 2.35057 5.13233 0
M  V30 2582 N 246.843 -1.10192 1.12674 0
M  V30 2583 C 247.793 -2.14754 0.765801 0
M  V30 2584 C 248.777 -1.59154 -0.236409 0
M  V30 2585 O 249.969 -1.76951 -0.0415261 0
M  V30 2586 C 247.098 -3.42563 0.224827 0
M  V30 2587 C 246.184 -4.05091 1.25548 0
M  V30 2588 N 246.575 -4.42287 2.4539 0
M  V30 2589 C 244.873 -4.32186 1.10142 0
M  V30 2590 C 245.574 -4.91441 3.11224 0
M  V30 2591 N 244.55 -4.88405 2.38666 0
M  V30 2592 H 248.352 -2.41309 1.67772 0
M  V30 2593 H 245.866 -1.27339 1.00789 0
M  V30 2594 H 247.863 -4.16868 -0.0519578 0
M  V30 2595 H 246.523 -3.17467 -0.681515 0
M  V30 2596 H 247.534 -4.33902 2.82754 0
M  V30 2597 H 244.211 -4.16735 0.252587 0
M  V30 2598 H 245.601 -5.29749 4.13298 0
M  V30 2599 N 248.321 -0.919034 -1.28029 0
M  V30 2600 C 249.568 -0.554934 -1.94748 0
M  V30 2601 C 249.896 0.90231 -1.72304 0
M  V30 2602 O 249.151 1.65767 -1.04018 0
M  V30 2603 C 249.45 -0.816855 -3.4794 0
M  V30 2604 C 249.116 -2.25448 -3.90492 0
M  V30 2605 C 247.778 -2.64752 -4.01821 0
M  V30 2606 C 250.13 -3.18977 -4.12193 0
M  V30 2607 C 247.458 -3.96727 -4.32232 0
M  V30 2608 C 249.81 -4.50523 -4.44086 0
M  V30 2609 C 248.474 -4.89673 -4.53626 0
M  V30 2610 H 247.744 -0.203065 -0.712633 0
M  V30 2611 H 250.391 -1.16136 -1.52265 0
M  V30 2612 H 248.696 -0.127677 -3.91592 0
M  V30 2613 H 250.393 -0.514238 -3.97689 0
M  V30 2614 H 246.983 -1.93952 -3.82205 0
M  V30 2615 H 251.167 -2.89817 -4.02889 0
M  V30 2616 H 246.423 -4.26754 -4.37825 0
M  V30 2617 H 250.597 -5.23005 -4.59825 0
M  V30 2618 H 248.224 -5.91969 -4.76946 0
M  V30 2619 N 249.799 1.42003 -0.683588 0
M  V30 2620 C 251.076 1.95112 -0.138075 0
M  V30 2621 C 251.456 1.62359 1.34918 0
M  V30 2622 O 250.804 0.924311 2.08971 0
M  V30 2623 C 251.014 3.46505 -0.416581 0
M  V30 2624 C 252.362 4.23254 -0.337834 0
M  V30 2625 O 253.386 3.54468 -0.35082 0
M  V30 2626 O 252.245 5.45743 -0.287596 0
M  V30 2627 H 249.339 0.826961 -0.00797996 0
M  V30 2628 H 251.885 1.51784 -0.758924 0
M  V30 2629 H 250.657 3.63582 -1.4465 0
M  V30 2630 H 250.28 3.969 0.235839 0
M  V30 2631 N 251.277 0.427512 1.51691 0
M  V30 2632 C 252.526 -0.143679 2.01188 0
M  V30 2633 C 252.839 -1.44642 1.31674 0
M  V30 2634 O 254.045 -2.09997 1.72086 0
M  V30 2635 C 252.501 -0.306602 3.58592 0
M  V30 2636 C 252.109 0.985125 4.37035 0
M  V30 2637 C 253.853 -0.832091 4.16265 0
M  V30 2638 C 251.76 0.788382 5.86122 0
M  V30 2639 H 250.69 -0.0574701 0.751807 0
M  V30 2640 H 253.341 0.555772 1.74881 0
M  V30 2641 H 251.723 -1.06882 3.81303 0
M  V30 2642 H 252.897 1.75492 4.26074 0
M  V30 2643 H 251.212 1.4384 3.90767 0
M  V30 2644 H 253.809 -0.995617 5.25349 0
M  V30 2645 H 254.152 -1.81186 3.74803 0
M  V30 2646 H 254.685 -0.128444 3.97593 0
M  V30 2647 H 251.424 1.74025 6.31978 0
M  V30 2648 H 250.944 0.0582143 5.99772 0
M  V30 2649 H 252.623 0.437722 6.45518 0
M  V30 2650 N 252.755 -1.56801 0.158532 0
M  V30 2651 C 254.032 -1.88131 -0.535357 0
M  V30 2652 C 254.412 -1.06638 -1.82186 0
M  V30 2653 O 253.76 -0.156533 -2.27963 0
M  V30 2654 C 253.97 -3.39949 -0.789653 0
M  V30 2655 C 255.318 -4.09416 -1.12533 0
M  V30 2656 O 256.342 -3.45194 -0.878622 0
M  V30 2657 O 255.201 -5.22855 -1.59014 0
M  V30 2658 H 252.295 -0.780143 -0.27442 0
M  V30 2659 H 254.841 -1.68564 0.19601 0
M  V30 2660 H 253.613 -3.91115 0.120353 0
M  V30 2661 H 253.236 -3.65084 -1.57479 0
M  V30 2662 N 254.233 0.115231 -1.57178 0
M  V30 2663 C 255.644 0.67197 -1.74188 0
M  V30 2664 C 255.995 1.80125 -0.777777 0
M  V30 2665 O 255.12 2.16346 0.0484376 0
M  V30 2666 C 255.715 1.22573 -3.1585 0
M  V30 2667 C 254.274 1.72872 -3.34353 0
M  V30 2668 C 253.421 0.629972 -2.70049 0
M  V30 2669 H 256.372 -0.110712 -1.58313 0
M  V30 2670 H 256.393 2.09535 -3.17609 0
M  V30 2671 H 255.905 0.403598 -3.85996 0
M  V30 2672 H 254.006 2.5755 -2.69256 0
M  V30 2673 H 254.119 1.83557 -4.42542 0
M  V30 2674 H 252.483 1.0645 -2.31388 0
M  V30 2675 H 253.266 -0.181241 -3.42821 0
M  V30 2676 N 255.711 1.52812 0.385517 0
M  V30 2677 C 256.936 1.72207 1.15583 0
M  V30 2678 C 257.361 0.441034 1.82857 0
M  V30 2679 O 256.719 -0.603465 1.70962 0
M  V30 2680 C 256.767 2.87476 2.17692 0
M  V30 2681 O 255.871 2.54693 3.24354 0
M  V30 2682 H 255.212 0.572526 0.336319 0
M  V30 2683 H 257.742 1.99618 0.448744 0
M  V30 2684 H 257.752 3.13072 2.6163 0
M  V30 2685 H 256.427 3.80408 1.68115 0
M  V30 2686 H 255.004 2.3985 2.85529 0
M  V30 2687 N 257.189 -0.644168 1.43834 0
M  V30 2688 C 258.417 -1.43147 1.49387 0
M  V30 2689 C 258.832 -1.88452 0.114583 0
M  V30 2690 O 258.189 -1.60047 -0.876989 0
M  V30 2691 C 258.24 -2.66046 2.44748 0
M  V30 2692 O 257.961 -2.22633 3.77314 0
M  V30 2693 C 259.462 -3.59311 2.59635 0
M  V30 2694 H 256.682 -0.439447 0.507077 0
M  V30 2695 H 259.226 -0.78895 1.88669 0
M  V30 2696 H 257.381 -3.26418 2.08638 0
M  V30 2697 H 257.795 -3.02216 4.28679 0
M  V30 2698 H 259.269 -4.42187 3.30416 0
M  V30 2699 H 259.746 -4.07259 1.64427 0
M  V30 2700 H 260.352 -3.04816 2.96593 0
M  V30 2701 N 258.668 -1.30515 -0.883378 0
M  V30 2702 C 259.631 -1.1701 -1.97082 0
M  V30 2703 C 260.631 -0.10089 -1.60483 0
M  V30 2704 O 261.821 -0.349127 -1.70666 0
M  V30 2705 C 258.953 -0.793045 -3.31547 0
M  V30 2706 H 260.146 -2.13622 -2.10489 0
M  V30 2707 H 257.699 -1.13935 -1.06998 0
M  V30 2708 H 258.434 0.172499 -3.23841 0
M  V30 2709 H 258.219 -1.56576 -3.5948 0
M  V30 2710 H 259.709 -0.722073 -4.1131 0
M  V30 2711 N 260.146 1.09593 -1.13257 0
M  V30 2712 C 261.374 1.855 -0.916378 0
M  V30 2713 C 261.789 1.81069 0.534738 0
M  V30 2714 O 261.146 1.20562 1.37007 0
M  V30 2715 C 261.197 3.33546 -1.39388 0
M  V30 2716 O 260.918 3.37927 -2.78813 0
M  V30 2717 C 262.419 4.26299 -1.21588 0
M  V30 2718 H 259.639 0.585991 -0.326887 0
M  V30 2719 H 262.183 1.38488 -1.5047 0
M  V30 2720 H 260.338 3.77992 -0.848597 0
M  V30 2721 H 260.752 4.30254 -2.9997 0
M  V30 2722 H 262.226 5.28341 -1.59876 0
M  V30 2723 H 262.703 4.38918 -0.157376 0
M  V30 2724 H 263.309 3.87668 -1.7491 0
M  V30 2725 O 261.663 1.05716 1.22092 0
M  V30 2726 H 262.354 0.735773 1.79182 0
M  V30 END ATOM
M  V30 BEGIN BOND
M  V30 END BOND
M  V30 END CTAB
M  END
$$$$
