drugbank_target|P62619 2-C-methyl-D-erythritol 2,4-cyclodiphosphate synthase (DB01859; DB02552; DB03403; DB03687; DB03961; DB04555)
 OpenBabel12092119523D

  0  0  0     0  0            999 V3000
M  V30 BEGIN CTAB
M  V30 COUNTS 2395 2417 0 0 0
M  V30 BEGIN ATOM
M  V30 1 H -0.908 1.98254 -0.117106 0
M  V30 2 N 0 1.576 0 0
M  V30 3 C 0.933 2.03868 1.02534 0
M  V30 4 C 1.911 0.928543 1.3348 0
M  V30 5 O 3.095 1.19667 1.45644 0
M  V30 6 C 0.222 2.43627 2.35294 0
M  V30 7 C -0.732 3.65373 2.2001 0
M  V30 8 S 0.101 5.13292 1.52614 0
M  V30 9 C 1.257 5.56322 2.86805 0
M  V30 10 H 1.49 2.90518 0.631377 0
M  V30 11 H -0.977 1.52953 0.210867 0
M  V30 12 H 0.981 2.67203 3.11629 0
M  V30 13 H -0.358 1.57376 2.7183 0
M  V30 14 H -1.165 3.90944 3.18086 0
M  V30 15 H -1.563 3.418 1.51819 0
M  V30 16 H 0.729 5.58782 3.83104 0
M  V30 17 H 1.672 6.56266 2.65933 0
M  V30 18 H 2.08 4.83886 2.90714 0
M  V30 19 N 1.4781 -0.272755 1.55222 0
M  V30 20 C 2.8941 -0.619959 1.47067 0
M  V30 21 C 3.0941 -1.895 0.684978 0
M  V30 22 O 2.1501 -2.51675 0.203931 0
M  V30 23 C 3.4631 -0.746693 2.91282 0
M  V30 24 C 5.0111 -0.840731 3.01497 0
M  V30 25 C 5.4861 -0.99924 4.46967 0
M  V30 26 N 6.9771 -1.06476 4.50796 0
M  V30 27 C 7.7121 -1.20621 5.6057 0
M  V30 28 N 7.2081 -1.31483 6.80209 0
M  V30 29 N 9.0011 -1.23733 5.48312 0
M  V30 30 H 1.1521 0.564606 2.04758 0
M  V30 31 H 3.4151 0.191177 0.928523 0
M  V30 32 H 3.1211 0.119753 3.51496 0
M  V30 33 H 2.9951 -1.6269 3.40311 0
M  V30 34 H 5.3821 -1.69764 2.41379 0
M  V30 35 H 5.4631 0.0640874 2.5572 0
M  V30 36 H 5.1071 -0.146984 5.07687 0
M  V30 37 H 5.0371 -1.91871 4.90401 0
M  V30 38 H 7.5281 -0.993196 3.64615 0
M  V30 39 H 7.8411 -1.42111 7.59621 0
M  V30 40 H 6.1861 -1.28487 6.8302 0
M  V30 41 H 9.3771 -1.14877 4.53785 0
M  V30 42 H 9.5501 -1.34412 6.33906 0
M  V30 43 N 2.9562 -1.48159 -0.537278 0
M  V30 44 C 4.2052 -1.5506 -1.28993 0
M  V30 45 C 4.5182 -0.226211 -1.94288 0
M  V30 46 O 5.7242 -0.173395 -2.70946 0
M  V30 47 C 4.1802 -2.73429 -2.34018 0
M  V30 48 C 3.7882 -4.1248 -1.74825 0
M  V30 49 C 5.5322 -2.89638 -3.10339 0
M  V30 50 C 3.4392 -5.22121 -2.77747 0
M  V30 51 H 2.3692 -0.577231 -0.485098 0
M  V30 52 H 5.0202 -1.74478 -0.568317 0
M  V30 53 H 3.4022 -2.47431 -3.09182 0
M  V30 54 H 4.5762 -4.48466 -1.05899 0
M  V30 55 H 2.8912 -4.01327 -1.11022 0
M  V30 56 H 5.4882 -3.68718 -3.87235 0
M  V30 57 H 5.8312 -1.9882 -3.65754 0
M  V30 58 H 6.3642 -3.15502 -2.42288 0
M  V30 59 H 3.1032 -6.1488 -2.27161 0
M  V30 60 H 2.6232 -4.90631 -3.45024 0
M  V30 61 H 4.3022 -5.49924 -3.4087 0
M  V30 62 N 4.4343 0.785586 -1.36625 0
M  V30 63 C 5.6823 1.54057 -1.30808 0
M  V30 64 C 6.0033 1.94683 0.111157 0
M  V30 65 O 5.2733 1.65241 1.05224 0
M  V30 66 H 3.8533 0.571354 -0.481211 0
M  V30 67 H 6.5153 0.935821 -1.70963 0
M  V30 68 H 5.6113 2.44637 -1.93801 0
M  V30 69 N 5.9124 1.20967 1.01018 0
M  V30 70 C 6.8624 0.93182 2.08089 0
M  V30 71 C 7.8464 -0.110898 1.60517 0
M  V30 72 O 9.0384 0.0973392 1.76732 0
M  V30 73 C 6.1674 0.492719 3.39746 0
M  V30 74 C 5.2534 1.56922 3.94 0
M  V30 75 N 5.6444 2.79312 4.21686 0
M  V30 76 C 3.9424 1.43688 4.2222 0
M  V30 77 C 4.6434 3.48797 4.65527 0
M  V30 78 N 3.6194 2.76224 4.68189 0
M  V30 79 H 7.4214 1.86175 2.27412 0
M  V30 80 H 4.9354 1.10463 1.19045 0
M  V30 81 H 6.9324 0.275044 4.15992 0
M  V30 82 H 5.5924 -0.430509 3.21833 0
M  V30 83 H 6.6034 3.15903 4.10397 0
M  V30 84 H 3.2804 0.578548 4.13472 0
M  V30 85 H 4.6704 4.53561 4.95714 0
M  V30 86 N 7.3905 -1.2043 1.01659 0
M  V30 87 C 8.6385 -1.89423 0.704522 0
M  V30 88 C 8.9595 -1.79231 -0.768197 0
M  V30 89 O 8.2295 -1.1947 -1.55254 0
M  V30 90 H 6.8095 -0.701178 0.257602 0
M  V30 91 H 9.4715 -1.4626 1.28818 0
M  V30 92 H 8.5675 -2.96052 0.987916 0
M  V30 93 N 8.8686 -0.792821 -1.36206 0
M  V30 94 C 10.1156 -0.366786 -1.99151 0
M  V30 95 C 10.4436 1.06243 -1.62919 0
M  V30 96 O 9.6986 1.74927 -0.877442 0
M  V30 97 C 9.9976 -0.481501 -3.54142 0
M  V30 98 C 9.6636 -1.87202 -4.10203 0
M  V30 99 C 8.3256 -2.25248 -4.25226 0
M  V30 100 C 10.6776 -2.78237 -4.40719 0
M  V30 101 C 8.0056 -3.53723 -4.68078 0
M  V30 102 C 10.3576 -4.06144 -4.85005 0
M  V30 103 C 9.0216 -4.44207 -4.98234 0
M  V30 104 H 8.2916 -0.134217 -0.728743 0
M  V30 105 H 10.9386 -1.01094 -1.62641 0
M  V30 106 H 9.2436 0.246146 -3.91026 0
M  V30 107 H 10.9406 -0.132844 -4.0078 0
M  V30 108 H 7.5306 -1.56639 -3.98951 0
M  V30 109 H 11.7146 -2.50097 -4.28679 0
M  V30 110 H 6.9706 -3.8308 -4.76508 0
M  V30 111 H 11.1446 -4.76796 -5.07581 0
M  V30 112 H 8.7716 -5.43814 -5.31197 0
M  V30 113 N 10.3467 1.47872 -0.545128 0
M  V30 114 C 11.6237 1.9554 0.0485222 0
M  V30 115 C 12.0037 1.4876 1.49779 0
M  V30 116 O 11.3517 0.720925 2.16829 0
M  V30 117 C 11.5617 3.48898 -0.084417 0
M  V30 118 C 12.9097 4.24547 0.0671239 0
M  V30 119 O 13.9337 3.56198 -0.0113649 0
M  V30 120 O 12.7927 5.45999 0.233882 0
M  V30 121 H 9.8867 0.823957 0.0708773 0
M  V30 122 H 12.4327 1.58327 -0.610798 0
M  V30 123 H 11.2047 3.75714 -1.09337 0
M  V30 124 H 10.8277 3.92845 0.613066 0
M  V30 125 N 11.8248 0.280983 1.55075 0
M  V30 126 C 13.0708 -0.33461 2.00021 0
M  V30 127 C 13.4038 -1.55063 1.16915 0
M  V30 128 O 12.6788 -1.93006 0.240646 0
M  V30 129 C 12.9618 -0.711007 3.53011 0
M  V30 130 C 12.8148 0.512766 4.46868 0
M  V30 131 C 14.1338 -1.54522 4.12081 0
M  V30 132 H 11.2528 -0.120147 0.727141 0
M  V30 133 H 13.8948 0.389097 1.85973 0
M  V30 134 H 12.0448 -1.32761 3.65112 0
M  V30 135 H 13.7168 1.15131 4.46702 0
M  V30 136 H 11.9598 1.14975 4.18286 0
M  V30 137 H 12.6308 0.205556 5.51617 0
M  V30 138 H 15.1068 -1.02442 4.03293 0
M  V30 139 H 13.9828 -1.77739 5.19327 0
M  V30 140 H 14.2438 -2.52813 3.62682 0
M  V30 141 N 13.3029 -1.57598 0.00835791 0
M  V30 142 C 14.2529 -2.05431 -0.989045 0
M  V30 143 C 15.2369 -0.950662 -1.29812 0
M  V30 144 O 16.4289 -1.21438 -1.28771 0
M  V30 145 C 13.5579 -2.56801 -2.27833 0
M  V30 146 C 12.6439 -3.74058 -1.99853 0
M  V30 147 N 13.0349 -4.8544 -1.42062 0
M  V30 148 C 11.3329 -3.82148 -2.29953 0
M  V30 149 C 12.0339 -5.66817 -1.30743 0
M  V30 150 N 11.0099 -5.13077 -1.7959 0
M  V30 151 H 14.8119 -2.88955 -0.536853 0
M  V30 152 H 12.3259 -1.61199 -0.197148 0
M  V30 153 H 14.3229 -2.89349 -3.00137 0
M  V30 154 H 12.9829 -1.74699 -2.73698 0
M  V30 155 H 13.9939 -5.0612 -1.09833 0
M  V30 156 H 10.6709 -3.10916 -2.78635 0
M  V30 157 H 12.0609 -6.66343 -0.862328 0
M  V30 158 N 14.781 0.264519 -1.55364 0
M  V30 159 C 15.744 1.31046 -1.88042 0
M  V30 160 C 16.744 1.41943 -0.755569 0
M  V30 161 O 17.934 1.40947 -1.02369 0
M  V30 162 C 15.066 2.69067 -2.09323 0
M  V30 163 H 16.259 1.03297 -2.81549 0
M  V30 164 H 13.812 0.502989 -1.47986 0
M  V30 165 H 14.547 3.01982 -1.18226 0
M  V30 166 H 14.332 2.62542 -2.91229 0
M  V30 167 H 15.822 3.44623 -2.35848 0
M  V30 168 N 16.2591 1.48442 0.529413 0
M  V30 169 C 17.5061 1.56488 1.28521 0
M  V30 170 C 17.8341 0.239042 1.93025 0
M  V30 171 O 17.0891 -0.770713 1.79885 0
M  V30 172 C 17.3881 2.6523 2.39558 0
M  V30 173 C 17.0541 4.07648 1.92702 0
M  V30 174 C 15.7161 4.46411 1.79641 0
M  V30 175 C 18.0681 4.96896 1.573 0
M  V30 176 C 15.3961 5.72226 1.29514 0
M  V30 177 C 17.7481 6.23202 1.08636 0
M  V30 178 C 16.4121 6.60821 0.941919 0
M  V30 179 H 15.6821 0.572631 0.470292 0
M  V30 180 H 18.3291 1.82161 0.59072 0
M  V30 181 H 16.6341 2.33419 3.14679 0
M  V30 182 H 18.3311 2.68671 2.97686 0
M  V30 183 H 14.9211 3.77036 2.03819 0
M  V30 184 H 19.1051 4.67626 1.66251 0
M  V30 185 H 14.3611 6.00097 1.17019 0
M  V30 186 H 18.5351 6.91753 0.803136 0
M  V30 187 H 16.1621 7.58198 0.5513 0
M  V30 188 N 17.7372 -0.778329 1.37039 0
M  V30 189 C 18.9852 -1.53361 1.31623 0
M  V30 190 C 19.3062 -1.94739 -0.100831 0
M  V30 191 O 18.5762 -1.65797 -1.04347 0
M  V30 192 H 17.1562 -0.568794 0.484234 0
M  V30 193 H 19.8182 -0.926742 1.71457 0
M  V30 194 H 18.9142 -2.43606 1.95096 0
M  V30 195 N 19.2153 -1.21501 -1.00376 0
M  V30 196 C 20.4633 -1.03095 -1.73827 0
M  V30 197 C 20.7843 0.436341 -1.90055 0
M  V30 198 O 20.0543 1.31466 -1.45236 0
M  V30 199 H 18.6343 -0.378487 -0.644016 0
M  V30 200 H 21.2963 -1.52831 -1.20949 0
M  V30 201 H 20.3923 -1.49991 -2.73695 0
M  V30 202 N 20.6934 1.19889 -1.02296 0
M  V30 203 C 21.6034 2.26571 -0.608508 0
M  V30 204 C 22.6194 1.70299 0.356964 0
M  V30 205 O 23.7954 2.00235 0.216326 0
M  V30 206 C 20.8604 3.46677 0.0402814 0
M  V30 207 C 19.9214 4.18153 -0.97194 0
M  V30 208 C 19.1544 5.32525 -0.354016 0
M  V30 209 O 19.3774 5.64112 0.844604 0
M  V30 210 O 18.3114 5.92242 -1.07391 0
M  V30 211 H 22.1374 2.64251 -1.49684 0
M  V30 212 H 19.7224 1.26629 -0.792809 0
M  V30 213 H 21.6044 4.19475 0.402324 0
M  V30 214 H 20.2794 3.10858 0.902707 0
M  V30 215 H 19.1864 3.47499 -1.38546 0
M  V30 216 H 20.5194 4.57927 -1.80454 0
M  V30 217 N 22.1715 0.800033 1.35784 0
M  V30 218 C 23.4195 0.376597 1.9856 0
M  V30 219 C 23.7405 -1.05812 1.63795 0
M  V30 220 O 23.0105 -1.73103 0.917171 0
M  V30 221 H 21.5905 0.136261 0.734467 0
M  V30 222 H 24.2525 1.02442 1.65806 0
M  V30 223 H 23.3485 0.477002 3.08433 0
M  V30 224 N 23.6496 -1.47581 0.552962 0
M  V30 225 C 25.0606 -1.86324 0.118463 0
M  V30 226 C 25.4116 -1.46006 -1.3106 0
M  V30 227 O 24.5366 -0.861182 -1.98526 0
M  V30 228 C 25.1316 -3.3816 0.20821 0
M  V30 229 C 23.6906 -3.7601 -0.171226 0
M  V30 230 C 22.8376 -2.71634 0.557686 0
M  V30 231 H 25.7886 -1.39159 0.762928 0
M  V30 232 H 25.8096 -3.76141 -0.574278 0
M  V30 233 H 25.3216 -3.67473 1.24841 0
M  V30 234 H 23.4226 -3.52313 -1.21269 0
M  V30 235 H 23.5356 -4.78745 0.184379 0
M  V30 236 H 21.8996 -2.547 0.00125792 0
M  V30 237 H 22.6826 -3.0379 1.59896 0
M  V30 238 N 25.1277 -0.289203 -1.54924 0
M  V30 239 C 26.3767 0.324231 -1.99077 0
M  V30 240 C 26.6897 1.5591 -1.18117 0
M  V30 241 O 27.8957 2.24637 -1.52481 0
M  V30 242 C 26.3517 0.628209 -3.54375 0
M  V30 243 C 25.9597 -0.587647 -4.44129 0
M  V30 244 C 27.7037 1.20349 -4.07083 0
M  V30 245 C 25.6107 -0.257475 -5.90839 0
M  V30 246 H 24.5407 0.124924 -0.743579 0
M  V30 247 H 27.1917 -0.396063 -1.79175 0
M  V30 248 H 25.5737 1.40778 -3.70132 0
M  V30 249 H 26.7477 -1.36418 -4.40144 0
M  V30 250 H 25.0627 -1.08074 -4.0213 0
M  V30 251 H 27.6597 1.46456 -5.14252 0
M  V30 252 H 28.0027 2.14195 -3.56968 0
M  V30 253 H 28.5357 0.485889 -3.94821 0
M  V30 254 H 25.2747 -1.16419 -6.45079 0
M  V30 255 H 24.7947 0.482018 -5.9786 0
M  V30 256 H 26.4737 0.145238 -6.46837 0
M  V30 257 N 26.6058 1.57591 -0.0167156 0
M  V30 258 C 27.8548 1.90461 0.663877 0
M  V30 259 C 28.1678 0.893515 1.73999 0
M  V30 260 O 29.3738 1.11302 2.47637 0
M  V30 261 C 27.8298 3.38155 1.23204 0
M  V30 262 C 27.4378 4.47597 0.189866 0
M  V30 263 C 29.1818 3.80111 1.88986 0
M  V30 264 C 27.0888 5.86379 0.768964 0
M  V30 265 H 26.0188 0.710738 0.251729 0
M  V30 266 H 28.6698 1.83326 -0.0799926 0
M  V30 267 H 27.0518 3.40182 2.02712 0
M  V30 268 H 28.2258 4.57112 -0.581846 0
M  V30 269 H 26.5408 4.14766 -0.368475 0
M  V30 270 H 29.1378 4.81145 2.33247 0
M  V30 271 H 29.4808 3.14511 2.72743 0
M  V30 272 H 30.0138 3.80454 1.16187 0
M  V30 273 H 26.7528 6.55493 -0.0301957 0
M  V30 274 H 26.2728 5.80496 1.50945 0
M  V30 275 H 27.9518 6.34563 1.26251 0
M  V30 276 N 28.0839 -0.256276 1.55502 0
M  V30 277 C 29.3329 -0.983486 1.76098 0
M  V30 278 C 29.6459 -1.86837 0.578896 0
M  V30 279 O 30.8519 -2.63163 0.667648 0
M  V30 280 C 29.3079 -1.79868 3.1173 0
M  V30 281 C 28.9159 -0.961648 4.37557 0
M  V30 282 C 30.6599 -2.51919 3.41668 0
M  V30 283 C 28.5669 -1.77219 5.64223 0
M  V30 284 H 27.4969 -0.370936 0.656447 0
M  V30 285 H 30.1479 -0.238492 1.81944 0
M  V30 286 H 28.5299 -2.58527 2.99966 0
M  V30 287 H 29.7039 -0.218048 4.60284 0
M  V30 288 H 28.0189 -0.354913 4.14885 0
M  V30 289 H 30.6159 -3.12998 4.33516 0
M  V30 290 H 30.9589 -3.23059 2.62562 0
M  V30 291 H 31.4919 -1.80278 3.54605 0
M  V30 292 H 28.2309 -1.10471 6.46124 0
M  V30 293 H 27.7509 -2.49132 5.45613 0
M  V30 294 H 29.4299 -2.34169 6.03137 0
M  V30 295 N 29.562 -1.4872 -0.521534 0
M  V30 296 C 30.81 -1.56857 -1.27437 0
M  V30 297 C 31.131 -0.247982 -1.93417 0
M  V30 298 O 30.401 0.731151 -1.81744 0
M  V30 299 H 28.981 -0.577885 -0.473347 0
M  V30 300 H 31.643 -1.85233 -0.606205 0
M  V30 301 H 30.739 -2.35402 -2.0492 0
M  V30 302 N 31.0401 0.771051 -1.3745 0
M  V30 303 C 32.2881 1.52661 -1.32435 0
M  V30 304 C 32.6091 1.9479 0.0905024 0
M  V30 305 O 31.8791 1.66348 1.03466 0
M  V30 306 H 30.4591 0.566218 -0.487244 0
M  V30 307 H 33.1211 0.917636 -1.71946 0
M  V30 308 H 32.2171 2.42568 -1.96385 0
M  V30 309 N 32.5182 1.22032 0.997298 0
M  V30 310 C 33.7642 1.04376 1.73878 0
M  V30 311 C 34.0972 -0.420716 1.89588 0
M  V30 312 O 33.3722 -1.31202 1.43583 0
M  V30 313 C 33.6552 1.75047 3.14691 0
M  V30 314 C 33.5082 3.29062 3.06656 0
M  V30 315 C 34.8272 1.49928 4.13775 0
M  V30 316 H 31.9462 0.380578 0.631133 0
M  V30 317 H 34.5882 1.50312 1.16217 0
M  V30 318 H 32.7382 1.35996 3.63919 0
M  V30 319 H 34.4102 3.7753 2.65083 0
M  V30 320 H 32.6532 3.58967 2.43568 0
M  V30 321 H 33.3242 3.73683 4.06282 0
M  V30 322 H 35.8002 1.83842 3.73285 0
M  V30 323 H 34.6762 2.01878 5.10428 0
M  V30 324 H 34.9372 0.430929 4.39995 0
M  V30 325 N 33.9963 -1.19345 1.0293 0
M  V30 326 C 35.4123 -1.41069 0.746446 0
M  V30 327 C 35.6123 -1.90078 -0.668776 0
M  V30 328 O 34.6683 -2.0778 -1.4347 0
M  V30 329 C 35.9813 -2.42141 1.78292 0
M  V30 330 C 37.5293 -2.55887 1.80252 0
M  V30 331 C 38.0043 -3.60214 2.8286 0
M  V30 332 N 39.4953 -3.67711 2.81679 0
M  V30 333 C 40.2303 -4.48128 3.57727 0
M  V30 334 N 39.7263 -5.32248 4.43491 0
M  V30 335 N 41.5193 -4.42782 3.46267 0
M  V30 336 H 33.6703 -0.858536 1.94275 0
M  V30 337 H 35.9333 -0.439541 0.839945 0
M  V30 338 H 35.6393 -2.13155 2.79746 0
M  V30 339 H 35.5133 -3.41323 1.60557 0
M  V30 340 H 37.9003 -2.84196 0.794757 0
M  V30 341 H 37.9813 -1.56858 2.02062 0
M  V30 342 H 37.6253 -3.32647 3.83807 0
M  V30 343 H 37.5553 -4.58895 2.58307 0
M  V30 344 H 40.0463 -3.07634 2.19476 0
M  V30 345 H 40.3593 -5.90729 4.98256 0
M  V30 346 H 38.7043 -5.31707 4.47564 0
M  V30 347 H 41.8953 -3.76107 2.78677 0
M  V30 348 H 42.0683 -5.05215 4.05785 0
M  V30 349 N 35.4744 -0.807222 -1.35358 0
M  V30 350 C 36.7234 -0.384376 -1.98004 0
M  V30 351 C 37.0364 1.0543 -1.64754 0
M  V30 352 O 38.2424 1.58029 -2.20769 0
M  V30 353 C 36.6984 -0.636326 -3.5423 0
M  V30 354 C 36.3064 -2.08759 -3.96388 0
M  V30 355 C 38.0504 -0.278869 -4.23583 0
M  V30 356 C 35.9574 -2.28525 -5.45463 0
M  V30 357 H 34.8874 -0.139986 -0.740891 0
M  V30 358 H 37.5384 -0.991369 -1.54415 0
M  V30 359 H 35.9204 0.0406256 -3.95979 0
M  V30 360 H 37.0944 -2.8024 -3.6579 0
M  V30 361 H 35.4094 -2.40497 -3.39926 0
M  V30 362 H 38.0064 -0.404599 -5.33167 0
M  V30 363 H 38.3494 0.775012 -4.09022 0
M  V30 364 H 38.8824 -0.909764 -3.87257 0
M  V30 365 H 35.6214 -3.32361 -5.64992 0
M  V30 366 H 35.1414 -1.61569 -5.77629 0
M  V30 367 H 36.8204 -2.10109 -6.11934 0
M  V30 368 N 36.9525 1.47285 -0.560781 0
M  V30 369 C 38.3635 1.86258 -0.128343 0
M  V30 370 C 38.7145 1.46699 1.30284 0
M  V30 371 O 37.8395 0.871698 1.98067 0
M  V30 372 C 38.4345 3.38044 -0.22614 0
M  V30 373 C 36.9935 3.76096 0.151283 0
M  V30 374 C 36.1405 2.71335 -0.572084 0
M  V30 375 H 39.0915 1.38752 -0.770297 0
M  V30 376 H 39.1125 3.76441 0.554322 0
M  V30 377 H 38.6245 3.66806 -1.26788 0
M  V30 378 H 36.7255 3.52951 1.19399 0
M  V30 379 H 36.8385 4.78641 -0.209765 0
M  V30 380 H 35.2025 2.54696 -0.0147653 0
M  V30 381 H 35.9855 3.02938 -1.61504 0
M  V30 382 N 38.4306 0.297415 1.54768 0
M  V30 383 C 39.6606 -0.315165 2.04182 0
M  V30 384 C 40.0686 -1.4834 1.17439 0
M  V30 385 O 39.4116 -1.82695 0.191891 0
M  V30 386 C 39.4736 -0.837583 3.49607 0
M  V30 387 C 39.1376 0.204912 4.5654 0
M  V30 388 C 40.1346 1.03214 5.09552 0
M  V30 389 C 37.8196 0.345578 5.0111 0
M  V30 390 C 39.8136 1.986 6.05671 0
M  V30 391 C 37.5006 1.30289 5.97049 0
M  V30 392 C 38.4986 2.12159 6.49213 0
M  V30 393 O 38.1866 3.06268 7.43273 0
M  V30 394 H 37.9186 -0.0729646 0.672051 0
M  V30 395 H 40.4726 0.433907 2.00765 0
M  V30 396 H 38.7026 -1.63712 3.50336 0
M  V30 397 H 40.3916 -1.36566 3.82236 0
M  V30 398 H 41.1576 0.934312 4.75916 0
M  V30 399 H 37.0366 -0.28171 4.60138 0
M  V30 400 H 40.5806 2.62542 6.46311 0
M  V30 401 H 36.4776 1.40145 6.30103 0
M  V30 402 H 37.2456 3.01205 7.61064 0
M  V30 403 N 39.9087 -1.5758 0.0250728 0
M  V30 404 C 40.8187 -2.1343 -0.973905 0
M  V30 405 C 41.8347 -1.08556 -1.35984 0
M  V30 406 O 43.0107 -1.40592 -1.44207 0
M  V30 407 C 40.0757 -2.64703 -2.23904 0
M  V30 408 C 39.1367 -3.84276 -1.91391 0
M  V30 409 C 38.3697 -4.33095 -3.11873 0
M  V30 410 O 38.5927 -3.81107 -4.24398 0
M  V30 411 O 37.5267 -5.24984 -2.94406 0
M  V30 412 H 41.3527 -2.99057 -0.529036 0
M  V30 413 H 38.9377 -1.48118 -0.195288 0
M  V30 414 H 40.8197 -2.97769 -2.98181 0
M  V30 415 H 39.4947 -1.82161 -2.6758 0
M  V30 416 H 38.4017 -3.56143 -1.14511 0
M  V30 417 H 39.7347 -4.67968 -1.52534 0
M  V30 418 N 41.3868 0.248026 -1.55636 0
M  V30 419 C 42.3338 1.30707 -1.90222 0
M  V30 420 C 43.3038 1.47881 -0.756332 0
M  V30 421 O 44.4888 1.61883 -1.00988 0
M  V30 422 C 41.6288 2.65769 -2.20138 0
M  V30 423 C 40.7418 2.56612 -3.47526 0
M  V30 424 C 39.8768 3.8402 -3.67017 0
M  V30 425 C 38.9158 3.69476 -4.8801 0
M  V30 426 N 38.0528 4.88774 -5.04029 0
M  V30 427 H 42.8928 1.00512 -2.80538 0
M  V30 428 H 40.4298 0.485055 -1.38873 0
M  V30 429 H 42.3878 3.44386 -2.35487 0
M  V30 430 H 41.0178 2.94115 -1.33027 0
M  V30 431 H 40.0698 1.69571 -3.40514 0
M  V30 432 H 41.3818 2.41774 -4.36287 0
M  V30 433 H 40.5358 4.7108 -3.8232 0
M  V30 434 H 39.2748 4.01754 -2.76487 0
M  V30 435 H 38.2798 2.80799 -4.72686 0
M  V30 436 H 39.5048 3.53238 -5.8 0
M  V30 437 H 37.4508 5.0687 -4.16435 0
M  V30 438 H 37.3678 4.76562 -5.86877 0
M  V30 439 H 38.6358 5.77335 -5.23741 0
M  V30 440 N 42.8649 1.48995 0.513639 0
M  V30 441 C 44.1129 1.57531 1.26604 0
M  V30 442 C 44.4339 0.258236 1.93283 0
M  V30 443 O 43.7039 -0.721502 1.8213 0
M  V30 444 H 42.2839 0.580387 0.470276 0
M  V30 445 H 44.9459 1.85552 0.596373 0
M  V30 446 H 44.0419 2.36486 2.03669 0
M  V30 447 N 44.343 -0.763751 1.37857 0
M  V30 448 C 45.273 -1.89103 1.36975 0
M  V30 449 C 46.254 -1.68439 0.237152 0
M  V30 450 O 47.439 -1.8918 0.438713 0
M  V30 451 C 44.569 -3.26496 1.18395 0
M  V30 452 C 43.523 -3.61741 2.28751 0
M  V30 453 C 42.849 -4.97762 1.95286 0
M  V30 454 C 44.149 -3.67665 3.70972 0
M  V30 455 H 45.843 -1.90099 2.31307 0
M  V30 456 H 43.389 -0.91319 1.11341 0
M  V30 457 H 45.342 -4.05003 1.16406 0
M  V30 458 H 44.066 -3.25955 0.205215 0
M  V30 459 H 42.725 -2.85547 2.29909 0
M  V30 460 H 42.373 -4.93769 0.959221 0
M  V30 461 H 42.073 -5.22313 2.69189 0
M  V30 462 H 43.597 -5.7866 1.94898 0
M  V30 463 H 45.011 -4.36307 3.719 0
M  V30 464 H 43.408 -4.03718 4.43995 0
M  V30 465 H 44.478 -2.68134 4.0402 0
M  V30 466 N 45.8211 -1.22559 -0.990812 0
M  V30 467 C 46.7511 -1.0218 -2.09956 0
M  V30 468 C 47.7321 0.0579394 -1.70001 0
M  V30 469 O 48.9171 -0.104684 -1.93918 0
M  V30 470 C 46.0471 -0.601023 -3.4206 0
M  V30 471 C 45.0011 -1.62694 -3.95872 0
M  V30 472 C 44.3271 -1.06193 -5.24049 0
M  V30 473 C 45.6271 -3.01743 -4.2632 0
M  V30 474 H 47.3211 -1.94916 -2.27262 0
M  V30 475 H 44.8671 -0.938566 -1.09211 0
M  V30 476 H 46.8201 -0.445561 -4.19038 0
M  V30 477 H 45.5441 0.362005 -3.24588 0
M  V30 478 H 44.2031 -1.77021 -3.21028 0
M  V30 479 H 43.8511 -0.0901903 -5.02919 0
M  V30 480 H 43.5511 -1.74732 -5.61019 0
M  V30 481 H 45.0751 -0.918092 -6.03658 0
M  V30 482 H 46.4891 -2.90777 -4.94087 0
M  V30 483 H 44.8861 -3.67425 -4.74467 0
M  V30 484 H 45.9561 -3.51518 -3.34011 0
M  V30 485 N 47.2992 1.18797 -1.03562 0
M  V30 486 C 48.2622 2.20464 -0.626769 0
M  V30 487 C 49.2622 1.57721 0.313173 0
M  V30 488 O 50.4522 1.73917 0.0992615 0
M  V30 489 C 47.5842 3.40802 0.0818498 0
M  V30 490 H 48.7772 2.58149 -1.5264 0
M  V30 491 H 46.3302 1.32593 -0.827578 0
M  V30 492 H 47.0652 3.08642 0.995518 0
M  V30 493 H 46.8502 3.8758 -0.593652 0
M  V30 494 H 48.3402 4.16092 0.354584 0
M  V30 495 N 48.7773 0.814389 1.34928 0
M  V30 496 C 49.7273 0.202752 2.27097 0
M  V30 497 C 50.7113 -0.62799 1.48139 0
M  V30 498 O 51.9033 -0.483969 1.70255 0
M  V30 499 C 49.0323 -0.64146 3.37254 0
M  V30 500 C 48.1183 0.19944 4.23631 0
M  V30 501 N 48.5093 1.26628 4.89693 0
M  V30 502 C 46.8073 -0.0176433 4.45997 0
M  V30 503 C 47.5083 1.78031 5.53787 0
M  V30 504 N 46.4843 1.08553 5.32651 0
M  V30 505 H 50.2863 1.01893 2.75672 0
M  V30 506 H 47.8003 0.656332 1.48546 0
M  V30 507 H 49.7973 -1.09575 4.02243 0
M  V30 508 H 48.4573 -1.4559 2.9023 0
M  V30 509 H 49.4683 1.64901 4.90946 0
M  V30 510 H 46.1453 -0.800601 4.09752 0
M  V30 511 H 47.5353 2.67236 6.16469 0
M  V30 512 N 50.2554 -1.46986 0.568584 0
M  V30 513 C 51.4804 -2.07335 0.0520528 0
M  V30 514 C 51.9054 -1.41675 -1.23733 0
M  V30 515 O 51.2634 -0.495623 -1.74394 0
M  V30 516 C 51.3114 -3.60417 -0.11501 0
M  V30 517 O 50.4154 -3.95309 -1.17492 0
M  V30 518 H 49.7564 -0.661597 0.0564385 0
M  V30 519 H 52.2864 -1.88837 0.787507 0
M  V30 520 H 52.2964 -4.06698 -0.325644 0
M  V30 521 H 50.9714 -4.07601 0.826675 0
M  V30 522 H 49.5484 -3.60757 -0.943869 0
M  V30 523 N 51.7335 -0.305618 -1.54608 0
M  V30 524 C 53.0105 0.355652 -1.92339 0
M  V30 525 C 53.3905 1.71324 -1.23335 0
M  V30 526 O 52.7385 2.25473 -0.370702 0
M  V30 527 C 52.9485 0.46572 -3.45879 0
M  V30 528 C 54.2965 0.734426 -4.182 0
M  V30 529 O 55.3205 0.54935 -3.51938 0
M  V30 530 O 54.1795 1.09024 -5.35515 0
M  V30 531 H 51.2735 0.199666 -0.802535 0
M  V30 532 H 53.8195 -0.354017 -1.65966 0
M  V30 533 H 52.5915 -0.488461 -3.88239 0
M  V30 534 H 52.2145 1.22367 -3.78301 0
M  V30 535 N 53.2116 1.57565 -0.0334293 0
M  V30 536 C 54.4596 1.91598 0.642999 0
M  V30 537 C 54.7806 0.910847 1.7242 0
M  V30 538 O 54.0506 -0.0469931 1.95844 0
M  V30 539 H 52.6306 0.707228 0.240496 0
M  V30 540 H 55.2926 1.94726 -0.0822488 0
M  V30 541 H 54.3886 2.92336 1.09298 0
M  V30 542 N 54.6897 -0.239769 1.55765 0
M  V30 543 C 55.9667 -0.990056 1.68693 0
M  V30 544 C 56.3467 -2.03107 0.5754 0
M  V30 545 O 55.6947 -2.24604 -0.42017 0
M  V30 546 C 55.9047 -1.61696 3.09282 0
M  V30 547 C 57.2527 -2.11613 3.6811 0
M  V30 548 O 58.2767 -1.71624 3.12127 0
M  V30 549 O 57.1357 -2.85057 4.66267 0
M  V30 550 H 54.2297 -0.461299 0.686391 0
M  V30 551 H 56.7757 -0.232991 1.68093 0
M  V30 552 H 55.5477 -0.864357 3.81634 0
M  V30 553 H 55.1707 -2.44005 3.13923 0
M  V30 554 N 56.1678 -1.49265 -0.50573 0
M  V30 555 C 57.4138 -1.58748 -1.26202 0
M  V30 556 C 57.7468 -0.271227 -1.92297 0
M  V30 557 O 57.0218 0.724831 -1.80489 0
M  V30 558 C 57.3048 -2.74332 -2.33268 0
M  V30 559 C 57.1578 -4.15737 -1.71705 0
M  V30 560 C 58.4768 -2.85576 -3.34865 0
M  V30 561 H 55.5958 -0.577826 -0.457478 0
M  V30 562 H 58.2378 -1.81532 -0.560897 0
M  V30 563 H 56.3878 -2.55036 -2.93068 0
M  V30 564 H 58.0598 -4.46537 -1.15769 0
M  V30 565 H 56.3028 -4.21605 -1.02135 0
M  V30 566 H 56.9738 -4.92477 -2.49341 0
M  V30 567 H 59.4498 -3.03127 -2.8505 0
M  V30 568 H 58.3258 -3.68135 -4.07146 0
M  V30 569 H 58.5868 -1.94732 -3.96903 0
M  V30 570 N 57.6459 0.756429 -1.3826 0
M  V30 571 C 58.6089 1.85176 -1.35065 0
M  V30 572 C 59.6089 1.58818 -0.251703 0
M  V30 573 O 60.7989 1.66615 -0.508433 0
M  V30 574 C 57.9309 3.22596 -1.10201 0
M  V30 575 H 59.1239 1.89417 -2.3251 0
M  V30 576 H 56.6769 0.95783 -1.23512 0
M  V30 577 H 57.4119 3.24025 -0.133504 0
M  V30 578 H 57.1969 3.43122 -1.89762 0
M  V30 579 H 58.6869 4.02673 -1.10654 0
M  V30 580 N 59.124 1.23083 0.984299 0
M  V30 581 C 60.054 1.03292 2.09411 0
M  V30 582 C 61.035 -0.048923 1.7003 0
M  V30 583 O 62.22 0.114967 1.93859 0
M  V30 584 C 59.35 0.619155 3.41736 0
M  V30 585 C 58.304 1.64791 3.95004 0
M  V30 586 C 57.63 1.0897 5.23478 0
M  V30 587 C 58.93 3.03999 4.24714 0
M  V30 588 H 60.624 1.96119 2.26225 0
M  V30 589 H 58.17 0.944344 1.08711 0
M  V30 590 H 60.123 0.467777 4.18796 0
M  V30 591 H 58.847 -0.344786 3.24775 0
M  V30 592 H 57.506 1.78721 3.20085 0
M  V30 593 H 57.154 0.11686 5.02864 0
M  V30 594 H 56.854 1.77704 5.60085 0
M  V30 595 H 58.378 0.950093 6.03163 0
M  V30 596 H 59.792 2.93393 4.92538 0
M  V30 597 H 58.189 3.69936 4.72512 0
M  V30 598 H 59.259 3.53285 3.32142 0
M  V30 599 N 60.6021 -1.18246 1.0419 0
M  V30 600 C 61.5521 -2.19843 0.604392 0
M  V30 601 C 62.5361 -1.56962 -0.353814 0
M  V30 602 O 63.7281 -1.76156 -0.17267 0
M  V30 603 C 60.8571 -3.43287 -0.0298975 0
M  V30 604 C 59.9431 -4.13288 0.951531 0
M  V30 605 N 60.3341 -4.59271 2.11906 0
M  V30 606 C 58.6321 -4.39165 0.7778 0
M  V30 607 C 59.3331 -5.13173 2.73912 0
M  V30 608 N 58.3091 -5.04763 2.01779 0
M  V30 609 H 62.1111 -2.53089 1.4941 0
M  V30 610 H 59.6251 -1.34465 0.910658 0
M  V30 611 H 61.6221 -4.15334 -0.361037 0
M  V30 612 H 60.2821 -3.11537 -0.915127 0
M  V30 613 H 61.2931 -4.5368 2.49789 0
M  V30 614 H 57.9701 -4.17461 -0.0572331 0
M  V30 615 H 59.3601 -5.58947 3.72864 0
M  V30 616 N 62.0802 -0.821533 -1.34494 0
M  V30 617 C 63.0432 -0.247847 -2.27856 0
M  V30 618 C 64.0432 0.573453 -1.50227 0
M  V30 619 O 65.2332 0.389759 -1.69784 0
M  V30 620 C 62.3652 0.652698 -3.34593 0
M  V30 621 H 63.5582 -1.07146 -2.80107 0
M  V30 622 H 61.1112 -0.593291 -1.44602 0
M  V30 623 H 61.8462 1.49943 -2.87555 0
M  V30 624 H 61.6312 0.065292 -3.92046 0
M  V30 625 H 63.1212 1.04793 -4.04238 0
M  V30 626 N 63.5583 1.46682 -0.576371 0
M  V30 627 C 64.4883 2.33028 0.148397 0
M  V30 628 C 65.4693 1.44961 0.889956 0
M  V30 629 O 66.6543 1.73789 0.866662 0
M  V30 630 C 63.7843 3.27117 1.1667 0
M  V30 631 C 62.7383 4.24575 0.540386 0
M  V30 632 C 62.0643 5.08126 1.6647 0
M  V30 633 C 63.3643 5.19722 -0.518331 0
M  V30 634 H 65.0583 2.93875 -0.572509 0
M  V30 635 H 62.6043 1.41315 -0.276768 0
M  V30 636 H 64.5573 3.86374 1.68204 0
M  V30 637 H 63.2813 2.64364 1.9178 0
M  V30 638 H 61.9403 3.66571 0.0461769 0
M  V30 639 H 61.5883 4.41762 2.40531 0
M  V30 640 H 61.2883 5.74122 1.25131 0
M  V30 641 H 62.8123 5.70246 2.18293 0
M  V30 642 H 64.2263 5.73232 -0.0883058 0
M  V30 643 H 62.6233 5.94026 -0.851679 0
M  V30 644 H 63.6933 4.64037 -1.40703 0
M  V30 645 N 65.0364 0.313813 1.54444 0
M  V30 646 C 66.2644 -0.293918 2.04802 0
M  V30 647 C 66.6794 -1.46537 1.19047 0
M  V30 648 O 66.0364 -1.81182 0.218939 0
M  V30 649 C 66.0874 -0.737806 3.53891 0
M  V30 650 O 65.8084 0.387038 4.36387 0
M  V30 651 C 67.3094 -1.40936 4.203 0
M  V30 652 H 64.5294 -0.0620057 0.668129 0
M  V30 653 H 67.0734 0.457169 1.99324 0
M  V30 654 H 65.2284 -1.43889 3.59687 0
M  V30 655 H 65.6424 0.0391274 5.24485 0
M  V30 656 H 67.1164 -1.67099 5.26101 0
M  V30 657 H 67.5934 -2.35355 3.70816 0
M  V30 658 H 68.1994 -0.751117 4.18615 0
M  V30 659 N 66.5145 -1.57545 0.0417849 0
M  V30 660 C 67.7915 -1.83642 -0.673433 0
M  V30 661 C 68.1715 -0.928298 -1.89594 0
M  V30 662 O 67.5195 0.0129955 -2.28496 0
M  V30 663 C 67.7295 -3.33155 -1.03964 0
M  V30 664 C 69.0775 -3.99941 -1.42592 0
M  V30 665 O 70.1015 -3.37725 -1.13226 0
M  V30 666 O 68.9605 -5.09619 -1.9736 0
M  V30 667 H 66.0545 -0.757638 -0.331533 0
M  V30 668 H 68.6005 -1.69554 0.070433 0
M  V30 669 H 67.3725 -3.9093 -0.170098 0
M  V30 670 H 66.9955 -3.52396 -1.84126 0
M  V30 671 N 67.9926 0.231505 -1.5589 0
M  V30 672 C 68.9556 1.27028 -1.90779 0
M  V30 673 C 69.9556 1.40308 -0.785507 0
M  V30 674 O 71.1456 1.38744 -1.05336 0
M  V30 675 C 68.2776 2.64566 -2.14983 0
M  V30 676 H 69.4706 0.973017 -2.83677 0
M  V30 677 H 67.0236 0.471486 -1.49019 0
M  V30 678 H 67.7586 2.99406 -1.24604 0
M  V30 679 H 67.5436 2.56305 -2.96732 0
M  V30 680 H 69.0336 3.39543 -2.43105 0
M  V30 681 N 69.4707 1.49531 0.497807 0
M  V30 682 C 70.4007 1.6935 1.60757 0
M  V30 683 C 71.3817 0.542218 1.61227 0
M  V30 684 O 72.5667 0.778417 1.77917 0
M  V30 685 C 69.6967 1.76298 2.99226 0
M  V30 686 C 68.6507 2.91248 3.13622 0
M  V30 687 C 67.9767 2.83312 4.53474 0
M  V30 688 C 69.2767 4.3214 2.93346 0
M  V30 689 H 70.9707 2.62263 1.44425 0
M  V30 690 H 68.5167 1.26208 0.693367 0
M  V30 691 H 70.4697 1.88749 3.76765 0
M  V30 692 H 69.1937 0.799871 3.16654 0
M  V30 693 H 67.8527 2.78404 2.38509 0
M  V30 694 H 67.5007 1.84902 4.67782 0
M  V30 695 H 67.2007 3.60465 4.64046 0
M  V30 696 H 68.7247 2.97775 5.33069 0
M  V30 697 H 70.1387 4.45649 3.60652 0
M  V30 698 H 68.5357 5.1054 3.15387 0
M  V30 699 H 69.6057 4.46363 1.89441 0
M  V30 700 N 70.9488 -0.749086 1.3866 0
M  V30 701 C 71.8788 -1.8764 1.38973 0
M  V30 702 C 72.8598 -1.68178 0.255004 0
M  V30 703 O 74.0448 -1.88704 0.458754 0
M  V30 704 C 71.1748 -3.25222 1.21851 0
M  V30 705 C 70.1288 -3.59295 2.32575 0
M  V30 706 C 69.4548 -4.95663 2.00555 0
M  V30 707 C 70.7548 -3.63709 3.7485 0
M  V30 708 H 72.4488 -1.87635 2.3331 0
M  V30 709 H 69.9948 -0.901329 1.12303 0
M  V30 710 H 71.9478 -4.03746 1.20695 0
M  V30 711 H 70.6718 -3.25719 0.239775 0
M  V30 712 H 69.3308 -2.83093 2.32925 0
M  V30 713 H 68.9788 -4.92724 1.01154 0
M  V30 714 H 68.6788 -5.19429 2.74714 0
M  V30 715 H 70.2028 -5.7656 2.01024 0
M  V30 716 H 71.6168 -4.32338 3.76506 0
M  V30 717 H 70.0138 -3.98986 4.48252 0
M  V30 718 H 71.0838 -2.63834 4.06841 0
M  V30 719 N 72.4269 -1.23603 -0.977757 0
M  V30 720 C 73.6749 -1.06759 -1.71601 0
M  V30 721 C 73.9959 0.395929 -1.90938 0
M  V30 722 O 73.2659 1.28356 -1.47992 0
M  V30 723 H 71.8459 -0.392062 -0.635843 0
M  V30 724 H 74.5079 -1.55362 -1.1768 0
M  V30 725 H 73.6039 -1.55763 -2.70452 0
M  V30 726 N 73.905 1.17692 -1.04816 0
M  V30 727 C 74.868 2.19787 -0.650117 0
M  V30 728 C 75.868 1.58044 0.296427 0
M  V30 729 O 77.058 1.74012 0.0808097 0
M  V30 730 C 74.19 3.40869 0.0456987 0
M  V30 731 H 75.383 2.56516 -1.5537 0
M  V30 732 H 72.936 1.31708 -0.841594 0
M  V30 733 H 73.671 3.09681 0.962726 0
M  V30 734 H 73.456 3.86928 -0.634727 0
M  V30 735 H 74.946 4.16445 0.310432 0
M  V30 736 N 75.3831 0.828654 1.34056 0
M  V30 737 C 76.3461 0.259927 2.27721 0
M  V30 738 C 77.3461 -0.565478 1.50529 0
M  V30 739 O 78.5361 -0.38075 1.69988 0
M  V30 740 C 75.6681 -0.634944 3.34935 0
M  V30 741 H 76.8611 1.0863 2.79534 0
M  V30 742 H 74.4141 0.600951 1.44285 0
M  V30 743 H 75.1491 -1.48416 2.88346 0
M  V30 744 H 74.9341 -0.0444999 3.92075 0
M  V30 745 H 76.4241 -1.02648 4.04788 0
M  V30 746 N 76.8612 -1.46375 0.584142 0
M  V30 747 C 77.8242 -2.28784 -0.138108 0
M  V30 748 C 78.8242 -1.38471 -0.817462 0
M  V30 749 O 80.0142 -1.60833 -0.669199 0
M  V30 750 C 77.1462 -3.18892 -1.20503 0
M  V30 751 H 78.3392 -2.94117 0.586127 0
M  V30 752 H 75.8922 -1.52509 0.342171 0
M  V30 753 H 76.6272 -2.58309 -1.96079 0
M  V30 754 H 76.4122 -3.85388 -0.722384 0
M  V30 755 H 77.9022 -3.80914 -1.71155 0
M  V30 756 N 78.3393 -0.321999 -1.54275 0
M  V30 757 C 79.2693 0.537411 -2.27231 0
M  V30 758 C 80.2503 1.12064 -1.27968 0
M  V30 759 O 81.4353 1.14606 -1.56777 0
M  V30 760 C 78.5653 1.69919 -3.02894 0
M  V30 761 C 77.5193 1.24534 -4.09482 0
M  V30 762 C 76.8453 2.49394 -4.72977 0
M  V30 763 C 78.1453 0.361335 -5.21049 0
M  V30 764 H 79.8393 -0.0711406 -2.99315 0
M  V30 765 H 77.3853 -0.0356555 -1.43956 0
M  V30 766 H 79.3383 2.30668 -3.52662 0
M  V30 767 H 78.0623 2.33431 -2.28424 0
M  V30 768 H 76.7213 0.660782 -3.60596 0
M  V30 769 H 76.3693 3.11265 -3.95124 0
M  V30 770 H 76.0693 2.19718 -5.44975 0
M  V30 771 H 77.5933 3.10908 -5.25517 0
M  V30 772 H 79.0073 0.875072 -5.66582 0
M  V30 773 H 77.4043 0.157428 -5.99893 0
M  V30 774 H 78.4743 -0.60822 -4.8107 0
M  V30 775 N 79.8174 1.5752 -0.0501392 0
M  V30 776 C 81.0654 1.9227 0.622642 0
M  V30 777 C 81.3864 0.929083 1.71444 0
M  V30 778 O 80.6564 -0.0262186 1.95882 0
M  V30 779 H 79.2364 0.709739 0.232981 0
M  V30 780 H 81.8984 1.94628 -0.102898 0
M  V30 781 H 80.9944 2.93479 1.06191 0
M  V30 782 N 81.2955 -0.223234 1.56011 0
M  V30 783 C 82.5725 -0.972108 1.69733 0
M  V30 784 C 82.9525 -2.02485 0.59691 0
M  V30 785 O 82.3005 -2.25037 -0.396324 0
M  V30 786 C 82.5105 -1.58407 3.10979 0
M  V30 787 C 83.8585 -2.07696 3.70334 0
M  V30 788 O 84.8825 -1.68304 3.1393 0
M  V30 789 O 83.7415 -2.80096 4.69264 0
M  V30 790 H 80.8355 -0.453993 0.691245 0
M  V30 791 H 83.3815 -0.215149 1.68331 0
M  V30 792 H 82.1535 -0.823831 3.82529 0
M  V30 793 H 81.7765 -2.40661 3.16493 0
M  V30 794 N 82.7736 -1.49793 -0.48987 0
M  V30 795 C 84.0226 -1.59085 -1.23995 0
M  V30 796 C 84.3356 -0.287907 -1.9347 0
M  V30 797 O 85.5416 -0.259506 -2.70257 0
M  V30 798 C 83.9976 -2.80736 -2.252 0
M  V30 799 C 83.6056 -4.17833 -1.61614 0
M  V30 800 C 85.3496 -2.99364 -3.00967 0
M  V30 801 C 83.2566 -5.30693 -2.60996 0
M  V30 802 H 82.1866 -0.592372 -0.466488 0
M  V30 803 H 84.8376 -1.76197 -0.51252 0
M  V30 804 H 83.2196 -2.57142 -3.01154 0
M  V30 805 H 84.3936 -4.51608 -0.915774 0
M  V30 806 H 82.7086 -4.04656 -0.981977 0
M  V30 807 H 85.3056 -3.80851 -3.75308 0
M  V30 808 H 85.6486 -2.10356 -3.59244 0
M  V30 809 H 86.1816 -3.2305 -2.32128 0
M  V30 810 H 82.9206 -6.21796 -2.07485 0
M  V30 811 H 82.4406 -5.01359 -3.2924 0
M  V30 812 H 84.1196 -5.6049 -3.23202 0
M  V30 813 N 84.2517 0.741722 -1.39055 0
M  V30 814 C 85.4997 1.49818 -1.35643 0
M  V30 815 C 85.8207 1.94938 0.0491642 0
M  V30 816 O 85.0907 1.68505 0.999141 0
M  V30 817 H 83.6707 0.555755 -0.499144 0
M  V30 818 H 86.3327 0.880957 -1.73854 0
M  V30 819 H 85.4287 2.38348 -2.01486 0
M  V30 820 N 85.7298 1.2412 0.971189 0
M  V30 821 C 86.6768 1.0305 2.06517 0
M  V30 822 C 87.6468 -0.0550666 1.66009 0
M  V30 823 O 88.8318 0.0988688 1.90544 0
M  V30 824 C 85.9718 0.637653 3.39158 0
M  V30 825 C 85.0848 1.79633 3.92882 0
M  V30 826 C 84.2198 1.34939 5.13775 0
M  V30 827 C 83.2588 2.47823 5.59687 0
M  V30 828 N 82.3958 2.04022 6.71803 0
M  V30 829 H 87.2358 1.96685 2.23873 0
M  V30 830 H 84.7728 0.979694 1.09729 0
M  V30 831 H 86.7308 0.390931 4.15364 0
M  V30 832 H 85.3608 -0.261693 3.21737 0
M  V30 833 H 84.4128 2.15681 3.13346 0
M  V30 834 H 85.7248 2.64466 4.22918 0
M  V30 835 H 84.8788 1.06134 5.97345 0
M  V30 836 H 83.6178 0.471557 4.85415 0
M  V30 837 H 82.6228 2.77392 4.74693 0
M  V30 838 H 83.8478 3.36158 5.90063 0
M  V30 839 H 81.7938 1.18632 6.45184 0
M  V30 840 H 81.7108 2.82409 7.01271 0
M  V30 841 H 82.9788 1.78347 7.58823 0
M  V30 842 N 87.2079 -1.17134 1.05439 0
M  V30 843 C 88.1379 -2.2342 0.678649 0
M  V30 844 C 89.1189 -1.66971 -0.32476 0
M  V30 845 O 90.3039 -1.93149 -0.201802 0
M  V30 846 C 87.4339 -3.47256 0.0552099 0
M  V30 847 C 86.3879 -4.16543 0.98365 0
M  V30 848 C 85.7139 -5.34231 0.223961 0
M  V30 849 C 87.0139 -4.68495 2.3089 0
M  V30 850 H 88.7079 -2.55105 1.56722 0
M  V30 851 H 86.2539 -1.2262 0.754998 0
M  V30 852 H 88.2069 -4.20828 -0.21946 0
M  V30 853 H 86.9309 -3.14846 -0.868319 0
M  V30 854 H 85.5899 -3.44887 1.24293 0
M  V30 855 H 85.2379 -4.98071 -0.702412 0
M  V30 856 H 84.9379 -5.81527 0.842627 0
M  V30 857 H 86.4619 -6.10585 -0.0433671 0
M  V30 858 H 87.8759 -5.33691 2.09396 0
M  V30 859 H 86.2729 -5.26379 2.88176 0
M  V30 860 H 87.3429 -3.85169 2.94572 0
M  V30 861 N 88.686 -0.835752 -1.33615 0
M  V30 862 C 89.933 -0.429959 -1.97883 0
M  V30 863 C 90.261 1.01006 -1.66217 0
M  V30 864 O 89.516 1.72047 -0.93265 0
M  V30 865 C 89.815 -0.593925 -3.52431 0
M  V30 866 C 89.481 -2.00158 -4.04039 0
M  V30 867 C 88.143 -2.38662 -4.17844 0
M  V30 868 C 90.495 -2.92117 -4.31644 0
M  V30 869 C 87.823 -3.68435 -4.56588 0
M  V30 870 C 90.175 -4.21368 -4.71838 0
M  V30 871 C 88.839 -4.59833 -4.83849 0
M  V30 872 H 88.109 -0.157333 -0.724104 0
M  V30 873 H 90.756 -1.06217 -1.59343 0
M  V30 874 H 89.061 0.121619 -3.91611 0
M  V30 875 H 90.758 -0.260282 -4.00154 0
M  V30 876 H 87.348 -1.69252 -3.93766 0
M  V30 877 H 91.532 -2.63608 -4.20505 0
M  V30 878 H 86.788 -3.98046 -4.64079 0
M  V30 879 H 90.962 -4.92703 -4.92155 0
M  V30 880 H 88.589 -5.60438 -5.13627 0
M  V30 881 N 90.1641 1.46063 -0.591896 0
M  V30 882 C 91.5751 1.85944 -0.167822 0
M  V30 883 C 91.9261 1.49429 1.27143 0
M  V30 884 O 91.0511 0.913515 1.96173 0
M  V30 885 C 91.6461 3.37489 -0.297794 0
M  V30 886 C 90.2051 3.76332 0.0714732 0
M  V30 887 C 89.3521 2.7006 -0.629509 0
M  V30 888 H 92.3031 1.37087 -0.799555 0
M  V30 889 H 92.3241 3.77532 0.474349 0
M  V30 890 H 91.8361 3.64034 -1.3454 0
M  V30 891 H 89.9371 3.55405 1.11886 0
M  V30 892 H 90.0501 4.78088 -0.311245 0
M  V30 893 H 88.4141 2.54607 -0.0687867 0
M  V30 894 H 89.1971 2.99444 -1.67894 0
M  V30 895 N 91.6422 0.330177 1.54103 0
M  V30 896 C 92.9192 -0.325007 1.92881 0
M  V30 897 C 93.2992 -1.6934 1.26045 0
M  V30 898 O 92.6472 -2.24855 0.406526 0
M  V30 899 C 92.8572 -0.410634 3.46576 0
M  V30 900 C 94.2052 -0.667801 4.19316 0
M  V30 901 O 95.2292 -0.49329 3.52768 0
M  V30 902 O 94.0882 -1.00491 5.37181 0
M  V30 903 H 91.1822 -0.186873 0.80561 0
M  V30 904 H 93.7282 0.380376 1.65382 0
M  V30 905 H 92.5002 0.550164 3.87413 0
M  V30 906 H 92.1232 -1.16333 3.802 0
M  V30 907 N 93.1203 -1.57491 0.0584922 0
M  V30 908 C 94.3483 -1.97296 -0.623037 0
M  V30 909 C 94.7633 -0.936338 -1.63946 0
M  V30 910 O 94.1203 0.0785981 -1.82331 0
M  V30 911 C 94.1713 -3.37183 -1.30345 0
M  V30 912 O 93.8923 -4.36872 -0.32773 0
M  V30 913 C 95.3933 -3.91788 -2.07406 0
M  V30 914 H 92.6133 -0.649153 -0.169826 0
M  V30 915 H 95.1573 -2.04106 0.12696 0
M  V30 916 H 93.3123 -3.31502 -2.00463 0
M  V30 917 H 93.7263 -5.18141 -0.814269 0
M  V30 918 H 95.2003 -4.91926 -2.50425 0
M  V30 919 H 95.6773 -3.27609 -2.92521 0
M  V30 920 H 96.2833 -4.00829 -1.42184 0
M  V30 921 N 94.5984 0.214957 -1.56127 0
M  V30 922 C 95.8754 0.963093 -1.70247 0
M  V30 923 C 96.2554 2.02166 -0.60764 0
M  V30 924 O 95.6034 2.25244 0.384385 0
M  V30 925 C 95.8134 1.56756 -3.11815 0
M  V30 926 C 97.1614 2.0573 -3.7143 0
M  V30 927 O 98.1854 1.66637 -3.14818 0
M  V30 928 O 97.0444 2.77603 -4.70743 0
M  V30 929 H 94.1384 0.450321 -0.693643 0
M  V30 930 H 96.6844 0.206219 -1.68442 0
M  V30 931 H 95.4564 0.803533 -3.82961 0
M  V30 932 H 95.0794 2.3898 -3.17765 0
M  V30 933 N 96.0765 1.50051 0.48192 0
M  V30 934 C 97.4875 1.5348 1.06305 0
M  V30 935 C 97.8385 0.331997 1.93371 0
M  V30 936 O 96.9635 -0.556256 2.09129 0
M  V30 937 C 97.5585 2.7813 1.93466 0
M  V30 938 C 96.1175 2.84275 2.46707 0
M  V30 939 C 95.2645 2.47637 1.24785 0
M  V30 940 H 98.2155 1.56472 0.264995 0
M  V30 941 H 98.2365 2.59372 2.78399 0
M  V30 942 H 97.7485 3.65654 1.30072 0
M  V30 943 H 95.8495 2.01077 3.13686 0
M  V30 944 H 95.9625 3.8691 2.82555 0
M  V30 945 H 94.3265 1.99835 1.57918 0
M  V30 946 H 95.1095 3.37457 0.630694 0
M  V30 947 N 97.5546 -0.734337 1.39446 0
M  V30 948 C 98.5176 -1.83004 1.37994 0
M  V30 949 C 99.5176 -1.58397 0.276938 0
M  V30 950 O 100.708 -1.65785 0.534875 0
M  V30 951 C 97.8396 -3.20802 1.1532 0
M  V30 952 H 99.0326 -1.85694 2.35494 0
M  V30 953 H 96.5856 -0.938059 1.25021 0
M  V30 954 H 97.3206 -3.23772 0.185036 0
M  V30 955 H 97.1056 -3.4006 1.95197 0
M  V30 956 H 98.5956 -4.00862 1.17046 0
M  V30 957 N 99.0327 -1.24633 -0.964593 0
M  V30 958 C 100.28 -1.08788 -1.70796 0
M  V30 959 C 100.608 0.372783 -1.90894 0
M  V30 960 O 99.8627 1.29167 -1.47018 0
M  V30 961 C 100.162 -1.7763 -3.10133 0
M  V30 962 C 99.8277 -3.27557 -3.09866 0
M  V30 963 C 98.4897 -3.6846 -3.09501 0
M  V30 964 C 100.842 -4.23389 -3.03959 0
M  V30 965 C 98.1697 -5.03624 -3.00965 0
M  V30 966 C 100.522 -5.58565 -2.96965 0
M  V30 967 C 99.1857 -5.98809 -2.9493 0
M  V30 968 H 98.4557 -0.398084 -0.624988 0
M  V30 969 H 101.103 -1.54777 -1.12767 0
M  V30 970 H 99.4077 -1.24044 -3.71645 0
M  V30 971 H 101.105 -1.62832 -3.66451 0
M  V30 972 H 97.6947 -2.95006 -3.10917 0
M  V30 973 H 101.879 -3.92787 -3.03368 0
M  V30 974 H 97.1347 -5.33998 -2.97752 0
M  V30 975 H 101.309 -6.32523 -2.91354 0
M  V30 976 H 98.9357 -7.03505 -2.88071 0
M  V30 977 N 100.511 1.16574 -1.06058 0
M  V30 978 C 101.458 2.20883 -0.669263 0
M  V30 979 C 102.428 1.62729 0.332918 0
M  V30 980 O 103.613 1.895 0.222346 0
M  V30 981 C 100.753 3.45049 -0.0593572 0
M  V30 982 C 99.8658 4.17458 -1.11143 0
M  V30 983 C 99.0008 5.29135 -0.467916 0
M  V30 984 C 98.0398 5.93343 -1.50369 0
M  V30 985 N 97.1768 6.96516 -0.883706 0
M  V30 986 H 102.017 2.53709 -1.5632 0
M  V30 987 H 99.5538 1.24616 -0.781625 0
M  V30 988 H 101.512 4.16033 0.311771 0
M  V30 989 H 100.142 3.12781 0.797992 0
M  V30 990 H 99.1938 3.45101 -1.60029 0
M  V30 991 H 100.506 4.61307 -1.89731 0
M  V30 992 H 99.6598 6.06684 -0.0436871 0
M  V30 993 H 98.3988 4.86443 0.349864 0
M  V30 994 H 97.4038 5.14517 -1.93784 0
M  V30 995 H 98.6288 6.38114 -2.32352 0
M  V30 996 H 96.5748 6.55943 -0.086595 0
M  V30 997 H 96.4918 7.38723 -1.607 0
M  V30 998 H 97.7598 7.77993 -0.484543 0
M  V30 999 N 101.989 0.842826 1.3317 0
M  V30 1000 C 103.237 0.439577 1.97262 0
M  V30 1001 C 103.558 -1.00548 1.67078 0
M  V30 1002 O 102.828 -1.70098 0.971779 0
M  V30 1003 H 101.408 0.159558 0.72976 0
M  V30 1004 H 104.07 1.07665 1.62463 0
M  V30 1005 H 103.166 0.574886 3.0676 0
M  V30 1006 N 103.467 -1.45747 0.599634 0
M  V30 1007 C 104.43 -2.28917 -0.113835 0
M  V30 1008 C 105.43 -1.3933 -0.802729 0
M  V30 1009 O 106.62 -1.61534 -0.652103 0
M  V30 1010 C 103.752 -3.20152 -1.17114 0
M  V30 1011 H 104.945 -2.93478 0.617289 0
M  V30 1012 H 102.498 -1.52137 0.358327 0
M  V30 1013 H 103.233 -2.60374 -1.93329 0
M  V30 1014 H 103.018 -3.86133 -0.681468 0
M  V30 1015 H 104.508 -3.82708 -1.67105 0
M  V30 1016 N 104.945 -0.338344 -1.53925 0
M  V30 1017 C 106.222 0.314774 -1.93051 0
M  V30 1018 C 106.602 1.68669 -1.26941 0
M  V30 1019 O 105.95 2.24636 -0.418445 0
M  V30 1020 C 106.16 0.392249 -3.46789 0
M  V30 1021 C 107.508 0.645554 -4.19664 0
M  V30 1022 O 108.532 0.474575 -3.53024 0
M  V30 1023 O 107.391 0.976408 -5.37707 0
M  V30 1024 H 104.485 0.182598 -0.80659 0
M  V30 1025 H 107.031 -0.389141 -1.65178 0
M  V30 1026 H 105.803 -0.570702 -3.87116 0
M  V30 1027 H 105.426 1.14316 -3.80812 0
M  V30 1028 N 106.423 1.57458 -0.0668435 0
M  V30 1029 C 107.648 1.9804 0.616027 0
M  V30 1030 C 108.073 0.944771 1.62652 0
M  V30 1031 O 107.431 -0.0902094 1.81075 0
M  V30 1032 C 107.479 3.37665 1.26549 0
M  V30 1033 O 106.583 3.36701 2.38131 0
M  V30 1034 H 105.924 0.644719 0.158849 0
M  V30 1035 H 108.454 2.04121 -0.139891 0
M  V30 1036 H 108.464 3.7474 1.6135 0
M  V30 1037 H 107.139 4.12573 0.525016 0
M  V30 1038 H 105.716 3.1139 2.0516 0
M  V30 1039 N 107.901 -0.206675 1.56239 0
M  V30 1040 C 109.317 -0.557025 1.49564 0
M  V30 1041 C 109.517 -1.86424 0.764735 0
M  V30 1042 O 108.573 -2.50584 0.310491 0
M  V30 1043 C 109.886 -0.622478 2.94186 0
M  V30 1044 C 111.434 -0.712099 3.04792 0
M  V30 1045 C 111.909 -0.808767 4.50803 0
M  V30 1046 N 113.4 -0.8726 4.54907 0
M  V30 1047 C 114.135 -0.967365 5.65181 0
M  V30 1048 N 113.631 -1.02515 6.85173 0
M  V30 1049 N 115.424 -1.00366 5.53067 0
M  V30 1050 H 107.575 0.650943 2.02179 0
M  V30 1051 H 109.838 0.230387 0.919579 0
M  V30 1052 H 109.544 0.268727 3.50672 0
M  V30 1053 H 109.418 -1.4811 3.46905 0
M  V30 1054 H 111.805 -1.59374 2.48363 0
M  V30 1055 H 111.886 0.172489 2.55218 0
M  V30 1056 H 111.53 0.0684754 5.07854 0
M  V30 1057 H 111.46 -1.70899 4.98098 0
M  V30 1058 H 113.951 -0.837657 3.68499 0
M  V30 1059 H 114.264 -1.09765 7.64965 0
M  V30 1060 H 112.609 -0.994026 6.87855 0
M  V30 1061 H 115.8 -0.95527 4.58249 0
M  V30 1062 H 115.973 -1.07405 6.39037 0
M  V30 1063 N 109.379 -1.50304 -0.473955 0
M  V30 1064 C 110.289 -1.7174 -1.5982 0
M  V30 1065 C 111.305 -0.600457 -1.63311 0
M  V30 1066 O 112.481 -0.878441 -1.81233 0
M  V30 1067 C 109.546 -1.80427 -2.96052 0
M  V30 1068 C 108.607 -3.04148 -3.02972 0
M  V30 1069 C 107.84 -3.12411 -4.32706 0
M  V30 1070 O 108.063 -2.27542 -5.23049 0
M  V30 1071 O 106.997 -4.05113 -4.45159 0
M  V30 1072 H 110.823 -2.67035 -1.44657 0
M  V30 1073 H 108.408 -1.34366 -0.653148 0
M  V30 1074 H 110.29 -1.88338 -3.7697 0
M  V30 1075 H 108.965 -0.883156 -3.11419 0
M  V30 1076 H 107.872 -3.0174 -2.21142 0
M  V30 1077 H 109.205 -3.95829 -2.92541 0
M  V30 1078 N 110.857 0.726932 -1.39834 0
M  V30 1079 C 111.787 1.85405 -1.41941 0
M  V30 1080 C 112.768 1.67751 -0.281728 0
M  V30 1081 O 113.953 1.8795 -0.488717 0
M  V30 1082 C 111.083 3.23243 -1.2701 0
M  V30 1083 C 110.037 3.55549 -2.38262 0
M  V30 1084 C 109.363 4.9241 -2.08415 0
M  V30 1085 C 110.663 3.577 -3.80589 0
M  V30 1086 H 112.357 1.83899 -2.36266 0
M  V30 1087 H 109.903 0.883349 -1.13723 0
M  V30 1088 H 111.856 4.01775 -1.27103 0
M  V30 1089 H 110.58 3.25296 -0.291564 0
M  V30 1090 H 109.239 2.79351 -2.37399 0
M  V30 1091 H 108.887 4.91052 -1.0898 0
M  V30 1092 H 108.587 5.14992 -2.82943 0
M  V30 1093 H 110.111 5.73289 -2.10171 0
M  V30 1094 H 111.525 4.26293 -3.83337 0
M  V30 1095 H 109.922 3.91804 -4.54543 0
M  V30 1096 H 110.992 2.57328 -4.10987 0
M  V30 1097 N 112.336 1.25143 0.95797 0
M  V30 1098 C 113.266 1.07711 2.07173 0
M  V30 1099 C 114.247 -0.0128462 1.70095 0
M  V30 1100 O 115.432 0.156061 1.93572 0
M  V30 1101 C 112.562 0.691503 3.40346 0
M  V30 1102 C 111.516 1.73132 3.9142 0
M  V30 1103 C 110.842 1.20049 5.21049 0
M  V30 1104 C 112.142 3.1294 4.1817 0
M  V30 1105 H 113.836 2.00873 2.22014 0
M  V30 1106 H 111.382 0.967191 1.06684 0
M  V30 1107 H 113.335 0.556505 4.17709 0
M  V30 1108 H 112.059 -0.275819 3.25433 0
M  V30 1109 H 110.718 1.8547 3.16222 0
M  V30 1110 H 110.366 0.223499 5.02503 0
M  V30 1111 H 110.066 1.89545 5.56189 0
M  V30 1112 H 111.59 1.07782 6.01012 0
M  V30 1113 H 113.004 3.03775 4.86203 0
M  V30 1114 H 111.401 3.79875 4.64559 0
M  V30 1115 H 112.471 3.6025 3.24573 0
M  V30 1116 N 113.814 -1.1601 1.06675 0
M  V30 1117 C 115.23 -1.38622 0.790948 0
M  V30 1118 C 115.43 -1.92109 -0.607965 0
M  V30 1119 O 114.486 -2.12239 -1.36787 0
M  V30 1120 C 115.799 -2.36347 1.85905 0
M  V30 1121 C 117.347 -2.50023 1.88301 0
M  V30 1122 C 117.822 -3.51033 2.94176 0
M  V30 1123 N 119.313 -3.58563 2.93235 0
M  V30 1124 C 120.048 -4.36521 3.71803 0
M  V30 1125 N 119.544 -5.17869 4.602 0
M  V30 1126 N 121.337 -4.31541 3.60178 0
M  V30 1127 H 113.488 -0.796294 1.96908 0
M  V30 1128 H 115.751 -0.412597 0.853503 0
M  V30 1129 H 115.457 -2.04147 2.86386 0
M  V30 1130 H 115.331 -3.36042 1.71334 0
M  V30 1131 H 117.718 -2.81524 0.884769 0
M  V30 1132 H 117.799 -1.5035 2.06951 0
M  V30 1133 H 117.443 -3.20268 3.94196 0
M  V30 1134 H 117.373 -4.50445 2.72776 0
M  V30 1135 H 119.864 -3.00496 2.29152 0
M  V30 1136 H 120.177 -5.74578 5.16797 0
M  V30 1137 H 118.522 -5.17199 4.64253 0
M  V30 1138 H 121.713 -3.67051 2.90502 0
M  V30 1139 H 121.886 -4.9205 4.21653 0
M  V30 1140 N 115.292 -0.849877 -1.32721 0
M  V30 1141 C 116.202 -0.293791 -2.32753 0
M  V30 1142 C 117.218 0.585906 -1.63839 0
M  V30 1143 O 118.394 0.487413 -1.95413 0
M  V30 1144 C 115.459 0.512752 -3.42887 0
M  V30 1145 C 114.52 -0.39252 -4.27502 0
M  V30 1146 C 113.753 0.375625 -5.32377 0
M  V30 1147 O 113.976 1.60613 -5.4732 0
M  V30 1148 O 112.91 -0.256094 -6.01355 0
M  V30 1149 H 116.736 -1.12242 -2.82197 0
M  V30 1150 H 114.321 -0.612685 -1.36259 0
M  V30 1151 H 116.203 0.970704 -4.10067 0
M  V30 1152 H 114.878 1.31826 -2.95641 0
M  V30 1153 H 113.785 -0.898547 -3.63149 0
M  V30 1154 H 115.118 -1.16309 -4.7826 0
M  V30 1155 N 116.77 1.45427 -0.607355 0
M  V30 1156 C 117.733 2.28974 0.101693 0
M  V30 1157 C 118.733 1.39754 0.795329 0
M  V30 1158 O 119.923 1.61878 0.643527 0
M  V30 1159 C 117.055 3.20768 1.15414 0
M  V30 1160 H 118.248 2.93147 -0.632844 0
M  V30 1161 H 115.801 1.51945 -0.366391 0
M  V30 1162 H 116.536 2.61395 1.91945 0
M  V30 1163 H 116.321 3.86489 0.66098 0
M  V30 1164 H 117.811 3.83589 1.65073 0
M  V30 1165 N 118.248 0.346503 1.53744 0
M  V30 1166 C 119.494 -0.242135 2.01954 0
M  V30 1167 C 119.849 -1.47962 1.22984 0
M  V30 1168 O 119.142 -1.89077 0.309924 0
M  V30 1169 C 119.336 -0.605809 3.52228 0
M  V30 1170 C 119.165 0.594882 4.45748 0
M  V30 1171 C 117.935 1.1011 4.93157 0
M  V30 1172 C 120.133 1.45425 4.93311 0
M  V30 1173 N 118.115 2.26381 5.70636 0
M  V30 1174 C 119.486 2.46383 5.68942 0
M  V30 1175 C 121.541 1.47935 4.75415 0
M  V30 1176 C 120.244 3.49684 6.28581 0
M  V30 1177 C 122.27 2.50119 5.35905 0
M  V30 1178 C 121.632 3.49803 6.11406 0
M  V30 1179 H 117.731 -0.0518296 0.780281 0
M  V30 1180 H 120.315 0.486736 1.88518 0
M  V30 1181 H 118.486 -1.30378 3.65864 0
M  V30 1182 H 120.218 -1.17789 3.87179 0
M  V30 1183 H 116.973 0.668721 4.68855 0
M  V30 1184 H 117.397 2.85094 6.14044 0
M  V30 1185 H 122.039 0.722274 4.16585 0
M  V30 1186 H 119.757 4.26285 6.86518 0
M  V30 1187 H 123.343 2.52892 5.23963 0
M  V30 1188 H 122.223 4.27576 6.5738 0
M  V30 1189 N 119.726 -1.57421 0.075193 0
M  V30 1190 C 121.142 -1.57099 -0.281444 0
M  V30 1191 C 121.342 -1.08486 -1.69803 0
M  V30 1192 O 120.398 -0.752279 -2.41033 0
M  V30 1193 C 121.711 -3.00571 -0.0880041 0
M  V30 1194 C 123.259 -3.12605 -0.157281 0
M  V30 1195 C 123.734 -4.57999 0.0079207 0
M  V30 1196 N 125.225 -4.63176 -0.0475725 0
M  V30 1197 C 125.96 -5.73373 0.0557876 0
M  V30 1198 N 125.456 -6.92473 0.21286 0
M  V30 1199 N 127.249 -5.621 -0.00152098 0
M  V30 1200 H 119.4 -1.87335 1.00098 0
M  V30 1201 H 121.663 -0.86377 0.390646 0
M  V30 1202 H 121.369 -3.40262 0.889629 0
M  V30 1203 H 121.243 -3.67754 -0.838875 0
M  V30 1204 H 123.63 -2.72798 -1.1254 0
M  V30 1205 H 123.711 -2.48053 0.62475 0
M  V30 1206 H 123.355 -4.98496 0.972824 0
M  V30 1207 H 123.285 -5.20586 -0.793556 0
M  V30 1208 H 125.776 -3.7753 -0.167244 0
M  V30 1209 H 126.089 -7.72279 0.283781 0
M  V30 1210 H 124.434 -6.94556 0.248267 0
M  V30 1211 H 127.625 -4.67938 -0.122958 0
M  V30 1212 H 127.798 -6.47948 0.0824844 0
M  V30 1213 N 121.204 0.198386 -1.56346 0
M  V30 1214 C 122.62 0.549085 -1.49857 0
M  V30 1215 C 122.82 1.86016 -0.774611 0
M  V30 1216 O 121.876 2.50416 -0.323776 0
M  V30 1217 C 123.189 0.606868 -2.94512 0
M  V30 1218 C 124.737 0.695925 -3.05165 0
M  V30 1219 C 125.212 0.784848 -4.51225 0
M  V30 1220 N 126.703 0.848463 -4.55363 0
M  V30 1221 C 127.438 0.937378 -5.65686 0
M  V30 1222 N 126.934 0.9888 -6.85707 0
M  V30 1223 N 128.727 0.974312 -5.53592 0
M  V30 1224 H 120.878 -0.661655 -2.01831 0
M  V30 1225 H 123.141 -0.235261 -0.918344 0
M  V30 1226 H 122.847 -0.28732 -3.50524 0
M  V30 1227 H 122.721 1.46268 -3.47686 0
M  V30 1228 H 125.108 1.58055 -2.49204 0
M  V30 1229 H 125.189 -0.186022 -2.55123 0
M  V30 1230 H 124.833 -0.0954072 -5.0781 0
M  V30 1231 H 124.763 1.68255 -4.98997 0
M  V30 1232 H 127.254 0.818103 -3.68938 0
M  V30 1233 H 127.567 1.05707 -7.65536 0
M  V30 1234 H 125.912 0.957534 -6.88372 0
M  V30 1235 H 129.103 0.930954 -4.58749 0
M  V30 1236 H 129.276 1.04015 -6.39597 0
M  V30 1237 N 122.682 1.50554 0.465978 0
M  V30 1238 C 123.931 1.61038 1.21448 0
M  V30 1239 C 124.244 0.31865 1.92987 0
M  V30 1240 O 125.45 0.302469 2.6981 0
M  V30 1241 C 123.906 2.84283 2.20706 0
M  V30 1242 C 123.514 4.20352 1.54946 0
M  V30 1243 C 125.258 3.04115 2.96166 0
M  V30 1244 C 123.165 5.34778 2.5252 0
M  V30 1245 H 122.095 0.599718 0.457005 0
M  V30 1246 H 124.746 1.7699 0.484424 0
M  V30 1247 H 123.128 2.61901 2.97025 0
M  V30 1248 H 124.302 4.53008 0.843811 0
M  V30 1249 H 122.617 4.06167 0.917475 0
M  V30 1250 H 125.214 3.86774 3.69202 0
M  V30 1251 H 125.557 2.16045 3.55852 0
M  V30 1252 H 126.09 3.26702 2.26959 0
M  V30 1253 H 122.829 6.25018 1.97566 0
M  V30 1254 H 122.349 5.06534 3.21222 0
M  V30 1255 H 124.028 5.65561 3.14245 0
M  V30 1256 N 124.16 -0.719506 1.40217 0
M  V30 1257 C 125.092 -1.84428 1.36084 0
M  V30 1258 C 126.105 -1.60597 0.266913 0
M  V30 1259 O 127.294 -1.70544 0.526983 0
M  V30 1260 C 124.394 -3.20757 1.094 0
M  V30 1261 C 123.567 -3.71817 2.30372 0
M  V30 1262 C 122.626 -4.86748 1.99907 0
M  V30 1263 O 121.652 -4.99603 2.72737 0
M  V30 1264 N 122.854 -5.7226 0.974635 0
M  V30 1265 H 125.619 -1.88473 2.33019 0
M  V30 1266 H 123.18 -0.900885 1.3452 0
M  V30 1267 H 125.172 -3.95235 0.870116 0
M  V30 1268 H 123.742 -3.11884 0.211452 0
M  V30 1269 H 122.962 -2.88514 2.68614 0
M  V30 1270 H 124.25 -4.02666 3.11026 0
M  V30 1271 H 123.648 -5.6448 0.371368 0
M  V30 1272 H 122.205 -6.46739 0.810656 0
M  V30 1273 N 125.638 -1.25649 -0.95132 0
M  V30 1274 C 126.601 -1.06399 -2.03007 0
M  V30 1275 C 127.601 -0.0156794 -1.60792 0
M  V30 1276 O 128.791 -0.25817 -1.72276 0
M  V30 1277 C 125.923 -0.616184 -3.35285 0
M  V30 1278 H 127.116 -2.02164 -2.21517 0
M  V30 1279 H 124.669 -1.08103 -1.12887 0
M  V30 1280 H 125.404 0.343917 -3.22471 0
M  V30 1281 H 125.189 -1.37301 -3.67275 0
M  V30 1282 H 126.679 -0.503032 -4.14559 0
M  V30 1283 N 127.117 1.15442 -1.07289 0
M  V30 1284 C 128.064 2.20161 -0.692653 0
M  V30 1285 C 129.034 1.63073 0.31564 0
M  V30 1286 O 130.219 1.89725 0.202235 0
M  V30 1287 C 127.359 3.44967 -0.0959509 0
M  V30 1288 C 126.472 4.16256 -1.15564 0
M  V30 1289 C 125.607 5.28609 -0.524011 0
M  V30 1290 C 124.646 5.91715 -1.56653 0
M  V30 1291 N 123.783 6.9554 -0.957531 0
M  V30 1292 H 128.623 2.52037 -1.59002 0
M  V30 1293 H 126.16 1.2378 -0.794798 0
M  V30 1294 H 128.118 4.16341 0.267628 0
M  V30 1295 H 126.748 3.1361 0.764772 0
M  V30 1296 H 125.8 3.43385 -1.6368 0
M  V30 1297 H 127.112 4.59268 -1.94613 0
M  V30 1298 H 126.266 6.06604 -0.108032 0
M  V30 1299 H 125.005 4.86787 0.29825 0
M  V30 1300 H 124.01 5.12433 -1.9923 0
M  V30 1301 H 125.235 6.35614 -2.39107 0
M  V30 1302 H 123.181 6.55814 -0.156162 0
M  V30 1303 H 123.098 7.36977 -1.68526 0
M  V30 1304 H 124.366 7.77435 -0.567032 0
M  V30 1305 N 128.595 0.856903 1.32268 0
M  V30 1306 C 129.843 0.460474 1.96784 0
M  V30 1307 C 130.164 -0.987701 1.68135 0
M  V30 1308 O 129.434 -1.69058 0.989765 0
M  V30 1309 H 128.014 0.167289 0.728027 0
M  V30 1310 H 130.676 1.09383 1.61312 0
M  V30 1311 H 129.772 0.60739 3.06133 0
M  V30 1312 N 130.073 -1.45103 0.615059 0
M  V30 1313 C 131.303 -2.06254 0.119596 0
M  V30 1314 C 131.711 -1.4591 -1.20445 0
M  V30 1315 O 131.054 -0.570384 -1.7462 0
M  V30 1316 C 131.116 -3.59396 -0.0865591 0
M  V30 1317 C 130.78 -4.42116 1.15683 0
M  V30 1318 C 131.777 -4.7662 2.07676 0
M  V30 1319 C 129.462 -4.82749 1.38775 0
M  V30 1320 C 131.456 -5.50622 3.21082 0
M  V30 1321 C 129.143 -5.56504 2.52481 0
M  V30 1322 C 130.141 -5.90358 3.43463 0
M  V30 1323 O 129.829 -6.62615 4.55189 0
M  V30 1324 H 129.561 -0.672423 0.0694512 0
M  V30 1325 H 132.115 -1.87219 0.844885 0
M  V30 1326 H 130.345 -3.76859 -0.866823 0
M  V30 1327 H 132.034 -4.02365 -0.534555 0
M  V30 1328 H 132.8 -4.4578 1.91063 0
M  V30 1329 H 128.679 -4.55829 0.688545 0
M  V30 1330 H 132.223 -5.76965 3.92119 0
M  V30 1331 H 128.12 -5.86759 2.69043 0
M  V30 1332 H 128.888 -6.81071 4.53966 0
M  V30 1333 N 131.551 -0.354651 -1.53558 0
M  V30 1334 C 132.779 0.239515 -2.05509 0
M  V30 1335 C 133.194 1.4333 -1.2289 0
M  V30 1336 O 132.551 1.80538 -0.266899 0
M  V30 1337 C 132.602 0.643719 -3.55723 0
M  V30 1338 O 132.323 -0.502602 -4.35207 0
M  V30 1339 C 133.824 1.29743 -4.23889 0
M  V30 1340 H 131.044 0.0442697 -0.669538 0
M  V30 1341 H 133.588 -0.509856 -1.98042 0
M  V30 1342 H 131.743 1.34302 -3.63376 0
M  V30 1343 H 132.157 -0.178172 -5.24197 0
M  V30 1344 H 133.631 1.53091 -5.30346 0
M  V30 1345 H 134.108 2.25441 -3.76926 0
M  V30 1346 H 134.714 0.639865 -4.20459 0
M  V30 1347 N 133.029 1.57378 -0.0835403 0
M  V30 1348 C 133.959 2.1641 0.87686 0
M  V30 1349 C 134.94 1.09429 1.30228 0
M  V30 1350 O 136.125 1.37516 1.37124 0
M  V30 1351 C 133.255 2.73517 2.14022 0
M  V30 1352 C 132.209 3.85769 1.85381 0
M  V30 1353 C 131.535 4.29529 3.18448 0
M  V30 1354 C 132.835 5.09486 1.14984 0
M  V30 1355 H 134.529 2.96914 0.385059 0
M  V30 1356 H 132.075 1.42823 0.18377 0
M  V30 1357 H 134.028 3.13463 2.81636 0
M  V30 1358 H 132.752 1.90252 2.65465 0
M  V30 1359 H 131.411 3.46345 1.20169 0
M  V30 1360 H 131.059 3.43169 3.67755 0
M  V30 1361 H 130.759 5.05204 3.00071 0
M  V30 1362 H 132.283 4.72099 3.8724 0
M  V30 1363 H 133.697 5.46674 1.72687 0
M  V30 1364 H 132.094 5.90515 1.06826 0
M  V30 1365 H 133.164 4.84724 0.130749 0
M  V30 1366 N 134.507 -0.190092 1.56449 0
M  V30 1367 C 135.755 -0.907908 1.80559 0
M  V30 1368 C 136.076 -1.83583 0.657438 0
M  V30 1369 O 135.346 -1.93203 -0.323924 0
M  V30 1370 H 133.926 -0.338247 0.666032 0
M  V30 1371 H 136.588 -0.194403 1.93928 0
M  V30 1372 H 135.684 -1.49604 2.73907 0
M  V30 1373 N 135.985 -1.50799 -0.457987 0
M  V30 1374 C 136.933 -1.71162 -1.575 0
M  V30 1375 C 137.927 -0.577592 -1.59249 0
M  V30 1376 O 139.133 -0.758443 -1.63241 0
M  V30 1377 H 135.508 -0.540468 -0.522875 0
M  V30 1378 H 137.479 -2.64837 -1.37492 0
M  V30 1379 C 136.228 -1.83496 -2.95338 0
M  V30 1380 H 135.551 -2.70153 -2.94716 0
M  V30 1381 H 136.991 -2.01765 -3.72917 0
M  V30 1382 C 135.45 -0.589694 -3.31699 0
M  V30 1383 O 135.98 0.265163 -4.00824 0
M  V30 1384 N 134.186 -0.439845 -2.87252 0
M  V30 1385 H 133.733 -1.13655 -2.31172 0
M  V30 1386 H 133.691 0.392159 -3.11945 0
M  V30 1387 N 137.463 0.71206 -1.40597 0
M  V30 1388 C 138.709 1.47416 -1.39271 0
M  V30 1389 C 139.042 1.942 0.00388791 0
M  V30 1390 O 138.317 1.68403 0.973179 0
M  V30 1391 C 138.6 2.69774 -2.38525 0
M  V30 1392 C 138.453 2.28861 -3.87224 0
M  V30 1393 C 139.772 3.71939 -2.35264 0
M  V30 1394 H 136.891 0.534713 -0.5072 0
M  V30 1395 H 139.533 0.812375 -1.71757 0
M  V30 1396 H 137.683 3.26238 -2.10953 0
M  V30 1397 H 139.355 1.77852 -4.25636 0
M  V30 1398 H 137.598 1.60824 -4.02887 0
M  V30 1399 H 138.269 3.16584 -4.52193 0
M  V30 1400 H 140.745 3.25113 -2.59694 0
M  V30 1401 H 139.621 4.55186 -3.06753 0
M  V30 1402 H 139.882 4.20484 -1.36549 0
M  V30 1403 N 138.941 1.26152 0.944643 0
M  V30 1404 C 140.218 1.02247 1.66748 0
M  V30 1405 C 140.598 -0.448202 2.06287 0
M  V30 1406 O 139.946 -1.42779 1.78399 0
M  V30 1407 C 140.156 1.96788 2.88228 0
M  V30 1408 C 141.504 2.25201 3.59958 0
M  V30 1409 O 142.528 1.94626 2.98327 0
M  V30 1410 O 141.387 2.77242 4.70956 0
M  V30 1411 H 138.481 0.388517 0.730057 0
M  V30 1412 H 141.027 1.37348 0.99668 0
M  V30 1413 H 139.799 2.96047 2.55875 0
M  V30 1414 H 139.422 1.62145 3.63035 0
M  V30 1415 N 140.419 -1.14872 1.07899 0
M  V30 1416 C 141.665 -1.86064 0.806725 0
M  V30 1417 C 141.998 -1.82434 -0.665706 0
M  V30 1418 O 141.273 -1.25138 -1.48899 0
M  V30 1419 C 141.556 -3.34929 1.32267 0
M  V30 1420 C 141.409 -3.47161 2.86006 0
M  V30 1421 C 142.728 -4.29863 0.943717 0
M  V30 1422 H 139.847 -0.675591 0.294526 0
M  V30 1423 H 142.489 -1.34925 1.33773 0
M  V30 1424 H 140.639 -3.78611 0.870974 0
M  V30 1425 H 142.311 -3.12302 3.39507 0
M  V30 1426 H 140.554 -2.88539 3.23925 0
M  V30 1427 H 141.225 -4.51777 3.17177 0
M  V30 1428 H 143.701 -3.9417 1.33302 0
M  V30 1429 H 142.577 -5.32494 1.33198 0
M  V30 1430 H 142.838 -4.41846 -0.149796 0
M  V30 1431 N 141.898 -0.863906 -1.31812 0
M  V30 1432 C 143.126 -0.486111 -2.01108 0
M  V30 1433 C 143.541 0.919755 -1.64882 0
M  V30 1434 O 142.898 1.60162 -0.874893 0
M  V30 1435 C 142.949 -0.626435 -3.56031 0
M  V30 1436 O 142.67 -1.97693 -3.90959 0
M  V30 1437 C 144.171 -0.248857 -4.42601 0
M  V30 1438 H 141.391 -0.190052 -0.643523 0
M  V30 1439 H 143.935 -1.1634 -1.68182 0
M  V30 1440 H 142.09 0.00322717 -3.874 0
M  V30 1441 H 142.504 -1.98034 -4.85678 0
M  V30 1442 H 143.978 -0.398016 -5.50563 0
M  V30 1443 H 144.455 0.811489 -4.31638 0
M  V30 1444 H 145.061 -0.853971 -4.16638 0
M  V30 1445 N 143.376 1.44774 -0.622745 0
M  V30 1446 C 144.625 2.01334 -0.121397 0
M  V30 1447 C 144.938 1.49505 1.26125 0
M  V30 1448 O 146.144 1.98139 1.85616 0
M  V30 1449 C 144.6 3.59516 -0.166298 0
M  V30 1450 C 144.208 4.20342 -1.54974 0
M  V30 1451 C 145.952 4.23582 0.279021 0
M  V30 1452 C 143.859 5.70721 -1.55021 0
M  V30 1453 H 142.789 0.752851 -0.0416172 0
M  V30 1454 H 145.44 1.66083 -0.780309 0
M  V30 1455 H 143.822 3.92027 0.559557 0
M  V30 1456 H 144.996 3.99381 -2.29851 0
M  V30 1457 H 143.311 3.68529 -1.93843 0
M  V30 1458 H 145.908 5.33868 0.298083 0
M  V30 1459 H 146.251 3.95327 1.30471 0
M  V30 1460 H 146.784 3.95843 -0.394063 0
M  V30 1461 H 143.523 6.03698 -2.55399 0
M  V30 1462 H 143.043 5.93829 -0.844245 0
M  V30 1463 H 144.722 6.34203 -1.28047 0
M  V30 1464 N 144.854 0.36279 1.53368 0
M  V30 1465 C 146.103 -0.22888 2.00397 0
M  V30 1466 C 146.416 -1.50096 1.25421 0
M  V30 1467 O 147.622 -2.17106 1.63025 0
M  V30 1468 C 146.078 -0.458417 3.56969 0
M  V30 1469 C 145.686 0.798877 4.4082 0
M  V30 1470 C 147.43 -1.00789 4.12361 0
M  V30 1471 C 145.337 0.539078 5.88938 0
M  V30 1472 H 144.267 -0.089305 0.748693 0
M  V30 1473 H 146.918 0.481099 1.77081 0
M  V30 1474 H 145.3 -1.22959 3.76427 0
M  V30 1475 H 146.474 1.57262 4.33134 0
M  V30 1476 H 144.789 1.27137 3.96516 0
M  V30 1477 H 147.386 -1.21754 5.20653 0
M  V30 1478 H 147.729 -1.9692 3.66781 0
M  V30 1479 H 148.262 -0.296961 3.9669 0
M  V30 1480 H 145.001 1.47064 6.3879 0
M  V30 1481 H 144.521 -0.196222 5.99479 0
M  V30 1482 H 146.2 0.163542 6.46793 0
M  V30 1483 N 146.332 -1.57332 0.0918853 0
M  V30 1484 C 147.295 -2.12708 -0.85369 0
M  V30 1485 C 148.295 -1.05561 -1.213 0
M  V30 1486 O 149.485 -1.31461 -1.14296 0
M  V30 1487 C 146.617 -2.64503 -2.15061 0
M  V30 1488 H 147.81 -2.97573 -0.3729 0
M  V30 1489 H 145.363 -1.55509 -0.157072 0
M  V30 1490 H 146.098 -1.83149 -2.67632 0
M  V30 1491 H 145.883 -3.4284 -1.90272 0
M  V30 1492 H 147.373 -3.07351 -2.82711 0
M  V30 1493 N 147.81 0.181792 -1.56548 0
M  V30 1494 C 148.742 1.24956 -1.92142 0
M  V30 1495 C 149.755 1.41022 -0.813422 0
M  V30 1496 O 150.944 1.41212 -1.09186 0
M  V30 1497 C 148.044 2.61981 -2.14987 0
M  V30 1498 C 147.217 2.6735 -3.46183 0
M  V30 1499 C 146.276 3.85664 -3.5798 0
M  V30 1500 O 145.302 3.72148 -4.30691 0
M  V30 1501 N 146.504 5.01683 -2.92053 0
M  V30 1502 H 149.269 0.947329 -2.84334 0
M  V30 1503 H 146.83 0.371629 -1.57577 0
M  V30 1504 H 148.822 3.3958 -2.20154 0
M  V30 1505 H 147.392 2.84637 -1.2923 0
M  V30 1506 H 146.612 1.75925 -3.52766 0
M  V30 1507 H 147.9 2.67939 -4.32534 0
M  V30 1508 H 147.298 5.15564 -2.32832 0
M  V30 1509 H 145.855 5.77181 -3.0283 0
M  V30 1510 N 149.288 1.51039 0.449983 0
M  V30 1511 C 150.251 1.70863 1.5277 0
M  V30 1512 C 151.251 0.578846 1.5002 0
M  V30 1513 O 152.441 0.846213 1.52266 0
M  V30 1514 C 149.573 1.75341 2.9235 0
M  V30 1515 H 150.766 2.67034 1.36502 0
M  V30 1516 H 148.319 1.40838 0.677812 0
M  V30 1517 H 149.054 0.809383 3.14037 0
M  V30 1518 H 148.839 2.57436 2.95752 0
M  V30 1519 H 150.329 1.92559 3.70555 0
M  V30 1520 N 150.766 -0.704594 1.40972 0
M  V30 1521 C 152.177 -1.28418 1.3552 0
M  V30 1522 C 152.528 -1.96171 0.0339434 0
M  V30 1523 O 151.653 -1.98231 -0.867944 0
M  V30 1524 C 152.248 -2.33528 2.45459 0
M  V30 1525 C 150.807 -2.87085 2.43433 0
M  V30 1526 C 149.954 -1.61007 2.2577 0
M  V30 1527 H 152.905 -0.499963 1.50619 0
M  V30 1528 H 152.926 -3.14619 2.13998 0
M  V30 1529 H 152.438 -1.84187 3.41609 0
M  V30 1530 H 150.539 -3.40626 1.51013 0
M  V30 1531 H 150.652 -3.3813 3.39419 0
M  V30 1532 H 149.016 -1.86482 1.73483 0
M  V30 1533 H 149.799 -1.13675 3.23933 0
M  V30 1534 N 152.244 -1.26651 -0.937939 0
M  V30 1535 C 153.191 -1.0849 -2.03712 0
M  V30 1536 C 154.161 0.011033 -1.66096 0
M  V30 1537 O 155.346 -0.149353 -1.90215 0
M  V30 1538 C 152.486 -0.72735 -3.37348 0
M  V30 1539 C 151.599 -1.89986 -3.87981 0
M  V30 1540 C 150.734 -1.48513 -5.10017 0
M  V30 1541 C 149.773 -2.62575 -5.5292 0
M  V30 1542 N 148.91 -2.21762 -6.66158 0
M  V30 1543 H 153.75 -2.02551 -2.18579 0
M  V30 1544 H 151.287 -1.00844 -1.07093 0
M  V30 1545 H 153.245 -0.50092 -4.14182 0
M  V30 1546 H 151.875 0.176298 -3.22318 0
M  V30 1547 H 150.927 -2.23913 -3.07518 0
M  V30 1548 H 152.239 -2.75586 -4.15757 0
M  V30 1549 H 151.393 -1.21934 -5.94321 0
M  V30 1550 H 150.132 -0.60009 -4.83994 0
M  V30 1551 H 149.137 -2.8988 -4.67172 0
M  V30 1552 H 150.362 -3.51685 -5.80943 0
M  V30 1553 H 148.308 -1.35696 -6.41812 0
M  V30 1554 H 148.225 -3.00903 -6.93537 0
M  V30 1555 H 149.493 -1.98403 -7.53828 0
M  V30 1556 N 153.722 1.14298 -1.08507 0
M  V30 1557 C 154.655 2.18447 -0.660004 0
M  V30 1558 C 155.633 1.59242 0.328749 0
M  V30 1559 O 156.817 1.87062 0.232367 0
M  V30 1560 C 153.944 3.38688 0.0290807 0
M  V30 1561 C 152.99 4.1646 -0.919982 0
M  V30 1562 S 153.823 4.77334 -2.42718 0
M  V30 1563 C 154.979 6.00931 -1.75024 0
M  V30 1564 H 155.212 2.54166 -1.54231 0
M  V30 1565 H 152.745 1.25446 -0.900149 0
M  V30 1566 H 154.703 4.08342 0.420378 0
M  V30 1567 H 153.364 3.01289 0.887895 0
M  V30 1568 H 152.557 5.02529 -0.384751 0
M  V30 1569 H 152.159 3.52414 -1.25223 0
M  V30 1570 H 154.451 6.69017 -1.06877 0
M  V30 1571 H 155.394 6.59044 -2.58971 0
M  V30 1572 H 155.802 5.51089 -1.22317 0
M  V30 1573 N 155.201 0.870884 1.31352 0
M  V30 1574 C 156.131 0.343096 2.30966 0
M  V30 1575 C 157.112 -0.566507 1.60389 0
M  V30 1576 O 158.297 -0.483336 1.88089 0
M  V30 1577 C 155.427 -0.455487 3.443 0
M  V30 1578 C 154.381 0.361103 4.26474 0
M  V30 1579 C 153.707 -0.563221 5.31725 0
M  V30 1580 C 155.007 1.59566 4.97329 0
M  V30 1581 H 156.701 1.17548 2.75359 0
M  V30 1582 H 154.247 0.566686 1.32381 0
M  V30 1583 H 156.2 -0.83525 4.13039 0
M  V30 1584 H 154.924 -1.32139 2.98675 0
M  V30 1585 H 153.583 0.722825 3.59403 0
M  V30 1586 H 153.231 -1.42643 4.82351 0
M  V30 1587 H 152.931 -0.0207409 5.87596 0
M  V30 1588 H 154.455 -0.939808 6.03324 0
M  V30 1589 H 155.869 1.28728 5.58661 0
M  V30 1590 H 154.266 2.07728 5.63 0
M  V30 1591 H 155.336 2.34798 4.24262 0
M  V30 1592 N 156.679 -1.44442 0.630414 0
M  V30 1593 C 158.09 -1.85434 0.217063 0
M  V30 1594 C 158.441 -1.52748 -1.23136 0
M  V30 1595 O 157.566 -0.965205 -1.93682 0
M  V30 1596 C 158.161 -3.36581 0.387168 0
M  V30 1597 C 156.72 -3.76389 0.0283297 0
M  V30 1598 C 155.867 -2.68296 0.700889 0
M  V30 1599 H 158.818 -1.34919 0.83562 0
M  V30 1600 H 158.839 -3.78657 -0.374086 0
M  V30 1601 H 158.351 -3.60339 1.44144 0
M  V30 1602 H 156.452 -3.58246 -1.02423 0
M  V30 1603 H 156.565 -4.77095 0.437892 0
M  V30 1604 H 154.929 -2.54335 0.136267 0
M  V30 1605 H 155.712 -2.94887 1.75774 0
M  V30 1606 N 158.157 -0.370918 -1.53173 0
M  V30 1607 C 159.107 0.489588 -2.22681 0
M  V30 1608 C 160.091 1.04442 -1.22395 0
M  V30 1609 O 161.283 0.973578 -1.47819 0
M  V30 1610 C 158.412 1.626 -3.02351 0
M  V30 1611 C 157.498 1.08379 -4.10018 0
M  V30 1612 N 157.889 0.265004 -5.05105 0
M  V30 1613 C 156.187 1.35809 -4.2482 0
M  V30 1614 C 156.888 -0.0324755 -5.81691 0
M  V30 1615 N 155.864 0.566581 -5.40639 0
M  V30 1616 H 159.666 -0.142729 -2.93553 0
M  V30 1617 H 157.18 -0.179221 -1.61408 0
M  V30 1618 H 159.177 2.2547 -3.50669 0
M  V30 1619 H 157.837 2.26132 -2.33011 0
M  V30 1620 H 158.848 -0.0962352 -5.17811 0
M  V30 1621 H 155.525 1.9958 -3.66707 0
M  V30 1622 H 156.915 -0.69473 -6.68299 0
M  V30 1623 N 159.635 1.57281 -0.100228 0
M  V30 1624 C 160.884 1.93713 0.561984 0
M  V30 1625 C 161.197 0.984492 1.69018 0
M  V30 1626 O 162.403 1.24273 2.41389 0
M  V30 1627 C 160.859 3.4421 1.05106 0
M  V30 1628 C 160.467 4.47975 -0.0476628 0
M  V30 1629 C 162.211 3.89595 1.68571 0
M  V30 1630 C 160.118 5.89631 0.457055 0
M  V30 1631 H 159.048 0.723082 0.2137 0
M  V30 1632 H 161.699 1.82644 -0.177057 0
M  V30 1633 H 160.081 3.50449 1.84395 0
M  V30 1634 H 161.255 4.53385 -0.823333 0
M  V30 1635 H 159.57 4.1223 -0.587816 0
M  V30 1636 H 162.167 4.92832 2.07414 0
M  V30 1637 H 162.51 3.28526 2.55688 0
M  V30 1638 H 163.043 3.86078 0.958562 0
M  V30 1639 H 159.782 6.54411 -0.377616 0
M  V30 1640 H 159.302 5.87681 1.19962 0
M  V30 1641 H 160.981 6.40363 0.92437 0
M  V30 1642 N 161.113 -0.173488 1.56642 0
M  V30 1643 C 162.524 -0.736155 1.71574 0
M  V30 1644 C 162.875 -1.82888 0.710389 0
M  V30 1645 O 162 -2.16017 -0.1287 0
M  V30 1646 C 162.595 -1.34211 3.11083 0
M  V30 1647 C 161.154 -1.85162 3.27707 0
M  V30 1648 C 160.301 -0.729765 2.67525 0
M  V30 1649 H 163.252 0.0518786 1.58615 0
M  V30 1650 H 163.273 -2.21178 3.09613 0
M  V30 1651 H 162.785 -0.546579 3.84232 0
M  V30 1652 H 160.886 -2.67366 2.59512 0
M  V30 1653 H 160.999 -1.99855 4.35425 0
M  V30 1654 H 159.363 -1.14965 2.27278 0
M  V30 1655 H 160.146 0.0538806 3.43258 0
M  V30 1656 N 162.591 -1.51276 -0.441967 0
M  V30 1657 C 163.523 -1.68444 -1.55433 0
M  V30 1658 C 164.536 -0.565187 -1.52674 0
M  V30 1659 O 165.725 -0.839356 -1.57534 0
M  V30 1660 C 162.825 -1.67966 -2.94348 0
M  V30 1661 C 161.998 -2.964 -3.21661 0
M  V30 1662 C 161.057 -2.88171 -4.40277 0
M  V30 1663 O 160.083 -3.62119 -4.39157 0
M  V30 1664 N 161.285 -2.03706 -5.43584 0
M  V30 1665 H 164.05 -2.644 -1.41112 0
M  V30 1666 H 161.611 -1.49104 -0.630838 0
M  V30 1667 H 163.603 -1.60035 -3.71713 0
M  V30 1668 H 162.173 -0.796225 -3.0229 0
M  V30 1669 H 161.393 -3.18234 -2.32638 0
M  V30 1670 H 162.681 -3.81427 -3.36736 0
M  V30 1671 H 162.079 -1.42995 -5.47329 0
M  V30 1672 H 160.636 -2.01658 -6.1982 0
M  V30 1673 N 164.069 0.697108 -1.41344 0
M  V30 1674 C 165.002 1.82134 -1.37486 0
M  V30 1675 C 165.98 1.60784 -0.242351 0
M  V30 1676 O 167.164 1.83553 -0.429012 0
M  V30 1677 C 164.291 3.18788 -1.14421 0
M  V30 1678 C 163.337 3.58932 -2.3037 0
M  V30 1679 S 164.17 3.63916 -3.92843 0
M  V30 1680 C 165.326 5.03298 -3.72078 0
M  V30 1681 H 165.559 1.85129 -2.32625 0
M  V30 1682 H 163.092 0.865671 -1.2785 0
M  V30 1683 H 165.05 3.97677 -1.018 0
M  V30 1684 H 163.711 3.13404 -0.20905 0
M  V30 1685 H 162.904 4.58202 -2.09922 0
M  V30 1686 H 162.506 2.87347 -2.39391 0
M  V30 1687 H 164.798 5.90753 -3.31688 0
M  V30 1688 H 165.741 5.28788 -4.70945 0
M  V30 1689 H 166.149 4.74764 -3.05384 0
M  V30 1690 N 165.547 1.27147 0.931209 0
M  V30 1691 C 166.963 1.04475 1.20653 0
M  V30 1692 C 167.163 -0.223885 2.00252 0
M  V30 1693 O 166.219 -0.930332 2.34736 0
M  V30 1694 C 167.532 2.28209 1.95809 0
M  V30 1695 C 169.08 2.33211 2.08762 0
M  V30 1696 C 169.555 3.56665 2.87323 0
M  V30 1697 N 171.046 3.57201 2.94892 0
M  V30 1698 C 171.781 4.49395 3.56134 0
M  V30 1699 N 171.277 5.51889 4.18796 0
M  V30 1700 N 173.07 4.37026 3.53504 0
M  V30 1701 H 165.221 2.08612 0.399333 0
M  V30 1702 H 167.484 0.917312 0.239253 0
M  V30 1703 H 167.19 3.20538 1.44736 0
M  V30 1704 H 167.064 2.33247 2.96438 0
M  V30 1705 H 169.451 1.41391 2.59023 0
M  V30 1706 H 169.532 2.32178 1.07364 0
M  V30 1707 H 169.176 4.4882 2.37746 0
M  V30 1708 H 169.106 3.54948 3.88998 0
M  V30 1709 H 171.597 2.83074 2.50354 0
M  V30 1710 H 171.91 6.18409 4.63454 0
M  V30 1711 H 170.255 5.55735 4.17353 0
M  V30 1712 H 173.446 3.56166 3.03749 0
M  V30 1713 H 173.619 5.09067 4.00942 0
M  V30 1714 N 167.025 -1.13721 1.09112 0
M  V30 1715 C 168.271 -1.85198 0.826414 0
M  V30 1716 C 168.604 -1.83129 -0.646319 0
M  V30 1717 O 167.879 -1.2671 -1.47563 0
M  V30 1718 C 168.162 -3.33507 1.35812 0
M  V30 1719 C 168.015 -3.44108 2.89672 0
M  V30 1720 C 169.334 -4.28838 0.989256 0
M  V30 1721 H 166.453 -0.67243 0.301675 0
M  V30 1722 H 169.095 -1.33499 1.35197 0
M  V30 1723 H 167.245 -3.77666 0.911082 0
M  V30 1724 H 168.917 -3.08684 3.428 0
M  V30 1725 H 167.16 -2.85087 3.26967 0
M  V30 1726 H 167.831 -4.48388 3.21951 0
M  V30 1727 H 170.307 -3.92734 1.37475 0
M  V30 1728 H 169.183 -5.31051 1.38838 0
M  V30 1729 H 169.444 -4.4198 -0.102924 0
M  V30 1730 N 168.503 -0.877838 -1.30888 0
M  V30 1731 C 169.75 -0.492696 -1.96415 0
M  V30 1732 C 170.078 0.956671 -1.69346 0
M  V30 1733 O 169.333 1.68993 -0.986913 0
M  V30 1734 C 169.632 -0.705748 -3.50363 0
M  V30 1735 C 169.298 -2.1291 -3.97467 0
M  V30 1736 C 167.96 -2.51834 -4.1004 0
M  V30 1737 C 170.312 -3.05702 -4.22132 0
M  V30 1738 C 167.64 -3.82775 -4.44635 0
M  V30 1739 C 169.992 -4.36166 -4.58194 0
M  V30 1740 C 168.656 -4.74993 -4.68975 0
M  V30 1741 H 167.926 -0.18029 -0.718733 0
M  V30 1742 H 170.573 -1.11233 -1.55883 0
M  V30 1743 H 168.878 -0.00303058 -3.918 0
M  V30 1744 H 170.575 -0.387456 -3.99124 0
M  V30 1745 H 167.165 -1.81694 -3.88182 0
M  V30 1746 H 171.349 -2.76853 -4.11906 0
M  V30 1747 H 166.605 -4.12609 -4.51181 0
M  V30 1748 H 170.779 -5.08111 -4.76231 0
M  V30 1749 H 168.406 -5.76495 -4.95537 0
M  V30 1750 N 169.982 1.44106 -0.638065 0
M  V30 1751 C 171.231 2.01194 -0.142744 0
M  V30 1752 C 171.544 1.50835 1.24532 0
M  V30 1753 O 172.75 2.00096 1.83504 0
M  V30 1754 C 171.206 3.59319 -0.20442 0
M  V30 1755 C 170.814 4.18674 -1.59423 0
M  V30 1756 C 172.558 4.23854 0.234079 0
M  V30 1757 C 170.465 5.69045 -1.61065 0
M  V30 1758 H 169.395 0.752367 -0.0495998 0
M  V30 1759 H 172.046 1.65246 -0.797881 0
M  V30 1760 H 170.428 3.92598 0.517946 0
M  V30 1761 H 171.602 3.96921 -2.34074 0
M  V30 1762 H 169.917 3.66453 -1.97741 0
M  V30 1763 H 172.514 5.34155 0.241443 0
M  V30 1764 H 172.857 3.96688 1.2627 0
M  V30 1765 H 173.39 3.95403 -0.436025 0
M  V30 1766 H 170.129 6.00956 -2.61787 0
M  V30 1767 H 169.649 5.929 -0.90718 0
M  V30 1768 H 171.328 6.32809 -1.34766 0
M  V30 1769 N 171.46 0.379036 1.52974 0
M  V30 1770 C 172.423 -0.448865 2.24762 0
M  V30 1771 C 173.423 -0.998689 1.26027 0
M  V30 1772 O 174.613 -0.882313 1.50203 0
M  V30 1773 C 171.745 -1.62872 2.99476 0
M  V30 1774 H 172.938 0.179491 2.99362 0
M  V30 1775 H 170.491 0.13096 1.5575 0
M  V30 1776 H 171.226 -2.29479 2.29151 0
M  V30 1777 H 171.011 -1.24128 3.71934 0
M  V30 1778 H 172.501 -2.2151 3.5401 0
M  V30 1779 N 172.938 -1.57226 0.108567 0
M  V30 1780 C 173.848 -2.18292 -0.859401 0
M  V30 1781 C 174.864 -1.15612 -1.30038 0
M  V30 1782 O 176.04 -1.48039 -1.36552 0
M  V30 1783 C 173.105 -2.762 -2.09558 0
M  V30 1784 C 172.166 -3.93881 -1.70752 0
M  V30 1785 C 171.399 -4.49018 -2.88477 0
M  V30 1786 O 171.622 -4.03068 -4.036 0
M  V30 1787 O 170.556 -5.39852 -2.66164 0
M  V30 1788 H 174.382 -3.01441 -0.369769 0
M  V30 1789 H 171.967 -1.48945 -0.1165 0
M  V30 1790 H 173.849 -3.13156 -2.81978 0
M  V30 1791 H 172.524 -1.96089 -2.57548 0
M  V30 1792 H 171.431 -3.61713 -0.954714 0
M  V30 1793 H 172.764 -4.75396 -1.27513 0
M  V30 1794 N 174.416 0.165178 -1.56732 0
M  V30 1795 C 175.693 0.908443 -1.73224 0
M  V30 1796 C 176.073 2.0013 -0.67165 0
M  V30 1797 O 175.421 2.26353 0.31253 0
M  V30 1798 C 175.631 1.46756 -3.16644 0
M  V30 1799 C 176.979 1.93809 -3.77787 0
M  V30 1800 O 178.003 1.56537 -3.1996 0
M  V30 1801 O 176.862 2.62486 -4.79336 0
M  V30 1802 H 173.956 0.428025 -0.707618 0
M  V30 1803 H 176.502 0.152526 -1.69013 0
M  V30 1804 H 175.274 0.68129 -3.85323 0
M  V30 1805 H 174.897 2.28749 -3.25207 0
M  V30 1806 N 175.894 1.51508 0.433938 0
M  V30 1807 C 176.824 1.76016 1.53429 0
M  V30 1808 C 177.805 0.610112 1.58782 0
M  V30 1809 O 178.99 0.853177 1.74455 0
M  V30 1810 C 176.12 1.88831 2.9148 0
M  V30 1811 C 175.074 3.04288 3.00987 0
M  V30 1812 C 174.4 3.0229 4.4105 0
M  V30 1813 C 175.7 4.44193 2.74754 0
M  V30 1814 H 177.394 2.68152 1.33171 0
M  V30 1815 H 174.94 1.29035 0.639214 0
M  V30 1816 H 176.893 2.04559 3.6842 0
M  V30 1817 H 175.617 0.933455 3.12976 0
M  V30 1818 H 174.276 2.8827 2.26486 0
M  V30 1819 H 173.924 2.04576 4.59519 0
M  V30 1820 H 173.624 3.79822 4.4834 0
M  V30 1821 H 175.148 3.20116 5.1996 0
M  V30 1822 H 176.562 4.60544 3.41426 0
M  V30 1823 H 174.959 5.23457 2.9345 0
M  V30 1824 H 176.029 4.53996 1.70339 0
M  V30 1825 N 177.372 -0.689602 1.41712 0
M  V30 1826 C 178.62 -1.4468 1.4111 0
M  V30 1827 C 178.941 -1.94986 0.0232196 0
M  V30 1828 O 178.211 -1.72097 -0.935913 0
M  V30 1829 H 176.791 -0.536847 0.519427 0
M  V30 1830 H 179.453 -0.815825 1.77004 0
M  V30 1831 H 178.549 -2.30706 2.10193 0
M  V30 1832 N 178.85 -1.27639 -0.924453 0
M  V30 1833 C 180.09 -1.15407 -1.68703 0
M  V30 1834 C 180.454 0.294581 -1.89727 0
M  V30 1835 O 181.655 0.539385 -2.63333 0
M  V30 1836 C 179.926 -1.9195 -3.0148 0
M  V30 1837 S 181.485 -1.95969 -3.92609 0
M  V30 1838 H 178.303 -0.411937 -0.579507 0
M  V30 1839 H 180.905 -1.61592 -1.10038 0
M  V30 1840 H 179.609 -2.96387 -2.83871 0
M  V30 1841 H 179.14 -1.46272 -3.65196 0
M  V30 1842 H 181.155 -1.05846 -4.84779 0
M  V30 1843 N 180.328 1.1314 -1.09713 0
M  V30 1844 C 181.278 2.16709 -0.708593 0
M  V30 1845 C 182.262 1.58471 0.278523 0
M  V30 1846 O 183.454 1.76779 0.088427 0
M  V30 1847 C 180.583 3.43039 -0.133923 0
M  V30 1848 C 179.669 4.08277 -1.14763 0
M  V30 1849 N 180.06 4.48637 -2.33577 0
M  V30 1850 C 178.358 4.34954 -0.986446 0
M  V30 1851 C 179.059 4.9952 -2.98085 0
M  V30 1852 N 178.035 4.94561 -2.25632 0
M  V30 1853 H 181.837 2.45672 -1.61315 0
M  V30 1854 H 179.351 1.29967 -0.973775 0
M  V30 1855 H 181.348 4.16583 0.162465 0
M  V30 1856 H 180.008 3.15549 0.765447 0
M  V30 1857 H 181.019 4.41246 -2.7115 0
M  V30 1858 H 177.696 4.17258 -0.142008 0
M  V30 1859 H 179.086 5.40521 -3.99108 0
M  V30 1860 N 181.806 0.884767 1.30421 0
M  V30 1861 C 182.739 0.295999 2.26272 0
M  V30 1862 C 183.717 -0.58332 1.51777 0
M  V30 1863 O 184.901 -0.53346 1.80794 0
M  V30 1864 C 182.028 -0.57944 3.33707 0
M  V30 1865 C 181.074 0.230525 4.25877 0
M  V30 1866 S 181.907 1.61867 5.1045 0
M  V30 1867 C 183.063 0.749756 6.21393 0
M  V30 1868 H 183.296 1.10848 2.75862 0
M  V30 1869 H 180.829 0.684178 1.38414 0
M  V30 1870 H 182.787 -1.07879 3.96071 0
M  V30 1871 H 181.448 -1.36601 2.82841 0
M  V30 1872 H 180.641 -0.437542 5.02097 0
M  V30 1873 H 180.243 0.662493 3.68086 0
M  V30 1874 H 182.535 -0.0333547 6.77492 0
M  V30 1875 H 183.478 1.48356 6.92384 0
M  V30 1876 H 183.886 0.310751 5.63644 0
M  V30 1877 N 183.284 -1.43765 0.645699 0
M  V30 1878 C 184.561 -1.9541 0.0862963 0
M  V30 1879 C 184.941 -1.58725 -1.39175 0
M  V30 1880 O 184.289 -0.868581 -2.11348 0
M  V30 1881 C 184.499 -3.47488 0.324565 0
M  V30 1882 C 185.847 -4.24001 0.225497 0
M  V30 1883 O 186.871 -3.55274 0.256715 0
M  V30 1884 O 185.73 -5.46313 0.142801 0
M  V30 1885 H 182.824 -0.826882 -0.0139483 0
M  V30 1886 H 185.37 -1.53743 0.718415 0
M  V30 1887 H 184.142 -3.67289 1.3496 0
M  V30 1888 H 183.765 -3.96135 -0.340987 0
M  V30 1889 N 184.763 -0.387143 -1.52771 0
M  V30 1890 C 186.04 0.253197 -1.93954 0
M  V30 1891 C 186.42 1.64545 -1.32243 0
M  V30 1892 O 185.768 2.23191 -0.489699 0
M  V30 1893 C 185.978 0.281722 -3.47861 0
M  V30 1894 C 187.326 0.511715 -4.21505 0
M  V30 1895 O 188.35 0.362023 -3.54356 0
M  V30 1896 O 187.209 0.804847 -5.40541 0
M  V30 1897 H 184.303 0.156845 -0.811991 0
M  V30 1898 H 186.849 -0.441494 -1.63856 0
M  V30 1899 H 185.621 -0.693571 -3.85104 0
M  V30 1900 H 185.244 1.02142 -3.84256 0
M  V30 1901 N 186.241 1.57166 -0.116904 0
M  V30 1902 C 187.487 1.95412 0.542405 0
M  V30 1903 C 187.82 1.00019 1.66463 0
M  V30 1904 O 187.095 0.0370346 1.94465 0
M  V30 1905 C 187.378 3.43615 1.07708 0
M  V30 1906 C 187.231 4.49781 -0.0415868 0
M  V30 1907 C 188.55 3.93616 1.96861 0
M  V30 1908 H 185.669 0.710543 0.195696 0
M  V30 1909 H 188.311 1.89027 -0.192038 0
M  V30 1910 H 186.461 3.49187 1.70296 0
M  V30 1911 H 188.133 4.56308 -0.676793 0
M  V30 1912 H 186.376 4.28033 -0.705019 0
M  V30 1913 H 187.047 5.50733 0.373717 0
M  V30 1914 H 189.523 3.90335 1.44146 0
M  V30 1915 H 188.399 4.97838 2.3119 0
M  V30 1916 H 188.66 3.34188 2.89432 0
M  V30 1917 N 187.719 -0.156864 1.56817 0
M  V30 1918 C 188.667 -1.21319 1.98455 0
M  V30 1919 C 189.661 -1.45025 0.875444 0
M  V30 1920 O 190.867 -1.45435 1.0606 0
M  V30 1921 H 187.242 -0.408142 0.631605 0
M  V30 1922 H 189.213 -0.835244 2.86472 0
M  V30 1923 C 187.962 -2.54148 2.37285 0
M  V30 1924 H 187.285 -2.36733 3.22176 0
M  V30 1925 H 188.725 -3.26712 2.70251 0
M  V30 1926 C 187.184 -3.13967 1.22173 0
M  V30 1927 O 187.714 -3.98357 0.517149 0
M  V30 1928 N 185.92 -2.7327 0.988536 0
M  V30 1929 H 185.467 -2.04744 1.56326 0
M  V30 1930 H 185.425 -3.13628 0.220209 0
M  V30 1931 N 189.197 -1.51736 -0.425897 0
M  V30 1932 C 190.443 -1.65214 -1.1761 0
M  V30 1933 C 190.776 -0.372778 -1.90589 0
M  V30 1934 O 190.051 0.628139 -1.84078 0
M  V30 1935 C 190.334 -2.86312 -2.18398 0
M  V30 1936 C 190.187 -4.24254 -1.49426 0
M  V30 1937 C 191.506 -3.02925 -3.19256 0
M  V30 1938 H 188.625 -0.601263 -0.426206 0
M  V30 1939 H 191.267 -1.8425 -0.463882 0
M  V30 1940 H 189.417 -2.70213 -2.79137 0
M  V30 1941 H 191.089 -4.52046 -0.919362 0
M  V30 1942 H 189.332 -4.26426 -0.796432 0
M  V30 1943 H 190.003 -5.05001 -2.22885 0
M  V30 1944 H 192.479 -3.1781 -2.68581 0
M  V30 1945 H 191.355 -3.89199 -3.8706 0
M  V30 1946 H 191.616 -2.15497 -3.86023 0
M  V30 1947 N 190.675 0.682077 -1.42076 0
M  V30 1948 C 191.622 1.79578 -1.44984 0
M  V30 1949 C 192.592 1.6332 -0.302614 0
M  V30 1950 O 193.777 1.83978 -0.505633 0
M  V30 1951 C 190.917 3.1756 -1.35091 0
M  V30 1952 C 190.03 3.45156 -2.59791 0
M  V30 1953 C 189.165 4.72826 -2.42093 0
M  V30 1954 C 188.204 4.93433 -3.62202 0
M  V30 1955 N 187.341 6.12338 -3.43491 0
M  V30 1956 H 192.181 1.76427 -2.40161 0
M  V30 1957 H 189.718 0.861376 -1.19242 0
M  V30 1958 H 191.676 3.97287 -1.27354 0
M  V30 1959 H 190.306 3.19854 -0.435133 0
M  V30 1960 H 189.358 2.59736 -2.77923 0
M  V30 1961 H 190.67 3.5628 -3.49094 0
M  V30 1962 H 189.824 5.60631 -2.319 0
M  V30 1963 H 188.563 4.63973 -1.50268 0
M  V30 1964 H 187.568 4.04073 -3.72834 0
M  V30 1965 H 188.793 5.04136 -4.54998 0
M  V30 1966 H 186.739 6.04672 -2.54377 0
M  V30 1967 H 186.656 6.2429 -4.26377 0
M  V30 1968 H 187.924 7.02841 -3.37097 0
M  V30 1969 N 192.153 1.28127 0.917671 0
M  V30 1970 C 193.116 1.11744 2.00115 0
M  V30 1971 C 194.116 0.0583052 1.60694 0
M  V30 1972 O 195.306 0.303755 1.71531 0
M  V30 1973 C 192.438 0.704862 3.33533 0
M  V30 1974 H 193.631 2.07966 2.16079 0
M  V30 1975 H 191.184 1.11058 1.09981 0
M  V30 1976 H 191.919 -0.258299 3.2327 0
M  V30 1977 H 191.704 1.4699 3.63505 0
M  V30 1978 H 193.194 0.612768 4.1308 0
M  V30 1979 N 193.631 -1.12557 1.10312 0
M  V30 1980 C 194.859 -1.87864 0.866873 0
M  V30 1981 C 195.274 -1.79588 -0.582557 0
M  V30 1982 O 194.631 -1.16887 -1.40156 0
M  V30 1983 C 194.682 -3.37125 1.30496 0
M  V30 1984 O 194.403 -3.45201 2.69755 0
M  V30 1985 C 195.904 -4.29373 1.10243 0
M  V30 1986 H 193.124 -0.594452 0.311236 0
M  V30 1987 H 195.668 -1.42429 1.46745 0
M  V30 1988 H 193.823 -3.80109 0.748081 0
M  V30 1989 H 194.237 -4.38056 2.88457 0
M  V30 1990 H 195.711 -5.32394 1.45811 0
M  V30 1991 H 196.188 -4.39181 0.0409492 0
M  V30 1992 H 196.794 -3.92169 1.64571 0
M  V30 1993 N 195.109 -0.891671 -1.2995 0
M  V30 1994 C 196.337 -0.52866 -2.00032 0
M  V30 1995 C 196.752 0.884574 -1.66795 0
M  V30 1996 O 196.109 1.5827 -0.908669 0
M  V30 1997 C 196.16 -0.701814 -3.54622 0
M  V30 1998 O 195.881 -2.05942 -3.86678 0
M  V30 1999 C 197.382 -0.342683 -4.41973 0
M  V30 2000 H 194.602 -0.203659 -0.639347 0
M  V30 2001 H 197.146 -1.19881 -1.65677 0
M  V30 2002 H 195.301 -0.0789468 -3.8732 0
M  V30 2003 H 195.715 -2.08291 -4.81368 0
M  V30 2004 H 197.189 -0.514709 -5.49595 0
M  V30 2005 H 197.666 0.71975 -4.33262 0
M  V30 2006 H 198.272 -0.942154 -4.14733 0
M  V30 2007 N 196.587 1.43421 -0.653314 0
M  V30 2008 C 197.815 2.06163 -0.174491 0
M  V30 2009 C 198.23 1.48969 1.1599 0
M  V30 2010 O 197.587 0.621042 1.71608 0
M  V30 2011 C 197.638 3.61417 -0.0774865 0
M  V30 2012 O 197.359 4.16485 -1.35912 0
M  V30 2013 C 198.86 4.41235 0.427402 0
M  V30 2014 H 196.08 0.664946 -0.0899353 0
M  V30 2015 H 198.624 1.83924 -0.893988 0
M  V30 2016 H 196.779 3.82841 0.59257 0
M  V30 2017 H 197.193 5.10153 -1.21839 0
M  V30 2018 H 198.667 5.5021 0.44423 0
M  V30 2019 H 199.144 4.14268 1.45873 0
M  V30 2020 H 199.75 4.2478 -0.210167 0
M  V30 2021 N 198.065 0.39524 1.52563 0
M  V30 2022 C 198.975 -0.444232 2.30356 0
M  V30 2023 C 199.991 -1.06615 1.37511 0
M  V30 2024 O 201.167 -1.07067 1.70583 0
M  V30 2025 C 198.232 -1.55315 3.09964 0
M  V30 2026 C 197.293 -0.955734 4.18526 0
M  V30 2027 C 196.526 -2.01181 4.9433 0
M  V30 2028 O 196.749 -3.22781 4.70285 0
M  V30 2029 O 195.683 -1.62579 5.79527 0
M  V30 2030 H 199.509 0.189667 3.03107 0
M  V30 2031 H 197.094 0.1588 1.48554 0
M  V30 2032 H 198.976 -2.19724 3.59582 0
M  V30 2033 H 197.651 -2.17191 2.4002 0
M  V30 2034 H 196.558 -0.274743 3.7309 0
M  V30 2035 H 197.891 -0.381109 4.90722 0
M  V30 2036 N 199.544 -1.57102 0.125237 0
M  V30 2037 C 200.491 -2.15641 -0.822655 0
M  V30 2038 C 201.461 -1.08313 -1.25927 0
M  V30 2039 O 202.646 -1.36251 -1.33567 0
M  V30 2040 C 199.786 -2.76504 -2.06494 0
M  V30 2041 C 198.899 -3.98158 -1.67612 0
M  V30 2042 C 198.034 -4.47088 -2.86854 0
M  V30 2043 C 197.073 -5.6126 -2.44242 0
M  V30 2044 N 196.21 -6.04905 -3.56419 0
M  V30 2045 H 201.05 -2.96313 -0.316625 0
M  V30 2046 H 198.587 -1.46388 -0.144588 0
M  V30 2047 H 200.545 -3.09925 -2.79289 0
M  V30 2048 H 199.175 -1.98512 -2.54545 0
M  V30 2049 H 198.227 -3.70858 -0.846661 0
M  V30 2050 H 199.539 -4.80934 -1.32301 0
M  V30 2051 H 198.693 -4.82451 -3.67867 0
M  V30 2052 H 197.432 -3.63275 -3.25396 0
M  V30 2053 H 196.437 -5.25495 -1.61663 0
M  V30 2054 H 197.662 -6.46843 -2.0681 0
M  V30 2055 H 195.608 -5.24032 -3.94623 0
M  V30 2056 H 195.525 -6.82552 -3.25051 0
M  V30 2057 H 196.793 -6.44907 -4.37853 0
M  V30 2058 N 201.022 0.148545 -1.56898 0
M  V30 2059 C 201.952 1.18524 -2.01182 0
M  V30 2060 C 202.933 1.4489 -0.891123 0
M  V30 2061 O 204.118 1.55836 -1.15882 0
M  V30 2062 C 201.248 2.51879 -2.39112 0
M  V30 2063 C 200.202 2.40038 -3.54353 0
M  V30 2064 C 199.528 3.78089 -3.78091 0
M  V30 2065 C 200.828 1.88577 -4.87069 0
M  V30 2066 H 202.522 0.817029 -2.88036 0
M  V30 2067 H 200.068 0.391575 -1.38574 0
M  V30 2068 H 202.021 3.24627 -2.68692 0
M  V30 2069 H 200.745 2.90532 -1.49193 0
M  V30 2070 H 199.404 1.69742 -3.24936 0
M  V30 2071 H 199.052 4.14175 -2.85426 0
M  V30 2072 H 198.752 3.71028 -4.55645 0
M  V30 2073 H 200.276 4.52387 -4.10095 0
M  V30 2074 H 201.69 2.51117 -5.15377 0
M  V30 2075 H 200.087 1.9241 -5.68417 0
M  V30 2076 H 201.157 0.84136 -4.77545 0
M  V30 2077 N 202.5 1.5196 0.417844 0
M  V30 2078 C 203.748 1.65263 1.16329 0
M  V30 2079 C 204.069 0.380634 1.91249 0
M  V30 2080 O 203.339 -0.604214 1.86349 0
M  V30 2081 H 201.919 0.60912 0.432414 0
M  V30 2082 H 204.581 1.88969 0.477162 0
M  V30 2083 H 203.677 2.4896 1.88217 0
M  V30 2084 N 203.978 -0.674533 1.42435 0
M  V30 2085 C 205.225 -1.43459 1.42919 0
M  V30 2086 C 205.553 -1.94446 0.0457312 0
M  V30 2087 O 204.808 -1.7132 -0.94593 0
M  V30 2088 C 205.107 -2.64767 2.40069 0
M  V30 2089 C 204.773 -2.3232 3.86443 0
M  V30 2090 C 203.435 -2.23182 4.26314 0
M  V30 2091 C 205.787 -2.05977 4.78773 0
M  V30 2092 C 203.115 -1.85827 5.56494 0
M  V30 2093 C 205.467 -1.70125 6.09295 0
M  V30 2094 C 204.131 -1.59498 6.48164 0
M  V30 2095 H 203.401 -0.524952 0.522978 0
M  V30 2096 H 206.048 -0.769097 1.75377 0
M  V30 2097 H 204.353 -3.36349 2.00939 0
M  V30 2098 H 206.05 -3.22949 2.37707 0
M  V30 2099 H 202.64 -2.40334 3.54877 0
M  V30 2100 H 206.824 -2.11969 4.48757 0
M  V30 2101 H 202.08 -1.76168 5.8547 0
M  V30 2102 H 206.254 -1.48767 6.80324 0
M  V30 2103 H 203.881 -1.30322 7.48946 0
M  V30 2104 N 205.456 -1.28612 -0.910864 0
M  V30 2105 C 206.684 -1.18792 -1.69399 0
M  V30 2106 C 207.099 0.253039 -1.87097 0
M  V30 2107 O 206.456 1.17071 -1.40003 0
M  V30 2108 C 206.507 -1.88511 -3.08457 0
M  V30 2109 O 206.228 -3.26979 -2.91576 0
M  V30 2110 C 207.729 -1.85029 -4.02839 0
M  V30 2111 H 204.949 -0.412233 -0.529438 0
M  V30 2112 H 207.493 -1.69788 -1.13984 0
M  V30 2113 H 205.648 -1.41379 -3.60681 0
M  V30 2114 H 206.062 -3.61936 -3.79608 0
M  V30 2115 H 207.536 -2.38395 -4.97867 0
M  V30 2116 H 208.013 -0.823303 -4.31414 0
M  V30 2117 H 208.619 -2.31853 -3.56545 0
M  V30 2118 N 206.934 1.1197 -1.10907 0
M  V30 2119 C 208.182 1.83225 -0.852819 0
M  V30 2120 C 208.503 1.84769 0.623341 0
M  V30 2121 O 207.773 1.3143 1.45269 0
M  V30 2122 H 206.353 0.67849 -0.312507 0
M  V30 2123 H 209.015 1.3556 -1.40033 0
M  V30 2124 H 208.111 2.87265 -1.22005 0
M  V30 2125 N 208.412 0.89855 1.29475 0
M  V30 2126 C 209.828 0.594483 1.48115 0
M  V30 2127 C 210.028 -0.86431 1.82022 0
M  V30 2128 O 209.084 -1.64457 1.91599 0
M  V30 2129 C 210.397 1.51932 2.59494 0
M  V30 2130 C 211.945 1.5244 2.7337 0
M  V30 2131 C 212.42 2.43548 3.87877 0
M  V30 2132 N 213.911 2.41589 3.95208 0
M  V30 2133 C 214.646 3.08789 4.83153 0
M  V30 2134 N 214.142 3.85265 5.75798 0
M  V30 2135 N 215.935 2.97952 4.76635 0
M  V30 2136 H 208.086 1.84207 1.05742 0
M  V30 2137 H 210.349 0.789251 0.525154 0
M  V30 2138 H 210.055 2.55865 2.41301 0
M  V30 2139 H 209.929 1.23899 3.56271 0
M  V30 2140 H 212.316 0.492518 2.90961 0
M  V30 2141 H 212.397 1.8451 1.77172 0
M  V30 2142 H 212.041 3.46829 3.71041 0
M  V30 2143 H 211.971 2.08788 4.83441 0
M  V30 2144 H 214.462 1.86025 3.28943 0
M  V30 2145 H 214.775 4.33598 6.39697 0
M  V30 2146 H 213.12 3.89371 5.75687 0
M  V30 2147 H 216.311 2.37723 4.03244 0
M  V30 2148 H 216.484 3.50599 5.44962 0
M  V30 2149 N 209.89 -1.43072 0.660911 0
M  V30 2150 C 211.138 -2.01323 0.177094 0
M  V30 2151 C 211.459 -1.5245 -1.2159 0
M  V30 2152 O 210.729 -0.740322 -1.81373 0
M  V30 2153 H 209.309 -0.744382 0.0624804 0
M  V30 2154 H 211.971 -1.75179 0.854305 0
M  V30 2155 H 211.067 -3.11649 0.167641 0
M  V30 2156 N 211.368 -0.403325 -1.52352 0
M  V30 2157 C 212.278 0.432009 -2.30588 0
M  V30 2158 C 213.294 1.05884 -1.38075 0
M  V30 2159 O 214.47 1.06161 -1.71148 0
M  V30 2160 C 211.535 1.53669 -3.10784 0
M  V30 2161 C 210.596 0.933525 -4.19027 0
M  V30 2162 C 209.829 1.98557 -4.9539 0
M  V30 2163 O 210.052 3.20283 -4.71991 0
M  V30 2164 O 208.986 1.59504 -5.80381 0
M  V30 2165 H 212.812 -0.205739 -3.03002 0
M  V30 2166 H 210.397 -0.166675 -1.48467 0
M  V30 2167 H 212.279 2.17814 -3.60742 0
M  V30 2168 H 210.954 2.15915 -2.41169 0
M  V30 2169 H 209.861 0.254954 -3.7323 0
M  V30 2170 H 211.194 0.35508 -4.90918 0
M  V30 2171 N 212.846 1.57033 -0.133567 0
M  V30 2172 C 214.094 1.953 0.519848 0
M  V30 2173 C 214.415 1.01866 1.66278 0
M  V30 2174 O 213.685 0.0776513 1.95746 0
M  V30 2175 H 212.265 0.721091 0.195032 0
M  V30 2176 H 214.927 1.93809 -0.205921 0
M  V30 2177 H 214.023 2.98695 0.904854 0
M  V30 2178 N 214.325 -0.140222 1.56975 0
M  V30 2179 C 215.574 -0.850152 1.82908 0
M  V30 2180 C 215.887 -1.82028 0.715892 0
M  V30 2181 O 217.093 -2.57485 0.861016 0
M  V30 2182 C 215.549 -1.5625 3.24213 0
M  V30 2183 C 215.157 -0.63443 4.43485 0
M  V30 2184 C 216.901 -2.25881 3.59413 0
M  V30 2185 C 214.808 -1.34879 5.75814 0
M  V30 2186 H 213.738 -0.321221 0.682153 0
M  V30 2187 H 216.389 -0.102874 1.83211 0
M  V30 2188 H 214.771 -2.35565 3.18316 0
M  V30 2189 H 215.945 0.12398 4.60633 0
M  V30 2190 H 214.26 -0.0461836 4.16374 0
M  V30 2191 H 216.857 -2.79978 4.5554 0
M  V30 2192 H 217.2 -3.02693 2.85802 0
M  V30 2193 H 217.733 -1.53477 3.67001 0
M  V30 2194 H 214.472 -0.622385 6.52539 0
M  V30 2195 H 213.992 -2.07974 5.6259 0
M  V30 2196 H 215.671 -1.88784 6.18845 0
M  V30 2197 N 215.803 -1.52179 -0.40978 0
M  V30 2198 C 216.766 -1.74853 -1.48186 0
M  V30 2199 C 217.766 -0.618417 -1.48433 0
M  V30 2200 O 218.956 -0.886286 -1.49969 0
M  V30 2201 C 216.088 -1.8303 -2.87598 0
M  V30 2202 H 217.281 -2.70559 -1.29374 0
M  V30 2203 H 214.834 -1.42586 -0.640233 0
M  V30 2204 H 215.569 -0.89236 -3.11781 0
M  V30 2205 H 215.354 -2.65187 -2.88822 0
M  V30 2206 H 216.844 -2.02316 -3.65319 0
M  V30 2207 N 217.281 0.66697 -1.42791 0
M  V30 2208 C 218.521 1.43892 -1.4517 0
M  V30 2209 C 218.885 1.91877 -0.0687551 0
M  V30 2210 O 220.086 2.6878 0.0327455 0
M  V30 2211 C 218.357 2.59839 -2.45395 0
M  V30 2212 S 219.916 3.48572 -2.66539 0
M  V30 2213 H 216.734 0.491356 -0.513897 0
M  V30 2214 H 219.336 0.775656 -1.79454 0
M  V30 2215 H 218.04 2.22838 -3.44632 0
M  V30 2216 H 217.571 3.3103 -2.12562 0
M  V30 2217 H 219.586 4.56094 -1.95429 0
M  V30 2218 N 218.759 1.29093 0.90403 0
M  V30 2219 C 219.669 1.15727 2.0407 0
M  V30 2220 C 220.685 0.0815308 1.73809 0
M  V30 2221 O 221.861 0.292749 1.99261 0
M  V30 2222 C 218.926 0.830424 3.36608 0
M  V30 2223 C 217.987 1.98955 3.80415 0
M  V30 2224 C 217.22 1.6782 5.06628 0
M  V30 2225 O 217.443 0.597105 5.67266 0
M  V30 2226 O 216.377 2.52486 5.46383 0
M  V30 2227 H 220.203 2.11171 2.18267 0
M  V30 2228 H 217.788 1.08504 1.027 0
M  V30 2229 H 219.67 0.662521 4.16159 0
M  V30 2230 H 218.345 -0.0942678 3.23563 0
M  V30 2231 H 217.252 2.21267 3.01648 0
M  V30 2232 H 218.585 2.89529 3.98037 0
M  V30 2233 N 220.237 -1.11381 1.11499 0
M  V30 2234 C 221.2 -2.15622 0.777153 0
M  V30 2235 C 222.2 -1.59504 -0.203779 0
M  V30 2236 O 223.39 -1.74188 0.020782 0
M  V30 2237 C 220.522 -3.40556 0.153116 0
M  V30 2238 H 221.715 -2.47021 1.70061 0
M  V30 2239 H 219.268 -1.26577 0.916952 0
M  V30 2240 H 220.003 -3.14767 -0.780536 0
M  V30 2241 H 219.788 -3.8257 0.859238 0
M  V30 2242 H 221.278 -4.17546 -0.0671044 0
M  V30 2243 N 221.715 -0.905404 -1.28997 0
M  V30 2244 C 222.961 -0.535039 -1.95615 0
M  V30 2245 C 223.294 0.917404 -1.71165 0
M  V30 2246 O 222.569 1.65123 -1.02785 0
M  V30 2247 C 222.852 -0.834918 -3.50287 0
M  V30 2248 C 222.705 -2.33948 -3.84172 0
M  V30 2249 C 224.024 -0.325318 -4.38896 0
M  V30 2250 H 221.143 -0.195861 -0.710498 0
M  V30 2251 H 223.785 -1.13313 -1.52513 0
M  V30 2252 H 221.935 -0.325904 -3.87131 0
M  V30 2253 H 223.607 -2.91847 -3.57243 0
M  V30 2254 H 221.85 -2.79789 -3.31513 0
M  V30 2255 H 222.521 -2.49987 -4.92149 0
M  V30 2256 H 224.997 -0.761256 -4.09077 0
M  V30 2257 H 223.873 -0.564295 -5.45992 0
M  V30 2258 H 224.134 0.774144 -4.35269 0
M  V30 2259 N 223.193 1.4272 -0.668489 0
M  V30 2260 C 224.156 2.292 0.00448567 0
M  V30 2261 C 225.156 1.43001 0.735339 0
M  V30 2262 O 226.346 1.64461 0.57429 0
M  V30 2263 C 223.478 3.25375 1.01705 0
M  V30 2264 H 224.671 2.90199 -0.756608 0
M  V30 2265 H 222.224 1.50254 -0.430506 0
M  V30 2266 H 222.959 2.69301 1.80686 0
M  V30 2267 H 222.744 3.88944 0.496463 0
M  V30 2268 H 224.234 3.90245 1.48655 0
M  V30 2269 N 224.671 0.411399 1.52136 0
M  V30 2270 C 225.601 -0.404015 2.29978 0
M  V30 2271 C 226.582 -1.04412 1.34284 0
M  V30 2272 O 227.767 -1.0527 1.63192 0
M  V30 2273 C 224.897 -1.5197 3.12286 0
M  V30 2274 C 223.851 -1.00448 4.16046 0
M  V30 2275 C 223.177 -2.21393 4.86712 0
M  V30 2276 C 224.477 -0.0569336 5.22269 0
M  V30 2277 H 226.171 0.245529 2.98392 0
M  V30 2278 H 223.717 0.119525 1.43503 0
M  V30 2279 H 225.67 -2.09715 3.6551 0
M  V30 2280 H 224.394 -2.19716 2.41646 0
M  V30 2281 H 223.053 -0.449421 3.63835 0
M  V30 2282 H 222.701 -2.87699 4.12599 0
M  V30 2283 H 222.401 -1.87571 5.56858 0
M  V30 2284 H 223.925 -2.7974 5.4275 0
M  V30 2285 H 225.339 -0.54325 5.7072 0
M  V30 2286 H 223.736 0.192594 5.99791 0
M  V30 2287 H 224.806 0.887663 4.76706 0
M  V30 2288 N 226.149 -1.5696 0.141893 0
M  V30 2289 C 227.079 -2.19516 -0.795936 0
M  V30 2290 C 228.06 -1.14187 -1.26077 0
M  V30 2291 O 229.245 -1.42511 -1.31925 0
M  V30 2292 C 226.375 -2.81272 -2.03723 0
M  V30 2293 C 225.329 -3.92384 -1.70936 0
M  V30 2294 C 224.655 -4.41052 -3.02287 0
M  V30 2295 C 225.955 -5.13403 -0.959954 0
M  V30 2296 H 227.649 -2.98138 -0.274596 0
M  V30 2297 H 225.195 -1.43406 -0.130636 0
M  V30 2298 H 227.148 -3.237 -2.69808 0
M  V30 2299 H 225.872 -1.99973 -2.58221 0
M  V30 2300 H 224.531 -3.50566 -1.07232 0
M  V30 2301 H 224.179 -3.56582 -3.54765 0
M  V30 2302 H 223.879 -5.15993 -2.81114 0
M  V30 2303 H 225.403 -4.86146 -3.69451 0
M  V30 2304 H 226.817 -5.52706 -1.52279 0
M  V30 2305 H 225.214 -5.94073 -0.848357 0
M  V30 2306 H 226.284 -4.84875 0.0492434 0
M  V30 2307 N 227.627 0.131896 -1.57047 0
M  V30 2308 C 228.876 0.84044 -1.83356 0
M  V30 2309 C 229.189 1.81646 -0.725535 0
M  V30 2310 O 230.395 2.57025 -0.874659 0
M  V30 2311 C 228.851 1.54528 -3.25037 0
M  V30 2312 C 228.459 0.610902 -4.43815 0
M  V30 2313 C 230.203 2.23972 -3.60606 0
M  V30 2314 C 228.11 1.31823 -5.76521 0
M  V30 2315 H 227.04 0.317599 -0.683847 0
M  V30 2316 H 229.691 0.0931561 -1.83263 0
M  V30 2317 H 228.073 2.33873 -3.19561 0
M  V30 2318 H 229.247 -0.148407 -4.60561 0
M  V30 2319 H 227.562 0.0241016 -4.16393 0
M  V30 2320 H 230.159 2.77558 -4.57018 0
M  V30 2321 H 230.502 3.01173 -2.87403 0
M  V30 2322 H 231.035 1.51529 -3.6781 0
M  V30 2323 H 227.774 0.587771 -6.52859 0
M  V30 2324 H 227.294 2.04987 -5.63685 0
M  V30 2325 H 228.973 1.855 -6.19838 0
M  V30 2326 N 229.106 1.52395 0.401703 0
M  V30 2327 C 230.053 1.76268 1.48991 0
M  V30 2328 C 231.023 0.605386 1.54675 0
M  V30 2329 O 232.208 0.843742 1.7113 0
M  V30 2330 C 229.348 1.92592 2.86361 0
M  V30 2331 C 228.461 3.20259 2.89928 0
M  V30 2332 C 227.596 3.26972 4.18644 0
M  V30 2333 C 226.635 4.48812 4.16214 0
M  V30 2334 N 225.772 4.52877 5.36514 0
M  V30 2335 H 230.612 2.6914 1.27935 0
M  V30 2336 H 228.149 1.33355 0.620871 0
M  V30 2337 H 230.107 2.0004 3.66115 0
M  V30 2338 H 228.737 1.03093 3.05895 0
M  V30 2339 H 227.789 3.21945 2.02621 0
M  V30 2340 H 229.101 4.10056 2.83999 0
M  V30 2341 H 228.255 3.33533 5.06794 0
M  V30 2342 H 226.994 2.35126 4.27278 0
M  V30 2343 H 225.999 4.4239 3.26453 0
M  V30 2344 H 227.224 5.41961 4.09213 0
M  V30 2345 H 225.17 3.63917 5.45802 0
M  V30 2346 H 225.087 5.36529 5.32609 0
M  V30 2347 H 226.355 4.63676 6.26597 0
M  V30 2348 N 230.584 -0.659388 1.43143 0
M  V30 2349 C 231.547 -1.75432 1.47501 0
M  V30 2350 C 232.547 -1.56707 0.360512 0
M  V30 2351 O 233.737 -1.62717 0.622002 0
M  V30 2352 C 230.869 -3.14239 1.32162 0
M  V30 2353 H 232.062 -1.7295 2.45006 0
M  V30 2354 H 229.615 -0.870469 1.29817 0
M  V30 2355 H 230.35 -3.22336 0.356401 0
M  V30 2356 H 230.135 -3.29235 2.12948 0
M  V30 2357 H 231.625 -3.94094 1.3813 0
M  V30 2358 N 232.062 -1.29571 -0.897171 0
M  V30 2359 C 233.29 -1.20583 -1.68129 0
M  V30 2360 C 233.705 0.233181 -1.87354 0
M  V30 2361 O 233.062 1.15579 -1.41236 0
M  V30 2362 C 233.113 -1.91772 -3.06441 0
M  V30 2363 O 232.834 -3.30053 -2.88091 0
M  V30 2364 C 234.335 -1.89291 -4.00854 0
M  V30 2365 H 231.555 -0.417826 -0.525036 0
M  V30 2366 H 234.099 -1.70987 -1.12177 0
M  V30 2367 H 232.254 -1.45196 -3.59161 0
M  V30 2368 H 232.668 -3.65942 -3.75748 0
M  V30 2369 H 234.142 -2.43662 -4.95311 0
M  V30 2370 H 234.619 -0.869014 -4.30517 0
M  V30 2371 H 235.225 -2.35622 -3.54066 0
M  V30 2372 N 233.54 1.10788 -1.12088 0
M  V30 2373 C 234.487 2.17025 -0.785407 0
M  V30 2374 C 235.457 1.64265 0.246191 0
M  V30 2375 O 236.642 1.90412 0.121584 0
M  V30 2376 C 233.782 3.44249 -0.242177 0
M  V30 2377 C 232.895 4.1098 -1.33115 0
M  V30 2378 C 232.03 5.25911 -0.747741 0
M  V30 2379 C 231.069 5.84538 -1.81609 0
M  V30 2380 N 230.206 6.90853 -1.25167 0
M  V30 2381 H 235.046 2.45066 -1.69548 0
M  V30 2382 H 232.583 1.20297 -0.846582 0
M  V30 2383 H 234.541 4.17101 0.0908026 0
M  V30 2384 H 233.171 3.16571 0.631072 0
M  V30 2385 H 232.223 3.36133 -1.78097 0
M  V30 2386 H 233.535 4.50601 -2.13917 0
M  V30 2387 H 232.689 6.056 -0.365216 0
M  V30 2388 H 231.428 4.87614 0.0915188 0
M  V30 2389 H 230.433 5.03522 -2.20785 0
M  V30 2390 H 231.658 6.249 -2.6585 0
M  V30 2391 H 229.604 6.54562 -0.434174 0
M  V30 2392 H 229.521 7.29166 -1.99633 0
M  V30 2393 H 230.789 7.7433 -0.896259 0
M  V30 2394 O 235.057 1.04415 1.23206 0
M  V30 2395 H 235.748 0.716727 1.79952 0
M  V30 END ATOM
M  V30 BEGIN BOND
M  V30 END BOND
M  V30 END CTAB
M  END
$$$$
