drugbank_target|P14902 Indoleamine 2,3-dioxygenase 1 (DB00435; DB09061; DB14009; DB14011)
 OpenBabel12092119373D

  0  0  0     0  0            999 V3000
M  V30 BEGIN CTAB
M  V30 COUNTS 6386 6460 0 0 0
M  V30 BEGIN ATOM
M  V30 1 H -0.908 1.98254 -0.117106 0
M  V30 2 N 0 1.576 0 0
M  V30 3 C 0.933 2.03868 1.02534 0
M  V30 4 C 1.911 0.928543 1.3348 0
M  V30 5 O 3.095 1.19667 1.45644 0
M  V30 6 C 0.222 2.43627 2.35294 0
M  V30 7 C -0.732 3.65373 2.2001 0
M  V30 8 S 0.101 5.13292 1.52614 0
M  V30 9 C 1.257 5.56322 2.86805 0
M  V30 10 H 1.49 2.90518 0.631377 0
M  V30 11 H -0.977 1.52953 0.210867 0
M  V30 12 H 0.981 2.67203 3.11629 0
M  V30 13 H -0.358 1.57376 2.7183 0
M  V30 14 H -1.165 3.90944 3.18086 0
M  V30 15 H -1.563 3.418 1.51819 0
M  V30 16 H 0.729 5.58782 3.83104 0
M  V30 17 H 1.672 6.56266 2.65933 0
M  V30 18 H 2.08 4.83886 2.90714 0
M  V30 19 N 1.4781 -0.272755 1.55222 0
M  V30 20 C 2.4411 -1.32041 1.87344 0
M  V30 21 C 3.4411 -1.42342 0.74803 0
M  V30 22 O 4.6311 -1.41488 1.0162 0
M  V30 23 C 1.7631 -2.70173 2.07893 0
M  V30 24 H 2.9561 -1.04789 2.80997 0
M  V30 25 H 0.5091 -0.51083 1.47717 0
M  V30 26 H 1.2441 -3.02605 1.16622 0
M  V30 27 H 1.0291 -2.64082 2.89833 0
M  V30 28 H 2.5191 -3.45869 2.34017 0
M  V30 29 N 2.9562 -1.48159 -0.537278 0
M  V30 30 C 3.9062 -1.5854 -1.63857 0
M  V30 31 C 4.8902 -0.442969 -1.54682 0
M  V30 32 O 6.0822 -0.69401 -1.62827 0
M  V30 33 C 3.2112 -1.62144 -3.02596 0
M  V30 34 C 2.2972 -2.81841 -3.16901 0
M  V30 35 N 2.6882 -4.06337 -3.01204 0
M  V30 36 C 0.9862 -2.79021 -3.47942 0
M  V30 37 C 1.6872 -4.86606 -3.18731 0
M  V30 38 N 0.6632 -4.19288 -3.45974 0
M  V30 39 H 4.4652 -2.5255 -1.50319 0
M  V30 40 H 1.9792 -1.4443 -0.742555 0
M  V30 41 H 3.9762 -1.67674 -3.81695 0
M  V30 42 H 2.6362 -0.69245 -3.17231 0
M  V30 43 H 3.6472 -4.36888 -2.78117 0
M  V30 44 H 0.3242 -1.95347 -3.6898 0
M  V30 45 H 1.7142 -5.95385 -3.11394 0
M  V30 46 N 4.4343 0.785586 -1.36625 0
M  V30 47 C 5.3973 1.87999 -1.31107 0
M  V30 48 C 6.3973 1.59316 -0.217959 0
M  V30 49 O 7.5873 1.67656 -0.472977 0
M  V30 50 C 4.7193 3.24861 -1.03334 0
M  V30 51 H 5.9123 1.94307 -2.2844 0
M  V30 52 H 3.4653 0.983813 -1.21453 0
M  V30 53 H 4.2003 3.24235 -0.0647432 0
M  V30 54 H 3.9853 3.4707 -1.82441 0
M  V30 55 H 5.4753 4.04929 -1.02088 0
M  V30 56 N 5.9124 1.20967 1.01018 0
M  V30 57 C 6.8454 0.907578 2.09376 0
M  V30 58 C 7.8234 -0.142868 1.61971 0
M  V30 59 O 9.0074 -0.0150391 1.88494 0
M  V30 60 C 6.1344 0.361791 3.36762 0
M  V30 61 C 5.1804 1.39423 4.03068 0
M  V30 62 S 6.0134 2.96159 4.4615 0
M  V30 63 C 7.1694 2.43173 5.7673 0
M  V30 64 H 7.4024 1.82519 2.34678 0
M  V30 65 H 4.9354 1.03884 1.14225 0
M  V30 66 H 6.8934 0.0534523 4.10465 0
M  V30 67 H 5.5544 -0.53443 3.0952 0
M  V30 68 H 4.7474 0.961853 4.94737 0
M  V30 69 H 4.3494 1.65038 3.35617 0
M  V30 70 H 6.6414 1.83335 6.52223 0
M  V30 71 H 7.5844 3.33264 6.24773 0
M  V30 72 H 7.9924 1.85069 5.33301 0
M  V30 73 N 7.3905 -1.2043 1.01659 0
M  V30 74 C 8.3005 -2.2689 0.596484 0
M  V30 75 C 9.3165 -1.70107 -0.36599 0
M  V30 76 O 10.4925 -2.00117 -0.226942 0
M  V30 77 C 7.5575 -3.4665 -0.0586659 0
M  V30 78 C 6.6185 -4.18662 0.949751 0
M  V30 79 C 5.8515 -5.32705 0.32577 0
M  V30 80 O 6.0745 -5.63656 -0.874509 0
M  V30 81 O 5.0085 -5.92803 1.04249 0
M  V30 82 H 8.8345 -2.65041 1.4828 0
M  V30 83 H 6.4195 -1.27048 0.786082 0
M  V30 84 H 8.3015 -4.19256 -0.424564 0
M  V30 85 H 6.9765 -3.10375 -0.91918 0
M  V30 86 H 5.8835 -3.48229 1.36702 0
M  V30 87 H 7.2165 -4.58878 1.78023 0
M  V30 88 N 8.8686 -0.792821 -1.36206 0
M  V30 89 C 9.8166 -0.181555 -2.3189 0
M  V30 90 C 10.8106 0.661025 -1.55971 0
M  V30 91 O 12.0166 0.555728 -1.71206 0
M  V30 92 H 8.3916 -0.0399382 -0.750939 0
M  V30 93 H 10.3626 -1.00394 -2.81005 0
M  V30 94 C 9.1116 0.666444 -3.41253 0
M  V30 95 H 8.4346 0.0274489 -3.99791 0
M  V30 96 H 9.8746 1.06076 -4.10517 0
M  V30 97 C 8.3336 1.82614 -2.83114 0
M  V30 98 O 8.8636 2.9229 -2.75553 0
M  V30 99 N 7.0696 1.63333 -2.40356 0
M  V30 100 H 6.6166 0.741217 -2.46706 0
M  V30 101 H 6.5746 2.41087 -2.01803 0
M  V30 102 N 10.3467 1.47872 -0.545128 0
M  V30 103 C 11.5717 2.07391 -0.0190611 0
M  V30 104 C 11.9967 1.39688 1.25971 0
M  V30 105 O 11.3547 0.467816 1.7516 0
M  V30 106 C 11.4027 3.60188 0.172335 0
M  V30 107 O 10.5067 3.9339 1.23766 0
M  V30 108 H 9.8477 0.662411 -0.0459059 0
M  V30 109 H 12.3777 1.90066 -0.757365 0
M  V30 110 H 12.3877 4.06129 0.390305 0
M  V30 111 H 11.0627 4.08865 -0.761725 0
M  V30 112 H 9.6397 3.5921 1.00114 0
M  V30 113 N 11.8248 0.280983 1.55075 0
M  V30 114 C 13.0708 -0.327573 2.00745 0
M  V30 115 C 13.4258 -1.53045 1.16598 0
M  V30 116 O 12.7188 -1.90221 0.229451 0
M  V30 117 C 12.9128 -0.754656 3.49342 0
M  V30 118 C 12.7418 0.40529 4.4787 0
M  V30 119 C 11.5118 0.890947 4.97383 0
M  V30 120 C 13.7098 1.24371 4.99035 0
M  V30 121 N 11.6918 2.01975 5.79724 0
M  V30 122 C 13.0628 2.22031 5.7888 0
M  V30 123 C 15.1178 1.27638 4.81262 0
M  V30 124 C 13.8208 3.22709 6.42846 0
M  V30 125 C 15.8468 2.27164 5.46031 0
M  V30 126 C 15.2088 3.23556 6.25692 0
M  V30 127 H 11.3078 -0.0848774 0.77738 0
M  V30 128 H 13.8918 0.406342 1.90413 0
M  V30 129 H 12.0628 -1.45778 3.60005 0
M  V30 130 H 13.7948 -1.34105 3.81835 0
M  V30 131 H 10.5498 0.469262 4.71269 0
M  V30 132 H 10.9738 2.58794 6.25584 0
M  V30 133 H 15.6158 0.544936 4.19274 0
M  V30 134 H 13.3338 3.96784 7.0398 0
M  V30 135 H 16.9198 2.30441 5.34217 0
M  V30 136 H 15.7998 3.99309 6.74924 0
M  V30 137 N 13.3029 -1.57598 0.00835791 0
M  V30 138 C 14.5309 -1.95214 -0.68549 0
M  V30 139 C 14.9459 -0.883706 -1.66841 0
M  V30 140 O 14.3029 0.136565 -1.81988 0
M  V30 141 C 14.3539 -3.32865 -1.41007 0
M  V30 142 O 14.0749 -4.35609 -0.466552 0
M  V30 143 C 15.5759 -3.84991 -2.19765 0
M  V30 144 H 12.7959 -0.643422 -0.190392 0
M  V30 145 H 15.3399 -2.04406 0.0619607 0
M  V30 146 H 13.4949 -3.24956 -2.10908 0
M  V30 147 H 13.9089 -5.15288 -0.978699 0
M  V30 148 H 15.3829 -4.8371 -2.65948 0
M  V30 149 H 15.8599 -3.18137 -3.02796 0
M  V30 150 H 16.4659 -3.96103 -1.54864 0
M  V30 151 N 14.781 0.264519 -1.55364 0
M  V30 152 C 16.03 0.992812 -1.75574 0
M  V30 153 C 16.343 1.87142 -0.568979 0
M  V30 154 O 17.549 2.63513 -0.653682 0
M  V30 155 C 16.005 1.81519 -3.10771 0
M  V30 156 C 15.613 0.984839 -4.37041 0
M  V30 157 C 17.357 2.53727 -3.40327 0
M  V30 158 C 15.264 1.80209 -5.63275 0
M  V30 159 H 14.194 0.374412 -0.65447 0
M  V30 160 H 16.845 0.248138 -1.81815 0
M  V30 161 H 15.227 2.60115 -2.98591 0
M  V30 162 H 16.401 0.242455 -4.60162 0
M  V30 163 H 14.716 0.37691 -4.14691 0
M  V30 164 H 17.313 3.15292 -4.3185 0
M  V30 165 H 17.656 3.24447 -2.60845 0
M  V30 166 H 18.189 1.82156 -3.53644 0
M  V30 167 H 14.928 1.13896 -6.45529 0
M  V30 168 H 14.448 2.52022 -5.44284 0
M  V30 169 H 16.127 2.37364 -6.01887 0
M  V30 170 N 16.2591 1.48442 0.529413 0
M  V30 171 C 17.4841 1.60406 1.31471 0
M  V30 172 C 17.9091 0.264738 1.86228 0
M  V30 173 O 17.2671 -0.763668 1.64432 0
M  V30 174 C 17.3151 2.65419 2.44101 0
M  V30 175 O 16.4191 2.22618 3.47153 0
M  V30 176 H 15.7601 0.537863 0.389357 0
M  V30 177 H 18.2901 1.94432 0.636965 0
M  V30 178 H 18.3001 2.86709 2.90279 0
M  V30 179 H 16.9751 3.62652 2.03608 0
M  V30 180 H 15.5521 2.11543 3.0709 0
M  V30 181 N 17.7372 -0.778329 1.37039 0
M  V30 182 C 18.6842 -1.89139 1.32269 0
M  V30 183 C 19.6542 -1.65017 0.189387 0
M  V30 184 O 20.8392 -1.87024 0.377693 0
M  V30 185 C 17.9792 -3.26112 1.12894 0
M  V30 186 C 17.0922 -3.62233 2.35396 0
M  V30 187 C 16.2272 -4.8838 2.08946 0
M  V30 188 C 15.2662 -5.17212 3.2735 0
M  V30 189 N 14.4032 -6.34546 3.00492 0
M  V30 190 H 19.2432 -1.92552 2.27437 0
M  V30 191 H 16.7802 -0.941473 1.13025 0
M  V30 192 H 18.7382 -4.05116 0.996835 0
M  V30 193 H 17.3682 -3.22091 0.213758 0
M  V30 194 H 16.4202 -2.78265 2.5937 0
M  V30 195 H 17.7322 -3.79481 3.23721 0
M  V30 196 H 16.8862 -5.75274 1.92729 0
M  V30 197 H 15.6252 -4.73222 1.17949 0
M  V30 198 H 14.6302 -4.28796 3.44113 0
M  V30 199 H 15.8552 -5.34283 4.19188 0
M  V30 200 H 13.8012 -6.20759 2.12118 0
M  V30 201 H 13.7182 -6.52179 3.82358 0
M  V30 202 H 14.9862 -7.24394 2.87879 0
M  V30 203 N 19.2153 -1.21501 -1.00376 0
M  V30 204 C 20.1253 -0.991447 -2.12621 0
M  V30 205 C 21.1413 0.0568446 -1.73907 0
M  V30 206 O 22.3173 -0.13348 -2.00957 0
M  V30 207 C 19.3823 -0.560312 -3.42142 0
M  V30 208 C 18.4433 -1.68096 -3.95022 0
M  V30 209 C 17.6763 -1.2703 -5.18362 0
M  V30 210 O 17.8993 -0.144438 -5.70217 0
M  V30 211 O 16.8333 -2.08269 -5.64719 0
M  V30 212 H 20.6593 -1.93158 -2.34358 0
M  V30 213 H 18.2443 -0.999999 -1.10997 0
M  V30 214 H 20.1263 -0.329724 -4.20108 0
M  V30 215 H 18.8013 0.351089 -3.2179 0
M  V30 216 H 17.7083 -1.96597 -3.18278 0
M  V30 217 H 19.0413 -2.56983 -4.19786 0
M  V30 218 N 20.6934 1.19889 -1.02296 0
M  V30 219 C 21.9234 1.93109 -0.734332 0
M  V30 220 C 22.3314 1.75377 0.709889 0
M  V30 221 O 21.6744 1.06912 1.49384 0
M  V30 222 C 21.7364 3.45362 -0.99827 0
M  V30 223 C 21.4004 3.8686 -2.43287 0
M  V30 224 C 22.3974 3.92102 -3.41397 0
M  V30 225 C 20.0824 4.18668 -2.77529 0
M  V30 226 C 22.0764 4.28573 -4.71809 0
M  V30 227 C 19.7634 4.54813 -4.08153 0
M  V30 228 C 20.7614 4.59739 -5.05103 0
M  V30 229 O 20.4494 4.95051 -6.33388 0
M  V30 230 H 20.1814 0.620409 -0.268456 0
M  V30 231 H 22.7354 1.53144 -1.3688 0
M  V30 232 H 20.9654 3.85482 -0.306645 0
M  V30 233 H 22.6544 3.99814 -0.700234 0
M  V30 234 H 23.4204 3.67685 -3.1628 0
M  V30 235 H 19.2994 4.14021 -2.0275 0
M  V30 236 H 22.8434 4.32333 -5.4748 0
M  V30 237 H 18.7404 4.78687 -4.33047 0
M  V30 238 H 19.5084 5.1302 -6.37772 0
M  V30 239 N 22.1715 0.800033 1.35784 0
M  V30 240 C 23.1215 0.178654 2.27299 0
M  V30 241 C 24.1055 -0.643667 1.47464 0
M  V30 242 O 25.2975 -0.502 1.69732 0
M  V30 243 C 22.4265 -0.677194 3.36555 0
M  V30 244 C 21.5125 0.154497 4.23818 0
M  V30 245 N 21.9035 1.21427 4.91008 0
M  V30 246 C 20.2015 -0.0649462 4.45953 0
M  V30 247 C 20.9025 1.72147 5.55644 0
M  V30 248 N 19.8785 1.02897 5.33773 0
M  V30 249 H 23.6805 0.989637 2.76737 0
M  V30 250 H 21.1945 0.64054 1.49234 0
M  V30 251 H 23.1915 -1.13835 4.01058 0
M  V30 252 H 21.8515 -1.4866 2.8867 0
M  V30 253 H 22.8625 1.59684 4.92668 0
M  V30 254 H 19.5395 -0.844016 4.0888 0
M  V30 255 H 20.9295 2.60683 6.19269 0
M  V30 256 N 23.6496 -1.47581 0.552962 0
M  V30 257 C 24.8986 -2.01684 0.0251995 0
M  V30 258 C 25.2116 -1.43317 -1.33115 0
M  V30 259 O 26.4176 -1.89057 -1.94858 0
M  V30 260 C 24.8736 -3.599 -0.00542052 0
M  V30 261 C 24.4816 -4.27257 1.34742 0
M  V30 262 C 26.2256 -4.21768 -0.4808 0
M  V30 263 C 24.1326 -5.77467 1.27614 0
M  V30 264 H 23.0626 -0.753979 0.00565033 0
M  V30 265 H 25.7136 -1.69616 0.70018 0
M  V30 266 H 24.0956 -3.88911 -0.745961 0
M  V30 267 H 25.2696 -4.09893 2.10534 0
M  V30 268 H 23.5846 -3.77358 1.76039 0
M  V30 269 H 26.1816 -5.31838 -0.55246 0
M  V30 270 H 26.5246 -3.88651 -1.49184 0
M  V30 271 H 27.0576 -3.97273 0.204752 0
M  V30 272 H 23.7966 -6.15196 2.26304 0
M  V30 273 H 23.3166 -5.9718 0.55996 0
M  V30 274 H 24.9956 -6.3959 0.976421 0
M  V30 275 N 25.1277 -0.289203 -1.54924 0
M  V30 276 C 26.4047 0.376032 -1.91951 0
M  V30 277 C 26.7847 1.72622 -1.21511 0
M  V30 278 O 26.1327 2.25853 -0.346767 0
M  V30 279 C 26.3427 0.502378 -3.45365 0
M  V30 280 C 27.6907 0.778741 -4.17398 0
M  V30 281 O 28.7147 0.586647 -3.51336 0
M  V30 282 O 27.5737 1.14698 -5.34328 0
M  V30 283 H 24.6677 0.208167 -0.800372 0
M  V30 284 H 27.2137 -0.336394 -1.66332 0
M  V30 285 H 25.9857 -0.447255 -3.88736 0
M  V30 286 H 25.6087 1.26373 -3.76982 0
M  V30 287 N 26.6058 1.57591 -0.0167156 0
M  V30 288 C 27.5158 2.1291 0.98521 0
M  V30 289 C 28.5318 1.07834 1.36557 0
M  V30 290 O 29.7078 1.39826 1.44951 0
M  V30 291 C 26.7728 2.63512 2.25305 0
M  V30 292 C 25.8338 3.83256 1.93426 0
M  V30 293 C 25.0668 4.31435 3.14165 0
M  V30 294 O 25.2898 3.78851 4.26413 0
M  V30 295 O 24.2238 5.23416 2.97186 0
M  V30 296 H 28.0498 2.98772 0.544888 0
M  V30 297 H 25.6348 1.48012 0.203141 0
M  V30 298 H 27.5168 2.96183 2.99756 0
M  V30 299 H 26.1918 1.8074 2.68542 0
M  V30 300 H 25.0988 3.55531 1.16398 0
M  V30 301 H 26.4318 4.67153 1.55013 0
M  V30 302 N 28.0839 -0.256276 1.55502 0
M  V30 303 C 28.9939 -1.33882 1.92647 0
M  V30 304 C 30.0099 -1.53159 0.825727 0
M  V30 305 O 31.1859 -1.66963 1.12629 0
M  V30 306 C 28.2509 -2.6751 2.20543 0
M  V30 307 C 27.3119 -2.56836 3.43997 0
M  V30 308 C 26.5449 -3.84092 3.70553 0
M  V30 309 O 26.7679 -4.85545 2.99336 0
M  V30 310 O 25.7019 -3.83288 4.64084 0
M  V30 311 H 29.5279 -1.05374 2.84833 0
M  V30 312 H 27.1129 -0.456237 1.42263 0
M  V30 313 H 28.9949 -3.46492 2.39835 0
M  V30 314 H 27.6699 -2.9577 1.31536 0
M  V30 315 H 26.5769 -1.76172 3.30021 0
M  V30 316 H 27.9099 -2.33523 4.33275 0
M  V30 317 N 29.562 -1.4872 -0.521534 0
M  V30 318 C 30.808 -1.574 -1.27879 0
M  V30 319 C 31.141 -0.250817 -1.92573 0
M  V30 320 O 30.416 0.743934 -1.79711 0
M  V30 321 C 30.699 -2.71843 -2.36164 0
M  V30 322 C 30.552 -4.13893 -1.76105 0
M  V30 323 C 31.871 -2.82008 -3.37875 0
M  V30 324 H 28.99 -0.572941 -0.463581 0
M  V30 325 H 31.632 -1.80927 -0.580119 0
M  V30 326 H 29.782 -2.51914 -2.95756 0
M  V30 327 H 31.454 -4.45284 -1.20499 0
M  V30 328 H 29.697 -4.20498 -1.06601 0
M  V30 329 H 30.368 -4.89804 -2.5455 0
M  V30 330 H 32.844 -3.00086 -2.88249 0
M  V30 331 H 31.72 -3.63796 -4.11028 0
M  V30 332 H 31.981 -1.90511 -3.98946 0
M  V30 333 N 31.0401 0.771051 -1.3745 0
M  V30 334 C 32.2881 1.52661 -1.32435 0
M  V30 335 C 32.6091 1.9479 0.0905024 0
M  V30 336 O 31.8791 1.66348 1.03466 0
M  V30 337 H 30.4591 0.566218 -0.487244 0
M  V30 338 H 33.1211 0.917636 -1.71946 0
M  V30 339 H 32.2171 2.42568 -1.96385 0
M  V30 340 N 32.5182 1.22032 0.997298 0
M  V30 341 C 33.7652 1.04222 1.73621 0
M  V30 342 C 34.0932 -0.423264 1.89839 0
M  V30 343 O 33.3482 -1.3302 1.43542 0
M  V30 344 C 33.6472 1.69345 3.14733 0
M  V30 345 C 33.3132 3.19226 3.18442 0
M  V30 346 C 31.9752 3.60124 3.19161 0
M  V30 347 C 34.3272 4.15181 3.15078 0
M  V30 348 C 31.6552 4.95467 3.14212 0
M  V30 349 C 34.0072 5.50495 3.1167 0
M  V30 350 C 32.6712 5.90779 3.10703 0
M  V30 351 H 31.9412 0.381374 0.635323 0
M  V30 352 H 34.5882 1.51732 1.16831 0
M  V30 353 H 32.8932 1.14147 3.74803 0
M  V30 354 H 34.5902 1.53059 3.7064 0
M  V30 355 H 31.1802 2.86659 3.18629 0
M  V30 356 H 35.3642 3.84605 3.13676 0
M  V30 357 H 30.6202 5.25916 3.11805 0
M  V30 358 H 34.7942 6.24576 3.08022 0
M  V30 359 H 32.4212 6.9562 3.06622 0
M  V30 360 N 33.9963 -1.19345 1.0293 0
M  V30 361 C 34.9593 -2.20793 0.615069 0
M  V30 362 C 35.9593 -1.57553 -0.321533 0
M  V30 363 O 37.1493 -1.73862 -0.108483 0
M  V30 364 C 34.2813 -3.40754 -0.0999222 0
M  V30 365 H 35.4743 -2.58955 1.51269 0
M  V30 366 H 33.0273 -1.3303 0.820534 0
M  V30 367 H 33.7623 -3.0811 -1.01187 0
M  V30 368 H 33.5473 -3.87889 0.57309 0
M  V30 369 H 35.0373 -4.15898 -0.376645 0
M  V30 370 N 35.4744 -0.807222 -1.35358 0
M  V30 371 C 36.4044 -0.232509 -2.3234 0
M  V30 372 C 37.3854 0.642386 -1.57504 0
M  V30 373 O 38.5704 0.572526 -1.85569 0
M  V30 374 C 35.7004 0.619238 -3.41735 0
M  V30 375 C 34.6544 -0.157215 -4.27711 0
M  V30 376 C 33.9804 0.816273 -5.28433 0
M  V30 377 C 35.2804 -1.35656 -5.04376 0
M  V30 378 H 36.9744 -1.04276 -2.80654 0
M  V30 379 H 34.5204 -0.50288 -1.34934 0
M  V30 380 H 36.4734 1.03137 -4.08584 0
M  V30 381 H 35.1974 1.46239 -2.92031 0
M  V30 382 H 33.8564 -0.550525 -3.62443 0
M  V30 383 H 33.5044 1.65494 -4.74996 0
M  V30 384 H 33.2044 0.301067 -5.86828 0
M  V30 385 H 34.7284 1.22659 -5.98153 0
M  V30 386 H 36.1424 -1.01927 -5.64166 0
M  V30 387 H 34.5394 -1.8063 -5.7227 0
M  V30 388 H 35.6094 -2.14288 -4.34981 0
M  V30 389 N 36.9525 1.47285 -0.560781 0
M  V30 390 C 38.3635 1.86258 -0.128343 0
M  V30 391 C 38.7145 1.46699 1.30284 0
M  V30 392 O 37.8395 0.871698 1.98067 0
M  V30 393 C 38.4345 3.38044 -0.22614 0
M  V30 394 C 36.9935 3.76096 0.151283 0
M  V30 395 C 36.1405 2.71335 -0.572084 0
M  V30 396 H 39.0915 1.38752 -0.770297 0
M  V30 397 H 39.1125 3.76441 0.554322 0
M  V30 398 H 38.6245 3.66806 -1.26788 0
M  V30 399 H 36.7255 3.52951 1.19399 0
M  V30 400 H 36.8385 4.78641 -0.209765 0
M  V30 401 H 35.2025 2.54696 -0.0147653 0
M  V30 402 H 35.9855 3.02938 -1.61504 0
M  V30 403 N 38.4306 0.297415 1.54768 0
M  V30 404 C 39.3786 -0.596051 2.24833 0
M  V30 405 C 40.3726 -1.13992 1.25308 0
M  V30 406 O 41.5786 -1.09098 1.4317 0
M  V30 407 H 37.9536 -0.210814 0.721846 0
M  V30 408 H 39.9246 0.0174667 2.98395 0
M  V30 409 C 38.6736 -1.75818 2.99972 0
M  V30 410 H 37.9966 -1.3489 3.76357 0
M  V30 411 H 39.4366 -2.35949 3.52284 0
M  V30 412 C 37.8956 -2.66014 2.06732 0
M  V30 413 O 38.4256 -3.67009 1.63302 0
M  V30 414 N 36.6316 -2.33669 1.72763 0
M  V30 415 H 36.1786 -1.51586 2.08277 0
M  V30 416 H 36.1366 -2.94285 1.10652 0
M  V30 417 N 39.9087 -1.5758 0.0250728 0
M  V30 418 C 41.3197 -1.79476 -0.514323 0
M  V30 419 C 41.6707 -0.934956 -1.72491 0
M  V30 420 O 40.7957 -0.144245 -2.15919 0
M  V30 421 C 41.3907 -3.25503 -0.939842 0
M  V30 422 C 39.9497 -3.48408 -1.42438 0
M  V30 423 C 39.0967 -2.74583 -0.387201 0
M  V30 424 H 42.0477 -1.567 0.25113 0
M  V30 425 H 42.0687 -3.34992 -1.80445 0
M  V30 426 H 41.5807 -3.88056 -0.0585628 0
M  V30 427 H 39.6817 -2.91103 -2.32572 0
M  V30 428 H 39.7947 -4.57119 -1.43455 0
M  V30 429 H 38.1587 -2.39942 -0.854409 0
M  V30 430 H 38.9417 -3.39849 0.485543 0
M  V30 431 N 41.3868 0.248026 -1.55636 0
M  V30 432 C 42.3188 1.32993 -1.8667 0
M  V30 433 C 43.3318 1.44345 -0.752877 0
M  V30 434 O 44.5208 1.45715 -1.03098 0
M  V30 435 C 41.6208 2.70863 -2.03682 0
M  V30 436 C 40.7938 2.81792 -3.34532 0
M  V30 437 C 39.8528 4.005 -3.41301 0
M  V30 438 O 38.8788 3.9008 -4.14519 0
M  V30 439 N 40.0808 5.13618 -2.70512 0
M  V30 440 H 42.8458 1.06707 -2.8006 0
M  V30 441 H 40.4068 0.438129 -1.55859 0
M  V30 442 H 42.3988 3.48612 -2.05553 0
M  V30 443 H 40.9688 2.89862 -1.17041 0
M  V30 444 H 40.1888 1.90729 -3.44987 0
M  V30 445 H 41.4768 2.86043 -4.20781 0
M  V30 446 H 40.8748 5.24975 -2.10755 0
M  V30 447 H 39.4318 5.89505 -2.78077 0
M  V30 448 N 42.8649 1.48995 0.513639 0
M  V30 449 C 43.7749 1.67443 1.64317 0
M  V30 450 C 44.7909 0.556947 1.64846 0
M  V30 451 O 45.9669 0.830082 1.83498 0
M  V30 452 C 43.0319 1.72515 3.00732 0
M  V30 453 C 42.0929 2.96009 3.1093 0
M  V30 454 C 41.3259 3.00829 4.40837 0
M  V30 455 O 41.5489 2.13594 5.28898 0
M  V30 456 O 40.4829 3.93168 4.55744 0
M  V30 457 H 44.3089 2.63106 1.51687 0
M  V30 458 H 41.8939 1.32588 0.688543 0
M  V30 459 H 43.7759 1.78277 3.81831 0
M  V30 460 H 42.4509 0.800278 3.13651 0
M  V30 461 H 41.3579 2.9577 2.29065 0
M  V30 462 H 42.6909 3.87934 3.02933 0
M  V30 463 N 44.343 -0.763751 1.37857 0
M  V30 464 C 45.291 -1.89864 1.34367 0
M  V30 465 C 46.285 -1.67816 0.231143 0
M  V30 466 O 47.491 -1.75508 0.399617 0
M  V30 467 H 43.866 -0.624501 0.41893 0
M  V30 468 H 45.837 -1.89925 2.30155 0
M  V30 469 C 44.586 -3.27227 1.1755 0
M  V30 470 H 43.909 -3.44773 2.02414 0
M  V30 471 H 45.349 -4.06911 1.1916 0
M  V30 472 C 43.808 -3.36692 -0.118311 0
M  V30 473 O 44.338 -3.86374 -1.09902 0
M  V30 474 N 42.544 -2.90092 -0.171717 0
M  V30 475 H 42.091 -2.49853 0.627012 0
M  V30 476 H 42.049 -2.96806 -1.03699 0
M  V30 477 N 45.8211 -1.22559 -0.990812 0
M  V30 478 C 46.7511 -1.0218 -2.09956 0
M  V30 479 C 47.7321 0.0579394 -1.70001 0
M  V30 480 O 48.9171 -0.104684 -1.93918 0
M  V30 481 C 46.0471 -0.601023 -3.4206 0
M  V30 482 C 45.0011 -1.62694 -3.95872 0
M  V30 483 C 44.3271 -1.06193 -5.24049 0
M  V30 484 C 45.6271 -3.01743 -4.2632 0
M  V30 485 H 47.3211 -1.94916 -2.27262 0
M  V30 486 H 44.8671 -0.938566 -1.09211 0
M  V30 487 H 46.8201 -0.445561 -4.19038 0
M  V30 488 H 45.5441 0.362005 -3.24588 0
M  V30 489 H 44.2031 -1.77021 -3.21028 0
M  V30 490 H 43.8511 -0.0901903 -5.02919 0
M  V30 491 H 43.5511 -1.74732 -5.61019 0
M  V30 492 H 45.0751 -0.918092 -6.03658 0
M  V30 493 H 46.4891 -2.90777 -4.94087 0
M  V30 494 H 44.8861 -3.67425 -4.74467 0
M  V30 495 H 45.9561 -3.51518 -3.34011 0
M  V30 496 N 47.2992 1.18797 -1.03562 0
M  V30 497 C 48.7102 1.70322 -0.764676 0
M  V30 498 C 49.0612 1.82708 0.714996 0
M  V30 499 O 48.1862 1.50299 1.55689 0
M  V30 500 C 48.7812 3.09356 -1.38145 0
M  V30 501 C 47.3402 3.58114 -1.15895 0
M  V30 502 C 46.4872 2.34798 -1.4753 0
M  V30 503 H 49.4382 1.03543 -1.20268 0
M  V30 504 H 49.4592 3.72378 -0.781977 0
M  V30 505 H 48.9712 3.00309 -2.45837 0
M  V30 506 H 47.0722 3.72464 -0.100544 0
M  V30 507 H 47.1852 4.4184 -1.8524 0
M  V30 508 H 45.5492 2.38464 -0.894829 0
M  V30 509 H 46.3322 2.28375 -2.56319 0
M  V30 510 N 48.7773 0.814389 1.34928 0
M  V30 511 C 50.0543 0.321363 1.92942 0
M  V30 512 C 50.4343 -1.19014 1.74353 0
M  V30 513 O 49.7823 -1.99328 1.11716 0
M  V30 514 C 49.9923 0.741323 3.41036 0
M  V30 515 C 51.3403 0.735266 4.18185 0
M  V30 516 O 52.3643 0.68336 3.49584 0
M  V30 517 O 51.2233 0.800703 5.40602 0
M  V30 518 H 48.3173 0.0858893 0.822528 0
M  V30 519 H 50.8633 0.898609 1.43955 0
M  V30 520 H 49.6353 1.78276 3.4833 0
M  V30 521 H 49.2583 0.139307 3.97356 0
M  V30 522 N 50.2554 -1.46986 0.568584 0
M  V30 523 C 51.5024 -2.02441 0.0487986 0
M  V30 524 C 51.8304 -1.44169 -1.30559 0
M  V30 525 O 51.0854 -0.591213 -1.86556 0
M  V30 526 C 51.3844 -3.57306 -0.081836 0
M  V30 527 C 51.0504 -4.34552 1.20313 0
M  V30 528 C 49.7124 -4.55376 1.5552 0
M  V30 529 C 52.0644 -4.79016 2.05411 0
M  V30 530 C 49.3924 -5.17913 2.7565 0
M  V30 531 C 51.7444 -5.42879 3.24754 0
M  V30 532 C 50.4084 -5.61933 3.60261 0
M  V30 533 H 49.6784 -0.740785 0.0178567 0
M  V30 534 H 52.3254 -1.76525 0.742384 0
M  V30 535 H 50.6304 -3.8228 -0.858463 0
M  V30 536 H 52.3274 -3.97876 -0.499546 0
M  V30 537 H 48.9174 -4.18631 0.919014 0
M  V30 538 H 53.1014 -4.62696 1.79516 0
M  V30 539 H 48.3574 -5.30858 3.03315 0
M  V30 540 H 52.5314 -5.76293 3.90973 0
M  V30 541 H 50.1584 -6.10161 4.53439 0
M  V30 542 N 51.7335 -0.305618 -1.54608 0
M  V30 543 C 52.9635 0.304333 -2.04346 0
M  V30 544 C 53.3715 1.47715 -1.18224 0
M  V30 545 O 52.7145 1.82591 -0.201577 0
M  V30 546 C 52.7765 0.819031 -3.50046 0
M  V30 547 C 52.4405 -0.22912 -4.56425 0
M  V30 548 C 53.4375 -1.05914 -5.08997 0
M  V30 549 C 51.1225 -0.372148 -5.0092 0
M  V30 550 C 53.1165 -2.01809 -6.04609 0
M  V30 551 C 50.8035 -1.33454 -5.9635 0
M  V30 552 C 51.8015 -2.15599 -6.48079 0
M  V30 553 O 51.4895 -3.10205 -7.41639 0
M  V30 554 H 51.2215 0.0693996 -0.672428 0
M  V30 555 H 53.7755 -0.444548 -2.00532 0
M  V30 556 H 52.0055 1.61852 -3.51199 0
M  V30 557 H 53.6945 1.34537 -3.82955 0
M  V30 558 H 54.4605 -0.959538 -4.75413 0
M  V30 559 H 50.3395 0.257304 -4.60281 0
M  V30 560 H 53.8835 -2.65966 -6.44909 0
M  V30 561 H 49.7805 -1.43485 -6.29351 0
M  V30 562 H 50.5485 -3.05237 -7.59455 0
M  V30 563 N 53.2116 1.57565 -0.0334293 0
M  V30 564 C 54.1596 2.1164 0.96496 0
M  V30 565 C 55.1536 1.04398 1.33407 0
M  V30 566 O 56.3596 1.22828 1.3158 0
M  V30 567 H 52.7346 0.676222 0.32898 0
M  V30 568 H 54.7056 2.94455 0.483614 0
M  V30 569 C 53.4546 2.66207 2.23672 0
M  V30 570 H 52.7776 3.48378 1.96145 0
M  V30 571 H 54.2176 3.07685 2.9173 0
M  V30 572 C 52.6766 1.59151 2.96939 0
M  V30 573 O 53.2066 0.993858 3.89211 0
M  V30 574 N 51.4126 1.31093 2.59351 0
M  V30 575 H 50.9596 1.7988 1.84393 0
M  V30 576 H 50.9176 0.596889 3.08682 0
M  V30 577 N 54.6897 -0.239769 1.55765 0
M  V30 578 C 55.9667 -0.990056 1.68693 0
M  V30 579 C 56.3467 -2.03107 0.5754 0
M  V30 580 O 55.6947 -2.24604 -0.42017 0
M  V30 581 C 55.9047 -1.61696 3.09282 0
M  V30 582 C 57.2527 -2.11613 3.6811 0
M  V30 583 O 58.2767 -1.71624 3.12127 0
M  V30 584 O 57.1357 -2.85057 4.66267 0
M  V30 585 H 54.2297 -0.461299 0.686391 0
M  V30 586 H 56.7757 -0.232991 1.68093 0
M  V30 587 H 55.5477 -0.864357 3.81634 0
M  V30 588 H 55.1707 -2.44005 3.13923 0
M  V30 589 N 56.1678 -1.49265 -0.50573 0
M  V30 590 C 57.4138 -1.59723 -1.25937 0
M  V30 591 C 57.7688 -0.278236 -1.90378 0
M  V30 592 O 57.0618 0.72113 -1.77511 0
M  V30 593 C 57.2558 -2.69008 -2.35308 0
M  V30 594 C 57.0848 -4.11405 -1.81592 0
M  V30 595 C 55.8548 -4.78252 -1.63105 0
M  V30 596 C 58.0528 -4.96792 -1.33048 0
M  V30 597 N 56.0348 -6.0498 -1.04269 0
M  V30 598 C 57.4058 -6.13962 -0.863168 0
M  V30 599 C 59.4608 -4.82828 -1.21577 0
M  V30 600 C 58.1638 -7.18705 -0.292489 0
M  V30 601 C 60.1898 -5.87716 -0.65907 0
M  V30 602 C 59.5518 -7.0411 -0.201954 0
M  V30 603 H 55.6508 -0.638864 -0.450973 0
M  V30 604 H 58.2348 -1.86251 -0.567326 0
M  V30 605 H 56.4058 -2.4426 -3.01979 0
M  V30 606 H 58.1378 -2.69013 -3.02348 0
M  V30 607 H 54.8928 -4.34974 -1.87336 0
M  V30 608 H 55.3168 -6.72631 -0.767919 0
M  V30 609 H 59.9588 -3.93159 -1.55518 0
M  V30 610 H 57.6768 -8.08078 0.0591987 0
M  V30 611 H 61.2628 -5.7897 -0.573156 0
M  V30 612 H 60.1428 -7.83885 0.222101 0
M  V30 613 N 57.6459 0.756429 -1.3826 0
M  V30 614 C 58.5789 1.87802 -1.29637 0
M  V30 615 C 59.5569 1.61667 -0.173939 0
M  V30 616 O 60.7409 1.85208 -0.350775 0
M  V30 617 C 57.8679 3.23354 -1.00797 0
M  V30 618 C 56.9139 3.68379 -2.14939 0
M  V30 619 S 57.7469 3.8025 -3.77054 0
M  V30 620 C 58.9029 5.18626 -3.50396 0
M  V30 621 H 59.1359 1.94829 -2.24564 0
M  V30 622 H 56.6689 0.919117 -1.24063 0
M  V30 623 H 58.6269 4.01637 -0.848413 0
M  V30 624 H 57.2879 3.14008 -0.0759369 0
M  V30 625 H 56.4809 4.66693 -1.90299 0
M  V30 626 H 56.0829 2.97242 -2.26988 0
M  V30 627 H 58.3749 6.04289 -3.06334 0
M  V30 628 H 59.3179 5.48286 -4.48094 0
M  V30 629 H 59.7259 4.87289 -2.84973 0
M  V30 630 N 59.124 1.23083 0.984299 0
M  V30 631 C 60.371 1.06057 1.72505 0
M  V30 632 C 60.699 -0.403105 1.90277 0
M  V30 633 O 59.954 -1.3149 1.44944 0
M  V30 634 C 60.253 1.72673 3.1292 0
M  V30 635 C 59.919 3.22586 3.15038 0
M  V30 636 C 58.581 3.63489 3.15324 0
M  V30 637 C 60.933 4.185 3.10657 0
M  V30 638 C 58.261 4.98772 3.08939 0
M  V30 639 C 60.613 5.53769 3.05814 0
M  V30 640 C 59.277 5.94041 3.04419 0
M  V30 641 H 58.547 0.388091 0.631242 0
M  V30 642 H 61.194 1.52963 1.15215 0
M  V30 643 H 59.499 1.18116 3.73572 0
M  V30 644 H 61.196 1.56982 3.68996 0
M  V30 645 H 57.786 2.90022 3.15571 0
M  V30 646 H 61.97 3.87911 3.09579 0
M  V30 647 H 57.226 5.29193 3.0621 0
M  V30 648 H 61.4 6.27808 3.0138 0
M  V30 649 H 59.027 6.98833 2.99227 0
M  V30 650 N 60.6021 -1.18246 1.0419 0
M  V30 651 C 61.8511 -1.87588 0.741194 0
M  V30 652 C 62.1641 -1.81303 -0.734066 0
M  V30 653 O 63.3701 -2.46019 -1.14834 0
M  V30 654 C 61.8261 -3.36538 1.27555 0
M  V30 655 C 61.4341 -3.51349 2.77953 0
M  V30 656 C 63.1781 -4.11273 1.05143 0
M  V30 657 C 61.0851 -4.94265 3.2474 0
M  V30 658 H 60.0151 -0.702622 0.273565 0
M  V30 659 H 62.6661 -1.33601 1.25789 0
M  V30 660 H 61.0481 -3.9 0.686703 0
M  V30 661 H 62.2221 -3.08153 3.42605 0
M  V30 662 H 60.5371 -2.90022 2.98791 0
M  V30 663 H 63.1341 -5.16689 1.37611 0
M  V30 664 H 63.4771 -4.16298 -0.0112774 0
M  V30 665 H 64.0101 -3.63987 1.60495 0
M  V30 666 H 60.7491 -4.94408 4.30396 0
M  V30 667 H 60.2691 -5.38172 2.64823 0
M  V30 668 H 61.9481 -5.62987 3.18834 0
M  V30 669 N 62.0802 -0.821533 -1.34494 0
M  V30 670 C 63.0432 -0.247847 -2.27856 0
M  V30 671 C 64.0432 0.573453 -1.50227 0
M  V30 672 O 65.2332 0.389759 -1.69784 0
M  V30 673 C 62.3652 0.652698 -3.34593 0
M  V30 674 H 63.5582 -1.07146 -2.80107 0
M  V30 675 H 61.1112 -0.593291 -1.44602 0
M  V30 676 H 61.8462 1.49943 -2.87555 0
M  V30 677 H 61.6312 0.065292 -3.92046 0
M  V30 678 H 63.1212 1.04793 -4.04238 0
M  V30 679 N 63.5583 1.46682 -0.576371 0
M  V30 680 C 64.5053 2.30241 0.160499 0
M  V30 681 C 65.4753 1.40233 0.890162 0
M  V30 682 O 66.6603 1.69186 0.882084 0
M  V30 683 C 63.8003 3.24578 1.1723 0
M  V30 684 C 62.9133 4.29684 0.446736 0
M  V30 685 C 62.0483 5.11154 1.44551 0
M  V30 686 C 61.0873 6.08015 0.70599 0
M  V30 687 N 60.2243 6.82376 1.65251 0
M  V30 688 H 65.0643 2.92727 -0.558127 0
M  V30 689 H 62.6013 1.44272 -0.287056 0
M  V30 690 H 64.5593 3.77711 1.77172 0
M  V30 691 H 63.1893 2.63916 1.85872 0
M  V30 692 H 62.2413 3.79458 -0.267594 0
M  V30 693 H 63.5533 4.98626 -0.131686 0
M  V30 694 H 62.7073 5.68533 2.11791 0
M  V30 695 H 61.4463 4.42158 2.05786 0
M  V30 696 H 60.4513 5.49796 0.0197725 0
M  V30 697 H 61.6763 6.79028 0.09912 0
M  V30 698 H 59.6223 6.16094 2.25308 0
M  V30 699 H 59.5393 7.47556 1.12673 0
M  V30 700 H 60.8073 7.44316 2.31546 0
M  V30 701 N 65.0364 0.313813 1.54444 0
M  V30 702 C 65.9864 -0.571898 2.20711 0
M  V30 703 C 66.9704 -1.08913 1.18435 0
M  V30 704 O 68.1624 -1.02777 1.44104 0
M  V30 705 C 65.2914 -1.7371 2.96108 0
M  V30 706 C 64.3774 -1.23522 4.05713 0
M  V30 707 N 64.7684 -0.452288 5.03774 0
M  V30 708 C 63.0664 -1.51482 4.19487 0
M  V30 709 C 63.7674 -0.183438 5.81411 0
M  V30 710 N 62.7434 -0.766845 5.38164 0
M  V30 711 H 66.5454 0.0336802 2.93881 0
M  V30 712 H 64.0594 0.119192 1.61962 0
M  V30 713 H 66.0564 -2.38329 3.4206 0
M  V30 714 H 64.7164 -2.34625 2.24458 0
M  V30 715 H 65.7274 -0.0960131 5.17811 0
M  V30 716 H 62.4044 -2.13053 3.59047 0
M  V30 717 H 63.7944 0.446216 6.70417 0
M  V30 718 N 66.5145 -1.57545 0.0417849 0
M  V30 719 C 67.4445 -2.14009 -0.933929 0
M  V30 720 C 68.4255 -1.05938 -1.33083 0
M  V30 721 O 69.6105 -1.33833 -1.40721 0
M  V30 722 C 66.7405 -2.67747 -2.21199 0
M  V30 723 C 65.6945 -3.80718 -1.95544 0
M  V30 724 C 65.0205 -4.20935 -3.29724 0
M  V30 725 C 66.3205 -5.06258 -1.28452 0
M  V30 726 H 68.0145 -2.95788 -0.463645 0
M  V30 727 H 65.5605 -1.42285 -0.221573 0
M  V30 728 H 67.5135 -3.05886 -2.89848 0
M  V30 729 H 66.2375 -1.83147 -2.70416 0
M  V30 730 H 64.8965 -3.43037 -1.2931 0
M  V30 731 H 64.5445 -3.33298 -3.76724 0
M  V30 732 H 64.2445 -4.9707 -3.13361 0
M  V30 733 H 65.7685 -4.61666 -3.9962 0
M  V30 734 H 67.1825 -5.41903 -1.8712 0
M  V30 735 H 65.5795 -5.87475 -1.22445 0
M  V30 736 H 66.6495 -4.84207 -0.259219 0
M  V30 737 N 67.9926 0.231505 -1.5589 0
M  V30 738 C 69.4036 0.799327 -1.68724 0
M  V30 739 C 69.7546 1.85398 -0.642022 0
M  V30 740 O 68.8796 2.1539 0.208784 0
M  V30 741 C 69.4746 1.45664 -3.05888 0
M  V30 742 C 68.0336 1.97197 -3.20609 0
M  V30 743 C 67.1806 0.828552 -2.64632 0
M  V30 744 H 70.1316 0.00702616 -1.58698 0
M  V30 745 H 70.1526 2.32517 -3.01191 0
M  V30 746 H 69.6646 0.688808 -3.81939 0
M  V30 747 H 67.7656 2.76813 -2.4941 0
M  V30 748 H 67.8786 2.15878 -4.27707 0
M  V30 749 H 66.2426 1.23321 -2.22854 0
M  V30 750 H 67.0256 0.0735544 -3.43221 0
M  V30 751 N 69.4707 1.49531 0.497807 0
M  V30 752 C 70.7477 1.49682 1.25915 0
M  V30 753 C 71.1277 0.226339 2.09883 0
M  V30 754 O 70.4757 -0.791189 2.14365 0
M  V30 755 C 70.6857 2.77755 2.11313 0
M  V30 756 C 72.0337 3.27371 2.70395 0
M  V30 757 O 73.0577 2.78894 2.21578 0
M  V30 758 O 71.9167 4.11808 3.59272 0
M  V30 759 H 69.0107 0.599228 0.56996 0
M  V30 760 H 71.5567 1.61798 0.511816 0
M  V30 761 H 70.3287 3.61713 1.49264 0
M  V30 762 H 69.9517 2.68515 2.93233 0
M  V30 763 N 70.9488 -0.749086 1.3866 0
M  V30 764 C 71.8788 -1.8764 1.38973 0
M  V30 765 C 72.8598 -1.68178 0.255004 0
M  V30 766 O 74.0448 -1.88704 0.458754 0
M  V30 767 C 71.1748 -3.25222 1.21851 0
M  V30 768 C 70.1288 -3.59295 2.32575 0
M  V30 769 C 69.4548 -4.95663 2.00555 0
M  V30 770 C 70.7548 -3.63709 3.7485 0
M  V30 771 H 72.4488 -1.87635 2.3331 0
M  V30 772 H 69.9948 -0.901329 1.12303 0
M  V30 773 H 71.9478 -4.03746 1.20695 0
M  V30 774 H 70.6718 -3.25719 0.239775 0
M  V30 775 H 69.3308 -2.83093 2.32925 0
M  V30 776 H 68.9788 -4.92724 1.01154 0
M  V30 777 H 68.6788 -5.19429 2.74714 0
M  V30 778 H 70.2028 -5.7656 2.01024 0
M  V30 779 H 71.6168 -4.32338 3.76506 0
M  V30 780 H 70.0138 -3.98986 4.48252 0
M  V30 781 H 71.0838 -2.63834 4.06841 0
M  V30 782 N 72.4269 -1.23603 -0.977757 0
M  V30 783 C 73.6759 -1.06377 -1.71368 0
M  V30 784 C 73.9889 0.399062 -1.91486 0
M  V30 785 O 75.1949 0.691312 -2.62551 0
M  V30 786 C 73.6509 -1.85512 -3.08404 0
M  V30 787 C 73.2589 -3.36141 -2.96164 0
M  V30 788 C 75.0029 -1.76783 -3.85938 0
M  V30 789 C 72.9099 -4.07659 -4.28449 0
M  V30 790 H 71.8399 -0.394452 -0.642591 0
M  V30 791 H 74.4909 -1.47594 -1.09034 0
M  V30 792 H 72.8729 -1.37103 -3.71509 0
M  V30 793 H 74.0469 -3.92056 -2.42133 0
M  V30 794 H 72.3619 -3.45712 -2.32104 0
M  V30 795 H 74.9589 -2.27526 -4.83876 0
M  V30 796 H 75.3019 -0.731116 -4.0983 0
M  V30 797 H 75.8349 -2.22818 -3.2954 0
M  V30 798 H 72.5739 -5.11648 -4.09752 0
M  V30 799 H 72.0939 -3.5653 -4.82334 0
M  V30 800 H 73.7729 -4.141 -4.97122 0
M  V30 801 N 73.905 1.17692 -1.04816 0
M  V30 802 C 74.815 2.25229 -0.65643 0
M  V30 803 C 75.831 1.71018 0.320761 0
M  V30 804 O 77.007 2.00649 0.173805 0
M  V30 805 C 74.072 3.46684 -0.0332629 0
M  V30 806 C 73.133 4.15997 -1.06042 0
M  V30 807 C 72.366 5.31654 -0.466893 0
M  V30 808 O 72.589 5.65777 0.724758 0
M  V30 809 O 71.523 5.89831 -1.1993 0
M  V30 810 H 75.349 2.61016 -1.55255 0
M  V30 811 H 72.934 1.24919 -0.81949 0
M  V30 812 H 74.816 4.20234 0.313256 0
M  V30 813 H 73.491 3.12703 0.836566 0
M  V30 814 H 72.398 3.44482 -1.45886 0
M  V30 815 H 73.731 4.53996 -1.90127 0
M  V30 816 N 75.3831 0.828654 1.34056 0
M  V30 817 C 76.6081 0.431637 2.02859 0
M  V30 818 C 77.0331 -0.956339 1.61975 0
M  V30 819 O 76.3911 -1.62338 0.807228 0
M  V30 820 C 76.4391 0.548323 3.56407 0
M  V30 821 O 75.5431 -0.429556 4.10157 0
M  V30 822 H 74.8841 0.176886 0.640006 0
M  V30 823 H 77.4141 1.12066 1.71179 0
M  V30 824 H 77.4241 0.426196 4.05768 0
M  V30 825 H 76.0991 1.5606 3.8551 0
M  V30 826 H 74.6761 -0.265836 3.71951 0
M  V30 827 N 76.8612 -1.46375 0.584142 0
M  V30 828 C 78.1092 -2.01978 0.0701287 0
M  V30 829 C 78.4302 -1.4579 -1.295 0
M  V30 830 O 77.7002 -0.64314 -1.85042 0
M  V30 831 H 76.2802 -0.746648 0.0229345 0
M  V30 832 H 78.9422 -1.79461 0.760245 0
M  V30 833 H 78.0382 -3.121 0.0022064 0
M  V30 834 N 78.3393 -0.321999 -1.54275 0
M  V30 835 C 79.2713 0.578671 -2.21775 0
M  V30 836 C 80.2843 1.08109 -1.21722 0
M  V30 837 O 81.4733 0.994938 -1.482 0
M  V30 838 C 78.5733 1.80661 -2.86731 0
M  V30 839 C 77.7463 1.44314 -4.12907 0
M  V30 840 C 76.8053 2.52845 -4.61472 0
M  V30 841 O 75.8313 2.17054 -5.2619 0
M  V30 842 N 77.0333 3.83748 -4.35566 0
M  V30 843 H 79.7983 0.000709447 -2.997 0
M  V30 844 H 77.3593 -0.145132 -1.61248 0
M  V30 845 H 79.3513 2.52655 -3.16145 0
M  V30 846 H 77.9213 2.29245 -2.12521 0
M  V30 847 H 77.1413 0.554906 -3.90275 0
M  V30 848 H 78.4293 1.17598 -4.95023 0
M  V30 849 H 77.8273 4.15625 -3.83761 0
M  V30 850 H 76.3843 4.51977 -4.69638 0
M  V30 851 N 79.8174 1.5752 -0.0501392 0
M  V30 852 C 80.7474 2.14502 0.922566 0
M  V30 853 C 81.7284 1.06642 1.3252 0
M  V30 854 O 82.9134 1.34577 1.4001 0
M  V30 855 C 80.0434 2.68916 2.19776 0
M  V30 856 C 78.9974 3.8175 1.93523 0
M  V30 857 C 78.3234 4.22677 3.27487 0
M  V30 858 C 79.6234 5.06932 1.25765 0
M  V30 859 H 81.3174 2.9603 0.447952 0
M  V30 860 H 78.8634 1.42401 0.214024 0
M  V30 861 H 80.8164 3.07419 2.88222 0
M  V30 862 H 79.5404 1.84578 2.69441 0
M  V30 863 H 78.1994 3.43718 1.27489 0
M  V30 864 H 77.8474 3.35291 3.74952 0
M  V30 865 H 77.5474 4.98725 3.1072 0
M  V30 866 H 79.0714 4.63779 3.97166 0
M  V30 867 H 80.4854 5.42888 1.84244 0
M  V30 868 H 78.8824 5.88116 1.19328 0
M  V30 869 H 79.9524 4.84337 0.233536 0
M  V30 870 N 81.2955 -0.223234 1.56011 0
M  V30 871 C 82.7115 -0.572856 1.48965 0
M  V30 872 C 82.9115 -1.87225 0.74492 0
M  V30 873 O 81.9675 -2.50899 0.283896 0
M  V30 874 C 83.2805 -0.653646 2.9351 0
M  V30 875 C 84.8285 -0.744386 3.0402 0
M  V30 876 C 85.3035 -0.856535 4.49919 0
M  V30 877 N 86.7945 -0.9208 4.53955 0
M  V30 878 C 87.5295 -1.02726 5.64123 0
M  V30 879 N 87.0255 -1.09777 6.84047 0
M  V30 880 N 88.8185 -1.06226 5.51971 0
M  V30 881 H 80.9695 0.629462 2.02858 0
M  V30 882 H 83.2325 0.220621 0.921971 0
M  V30 883 H 82.9385 0.231518 3.50937 0
M  V30 884 H 82.8125 -1.51781 3.45315 0
M  V30 885 H 85.1995 -1.61999 2.46658 0
M  V30 886 H 85.2805 0.14541 2.55386 0
M  V30 887 H 84.9245 0.0146069 5.07898 0
M  V30 888 H 84.8545 -1.76172 4.96257 0
M  V30 889 H 87.3455 -0.876694 3.6759 0
M  V30 890 H 87.6585 -1.17872 7.63758 0
M  V30 891 H 86.0035 -1.06693 6.86762 0
M  V30 892 H 89.1945 -1.00382 4.5721 0
M  V30 893 H 89.3675 -1.14177 6.37862 0
M  V30 894 N 82.7736 -1.49793 -0.48987 0
M  V30 895 C 83.6836 -1.70036 -1.61632 0
M  V30 896 C 84.6996 -0.583102 -1.63939 0
M  V30 897 O 85.8756 -0.859169 -1.82154 0
M  V30 898 C 82.9406 -1.77277 -2.97949 0
M  V30 899 C 82.0016 -3.00918 -3.06181 0
M  V30 900 C 81.2346 -3.07804 -4.35996 0
M  V30 901 O 81.4576 -2.21982 -5.25433 0
M  V30 902 O 80.3916 -4.00369 -4.49431 0
M  V30 903 H 84.2176 -2.65486 -1.47482 0
M  V30 904 H 81.8026 -1.33666 -0.667362 0
M  V30 905 H 83.6846 -1.84329 -3.78947 0
M  V30 906 H 82.3596 -0.850076 -3.12339 0
M  V30 907 H 81.2666 -2.99377 -2.2433 0
M  V30 908 H 82.5996 -3.92704 -2.96723 0
M  V30 909 N 84.2517 0.741722 -1.39055 0
M  V30 910 C 85.6677 1.04638 -1.20512 0
M  V30 911 C 85.8677 2.01405 -0.0620218 0
M  V30 912 O 84.9237 2.45547 0.588457 0
M  V30 913 C 86.2367 1.6151 -2.53643 0
M  V30 914 C 87.7847 1.73623 -2.6043 0
M  V30 915 C 88.2597 2.33906 -3.93767 0
M  V30 916 N 89.7507 2.41323 -3.9537 0
M  V30 917 C 90.4857 2.88888 -4.95309 0
M  V30 918 N 89.9817 3.36401 -6.05645 0
M  V30 919 N 91.7747 2.88037 -4.82692 0
M  V30 920 H 83.9257 0.0998155 -2.12165 0
M  V30 921 H 86.1887 0.106907 -0.941953 0
M  V30 922 H 85.8947 0.978739 -3.37807 0
M  V30 923 H 85.7687 2.60411 -2.72885 0
M  V30 924 H 88.1557 2.36384 -1.76655 0
M  V30 925 H 88.2367 0.733945 -2.45045 0
M  V30 926 H 87.8807 1.71776 -4.7797 0
M  V30 927 H 87.8107 3.34799 -4.06469 0
M  V30 928 H 90.3017 2.07734 -3.15682 0
M  V30 929 H 90.6147 3.71186 -6.77821 0
M  V30 930 H 88.9597 3.34427 -6.09248 0
M  V30 931 H 92.1507 2.50237 -3.95599 0
M  V30 932 H 92.3237 3.24792 -5.60726 0
M  V30 933 N 85.7298 1.2412 0.971189 0
M  V30 934 C 86.9758 1.08041 1.71625 0
M  V30 935 C 87.3088 -0.380407 1.90438 0
M  V30 936 O 86.5838 -1.28127 1.46334 0
M  V30 937 C 86.8668 1.81682 3.10908 0
M  V30 938 C 86.7198 3.35493 2.99608 0
M  V30 939 C 88.0388 1.58671 4.10501 0
M  V30 940 H 85.1578 0.39388 0.622919 0
M  V30 941 H 87.7998 1.52743 1.13003 0
M  V30 942 H 85.9498 1.43684 3.60953 0
M  V30 943 H 87.6218 3.83068 2.57015 0
M  V30 944 H 85.8648 3.64052 2.35899 0
M  V30 945 H 86.5358 3.82217 3.98264 0
M  V30 946 H 89.0118 1.91719 3.69301 0
M  V30 947 H 87.8878 2.1266 5.06031 0
M  V30 948 H 88.1488 0.524161 4.38982 0
M  V30 949 N 87.2079 -1.17134 1.05439 0
M  V30 950 C 88.1179 -2.24878 0.668365 0
M  V30 951 C 89.1339 -1.71186 -0.311687 0
M  V30 952 O 90.3099 -2.00738 -0.163161 0
M  V30 953 C 87.3749 -3.46662 0.051648 0
M  V30 954 C 86.4359 -4.15429 1.08246 0
M  V30 955 C 85.6689 -5.31399 0.495082 0
M  V30 956 O 85.8919 -5.66153 -0.694743 0
M  V30 957 O 84.8259 -5.89187 1.23056 0
M  V30 958 H 88.6519 -2.60189 1.56637 0
M  V30 959 H 86.2369 -1.24482 0.826104 0
M  V30 960 H 88.1189 -4.20394 -0.290966 0
M  V30 961 H 86.7939 -3.13142 -0.819971 0
M  V30 962 H 85.7009 -3.43704 1.47711 0
M  V30 963 H 87.0339 -4.52982 1.92532 0
M  V30 964 N 88.686 -0.835752 -1.33615 0
M  V30 965 C 89.633 -0.26473 -2.29277 0
M  V30 966 C 90.603 0.617712 -1.54187 0
M  V30 967 O 91.788 0.556641 -1.825 0
M  V30 968 C 88.928 0.556777 -3.40579 0
M  V30 969 C 88.041 -0.349339 -4.30585 0
M  V30 970 C 87.176 0.482969 -5.29 0
M  V30 971 C 86.215 -0.421732 -6.10645 0
M  V30 972 N 85.352 0.372262 -7.01112 0
M  V30 973 H 90.192 -1.08582 -2.77514 0
M  V30 974 H 87.729 -0.546927 -1.36554 0
M  V30 975 H 89.687 1.04852 -4.03809 0
M  V30 976 H 88.317 1.34286 -2.93542 0
M  V30 977 H 87.369 -0.959372 -3.68104 0
M  V30 978 H 88.681 -1.04445 -4.87742 0
M  V30 979 H 87.835 1.03866 -5.97743 0
M  V30 980 H 86.574 1.21153 -4.72412 0
M  V30 981 H 85.579 -0.989464 -5.40823 0
M  V30 982 H 86.804 -1.14861 -6.69316 0
M  V30 983 H 84.75 1.08426 -6.46977 0
M  V30 984 H 84.667 -0.264198 -7.55538 0
M  V30 985 H 85.935 0.910293 -7.74167 0
M  V30 986 N 90.1641 1.46063 -0.591896 0
M  V30 987 C 91.0941 2.33172 0.123673 0
M  V30 988 C 92.0751 1.45897 0.87453 0
M  V30 989 O 93.2601 1.74698 0.848181 0
M  V30 990 C 90.3901 3.28336 1.13194 0
M  V30 991 C 89.3441 4.25124 0.495324 0
M  V30 992 C 88.6701 5.09863 1.61071 0
M  V30 993 C 89.9701 5.19143 -0.573425 0
M  V30 994 H 91.6641 2.93252 -0.603646 0
M  V30 995 H 89.2101 1.41014 -0.291741 0
M  V30 996 H 91.1631 3.88137 1.64097 0
M  V30 997 H 89.8871 2.66383 1.88965 0
M  V30 998 H 88.5461 3.66599 0.00729452 0
M  V30 999 H 88.1941 4.44288 2.35832 0
M  V30 1000 H 87.8941 5.75417 1.19035 0
M  V30 1001 H 89.4181 5.72529 2.12233 0
M  V30 1002 H 90.8321 5.73106 -0.1491 0
M  V30 1003 H 89.2291 5.93089 -0.914636 0
M  V30 1004 H 90.2991 4.62519 -1.45617 0
M  V30 1005 N 91.6422 0.330177 1.54103 0
M  V30 1006 C 92.5902 -0.548226 2.26047 0
M  V30 1007 C 93.5842 -1.11309 1.27698 0
M  V30 1008 O 94.7902 -1.06036 1.45452 0
M  V30 1009 H 91.1652 -0.195456 0.726155 0
M  V30 1010 H 93.1362 0.0807567 2.98291 0
M  V30 1011 C 91.8852 -1.69415 3.03634 0
M  V30 1012 H 91.2082 -1.26876 3.79134 0
M  V30 1013 H 92.6482 -2.28423 3.5721 0
M  V30 1014 C 91.1072 -2.61569 2.12328 0
M  V30 1015 O 91.6372 -3.63462 1.7105 0
M  V30 1016 N 89.8432 -2.29952 1.77681 0
M  V30 1017 H 89.3902 -1.47134 2.11446 0
M  V30 1018 H 89.3482 -2.91871 1.16869 0
M  V30 1019 N 93.1203 -1.57491 0.0584922 0
M  V30 1020 C 94.0533 -2.07533 -0.948969 0
M  V30 1021 C 95.0313 -0.977444 -1.29942 0
M  V30 1022 O 96.2153 -1.2499 -1.41102 0
M  V30 1023 C 93.3423 -2.52192 -2.2609 0
M  V30 1024 C 92.3883 -3.73287 -2.06298 0
M  V30 1025 S 93.2213 -5.18603 -1.33459 0
M  V30 1026 C 94.3773 -5.66583 -2.65959 0
M  V30 1027 H 94.6103 -2.92662 -0.523118 0
M  V30 1028 H 92.1433 -1.53631 -0.153954 0
M  V30 1029 H 94.1013 -2.78585 -3.01498 0
M  V30 1030 H 92.7623 -1.67356 -2.65802 0
M  V30 1031 H 91.9553 -4.0248 -3.03357 0
M  V30 1032 H 91.5573 -3.47199 -1.39029 0
M  V30 1033 H 93.8493 -5.72616 -3.62101 0
M  V30 1034 H 94.7923 -6.65684 -2.41393 0
M  V30 1035 H 95.2003 -4.94342 -2.72554 0
M  V30 1036 N 94.5984 0.214957 -1.56127 0
M  V30 1037 C 95.5284 1.2695 -1.95974 0
M  V30 1038 C 96.5094 1.48539 -0.828868 0
M  V30 1039 O 97.6944 1.60611 -1.09168 0
M  V30 1040 C 94.8244 2.61794 -2.28214 0
M  V30 1041 C 93.7784 2.54851 -3.43853 0
M  V30 1042 C 93.1044 3.93785 -3.61715 0
M  V30 1043 C 94.4044 2.09065 -4.78632 0
M  V30 1044 H 96.0984 0.93846 -2.84312 0
M  V30 1045 H 93.6444 0.449996 -1.36788 0
M  V30 1046 H 95.5974 3.35731 -2.54682 0
M  V30 1047 H 94.3214 2.96599 -1.36736 0
M  V30 1048 H 92.9804 1.8337 -3.17444 0
M  V30 1049 H 92.6284 4.25908 -2.67602 0
M  V30 1050 H 92.3284 3.90019 -4.39498 0
M  V30 1051 H 93.8524 4.69374 -3.90539 0
M  V30 1052 H 95.2664 2.7275 -5.04262 0
M  V30 1053 H 93.6634 2.16346 -5.59745 0
M  V30 1054 H 94.7334 1.04315 -4.73547 0
M  V30 1055 N 96.0765 1.50051 0.48192 0
M  V30 1056 C 97.3015 1.64508 1.26301 0
M  V30 1057 C 97.7265 0.323851 1.85291 0
M  V30 1058 O 97.0845 -0.710969 1.66778 0
M  V30 1059 C 97.1325 2.7305 2.35533 0
M  V30 1060 O 96.2365 2.3355 3.39895 0
M  V30 1061 H 95.5775 0.549978 0.372048 0
M  V30 1062 H 98.1075 1.9636 0.574786 0
M  V30 1063 H 98.1175 2.95799 2.8101 0
M  V30 1064 H 96.7925 3.68946 1.91967 0
M  V30 1065 H 95.3695 2.21205 3.00204 0
M  V30 1066 N 97.5546 -0.734337 1.39446 0
M  V30 1067 C 98.8036 -1.48937 1.36017 0
M  V30 1068 C 99.1166 -1.95557 -0.0409005 0
M  V30 1069 O 100.323 -2.70779 -0.19778 0
M  V30 1070 C 98.7786 -2.69125 2.38955 0
M  V30 1071 C 98.3866 -2.29452 3.8478 0
M  V30 1072 C 100.131 -3.46944 2.44603 0
M  V30 1073 C 98.0376 -3.46366 4.79358 0
M  V30 1074 H 96.9676 -0.559296 0.505672 0
M  V30 1075 H 99.6186 -0.800983 1.65095 0
M  V30 1076 H 98.0006 -3.40041 2.02948 0
M  V30 1077 H 99.1746 -1.66077 4.29831 0
M  V30 1078 H 97.4896 -1.64723 3.82433 0
M  V30 1079 H 100.087 -4.33907 3.12456 0
M  V30 1080 H 100.43 -3.89454 1.47076 0
M  V30 1081 H 100.963 -2.83056 2.79507 0
M  V30 1082 H 97.7016 -3.08905 5.78151 0
M  V30 1083 H 97.2216 -4.08719 4.38986 0
M  V30 1084 H 98.9006 -4.12691 4.98292 0
M  V30 1085 N 99.0327 -1.24633 -0.964593 0
M  V30 1086 C 100.31 -0.995809 -1.68354 0
M  V30 1087 C 100.69 0.480964 -2.05548 0
M  V30 1088 O 100.038 1.45599 -1.76105 0
M  V30 1089 C 100.248 -1.92177 -2.91323 0
M  V30 1090 C 101.596 -2.19446 -3.63495 0
M  V30 1091 O 102.62 -1.89855 -3.01386 0
M  V30 1092 O 101.479 -2.69714 -4.75307 0
M  V30 1093 H 98.5727 -0.376854 -0.736146 0
M  V30 1094 H 101.119 -1.35745 -1.0184 0
M  V30 1095 H 99.8907 -2.91938 -2.60553 0
M  V30 1096 H 99.5137 -1.56349 -3.65569 0
M  V30 1097 N 100.511 1.16574 -1.06058 0
M  V30 1098 C 101.461 2.18854 -0.63929 0
M  V30 1099 C 102.445 1.57505 0.328798 0
M  V30 1100 O 103.637 1.76408 0.144623 0
M  V30 1101 C 100.766 3.43291 -0.0247203 0
M  V30 1102 C 99.8518 4.11722 -1.01716 0
M  V30 1103 N 100.243 4.55841 -2.19186 0
M  V30 1104 C 98.5408 4.37872 -0.847569 0
M  V30 1105 C 99.2418 5.08751 -2.82042 0
M  V30 1106 N 98.2178 5.01489 -2.09784 0
M  V30 1107 H 102.02 2.5068 -1.53417 0
M  V30 1108 H 99.5338 1.32999 -0.931935 0
M  V30 1109 H 101.531 4.15856 0.294915 0
M  V30 1110 H 100.191 3.12954 0.865448 0
M  V30 1111 H 101.202 4.49649 -2.56975 0
M  V30 1112 H 97.8788 4.17499 -0.00918848 0
M  V30 1113 H 99.2688 5.52944 -3.81709 0
M  V30 1114 N 101.989 0.842826 1.3317 0
M  V30 1115 C 102.919 0.294028 2.31641 0
M  V30 1116 C 103.9 -0.600401 1.59151 0
M  V30 1117 O 105.085 -0.523124 1.87022 0
M  V30 1118 C 102.215 -0.528416 3.43257 0
M  V30 1119 C 101.169 0.27056 4.27144 0
M  V30 1120 C 100.495 -0.675881 5.30411 0
M  V30 1121 C 101.795 1.48981 5.00602 0
M  V30 1122 H 103.489 1.11681 2.77791 0
M  V30 1123 H 101.035 0.538478 1.33553 0
M  V30 1124 H 102.988 -0.922674 4.11175 0
M  V30 1125 H 101.712 -1.38445 2.95805 0
M  V30 1126 H 100.371 0.646427 3.60856 0
M  V30 1127 H 100.019 -1.52842 4.79216 0
M  V30 1128 H 99.7189 -0.145374 5.8742 0
M  V30 1129 H 101.243 -1.06757 6.01195 0
M  V30 1130 H 102.657 1.16849 5.61266 0
M  V30 1131 H 101.054 1.95739 5.6728 0
M  V30 1132 H 102.124 2.25746 4.29147 0
M  V30 1133 N 103.467 -1.45747 0.599634 0
M  V30 1134 C 104.695 -2.06668 0.0978551 0
M  V30 1135 C 105.11 -1.44562 -1.21439 0
M  V30 1136 O 104.467 -0.556923 -1.73795 0
M  V30 1137 C 104.518 -3.61456 -0.0567044 0
M  V30 1138 O 104.239 -4.21242 1.20361 0
M  V30 1139 C 105.74 -4.39345 -0.590869 0
M  V30 1140 H 102.96 -0.667825 0.0651943 0
M  V30 1141 H 105.504 -1.87115 0.82511 0
M  V30 1142 H 103.659 -3.80378 -0.734251 0
M  V30 1143 H 104.073 -5.14323 1.02821 0
M  V30 1144 H 105.547 -5.48182 -0.648131 0
M  V30 1145 H 106.024 -4.08568 -1.61147 0
M  V30 1146 H 106.63 -4.25268 0.0523679 0
M  V30 1147 N 104.945 -0.338344 -1.53925 0
M  V30 1148 C 106.222 0.314774 -1.93051 0
M  V30 1149 C 106.602 1.68669 -1.26941 0
M  V30 1150 O 105.95 2.24636 -0.418445 0
M  V30 1151 C 106.16 0.392249 -3.46789 0
M  V30 1152 C 107.508 0.645554 -4.19664 0
M  V30 1153 O 108.532 0.474575 -3.53024 0
M  V30 1154 O 107.391 0.976408 -5.37707 0
M  V30 1155 H 104.485 0.182598 -0.80659 0
M  V30 1156 H 107.031 -0.389141 -1.65178 0
M  V30 1157 H 105.803 -0.570702 -3.87116 0
M  V30 1158 H 105.426 1.14316 -3.80812 0
M  V30 1159 N 106.423 1.57458 -0.0668435 0
M  V30 1160 C 107.373 2.0896 0.912119 0
M  V30 1161 C 108.357 0.998186 1.26195 0
M  V30 1162 O 109.549 1.26133 1.24175 0
M  V30 1163 C 106.678 2.6508 2.18145 0
M  V30 1164 C 105.764 3.81218 1.85832 0
M  V30 1165 N 106.155 4.90378 1.23948 0
M  V30 1166 C 104.453 3.9042 2.15612 0
M  V30 1167 C 105.154 5.71279 1.09616 0
M  V30 1168 N 104.13 5.19389 1.60423 0
M  V30 1169 H 107.932 2.90749 0.42924 0
M  V30 1170 H 105.446 1.6182 0.137184 0
M  V30 1171 H 107.443 3.0029 2.89192 0
M  V30 1172 H 106.103 1.84736 2.67025 0
M  V30 1173 H 107.114 5.09847 0.909731 0
M  V30 1174 H 103.791 3.21043 2.66903 0
M  V30 1175 H 105.181 6.69085 0.614425 0
M  V30 1176 N 107.901 -0.206675 1.56239 0
M  V30 1177 C 108.848 -1.25617 1.93621 0
M  V30 1178 C 109.818 -1.45824 0.795274 0
M  V30 1179 O 111.003 -1.59148 1.05245 0
M  V30 1180 C 108.143 -2.59839 2.27107 0
M  V30 1181 C 107.256 -2.47308 3.54207 0
M  V30 1182 C 106.391 -3.74155 3.7707 0
M  V30 1183 C 105.43 -3.56407 4.97635 0
M  V30 1184 N 104.567 -4.75238 5.1681 0
M  V30 1185 H 109.407 -0.930383 2.83104 0
M  V30 1186 H 106.944 -0.448065 1.4011 0
M  V30 1187 H 108.902 -3.38021 2.44535 0
M  V30 1188 H 107.532 -2.90485 1.40778 0
M  V30 1189 H 106.584 -1.60483 3.4489 0
M  V30 1190 H 107.896 -2.30122 4.42544 0
M  V30 1191 H 107.05 -4.60778 3.94675 0
M  V30 1192 H 105.789 -3.94282 2.87042 0
M  V30 1193 H 104.794 -2.68168 4.79964 0
M  V30 1194 H 106.019 -3.37736 5.89161 0
M  V30 1195 H 103.965 -4.95651 4.29728 0
M  V30 1196 H 103.882 -4.60835 5.99306 0
M  V30 1197 H 105.15 -5.63246 5.38864 0
M  V30 1198 N 109.379 -1.50304 -0.473955 0
M  V30 1199 C 110.604 -1.65175 -1.25427 0
M  V30 1200 C 111.029 -0.333673 -1.85117 0
M  V30 1201 O 110.387 0.702114 -1.67153 0
M  V30 1202 C 110.435 -2.74295 -2.34082 0
M  V30 1203 O 109.539 -2.35349 -3.38651 0
M  V30 1204 H 108.88 -0.551944 -0.369126 0
M  V30 1205 H 111.41 -1.96662 -0.564364 0
M  V30 1206 H 111.42 -2.97285 -2.79438 0
M  V30 1207 H 110.095 -3.69959 -1.90008 0
M  V30 1208 H 108.672 -2.22794 -2.99027 0
M  V30 1209 N 110.857 0.726932 -1.39834 0
M  V30 1210 C 111.789 1.85147 -1.35104 0
M  V30 1211 C 112.802 1.60736 -0.258392 0
M  V30 1212 O 113.991 1.70821 -0.517931 0
M  V30 1213 C 111.091 3.21332 -1.07697 0
M  V30 1214 C 110.264 3.73033 -2.28396 0
M  V30 1215 C 109.323 4.87802 -1.97322 0
M  V30 1216 O 108.349 5.01043 -2.70083 0
M  V30 1217 N 109.551 5.72768 -0.944273 0
M  V30 1218 H 112.316 1.89706 -2.32017 0
M  V30 1219 H 109.877 0.908006 -1.3404 0
M  V30 1220 H 111.869 3.95691 -0.849144 0
M  V30 1221 H 110.439 3.11992 -0.194909 0
M  V30 1222 H 109.659 2.89934 -2.6708 0
M  V30 1223 H 110.947 4.0431 -3.08887 0
M  V30 1224 H 110.345 5.64669 -0.341427 0
M  V30 1225 H 108.902 6.4716 -0.776346 0
M  V30 1226 N 112.336 1.25143 0.95797 0
M  V30 1227 C 113.752 1.01892 1.22842 0
M  V30 1228 C 113.952 -0.266311 1.99732 0
M  V30 1229 O 113.008 -0.979913 2.3271 0
M  V30 1230 C 114.321 2.24004 2.00606 0
M  V30 1231 C 115.869 2.28731 2.13662 0
M  V30 1232 C 116.344 3.5049 2.94823 0
M  V30 1233 N 117.835 3.50866 3.02403 0
M  V30 1234 C 118.57 4.4174 3.65586 0
M  V30 1235 N 118.066 5.42882 4.30408 0
M  V30 1236 N 119.859 4.29429 3.62694 0
M  V30 1237 H 112.01 2.07718 0.443493 0
M  V30 1238 H 114.273 0.912031 0.258657 0
M  V30 1239 H 113.979 3.17395 1.51503 0
M  V30 1240 H 113.853 2.26907 3.01319 0
M  V30 1241 H 116.24 1.35865 2.61963 0
M  V30 1242 H 116.321 2.29848 1.12265 0
M  V30 1243 H 115.965 4.43676 2.47213 0
M  V30 1244 H 115.895 3.46617 3.96439 0
M  V30 1245 H 118.386 2.777 2.56302 0
M  V30 1246 H 118.699 6.0844 4.76467 0
M  V30 1247 H 117.044 5.46758 4.29047 0
M  V30 1248 H 120.235 3.49643 3.11236 0
M  V30 1249 H 120.408 5.00448 4.1165 0
M  V30 1250 N 113.814 -1.1601 1.06675 0
M  V30 1251 C 114.744 -2.22688 0.702307 0
M  V30 1252 C 115.725 -1.67306 -0.307032 0
M  V30 1253 O 116.91 -1.93352 -0.181305 0
M  V30 1254 C 114.04 -3.47178 0.092038 0
M  V30 1255 C 112.994 -4.15477 1.02777 0
M  V30 1256 C 112.32 -5.33963 0.28061 0
M  V30 1257 C 113.62 -4.66019 2.35846 0
M  V30 1258 H 115.314 -2.53429 1.59419 0
M  V30 1259 H 112.86 -1.21813 0.767961 0
M  V30 1260 H 114.813 -4.21037 -0.174814 0
M  V30 1261 H 113.537 -3.15749 -0.834877 0
M  V30 1262 H 112.196 -3.43549 1.27944 0
M  V30 1263 H 111.844 -4.98788 -0.649545 0
M  V30 1264 H 111.544 -5.806 0.904258 0
M  V30 1265 H 113.068 -6.10596 0.021396 0
M  V30 1266 H 114.482 -5.3144 2.15045 0
M  V30 1267 H 112.879 -5.23293 2.93743 0
M  V30 1268 H 113.949 -3.82023 2.98641 0
M  V30 1269 N 115.292 -0.849877 -1.32721 0
M  V30 1270 C 116.255 -0.296122 -2.27279 0
M  V30 1271 C 117.255 0.541458 -1.5141 0
M  V30 1272 O 118.445 0.353658 -1.70572 0
M  V30 1273 C 115.577 0.581579 -3.35902 0
M  V30 1274 H 116.77 -1.13064 -2.77771 0
M  V30 1275 H 114.323 -0.62383 -1.43311 0
M  V30 1276 H 115.058 1.43809 -2.9067 0
M  V30 1277 H 114.843 -0.0178814 -3.92096 0
M  V30 1278 H 116.333 0.961951 -4.0637 0
M  V30 1279 N 116.77 1.45427 -0.607355 0
M  V30 1280 C 118.186 1.57283 -0.270985 0
M  V30 1281 C 118.386 1.59875 1.22647 0
M  V30 1282 O 117.442 1.52893 2.00948 0
M  V30 1283 C 118.755 2.85566 -0.941952 0
M  V30 1284 C 120.303 2.9924 -0.917849 0
M  V30 1285 C 120.778 4.30293 -1.56882 0
M  V30 1286 N 122.269 4.37051 -1.5343 0
M  V30 1287 C 123.004 5.37123 -2.00715 0
M  V30 1288 N 122.5 6.43734 -2.56084 0
M  V30 1289 N 124.293 5.28479 -1.91484 0
M  V30 1290 H 116.444 1.41988 -1.57966 0
M  V30 1291 H 118.707 0.67885 -0.661715 0
M  V30 1292 H 118.413 2.8955 -1.99633 0
M  V30 1293 H 118.287 3.74322 -0.465096 0
M  V30 1294 H 120.674 2.94822 0.127984 0
M  V30 1295 H 120.755 2.11895 -1.43297 0
M  V30 1296 H 120.399 4.35469 -2.61398 0
M  V30 1297 H 120.329 5.16454 -1.02873 0
M  V30 1298 H 122.82 3.60615 -1.12982 0
M  V30 1299 H 123.133 7.16341 -2.89958 0
M  V30 1300 H 121.478 6.44485 -2.60122 0
M  V30 1301 H 124.669 4.44098 -1.47967 0
M  V30 1302 H 124.842 6.0632 -2.28648 0
M  V30 1303 N 118.248 0.346503 1.53744 0
M  V30 1304 C 119.178 -0.501193 2.28058 0
M  V30 1305 C 120.159 -1.10014 1.29734 0
M  V30 1306 O 121.344 -1.12097 1.58581 0
M  V30 1307 C 118.474 -1.65078 3.05559 0
M  V30 1308 C 117.428 -1.18003 4.11411 0
M  V30 1309 C 116.754 -2.41837 4.76884 0
M  V30 1310 C 118.054 -0.278394 5.21558 0
M  V30 1311 H 119.748 0.11875 2.99164 0
M  V30 1312 H 117.294 0.0585531 1.43881 0
M  V30 1313 H 119.247 -2.25028 3.56287 0
M  V30 1314 H 117.971 -2.29767 2.32109 0
M  V30 1315 H 116.63 -0.603331 3.61601 0
M  V30 1316 H 116.278 -3.0494 4.00026 0
M  V30 1317 H 115.978 -2.1102 5.48402 0
M  V30 1318 H 117.502 -3.02508 5.30397 0
M  V30 1319 H 118.916 -0.784823 5.67903 0
M  V30 1320 H 117.313 -0.0619707 6.00068 0
M  V30 1321 H 118.383 0.684677 4.80042 0
M  V30 1322 N 119.726 -1.57421 0.075193 0
M  V30 1323 C 120.972 -1.93905 -0.594025 0
M  V30 1324 C 121.305 -0.955701 -1.69056 0
M  V30 1325 O 120.58 0.0145373 -1.94495 0
M  V30 1326 C 120.863 -3.40638 -1.1678 0
M  V30 1327 C 120.716 -4.49733 -0.0776792 0
M  V30 1328 C 122.035 -3.88259 -2.07228 0
M  V30 1329 H 119.154 -0.705105 -0.214466 0
M  V30 1330 H 121.796 -1.8947 0.141854 0
M  V30 1331 H 119.946 -3.44549 -1.79494 0
M  V30 1332 H 121.618 -4.57942 0.555573 0
M  V30 1333 H 119.861 -4.29751 0.591286 0
M  V30 1334 H 120.532 -5.49549 -0.519603 0
M  V30 1335 H 123.008 -3.86376 -1.54445 0
M  V30 1336 H 121.884 -4.91533 -2.44308 0
M  V30 1337 H 122.145 -3.26396 -2.98191 0
M  V30 1338 N 121.204 0.198386 -1.56346 0
M  V30 1339 C 122.134 1.24865 -1.9731 0
M  V30 1340 C 123.115 1.47651 -0.844576 0
M  V30 1341 O 124.3 1.59444 -1.10866 0
M  V30 1342 C 121.43 2.59358 -2.30977 0
M  V30 1343 C 120.384 2.5119 -3.46537 0
M  V30 1344 C 119.71 3.89926 -3.65871 0
M  V30 1345 C 121.01 2.03977 -4.80823 0
M  V30 1346 H 122.704 0.908252 -2.85291 0
M  V30 1347 H 120.25 0.435462 -1.37258 0
M  V30 1348 H 122.203 3.33011 -2.58228 0
M  V30 1349 H 120.927 2.95132 -1.39874 0
M  V30 1350 H 119.586 1.79993 -3.19371 0
M  V30 1351 H 119.234 4.23046 -2.72105 0
M  V30 1352 H 118.934 3.85336 -4.4361 0
M  V30 1353 H 120.458 4.65205 -3.95495 0
M  V30 1354 H 121.872 2.67386 -5.07127 0
M  V30 1355 H 120.269 2.10397 -5.62008 0
M  V30 1356 H 121.339 0.992861 -4.74626 0
M  V30 1357 N 122.682 1.50554 0.465978 0
M  V30 1358 C 123.93 1.61479 1.21528 0
M  V30 1359 C 124.251 0.319596 1.92363 0
M  V30 1360 O 123.521 -0.663194 1.84333 0
M  V30 1361 H 122.101 0.595055 0.451573 0
M  V30 1362 H 124.763 1.87355 0.53704 0
M  V30 1363 H 123.859 2.42846 1.96042 0
M  V30 1364 N 124.16 -0.719506 1.40217 0
M  V30 1365 C 125.4 -1.49181 1.39729 0
M  V30 1366 C 125.764 -1.92 -0.00250614 0
M  V30 1367 O 126.965 -2.68473 -0.132479 0
M  V30 1368 C 125.236 -2.68767 2.35582 0
M  V30 1369 S 126.795 -3.58224 2.53418 0
M  V30 1370 H 123.613 -0.510091 0.495307 0
M  V30 1371 H 126.215 -0.841724 1.76452 0
M  V30 1372 H 124.919 -2.35475 3.36124 0
M  V30 1373 H 124.45 -3.38691 2.0013 0
M  V30 1374 H 126.465 -4.63033 1.78367 0
M  V30 1375 N 125.638 -1.25649 -0.95132 0
M  V30 1376 C 126.887 -1.09988 -1.69073 0
M  V30 1377 C 127.2 0.358355 -1.92289 0
M  V30 1378 O 128.406 0.635466 -2.63958 0
M  V30 1379 C 126.862 -1.92012 -3.044 0
M  V30 1380 C 126.47 -3.42347 -2.88968 0
M  V30 1381 C 128.214 -1.8493 -3.82101 0
M  V30 1382 C 126.121 -4.16655 -4.19705 0
M  V30 1383 H 125.051 -0.407993 -0.63408 0
M  V30 1384 H 127.702 -1.49873 -1.05879 0
M  V30 1385 H 126.084 -1.44952 -3.68517 0
M  V30 1386 H 127.258 -3.97104 -2.33762 0
M  V30 1387 H 125.573 -3.50557 -2.24719 0
M  V30 1388 H 128.17 -2.37739 -4.78941 0
M  V30 1389 H 128.513 -0.817883 -4.08187 0
M  V30 1390 H 129.046 -2.29758 -3.2474 0
M  V30 1391 H 125.785 -5.20224 -3.98807 0
M  V30 1392 H 125.305 -3.66681 -4.74663 0
M  V30 1393 H 126.984 -4.24551 -4.88227 0
M  V30 1394 N 127.117 1.15442 -1.07289 0
M  V30 1395 C 128.345 1.90096 -0.81676 0
M  V30 1396 C 128.76 1.7798 0.629966 0
M  V30 1397 O 128.117 1.1313 1.43206 0
M  V30 1398 C 128.168 3.40466 -1.21512 0
M  V30 1399 O 127.889 3.52232 -2.60508 0
M  V30 1400 C 129.39 4.32145 -0.988198 0
M  V30 1401 H 126.61 0.602495 -0.295366 0
M  V30 1402 H 129.154 1.4627 -1.42918 0
M  V30 1403 H 127.309 3.81958 -0.647039 0
M  V30 1404 H 127.723 4.45549 -2.76742 0
M  V30 1405 H 129.197 5.36072 -1.31645 0
M  V30 1406 H 129.674 4.39135 0.0755063 0
M  V30 1407 H 130.28 3.96395 -1.54115 0
M  V30 1408 N 128.595 0.856903 1.32268 0
M  V30 1409 C 129.528 0.247937 2.26849 0
M  V30 1410 C 130.506 -0.615382 1.50505 0
M  V30 1411 O 131.69 -0.571689 1.79622 0
M  V30 1412 C 128.817 -0.650093 3.32403 0
M  V30 1413 C 127.863 0.140138 4.2627 0
M  V30 1414 S 128.696 1.51004 5.13769 0
M  V30 1415 C 129.852 0.61778 6.22844 0
M  V30 1416 H 130.085 1.04971 2.78152 0
M  V30 1417 H 127.618 0.654665 1.39834 0
M  V30 1418 H 129.576 -1.16256 3.93694 0
M  V30 1419 H 128.237 -1.4257 2.7988 0
M  V30 1420 H 127.43 -0.543945 5.01056 0
M  V30 1421 H 127.032 0.584267 3.69408 0
M  V30 1422 H 129.324 -0.177053 6.77269 0
M  V30 1423 H 130.267 1.33636 6.95375 0
M  V30 1424 H 130.675 0.191124 5.64176 0
M  V30 1425 N 130.073 -1.45103 0.615059 0
M  V30 1426 C 131.036 -2.29025 -0.0895485 0
M  V30 1427 C 132.036 -1.40174 -0.787906 0
M  V30 1428 O 133.226 -1.62217 -0.634933 0
M  V30 1429 C 130.358 -3.21376 -1.13711 0
M  V30 1430 H 131.551 -2.92807 0.648382 0
M  V30 1431 H 129.104 -1.51749 0.374444 0
M  V30 1432 H 129.839 -2.6241 -1.90556 0
M  V30 1433 H 129.624 -3.86834 -0.640475 0
M  V30 1434 H 131.114 -3.84459 -1.63036 0
M  V30 1435 N 131.551 -0.354651 -1.53558 0
M  V30 1436 C 132.781 0.239167 -2.05211 0
M  V30 1437 C 133.189 1.43879 -1.22863 0
M  V30 1438 O 132.532 1.81857 -0.259565 0
M  V30 1439 C 132.594 0.707251 -3.52474 0
M  V30 1440 C 132.258 -0.374212 -4.55465 0
M  V30 1441 C 133.255 -1.22054 -5.0537 0
M  V30 1442 C 130.94 -0.531323 -4.99482 0
M  V30 1443 C 132.934 -2.20942 -5.97882 0
M  V30 1444 C 130.621 -1.52358 -5.91802 0
M  V30 1445 C 131.619 -2.36108 -6.40892 0
M  V30 1446 O 131.307 -3.33643 -7.31394 0
M  V30 1447 H 131.039 0.0479716 -0.674296 0
M  V30 1448 H 133.593 -0.508121 -1.99016 0
M  V30 1449 H 131.823 1.50596 -3.56171 0
M  V30 1450 H 133.512 1.22285 -3.87042 0
M  V30 1451 H 134.278 -1.1103 -4.7212 0
M  V30 1452 H 130.157 0.110738 -4.60867 0
M  V30 1453 H 133.701 -2.86348 -6.36121 0
M  V30 1454 H 129.598 -1.63434 -6.24467 0
M  V30 1455 H 130.366 -3.29244 -7.4936 0
M  V30 1456 N 133.029 1.57378 -0.0835403 0
M  V30 1457 C 134.275 1.94217 0.583733 0
M  V30 1458 C 134.608 0.964653 1.68547 0
M  V30 1459 O 133.883 -0.00422258 1.945 0
M  V30 1460 C 134.166 3.41253 1.14972 0
M  V30 1461 C 134.019 4.49768 0.0538277 0
M  V30 1462 C 135.338 3.89352 2.05166 0
M  V30 1463 H 132.457 0.706233 0.210724 0
M  V30 1464 H 135.099 1.89392 -0.1519 0
M  V30 1465 H 133.249 3.45496 1.77665 0
M  V30 1466 H 134.921 4.57641 -0.579851 0
M  V30 1467 H 133.164 4.29432 -0.614068 0
M  V30 1468 H 133.835 5.49817 0.490452 0
M  V30 1469 H 136.311 3.87189 1.52393 0
M  V30 1470 H 135.187 4.92822 2.41698 0
M  V30 1471 H 135.448 3.27973 2.96456 0
M  V30 1472 N 134.507 -0.190092 1.56449 0
M  V30 1473 C 135.753 -0.906472 1.82084 0
M  V30 1474 C 136.108 -1.80677 0.661335 0
M  V30 1475 O 135.401 -1.88501 -0.343237 0
M  V30 1476 C 135.595 -1.75382 3.1141 0
M  V30 1477 C 135.424 -0.937053 4.39829 0
M  V30 1478 C 134.194 -0.619507 5.01488 0
M  V30 1479 C 136.392 -0.2874 5.13496 0
M  V30 1480 N 134.374 0.215367 6.13522 0
M  V30 1481 C 135.745 0.409454 6.18646 0
M  V30 1482 C 137.8 -0.203639 4.97483 0
M  V30 1483 C 136.503 1.1821 7.0952 0
M  V30 1484 C 138.529 0.555622 5.88784 0
M  V30 1485 C 137.891 1.24091 6.93384 0
M  V30 1486 H 133.99 -0.310931 0.717528 0
M  V30 1487 H 136.574 -0.174821 1.93914 0
M  V30 1488 H 134.745 -2.45703 3.00806 0
M  V30 1489 H 136.477 -2.41006 3.25112 0
M  V30 1490 H 133.232 -0.945126 4.64074 0
M  V30 1491 H 133.656 0.622562 6.74131 0
M  V30 1492 H 138.298 -0.719099 4.1664 0
M  V30 1493 H 136.016 1.70897 7.89823 0
M  V30 1494 H 139.602 0.621854 5.78467 0
M  V30 1495 H 138.482 1.81901 7.62812 0
M  V30 1496 N 135.985 -1.50799 -0.457987 0
M  V30 1497 C 137.233 -1.62121 -1.2067 0
M  V30 1498 C 137.554 -0.329793 -1.92191 0
M  V30 1499 O 136.824 0.653409 -1.84682 0
M  V30 1500 H 135.404 -0.597441 -0.448411 0
M  V30 1501 H 138.066 -1.87637 -0.527096 0
M  V30 1502 H 137.162 -2.43882 -1.94751 0
M  V30 1503 N 137.463 0.71206 -1.40597 0
M  V30 1504 C 138.41 1.82613 -1.41142 0
M  V30 1505 C 139.38 1.63925 -0.267903 0
M  V30 1506 O 140.565 1.85009 -0.466495 0
M  V30 1507 C 137.705 3.20354 -1.28324 0
M  V30 1508 C 136.818 3.50589 -2.52411 0
M  V30 1509 C 135.953 4.77855 -2.32009 0
M  V30 1510 C 134.992 5.01005 -3.51654 0
M  V30 1511 N 134.129 6.19487 -3.30425 0
M  V30 1512 H 138.969 1.81482 -2.36365 0
M  V30 1513 H 136.506 0.886475 -1.17388 0
M  V30 1514 H 138.464 3.99899 -1.18899 0
M  V30 1515 H 137.094 3.20705 -0.367189 0
M  V30 1516 H 136.146 2.65573 -2.72351 0
M  V30 1517 H 137.458 3.63604 -3.41458 0
M  V30 1518 H 136.612 5.65424 -2.19956 0
M  V30 1519 H 135.351 4.67056 -1.40392 0
M  V30 1520 H 134.356 4.1189 -3.64179 0
M  V30 1521 H 135.581 5.13674 -4.44202 0
M  V30 1522 H 133.527 6.09932 -2.41494 0
M  V30 1523 H 133.444 6.33194 -4.13039 0
M  V30 1524 H 134.712 7.09834 -3.22113 0
M  V30 1525 N 138.941 1.26152 0.944643 0
M  V30 1526 C 140.189 1.11271 1.6871 0
M  V30 1527 C 140.51 -0.345166 1.91921 0
M  V30 1528 O 139.78 -1.24387 1.51343 0
M  V30 1529 H 138.36 0.408783 0.625224 0
M  V30 1530 H 141.022 1.58427 1.1352 0
M  V30 1531 H 140.118 1.62879 2.66227 0
M  V30 1532 N 140.419 -1.14872 1.07899 0
M  V30 1533 C 141.369 -2.17809 0.674027 0
M  V30 1534 C 142.353 -1.58008 -0.303699 0
M  V30 1535 O 143.545 -1.76616 -0.11654 0
M  V30 1536 C 140.674 -3.43208 0.0793318 0
M  V30 1537 C 139.76 -4.10051 1.08253 0
M  V30 1538 N 140.151 -4.52296 2.2641 0
M  V30 1539 C 138.449 -4.36469 0.917124 0
M  V30 1540 C 139.15 -5.04199 2.901 0
M  V30 1541 N 138.126 -4.98088 2.17736 0
M  V30 1542 H 141.928 -2.48207 1.57386 0
M  V30 1543 H 139.442 -1.315 0.952976 0
M  V30 1544 H 141.439 -4.16272 -0.228719 0
M  V30 1545 H 140.099 -3.14291 -0.815551 0
M  V30 1546 H 141.11 -4.45504 2.64096 0
M  V30 1547 H 137.787 -4.17432 0.0756078 0
M  V30 1548 H 139.177 -5.46802 3.90458 0
M  V30 1549 N 141.898 -0.863906 -1.31812 0
M  V30 1550 C 143.146 -0.470904 -1.96537 0
M  V30 1551 C 143.467 0.978771 -1.68657 0
M  V30 1552 O 142.737 1.6853 -0.998717 0
M  V30 1553 H 141.317 -0.171148 -0.72713 0
M  V30 1554 H 143.979 -1.10236 -1.60729 0
M  V30 1555 H 143.075 -0.623616 -3.05806 0
M  V30 1556 N 143.376 1.44774 -0.622745 0
M  V30 1557 C 144.653 1.95522 -0.0551974 0
M  V30 1558 C 145.033 1.5649 1.41683 0
M  V30 1559 O 144.381 0.834848 2.12703 0
M  V30 1560 C 144.591 3.4796 -0.269242 0
M  V30 1561 C 145.939 4.24306 -0.158014 0
M  V30 1562 O 146.963 3.55637 -0.200162 0
M  V30 1563 O 145.822 5.46471 -0.0558693 0
M  V30 1564 H 142.916 0.826556 0.0271015 0
M  V30 1565 H 145.462 1.54866 -0.693864 0
M  V30 1566 H 144.234 3.6939 -1.29099 0
M  V30 1567 H 143.857 3.95543 0.403966 0
M  V30 1568 N 144.854 0.36279 1.53368 0
M  V30 1569 C 146.1 -0.228113 2.01513 0
M  V30 1570 C 146.433 -1.48648 1.2497 0
M  V30 1571 O 145.708 -1.91459 0.342616 0
M  V30 1572 C 145.991 -0.522884 3.56284 0
M  V30 1573 C 145.844 0.74892 4.43521 0
M  V30 1574 C 147.163 -1.32461 4.19693 0
M  V30 1575 H 144.282 -0.0814343 0.732487 0
M  V30 1576 H 146.924 0.48713 1.83649 0
M  V30 1577 H 145.074 -1.1322 3.71636 0
M  V30 1578 H 146.746 1.38648 4.39971 0
M  V30 1579 H 144.989 1.36986 4.11603 0
M  V30 1580 H 145.66 0.497667 5.49752 0
M  V30 1581 H 148.136 -0.809203 4.08156 0
M  V30 1582 H 147.012 -1.49961 5.28018 0
M  V30 1583 H 147.273 -2.33232 3.75573 0
M  V30 1584 N 146.332 -1.57332 0.0918853 0
M  V30 1585 C 147.748 -1.57389 -0.264766 0
M  V30 1586 C 147.948 -1.10281 -1.68643 0
M  V30 1587 O 147.004 -0.777801 -2.40222 0
M  V30 1588 C 148.317 -3.00648 -0.0561195 0
M  V30 1589 C 149.865 -3.12754 -0.124116 0
M  V30 1590 C 150.34 -4.57965 0.0564972 0
M  V30 1591 N 151.831 -4.632 0.00155611 0
M  V30 1592 C 152.566 -5.73281 0.116598 0
M  V30 1593 N 152.062 -6.92208 0.286294 0
M  V30 1594 N 153.855 -5.6207 0.0580973 0
M  V30 1595 H 146.006 -1.86262 1.02079 0
M  V30 1596 H 148.269 -0.859579 0.399786 0
M  V30 1597 H 147.975 -3.393 0.925669 0
M  V30 1598 H 147.849 -3.68623 -0.799823 0
M  V30 1599 H 150.236 -2.73976 -1.09641 0
M  V30 1600 H 150.317 -2.47377 0.651024 0
M  V30 1601 H 149.961 -4.97436 1.02564 0
M  V30 1602 H 149.891 -5.21399 -0.738297 0
M  V30 1603 H 152.382 -3.77686 -0.127192 0
M  V30 1604 H 152.695 -7.71934 0.365676 0
M  V30 1605 H 151.04 -6.94254 0.32192 0
M  V30 1606 H 154.231 -4.68043 -0.0733204 0
M  V30 1607 H 154.404 -6.47824 0.151203 0
M  V30 1608 N 147.81 0.181792 -1.56548 0
M  V30 1609 C 148.757 1.22521 -1.95595 0
M  V30 1610 C 149.727 1.4454 -0.818373 0
M  V30 1611 O 150.912 1.57454 -1.07763 0
M  V30 1612 C 148.052 2.56193 -2.31212 0
M  V30 1613 C 147.165 2.41641 -3.58097 0
M  V30 1614 C 146.3 3.68108 -3.82975 0
M  V30 1615 C 145.339 3.48445 -5.03242 0
M  V30 1616 N 144.476 4.66956 -5.24306 0
M  V30 1617 H 149.316 0.885226 -2.84548 0
M  V30 1618 H 146.853 0.425718 -1.40805 0
M  V30 1619 H 148.811 3.34088 -2.49882 0
M  V30 1620 H 147.441 2.88208 -1.45382 0
M  V30 1621 H 146.493 1.54976 -3.474 0
M  V30 1622 H 147.805 2.23052 -4.46149 0
M  V30 1623 H 146.959 4.54441 -4.01956 0
M  V30 1624 H 145.698 3.89666 -2.93278 0
M  V30 1625 H 144.703 2.60499 -4.8417 0
M  V30 1626 H 145.928 3.2832 -5.9446 0
M  V30 1627 H 143.874 4.88752 -4.37559 0
M  V30 1628 H 143.791 4.51242 -6.06561 0
M  V30 1629 H 145.059 5.54602 -5.47756 0
M  V30 1630 N 149.288 1.51039 0.449983 0
M  V30 1631 C 150.534 1.63322 1.20223 0
M  V30 1632 C 150.867 0.34241 1.91158 0
M  V30 1633 O 150.142 -0.657344 1.83055 0
M  V30 1634 C 150.425 2.82801 2.22925 0
M  V30 1635 C 150.278 4.21823 1.56157 0
M  V30 1636 C 151.597 2.97807 3.24035 0
M  V30 1637 H 148.716 0.594407 0.435718 0
M  V30 1638 H 151.358 1.83489 0.493136 0
M  V30 1639 H 149.508 2.65738 2.834 0
M  V30 1640 H 151.18 4.50526 0.991162 0
M  V30 1641 H 149.423 4.25105 0.864172 0
M  V30 1642 H 150.094 5.01391 2.30891 0
M  V30 1643 H 152.57 3.13497 2.73603 0
M  V30 1644 H 151.446 3.82992 3.93202 0
M  V30 1645 H 151.707 2.09328 3.89402 0
M  V30 1646 N 150.766 -0.704594 1.40972 0
M  V30 1647 C 151.696 -1.83124 1.44872 0
M  V30 1648 C 152.677 -1.67281 0.30838 0
M  V30 1649 O 153.862 -1.87149 0.518556 0
M  V30 1650 C 150.992 -3.21181 1.32136 0
M  V30 1651 C 149.946 -3.51714 2.43888 0
M  V30 1652 C 149.272 -4.89032 2.16222 0
M  V30 1653 C 150.572 -3.516 3.86232 0
M  V30 1654 H 152.266 -1.80117 2.39161 0
M  V30 1655 H 149.812 -0.865145 1.15114 0
M  V30 1656 H 151.765 -3.99702 1.33479 0
M  V30 1657 H 150.489 -3.24791 0.343279 0
M  V30 1658 H 149.148 -2.75539 2.41813 0
M  V30 1659 H 148.796 -4.89256 1.16778 0
M  V30 1660 H 148.496 -5.10426 2.911 0
M  V30 1661 H 150.02 -5.69873 2.19265 0
M  V30 1662 H 151.434 -4.2014 3.9007 0
M  V30 1663 H 149.831 -3.84523 4.60719 0
M  V30 1664 H 150.901 -2.50757 4.15029 0
M  V30 1665 N 152.244 -1.26651 -0.937939 0
M  V30 1666 C 153.655 -1.1125 -1.49934 0
M  V30 1667 C 154.006 0.306077 -1.93798 0
M  V30 1668 O 153.131 1.19792 -1.80219 0
M  V30 1669 C 153.726 -2.01339 -2.72485 0
M  V30 1670 C 152.285 -1.90074 -3.24883 0
M  V30 1671 C 151.432 -1.94498 -1.97651 0
M  V30 1672 H 154.383 -1.39693 -0.753091 0
M  V30 1673 H 154.404 -1.56319 -3.46907 0
M  V30 1674 H 153.916 -3.04577 -2.40529 0
M  V30 1675 H 152.017 -0.897827 -3.61621 0
M  V30 1676 H 152.13 -2.75778 -3.9177 0
M  V30 1677 H 150.494 -1.38591 -2.13693 0
M  V30 1678 H 151.277 -2.99372 -1.68022 0
M  V30 1679 N 153.722 1.14298 -1.08507 0
M  V30 1680 C 155.138 1.37347 -0.812901 0
M  V30 1681 C 155.338 1.93052 0.577325 0
M  V30 1682 O 154.394 2.14389 1.33393 0
M  V30 1683 C 155.707 2.33359 -1.89642 0
M  V30 1684 C 157.255 2.46996 -1.92255 0
M  V30 1685 C 157.73 3.46309 -2.99724 0
M  V30 1686 N 159.221 3.53853 -2.98902 0
M  V30 1687 C 159.956 4.3055 -3.787 0
M  V30 1688 N 159.452 5.10482 -4.6838 0
M  V30 1689 N 161.245 4.25757 -3.66998 0
M  V30 1690 H 153.396 0.764867 -1.9815 0
M  V30 1691 H 155.659 0.398966 -0.859959 0
M  V30 1692 H 155.365 1.99565 -2.89597 0
M  V30 1693 H 155.239 3.33274 -1.76659 0
M  V30 1694 H 157.626 2.80081 -0.929445 0
M  V30 1695 H 157.707 1.47039 -2.09316 0
M  V30 1696 H 157.351 3.13957 -3.99241 0
M  V30 1697 H 157.281 4.46049 -2.79907 0
M  V30 1698 H 159.772 2.96812 -2.33904 0
M  V30 1699 H 160.085 5.66284 -5.25873 0
M  V30 1700 H 158.43 5.09747 -4.72422 0
M  V30 1701 H 161.621 3.62383 -2.96304 0
M  V30 1702 H 161.794 4.85279 -4.29427 0
M  V30 1703 N 155.201 0.870884 1.31352 0
M  V30 1704 C 156.149 0.316445 2.30437 0
M  V30 1705 C 157.143 -0.568965 1.59559 0
M  V30 1706 O 158.349 -0.454964 1.74155 0
M  V30 1707 H 154.724 0.0836521 0.747333 0
M  V30 1708 H 156.695 1.16606 2.74673 0
M  V30 1709 C 155.444 -0.46635 3.44558 0
M  V30 1710 H 154.767 0.205687 3.99271 0
M  V30 1711 H 156.207 -0.819614 4.16003 0
M  V30 1712 C 154.666 -1.65797 2.9328 0
M  V30 1713 O 155.196 -2.75728 2.92125 0
M  V30 1714 N 153.402 -1.49041 2.4947 0
M  V30 1715 H 152.949 -0.59612 2.50608 0
M  V30 1716 H 152.907 -2.28911 2.15516 0
M  V30 1717 N 156.679 -1.44442 0.630414 0
M  V30 1718 C 157.928 -2.01267 0.132073 0
M  V30 1719 C 158.241 -1.50172 -1.25331 0
M  V30 1720 O 159.447 -1.9912 -1.84562 0
M  V30 1721 C 157.903 -3.59422 0.185362 0
M  V30 1722 C 157.511 -4.19514 1.57201 0
M  V30 1723 C 159.255 -4.23724 -0.256553 0
M  V30 1724 C 157.162 -5.69891 1.58045 0
M  V30 1725 H 156.092 -0.752619 0.0456092 0
M  V30 1726 H 158.743 -1.65666 0.789106 0
M  V30 1727 H 157.125 -3.92318 -0.538759 0
M  V30 1728 H 158.299 -3.98156 2.31966 0
M  V30 1729 H 156.614 -3.67496 1.95795 0
M  V30 1730 H 159.211 -5.34019 -0.269767 0
M  V30 1731 H 159.554 -3.96013 -1.28372 0
M  V30 1732 H 160.087 -3.95629 0.41505 0
M  V30 1733 H 156.826 -6.02336 2.58597 0
M  V30 1734 H 156.346 -5.93373 0.875725 0
M  V30 1735 H 158.025 -6.33515 1.31408 0
M  V30 1736 N 158.157 -0.370918 -1.53173 0
M  V30 1737 C 159.12 0.460778 -2.24521 0
M  V30 1738 C 160.12 1.00536 -1.25496 0
M  V30 1739 O 161.31 0.890266 -1.49733 0
M  V30 1740 C 158.442 1.64457 -2.98608 0
M  V30 1741 H 159.635 -0.163613 -2.99453 0
M  V30 1742 H 157.188 -0.122699 -1.55818 0
M  V30 1743 H 157.923 2.30691 -2.2793 0
M  V30 1744 H 157.708 1.26099 -3.7127 0
M  V30 1745 H 159.198 2.23384 -3.5283 0
M  V30 1746 N 159.635 1.57281 -0.100228 0
M  V30 1747 C 160.881 1.94826 0.563101 0
M  V30 1748 C 161.214 0.982475 1.67514 0
M  V30 1749 O 160.489 0.0164069 1.94493 0
M  V30 1750 C 160.772 3.42453 1.11346 0
M  V30 1751 C 160.625 4.498 0.00612081 0
M  V30 1752 C 161.944 3.91506 2.01024 0
M  V30 1753 H 159.063 0.708428 0.203221 0
M  V30 1754 H 161.705 1.8922 -0.171979 0
M  V30 1755 H 159.855 3.47361 1.7399 0
M  V30 1756 H 161.527 4.57 -0.628357 0
M  V30 1757 H 159.77 4.28756 -0.659581 0
M  V30 1758 H 160.441 5.50306 0.432109 0
M  V30 1759 H 162.917 3.88784 1.48278 0
M  V30 1760 H 161.793 4.95358 2.36457 0
M  V30 1761 H 162.054 3.31099 2.92961 0
M  V30 1762 N 161.113 -0.173488 1.56642 0
M  V30 1763 C 162.524 -0.736155 1.71574 0
M  V30 1764 C 162.875 -1.82888 0.710389 0
M  V30 1765 O 162 -2.16017 -0.1287 0
M  V30 1766 C 162.595 -1.34211 3.11083 0
M  V30 1767 C 161.154 -1.85162 3.27707 0
M  V30 1768 C 160.301 -0.729765 2.67525 0
M  V30 1769 H 163.252 0.0518786 1.58615 0
M  V30 1770 H 163.273 -2.21178 3.09613 0
M  V30 1771 H 162.785 -0.546579 3.84232 0
M  V30 1772 H 160.886 -2.67366 2.59512 0
M  V30 1773 H 160.999 -1.99855 4.35425 0
M  V30 1774 H 159.363 -1.14965 2.27278 0
M  V30 1775 H 160.146 0.0538806 3.43258 0
M  V30 1776 N 162.591 -1.51276 -0.441967 0
M  V30 1777 C 163.821 -1.67273 -1.21257 0
M  V30 1778 C 164.229 -0.367624 -1.85594 0
M  V30 1779 O 163.572 0.663349 -1.71305 0
M  V30 1780 C 163.634 -2.72807 -2.34129 0
M  V30 1781 C 163.298 -4.1554 -1.90198 0
M  V30 1782 C 164.295 -5.00471 -1.40801 0
M  V30 1783 C 161.98 -4.61616 -1.9803 0
M  V30 1784 C 163.974 -6.29536 -0.998174 0
M  V30 1785 C 161.661 -5.90679 -1.56658 0
M  V30 1786 C 162.659 -6.74466 -1.07633 0
M  V30 1787 O 162.347 -8.01116 -0.668459 0
M  V30 1788 H 162.079 -0.564614 -0.371734 0
M  V30 1789 H 164.633 -1.9843 -0.530521 0
M  V30 1790 H 162.863 -2.36954 -3.05597 0
M  V30 1791 H 164.552 -2.77729 -2.96009 0
M  V30 1792 H 165.318 -4.66079 -1.34148 0
M  V30 1793 H 161.197 -3.96526 -2.35135 0
M  V30 1794 H 164.741 -6.94885 -0.61482 0
M  V30 1795 H 160.638 -6.24586 -1.62979 0
M  V30 1796 H 161.406 -8.14633 -0.794722 0
M  V30 1797 N 164.069 0.697108 -1.41344 0
M  V30 1798 C 165.309 1.46939 -1.42085 0
M  V30 1799 C 165.673 1.9198 -0.0280397 0
M  V30 1800 O 166.874 2.6865 0.0897504 0
M  V30 1801 C 165.145 2.64985 -2.39828 0
M  V30 1802 S 166.704 3.54147 -2.59085 0
M  V30 1803 H 163.522 0.502146 -0.503359 0
M  V30 1804 H 166.124 0.813546 -1.77769 0
M  V30 1805 H 164.828 2.30098 -3.39828 0
M  V30 1806 H 164.359 3.35464 -2.05493 0
M  V30 1807 H 166.374 4.60137 -1.85711 0
M  V30 1808 N 165.547 1.27147 0.931209 0
M  V30 1809 C 166.479 1.05364 2.03546 0
M  V30 1810 C 167.492 0.0108438 1.62796 0
M  V30 1811 O 168.681 0.25202 1.76712 0
M  V30 1812 C 165.781 0.575566 3.33977 0
M  V30 1813 C 164.954 1.68985 4.03439 0
M  V30 1814 C 164.013 1.20813 5.12143 0
M  V30 1815 O 163.039 1.90712 5.363 0
M  V30 1816 N 164.241 0.0618851 5.80467 0
M  V30 1817 H 167.006 2.00454 2.22796 0
M  V30 1818 H 164.567 1.18666 1.10136 0
M  V30 1819 H 166.559 0.237264 4.04004 0
M  V30 1820 H 165.129 -0.282016 3.11325 0
M  V30 1821 H 164.349 2.19861 3.27192 0
M  V30 1822 H 165.637 2.4378 4.46597 0
M  V30 1823 H 165.035 -0.521621 5.6329 0
M  V30 1824 H 163.592 -0.217264 6.51438 0
M  V30 1825 N 167.025 -1.13721 1.09112 0
M  V30 1826 C 167.955 -2.21148 0.749385 0
M  V30 1827 C 168.936 -1.6792 -0.271475 0
M  V30 1828 O 170.121 -1.93693 -0.140251 0
M  V30 1829 C 167.251 -3.46905 0.165659 0
M  V30 1830 C 166.205 -4.13203 1.11567 0
M  V30 1831 C 165.531 -5.33248 0.393809 0
M  V30 1832 C 166.831 -4.60912 2.45678 0
M  V30 1833 H 168.525 -2.4999 1.64758 0
M  V30 1834 H 166.071 -1.20156 0.793626 0
M  V30 1835 H 168.024 -4.21313 -0.085466 0
M  V30 1836 H 166.748 -3.17449 -0.767714 0
M  V30 1837 H 165.407 -3.40758 1.35202 0
M  V30 1838 H 165.055 -5.00054 -0.543599 0
M  V30 1839 H 164.755 -5.78552 1.02721 0
M  V30 1840 H 166.279 -6.10413 0.150908 0
M  V30 1841 H 167.693 -5.26759 2.26269 0
M  V30 1842 H 166.09 -5.16944 3.04776 0
M  V30 1843 H 167.16 -3.75603 3.06677 0
M  V30 1844 N 168.503 -0.877838 -1.30888 0
M  V30 1845 C 169.728 -0.506629 -2.01117 0
M  V30 1846 C 170.153 0.895564 -1.65412 0
M  V30 1847 O 169.511 1.5923 -0.866922 0
M  V30 1848 C 169.559 -0.680223 -3.54126 0
M  V30 1849 O 168.663 0.277033 -4.11468 0
M  V30 1850 H 168.004 -0.200518 -0.633 0
M  V30 1851 H 170.534 -1.18342 -1.66902 0
M  V30 1852 H 170.544 -0.5765 -4.03907 0
M  V30 1853 H 169.219 -1.70261 -3.79452 0
M  V30 1854 H 167.796 0.127606 -3.72682 0
M  V30 1855 N 169.982 1.44106 -0.638065 0
M  V30 1856 C 170.929 2.30715 0.062701 0
M  V30 1857 C 171.899 1.43882 0.829883 0
M  V30 1858 O 173.084 1.72775 0.809532 0
M  V30 1859 C 170.224 3.29258 1.03358 0
M  V30 1860 C 169.337 4.31192 0.26409 0
M  V30 1861 C 168.472 5.16825 1.22741 0
M  V30 1862 C 167.511 6.10462 0.447475 0
M  V30 1863 N 166.648 6.8877 1.36161 0
M  V30 1864 H 171.488 2.90096 -0.681781 0
M  V30 1865 H 169.025 1.42925 -0.347988 0
M  V30 1866 H 170.983 3.84886 1.60992 0
M  V30 1867 H 169.613 2.71562 1.74511 0
M  V30 1868 H 168.665 3.77981 -0.428295 0
M  V30 1869 H 169.977 4.97619 -0.343052 0
M  V30 1870 H 169.131 5.77004 1.87487 0
M  V30 1871 H 167.87 4.50488 1.86847 0
M  V30 1872 H 166.875 5.49386 -0.213433 0
M  V30 1873 H 168.1 6.78837 -0.188968 0
M  V30 1874 H 166.046 6.25096 1.98975 0
M  V30 1875 H 165.963 7.51663 0.808656 0
M  V30 1876 H 167.231 7.53467 1.99769 0
M  V30 1877 N 171.46 0.379036 1.52974 0
M  V30 1878 C 172.407 -0.461048 2.26148 0
M  V30 1879 C 173.377 -1.06637 1.27349 0
M  V30 1880 O 174.562 -1.09633 1.56157 0
M  V30 1881 C 171.702 -1.58782 3.06402 0
M  V30 1882 C 170.815 -1.00636 4.20115 0
M  V30 1883 C 169.95 -2.10334 4.87784 0
M  V30 1884 C 168.989 -1.49724 5.93506 0
M  V30 1885 N 168.126 -2.5331 6.54812 0
M  V30 1886 H 172.966 0.169429 2.97518 0
M  V30 1887 H 170.503 0.0953806 1.4679 0
M  V30 1888 H 172.461 -2.25174 3.51215 0
M  V30 1889 H 171.091 -2.18876 2.37261 0
M  V30 1890 H 170.143 -0.232332 3.7969 0
M  V30 1891 H 171.455 -0.523343 4.96047 0
M  V30 1892 H 170.609 -2.84519 5.35849 0
M  V30 1893 H 169.348 -2.61992 4.11353 0
M  V30 1894 H 168.353 -0.740598 5.44789 0
M  V30 1895 H 169.578 -0.988732 6.71864 0
M  V30 1896 H 167.524 -3.04156 5.81227 0
M  V30 1897 H 167.441 -2.09734 7.26325 0
M  V30 1898 H 168.709 -3.27155 7.07524 0
M  V30 1899 N 172.938 -1.57226 0.108567 0
M  V30 1900 C 173.868 -2.17778 -0.84232 0
M  V30 1901 C 174.849 -1.11487 -1.2847 0
M  V30 1902 O 176.034 -1.39681 -1.34918 0
M  V30 1903 C 173.164 -2.76888 -2.09644 0
M  V30 1904 C 172.118 -3.88669 -1.79221 0
M  V30 1905 C 171.444 -4.34541 -3.11574 0
M  V30 1906 C 172.744 -5.11251 -1.06864 0
M  V30 1907 H 174.438 -2.97489 -0.337774 0
M  V30 1908 H 171.984 -1.43097 -0.161025 0
M  V30 1909 H 173.937 -3.17904 -2.76614 0
M  V30 1910 H 172.661 -1.94451 -2.62405 0
M  V30 1911 H 171.32 -3.48213 -1.14644 0
M  V30 1912 H 170.968 -3.48977 -3.62249 0
M  V30 1913 H 170.668 -5.09914 -2.91996 0
M  V30 1914 H 172.192 -4.782 -3.7968 0
M  V30 1915 H 173.606 -5.49352 -1.63968 0
M  V30 1916 H 172.003 -5.9214 -0.974178 0
M  V30 1917 H 173.073 -4.8487 -0.0536168 0
M  V30 1918 N 174.416 0.165178 -1.56732 0
M  V30 1919 C 175.326 1.22423 -2.00125 0
M  V30 1920 C 176.342 1.48084 -0.913619 0
M  V30 1921 O 177.518 1.60112 -1.22172 0
M  V30 1922 C 174.583 2.54197 -2.35764 0
M  V30 1923 C 173.644 2.36343 -3.58386 0
M  V30 1924 C 172.877 3.61834 -3.92316 0
M  V30 1925 O 173.1 4.67267 -3.27135 0
M  V30 1926 O 172.034 3.55579 -4.85641 0
M  V30 1927 H 175.86 0.885886 -2.90492 0
M  V30 1928 H 173.445 0.372518 -1.44681 0
M  V30 1929 H 175.327 3.3192 -2.59629 0
M  V30 1930 H 174.002 2.87598 -1.48557 0
M  V30 1931 H 172.909 1.56632 -3.39731 0
M  V30 1932 H 174.242 2.07865 -4.46154 0
M  V30 1933 N 175.894 1.51508 0.433938 0
M  V30 1934 C 176.824 1.76016 1.53429 0
M  V30 1935 C 177.805 0.610112 1.58782 0
M  V30 1936 O 178.99 0.853177 1.74455 0
M  V30 1937 C 176.12 1.88831 2.9148 0
M  V30 1938 C 175.074 3.04288 3.00987 0
M  V30 1939 C 174.4 3.0229 4.4105 0
M  V30 1940 C 175.7 4.44193 2.74754 0
M  V30 1941 H 177.394 2.68152 1.33171 0
M  V30 1942 H 174.94 1.29035 0.639214 0
M  V30 1943 H 176.893 2.04559 3.6842 0
M  V30 1944 H 175.617 0.933455 3.12976 0
M  V30 1945 H 174.276 2.8827 2.26486 0
M  V30 1946 H 173.924 2.04576 4.59519 0
M  V30 1947 H 173.624 3.79822 4.4834 0
M  V30 1948 H 175.148 3.20116 5.1996 0
M  V30 1949 H 176.562 4.60544 3.41426 0
M  V30 1950 H 174.959 5.23457 2.9345 0
M  V30 1951 H 176.029 4.53996 1.70339 0
M  V30 1952 N 177.372 -0.689602 1.41712 0
M  V30 1953 C 178.783 -1.26973 1.36875 0
M  V30 1954 C 179.134 -1.96124 0.054748 0
M  V30 1955 O 178.259 -1.99141 -0.84687 0
M  V30 1956 C 178.854 -2.30912 2.47922 0
M  V30 1957 C 177.413 -2.84486 2.46464 0
M  V30 1958 C 176.56 -1.58603 2.27465 0
M  V30 1959 H 179.511 -0.48396 1.51141 0
M  V30 1960 H 179.532 -3.12331 2.17323 0
M  V30 1961 H 179.044 -1.80554 3.43543 0
M  V30 1962 H 177.145 -3.39005 1.54617 0
M  V30 1963 H 177.258 -3.34511 3.42986 0
M  V30 1964 H 175.622 -1.84632 1.75451 0
M  V30 1965 H 176.405 -1.10233 3.25121 0
M  V30 1966 N 178.85 -1.27639 -0.924453 0
M  V30 1967 C 180.261 -1.12834 -1.48746 0
M  V30 1968 C 180.612 0.285505 -1.94112 0
M  V30 1969 O 179.737 1.17874 -1.81479 0
M  V30 1970 C 180.332 -2.04217 -2.70334 0
M  V30 1971 C 178.891 -1.93509 -3.22848 0
M  V30 1972 C 178.038 -1.96583 -1.95577 0
M  V30 1973 H 180.989 -1.40484 -0.738233 0
M  V30 1974 H 181.01 -1.59989 -3.4523 0
M  V30 1975 H 180.522 -3.07111 -2.37285 0
M  V30 1976 H 178.623 -0.936131 -3.60649 0
M  V30 1977 H 178.736 -2.79917 -3.88823 0
M  V30 1978 H 177.1 -1.4085 -2.12211 0
M  V30 1979 H 177.883 -3.01137 -1.64837 0
M  V30 1980 N 180.328 1.1314 -1.09713 0
M  V30 1981 C 181.577 1.83838 -0.829851 0
M  V30 1982 C 181.89 1.84599 0.646728 0
M  V30 1983 O 183.096 2.51218 1.02965 0
M  V30 1984 C 181.552 3.30069 -1.43466 0
M  V30 1985 C 181.16 3.37688 -2.94399 0
M  V30 1986 C 182.904 4.05788 -1.24645 0
M  V30 1987 C 180.811 4.78209 -3.47952 0
M  V30 1988 H 179.741 0.68877 -0.306777 0
M  V30 1989 H 182.392 1.27448 -1.3202 0
M  V30 1990 H 180.774 3.8628 -0.871996 0
M  V30 1991 H 181.948 2.91456 -3.56918 0
M  V30 1992 H 180.263 2.75436 -3.12289 0
M  V30 1993 H 182.86 5.09535 -1.62107 0
M  V30 1994 H 183.203 4.15878 -0.187357 0
M  V30 1995 H 183.736 3.55915 -1.77678 0
M  V30 1996 H 180.475 4.73311 -4.53495 0
M  V30 1997 H 179.995 5.24924 -2.90198 0
M  V30 1998 H 181.674 5.47133 -3.45332 0
M  V30 1999 N 181.806 0.884767 1.30421 0
M  V30 2000 C 182.736 0.367574 2.30589 0
M  V30 2001 C 183.717 -0.549464 1.60981 0
M  V30 2002 O 184.902 -0.46336 1.88591 0
M  V30 2003 C 182.032 -0.418944 3.44764 0
M  V30 2004 C 180.986 0.406316 4.26067 0
M  V30 2005 C 180.312 -0.506793 5.32293 0
M  V30 2006 C 181.612 1.64832 4.95608 0
M  V30 2007 H 183.306 1.20462 2.74097 0
M  V30 2008 H 180.852 0.580695 1.31772 0
M  V30 2009 H 182.805 -0.791395 4.13902 0
M  V30 2010 H 181.529 -1.28964 3.0006 0
M  V30 2011 H 180.188 0.760903 3.58617 0
M  V30 2012 H 179.836 -1.37519 4.83836 0
M  V30 2013 H 179.536 0.0415828 5.87585 0
M  V30 2014 H 181.06 -0.875764 6.04287 0
M  V30 2015 H 182.474 1.34646 5.57264 0
M  V30 2016 H 180.871 2.13688 5.60765 0
M  V30 2017 H 181.941 2.39284 4.21748 0
M  V30 2018 N 183.284 -1.43765 0.645699 0
M  V30 2019 C 184.53 -2.02197 0.156271 0
M  V30 2020 C 184.863 -1.50776 -1.22393 0
M  V30 2021 O 184.138 -0.697771 -1.81553 0
M  V30 2022 C 184.421 -3.59749 0.158872 0
M  V30 2023 C 184.274 -4.21419 1.57245 0
M  V30 2024 C 185.593 -4.37149 -0.50879 0
M  V30 2025 H 182.712 -0.734694 0.0582602 0
M  V30 2026 H 185.354 -1.71157 0.824951 0
M  V30 2027 H 183.504 -3.86325 -0.410525 0
M  V30 2028 H 185.176 -4.059 2.19186 0
M  V30 2029 H 183.419 -3.78356 2.122 0
M  V30 2030 H 184.09 -5.30482 1.52619 0
M  V30 2031 H 186.566 -4.16093 -0.024412 0
M  V30 2032 H 185.442 -5.4683 -0.476213 0
M  V30 2033 H 185.703 -4.12839 -1.58165 0
M  V30 2034 N 184.763 -0.387143 -1.52771 0
M  V30 2035 C 185.993 0.195585 -2.05672 0
M  V30 2036 C 186.401 1.41241 -1.25887 0
M  V30 2037 O 185.744 1.81265 -0.298081 0
M  V30 2038 C 185.806 0.632327 -3.53895 0
M  V30 2039 C 185.47 -0.470739 -4.54569 0
M  V30 2040 C 186.467 -1.32746 -5.02667 0
M  V30 2041 C 184.152 -0.637151 -4.98243 0
M  V30 2042 C 186.146 -2.33574 -5.93061 0
M  V30 2043 C 183.833 -1.64877 -5.88438 0
M  V30 2044 C 184.831 -2.49649 -6.35739 0
M  V30 2045 O 184.519 -3.49082 -7.24153 0
M  V30 2046 H 184.251 0.033658 -0.675162 0
M  V30 2047 H 186.805 -0.550221 -1.97893 0
M  V30 2048 H 185.035 1.43008 -3.59285 0
M  V30 2049 H 186.724 1.14048 -3.89548 0
M  V30 2050 H 187.49 -1.21019 -4.69659 0
M  V30 2051 H 183.369 0.0129567 -4.60998 0
M  V30 2052 H 186.913 -2.99777 -6.29904 0
M  V30 2053 H 182.81 -1.76643 -6.2086 0
M  V30 2054 H 183.578 -3.45065 -7.42208 0
M  V30 2055 N 186.241 1.57166 -0.116904 0
M  V30 2056 C 187.204 2.14039 0.819742 0
M  V30 2057 C 188.204 1.07477 1.19605 0
M  V30 2058 O 189.394 1.33263 1.1219 0
M  V30 2059 C 186.526 2.67891 2.10826 0
M  V30 2060 H 187.719 2.98128 0.325511 0
M  V30 2061 H 185.272 1.55739 0.132312 0
M  V30 2062 H 186.007 1.87384 2.64685 0
M  V30 2063 H 185.792 3.45823 1.84793 0
M  V30 2064 H 187.282 3.11809 2.77785 0
M  V30 2065 N 187.719 -0.156864 1.56817 0
M  V30 2066 C 188.996 -0.899244 1.73704 0
M  V30 2067 C 189.376 -1.99771 0.682254 0
M  V30 2068 O 188.724 -2.26515 -0.300522 0
M  V30 2069 C 188.934 -1.45075 3.17418 0
M  V30 2070 C 190.282 -1.91802 3.7881 0
M  V30 2071 O 191.306 -1.54838 3.20786 0
M  V30 2072 O 190.165 -2.5994 4.80722 0
M  V30 2073 H 187.259 -0.424267 0.709878 0
M  V30 2074 H 189.805 -0.143561 1.69092 0
M  V30 2075 H 188.577 -0.660846 3.85679 0
M  V30 2076 H 188.2 -2.27021 3.26416 0
M  V30 2077 N 189.197 -1.51736 -0.425897 0
M  V30 2078 C 190.437 -1.66636 -1.18371 0
M  V30 2079 C 190.801 -0.379854 -1.88205 0
M  V30 2080 O 192.002 -0.404758 -2.65735 0
M  V30 2081 C 190.273 -2.84382 -2.16476 0
M  V30 2082 S 191.832 -3.19673 -3.0059 0
M  V30 2083 H 188.65 -0.586957 -0.40125 0
M  V30 2084 H 191.252 -1.89679 -0.473518 0
M  V30 2085 H 189.956 -3.76281 -1.63831 0
M  V30 2086 H 189.487 -2.63562 -2.92059 0
M  V30 2087 H 191.502 -2.66994 -4.18245 0
M  V30 2088 N 190.675 0.682077 -1.42076 0
M  V30 2089 C 191.921 1.44428 -1.42367 0
M  V30 2090 C 192.254 1.94164 -0.0373056 0
M  V30 2091 O 191.529 1.70429 0.937239 0
M  V30 2092 C 191.812 2.64654 -2.44194 0
M  V30 2093 C 191.665 2.20596 -3.91991 0
M  V30 2094 C 192.984 3.66865 -2.431 0
M  V30 2095 H 190.103 0.523834 -0.518428 0
M  V30 2096 H 192.745 0.77576 -1.73442 0
M  V30 2097 H 190.895 3.2169 -2.17826 0
M  V30 2098 H 192.567 1.68783 -4.29313 0
M  V30 2099 H 190.81 1.52242 -4.06208 0
M  V30 2100 H 191.481 3.06921 -4.58807 0
M  V30 2101 H 193.957 3.19531 -2.66532 0
M  V30 2102 H 192.833 4.48577 -3.16339 0
M  V30 2103 H 193.094 4.17493 -1.45437 0
M  V30 2104 N 192.153 1.28127 0.917671 0
M  V30 2105 C 193.083 1.14248 2.03641 0
M  V30 2106 C 194.064 0.0412748 1.7005 0
M  V30 2107 O 195.249 0.217566 1.92977 0
M  V30 2108 C 192.379 0.799431 3.37974 0
M  V30 2109 C 191.333 1.85497 3.85713 0
M  V30 2110 C 190.659 1.36565 5.16966 0
M  V30 2111 C 191.959 3.26085 4.08002 0
M  V30 2112 H 193.653 2.07835 2.15511 0
M  V30 2113 H 191.199 1.00064 1.03553 0
M  V30 2114 H 193.152 0.689114 4.15727 0
M  V30 2115 H 191.876 -0.172145 3.26146 0
M  V30 2116 H 190.535 1.95437 3.10161 0
M  V30 2117 H 190.183 0.383253 5.01538 0
M  V30 2118 H 189.883 2.07143 5.49878 0
M  V30 2119 H 191.407 1.26848 5.97279 0
M  V30 2120 H 192.821 3.19089 4.76293 0
M  V30 2121 H 191.218 3.94462 4.52238 0
M  V30 2122 H 192.288 3.70394 3.12948 0
M  V30 2123 N 193.631 -1.12557 1.10312 0
M  V30 2124 C 194.594 -2.16434 0.75424 0
M  V30 2125 C 195.594 -1.59278 -0.220685 0
M  V30 2126 O 196.784 -1.742 0.00230591 0
M  V30 2127 C 193.916 -3.40699 0.116987 0
M  V30 2128 H 195.109 -2.48811 1.67431 0
M  V30 2129 H 192.662 -1.27542 0.903475 0
M  V30 2130 H 193.397 -3.13921 -0.813877 0
M  V30 2131 H 193.182 -3.83459 0.818613 0
M  V30 2132 H 194.672 -4.17451 -0.111387 0
M  V30 2133 N 195.109 -0.891671 -1.2995 0
M  V30 2134 C 196.057 -0.353066 -2.29905 0
M  V30 2135 C 197.051 0.543509 -1.60444 0
M  V30 2136 O 198.257 0.4272 -1.74857 0
M  V30 2137 H 194.632 -0.095531 -0.745907 0
M  V30 2138 H 196.603 -1.20961 -2.72784 0
M  V30 2139 C 195.352 0.411475 -3.45257 0
M  V30 2140 H 194.675 -0.269182 -3.98893 0
M  V30 2141 H 196.115 0.753328 -4.17254 0
M  V30 2142 C 194.574 1.6111 -2.9588 0
M  V30 2143 O 195.104 2.71045 -2.96475 0
M  V30 2144 N 193.31 1.45054 -2.51809 0
M  V30 2145 H 192.857 0.556175 -2.51524 0
M  V30 2146 H 192.815 2.25453 -2.1913 0
M  V30 2147 N 196.587 1.43421 -0.653314 0
M  V30 2148 C 197.833 2.02641 -0.175593 0
M  V30 2149 C 198.188 1.5062 1.19713 0
M  V30 2150 O 197.481 0.689697 1.78756 0
M  V30 2151 C 197.675 3.57176 -0.126623 0
M  V30 2152 C 197.504 4.24191 -1.49306 0
M  V30 2153 C 196.274 4.60257 -2.08547 0
M  V30 2154 C 198.472 4.53193 -2.43148 0
M  V30 2155 N 196.454 5.12345 -3.38194 0
M  V30 2156 C 197.825 5.06601 -3.57429 0
M  V30 2157 C 199.88 4.35161 -2.41949 0
M  V30 2158 C 198.583 5.43875 -4.70736 0
M  V30 2159 C 200.609 4.73498 -3.54336 0
M  V30 2160 C 199.971 5.27039 -4.67343 0
M  V30 2161 H 196.07 0.77441 -0.108686 0
M  V30 2162 H 198.654 1.74596 -0.861638 0
M  V30 2163 H 196.825 3.84784 0.528766 0
M  V30 2164 H 198.557 4.03078 0.36198 0
M  V30 2165 H 195.312 4.45302 -1.61255 0
M  V30 2166 H 195.736 5.42842 -4.04538 0
M  V30 2167 H 200.378 3.9304 -1.55818 0
M  V30 2168 H 198.096 5.8494 -5.57558 0
M  V30 2169 H 201.682 4.61241 -3.5461 0
M  V30 2170 H 200.562 5.56153 -5.52868 0
M  V30 2171 N 198.065 0.39524 1.52563 0
M  V30 2172 C 199.012 -0.437036 2.26624 0
M  V30 2173 C 199.982 -1.05281 1.28472 0
M  V30 2174 O 201.167 -1.07971 1.57311 0
M  V30 2175 C 198.307 -1.55524 3.08069 0
M  V30 2176 C 197.42 -0.961745 4.21158 0
M  V30 2177 C 196.555 -2.05149 4.89987 0
M  V30 2178 C 195.594 -1.4342 5.95061 0
M  V30 2179 N 194.731 -2.46351 6.57462 0
M  V30 2180 H 199.571 0.200976 2.97322 0
M  V30 2181 H 197.108 0.110944 1.46681 0
M  V30 2182 H 199.066 -2.21437 3.53584 0
M  V30 2183 H 197.696 -2.16348 2.3957 0
M  V30 2184 H 196.748 -0.192048 3.79915 0
M  V30 2185 H 198.06 -0.470701 4.96574 0
M  V30 2186 H 197.214 -2.78819 5.38837 0
M  V30 2187 H 195.953 -2.57615 4.14109 0
M  V30 2188 H 194.958 -0.682774 5.45544 0
M  V30 2189 H 196.183 -0.917416 6.72875 0
M  V30 2190 H 194.129 -2.97975 5.8442 0
M  V30 2191 H 194.046 -2.02019 7.28508 0
M  V30 2192 H 195.314 -3.19633 7.10954 0
M  V30 2193 N 199.544 -1.57102 0.125237 0
M  V30 2194 C 200.491 -2.15641 -0.822655 0
M  V30 2195 C 201.461 -1.08313 -1.25927 0
M  V30 2196 O 202.646 -1.36251 -1.33567 0
M  V30 2197 C 199.786 -2.76504 -2.06494 0
M  V30 2198 C 198.899 -3.98158 -1.67612 0
M  V30 2199 C 198.034 -4.47088 -2.86854 0
M  V30 2200 C 197.073 -5.6126 -2.44242 0
M  V30 2201 N 196.21 -6.04905 -3.56419 0
M  V30 2202 H 201.05 -2.96313 -0.316625 0
M  V30 2203 H 198.587 -1.46388 -0.144588 0
M  V30 2204 H 200.545 -3.09925 -2.79289 0
M  V30 2205 H 199.175 -1.98512 -2.54545 0
M  V30 2206 H 198.227 -3.70858 -0.846661 0
M  V30 2207 H 199.539 -4.80934 -1.32301 0
M  V30 2208 H 198.693 -4.82451 -3.67867 0
M  V30 2209 H 197.432 -3.63275 -3.25396 0
M  V30 2210 H 196.437 -5.25495 -1.61663 0
M  V30 2211 H 197.662 -6.46843 -2.0681 0
M  V30 2212 H 195.608 -5.24032 -3.94623 0
M  V30 2213 H 195.525 -6.82552 -3.25051 0
M  V30 2214 H 196.793 -6.44907 -4.37853 0
M  V30 2215 N 201.022 0.148545 -1.56898 0
M  V30 2216 C 201.969 1.18345 -1.98149 0
M  V30 2217 C 202.939 1.42772 -0.848848 0
M  V30 2218 O 204.124 1.55132 -1.11079 0
M  V30 2219 C 201.264 2.51231 -2.36594 0
M  V30 2220 C 200.377 2.33991 -3.63142 0
M  V30 2221 C 199.512 3.59902 -3.90697 0
M  V30 2222 C 198.551 3.37692 -5.1052 0
M  V30 2223 N 197.688 4.5573 -5.34092 0
M  V30 2224 H 202.528 0.82467 -2.86362 0
M  V30 2225 H 200.065 0.395756 -1.41676 0
M  V30 2226 H 202.023 3.28713 -2.56912 0
M  V30 2227 H 200.653 2.85059 -1.51463 0
M  V30 2228 H 199.705 1.47572 -3.50609 0
M  V30 2229 H 201.017 2.13539 -4.5078 0
M  V30 2230 H 200.171 4.45813 -4.11505 0
M  V30 2231 H 198.91 3.83357 -3.01477 0
M  V30 2232 H 197.915 2.5017 -4.89587 0
M  V30 2233 H 199.14 3.15637 -6.0129 0
M  V30 2234 H 197.086 4.79361 -4.47827 0
M  V30 2235 H 197.003 4.38274 -6.15996 0
M  V30 2236 H 198.271 5.42858 -5.59397 0
M  V30 2237 N 202.5 1.5196 0.417844 0
M  V30 2238 C 203.777 1.56146 1.17803 0
M  V30 2239 C 204.157 0.337275 2.08388 0
M  V30 2240 O 203.505 -0.676447 2.18258 0
M  V30 2241 C 203.715 2.88566 1.96293 0
M  V30 2242 C 205.063 3.41244 2.52662 0
M  V30 2243 O 206.087 2.90247 2.06483 0
M  V30 2244 O 204.946 4.30273 3.36938 0
M  V30 2245 H 202.04 0.628598 0.537395 0
M  V30 2246 H 204.586 1.64283 0.425331 0
M  V30 2247 H 203.358 3.69116 1.2988 0
M  V30 2248 H 202.981 2.83681 2.78587 0
M  V30 2249 N 203.978 -0.674533 1.42435 0
M  V30 2250 C 205.389 -1.25514 1.38214 0
M  V30 2251 C 205.74 -1.96055 0.0755464 0
M  V30 2252 O 204.865 -2.00028 -0.8257 0
M  V30 2253 C 205.46 -2.28269 2.50357 0
M  V30 2254 C 204.019 -2.81856 2.49467 0
M  V30 2255 C 203.166 -1.56182 2.29134 0
M  V30 2256 H 206.117 -0.467902 1.51646 0
M  V30 2257 H 206.138 -3.10009 2.20624 0
M  V30 2258 H 205.65 -1.769 3.45439 0
M  V30 2259 H 203.751 -3.37346 1.58204 0
M  V30 2260 H 203.864 -3.30854 3.46515 0
M  V30 2261 H 202.228 -1.82761 1.774 0
M  V30 2262 H 203.011 -1.06778 3.26272 0
M  V30 2263 N 205.456 -1.28612 -0.910864 0
M  V30 2264 C 206.404 -1.1265 -2.03501 0
M  V30 2265 C 207.398 -0.0450054 -1.6934 0
M  V30 2266 O 208.604 -0.203988 -1.7884 0
M  V30 2267 H 204.979 -0.347639 -0.666822 0
M  V30 2268 H 206.95 -2.07849 -2.14106 0
M  V30 2269 C 205.699 -0.808143 -3.38178 0
M  V30 2270 H 205.022 -1.63231 -3.6496 0
M  V30 2271 H 206.462 -0.736426 -4.17556 0
M  V30 2272 C 204.921 0.488226 -3.33344 0
M  V30 2273 O 205.451 1.51766 -3.71927 0
M  V30 2274 N 203.657 0.490009 -2.86439 0
M  V30 2275 H 203.204 -0.348161 -2.55236 0
M  V30 2276 H 203.162 1.35741 -2.83587 0
M  V30 2277 N 206.934 1.1197 -1.10907 0
M  V30 2278 C 207.881 2.17846 -0.762345 0
M  V30 2279 C 208.851 1.63995 0.263599 0
M  V30 2280 O 210.036 1.90273 0.141773 0
M  V30 2281 C 207.176 3.44487 -0.205651 0
M  V30 2282 C 206.289 4.12369 -1.28748 0
M  V30 2283 C 205.424 5.26674 -0.691919 0
M  V30 2284 C 204.463 5.86431 -1.75399 0
M  V30 2285 N 203.6 6.92142 -1.17833 0
M  V30 2286 H 208.44 2.46851 -1.6694 0
M  V30 2287 H 205.977 1.21188 -0.833776 0
M  V30 2288 H 207.935 4.16981 0.135037 0
M  V30 2289 H 206.565 3.15884 0.664613 0
M  V30 2290 H 205.617 3.38003 -1.74522 0
M  V30 2291 H 206.929 4.52844 -2.09125 0
M  V30 2292 H 206.083 6.05953 -0.300963 0
M  V30 2293 H 204.822 4.8749 0.143232 0
M  V30 2294 H 203.827 5.05835 -2.15432 0
M  V30 2295 H 205.052 6.27685 -2.59208 0
M  V30 2296 H 202.998 6.54985 -0.364725 0
M  V30 2297 H 202.915 7.31242 -1.91887 0
M  V30 2298 H 204.183 7.75237 -0.81408 0
M  V30 2299 N 208.412 0.89855 1.29475 0
M  V30 2300 C 209.823 0.572537 1.77705 0
M  V30 2301 C 210.174 -0.911778 1.73727 0
M  V30 2302 O 209.299 -1.71288 1.32247 0
M  V30 2303 C 209.894 1.03252 3.22683 0
M  V30 2304 C 208.453 0.757687 3.68695 0
M  V30 2305 C 207.6 1.20787 2.49612 0
M  V30 2306 H 210.551 1.08139 1.16153 0
M  V30 2307 H 210.572 0.367307 3.78723 0
M  V30 2308 H 210.084 2.11285 3.25546 0
M  V30 2309 H 208.185 -0.310079 3.71308 0
M  V30 2310 H 208.298 1.35476 4.59547 0
M  V30 2311 H 206.662 0.626888 2.46865 0
M  V30 2312 H 207.445 2.29622 2.55203 0
M  V30 2313 N 209.89 -1.43072 0.660911 0
M  V30 2314 C 210.82 -2.33497 -0.0122829 0
M  V30 2315 C 211.801 -1.49903 -0.803925 0
M  V30 2316 O 212.986 -1.78546 -0.763864 0
M  V30 2317 C 210.116 -3.33363 -0.973994 0
M  V30 2318 C 209.07 -4.27003 -0.291928 0
M  V30 2319 C 208.396 -5.16967 -1.36562 0
M  V30 2320 C 209.696 -5.15816 0.820462 0
M  V30 2321 H 211.39 -2.90038 0.742873 0
M  V30 2322 H 208.936 -1.39461 0.358688 0
M  V30 2323 H 210.889 -3.95524 -1.45392 0
M  V30 2324 H 209.613 -2.75095 -1.7604 0
M  V30 2325 H 208.272 -3.66217 0.167623 0
M  V30 2326 H 207.92 -4.55034 -2.14366 0
M  V30 2327 H 207.62 -5.80441 -0.914454 0
M  V30 2328 H 209.144 -5.82003 -1.84675 0
M  V30 2329 H 210.558 -5.71742 0.422366 0
M  V30 2330 H 208.955 -5.8805 1.19656 0
M  V30 2331 H 210.025 -4.55045 1.67518 0
M  V30 2332 N 211.368 -0.403325 -1.52352 0
M  V30 2333 C 212.596 0.174012 -2.06167 0
M  V30 2334 C 213.011 1.39347 -1.27388 0
M  V30 2335 O 212.368 1.79597 -0.324201 0
M  V30 2336 C 212.419 0.530223 -3.5759 0
M  V30 2337 O 212.14 -0.640806 -4.33388 0
M  V30 2338 C 213.641 1.16192 -4.27802 0
M  V30 2339 H 210.861 0.0229464 -0.670608 0
M  V30 2340 H 213.405 -0.572604 -1.9632 0
M  V30 2341 H 211.56 1.22673 -3.67464 0
M  V30 2342 H 211.974 -0.344851 -5.23365 0
M  V30 2343 H 213.448 1.36141 -5.34948 0
M  V30 2344 H 213.925 2.13335 -3.83907 0
M  V30 2345 H 214.531 0.505775 -4.22282 0
M  V30 2346 N 212.846 1.57033 -0.133567 0
M  V30 2347 C 214.076 1.99754 0.527429 0
M  V30 2348 C 214.484 1.01245 1.59832 0
M  V30 2349 O 213.827 -0.000645496 1.837 0
M  V30 2350 C 213.889 3.38903 1.19939 0
M  V30 2351 C 213.553 4.56174 0.274709 0
M  V30 2352 C 214.55 5.17563 -0.492398 0
M  V30 2353 C 212.235 5.01972 0.18153 0
M  V30 2354 C 214.229 6.2315 -1.34027 0
M  V30 2355 C 211.916 6.07416 -0.669958 0
M  V30 2356 C 212.914 6.67874 -1.42947 0
M  V30 2357 O 212.602 7.71279 -2.2668 0
M  V30 2358 H 212.334 0.660702 0.142999 0
M  V30 2359 H 214.888 2.04207 -0.221099 0
M  V30 2360 H 213.118 3.31248 1.99528 0
M  V30 2361 H 214.807 3.65818 1.75875 0
M  V30 2362 H 215.573 4.83087 -0.430367 0
M  V30 2363 H 211.452 4.54652 0.762422 0
M  V30 2364 H 214.996 6.70268 -1.93357 0
M  V30 2365 H 210.893 6.41321 -0.73333 0
M  V30 2366 H 211.661 7.88441 -2.1978 0
M  V30 2367 N 214.325 -0.140222 1.56975 0
M  V30 2368 C 215.235 -1.19223 2.02047 0
M  V30 2369 C 216.251 -1.46612 0.937062 0
M  V30 2370 O 217.427 -1.58148 1.24704 0
M  V30 2371 C 214.492 -2.50414 2.39778 0
M  V30 2372 C 213.553 -2.30612 3.621 0
M  V30 2373 C 212.786 -3.55547 3.98023 0
M  V30 2374 O 213.009 -4.62004 3.34528 0
M  V30 2375 O 211.943 -3.47808 4.91237 0
M  V30 2376 H 215.769 -0.839559 2.91865 0
M  V30 2377 H 213.354 -0.349453 1.45256 0
M  V30 2378 H 215.236 -3.27747 2.64877 0
M  V30 2379 H 213.911 -2.85198 1.53114 0
M  V30 2380 H 212.818 -1.51207 3.4218 0
M  V30 2381 H 214.151 -2.00741 4.49404 0
M  V30 2382 N 215.803 -1.52179 -0.40978 0
M  V30 2383 C 216.751 -1.76086 -1.51975 0
M  V30 2384 C 217.745 -0.627964 -1.57331 0
M  V30 2385 O 218.951 -0.809993 -1.60745 0
M  V30 2386 H 215.326 -0.556829 -0.505416 0
M  V30 2387 H 217.297 -2.69077 -1.28996 0
M  V30 2388 C 216.046 -1.92799 -2.8935 0
M  V30 2389 H 215.369 -2.79392 -2.85972 0
M  V30 2390 H 216.809 -2.13527 -3.66309 0
M  V30 2391 C 215.268 -0.694923 -3.29655 0
M  V30 2392 O 215.798 0.13751 -4.01465 0
M  V30 2393 N 214.004 -0.53101 -2.85707 0
M  V30 2394 H 213.551 -1.20952 -2.27439 0
M  V30 2395 H 213.509 0.292718 -3.13034 0
M  V30 2396 N 217.281 0.66697 -1.42791 0
M  V30 2397 C 218.214 1.79177 -1.41318 0
M  V30 2398 C 219.192 1.60234 -0.276401 0
M  V30 2399 O 220.376 1.82602 -0.46785 0
M  V30 2400 C 217.503 3.16289 -1.21157 0
M  V30 2401 C 216.549 3.53964 -2.37932 0
M  V30 2402 S 217.382 3.55501 -4.00474 0
M  V30 2403 C 218.538 4.95292 -3.8267 0
M  V30 2404 H 218.771 1.80153 -2.365 0
M  V30 2405 H 216.304 0.838357 -1.29657 0
M  V30 2406 H 218.262 3.95428 -1.10212 0
M  V30 2407 H 216.923 3.1289 -0.275481 0
M  V30 2408 H 216.116 4.53646 -2.19594 0
M  V30 2409 H 215.718 2.82204 -2.45432 0
M  V30 2410 H 218.01 5.83584 -3.44145 0
M  V30 2411 H 218.953 5.18679 -4.82055 0
M  V30 2412 H 219.361 4.68179 -3.15386 0
M  V30 2413 N 218.759 1.29093 0.90403 0
M  V30 2414 C 220.036 1.075 1.63411 0
M  V30 2415 C 220.416 -0.382346 2.07609 0
M  V30 2416 O 219.764 -1.37031 1.82851 0
M  V30 2417 C 219.974 2.05858 2.81822 0
M  V30 2418 C 221.322 2.36539 3.52611 0
M  V30 2419 O 222.346 2.04019 2.91984 0
M  V30 2420 O 221.205 2.92085 4.61897 0
M  V30 2421 H 218.299 0.411547 0.717327 0
M  V30 2422 H 220.845 1.40449 0.952479 0
M  V30 2423 H 219.617 3.04037 2.46327 0
M  V30 2424 H 219.24 1.73613 3.57693 0
M  V30 2425 N 220.237 -1.11381 1.11499 0
M  V30 2426 C 221.483 -1.83403 0.865512 0
M  V30 2427 C 221.816 -1.84459 -0.607329 0
M  V30 2428 O 221.091 -1.29811 -1.44842 0
M  V30 2429 C 221.374 -3.30552 1.42855 0
M  V30 2430 C 221.227 -3.37886 2.96906 0
M  V30 2431 C 222.546 -4.26643 1.08 0
M  V30 2432 H 219.665 -0.665879 0.31587 0
M  V30 2433 H 222.307 -1.30601 1.37998 0
M  V30 2434 H 220.457 -3.75648 0.990985 0
M  V30 2435 H 222.129 -3.01343 3.49271 0
M  V30 2436 H 220.372 -2.78088 3.32941 0
M  V30 2437 H 221.043 -4.41458 3.31389 0
M  V30 2438 H 223.519 -3.89729 1.45775 0
M  V30 2439 H 222.395 -5.27986 1.50072 0
M  V30 2440 H 222.656 -4.42099 -0.00915037 0
M  V30 2441 N 221.715 -0.905404 -1.28997 0
M  V30 2442 C 222.645 -0.404212 -2.29975 0
M  V30 2443 C 223.626 0.523784 -1.61835 0
M  V30 2444 O 224.811 0.433298 -1.89304 0
M  V30 2445 C 221.941 0.364042 -3.45387 0
M  V30 2446 C 220.895 -0.474048 -4.25367 0
M  V30 2447 C 220.221 0.422045 -5.33032 0
M  V30 2448 C 221.521 -1.72696 -4.92923 0
M  V30 2449 H 223.215 -1.24807 -2.72146 0
M  V30 2450 H 220.761 -0.601585 -1.30832 0
M  V30 2451 H 222.714 0.725447 -4.15109 0
M  V30 2452 H 221.438 1.24174 -3.02074 0
M  V30 2453 H 220.097 -0.81786 -3.57361 0
M  V30 2454 H 219.745 1.29804 -4.85963 0
M  V30 2455 H 219.445 -0.135057 -5.87445 0
M  V30 2456 H 220.969 0.779517 -6.05604 0
M  V30 2457 H 222.383 -1.43495 -5.55051 0
M  V30 2458 H 220.78 -2.22582 -5.57295 0
M  V30 2459 H 221.85 -2.45964 -4.17887 0
M  V30 2460 N 223.193 1.4272 -0.668489 0
M  V30 2461 C 224.44 2.01624 -0.18814 0
M  V30 2462 C 224.768 1.5282 1.20317 0
M  V30 2463 O 224.023 0.718323 1.8204 0
M  V30 2464 C 224.322 3.57021 -0.164499 0
M  V30 2465 C 223.988 4.25232 -1.49962 0
M  V30 2466 C 222.65 4.4358 -1.8652 0
M  V30 2467 C 225.002 4.63727 -2.37921 0
M  V30 2468 C 222.33 4.97694 -3.10674 0
M  V30 2469 C 224.682 5.19218 -3.6138 0
M  V30 2470 C 223.346 5.3578 -3.98115 0
M  V30 2471 H 222.616 0.737795 -0.0688454 0
M  V30 2472 H 225.263 1.70991 -0.862225 0
M  V30 2473 H 223.568 3.87285 0.593079 0
M  V30 2474 H 225.265 4.00372 0.224271 0
M  V30 2475 H 221.855 4.11306 -1.20522 0
M  V30 2476 H 226.039 4.4923 -2.10964 0
M  V30 2477 H 221.295 5.08702 -3.39164 0
M  V30 2478 H 225.469 5.4799 -4.29743 0
M  V30 2479 H 223.096 5.77475 -4.94395 0
M  V30 2480 N 224.671 0.411399 1.52136 0
M  V30 2481 C 225.896 -0.165538 2.06738 0
M  V30 2482 C 226.321 -1.379 1.27926 0
M  V30 2483 O 225.679 -1.78628 0.310114 0
M  V30 2484 C 225.727 -0.492124 3.57226 0
M  V30 2485 O 224.831 -1.58276 3.80818 0
M  V30 2486 H 224.172 -0.0132132 0.663869 0
M  V30 2487 H 226.702 0.585253 1.96051 0
M  V30 2488 H 226.712 -0.750104 4.01045 0
M  V30 2489 H 225.387 0.394922 4.14021 0
M  V30 2490 H 223.964 -1.31677 3.48877 0
M  V30 2491 N 226.149 -1.5696 0.141893 0
M  V30 2492 C 227.396 -1.9596 -0.510492 0
M  V30 2493 C 227.724 -1.02648 -1.65208 0
M  V30 2494 O 226.979 -0.0546947 -1.95624 0
M  V30 2495 C 227.278 -3.41242 -1.06249 0
M  V30 2496 C 226.944 -4.50882 -0.0398791 0
M  V30 2497 C 225.606 -4.80595 0.241247 0
M  V30 2498 C 227.958 -5.17058 0.65578 0
M  V30 2499 C 225.286 -5.73792 1.22393 0
M  V30 2500 C 227.638 -6.11313 1.62724 0
M  V30 2501 C 226.302 -6.39407 1.91612 0
M  V30 2502 H 225.572 -0.717068 -0.186802 0
M  V30 2503 H 228.219 -1.90142 0.227643 0
M  V30 2504 H 226.524 -3.43866 -1.87785 0
M  V30 2505 H 228.221 -3.68742 -1.57576 0
M  V30 2506 H 224.811 -4.27754 -0.269174 0
M  V30 2507 H 228.995 -4.94239 0.451779 0
M  V30 2508 H 224.251 -5.93853 1.45424 0
M  V30 2509 H 228.425 -6.61668 2.17183 0
M  V30 2510 H 226.052 -7.11427 2.6791 0
M  V30 2511 N 227.627 0.131896 -1.57047 0
M  V30 2512 C 229.043 0.485031 -1.52051 0
M  V30 2513 C 229.243 1.82563 -0.85281 0
M  V30 2514 O 228.299 2.48817 -0.429694 0
M  V30 2515 C 229.612 0.481409 -2.96821 0
M  V30 2516 C 231.16 0.565868 -3.07842 0
M  V30 2517 C 231.635 0.592762 -4.54148 0
M  V30 2518 N 233.126 0.654564 -4.58552 0
M  V30 2519 C 233.861 0.696608 -5.69153 0
M  V30 2520 N 233.357 0.697078 -6.89284 0
M  V30 2521 N 235.15 0.738639 -5.57226 0
M  V30 2522 H 227.301 -0.746664 -1.98843 0
M  V30 2523 H 229.564 -0.273999 -0.90754 0
M  V30 2524 H 229.27 -0.435731 -3.4899 0
M  V30 2525 H 229.144 1.3139 -3.53577 0
M  V30 2526 H 231.531 1.47343 -2.55684 0
M  V30 2527 H 231.612 -0.29406 -2.54104 0
M  V30 2528 H 231.256 -0.310701 -5.06949 0
M  V30 2529 H 231.186 1.46939 -5.05684 0
M  V30 2530 H 233.677 0.660887 -3.72076 0
M  V30 2531 H 233.99 0.731426 -7.69331 0
M  V30 2532 H 232.335 0.66471 -6.91814 0
M  V30 2533 H 235.526 0.735545 -4.62285 0
M  V30 2534 H 235.699 0.767938 -6.43434 0
M  V30 2535 N 229.106 1.52395 0.401703 0
M  V30 2536 C 230.383 1.57387 1.16141 0
M  V30 2537 C 230.763 0.359359 2.08019 0
M  V30 2538 O 230.111 -0.65326 2.18963 0
M  V30 2539 C 230.321 2.90631 1.93221 0
M  V30 2540 C 231.669 3.43904 2.49028 0
M  V30 2541 O 232.693 2.92421 2.03393 0
M  V30 2542 O 231.552 4.33823 3.32356 0
M  V30 2543 H 228.646 0.634262 0.530698 0
M  V30 2544 H 231.192 1.64725 0.407883 0
M  V30 2545 H 229.964 3.70473 1.25958 0
M  V30 2546 H 229.587 2.8662 2.75563 0
M  V30 2547 N 230.584 -0.659388 1.43143 0
M  V30 2548 C 231.832 -1.41654 1.44147 0
M  V30 2549 C 232.153 -1.94893 0.0645739 0
M  V30 2550 O 231.423 -1.74044 -0.899198 0
M  V30 2551 H 230.003 -0.525708 0.530697 0
M  V30 2552 H 232.665 -0.778097 1.78694 0
M  V30 2553 H 231.761 -2.26195 2.1504 0
M  V30 2554 N 232.062 -1.29571 -0.897171 0
M  V30 2555 C 233.339 -1.08365 -1.62839 0
M  V30 2556 C 233.719 0.371331 -2.07808 0
M  V30 2557 O 233.067 1.3606 -1.83576 0
M  V30 2558 C 233.277 -2.0735 -2.80726 0
M  V30 2559 C 234.625 -2.38406 -3.51351 0
M  V30 2560 O 235.649 -2.05564 -2.90898 0
M  V30 2561 O 234.508 -2.9453 -4.60341 0
M  V30 2562 H 231.602 -0.415345 -0.715134 0
M  V30 2563 H 234.148 -1.40952 -0.945018 0
M  V30 2564 H 232.92 -3.05339 -2.44711 0
M  V30 2565 H 232.543 -1.75507 -3.56767 0
M  V30 2566 N 233.54 1.10788 -1.12088 0
M  V30 2567 C 234.78 1.84297 -0.883974 0
M  V30 2568 C 235.144 1.83036 0.579797 0
M  V30 2569 O 236.345 2.52061 0.933734 0
M  V30 2570 C 234.616 3.27173 -1.43849 0
M  V30 2571 S 236.175 4.17853 -1.33957 0
M  V30 2572 H 232.993 0.635433 -0.318977 0
M  V30 2573 H 235.595 1.33341 -1.4297 0
M  V30 2574 H 234.299 3.25658 -2.49749 0
M  V30 2575 H 233.83 3.83198 -0.890096 0
M  V30 2576 H 235.845 4.95239 -0.308603 0
M  V30 2577 N 235.018 0.912232 1.28515 0
M  V30 2578 C 236.243 0.559774 1.99703 0
M  V30 2579 C 236.668 -0.851393 1.67729 0
M  V30 2580 O 236.026 -1.56875 0.908834 0
M  V30 2581 C 236.074 0.773874 3.52198 0
M  V30 2582 O 235.178 -0.167842 4.12058 0
M  V30 2583 H 234.519 0.21723 0.627461 0
M  V30 2584 H 237.049 1.22725 1.63706 0
M  V30 2585 H 237.059 0.683386 4.02236 0
M  V30 2586 H 235.734 1.80261 3.74805 0
M  V30 2587 H 234.311 -0.0287509 3.72889 0
M  V30 2588 N 236.496 -1.42363 0.676048 0
M  V30 2589 C 237.443 -2.308 -0.00150904 0
M  V30 2590 C 238.413 -1.46032 -0.791444 0
M  V30 2591 O 239.598 -1.74861 -0.76344 0
M  V30 2592 C 236.738 -3.31883 -0.945919 0
M  V30 2593 C 235.851 -4.31741 -0.149675 0
M  V30 2594 C 234.986 -5.19898 -1.08995 0
M  V30 2595 C 234.025 -6.11434 -0.285465 0
M  V30 2596 N 233.162 -6.92138 -1.17851 0
M  V30 2597 H 238.002 -2.88187 0.758455 0
M  V30 2598 H 235.539 -1.41952 0.38576 0
M  V30 2599 H 237.497 -3.89019 -1.50731 0
M  V30 2600 H 236.127 -2.76093 -1.6725 0
M  V30 2601 H 235.179 -3.76713 0.528359 0
M  V30 2602 H 236.491 -4.96534 0.474866 0
M  V30 2603 H 235.645 -5.81772 -1.72123 0
M  V30 2604 H 234.384 -4.55284 -1.74837 0
M  V30 2605 H 233.389 -5.48627 0.359018 0
M  V30 2606 H 234.614 -6.78097 0.368883 0
M  V30 2607 H 232.56 -6.30152 -1.82332 0
M  V30 2608 H 232.477 -7.53542 -0.609082 0
M  V30 2609 H 233.745 -7.58499 -1.79722 0
M  V30 2610 N 237.974 -0.419461 -1.51915 0
M  V30 2611 C 239.222 0.152637 -2.01523 0
M  V30 2612 C 239.543 1.44762 -1.30649 0
M  V30 2613 O 238.813 1.90997 -0.435535 0
M  V30 2614 H 237.393 0.0593966 -0.744635 0
M  V30 2615 H 240.055 -0.558073 -1.86739 0
M  V30 2616 H 239.151 0.341369 -3.10227 0
M  V30 2617 N 239.452 1.56882 -0.150215 0
M  V30 2618 C 240.699 1.96228 0.500093 0
M  V30 2619 C 241.027 1.03522 1.64661 0
M  V30 2620 O 240.282 0.0650683 1.95592 0
M  V30 2621 C 240.581 3.41801 1.04437 0
M  V30 2622 C 240.247 4.50897 0.0159671 0
M  V30 2623 C 238.909 4.8046 -0.266731 0
M  V30 2624 C 241.261 5.16703 -0.683192 0
M  V30 2625 C 238.589 5.73135 -1.25434 0
M  V30 2626 C 240.941 6.10441 -1.65964 0
M  V30 2627 C 239.605 6.38382 -1.95 0
M  V30 2628 H 238.875 0.718048 0.182997 0
M  V30 2629 H 241.522 1.90019 -0.237724 0
M  V30 2630 H 239.827 3.44857 1.85959 0
M  V30 2631 H 241.524 3.69573 1.55618 0
M  V30 2632 H 238.114 4.27891 0.246485 0
M  V30 2633 H 242.298 4.93993 -0.477983 0
M  V30 2634 H 237.554 5.93074 -1.48571 0
M  V30 2635 H 241.728 6.60507 -2.20689 0
M  V30 2636 H 239.355 7.09996 -2.71679 0
M  V30 2637 N 240.93 -0.123565 1.57115 0
M  V30 2638 C 242.177 -0.832153 1.84612 0
M  V30 2639 C 242.505 -1.80093 0.734627 0
M  V30 2640 O 241.76 -1.93766 -0.27442 0
M  V30 2641 C 242.059 -1.62016 3.18568 0
M  V30 2642 C 241.725 -0.796084 4.43817 0
M  V30 2643 C 240.387 -0.568816 4.77826 0
M  V30 2644 C 242.739 -0.221364 5.2073 0
M  V30 2645 C 240.067 0.243499 5.86194 0
M  V30 2646 C 242.419 0.578117 6.29953 0
M  V30 2647 C 241.083 0.815744 6.62497 0
M  V30 2648 H 240.353 -0.304507 0.675542 0
M  V30 2649 H 243 -0.0947248 1.91266 0
M  V30 2650 H 241.305 -2.42837 3.0747 0
M  V30 2651 H 243.002 -2.17231 3.37064 0
M  V30 2652 H 239.592 -0.983307 4.17168 0
M  V30 2653 H 243.776 -0.384173 4.94811 0
M  V30 2654 H 239.032 0.436871 6.09837 0
M  V30 2655 H 243.206 1.03046 6.88734 0
M  V30 2656 H 240.833 1.44701 7.46301 0
M  V30 2657 N 242.408 -1.52605 -0.393616 0
M  V30 2658 C 243.338 -1.80022 -1.48709 0
M  V30 2659 C 244.319 -0.651995 -1.57108 0
M  V30 2660 O 245.504 -0.89913 -1.72132 0
M  V30 2661 C 242.634 -1.96492 -2.86371 0
M  V30 2662 C 241.588 -3.12161 -2.92813 0
M  V30 2663 C 240.914 -3.13877 -4.3288 0
M  V30 2664 C 242.214 -4.51322 -2.6288 0
M  V30 2665 H 243.908 -2.71589 -1.26015 0
M  V30 2666 H 241.454 -1.30684 -0.604778 0
M  V30 2667 H 243.407 -2.14255 -3.62867 0
M  V30 2668 H 242.131 -1.01611 -3.10391 0
M  V30 2669 H 240.79 -2.94173 -2.18764 0
M  V30 2670 H 240.438 -2.16687 -4.53933 0
M  V30 2671 H 240.138 -3.91576 -4.38112 0
M  V30 2672 H 241.662 -3.33789 -5.1129 0
M  V30 2673 H 243.076 -4.69435 -3.29096 0
M  V30 2674 H 241.473 -5.31053 -2.79468 0
M  V30 2675 H 242.543 -4.58353 -1.58242 0
M  V30 2676 N 243.887 0.651787 -1.4349 0
M  V30 2677 C 245.133 1.41376 -1.45398 0
M  V30 2678 C 245.466 1.94041 -0.0784823 0
M  V30 2679 O 244.741 1.72379 0.900878 0
M  V30 2680 C 245.024 2.59414 -2.49752 0
M  V30 2681 C 244.877 2.12232 -3.96582 0
M  V30 2682 C 246.196 3.61626 -2.50827 0
M  V30 2683 H 243.315 0.512719 -0.529422 0
M  V30 2684 H 245.957 0.738796 -1.75048 0
M  V30 2685 H 244.107 3.16997 -2.246 0
M  V30 2686 H 245.779 1.59639 -4.32797 0
M  V30 2687 H 244.022 1.43592 -4.09346 0
M  V30 2688 H 244.693 2.9712 -4.65214 0
M  V30 2689 H 247.169 3.13805 -2.7325 0
M  V30 2690 H 246.045 4.41766 -3.25783 0
M  V30 2691 H 246.306 4.14314 -1.5426 0
M  V30 2692 N 245.365 1.30045 0.890287 0
M  V30 2693 C 246.59 1.21598 1.68014 0
M  V30 2694 C 247.015 -0.218678 1.86825 0
M  V30 2695 O 246.373 -1.15756 1.39536 0
M  V30 2696 C 246.421 1.94434 3.03691 0
M  V30 2697 O 245.525 1.2678 3.92429 0
M  V30 2698 H 244.866 0.420856 0.513592 0
M  V30 2699 H 247.396 1.71775 1.11151 0
M  V30 2700 H 247.406 2.03251 3.5377 0
M  V30 2701 H 246.081 2.98777 2.89318 0
M  V30 2702 H 244.658 1.26282 3.50866 0
M  V30 2703 N 246.843 -1.10192 1.12674 0
M  V30 2704 C 247.773 -2.18652 0.819362 0
M  V30 2705 C 248.754 -1.68698 -0.217915 0
M  V30 2706 O 249.939 -1.94041 -0.0785581 0
M  V30 2707 C 247.069 -3.46202 0.27594 0
M  V30 2708 C 246.023 -4.09444 1.24656 0
M  V30 2709 C 245.349 -5.31725 0.563258 0
M  V30 2710 C 246.649 -4.52863 2.60217 0
M  V30 2711 H 248.343 -2.44622 1.72628 0
M  V30 2712 H 245.889 -1.17571 0.831451 0
M  V30 2713 H 247.842 -4.21372 0.0486149 0
M  V30 2714 H 246.566 -3.1973 -0.666331 0
M  V30 2715 H 245.225 -3.36284 1.45974 0
M  V30 2716 H 244.873 -5.0153 -0.384235 0
M  V30 2717 H 244.573 -5.74991 1.21075 0
M  V30 2718 H 246.097 -6.09624 0.34503 0
M  V30 2719 H 247.511 -5.19294 2.42913 0
M  V30 2720 H 245.908 -5.06986 3.21068 0
M  V30 2721 H 246.978 -3.65656 3.18471 0
M  V30 2722 N 248.321 -0.919034 -1.28029 0
M  V30 2723 C 249.251 -0.428581 -2.29533 0
M  V30 2724 C 250.232 0.50659 -1.62381 0
M  V30 2725 O 251.417 0.413195 -1.89753 0
M  V30 2726 C 248.547 0.327388 -3.45753 0
M  V30 2727 C 247.501 -0.519137 -4.2484 0
M  V30 2728 C 246.827 0.365486 -5.33449 0
M  V30 2729 C 248.127 -1.77914 -4.91064 0
M  V30 2730 H 249.821 -1.27687 -2.70807 0
M  V30 2731 H 247.367 -0.615428 -1.30186 0
M  V30 2732 H 249.32 0.681378 -4.15855 0
M  V30 2733 H 248.044 1.20963 -3.03374 0
M  V30 2734 H 246.703 -0.855717 -3.56473 0
M  V30 2735 H 246.351 1.24642 -4.87312 0
M  V30 2736 H 246.051 -0.197356 -5.87268 0
M  V30 2737 H 247.575 0.715241 -6.06396 0
M  V30 2738 H 248.989 -1.49374 -5.53498 0
M  V30 2739 H 247.386 -2.2848 -5.54903 0
M  V30 2740 H 248.456 -2.50382 -4.15255 0
M  V30 2741 N 249.799 1.42003 -0.683588 0
M  V30 2742 C 251.045 2.01712 -0.209825 0
M  V30 2743 C 251.378 1.53968 1.18353 0
M  V30 2744 O 250.653 0.745661 1.79639 0
M  V30 2745 C 250.936 3.59202 -0.254197 0
M  V30 2746 C 250.789 4.17102 -1.68363 0
M  V30 2747 C 252.108 4.38344 0.392709 0
M  V30 2748 H 249.227 0.732891 -0.0777189 0
M  V30 2749 H 251.869 1.68909 -0.87004 0
M  V30 2750 H 250.019 3.87278 0.307954 0
M  V30 2751 H 251.691 3.99946 -2.29871 0
M  V30 2752 H 249.934 3.72597 -2.22157 0
M  V30 2753 H 250.605 5.26249 -1.6663 0
M  V30 2754 H 253.081 4.16011 -0.0859162 0
M  V30 2755 H 251.957 5.47901 0.331063 0
M  V30 2756 H 252.218 4.16887 1.47164 0
M  V30 2757 N 251.277 0.427512 1.51691 0
M  V30 2758 C 252.187 -0.39527 2.31246 0
M  V30 2759 C 253.203 -1.03674 1.39742 0
M  V30 2760 O 254.379 -1.03425 1.72816 0
M  V30 2761 C 251.444 -1.48706 3.13189 0
M  V30 2762 C 250.505 -0.866743 4.20459 0
M  V30 2763 C 249.738 -1.90651 4.98486 0
M  V30 2764 O 249.961 -3.12733 4.77026 0
M  V30 2765 O 248.895 -1.5025 5.82845 0
M  V30 2766 H 252.721 0.253918 3.02637 0
M  V30 2767 H 250.306 0.190274 1.48183 0
M  V30 2768 H 252.188 -2.12047 3.64162 0
M  V30 2769 H 250.863 -2.12051 2.44573 0
M  V30 2770 H 249.77 -0.195544 3.73589 0
M  V30 2771 H 251.103 -0.276934 4.9142 0
M  V30 2772 N 252.755 -1.56801 0.158532 0
M  V30 2773 C 254.004 -1.95665 -0.489702 0
M  V30 2774 C 254.317 -1.04654 -1.65248 0
M  V30 2775 O 255.523 -1.33146 -2.3661 0
M  V30 2776 C 253.979 -3.47874 -0.922582 0
M  V30 2777 C 253.587 -4.47489 0.213893 0
M  V30 2778 C 255.331 -3.95583 -1.53996 0
M  V30 2779 C 253.238 -5.90921 -0.237903 0
M  V30 2780 H 252.168 -0.730516 -0.186716 0
M  V30 2781 H 254.819 -1.81861 0.244722 0
M  V30 2782 H 253.201 -3.57051 -1.71261 0
M  V30 2783 H 254.375 -4.50017 0.991036 0
M  V30 2784 H 252.69 -4.09764 0.740407 0
M  V30 2785 H 255.287 -5.0019 -1.8898 0
M  V30 2786 H 255.63 -3.37789 -2.43319 0
M  V30 2787 H 256.163 -3.8937 -0.814611 0
M  V30 2788 H 252.902 -6.52559 0.620236 0
M  V30 2789 H 252.422 -5.91729 -0.980676 0
M  V30 2790 H 254.101 -6.43352 -0.686067 0
M  V30 2791 N 254.233 0.115231 -1.57178 0
M  V30 2792 C 255.196 1.12526 -1.99676 0
M  V30 2793 C 256.196 1.34095 -0.88742 0
M  V30 2794 O 257.386 1.30548 -1.15337 0
M  V30 2795 C 254.518 2.4789 -2.34015 0
M  V30 2796 H 255.711 0.759912 -2.90113 0
M  V30 2797 H 253.264 0.359648 -1.52106 0
M  V30 2798 H 253.999 2.89339 -1.4647 0
M  V30 2799 H 253.784 2.33588 -3.14927 0
M  V30 2800 H 255.274 3.20575 -2.67622 0
M  V30 2801 N 255.711 1.52812 0.385517 0
M  V30 2802 C 256.674 1.77188 1.45386 0
M  V30 2803 C 257.674 0.641953 1.4743 0
M  V30 2804 O 258.864 0.910033 1.4854 0
M  V30 2805 C 255.996 1.87582 2.8465 0
M  V30 2806 H 257.189 2.72583 1.25054 0
M  V30 2807 H 254.742 1.43586 0.617467 0
M  V30 2808 H 255.477 0.941849 3.10322 0
M  V30 2809 H 255.262 2.69748 2.84567 0
M  V30 2810 H 256.752 2.08102 3.62054 0
M  V30 2811 N 257.189 -0.644168 1.43834 0
M  V30 2812 C 258.152 -1.73857 1.49353 0
M  V30 2813 C 259.152 -1.56315 0.377112 0
M  V30 2814 O 260.342 -1.62048 0.639226 0
M  V30 2815 C 257.474 -3.12819 1.35488 0
M  V30 2816 H 258.667 -1.70342 2.46827 0
M  V30 2817 H 256.22 -0.856652 1.30733 0
M  V30 2818 H 256.955 -3.2194 0.390569 0
M  V30 2819 H 256.74 -3.26958 2.16428 0
M  V30 2820 H 258.23 -3.92606 1.42302 0
M  V30 2821 N 258.668 -1.30515 -0.883378 0
M  V30 2822 C 259.893 -1.22487 -1.67367 0
M  V30 2823 C 260.318 0.208767 -1.86938 0
M  V30 2824 O 259.676 1.15015 -1.40148 0
M  V30 2825 C 259.724 -1.96041 -3.02655 0
M  V30 2826 O 258.828 -1.28859 -3.91751 0
M  V30 2827 H 258.169 -0.423573 -0.511353 0
M  V30 2828 H 260.699 -1.72362 -1.10239 0
M  V30 2829 H 260.709 -2.05124 -3.52687 0
M  V30 2830 H 259.384 -3.00307 -2.8773 0
M  V30 2831 H 257.961 -1.28141 -3.50192 0
M  V30 2832 N 260.146 1.09593 -1.13257 0
M  V30 2833 C 261.109 2.14359 -0.811358 0
M  V30 2834 C 262.109 1.59808 0.178377 0
M  V30 2835 O 263.299 1.74132 -0.0484911 0
M  V30 2836 C 260.431 3.40269 -0.207276 0
M  V30 2837 H 261.624 2.44284 -1.73969 0
M  V30 2838 H 259.177 1.25102 -0.936973 0
M  V30 2839 H 259.912 3.15969 0.73036 0
M  V30 2840 H 259.697 3.81154 -0.919992 0
M  V30 2841 H 261.187 4.176 0.000667944 0
M  V30 2842 N 261.624 0.925811 1.2754 0
M  V30 2843 C 262.873 0.561084 1.93739 0
M  V30 2844 C 263.186 -0.901685 1.73577 0
M  V30 2845 O 264.392 -1.37511 2.34101 0
M  V30 2846 C 262.848 0.952668 3.47062 0
M  V30 2847 C 262.456 2.43599 3.75983 0
M  V30 2848 C 264.2 0.659103 4.19352 0
M  V30 2849 C 262.107 2.76707 5.22673 0
M  V30 2850 H 261.037 0.206122 0.725279 0
M  V30 2851 H 263.688 1.12637 1.44863 0
M  V30 2852 H 262.07 0.316053 3.94737 0
M  V30 2853 H 263.244 3.12035 3.39073 0
M  V30 2854 H 261.559 2.70125 3.16893 0
M  V30 2855 H 264.156 0.882985 5.27359 0
M  V30 2856 H 264.499 -0.403607 4.14339 0
M  V30 2857 H 265.032 1.25473 3.77494 0
M  V30 2858 H 261.771 3.8188 5.32774 0
M  V30 2859 H 261.291 2.12919 5.60737 0
M  V30 2860 H 262.97 2.6435 5.90532 0
M  V30 2861 N 263.102 -1.41638 0.69111 0
M  V30 2862 C 264.049 -2.30789 0.0229705 0
M  V30 2863 C 265.019 -1.46863 -0.775911 0
M  V30 2864 O 266.204 -1.75661 -0.74485 0
M  V30 2865 C 263.344 -3.32868 -0.910666 0
M  V30 2866 C 262.457 -4.31875 -0.103874 0
M  V30 2867 C 261.592 -5.21024 -1.03475 0
M  V30 2868 C 260.631 -6.11702 -0.220598 0
M  V30 2869 N 259.768 -6.93349 -1.10504 0
M  V30 2870 H 264.608 -2.87366 0.788978 0
M  V30 2871 H 262.145 -1.41535 0.400794 0
M  V30 2872 H 264.103 -3.90596 -1.46597 0
M  V30 2873 H 262.733 -2.77851 -1.64312 0
M  V30 2874 H 261.785 -3.76131 0.568285 0
M  V30 2875 H 263.097 -4.96003 0.527504 0
M  V30 2876 H 262.251 -5.83565 -1.65943 0
M  V30 2877 H 260.99 -4.57112 -1.69999 0
M  V30 2878 H 259.995 -5.48215 0.417187 0
M  V30 2879 H 261.22 -6.77668 0.440784 0
M  V30 2880 H 259.166 -6.3205 -1.75638 0
M  V30 2881 H 259.083 -7.54146 -0.529125 0
M  V30 2882 H 260.351 -7.60362 -1.71667 0
M  V30 2883 N 264.58 -0.43555 -1.51462 0
M  V30 2884 C 265.826 0.131709 -2.02372 0
M  V30 2885 C 266.159 1.42516 -1.3192 0
M  V30 2886 O 265.434 1.89606 -0.433573 0
M  V30 2887 C 265.717 0.352301 -3.58373 0
M  V30 2888 C 265.57 -0.959676 -4.39443 0
M  V30 2889 C 266.889 1.12286 -4.25535 0
M  V30 2890 H 264.008 0.0463936 -0.735538 0
M  V30 2891 H 266.65 -0.574197 -1.81116 0
M  V30 2892 H 264.8 0.9536 -3.76615 0
M  V30 2893 H 266.472 -1.59482 -4.32855 0
M  V30 2894 H 264.715 -1.56468 -4.04599 0
M  V30 2895 H 265.386 -0.759394 -5.46752 0
M  V30 2896 H 267.862 0.613545 -4.11552 0
M  V30 2897 H 266.738 1.24598 -5.34571 0
M  V30 2898 H 266.999 2.15048 -3.86273 0
M  V30 2899 N 266.058 1.56714 -0.166846 0
M  V30 2900 C 267.307 1.95922 0.479318 0
M  V30 2901 C 267.62 1.05529 1.6469 0
M  V30 2902 O 268.826 1.34399 2.35901 0
M  V30 2903 C 267.282 3.48359 0.90412 0
M  V30 2904 C 266.89 4.47369 -0.237621 0
M  V30 2905 C 268.634 3.96394 1.51896 0
M  V30 2906 C 266.541 5.91039 0.206561 0
M  V30 2907 H 265.471 0.731495 0.18284 0
M  V30 2908 H 268.122 1.81728 -0.254363 0
M  V30 2909 H 266.504 3.57955 1.69365 0
M  V30 2910 H 267.678 4.49485 -1.01489 0
M  V30 2911 H 265.993 4.09366 -0.762128 0
M  V30 2912 H 268.59 5.01186 1.86325 0
M  V30 2913 H 268.933 3.39075 2.41524 0
M  V30 2914 H 269.466 3.89796 0.79395 0
M  V30 2915 H 266.205 6.52221 -0.654834 0
M  V30 2916 H 265.725 5.9224 0.949282 0
M  V30 2917 H 267.404 6.43707 0.651939 0
M  V30 2918 N 267.536 -0.106894 1.57237 0
M  V30 2919 C 268.947 -0.662723 1.74542 0
M  V30 2920 C 269.298 -1.7971 0.787319 0
M  V30 2921 O 268.423 -2.16368 -0.0369636 0
M  V30 2922 C 269.018 -1.20896 3.16496 0
M  V30 2923 C 267.577 -1.71096 3.35266 0
M  V30 2924 C 266.724 -0.615642 2.7038 0
M  V30 2925 H 269.675 0.119106 1.58252 0
M  V30 2926 H 269.696 -2.07847 3.18716 0
M  V30 2927 H 269.208 -0.383122 3.86204 0
M  V30 2928 H 267.309 -2.56119 2.70618 0
M  V30 2929 H 267.422 -1.81208 4.43509 0
M  V30 2930 H 265.786 -1.05222 2.31949 0
M  V30 2931 H 266.569 0.199419 3.4272 0
M  V30 2932 N 269.014 -1.53014 -0.377408 0
M  V30 2933 C 270.242 -1.72515 -1.14219 0
M  V30 2934 C 270.657 -0.448735 -1.8339 0
M  V30 2935 O 270.014 0.577592 -1.73119 0
M  V30 2936 C 270.065 -2.8826 -2.18148 0
M  V30 2937 O 269.786 -4.10962 -1.51795 0
M  V30 2938 C 271.287 -3.19536 -3.07264 0
M  V30 2939 H 268.507 -0.577301 -0.342001 0
M  V30 2940 H 271.051 -1.99712 -0.439935 0
M  V30 2941 H 269.206 -2.63492 -2.83991 0
M  V30 2942 H 269.62 -4.75693 -2.20945 0
M  V30 2943 H 271.094 -4.03959 -3.76193 0
M  V30 2944 H 271.571 -2.34403 -3.71419 0
M  V30 2945 H 272.177 -3.46186 -2.47053 0
M  V30 2946 N 270.492 0.636531 -1.44174 0
M  V30 2947 C 271.738 1.39826 -1.4689 0
M  V30 2948 C 272.071 1.93947 -0.0990585 0
M  V30 2949 O 271.346 1.73325 0.882544 0
M  V30 2950 C 271.629 2.56751 -2.5249 0
M  V30 2951 C 271.482 2.08014 -3.98811 0
M  V30 2952 C 272.801 3.58946 -2.54649 0
M  V30 2953 H 269.92 0.507075 -0.53483 0
M  V30 2954 H 272.562 0.720188 -1.75822 0
M  V30 2955 H 270.712 3.14597 -2.2795 0
M  V30 2956 H 272.384 1.5504 -4.34466 0
M  V30 2957 H 270.627 1.39242 -4.10846 0
M  V30 2958 H 271.298 2.92169 -4.68339 0
M  V30 2959 H 273.774 3.1089 -2.76563 0
M  V30 2960 H 272.65 4.38286 -3.3045 0
M  V30 2961 H 272.911 4.12655 -1.58646 0
M  V30 2962 N 271.97 1.30982 0.876444 0
M  V30 2963 C 273.217 1.20296 1.62896 0
M  V30 2964 C 273.545 -0.240395 1.93009 0
M  V30 2965 O 272.8 -1.18733 1.55567 0
M  V30 2966 C 273.099 1.98572 2.9716 0
M  V30 2967 C 272.765 3.48125 2.86566 0
M  V30 2968 C 271.427 3.88905 2.83383 0
M  V30 2969 C 273.779 4.43322 2.74071 0
M  V30 2970 C 271.107 5.2316 2.65556 0
M  V30 2971 C 273.459 5.77695 2.57781 0
M  V30 2972 C 272.123 6.17704 2.52979 0
M  V30 2973 H 271.393 0.440193 0.59608 0
M  V30 2974 H 274.04 1.62177 1.01837 0
M  V30 2975 H 272.345 1.49352 3.62217 0
M  V30 2976 H 274.042 1.8769 3.54364 0
M  V30 2977 H 270.632 3.15723 2.89856 0
M  V30 2978 H 274.816 4.12752 2.75589 0
M  V30 2979 H 270.072 5.53241 2.60259 0
M  V30 2980 H 274.246 6.51091 2.47089 0
M  V30 2981 H 271.873 7.21678 2.38924 0
M  V30 2982 N 273.449 -1.08991 1.13837 0
M  V30 2983 C 274.396 -2.15748 0.819835 0
M  V30 2984 C 275.366 -1.64636 -0.220026 0
M  V30 2985 O 276.551 -1.90582 -0.0912757 0
M  V30 2986 C 273.691 -3.4382 0.296913 0
M  V30 2987 C 272.804 -4.0881 1.39636 0
M  V30 2988 C 271.939 -5.24655 0.831314 0
M  V30 2989 C 270.978 -5.81575 1.90886 0
M  V30 2990 N 270.115 -6.88774 1.36142 0
M  V30 2991 H 274.955 -2.42338 1.73426 0
M  V30 2992 H 272.492 -1.18935 0.865613 0
M  V30 2993 H 274.45 -4.17193 -0.0244339 0
M  V30 2994 H 273.08 -3.17535 -0.580628 0
M  V30 2995 H 272.132 -3.33258 1.83422 0
M  V30 2996 H 273.444 -4.47141 2.21058 0
M  V30 2997 H 272.598 -6.04942 0.461515 0
M  V30 2998 H 271.337 -4.87698 -0.013932 0
M  V30 2999 H 270.342 -4.99946 2.28767 0
M  V30 3000 H 271.567 -6.20592 2.75758 0
M  V30 3001 H 269.513 -6.53788 0.538254 0
M  V30 3002 H 269.43 -7.25898 2.11208 0
M  V30 3003 H 270.698 -7.72806 1.01933 0
M  V30 3004 N 274.927 -0.932562 -1.27047 0
M  V30 3005 C 275.89 -0.440064 -2.24936 0
M  V30 3006 C 276.89 0.444071 -1.54547 0
M  V30 3007 O 278.08 0.244465 -1.72476 0
M  V30 3008 C 275.212 0.36678 -3.38921 0
M  V30 3009 H 276.405 -1.305 -2.70018 0
M  V30 3010 H 273.958 -0.713707 -1.39054 0
M  V30 3011 H 274.693 1.25033 -2.99228 0
M  V30 3012 H 274.478 -0.267204 -3.91188 0
M  V30 3013 H 275.968 0.701567 -4.11665 0
M  V30 3014 N 276.405 1.4127 -0.698611 0
M  V30 3015 C 277.338 2.28195 0.0153898 0
M  V30 3016 C 278.316 1.42402 0.784883 0
M  V30 3017 O 279.5 1.71828 0.775067 0
M  V30 3018 C 276.627 3.22685 1.02918 0
M  V30 3019 C 275.673 4.25041 0.352501 0
M  V30 3020 S 276.506 5.27757 -0.907322 0
M  V30 3021 C 277.662 6.25812 0.104796 0
M  V30 3022 H 277.895 2.88403 -0.721858 0
M  V30 3023 H 275.428 1.46452 -0.488996 0
M  V30 3024 H 277.386 3.77655 1.60893 0
M  V30 3025 H 276.047 2.61566 1.73902 0
M  V30 3026 H 275.24 4.91437 1.11828 0
M  V30 3027 H 274.842 3.73682 -0.154254 0
M  V30 3028 H 277.134 6.70705 0.957103 0
M  V30 3029 H 278.077 7.06149 -0.525323 0
M  V30 3030 H 278.485 5.62615 0.460931 0
M  V30 3031 N 277.883 0.443576 1.51229 0
M  V30 3032 C 278.815 -0.400608 2.25672 0
M  V30 3033 C 279.828 -0.980945 1.29928 0
M  V30 3034 O 281.017 -0.874024 1.55638 0
M  V30 3035 C 278.117 -1.57304 3.00181 0
M  V30 3036 C 277.29 -1.11046 4.23069 0
M  V30 3037 C 276.349 -2.15374 4.80105 0
M  V30 3038 O 275.375 -1.74554 5.41774 0
M  V30 3039 N 276.577 -3.47922 4.64683 0
M  V30 3040 H 279.342 0.23745 2.98758 0
M  V30 3041 H 276.903 0.272809 1.59585 0
M  V30 3042 H 278.895 -2.26733 3.35223 0
M  V30 3043 H 277.465 -2.11632 2.30066 0
M  V30 3044 H 276.685 -0.243019 3.9345 0
M  V30 3045 H 277.973 -0.778888 5.02803 0
M  V30 3046 H 277.371 -3.83815 4.15575 0
M  V30 3047 H 275.928 -4.13228 5.0407 0
M  V30 3048 N 279.361 -1.56624 0.175154 0
M  V30 3049 C 280.294 -2.14 -0.792412 0
M  V30 3050 C 281.272 -1.07114 -1.22333 0
M  V30 3051 O 282.456 -1.35112 -1.31442 0
M  V30 3052 C 279.583 -2.68268 -2.0676 0
M  V30 3053 C 278.629 -3.87562 -1.7804 0
M  V30 3054 S 279.462 -5.27074 -0.946222 0
M  V30 3055 C 280.618 -5.8475 -2.23199 0
M  V30 3056 H 280.851 -2.95736 -0.304588 0
M  V30 3057 H 278.384 -1.54349 -0.0395705 0
M  V30 3058 H 280.342 -3.00182 -2.80002 0
M  V30 3059 H 279.003 -1.86612 -2.52656 0
M  V30 3060 H 278.196 -4.23874 -2.72666 0
M  V30 3061 H 277.798 -3.56555 -1.12891 0
M  V30 3062 H 280.09 -5.97898 -3.18629 0
M  V30 3063 H 281.033 -6.81756 -1.91349 0
M  V30 3064 H 281.441 -5.13198 -2.35134 0
M  V30 3065 N 280.839 0.0985539 -1.57292 0
M  V30 3066 C 281.771 1.14595 -1.98496 0
M  V30 3067 C 282.784 1.36512 -0.887031 0
M  V30 3068 O 283.973 1.35225 -1.16518 0
M  V30 3069 C 281.073 2.50216 -2.28572 0
M  V30 3070 C 280.246 2.48624 -3.59868 0
M  V30 3071 C 279.305 3.66146 -3.7792 0
M  V30 3072 O 278.331 3.48795 -4.49812 0
M  V30 3073 N 279.533 4.85496 -3.18235 0
M  V30 3074 H 282.298 0.795277 -2.88956 0
M  V30 3075 H 279.859 0.287579 -1.59325 0
M  V30 3076 H 281.851 3.27432 -2.37845 0
M  V30 3077 H 280.421 2.77387 -1.44136 0
M  V30 3078 H 279.641 1.56978 -3.61596 0
M  V30 3079 H 280.929 2.44635 -4.46129 0
M  V30 3080 H 280.327 5.02497 -2.59833 0
M  V30 3081 H 278.884 5.60317 -3.32999 0
M  V30 3082 N 282.317 1.53212 0.369288 0
M  V30 3083 C 283.227 1.82342 1.47609 0
M  V30 3084 C 284.243 0.711532 1.58787 0
M  V30 3085 O 285.419 1.0012 1.74751 0
M  V30 3086 C 282.484 2.00393 2.8292 0
M  V30 3087 C 281.545 3.24297 2.81301 0
M  V30 3088 C 280.778 3.41478 4.10157 0
M  V30 3089 O 281.001 2.63033 5.06132 0
M  V30 3090 O 279.935 4.34817 4.16194 0
M  V30 3091 H 283.761 2.76366 1.25918 0
M  V30 3092 H 281.346 1.38547 0.559034 0
M  V30 3093 H 283.228 2.13859 3.63101 0
M  V30 3094 H 281.903 1.09559 3.04596 0
M  V30 3095 H 280.81 3.16257 1.99831 0
M  V30 3096 H 282.143 4.15041 2.64578 0
M  V30 3097 N 283.795 -0.628877 1.44509 0
M  V30 3098 C 285.211 -0.947305 1.28446 0
M  V30 3099 C 285.411 -2.00275 0.221872 0
M  V30 3100 O 284.467 -2.49447 -0.391471 0
M  V30 3101 C 285.78 -1.40843 2.65676 0
M  V30 3102 C 287.328 -1.52379 2.73404 0
M  V30 3103 C 287.803 -2.01875 4.11109 0
M  V30 3104 N 289.294 -2.09142 4.13296 0
M  V30 3105 C 290.029 -2.48615 5.16699 0
M  V30 3106 N 289.525 -2.87209 6.30462 0
M  V30 3107 N 291.318 -2.48768 5.04054 0
M  V30 3108 H 283.469 0.0690977 2.12288 0
M  V30 3109 H 285.732 -0.0317164 0.947469 0
M  V30 3110 H 285.438 -0.707206 3.44516 0
M  V30 3111 H 285.312 -2.37902 2.92716 0
M  V30 3112 H 287.699 -2.21598 1.9488 0
M  V30 3113 H 287.78 -0.536898 2.50102 0
M  V30 3114 H 287.424 -1.3325 4.90109 0
M  V30 3115 H 287.354 -3.0144 4.31789 0
M  V30 3116 H 289.845 -1.81991 3.31191 0
M  V30 3117 H 290.158 -3.16149 7.05174 0
M  V30 3118 H 288.503 -2.84955 6.33897 0
M  V30 3119 H 291.694 -2.18009 4.14234 0
M  V30 3120 H 291.867 -2.79207 5.84763 0
M  V30 3121 N 285.273 -1.31445 -0.869486 0
M  V30 3122 C 286.55 -1.11795 -1.60503 0
M  V30 3123 C 286.93 0.327168 -2.08549 0
M  V30 3124 O 286.278 1.32135 -1.8642 0
M  V30 3125 C 286.488 -2.13258 -2.76265 0
M  V30 3126 C 287.836 -2.45805 -3.46215 0
M  V30 3127 O 288.86 -2.11688 -2.86473 0
M  V30 3128 O 287.719 -3.04228 -4.5399 0
M  V30 3129 H 284.813 -0.430421 -0.706163 0
M  V30 3130 H 287.359 -1.42925 -0.914907 0
M  V30 3131 H 286.131 -3.10461 -2.3818 0
M  V30 3132 H 285.754 -1.83035 -3.52964 0
M  V30 3133 N 286.751 1.08385 -1.14413 0
M  V30 3134 C 287.979 1.84517 -0.936001 0
M  V30 3135 C 288.394 1.81626 0.515503 0
M  V30 3136 O 287.751 1.22008 1.35721 0
M  V30 3137 C 287.802 3.32049 -1.42918 0
M  V30 3138 O 287.523 3.34951 -2.82381 0
M  V30 3139 C 289.024 4.24986 -1.26103 0
M  V30 3140 H 286.244 0.582491 -0.333084 0
M  V30 3141 H 288.788 1.36885 -1.5193 0
M  V30 3142 H 286.943 3.7707 -0.888641 0
M  V30 3143 H 287.357 4.27048 -3.04517 0
M  V30 3144 H 288.831 5.26615 -1.6547 0
M  V30 3145 H 289.308 4.38726 -0.20392 0
M  V30 3146 H 289.914 3.85791 -1.79012 0
M  V30 3147 N 288.23 0.939286 1.26551 0
M  V30 3148 C 289.16 0.465044 2.28822 0
M  V30 3149 C 290.141 -0.480692 1.63167 0
M  V30 3150 O 291.326 -0.382955 1.90387 0
M  V30 3151 C 288.456 -0.27234 3.46231 0
M  V30 3152 C 287.41 0.58666 4.2396 0
M  V30 3153 C 286.736 -0.280573 5.33963 0
M  V30 3154 C 288.036 1.85704 4.88171 0
M  V30 3155 H 289.73 1.31979 2.68741 0
M  V30 3156 H 287.276 0.636061 1.29191 0
M  V30 3157 H 289.229 -0.615133 4.16886 0
M  V30 3158 H 287.953 -1.16121 3.0526 0
M  V30 3159 H 286.612 0.91232 3.55067 0
M  V30 3160 H 286.26 -1.16874 4.89234 0
M  V30 3161 H 285.96 0.29076 5.8688 0
M  V30 3162 H 287.484 -0.618678 6.07458 0
M  V30 3163 H 288.898 1.58161 5.51052 0
M  V30 3164 H 287.295 2.37279 5.51197 0
M  V30 3165 H 288.365 2.56957 4.11219 0
M  V30 3166 N 289.708 -1.40897 0.706093 0
M  V30 3167 C 290.638 -2.33418 0.0620085 0
M  V30 3168 C 291.619 -1.52385 -0.755827 0
M  V30 3169 O 292.804 -1.80886 -0.706674 0
M  V30 3170 C 289.934 -3.36293 -0.867445 0
M  V30 3171 C 288.888 -4.27716 -0.155932 0
M  V30 3172 C 288.214 -5.2105 -1.20046 0
M  V30 3173 C 289.514 -5.12944 0.984149 0
M  V30 3174 H 291.208 -2.87527 0.83477 0
M  V30 3175 H 288.754 -1.38249 0.402875 0
M  V30 3176 H 290.707 -3.99949 -1.32735 0
M  V30 3177 H 289.431 -2.80556 -1.67199 0
M  V30 3178 H 288.09 -3.65498 0.284047 0
M  V30 3179 H 287.738 -4.61624 -1.99781 0
M  V30 3180 H 287.438 -5.83056 -0.729328 0
M  V30 3181 H 288.962 -5.87584 -1.66066 0
M  V30 3182 H 290.376 -5.70109 0.604048 0
M  V30 3183 H 288.773 -5.83945 1.38304 0
M  V30 3184 H 289.843 -4.49485 1.81911 0
M  V30 3185 N 291.186 -0.45159 -1.50991 0
M  V30 3186 C 292.133 0.352625 -2.2809 0
M  V30 3187 C 293.103 1.0044 -1.32291 0
M  V30 3188 O 294.288 1.02058 -1.6121 0
M  V30 3189 C 291.428 1.43983 -3.13629 0
M  V30 3190 C 290.541 0.804772 -4.24438 0
M  V30 3191 C 289.676 1.86822 -4.97263 0
M  V30 3192 C 288.715 1.21236 -5.99973 0
M  V30 3193 N 287.852 2.2178 -6.66152 0
M  V30 3194 H 292.692 -0.311186 -2.96371 0
M  V30 3195 H 290.229 -0.165308 -1.46168 0
M  V30 3196 H 292.187 2.08161 -3.61559 0
M  V30 3197 H 290.817 2.07307 -2.47434 0
M  V30 3198 H 289.869 0.0509129 -3.80366 0
M  V30 3199 H 291.181 0.286076 -4.97979 0
M  V30 3200 H 290.335 2.58628 -5.48813 0
M  V30 3201 H 289.074 2.42068 -4.23385 0
M  V30 3202 H 288.079 0.479828 -5.47702 0
M  V30 3203 H 289.304 0.667051 -6.75816 0
M  V30 3204 H 287.25 2.76079 -5.95077 0
M  V30 3205 H 287.167 1.74841 -7.35504 0
M  V30 3206 H 288.435 2.93026 -7.22327 0
M  V30 3207 N 292.664 1.56529 -0.183458 0
M  V30 3208 C 293.627 2.17324 0.728223 0
M  V30 3209 C 294.627 1.12453 1.14939 0
M  V30 3210 O 295.817 1.37902 1.06437 0
M  V30 3211 C 292.949 2.76591 1.99274 0
M  V30 3212 H 294.142 2.99241 0.198772 0
M  V30 3213 H 291.695 1.5616 0.0661391 0
M  V30 3214 H 292.43 1.98441 2.56499 0
M  V30 3215 H 292.215 3.5335 1.69959 0
M  V30 3216 H 293.705 3.23311 2.6431 0
M  V30 3217 N 294.142 -0.090211 1.57342 0
M  V30 3218 C 295.072 -1.10976 2.05443 0
M  V30 3219 C 296.053 -1.41482 0.944284 0
M  V30 3220 O 297.238 -1.51428 1.21586 0
M  V30 3221 C 294.368 -2.42831 2.48295 0
M  V30 3222 C 293.322 -2.26721 3.63018 0
M  V30 3223 C 292.648 -3.63796 3.91863 0
M  V30 3224 C 293.948 -1.7037 4.93732 0
M  V30 3225 H 295.642 -0.709564 2.9087 0
M  V30 3226 H 293.188 -0.339874 1.39932 0
M  V30 3227 H 295.141 -3.14431 2.80555 0
M  V30 3228 H 293.865 -2.84795 1.59873 0
M  V30 3229 H 292.524 -1.57565 3.31012 0
M  V30 3230 H 292.172 -4.03297 3.00601 0
M  V30 3231 H 291.872 -3.53861 4.69101 0
M  V30 3232 H 293.396 -4.36855 4.26603 0
M  V30 3233 H 294.81 -2.31816 5.24342 0
M  V30 3234 H 293.207 -1.71181 5.75167 0
M  V30 3235 H 294.277 -0.663542 4.80339 0
M  V30 3236 N 295.62 -1.53406 -0.361157 0
M  V30 3237 C 296.55 -1.83136 -1.44857 0
M  V30 3238 C 297.531 -0.685174 -1.5569 0
M  V30 3239 O 298.716 -0.93544 -1.70186 0
M  V30 3240 C 295.846 -2.02522 -2.82138 0
M  V30 3241 C 294.8 -3.18302 -2.86126 0
M  V30 3242 C 294.126 -3.22989 -4.26125 0
M  V30 3243 C 295.426 -4.56796 -2.53248 0
M  V30 3244 H 297.12 -2.74201 -1.20226 0
M  V30 3245 H 294.666 -1.31938 -0.576922 0
M  V30 3246 H 296.619 -2.21904 -3.58241 0
M  V30 3247 H 295.343 -1.08172 -3.08166 0
M  V30 3248 H 294.002 -2.98747 -2.12475 0
M  V30 3249 H 293.65 -2.26267 -4.49235 0
M  V30 3250 H 293.35 -4.00781 -4.29708 0
M  V30 3251 H 294.874 -3.44559 -5.04094 0
M  V30 3252 H 296.288 -4.7631 -3.19064 0
M  V30 3253 H 294.685 -5.36862 -2.68141 0
M  V30 3254 H 295.755 -4.61606 -1.48484 0
M  V30 3255 N 297.098 0.621204 -1.44841 0
M  V30 3256 C 298.008 1.7612 -1.5498 0
M  V30 3257 C 299.024 1.68477 -0.434927 0
M  V30 3258 O 300.2 1.89076 -0.693693 0
M  V30 3259 C 297.265 3.1254 -1.50065 0
M  V30 3260 C 296.326 3.31741 -2.72482 0
M  V30 3261 C 295.559 4.61653 -2.67792 0
M  V30 3262 O 295.782 5.431 -1.74352 0
M  V30 3263 O 294.716 4.83271 -3.58794 0
M  V30 3264 H 298.542 1.70518 -2.51311 0
M  V30 3265 H 296.127 0.783643 -1.27198 0
M  V30 3266 H 298.009 3.93844 -1.49882 0
M  V30 3267 H 296.684 3.18663 -0.568806 0
M  V30 3268 H 295.591 2.50077 -2.7823 0
M  V30 3269 H 296.924 3.30486 -3.64746 0
M  V30 3270 N 298.576 1.31904 0.862503 0
M  V30 3271 C 299.825 1.21373 1.61094 0
M  V30 3272 C 300.138 -0.22504 1.94301 0
M  V30 3273 O 301.344 -0.452121 2.67709 0
M  V30 3274 C 299.8 2.12525 2.9045 0
M  V30 3275 C 299.408 3.61441 2.64697 0
M  V30 3276 C 301.152 2.10813 3.68454 0
M  V30 3277 C 299.059 4.44578 3.90006 0
M  V30 3278 H 297.989 0.450705 0.604468 0
M  V30 3279 H 300.64 1.56811 0.953027 0
M  V30 3280 H 299.022 1.69994 3.57656 0
M  V30 3281 H 300.196 4.12264 2.05851 0
M  V30 3282 H 298.511 3.65205 2.00036 0
M  V30 3283 H 301.108 2.70167 4.61426 0
M  V30 3284 H 301.451 1.09713 4.01583 0
M  V30 3285 H 301.984 2.51583 3.08141 0
M  V30 3286 H 298.723 5.46461 3.62023 0
M  V30 3287 H 298.243 3.98508 4.48276 0
M  V30 3288 H 299.922 4.57176 4.5782 0
M  V30 3289 N 300.054 -1.07777 1.14986 0
M  V30 3290 C 301.017 -2.13041 0.845358 0
M  V30 3291 C 302.017 -1.60071 -0.152931 0
M  V30 3292 O 303.207 -1.74033 0.0761879 0
M  V30 3293 C 300.339 -3.39896 0.261383 0
M  V30 3294 H 301.532 -2.41485 1.77834 0
M  V30 3295 H 299.085 -1.23595 0.956757 0
M  V30 3296 H 299.82 -3.17091 -0.68 0
M  V30 3297 H 299.605 -3.79642 0.980514 0
M  V30 3298 H 301.095 -4.17548 0.0657687 0
M  V30 3299 N 301.532 -0.945985 -1.26051 0
M  V30 3300 C 302.757 -0.612525 -1.98149 0
M  V30 3301 C 303.182 0.806623 -1.69927 0
M  V30 3302 O 302.54 1.54411 -0.950108 0
M  V30 3303 C 302.588 -0.866981 -3.50023 0
M  V30 3304 O 301.692 0.0585333 -4.12358 0
M  V30 3305 H 301.033 -0.23379 -0.621481 0
M  V30 3306 H 303.563 -1.27023 -1.60395 0
M  V30 3307 H 303.573 -0.789792 -4.00283 0
M  V30 3308 H 302.248 -1.90135 -3.69894 0
M  V30 3309 H 300.825 -0.0701241 -3.72834 0
M  V30 3310 N 303.011 1.40521 -0.713556 0
M  V30 3311 C 304.251 2.02783 -0.256584 0
M  V30 3312 C 304.615 1.55352 1.12827 0
M  V30 3313 O 305.816 2.09663 1.68211 0
M  V30 3314 C 304.087 3.5586 -0.331414 0
M  V30 3315 S 305.646 4.38773 0.0488703 0
M  V30 3316 H 302.464 0.703655 -0.101934 0
M  V30 3317 H 305.066 1.71674 -0.935325 0
M  V30 3318 H 303.77 3.87874 -1.34098 0
M  V30 3319 H 303.301 3.91695 0.365873 0
M  V30 3320 H 305.316 4.79633 1.2715 0
M  V30 3321 N 304.489 0.459591 1.5075 0
M  V30 3322 C 305.419 -0.330644 2.31147 0
M  V30 3323 C 306.4 -1.00087 1.37538 0
M  V30 3324 O 307.585 -1.00025 1.66459 0
M  V30 3325 C 304.715 -1.41958 3.16962 0
M  V30 3326 C 303.669 -0.871608 4.19031 0
M  V30 3327 C 302.995 -2.05797 4.9351 0
M  V30 3328 C 304.295 0.109251 5.22186 0
M  V30 3329 H 305.989 0.340336 2.97459 0
M  V30 3330 H 303.535 0.165119 1.4305 0
M  V30 3331 H 305.488 -1.9798 3.71997 0
M  V30 3332 H 304.212 -2.11917 2.48513 0
M  V30 3333 H 302.871 -0.333442 3.6508 0
M  V30 3334 H 302.519 -2.74427 4.21544 0
M  V30 3335 H 302.219 -1.6976 5.62544 0
M  V30 3336 H 303.743 -2.62331 5.51375 0
M  V30 3337 H 305.157 -0.361405 5.7216 0
M  V30 3338 H 303.554 0.383316 5.98875 0
M  V30 3339 H 304.624 1.03887 4.73641 0
M  V30 3340 N 305.967 -1.56429 0.191757 0
M  V30 3341 C 306.877 -2.22541 -0.742481 0
M  V30 3342 C 307.893 -1.22342 -1.23727 0
M  V30 3343 O 309.069 -1.55069 -1.28513 0
M  V30 3344 C 306.134 -2.8692 -1.94623 0
M  V30 3345 C 305.195 -4.02378 -1.49633 0
M  V30 3346 C 304.428 -4.63678 -2.6427 0
M  V30 3347 O 304.651 -4.23895 -3.81666 0
M  V30 3348 O 303.585 -5.53202 -2.37174 0
M  V30 3349 H 307.411 -3.02977 -0.209462 0
M  V30 3350 H 304.996 -1.49353 -0.0373832 0
M  V30 3351 H 306.878 -3.27663 -2.64982 0
M  V30 3352 H 305.553 -2.09466 -2.46791 0
M  V30 3353 H 304.46 -3.66265 -0.761636 0
M  V30 3354 H 305.793 -4.81487 -1.02134 0
M  V30 3355 N 307.445 0.0818655 -1.57387 0
M  V30 3356 C 308.392 1.09834 -2.0299 0
M  V30 3357 C 309.362 1.39043 -0.908639 0
M  V30 3358 O 310.547 1.50282 -1.17559 0
M  V30 3359 C 307.687 2.40971 -2.47037 0
M  V30 3360 C 306.8 2.18379 -3.7274 0
M  V30 3361 C 305.935 3.43008 -4.0561 0
M  V30 3362 C 304.974 3.15736 -5.24383 0
M  V30 3363 N 304.111 4.32667 -5.52941 0
M  V30 3364 H 308.951 0.702472 -2.89602 0
M  V30 3365 H 306.488 0.33531 -1.43227 0
M  V30 3366 H 308.446 3.1752 -2.70623 0
M  V30 3367 H 307.076 2.78379 -1.63417 0
M  V30 3368 H 306.128 1.32569 -3.56552 0
M  V30 3369 H 307.44 1.94227 -4.59431 0
M  V30 3370 H 306.594 4.27958 -4.30043 0
M  V30 3371 H 305.333 3.70225 -3.17466 0
M  V30 3372 H 304.338 2.2918 -4.99757 0
M  V30 3373 H 305.563 2.8985 -6.14136 0
M  V30 3374 H 303.509 4.59935 -4.67756 0
M  V30 3375 H 303.426 4.11753 -6.34031 0
M  V30 3376 H 304.694 5.18644 -5.81918 0
M  V30 3377 N 308.923 1.53595 0.353017 0
M  V30 3378 C 309.886 1.80232 1.41594 0
M  V30 3379 C 310.886 0.673081 1.46035 0
M  V30 3380 O 312.076 0.941335 1.46576 0
M  V30 3381 C 309.208 1.93578 2.80607 0
M  V30 3382 H 310.401 2.75174 1.19244 0
M  V30 3383 H 307.954 1.44864 0.586872 0
M  V30 3384 H 308.689 1.00746 3.08254 0
M  V30 3385 H 308.474 2.75724 2.78781 0
M  V30 3386 H 309.964 2.15735 3.57558 0
M  V30 3387 N 310.401 -0.613514 1.45168 0
M  V30 3388 C 311.331 -1.7354 1.56225 0
M  V30 3389 C 312.312 -1.64981 0.41414 0
M  V30 3390 O 313.497 -1.83472 0.636526 0
M  V30 3391 C 310.627 -3.12128 1.52295 0
M  V30 3392 C 309.581 -3.35491 2.65762 0
M  V30 3393 C 308.907 -4.74291 2.46885 0
M  V30 3394 C 310.207 -3.26325 4.0781 0
M  V30 3395 H 311.901 -1.64543 2.50132 0
M  V30 3396 H 309.447 -0.790185 1.20383 0
M  V30 3397 H 311.4 -3.90404 1.58628 0
M  V30 3398 H 310.124 -3.2195 0.549139 0
M  V30 3399 H 308.783 -2.59603 2.58847 0
M  V30 3400 H 308.431 -4.80839 1.47657 0
M  V30 3401 H 308.131 -4.9088 3.22972 0
M  V30 3402 H 309.655 -5.54775 2.55063 0
M  V30 3403 H 311.069 -3.94483 4.16 0
M  V30 3404 H 309.466 -3.54445 4.8424 0
M  V30 3405 H 310.536 -2.23855 4.30136 0
M  V30 3406 N 311.879 -1.3236 -0.855495 0
M  V30 3407 C 312.811 -1.17052 -1.97057 0
M  V30 3408 C 313.824 -0.10574 -1.62456 0
M  V30 3409 O 315.013 -0.354619 -1.74942 0
M  V30 3410 C 312.113 -0.769305 -3.30053 0
M  V30 3411 C 311.286 -1.9222 -3.929 0
M  V30 3412 C 310.345 -1.50466 -5.04228 0
M  V30 3413 O 309.371 -2.21655 -5.24269 0
M  V30 3414 N 310.573 -0.400209 -5.79119 0
M  V30 3415 H 313.338 -2.13103 -2.1073 0
M  V30 3416 H 310.899 -1.24885 -1.0303 0
M  V30 3417 H 312.891 -0.472407 -4.01933 0
M  V30 3418 H 311.461 0.100025 -3.1244 0
M  V30 3419 H 310.681 -2.38563 -3.13817 0
M  V30 3420 H 311.969 -2.69403 -4.31624 0
M  V30 3421 H 311.367 0.192319 -5.65373 0
M  V30 3422 H 309.924 -0.162912 -6.51596 0
M  V30 3423 N 313.357 1.07166 -1.15556 0
M  V30 3424 C 314.603 1.80065 -0.932984 0
M  V30 3425 C 314.936 1.86586 0.53845 0
M  V30 3426 O 314.211 1.35098 1.39924 0
M  V30 3427 C 314.494 3.25022 -1.55025 0
M  V30 3428 C 314.347 3.26634 -3.09242 0
M  V30 3429 C 315.666 4.22341 -1.2376 0
M  V30 3430 H 312.785 0.653697 -0.340366 0
M  V30 3431 H 315.427 1.25389 -1.4275 0
M  V30 3432 H 313.577 3.71712 -1.12972 0
M  V30 3433 H 315.249 2.88173 -3.60214 0
M  V30 3434 H 313.492 2.65539 -3.43033 0
M  V30 3435 H 314.163 4.28854 -3.47546 0
M  V30 3436 H 316.639 3.8405 -1.60139 0
M  V30 3437 H 315.515 5.22053 -1.69564 0
M  V30 3438 H 315.776 4.41828 -0.154938 0
M  V30 3439 N 314.835 0.952656 1.25548 0
M  V30 3440 C 316.082 0.606373 1.93208 0
M  V30 3441 C 316.41 -0.85631 1.74636 0
M  V30 3442 O 315.665 -1.62951 1.08376 0
M  V30 3443 C 315.964 0.908818 3.45652 0
M  V30 3444 C 315.63 2.35722 3.84378 0
M  V30 3445 C 314.292 2.75312 3.9466 0
M  V30 3446 C 316.644 3.29793 4.03591 0
M  V30 3447 C 313.972 4.08047 4.21562 0
M  V30 3448 C 316.324 4.62138 4.31985 0
M  V30 3449 C 314.988 5.01528 4.40484 0
M  V30 3450 H 314.258 0.221888 0.706998 0
M  V30 3451 H 316.905 1.20132 1.49133 0
M  V30 3452 H 315.21 0.231456 3.91116 0
M  V30 3453 H 316.907 0.619498 3.96186 0
M  V30 3454 H 313.497 2.04017 3.76928 0
M  V30 3455 H 317.681 3.00397 3.95064 0
M  V30 3456 H 312.937 4.38212 4.26357 0
M  V30 3457 H 317.111 5.35012 4.45797 0
M  V30 3458 H 314.738 6.04406 4.61083 0
M  V30 3459 N 316.313 -1.40141 0.720998 0
M  V30 3460 C 317.263 -2.27949 0.0482544 0
M  V30 3461 C 318.247 -1.43538 -0.727021 0
M  V30 3462 O 319.439 -1.6658 -0.598332 0
M  V30 3463 C 316.568 -3.32126 -0.868729 0
M  V30 3464 C 315.654 -4.24008 -0.0883515 0
M  V30 3465 N 316.045 -4.97154 0.931226 0
M  V30 3466 C 314.343 -4.4485 -0.320105 0
M  V30 3467 C 315.044 -5.64587 1.4006 0
M  V30 3468 N 314.02 -5.38787 0.721752 0
M  V30 3469 H 317.822 -2.81948 0.829609 0
M  V30 3470 H 315.336 -1.52656 0.554067 0
M  V30 3471 H 317.333 -3.93884 -1.36605 0
M  V30 3472 H 315.993 -2.79687 -1.6494 0
M  V30 3473 H 317.004 -5.01 1.31222 0
M  V30 3474 H 313.681 -4.03378 -1.07668 0
M  V30 3475 H 315.071 -6.33175 2.24808 0
M  V30 3476 N 317.792 -0.46758 -1.50504 0
M  V30 3477 C 318.724 0.364655 -2.26281 0
M  V30 3478 C 319.737 0.960151 -1.31472 0
M  V30 3479 O 320.926 0.849153 -1.57008 0
M  V30 3480 C 318.026 1.52509 -3.02645 0
M  V30 3481 C 317.199 1.04302 -4.24782 0
M  V30 3482 C 316.258 2.07709 -4.8347 0
M  V30 3483 O 315.284 1.65913 -5.44483 0
M  V30 3484 N 316.486 3.40485 -4.70159 0
M  V30 3485 H 319.251 -0.28495 -2.98342 0
M  V30 3486 H 316.812 -0.298163 -1.59131 0
M  V30 3487 H 318.804 2.21371 -3.38787 0
M  V30 3488 H 317.374 2.07945 -2.33404 0
M  V30 3489 H 316.594 0.180393 -3.93787 0
M  V30 3490 H 317.882 0.698798 -5.03978 0
M  V30 3491 H 317.28 3.77155 -4.21629 0
M  V30 3492 H 315.837 4.05156 -5.1058 0
M  V30 3493 N 319.27 1.56325 -0.20005 0
M  V30 3494 C 320.519 1.96895 0.437652 0
M  V30 3495 C 320.832 1.08999 1.62415 0
M  V30 3496 O 322.038 1.39372 2.32997 0
M  V30 3497 C 320.494 3.50198 0.830025 0
M  V30 3498 C 320.102 4.46765 -0.332461 0
M  V30 3499 C 321.846 3.99526 1.43453 0
M  V30 3500 C 319.753 5.91344 0.0811468 0
M  V30 3501 H 318.683 0.735209 0.167282 0
M  V30 3502 H 321.334 1.81148 -0.292853 0
M  V30 3503 H 319.716 3.61467 1.61734 0
M  V30 3504 H 320.89 4.47231 -1.11 0
M  V30 3505 H 319.205 4.07657 -0.848789 0
M  V30 3506 H 321.802 5.05025 1.75652 0
M  V30 3507 H 322.145 3.44122 2.34277 0
M  V30 3508 H 322.678 3.91393 0.71109 0
M  V30 3509 H 319.417 6.50685 -0.793033 0
M  V30 3510 H 318.937 5.94121 0.823445 0
M  V30 3511 H 320.616 6.44945 0.515252 0
M  V30 3512 N 320.748 -0.0735177 1.57428 0
M  V30 3513 C 321.698 -1.09442 2.00016 0
M  V30 3514 C 322.682 -1.34575 0.881947 0
M  V30 3515 O 323.874 -1.34905 1.14585 0
M  V30 3516 C 321.003 -2.40865 2.4462 0
M  V30 3517 C 320.089 -2.19014 3.63172 0
M  V30 3518 N 320.48 -1.67087 4.77405 0
M  V30 3519 C 318.778 -2.49494 3.69688 0
M  V30 3520 C 319.479 -1.6001 5.5926 0
M  V30 3521 N 318.455 -2.05999 5.03056 0
M  V30 3522 H 322.257 -0.686227 2.85776 0
M  V30 3523 H 319.771 -0.280617 1.59957 0
M  V30 3524 H 321.768 -3.14763 2.73368 0
M  V30 3525 H 320.428 -2.82403 1.60246 0
M  V30 3526 H 321.439 -1.35975 4.99731 0
M  V30 3527 H 318.116 -2.94409 2.96023 0
M  V30 3528 H 319.506 -1.2073 6.60964 0
M  V30 3529 N 322.226 -1.5378 -0.344866 0
M  V30 3530 C 323.503 -1.61589 -1.10219 0
M  V30 3531 C 323.883 -0.436316 -2.06542 0
M  V30 3532 O 323.231 0.571543 -2.21237 0
M  V30 3533 C 323.441 -2.97602 -1.82301 0
M  V30 3534 C 324.789 -3.5291 -2.36093 0
M  V30 3535 O 325.813 -2.99768 -1.924 0
M  V30 3536 O 324.672 -4.45859 -3.16026 0
M  V30 3537 H 321.766 -0.653522 -0.506792 0
M  V30 3538 H 324.312 -1.66126 -0.346465 0
M  V30 3539 H 323.084 -3.74893 -1.12121 0
M  V30 3540 H 322.707 -2.9665 -2.64735 0
M  V30 3541 N 323.704 0.605807 -1.45491 0
M  V30 3542 C 324.654 1.71074 -1.50724 0
M  V30 3543 C 325.638 1.5658 -0.37033 0
M  V30 3544 O 326.83 1.65887 -0.617299 0
M  V30 3545 C 323.959 3.0983 -1.47852 0
M  V30 3546 C 323.045 3.29704 -2.66751 0
M  V30 3547 N 323.436 3.19831 -3.91844 0
M  V30 3548 C 321.734 3.60579 -2.62486 0
M  V30 3549 C 322.435 3.41083 -4.71208 0
M  V30 3550 N 321.411 3.65157 -4.02693 0
M  V30 3551 H 325.213 1.61937 -2.45263 0
M  V30 3552 H 322.727 0.80912 -1.40808 0
M  V30 3553 H 324.724 3.89101 -1.49686 0
M  V30 3554 H 323.384 3.20115 -0.543714 0
M  V30 3555 H 324.395 2.98194 -4.23439 0
M  V30 3556 H 321.072 3.7769 -1.77922 0
M  V30 3557 H 322.462 3.38828 -5.80211 0
M  V30 3558 N 325.182 1.32811 0.848464 0
M  V30 3559 C 326.428 1.23907 1.60546 0
M  V30 3560 C 326.761 -0.197161 1.93197 0
M  V30 3561 O 326.036 -1.13596 1.5788 0
M  V30 3562 C 326.319 2.10489 2.92175 0
M  V30 3563 C 326.172 3.62522 2.66266 0
M  V30 3564 C 327.491 1.97075 3.93509 0
M  V30 3565 H 324.61 0.451459 0.58254 0
M  V30 3566 H 327.252 1.62818 0.979296 0
M  V30 3567 H 325.402 1.77434 3.45614 0
M  V30 3568 H 327.074 4.05821 2.19334 0
M  V30 3569 H 325.317 3.84879 2.00126 0
M  V30 3570 H 325.988 4.18437 3.6002 0
M  V30 3571 H 328.464 2.26045 3.49346 0
M  V30 3572 H 327.34 2.59923 4.83457 0
M  V30 3573 H 327.601 0.940186 4.31987 0
M  V30 3574 N 326.66 -1.06551 1.16123 0
M  V30 3575 C 327.608 -2.16063 0.861371 0
M  V30 3576 C 328.602 -1.6856 -0.168517 0
M  V30 3577 O 329.808 -1.79986 -0.0227579 0
M  V30 3578 H 326.183 -0.705278 0.260934 0
M  V30 3579 H 328.154 -2.38567 1.79244 0
M  V30 3580 C 326.903 -3.45661 0.376018 0
M  V30 3581 H 326.226 -3.82604 1.15992 0
M  V30 3582 H 327.666 -4.23504 0.204951 0
M  V30 3583 C 326.125 -3.24546 -0.903954 0
M  V30 3584 O 326.655 -3.49865 -1.97377 0
M  V30 3585 N 324.861 -2.77992 -0.846679 0
M  V30 3586 H 324.408 -2.57589 0.0241017 0
M  V30 3587 H 324.366 -2.64244 -1.70359 0
M  V30 3588 N 328.138 -0.959301 -1.25041 0
M  V30 3589 C 329.549 -0.65667 -1.74771 0
M  V30 3590 C 329.9 0.827852 -1.77879 0
M  V30 3591 O 329.025 1.64783 -1.40269 0
M  V30 3592 C 329.62 -1.1853 -3.1739 0
M  V30 3593 C 328.179 -0.932734 -3.6466 0
M  V30 3594 C 327.326 -1.32558 -2.43564 0
M  V30 3595 H 330.277 -1.13558 -1.10862 0
M  V30 3596 H 330.298 -0.547582 -3.76539 0
M  V30 3597 H 329.81 -2.26576 -3.15095 0
M  V30 3598 H 327.911 0.13257 -3.72364 0
M  V30 3599 H 328.024 -1.57248 -4.52559 0
M  V30 3600 H 326.388 -0.743956 -2.43593 0
M  V30 3601 H 327.171 -2.41537 -2.43957 0
M  V30 3602 N 329.616 1.39756 -0.72842 0
M  V30 3603 C 330.563 2.30647 -0.0841519 0
M  V30 3604 C 331.533 1.48869 0.7367 0
M  V30 3605 O 332.718 1.77574 0.698015 0
M  V30 3606 C 329.858 3.35165 0.822091 0
M  V30 3607 C 328.971 4.31999 -0.0106663 0
M  V30 3608 C 328.106 5.23585 0.896241 0
M  V30 3609 C 327.145 6.12072 0.0583381 0
M  V30 3610 N 326.282 6.96035 0.920818 0
M  V30 3611 H 331.122 2.85173 -0.864891 0
M  V30 3612 H 328.659 1.40422 -0.438179 0
M  V30 3613 H 330.617 3.94345 1.36189 0
M  V30 3614 H 329.247 2.8211 1.56888 0
M  V30 3615 H 328.299 3.74492 -0.66781 0
M  V30 3616 H 329.611 4.9443 -0.658825 0
M  V30 3617 H 328.765 5.87759 1.50412 0
M  V30 3618 H 327.504 4.61459 1.57819 0
M  V30 3619 H 326.509 5.46916 -0.562389 0
M  V30 3620 H 327.734 6.76261 -0.6203 0
M  V30 3621 H 325.68 6.36485 1.58818 0
M  V30 3622 H 325.597 7.55284 0.32899 0
M  V30 3623 H 326.865 7.64646 1.51447 0
M  V30 3624 N 331.094 0.475555 1.50254 0
M  V30 3625 C 332.057 -0.305016 2.27161 0
M  V30 3626 C 333.057 -0.916519 1.32123 0
M  V30 3627 O 334.247 -0.785003 1.5551 0
M  V30 3628 C 331.379 -1.43496 3.09227 0
M  V30 3629 H 332.572 0.369511 2.97615 0
M  V30 3630 H 330.125 0.229747 1.54602 0
M  V30 3631 H 330.86 -2.14441 2.43281 0
M  V30 3632 H 330.645 -1.00223 3.79075 0
M  V30 3633 H 332.135 -1.98548 3.67381 0
M  V30 3634 N 332.573 -1.56217 0.208337 0
M  V30 3635 C 333.82 -1.97949 -0.42692 0
M  V30 3636 C 334.148 -1.09562 -1.60706 0
M  V30 3637 O 333.403 -0.137616 -1.95216 0
M  V30 3638 C 333.702 -3.45441 -0.916797 0
M  V30 3639 C 333.368 -4.50646 0.151391 0
M  V30 3640 C 332.03 -4.79139 0.444867 0
M  V30 3641 C 334.382 -5.13811 0.874492 0
M  V30 3642 C 331.71 -5.68084 1.46619 0
M  V30 3643 C 334.062 -6.03861 1.88506 0
M  V30 3644 C 332.726 -6.30704 2.18559 0
M  V30 3645 H 331.996 -0.724345 -0.156221 0
M  V30 3646 H 334.643 -1.89006 0.308084 0
M  V30 3647 H 332.948 -3.51521 -1.73032 0
M  V30 3648 H 334.645 -3.75094 -1.41794 0
M  V30 3649 H 331.235 -4.28511 -0.0875068 0
M  V30 3650 H 335.419 -4.91879 0.660996 0
M  V30 3651 H 330.675 -5.87151 1.7048 0
M  V30 3652 H 334.849 -6.51861 2.45051 0
M  V30 3653 H 332.476 -6.99424 2.97843 0
M  V30 3654 N 334.051 0.0651679 -1.57465 0
M  V30 3655 C 335.298 0.763063 -1.87573 0
M  V30 3656 C 335.626 1.77242 -0.800961 0
M  V30 3657 O 334.881 1.94651 0.202316 0
M  V30 3658 C 335.18 1.50081 -3.24362 0
M  V30 3659 C 334.846 0.630816 -4.46466 0
M  V30 3660 C 333.508 0.391082 -4.79608 0
M  V30 3661 C 335.86 0.0279465 -5.21193 0
M  V30 3662 C 333.188 -0.460894 -5.84887 0
M  V30 3663 C 335.54 -0.811522 -6.27373 0
M  V30 3664 C 334.204 -1.06106 -6.59013 0
M  V30 3665 H 333.474 0.279224 -0.686378 0
M  V30 3666 H 336.121 0.0236726 -1.91485 0
M  V30 3667 H 334.426 2.31258 -3.16271 0
M  V30 3668 H 336.123 2.04571 -3.44894 0
M  V30 3669 H 332.713 0.8278 -4.2053 0
M  V30 3670 H 336.897 0.200262 -4.95896 0
M  V30 3671 H 332.153 -0.662907 -6.07796 0
M  V30 3672 H 336.327 -1.28537 -6.84435 0
M  V30 3673 H 333.954 -1.723 -7.40417 0
M  V30 3674 N 335.529 1.53961 0.336706 0
M  V30 3675 C 336.754 1.75797 1.10046 0
M  V30 3676 C 337.179 0.498985 1.81361 0
M  V30 3677 O 336.537 -0.548769 1.72795 0
M  V30 3678 C 336.585 2.94257 2.08436 0
M  V30 3679 O 335.689 2.64883 3.16087 0
M  V30 3680 H 335.03 0.582936 0.317934 0
M  V30 3681 H 337.56 2.00945 0.38501 0
M  V30 3682 H 337.57 3.21237 2.51537 0
M  V30 3683 H 336.245 3.85564 1.55927 0
M  V30 3684 H 334.822 2.48812 2.77753 0
M  V30 3685 N 337.007 -0.598083 1.45811 0
M  V30 3686 C 338.253 -1.35882 1.50545 0
M  V30 3687 C 338.586 -1.93616 0.150445 0
M  V30 3688 O 337.861 -1.75604 -0.83628 0
M  V30 3689 C 338.144 -2.49966 2.59208 0
M  V30 3690 C 337.997 -1.97367 4.04186 0
M  V30 3691 C 339.316 -3.52068 2.64076 0
M  V30 3692 H 336.435 -0.492717 0.548087 0
M  V30 3693 H 339.077 -0.673319 1.77669 0
M  V30 3694 H 337.227 -3.08443 2.3621 0
M  V30 3695 H 338.899 -1.43466 4.38423 0
M  V30 3696 H 337.142 -1.283 4.14393 0
M  V30 3697 H 337.813 -2.79649 4.75921 0
M  V30 3698 H 340.289 -3.03448 2.84708 0
M  V30 3699 H 339.165 -4.2937 3.41954 0
M  V30 3700 H 339.426 -4.08304 1.69531 0
M  V30 3701 N 338.485 -1.33259 -0.841409 0
M  V30 3702 C 339.415 -1.25926 -1.96634 0
M  V30 3703 C 340.396 -0.140349 -1.6952 0
M  V30 3704 O 341.581 -0.329707 -1.91381 0
M  V30 3705 C 338.711 -0.99512 -3.32738 0
M  V30 3706 C 337.665 -2.0767 -3.74242 0
M  V30 3707 C 336.991 -1.66474 -5.08125 0
M  V30 3708 C 338.291 -3.49318 -3.88297 0
M  V30 3709 H 339.985 -2.20046 -2.03027 0
M  V30 3710 H 337.531 -1.05931 -0.975425 0
M  V30 3711 H 339.484 -0.930323 -4.11002 0
M  V30 3712 H 338.208 -0.0183004 -3.26595 0
M  V30 3713 H 336.867 -2.13187 -2.98239 0
M  V30 3714 H 336.515 -0.675012 -4.9845 0
M  V30 3715 H 336.215 -2.3885 -5.36865 0
M  V30 3716 H 337.739 -1.61455 -5.88867 0
M  V30 3717 H 339.153 -3.46316 -4.56879 0
M  V30 3718 H 337.55 -4.20158 -4.28471 0
M  V30 3719 H 338.62 -3.8801 -2.9082 0
M  V30 3720 N 339.963 1.05934 -1.16686 0
M  V30 3721 C 341.379 1.30938 -0.912542 0
M  V30 3722 C 341.579 1.96803 0.432533 0
M  V30 3723 O 340.635 2.23693 1.17123 0
M  V30 3724 C 341.948 2.18649 -2.06429 0
M  V30 3725 C 343.496 2.32055 -2.10047 0
M  V30 3726 C 343.971 3.23122 -3.24586 0
M  V30 3727 N 345.462 3.30706 -3.24327 0
M  V30 3728 C 346.197 4.01273 -4.09594 0
M  V30 3729 N 345.693 4.74332 -5.04956 0
M  V30 3730 N 347.486 3.97361 -3.97569 0
M  V30 3731 H 339.637 0.615777 -2.03278 0
M  V30 3732 H 341.9 0.334077 -0.887185 0
M  V30 3733 H 341.606 1.77534 -3.03603 0
M  V30 3734 H 341.48 3.19252 -2.00894 0
M  V30 3735 H 343.867 2.72415 -1.13464 0
M  V30 3736 H 343.948 1.31107 -2.19647 0
M  V30 3737 H 343.592 2.83477 -4.2143 0
M  V30 3738 H 343.522 4.24057 -3.12223 0
M  V30 3739 H 346.013 2.78644 -2.55276 0
M  V30 3740 H 346.326 5.25716 -5.6643 0
M  V30 3741 H 344.671 4.733 -5.08933 0
M  V30 3742 H 347.862 3.39405 -3.22369 0
M  V30 3743 H 348.035 4.52089 -4.64241 0
M  V30 3744 N 341.441 0.965919 1.2453 0
M  V30 3745 C 342.69 0.622437 1.91856 0
M  V30 3746 C 343.003 -0.846006 1.76358 0
M  V30 3747 O 344.209 -1.29993 2.38357 0
M  V30 3748 C 342.665 1.0626 3.43856 0
M  V30 3749 C 342.273 2.55437 3.68043 0
M  V30 3750 C 344.017 0.792183 4.17043 0
M  V30 3751 C 341.924 2.93196 5.13605 0
M  V30 3752 H 340.854 0.229092 0.718354 0
M  V30 3753 H 343.505 1.17189 1.41206 0
M  V30 3754 H 341.887 0.441476 3.93531 0
M  V30 3755 H 343.061 3.22665 3.28974 0
M  V30 3756 H 341.376 2.8007 3.08139 0
M  V30 3757 H 343.973 1.05031 5.24283 0
M  V30 3758 H 344.316 -0.271584 4.15413 0
M  V30 3759 H 344.849 1.37419 3.73311 0
M  V30 3760 H 341.588 3.98636 5.20355 0
M  V30 3761 H 341.108 2.30651 5.53679 0
M  V30 3762 H 342.787 2.83004 5.81823 0
M  V30 3763 N 342.919 -1.39368 0.735821 0
M  V30 3764 C 344.149 -2.04498 0.293967 0
M  V30 3765 C 344.557 -1.55593 -1.07645 0
M  V30 3766 O 343.9 -0.716324 -1.69158 0
M  V30 3767 C 343.962 -3.58836 0.218342 0
M  V30 3768 C 343.626 -4.30721 1.52736 0
M  V30 3769 C 344.623 -4.57305 2.47322 0
M  V30 3770 C 342.308 -4.69251 1.79189 0
M  V30 3771 C 344.302 -5.21429 3.66593 0
M  V30 3772 C 341.989 -5.33104 2.98737 0
M  V30 3773 C 342.987 -5.59125 3.9226 0
M  V30 3774 O 342.675 -6.21653 5.09708 0
M  V30 3775 H 342.407 -0.664118 0.126189 0
M  V30 3776 H 344.961 -1.79385 1.00051 0
M  V30 3777 H 343.191 -3.8285 -0.544314 0
M  V30 3778 H 344.88 -4.05447 -0.191626 0
M  V30 3779 H 345.646 -4.27983 2.28156 0
M  V30 3780 H 341.525 -4.48354 1.07239 0
M  V30 3781 H 345.069 -5.41656 4.39607 0
M  V30 3782 H 340.966 -5.61846 3.17803 0
M  V30 3783 H 341.734 -6.40146 5.10054 0
M  V30 3784 N 344.397 -0.483516 -1.5 0
M  V30 3785 C 345.327 0.293829 -2.31644 0
M  V30 3786 C 346.308 0.978864 -1.39112 0
M  V30 3787 O 347.493 0.973644 -1.68029 0
M  V30 3788 C 344.623 1.36897 -3.19181 0
M  V30 3789 C 343.577 0.804833 -4.20365 0
M  V30 3790 C 342.903 1.9792 -4.96721 0
M  V30 3791 C 344.203 -0.192313 -5.21946 0
M  V30 3792 H 345.897 -0.387616 -2.9688 0
M  V30 3793 H 343.443 -0.187856 -1.42769 0
M  V30 3794 H 345.396 1.92037 -3.751 0
M  V30 3795 H 344.12 2.07936 -2.51853 0
M  V30 3796 H 342.779 0.275319 -3.65565 0
M  V30 3797 H 342.427 2.67686 -4.25856 0
M  V30 3798 H 342.127 1.60789 -5.65173 0
M  V30 3799 H 343.651 2.53526 -5.55479 0
M  V30 3800 H 345.065 0.270333 -5.72662 0
M  V30 3801 H 343.462 -0.478543 -5.98189 0
M  V30 3802 H 344.532 -1.11409 -4.71928 0
M  V30 3803 N 345.875 1.56104 -0.216619 0
M  V30 3804 C 347.1 2.0301 0.424462 0
M  V30 3805 C 347.525 1.0955 1.52907 0
M  V30 3806 O 346.883 0.0827914 1.81111 0
M  V30 3807 C 346.931 3.4819 0.937883 0
M  V30 3808 O 346.035 3.57865 2.04955 0
M  V30 3809 H 345.376 0.656925 0.0966755 0
M  V30 3810 H 347.906 2.01859 -0.33381 0
M  V30 3811 H 347.916 3.88413 1.24897 0
M  V30 3812 H 346.591 4.15699 0.129387 0
M  V30 3813 H 345.168 3.29527 1.74546 0
M  V30 3814 N 347.353 -0.0568162 1.57498 0
M  V30 3815 C 348.601 -0.751617 1.87604 0
M  V30 3816 C 348.922 -1.77351 0.81066 0
M  V30 3817 O 348.192 -1.95254 -0.159018 0
M  V30 3818 H 346.772 -0.280583 0.692302 0
M  V30 3819 H 349.434 -0.0293483 1.94878 0
M  V30 3820 H 348.53 -1.25852 2.856 0
M  V30 3821 N 348.832 -1.54138 -0.328536 0
M  V30 3822 C 350.078 -1.73297 -1.06488 0
M  V30 3823 C 350.433 -0.497958 -1.85844 0
M  V30 3824 O 349.726 0.509591 -1.84699 0
M  V30 3825 C 349.92 -2.9457 -2.02393 0
M  V30 3826 C 349.749 -4.29747 -1.32467 0
M  V30 3827 C 348.519 -4.93987 -1.06324 0
M  V30 3828 C 350.717 -5.08903 -0.743137 0
M  V30 3829 N 348.699 -6.13005 -0.331359 0
M  V30 3830 C 350.07 -6.19836 -0.142602 0
M  V30 3831 C 352.125 -4.93699 -0.64546 0
M  V30 3832 C 350.828 -7.17224 0.546125 0
M  V30 3833 C 352.854 -5.91393 0.0295558 0
M  V30 3834 C 352.216 -7.01674 0.619056 0
M  V30 3835 H 348.315 -0.687017 -0.373539 0
M  V30 3836 H 350.899 -1.91589 -0.346659 0
M  V30 3837 H 349.07 -2.77752 -2.71493 0
M  V30 3838 H 350.802 -3.0238 -2.68977 0
M  V30 3839 H 347.557 -4.53824 -1.35428 0
M  V30 3840 H 347.981 -6.76997 0.0202939 0
M  V30 3841 H 352.623 -4.08589 -1.08695 0
M  V30 3842 H 350.341 -8.01896 0.999459 0
M  V30 3843 H 353.927 -5.81706 0.104705 0
M  V30 3844 H 352.807 -7.75971 1.13309 0
M  V30 3845 N 350.31 0.590341 -1.46126 0
M  V30 3846 C 351.257 1.69994 -1.56111 0
M  V30 3847 C 352.227 1.61065 -0.405867 0
M  V30 3848 O 353.412 1.8039 -0.621613 0
M  V30 3849 C 350.552 3.08326 -1.55013 0
M  V30 3850 C 349.665 3.27936 -2.81215 0
M  V30 3851 C 348.8 4.56473 -2.71673 0
M  V30 3852 C 347.839 4.694 -3.92849 0
M  V30 3853 N 346.976 5.89254 -3.81738 0
M  V30 3854 H 351.816 1.60797 -2.50895 0
M  V30 3855 H 349.353 0.783799 -1.24479 0
M  V30 3856 H 351.311 3.88383 -1.52362 0
M  V30 3857 H 349.941 3.16439 -0.637667 0
M  V30 3858 H 348.993 2.41536 -2.93879 0
M  V30 3859 H 350.305 3.33357 -3.71045 0
M  V30 3860 H 349.459 5.44748 -2.67085 0
M  V30 3861 H 348.198 4.53477 -1.7947 0
M  V30 3862 H 347.203 3.79544 -3.97777 0
M  V30 3863 H 348.428 4.7418 -4.86138 0
M  V30 3864 H 346.374 5.87271 -2.92317 0
M  V30 3865 H 346.291 5.95911 -4.65217 0
M  V30 3866 H 347.559 6.79981 -3.81112 0
M  V30 3867 N 351.788 1.33704 0.83433 0
M  V30 3868 C 353.036 1.25169 1.58673 0
M  V30 3869 C 353.357 -0.18127 1.94156 0
M  V30 3870 O 352.627 -1.11113 1.6134 0
M  V30 3871 H 351.207 0.4603 0.58833 0
M  V30 3872 H 353.869 1.67478 0.996847 0
M  V30 3873 H 352.965 1.84856 2.51465 0
M  V30 3874 N 353.266 -1.05314 1.17247 0
M  V30 3875 C 354.214 -2.15137 0.884238 0
M  V30 3876 C 355.208 -1.68729 -0.15063 0
M  V30 3877 O 356.414 -1.8 -0.00366673 0
M  V30 3878 H 352.789 -0.702471 0.2684 0
M  V30 3879 H 354.76 -2.36652 1.81764 0
M  V30 3880 C 353.509 -3.45243 0.412659 0
M  V30 3881 H 352.832 -3.81352 1.20043 0
M  V30 3882 H 354.272 -4.23263 0.249858 0
M  V30 3883 C 352.731 -3.25487 -0.86948 0
M  V30 3884 O 353.261 -3.51938 -1.93655 0
M  V30 3885 N 351.467 -2.78875 -0.817147 0
M  V30 3886 H 351.014 -2.57549 0.0514211 0
M  V30 3887 H 350.972 -2.66036 -1.67547 0
M  V30 3888 N 354.744 -0.972509 -1.24016 0
M  V30 3889 C 356.155 -0.67517 -1.74064 0
M  V30 3890 C 356.506 0.808939 -1.78747 0
M  V30 3891 O 355.631 1.63286 -1.42009 0
M  V30 3892 C 356.226 -1.21889 -3.16115 0
M  V30 3893 C 354.785 -0.971358 -3.6365 0
M  V30 3894 C 353.932 -1.35134 -2.42145 0
M  V30 3895 H 356.883 -1.14727 -1.09651 0
M  V30 3896 H 356.904 -0.587489 -3.75937 0
M  V30 3897 H 356.416 -2.29906 -3.12674 0
M  V30 3898 H 354.517 0.0930686 -3.72484 0
M  V30 3899 H 354.63 -1.62039 -4.50866 0
M  V30 3900 H 352.994 -0.769751 -2.4279 0
M  V30 3901 H 353.777 -2.4411 -2.41381 0
M  V30 3902 N 356.222 1.38976 -0.743202 0
M  V30 3903 C 357.154 2.29096 -0.0689228 0
M  V30 3904 C 358.167 1.47229 0.694791 0
M  V30 3905 O 359.356 1.70212 0.537597 0
M  V30 3906 C 356.456 3.25988 0.926548 0
M  V30 3907 C 355.629 4.36833 0.222647 0
M  V30 3908 C 354.688 5.13981 1.12739 0
M  V30 3909 O 353.714 5.6601 0.601795 0
M  V30 3910 N 354.916 5.25966 2.45641 0
M  V30 3911 H 357.681 2.87604 -0.842846 0
M  V30 3912 H 355.242 1.50645 -0.593109 0
M  V30 3913 H 357.234 3.74476 1.5346 0
M  V30 3914 H 355.804 2.68453 1.60162 0
M  V30 3915 H 355.024 3.90116 -0.565983 0
M  V30 3916 H 356.312 5.0811 -0.264841 0
M  V30 3917 H 355.71 4.85228 2.9081 0
M  V30 3918 H 354.267 5.77865 3.01522 0
M  V30 3919 N 357.7 0.491464 1.49741 0
M  V30 3920 C 358.63 -0.28154 2.31796 0
M  V30 3921 C 359.611 -0.971473 1.3963 0
M  V30 3922 O 360.796 -0.964719 1.68543 0
M  V30 3923 C 357.926 -1.35203 3.19902 0
M  V30 3924 C 356.88 -0.782529 4.20786 0
M  V30 3925 C 356.206 -1.95283 4.97764 0
M  V30 3926 C 357.506 0.21999 5.21837 0
M  V30 3927 H 359.2 0.403355 2.96671 0
M  V30 3928 H 356.746 0.195425 1.42668 0
M  V30 3929 H 358.699 -1.90045 3.76113 0
M  V30 3930 H 357.423 -2.06598 2.52953 0
M  V30 3931 H 356.082 -0.255928 3.65706 0
M  V30 3932 H 355.73 -2.65423 4.2727 0
M  V30 3933 H 355.43 -1.57789 5.66018 0
M  V30 3934 H 356.954 -2.50577 5.56816 0
M  V30 3935 H 358.368 -0.23996 5.72798 0
M  V30 3936 H 356.765 0.51026 5.97927 0
M  V30 3937 H 357.835 1.13911 4.7133 0
M  V30 3938 N 359.178 -1.55987 0.224894 0
M  V30 3939 C 360.403 -2.03232 -0.41369 0
M  V30 3940 C 360.828 -1.10359 -1.52323 0
M  V30 3941 O 360.186 -0.092395 -1.81064 0
M  V30 3942 C 360.234 -3.48682 -0.919405 0
M  V30 3943 O 359.338 -3.58947 -2.03054 0
M  V30 3944 H 358.679 -0.657428 -0.0931903 0
M  V30 3945 H 361.209 -2.01679 0.34451 0
M  V30 3946 H 361.219 -3.8907 -1.22835 0
M  V30 3947 H 359.894 -4.15761 -0.107339 0
M  V30 3948 H 358.471 -3.30448 -1.72796 0
M  V30 3949 N 360.656 0.0484629 -1.57525 0
M  V30 3950 C 361.933 0.777447 -1.79486 0
M  V30 3951 C 362.313 1.94597 -0.818251 0
M  V30 3952 O 361.661 2.28047 0.143767 0
M  V30 3953 C 361.871 1.22864 -3.26658 0
M  V30 3954 C 363.219 1.65251 -3.91123 0
M  V30 3955 O 364.243 1.32372 -3.3069 0
M  V30 3956 O 363.102 2.26207 -4.97486 0
M  V30 3957 H 360.196 0.374357 -0.737419 0
M  V30 3958 H 362.742 0.0267359 -1.69679 0
M  V30 3959 H 361.514 0.393589 -3.89316 0
M  V30 3960 H 361.137 2.03996 -3.41279 0
M  V30 3961 N 362.134 1.5431 0.320358 0
M  V30 3962 C 363.382 1.72327 1.05583 0
M  V30 3963 C 363.703 0.50149 1.88441 0
M  V30 3964 O 362.973 -0.48448 1.89815 0
M  V30 3965 H 361.553 0.635387 0.3928 0
M  V30 3966 H 364.215 1.91621 0.356019 0
M  V30 3967 H 363.311 2.60426 1.72003 0
M  V30 3968 N 363.613 -0.582584 1.46437 0
M  V30 3969 C 364.543 -1.70187 1.59871 0
M  V30 3970 C 365.524 -1.64066 0.449042 0
M  V30 3971 O 366.709 -1.82081 0.6753 0
M  V30 3972 C 363.839 -3.08827 1.58881 0
M  V30 3973 C 362.793 -3.29779 2.72819 0
M  V30 3974 C 362.119 -4.68947 2.5689 0
M  V30 3975 C 363.419 -3.17601 4.1464 0
M  V30 3976 H 365.113 -1.592 2.53566 0
M  V30 3977 H 362.659 -0.764472 1.22032 0
M  V30 3978 H 364.612 -3.86951 1.66873 0
M  V30 3979 H 363.336 -3.20713 0.617306 0
M  V30 3980 H 361.995 -2.54054 2.64296 0
M  V30 3981 H 361.643 -4.77599 1.57823 0
M  V30 3982 H 361.343 -4.83919 3.33312 0
M  V30 3983 H 362.867 -5.4924 2.66773 0
M  V30 3984 H 364.281 -3.8557 4.24274 0
M  V30 3985 H 362.678 -3.44094 4.9165 0
M  V30 3986 H 363.748 -2.14681 4.34788 0
M  V30 3987 N 365.091 -1.34144 -0.827227 0
M  V30 3988 C 366.337 -1.26446 -1.58554 0
M  V30 3989 C 366.67 0.1664 -1.93486 0
M  V30 3990 O 365.945 1.1107 -1.59667 0
M  V30 3991 C 366.228 -2.15111 -2.8879 0
M  V30 3992 C 366.081 -3.66712 -2.60465 0
M  V30 3993 C 367.4 -2.03311 -3.90324 0
M  V30 3994 H 364.519 -0.46067 -0.575284 0
M  V30 3995 H 367.161 -1.64356 -0.953269 0
M  V30 3996 H 365.311 -1.8291 -3.42748 0
M  V30 3997 H 366.983 -4.09259 -2.1285 0
M  V30 3998 H 365.226 -3.88014 -1.93978 0
M  V30 3999 H 365.897 -4.24112 -3.53317 0
M  V30 4000 H 368.373 -2.31574 -3.45706 0
M  V30 4001 H 367.249 -2.67582 -4.79261 0
M  V30 4002 H 367.51 -1.00879 -4.30437 0
M  V30 4003 N 366.569 1.04691 -1.17803 0
M  V30 4004 C 367.799 1.81183 -0.992788 0
M  V30 4005 C 368.207 1.8347 0.462098 0
M  V30 4006 O 367.55 1.2643 1.33271 0
M  V30 4007 C 367.612 3.28363 -1.46349 0
M  V30 4008 C 367.276 3.49749 -2.94151 0
M  V30 4009 C 368.273 3.41456 -3.92051 0
M  V30 4010 C 365.958 3.76548 -3.32441 0
M  V30 4011 C 367.952 3.59656 -5.26238 0
M  V30 4012 C 365.639 3.94396 -4.66792 0
M  V30 4013 C 366.637 3.8595 -5.635 0
M  V30 4014 O 366.325 4.03294 -6.9542 0
M  V30 4015 H 366.057 0.577622 -0.351182 0
M  V30 4016 H 368.611 1.32876 -1.5663 0
M  V30 4017 H 366.841 3.77609 -0.833574 0
M  V30 4018 H 368.53 3.86395 -1.24313 0
M  V30 4019 H 369.296 3.20723 -3.63815 0
M  V30 4020 H 365.175 3.82224 -2.57732 0
M  V30 4021 H 368.719 3.52979 -6.01707 0
M  V30 4022 H 364.616 4.14622 -4.94731 0
M  V30 4023 H 365.384 4.2049 -7.02232 0
M  V30 4024 N 368.047 0.979072 1.23499 0
M  V30 4025 C 368.957 0.526431 2.28617 0
M  V30 4026 C 369.973 -0.418126 1.68901 0
M  V30 4027 O 371.149 -0.288372 1.99325 0
M  V30 4028 C 368.214 -0.165235 3.46306 0
M  V30 4029 C 367.275 0.82056 4.21385 0
M  V30 4030 C 366.508 0.161807 5.33455 0
M  V30 4031 O 366.731 -1.04742 5.60701 0
M  V30 4032 O 365.665 0.859708 5.95729 0
M  V30 4033 H 369.491 1.4006 2.69475 0
M  V30 4034 H 367.076 0.746643 1.29405 0
M  V30 4035 H 368.958 -0.553287 4.17752 0
M  V30 4036 H 367.633 -1.01419 3.07402 0
M  V30 4037 H 366.54 1.25929 3.52268 0
M  V30 4038 H 367.873 1.63828 4.64135 0
M  V30 4039 N 369.525 -1.3858 0.750561 0
M  V30 4040 C 370.773 -1.99789 0.30477 0
M  V30 4041 C 371.094 -1.59874 -1.11649 0
M  V30 4042 O 370.364 -0.85417 -1.76297 0
M  V30 4043 H 368.944 -0.738902 0.109694 0
M  V30 4044 H 371.606 -1.69391 0.963983 0
M  V30 4045 H 370.702 -3.09952 0.365499 0
M  V30 4046 N 371.003 -0.499398 -1.49478 0
M  V30 4047 C 372.25 0.0456899 -2.02448 0
M  V30 4048 C 372.578 1.37142 -1.37921 0
M  V30 4049 O 371.833 1.89111 -0.503544 0
M  V30 4050 C 372.132 0.248424 -3.56536 0
M  V30 4051 C 371.798 -0.999107 -4.39692 0
M  V30 4052 C 370.46 -1.34108 -4.62135 0
M  V30 4053 C 372.812 -1.82842 -4.88076 0
M  V30 4054 C 370.14 -2.51191 -5.30208 0
M  V30 4055 C 372.492 -2.99076 -5.57437 0
M  V30 4056 C 371.156 -3.33655 -5.78127 0
M  V30 4057 H 370.426 0.0167191 -0.740811 0
M  V30 4058 H 373.073 -0.65923 -1.79795 0
M  V30 4059 H 371.378 1.03586 -3.77859 0
M  V30 4060 H 373.075 0.684605 -3.95113 0
M  V30 4061 H 369.665 -0.722729 -4.22463 0
M  V30 4062 H 373.849 -1.57737 -4.70566 0
M  V30 4063 H 369.105 -2.78221 -5.44429 0
M  V30 4064 H 373.279 -3.63664 -5.93904 0
M  V30 4065 H 370.906 -4.24483 -6.30649 0
M  V30 4066 N 372.481 1.55866 -0.233164 0
M  V30 4067 C 373.727 1.99643 0.389148 0
M  V30 4068 C 374.082 1.11836 1.56558 0
M  V30 4069 O 373.375 0.170848 1.90837 0
M  V30 4070 C 373.569 3.46856 0.861724 0
M  V30 4071 C 373.398 4.48904 -0.267376 0
M  V30 4072 C 372.168 4.99888 -0.737577 0
M  V30 4073 C 374.366 5.02624 -1.08966 0
M  V30 4074 N 372.348 5.8566 -1.84052 0
M  V30 4075 C 373.719 5.85434 -2.04125 0
M  V30 4076 C 375.774 4.84959 -1.12779 0
M  V30 4077 C 374.477 6.52466 -3.02789 0
M  V30 4078 C 376.503 5.52759 -2.10266 0
M  V30 4079 C 375.865 6.35346 -3.04162 0
M  V30 4080 H 371.964 0.774402 0.108742 0
M  V30 4081 H 374.548 1.91572 -0.347596 0
M  V30 4082 H 372.719 3.55352 1.5678 0
M  V30 4083 H 374.451 3.77531 1.45783 0
M  V30 4084 H 371.206 4.7249 -0.324122 0
M  V30 4085 H 371.63 6.33246 -2.39434 0
M  V30 4086 H 376.272 4.20751 -0.415749 0
M  V30 4087 H 373.99 7.15849 -3.74948 0
M  V30 4088 H 377.576 5.41051 -2.13905 0
M  V30 4089 H 376.456 6.86883 -3.78366 0
M  V30 4090 N 373.959 -0.0401083 1.57549 0
M  V30 4091 C 374.869 -1.06133 2.0922 0
M  V30 4092 C 375.885 -1.40356 1.0284 0
M  V30 4093 O 377.061 -1.49897 1.34509 0
M  V30 4094 C 374.126 -2.34658 2.55218 0
M  V30 4095 C 373.187 -2.07117 3.76033 0
M  V30 4096 C 372.42 -3.29514 4.19829 0
M  V30 4097 O 372.643 -4.39794 3.63232 0
M  V30 4098 O 371.577 -3.15863 5.12362 0
M  V30 4099 H 375.403 -0.652244 2.96613 0
M  V30 4100 H 372.988 -0.256368 1.47184 0
M  V30 4101 H 374.87 -3.10239 2.85184 0
M  V30 4102 H 373.545 -2.74883 1.70941 0
M  V30 4103 H 372.452 -1.29139 3.51104 0
M  V30 4104 H 373.785 -1.71754 4.61261 0
M  V30 4105 N 375.437 -1.54477 -0.31217 0
M  V30 4106 C 376.714 -1.63891 -1.06767 0
M  V30 4107 C 377.094 -0.480028 -2.0557 0
M  V30 4108 O 376.442 0.524487 -2.22399 0
M  V30 4109 C 376.652 -3.01402 -1.75948 0
M  V30 4110 C 378 -3.57838 -2.28554 0
M  V30 4111 O 379.024 -3.03782 -1.85998 0
M  V30 4112 O 377.883 -4.52462 -3.06497 0
M  V30 4113 H 374.977 -0.664125 -0.492816 0
M  V30 4114 H 377.523 -1.66823 -0.311149 0
M  V30 4115 H 376.295 -3.77187 -1.04144 0
M  V30 4116 H 375.918 -3.02199 -2.58383 0
M  V30 4117 N 376.915 0.57481 -1.46744 0
M  V30 4118 C 378.326 1.15695 -1.46532 0
M  V30 4119 C 378.677 1.95068 -0.210425 0
M  V30 4120 O 377.802 2.05241 0.685944 0
M  V30 4121 C 378.397 2.1048 -2.65487 0
M  V30 4122 C 376.956 2.64002 -2.68291 0
M  V30 4123 C 376.103 1.40026 -2.39349 0
M  V30 4124 H 379.054 0.362325 -1.54509 0
M  V30 4125 H 379.075 2.94074 -2.41455 0
M  V30 4126 H 378.587 1.52683 -3.56805 0
M  V30 4127 H 376.688 3.25646 -1.81067 0
M  V30 4128 H 376.801 3.06197 -3.68483 0
M  V30 4129 H 375.165 1.70106 -1.89568 0
M  V30 4130 H 375.948 0.840485 -3.32852 0
M  V30 4131 N 378.394 1.34581 0.820102 0
M  V30 4132 C 379.341 1.2639 1.93117 0
M  V30 4133 C 380.311 0.138554 1.65521 0
M  V30 4134 O 381.496 0.320004 1.88097 0
M  V30 4135 C 378.636 1.02812 3.29429 0
M  V30 4136 C 377.749 2.24146 3.693 0
M  V30 4137 C 376.884 1.93829 4.94574 0
M  V30 4138 C 375.923 3.1129 5.27034 0
M  V30 4139 N 375.06 2.80838 6.43486 0
M  V30 4140 H 379.9 2.21408 1.99455 0
M  V30 4141 H 377.437 1.10077 0.975784 0
M  V30 4142 H 379.395 0.871788 4.0799 0
M  V30 4143 H 378.025 0.114612 3.22596 0
M  V30 4144 H 377.077 2.50691 2.86109 0
M  V30 4145 H 378.389 3.11899 3.89257 0
M  V30 4146 H 377.543 1.74948 5.80929 0
M  V30 4147 H 376.282 1.03341 4.76626 0
M  V30 4148 H 375.287 3.30764 4.39175 0
M  V30 4149 H 376.512 4.02561 5.4692 0
M  V30 4150 H 374.458 1.92929 6.26988 0
M  V30 4151 H 374.375 3.62123 6.63629 0
M  V30 4152 H 375.643 2.65467 7.32903 0
M  V30 4153 N 379.872 -1.04064 1.18357 0
M  V30 4154 C 380.782 -2.15569 0.925596 0
M  V30 4155 C 381.798 -1.7365 -0.110295 0
M  V30 4156 O 382.974 -2.01273 0.0716218 0
M  V30 4157 C 380.039 -3.43704 0.454836 0
M  V30 4158 C 379.1 -4.00004 1.55869 0
M  V30 4159 C 378.333 -5.22023 1.1103 0
M  V30 4160 O 378.556 -5.70392 -0.0309756 0
M  V30 4161 O 377.49 -5.70856 1.90805 0
M  V30 4162 H 381.316 -2.40187 1.8586 0
M  V30 4163 H 378.901 -1.1402 0.965394 0
M  V30 4164 H 380.783 -4.20923 0.200382 0
M  V30 4165 H 379.458 -3.20559 -0.449876 0
M  V30 4166 H 378.365 -3.24172 1.86716 0
M  V30 4167 H 379.698 -4.2749 2.43953 0
M  V30 4168 N 381.35 -0.985608 -1.22978 0
M  V30 4169 C 382.597 -0.657386 -1.91532 0
M  V30 4170 C 382.925 0.809707 -1.76845 0
M  V30 4171 O 382.18 1.60021 -1.12658 0
M  V30 4172 C 382.479 -1.00014 -3.43121 0
M  V30 4173 C 382.145 -2.4583 -3.77993 0
M  V30 4174 C 380.807 -2.85679 -3.87222 0
M  V30 4175 C 383.159 -3.40378 -3.94705 0
M  V30 4176 C 380.487 -4.19081 -4.10595 0
M  V30 4177 C 382.839 -4.73429 -4.1958 0
M  V30 4178 C 381.503 -5.1303 -4.27032 0
M  V30 4179 H 380.773 -0.240555 -0.700867 0
M  V30 4180 H 383.42 -1.24044 -1.45895 0
M  V30 4181 H 381.725 -0.335072 -3.90365 0
M  V30 4182 H 383.422 -0.724322 -3.94404 0
M  V30 4183 H 380.012 -2.13939 -3.71387 0
M  V30 4184 H 384.196 -3.10766 -3.8696 0
M  V30 4185 H 379.452 -4.49362 -4.14589 0
M  V30 4186 H 383.626 -5.46644 -4.31455 0
M  V30 4187 H 381.253 -6.16418 -4.44896 0
M  V30 4188 N 382.828 1.3818 -0.7579 0
M  V30 4189 C 383.791 2.28764 -0.141286 0
M  V30 4190 C 384.791 1.47388 0.642907 0
M  V30 4191 O 385.981 1.67781 0.468536 0
M  V30 4192 C 383.113 3.31184 0.808069 0
M  V30 4193 H 384.306 2.848 -0.939633 0
M  V30 4194 H 381.859 1.47212 -0.525191 0
M  V30 4195 H 382.594 2.80247 1.63193 0
M  V30 4196 H 382.379 3.91314 0.248104 0
M  V30 4197 H 383.869 3.98909 1.23536 0
M  V30 4198 N 384.306 0.507319 1.49211 0
M  V30 4199 C 385.554 -0.0348839 2.0207 0
M  V30 4200 C 385.875 -1.36898 1.38866 0
M  V30 4201 O 385.145 -1.88133 0.546151 0
M  V30 4202 H 383.725 -0.0158812 0.746831 0
M  V30 4203 H 386.387 0.665998 1.83168 0
M  V30 4204 H 385.483 -0.159917 3.1169 0
M  V30 4205 N 385.784 -1.5574 0.241426 0
M  V30 4206 C 387.032 -1.98417 -0.384075 0
M  V30 4207 C 387.353 -1.13078 -1.58866 0
M  V30 4208 O 386.623 -0.212312 -1.94746 0
M  V30 4209 H 385.203 -0.732813 -0.144894 0
M  V30 4210 H 387.865 -1.9193 0.338943 0
M  V30 4211 H 386.961 -3.04219 -0.696939 0
M  V30 4212 N 387.262 0.0317525 -1.57568 0
M  V30 4213 C 388.487 0.738664 -1.938 0
M  V30 4214 C 388.912 1.68242 -0.841208 0
M  V30 4215 O 388.27 1.80157 0.203267 0
M  V30 4216 C 388.318 1.47417 -3.29091 0
M  V30 4217 O 387.422 2.5872 -3.2115 0
M  V30 4218 H 386.763 0.198856 -0.633524 0
M  V30 4219 H 389.293 -0.0119713 -2.04596 0
M  V30 4220 H 389.303 1.84468 -3.63917 0
M  V30 4221 H 387.978 0.781988 -4.08482 0
M  V30 4222 H 386.555 2.24231 -2.97951 0
M  V30 4223 N 388.74 1.54641 0.303973 0
M  V30 4224 C 389.703 1.84646 1.35789 0
M  V30 4225 C 390.703 0.7192 1.4382 0
M  V30 4226 O 391.893 0.987491 1.43507 0
M  V30 4227 C 389.025 2.02407 2.74307 0
M  V30 4228 H 390.218 2.78829 1.10429 0
M  V30 4229 H 387.771 1.46658 0.540487 0
M  V30 4230 H 388.506 1.10502 3.04893 0
M  V30 4231 H 388.291 2.84453 2.69868 0
M  V30 4232 H 389.781 2.27002 3.50514 0
M  V30 4233 N 390.218 -0.567019 1.47046 0
M  V30 4234 C 391.466 -1.322 1.52864 0
M  V30 4235 C 391.787 -1.94088 0.188388 0
M  V30 4236 O 391.057 -1.7941 -0.786693 0
M  V30 4237 H 389.637 -0.490894 0.563056 0
M  V30 4238 H 392.299 -0.662879 1.83281 0
M  V30 4239 H 391.395 -2.12062 2.2899 0
M  V30 4240 N 391.696 -1.35014 -0.812953 0
M  V30 4241 C 392.628 -1.23262 -1.93233 0
M  V30 4242 C 393.641 -0.157371 -1.62038 0
M  V30 4243 O 394.83 -0.410096 -1.73725 0
M  V30 4244 C 391.93 -0.87392 -3.27438 0
M  V30 4245 C 391.103 -2.04622 -3.86586 0
M  V30 4246 C 390.162 -1.66432 -4.99186 0
M  V30 4247 O 389.188 -2.38222 -5.16951 0
M  V30 4248 N 390.39 -0.584248 -5.77552 0
M  V30 4249 H 393.155 -2.19699 -2.03844 0
M  V30 4250 H 390.716 -1.281 -0.99005 0
M  V30 4251 H 392.708 -0.600039 -4.00227 0
M  V30 4252 H 391.278 0.00057392 -3.126 0
M  V30 4253 H 390.498 -2.48427 -3.06068 0
M  V30 4254 H 391.786 -2.82999 -4.22835 0
M  V30 4255 H 391.184 0.0123526 -5.65699 0
M  V30 4256 H 389.741 -0.37013 -6.50748 0
M  V30 4257 N 393.175 1.03435 -1.18907 0
M  V30 4258 C 394.4 1.80919 -1.01406 0
M  V30 4259 C 394.825 1.83055 0.432721 0
M  V30 4260 O 394.183 1.25252 1.31079 0
M  V30 4261 C 394.231 3.24091 -1.58105 0
M  V30 4262 O 393.335 4.04434 -0.806669 0
M  V30 4263 H 392.676 0.558709 -0.358803 0
M  V30 4264 H 395.206 1.30223 -1.57807 0
M  V30 4265 H 395.216 3.74853 -1.61087 0
M  V30 4266 H 393.891 3.21851 -2.6341 0
M  V30 4267 H 392.468 3.63091 -0.849666 0
M  V30 4268 N 394.653 0.992116 1.22453 0
M  V30 4269 C 395.878 0.685644 1.95739 0
M  V30 4270 C 396.303 -0.743 1.72804 0
M  V30 4271 O 395.661 -1.50778 1.00676 0
M  V30 4272 C 395.709 0.996293 3.46564 0
M  V30 4273 O 394.813 0.0945512 4.12292 0
M  V30 4274 H 394.154 0.256694 0.612376 0
M  V30 4275 H 396.684 1.32888 1.5557 0
M  V30 4276 H 396.694 0.93781 3.97076 0
M  V30 4277 H 395.369 2.03733 3.62582 0
M  V30 4278 H 393.946 0.208451 3.72317 0
M  V30 4279 N 396.131 -1.37776 0.765217 0
M  V30 4280 C 397.377 -2.00145 0.327072 0
M  V30 4281 C 397.71 -1.60607 -1.09175 0
M  V30 4282 O 396.985 -0.849127 -1.74986 0
M  V30 4283 C 397.268 -3.57109 0.46319 0
M  V30 4284 C 397.121 -4.06576 1.92395 0
M  V30 4285 C 398.44 -4.39888 -0.136473 0
M  V30 4286 H 395.559 -0.727113 0.120316 0
M  V30 4287 H 398.201 -1.63549 0.967039 0
M  V30 4288 H 396.351 -3.88414 -0.0816358 0
M  V30 4289 H 398.023 -3.85864 2.52798 0
M  V30 4290 H 396.266 -3.59011 2.43503 0
M  V30 4291 H 396.937 -5.15639 1.97028 0
M  V30 4292 H 399.413 -4.14803 0.328317 0
M  V30 4293 H 398.289 -5.48899 -0.0110582 0
M  V30 4294 H 398.55 -4.24758 -1.22608 0
M  V30 4295 N 397.609 -0.515225 -1.4894 0
M  V30 4296 C 398.856 0.024215 -2.02486 0
M  V30 4297 C 399.184 1.35671 -1.39368 0
M  V30 4298 O 398.439 1.88566 -0.523574 0
M  V30 4299 C 398.738 0.210595 -3.56779 0
M  V30 4300 C 398.404 -1.04569 -4.38607 0
M  V30 4301 C 397.066 -1.39002 -4.60686 0
M  V30 4302 C 399.418 -1.88008 -4.86109 0
M  V30 4303 C 396.746 -2.568 -5.27514 0
M  V30 4304 C 399.098 -3.04972 -5.54234 0
M  V30 4305 C 397.762 -3.39768 -5.74555 0
M  V30 4306 H 397.032 0.00886088 -0.740947 0
M  V30 4307 H 399.679 -0.678263 -1.79086 0
M  V30 4308 H 397.984 0.99572 -3.78936 0
M  V30 4309 H 399.681 0.642659 -3.95817 0
M  V30 4310 H 396.271 -0.767497 -4.21672 0
M  V30 4311 H 400.455 -1.62719 -4.68867 0
M  V30 4312 H 395.711 -2.8398 -5.41447 0
M  V30 4313 H 399.885 -3.69943 -5.90013 0
M  V30 4314 H 397.512 -4.31148 -6.26112 0
M  V30 4315 N 399.087 1.5561 -0.249682 0
M  V30 4316 C 400.019 2.18834 0.681496 0
M  V30 4317 C 401.032 1.16546 1.1367 0
M  V30 4318 O 402.221 1.43397 1.06299 0
M  V30 4319 C 399.321 2.77992 1.9384 0
M  V30 4320 C 398.494 4.05725 1.63419 0
M  V30 4321 C 397.553 4.49174 2.74096 0
M  V30 4322 O 396.579 5.15492 2.41364 0
M  V30 4323 N 397.781 4.17191 4.03649 0
M  V30 4324 H 400.546 2.9937 0.140514 0
M  V30 4325 H 398.107 1.6175 -0.0697541 0
M  V30 4326 H 400.099 3.04015 2.67127 0
M  V30 4327 H 398.669 2.01596 2.38909 0
M  V30 4328 H 397.889 3.87261 0.736358 0
M  V30 4329 H 399.177 4.88999 1.40562 0
M  V30 4330 H 398.575 3.63955 4.33074 0
M  V30 4331 H 397.132 4.48043 4.73393 0
M  V30 4332 N 400.565 -0.0233959 1.57583 0
M  V30 4333 C 401.805 -0.71784 1.9138 0
M  V30 4334 C 402.169 -1.72216 0.848853 0
M  V30 4335 O 403.37 -2.46527 1.07134 0
M  V30 4336 C 401.641 -1.36489 3.30311 0
M  V30 4337 S 403.2 -2.0877 3.85954 0
M  V30 4338 H 400.018 -0.237676 0.670098 0
M  V30 4339 H 402.62 0.0276709 1.9548 0
M  V30 4340 H 401.324 -0.620782 4.05678 0
M  V30 4341 H 400.855 -2.14883 3.29528 0
M  V30 4342 H 402.87 -3.35988 3.65139 0
M  V30 4343 N 402.043 -1.548 -0.295768 0
M  V30 4344 C 403.29 -1.74329 -1.03032 0
M  V30 4345 C 403.618 -0.531915 -1.87085 0
M  V30 4346 O 402.873 0.486052 -1.89568 0
M  V30 4347 C 403.172 -2.98797 -1.961 0
M  V30 4348 C 402.838 -4.32356 -1.2798 0
M  V30 4349 C 401.5 -4.68661 -1.09135 0
M  V30 4350 C 403.852 -5.15128 -0.793243 0
M  V30 4351 C 401.18 -5.85312 -0.403269 0
M  V30 4352 C 403.532 -6.32488 -0.118854 0
M  V30 4353 C 402.196 -6.6745 0.0815043 0
M  V30 4354 H 401.466 -0.637916 -0.37702 0
M  V30 4355 H 404.113 -1.8906 -0.304696 0
M  V30 4356 H 402.418 -2.78869 -2.75207 0
M  V30 4357 H 404.115 -3.11102 -2.53015 0
M  V30 4358 H 400.705 -4.03808 -1.43655 0
M  V30 4359 H 404.889 -4.87575 -0.92653 0
M  V30 4360 H 400.145 -6.1094 -0.237098 0
M  V30 4361 H 404.319 -6.95892 0.266035 0
M  V30 4362 H 401.946 -7.57695 0.616685 0
M  V30 4363 N 403.521 0.559213 -1.47345 0
M  V30 4364 C 404.798 1.31997 -1.44348 0
M  V30 4365 C 405.178 2.1064 -0.139358 0
M  V30 4366 O 404.526 2.1091 0.879153 0
M  V30 4367 C 404.736 2.22618 -2.68779 0
M  V30 4368 C 406.084 2.83701 -3.1591 0
M  V30 4369 O 407.108 2.32921 -2.69493 0
M  V30 4370 O 405.967 3.75993 -3.966 0
M  V30 4371 H 403.061 0.594251 -0.575147 0
M  V30 4372 H 405.607 0.578282 -1.59543 0
M  V30 4373 H 404.379 1.64093 -3.55231 0
M  V30 4374 H 404.002 3.04085 -2.5616 0
M  V30 4375 N 404.999 1.35443 0.805782 0
M  V30 4376 C 406.245 1.28952 1.56522 0
M  V30 4377 C 406.578 -0.135597 1.93726 0
M  V30 4378 O 405.853 -1.08516 1.61414 0
M  V30 4379 C 406.136 2.19678 2.85331 0
M  V30 4380 C 405.989 3.7081 2.54598 0
M  V30 4381 C 407.308 2.09495 3.8704 0
M  V30 4382 H 404.427 0.469764 0.567883 0
M  V30 4383 H 407.069 1.65851 0.927001 0
M  V30 4384 H 405.219 1.8834 3.39795 0
M  V30 4385 H 406.891 4.12593 2.06312 0
M  V30 4386 H 405.134 3.91051 1.8778 0
M  V30 4387 H 405.805 4.29679 3.46525 0
M  V30 4388 H 408.281 2.37045 3.41978 0
M  V30 4389 H 407.157 2.75173 4.74943 0
M  V30 4390 H 407.418 1.07714 4.28777 0
M  V30 4391 N 406.477 -1.02803 1.19454 0
M  V30 4392 C 407.407 -2.12999 0.956758 0
M  V30 4393 C 408.388 -1.69743 -0.110188 0
M  V30 4394 O 409.573 -1.94148 0.0450038 0
M  V30 4395 C 406.703 -3.43746 0.495553 0
M  V30 4396 C 405.657 -4.00688 1.50443 0
M  V30 4397 C 404.983 -5.27067 0.900275 0
M  V30 4398 C 406.283 -4.35397 2.8849 0
M  V30 4399 H 407.977 -2.33148 1.87836 0
M  V30 4400 H 405.523 -1.12045 0.904539 0
M  V30 4401 H 407.476 -4.2021 0.316493 0
M  V30 4402 H 406.2 -3.23321 -0.461646 0
M  V30 4403 H 404.859 -3.2632 1.67065 0
M  V30 4404 H 404.507 -5.02959 -0.064503 0
M  V30 4405 H 404.207 -5.66127 1.57397 0
M  V30 4406 H 405.731 -6.06196 0.73203 0
M  V30 4407 H 407.145 -5.02795 2.75446 0
M  V30 4408 H 405.542 -4.85541 3.52661 0
M  V30 4409 H 406.612 -3.44662 3.41081 0
M  V30 4410 N 407.956 -0.998596 -1.21925 0
M  V30 4411 C 408.886 -0.573688 -2.26343 0
M  V30 4412 C 409.867 0.402296 -1.65274 0
M  V30 4413 O 411.052 0.291683 -1.91997 0
M  V30 4414 C 408.182 0.106839 -3.47136 0
M  V30 4415 C 407.136 -0.788269 -4.20678 0
M  V30 4416 C 406.462 0.0254927 -5.34694 0
M  V30 4417 C 407.762 -2.08784 -4.78755 0
M  V30 4418 H 409.456 -1.44651 -2.62138 0
M  V30 4419 H 407.002 -0.696975 -1.26009 0
M  V30 4420 H 408.955 0.415531 -4.19346 0
M  V30 4421 H 407.679 1.01424 -3.10452 0
M  V30 4422 H 406.338 -1.08069 -3.50309 0
M  V30 4423 H 405.986 0.933989 -4.94253 0
M  V30 4424 H 405.686 -0.570437 -5.84825 0
M  V30 4425 H 407.21 0.328147 -6.09718 0
M  V30 4426 H 408.624 -1.84272 -5.42878 0
M  V30 4427 H 407.021 -2.63307 -5.39249 0
M  V30 4428 H 408.091 -2.76284 -3.98491 0
M  V30 4429 N 409.434 1.37368 -0.772513 0
M  V30 4430 C 410.682 1.99279 -0.336516 0
M  V30 4431 C 411.003 1.6163 1.09091 0
M  V30 4432 O 410.273 0.882109 1.74916 0
M  V30 4433 H 408.853 0.737063 -0.121435 0
M  V30 4434 H 411.515 1.67836 -0.990809 0
M  V30 4435 H 410.611 3.09332 -0.414763 0
M  V30 4436 N 410.912 0.523116 1.48665 0
M  V30 4437 C 412.161 -0.01544 2.01694 0
M  V30 4438 C 412.474 -1.35975 1.40606 0
M  V30 4439 O 413.68 -1.98627 1.85093 0
M  V30 4440 C 412.136 -0.0779303 3.59816 0
M  V30 4441 C 411.744 1.26107 4.29885 0
M  V30 4442 C 413.488 -0.565678 4.20714 0
M  V30 4443 C 411.395 1.15954 5.79921 0
M  V30 4444 H 410.325 -0.00954163 0.75394 0
M  V30 4445 H 412.976 0.665865 1.70993 0
M  V30 4446 H 411.358 -0.824165 3.87329 0
M  V30 4447 H 412.532 2.02233 4.14051 0
M  V30 4448 H 410.847 1.68401 3.80828 0
M  V30 4449 H 413.444 -0.6595 5.30617 0
M  V30 4450 H 413.787 -1.56984 3.85567 0
M  V30 4451 H 414.32 0.12467 3.97605 0
M  V30 4452 H 411.059 2.13864 6.19631 0
M  V30 4453 H 410.579 0.439529 5.98187 0
M  V30 4454 H 412.258 0.847361 6.41427 0
M  V30 4455 N 412.39 -1.55475 0.257931 0
M  V30 4456 C 413.322 -2.19192 -0.669881 0
M  V30 4457 C 414.335 -1.17148 -1.1305 0
M  V30 4458 O 415.524 -1.43959 -1.05537 0
M  V30 4459 C 412.624 -2.79016 -1.92363 0
M  V30 4460 C 411.797 -4.06586 -1.61265 0
M  V30 4461 C 410.856 -4.50622 -2.7171 0
M  V30 4462 O 409.882 -5.16765 -2.38627 0
M  V30 4463 N 411.084 -4.19325 -4.01431 0
M  V30 4464 H 413.849 -2.99441 -0.124635 0
M  V30 4465 H 411.41 -1.6171 0.0783311 0
M  V30 4466 H 413.402 -3.05427 -2.65511 0
M  V30 4467 H 411.972 -2.0286 -2.37837 0
M  V30 4468 H 411.192 -3.87646 -0.715811 0
M  V30 4469 H 412.48 -4.89737 -1.37967 0
M  V30 4470 H 411.878 -3.66247 -4.31138 0
M  V30 4471 H 410.435 -4.50547 -4.7101 0
M  V30 4472 N 413.868 0.0150385 -1.57593 0
M  V30 4473 C 414.8 1.03912 -2.04291 0
M  V30 4474 C 415.813 1.31618 -0.958146 0
M  V30 4475 O 417.002 1.28859 -1.23522 0
M  V30 4476 C 414.102 2.37749 -2.41514 0
M  V30 4477 C 413.275 2.29198 -3.72541 0
M  V30 4478 C 412.334 3.45598 -3.96797 0
M  V30 4479 O 411.36 3.24461 -4.67668 0
M  V30 4480 N 412.562 4.67945 -3.43523 0
M  V30 4481 H 415.327 0.64099 -2.92765 0
M  V30 4482 H 412.888 0.20272 -1.60626 0
M  V30 4483 H 414.88 3.14364 -2.54867 0
M  V30 4484 H 413.45 2.69357 -1.58637 0
M  V30 4485 H 412.67 1.3759 -3.69408 0
M  V30 4486 H 413.958 2.20642 -4.5847 0
M  V30 4487 H 413.356 4.88017 -2.86104 0
M  V30 4488 H 411.913 5.41878 -3.62232 0
M  V30 4489 N 415.346 1.54954 0.287554 0
M  V30 4490 C 416.574 1.78881 1.03967 0
M  V30 4491 C 416.989 0.554894 1.80462 0
M  V30 4492 O 416.346 -0.475676 1.76192 0
M  V30 4493 C 416.397 3.00488 2.0097 0
M  V30 4494 O 416.118 4.19113 1.27577 0
M  V30 4495 C 417.619 3.36907 2.88112 0
M  V30 4496 H 414.839 0.596259 0.307761 0
M  V30 4497 H 417.383 2.01937 0.322749 0
M  V30 4498 H 415.538 2.79601 2.68145 0
M  V30 4499 H 415.952 4.87765 1.92835 0
M  V30 4500 H 417.426 4.25205 3.52001 0
M  V30 4501 H 417.903 2.55659 3.57121 0
M  V30 4502 H 418.509 3.60001 2.26449 0
M  V30 4503 N 416.824 -0.551391 1.4764 0
M  V30 4504 C 417.787 -1.64007 1.60107 0
M  V30 4505 C 418.787 -1.53601 0.47576 0
M  V30 4506 O 419.977 -1.57655 0.740988 0
M  V30 4507 C 417.109 -3.03569 1.55108 0
M  V30 4508 H 418.302 -1.543 2.57161 0
M  V30 4509 H 415.855 -0.771776 1.35917 0
M  V30 4510 H 416.59 -3.18804 0.594519 0
M  V30 4511 H 416.375 -3.12532 2.36783 0
M  V30 4512 H 417.865 -3.82762 1.66982 0
M  V30 4513 N 418.302 -1.35869 -0.798587 0
M  V30 4514 C 419.55 -1.29332 -1.55298 0
M  V30 4515 C 419.871 0.129729 -1.94568 0
M  V30 4516 O 419.141 1.06796 -1.6423 0
M  V30 4517 H 417.721 -0.475737 -0.57592 0
M  V30 4518 H 420.383 -1.70062 -0.952093 0
M  V30 4519 H 419.479 -1.91458 -2.46476 0
M  V30 4520 N 419.78 1.02168 -1.19998 0
M  V30 4521 C 421.028 1.75338 -1.00504 0
M  V30 4522 C 421.349 1.89387 0.464506 0
M  V30 4523 O 420.619 1.43268 1.33608 0
M  V30 4524 H 419.199 0.649564 -0.368885 0
M  V30 4525 H 421.861 1.23205 -1.51018 0
M  V30 4526 H 420.957 2.75892 -1.45912 0
M  V30 4527 N 421.258 1.00505 1.21394 0
M  V30 4528 C 422.506 0.686415 1.90086 0
M  V30 4529 C 422.827 -0.785264 1.7849 0
M  V30 4530 O 422.097 -1.56387 1.17983 0
M  V30 4531 H 420.677 0.2509 0.703604 0
M  V30 4532 H 423.339 1.27417 1.47482 0
M  V30 4533 H 422.435 0.959621 2.96981 0
M  V30 4534 N 422.737 -1.36956 0.779787 0
M  V30 4535 C 423.687 -2.27539 0.144892 0
M  V30 4536 C 424.671 -1.46493 -0.665488 0
M  V30 4537 O 425.863 -1.68968 -0.527141 0
M  V30 4538 C 422.992 -3.35512 -0.727082 0
M  V30 4539 C 422.078 -4.24001 0.0915642 0
M  V30 4540 N 422.469 -4.92757 1.14125 0
M  V30 4541 C 420.767 -4.45807 -0.131141 0
M  V30 4542 C 421.468 -5.58138 1.6388 0
M  V30 4543 N 420.444 -5.35241 0.94962 0
M  V30 4544 H 424.246 -2.78176 0.948446 0
M  V30 4545 H 421.76 -1.50169 0.618315 0
M  V30 4546 H 423.757 -3.99324 -1.19776 0
M  V30 4547 H 422.417 -2.86431 -1.52929 0
M  V30 4548 H 423.428 -4.94984 1.52353 0
M  V30 4549 H 420.105 -4.07582 -0.904621 0
M  V30 4550 H 421.495 -6.23071 2.51461 0
M  V30 4551 N 424.215 -0.530993 -1.48385 0
M  V30 4552 C 425.178 0.220497 -2.28137 0
M  V30 4553 C 426.178 0.866851 -1.35434 0
M  V30 4554 O 427.368 0.726746 -1.58316 0
M  V30 4555 C 424.5 1.31921 -3.1434 0
M  V30 4556 H 425.693 -0.479714 -2.96038 0
M  V30 4557 H 423.246 -0.286968 -1.53643 0
M  V30 4558 H 423.981 2.05264 -2.51072 0
M  V30 4559 H 423.766 0.86085 -3.82533 0
M  V30 4560 H 425.256 1.84776 -3.74497 0
M  V30 4561 N 425.693 1.55336 -0.266172 0
M  V30 4562 C 426.656 2.20878 0.612001 0
M  V30 4563 C 427.656 1.18388 1.08816 0
M  V30 4564 O 428.846 1.4335 0.989774 0
M  V30 4565 C 425.978 2.86765 1.84332 0
M  V30 4566 H 427.171 2.99873 0.0398718 0
M  V30 4567 H 424.724 1.56291 -0.0167309 0
M  V30 4568 H 425.459 2.11759 2.45619 0
M  V30 4569 H 425.244 3.61862 1.5099 0
M  V30 4570 H 426.734 3.36867 2.46801 0
M  V30 4571 N 427.171 -0.0066808 1.57599 0
M  V30 4572 C 428.103 -1.02827 2.04839 0
M  V30 4573 C 429.116 -1.31108 0.965113 0
M  V30 4574 O 430.305 -1.28202 1.24203 0
M  V30 4575 C 427.405 -2.36464 2.42771 0
M  V30 4576 C 426.578 -2.27219 3.73751 0
M  V30 4577 C 425.637 -3.43489 3.98625 0
M  V30 4578 O 424.663 -3.21976 4.69382 0
M  V30 4579 N 425.865 -4.66116 3.46 0
M  V30 4580 H 428.63 -0.625455 2.93101 0
M  V30 4581 H 426.191 -0.194198 1.60731 0
M  V30 4582 H 428.183 -3.13008 2.56531 0
M  V30 4583 H 426.753 -2.68512 1.60063 0
M  V30 4584 H 425.973 -1.35629 3.70133 0
M  V30 4585 H 427.261 -2.18208 4.59633 0
M  V30 4586 H 426.659 -4.86493 2.88688 0
M  V30 4587 H 425.216 -5.39949 3.65101 0
M  V30 4588 N 428.649 -1.55105 -0.279332 0
M  V30 4589 C 429.896 -1.75412 -1.01177 0
M  V30 4590 C 430.224 -0.551728 -1.86511 0
M  V30 4591 O 429.479 0.465919 -1.90073 0
M  V30 4592 C 429.778 -3.0086 -1.92919 0
M  V30 4593 C 429.444 -4.33689 -1.23387 0
M  V30 4594 C 428.106 -4.69792 -1.04159 0
M  V30 4595 C 430.458 -5.15941 -0.738562 0
M  V30 4596 C 427.786 -5.85707 -0.341166 0
M  V30 4597 C 430.138 -6.32579 -0.0517636 0
M  V30 4598 C 428.802 -6.67326 0.152292 0
M  V30 4599 H 428.072 -0.641879 -0.370233 0
M  V30 4600 H 430.719 -1.89373 -0.284627 0
M  V30 4601 H 429.024 -2.81773 -2.72234 0
M  V30 4602 H 430.721 -3.13768 -2.49701 0
M  V30 4603 H 427.311 -4.05309 -1.39364 0
M  V30 4604 H 431.495 -4.8853 -0.874764 0
M  V30 4605 H 426.751 -6.11157 -0.172287 0
M  V30 4606 H 430.925 -6.9557 0.339828 0
M  V30 4607 H 428.552 -7.56998 0.697014 0
M  V30 4608 N 430.127 0.543554 -1.4793 0
M  V30 4609 C 431.057 1.65888 -1.64327 0
M  V30 4610 C 432.038 1.62818 -0.492383 0
M  V30 4611 O 433.223 1.80226 -0.723338 0
M  V30 4612 C 430.353 3.04506 -1.67013 0
M  V30 4613 C 429.307 3.2243 -2.81466 0
M  V30 4614 C 428.633 4.61972 -2.69233 0
M  V30 4615 C 429.933 3.06496 -4.22915 0
M  V30 4616 H 431.627 1.52421 -2.57698 0
M  V30 4617 H 429.173 0.731849 -1.24016 0
M  V30 4618 H 431.126 3.82391 -1.77074 0
M  V30 4619 H 429.85 3.18964 -0.70212 0
M  V30 4620 H 428.509 2.46957 -2.70938 0
M  V30 4621 H 428.157 4.73247 -1.7043 0
M  V30 4622 H 427.857 4.74911 -3.46025 0
M  V30 4623 H 429.381 5.41974 -2.81242 0
M  V30 4624 H 430.795 3.74186 -4.34348 0
M  V30 4625 H 429.192 3.30938 -5.006 0
M  V30 4626 H 430.262 2.03077 -4.40327 0
M  V30 4627 N 431.605 1.3629 0.791371 0
M  V30 4628 C 432.537 1.26321 1.91248 0
M  V30 4629 C 433.55 0.18313 1.61767 0
M  V30 4630 O 434.739 0.437682 1.73051 0
M  V30 4631 C 431.839 0.925901 3.26007 0
M  V30 4632 C 431.012 2.10746 3.83281 0
M  V30 4633 C 430.071 1.74352 4.96475 0
M  V30 4634 O 429.097 2.46416 5.13096 0
M  V30 4635 N 430.299 0.676058 5.7655 0
M  V30 4636 H 433.064 2.22915 2.00323 0
M  V30 4637 H 430.625 1.29659 0.969546 0
M  V30 4638 H 432.617 0.663636 3.99222 0
M  V30 4639 H 431.187 0.0491581 3.12561 0
M  V30 4640 H 430.407 2.53264 3.02077 0
M  V30 4641 H 431.695 2.8969 4.18279 0
M  V30 4642 H 431.093 0.0776467 5.65647 0
M  V30 4643 H 429.65 0.473612 6.50077 0
M  V30 4644 N 433.083 -1.0153 1.20538 0
M  V30 4645 C 434.36 -1.72327 0.925343 0
M  V30 4646 C 434.74 -2.03383 -0.565547 0
M  V30 4647 O 434.088 -1.69934 -1.52757 0
M  V30 4648 C 434.298 -2.9902 1.79967 0
M  V30 4649 C 435.646 -3.72258 2.04228 0
M  V30 4650 O 436.67 -3.08979 1.77231 0
M  V30 4651 O 435.529 -4.86053 2.4983 0
M  V30 4652 H 432.623 -0.751099 0.346092 0
M  V30 4653 H 435.169 -1.07366 1.31417 0
M  V30 4654 H 433.941 -2.72402 2.80915 0
M  V30 4655 H 433.564 -3.71721 1.41099 0
M  V30 4656 N 434.561 -1.01147 -1.20859 0
M  V30 4657 C 435.494 -0.522108 -2.22147 0
M  V30 4658 C 436.472 0.427686 -1.56874 0
M  V30 4659 O 437.656 0.34889 -1.85243 0
M  V30 4660 C 434.783 0.240819 -3.37843 0
M  V30 4661 C 433.829 -0.657752 -4.21398 0
M  V30 4662 S 434.662 -2.12393 -4.91578 0
M  V30 4663 C 435.818 -1.37102 -6.10699 0
M  V30 4664 H 436.051 -1.38035 -2.63313 0
M  V30 4665 H 433.584 -0.819941 -1.30829 0
M  V30 4666 H 435.542 0.674908 -4.04914 0
M  V30 4667 H 434.203 1.07457 -2.95147 0
M  V30 4668 H 433.396 -0.0697456 -5.03952 0
M  V30 4669 H 432.998 -1.0294 -3.59555 0
M  V30 4670 H 435.29 -0.648315 -6.74391 0
M  V30 4671 H 436.233 -2.17252 -6.73949 0
M  V30 4672 H 436.641 -0.876154 -5.57659 0
M  V30 4673 N 436.039 1.36541 -0.78704 0
M  V30 4674 C 437.455 1.52571 -0.46844 0
M  V30 4675 C 437.655 1.7415 1.01361 0
M  V30 4676 O 436.711 1.77163 1.79915 0
M  V30 4677 C 438.024 2.71299 -1.29682 0
M  V30 4678 C 439.572 2.85169 -1.29027 0
M  V30 4679 C 440.047 4.06898 -2.10233 0
M  V30 4680 N 441.538 4.1404 -2.07666 0
M  V30 4681 C 442.273 5.07301 -2.67271 0
M  V30 4682 N 441.769 6.06021 -3.35724 0
M  V30 4683 N 443.562 4.99898 -2.57018 0
M  V30 4684 H 435.713 1.20788 -1.74711 0
M  V30 4685 H 437.976 0.589364 -0.742532 0
M  V30 4686 H 437.682 2.61868 -2.34773 0
M  V30 4687 H 437.556 3.6539 -0.936479 0
M  V30 4688 H 439.943 2.94062 -0.247284 0
M  V30 4689 H 440.024 1.91992 -1.69035 0
M  V30 4690 H 439.668 3.98766 -3.1456 0
M  V30 4691 H 439.598 4.99218 -1.67597 0
M  V30 4692 H 442.089 3.43357 -1.57843 0
M  V30 4693 H 442.402 6.73741 -3.78541 0
M  V30 4694 H 440.747 6.06253 -3.39826 0
M  V30 4695 H 443.938 4.21724 -2.03142 0
M  V30 4696 H 444.111 5.72392 -3.03761 0
M  V30 4697 N 437.518 0.538854 1.48102 0
M  V30 4698 C 438.934 0.19732 1.58376 0
M  V30 4699 C 439.134 -1.29971 1.5398 0
M  V30 4700 O 438.19 -2.07861 1.43352 0
M  V30 4701 C 439.503 0.807716 2.89649 0
M  V30 4702 C 441.051 0.77726 3.03196 0
M  V30 4703 C 441.526 1.36639 4.37143 0
M  V30 4704 N 443.017 1.32875 4.43732 0
M  V30 4705 C 443.752 1.7544 5.45901 0
M  V30 4706 N 443.248 2.25776 6.54979 0
M  V30 4707 N 445.041 1.66623 5.36836 0
M  V30 4708 H 437.192 1.5117 1.49202 0
M  V30 4709 H 439.455 0.629327 0.708979 0
M  V30 4710 H 439.161 1.85909 2.98548 0
M  V30 4711 H 439.035 0.289975 3.76084 0
M  V30 4712 H 441.422 -0.265374 2.93904 0
M  V30 4713 H 441.503 1.33256 2.18349 0
M  V30 4714 H 441.147 2.408 4.47189 0
M  V30 4715 H 441.077 0.786689 5.20691 0
M  V30 4716 H 443.568 0.96037 3.65493 0
M  V30 4717 H 443.881 2.56226 7.29087 0
M  V30 4718 H 442.226 2.29775 6.55918 0
M  V30 4719 H 445.417 1.27089 4.50517 0
M  V30 4720 H 445.59 2.00115 6.16326 0
M  V30 4721 N 438.996 -1.55193 0.274407 0
M  V30 4722 C 440.226 -2.03692 -0.345442 0
M  V30 4723 C 440.634 -1.15224 -1.50067 0
M  V30 4724 O 439.977 -0.164749 -1.8296 0
M  V30 4725 C 440.039 -3.48325 -0.88939 0
M  V30 4726 C 439.703 -4.56794 0.137115 0
M  V30 4727 C 440.7 -5.11028 0.956378 0
M  V30 4728 C 438.385 -5.01568 0.27115 0
M  V30 4729 C 440.379 -6.08552 1.89587 0
M  V30 4730 C 438.066 -5.98918 1.21412 0
M  V30 4731 C 439.064 -6.52291 2.02498 0
M  V30 4732 O 438.752 -7.47738 2.952 0
M  V30 4733 H 438.484 -0.670893 -0.0829332 0
M  V30 4734 H 441.038 -2.01387 0.404056 0
M  V30 4735 H 439.268 -3.47867 -1.68895 0
M  V30 4736 H 440.957 -3.80167 -1.42225 0
M  V30 4737 H 441.723 -4.7725 0.863559 0
M  V30 4738 H 437.602 -4.5967 -0.349987 0
M  V30 4739 H 441.146 -6.50137 2.52918 0
M  V30 4740 H 437.043 -6.32114 1.30776 0
M  V30 4741 H 437.811 -7.65451 2.89874 0
M  V30 4742 N 440.474 -0.00167713 -1.576 0
M  V30 4743 C 441.407 1.02317 -2.03977 0
M  V30 4744 C 442.385 1.33381 -0.929963 0
M  V30 4745 O 443.569 1.45517 -1.19822 0
M  V30 4746 C 440.696 2.35035 -2.43878 0
M  V30 4747 C 439.742 2.19621 -3.65607 0
M  V30 4748 S 440.575 1.52068 -5.13455 0
M  V30 4749 C 441.731 2.86212 -5.56627 0
M  V30 4750 H 441.964 0.628285 -2.90585 0
M  V30 4751 H 439.497 0.209239 -1.52976 0
M  V30 4752 H 441.455 3.11345 -2.67534 0
M  V30 4753 H 440.116 2.71663 -1.57665 0
M  V30 4754 H 439.309 3.1767 -3.91282 0
M  V30 4755 H 438.911 1.51455 -3.41961 0
M  V30 4756 H 441.203 3.82509 -5.59189 0
M  V30 4757 H 442.146 2.65235 -6.56549 0
M  V30 4758 H 442.554 2.90199 -4.84195 0
M  V30 4759 N 441.952 1.55251 0.271103 0
M  V30 4760 C 443.363 1.66635 0.842007 0
M  V30 4761 C 443.714 0.594631 1.86972 0
M  V30 4762 O 442.839 -0.263532 2.14789 0
M  V30 4763 C 443.434 3.02082 1.53401 0
M  V30 4764 C 441.993 3.15487 2.05293 0
M  V30 4765 C 441.14 2.62438 0.895631 0
M  V30 4766 H 444.091 1.58629 0.0474117 0
M  V30 4767 H 444.112 2.95176 2.40107 0
M  V30 4768 H 443.624 3.80062 0.785786 0
M  V30 4769 H 441.725 2.42284 2.83071 0
M  V30 4770 H 441.838 4.22075 2.26693 0
M  V30 4771 H 440.202 2.19644 1.28953 0
M  V30 4772 H 440.985 3.42923 0.160878 0
M  V30 4773 N 443.43 -0.535701 1.48216 0
M  V30 4774 C 444.841 -1.11769 1.49548 0
M  V30 4775 C 445.192 -1.94442 0.26207 0
M  V30 4776 O 444.317 -2.06987 -0.631287 0
M  V30 4777 C 444.912 -2.03367 2.70975 0
M  V30 4778 C 443.471 -2.56795 2.75196 0
M  V30 4779 C 442.618 -1.33631 2.42977 0
M  V30 4780 H 445.569 -0.321232 1.55415 0
M  V30 4781 H 445.59 -2.87569 2.49167 0
M  V30 4782 H 445.102 -1.43169 3.60727 0
M  V30 4783 H 443.203 -3.20731 1.89638 0
M  V30 4784 H 443.316 -2.9632 3.76472 0
M  V30 4785 H 441.68 -1.6502 1.94012 0
M  V30 4786 H 442.463 -0.75194 3.34964 0
M  V30 4787 N 444.908 -1.36708 -0.784132 0
M  V30 4788 C 445.871 -1.31307 -1.87859 0
M  V30 4789 C 446.871 -0.219654 -1.59293 0
M  V30 4790 O 448.061 -0.47476 -1.67606 0
M  V30 4791 C 445.193 -1.03679 -3.24751 0
M  V30 4792 H 446.386 -2.28647 -1.94064 0
M  V30 4793 H 443.939 -1.21558 -0.98252 0
M  V30 4794 H 444.674 -0.0681936 -3.24228 0
M  V30 4795 H 444.459 -1.82811 -3.46876 0
M  V30 4796 H 445.949 -1.02518 -4.04821 0
M  V30 4797 N 446.386 1.0089 -1.21074 0
M  V30 4798 C 447.336 2.0799 -0.934034 0
M  V30 4799 C 448.32 1.60529 0.10919 0
M  V30 4800 O 449.512 1.76722 -0.0992198 0
M  V30 4801 C 446.641 3.39693 -0.496334 0
M  V30 4802 C 445.727 3.93833 -1.57341 0
M  V30 4803 N 446.118 4.21388 -2.7976 0
M  V30 4804 C 444.416 4.22067 -1.44137 0
M  V30 4805 C 445.117 4.65156 -3.49292 0
M  V30 4806 N 444.093 4.67895 -2.76722 0
M  V30 4807 H 447.895 2.27213 -1.86417 0
M  V30 4808 H 445.409 1.18927 -1.10589 0
M  V30 4809 H 447.406 4.15962 -0.279471 0
M  V30 4810 H 446.066 3.21879 0.427084 0
M  V30 4811 H 447.077 4.10061 -3.1634 0
M  V30 4812 H 443.754 4.1341 -0.582947 0
M  V30 4813 H 445.144 4.95231 -4.54088 0
M  V30 4814 N 447.864 1.01787 1.20321 0
M  V30 4815 C 449.28 0.732951 1.41774 0
M  V30 4816 C 449.48 -0.686883 1.89431 0
M  V30 4817 O 448.536 -1.45446 2.06402 0
M  V30 4818 C 449.849 1.75973 2.43832 0
M  V30 4819 C 451.397 1.77802 2.57596 0
M  V30 4820 C 451.872 2.7941 3.62897 0
M  V30 4821 N 453.363 2.78157 3.70382 0
M  V30 4822 C 454.098 3.53434 4.51521 0
M  V30 4823 N 453.594 4.38392 5.36455 0
M  V30 4824 N 455.387 3.42026 4.46066 0
M  V30 4825 H 447.538 1.93447 0.877035 0
M  V30 4826 H 449.801 0.835712 0.447536 0
M  V30 4827 H 449.507 2.77699 2.15815 0
M  V30 4828 H 449.381 1.57292 3.4284 0
M  V30 4829 H 451.768 0.767602 2.84942 0
M  V30 4830 H 451.849 2.00557 1.58779 0
M  V30 4831 H 451.493 3.80616 3.36295 0
M  V30 4832 H 451.423 2.53916 4.61339 0
M  V30 4833 H 453.914 2.16531 3.09714 0
M  V30 4834 H 454.227 4.92596 5.95457 0
M  V30 4835 H 452.572 4.4247 5.35953 0
M  V30 4836 H 455.763 2.75075 3.78749 0
M  V30 4837 H 455.936 4.00946 5.09064 0
M  V30 4838 N 449.342 -1.36122 0.79427 0
M  V30 4839 C 450.29 -2.31871 0.184023 0
M  V30 4840 C 451.284 -1.56041 -0.659365 0
M  V30 4841 O 452.49 -1.71266 -0.553906 0
M  V30 4842 H 448.865 -0.750896 0.0407373 0
M  V30 4843 H 450.836 -2.80898 1.00693 0
M  V30 4844 C 449.585 -3.41324 -0.662813 0
M  V30 4845 H 448.908 -3.99793 -0.0231944 0
M  V30 4846 H 450.348 -4.10629 -1.05639 0
M  V30 4847 C 448.807 -2.83308 -1.82313 0
M  V30 4848 O 449.337 -2.75863 -2.91997 0
M  V30 4849 N 447.543 -2.40529 -1.63077 0
M  V30 4850 H 447.09 -2.46785 -0.738591 0
M  V30 4851 H 447.048 -2.02059 -2.40872 0
M  V30 4852 N 450.82 -0.546701 -1.47814 0
M  V30 4853 C 452.067 -0.0187407 -2.02491 0
M  V30 4854 C 452.395 1.32685 -1.42215 0
M  V30 4855 O 451.65 1.87413 -0.563454 0
M  V30 4856 C 451.949 0.134869 -3.57145 0
M  V30 4857 C 451.615 -1.13849 -4.3629 0
M  V30 4858 C 450.277 -1.48743 -4.57634 0
M  V30 4859 C 452.629 -1.98277 -4.82012 0
M  V30 4860 C 449.957 -2.67932 -5.21948 0
M  V30 4861 C 452.309 -3.16659 -5.4764 0
M  V30 4862 C 450.973 -3.51879 -5.67219 0
M  V30 4863 H 450.243 -0.0068577 -0.740968 0
M  V30 4864 H 452.89 -0.716097 -1.77607 0
M  V30 4865 H 451.195 0.915118 -3.80963 0
M  V30 4866 H 452.892 0.558556 -3.97091 0
M  V30 4867 H 449.482 -0.856767 -4.19949 0
M  V30 4868 H 453.666 -1.72628 -4.6531 0
M  V30 4869 H 448.922 -2.95401 -5.35302 0
M  V30 4870 H 453.096 -3.82374 -5.82033 0
M  V30 4871 H 450.723 -4.44331 -6.16825 0
M  V30 4872 N 452.299 1.55045 -0.282633 0
M  V30 4873 C 453.229 2.2579 0.595066 0
M  V30 4874 C 454.21 1.25074 1.15284 0
M  V30 4875 O 455.395 1.5381 1.18559 0
M  V30 4876 C 452.525 2.98472 1.77572 0
M  V30 4877 C 451.479 4.0618 1.34914 0
M  V30 4878 C 450.805 4.66477 2.6135 0
M  V30 4879 C 452.105 5.1996 0.493821 0
M  V30 4880 H 453.799 2.994 0.00505653 0
M  V30 4881 H 451.345 1.44 0.000992001 0
M  V30 4882 H 453.298 3.46677 2.39568 0
M  V30 4883 H 452.022 2.2241 2.39168 0
M  V30 4884 H 450.681 3.58797 0.752338 0
M  V30 4885 H 450.329 3.87074 3.2122 0
M  V30 4886 H 450.029 5.39207 2.33516 0
M  V30 4887 H 451.553 5.17435 3.24181 0
M  V30 4888 H 452.967 5.64172 1.01898 0
M  V30 4889 H 451.364 5.99299 0.310047 0
M  V30 4890 H 452.434 4.82462 -0.485593 0
M  V30 4891 N 453.777 0.010035 1.57597 0
M  V30 4892 C 455.017 -0.677084 1.9286 0
M  V30 4893 C 455.381 -1.70377 0.885192 0
M  V30 4894 O 456.582 -2.44199 1.12339 0
M  V30 4895 C 454.853 -1.29452 3.33132 0
M  V30 4896 S 456.412 -2.00537 3.90295 0
M  V30 4897 H 453.23 -0.223409 0.674989 0
M  V30 4898 H 455.832 0.0691289 1.95378 0
M  V30 4899 H 454.536 -0.534593 4.06903 0
M  V30 4900 H 454.067 -2.07845 3.34012 0
M  V30 4901 H 456.082 -3.28168 3.72183 0
M  V30 4902 N 455.255 -1.55392 -0.262866 0
M  V30 4903 C 456.48 -1.80847 -1.01533 0
M  V30 4904 C 456.905 -0.584946 -1.78774 0
M  V30 4905 O 456.263 0.465701 -1.75217 0
M  V30 4906 C 456.311 -3.03866 -1.94159 0
M  V30 4907 O 455.415 -2.79662 -3.03089 0
M  V30 4908 H 454.756 -0.597441 -0.289759 0
M  V30 4909 H 457.286 -2.02553 -0.288698 0
M  V30 4910 H 457.296 -3.32872 -2.35924 0
M  V30 4911 H 455.971 -3.92564 -1.37354 0
M  V30 4912 H 454.548 -2.61781 -2.65566 0
M  V30 4913 N 456.733 0.527833 -1.48498 0
M  V30 4914 C 457.663 1.64136 -1.66077 0
M  V30 4915 C 458.644 1.62286 -0.509625 0
M  V30 4916 O 459.829 1.79449 -0.742413 0
M  V30 4917 C 456.959 3.02717 -1.70234 0
M  V30 4918 C 455.913 3.19426 -2.8487 0
M  V30 4919 C 455.239 4.5909 -2.74118 0
M  V30 4920 C 456.539 3.01993 -4.26142 0
M  V30 4921 H 458.233 1.4968 -2.593 0
M  V30 4922 H 455.779 0.718654 -1.24785 0
M  V30 4923 H 457.732 3.80491 -1.8112 0
M  V30 4924 H 456.456 3.18201 -0.735911 0
M  V30 4925 H 455.115 2.4407 -2.73542 0
M  V30 4926 H 454.763 4.71413 -1.7544 0
M  V30 4927 H 454.463 4.71214 -3.51042 0
M  V30 4928 H 455.987 5.3896 -2.86974 0
M  V30 4929 H 457.401 3.69558 -4.38292 0
M  V30 4930 H 455.798 3.2561 -5.04082 0
M  V30 4931 H 456.868 1.98396 -4.42456 0
M  V30 4932 N 458.211 1.37122 0.776871 0
M  V30 4933 C 459.121 1.34651 1.9211 0
M  V30 4934 C 460.137 0.246824 1.7224 0
M  V30 4935 O 461.313 0.48134 1.95563 0
M  V30 4936 C 458.378 1.14748 3.2716 0
M  V30 4937 C 457.439 2.34308 3.5972 0
M  V30 4938 C 456.672 2.15345 4.88326 0
M  V30 4939 O 456.895 1.13507 5.58992 0
M  V30 4940 O 455.829 3.03414 5.1983 0
M  V30 4941 H 459.655 2.31013 1.97146 0
M  V30 4942 H 457.24 1.17799 0.918901 0
M  V30 4943 H 459.122 1.05616 4.0795 0
M  V30 4944 H 457.797 0.214562 3.22988 0
M  V30 4945 H 456.704 2.49011 2.79185 0
M  V30 4946 H 458.037 3.26149 3.68629 0
M  V30 4947 N 459.689 -1.00246 1.21608 0
M  V30 4948 C 460.914 -1.78167 1.06167 0
M  V30 4949 C 461.339 -1.84138 -0.384035 0
M  V30 4950 O 460.697 -1.28683 -1.27712 0
M  V30 4951 C 460.745 -3.19786 1.66642 0
M  V30 4952 O 459.849 -4.02153 0.913613 0
M  V30 4953 H 459.19 -0.549 0.37349 0
M  V30 4954 H 461.72 -1.25994 1.61204 0
M  V30 4955 H 461.73 -3.70451 1.70969 0
M  V30 4956 H 460.405 -3.14754 2.7185 0
M  V30 4957 H 458.982 -3.60711 0.945635 0
M  V30 4958 N 461.167 -1.02423 -1.1978 0
M  V30 4959 C 462.115 -0.594474 -2.24875 0
M  V30 4960 C 463.109 0.370598 -1.65296 0
M  V30 4961 O 464.315 0.239684 -1.78397 0
M  V30 4962 H 460.69 -0.173961 -0.731602 0
M  V30 4963 H 462.661 -1.4916 -2.58445 0
M  V30 4964 C 461.41 0.0436512 -3.47673 0
M  V30 4965 H 460.733 -0.689963 -3.93801 0
M  V30 4966 H 462.173 0.307362 -4.22884 0
M  V30 4967 C 460.632 1.28881 -3.11274 0
M  V30 4968 O 461.162 2.38135 -3.23503 0
M  V30 4969 N 459.368 1.1758 -2.6575 0
M  V30 4970 H 458.915 0.286769 -2.55999 0
M  V30 4971 H 458.873 2.00988 -2.41767 0
M  V30 4972 N 462.645 1.35699 -0.801477 0
M  V30 4973 C 464.056 1.81415 -0.441073 0
M  V30 4974 C 464.407 1.66595 1.03636 0
M  V30 4975 O 463.532 1.19369 1.80499 0
M  V30 4976 C 464.127 3.29369 -0.793819 0
M  V30 4977 C 462.686 3.73248 -0.486083 0
M  V30 4978 C 461.833 2.57775 -1.02213 0
M  V30 4979 H 464.784 1.23749 -0.993572 0
M  V30 4980 H 464.805 3.80395 -0.0894158 0
M  V30 4981 H 464.317 3.40123 -1.86917 0
M  V30 4982 H 462.418 3.68046 0.580735 0
M  V30 4983 H 462.531 4.68222 -1.01513 0
M  V30 4984 H 460.895 2.50788 -0.444712 0
M  V30 4985 H 461.678 2.71309 -2.10348 0
M  V30 4986 N 464.123 0.554532 1.47522 0
M  V30 4987 C 465.348 0.0322661 2.07375 0
M  V30 4988 C 465.773 -1.25079 1.40488 0
M  V30 4989 O 465.131 -1.74859 0.47896 0
M  V30 4990 C 465.179 -0.149397 3.6029 0
M  V30 4991 O 464.283 -1.21259 3.9417 0
M  V30 4992 H 463.624 0.0501228 0.662106 0
M  V30 4993 H 466.154 0.769452 1.8958 0
M  V30 4994 H 466.164 -0.364437 4.06369 0
M  V30 4995 H 464.839 0.787743 4.08372 0
M  V30 4996 H 463.416 -0.97825 3.5984 0
M  V30 4997 N 465.601 -1.54893 0.290851 0
M  V30 4998 C 466.847 -2.0023 -0.321867 0
M  V30 4999 C 467.18 -1.179 -1.54316 0
M  V30 5000 O 466.455 -0.25293 -1.92848 0
M  V30 5001 C 466.738 -3.53456 -0.688515 0
M  V30 5002 C 466.591 -4.46532 0.541209 0
M  V30 5003 C 467.91 -4.13057 -1.51895 0
M  V30 5004 H 465.029 -0.727891 -0.115515 0
M  V30 5005 H 467.671 -1.85722 0.400931 0
M  V30 5006 H 465.821 -3.6595 -1.30433 0
M  V30 5007 H 467.493 -4.4596 1.17973 0
M  V30 5008 H 465.736 -4.17545 1.17636 0
M  V30 5009 H 466.407 -5.51475 0.240675 0
M  V30 5010 H 468.883 -4.03937 -0.99872 0
M  V30 5011 H 467.759 -5.20448 -1.74429 0
M  V30 5012 H 468.02 -3.64284 -2.50498 0
M  V30 5013 N 467.08 -0.0183926 -1.57589 0
M  V30 5014 C 468.496 0.337897 -1.55982 0
M  V30 5015 C 468.696 1.73604 -1.02294 0
M  V30 5016 O 467.752 2.43589 -0.664895 0
M  V30 5017 C 469.065 0.196305 -3.00059 0
M  V30 5018 C 470.613 0.269875 -3.11834 0
M  V30 5019 C 471.088 0.157197 -4.5773 0
M  V30 5020 N 472.579 0.214521 -4.62703 0
M  V30 5021 C 473.314 0.150955 -5.73201 0
M  V30 5022 N 472.81 0.0369212 -6.9279 0
M  V30 5023 N 474.603 0.204162 -5.61729 0
M  V30 5024 H 466.754 -0.93279 -1.90821 0
M  V30 5025 H 469.017 -0.359253 -0.877292 0
M  V30 5026 H 468.723 -0.766383 -3.43248 0
M  V30 5027 H 468.597 0.970908 -3.6449 0
M  V30 5028 H 470.984 1.22302 -2.68563 0
M  V30 5029 H 471.065 -0.534918 -2.50144 0
M  V30 5030 H 470.709 -0.792479 -5.01679 0
M  V30 5031 H 470.639 0.980717 -5.17387 0
M  V30 5032 H 473.13 0.303238 -3.76681 0
M  V30 5033 H 473.443 -0.00518321 -7.728 0
M  V30 5034 H 471.788 0.0022886 -6.95 0
M  V30 5035 H 474.979 0.291575 -4.67191 0
M  V30 5036 H 475.152 0.15116 -6.47824 0
M  V30 5037 N 468.558 1.5553 0.254621 0
M  V30 5038 C 469.468 1.92789 1.33677 0
M  V30 5039 C 470.484 0.827356 1.53071 0
M  V30 5040 O 471.66 1.12807 1.66843 0
M  V30 5041 C 468.725 2.20827 2.67275 0
M  V30 5042 C 467.786 3.4427 2.5647 0
M  V30 5043 C 467.019 3.70961 3.83697 0
M  V30 5044 O 467.242 2.99852 4.85227 0
M  V30 5045 O 466.176 4.64491 3.82794 0
M  V30 5046 H 470.002 2.84945 1.05071 0
M  V30 5047 H 467.587 1.42312 0.454723 0
M  V30 5048 H 469.469 2.40204 3.46237 0
M  V30 5049 H 468.144 1.31851 2.9563 0
M  V30 5050 H 467.051 3.30209 1.75821 0
M  V30 5051 H 468.384 4.33524 2.33062 0
M  V30 5052 N 470.036 -0.519951 1.48776 0
M  V30 5053 C 471.283 -1.27522 1.57303 0
M  V30 5054 C 471.611 -1.92869 0.251328 0
M  V30 5055 O 470.866 -1.80372 -0.759243 0
M  V30 5056 C 471.165 -2.37864 2.6675 0
M  V30 5057 C 470.831 -1.90103 4.08867 0
M  V30 5058 C 469.493 -1.76795 4.47546 0
M  V30 5059 C 471.845 -1.54133 4.97888 0
M  V30 5060 C 469.173 -1.25868 5.73039 0
M  V30 5061 C 471.525 -1.04665 6.23881 0
M  V30 5062 C 470.189 -0.899823 6.61407 0
M  V30 5063 H 469.459 -0.466636 0.575614 0
M  V30 5064 H 472.106 -0.579109 1.82534 0
M  V30 5065 H 470.411 -3.13186 2.35418 0
M  V30 5066 H 472.108 -2.95969 2.70561 0
M  V30 5067 H 468.698 -2.01414 3.78326 0
M  V30 5068 H 472.882 -1.6327 4.68675 0
M  V30 5069 H 468.138 -1.13196 6.0083 0
M  V30 5070 H 472.312 -0.759074 6.92251 0
M  V30 5071 H 469.939 -0.503011 7.58534 0
M  V30 5072 N 471.514 -1.37532 -0.769588 0
M  V30 5073 C 472.76 -1.33057 -1.53048 0
M  V30 5074 C 473.093 0.0841865 -1.94017 0
M  V30 5075 O 472.368 1.04198 -1.64235 0
M  V30 5076 C 472.651 -2.27166 -2.79406 0
M  V30 5077 C 472.504 -3.77429 -2.44677 0
M  V30 5078 C 473.823 -2.19683 -3.81349 0
M  V30 5079 H 470.942 -0.484655 -0.555228 0
M  V30 5080 H 473.584 -1.68251 -0.882702 0
M  V30 5081 H 471.734 -1.97283 -3.34682 0
M  V30 5082 H 473.406 -4.17918 -1.953 0
M  V30 5083 H 471.649 -3.95892 -1.77346 0
M  V30 5084 H 472.32 -4.38716 -3.35011 0
M  V30 5085 H 474.796 -2.46029 -3.35573 0
M  V30 5086 H 473.672 -2.87668 -4.67481 0
M  V30 5087 H 473.933 -1.19045 -4.25771 0
M  V30 5088 N 472.992 0.995999 -1.22138 0
M  V30 5089 C 473.922 2.10387 -1.01289 0
M  V30 5090 C 474.903 1.69975 0.0651454 0
M  V30 5091 O 476.088 1.9396 -0.0964628 0
M  V30 5092 C 473.218 3.42312 -0.586517 0
M  V30 5093 C 472.172 3.96558 -1.61014 0
M  V30 5094 C 471.498 5.24494 -1.0397 0
M  V30 5095 C 472.798 4.27595 -2.99933 0
M  V30 5096 H 474.492 2.28086 -1.93951 0
M  V30 5097 H 472.038 1.09607 -0.933928 0
M  V30 5098 H 473.991 4.19223 -0.427793 0
M  V30 5099 H 472.715 3.24431 0.375761 0
M  V30 5100 H 471.374 3.21776 -1.75658 0
M  V30 5101 H 471.022 5.02953 -0.0688703 0
M  V30 5102 H 470.722 5.61755 -1.72352 0
M  V30 5103 H 472.246 6.04042 -0.892494 0
M  V30 5104 H 473.66 4.95315 -2.8868 0
M  V30 5105 H 472.057 4.76021 -3.6541 0
M  V30 5106 H 473.127 3.35498 -3.50099 0
M  V30 5107 N 474.47 1.03057 1.19235 0
M  V30 5108 C 475.695 0.74757 1.93458 0
M  V30 5109 C 476.12 -0.687648 1.7508 0
M  V30 5110 O 475.478 -1.47499 1.05422 0
M  V30 5111 C 475.526 1.10604 3.43219 0
M  V30 5112 O 474.63 0.225671 4.11782 0
M  V30 5113 H 473.971 0.276047 0.603899 0
M  V30 5114 H 476.501 1.3777 1.51263 0
M  V30 5115 H 476.511 1.06366 3.93891 0
M  V30 5116 H 475.186 2.15165 3.55917 0
M  V30 5117 H 473.763 0.326795 3.71465 0
M  V30 5118 N 475.948 -1.35272 0.808662 0
M  V30 5119 C 476.895 -2.29764 0.218482 0
M  V30 5120 C 477.865 -1.52911 -0.648652 0
M  V30 5121 O 479.05 -1.81341 -0.593297 0
M  V30 5122 C 476.19 -3.39388 -0.625282 0
M  V30 5123 C 475.303 -4.31202 0.262516 0
M  V30 5124 C 474.438 -5.27919 -0.589451 0
M  V30 5125 C 473.477 -6.11371 0.298617 0
M  V30 5126 N 472.614 -7.0022 -0.513443 0
M  V30 5127 H 477.454 -2.79645 1.02968 0
M  V30 5128 H 474.991 -1.37629 0.519303 0
M  V30 5129 H 476.949 -4.01615 -1.12966 0
M  V30 5130 H 475.579 -2.90777 -1.40173 0
M  V30 5131 H 474.631 -3.69962 0.885013 0
M  V30 5132 H 475.943 -4.89748 0.945971 0
M  V30 5133 H 475.097 -5.95529 -1.15888 0
M  V30 5134 H 473.836 -4.69875 -1.30647 0
M  V30 5135 H 472.841 -5.42707 0.880301 0
M  V30 5136 H 474.066 -6.71494 1.01352 0
M  V30 5137 H 472.012 -6.44662 -1.21439 0
M  V30 5138 H 471.929 -7.55917 0.111922 0
M  V30 5139 H 473.197 -7.72175 -1.06608 0
M  V30 5140 N 477.426 -0.562348 -1.47226 0
M  V30 5141 C 478.674 -0.0401371 -2.0206 0
M  V30 5142 C 478.995 1.3165 -1.43852 0
M  V30 5143 O 478.265 1.85976 -0.615599 0
M  V30 5144 H 476.845 -0.0118479 -0.746906 0
M  V30 5145 H 479.507 -0.73352 -1.8057 0
M  V30 5146 H 478.603 0.0441254 -3.12069 0
M  V30 5147 N 478.904 1.54736 -0.299062 0
M  V30 5148 C 480.181 1.92187 0.363802 0
M  V30 5149 C 480.561 1.22607 1.71845 0
M  V30 5150 O 479.909 0.361141 2.25628 0
M  V30 5151 C 480.119 3.45678 0.480377 0
M  V30 5152 C 481.467 4.17885 0.752147 0
M  V30 5153 O 482.491 3.51702 0.564264 0
M  V30 5154 O 481.35 5.35048 1.11294 0
M  V30 5155 H 478.444 0.801681 0.203066 0
M  V30 5156 H 480.99 1.66115 -0.346978 0
M  V30 5157 H 479.762 3.88443 -0.471999 0
M  V30 5158 H 479.385 3.77779 1.2397 0
M  V30 5159 N 480.382 0.0267497 1.57577 0
M  V30 5160 C 481.345 -0.940916 2.08996 0
M  V30 5161 C 482.345 -1.25561 1.00455 0
M  V30 5162 O 483.535 -1.19634 1.26623 0
M  V30 5163 C 480.667 -2.25814 2.55384 0
M  V30 5164 H 481.86 -0.495628 2.95776 0
M  V30 5165 H 479.413 -0.221241 1.54726 0
M  V30 5166 H 480.148 -2.74976 1.71926 0
M  V30 5167 H 479.933 -2.04285 3.34679 0
M  V30 5168 H 481.423 -2.95178 2.95398 0
M  V30 5169 N 481.861 -1.55662 -0.24637 0
M  V30 5170 C 483.109 -1.77168 -0.972411 0
M  V30 5171 C 483.43 -0.590827 -1.85834 0
M  V30 5172 O 482.7 0.393365 -1.9191 0
M  V30 5173 H 481.28 -0.653405 -0.362038 0
M  V30 5174 H 483.942 -1.93101 -0.264189 0
M  V30 5175 H 483.038 -2.68335 -1.59382 0
M  V30 5176 N 483.339 0.512053 -1.4905 0
M  V30 5177 C 484.269 1.62365 -1.67809 0
M  V30 5178 C 485.25 1.61737 -0.526809 0
M  V30 5179 O 486.435 1.78651 -0.761404 0
M  V30 5180 C 483.565 3.00895 -1.73435 0
M  V30 5181 C 482.519 3.16387 -2.88242 0
M  V30 5182 C 481.845 4.56157 -2.78971 0
M  V30 5183 C 483.145 2.97457 -4.29321 0
M  V30 5184 H 484.839 1.46921 -2.60873 0
M  V30 5185 H 482.385 0.705379 -1.2554 0
M  V30 5186 H 484.338 3.78549 -1.85145 0
M  V30 5187 H 483.062 3.17403 -0.769619 0
M  V30 5188 H 481.721 2.41155 -2.76116 0
M  V30 5189 H 481.369 4.69525 -1.8043 0
M  V30 5190 H 481.069 4.67465 -3.5602 0
M  V30 5191 H 482.593 5.35886 -2.92675 0
M  V30 5192 H 484.007 3.64888 -4.42187 0
M  V30 5193 H 482.404 3.20245 -5.07507 0
M  V30 5194 H 483.474 1.93692 -4.44535 0
M  V30 5195 N 484.817 1.37938 0.762283 0
M  V30 5196 C 486.233 1.18945 1.06415 0
M  V30 5197 C 486.433 0.0321163 2.01474 0
M  V30 5198 O 485.489 -0.624844 2.44647 0
M  V30 5199 C 486.802 2.51218 1.65258 0
M  V30 5200 C 488.35 2.57824 1.7747 0
M  V30 5201 C 488.825 3.90251 2.39725 0
M  V30 5202 N 490.316 3.91744 2.47166 0
M  V30 5203 C 491.051 4.90966 2.96209 0
M  V30 5204 N 490.547 6.00585 3.45354 0
M  V30 5205 N 492.34 4.78363 2.9517 0
M  V30 5206 H 484.491 2.11994 0.131301 0
M  V30 5207 H 486.754 0.940262 0.120879 0
M  V30 5208 H 486.46 3.36317 1.02878 0
M  V30 5209 H 486.334 2.68989 2.64433 0
M  V30 5210 H 488.721 1.73126 2.3898 0
M  V30 5211 H 488.802 2.43928 0.770241 0
M  V30 5212 H 488.446 4.75368 1.78852 0
M  V30 5213 H 488.376 4.01454 3.40796 0
M  V30 5214 H 490.867 3.12563 2.12397 0
M  V30 5215 H 491.18 6.72236 3.81207 0
M  V30 5216 H 489.525 6.04217 3.43434 0
M  V30 5217 H 492.716 3.91841 2.56082 0
M  V30 5218 H 492.889 5.55843 3.33081 0
M  V30 5219 N 486.295 -0.989507 1.22664 0
M  V30 5220 C 487.205 -2.11449 1.01619 0
M  V30 5221 C 488.221 -1.73962 -0.036545 0
M  V30 5222 O 489.397 -2.00788 0.156924 0
M  V30 5223 C 486.462 -3.41465 0.600204 0
M  V30 5224 C 485.523 -3.93033 1.72695 0
M  V30 5225 C 484.756 -5.16844 1.33071 0
M  V30 5226 O 484.979 -5.7001 0.210975 0
M  V30 5227 O 483.913 -5.6225 2.14845 0
M  V30 5228 H 487.739 -2.32088 1.9588 0
M  V30 5229 H 485.324 -1.09823 1.01289 0
M  V30 5230 H 487.206 -4.19695 0.37873 0
M  V30 5231 H 485.881 -3.22178 -0.313511 0
M  V30 5232 H 484.788 -3.15961 2.00298 0
M  V30 5233 H 486.121 -4.16758 2.61865 0
M  V30 5234 N 487.773 -1.03688 -1.18687 0
M  V30 5235 C 488.736 -0.629115 -2.20397 0
M  V30 5236 C 489.736 0.311495 -1.57754 0
M  V30 5237 O 490.926 0.0974107 -1.73927 0
M  V30 5238 C 488.058 0.0782231 -3.4081 0
M  V30 5239 H 489.251 -1.52915 -2.57987 0
M  V30 5240 H 486.804 -0.828988 -1.32505 0
M  V30 5241 H 487.539 0.992233 -3.08748 0
M  V30 5242 H 487.324 -0.597776 -3.87517 0
M  V30 5243 H 488.814 0.350156 -4.16129 0
M  V30 5244 N 489.251 1.34841 -0.815825 0
M  V30 5245 C 490.481 2.02436 -0.412695 0
M  V30 5246 C 490.889 1.61604 0.983906 0
M  V30 5247 O 490.232 0.813729 1.64694 0
M  V30 5248 C 490.294 3.56953 -0.427182 0
M  V30 5249 C 489.958 4.21083 -1.77589 0
M  V30 5250 C 490.955 4.42107 -2.73564 0
M  V30 5251 C 488.64 4.58006 -2.06243 0
M  V30 5252 C 490.634 4.99169 -3.9637 0
M  V30 5253 C 488.321 5.1478 -3.2931 0
M  V30 5254 C 489.319 5.35304 -4.24191 0
M  V30 5255 O 489.007 5.90878 -5.45086 0
M  V30 5256 H 488.739 0.655631 -0.164695 0
M  V30 5257 H 491.293 1.73246 -1.1034 0
M  V30 5258 H 489.523 3.85372 0.320175 0
M  V30 5259 H 491.212 4.05875 -0.0450875 0
M  V30 5260 H 491.978 4.13953 -2.52721 0
M  V30 5261 H 487.857 4.41339 -1.33196 0
M  V30 5262 H 491.401 5.15105 -4.70439 0
M  V30 5263 H 487.298 5.42362 -3.5002 0
M  V30 5264 H 488.066 6.0932 -5.46508 0
M  V30 5265 N 490.729 0.570148 1.46925 0
M  V30 5266 C 492.006 -0.0153259 1.95594 0
M  V30 5267 C 492.386 -1.47232 1.51281 0
M  V30 5268 O 491.734 -2.15574 0.757624 0
M  V30 5269 C 491.944 0.143624 3.48704 0
M  V30 5270 C 493.292 0.00494484 4.246 0
M  V30 5271 O 494.316 0.0718214 3.56128 0
M  V30 5272 O 493.175 -0.141175 5.46318 0
M  V30 5273 H 490.269 -0.0568819 0.825041 0
M  V30 5274 H 492.815 0.637583 1.57267 0
M  V30 5275 H 491.587 1.15699 3.73804 0
M  V30 5276 H 491.21 -0.5463 3.93829 0
M  V30 5277 N 492.207 -1.54576 0.307264 0
M  V30 5278 C 493.17 -2.22423 -0.553224 0
M  V30 5279 C 494.17 -1.21231 -1.05639 0
M  V30 5280 O 495.36 -1.45923 -0.951419 0
M  V30 5281 C 492.492 -2.91552 -1.76664 0
M  V30 5282 H 493.685 -2.99874 0.0396484 0
M  V30 5283 H 491.238 -1.56192 0.0581629 0
M  V30 5284 H 491.973 -2.18196 -2.39918 0
M  V30 5285 H 491.758 -3.65738 -1.41343 0
M  V30 5286 H 493.248 -3.43292 -2.37783 0
M  V30 5287 N 493.685 -0.035106 -1.57561 0
M  V30 5288 C 494.925 0.646316 -1.93913 0
M  V30 5289 C 495.289 1.68947 -0.912185 0
M  V30 5290 O 496.49 2.42381 -1.1621 0
M  V30 5291 C 494.761 1.24136 -3.35149 0
M  V30 5292 S 496.32 1.94302 -3.93436 0
M  V30 5293 H 493.138 0.212642 -0.678457 0
M  V30 5294 H 495.74 -0.100203 -1.95243 0
M  V30 5295 H 494.444 0.46979 -4.07702 0
M  V30 5296 H 493.975 2.02505 -3.37276 0
M  V30 5297 H 495.99 3.22205 -3.77357 0
M  V30 5298 N 495.163 1.55791 0.238111 0
M  V30 5299 C 496.409 1.78297 0.966337 0
M  V30 5300 C 496.742 0.601903 1.84637 0
M  V30 5301 O 496.017 -0.399499 1.90353 0
M  V30 5302 C 496.3 3.10758 1.81939 0
M  V30 5303 C 496.153 4.39283 0.966958 0
M  V30 5304 C 497.472 3.39519 2.80027 0
M  V30 5305 H 494.591 0.648654 0.349882 0
M  V30 5306 H 497.233 1.88525 0.236253 0
M  V30 5307 H 495.383 3.02168 2.44185 0
M  V30 5308 H 497.055 4.59873 0.362514 0
M  V30 5309 H 495.298 4.32948 0.271669 0
M  V30 5310 H 495.969 5.28368 1.59784 0
M  V30 5311 H 498.445 3.48128 2.27917 0
M  V30 5312 H 497.321 4.33402 3.36829 0
M  V30 5313 H 497.582 2.60864 3.56934 0
M  V30 5314 N 496.642 -0.504142 1.49319 0
M  V30 5315 C 497.589 -1.60603 1.65756 0
M  V30 5316 C 498.559 -1.58425 0.499082 0
M  V30 5317 O 499.744 -1.76459 0.725728 0
M  V30 5318 C 496.884 -2.98764 1.72726 0
M  V30 5319 C 495.997 -3.10982 2.99857 0
M  V30 5320 C 495.132 -4.39857 2.97824 0
M  V30 5321 C 494.171 -4.45697 4.19548 0
M  V30 5322 N 493.308 -5.65995 4.15444 0
M  V30 5323 H 498.148 -1.45895 2.59843 0
M  V30 5324 H 495.685 -0.709891 1.28837 0
M  V30 5325 H 497.643 -3.78839 1.74747 0
M  V30 5326 H 496.273 -3.12183 0.821075 0
M  V30 5327 H 495.325 -2.23991 3.07461 0
M  V30 5328 H 496.637 -3.11157 3.89849 0
M  V30 5329 H 495.791 -5.2825 2.98391 0
M  V30 5330 H 494.53 -4.42242 2.05604 0
M  V30 5331 H 493.535 -3.55707 4.19229 0
M  V30 5332 H 494.76 -4.4503 5.12957 0
M  V30 5333 H 492.706 -5.69229 3.26059 0
M  V30 5334 H 492.623 -5.67773 4.99169 0
M  V30 5335 H 493.891 -6.56604 4.20109 0
M  V30 5336 N 498.12 -1.38341 -0.754957 0
M  V30 5337 C 499.083 -1.35262 -1.85032 0
M  V30 5338 C 500.083 -0.253393 -1.58791 0
M  V30 5339 O 501.273 -0.510205 -1.66561 0
M  V30 5340 C 498.405 -1.10544 -3.22479 0
M  V30 5341 H 499.598 -2.32712 -1.8917 0
M  V30 5342 H 497.151 -1.23614 -0.956515 0
M  V30 5343 H 497.886 -0.136952 -3.24011 0
M  V30 5344 H 497.671 -1.90127 -3.4292 0
M  V30 5345 H 499.161 -1.11082 -4.02555 0
M  V30 5346 N 499.598 0.982988 -1.23187 0
M  V30 5347 C 500.528 2.09301 -1.03515 0
M  V30 5348 C 501.509 1.70035 0.0471136 0
M  V30 5349 O 502.694 1.93847 -0.117029 0
M  V30 5350 C 499.824 3.4167 -0.622791 0
M  V30 5351 C 498.778 3.94828 -1.65211 0
M  V30 5352 C 498.104 5.23362 -1.09527 0
M  V30 5353 C 499.404 4.2439 -3.04451 0
M  V30 5354 H 501.098 2.26016 -1.96359 0
M  V30 5355 H 498.644 1.08611 -0.945501 0
M  V30 5356 H 500.597 4.18746 -0.472233 0
M  V30 5357 H 499.321 3.24811 0.341329 0
M  V30 5358 H 497.98 3.19895 -1.79061 0
M  V30 5359 H 497.628 5.02852 -0.122211 0
M  V30 5360 H 497.328 5.59895 -1.783 0
M  V30 5361 H 498.852 6.03062 -0.956511 0
M  V30 5362 H 500.266 4.92225 -2.93917 0
M  V30 5363 H 498.663 4.72118 -3.70438 0
M  V30 5364 H 499.733 3.31765 -3.53638 0
M  V30 5365 N 501.076 1.04316 1.18135 0
M  V30 5366 C 502.322 0.749128 1.88457 0
M  V30 5367 C 502.655 -0.72149 1.803 0
M  V30 5368 O 501.93 -1.52676 1.205 0
M  V30 5369 C 502.213 1.21905 3.38838 0
M  V30 5370 C 502.066 2.75195 3.55792 0
M  V30 5371 C 503.385 0.811085 4.32561 0
M  V30 5372 H 500.504 0.273611 0.684329 0
M  V30 5373 H 503.146 1.29561 1.38975 0
M  V30 5374 H 501.296 0.754137 3.8111 0
M  V30 5375 H 502.968 3.29743 3.22595 0
M  V30 5376 H 501.211 3.14899 2.98364 0
M  V30 5377 H 501.882 3.03135 4.61317 0
M  V30 5378 H 504.358 1.21118 3.98082 0
M  V30 5379 H 503.234 1.16761 5.36338 0
M  V30 5380 H 503.495 -0.285596 4.41177 0
M  V30 5381 N 502.554 -1.34406 0.822964 0
M  V30 5382 C 503.779 -2.0304 0.423034 0
M  V30 5383 C 504.204 -1.61568 -0.963196 0
M  V30 5384 O 503.562 -0.800339 -1.62678 0
M  V30 5385 C 503.61 -3.56636 0.53321 0
M  V30 5386 O 502.714 -4.09971 -0.446939 0
M  V30 5387 H 502.055 -0.64075 0.174171 0
M  V30 5388 H 504.585 -1.71653 1.11339 0
M  V30 5389 H 504.595 -4.05945 0.408991 0
M  V30 5390 H 503.27 -3.86168 1.54425 0
M  V30 5391 H 501.847 -3.71835 -0.281601 0
M  V30 5392 N 504.032 -0.577932 -1.46621 0
M  V30 5393 C 504.962 0.145917 -2.33044 0
M  V30 5394 C 505.943 0.888412 -1.45056 0
M  V30 5395 O 507.128 0.864812 -1.73881 0
M  V30 5396 C 504.258 1.16322 -3.27241 0
M  V30 5397 C 503.212 0.535868 -4.24632 0
M  V30 5398 C 502.538 1.65929 -5.08303 0
M  V30 5399 C 503.838 -0.523861 -5.19666 0
M  V30 5400 H 505.532 -0.575636 -2.93814 0
M  V30 5401 H 503.078 -0.278272 -1.41286 0
M  V30 5402 H 505.031 1.67793 -3.86553 0
M  V30 5403 H 503.755 1.91498 -2.64567 0
M  V30 5404 H 502.414 0.0422759 -3.66576 0
M  V30 5405 H 502.062 2.40061 -4.42018 0
M  V30 5406 H 501.762 1.2452 -5.74255 0
M  V30 5407 H 503.286 2.17686 -5.70478 0
M  V30 5408 H 504.7 -0.0944059 -5.73222 0
M  V30 5409 H 503.097 -0.858 -5.93935 0
M  V30 5410 H 504.167 -1.41197 -4.63887 0
M  V30 5411 N 505.51 1.54411 -0.315457 0
M  V30 5412 C 506.926 1.59556 0.037464 0
M  V30 5413 C 507.126 1.33217 1.5118 0
M  V30 5414 O 506.182 1.11264 2.26664 0
M  V30 5415 C 507.495 2.98372 -0.373477 0
M  V30 5416 C 509.043 3.11324 -0.323452 0
M  V30 5417 C 509.518 4.52472 -0.709433 0
M  V30 5418 N 511.009 4.58437 -0.662524 0
M  V30 5419 C 511.744 5.65751 -0.933474 0
M  V30 5420 N 511.24 6.81039 -1.27114 0
M  V30 5421 N 513.033 5.55489 -0.859573 0
M  V30 5422 H 505.184 1.6979 -1.27614 0
M  V30 5423 H 507.447 0.793732 -0.518356 0
M  V30 5424 H 507.153 3.22618 -1.40037 0
M  V30 5425 H 507.027 3.76264 0.265615 0
M  V30 5426 H 509.414 2.86818 0.694223 0
M  V30 5427 H 509.495 2.35555 -0.997367 0
M  V30 5428 H 509.139 4.7771 -1.72498 0
M  V30 5429 H 509.069 5.26598 -0.0132923 0
M  V30 5430 H 511.56 3.75636 -0.413065 0
M  V30 5431 H 511.873 7.58816 -1.46348 0
M  V30 5432 H 510.218 6.82555 -1.30932 0
M  V30 5433 H 513.409 4.64299 -0.595324 0
M  V30 5434 H 513.582 6.39036 -1.0741 0
M  V30 5435 N 506.988 0.0434614 1.5754 0
M  V30 5436 C 508.213 -0.645358 1.97104 0
M  V30 5437 C 508.638 -1.64037 0.920521 0
M  V30 5438 O 507.996 -1.80922 -0.11708 0
M  V30 5439 C 508.044 -1.31547 3.35749 0
M  V30 5440 O 507.148 -2.43103 3.33129 0
M  V30 5441 H 506.489 -0.168403 0.64229 0
M  V30 5442 H 509.019 0.109573 2.04306 0
M  V30 5443 H 509.029 -1.66895 3.72304 0
M  V30 5444 H 507.704 -0.586205 4.11748 0
M  V30 5445 H 506.281 -2.0976 3.0831 0
M  V30 5446 N 508.466 -1.55915 -0.229846 0
M  V30 5447 C 509.696 -1.82352 -0.971152 0
M  V30 5448 C 510.104 -0.619231 -1.7878 0
M  V30 5449 O 509.447 0.421597 -1.78797 0
M  V30 5450 C 509.509 -3.02399 -1.9441 0
M  V30 5451 C 509.173 -4.37739 -1.31277 0
M  V30 5452 C 510.17 -5.15074 -0.706757 0
M  V30 5453 C 507.855 -4.84454 -1.32702 0
M  V30 5454 C 509.849 -6.37281 -0.123413 0
M  V30 5455 C 507.536 -6.06605 -0.739831 0
M  V30 5456 C 508.534 -6.82858 -0.139071 0
M  V30 5457 O 508.222 -8.027 0.439007 0
M  V30 5458 H 507.954 -0.61035 -0.290601 0
M  V30 5459 H 510.508 -2.03839 -0.252746 0
M  V30 5460 H 508.738 -2.76709 -2.70128 0
M  V30 5461 H 510.427 -3.15779 -2.55026 0
M  V30 5462 H 511.193 -4.80093 -0.688131 0
M  V30 5463 H 507.072 -4.25081 -1.78402 0
M  V30 5464 H 510.616 -6.96741 0.346124 0
M  V30 5465 H 506.513 -6.4106 -0.755841 0
M  V30 5466 H 507.281 -8.17824 0.332521 0
M  V30 5467 N 509.944 0.496216 -1.49584 0
M  V30 5468 C 510.894 1.59422 -1.62999 0
M  V30 5469 C 511.878 1.53402 -0.485457 0
M  V30 5470 O 513.07 1.60851 -0.738649 0
M  V30 5471 C 510.199 2.98009 -1.70427 0
M  V30 5472 C 509.285 3.09008 -2.90473 0
M  V30 5473 N 509.676 2.89884 -4.14489 0
M  V30 5474 C 507.974 3.40115 -2.8851 0
M  V30 5475 C 508.675 3.0519 -4.95211 0
M  V30 5476 N 507.651 3.3428 -4.2867 0
M  V30 5477 H 511.453 1.43297 -2.56599 0
M  V30 5478 H 508.967 0.702443 -1.46422 0
M  V30 5479 H 510.964 3.76926 -1.78136 0
M  V30 5480 H 509.624 3.152 -0.77967 0
M  V30 5481 H 510.635 2.65963 -4.44392 0
M  V30 5482 H 507.312 3.63452 -2.05448 0
M  V30 5483 H 508.702 2.94856 -6.03746 0
M  V30 5484 N 511.423 1.38739 0.74761 0
M  V30 5485 C 512.353 1.39173 1.87492 0
M  V30 5486 C 513.334 0.256794 1.6815 0
M  V30 5487 O 514.519 0.460762 1.88655 0
M  V30 5488 C 511.649 1.22197 3.25093 0
M  V30 5489 C 510.603 2.32957 3.59047 0
M  V30 5490 C 509.929 2.01082 4.95449 0
M  V30 5491 C 511.229 3.75237 3.6331 0
M  V30 5492 H 512.923 2.3351 1.87386 0
M  V30 5493 H 510.469 1.12399 0.900134 0
M  V30 5494 H 512.422 1.21124 4.03617 0
M  V30 5495 H 511.146 0.243241 3.25693 0
M  V30 5496 H 509.805 2.33226 2.82845 0
M  V30 5497 H 509.453 1.01678 4.92616 0
M  V30 5498 H 509.153 2.75267 5.19136 0
M  V30 5499 H 510.677 2.01638 5.76346 0
M  V30 5500 H 512.091 3.76966 4.31937 0
M  V30 5501 H 510.488 4.48677 3.98509 0
M  V30 5502 H 511.558 4.07122 2.634 0
M  V30 5503 N 512.901 -0.976442 1.23707 0
M  V30 5504 C 513.833 -2.07212 0.979574 0
M  V30 5505 C 514.846 -1.6273 -0.0478528 0
M  V30 5506 O 516.035 -1.77506 0.18815 0
M  V30 5507 C 513.135 -3.35835 0.45479 0
M  V30 5508 C 512.308 -4.09268 1.54331 0
M  V30 5509 C 511.367 -5.16166 1.02271 0
M  V30 5510 O 510.393 -5.42827 1.71254 0
M  V30 5511 N 511.595 -5.80313 -0.147419 0
M  V30 5512 H 514.36 -2.29878 1.92292 0
M  V30 5513 H 511.921 -1.14343 1.14618 0
M  V30 5514 H 513.913 -4.04597 0.0914631 0
M  V30 5515 H 512.483 -3.10106 -0.394068 0
M  V30 5516 H 511.703 -3.34906 2.07923 0
M  V30 5517 H 512.991 -4.55095 2.27522 0
M  V30 5518 H 512.389 -5.61043 -0.724353 0
M  V30 5519 H 510.946 -6.50231 -0.451972 0
M  V30 5520 N 514.379 -1.04941 -1.1758 0
M  V30 5521 C 515.628 -0.753124 -1.87112 0
M  V30 5522 C 515.941 0.722507 -1.81767 0
M  V30 5523 O 517.147 1.13265 -2.46746 0
M  V30 5524 C 515.603 -1.29695 -3.35719 0
M  V30 5525 C 515.211 -2.80184 -3.49572 0
M  V30 5526 C 516.955 -1.07759 -4.10595 0
M  V30 5527 C 514.862 -3.2788 -4.92187 0
M  V30 5528 H 513.792 -0.278034 -0.700866 0
M  V30 5529 H 516.443 -1.26637 -1.32798 0
M  V30 5530 H 514.825 -0.711522 -3.89555 0
M  V30 5531 H 515.999 -3.44561 -3.05965 0
M  V30 5532 H 514.314 -3.00632 -2.88113 0
M  V30 5533 H 516.911 -1.40899 -5.15802 0
M  V30 5534 H 517.254 -0.0152302 -4.16297 0
M  V30 5535 H 517.787 -1.62809 -3.62957 0
M  V30 5536 H 514.526 -4.33535 -4.91658 0
M  V30 5537 H 514.046 -2.68245 -5.36475 0
M  V30 5538 H 515.725 -3.22412 -5.60945 0
M  V30 5539 N 515.857 1.33968 -0.830081 0
M  V30 5540 C 517.103 1.98357 -0.422191 0
M  V30 5541 C 517.436 1.65633 1.01387 0
M  V30 5542 O 516.711 0.931648 1.70735 0
M  V30 5543 C 516.994 3.54492 -0.633043 0
M  V30 5544 C 516.847 3.96934 -2.11574 0
M  V30 5545 C 518.166 4.40039 -0.0735584 0
M  V30 5546 H 515.285 0.720544 -0.154871 0
M  V30 5547 H 517.927 1.58749 -1.04397 0
M  V30 5548 H 516.077 3.88361 -0.103775 0
M  V30 5549 H 517.749 3.73363 -2.7092 0
M  V30 5550 H 515.992 3.46984 -2.60354 0
M  V30 5551 H 516.663 5.05651 -2.21406 0
M  V30 5552 H 519.139 4.12764 -0.52585 0
M  V30 5553 H 518.015 5.48327 -0.250841 0
M  V30 5554 H 518.276 4.30124 1.02202 0
M  V30 5555 N 517.335 0.585699 1.46312 0
M  V30 5556 C 518.563 0.0781299 2.06752 0
M  V30 5557 C 518.978 -1.22812 1.43396 0
M  V30 5558 O 518.335 -1.74318 0.540314 0
M  V30 5559 C 518.386 -0.0911927 3.61385 0
M  V30 5560 O 518.107 1.16336 4.22371 0
M  V30 5561 C 519.608 -0.632765 4.38761 0
M  V30 5562 H 516.828 0.0588188 0.668417 0
M  V30 5563 H 519.372 0.807218 1.87894 0
M  V30 5564 H 517.527 -0.770514 3.7966 0
M  V30 5565 H 517.941 0.979082 5.15281 0
M  V30 5566 H 519.415 -0.70041 5.47538 0
M  V30 5567 H 519.892 -1.65039 4.07012 0
M  V30 5568 H 520.498 0.0117856 4.25298 0
M  V30 5569 N 518.813 -1.54241 0.323641 0
M  V30 5570 C 519.76 -2.24339 -0.542277 0
M  V30 5571 C 520.73 -1.23421 -1.11159 0
M  V30 5572 O 521.915 -1.52104 -1.15192 0
M  V30 5573 C 519.055 -3.00479 -1.69725 0
M  V30 5574 C 518.168 -4.16214 -1.15716 0
M  V30 5575 C 517.303 -4.79884 -2.27783 0
M  V30 5576 C 516.342 -5.87722 -1.71023 0
M  V30 5577 N 515.479 -6.45254 -2.76752 0
M  V30 5578 H 520.319 -2.97935 0.0620613 0
M  V30 5579 H 517.856 -1.47039 0.0423993 0
M  V30 5580 H 519.814 -3.42869 -2.3769 0
M  V30 5581 H 518.444 -2.29217 -2.27288 0
M  V30 5582 H 517.496 -3.78605 -0.369063 0
M  V30 5583 H 518.808 -4.93838 -0.701832 0
M  V30 5584 H 517.962 -5.25243 -3.03651 0
M  V30 5585 H 516.701 -4.01641 -2.76652 0
M  V30 5586 H 515.706 -5.41765 -0.936518 0
M  V30 5587 H 516.931 -6.67863 -1.2303 0
M  V30 5588 H 514.877 -5.69884 -3.24912 0
M  V30 5589 H 514.794 -7.18292 -2.35782 0
M  V30 5590 H 516.062 -6.95269 -3.5245 0
M  V30 5591 N 520.291 -0.0518155 -1.57515 0
M  V30 5592 C 521.521 0.63048 -1.96745 0
M  V30 5593 C 521.929 1.64875 -0.928054 0
M  V30 5594 O 521.272 1.83449 0.0960678 0
M  V30 5595 C 521.334 1.37381 -3.32215 0
M  V30 5596 C 520.998 0.511298 -4.54131 0
M  V30 5597 C 521.995 -0.222884 -5.19422 0
M  V30 5598 C 519.68 0.442035 -5.00351 0
M  V30 5599 C 521.674 -1.01476 -6.2927 0
M  V30 5600 C 519.361 -0.35353 -6.10077 0
M  V30 5601 C 520.359 -1.08062 -6.74397 0
M  V30 5602 O 520.047 -1.8631 -7.82013 0
M  V30 5603 H 519.779 0.177126 -0.652382 0
M  V30 5604 H 522.333 -0.114726 -2.05079 0
M  V30 5605 H 520.563 2.16466 -3.20436 0
M  V30 5606 H 522.252 1.9464 -3.56188 0
M  V30 5607 H 523.018 -0.178846 -4.8467 0
M  V30 5608 H 518.897 0.997562 -4.50077 0
M  V30 5609 H 522.441 -1.58279 -6.79407 0
M  V30 5610 H 518.338 -0.399205 -6.44264 0
M  V30 5611 H 519.106 -1.78528 -7.98793 0
M  V30 5612 N 521.769 1.56035 0.221574 0
M  V30 5613 C 523.018 1.78245 0.944016 0
M  V30 5614 C 523.331 0.620371 1.85501 0
M  V30 5615 O 524.537 0.726103 2.6161 0
M  V30 5616 C 522.993 3.15659 1.7288 0
M  V30 5617 C 522.601 4.39591 0.863942 0
M  V30 5618 C 524.345 3.47195 2.44246 0
M  V30 5619 C 522.252 5.6803 1.64607 0
M  V30 5620 H 521.182 0.664547 0.356222 0
M  V30 5621 H 523.833 1.8243 0.197904 0
M  V30 5622 H 522.215 3.0565 2.51781 0
M  V30 5623 H 523.389 4.60655 0.115464 0
M  V30 5624 H 521.704 4.15572 0.262407 0
M  V30 5625 H 524.301 4.40381 3.03263 0
M  V30 5626 H 524.644 2.69693 3.1713 0
M  V30 5627 H 525.177 3.58533 1.72334 0
M  V30 5628 H 521.916 6.48425 0.960507 0
M  V30 5629 H 521.436 5.51027 2.36917 0
M  V30 5630 H 523.115 6.08203 2.20675 0
M  V30 5631 N 523.247 -0.488276 1.49845 0
M  V30 5632 C 524.177 -1.59675 1.70371 0
M  V30 5633 C 525.158 -1.60878 0.552473 0
M  V30 5634 O 526.343 -1.77417 0.78973 0
M  V30 5635 C 523.473 -2.98098 1.782 0
M  V30 5636 C 522.427 -3.11761 2.93239 0
M  V30 5637 C 521.753 -4.51661 2.86193 0
M  V30 5638 C 523.053 -2.90589 4.33999 0
M  V30 5639 H 524.747 -1.42752 2.63177 0
M  V30 5640 H 522.293 -0.685317 1.26647 0
M  V30 5641 H 524.246 -3.75555 1.91144 0
M  V30 5642 H 522.97 -3.16138 0.820018 0
M  V30 5643 H 521.629 -2.36732 2.79917 0
M  V30 5644 H 521.277 -4.66595 1.87877 0
M  V30 5645 H 520.977 -4.61742 3.63412 0
M  V30 5646 H 522.501 -5.31162 3.01163 0
M  V30 5647 H 523.915 -3.57807 4.47936 0
M  V30 5648 H 522.312 -3.1213 5.12538 0
M  V30 5649 H 523.382 -1.86595 4.4756 0
M  V30 5650 N 524.725 -1.39134 -0.740242 0
M  V30 5651 C 525.974 -1.35384 -1.49512 0
M  V30 5652 C 526.287 0.04919 -1.95538 0
M  V30 5653 O 527.493 0.209257 -2.70692 0
M  V30 5654 C 525.949 -2.37812 -2.70136 0
M  V30 5655 C 525.557 -3.83804 -2.31081 0
M  V30 5656 C 527.301 -2.4313 -3.47977 0
M  V30 5657 C 525.208 -4.77886 -3.48395 0
M  V30 5658 H 524.138 -0.503297 -0.561434 0
M  V30 5659 H 526.789 -1.64754 -0.807974 0
M  V30 5660 H 525.171 -2.01505 -3.40899 0
M  V30 5661 H 526.345 -4.29123 -1.67898 0
M  V30 5662 H 524.66 -3.81732 -1.66343 0
M  V30 5663 H 527.257 -3.10614 -4.35228 0
M  V30 5664 H 527.6 -1.45423 -3.90074 0
M  V30 5665 H 528.133 -2.78304 -2.84239 0
M  V30 5666 H 524.872 -5.76836 -3.11353 0
M  V30 5667 H 524.392 -4.3725 -4.10576 0
M  V30 5668 H 526.071 -4.96538 -4.148 0
M  V30 5669 N 526.204 0.969867 -1.24223 0
M  V30 5670 C 527.615 1.52717 -1.07399 0
M  V30 5671 C 527.966 1.92956 0.355298 0
M  V30 5672 O 527.091 1.77112 1.2434 0
M  V30 5673 C 527.686 2.77521 -1.94339 0
M  V30 5674 C 526.245 3.29615 -1.81744 0
M  V30 5675 C 525.392 2.02537 -1.89405 0
M  V30 5676 H 528.343 0.788399 -1.37732 0
M  V30 5677 H 528.364 3.50773 -1.47439 0
M  V30 5678 H 527.876 2.48203 -2.98357 0
M  V30 5679 H 525.977 3.63789 -0.805505 0
M  V30 5680 H 526.09 3.98661 -2.65718 0
M  V30 5681 H 524.454 2.17151 -1.33108 0
M  V30 5682 H 525.237 1.75587 -2.94999 0
M  V30 5683 N 527.682 1.05563 1.17022 0
M  V30 5684 C 528.645 0.664098 2.19368 0
M  V30 5685 C 529.645 -0.286358 1.5823 0
M  V30 5686 O 530.835 -0.069728 1.7406 0
M  V30 5687 C 527.967 -0.0239932 3.40892 0
M  V30 5688 H 529.16 1.57 2.55521 0
M  V30 5689 H 526.713 0.849964 1.31169 0
M  V30 5690 H 527.448 -0.942988 3.10287 0
M  V30 5691 H 527.233 0.659351 3.86516 0
M  V30 5692 H 528.723 -0.283909 4.16634 0
M  V30 5693 N 529.16 -1.33526 0.837174 0
M  V30 5694 C 530.385 -2.0258 0.444545 0
M  V30 5695 C 530.81 -1.6258 -0.946006 0
M  V30 5696 O 530.168 -0.817548 -1.6182 0
M  V30 5697 C 530.216 -3.5605 0.571006 0
M  V30 5698 O 529.32 -4.10422 -0.403431 0
M  V30 5699 H 528.661 -0.638866 0.180958 0
M  V30 5700 H 531.191 -1.70462 1.13154 0
M  V30 5701 H 531.201 -4.05488 0.452024 0
M  V30 5702 H 529.876 -3.84509 1.58512 0
M  V30 5703 H 528.453 -3.72113 -0.242147 0
M  V30 5704 N 530.638 -0.59345 -1.46 0
M  V30 5705 C 531.57 0.171569 -2.28557 0
M  V30 5706 C 532.583 0.845273 -1.39137 0
M  V30 5707 O 533.772 0.713033 -1.6364 0
M  V30 5708 C 530.872 1.26311 -3.14482 0
M  V30 5709 C 530.045 0.679258 -4.32094 0
M  V30 5710 C 529.104 1.65987 -4.99334 0
M  V30 5711 O 528.13 1.19171 -5.56585 0
M  V30 5712 N 529.332 2.99414 -4.97324 0
M  V30 5713 H 532.097 -0.536771 -2.94854 0
M  V30 5714 H 529.658 -0.431954 -1.56031 0
M  V30 5715 H 531.65 1.91863 -3.5633 0
M  V30 5716 H 530.22 1.87416 -2.50188 0
M  V30 5717 H 529.44 -0.153992 -3.93899 0
M  V30 5718 H 530.728 0.26916 -5.08088 0
M  V30 5719 H 530.126 3.40064 -4.52076 0
M  V30 5720 H 528.683 3.60426 -5.4308 0
M  V30 5721 N 532.116 1.54067 -0.331816 0
M  V30 5722 C 533.048 2.22139 0.564538 0
M  V30 5723 C 534.061 1.22408 1.07332 0
M  V30 5724 O 535.25 1.4883 0.985481 0
M  V30 5725 C 532.35 2.87876 1.78831 0
M  V30 5726 C 531.523 4.13817 1.41682 0
M  V30 5727 C 530.582 4.63072 2.49901 0
M  V30 5728 O 529.608 5.27562 2.13699 0
M  V30 5729 N 530.81 4.38001 3.80967 0
M  V30 5730 H 533.575 2.99694 -0.0183736 0
M  V30 5731 H 531.136 1.61153 -0.155396 0
M  V30 5732 H 533.128 3.17747 2.50637 0
M  V30 5733 H 531.698 2.13977 2.27887 0
M  V30 5734 H 530.918 3.9062 0.530044 0
M  V30 5735 H 532.206 4.95762 1.14443 0
M  V30 5736 H 531.604 3.864 4.13173 0
M  V30 5737 H 530.161 4.72507 4.48977 0
M  V30 5738 N 533.594 0.0601682 1.57485 0
M  V30 5739 C 535.005 -0.474217 1.80577 0
M  V30 5740 C 535.356 -1.70365 0.973147 0
M  V30 5741 O 534.481 -2.15544 0.192306 0
M  V30 5742 C 535.076 -0.867102 3.27516 0
M  V30 5743 C 533.635 -1.34642 3.51495 0
M  V30 5744 C 532.782 -0.32594 2.75378 0
M  V30 5745 H 535.733 0.285973 1.56102 0
M  V30 5746 H 535.754 -1.72938 3.38929 0
M  V30 5747 H 535.266 0.0278927 3.8809 0
M  V30 5748 H 533.367 -2.2603 2.96212 0
M  V30 5749 H 533.48 -1.33237 4.60201 0
M  V30 5750 H 531.844 -0.800749 2.41785 0
M  V30 5751 H 532.627 0.561125 3.38683 0
M  V30 5752 N 535.072 -1.5615 -0.213296 0
M  V30 5753 C 536.019 -1.93086 -1.26437 0
M  V30 5754 C 536.989 -0.789086 -1.4616 0
M  V30 5755 O 538.174 -1.04569 -1.59593 0
M  V30 5756 C 535.314 -2.26003 -2.608 0
M  V30 5757 C 534.427 -3.53156 -2.48807 0
M  V30 5758 C 533.562 -3.7548 -3.7575 0
M  V30 5759 C 532.601 -4.96119 -3.58514 0
M  V30 5760 N 531.738 -5.14791 -4.77425 0
M  V30 5761 H 536.578 -2.82707 -0.942376 0
M  V30 5762 H 534.115 -1.39919 -0.454001 0
M  V30 5763 H 536.073 -2.431 -3.39055 0
M  V30 5764 H 534.703 -1.39546 -2.91079 0
M  V30 5765 H 533.755 -3.44207 -1.61944 0
M  V30 5766 H 535.067 -4.41565 -2.31996 0
M  V30 5767 H 534.221 -3.92718 -4.62447 0
M  V30 5768 H 532.96 -2.85368 -3.95495 0
M  V30 5769 H 531.965 -4.78823 -2.70201 0
M  V30 5770 H 533.19 -5.87724 -3.40231 0
M  V30 5771 H 531.136 -4.27623 -4.97468 0
M  V30 5772 H 531.053 -5.97347 -4.63371 0
M  V30 5773 H 532.321 -5.36471 -5.65525 0
M  V30 5774 N 536.55 0.480323 -1.50102 0
M  V30 5775 C 537.46 1.60547 -1.71061 0
M  V30 5776 C 538.476 1.63564 -0.593529 0
M  V30 5777 O 539.652 1.81604 -0.870751 0
M  V30 5778 C 536.717 2.96814 -1.79171 0
M  V30 5779 C 535.778 3.04259 -3.02861 0
M  V30 5780 C 535.011 4.34027 -3.10574 0
M  V30 5781 O 535.234 5.24009 -2.25323 0
M  V30 5782 O 534.168 4.46873 -4.03223 0
M  V30 5783 H 537.994 1.45788 -2.6642 0
M  V30 5784 H 535.579 0.658838 -1.34088 0
M  V30 5785 H 537.461 3.77765 -1.86738 0
M  V30 5786 H 536.136 3.11791 -0.869947 0
M  V30 5787 H 535.043 2.22419 -3.008 0
M  V30 5788 H 536.376 2.94216 -3.94586 0
M  V30 5789 N 538.028 1.39524 0.732853 0
M  V30 5790 C 538.976 1.38563 1.86824 0
M  V30 5791 C 539.97 0.268467 1.67259 0
M  V30 5792 O 541.176 0.438613 1.74574 0
M  V30 5793 H 537.551 0.432737 0.615014 0
M  V30 5794 H 539.522 2.34328 1.84751 0
M  V30 5795 C 538.271 1.2481 3.24527 0
M  V30 5796 H 537.594 2.10044 3.40179 0
M  V30 5797 H 539.034 1.28194 4.04156 0
M  V30 5798 C 537.493 -0.0432825 3.36872 0
M  V30 5799 O 538.023 -1.01268 3.88726 0
M  V30 5800 N 536.229 -0.107055 2.90403 0
M  V30 5801 H 535.776 0.682512 2.48394 0
M  V30 5802 H 535.734 -0.970618 2.99042 0
M  V30 5803 N 539.506 -0.963266 1.24736 0
M  V30 5804 C 540.453 -2.05857 1.04363 0
M  V30 5805 C 541.423 -1.6604 -0.0444951 0
M  V30 5806 O 542.608 -1.90477 0.110999 0
M  V30 5807 C 539.748 -3.38745 0.659235 0
M  V30 5808 C 538.861 -3.9173 1.82131 0
M  V30 5809 C 537.996 -5.12906 1.38208 0
M  V30 5810 C 537.035 -5.58098 2.51382 0
M  V30 5811 N 536.172 -6.7049 2.08295 0
M  V30 5812 H 541.012 -2.22616 1.98107 0
M  V30 5813 H 538.549 -1.09103 0.986661 0
M  V30 5814 H 540.507 -4.15107 0.417371 0
M  V30 5815 H 539.137 -3.21898 -0.241201 0
M  V30 5816 H 538.189 -3.11966 2.17672 0
M  V30 5817 H 539.501 -4.21225 2.67153 0
M  V30 5818 H 538.655 -5.96657 1.09935 0
M  V30 5819 H 537.394 -4.85105 0.502456 0
M  V30 5820 H 536.399 -4.72917 2.80409 0
M  V30 5821 H 537.624 -5.87911 3.39909 0
M  V30 5822 H 535.57 -6.44416 1.22737 0
M  V30 5823 H 535.487 -6.99458 2.86869 0
M  V30 5824 H 536.755 -7.57672 1.83175 0
M  V30 5825 N 540.985 -1.06182 -1.16461 0
M  V30 5826 C 542.213 -0.798583 -1.90867 0
M  V30 5827 C 542.628 0.646921 -1.77371 0
M  V30 5828 O 541.985 1.44279 -1.11758 0
M  V30 5829 C 542.036 -1.18258 -3.4161 0
M  V30 5830 O 541.757 -2.57135 -3.54701 0
M  V30 5831 C 543.258 -0.946917 -4.33069 0
M  V30 5832 H 540.478 -0.289603 -0.605286 0
M  V30 5833 H 543.022 -1.41515 -1.47627 0
M  V30 5834 H 541.177 -0.610562 -3.82558 0
M  V30 5835 H 541.591 -2.72477 -4.4817 0
M  V30 5836 H 543.065 -1.26523 -5.37304 0
M  V30 5837 H 543.542 0.117406 -4.39043 0
M  V30 5838 H 544.148 -1.50326 -3.97847 0
M  V30 5839 N 542.463 1.3308 -0.844243 0
M  V30 5840 C 543.688 2.02341 -0.455282 0
M  V30 5841 C 544.113 1.6308 0.93737 0
M  V30 5842 O 543.471 0.826118 1.61385 0
M  V30 5843 C 543.519 3.55743 -0.58988 0
M  V30 5844 O 542.623 4.1063 0.38166 0
M  V30 5845 H 541.964 0.637898 -0.184343 0
M  V30 5846 H 544.494 1.6986 -1.14056 0
M  V30 5847 H 544.504 4.05243 -0.473522 0
M  V30 5848 H 543.179 3.83662 -1.60549 0
M  V30 5849 H 541.756 3.72236 0.22241 0
M  V30 5850 N 543.941 0.601185 1.45683 0
M  V30 5851 C 544.851 -0.123395 2.34275 0
M  V30 5852 C 545.867 -0.86702 1.5086 0
M  V30 5853 O 547.043 -0.826049 1.8368 0
M  V30 5854 C 544.108 -1.11237 3.2837 0
M  V30 5855 C 543.169 -0.371405 4.2769 0
M  V30 5856 C 542.402 -1.31327 5.1729 0
M  V30 5857 O 542.625 -2.55078 5.10188 0
M  V30 5858 O 541.559 -0.813811 5.96373 0
M  V30 5859 H 545.385 0.604483 2.97623 0
M  V30 5860 H 542.97 0.361477 1.44961 0
M  V30 5861 H 544.852 -1.68214 3.8637 0
M  V30 5862 H 543.527 -1.82139 2.67595 0
M  V30 5863 H 542.434 0.24067 3.73325 0
M  V30 5864 H 543.767 0.296998 4.91303 0
M  V30 5865 N 545.419 -1.53889 0.339982 0
M  V30 5866 C 546.696 -1.93084 -0.312719 0
M  V30 5867 C 547.076 -1.2712 -1.68534 0
M  V30 5868 O 546.424 -0.420835 -2.24591 0
M  V30 5869 C 546.634 -3.4683 -0.388558 0
M  V30 5870 C 547.982 -4.19732 -0.641088 0
M  V30 5871 O 549.006 -3.53075 -0.470818 0
M  V30 5872 O 547.865 -5.3781 -0.970685 0
M  V30 5873 H 544.959 -0.806784 -0.18174 0
M  V30 5874 H 547.505 -1.65137 0.390898 0
M  V30 5875 H 546.277 -3.87055 0.574821 0
M  V30 5876 H 545.9 -3.80933 -1.1391 0
M  V30 5877 N 546.897 -0.0685191 -1.57451 0
M  V30 5878 C 548.308 0.464634 -1.80826 0
M  V30 5879 C 548.659 1.69847 -0.982169 0
M  V30 5880 O 547.784 2.15439 -0.203734 0
M  V30 5881 C 548.379 0.849721 -3.27971 0
M  V30 5882 C 546.938 1.32776 -3.52204 0
M  V30 5883 C 546.085 0.311332 -2.75547 0
M  V30 5884 H 549.036 -0.294248 -1.55948 0
M  V30 5885 H 549.057 1.71138 -3.39841 0
M  V30 5886 H 548.569 -0.0484736 -3.8807 0
M  V30 5887 H 546.67 2.24456 -2.97406 0
M  V30 5888 H 546.783 1.30794 -4.60901 0
M  V30 5889 H 545.147 0.787915 -2.42206 0
M  V30 5890 H 545.93 -0.579078 -3.38381 0
M  V30 5891 N 548.375 1.56261 0.205012 0
M  V30 5892 C 549.6 1.84491 0.947512 0
M  V30 5893 C 550.025 0.650894 1.76479 0
M  V30 5894 O 549.383 -0.40035 1.76824 0
M  V30 5895 C 549.431 3.10863 1.82747 0
M  V30 5896 O 548.535 2.90719 2.925 0
M  V30 5897 H 547.876 0.607783 0.267386 0
M  V30 5898 H 550.406 2.03485 0.213323 0
M  V30 5899 H 550.416 3.41399 2.23407 0
M  V30 5900 H 549.091 3.97392 1.2269 0
M  V30 5901 H 547.668 2.71457 2.55667 0
M  V30 5902 N 549.853 -0.472356 1.50355 0
M  V30 5903 C 550.8 -1.57051 1.69126 0
M  V30 5904 C 551.77 -1.5733 0.532574 0
M  V30 5905 O 552.955 -1.7488 0.762994 0
M  V30 5906 C 550.095 -2.95033 1.79024 0
M  V30 5907 C 549.208 -3.04552 3.06386 0
M  V30 5908 C 548.343 -4.33441 3.07087 0
M  V30 5909 C 547.382 -4.36697 4.28908 0
M  V30 5910 N 546.519 -5.57056 4.27356 0
M  V30 5911 H 551.359 -1.40351 2.62879 0
M  V30 5912 H 548.896 -0.682403 1.30314 0
M  V30 5913 H 550.854 -3.75048 1.82744 0
M  V30 5914 H 549.484 -3.10371 0.887109 0
M  V30 5915 H 548.536 -2.17419 3.12143 0
M  V30 5916 H 549.848 -3.02818 3.96362 0
M  V30 5917 H 549.002 -5.21801 3.09529 0
M  V30 5918 H 547.741 -4.37782 2.14939 0
M  V30 5919 H 546.746 -3.46734 4.2668 0
M  V30 5920 H 547.971 -4.34049 5.22282 0
M  V30 5921 H 545.917 -5.62184 3.3806 0
M  V30 5922 H 545.834 -5.57058 5.111 0
M  V30 5923 H 547.102 -6.47545 4.33942 0
M  V30 5924 N 551.331 -1.39911 -0.725443 0
M  V30 5925 C 552.261 -1.42138 -1.85254 0
M  V30 5926 C 553.242 -0.283513 -1.67721 0
M  V30 5927 O 554.427 -0.490717 -1.87898 0
M  V30 5928 C 551.557 -1.27354 -3.23107 0
M  V30 5929 C 550.511 -2.3864 -3.55296 0
M  V30 5930 C 549.837 -2.08939 -4.92188 0
M  V30 5931 C 551.137 -3.8097 -3.57295 0
M  V30 5932 H 552.831 -2.36461 -1.83648 0
M  V30 5933 H 550.377 -1.13817 -0.882138 0
M  V30 5934 H 552.33 -1.2753 -4.01639 0
M  V30 5935 H 551.054 -0.295025 -3.25265 0
M  V30 5936 H 549.713 -2.37696 -2.79099 0
M  V30 5937 H 549.361 -1.09502 -4.90936 0
M  V30 5938 H 549.061 -2.83491 -5.14691 0
M  V30 5939 H 550.585 -2.10781 -5.73065 0
M  V30 5940 H 551.999 -3.8379 -4.25885 0
M  V30 5941 H 550.396 -4.5496 -3.9132 0
M  V30 5942 H 551.466 -4.11261 -2.5689 0
M  V30 5943 N 552.809 0.956637 -1.25245 0
M  V30 5944 C 553.719 2.0868 -1.0719 0
M  V30 5945 C 554.735 1.73997 -0.00959074 0
M  V30 5946 O 555.911 2.00301 -0.210104 0
M  V30 5947 C 552.976 3.39754 -0.690526 0
M  V30 5948 C 552.037 3.88316 -1.83055 0
M  V30 5949 C 551.27 5.13134 -1.46728 0
M  V30 5950 O 551.493 5.6925 -0.362029 0
M  V30 5951 O 550.427 5.56356 -2.29677 0
M  V30 5952 H 554.253 2.26813 -2.01965 0
M  V30 5953 H 551.838 1.07098 -1.04165 0
M  V30 5954 H 553.72 4.18543 -0.489871 0
M  V30 5955 H 552.395 3.22896 0.227981 0
M  V30 5956 H 551.302 3.1054 -2.08604 0
M  V30 5957 H 552.635 4.09669 -2.72822 0
M  V30 5958 N 554.287 1.06798 1.15896 0
M  V30 5959 C 555.25 0.687328 2.18651 0
M  V30 5960 C 556.25 -0.269559 1.58524 0
M  V30 5961 O 557.44 -0.0512627 1.74125 0
M  V30 5962 C 554.572 0.0121642 3.40898 0
M  V30 5963 H 555.765 1.59701 2.53842 0
M  V30 5964 H 553.318 0.863828 1.3026 0
M  V30 5965 H 554.053 -0.910025 3.1127 0
M  V30 5966 H 553.838 0.700309 3.85795 0
M  V30 5967 H 555.328 -0.239703 4.16911 0
M  V30 5968 N 555.766 -1.3263 0.851289 0
M  V30 5969 C 556.713 -2.28952 0.291469 0
M  V30 5970 C 557.683 -1.54897 -0.599676 0
M  V30 5971 O 558.868 -1.83137 -0.535305 0
M  V30 5972 C 556.008 -3.41206 -0.516992 0
M  V30 5973 C 555.121 -4.30148 0.399566 0
M  V30 5974 C 554.256 -5.29527 -0.4212 0
M  V30 5975 C 553.295 -6.10112 0.492969 0
M  V30 5976 N 552.432 -7.01499 -0.290414 0
M  V30 5977 H 557.272 -2.76228 1.11813 0
M  V30 5978 H 554.809 -1.35907 0.562826 0
M  V30 5979 H 556.767 -4.05005 -1.00132 0
M  V30 5980 H 555.397 -2.9509 -1.30851 0
M  V30 5981 H 554.449 -3.66959 1.00227 0
M  V30 5982 H 555.761 -4.8649 1.1013 0
M  V30 5983 H 554.915 -5.98914 -0.968832 0
M  V30 5984 H 553.654 -4.73794 -1.15632 0
M  V30 5985 H 552.659 -5.39632 1.05251 0
M  V30 5986 H 553.884 -6.6793 1.22664 0
M  V30 5987 H 551.83 -6.48199 -1.00868 0
M  V30 5988 H 551.747 -7.55178 0.352354 0
M  V30 5989 H 553.015 -7.75176 -0.819882 0
M  V30 5990 N 557.244 -0.608902 -1.45362 0
M  V30 5991 C 558.492 -0.104401 -2.0183 0
M  V30 5992 C 558.813 1.27007 -1.47967 0
M  V30 5993 O 558.083 1.83924 -0.674455 0
M  V30 5994 H 556.663 -0.0356042 -0.746151 0
M  V30 5995 H 559.325 -0.790596 -1.78145 0
M  V30 5996 H 558.421 -0.0551793 -3.12051 0
M  V30 5997 N 558.722 1.53707 -0.348139 0
M  V30 5998 C 559.95 2.05406 0.248224 0
M  V30 5999 C 560.365 1.22282 1.43849 0
M  V30 6000 O 559.722 0.259244 1.80649 0
M  V30 6001 C 559.773 3.55446 0.658793 0
M  V30 6002 O 559.494 4.35417 -0.484149 0
M  V30 6003 C 560.995 4.23335 1.31539 0
M  V30 6004 H 558.215 0.669344 0.0471075 0
M  V30 6005 H 560.759 1.98257 -0.501456 0
M  V30 6006 H 558.914 3.62803 1.35841 0
M  V30 6007 H 559.328 5.24268 -0.155949 0
M  V30 6008 H 560.802 5.29692 1.55338 0
M  V30 6009 H 561.279 3.75967 2.27036 0
M  V30 6010 H 561.885 4.20184 0.657683 0
M  V30 6011 N 560.2 0.0768682 1.57412 0
M  V30 6012 C 561.448 -0.589918 1.93299 0
M  V30 6013 C 561.769 -1.69842 0.958049 0
M  V30 6014 O 561.039 -1.95899 0.00703261 0
M  V30 6015 H 559.619 -0.220901 0.713591 0
M  V30 6016 H 562.281 0.135917 1.94425 0
M  V30 6017 H 561.377 -1.01195 2.95239 0
M  V30 6018 N 561.678 -1.56367 -0.196722 0
M  V30 6019 C 562.926 -1.80172 -0.915554 0
M  V30 6020 C 563.247 -0.649649 -1.8386 0
M  V30 6021 O 562.517 0.332111 -1.93064 0
M  V30 6022 H 561.097 -0.664592 -0.341067 0
M  V30 6023 H 563.759 -1.93844 -0.202622 0
M  V30 6024 H 562.855 -2.7327 -1.50764 0
M  V30 6025 N 563.156 0.464375 -1.50603 0
M  V30 6026 C 564.384 1.23907 -1.65695 0
M  V30 6027 C 564.799 1.85658 -0.343027 0
M  V30 6028 O 564.156 1.69529 0.675739 0
M  V30 6029 C 564.207 2.3429 -2.75301 0
M  V30 6030 O 563.928 1.7507 -4.01599 0
M  V30 6031 C 565.429 3.25051 -3.01424 0
M  V30 6032 H 562.649 0.374485 -0.556778 0
M  V30 6033 H 565.193 0.55353 -1.96866 0
M  V30 6034 H 563.348 2.98607 -2.46804 0
M  V30 6035 H 563.762 2.47812 -4.62266 0
M  V30 6036 H 565.236 3.98699 -3.81763 0
M  V30 6037 H 565.713 3.84227 -2.12758 0
M  V30 6038 H 566.319 2.66463 -3.31477 0
M  V30 6039 N 564.634 1.40294 0.718013 0
M  V30 6040 C 565.911 1.2894 1.47084 0
M  V30 6041 C 566.291 -0.0933625 2.10893 0
M  V30 6042 O 565.639 -1.10598 1.99951 0
M  V30 6043 C 565.849 2.4264 2.50852 0
M  V30 6044 C 567.197 2.8276 3.16752 0
M  V30 6045 O 568.221 2.42215 2.61171 0
M  V30 6046 O 567.08 3.528 4.17366 0
M  V30 6047 H 564.174 0.506236 0.653952 0
M  V30 6048 H 566.72 1.52208 0.750394 0
M  V30 6049 H 565.492 3.35009 2.022 0
M  V30 6050 H 565.115 2.21129 3.30435 0
M  V30 6051 N 566.112 -0.949982 1.2575 0
M  V30 6052 C 567.042 -2.06483 1.09028 0
M  V30 6053 C 568.023 -1.701 -0.00201532 0
M  V30 6054 O 569.208 -1.93469 0.168383 0
M  V30 6055 C 566.338 -3.39899 0.71316 0
M  V30 6056 C 565.292 -3.90309 1.75621 0
M  V30 6057 C 564.618 -5.20274 1.23365 0
M  V30 6058 C 565.918 -4.16169 3.15596 0
M  V30 6059 H 567.612 -2.20731 2.02283 0
M  V30 6060 H 565.158 -1.06066 0.973964 0
M  V30 6061 H 567.111 -4.17346 0.58309 0
M  V30 6062 H 565.835 -3.25602 -0.255091 0
M  V30 6063 H 564.494 -3.15035 1.8748 0
M  V30 6064 H 564.142 -5.02351 0.255491 0
M  V30 6065 H 563.842 -5.54971 1.93082 0
M  V30 6066 H 565.366 -6.00314 1.11607 0
M  V30 6067 H 566.78 -4.84259 3.06864 0
M  V30 6068 H 565.177 -4.62131 3.82825 0
M  V30 6069 H 566.247 -3.22273 3.6231 0
M  V30 6070 N 567.59 -1.07411 -1.15328 0
M  V30 6071 C 568.523 -0.63913 -2.19067 0
M  V30 6072 C 569.501 0.343929 -1.58921 0
M  V30 6073 O 570.685 0.250207 -1.86832 0
M  V30 6074 C 567.812 0.0613977 -3.38644 0
M  V30 6075 C 566.858 -0.880201 -4.17318 0
M  V30 6076 S 567.691 -2.38152 -4.79629 0
M  V30 6077 C 568.847 -1.69281 -6.02573 0
M  V30 6078 H 569.08 -1.51799 -2.55626 0
M  V30 6079 H 566.613 -0.888138 -1.26299 0
M  V30 6080 H 568.571 0.459323 -4.07922 0
M  V30 6081 H 567.232 0.916605 -3.00428 0
M  V30 6082 H 566.425 -0.336781 -5.02874 0
M  V30 6083 H 566.027 -1.21854 -3.53592 0
M  V30 6084 H 568.319 -1.00488 -6.70006 0
M  V30 6085 H 569.262 -2.52671 -6.61485 0
M  V30 6086 H 569.67 -1.17053 -5.52231 0
M  V30 6087 N 569.068 1.32177 -0.85831 0
M  V30 6088 C 570.016 2.30729 -0.294442 0
M  V30 6089 C 571.01 1.59009 0.584165 0
M  V30 6090 O 572.216 1.73713 0.471562 0
M  V30 6091 H 568.591 0.748097 -0.0765171 0
M  V30 6092 H 570.562 2.75774 -1.1398 0
M  V30 6093 C 569.311 3.44098 0.499208 0
M  V30 6094 H 568.634 3.99449 -0.167579 0
M  V30 6095 H 570.074 4.15202 0.859273 0
M  V30 6096 C 568.533 2.91684 1.68588 0
M  V30 6097 O 569.063 2.89481 2.78503 0
M  V30 6098 N 567.269 2.48036 1.51415 0
M  V30 6099 H 566.816 2.50027 0.620006 0
M  V30 6100 H 566.774 2.13322 2.30957 0
M  V30 6101 N 570.547 0.616602 1.45037 0
M  V30 6102 C 571.794 0.115331 2.02171 0
M  V30 6103 C 572.122 -1.25748 1.48383 0
M  V30 6104 O 571.377 -1.84511 0.652229 0
M  V30 6105 C 571.676 0.0356829 3.57382 0
M  V30 6106 C 571.342 1.34535 4.30362 0
M  V30 6107 C 570.004 1.70408 4.50016 0
M  V30 6108 C 572.356 2.21049 4.72003 0
M  V30 6109 C 569.684 2.92529 5.0857 0
M  V30 6110 C 572.036 3.42427 5.31908 0
M  V30 6111 C 570.7 3.78541 5.49784 0
M  V30 6112 H 569.97 0.0422024 0.739797 0
M  V30 6113 H 572.617 0.80002 1.73988 0
M  V30 6114 H 570.922 -0.732314 3.84895 0
M  V30 6115 H 572.619 -0.368463 3.99304 0
M  V30 6116 H 569.209 1.05615 4.15383 0
M  V30 6117 H 573.393 1.94632 4.56544 0
M  V30 6118 H 568.649 3.20605 5.20598 0
M  V30 6119 H 572.823 4.09709 5.63127 0
M  V30 6120 H 570.45 4.73255 5.94923 0
M  V30 6121 N 572.025 -1.5352 0.356285 0
M  V30 6122 C 572.955 -2.28372 -0.486661 0
M  V30 6123 C 573.936 -1.30432 -1.09185 0
M  V30 6124 O 575.121 -1.59291 -1.11085 0
M  V30 6125 C 572.251 -3.06604 -1.63129 0
M  V30 6126 C 571.205 -4.12154 -1.15381 0
M  V30 6127 C 570.531 -4.78415 -2.38796 0
M  V30 6128 C 571.831 -5.21724 -0.245179 0
M  V30 6129 H 573.525 -2.99083 0.137797 0
M  V30 6130 H 571.071 -1.43841 0.0677134 0
M  V30 6131 H 573.024 -3.57712 -2.22755 0
M  V30 6132 H 571.748 -2.33568 -2.28284 0
M  V30 6133 H 570.407 -3.61978 -0.580294 0
M  V30 6134 H 570.055 -4.01959 -3.02387 0
M  V30 6135 H 569.755 -5.49734 -2.07524 0
M  V30 6136 H 571.279 -5.32313 -2.99125 0
M  V30 6137 H 572.693 -5.68391 -0.748646 0
M  V30 6138 H 571.09 -6.00095 -0.0237608 0
M  V30 6139 H 572.16 -4.79596 0.715229 0
M  V30 6140 N 573.503 -0.0852151 -1.57369 0
M  V30 6141 C 574.45 0.877268 -2.13478 0
M  V30 6142 C 575.42 1.28642 -1.05073 0
M  V30 6143 O 576.605 1.36992 -1.32808 0
M  V30 6144 C 573.745 2.13464 -2.71159 0
M  V30 6145 C 572.858 1.77691 -3.93764 0
M  V30 6146 C 571.993 2.98139 -4.39643 0
M  V30 6147 C 571.032 2.58447 -5.54862 0
M  V30 6148 N 570.169 3.71698 -5.95639 0
M  V30 6149 H 575.009 0.391933 -2.95411 0
M  V30 6150 H 572.546 0.181796 -1.45972 0
M  V30 6151 H 574.504 2.87086 -3.02717 0
M  V30 6152 H 573.134 2.59514 -1.91969 0
M  V30 6153 H 572.186 0.940768 -3.68583 0
M  V30 6154 H 573.498 1.44497 -4.77412 0
M  V30 6155 H 572.652 3.80026 -4.72933 0
M  V30 6156 H 571.391 3.34536 -3.54876 0
M  V30 6157 H 570.396 1.74984 -5.21211 0
M  V30 6158 H 571.621 2.23205 -6.41371 0
M  V30 6159 H 569.567 4.07831 -5.13819 0
M  V30 6160 H 569.484 3.42317 -6.74059 0
M  V30 6161 H 570.752 4.54123 -6.33555 0
M  V30 6162 N 574.981 1.5647 0.188427 0
M  V30 6163 C 576.209 1.85131 0.923803 0
M  V30 6164 C 576.624 0.668537 1.76567 0
M  V30 6165 O 575.981 -0.362662 1.7886 0
M  V30 6166 C 576.032 3.12661 1.81453 0
M  V30 6167 O 575.753 4.26378 1.00665 0
M  V30 6168 C 577.254 3.54548 2.66103 0
M  V30 6169 H 574.474 0.614624 0.269218 0
M  V30 6170 H 577.018 2.03581 0.193671 0
M  V30 6171 H 575.173 2.96088 2.49821 0
M  V30 6172 H 575.587 4.99041 1.61425 0
M  V30 6173 H 577.061 4.4673 3.24247 0
M  V30 6174 H 577.538 2.77853 3.40139 0
M  V30 6175 H 578.144 3.73674 2.03096 0
M  V30 6176 N 576.459 -0.456382 1.50847 0
M  V30 6177 C 577.705 -1.20914 1.62811 0
M  V30 6178 C 578.038 -1.91301 0.334304 0
M  V30 6179 O 577.313 -1.82775 -0.665098 0
M  V30 6180 C 577.596 -2.24122 2.81853 0
M  V30 6181 C 577.449 -1.57944 4.21158 0
M  V30 6182 C 578.768 -3.25295 2.96431 0
M  V30 6183 H 575.887 -0.438233 0.592554 0
M  V30 6184 H 578.529 -0.50091 1.83278 0
M  V30 6185 H 576.679 -2.84524 2.64534 0
M  V30 6186 H 578.351 -1.01025 4.50102 0
M  V30 6187 H 576.594 -0.882185 4.24735 0
M  V30 6188 H 577.265 -2.33014 5.00408 0
M  V30 6189 H 579.741 -2.7493 3.12335 0
M  V30 6190 H 578.617 -3.94822 3.81322 0
M  V30 6191 H 578.878 -3.90286 2.07676 0
M  V30 6192 N 577.937 -1.40673 -0.710563 0
M  V30 6193 C 579.353 -1.22813 -1.01928 0
M  V30 6194 C 579.553 -0.10687 -2.01216 0
M  V30 6195 O 578.609 0.533614 -2.46797 0
M  V30 6196 C 579.922 -2.57178 -1.5582 0
M  V30 6197 C 581.47 -2.64233 -1.67779 0
M  V30 6198 C 581.945 -3.98879 -2.25076 0
M  V30 6199 N 583.436 -4.00647 -2.32456 0
M  V30 6200 C 584.171 -5.01621 -2.77784 0
M  V30 6201 N 583.667 -6.12989 -3.22826 0
M  V30 6202 N 585.46 -4.88988 -2.77213 0
M  V30 6203 H 577.611 -2.12335 -0.05253 0
M  V30 6204 H 579.874 -0.9441 -0.085898 0
M  V30 6205 H 579.58 -3.39903 -0.903249 0
M  V30 6206 H 579.454 -2.78618 -2.54267 0
M  V30 6207 H 581.841 -1.81876 -2.3239 0
M  V30 6208 H 581.922 -2.46619 -0.679178 0
M  V30 6209 H 581.566 -4.81678 -1.61086 0
M  V30 6210 H 581.496 -4.13826 -3.25661 0
M  V30 6211 H 583.987 -3.20231 -2.0065 0
M  V30 6212 H 584.3 -6.85921 -3.55995 0
M  V30 6213 H 582.645 -6.16547 -3.20773 0
M  V30 6214 H 585.836 -4.01075 -2.41363 0
M  V30 6215 H 586.009 -5.67822 -3.12221 0
M  V30 6216 N 579.415 0.9433 -1.26252 0
M  V30 6217 C 580.64 1.72898 -1.14547 0
M  V30 6218 C 581.065 1.85761 0.295743 0
M  V30 6219 O 580.423 1.3463 1.21427 0
M  V30 6220 C 580.471 3.11471 -1.8171 0
M  V30 6221 O 579.575 3.97336 -1.10445 0
M  V30 6222 H 578.916 0.530555 -0.399259 0
M  V30 6223 H 581.446 1.18159 -1.67032 0
M  V30 6224 H 581.456 3.61872 -1.88449 0
M  V30 6225 H 580.131 3.01425 -2.86558 0
M  V30 6226 H 578.708 3.55788 -1.11666 0
M  V30 6227 N 580.893 1.08022 1.14757 0
M  V30 6228 C 582.121 0.828847 1.89572 0
M  V30 6229 C 582.536 -0.618621 1.78377 0
M  V30 6230 O 581.893 -1.42482 1.1404 0
M  V30 6231 C 581.944 1.23677 3.39685 0
M  V30 6232 O 581.665 2.62746 3.50566 0
M  V30 6233 C 583.166 1.01569 4.31507 0
M  V30 6234 H 580.386 0.299196 0.600602 0
M  V30 6235 H 582.93 1.43846 1.45357 0
M  V30 6236 H 581.085 0.671347 3.81539 0
M  V30 6237 H 581.499 2.79573 4.43778 0
M  V30 6238 H 582.973 1.35055 5.35223 0
M  V30 6239 H 583.45 -0.0475433 4.39174 0
M  V30 6240 H 584.056 1.56636 3.95405 0
M  V30 6241 N 582.371 -1.3172 0.865308 0
M  V30 6242 C 583.599 -2.01057 0.488251 0
M  V30 6243 C 584.014 -1.64979 -0.918 0
M  V30 6244 O 583.371 -0.876597 -1.60069 0
M  V30 6245 C 583.422 -3.55964 0.630224 0
M  V30 6246 O 583.143 -3.90749 1.98109 0
M  V30 6247 C 584.644 -4.42574 0.253567 0
M  V30 6248 H 581.864 -0.64332 0.190736 0
M  V30 6249 H 584.408 -1.68058 1.16519 0
M  V30 6250 H 582.563 -3.874 0.000895422 0
M  V30 6251 H 582.977 -4.85467 1.9855 0
M  V30 6252 H 584.451 -5.50521 0.403875 0
M  V30 6253 H 584.928 -4.31724 -0.806895 0
M  V30 6254 H 585.534 -4.16547 0.858404 0
M  V30 6255 N 583.85 -0.624285 -1.44708 0
M  V30 6256 C 584.76 0.0861083 -2.34442 0
M  V30 6257 C 585.776 0.84291 -1.5222 0
M  V30 6258 O 586.952 0.796723 -1.84971 0
M  V30 6259 C 584.017 1.05999 -3.30099 0
M  V30 6260 C 583.077 0.303316 -4.28227 0
M  V30 6261 C 582.311 1.23081 -5.19314 0
M  V30 6262 O 582.534 2.46929 -5.14181 0
M  V30 6263 O 581.468 0.71883 -5.97592 0
M  V30 6264 H 585.293 -0.651756 -2.96624 0
M  V30 6265 H 582.879 -0.384493 -1.44368 0
M  V30 6266 H 584.76 1.62046 -3.88997 0
M  V30 6267 H 583.436 1.77859 -2.70459 0
M  V30 6268 H 582.343 -0.300033 -3.72895 0
M  V30 6269 H 583.676 -0.375123 -4.90768 0
M  V30 6270 N 585.328 1.53329 -0.364422 0
M  V30 6271 C 586.275 2.25698 0.482607 0
M  V30 6272 C 587.245 1.26325 1.07848 0
M  V30 6273 O 588.43 1.55104 1.11119 0
M  V30 6274 C 585.57 3.04873 1.61699 0
M  V30 6275 C 584.683 4.19135 1.0464 0
M  V30 6276 C 583.818 4.85754 2.14979 0
M  V30 6277 C 582.857 5.9205 1.5538 0
M  V30 6278 N 581.994 6.52365 2.59547 0
M  V30 6279 H 586.834 2.97666 -0.141032 0
M  V30 6280 H 584.371 1.46875 -0.0813692 0
M  V30 6281 H 586.329 3.49051 2.28516 0
M  V30 6282 H 584.959 2.35162 2.2113 0
M  V30 6283 H 584.011 3.79451 0.268553 0
M  V30 6284 H 585.323 4.95525 0.570653 0
M  V30 6285 H 584.477 5.3311 2.89619 0
M  V30 6286 H 583.216 4.08834 2.65906 0
M  V30 6287 H 582.221 5.44058 0.792549 0
M  V30 6288 H 583.446 6.7089 1.0528 0
M  V30 6289 H 581.392 5.78298 3.09689 0
M  V30 6290 H 581.309 7.2429 2.16655 0
M  V30 6291 H 582.577 7.0437 3.33892 0
M  V30 6292 N 586.806 0.0935595 1.57322 0
M  V30 6293 C 588.031 -0.582324 1.99057 0
M  V30 6294 C 588.456 -1.61025 0.972242 0
M  V30 6295 O 587.814 -1.81202 -0.0594622 0
M  V30 6296 C 587.862 -1.20799 3.39765 0
M  V30 6297 O 586.966 -2.32382 3.40694 0
M  V30 6298 H 586.307 -0.147884 0.647323 0
M  V30 6299 H 588.837 0.174516 2.03854 0
M  V30 6300 H 588.847 -1.54966 3.77425 0
M  V30 6301 H 587.522 -0.454914 4.13405 0
M  V30 6302 H 586.099 -1.99845 3.14827 0
M  V30 6303 N 588.284 -1.56567 -0.180126 0
M  V30 6304 C 589.214 -1.98753 -1.22553 0
M  V30 6305 C 590.195 -0.86175 -1.46656 0
M  V30 6306 O 591.38 -1.12719 -1.58139 0
M  V30 6307 C 588.51 -2.33988 -2.56645 0
M  V30 6308 C 587.464 -3.49445 -2.47128 0
M  V30 6309 C 586.79 -3.70397 -3.8563 0
M  V30 6310 C 588.09 -4.83171 -1.98352 0
M  V30 6311 H 589.784 -2.86332 -0.874896 0
M  V30 6312 H 587.33 -1.37757 -0.419414 0
M  V30 6313 H 589.283 -2.62097 -3.29974 0
M  V30 6314 H 588.007 -1.43309 -2.93479 0
M  V30 6315 H 586.666 -3.2145 -1.76254 0
M  V30 6316 H 586.314 -2.77023 -4.19842 0
M  V30 6317 H 586.014 -4.48077 -3.80132 0
M  V30 6318 H 587.538 -4.00897 -4.60558 0
M  V30 6319 H 588.952 -5.10213 -2.61449 0
M  V30 6320 H 587.349 -5.64425 -2.03823 0
M  V30 6321 H 588.419 -4.75753 -0.937402 0
M  V30 6322 N 589.762 0.448376 -1.51087 0
M  V30 6323 C 590.692 1.55102 -1.74544 0
M  V30 6324 C 591.673 1.59357 -0.594932 0
M  V30 6325 O 592.858 1.75261 -0.836491 0
M  V30 6326 C 589.988 2.93268 -1.86041 0
M  V30 6327 C 588.942 3.03877 -3.01402 0
M  V30 6328 C 588.268 4.43914 -2.98068 0
M  V30 6329 C 589.568 2.7898 -4.41551 0
M  V30 6330 H 591.262 1.35724 -2.66869 0
M  V30 6331 H 588.808 0.651498 -1.28419 0
M  V30 6332 H 590.761 3.70356 -2.01034 0
M  V30 6333 H 589.485 3.13853 -0.903548 0
M  V30 6334 H 588.144 2.29227 -2.86096 0
M  V30 6335 H 587.792 4.6145 -2.00182 0
M  V30 6336 H 587.492 4.51944 -3.75527 0
M  V30 6337 H 589.016 5.22991 -3.1514 0
M  V30 6338 H 590.43 3.45805 -4.57265 0
M  V30 6339 H 588.827 2.98431 -5.20633 0
M  V30 6340 H 589.897 1.74663 -4.5235 0
M  V30 6341 N 591.24 1.41047 0.703093 0
M  V30 6342 C 592.187 1.42302 1.81711 0
M  V30 6343 C 593.157 0.278336 1.63751 0
M  V30 6344 O 594.342 0.478266 1.84709 0
M  V30 6345 C 591.482 1.30362 3.19531 0
M  V30 6346 C 590.595 2.54638 3.48975 0
M  V30 6347 C 589.73 2.35047 4.76368 0
M  V30 6348 C 588.769 3.54837 4.98756 0
M  V30 6349 N 587.906 3.34363 6.1737 0
M  V30 6350 H 592.746 2.37516 1.79973 0
M  V30 6351 H 590.283 1.1795 0.878983 0
M  V30 6352 H 592.241 1.21443 3.99134 0
M  V30 6353 H 590.871 0.387602 3.20464 0
M  V30 6354 H 589.923 2.74037 2.63833 0
M  V30 6355 H 591.235 3.43766 3.61423 0
M  V30 6356 H 590.389 2.23552 5.64012 0
M  V30 6357 H 589.128 1.43363 4.66153 0
M  V30 6358 H 588.133 3.66795 4.09563 0
M  V30 6359 H 589.358 4.47464 5.10835 0
M  V30 6360 H 587.304 2.45373 6.08382 0
M  V30 6361 H 587.221 4.17063 6.30551 0
M  V30 6362 H 588.489 3.26626 7.07768 0
M  V30 6363 N 592.718 -0.936591 1.26751 0
M  V30 6364 C 593.628 -2.06949 1.10496 0
M  V30 6365 C 594.644 -1.7396 0.037271 0
M  V30 6366 O 595.82 -1.99941 0.241944 0
M  V30 6367 C 592.885 -3.38612 0.744491 0
M  V30 6368 C 591.946 -3.85355 1.89209 0
M  V30 6369 C 591.179 -5.10735 1.54873 0
M  V30 6370 O 591.402 -5.68602 0.452546 0
M  V30 6371 O 590.336 -5.52632 2.38499 0
M  V30 6372 H 594.162 -2.23571 2.05547 0
M  V30 6373 H 591.747 -1.05428 1.05855 0
M  V30 6374 H 593.629 -4.17711 0.556396 0
M  V30 6375 H 592.304 -3.23218 -0.176582 0
M  V30 6376 H 591.211 -3.07182 2.13518 0
M  V30 6377 H 592.544 -4.05277 2.79305 0
M  V30 6378 N 594.196 -1.08629 -1.14182 0
M  V30 6379 C 595.444 -0.815731 -1.84906 0
M  V30 6380 C 595.765 0.660441 -1.83475 0
M  V30 6381 O 595.035 1.47888 -1.28476 0
M  V30 6382 H 593.615 -0.298773 -0.684648 0
M  V30 6383 H 596.277 -1.37274 -1.38354 0
M  V30 6384 H 595.373 -1.16193 -2.89665 0
M  V30 6385 O 595.713 1.26359 -1.00577 0
M  V30 6386 H 596.404 1.82071 -0.661052 0
M  V30 END ATOM
M  V30 BEGIN BOND
M  V30 END BOND
M  V30 END CTAB
M  END
$$$$
