drugbank_target|Q9P2E9 Ribosome-binding protein 1 (DB12339)
 OpenBabel12092120323D

  0  0  0     0  0            999 V3000
M  V30 BEGIN CTAB
M  V30 COUNTS 21492 21585 0 0 0
M  V30 BEGIN ATOM
M  V30 1 H -0.908 1.98254 -0.117106 0
M  V30 2 N 0 1.576 0 0
M  V30 3 C 0.933 2.03868 1.02534 0
M  V30 4 C 1.911 0.928543 1.3348 0
M  V30 5 O 3.095 1.19667 1.45644 0
M  V30 6 C 0.222 2.43627 2.35294 0
M  V30 7 C -0.732 3.65373 2.2001 0
M  V30 8 S 0.101 5.13292 1.52614 0
M  V30 9 C 1.257 5.56322 2.86805 0
M  V30 10 H 1.49 2.90518 0.631377 0
M  V30 11 H -0.977 1.52953 0.210867 0
M  V30 12 H 0.981 2.67203 3.11629 0
M  V30 13 H -0.358 1.57376 2.7183 0
M  V30 14 H -1.165 3.90944 3.18086 0
M  V30 15 H -1.563 3.418 1.51819 0
M  V30 16 H 0.729 5.58782 3.83104 0
M  V30 17 H 1.672 6.56266 2.65933 0
M  V30 18 H 2.08 4.83886 2.90714 0
M  V30 19 N 1.4781 -0.272755 1.55222 0
M  V30 20 C 2.7551 -1.02562 1.66555 0
M  V30 21 C 3.1351 -2.04282 0.532189 0
M  V30 22 O 2.4831 -2.23662 -0.467717 0
M  V30 23 C 2.6931 -1.6822 3.05782 0
M  V30 24 C 4.0411 -2.19373 3.63539 0
M  V30 25 O 5.0651 -1.78206 3.08417 0
M  V30 26 O 3.9241 -2.94883 4.60115 0
M  V30 27 H 1.0181 -0.475755 0.676451 0
M  V30 28 H 3.5641 -0.268593 1.67561 0
M  V30 29 H 2.3361 -0.945112 3.79715 0
M  V30 30 H 1.9591 -2.50609 3.08676 0
M  V30 31 N 2.9562 -1.48159 -0.537278 0
M  V30 32 C 4.2052 -1.5506 -1.28993 0
M  V30 33 C 4.5182 -0.226211 -1.94288 0
M  V30 34 O 5.7242 -0.173395 -2.70946 0
M  V30 35 C 4.1802 -2.73429 -2.34018 0
M  V30 36 C 3.7882 -4.1248 -1.74825 0
M  V30 37 C 5.5322 -2.89638 -3.10339 0
M  V30 38 C 3.4392 -5.22121 -2.77747 0
M  V30 39 H 2.3692 -0.577231 -0.485098 0
M  V30 40 H 5.0202 -1.74478 -0.568317 0
M  V30 41 H 3.4022 -2.47431 -3.09182 0
M  V30 42 H 4.5762 -4.48466 -1.05899 0
M  V30 43 H 2.8912 -4.01327 -1.11022 0
M  V30 44 H 5.4882 -3.68718 -3.87235 0
M  V30 45 H 5.8312 -1.9882 -3.65754 0
M  V30 46 H 6.3642 -3.15502 -2.42288 0
M  V30 47 H 3.1032 -6.1488 -2.27161 0
M  V30 48 H 2.6232 -4.90631 -3.45024 0
M  V30 49 H 4.3022 -5.49924 -3.4087 0
M  V30 50 N 4.4343 0.785586 -1.36625 0
M  V30 51 C 5.6643 1.5722 -1.34036 0
M  V30 52 C 6.0723 1.89033 0.0795062 0
M  V30 53 O 5.4153 1.50881 1.04789 0
M  V30 54 C 5.4773 2.91759 -2.10041 0
M  V30 55 C 5.1413 2.82654 -3.59104 0
M  V30 56 C 6.1383 2.54634 -4.53274 0
M  V30 57 C 3.8233 3.01111 -4.02042 0
M  V30 58 C 5.8173 2.45177 -5.88359 0
M  V30 59 C 3.5043 2.91276 -5.37216 0
M  V30 60 C 4.5023 2.63348 -6.30188 0
M  V30 61 O 4.1903 2.53514 -7.6288 0
M  V30 62 H 3.9223 0.494177 -0.461265 0
M  V30 63 H 6.4763 0.982632 -1.8037 0
M  V30 64 H 4.7063 3.52781 -1.58375 0
M  V30 65 H 6.3953 3.53059 -2.00261 0
M  V30 66 H 7.1613 2.40073 -4.21414 0
M  V30 67 H 3.0403 3.21854 -3.30047 0
M  V30 68 H 6.5843 2.23299 -6.60896 0
M  V30 69 H 2.4813 3.054 -5.68684 0
M  V30 70 H 3.2493 2.68967 -7.73045 0
M  V30 71 N 5.9124 1.20967 1.01018 0
M  V30 72 C 7.1894 0.93264 1.71934 0
M  V30 73 C 7.5694 -0.55692 2.03621 0
M  V30 74 O 6.9174 -1.52035 1.7058 0
M  V30 75 C 7.1274 1.81233 2.98254 0
M  V30 76 C 8.4754 2.05804 3.71389 0
M  V30 77 O 9.4994 1.78539 3.08225 0
M  V30 78 O 8.3584 2.51888 4.84989 0
M  V30 79 H 5.4524 0.349272 0.749625 0
M  V30 80 H 7.9984 1.31871 1.06808 0
M  V30 81 H 6.7704 2.82067 2.71208 0
M  V30 82 H 6.3934 1.42674 3.7112 0
M  V30 83 N 7.3905 -1.2043 1.01659 0
M  V30 84 C 8.6185 -1.93777 0.725132 0
M  V30 85 C 9.0335 -1.74772 -0.714166 0
M  V30 86 O 8.3905 -1.06169 -1.4844 0
M  V30 87 C 8.4415 -3.45876 1.05129 0
M  V30 88 O 8.1625 -3.6426 2.43406 0
M  V30 89 C 9.6635 -4.36368 0.780891 0
M  V30 90 H 6.8835 -0.615901 0.266284 0
M  V30 91 H 9.4275 -1.52922 1.35776 0
M  V30 92 H 7.5825 -3.8461 0.464065 0
M  V30 93 H 7.9965 -4.58246 2.55169 0
M  V30 94 H 9.4705 -5.41743 1.05918 0
M  V30 95 H 9.9475 -4.38275 -0.284937 0
M  V30 96 H 10.5535 -4.03296 1.35027 0
M  V30 97 N 8.8686 -0.792821 -1.36206 0
M  V30 98 C 9.8006 -0.151469 -2.28699 0
M  V30 99 C 10.8136 0.641262 -1.49638 0
M  V30 100 O 12.0026 0.475885 -1.72039 0
M  V30 101 C 9.1026 0.808424 -3.29117 0
M  V30 102 C 8.2756 0.0650202 -4.37352 0
M  V30 103 C 7.3346 0.941358 -5.17711 0
M  V30 104 O 6.3606 0.397352 -5.67811 0
M  V30 105 N 7.5626 2.2652 -5.3448 0
M  V30 106 H 10.3276 -0.945982 -2.84379 0
M  V30 107 H 7.8886 -0.647032 -1.48409 0
M  V30 108 H 9.8806 1.3986 -3.79765 0
M  V30 109 H 8.4506 1.5038 -2.74052 0
M  V30 110 H 7.6706 -0.706255 -3.87822 0
M  V30 111 H 8.9586 -0.447847 -5.06825 0
M  V30 112 H 8.3566 2.73128 -4.95396 0
M  V30 113 H 6.9136 2.80493 -5.88359 0
M  V30 114 N 10.3467 1.47872 -0.545128 0
M  V30 115 C 11.5747 2.06889 -0.021084 0
M  V30 116 C 11.9897 1.39955 1.2672 0
M  V30 117 O 11.3467 0.492036 1.75742 0
M  V30 118 C 11.3977 3.60996 0.190817 0
M  V30 119 O 11.1187 4.25419 -1.04644 0
M  V30 120 C 12.6197 4.36849 0.753521 0
M  V30 121 H 9.8397 0.669785 -0.0403635 0
M  V30 122 H 12.3837 1.90049 -0.755095 0
M  V30 123 H 10.5387 3.77391 0.87492 0
M  V30 124 H 10.9527 5.17785 -0.836611 0
M  V30 125 H 12.4267 5.45399 0.851139 0
M  V30 126 H 12.9037 4.02306 1.762 0
M  V30 127 H 13.5097 4.25169 0.105503 0
M  V30 128 N 11.8248 0.280983 1.55075 0
M  V30 129 C 12.7548 -0.597469 2.25727 0
M  V30 130 C 13.7358 -1.15417 1.24952 0
M  V30 131 O 14.9208 -1.18722 1.53684 0
M  V30 132 C 12.0508 -1.7789 2.98283 0
M  V30 133 C 11.0048 -1.35347 4.06036 0
M  V30 134 C 10.3308 -2.61846 4.66198 0
M  V30 135 C 11.6308 -0.499354 5.19907 0
M  V30 136 H 13.3248 -0.00824265 2.99399 0
M  V30 137 H 10.8708 -0.0025244 1.44 0
M  V30 138 H 12.8238 -2.39937 3.46422 0
M  V30 139 H 11.5478 -2.39405 2.22155 0
M  V30 140 H 10.2068 -0.756156 3.58717 0
M  V30 141 H 9.8548 -3.21632 3.86732 0
M  V30 142 H 9.5548 -2.3409 5.38958 0
M  V30 143 H 11.0788 -3.24732 5.1709 0
M  V30 144 H 12.4928 -1.02498 5.64063 0
M  V30 145 H 10.8898 -0.316424 5.99265 0
M  V30 146 H 11.9598 0.480459 4.82514 0
M  V30 147 N 13.3029 -1.57598 0.00835791 0
M  V30 148 C 14.5509 -1.90551 -0.6734 0
M  V30 149 C 14.8719 -0.883301 -1.73847 0
M  V30 150 O 14.1419 0.0781442 -1.95744 0
M  V30 151 H 12.7219 -0.703312 -0.251717 0
M  V30 152 H 15.3839 -1.94833 0.0512592 0
M  V30 153 H 14.4799 -2.9056 -1.13935 0
M  V30 154 N 14.781 0.264519 -1.55364 0
M  V30 155 C 16.027 0.99646 -1.76631 0
M  V30 156 C 16.36 1.85632 -0.570478 0
M  V30 157 O 15.635 1.89647 0.43175 0
M  V30 158 C 15.918 1.87187 -3.07625 0
M  V30 159 C 15.771 1.04138 -4.37579 0
M  V30 160 C 17.09 2.85749 -3.34717 0
M  V30 161 H 14.209 0.360841 -0.642622 0
M  V30 162 H 16.851 0.268218 -1.88097 0
M  V30 163 H 15.001 2.49279 -2.9798 0
M  V30 164 H 16.673 0.440517 -4.59192 0
M  V30 165 H 14.916 0.345115 -4.32425 0
M  V30 166 H 15.587 1.68729 -5.2558 0
M  V30 167 H 18.063 2.33793 -3.4421 0
M  V30 168 H 16.939 3.44136 -4.27623 0
M  V30 169 H 17.2 3.61311 -2.54768 0
M  V30 170 N 16.2591 1.48442 0.529413 0
M  V30 171 C 17.5051 1.5672 1.28711 0
M  V30 172 C 17.8381 0.2406 1.92704 0
M  V30 173 O 17.1131 -0.753454 1.79313 0
M  V30 174 C 17.3961 2.70587 2.37603 0
M  V30 175 C 17.2491 4.12953 1.78297 0
M  V30 176 C 18.5681 2.80212 3.39366 0
M  V30 177 H 15.6871 0.570474 0.466613 0
M  V30 178 H 18.3291 1.80617 0.589706 0
M  V30 179 H 16.4791 2.50342 2.97088 0
M  V30 180 H 18.1511 4.44639 1.22858 0
M  V30 181 H 16.3941 4.19927 1.0883 0
M  V30 182 H 17.0651 4.88448 2.57144 0
M  V30 183 H 19.5411 2.98553 2.89836 0
M  V30 184 H 18.4171 3.61611 4.12951 0
M  V30 185 H 18.6781 1.88393 3.99951 0
M  V30 186 N 17.7372 -0.778329 1.37039 0
M  V30 187 C 18.9832 -1.53892 1.32079 0
M  V30 188 C 19.3162 -1.9396 -0.0965386 0
M  V30 189 O 18.5912 -1.63568 -1.05242 0
M  V30 190 C 18.8742 -2.80847 2.25382 0
M  V30 191 C 18.7272 -2.47076 3.75864 0
M  V30 192 C 20.0462 -3.82741 2.1725 0
M  V30 193 H 17.1652 -0.558303 0.48111 0
M  V30 194 H 19.8072 -0.893397 1.67685 0
M  V30 195 H 17.9572 -3.35931 1.95148 0
M  V30 196 H 19.6292 -1.97957 4.16666 0
M  V30 197 H 17.8722 -1.79863 3.94755 0
M  V30 198 H 18.5432 -3.37798 4.36574 0
M  V30 199 H 21.0192 -3.37133 2.43887 0
M  V30 200 H 19.8952 -4.69303 2.84686 0
M  V30 201 H 20.1562 -4.2652 1.16331 0
M  V30 202 N 19.2153 -1.21501 -1.00376 0
M  V30 203 C 20.4623 -1.03299 -1.74171 0
M  V30 204 C 20.7903 0.433326 -1.89612 0
M  V30 205 O 20.0453 1.33779 -1.42834 0
M  V30 206 C 20.3443 -1.67673 -3.15627 0
M  V30 207 C 20.0103 -3.17533 -3.2013 0
M  V30 208 C 18.6723 -3.58427 -3.21067 0
M  V30 209 C 21.0243 -4.13504 -3.17275 0
M  V30 210 C 18.3523 -4.93794 -3.16835 0
M  V30 211 C 20.7043 -5.48834 -3.14585 0
M  V30 212 C 19.3683 -5.89123 -3.13831 0
M  V30 213 H 18.6383 -0.377999 -0.637336 0
M  V30 214 H 21.2853 -1.51111 -1.17634 0
M  V30 215 H 19.5903 -1.12158 -3.75404 0
M  V30 216 H 21.2873 -1.51091 -3.71446 0
M  V30 217 H 17.8773 -2.84965 -3.20145 0
M  V30 218 H 22.0613 -3.82936 -3.15711 0
M  V30 219 H 17.3173 -5.24255 -3.1459 0
M  V30 220 H 21.4913 -6.22934 -3.1133 0
M  V30 221 H 19.1183 -6.93984 -3.10307 0
M  V30 222 N 20.6934 1.19889 -1.02296 0
M  V30 223 C 21.9414 1.89046 -0.714558 0
M  V30 224 C 22.2624 1.79636 0.758681 0
M  V30 225 O 21.5324 1.20292 1.54618 0
M  V30 226 H 20.1124 0.699802 -0.261317 0
M  V30 227 H 22.7744 1.45574 -1.29592 0
M  V30 228 H 21.8704 2.95524 -1.0036 0
M  V30 229 N 22.1715 0.800033 1.35784 0
M  V30 230 C 23.4195 0.376597 1.9856 0
M  V30 231 C 23.7405 -1.05812 1.63795 0
M  V30 232 O 23.0105 -1.73103 0.917171 0
M  V30 233 H 21.5905 0.136261 0.734467 0
M  V30 234 H 24.2525 1.02442 1.65806 0
M  V30 235 H 23.3485 0.477002 3.08433 0
M  V30 236 N 23.6496 -1.47581 0.552962 0
M  V30 237 C 24.8966 -2.02482 0.0273243 0
M  V30 238 C 25.2246 -1.42776 -1.32081 0
M  V30 239 O 24.4796 -0.571393 -1.87173 0
M  V30 240 C 24.7786 -3.57199 -0.119728 0
M  V30 241 C 24.4446 -4.35804 1.15697 0
M  V30 242 C 23.1066 -4.57 1.50681 0
M  V30 243 C 25.4586 -4.81167 2.00319 0
M  V30 244 C 22.7866 -5.20807 2.70142 0
M  V30 245 C 25.1386 -5.46293 3.18978 0
M  V30 246 C 23.8026 -5.65722 3.54281 0
M  V30 247 H 23.0726 -0.740933 0.00999866 0
M  V30 248 H 25.7196 -1.77302 0.72362 0
M  V30 249 H 24.0246 -3.81348 -0.89896 0
M  V30 250 H 25.7216 -3.97324 -0.541718 0
M  V30 251 H 22.3116 -4.19582 0.874561 0
M  V30 252 H 26.4956 -4.64574 1.74599 0
M  V30 253 H 21.7516 -5.34045 2.97668 0
M  V30 254 H 25.9256 -5.80407 3.84838 0
M  V30 255 H 23.5526 -6.14936 4.46942 0
M  V30 256 N 25.1277 -0.289203 -1.54924 0
M  V30 257 C 26.0607 0.633823 -2.19221 0
M  V30 258 C 27.0387 1.14174 -1.15772 0
M  V30 259 O 28.2227 1.21211 -1.44361 0
M  V30 260 C 25.3497 1.86592 -2.82668 0
M  V30 261 C 24.3957 1.49227 -3.99542 0
M  V30 262 S 25.2287 0.558312 -5.32582 0
M  V30 263 C 26.3847 1.79847 -5.99505 0
M  V30 264 H 26.6177 0.0875416 -2.97171 0
M  V30 265 H 24.1507 -0.0733899 -1.54225 0
M  V30 266 H 26.1087 2.57305 -3.19851 0
M  V30 267 H 24.7697 2.38335 -2.04585 0
M  V30 268 H 23.9627 2.40945 -4.42676 0
M  V30 269 H 23.5647 0.865193 -3.63855 0
M  V30 270 H 25.8567 2.7406 -6.19595 0
M  V30 271 H 26.7997 1.4099 -6.93922 0
M  V30 272 H 27.2077 1.96982 -5.29016 0
M  V30 273 N 26.6058 1.57591 -0.0167156 0
M  V30 274 C 27.8518 1.91567 0.665582 0
M  V30 275 C 28.1848 0.892298 1.72487 0
M  V30 276 O 27.4598 -0.0867127 1.94307 0
M  V30 277 C 27.7428 3.36069 1.29342 0
M  V30 278 C 27.5958 4.49135 0.244541 0
M  V30 279 C 28.9148 3.803 2.21495 0
M  V30 280 H 26.0338 0.69666 0.240488 0
M  V30 281 H 28.6758 1.89866 -0.0714356 0
M  V30 282 H 26.8258 3.3765 1.92158 0
M  V30 283 H 28.4978 4.59689 -0.385228 0
M  V30 284 H 26.7408 4.3165 -0.431379 0
M  V30 285 H 27.4118 5.47242 0.723207 0
M  V30 286 H 29.8878 3.80377 1.68678 0
M  V30 287 H 28.7638 4.82127 2.62382 0
M  V30 288 H 29.0248 3.15104 3.101 0
M  V30 289 N 28.0839 -0.256276 1.55502 0
M  V30 290 C 29.3299 -0.987079 1.77157 0
M  V30 291 C 29.6629 -1.85327 0.580315 0
M  V30 292 O 28.9379 -1.89874 -0.421686 0
M  V30 293 C 29.2209 -1.85553 3.08613 0
M  V30 294 C 29.0739 -1.01816 4.38125 0
M  V30 295 C 30.3929 -2.8397 3.36228 0
M  V30 296 H 27.5119 -0.357428 0.644526 0
M  V30 297 H 30.1539 -0.258239 1.88237 0
M  V30 298 H 28.3039 -2.47695 2.99298 0
M  V30 299 H 29.9759 -0.416159 4.59419 0
M  V30 300 H 28.2189 -0.322178 4.32602 0
M  V30 301 H 28.8899 -1.65939 5.26468 0
M  V30 302 H 31.3659 -2.31964 3.45445 0
M  V30 303 H 30.2419 -3.41864 4.29442 0
M  V30 304 H 30.5029 -3.59955 2.56681 0
M  V30 305 N 29.562 -1.4872 -0.521534 0
M  V30 306 C 30.787 -1.61101 -1.30618 0
M  V30 307 C 31.212 -0.274611 -1.86085 0
M  V30 308 O 30.57 0.754937 -1.64834 0
M  V30 309 C 30.618 -2.66709 -2.4269 0
M  V30 310 O 29.722 -2.24456 -3.45967 0
M  V30 311 H 29.063 -0.539921 -0.386499 0
M  V30 312 H 31.593 -1.94767 -0.626645 0
M  V30 313 H 31.603 -2.88245 -2.88754 0
M  V30 314 H 30.278 -3.63727 -2.01682 0
M  V30 315 H 28.855 -2.13168 -3.05964 0
M  V30 316 N 31.0401 0.771051 -1.3745 0
M  V30 317 C 32.0031 1.86598 -1.33093 0
M  V30 318 C 33.0031 1.59076 -0.234845 0
M  V30 319 O 34.1931 1.67145 -0.490732 0
M  V30 320 C 31.3251 3.23747 -1.06773 0
M  V30 321 H 32.5181 1.91873 -2.30488 0
M  V30 322 H 30.0711 0.970876 -1.2249 0
M  V30 323 H 30.8061 3.24148 -0.099129 0
M  V30 324 H 30.5911 3.45115 -1.86112 0
M  V30 325 H 32.0811 4.03824 -1.06377 0
M  V30 326 N 32.5182 1.22032 0.997298 0
M  V30 327 C 33.7672 1.03637 1.73038 0
M  V30 328 C 34.0802 -0.429475 1.90827 0
M  V30 329 O 35.2862 -0.732995 2.61418 0
M  V30 330 C 33.7422 1.80582 3.11317 0
M  V30 331 C 33.3502 3.31387 3.01474 0
M  V30 332 C 35.0942 1.70621 3.88701 0
M  V30 333 C 33.0012 4.00791 4.3488 0
M  V30 334 H 31.9312 0.384179 0.648785 0
M  V30 335 H 34.5822 1.4584 1.11368 0
M  V30 336 H 32.9642 1.31175 3.73643 0
M  V30 337 H 34.1382 3.88155 2.4834 0
M  V30 338 H 32.4532 3.41976 2.37575 0
M  V30 339 H 35.0502 2.19799 4.87434 0
M  V30 340 H 35.3932 0.665823 4.10941 0
M  V30 341 H 35.9262 2.17547 3.33044 0
M  V30 342 H 32.6652 5.05064 4.1784 0
M  V30 343 H 32.1852 3.48811 4.87945 0
M  V30 344 H 33.8642 4.06139 5.03647 0
M  V30 345 N 33.9963 -1.19345 1.0293 0
M  V30 346 C 35.2443 -1.88665 0.724574 0
M  V30 347 C 35.5653 -1.80036 -0.749144 0
M  V30 348 O 34.8353 -1.2111 -1.53978 0
M  V30 349 H 33.4153 -0.698406 0.265025 0
M  V30 350 H 36.0773 -1.44885 1.30362 0
M  V30 351 H 35.1733 -2.94987 1.01926 0
M  V30 352 N 35.4744 -0.807222 -1.35358 0
M  V30 353 C 36.7234 -0.384376 -1.98004 0
M  V30 354 C 37.0364 1.0543 -1.64754 0
M  V30 355 O 38.2424 1.58029 -2.20769 0
M  V30 356 C 36.6984 -0.636326 -3.5423 0
M  V30 357 C 36.3064 -2.08759 -3.96388 0
M  V30 358 C 38.0504 -0.278869 -4.23583 0
M  V30 359 C 35.9574 -2.28525 -5.45463 0
M  V30 360 H 34.8874 -0.139986 -0.740891 0
M  V30 361 H 37.5384 -0.991369 -1.54415 0
M  V30 362 H 35.9204 0.0406256 -3.95979 0
M  V30 363 H 37.0944 -2.8024 -3.6579 0
M  V30 364 H 35.4094 -2.40497 -3.39926 0
M  V30 365 H 38.0064 -0.404599 -5.33167 0
M  V30 366 H 38.3494 0.775012 -4.09022 0
M  V30 367 H 38.8824 -0.909764 -3.87257 0
M  V30 368 H 35.6214 -3.32361 -5.64992 0
M  V30 369 H 35.1414 -1.61569 -5.77629 0
M  V30 370 H 36.8204 -2.10109 -6.11934 0
M  V30 371 N 36.9525 1.47285 -0.560781 0
M  V30 372 C 38.1995 2.02464 -0.038062 0
M  V30 373 C 38.5275 1.43474 1.31322 0
M  V30 374 O 37.7825 0.581311 1.86867 0
M  V30 375 C 38.0815 3.57258 0.100784 0
M  V30 376 C 37.7475 4.35184 -1.18007 0
M  V30 377 C 36.4095 4.56194 -1.53103 0
M  V30 378 C 38.7615 4.80098 -2.02867 0
M  V30 379 C 36.0895 5.19367 -2.729 0
M  V30 380 C 38.4415 5.44593 -3.21871 0
M  V30 381 C 37.1055 5.63835 -3.57276 0
M  V30 382 H 36.3755 0.740869 -0.0139279 0
M  V30 383 H 39.0225 1.76916 -0.733012 0
M  V30 384 H 37.3275 3.81819 0.878724 0
M  V30 385 H 39.0245 3.97606 0.520639 0
M  V30 386 H 35.6145 4.19113 -0.8968 0
M  V30 387 H 39.7985 4.63642 -1.7706 0
M  V30 388 H 35.0545 5.32459 -3.00496 0
M  V30 389 H 39.2285 5.78358 -3.87911 0
M  V30 390 H 36.8555 6.12557 -4.50197 0
M  V30 391 N 38.4306 0.297415 1.54768 0
M  V30 392 C 39.3606 -0.573494 2.26348 0
M  V30 393 C 40.3416 -1.14085 1.26169 0
M  V30 394 O 41.5266 -1.17086 1.54934 0
M  V30 395 C 38.6566 -1.74716 3.00153 0
M  V30 396 C 37.6106 -1.31032 4.07449 0
M  V30 397 C 36.9366 -2.56887 4.68949 0
M  V30 398 C 38.2366 -0.444183 5.20408 0
M  V30 399 H 39.9306 0.0235131 2.99391 0
M  V30 400 H 37.4766 0.0127488 1.43994 0
M  V30 401 H 39.4296 -2.3625 3.48947 0
M  V30 402 H 38.1536 -2.37035 2.24682 0
M  V30 403 H 36.8126 -0.718066 3.59499 0
M  V30 404 H 36.4606 -3.17512 3.90122 0
M  V30 405 H 36.1606 -2.2836 5.41411 0
M  V30 406 H 37.6846 -3.19229 5.20505 0
M  V30 407 H 39.0986 -0.9651 5.65118 0
M  V30 408 H 37.4956 -0.252846 5.99567 0
M  V30 409 H 38.5656 0.531609 4.81977 0
M  V30 410 N 39.9087 -1.5758 0.0250728 0
M  V30 411 C 41.1547 -1.91917 -0.655413 0
M  V30 412 C 41.4877 -0.901433 -1.72011 0
M  V30 413 O 40.7627 0.0764069 -1.9435 0
M  V30 414 C 41.0457 -3.36751 -1.27558 0
M  V30 415 C 40.8987 -4.49258 -0.220719 0
M  V30 416 C 42.2177 -3.81469 -2.19475 0
M  V30 417 H 39.3367 -0.697925 -0.23679 0
M  V30 418 H 41.9787 -1.89825 0.0815036 0
M  V30 419 H 40.1287 -3.38664 -1.90365 0
M  V30 420 H 41.8007 -4.59478 0.409601 0
M  V30 421 H 40.0437 -4.31415 0.454264 0
M  V30 422 H 40.7147 -5.47618 -0.694175 0
M  V30 423 H 43.1907 -3.81266 -1.66659 0
M  V30 424 H 42.0667 -4.83512 -2.59822 0
M  V30 425 H 42.3277 -3.16744 -3.08424 0
M  V30 426 N 41.3868 0.248026 -1.55636 0
M  V30 427 C 42.6118 0.998028 -1.81808 0
M  V30 428 C 43.0368 1.78207 -0.601979 0
M  V30 429 O 42.3948 1.75653 0.448961 0
M  V30 430 C 42.4428 1.9125 -3.05705 0
M  V30 431 O 41.5468 3.00406 -2.82542 0
M  V30 432 H 40.8878 0.284045 -0.600179 0
M  V30 433 H 43.4178 0.269357 -2.02819 0
M  V30 434 H 43.4278 2.32737 -3.35108 0
M  V30 435 H 42.1028 1.33602 -3.93857 0
M  V30 436 H 40.6798 2.63056 -2.64303 0
M  V30 437 N 42.8649 1.48995 0.513639 0
M  V30 438 C 44.0929 1.61531 1.29288 0
M  V30 439 C 44.5079 0.281801 1.86685 0
M  V30 440 O 43.8649 -0.731111 1.67215 0
M  V30 441 C 43.9159 2.67449 2.43215 0
M  V30 442 O 43.6369 3.95626 1.88179 0
M  V30 443 C 45.1379 2.90575 3.34785 0
M  V30 444 H 42.3579 0.544165 0.392588 0
M  V30 445 H 44.9019 1.9494 0.617956 0
M  V30 446 H 43.0569 2.36853 3.0656 0
M  V30 447 H 43.4709 4.53868 2.62876 0
M  V30 448 H 44.9449 3.68449 4.11035 0
M  V30 449 H 45.4219 2.00011 3.91015 0
M  V30 450 H 46.0279 3.22538 2.77218 0
M  V30 451 N 44.343 -0.763751 1.37857 0
M  V30 452 C 45.59 -1.52257 1.33506 0
M  V30 453 C 45.918 -1.94343 -0.078022 0
M  V30 454 O 45.173 -1.64958 -1.05297 0
M  V30 455 C 45.472 -2.79499 2.22745 0
M  V30 456 C 45.138 -2.56426 3.70886 0
M  V30 457 C 43.8 -2.49842 4.11257 0
M  V30 458 C 46.152 -2.36008 4.64704 0
M  V30 459 C 43.48 -2.20841 5.43549 0
M  V30 460 C 45.832 -2.0853 5.97242 0
M  V30 461 C 44.496 -2.00396 6.36709 0
M  V30 462 H 43.766 -0.557149 0.488534 0
M  V30 463 H 46.413 -0.879073 1.70131 0
M  V30 464 H 44.718 -3.48447 1.79142 0
M  V30 465 H 46.415 -3.37413 2.16688 0
M  V30 466 H 43.005 -2.62416 3.38874 0
M  V30 467 H 47.189 -2.40079 4.34368 0
M  V30 468 H 42.445 -2.13045 5.73081 0
M  V30 469 H 46.619 -1.91732 6.69486 0
M  V30 470 H 44.246 -1.77688 7.39142 0
M  V30 471 N 45.8211 -1.22559 -0.990812 0
M  V30 472 C 47.0461 -1.07862 -1.77145 0
M  V30 473 C 47.4711 0.366447 -1.84496 0
M  V30 474 O 46.8291 1.26478 -1.29896 0
M  V30 475 C 46.8771 -1.69686 -3.18181 0
M  V30 476 O 45.9811 -0.951946 -4.01263 0
M  V30 477 H 45.3221 -0.378712 -0.545411 0
M  V30 478 H 47.8521 -1.62399 -1.2445 0
M  V30 479 H 47.8621 -1.74496 -3.68802 0
M  V30 480 H 46.5371 -2.74841 -3.12146 0
M  V30 481 H 45.1141 -0.980011 -3.59792 0
M  V30 482 N 47.2992 1.18797 -1.03562 0
M  V30 483 C 48.2322 2.2105 -0.56676 0
M  V30 484 C 49.2102 1.57704 0.395993 0
M  V30 485 O 50.3942 1.85908 0.311498 0
M  V30 486 C 47.5212 3.38259 0.172704 0
M  V30 487 C 46.5672 4.19987 -0.74252 0
M  V30 488 S 47.4002 4.87199 -2.22254 0
M  V30 489 C 48.5562 6.07813 -1.49379 0
M  V30 490 H 48.7892 2.60478 -1.43312 0
M  V30 491 H 46.3222 1.29151 -0.846133 0
M  V30 492 H 48.2802 4.06191 0.593191 0
M  V30 493 H 46.9412 2.97252 1.01488 0
M  V30 494 H 46.1342 5.03709 -0.171265 0
M  V30 495 H 45.7362 3.57408 -1.10163 0
M  V30 496 H 48.0282 6.72948 -0.784056 0
M  V30 497 H 48.9712 6.69435 -2.30786 0
M  V30 498 H 49.3792 5.55781 -0.988331 0
M  V30 499 N 48.7773 0.814389 1.34928 0
M  V30 500 C 49.7243 0.22822 2.29669 0
M  V30 501 C 50.6943 -0.642164 1.53184 0
M  V30 502 O 51.8793 -0.585605 1.81591 0
M  V30 503 C 49.0193 -0.61089 3.3965 0
M  V30 504 C 48.1323 0.280792 4.31086 0
M  V30 505 C 47.2673 -0.567067 5.28165 0
M  V30 506 C 46.3063 0.324531 6.11239 0
M  V30 507 N 45.4433 -0.483756 7.00431 0
M  V30 508 H 50.2833 1.04153 2.79206 0
M  V30 509 H 47.8203 0.525133 1.37407 0
M  V30 510 H 49.7783 -1.11263 4.0209 0
M  V30 511 H 48.4083 -1.38939 2.91369 0
M  V30 512 H 47.4603 0.900688 3.69583 0
M  V30 513 H 48.7723 0.966723 4.89342 0
M  V30 514 H 47.9263 -1.13363 5.96015 0
M  V30 515 H 46.6653 -1.28654 4.70425 0
M  V30 516 H 45.6703 0.903298 5.42329 0
M  V30 517 H 46.8953 1.04198 6.71059 0
M  V30 518 H 44.8413 -1.18706 6.45171 0
M  V30 519 H 44.7583 0.143965 7.55863 0
M  V30 520 H 46.0263 -1.03334 7.7262 0
M  V30 521 N 50.2554 -1.46986 0.568584 0
M  V30 522 C 51.1654 -2.33942 -0.17555 0
M  V30 523 C 52.1814 -1.48891 -0.90041 0
M  V30 524 O 53.3574 -1.81794 -0.86676 0
M  V30 525 C 50.4224 -3.25811 -1.18524 0
M  V30 526 C 49.4834 -4.26757 -0.466582 0
M  V30 527 C 48.7164 -5.14236 -1.42817 0
M  V30 528 O 48.9394 -5.04379 -2.66379 0
M  V30 529 O 47.8734 -5.94412 -0.946453 0
M  V30 530 H 51.6994 -2.98896 0.538036 0
M  V30 531 H 49.2844 -1.4573 0.329097 0
M  V30 532 H 51.1664 -3.82527 -1.76779 0
M  V30 533 H 49.8414 -2.63471 -1.88055 0
M  V30 534 H 48.7484 -3.73769 0.157451 0
M  V30 535 H 50.0814 -4.91843 0.187485 0
M  V30 536 N 51.7335 -0.305618 -1.54608 0
M  V30 537 C 52.9615 0.304775 -2.04643 0
M  V30 538 C 53.3765 1.47167 -1.18268 0
M  V30 539 O 52.7335 1.81296 -0.209328 0
M  V30 540 C 52.7845 0.756564 -3.53495 0
M  V30 541 O 52.5055 -0.36389 -4.36586 0
M  V30 542 C 54.0065 1.43163 -4.19546 0
M  V30 543 H 51.2265 0.0655481 -0.667791 0
M  V30 544 H 53.7705 -0.446592 -1.99564 0
M  V30 545 H 51.9255 1.45794 -3.58919 0
M  V30 546 H 52.3395 -0.0113121 -5.24499 0
M  V30 547 H 53.8135 1.69886 -5.25207 0
M  V30 548 H 54.2905 2.37318 -3.69563 0
M  V30 549 H 54.8965 0.773307 -4.18211 0
M  V30 550 N 53.2116 1.57565 -0.0334293 0
M  V30 551 C 54.4366 1.96689 0.657895 0
M  V30 552 C 54.8616 0.910057 1.64619 0
M  V30 553 O 54.2196 -0.128598 1.80843 0
M  V30 554 C 54.2676 3.34905 1.33683 0
M  V30 555 O 53.3716 3.31574 2.45219 0
M  V30 556 H 52.7126 0.641205 0.172489 0
M  V30 557 H 55.2426 2.04372 -0.0965621 0
M  V30 558 H 55.2526 3.71234 1.69262 0
M  V30 559 H 53.9276 4.11366 0.612411 0
M  V30 560 H 52.5046 3.06968 2.11719 0
M  V30 561 N 54.6897 -0.239769 1.55765 0
M  V30 562 C 55.9197 -0.982743 1.8173 0
M  V30 563 C 56.3277 -1.7917 0.607835 0
M  V30 564 O 55.6707 -1.78525 -0.432973 0
M  V30 565 C 55.7327 -1.96332 3.01155 0
M  V30 566 C 55.3967 -1.34062 4.36894 0
M  V30 567 C 56.3937 -0.739539 5.14613 0
M  V30 568 C 54.0787 -1.35784 4.83599 0
M  V30 569 C 56.0727 -0.163989 6.37189 0
M  V30 570 C 53.7597 -0.778441 6.06122 0
M  V30 571 C 54.7577 -0.182548 6.82756 0
M  V30 572 O 54.4457 0.387887 8.02964 0
M  V30 573 H 54.1777 -0.294481 0.608487 0
M  V30 574 H 56.7317 -0.26572 2.03674 0
M  V30 575 H 54.9617 -2.71884 2.74984 0
M  V30 576 H 56.6507 -2.57032 3.14149 0
M  V30 577 H 57.4167 -0.718687 4.79646 0
M  V30 578 H 53.2957 -1.81105 4.23936 0
M  V30 579 H 56.8397 0.301753 6.96947 0
M  V30 580 H 52.7367 -0.796645 6.40565 0
M  V30 581 H 53.5047 0.28044 8.18019 0
M  V30 582 N 56.1678 -1.49265 -0.50573 0
M  V30 583 C 57.0778 -1.68312 -1.63427 0
M  V30 584 C 58.0938 -0.565682 -1.64548 0
M  V30 585 O 59.2698 -0.839801 -1.83055 0
M  V30 586 C 56.3348 -1.74107 -2.99813 0
M  V30 587 C 55.3958 -2.97653 -3.09356 0
M  V30 588 C 54.6288 -3.03163 -4.39236 0
M  V30 589 O 54.8518 -2.16396 -5.27758 0
M  V30 590 O 53.7858 -3.9558 -4.53652 0
M  V30 591 H 57.6118 -2.63907 -1.50289 0
M  V30 592 H 55.1968 -1.32951 -0.681502 0
M  V30 593 H 57.0788 -1.803 -3.80881 0
M  V30 594 H 55.7538 -0.816901 -3.13223 0
M  V30 595 H 54.6608 -2.96981 -2.27493 0
M  V30 596 H 55.9938 -3.89535 -3.00871 0
M  V30 597 N 57.6459 0.756429 -1.3826 0
M  V30 598 C 58.5559 1.9009 -1.37488 0
M  V30 599 C 59.5719 1.71855 -0.272366 0
M  V30 600 O 60.7479 1.94827 -0.510318 0
M  V30 601 C 57.8129 3.25421 -1.19592 0
M  V30 602 C 56.8739 3.56202 -2.39622 0
M  V30 603 C 56.1069 4.85075 -2.2257 0
M  V30 604 O 56.3299 5.57246 -1.21793 0
M  V30 605 O 55.2639 5.15269 -3.11098 0
M  V30 606 H 59.0899 1.93695 -2.33914 0
M  V30 607 H 56.6749 0.901313 -1.1915 0
M  V30 608 H 58.5569 4.06337 -1.11661 0
M  V30 609 H 57.2319 3.22634 -0.262486 0
M  V30 610 H 56.1389 2.75458 -2.53128 0
M  V30 611 H 57.4719 3.63747 -3.31586 0
M  V30 612 N 59.124 1.23083 0.984299 0
M  V30 613 C 60.087 1.00979 2.05757 0
M  V30 614 C 61.087 -0.0269573 1.60777 0
M  V30 615 O 62.277 0.212403 1.729 0
M  V30 616 C 59.409 0.527072 3.36801 0
M  V30 617 H 60.602 1.9622 2.26799 0
M  V30 618 H 58.155 1.05072 1.15714 0
M  V30 619 H 58.89 -0.429294 3.21446 0
M  V30 620 H 58.675 1.27515 3.70786 0
M  V30 621 H 60.165 0.392942 4.15747 0
M  V30 622 N 60.6021 -1.18246 1.0419 0
M  V30 623 C 61.5321 -2.24127 0.654914 0
M  V30 624 C 62.5131 -1.66617 -0.342451 0
M  V30 625 O 63.6981 -1.92924 -0.222277 0
M  V30 626 C 60.8281 -3.47295 0.0183757 0
M  V30 627 C 59.7821 -4.17563 0.939414 0
M  V30 628 C 59.1081 -5.34438 0.167286 0
M  V30 629 C 60.4081 -4.70917 2.25908 0
M  V30 630 H 62.1021 -2.56753 1.54007 0
M  V30 631 H 59.6481 -1.23414 0.74195 0
M  V30 632 H 61.6011 -4.20572 -0.264082 0
M  V30 633 H 60.3251 -3.13907 -0.901664 0
M  V30 634 H 58.9841 -3.46186 1.20628 0
M  V30 635 H 58.6321 -4.97298 -0.7552 0
M  V30 636 H 58.3321 -5.82388 0.780901 0
M  V30 637 H 59.8561 -6.10504 -0.108125 0
M  V30 638 H 61.2701 -5.35882 2.03724 0
M  V30 639 H 59.6671 -5.29406 2.82577 0
M  V30 640 H 60.7371 -3.88272 2.9047 0
M  V30 641 N 62.0802 -0.821533 -1.34494 0
M  V30 642 C 63.0432 -0.247847 -2.27856 0
M  V30 643 C 64.0432 0.573453 -1.50227 0
M  V30 644 O 65.2332 0.389759 -1.69784 0
M  V30 645 C 62.3652 0.652698 -3.34593 0
M  V30 646 H 63.5582 -1.07146 -2.80107 0
M  V30 647 H 61.1112 -0.593291 -1.44602 0
M  V30 648 H 61.8462 1.49943 -2.87555 0
M  V30 649 H 61.6312 0.065292 -3.92046 0
M  V30 650 H 63.1212 1.04793 -4.04238 0
M  V30 651 N 63.5583 1.46682 -0.576371 0
M  V30 652 C 64.5063 2.31953 0.17335 0
M  V30 653 C 65.5003 1.44098 0.89062 0
M  V30 654 O 66.7063 1.60759 0.809728 0
M  V30 655 H 63.0813 0.748273 0.0747727 0
M  V30 656 H 65.0523 2.93007 -0.564738 0
M  V30 657 C 63.8013 3.27142 1.17786 0
M  V30 658 H 63.1243 3.94719 0.635361 0
M  V30 659 H 64.5643 3.896 1.67296 0
M  V30 660 C 63.0233 2.52036 2.23561 0
M  V30 661 O 63.5533 2.27877 3.3081 0
M  V30 662 N 61.7593 2.12709 1.97998 0
M  V30 663 H 61.3063 2.32557 1.10792 0
M  V30 664 H 61.2643 1.62776 2.68982 0
M  V30 665 N 65.0364 0.313813 1.54444 0
M  V30 666 C 65.9684 -0.590425 2.21465 0
M  V30 667 C 66.9814 -1.08753 1.21147 0
M  V30 668 O 68.1704 -1.00278 1.4767 0
M  V30 669 C 65.2704 -1.82179 2.85769 0
M  V30 670 C 64.4434 -1.46502 4.12136 0
M  V30 671 C 63.5024 -2.55288 4.60124 0
M  V30 672 O 62.5284 -2.19842 5.25032 0
M  V30 673 N 63.7304 -3.86053 4.33525 0
M  V30 674 H 66.4954 -0.0166033 2.99695 0
M  V30 675 H 64.0564 0.136578 1.61323 0
M  V30 676 H 66.0484 -2.54328 3.14801 0
M  V30 677 H 64.6184 -2.30369 2.11303 0
M  V30 678 H 63.8384 -0.575595 3.89975 0
M  V30 679 H 65.1264 -1.20221 4.94393 0
M  V30 680 H 64.5244 -4.17654 3.81552 0
M  V30 681 H 63.0814 -4.54461 4.67235 0
M  V30 682 N 66.5145 -1.57545 0.0417849 0
M  V30 683 C 67.9305 -1.56467 -0.314704 0
M  V30 684 C 68.1305 -1.04859 -1.72066 0
M  V30 685 O 67.1865 -0.700983 -2.42575 0
M  V30 686 C 68.4995 -3.00317 -0.15174 0
M  V30 687 C 70.0475 -3.12201 -0.223553 0
M  V30 688 C 70.5225 -4.57913 -0.0892295 0
M  V30 689 N 72.0135 -4.6297 -0.145808 0
M  V30 690 C 72.7485 -5.73362 -0.0658459 0
M  V30 691 N 72.2445 -6.92769 0.0659282 0
M  V30 692 N 74.0375 -5.6197 -0.12075 0
M  V30 693 H 66.1885 -1.89416 0.961014 0
M  V30 694 H 68.4515 -0.871862 0.372237 0
M  V30 695 H 68.1575 -3.42073 0.817254 0
M  V30 696 H 68.0315 -3.65892 -0.916692 0
M  V30 697 H 70.4185 -2.70349 -1.18301 0
M  V30 698 H 70.4995 -2.49323 0.571994 0
M  V30 699 H 70.1435 -5.00448 0.866867 0
M  V30 700 H 70.0735 -5.18786 -0.903802 0
M  V30 701 H 72.5645 -3.7709 -0.247286 0
M  V30 702 H 72.8775 -7.72707 0.119905 0
M  V30 703 H 71.2225 -6.94927 0.100885 0
M  V30 704 H 74.4135 -4.67572 -0.222187 0
M  V30 705 H 74.5865 -6.47977 -0.0549735 0
M  V30 706 N 67.9926 0.231505 -1.5589 0
M  V30 707 C 68.9396 1.28682 -1.91598 0
M  V30 708 C 69.9096 1.47071 -0.771974 0
M  V30 709 O 71.0946 1.60802 -1.027 0
M  V30 710 C 68.2346 2.6342 -2.22944 0
M  V30 711 C 67.3476 2.52912 -3.50228 0
M  V30 712 C 66.4826 3.80106 -3.7107 0
M  V30 713 C 65.5216 3.64279 -4.91902 0
M  V30 714 N 64.6586 4.834 -5.09184 0
M  V30 715 H 69.4986 0.975305 -2.81588 0
M  V30 716 H 67.0356 0.470299 -1.39379 0
M  V30 717 H 68.9936 3.41869 -2.39126 0
M  V30 718 H 67.6236 2.92687 -1.36139 0
M  V30 719 H 66.6756 1.6595 -3.42294 0
M  V30 720 H 67.9876 2.37133 -4.38827 0
M  V30 721 H 67.1416 4.66999 -3.87295 0
M  V30 722 H 65.8806 3.98799 -2.80733 0
M  V30 723 H 64.8856 2.7577 -4.75637 0
M  V30 724 H 66.1106 3.47067 -5.83714 0
M  V30 725 H 64.0566 5.02425 -4.21788 0
M  V30 726 H 63.9736 4.70311 -5.91898 0
M  V30 727 H 65.2416 5.71747 -5.29835 0
M  V30 728 N 69.4707 1.49531 0.497807 0
M  V30 729 C 70.3807 1.69176 1.62532 0
M  V30 730 C 71.3967 0.5744 1.64246 0
M  V30 731 O 72.5727 0.849497 1.82608 0
M  V30 732 C 69.6377 1.75695 2.98885 0
M  V30 733 C 68.6987 2.9929 3.07773 0
M  V30 734 C 67.9317 3.05488 4.37622 0
M  V30 735 O 68.1547 2.19192 5.26603 0
M  V30 736 O 67.0887 3.9798 4.51548 0
M  V30 737 H 70.9147 2.647 1.48887 0
M  V30 738 H 68.4997 1.3331 0.674441 0
M  V30 739 H 70.3817 1.82317 3.79919 0
M  V30 740 H 69.0567 0.8335 3.12785 0
M  V30 741 H 67.9637 2.98183 2.25915 0
M  V30 742 H 69.2967 3.91125 2.98801 0
M  V30 743 N 70.9488 -0.749086 1.3866 0
M  V30 744 C 71.8818 -1.87111 1.30631 0
M  V30 745 C 72.8598 -1.61572 0.18251 0
M  V30 746 O 74.0438 -1.85019 0.360592 0
M  V30 747 C 71.1708 -3.22815 1.02511 0
M  V30 748 C 70.2168 -3.67234 2.1689 0
M  V30 749 S 71.0498 -3.78245 3.79066 0
M  V30 750 C 72.2058 -5.16761 3.53142 0
M  V30 751 H 72.4388 -1.93636 2.25594 0
M  V30 752 H 69.9718 -0.912525 1.24549 0
M  V30 753 H 71.9298 -4.01181 0.869701 0
M  V30 754 H 70.5908 -3.13964 0.0925884 0
M  V30 755 H 69.7838 -4.65677 1.92771 0
M  V30 756 H 69.3858 -2.96034 2.28561 0
M  V30 757 H 71.6778 -6.02656 3.09534 0
M  V30 758 H 72.6208 -5.45902 4.50995 0
M  V30 759 H 73.0288 -4.85771 2.87554 0
M  V30 760 N 72.4269 -1.23603 -0.977757 0
M  V30 761 C 73.3899 -1.02069 -2.05218 0
M  V30 762 C 74.3899 0.0184305 -1.60789 0
M  V30 763 O 75.5799 -0.221569 -1.72785 0
M  V30 764 C 72.7119 -0.544926 -3.36517 0
M  V30 765 H 73.9049 -1.9742 -2.25755 0
M  V30 766 H 71.4579 -1.05684 -1.15155 0
M  V30 767 H 72.1929 0.412241 -3.21669 0
M  V30 768 H 71.9779 -1.2948 -3.70105 0
M  V30 769 H 73.4679 -0.414985 -4.15533 0
M  V30 770 N 73.905 1.17692 -1.04816 0
M  V30 771 C 74.852 2.21581 -0.645797 0
M  V30 772 C 75.822 1.62367 0.350159 0
M  V30 773 O 77.007 1.89254 0.242433 0
M  V30 774 C 74.147 3.45092 -0.0227568 0
M  V30 775 C 73.26 4.18613 -1.06709 0
M  V30 776 C 72.395 5.29602 -0.411767 0
M  V30 777 C 71.434 5.94904 -1.44067 0
M  V30 778 N 70.571 6.97414 -0.809781 0
M  V30 779 H 75.411 2.55353 -1.5362 0
M  V30 780 H 72.948 1.25438 -0.768364 0
M  V30 781 H 74.906 4.15679 0.35588 0
M  V30 782 H 73.536 3.11917 0.831122 0
M  V30 783 H 72.588 3.46779 -1.5636 0
M  V30 784 H 73.9 4.63293 -1.84827 0
M  V30 785 H 73.054 6.06696 0.0206623 0
M  V30 786 H 71.793 4.86045 0.401438 0
M  V30 787 H 70.798 5.16544 -1.88316 0
M  V30 788 H 72.023 6.40542 -2.25571 0
M  V30 789 H 69.969 6.55998 -0.0170186 0
M  V30 790 H 69.886 7.40386 -1.52856 0
M  V30 791 H 71.154 7.78463 -0.401999 0
M  V30 792 N 75.3831 0.828654 1.34056 0
M  V30 793 C 76.6111 0.43262 2.02326 0
M  V30 794 C 77.0261 -0.963147 1.62385 0
M  V30 795 O 76.3831 -1.62425 0.832121 0
M  V30 796 C 76.4341 0.53182 3.57567 0
M  V30 797 O 76.1551 1.87258 3.96063 0
M  V30 798 C 77.6561 0.131422 4.43105 0
M  V30 799 H 74.8761 0.172923 0.648335 0
M  V30 800 H 77.4201 1.1184 1.71208 0
M  V30 801 H 75.5751 -0.105938 3.87255 0
M  V30 802 H 75.9891 1.85087 4.90758 0
M  V30 803 H 77.4631 0.251904 5.51425 0
M  V30 804 H 77.9401 -0.925645 4.29335 0
M  V30 805 H 78.5461 0.743207 4.18756 0
M  V30 806 N 76.8612 -1.46375 0.584142 0
M  V30 807 C 77.8112 -2.27371 -0.169232 0
M  V30 808 C 78.7952 -1.35955 -0.860523 0
M  V30 809 O 79.9872 -1.60119 -0.754382 0
M  V30 810 C 77.1162 -3.22334 -1.18134 0
M  V30 811 C 76.2022 -4.21235 -0.492088 0
M  V30 812 N 76.5932 -5.03766 0.453129 0
M  V30 813 C 74.8912 -4.39773 -0.742652 0
M  V30 814 C 75.5922 -5.75366 0.85609 0
M  V30 815 N 74.5682 -5.43214 0.204926 0
M  V30 816 H 78.3702 -2.88572 0.557097 0
M  V30 817 H 75.8842 -1.57242 0.406042 0
M  V30 818 H 77.8812 -3.79071 -1.73525 0
M  V30 819 H 76.5412 -2.62693 -1.90847 0
M  V30 820 H 77.5522 -5.11227 0.828723 0
M  V30 821 H 74.2292 -3.91279 -1.45625 0
M  V30 822 H 75.6192 -6.5172 1.63434 0
M  V30 823 N 78.3393 -0.321999 -1.54275 0
M  V30 824 C 79.2893 0.560185 -2.21011 0
M  V30 825 C 80.2733 1.08283 -1.19011 0
M  V30 826 O 81.4653 1.02011 -1.44647 0
M  V30 827 C 78.5943 1.72137 -2.97025 0
M  V30 828 C 77.6803 1.21369 -4.06363 0
M  V30 829 N 78.0713 0.425566 -5.04007 0
M  V30 830 C 76.3693 1.49255 -4.20284 0
M  V30 831 C 77.0703 0.152601 -5.815 0
M  V30 832 N 76.0463 0.738294 -5.38563 0
M  V30 833 H 79.8483 -0.049265 -2.93859 0
M  V30 834 H 77.3623 -0.127779 -1.61897 0
M  V30 835 H 79.3593 2.36512 -3.43319 0
M  V30 836 H 78.0193 2.33431 -2.25699 0
M  V30 837 H 79.0303 0.068551 -5.17855 0
M  V30 838 H 75.7073 2.11145 -3.60172 0
M  V30 839 H 77.0973 -0.481764 -6.70171 0
M  V30 840 N 79.8174 1.5752 -0.0501392 0
M  V30 841 C 80.7494 2.08413 0.95376 0
M  V30 842 C 81.7624 1.01175 1.27544 0
M  V30 843 O 82.9514 1.28744 1.23641 0
M  V30 844 C 80.0514 2.51138 2.27559 0
M  V30 845 C 79.2244 3.817 2.13598 0
M  V30 846 C 78.2834 4.10749 3.28895 0
M  V30 847 O 77.3094 4.80685 3.04845 0
M  V30 848 N 78.5114 3.62579 4.5334 0
M  V30 849 H 81.2764 2.95165 0.519383 0
M  V30 850 H 78.8374 1.61327 0.136127 0
M  V30 851 H 80.8294 2.67648 3.03557 0
M  V30 852 H 79.3994 1.6964 2.62567 0
M  V30 853 H 78.6194 3.74782 1.22197 0
M  V30 854 H 79.9074 4.67201 2.01496 0
M  V30 855 H 79.3054 3.06039 4.75769 0
M  V30 856 H 77.8624 3.84329 5.26436 0
M  V30 857 N 81.2955 -0.223234 1.56011 0
M  V30 858 C 82.2425 -1.27664 1.92277 0
M  V30 859 C 83.2125 -1.46659 0.779763 0
M  V30 860 O 84.3975 -1.60256 1.03551 0
M  V30 861 C 81.5375 -2.62234 2.24338 0
M  V30 862 C 80.6505 -2.51051 3.51564 0
M  V30 863 C 79.7855 -3.78133 3.7308 0
M  V30 864 C 78.8245 -3.61665 4.93827 0
M  V30 865 N 77.9615 -4.80693 5.11741 0
M  V30 866 H 82.8015 -0.960358 2.82101 0
M  V30 867 H 80.3385 -0.462901 1.39627 0
M  V30 868 H 82.2965 -3.40596 2.40936 0
M  V30 869 H 80.9265 -2.91961 1.3769 0
M  V30 870 H 79.9785 -1.64132 3.43169 0
M  V30 871 H 81.2905 -2.34803 4.40079 0
M  V30 872 H 80.4445 -4.64938 3.89766 0
M  V30 873 H 79.1835 -3.97304 2.82844 0
M  V30 874 H 78.1885 -2.73244 4.77093 0
M  V30 875 H 79.4135 -3.43966 5.85546 0
M  V30 876 H 77.3595 -5.00181 4.24446 0
M  V30 877 H 77.2765 -4.67165 5.94384 0
M  V30 878 H 78.5445 -5.6893 5.3286 0
M  V30 879 N 82.7736 -1.49793 -0.48987 0
M  V30 880 C 84.0196 -1.60078 -1.24511 0
M  V30 881 C 84.3526 -0.291608 -1.91998 0
M  V30 882 O 83.6276 0.705647 -1.81248 0
M  V30 883 C 83.9106 -2.76791 -2.30345 0
M  V30 884 C 83.7636 -4.17535 -1.67286 0
M  V30 885 C 85.0826 -2.89111 -3.31817 0
M  V30 886 H 82.2016 -0.582645 -0.451324 0
M  V30 887 H 84.8436 -1.82117 -0.541612 0
M  V30 888 H 82.9936 -2.5813 -2.90346 0
M  V30 889 H 84.6656 -4.4774 -1.11026 0
M  V30 890 H 82.9086 -4.22665 -0.976577 0
M  V30 891 H 83.5796 -4.95094 -2.44103 0
M  V30 892 H 86.0556 -3.06133 -2.81819 0
M  V30 893 H 84.9316 -3.72433 -4.03219 0
M  V30 894 H 85.1926 -1.9893 -3.94815 0
M  V30 895 N 84.2517 0.741722 -1.39055 0
M  V30 896 C 85.1617 1.88621 -1.39496 0
M  V30 897 C 86.1777 1.71557 -0.290578 0
M  V30 898 O 87.3537 1.94275 -0.530954 0
M  V30 899 C 84.4187 3.24134 -1.23037 0
M  V30 900 C 83.4797 3.5364 -2.43387 0
M  V30 901 C 82.7127 4.82687 -2.27703 0
M  V30 902 O 82.9357 5.55922 -1.27696 0
M  V30 903 O 81.8697 5.1194 -3.16545 0
M  V30 904 H 85.6957 1.91203 -2.35956 0
M  V30 905 H 83.2807 0.888625 -1.20099 0
M  V30 906 H 85.1627 4.0513 -1.15964 0
M  V30 907 H 83.8377 3.22337 -0.296691 0
M  V30 908 H 82.7447 2.72758 -2.56035 0
M  V30 909 H 84.0777 3.60209 -3.35425 0
M  V30 910 N 85.7298 1.2412 0.971189 0
M  V30 911 C 86.6768 1.0305 2.06517 0
M  V30 912 C 87.6468 -0.0550666 1.66009 0
M  V30 913 O 88.8318 0.0988688 1.90544 0
M  V30 914 C 85.9718 0.637653 3.39158 0
M  V30 915 C 85.0848 1.79633 3.92882 0
M  V30 916 C 84.2198 1.34939 5.13775 0
M  V30 917 C 83.2588 2.47823 5.59687 0
M  V30 918 N 82.3958 2.04022 6.71803 0
M  V30 919 H 87.2358 1.96685 2.23873 0
M  V30 920 H 84.7728 0.979694 1.09729 0
M  V30 921 H 86.7308 0.390931 4.15364 0
M  V30 922 H 85.3608 -0.261693 3.21737 0
M  V30 923 H 84.4128 2.15681 3.13346 0
M  V30 924 H 85.7248 2.64466 4.22918 0
M  V30 925 H 84.8788 1.06134 5.97345 0
M  V30 926 H 83.6178 0.471557 4.85415 0
M  V30 927 H 82.6228 2.77392 4.74693 0
M  V30 928 H 83.8478 3.36158 5.90063 0
M  V30 929 H 81.7938 1.18632 6.45184 0
M  V30 930 H 81.7108 2.82409 7.01271 0
M  V30 931 H 82.9788 1.78347 7.58823 0
M  V30 932 N 87.2079 -1.17134 1.05439 0
M  V30 933 C 88.1549 -2.21235 0.657539 0
M  V30 934 C 89.1249 -1.62551 -0.341543 0
M  V30 935 O 90.3099 -1.89379 -0.232393 0
M  V30 936 C 87.4499 -3.45076 0.0410575 0
M  V30 937 C 86.5629 -4.18042 1.08927 0
M  V30 938 C 85.6979 -5.29376 0.439848 0
M  V30 939 C 84.7369 -5.94132 1.4722 0
M  V30 940 N 83.8739 -6.96975 0.846756 0
M  V30 941 H 88.7139 -2.54534 1.54972 0
M  V30 942 H 86.2509 -1.25028 0.775006 0
M  V30 943 H 88.2089 -4.15862 -0.33383 0
M  V30 944 H 86.8389 -3.12353 -0.814568 0
M  V30 945 H 85.8909 -3.45945 1.58196 0
M  V30 946 H 87.2029 -4.62306 1.87282 0
M  V30 947 H 86.3569 -6.06699 0.0115125 0
M  V30 948 H 85.0959 -4.86251 -0.375656 0
M  V30 949 H 84.1009 -5.15538 1.91052 0
M  V30 950 H 85.3259 -6.39337 2.28965 0
M  V30 951 H 83.2719 -6.5598 0.0518075 0
M  V30 952 H 83.1889 -7.39565 1.5678 0
M  V30 953 H 84.4569 -7.78239 0.443277 0
M  V30 954 N 88.686 -0.835752 -1.33615 0
M  V30 955 C 89.633 -0.26473 -2.29277 0
M  V30 956 C 90.603 0.617712 -1.54187 0
M  V30 957 O 91.788 0.556641 -1.825 0
M  V30 958 C 88.928 0.556777 -3.40579 0
M  V30 959 C 88.041 -0.349339 -4.30585 0
M  V30 960 C 87.176 0.482969 -5.29 0
M  V30 961 C 86.215 -0.421732 -6.10645 0
M  V30 962 N 85.352 0.372262 -7.01112 0
M  V30 963 H 90.192 -1.08582 -2.77514 0
M  V30 964 H 87.729 -0.546927 -1.36554 0
M  V30 965 H 89.687 1.04852 -4.03809 0
M  V30 966 H 88.317 1.34286 -2.93542 0
M  V30 967 H 87.369 -0.959372 -3.68104 0
M  V30 968 H 88.681 -1.04445 -4.87742 0
M  V30 969 H 87.835 1.03866 -5.97743 0
M  V30 970 H 86.574 1.21153 -4.72412 0
M  V30 971 H 85.579 -0.989464 -5.40823 0
M  V30 972 H 86.804 -1.14861 -6.69316 0
M  V30 973 H 84.75 1.08426 -6.46977 0
M  V30 974 H 84.667 -0.264198 -7.55538 0
M  V30 975 H 85.935 0.910293 -7.74167 0
M  V30 976 N 90.1641 1.46063 -0.591896 0
M  V30 977 C 91.1111 2.30399 0.136069 0
M  V30 978 C 92.0811 1.41169 0.875238 0
M  V30 979 O 93.2661 1.70112 0.86409 0
M  V30 980 C 90.4061 3.25804 1.13781 0
M  V30 981 C 89.5191 4.30134 0.401137 0
M  V30 982 C 88.6541 5.12659 1.39121 0
M  V30 983 C 87.6931 6.0873 0.641462 0
M  V30 984 N 86.8301 6.8409 1.58004 0
M  V30 985 H 91.6701 2.92118 -0.589144 0
M  V30 986 H 89.2071 1.43959 -0.302342 0
M  V30 987 H 91.1651 3.79569 1.73156 0
M  V30 988 H 89.7951 2.65872 1.83062 0
M  V30 989 H 88.8471 3.79152 -0.307826 0
M  V30 990 H 90.1591 4.98458 -0.184565 0
M  V30 991 H 89.3131 5.70747 2.05749 0
M  V30 992 H 88.0521 4.44316 2.01084 0
M  V30 993 H 87.0571 5.49786 -0.0385419 0
M  V30 994 H 88.2821 6.79095 0.0270945 0
M  V30 995 H 86.2281 6.18449 2.18761 0
M  V30 996 H 86.1451 7.48709 1.04738 0
M  V30 997 H 87.4131 7.4673 2.23639 0
M  V30 998 N 91.6422 0.330177 1.54103 0
M  V30 999 C 92.5522 -0.541534 2.28264 0
M  V30 1000 C 93.5682 -1.12351 1.32866 0
M  V30 1001 O 94.7442 -1.14206 1.65888 0
M  V30 1002 C 91.8092 -1.68322 3.03098 0
M  V30 1003 C 90.8702 -1.13238 4.14096 0
M  V30 1004 C 90.1032 -2.21966 4.85352 0
M  V30 1005 O 90.3262 -3.42437 4.56172 0
M  V30 1006 O 89.2602 -1.87013 5.7211 0
M  V30 1007 H 93.0862 0.060938 3.03639 0
M  V30 1008 H 90.6712 0.09565 1.49093 0
M  V30 1009 H 92.5532 -2.34777 3.49939 0
M  V30 1010 H 91.2282 -2.27176 2.30593 0
M  V30 1011 H 90.1352 -0.432736 3.71589 0
M  V30 1012 H 91.4682 -0.588898 4.88664 0
M  V30 1013 N 93.1203 -1.57491 0.0584922 0
M  V30 1014 C 94.0673 -2.11958 -0.913376 0
M  V30 1015 C 95.0373 -1.02875 -1.30407 0
M  V30 1016 O 96.2223 -1.30464 -1.39226 0
M  V30 1017 C 93.3623 -2.67497 -2.18035 0
M  V30 1018 C 92.4753 -3.90691 -1.84349 0
M  V30 1019 C 91.6103 -4.3452 -3.05559 0
M  V30 1020 C 90.6493 -5.50395 -2.67827 0
M  V30 1021 N 89.7863 -5.89244 -3.81754 0
M  V30 1022 H 94.6263 -2.94704 -0.442017 0
M  V30 1023 H 92.1633 -1.45643 -0.206545 0
M  V30 1024 H 94.1213 -2.978 -2.92183 0
M  V30 1025 H 92.7513 -1.87537 -2.62735 0
M  V30 1026 H 91.8033 -3.66934 -1.00319 0
M  V30 1027 H 93.1153 -4.7489 -1.5258 0
M  V30 1028 H 92.2693 -4.66414 -3.87998 0
M  V30 1029 H 91.0083 -3.49147 -3.40511 0
M  V30 1030 H 90.0133 -5.18165 -1.83806 0
M  V30 1031 H 91.2383 -6.3749 -2.34059 0
M  V30 1032 H 89.1843 -5.06823 -4.16493 0
M  V30 1033 H 89.1013 -6.68151 -3.53708 0
M  V30 1034 H 90.3693 -6.25756 -4.64811 0
M  V30 1035 N 94.5984 0.214957 -1.56127 0
M  V30 1036 C 95.8264 0.955092 -1.83536 0
M  V30 1037 C 96.2414 1.77677 -0.638472 0
M  V30 1038 O 95.5984 1.78219 0.392968 0
M  V30 1039 C 95.6494 1.86734 -3.09536 0
M  V30 1040 O 95.3704 1.07887 -4.24608 0
M  V30 1041 C 96.8714 2.72082 -3.4998 0
M  V30 1042 H 94.0914 0.279611 -0.609966 0
M  V30 1043 H 96.6354 0.228197 -2.03223 0
M  V30 1044 H 94.7904 2.5481 -2.91806 0
M  V30 1045 H 95.2044 1.69872 -4.9623 0
M  V30 1046 H 96.6784 3.31782 -4.41163 0
M  V30 1047 H 97.1554 3.44806 -2.7204 0
M  V30 1048 H 97.7614 2.09409 -3.70173 0
M  V30 1049 N 96.0765 1.50051 0.48192 0
M  V30 1050 C 97.3225 1.60736 1.2366 0
M  V30 1051 C 97.6555 0.301786 1.91841 0
M  V30 1052 O 96.9305 -0.696025 1.8162 0
M  V30 1053 C 97.2135 2.78009 2.28874 0
M  V30 1054 C 97.0665 4.18416 1.65069 0
M  V30 1055 C 98.3855 2.90867 3.30279 0
M  V30 1056 H 95.5045 0.585031 0.448228 0
M  V30 1057 H 98.1465 1.82402 0.531946 0
M  V30 1058 H 96.2965 2.59667 2.88973 0
M  V30 1059 H 97.9685 4.48322 1.0865 0
M  V30 1060 H 96.2115 4.23177 0.954148 0
M  V30 1061 H 96.8825 4.96381 2.41474 0
M  V30 1062 H 99.3585 3.07623 2.80191 0
M  V30 1063 H 98.2345 3.74566 4.01238 0
M  V30 1064 H 98.4955 2.01021 3.93755 0
M  V30 1065 N 97.5546 -0.734337 1.39446 0
M  V30 1066 C 98.4646 -1.87879 1.40495 0
M  V30 1067 C 99.4806 -1.714 0.299672 0
M  V30 1068 O 100.657 -1.93991 0.541249 0
M  V30 1069 C 97.7216 -3.23477 1.24754 0
M  V30 1070 C 96.7826 -3.52344 2.45259 0
M  V30 1071 C 96.0156 -4.81473 2.30259 0
M  V30 1072 O 96.2386 -5.55237 1.30643 0
M  V30 1073 O 95.1726 -5.10254 3.19256 0
M  V30 1074 H 98.9986 -1.89949 2.36966 0
M  V30 1075 H 96.5836 -0.882243 1.20569 0
M  V30 1076 H 98.4656 -4.04509 1.18111 0
M  V30 1077 H 97.1406 -3.22176 0.313781 0
M  V30 1078 H 96.0476 -2.71396 2.57478 0
M  V30 1079 H 97.3806 -3.58426 3.37331 0
M  V30 1080 N 99.0327 -1.24633 -0.964593 0
M  V30 1081 C 99.9797 -1.04144 -2.05968 0
M  V30 1082 C 100.95 0.046262 -1.66036 0
M  V30 1083 O 102.135 -0.108972 -1.90489 0
M  V30 1084 C 99.2747 -0.65563 -3.38815 0
M  V30 1085 C 98.3877 -1.81714 -3.91923 0
M  V30 1086 C 97.5227 -1.37662 -5.13052 0
M  V30 1087 C 96.5617 -2.50788 -5.58365 0
M  V30 1088 N 95.6987 -2.07582 -6.70712 0
M  V30 1089 H 100.539 -1.9787 -2.22827 0
M  V30 1090 H 98.0757 -0.9855 -1.09208 0
M  V30 1091 H 100.034 -0.412954 -4.15151 0
M  V30 1092 H 98.6637 0.244627 -3.21872 0
M  V30 1093 H 97.7157 -2.1734 -3.12198 0
M  V30 1094 H 99.0277 -2.66705 -4.21509 0
M  V30 1095 H 98.1817 -1.093 -5.96773 0
M  V30 1096 H 96.9207 -0.497293 -4.85158 0
M  V30 1097 H 95.9257 -2.79906 -4.73215 0
M  V30 1098 H 97.1507 -3.39283 -5.88272 0
M  V30 1099 H 95.0967 -1.22051 -6.44546 0
M  V30 1100 H 95.0137 -2.86125 -6.99763 0
M  V30 1101 H 96.2817 -1.82369 -7.57867 0
M  V30 1102 N 100.511 1.16574 -1.06058 0
M  V30 1103 C 101.458 2.20883 -0.669263 0
M  V30 1104 C 102.428 1.62729 0.332918 0
M  V30 1105 O 103.613 1.895 0.222346 0
M  V30 1106 C 100.753 3.45049 -0.0593572 0
M  V30 1107 C 99.8658 4.17458 -1.11143 0
M  V30 1108 C 99.0008 5.29135 -0.467916 0
M  V30 1109 C 98.0398 5.93343 -1.50369 0
M  V30 1110 N 97.1768 6.96516 -0.883706 0
M  V30 1111 H 102.017 2.53709 -1.5632 0
M  V30 1112 H 99.5538 1.24616 -0.781625 0
M  V30 1113 H 101.512 4.16033 0.311771 0
M  V30 1114 H 100.142 3.12781 0.797992 0
M  V30 1115 H 99.1938 3.45101 -1.60029 0
M  V30 1116 H 100.506 4.61307 -1.89731 0
M  V30 1117 H 99.6598 6.06684 -0.0436871 0
M  V30 1118 H 98.3988 4.86443 0.349864 0
M  V30 1119 H 97.4038 5.14517 -1.93784 0
M  V30 1120 H 98.6288 6.38114 -2.32352 0
M  V30 1121 H 96.5748 6.55943 -0.086595 0
M  V30 1122 H 96.4918 7.38723 -1.607 0
M  V30 1123 H 97.7598 7.77993 -0.484543 0
M  V30 1124 N 101.989 0.842826 1.3317 0
M  V30 1125 C 103.237 0.439577 1.97262 0
M  V30 1126 C 103.558 -1.00548 1.67078 0
M  V30 1127 O 102.828 -1.70098 0.971779 0
M  V30 1128 H 101.408 0.159558 0.72976 0
M  V30 1129 H 104.07 1.07665 1.62463 0
M  V30 1130 H 103.166 0.574886 3.0676 0
M  V30 1131 N 103.467 -1.45747 0.599634 0
M  V30 1132 C 104.414 -2.30467 -0.123849 0
M  V30 1133 C 105.384 -1.41632 -0.86774 0
M  V30 1134 O 106.569 -1.70568 -0.855056 0
M  V30 1135 C 103.709 -3.26402 -1.12051 0
M  V30 1136 C 102.822 -4.3034 -0.37832 0
M  V30 1137 C 101.957 -5.13389 -1.364 0
M  V30 1138 C 100.996 -6.09061 -0.609171 0
M  V30 1139 N 100.133 -6.84918 -1.54374 0
M  V30 1140 H 104.973 -2.91802 0.604627 0
M  V30 1141 H 102.51 -1.43797 0.309972 0
M  V30 1142 H 104.468 -3.80482 -1.7114 0
M  V30 1143 H 103.098 -2.66839 -1.8165 0
M  V30 1144 H 102.15 -3.78984 0.327929 0
M  V30 1145 H 103.462 -4.98354 0.210997 0
M  V30 1146 H 102.616 -5.7183 -2.02719 0
M  V30 1147 H 101.355 -4.45376 -1.98725 0
M  V30 1148 H 100.36 -5.49758 0.0676979 0
M  V30 1149 H 101.585 -6.79099 0.00891991 0
M  V30 1150 H 99.531 -6.19601 -2.15478 0
M  V30 1151 H 99.448 -7.49254 -1.00766 0
M  V30 1152 H 100.716 -7.47906 -2.19676 0
M  V30 1153 N 104.945 -0.338344 -1.53925 0
M  V30 1154 C 106.173 0.261298 -2.05243 0
M  V30 1155 C 106.588 1.44625 -1.21363 0
M  V30 1156 O 105.945 1.80811 -0.247736 0
M  V30 1157 C 105.996 0.681412 -3.5502 0
M  V30 1158 O 105.717 -0.456414 -4.35716 0
M  V30 1159 C 107.218 1.34232 -4.22489 0
M  V30 1160 H 104.438 0.0513685 -0.669031 0
M  V30 1161 H 106.982 -0.488822 -1.98572 0
M  V30 1162 H 105.137 1.38148 -3.61931 0
M  V30 1163 H 105.551 -0.122564 -5.24357 0
M  V30 1164 H 107.025 1.58708 -5.28693 0
M  V30 1165 H 107.502 2.29426 -3.74514 0
M  V30 1166 H 108.108 0.684424 -4.19757 0
M  V30 1167 N 106.423 1.57458 -0.0668435 0
M  V30 1168 C 107.37 2.12439 0.902122 0
M  V30 1169 C 108.34 1.03565 1.2986 0
M  V30 1170 O 109.525 1.312 1.38532 0
M  V30 1171 C 106.665 2.6865 2.16614 0
M  V30 1172 C 105.778 3.91663 1.82274 0
M  V30 1173 C 104.913 4.36134 3.0325 0
M  V30 1174 C 103.952 5.51808 2.64904 0
M  V30 1175 N 103.089 5.9126 3.78624 0
M  V30 1176 H 107.929 2.94934 0.426382 0
M  V30 1177 H 105.466 1.4575 0.198819 0
M  V30 1178 H 107.424 2.99346 2.90599 0
M  V30 1179 H 106.054 1.88928 2.61737 0
M  V30 1180 H 105.106 3.6746 0.983719 0
M  V30 1181 H 106.418 4.75693 1.50059 0
M  V30 1182 H 105.572 4.68465 3.85519 0
M  V30 1183 H 104.311 3.50948 3.38655 0
M  V30 1184 H 103.316 5.19133 1.81055 0
M  V30 1185 H 104.541 6.38722 2.30675 0
M  V30 1186 H 102.487 5.09024 4.138 0
M  V30 1187 H 102.404 6.70018 3.5016 0
M  V30 1188 H 103.672 6.28212 4.61486 0
M  V30 1189 N 107.901 -0.206675 1.56239 0
M  V30 1190 C 108.848 -1.25617 1.93621 0
M  V30 1191 C 109.818 -1.45824 0.795274 0
M  V30 1192 O 111.003 -1.59148 1.05245 0
M  V30 1193 C 108.143 -2.59839 2.27107 0
M  V30 1194 C 107.256 -2.47308 3.54207 0
M  V30 1195 C 106.391 -3.74155 3.7707 0
M  V30 1196 C 105.43 -3.56407 4.97635 0
M  V30 1197 N 104.567 -4.75238 5.1681 0
M  V30 1198 H 109.407 -0.930383 2.83104 0
M  V30 1199 H 106.944 -0.448065 1.4011 0
M  V30 1200 H 108.902 -3.38021 2.44535 0
M  V30 1201 H 107.532 -2.90485 1.40778 0
M  V30 1202 H 106.584 -1.60483 3.4489 0
M  V30 1203 H 107.896 -2.30122 4.42544 0
M  V30 1204 H 107.05 -4.60778 3.94675 0
M  V30 1205 H 105.789 -3.94282 2.87042 0
M  V30 1206 H 104.794 -2.68168 4.79964 0
M  V30 1207 H 106.019 -3.37736 5.89161 0
M  V30 1208 H 103.965 -4.95651 4.29728 0
M  V30 1209 H 103.882 -4.60835 5.99306 0
M  V30 1210 H 105.15 -5.63246 5.38864 0
M  V30 1211 N 109.379 -1.50304 -0.473955 0
M  V30 1212 C 110.326 -1.68959 -1.57231 0
M  V30 1213 C 111.296 -0.530899 -1.57387 0
M  V30 1214 O 112.481 -0.761133 -1.74961 0
M  V30 1215 C 109.621 -1.7871 -2.95223 0
M  V30 1216 C 108.734 -3.06061 -3.04878 0
M  V30 1217 C 107.869 -3.06626 -4.33767 0
M  V30 1218 C 106.908 -4.28443 -4.37154 0
M  V30 1219 N 106.045 -4.26763 -5.5751 0
M  V30 1220 H 110.885 -2.6273 -1.40631 0
M  V30 1221 H 108.422 -1.30241 -0.683789 0
M  V30 1222 H 110.38 -1.82344 -3.75242 0
M  V30 1223 H 109.01 -0.883806 -3.10465 0
M  V30 1224 H 108.062 -3.11911 -2.17751 0
M  V30 1225 H 109.374 -3.96039 -3.0324 0
M  V30 1226 H 108.528 -3.08973 -5.22131 0
M  V30 1227 H 107.267 -2.14473 -4.3801 0
M  V30 1228 H 106.272 -4.2631 -3.47188 0
M  V30 1229 H 107.497 -5.2182 -4.34605 0
M  V30 1230 H 105.443 -3.37462 -5.62544 0
M  V30 1231 H 105.36 -5.10507 -5.57601 0
M  V30 1232 H 106.628 -4.33253 -6.48006 0
M  V30 1233 N 110.857 0.726932 -1.39834 0
M  V30 1234 C 111.767 1.87131 -1.41489 0
M  V30 1235 C 112.783 1.71239 -0.308757 0
M  V30 1236 O 113.959 1.93701 -0.551529 0
M  V30 1237 C 111.024 3.22811 -1.26468 0
M  V30 1238 C 110.085 3.51039 -2.47124 0
M  V30 1239 C 109.318 4.80245 -2.3281 0
M  V30 1240 O 109.541 5.54537 -1.33585 0
M  V30 1241 O 108.475 5.08554 -3.21957 0
M  V30 1242 H 112.301 1.8869 -2.3797 0
M  V30 1243 H 109.886 0.875837 -1.21035 0
M  V30 1244 H 111.768 4.03877 -1.20255 0
M  V30 1245 H 110.443 3.22005 -0.330862 0
M  V30 1246 H 109.35 2.70027 -2.58914 0
M  V30 1247 H 110.683 3.56632 -3.39227 0
M  V30 1248 N 112.336 1.25143 0.95797 0
M  V30 1249 C 113.246 1.06968 2.08794 0
M  V30 1250 C 114.262 0.00773911 1.73998 0
M  V30 1251 O 115.438 0.207972 2.00323 0
M  V30 1252 C 112.503 0.68691 3.39827 0
M  V30 1253 C 111.564 1.82641 3.88511 0
M  V30 1254 C 110.797 1.46181 5.1329 0
M  V30 1255 O 111.02 0.355971 5.69288 0
M  V30 1256 O 109.954 2.29085 5.566 0
M  V30 1257 H 113.78 2.01723 2.27027 0
M  V30 1258 H 111.365 1.04051 1.07209 0
M  V30 1259 H 113.247 0.485417 4.18595 0
M  V30 1260 H 111.922 -0.231417 3.22872 0
M  V30 1261 H 110.829 2.08274 3.10762 0
M  V30 1262 H 112.162 2.72386 4.09959 0
M  V30 1263 N 113.814 -1.1601 1.06675 0
M  V30 1264 C 114.761 -2.20525 0.680967 0
M  V30 1265 C 115.731 -1.62904 -0.324283 0
M  V30 1266 O 116.916 -1.89615 -0.212294 0
M  V30 1267 C 114.056 -3.45013 0.0776551 0
M  V30 1268 C 113.169 -4.16863 1.13355 0
M  V30 1269 C 112.304 -5.2888 0.49597 0
M  V30 1270 C 111.343 -5.92537 1.53513 0
M  V30 1271 N 110.48 -6.96038 0.920631 0
M  V30 1272 H 115.32 -2.52876 1.57663 0
M  V30 1273 H 112.857 -1.24199 0.788223 0
M  V30 1274 H 114.815 -4.16193 -0.289704 0
M  V30 1275 H 113.445 -3.132 -0.781393 0
M  V30 1276 H 112.497 -3.44248 1.61857 0
M  V30 1277 H 113.809 -4.60294 1.92174 0
M  V30 1278 H 112.963 -6.06653 0.0758604 0
M  V30 1279 H 111.702 -4.86622 -0.324062 0
M  V30 1280 H 110.707 -5.13482 1.9651 0
M  V30 1281 H 111.932 -6.36873 2.35733 0
M  V30 1282 H 109.878 -6.55888 0.12138 0
M  V30 1283 H 109.795 -7.3786 1.64616 0
M  V30 1284 H 111.063 -7.77725 0.525795 0
M  V30 1285 N 115.292 -0.849877 -1.32721 0
M  V30 1286 C 116.703 -0.506188 -1.79707 0
M  V30 1287 C 117.054 0.975627 -1.70223 0
M  V30 1288 O 116.179 1.76078 -1.25799 0
M  V30 1289 C 116.774 -0.912044 -3.26293 0
M  V30 1290 C 115.333 -0.620326 -3.71253 0
M  V30 1291 C 114.48 -1.11439 -2.53922 0
M  V30 1292 H 117.431 -1.03754 -1.20087 0
M  V30 1293 H 117.452 -0.226493 -3.79825 0
M  V30 1294 H 116.964 -1.99057 -3.33164 0
M  V30 1295 H 115.065 0.447674 -3.69901 0
M  V30 1296 H 115.178 -1.18327 -4.64258 0
M  V30 1297 H 113.542 -0.534834 -2.49021 0
M  V30 1298 H 114.325 -2.19992 -2.6355 0
M  V30 1299 N 116.77 1.45427 -0.607355 0
M  V30 1300 C 117.718 2.32269 0.12411 0
M  V30 1301 C 118.712 1.45955 0.859854 0
M  V30 1302 O 119.918 1.6244 0.775447 0
M  V30 1303 H 116.293 0.749691 0.0588839 0
M  V30 1304 H 118.264 2.91743 -0.626762 0
M  V30 1305 C 117.013 3.29567 1.1082 0
M  V30 1306 H 116.336 3.95978 0.551492 0
M  V30 1307 H 117.776 3.93061 1.58995 0
M  V30 1308 C 116.235 2.56722 2.18164 0
M  V30 1309 O 116.765 2.34842 3.25902 0
M  V30 1310 N 114.971 2.16861 1.93442 0
M  V30 1311 H 114.518 2.34855 1.05834 0
M  V30 1312 H 114.476 1.68444 2.65469 0
M  V30 1313 N 118.248 0.346503 1.53744 0
M  V30 1314 C 119.496 -0.248612 2.00565 0
M  V30 1315 C 119.817 -1.5083 1.23593 0
M  V30 1316 O 119.087 -1.92858 0.343912 0
M  V30 1317 H 117.667 -0.0948564 0.740953 0
M  V30 1318 H 120.329 0.468341 1.89189 0
M  V30 1319 H 119.425 -0.488994 3.08245 0
M  V30 1320 N 119.726 -1.57421 0.075193 0
M  V30 1321 C 120.673 -2.12915 -0.890843 0
M  V30 1322 C 121.643 -1.04252 -1.29309 0
M  V30 1323 O 122.828 -1.31933 -1.37834 0
M  V30 1324 C 119.968 -2.69795 -2.15186 0
M  V30 1325 C 119.081 -3.92624 -1.80194 0
M  V30 1326 C 118.216 -4.37736 -3.00933 0
M  V30 1327 C 117.255 -5.53205 -2.61974 0
M  V30 1328 N 116.392 -5.9326 -3.75483 0
M  V30 1329 H 121.232 -2.95156 -0.410735 0
M  V30 1330 H 118.769 -1.45854 -0.191086 0
M  V30 1331 H 120.727 -3.00883 -2.89008 0
M  V30 1332 H 119.357 -1.90313 -2.60731 0
M  V30 1333 H 118.409 -3.67977 -0.964218 0
M  V30 1334 H 119.721 -4.76482 -1.47534 0
M  V30 1335 H 118.875 -4.70503 -3.8303 0
M  V30 1336 H 117.614 -3.52739 -3.36789 0
M  V30 1337 H 116.619 -5.20086 -1.783 0
M  V30 1338 H 117.844 -6.39936 -2.27284 0
M  V30 1339 H 115.79 -5.11212 -4.11094 0
M  V30 1340 H 115.707 -6.71865 -3.46602 0
M  V30 1341 H 116.975 -6.30651 -4.58148 0
M  V30 1342 N 121.204 0.198386 -1.56346 0
M  V30 1343 C 122.453 0.917451 -1.79627 0
M  V30 1344 C 122.766 1.8456 -0.64784 0
M  V30 1345 O 123.972 2.60504 -0.764859 0
M  V30 1346 C 122.428 1.68175 -3.18191 0
M  V30 1347 C 122.036 0.798589 -4.40825 0
M  V30 1348 C 123.78 2.39065 -3.50782 0
M  V30 1349 C 121.687 1.56157 -5.70411 0
M  V30 1350 H 120.617 0.346317 -0.669762 0
M  V30 1351 H 123.268 0.170801 -1.82703 0
M  V30 1352 H 121.65 2.47216 -3.09354 0
M  V30 1353 H 122.824 0.0470665 -4.60776 0
M  V30 1354 H 121.139 0.200686 -4.15916 0
M  V30 1355 H 123.736 2.96692 -4.44835 0
M  V30 1356 H 124.079 3.13091 -2.74371 0
M  V30 1357 H 124.612 1.66993 -3.61052 0
M  V30 1358 H 121.351 0.864142 -6.49779 0
M  V30 1359 H 120.871 2.2871 -5.54483 0
M  V30 1360 H 122.55 2.11622 -6.11412 0
M  V30 1361 N 122.682 1.50554 0.465978 0
M  V30 1362 C 124.093 1.54599 1.04671 0
M  V30 1363 C 124.444 0.352488 1.93008 0
M  V30 1364 O 123.569 -0.534044 2.09707 0
M  V30 1365 C 124.164 2.80166 1.90505 0
M  V30 1366 C 122.723 2.86876 2.43678 0
M  V30 1367 C 121.87 2.48947 1.22151 0
M  V30 1368 H 124.821 1.56744 0.248384 0
M  V30 1369 H 124.842 2.62311 2.75633 0
M  V30 1370 H 124.354 3.67013 1.26186 0
M  V30 1371 H 122.455 2.04393 3.11536 0
M  V30 1372 H 122.568 3.89885 2.78436 0
M  V30 1373 H 120.932 2.01498 1.5579 0
M  V30 1374 H 121.715 3.38107 0.594866 0
M  V30 1375 N 124.16 -0.719506 1.40217 0
M  V30 1376 C 125.437 -1.47221 1.28784 0
M  V30 1377 C 125.817 -2.10883 -0.0956067 0
M  V30 1378 O 125.165 -1.99833 -1.10811 0
M  V30 1379 C 125.375 -2.5111 2.42373 0
M  V30 1380 C 126.723 -3.17053 2.82423 0
M  V30 1381 O 127.747 -2.61429 2.41937 0
M  V30 1382 O 126.606 -4.17742 3.52355 0
M  V30 1383 H 123.7 -0.654491 0.50554 0
M  V30 1384 H 126.246 -0.752014 1.52128 0
M  V30 1385 H 125.018 -2.02556 3.34793 0
M  V30 1386 H 124.641 -3.3067 2.20778 0
M  V30 1387 N 125.638 -1.25649 -0.95132 0
M  V30 1388 C 126.588 -1.03004 -2.03406 0
M  V30 1389 C 127.572 0.034187 -1.60864 0
M  V30 1390 O 128.764 -0.181549 -1.76066 0
M  V30 1391 C 125.893 -0.654255 -3.37008 0
M  V30 1392 C 124.979 -1.75542 -3.86065 0
M  V30 1393 N 125.37 -2.99113 -4.07879 0
M  V30 1394 C 123.668 -1.63669 -4.14884 0
M  V30 1395 C 124.369 -3.70611 -4.48356 0
M  V30 1396 N 123.345 -2.98247 -4.54477 0
M  V30 1397 H 127.147 -1.96813 -2.1827 0
M  V30 1398 H 124.661 -1.16017 -1.13639 0
M  V30 1399 H 126.658 -0.473206 -4.14206 0
M  V30 1400 H 125.318 0.276468 -3.23521 0
M  V30 1401 H 126.329 -3.35124 -3.94857 0
M  V30 1402 H 123.006 -0.775161 -4.10241 0
M  V30 1403 H 124.396 -4.76695 -4.73509 0
M  V30 1404 N 127.117 1.15442 -1.07289 0
M  V30 1405 C 128.394 1.82306 -0.708792 0
M  V30 1406 C 128.774 1.94991 0.808807 0
M  V30 1407 O 128.122 1.50085 1.72298 0
M  V30 1408 C 128.332 3.18695 -1.42247 0
M  V30 1409 C 129.68 3.94341 -1.57417 0
M  V30 1410 O 130.704 3.28247 -1.38319 0
M  V30 1411 O 129.563 5.12839 -1.88834 0
M  V30 1412 H 126.657 0.787628 -0.252132 0
M  V30 1413 H 129.203 1.22559 -1.17377 0
M  V30 1414 H 127.975 3.04557 -2.45684 0
M  V30 1415 H 127.598 3.86128 -0.948223 0
M  V30 1416 N 128.595 0.856903 1.32268 0
M  V30 1417 C 130.006 0.515711 1.79436 0
M  V30 1418 C 130.357 -0.966586 1.70738 0
M  V30 1419 O 129.482 -1.75409 1.26731 0
M  V30 1420 C 130.077 0.929335 3.25805 0
M  V30 1421 C 128.636 0.640006 3.70919 0
M  V30 1422 C 127.783 1.12784 2.53328 0
M  V30 1423 H 130.734 1.04389 1.19535 0
M  V30 1424 H 130.755 0.246633 3.797 0
M  V30 1425 H 130.267 2.00821 3.32103 0
M  V30 1426 H 128.368 -0.428051 3.70133 0
M  V30 1427 H 128.481 1.20788 4.63624 0
M  V30 1428 H 126.845 0.548033 2.48734 0
M  V30 1429 H 127.628 2.21387 2.62379 0
M  V30 1430 N 130.073 -1.45103 0.615059 0
M  V30 1431 C 131.036 -2.29025 -0.0895485 0
M  V30 1432 C 132.036 -1.40174 -0.787906 0
M  V30 1433 O 133.226 -1.62217 -0.634933 0
M  V30 1434 C 130.358 -3.21376 -1.13711 0
M  V30 1435 H 131.551 -2.92807 0.648382 0
M  V30 1436 H 129.104 -1.51749 0.374444 0
M  V30 1437 H 129.839 -2.6241 -1.90556 0
M  V30 1438 H 129.624 -3.86834 -0.640475 0
M  V30 1439 H 131.114 -3.84459 -1.63036 0
M  V30 1440 N 131.551 -0.354651 -1.53558 0
M  V30 1441 C 132.962 0.126902 -1.86268 0
M  V30 1442 C 133.313 1.49075 -1.27558 0
M  V30 1443 O 132.438 2.08105 -0.5934 0
M  V30 1444 C 133.033 0.237046 -3.3797 0
M  V30 1445 C 131.592 0.662842 -3.70518 0
M  V30 1446 C 130.739 -0.196652 -2.76602 0
M  V30 1447 H 133.69 -0.573849 -1.47962 0
M  V30 1448 H 133.711 1.06259 -3.65362 0
M  V30 1449 H 133.223 -0.755725 -3.80671 0
M  V30 1450 H 131.324 1.66424 -3.33367 0
M  V30 1451 H 131.437 0.445034 -4.77029 0
M  V30 1452 H 129.801 0.332763 -2.52517 0
M  V30 1453 H 130.584 -1.18676 -3.22135 0
M  V30 1454 N 133.029 1.57378 -0.0835403 0
M  V30 1455 C 133.977 2.14602 0.89714 0
M  V30 1456 C 134.971 1.08589 1.30018 0
M  V30 1457 O 136.177 1.26952 1.27606 0
M  V30 1458 H 132.552 0.686346 0.3073 0
M  V30 1459 H 134.523 2.95845 0.38969 0
M  V30 1460 C 133.272 2.73188 2.15089 0
M  V30 1461 H 132.595 3.54442 1.84962 0
M  V30 1462 H 134.035 3.1681 2.81793 0
M  V30 1463 C 132.494 1.68517 2.91725 0
M  V30 1464 O 133.024 1.11718 3.85852 0
M  V30 1465 N 131.23 1.39277 2.55049 0
M  V30 1466 H 130.777 1.85655 1.78577 0
M  V30 1467 H 130.735 0.694791 3.06627 0
M  V30 1468 N 134.507 -0.190092 1.56449 0
M  V30 1469 C 135.753 -0.911052 1.81184 0
M  V30 1470 C 136.086 -1.82699 0.658396 0
M  V30 1471 O 135.361 -1.91491 -0.340775 0
M  V30 1472 C 135.644 -1.72297 3.16205 0
M  V30 1473 C 135.497 -0.831419 4.42049 0
M  V30 1474 C 136.816 -2.69454 3.47969 0
M  V30 1475 H 133.935 -0.32977 0.659106 0
M  V30 1476 H 136.577 -0.178169 1.89163 0
M  V30 1477 H 134.727 -2.34778 3.09534 0
M  V30 1478 H 136.399 -0.220929 4.60771 0
M  V30 1479 H 134.642 -0.138406 4.33579 0
M  V30 1480 H 135.313 -1.43461 5.33032 0
M  V30 1481 H 137.789 -2.17104 3.54972 0
M  V30 1482 H 136.665 -3.23342 4.43555 0
M  V30 1483 H 136.926 -3.48744 2.71717 0
M  V30 1484 N 135.985 -1.50799 -0.457987 0
M  V30 1485 C 137.213 -1.66218 -1.23203 0
M  V30 1486 C 137.628 -0.350894 -1.85511 0
M  V30 1487 O 136.985 0.668546 -1.69814 0
M  V30 1488 C 137.036 -2.76291 -2.33121 0
M  V30 1489 O 136.757 -4.02338 -1.73366 0
M  V30 1490 C 138.258 -3.028 -3.2377 0
M  V30 1491 H 135.478 -0.558361 -0.372121 0
M  V30 1492 H 138.022 -1.97099 -0.545179 0
M  V30 1493 H 136.177 -2.48068 -2.97558 0
M  V30 1494 H 136.591 -4.63312 -2.4585 0
M  V30 1495 H 138.065 -3.8345 -3.97077 0
M  V30 1496 H 138.542 -2.14385 -3.83322 0
M  V30 1497 H 139.148 -3.32604 -2.65056 0
M  V30 1498 N 137.463 0.71206 -1.40597 0
M  V30 1499 C 138.709 1.47416 -1.39271 0
M  V30 1500 C 139.042 1.942 0.00388791 0
M  V30 1501 O 138.317 1.68403 0.973179 0
M  V30 1502 C 138.6 2.69774 -2.38525 0
M  V30 1503 C 138.453 2.28861 -3.87224 0
M  V30 1504 C 139.772 3.71939 -2.35264 0
M  V30 1505 H 136.891 0.534713 -0.5072 0
M  V30 1506 H 139.533 0.812375 -1.71757 0
M  V30 1507 H 137.683 3.26238 -2.10953 0
M  V30 1508 H 139.355 1.77852 -4.25636 0
M  V30 1509 H 137.598 1.60824 -4.02887 0
M  V30 1510 H 138.269 3.16584 -4.52193 0
M  V30 1511 H 140.745 3.25113 -2.59694 0
M  V30 1512 H 139.621 4.55186 -3.06753 0
M  V30 1513 H 139.882 4.20484 -1.36549 0
M  V30 1514 N 138.941 1.26152 0.944643 0
M  V30 1515 C 139.871 1.09902 2.06019 0
M  V30 1516 C 140.852 0.00519538 1.70099 0
M  V30 1517 O 142.037 0.176583 1.93396 0
M  V30 1518 C 139.167 0.727562 3.39594 0
M  V30 1519 C 138.121 1.77274 3.89561 0
M  V30 1520 C 137.447 1.25569 5.19747 0
M  V30 1521 C 138.747 3.17357 4.14827 0
M  V30 1522 H 140.441 2.03217 2.19871 0
M  V30 1523 H 137.987 0.978452 1.05652 0
M  V30 1524 H 139.94 0.600777 4.17095 0
M  V30 1525 H 138.664 -0.241287 3.25707 0
M  V30 1526 H 137.323 1.88814 3.14237 0
M  V30 1527 H 136.971 0.276783 5.02238 0
M  V30 1528 H 136.671 1.95433 5.54148 0
M  V30 1529 H 138.195 1.1415 5.99835 0
M  V30 1530 H 139.609 3.08914 4.82954 0
M  V30 1531 H 138.006 3.84781 4.60504 0
M  V30 1532 H 139.076 3.63673 3.20734 0
M  V30 1533 N 140.419 -1.14872 1.07899 0
M  V30 1534 C 141.349 -2.2193 0.725887 0
M  V30 1535 C 142.33 -1.67622 -0.28927 0
M  V30 1536 O 143.515 -1.93533 -0.160787 0
M  V30 1537 C 140.645 -3.47061 0.128856 0
M  V30 1538 C 139.599 -4.14363 1.07178 0
M  V30 1539 C 138.925 -5.33636 0.337229 0
M  V30 1540 C 140.225 -4.63492 2.40775 0
M  V30 1541 H 141.919 -2.51724 1.62097 0
M  V30 1542 H 139.465 -1.20991 0.780838 0
M  V30 1543 H 141.418 -4.21199 -0.130147 0
M  V30 1544 H 140.142 -3.16617 -0.80134 0
M  V30 1545 H 138.801 -3.42173 1.3158 0
M  V30 1546 H 138.449 -4.99449 -0.596606 0
M  V30 1547 H 138.149 -5.79609 0.965788 0
M  V30 1548 H 139.673 -6.10539 0.0861567 0
M  V30 1549 H 141.087 -5.2913 2.20669 0
M  V30 1550 H 139.484 -5.20148 2.99276 0
M  V30 1551 H 140.554 -3.78834 3.02676 0
M  V30 1552 N 141.898 -0.863906 -1.31812 0
M  V30 1553 C 143.314 -0.555004 -1.49639 0
M  V30 1554 C 143.514 0.912266 -1.79666 0
M  V30 1555 O 142.57 1.69479 -1.87171 0
M  V30 1556 C 143.883 -1.44998 -2.63431 0
M  V30 1557 C 145.431 -1.45138 -2.77316 0
M  V30 1558 C 145.906 -2.33179 -3.94197 0
M  V30 1559 N 147.397 -2.31025 -4.01474 0
M  V30 1560 C 148.132 -2.95871 -4.9117 0
M  V30 1561 N 147.628 -3.69863 -5.8581 0
M  V30 1562 N 149.421 -2.85211 -4.84367 0
M  V30 1563 H 141.572 -1.81339 -1.10589 0
M  V30 1564 H 143.835 -0.77505 -0.545895 0
M  V30 1565 H 143.541 -2.49377 -2.48 0
M  V30 1566 H 143.415 -1.14409 -3.59431 0
M  V30 1567 H 145.802 -0.415201 -2.92164 0
M  V30 1568 H 145.883 -1.79747 -1.82001 0
M  V30 1569 H 145.527 -3.3687 -3.80107 0
M  V30 1570 H 145.457 -1.95897 -4.88807 0
M  V30 1571 H 147.948 -1.77238 -3.33759 0
M  V30 1572 H 148.261 -4.16486 -6.50968 0
M  V30 1573 H 146.606 -3.73971 -5.85808 0
M  V30 1574 H 149.797 -2.26948 -4.09405 0
M  V30 1575 H 149.97 -3.36027 -5.54066 0
M  V30 1576 N 143.376 1.44774 -0.622745 0
M  V30 1577 C 144.286 2.34433 0.0886031 0
M  V30 1578 C 145.302 1.52131 0.844529 0
M  V30 1579 O 146.478 1.84886 0.798691 0
M  V30 1580 C 143.543 3.29986 1.0635 0
M  V30 1581 C 142.604 4.28195 0.307873 0
M  V30 1582 C 141.837 5.19183 1.23633 0
M  V30 1583 O 142.06 5.13918 2.47476 0
M  V30 1584 O 140.994 5.97515 0.725189 0
M  V30 1585 H 144.82 2.96693 -0.648599 0
M  V30 1586 H 142.405 1.44408 -0.382957 0
M  V30 1587 H 144.287 3.88825 1.6246 0
M  V30 1588 H 142.962 2.70269 1.78146 0
M  V30 1589 H 141.869 3.72927 -0.296064 0
M  V30 1590 H 143.202 4.90808 -0.3699 0
M  V30 1591 N 144.854 0.36279 1.53368 0
M  V30 1592 C 146.265 -0.117022 1.86333 0
M  V30 1593 C 146.616 -1.48397 1.28347 0
M  V30 1594 O 145.741 -2.07787 0.604428 0
M  V30 1595 C 146.336 -0.21912 3.38091 0
M  V30 1596 C 144.895 -0.643184 3.70864 0
M  V30 1597 C 144.042 0.211318 2.76494 0
M  V30 1598 H 146.993 0.581687 1.47655 0
M  V30 1599 H 147.014 -1.04319 3.6592 0
M  V30 1600 H 146.526 0.775902 3.80265 0
M  V30 1601 H 144.627 -1.64654 3.34245 0
M  V30 1602 H 144.74 -0.41973 4.77258 0
M  V30 1603 H 143.104 -0.319367 2.5269 0
M  V30 1604 H 143.887 1.20383 3.21501 0
M  V30 1605 N 146.332 -1.57332 0.0918853 0
M  V30 1606 C 147.578 -1.94524 -0.573425 0
M  V30 1607 C 147.911 -0.973578 -1.68033 0
M  V30 1608 O 147.186 -0.00609226 -1.94499 0
M  V30 1609 C 147.469 -3.41858 -1.13161 0
M  V30 1610 C 147.322 -4.4979 -0.0299747 0
M  V30 1611 C 148.641 -3.90435 -2.03098 0
M  V30 1612 H 145.76 -0.70734 -0.206975 0
M  V30 1613 H 148.402 -1.89309 0.161942 0
M  V30 1614 H 146.552 -3.46433 -1.7583 0
M  V30 1615 H 148.224 -4.57327 0.604112 0
M  V30 1616 H 146.467 -4.291 0.636833 0
M  V30 1617 H 147.138 -5.50069 -0.461287 0
M  V30 1618 H 149.614 -3.87992 -1.50338 0
M  V30 1619 H 148.49 -4.94097 -2.39081 0
M  V30 1620 H 148.751 -3.29541 -2.94712 0
M  V30 1621 N 147.81 0.181792 -1.56548 0
M  V30 1622 C 149.226 0.53316 -1.50431 0
M  V30 1623 C 149.426 1.85184 -0.794297 0
M  V30 1624 O 148.482 2.50058 -0.350318 0
M  V30 1625 C 149.795 0.575597 -2.9514 0
M  V30 1626 C 151.343 0.663519 -3.05886 0
M  V30 1627 C 151.818 0.736946 -4.52032 0
M  V30 1628 N 153.309 0.800118 -4.56237 0
M  V30 1629 C 154.044 0.877327 -5.66649 0
M  V30 1630 N 153.54 0.916016 -6.86718 0
M  V30 1631 N 155.333 0.915542 -5.54594 0
M  V30 1632 H 147.484 -0.683025 -2.01118 0
M  V30 1633 H 149.747 -0.244988 -0.915797 0
M  V30 1634 H 149.453 -0.324482 -3.502 0
M  V30 1635 H 149.327 1.42572 -3.49218 0
M  V30 1636 H 151.714 1.55403 -2.50867 0
M  V30 1637 H 151.795 -0.21307 -2.54911 0
M  V30 1638 H 151.439 -0.149262 -5.07681 0
M  V30 1639 H 151.369 1.62953 -5.00753 0
M  V30 1640 H 153.86 0.778926 -3.69785 0
M  V30 1641 H 154.173 0.975813 -7.66614 0
M  V30 1642 H 152.518 0.884469 -6.89349 0
M  V30 1643 H 155.709 0.882245 -4.59711 0
M  V30 1644 H 155.882 0.972253 -6.40665 0
M  V30 1645 N 149.288 1.51039 0.449983 0
M  V30 1646 C 150.251 1.70863 1.5277 0
M  V30 1647 C 151.251 0.578846 1.5002 0
M  V30 1648 O 152.441 0.846213 1.52266 0
M  V30 1649 C 149.573 1.75341 2.9235 0
M  V30 1650 H 150.766 2.67034 1.36502 0
M  V30 1651 H 148.319 1.40838 0.677812 0
M  V30 1652 H 149.054 0.809383 3.14037 0
M  V30 1653 H 148.839 2.57436 2.95752 0
M  V30 1654 H 150.329 1.92559 3.70555 0
M  V30 1655 N 150.766 -0.704594 1.40972 0
M  V30 1656 C 152.177 -1.28418 1.3552 0
M  V30 1657 C 152.528 -1.96171 0.0339434 0
M  V30 1658 O 151.653 -1.98231 -0.867944 0
M  V30 1659 C 152.248 -2.33528 2.45459 0
M  V30 1660 C 150.807 -2.87085 2.43433 0
M  V30 1661 C 149.954 -1.61007 2.2577 0
M  V30 1662 H 152.905 -0.499963 1.50619 0
M  V30 1663 H 152.926 -3.14619 2.13998 0
M  V30 1664 H 152.438 -1.84187 3.41609 0
M  V30 1665 H 150.539 -3.40626 1.51013 0
M  V30 1666 H 150.652 -3.3813 3.39419 0
M  V30 1667 H 149.016 -1.86482 1.73483 0
M  V30 1668 H 149.799 -1.13675 3.23933 0
M  V30 1669 N 152.244 -1.26651 -0.937939 0
M  V30 1670 C 153.207 -1.08546 -2.01867 0
M  V30 1671 C 154.207 -0.0327327 -1.60767 0
M  V30 1672 O 155.397 -0.276427 -1.71993 0
M  V30 1673 C 152.529 -0.651711 -3.34613 0
M  V30 1674 H 153.722 -2.04502 -2.1936 0
M  V30 1675 H 151.275 -1.09294 -1.11734 0
M  V30 1676 H 152.01 0.309696 -3.22818 0
M  V30 1677 H 151.795 -1.41189 -3.65798 0
M  V30 1678 H 153.285 -0.546973 -4.14002 0
M  V30 1679 N 153.722 1.14298 -1.08507 0
M  V30 1680 C 154.968 1.85633 -0.816581 0
M  V30 1681 C 155.301 1.82784 0.656021 0
M  V30 1682 O 154.576 1.25926 1.48233 0
M  V30 1683 C 154.859 3.34223 -1.34041 0
M  V30 1684 C 154.712 3.45639 -2.87843 0
M  V30 1685 C 156.031 4.29356 -0.9665 0
M  V30 1686 H 153.15 0.67402 -0.298104 0
M  V30 1687 H 155.792 1.34214 -1.34487 0
M  V30 1688 H 153.942 3.78144 -0.89104 0
M  V30 1689 H 155.614 3.10498 -3.41158 0
M  V30 1690 H 153.857 2.86817 -3.25451 0
M  V30 1691 H 154.528 4.50089 -3.19569 0
M  V30 1692 H 157.004 3.93457 -1.35391 0
M  V30 1693 H 155.88 5.3178 -1.3602 0
M  V30 1694 H 156.141 4.41919 0.126362 0
M  V30 1695 N 155.201 0.870884 1.31352 0
M  V30 1696 C 156.164 0.332243 2.26779 0
M  V30 1697 C 157.164 -0.517302 1.52252 0
M  V30 1698 O 158.354 -0.326477 1.71113 0
M  V30 1699 C 155.486 -0.528066 3.36785 0
M  V30 1700 H 156.679 1.17469 2.75937 0
M  V30 1701 H 154.232 0.64655 1.423 0
M  V30 1702 H 154.967 -1.39167 2.92922 0
M  V30 1703 H 154.752 0.0802582 3.92018 0
M  V30 1704 H 156.242 -0.897179 4.07849 0
M  V30 1705 N 156.679 -1.44442 0.630414 0
M  V30 1706 C 157.925 -2.02351 0.134816 0
M  V30 1707 C 158.258 -1.4947 -1.23986 0
M  V30 1708 O 157.533 -0.678475 -1.82283 0
M  V30 1709 C 157.816 -3.59898 0.120707 0
M  V30 1710 C 157.669 -4.23063 1.52767 0
M  V30 1711 C 158.988 -4.36585 -0.555127 0
M  V30 1712 H 156.107 -0.73527 0.0504646 0
M  V30 1713 H 158.749 -1.72022 0.806751 0
M  V30 1714 H 156.899 -3.85868 -0.451477 0
M  V30 1715 H 158.571 -4.08202 2.14869 0
M  V30 1716 H 156.814 -3.80586 2.08175 0
M  V30 1717 H 157.485 -5.32071 1.46984 0
M  V30 1718 H 159.961 -4.16044 -0.0685429 0
M  V30 1719 H 158.837 -5.46294 -0.534185 0
M  V30 1720 H 159.098 -4.11138 -1.62535 0
M  V30 1721 N 158.157 -0.370918 -1.53173 0
M  V30 1722 C 159.12 0.460778 -2.24521 0
M  V30 1723 C 160.12 1.00536 -1.25496 0
M  V30 1724 O 161.31 0.890266 -1.49733 0
M  V30 1725 C 158.442 1.64457 -2.98608 0
M  V30 1726 H 159.635 -0.163613 -2.99453 0
M  V30 1727 H 157.188 -0.122699 -1.55818 0
M  V30 1728 H 157.923 2.30691 -2.2793 0
M  V30 1729 H 157.708 1.26099 -3.7127 0
M  V30 1730 H 159.198 2.23384 -3.5283 0
M  V30 1731 N 159.635 1.57281 -0.100228 0
M  V30 1732 C 161.046 1.81725 0.428107 0
M  V30 1733 C 161.397 1.01619 1.67833 0
M  V30 1734 O 160.522 0.247098 2.14985 0
M  V30 1735 C 161.117 3.29617 0.78347 0
M  V30 1736 C 159.676 3.54808 1.25653 0
M  V30 1737 C 158.823 2.76118 0.255752 0
M  V30 1738 H 161.774 1.55324 -0.325608 0
M  V30 1739 H 161.795 3.4322 1.64256 0
M  V30 1740 H 161.307 3.87893 -0.12665 0
M  V30 1741 H 159.408 3.01868 2.18418 0
M  V30 1742 H 159.521 4.63443 1.21482 0
M  V30 1743 H 157.885 2.43745 0.738956 0
M  V30 1744 H 158.668 3.37145 -0.647136 0
M  V30 1745 N 161.113 -0.173488 1.56642 0
M  V30 1746 C 162.341 -0.906095 1.86004 0
M  V30 1747 C 162.756 -1.75921 0.685355 0
M  V30 1748 O 162.113 -1.79198 -0.345578 0
M  V30 1749 C 162.164 -1.78462 3.14378 0
M  V30 1750 O 161.885 -0.965914 4.27319 0
M  V30 1751 C 163.386 -2.62707 3.57071 0
M  V30 1752 H 160.606 -0.263341 0.617165 0
M  V30 1753 H 163.15 -0.174236 2.03756 0
M  V30 1754 H 161.305 -2.46984 2.98459 0
M  V30 1755 H 161.719 -1.56655 5.00559 0
M  V30 1756 H 163.193 -3.19969 4.49804 0
M  V30 1757 H 163.67 -3.37472 2.81086 0
M  V30 1758 H 164.276 -1.99521 3.75595 0
M  V30 1759 N 162.591 -1.51276 -0.441967 0
M  V30 1760 C 164.002 -1.56244 -1.02199 0
M  V30 1761 C 164.353 -0.383149 -1.92422 0
M  V30 1762 O 163.478 0.500613 -2.1053 0
M  V30 1763 C 164.073 -2.83162 -1.86024 0
M  V30 1764 C 162.632 -2.90716 -2.39084 0
M  V30 1765 C 161.779 -2.50858 -1.18175 0
M  V30 1766 H 164.73 -1.5712 -0.223416 0
M  V30 1767 H 164.751 -2.66663 -2.71425 0
M  V30 1768 H 164.263 -3.68974 -1.20331 0
M  V30 1769 H 162.364 -2.09323 -3.08244 0
M  V30 1770 H 162.477 -3.94266 -2.72198 0
M  V30 1771 H 160.841 -2.03951 -1.52565 0
M  V30 1772 H 161.624 -3.3901 -0.541001 0
M  V30 1773 N 164.069 0.697108 -1.41344 0
M  V30 1774 C 165.315 1.4593 -1.40827 0
M  V30 1775 C 165.648 1.94193 -0.0167098 0
M  V30 1776 O 164.923 1.69425 0.955263 0
M  V30 1777 C 165.206 2.67229 -2.41373 0
M  V30 1778 C 165.059 2.24741 -3.8963 0
M  V30 1779 C 166.378 3.69423 -2.39196 0
M  V30 1780 H 163.497 0.529303 -0.512842 0
M  V30 1781 H 166.139 0.794112 -1.72609 0
M  V30 1782 H 164.289 3.23982 -2.14401 0
M  V30 1783 H 165.961 1.73327 -4.27499 0
M  V30 1784 H 164.204 1.56542 -4.0457 0
M  V30 1785 H 164.875 3.1177 -4.55525 0
M  V30 1786 H 167.351 3.2234 -2.63128 0
M  V30 1787 H 166.227 4.51907 -3.11563 0
M  V30 1788 H 166.488 4.19012 -1.41001 0
M  V30 1789 N 165.547 1.27147 0.931209 0
M  V30 1790 C 166.479 1.05364 2.03546 0
M  V30 1791 C 167.492 0.0108438 1.62796 0
M  V30 1792 O 168.681 0.25202 1.76712 0
M  V30 1793 C 165.781 0.575566 3.33977 0
M  V30 1794 C 164.954 1.68985 4.03439 0
M  V30 1795 C 164.013 1.20813 5.12143 0
M  V30 1796 O 163.039 1.90712 5.363 0
M  V30 1797 N 164.241 0.0618851 5.80467 0
M  V30 1798 H 167.006 2.00454 2.22796 0
M  V30 1799 H 164.567 1.18666 1.10136 0
M  V30 1800 H 166.559 0.237264 4.04004 0
M  V30 1801 H 165.129 -0.282016 3.11325 0
M  V30 1802 H 164.349 2.19861 3.27192 0
M  V30 1803 H 165.637 2.4378 4.46597 0
M  V30 1804 H 165.035 -0.521621 5.6329 0
M  V30 1805 H 163.592 -0.217264 6.51438 0
M  V30 1806 N 167.025 -1.13721 1.09112 0
M  V30 1807 C 168.436 -1.6648 0.845068 0
M  V30 1808 C 168.787 -1.85911 -0.62701 0
M  V30 1809 O 167.912 -1.57556 -1.48341 0
M  V30 1810 C 168.507 -3.02413 1.52748 0
M  V30 1811 C 167.066 -3.52176 1.32849 0
M  V30 1812 C 166.213 -2.27492 1.58564 0
M  V30 1813 H 169.164 -0.976872 1.25072 0
M  V30 1814 H 169.185 -3.68223 0.958752 0
M  V30 1815 H 168.697 -2.88238 2.59885 0
M  V30 1816 H 166.798 -3.7156 0.278137 0
M  V30 1817 H 166.911 -4.32499 2.0611 0
M  V30 1818 H 165.275 -2.33923 1.00758 0
M  V30 1819 H 166.058 -2.15886 2.66924 0
M  V30 1820 N 168.503 -0.877838 -1.30888 0
M  V30 1821 C 169.914 -0.544193 -1.78593 0
M  V30 1822 C 170.265 0.939301 -1.72254 0
M  V30 1823 O 169.39 1.7337 -1.29505 0
M  V30 1824 C 169.985 -0.98105 -3.24285 0
M  V30 1825 C 168.544 -0.698935 -3.69854 0
M  V30 1826 C 167.691 -1.168 -2.51502 0
M  V30 1827 H 170.642 -1.06278 -1.17859 0
M  V30 1828 H 170.663 -0.307009 -3.79259 0
M  V30 1829 H 170.175 -2.06079 -3.28866 0
M  V30 1830 H 168.276 0.369112 -3.70767 0
M  V30 1831 H 168.389 -1.28148 -4.61644 0
M  V30 1832 H 166.753 -0.587535 -2.47831 0
M  V30 1833 H 167.536 -2.25533 -2.58824 0
M  V30 1834 N 169.982 1.44106 -0.638065 0
M  V30 1835 C 171.231 2.01194 -0.142744 0
M  V30 1836 C 171.544 1.50835 1.24532 0
M  V30 1837 O 172.75 2.00096 1.83504 0
M  V30 1838 C 171.206 3.59319 -0.20442 0
M  V30 1839 C 170.814 4.18674 -1.59423 0
M  V30 1840 C 172.558 4.23854 0.234079 0
M  V30 1841 C 170.465 5.69045 -1.61065 0
M  V30 1842 H 169.395 0.752367 -0.0495998 0
M  V30 1843 H 172.046 1.65246 -0.797881 0
M  V30 1844 H 170.428 3.92598 0.517946 0
M  V30 1845 H 171.602 3.96921 -2.34074 0
M  V30 1846 H 169.917 3.66453 -1.97741 0
M  V30 1847 H 172.514 5.34155 0.241443 0
M  V30 1848 H 172.857 3.96688 1.2627 0
M  V30 1849 H 173.39 3.95403 -0.436025 0
M  V30 1850 H 170.129 6.00956 -2.61787 0
M  V30 1851 H 169.649 5.929 -0.90718 0
M  V30 1852 H 171.328 6.32809 -1.34766 0
M  V30 1853 N 171.46 0.379036 1.52974 0
M  V30 1854 C 172.709 -0.207612 2.00629 0
M  V30 1855 C 173.022 -1.48758 1.27006 0
M  V30 1856 O 174.228 -2.15365 1.65318 0
M  V30 1857 C 172.684 -0.42053 3.57435 0
M  V30 1858 C 172.292 0.845587 4.39948 0
M  V30 1859 C 174.036 -0.964102 4.13407 0
M  V30 1860 C 171.943 0.601513 5.88333 0
M  V30 1861 H 170.873 -0.0813591 0.749598 0
M  V30 1862 H 173.524 0.499853 1.76561 0
M  V30 1863 H 171.906 -1.18959 3.7771 0
M  V30 1864 H 173.08 1.61848 4.31442 0
M  V30 1865 H 171.395 1.31336 3.95145 0
M  V30 1866 H 173.992 -1.16225 5.21916 0
M  V30 1867 H 174.335 -1.93019 3.68849 0
M  V30 1868 H 174.868 -0.25487 3.96983 0
M  V30 1869 H 171.607 1.53831 6.37194 0
M  V30 1870 H 171.127 -0.132628 5.99653 0
M  V30 1871 H 172.806 0.232134 6.46583 0
M  V30 1872 N 172.938 -1.57226 0.108567 0
M  V30 1873 C 174.184 -1.95121 -0.552761 0
M  V30 1874 C 174.517 -0.991345 -1.66991 0
M  V30 1875 O 173.792 -0.0267211 -1.94482 0
M  V30 1876 C 174.075 -3.43039 -1.09528 0
M  V30 1877 C 173.928 -4.49797 0.0177332 0
M  V30 1878 C 175.247 -3.92567 -1.98945 0
M  V30 1879 H 172.366 -0.709496 -0.199461 0
M  V30 1880 H 175.008 -1.89126 0.182011 0
M  V30 1881 H 173.158 -3.48279 -1.72146 0
M  V30 1882 H 174.83 -4.56661 0.652584 0
M  V30 1883 H 173.073 -4.284 0.682309 0
M  V30 1884 H 173.744 -5.50528 -0.402919 0
M  V30 1885 H 176.22 -3.89565 -1.46214 0
M  V30 1886 H 175.096 -4.96605 -2.33827 0
M  V30 1887 H 175.357 -3.32648 -2.91201 0
M  V30 1888 N 174.416 0.165178 -1.56732 0
M  V30 1889 C 175.379 1.18822 -1.95995 0
M  V30 1890 C 176.379 1.3685 -0.84431 0
M  V30 1891 O 177.569 1.34152 -1.11126 0
M  V30 1892 C 174.701 2.5521 -2.26011 0
M  V30 1893 H 175.894 0.851825 -2.87548 0
M  V30 1894 H 173.447 0.407857 -1.50885 0
M  V30 1895 H 174.182 2.93852 -1.37191 0
M  V30 1896 H 173.967 2.43489 -3.07336 0
M  V30 1897 H 175.457 3.28927 -2.57288 0
M  V30 1898 N 175.894 1.51508 0.433938 0
M  V30 1899 C 177.305 1.56784 1.01369 0
M  V30 1900 C 177.656 0.393349 1.92217 0
M  V30 1901 O 176.781 -0.489441 2.10792 0
M  V30 1902 C 177.376 2.84144 1.8452 0
M  V30 1903 C 175.935 2.9198 2.37539 0
M  V30 1904 C 175.082 2.51482 1.16843 0
M  V30 1905 H 178.033 1.57236 0.215081 0
M  V30 1906 H 178.054 2.68098 2.70007 0
M  V30 1907 H 177.566 3.69607 1.18373 0
M  V30 1908 H 175.667 2.10955 3.0713 0
M  V30 1909 H 175.78 3.95704 2.70103 0
M  V30 1910 H 174.144 2.04758 1.51481 0
M  V30 1911 H 174.927 3.39293 0.523015 0
M  V30 1912 N 177.372 -0.689602 1.41712 0
M  V30 1913 C 178.618 -1.45181 1.41599 0
M  V30 1914 C 178.951 -1.94181 0.0270081 0
M  V30 1915 O 178.226 -1.6993 -0.946265 0
M  V30 1916 C 178.509 -2.65945 2.42787 0
M  V30 1917 C 178.362 -2.22672 3.90816 0
M  V30 1918 C 179.681 -3.68149 2.41151 0
M  V30 1919 H 176.8 -0.526576 0.515642 0
M  V30 1920 H 179.442 -0.784947 1.73028 0
M  V30 1921 H 177.592 -3.2284 2.16116 0
M  V30 1922 H 179.264 -1.71058 4.28412 0
M  V30 1923 H 177.507 -1.54394 4.05395 0
M  V30 1924 H 178.178 -3.0935 4.57172 0
M  V30 1925 H 180.654 -3.2094 2.64834 0
M  V30 1926 H 179.53 -4.50248 3.13955 0
M  V30 1927 H 179.791 -4.18259 1.43221 0
M  V30 1928 N 178.85 -1.27639 -0.924453 0
M  V30 1929 C 179.813 -1.10681 -2.00705 0
M  V30 1930 C 180.813 -0.0497823 -1.60723 0
M  V30 1931 O 182.003 -0.294654 -1.7169 0
M  V30 1932 C 179.135 -0.687164 -3.33902 0
M  V30 1933 H 180.328 -2.06817 -2.17179 0
M  V30 1934 H 177.881 -1.10473 -1.10569 0
M  V30 1935 H 178.616 0.275439 -3.23128 0
M  V30 1936 H 178.401 -1.45061 -3.6428 0
M  V30 1937 H 179.891 -0.590853 -4.13399 0
M  V30 1938 N 180.328 1.1314 -1.09713 0
M  V30 1939 C 181.556 1.88321 -0.856898 0
M  V30 1940 C 181.971 1.79276 0.592073 0
M  V30 1941 O 181.328 1.16142 1.40774 0
M  V30 1942 C 181.379 3.37812 -1.28706 0
M  V30 1943 O 181.1 3.46627 -2.67921 0
M  V30 1944 C 182.601 4.29952 -1.07964 0
M  V30 1945 H 179.821 0.596094 -0.308079 0
M  V30 1946 H 182.365 1.43205 -1.45988 0
M  V30 1947 H 180.52 3.805 -0.727912 0
M  V30 1948 H 180.934 4.39579 -2.8613 0
M  V30 1949 H 182.408 5.33159 -1.42986 0
M  V30 1950 H 182.885 4.39196 -0.0176577 0
M  V30 1951 H 183.491 3.93036 -1.62489 0
M  V30 1952 N 181.806 0.884767 1.30421 0
M  V30 1953 C 183.052 0.503851 1.96441 0
M  V30 1954 C 183.385 -0.944518 1.69684 0
M  V30 1955 O 182.66 -1.66737 1.00145 0
M  V30 1956 C 182.943 0.779085 3.51571 0
M  V30 1957 C 182.796 2.27807 3.87846 0
M  V30 1958 C 184.115 0.255452 4.39358 0
M  V30 1959 H 181.234 0.184533 0.713524 0
M  V30 1960 H 183.876 1.10872 1.54297 0
M  V30 1961 H 182.026 0.264274 3.876 0
M  V30 1962 H 183.698 2.86127 3.61841 0
M  V30 1963 H 181.941 2.74479 3.35922 0
M  V30 1964 H 182.612 2.42125 4.96064 0
M  V30 1965 H 185.088 0.696079 4.10236 0
M  V30 1966 H 183.964 0.477361 5.4682 0
M  V30 1967 H 184.225 -0.843293 4.33983 0
M  V30 1968 N 183.284 -1.43765 0.645699 0
M  V30 1969 C 184.695 -1.85193 0.236719 0
M  V30 1970 C 185.046 -1.54045 -1.21509 0
M  V30 1971 O 184.171 -0.985694 -1.92647 0
M  V30 1972 C 184.766 -3.36151 0.422845 0
M  V30 1973 C 183.325 -3.76338 0.0682492 0
M  V30 1974 C 182.472 -2.67538 0.729306 0
M  V30 1975 H 185.423 -1.34025 0.849883 0
M  V30 1976 H 185.444 -3.79032 -0.333904 0
M  V30 1977 H 184.956 -3.5879 1.47958 0
M  V30 1978 H 183.057 -3.59312 -0.986179 0
M  V30 1979 H 183.17 -4.76603 0.488469 0
M  V30 1980 H 181.534 -2.54176 0.163235 0
M  V30 1981 H 182.317 -2.93006 1.78892 0
M  V30 1982 N 184.763 -0.387143 -1.52771 0
M  V30 1983 C 185.726 0.436939 -2.24997 0
M  V30 1984 C 186.726 0.991991 -1.26555 0
M  V30 1985 O 187.916 0.874335 -1.50669 0
M  V30 1986 C 185.048 1.61281 -3.00335 0
M  V30 1987 H 186.241 -0.195365 -2.99263 0
M  V30 1988 H 183.794 -0.139218 -1.55679 0
M  V30 1989 H 184.529 2.2826 -2.30364 0
M  V30 1990 H 184.314 1.22154 -3.72587 0
M  V30 1991 H 185.804 2.19629 -3.5518 0
M  V30 1992 N 186.241 1.57166 -0.116904 0
M  V30 1993 C 187.174 2.10912 0.871291 0
M  V30 1994 C 188.152 1.025 1.26224 0
M  V30 1995 O 189.336 1.3014 1.36366 0
M  V30 1996 C 186.463 2.6041 2.16574 0
M  V30 1997 C 185.509 3.80687 1.92302 0
M  V30 1998 S 186.342 5.23199 1.14119 0
M  V30 1999 C 187.498 5.76064 2.44748 0
M  V30 2000 H 187.731 2.94401 0.414138 0
M  V30 2001 H 185.264 1.54096 0.096829 0
M  V30 2002 H 187.222 2.89583 2.9095 0
M  V30 2003 H 185.883 1.77106 2.59408 0
M  V30 2004 H 185.076 4.13462 2.8821 0
M  V30 2005 H 184.678 3.5212 1.26047 0
M  V30 2006 H 186.97 5.8566 3.406 0
M  V30 2007 H 187.913 6.74184 2.16521 0
M  V30 2008 H 188.321 5.04117 2.54019 0
M  V30 2009 N 187.719 -0.156864 1.56817 0
M  V30 2010 C 189.13 -0.717916 1.72345 0
M  V30 2011 C 189.481 -1.82124 0.729747 0
M  V30 2012 O 188.606 -2.16141 -0.105781 0
M  V30 2013 C 189.201 -1.30904 3.12489 0
M  V30 2014 C 187.76 -1.81676 3.29653 0
M  V30 2015 C 186.907 -0.701349 2.68284 0
M  V30 2016 H 189.858 0.0686989 1.58551 0
M  V30 2017 H 189.879 -2.17882 3.11942 0
M  V30 2018 H 189.391 -0.505796 3.8479 0
M  V30 2019 H 187.492 -2.64598 2.62333 0
M  V30 2020 H 187.605 -1.95226 4.3752 0
M  V30 2021 H 185.969 -1.12548 2.28484 0
M  V30 2022 H 186.752 0.0902846 3.43181 0
M  V30 2023 N 189.197 -1.51736 -0.425897 0
M  V30 2024 C 190.129 -1.70083 -1.53638 0
M  V30 2025 C 191.142 -0.581349 -1.52066 0
M  V30 2026 O 192.331 -0.856017 -1.56635 0
M  V30 2027 C 189.431 -1.71078 -2.9255 0
M  V30 2028 C 188.604 -2.99795 -3.185 0
M  V30 2029 C 187.663 -2.92825 -4.37196 0
M  V30 2030 O 186.689 -3.66756 -4.35291 0
M  V30 2031 N 187.891 -2.0946 -5.41393 0
M  V30 2032 H 190.656 -2.65882 -1.383 0
M  V30 2033 H 188.217 -1.49765 -0.614988 0
M  V30 2034 H 190.209 -1.63969 -3.69995 0
M  V30 2035 H 188.779 -0.828242 -3.01428 0
M  V30 2036 H 187.999 -3.20684 -2.2925 0
M  V30 2037 H 189.287 -3.84977 -3.32671 0
M  V30 2038 H 188.685 -1.48792 -5.45781 0
M  V30 2039 H 187.242 -2.08221 -6.17647 0
M  V30 2040 N 190.675 0.682077 -1.42076 0
M  V30 2041 C 191.585 1.82535 -1.47371 0
M  V30 2042 C 192.601 1.7017 -0.363079 0
M  V30 2043 O 193.777 1.91848 -0.612875 0
M  V30 2044 C 190.842 3.18624 -1.36674 0
M  V30 2045 C 189.903 3.42999 -2.58167 0
M  V30 2046 C 189.136 4.72595 -2.4797 0
M  V30 2047 O 189.359 5.50006 -1.5116 0
M  V30 2048 O 188.293 4.98054 -3.37974 0
M  V30 2049 H 192.119 1.81023 -2.43853 0
M  V30 2050 H 189.704 0.836887 -1.2376 0
M  V30 2051 H 191.586 3.99847 -1.33043 0
M  V30 2052 H 190.261 3.20789 -0.433138 0
M  V30 2053 H 189.168 2.61653 -2.67373 0
M  V30 2054 H 190.501 3.45659 -3.50401 0
M  V30 2055 N 192.153 1.28127 0.917671 0
M  V30 2056 C 193.1 1.11717 2.0196 0
M  V30 2057 C 194.07 0.0153929 1.66093 0
M  V30 2058 O 195.255 0.179596 1.89953 0
M  V30 2059 C 192.395 0.780927 3.36148 0
M  V30 2060 C 191.508 1.96135 3.84909 0
M  V30 2061 C 190.643 1.56609 5.0759 0
M  V30 2062 C 189.682 2.71339 5.48673 0
M  V30 2063 N 188.819 2.32332 6.62545 0
M  V30 2064 H 193.659 2.06003 2.15329 0
M  V30 2065 H 191.196 1.02535 1.05475 0
M  V30 2066 H 193.154 0.56675 4.13333 0
M  V30 2067 H 191.784 -0.124998 3.22558 0
M  V30 2068 H 190.836 2.28777 3.03916 0
M  V30 2069 H 192.148 2.82165 4.1132 0
M  V30 2070 H 191.302 1.31374 5.92305 0
M  V30 2071 H 190.041 0.677014 4.82978 0
M  V30 2072 H 189.046 2.97276 4.62501 0
M  V30 2073 H 190.271 3.60882 5.75274 0
M  V30 2074 H 188.217 1.45889 6.39572 0
M  V30 2075 H 188.134 3.11899 6.88662 0
M  V30 2076 H 189.402 2.10371 7.50576 0
M  V30 2077 N 193.631 -1.12557 1.10312 0
M  V30 2078 C 194.561 -2.20341 0.772798 0
M  V30 2079 C 195.542 -1.68198 -0.25365 0
M  V30 2080 O 196.727 -1.93831 -0.119699 0
M  V30 2081 C 193.857 -3.46709 0.202443 0
M  V30 2082 C 192.811 -4.11996 1.15943 0
M  V30 2083 C 192.137 -5.328 0.450345 0
M  V30 2084 C 193.437 -4.5828 2.50552 0
M  V30 2085 H 195.131 -2.48229 1.674 0
M  V30 2086 H 192.677 -1.19308 0.806326 0
M  V30 2087 H 194.63 -4.2138 -0.0407752 0
M  V30 2088 H 193.354 -3.18245 -0.734001 0
M  V30 2089 H 192.013 -3.39305 1.38808 0
M  V30 2090 H 191.661 -5.00602 -0.490531 0
M  V30 2091 H 191.361 -5.7743 1.08851 0
M  V30 2092 H 192.885 -6.10219 0.215642 0
M  V30 2093 H 194.299 -5.2433 2.31843 0
M  V30 2094 H 192.696 -5.13683 3.10242 0
M  V30 2095 H 193.766 -3.72329 3.10643 0
M  V30 2096 N 195.109 -0.891671 -1.2995 0
M  V30 2097 C 196.072 -0.36828 -2.26222 0
M  V30 2098 C 197.072 0.493014 -1.53056 0
M  V30 2099 O 198.262 0.299213 -1.71611 0
M  V30 2100 C 195.394 0.47442 -3.37583 0
M  V30 2101 H 196.587 -1.21844 -2.74033 0
M  V30 2102 H 194.14 -0.669107 -1.41254 0
M  V30 2103 H 194.875 1.34489 -2.95099 0
M  V30 2104 H 194.66 -0.142615 -3.91841 0
M  V30 2105 H 196.15 0.83218 -4.09224 0
M  V30 2106 N 196.587 1.43421 -0.653314 0
M  V30 2107 C 197.812 2.06678 -0.172846 0
M  V30 2108 C 198.237 1.48648 1.15262 0
M  V30 2109 O 197.595 0.596457 1.71208 0
M  V30 2110 C 197.643 3.60474 -0.0953184 0
M  V30 2111 O 196.747 4.01487 0.942442 0
M  V30 2112 H 196.088 0.657181 -0.0949155 0
M  V30 2113 H 198.618 1.83925 -0.896265 0
M  V30 2114 H 198.628 4.07905 0.0879728 0
M  V30 2115 H 197.303 4.02088 -1.06291 0
M  V30 2116 H 195.88 3.65646 0.731932 0
M  V30 2117 N 198.065 0.39524 1.52563 0
M  V30 2118 C 199.29 -0.187456 2.06551 0
M  V30 2119 C 199.715 -1.39249 1.26457 0
M  V30 2120 O 199.073 -1.78947 0.291151 0
M  V30 2121 C 199.121 -0.529985 3.56684 0
M  V30 2122 O 198.225 -1.62307 3.79118 0
M  V30 2123 H 197.566 -0.0202537 0.663691 0
M  V30 2124 H 200.096 0.564426 1.96661 0
M  V30 2125 H 200.106 -0.792598 4.00227 0
M  V30 2126 H 198.781 0.350987 4.14416 0
M  V30 2127 H 197.358 -1.3537 3.47461 0
M  V30 2128 N 199.544 -1.57102 0.125237 0
M  V30 2129 C 200.955 -1.82384 -0.399142 0
M  V30 2130 C 201.306 -1.04276 -1.66195 0
M  V30 2131 O 200.431 -0.281269 -2.14564 0
M  V30 2132 C 201.026 -3.30821 -0.730932 0
M  V30 2133 C 199.585 -3.56762 -1.19992 0
M  V30 2134 C 198.732 -2.7649 -0.211792 0
M  V30 2135 H 201.683 -1.54786 0.350277 0
M  V30 2136 H 201.704 -3.4579 -1.58775 0
M  V30 2137 H 201.216 -3.87643 0.188345 0
M  V30 2138 H 199.317 -3.05305 -2.13588 0
M  V30 2139 H 199.43 -4.65317 -1.14093 0
M  V30 2140 H 197.794 -2.4489 -0.700085 0
M  V30 2141 H 198.577 -3.36073 0.700691 0
M  V30 2142 N 201.022 0.148545 -1.56898 0
M  V30 2143 C 201.969 1.18345 -1.98149 0
M  V30 2144 C 202.939 1.42772 -0.848848 0
M  V30 2145 O 204.124 1.55132 -1.11079 0
M  V30 2146 C 201.264 2.51231 -2.36594 0
M  V30 2147 C 200.377 2.33991 -3.63142 0
M  V30 2148 C 199.512 3.59902 -3.90697 0
M  V30 2149 C 198.551 3.37692 -5.1052 0
M  V30 2150 N 197.688 4.5573 -5.34092 0
M  V30 2151 H 202.528 0.82467 -2.86362 0
M  V30 2152 H 200.065 0.395756 -1.41676 0
M  V30 2153 H 202.023 3.28713 -2.56912 0
M  V30 2154 H 200.653 2.85059 -1.51463 0
M  V30 2155 H 199.705 1.47572 -3.50609 0
M  V30 2156 H 201.017 2.13539 -4.5078 0
M  V30 2157 H 200.171 4.45813 -4.11505 0
M  V30 2158 H 198.91 3.83357 -3.01477 0
M  V30 2159 H 197.915 2.5017 -4.89587 0
M  V30 2160 H 199.14 3.15637 -6.0129 0
M  V30 2161 H 197.086 4.79361 -4.47827 0
M  V30 2162 H 197.003 4.38274 -6.15996 0
M  V30 2163 H 198.271 5.42858 -5.59397 0
M  V30 2164 N 202.5 1.5196 0.417844 0
M  V30 2165 C 203.777 1.56146 1.17803 0
M  V30 2166 C 204.157 0.337275 2.08388 0
M  V30 2167 O 203.505 -0.676447 2.18258 0
M  V30 2168 C 203.715 2.88566 1.96293 0
M  V30 2169 C 205.063 3.41244 2.52662 0
M  V30 2170 O 206.087 2.90247 2.06483 0
M  V30 2171 O 204.946 4.30273 3.36938 0
M  V30 2172 H 202.04 0.628598 0.537395 0
M  V30 2173 H 204.586 1.64283 0.425331 0
M  V30 2174 H 203.358 3.69116 1.2988 0
M  V30 2175 H 202.981 2.83681 2.78587 0
M  V30 2176 N 203.978 -0.674533 1.42435 0
M  V30 2177 C 204.925 -1.78807 1.45934 0
M  V30 2178 C 205.895 -1.63157 0.311271 0
M  V30 2179 O 207.08 -1.83707 0.515383 0
M  V30 2180 C 204.22 -3.16839 1.36773 0
M  V30 2181 C 203.333 -3.43774 2.61617 0
M  V30 2182 C 202.468 -4.71536 2.44597 0
M  V30 2183 C 201.507 -4.91505 3.64814 0
M  V30 2184 N 200.644 -6.10508 3.46734 0
M  V30 2185 H 205.484 -1.75151 2.41093 0
M  V30 2186 H 203.021 -0.85504 1.19697 0
M  V30 2187 H 204.979 -3.96606 1.29459 0
M  V30 2188 H 203.609 -3.19619 0.452089 0
M  V30 2189 H 202.661 -2.58259 2.79297 0
M  V30 2190 H 203.973 -3.54423 3.50978 0
M  V30 2191 H 203.127 -5.59393 2.3487 0
M  V30 2192 H 201.866 -4.6317 1.52726 0
M  V30 2193 H 200.871 -4.0209 3.74972 0
M  V30 2194 H 202.096 -5.01716 4.57665 0
M  V30 2195 H 200.042 -6.03315 2.5758 0
M  V30 2196 H 199.959 -6.2202 4.29682 0
M  V30 2197 H 201.227 -7.01044 3.40819 0
M  V30 2198 N 205.456 -1.28612 -0.910864 0
M  V30 2199 C 206.403 -1.12786 -2.01365 0
M  V30 2200 C 207.373 -0.024201 -1.66082 0
M  V30 2201 O 208.558 -0.189667 -1.89855 0
M  V30 2202 C 205.698 -0.798743 -3.35729 0
M  V30 2203 C 204.811 -1.98173 -3.83864 0
M  V30 2204 C 203.946 -1.59298 -5.06752 0
M  V30 2205 C 202.985 -2.74245 -5.47226 0
M  V30 2206 N 202.122 -2.35842 -6.61304 0
M  V30 2207 H 206.962 -2.07142 -2.14234 0
M  V30 2208 H 204.499 -1.03093 -1.0493 0
M  V30 2209 H 206.457 -0.588662 -4.13026 0
M  V30 2210 H 205.087 0.10789 -3.2262 0
M  V30 2211 H 204.139 -2.30386 -3.02699 0
M  V30 2212 H 205.451 -2.84343 -4.09818 0
M  V30 2213 H 204.605 -1.34513 -5.916 0
M  V30 2214 H 203.344 -0.702618 -4.82612 0
M  V30 2215 H 202.349 -2.99725 -4.60918 0
M  V30 2216 H 203.574 -3.63928 -5.73353 0
M  V30 2217 H 201.52 -1.49279 -6.38789 0
M  V30 2218 H 201.437 -3.15546 -6.86998 0
M  V30 2219 H 202.705 -2.14348 -7.4945 0
M  V30 2220 N 206.934 1.1197 -1.10907 0
M  V30 2221 C 207.881 2.17846 -0.762345 0
M  V30 2222 C 208.851 1.63995 0.263599 0
M  V30 2223 O 210.036 1.90273 0.141773 0
M  V30 2224 C 207.176 3.44487 -0.205651 0
M  V30 2225 C 206.289 4.12369 -1.28748 0
M  V30 2226 C 205.424 5.26674 -0.691919 0
M  V30 2227 C 204.463 5.86431 -1.75399 0
M  V30 2228 N 203.6 6.92142 -1.17833 0
M  V30 2229 H 208.44 2.46851 -1.6694 0
M  V30 2230 H 205.977 1.21188 -0.833776 0
M  V30 2231 H 207.935 4.16981 0.135037 0
M  V30 2232 H 206.565 3.15884 0.664613 0
M  V30 2233 H 205.617 3.38003 -1.74522 0
M  V30 2234 H 206.929 4.52844 -2.09125 0
M  V30 2235 H 206.083 6.05953 -0.300963 0
M  V30 2236 H 204.822 4.8749 0.143232 0
M  V30 2237 H 203.827 5.05835 -2.15432 0
M  V30 2238 H 205.052 6.27685 -2.59208 0
M  V30 2239 H 202.998 6.54985 -0.364725 0
M  V30 2240 H 202.915 7.31242 -1.91887 0
M  V30 2241 H 204.183 7.75237 -0.81408 0
M  V30 2242 N 208.412 0.89855 1.29475 0
M  V30 2243 C 209.359 0.373819 2.27753 0
M  V30 2244 C 210.329 -0.543444 1.56958 0
M  V30 2245 O 211.514 -0.468934 1.84948 0
M  V30 2246 C 208.654 -0.393648 3.42848 0
M  V30 2247 C 207.767 0.554379 4.28428 0
M  V30 2248 C 206.902 -0.230026 5.30702 0
M  V30 2249 C 205.941 0.712599 6.07938 0
M  V30 2250 N 205.078 -0.0373283 7.0209 0
M  V30 2251 H 209.918 1.21699 2.72017 0
M  V30 2252 H 207.455 0.611456 1.33789 0
M  V30 2253 H 209.413 -0.85466 4.08352 0
M  V30 2254 H 208.043 -1.20128 2.99615 0
M  V30 2255 H 207.095 1.13391 3.63107 0
M  V30 2256 H 208.407 1.27597 4.82204 0
M  V30 2257 H 207.561 -0.752288 6.02018 0
M  V30 2258 H 206.3 -0.984758 4.77654 0
M  V30 2259 H 205.305 1.24637 5.35486 0
M  V30 2260 H 206.53 1.46664 6.63074 0
M  V30 2261 H 204.476 -0.774348 6.51414 0
M  V30 2262 H 204.393 0.624374 7.53417 0
M  V30 2263 H 205.661 -0.539891 7.77628 0
M  V30 2264 N 209.89 -1.43072 0.660911 0
M  V30 2265 C 210.8 -2.34585 -0.0264163 0
M  V30 2266 C 211.816 -1.54316 -0.803898 0
M  V30 2267 O 212.992 -1.86939 -0.749391 0
M  V30 2268 C 210.057 -3.32689 -0.975639 0
M  V30 2269 C 209.118 -4.2886 -0.194236 0
M  V30 2270 C 208.351 -5.22278 -1.09825 0
M  V30 2271 O 208.574 -5.20299 -2.33763 0
M  V30 2272 O 207.508 -5.99228 -0.566513 0
M  V30 2273 H 211.334 -2.94869 0.727034 0
M  V30 2274 H 208.919 -1.43342 0.42111 0
M  V30 2275 H 210.801 -3.92995 -1.52094 0
M  V30 2276 H 209.476 -2.74898 -1.70918 0
M  V30 2277 H 208.383 -3.72011 0.394835 0
M  V30 2278 H 209.716 -4.89655 0.499899 0
M  V30 2279 N 211.368 -0.403325 -1.52352 0
M  V30 2280 C 212.315 0.425011 -2.26853 0
M  V30 2281 C 213.285 1.04598 -1.29029 0
M  V30 2282 O 214.47 1.07135 -1.57882 0
M  V30 2283 C 211.61 1.53888 -3.08889 0
M  V30 2284 C 210.723 0.939396 -4.21663 0
M  V30 2285 C 209.858 2.02547 -4.91068 0
M  V30 2286 C 208.897 1.40263 -5.95813 0
M  V30 2287 N 208.034 2.4286 -6.58759 0
M  V30 2288 H 212.874 -0.21674 -2.97211 0
M  V30 2289 H 210.411 -0.118722 -1.4662 0
M  V30 2290 H 212.369 2.19558 -3.54753 0
M  V30 2291 H 210.999 2.15074 -2.40714 0
M  V30 2292 H 210.051 0.171898 -3.80011 0
M  V30 2293 H 211.363 0.44436 -4.96817 0
M  V30 2294 H 210.517 2.75958 -5.40308 0
M  V30 2295 H 209.256 2.55415 -4.15469 0
M  V30 2296 H 208.261 0.653833 -5.45898 0
M  V30 2297 H 209.486 0.881719 -6.73352 0
M  V30 2298 H 207.432 2.94871 -5.85992 0
M  V30 2299 H 207.349 1.98152 -7.2957 0
M  V30 2300 H 208.617 3.15858 -7.12639 0
M  V30 2301 N 212.846 1.57033 -0.133567 0
M  V30 2302 C 213.793 2.16074 0.811208 0
M  V30 2303 C 214.763 1.08979 1.2535 0
M  V30 2304 O 215.948 1.36958 1.32843 0
M  V30 2305 C 213.088 2.77595 2.05024 0
M  V30 2306 C 212.201 3.99042 1.65498 0
M  V30 2307 C 211.336 4.48603 2.84479 0
M  V30 2308 C 210.375 5.62547 2.41262 0
M  V30 2309 N 209.512 6.06787 3.53206 0
M  V30 2310 H 214.352 2.96477 0.300906 0
M  V30 2311 H 211.889 1.46462 0.136822 0
M  V30 2312 H 213.847 3.11402 2.77642 0
M  V30 2313 H 212.477 1.99859 2.53488 0
M  V30 2314 H 211.529 3.71302 0.826981 0
M  V30 2315 H 212.841 4.81629 1.29748 0
M  V30 2316 H 211.995 4.84395 3.65303 0
M  V30 2317 H 210.734 3.64995 3.23465 0
M  V30 2318 H 209.739 5.26345 1.58874 0
M  V30 2319 H 210.964 6.47931 2.03377 0
M  V30 2320 H 208.91 5.26117 3.91838 0
M  V30 2321 H 208.827 6.84266 3.21427 0
M  V30 2322 H 210.095 6.4722 4.34427 0
M  V30 2323 N 214.325 -0.140222 1.56975 0
M  V30 2324 C 215.571 -0.852949 1.83991 0
M  V30 2325 C 215.904 -1.80512 0.716187 0
M  V30 2326 O 215.179 -1.92479 -0.279681 0
M  V30 2327 C 215.462 -1.6215 3.21527 0
M  V30 2328 C 215.315 -0.690363 4.4447 0
M  V30 2329 C 216.634 -2.58247 3.56366 0
M  V30 2330 H 213.753 -0.308634 0.669264 0
M  V30 2331 H 216.395 -0.117898 1.89634 0
M  V30 2332 H 214.545 -2.24812 3.16847 0
M  V30 2333 H 216.217 -0.0742264 4.6124 0
M  V30 2334 H 214.46 -0.000396433 4.338 0
M  V30 2335 H 215.131 -1.2643 5.37326 0
M  V30 2336 H 217.607 -2.05701 3.61699 0
M  V30 2337 H 216.483 -3.09067 4.53617 0
M  V30 2338 H 216.744 -3.39923 2.82674 0
M  V30 2339 N 215.803 -1.52179 -0.40978 0
M  V30 2340 C 216.766 -1.74853 -1.48186 0
M  V30 2341 C 217.766 -0.618417 -1.48433 0
M  V30 2342 O 218.956 -0.886286 -1.49969 0
M  V30 2343 C 216.088 -1.8303 -2.87598 0
M  V30 2344 H 217.281 -2.70559 -1.29374 0
M  V30 2345 H 214.834 -1.42586 -0.640233 0
M  V30 2346 H 215.569 -0.89236 -3.11781 0
M  V30 2347 H 215.354 -2.65187 -2.88822 0
M  V30 2348 H 216.844 -2.02316 -3.65319 0
M  V30 2349 N 217.281 0.66697 -1.42791 0
M  V30 2350 C 218.228 1.7803 -1.4688 0
M  V30 2351 C 219.198 1.6299 -0.319919 0
M  V30 2352 O 220.383 1.83432 -0.525118 0
M  V30 2353 C 217.523 3.1611 -1.38451 0
M  V30 2354 C 216.636 3.42381 -2.63437 0
M  V30 2355 C 215.771 4.70232 -2.47094 0
M  V30 2356 C 214.81 4.89564 -3.67415 0
M  V30 2357 N 213.947 6.08661 -3.49966 0
M  V30 2358 H 218.787 1.7387 -2.42019 0
M  V30 2359 H 216.324 0.84868 -1.20149 0
M  V30 2360 H 218.282 3.95914 -1.31561 0
M  V30 2361 H 216.912 3.19374 -0.469033 0
M  V30 2362 H 215.964 2.56774 -2.80662 0
M  V30 2363 H 217.276 3.52557 -3.52853 0
M  V30 2364 H 216.43 5.5814 -2.37834 0
M  V30 2365 H 215.169 4.62353 -1.5518 0
M  V30 2366 H 214.174 4.00096 -3.77099 0
M  V30 2367 H 215.399 4.99282 -4.6032 0
M  V30 2368 H 213.345 6.0194 -2.60776 0
M  V30 2369 H 213.262 6.19733 -4.32975 0
M  V30 2370 H 214.53 6.99226 -3.44532 0
M  V30 2371 N 218.759 1.29093 0.90403 0
M  V30 2372 C 220.005 1.16986 1.65656 0
M  V30 2373 C 220.338 -0.278925 1.92186 0
M  V30 2374 O 219.613 -1.2019 1.5292 0
M  V30 2375 C 219.896 1.97908 3.0084 0
M  V30 2376 C 219.749 3.50903 2.81403 0
M  V30 2377 C 221.068 1.80208 4.01513 0
M  V30 2378 H 218.187 0.426346 0.601164 0
M  V30 2379 H 220.829 1.58518 1.04747 0
M  V30 2380 H 218.979 1.62616 3.52829 0
M  V30 2381 H 220.651 3.96153 2.36348 0
M  V30 2382 H 218.894 3.76045 2.1627 0
M  V30 2383 H 219.565 4.02791 3.77443 0
M  V30 2384 H 222.041 2.11025 3.58619 0
M  V30 2385 H 220.917 2.39184 4.94047 0
M  V30 2386 H 221.178 0.756119 4.35586 0
M  V30 2387 N 220.237 -1.11381 1.11499 0
M  V30 2388 C 221.147 -2.21019 0.786628 0
M  V30 2389 C 222.163 -1.72597 -0.220507 0
M  V30 2390 O 223.339 -2.01321 -0.0565251 0
M  V30 2391 C 220.404 -3.459 0.235333 0
M  V30 2392 C 219.465 -4.09107 1.30115 0
M  V30 2393 C 218.698 -5.28027 0.776068 0
M  V30 2394 O 218.921 -5.6904 -0.393661 0
M  V30 2395 O 217.855 -5.81835 1.54114 0
M  V30 2396 H 221.681 -2.51521 1.70209 0
M  V30 2397 H 219.266 -1.19928 0.890928 0
M  V30 2398 H 221.148 -4.21346 -0.067715 0
M  V30 2399 H 219.823 -3.17049 -0.652828 0
M  V30 2400 H 218.73 -3.35391 1.65722 0
M  V30 2401 H 220.063 -4.42139 2.16273 0
M  V30 2402 N 221.715 -0.905404 -1.28997 0
M  V30 2403 C 223.126 -0.581953 -1.77398 0
M  V30 2404 C 223.477 0.902552 -1.74208 0
M  V30 2405 O 222.602 1.70584 -1.33154 0
M  V30 2406 C 223.197 -1.04961 -3.22131 0
M  V30 2407 C 221.756 -0.777229 -3.68288 0
M  V30 2408 C 220.903 -1.22109 -2.48967 0
M  V30 2409 H 223.854 -1.08754 -1.15578 0
M  V30 2410 H 223.875 -0.387387 -3.78523 0
M  V30 2411 H 223.387 -2.13008 -3.24421 0
M  V30 2412 H 221.488 0.290383 -3.71467 0
M  V30 2413 H 221.601 -1.37911 -4.58822 0
M  V30 2414 H 219.965 -0.639971 -2.46529 0
M  V30 2415 H 220.748 -2.30972 -2.53982 0
M  V30 2416 N 223.193 1.4272 -0.668489 0
M  V30 2417 C 224.156 2.292 0.00448567 0
M  V30 2418 C 225.156 1.43001 0.735339 0
M  V30 2419 O 226.346 1.64461 0.57429 0
M  V30 2420 C 223.478 3.25375 1.01705 0
M  V30 2421 H 224.671 2.90199 -0.756608 0
M  V30 2422 H 222.224 1.50254 -0.430506 0
M  V30 2423 H 222.959 2.69301 1.80686 0
M  V30 2424 H 222.744 3.88944 0.496463 0
M  V30 2425 H 224.234 3.90245 1.48655 0
M  V30 2426 N 224.671 0.411399 1.52136 0
M  V30 2427 C 225.917 -0.163888 2.02137 0
M  V30 2428 C 226.25 -1.44597 1.29636 0
M  V30 2429 O 225.525 -1.90272 0.403353 0
M  V30 2430 C 225.808 -0.40927 3.57767 0
M  V30 2431 C 225.661 0.889643 4.40914 0
M  V30 2432 C 226.98 -1.19042 4.23694 0
M  V30 2433 H 224.099 -0.0580896 0.734707 0
M  V30 2434 H 226.741 0.54531 1.82007 0
M  V30 2435 H 224.891 -1.0134 3.7505 0
M  V30 2436 H 226.563 1.52575 4.35337 0
M  V30 2437 H 224.806 1.50011 4.07037 0
M  V30 2438 H 225.477 0.672314 5.4789 0
M  V30 2439 H 227.953 -0.678942 4.10524 0
M  V30 2440 H 226.829 -1.33086 5.32522 0
M  V30 2441 H 227.09 -2.21166 3.82803 0
M  V30 2442 N 226.149 -1.5696 0.141893 0
M  V30 2443 C 227.374 -2.00754 -0.520838 0
M  V30 2444 C 227.799 -1.0213 -1.57959 0
M  V30 2445 O 227.157 0.00371324 -1.813 0
M  V30 2446 C 227.205 -3.43318 -1.10294 0
M  V30 2447 O 226.309 -3.47679 -2.21795 0
M  V30 2448 H 225.65 -0.651564 -0.127908 0
M  V30 2449 H 228.18 -2.03221 0.23712 0
M  V30 2450 H 228.19 -3.82012 -1.43287 0
M  V30 2451 H 226.865 -4.14608 -0.327574 0
M  V30 2452 H 225.442 -3.20824 -1.9007 0
M  V30 2453 N 227.627 0.131896 -1.57047 0
M  V30 2454 C 228.852 0.860418 -1.8871 0
M  V30 2455 C 229.277 1.73251 -0.73251 0
M  V30 2456 O 228.635 1.785 0.317429 0
M  V30 2457 C 228.683 1.68047 -3.19049 0
M  V30 2458 O 227.787 2.7862 -3.04047 0
M  V30 2459 H 227.128 0.238743 -0.619595 0
M  V30 2460 H 229.658 0.118169 -2.04258 0
M  V30 2461 H 229.668 2.07238 -3.51449 0
M  V30 2462 H 228.343 1.04018 -4.02682 0
M  V30 2463 H 226.92 2.42726 -2.83088 0
M  V30 2464 N 229.106 1.52395 0.401703 0
M  V30 2465 C 230.352 1.67065 1.14966 0
M  V30 2466 C 230.685 0.403052 1.89971 0
M  V30 2467 O 229.96 -0.598774 1.85054 0
M  V30 2468 C 230.243 2.8975 2.13815 0
M  V30 2469 C 230.096 4.26578 1.42658 0
M  V30 2470 C 231.415 3.07965 3.14397 0
M  V30 2471 H 228.534 0.607968 0.416587 0
M  V30 2472 H 231.176 1.84965 0.434511 0
M  V30 2473 H 229.326 2.74619 2.74803 0
M  V30 2474 H 230.998 4.53451 0.847329 0
M  V30 2475 H 229.241 4.27639 0.72849 0
M  V30 2476 H 229.912 5.08483 2.14823 0
M  V30 2477 H 232.388 3.22043 2.63491 0
M  V30 2478 H 231.264 3.95308 3.80819 0
M  V30 2479 H 231.525 2.21611 3.82545 0
M  V30 2480 N 230.584 -0.659388 1.43143 0
M  V30 2481 C 231.83 -1.42145 1.44647 0
M  V30 2482 C 232.163 -1.9408 0.0681907 0
M  V30 2483 O 231.438 -1.71899 -0.910007 0
M  V30 2484 C 231.721 -2.60735 2.48373 0
M  V30 2485 C 231.574 -2.14332 3.95451 0
M  V30 2486 C 232.893 -3.62951 2.48906 0
M  V30 2487 H 230.012 -0.51552 0.526696 0
M  V30 2488 H 232.654 -0.748069 1.74654 0
M  V30 2489 H 230.804 -3.18184 2.22916 0
M  V30 2490 H 232.476 -1.61932 4.31944 0
M  V30 2491 H 230.719 -1.4576 4.08578 0
M  V30 2492 H 231.39 -2.99583 4.63631 0
M  V30 2493 H 233.866 -3.1525 2.71582 0
M  V30 2494 H 232.742 -4.43487 3.23435 0
M  V30 2495 H 233.003 -4.15126 1.52061 0
M  V30 2496 N 232.062 -1.29571 -0.897171 0
M  V30 2497 C 233.01 -1.14802 -2.02295 0
M  V30 2498 C 234.004 -0.0629637 -1.69283 0
M  V30 2499 O 235.21 -0.222945 -1.78614 0
M  V30 2500 H 231.585 -0.354692 -0.663097 0
M  V30 2501 H 233.556 -2.10108 -2.11889 0
M  V30 2502 C 232.305 -0.843966 -3.37302 0
M  V30 2503 H 231.628 -1.67093 -3.63208 0
M  V30 2504 H 233.068 -0.780672 -4.16751 0
M  V30 2505 C 231.527 0.452843 -3.33843 0
M  V30 2506 O 232.057 1.47813 -3.73516 0
M  V30 2507 N 230.263 0.459601 -2.86943 0
M  V30 2508 H 229.81 -0.375213 -2.54853 0
M  V30 2509 H 229.768 1.32726 -2.85011 0
M  V30 2510 N 233.54 1.10788 -1.12088 0
M  V30 2511 C 234.765 1.87002 -0.896949 0
M  V30 2512 C 235.19 1.79933 0.548261 0
M  V30 2513 O 234.548 1.16662 1.38779 0
M  V30 2514 C 234.596 3.3349 -1.37174 0
M  V30 2515 O 233.7 4.08745 -0.547831 0
M  V30 2516 H 233.041 0.580397 -0.322545 0
M  V30 2517 H 235.571 1.39996 -1.49206 0
M  V30 2518 H 235.581 3.84339 -1.36922 0
M  V30 2519 H 234.256 3.37951 -2.42408 0
M  V30 2520 H 232.833 3.6776 -0.617034 0
M  V30 2521 N 235.018 0.912232 1.28515 0
M  V30 2522 C 236.267 0.540504 1.94323 0
M  V30 2523 C 236.58 -0.920044 1.72611 0
M  V30 2524 O 237.786 -1.39986 2.32629 0
M  V30 2525 C 236.242 0.915803 3.48053 0
M  V30 2526 C 235.85 2.39598 3.78546 0
M  V30 2527 C 237.594 0.614588 4.20027 0
M  V30 2528 C 235.501 2.71148 5.25578 0
M  V30 2529 H 234.431 0.198418 0.727424 0
M  V30 2530 H 237.082 1.11094 1.46049 0
M  V30 2531 H 235.464 0.274168 3.9505 0
M  V30 2532 H 236.638 3.08422 3.42364 0
M  V30 2533 H 234.953 2.66749 3.1974 0
M  V30 2534 H 237.55 0.827002 5.28266 0
M  V30 2535 H 237.893 -0.447531 4.13887 0
M  V30 2536 H 238.426 1.21462 3.78803 0
M  V30 2537 H 235.165 3.76207 5.36794 0
M  V30 2538 H 234.685 2.0696 5.62963 0
M  V30 2539 H 236.364 2.58072 5.93302 0
M  V30 2540 N 236.496 -1.42363 0.676048 0
M  V30 2541 C 237.428 -2.29164 -0.0404605 0
M  V30 2542 C 238.441 -1.43747 -0.764245 0
M  V30 2543 O 239.63 -1.67453 -0.618195 0
M  V30 2544 C 236.73 -3.21196 -1.08103 0
M  V30 2545 C 235.903 -4.35273 -0.430812 0
M  V30 2546 C 234.962 -5.08017 -1.37133 0
M  V30 2547 O 233.988 -5.62494 -0.87116 0
M  V30 2548 N 235.19 -5.13647 -2.70456 0
M  V30 2549 H 237.955 -2.91298 0.704667 0
M  V30 2550 H 235.516 -1.53303 0.520559 0
M  V30 2551 H 237.508 -3.66728 -1.71152 0
M  V30 2552 H 236.078 -2.60505 -1.72788 0
M  V30 2553 H 235.298 -3.92372 0.379209 0
M  V30 2554 H 236.586 -5.08795 0.0221132 0
M  V30 2555 H 235.984 -4.708 -3.1363 0
M  V30 2556 H 234.541 -5.62821 -3.28749 0
M  V30 2557 N 237.974 -0.419461 -1.51915 0
M  V30 2558 C 239.22 0.153166 -2.02221 0
M  V30 2559 C 239.553 1.43907 -1.30401 0
M  V30 2560 O 238.828 1.90055 -0.413438 0
M  V30 2561 C 239.111 0.390291 -3.57979 0
M  V30 2562 C 238.964 -0.913014 -4.40436 0
M  V30 2563 C 240.283 1.16794 -4.2432 0
M  V30 2564 H 237.402 0.0541924 -0.735005 0
M  V30 2565 H 240.044 -0.554955 -1.81715 0
M  V30 2566 H 238.194 0.993491 -3.75582 0
M  V30 2567 H 239.866 -1.54882 -4.34522 0
M  V30 2568 H 238.109 -1.52168 -4.06236 0
M  V30 2569 H 238.78 -0.701361 -5.47526 0
M  V30 2570 H 241.256 0.657161 -4.10878 0
M  V30 2571 H 240.132 1.3026 -5.3322 0
M  V30 2572 H 240.393 2.19132 -3.83971 0
M  V30 2573 N 239.452 1.56882 -0.150215 0
M  V30 2574 C 240.382 2.19935 0.784284 0
M  V30 2575 C 241.363 1.14854 1.25469 0
M  V30 2576 O 242.548 1.43209 1.31168 0
M  V30 2577 C 239.678 2.82349 2.02229 0
M  V30 2578 C 238.632 3.93285 1.68853 0
M  V30 2579 C 237.958 4.42649 2.99944 0
M  V30 2580 C 239.258 5.13904 0.932714 0
M  V30 2581 H 240.952 2.9828 0.258781 0
M  V30 2582 H 238.498 1.43473 0.123029 0
M  V30 2583 H 240.451 3.25126 2.68088 0
M  V30 2584 H 239.175 2.0134 2.57157 0
M  V30 2585 H 237.834 3.5113 1.05371 0
M  V30 2586 H 237.482 3.58458 3.52869 0
M  V30 2587 H 237.182 5.17476 2.78374 0
M  V30 2588 H 238.706 4.88099 3.66868 0
M  V30 2589 H 240.12 5.53506 1.49345 0
M  V30 2590 H 238.517 5.94515 0.81684 0
M  V30 2591 H 239.587 4.84842 -0.0749568 0
M  V30 2592 N 240.93 -0.123565 1.57115 0
M  V30 2593 C 242.158 -0.846461 1.88793 0
M  V30 2594 C 242.573 -1.73652 0.740976 0
M  V30 2595 O 241.93 -1.80207 -0.288393 0
M  V30 2596 C 241.981 -1.6837 3.19897 0
M  V30 2597 O 241.702 -0.829477 4.30176 0
M  V30 2598 C 243.203 -2.51214 3.65248 0
M  V30 2599 H 240.423 -0.243573 0.625231 0
M  V30 2600 H 242.967 -0.109324 2.04208 0
M  V30 2601 H 241.122 -2.37364 3.06165 0
M  V30 2602 H 241.536 -1.40651 5.0529 0
M  V30 2603 H 243.01 -3.05497 4.59756 0
M  V30 2604 H 243.487 -3.28359 2.9168 0
M  V30 2605 H 244.093 -1.8747 3.81752 0
M  V30 2606 N 242.408 -1.52605 -0.393616 0
M  V30 2607 C 243.633 -1.71592 -1.16495 0
M  V30 2608 C 244.058 -0.43133 -1.83088 0
M  V30 2609 O 243.416 0.612523 -1.7064 0
M  V30 2610 C 243.464 -2.86318 -2.19213 0
M  V30 2611 O 242.568 -2.52969 -3.257 0
M  V30 2612 H 241.909 -0.570734 -0.33935 0
M  V30 2613 H 244.439 -1.99377 -0.459324 0
M  V30 2614 H 244.449 -3.1168 -2.63286 0
M  V30 2615 H 243.124 -3.79511 -1.7013 0
M  V30 2616 H 241.701 -2.38332 -2.86797 0
M  V30 2617 N 243.887 0.651787 -1.4349 0
M  V30 2618 C 244.834 1.76462 -1.4876 0
M  V30 2619 C 245.804 1.62641 -0.337189 0
M  V30 2620 O 246.989 1.82864 -0.544544 0
M  V30 2621 C 244.129 3.14623 -1.41796 0
M  V30 2622 C 243.242 3.39568 -2.67053 0
M  V30 2623 C 242.377 4.67585 -2.52068 0
M  V30 2624 C 241.416 4.85639 -3.72587 0
M  V30 2625 N 240.553 6.04915 -3.56402 0
M  V30 2626 H 245.393 1.71293 -2.43849 0
M  V30 2627 H 242.93 0.835889 -1.21043 0
M  V30 2628 H 244.888 3.94496 -1.35753 0
M  V30 2629 H 243.518 3.18859 -0.50288 0
M  V30 2630 H 242.57 2.53783 -2.8337 0
M  V30 2631 H 243.882 3.48795 -3.56572 0
M  V30 2632 H 243.036 5.55586 -2.4374 0
M  V30 2633 H 241.775 4.60681 -1.60075 0
M  V30 2634 H 240.78 3.96073 -3.81321 0
M  V30 2635 H 242.005 4.94372 -4.65589 0
M  V30 2636 H 239.951 5.9914 -2.67146 0
M  V30 2637 H 239.868 6.15106 -4.39524 0
M  V30 2638 H 241.136 6.95533 -3.51929 0
M  V30 2639 N 245.365 1.30045 0.890287 0
M  V30 2640 C 246.328 1.15963 1.977 0
M  V30 2641 C 247.328 0.0923777 1.60534 0
M  V30 2642 O 248.518 0.340071 1.70848 0
M  V30 2643 C 245.65 0.775451 3.31963 0
M  V30 2644 H 246.843 2.12502 2.11619 0
M  V30 2645 H 244.396 1.13366 1.07601 0
M  V30 2646 H 245.131 -0.189671 3.23745 0
M  V30 2647 H 244.916 1.54668 3.60306 0
M  V30 2648 H 246.406 0.700251 4.11687 0
M  V30 2649 N 246.843 -1.10192 1.12674 0
M  V30 2650 C 247.806 -2.14786 0.799979 0
M  V30 2651 C 248.806 -1.59711 -0.18685 0
M  V30 2652 O 249.996 -1.74156 0.0392558 0
M  V30 2653 C 247.128 -3.40374 0.189228 0
M  V30 2654 H 248.321 -2.45203 1.72671 0
M  V30 2655 H 245.874 -1.25597 0.930326 0
M  V30 2656 H 246.609 -3.15577 -0.747107 0
M  V30 2657 H 246.394 -3.81637 0.899766 0
M  V30 2658 H 247.884 -4.17594 -0.0228143 0
M  V30 2659 N 248.321 -0.919034 -1.28029 0
M  V30 2660 C 249.57 -0.550802 -1.94034 0
M  V30 2661 C 249.883 0.910877 -1.73096 0
M  V30 2662 O 251.089 1.3875 -2.33368 0
M  V30 2663 C 249.545 -0.934249 -3.47563 0
M  V30 2664 C 249.153 -2.41602 -3.7727 0
M  V30 2665 C 250.897 -0.636854 -4.19696 0
M  V30 2666 C 248.804 -2.73932 -5.24133 0
M  V30 2667 H 247.734 -0.202273 -0.726362 0
M  V30 2668 H 250.385 -1.11867 -1.45458 0
M  V30 2669 H 248.767 -0.295115 -3.94899 0
M  V30 2670 H 249.941 -3.10233 -3.40723 0
M  V30 2671 H 248.256 -2.68441 -3.18321 0
M  V30 2672 H 250.853 -0.855005 -5.2782 0
M  V30 2673 H 251.196 0.425575 -4.14119 0
M  V30 2674 H 251.729 -1.23469 -3.78154 0
M  V30 2675 H 248.468 -3.79049 -5.34792 0
M  V30 2676 H 247.988 -2.09942 -5.61858 0
M  V30 2677 H 249.667 -2.61215 -5.91925 0
M  V30 2678 N 249.799 1.42003 -0.683588 0
M  V30 2679 C 250.729 2.33487 -0.024866 0
M  V30 2680 C 251.71 1.51163 0.779975 0
M  V30 2681 O 252.895 1.79739 0.735362 0
M  V30 2682 C 250.025 3.3487 0.920836 0
M  V30 2683 C 248.979 4.27414 0.223958 0
M  V30 2684 C 248.305 5.19074 1.2832 0
M  V30 2685 C 249.605 5.14445 -0.90242 0
M  V30 2686 H 251.299 2.88819 -0.788921 0
M  V30 2687 H 248.845 1.38873 -0.38083 0
M  V30 2688 H 250.798 3.97787 1.39081 0
M  V30 2689 H 249.522 2.77861 1.71642 0
M  V30 2690 H 248.181 3.65904 -0.225864 0
M  V30 2691 H 247.829 4.58387 2.071 0
M  V30 2692 H 247.529 5.81822 0.821995 0
M  V30 2693 H 249.053 5.84867 1.75392 0
M  V30 2694 H 250.467 5.70998 -0.513272 0
M  V30 2695 H 248.864 5.86072 -1.28997 0
M  V30 2696 H 249.934 4.52322 -1.74737 0
M  V30 2697 N 251.277 0.427512 1.51691 0
M  V30 2698 C 252.187 -0.39527 2.31246 0
M  V30 2699 C 253.203 -1.03674 1.39742 0
M  V30 2700 O 254.379 -1.03425 1.72816 0
M  V30 2701 C 251.444 -1.48706 3.13189 0
M  V30 2702 C 250.505 -0.866743 4.20459 0
M  V30 2703 C 249.738 -1.90651 4.98486 0
M  V30 2704 O 249.961 -3.12733 4.77026 0
M  V30 2705 O 248.895 -1.5025 5.82845 0
M  V30 2706 H 252.721 0.253918 3.02637 0
M  V30 2707 H 250.306 0.190274 1.48183 0
M  V30 2708 H 252.188 -2.12047 3.64162 0
M  V30 2709 H 250.863 -2.12051 2.44573 0
M  V30 2710 H 249.77 -0.195544 3.73589 0
M  V30 2711 H 251.103 -0.276934 4.9142 0
M  V30 2712 N 252.755 -1.56801 0.158532 0
M  V30 2713 C 253.983 -2.00859 -0.496303 0
M  V30 2714 C 254.398 -1.03871 -1.57659 0
M  V30 2715 O 253.755 -0.0375165 -1.82461 0
M  V30 2716 C 253.806 -3.4479 -1.08638 0
M  V30 2717 O 253.527 -4.38072 -0.0492322 0
M  V30 2718 C 255.028 -4.04185 -1.8207 0
M  V30 2719 H 252.248 -0.65864 -0.128199 0
M  V30 2720 H 254.792 -2.02885 0.256506 0
M  V30 2721 H 252.947 -3.43579 -1.78975 0
M  V30 2722 H 253.361 -5.2227 -0.483102 0
M  V30 2723 H 254.835 -5.06857 -2.18633 0
M  V30 2724 H 255.312 -3.45549 -2.71095 0
M  V30 2725 H 255.918 -4.0906 -1.16405 0
M  V30 2726 N 254.233 0.115231 -1.57178 0
M  V30 2727 C 255.196 1.12526 -1.99676 0
M  V30 2728 C 256.196 1.34095 -0.88742 0
M  V30 2729 O 257.386 1.30548 -1.15337 0
M  V30 2730 C 254.518 2.4789 -2.34015 0
M  V30 2731 H 255.711 0.759912 -2.90113 0
M  V30 2732 H 253.264 0.359648 -1.52106 0
M  V30 2733 H 253.999 2.89339 -1.4647 0
M  V30 2734 H 253.784 2.33588 -3.14927 0
M  V30 2735 H 255.274 3.20575 -2.67622 0
M  V30 2736 N 255.711 1.52812 0.385517 0
M  V30 2737 C 257.122 1.5993 0.963293 0
M  V30 2738 C 257.473 0.454302 1.90868 0
M  V30 2739 O 256.598 -0.422132 2.12243 0
M  V30 2740 C 257.193 2.89871 1.75387 0
M  V30 2741 C 255.752 2.99389 2.28129 0
M  V30 2742 C 254.899 2.55071 1.08783 0
M  V30 2743 H 257.85 1.5784 0.164948 0
M  V30 2744 H 257.871 2.76553 2.61341 0
M  V30 2745 H 257.383 3.73186 1.06554 0
M  V30 2746 H 255.484 2.20619 3.00263 0
M  V30 2747 H 255.597 4.04096 2.57377 0
M  V30 2748 H 253.961 2.09473 1.4489 0
M  V30 2749 H 254.744 3.40785 0.414807 0
M  V30 2750 N 257.189 -0.644168 1.43834 0
M  V30 2751 C 258.136 -1.75671 1.49694 0
M  V30 2752 C 259.106 -1.6246 0.345809 0
M  V30 2753 O 260.291 -1.82573 0.554234 0
M  V30 2754 C 257.431 -3.13867 1.43463 0
M  V30 2755 C 256.544 -3.38147 2.6885 0
M  V30 2756 C 255.679 -4.66241 2.54544 0
M  V30 2757 C 254.718 -4.83657 3.75157 0
M  V30 2758 N 253.855 -6.03016 3.59605 0
M  V30 2759 H 258.695 -1.69998 2.44754 0
M  V30 2760 H 256.232 -0.829458 1.21484 0
M  V30 2761 H 258.19 -3.9377 1.37843 0
M  V30 2762 H 256.82 -3.18588 0.519783 0
M  V30 2763 H 255.872 -2.52276 2.84712 0
M  V30 2764 H 257.184 -3.46899 3.58417 0
M  V30 2765 H 256.338 -5.54285 2.46683 0
M  V30 2766 H 255.077 -4.59826 1.62516 0
M  V30 2767 H 254.082 -3.94046 3.83416 0
M  V30 2768 H 255.307 -4.91896 4.68204 0
M  V30 2769 H 253.253 -5.97715 2.7032 0
M  V30 2770 H 253.17 -6.12766 4.42779 0
M  V30 2771 H 254.438 -6.93657 3.55613 0
M  V30 2772 N 258.668 -1.30515 -0.883378 0
M  V30 2773 C 259.578 -1.18959 -2.02203 0
M  V30 2774 C 260.594 -0.109172 -1.73657 0
M  V30 2775 O 261.77 -0.324413 -1.9877 0
M  V30 2776 C 258.835 -0.883871 -3.35244 0
M  V30 2777 C 257.896 -2.04982 -3.77201 0
M  V30 2778 C 257.129 -1.75859 -5.03894 0
M  V30 2779 O 257.352 -0.687276 -5.66244 0
M  V30 2780 O 256.286 -2.61146 -5.42297 0
M  V30 2781 H 260.112 -2.14616 -2.1488 0
M  V30 2782 H 257.697 -1.10124 -1.0096 0
M  V30 2783 H 259.579 -0.728644 -4.15053 0
M  V30 2784 H 258.254 0.0427798 -3.23672 0
M  V30 2785 H 257.161 -2.26038 -2.9809 0
M  V30 2786 H 258.494 -2.95825 -3.93381 0
M  V30 2787 N 260.146 1.09593 -1.13257 0
M  V30 2788 C 261.392 1.82003 -0.89458 0
M  V30 2789 C 261.725 1.85402 0.577906 0
M  V30 2790 O 261 1.32099 1.42759 0
M  V30 2791 C 261.283 3.28237 -1.48096 0
M  V30 2792 C 261.136 3.3312 -3.02244 0
M  V30 2793 C 262.455 4.24871 -1.14774 0
M  V30 2794 H 259.574 0.66077 -0.326424 0
M  V30 2795 H 262.216 1.28389 -1.40058 0
M  V30 2796 H 260.366 3.74024 -1.05062 0
M  V30 2797 H 262.038 2.95748 -3.54021 0
M  V30 2798 H 260.281 2.72756 -3.37323 0
M  V30 2799 H 260.952 4.3613 -3.38371 0
M  V30 2800 H 263.428 3.87361 -1.51957 0
M  V30 2801 H 262.304 5.25532 -1.58452 0
M  V30 2802 H 262.565 4.42058 -0.0611849 0
M  V30 2803 N 261.624 0.925811 1.2754 0
M  V30 2804 C 263.035 0.610102 1.7645 0
M  V30 2805 C 263.386 -0.874723 1.75622 0
M  V30 2806 O 262.511 -1.68444 1.35851 0
M  V30 2807 C 263.106 1.10073 3.20421 0
M  V30 2808 C 261.665 0.835723 3.67005 0
M  V30 2809 C 260.812 1.26054 2.46993 0
M  V30 2810 H 263.763 1.10579 1.13833 0
M  V30 2811 H 263.784 0.447557 3.77859 0
M  V30 2812 H 263.296 2.18143 3.20991 0
M  V30 2813 H 261.397 -0.231249 3.71882 0
M  V30 2814 H 261.51 1.45193 4.56569 0
M  V30 2815 H 259.874 0.679111 2.45479 0
M  V30 2816 H 260.657 2.34984 2.50275 0
M  V30 2817 N 263.102 -1.41638 0.69111 0
M  V30 2818 C 264.035 -2.28183 -0.0274913 0
M  V30 2819 C 265.013 -1.41984 -0.792424 0
M  V30 2820 O 266.197 -1.71415 -0.784169 0
M  V30 2821 C 263.324 -3.22135 -1.04628 0
M  V30 2822 C 262.37 -4.24848 -0.375037 0
M  V30 2823 S 263.203 -5.28231 0.879321 0
M  V30 2824 C 264.359 -6.25748 -0.137983 0
M  V30 2825 H 264.592 -2.88782 0.706553 0
M  V30 2826 H 262.125 -1.46709 0.481222 0
M  V30 2827 H 264.083 -3.76797 -1.62894 0
M  V30 2828 H 262.744 -2.6064 -1.75287 0
M  V30 2829 H 261.937 -4.90837 -1.14433 0
M  V30 2830 H 261.539 -3.73758 0.134434 0
M  V30 2831 H 263.831 -6.70188 -0.992659 0
M  V30 2832 H 264.774 -7.06417 0.487867 0
M  V30 2833 H 265.182 -5.62363 -0.490762 0
M  V30 2834 N 264.58 -0.43555 -1.51462 0
M  V30 2835 C 265.826 0.131709 -2.02372 0
M  V30 2836 C 266.159 1.42516 -1.3192 0
M  V30 2837 O 265.434 1.89606 -0.433573 0
M  V30 2838 C 265.717 0.352301 -3.58373 0
M  V30 2839 C 265.57 -0.959676 -4.39443 0
M  V30 2840 C 266.889 1.12286 -4.25535 0
M  V30 2841 H 264.008 0.0463936 -0.735538 0
M  V30 2842 H 266.65 -0.574197 -1.81116 0
M  V30 2843 H 264.8 0.9536 -3.76615 0
M  V30 2844 H 266.472 -1.59482 -4.32855 0
M  V30 2845 H 264.715 -1.56468 -4.04599 0
M  V30 2846 H 265.386 -0.759394 -5.46752 0
M  V30 2847 H 267.862 0.613545 -4.11552 0
M  V30 2848 H 266.738 1.24598 -5.34571 0
M  V30 2849 H 266.999 2.15048 -3.86273 0
M  V30 2850 N 266.058 1.56714 -0.166846 0
M  V30 2851 C 267.304 1.97039 0.479962 0
M  V30 2852 C 267.637 1.05264 1.63197 0
M  V30 2853 O 266.912 0.0988833 1.94248 0
M  V30 2854 C 267.195 3.46867 0.967212 0
M  V30 2855 C 267.048 4.49421 -0.18466 0
M  V30 2856 C 268.367 3.9968 1.84238 0
M  V30 2857 H 265.486 0.71641 0.172992 0
M  V30 2858 H 268.128 1.8832 -0.252079 0
M  V30 2859 H 266.278 3.54428 1.59101 0
M  V30 2860 H 267.95 4.53924 -0.821621 0
M  V30 2861 H 266.193 4.25573 -0.840837 0
M  V30 2862 H 266.864 5.51644 0.198317 0
M  V30 2863 H 269.34 3.94723 1.31655 0
M  V30 2864 H 268.216 5.04941 2.15234 0
M  V30 2865 H 268.477 3.43226 2.78654 0
M  V30 2866 N 267.536 -0.106894 1.57237 0
M  V30 2867 C 268.782 -0.81373 1.85759 0
M  V30 2868 C 269.115 -1.78952 0.754315 0
M  V30 2869 O 268.39 -1.93029 -0.23879 0
M  V30 2870 C 268.673 -1.55293 3.24894 0
M  V30 2871 C 268.526 -0.595929 4.45835 0
M  V30 2872 C 269.845 -2.5063 3.61763 0
M  V30 2873 H 266.964 -0.294369 0.67566 0
M  V30 2874 H 269.606 -0.0776472 1.89841 0
M  V30 2875 H 267.756 -2.1804 3.21544 0
M  V30 2876 H 269.428 0.0236262 4.61294 0
M  V30 2877 H 267.671 0.0916191 4.33703 0
M  V30 2878 H 268.342 -1.15004 5.39887 0
M  V30 2879 H 270.818 -1.97982 3.65981 0
M  V30 2880 H 269.694 -2.99376 4.60071 0
M  V30 2881 H 269.955 -3.3385 2.89821 0
M  V30 2882 N 269.014 -1.53014 -0.377408 0
M  V30 2883 C 270.425 -1.60438 -0.954798 0
M  V30 2884 C 270.776 -0.464418 -1.90624 0
M  V30 2885 O 269.901 0.41087 -2.12464 0
M  V30 2886 C 270.496 -2.90797 -1.73847 0
M  V30 2887 C 269.055 -3.00595 -2.26538 0
M  V30 2888 C 268.202 -2.55645 -1.07429 0
M  V30 2889 H 271.153 -1.57926 -0.156575 0
M  V30 2890 H 271.174 -2.77935 -2.5987 0
M  V30 2891 H 270.686 -3.73746 -1.04574 0
M  V30 2892 H 268.787 -2.22208 -2.99089 0
M  V30 2893 H 268.9 -4.05456 -2.5523 0
M  V30 2894 H 267.264 -2.10239 -1.43777 0
M  V30 2895 H 268.047 -3.41 -0.396728 0
M  V30 2896 N 270.492 0.636531 -1.44174 0
M  V30 2897 C 271.903 1.21806 -1.41493 0
M  V30 2898 C 272.254 1.95785 -0.1275 0
M  V30 2899 O 271.379 2.02147 0.772376 0
M  V30 2900 C 271.974 2.21551 -2.56321 0
M  V30 2901 C 270.533 2.75143 -2.56853 0
M  V30 2902 C 269.68 1.50052 -2.33195 0
M  V30 2903 H 272.631 0.427531 -1.52833 0
M  V30 2904 H 272.652 3.0405 -2.28765 0
M  V30 2905 H 272.164 1.67679 -3.50008 0
M  V30 2906 H 270.265 3.33033 -1.67093 0
M  V30 2907 H 270.378 3.2155 -3.55165 0
M  V30 2908 H 268.742 1.77993 -1.82183 0
M  V30 2909 H 269.525 0.980903 -3.28988 0
M  V30 2910 N 271.97 1.30982 0.876444 0
M  V30 2911 C 273.216 1.20474 1.63138 0
M  V30 2912 C 273.549 -0.238096 1.92735 0
M  V30 2913 O 272.824 -1.1692 1.55435 0
M  V30 2914 C 273.107 2.04244 2.96574 0
M  V30 2915 C 272.96 3.56793 2.73896 0
M  V30 2916 C 274.279 1.88684 3.97601 0
M  V30 2917 H 271.398 0.439001 0.591985 0
M  V30 2918 H 274.04 1.60704 1.01361 0
M  V30 2919 H 272.19 1.70063 3.493 0
M  V30 2920 H 273.862 4.01077 2.27892 0
M  V30 2921 H 272.105 3.80548 2.08245 0
M  V30 2922 H 272.776 4.10706 3.68815 0
M  V30 2923 H 275.252 2.18584 3.54062 0
M  V30 2924 H 274.128 2.4961 4.88862 0
M  V30 2925 H 274.389 0.848343 4.33884 0
M  V30 2926 N 273.449 -1.08991 1.13837 0
M  V30 2927 C 274.697 -1.80899 0.901098 0
M  V30 2928 C 275.018 -1.86356 -0.574134 0
M  V30 2929 O 274.288 -1.35235 -1.41733 0
M  V30 2930 H 272.868 -0.669966 0.330386 0
M  V30 2931 H 275.53 -1.318 1.43578 0
M  V30 2932 H 274.626 -2.83929 1.29578 0
M  V30 2933 N 274.927 -0.932562 -1.27047 0
M  V30 2934 C 275.89 -0.440064 -2.24936 0
M  V30 2935 C 276.89 0.444071 -1.54547 0
M  V30 2936 O 278.08 0.244465 -1.72476 0
M  V30 2937 C 275.212 0.36678 -3.38921 0
M  V30 2938 H 276.405 -1.305 -2.70018 0
M  V30 2939 H 273.958 -0.713707 -1.39054 0
M  V30 2940 H 274.693 1.25033 -2.99228 0
M  V30 2941 H 274.478 -0.267204 -3.91188 0
M  V30 2942 H 275.968 0.701567 -4.11665 0
M  V30 2943 N 276.405 1.4127 -0.698611 0
M  V30 2944 C 277.352 2.30773 -0.0352094 0
M  V30 2945 C 278.322 1.47273 0.768111 0
M  V30 2946 O 279.507 1.76053 0.735524 0
M  V30 2947 C 276.647 3.33346 0.893 0
M  V30 2948 C 275.76 4.31924 0.0809695 0
M  V30 2949 C 274.895 5.21566 1.0071 0
M  V30 2950 C 273.934 6.11811 0.188155 0
M  V30 2951 N 273.071 6.93926 1.06825 0
M  V30 2952 H 277.911 2.86943 -0.804207 0
M  V30 2953 H 275.448 1.4132 -0.408294 0
M  V30 2954 H 277.406 3.91368 1.44523 0
M  V30 2955 H 276.036 2.78719 1.62836 0
M  V30 2956 H 275.088 3.75825 -0.588224 0
M  V30 2957 H 276.4 4.95716 -0.553801 0
M  V30 2958 H 275.554 5.84437 1.62845 0
M  V30 2959 H 274.293 4.58008 1.67572 0
M  V30 2960 H 273.298 5.47986 -0.446254 0
M  V30 2961 H 274.523 6.77425 -0.476716 0
M  V30 2962 H 272.469 6.32973 1.72283 0
M  V30 2963 H 272.386 7.54416 0.489123 0
M  V30 2964 H 273.654 7.61262 1.67632 0
M  V30 2965 N 277.883 0.443576 1.51229 0
M  V30 2966 C 279.131 -0.120557 2.0174 0
M  V30 2967 C 279.452 -1.42665 1.32935 0
M  V30 2968 O 278.722 -1.9028 0.465866 0
M  V30 2969 H 277.302 -0.0475426 0.745486 0
M  V30 2970 H 279.964 0.587711 1.85828 0
M  V30 2971 H 279.06 -0.291972 3.10731 0
M  V30 2972 N 279.361 -1.56624 0.175154 0
M  V30 2973 C 280.309 -2.19468 -0.770495 0
M  V30 2974 C 281.303 -1.15985 -1.23466 0
M  V30 2975 O 282.509 -1.34176 -1.19987 0
M  V30 2976 H 278.884 -0.703095 -0.266761 0
M  V30 2977 H 280.855 -2.97613 -0.216542 0
M  V30 2978 C 279.604 -2.85264 -1.98796 0
M  V30 2979 H 278.927 -3.64623 -1.63983 0
M  V30 2980 H 280.367 -3.327 -2.62843 0
M  V30 2981 C 278.826 -1.85239 -2.81404 0
M  V30 2982 O 279.356 -1.34024 -3.78682 0
M  V30 2983 N 277.562 -1.53911 -2.46495 0
M  V30 2984 H 277.109 -1.95751 -1.67449 0
M  V30 2985 H 277.067 -0.872382 -3.02054 0
M  V30 2986 N 280.839 0.0985539 -1.57292 0
M  V30 2987 C 282.067 0.816318 -1.90115 0
M  V30 2988 C 282.482 1.72451 -0.768509 0
M  V30 2989 O 281.839 1.80643 0.259687 0
M  V30 2990 C 281.89 1.63259 -3.22535 0
M  V30 2991 O 281.611 0.760934 -4.31441 0
M  V30 2992 C 283.112 2.45372 -3.69199 0
M  V30 2993 H 280.332 0.233595 -0.629027 0
M  V30 2994 H 282.876 0.0768229 -2.04356 0
M  V30 2995 H 281.031 2.32463 -3.09903 0
M  V30 2996 H 281.445 1.32595 -5.07463 0
M  V30 2997 H 282.919 2.98144 -4.64558 0
M  V30 2998 H 283.396 3.23677 -2.96867 0
M  V30 2999 H 284.002 1.81373 -3.84687 0
M  V30 3000 N 282.317 1.53212 0.369288 0
M  V30 3001 C 283.728 1.60943 0.946276 0
M  V30 3002 C 284.079 0.47452 1.90375 0
M  V30 3003 O 283.204 -0.399597 2.12679 0
M  V30 3004 C 283.799 2.91715 1.72302 0
M  V30 3005 C 282.358 3.01792 2.24941 0
M  V30 3006 C 281.505 2.56211 1.06072 0
M  V30 3007 H 284.456 1.58007 0.148198 0
M  V30 3008 H 284.477 2.79309 2.58393 0
M  V30 3009 H 283.989 3.74295 1.0259 0
M  V30 3010 H 282.09 2.23791 2.97906 0
M  V30 3011 H 282.203 4.06803 2.53077 0
M  V30 3012 H 280.567 2.10998 1.4266 0
M  V30 3013 H 281.35 3.41206 0.378639 0
M  V30 3014 N 283.795 -0.628877 1.44509 0
M  V30 3015 C 284.758 -1.72263 1.51188 0
M  V30 3016 C 285.758 -1.55907 0.39367 0
M  V30 3017 O 286.948 -1.61361 0.656377 0
M  V30 3018 C 284.08 -3.11365 1.38798 0
M  V30 3019 H 285.273 -1.67714 2.4862 0
M  V30 3020 H 282.826 -0.842737 1.31634 0
M  V30 3021 H 283.561 -3.21507 0.424693 0
M  V30 3022 H 283.346 -3.24644 2.19884 0
M  V30 3023 H 284.836 -3.91075 1.46458 0
M  V30 3024 N 285.273 -1.31445 -0.869486 0
M  V30 3025 C 286.501 -1.24122 -1.65534 0
M  V30 3026 C 286.916 0.193387 -1.87807 0
M  V30 3027 O 286.273 1.12557 -1.43656 0
M  V30 3028 C 286.324 -1.98229 -3.02304 0
M  V30 3029 O 286.045 -3.3609 -2.81026 0
M  V30 3030 C 287.546 -1.97751 -3.96749 0
M  V30 3031 H 284.766 -0.428868 -0.516055 0
M  V30 3032 H 287.31 -1.73328 -1.08525 0
M  V30 3033 H 285.465 -1.52782 -3.56001 0
M  V30 3034 H 285.879 -3.7383 -3.67902 0
M  V30 3035 H 287.353 -2.54114 -4.90031 0
M  V30 3036 H 287.83 -0.960137 -4.28577 0
M  V30 3037 H 288.436 -2.43079 -3.48988 0
M  V30 3038 N 286.751 1.08385 -1.14413 0
M  V30 3039 C 287.999 1.80419 -0.910679 0
M  V30 3040 C 288.32 1.86658 0.564243 0
M  V30 3041 O 287.59 1.35985 1.41014 0
M  V30 3042 H 286.17 0.668204 -0.333934 0
M  V30 3043 H 288.832 1.31037 -1.44275 0
M  V30 3044 H 287.928 2.83238 -1.31082 0
M  V30 3045 N 288.23 0.939286 1.26551 0
M  V30 3046 C 289.458 0.602536 1.97932 0
M  V30 3047 C 289.873 -0.82206 1.69964 0
M  V30 3048 O 289.23 -1.54789 0.966784 0
M  V30 3049 C 289.281 0.832946 3.51773 0
M  V30 3050 O 289.002 2.20151 3.78768 0
M  V30 3051 C 290.503 0.506483 4.40397 0
M  V30 3052 H 287.723 0.227248 0.631347 0
M  V30 3053 H 290.267 1.25948 1.61113 0
M  V30 3054 H 288.422 0.222644 3.8676 0
M  V30 3055 H 288.836 2.26013 4.73306 0
M  V30 3056 H 290.31 0.718333 5.47306 0
M  V30 3057 H 290.787 -0.558451 4.35635 0
M  V30 3058 H 291.393 1.09543 4.10951 0
M  V30 3059 N 289.708 -1.40897 0.706093 0
M  V30 3060 C 290.936 -2.05373 0.250887 0
M  V30 3061 C 291.351 -1.53172 -1.10381 0
M  V30 3062 O 290.708 -0.684305 -1.69185 0
M  V30 3063 C 290.759 -3.6088 0.211571 0
M  V30 3064 O 290.48 -4.11153 1.51276 0
M  V30 3065 C 291.981 -4.42517 -0.263346 0
M  V30 3066 H 289.201 -0.66115 0.114552 0
M  V30 3067 H 291.745 -1.80479 0.961635 0
M  V30 3068 H 289.9 -3.84777 -0.450073 0
M  V30 3069 H 290.314 -5.05279 1.40689 0
M  V30 3070 H 291.788 -5.51479 -0.239718 0
M  V30 3071 H 292.265 -4.19396 -1.30397 0
M  V30 3072 H 292.871 -4.23708 0.367677 0
M  V30 3073 N 291.186 -0.45159 -1.50991 0
M  V30 3074 C 292.118 0.388634 -2.25881 0
M  V30 3075 C 293.131 0.974041 -1.30446 0
M  V30 3076 O 294.32 0.865758 -1.56099 0
M  V30 3077 C 291.42 1.5571 -3.01011 0
M  V30 3078 C 290.593 1.08801 -4.23652 0
M  V30 3079 C 289.652 2.12825 -4.8124 0
M  V30 3080 O 288.678 1.71678 -5.42693 0
M  V30 3081 N 289.88 3.45453 -4.66522 0
M  V30 3082 H 292.645 -0.25329 -2.98628 0
M  V30 3083 H 290.206 -0.281268 -1.59438 0
M  V30 3084 H 292.198 2.24952 -3.3642 0
M  V30 3085 H 290.768 2.10409 -2.31186 0
M  V30 3086 H 289.988 0.22215 -3.93574 0
M  V30 3087 H 291.276 0.752213 -5.03209 0
M  V30 3088 H 290.674 3.81605 -4.17605 0
M  V30 3089 H 289.231 4.10549 -5.06254 0
M  V30 3090 N 292.664 1.56529 -0.183458 0
M  V30 3091 C 293.912 1.96855 0.457452 0
M  V30 3092 C 294.233 1.07104 1.62953 0
M  V30 3093 O 293.503 0.139887 1.954 0
M  V30 3094 H 292.083 0.72693 0.171992 0
M  V30 3095 H 294.745 1.93056 -0.267476 0
M  V30 3096 H 293.841 3.01423 0.809368 0
M  V30 3097 N 294.142 -0.090211 1.57342 0
M  V30 3098 C 295.089 -1.10909 2.02405 0
M  V30 3099 C 296.059 -1.39523 0.901252 0
M  V30 3100 O 297.244 -1.50903 1.1676 0
M  V30 3101 C 294.384 -2.42277 2.45755 0
M  V30 3102 C 293.497 -2.20352 3.71576 0
M  V30 3103 C 292.632 -3.45154 4.03785 0
M  V30 3104 C 291.671 -3.18512 5.22701 0
M  V30 3105 N 290.808 -4.35593 5.50639 0
M  V30 3106 H 295.648 -0.71782 2.89225 0
M  V30 3107 H 293.185 -0.342901 1.43048 0
M  V30 3108 H 295.143 -3.18951 2.68935 0
M  V30 3109 H 293.773 -2.79242 1.61938 0
M  V30 3110 H 292.825 -1.34458 3.55844 0
M  V30 3111 H 294.137 -1.96661 4.58395 0
M  V30 3112 H 293.291 -4.30233 4.27767 0
M  V30 3113 H 292.03 -3.71904 3.15498 0
M  V30 3114 H 291.035 -2.31827 4.98534 0
M  V30 3115 H 292.26 -2.93103 6.12591 0
M  V30 3116 H 290.206 -4.6241 4.6531 0
M  V30 3117 H 290.123 -4.1511 6.31838 0
M  V30 3118 H 291.391 -5.21723 5.7916 0
M  V30 3119 N 295.62 -1.53406 -0.361157 0
M  V30 3120 C 296.567 -1.80156 -1.44265 0
M  V30 3121 C 297.537 -0.646183 -1.53015 0
M  V30 3122 O 298.722 -0.888818 -1.68833 0
M  V30 3123 C 295.862 -2.00116 -2.81154 0
M  V30 3124 C 294.975 -3.27833 -2.81335 0
M  V30 3125 C 294.11 -3.37957 -4.09828 0
M  V30 3126 C 293.149 -4.59689 -4.04168 0
M  V30 3127 N 292.286 -4.66942 -5.24318 0
M  V30 3128 H 297.126 -2.72438 -1.20754 0
M  V30 3129 H 294.663 -1.34954 -0.585296 0
M  V30 3130 H 296.621 -2.09677 -3.60682 0
M  V30 3131 H 295.251 -1.11167 -3.03054 0
M  V30 3132 H 294.303 -3.27204 -1.94014 0
M  V30 3133 H 295.615 -4.17442 -2.73027 0
M  V30 3134 H 294.769 -3.46853 -4.97773 0
M  V30 3135 H 293.508 -2.46372 -4.20894 0
M  V30 3136 H 292.513 -4.50889 -3.14609 0
M  V30 3137 H 293.738 -5.5262 -3.947 0
M  V30 3138 H 291.684 -3.7826 -5.35962 0
M  V30 3139 H 291.601 -5.50462 -5.18197 0
M  V30 3140 H 292.869 -4.80127 -6.14084 0
M  V30 3141 N 297.098 0.621204 -1.44841 0
M  V30 3142 C 298.061 1.71459 -1.521 0
M  V30 3143 C 299.061 1.55696 -0.401933 0
M  V30 3144 O 300.251 1.61011 -0.664925 0
M  V30 3145 C 297.383 3.10624 -1.40447 0
M  V30 3146 H 298.576 1.66394 -2.49506 0
M  V30 3147 H 296.129 0.835745 -1.3208 0
M  V30 3148 H 296.864 3.21277 -0.441737 0
M  V30 3149 H 296.649 3.23473 -2.21602 0
M  V30 3150 H 298.139 3.90293 -1.4853 0
M  V30 3151 N 298.576 1.31904 0.862503 0
M  V30 3152 C 299.486 1.22161 2.00285 0
M  V30 3153 C 300.502 0.136785 1.73462 0
M  V30 3154 O 301.678 0.355994 1.98229 0
M  V30 3155 C 298.743 0.937093 3.33796 0
M  V30 3156 C 297.804 2.10957 3.73893 0
M  V30 3157 C 297.037 1.83853 5.01033 0
M  V30 3158 O 297.26 0.777274 5.65079 0
M  V30 3159 O 296.194 2.69741 5.38074 0
M  V30 3160 H 300.02 2.18008 2.11439 0
M  V30 3161 H 297.605 1.11716 0.991957 0
M  V30 3162 H 299.487 0.794583 4.13841 0
M  V30 3163 H 298.162 0.00871894 3.23699 0
M  V30 3164 H 297.069 2.30752 2.94456 0
M  V30 3165 H 298.402 3.02046 3.88625 0
M  V30 3166 N 300.054 -1.07777 1.14986 0
M  V30 3167 C 301.302 -1.79934 0.920235 0
M  V30 3168 C 301.623 -1.86955 -0.554336 0
M  V30 3169 O 300.893 -1.36731 -1.40291 0
M  V30 3170 H 299.473 -0.666424 0.337473 0
M  V30 3171 H 302.135 -1.3027 1.44968 0
M  V30 3172 H 301.231 -2.82539 1.32583 0
M  V30 3173 N 301.532 -0.945985 -1.26051 0
M  V30 3174 C 302.76 -0.613025 -1.9761 0
M  V30 3175 C 303.175 0.813035 -1.70397 0
M  V30 3176 O 302.532 1.54274 -0.974979 0
M  V30 3177 C 302.583 -0.85159 -3.51326 0
M  V30 3178 O 302.304 -2.22157 -3.77595 0
M  V30 3179 C 303.805 -0.529831 -4.40122 0
M  V30 3180 H 301.025 -0.230593 -0.630133 0
M  V30 3181 H 303.569 -1.268 -1.60443 0
M  V30 3182 H 301.724 -0.243151 -3.86636 0
M  V30 3183 H 302.138 -2.2852 -4.721 0
M  V30 3184 H 303.612 -0.747348 -5.46917 0
M  V30 3185 H 304.089 0.535341 -4.35925 0
M  V30 3186 H 304.695 -1.11721 -4.10364 0
M  V30 3187 N 303.011 1.40521 -0.713556 0
M  V30 3188 C 303.943 2.29191 -0.0203126 0
M  V30 3189 C 304.956 1.45723 0.725864 0
M  V30 3190 O 306.145 1.69033 0.573581 0
M  V30 3191 C 303.245 3.2395 0.995486 0
M  V30 3192 C 302.418 4.36262 0.315256 0
M  V30 3193 C 301.477 5.11474 1.23616 0
M  V30 3194 O 300.503 5.64606 0.721719 0
M  V30 3195 N 301.705 5.20638 2.56743 0
M  V30 3196 H 304.47 2.89327 -0.781652 0
M  V30 3197 H 302.031 1.51869 -0.561022 0
M  V30 3198 H 304.023 3.71137 1.61368 0
M  V30 3199 H 302.593 2.64995 1.6582 0
M  V30 3200 H 301.813 3.91228 -0.483106 0
M  V30 3201 H 303.101 5.08558 -0.157004 0
M  V30 3202 H 302.499 4.7895 3.01037 0
M  V30 3203 H 301.056 5.71339 3.13712 0
M  V30 3204 N 304.489 0.459591 1.5075 0
M  V30 3205 C 305.437 -0.354678 2.2988 0
M  V30 3206 C 306.431 -1.00086 1.36672 0
M  V30 3207 O 307.637 -0.933277 1.53915 0
M  V30 3208 H 304.012 -0.13321 0.740107 0
M  V30 3209 H 305.983 0.333269 2.96533 0
M  V30 3210 C 304.732 -1.43073 3.169 0
M  V30 3211 H 304.055 -0.942882 3.88523 0
M  V30 3212 H 305.495 -1.97328 3.75284 0
M  V30 3213 C 303.954 -2.42633 2.33732 0
M  V30 3214 O 304.484 -3.47658 2.01238 0
M  V30 3215 N 302.69 -2.14066 1.9653 0
M  V30 3216 H 302.237 -1.28685 2.23155 0
M  V30 3217 H 302.195 -2.80917 1.41185 0
M  V30 3218 N 305.967 -1.56429 0.191757 0
M  V30 3219 C 306.899 -2.16154 -0.762245 0
M  V30 3220 C 307.912 -1.12247 -1.17917 0
M  V30 3221 O 309.101 -1.39353 -1.11548 0
M  V30 3222 C 306.201 -2.70606 -2.04024 0
M  V30 3223 C 305.374 -3.99381 -1.78364 0
M  V30 3224 C 304.433 -4.38692 -2.90578 0
M  V30 3225 O 303.459 -5.06179 -2.6033 0
M  V30 3226 N 304.661 -4.01922 -4.18854 0
M  V30 3227 H 307.426 -2.98643 -0.251526 0
M  V30 3228 H 304.987 -1.61897 0.00967373 0
M  V30 3229 H 306.979 -2.93891 -2.78227 0
M  V30 3230 H 305.549 -1.9259 -2.46227 0
M  V30 3231 H 304.769 -3.84262 -0.879581 0
M  V30 3232 H 306.057 -4.83445 -1.58614 0
M  V30 3233 H 305.455 -3.47631 -4.46283 0
M  V30 3234 H 304.012 -4.30165 -4.89695 0
M  V30 3235 N 307.445 0.0818655 -1.57387 0
M  V30 3236 C 308.67 0.799946 -1.91352 0
M  V30 3237 C 309.095 1.70833 -0.787258 0
M  V30 3238 O 308.453 1.79419 0.26048 0
M  V30 3239 C 308.501 1.57812 -3.24234 0
M  V30 3240 O 307.605 2.68806 -3.12757 0
M  V30 3241 H 306.946 0.21891 -0.626877 0
M  V30 3242 H 309.476 0.0531256 -2.04531 0
M  V30 3243 H 309.486 1.95952 -3.57864 0
M  V30 3244 H 308.161 0.911548 -4.05788 0
M  V30 3245 H 306.738 2.33597 -2.90666 0
M  V30 3246 N 308.923 1.53595 0.353017 0
M  V30 3247 C 309.87 1.80919 1.43308 0
M  V30 3248 C 310.84 0.654288 1.5267 0
M  V30 3249 O 312.025 0.897759 1.6836 0
M  V30 3250 C 309.165 2.01605 2.80089 0
M  V30 3251 C 308.278 3.29321 2.79593 0
M  V30 3252 C 307.413 3.40125 4.0803 0
M  V30 3253 C 306.452 4.61826 4.01725 0
M  V30 3254 N 305.589 4.69716 5.21834 0
M  V30 3255 H 310.429 2.73074 1.19308 0
M  V30 3256 H 307.966 1.35263 0.578131 0
M  V30 3257 H 309.924 2.11586 3.59565 0
M  V30 3258 H 308.554 1.12772 3.0246 0
M  V30 3259 H 307.606 3.28229 1.92276 0
M  V30 3260 H 308.918 4.18884 2.70809 0
M  V30 3261 H 308.072 3.49488 4.95927 0
M  V30 3262 H 306.811 2.48601 4.19582 0
M  V30 3263 H 305.816 4.52552 3.12213 0
M  V30 3264 H 307.041 5.54705 3.91764 0
M  V30 3265 H 304.987 3.81097 5.33948 0
M  V30 3266 H 304.904 5.53202 5.1527 0
M  V30 3267 H 306.172 4.83376 6.11529 0
M  V30 3268 N 310.401 -0.613514 1.45168 0
M  V30 3269 C 311.348 -1.72456 1.53387 0
M  V30 3270 C 312.318 -1.6169 0.380191 0
M  V30 3271 O 313.503 -1.81356 0.592836 0
M  V30 3272 C 310.643 -3.10753 1.50088 0
M  V30 3273 C 309.756 -3.32368 2.75963 0
M  V30 3274 C 308.891 -4.60737 2.64376 0
M  V30 3275 C 307.93 -4.7559 3.85332 0
M  V30 3276 N 307.067 -5.95253 3.72315 0
M  V30 3277 H 311.907 -1.64768 2.48305 0
M  V30 3278 H 309.444 -0.803503 1.23216 0
M  V30 3279 H 311.402 -3.90758 1.46164 0
M  V30 3280 H 310.032 -3.17413 0.587243 0
M  V30 3281 H 309.084 -2.4618 2.89999 0
M  V30 3282 H 310.396 -3.39218 3.65695 0
M  V30 3283 H 309.55 -5.48928 2.58385 0
M  V30 3284 H 308.289 -4.56275 1.72233 0
M  V30 3285 H 307.294 -3.85824 3.91688 0
M  V30 3286 H 308.519 -4.81854 4.78533 0
M  V30 3287 H 306.465 -5.91847 2.82937 0
M  V30 3288 H 306.382 -6.03236 4.55677 0
M  V30 3289 H 307.65 -6.85958 3.70246 0
M  V30 3290 N 311.879 -1.3236 -0.855495 0
M  V30 3291 C 312.842 -1.21164 -1.94556 0
M  V30 3292 C 313.842 -0.134908 -1.60233 0
M  V30 3293 O 315.032 -0.385249 -1.69887 0
M  V30 3294 C 312.164 -0.863192 -3.29791 0
M  V30 3295 H 313.357 -2.18038 -2.05911 0
M  V30 3296 H 310.91 -1.16179 -1.04557 0
M  V30 3297 H 311.645 0.103769 -3.24134 0
M  V30 3298 H 311.43 -1.64166 -3.56078 0
M  V30 3299 H 312.92 -0.809156 -4.09686 0
M  V30 3300 N 313.357 1.07166 -1.15556 0
M  V30 3301 C 314.267 2.17947 -0.868116 0
M  V30 3302 C 315.283 1.73297 0.156297 0
M  V30 3303 O 316.459 2.01392 -0.0182327 0
M  V30 3304 C 313.524 3.44789 -0.36355 0
M  V30 3305 C 312.585 4.03996 -1.45209 0
M  V30 3306 C 311.818 5.24783 -0.971508 0
M  V30 3307 O 312.041 5.70109 0.182194 0
M  V30 3308 O 310.975 5.75715 -1.75603 0
M  V30 3309 H 314.801 2.4503 -1.79427 0
M  V30 3310 H 312.386 1.16539 -0.934824 0
M  V30 3311 H 314.268 4.21307 -0.0887113 0
M  V30 3312 H 312.943 3.19253 0.534708 0
M  V30 3313 H 311.85 3.29009 -1.78056 0
M  V30 3314 H 313.183 4.33808 -2.32533 0
M  V30 3315 N 314.835 0.952656 1.25548 0
M  V30 3316 C 316.083 0.605176 1.92826 0
M  V30 3317 C 316.404 -0.860261 1.74999 0
M  V30 3318 O 315.674 -1.6125 1.11244 0
M  V30 3319 H 314.254 0.220832 0.713612 0
M  V30 3320 H 316.916 1.21047 1.52754 0
M  V30 3321 H 316.012 0.832798 3.00784 0
M  V30 3322 N 316.313 -1.40141 0.720998 0
M  V30 3323 C 317.276 -2.29058 0.0805834 0
M  V30 3324 C 318.276 -1.45632 -0.681758 0
M  V30 3325 O 319.466 -1.6648 -0.512856 0
M  V30 3326 C 316.598 -3.28925 -0.895593 0
M  V30 3327 H 317.791 -2.87191 0.863793 0
M  V30 3328 H 315.344 -1.48553 0.485975 0
M  V30 3329 H 316.079 -2.75822 -1.70566 0
M  V30 3330 H 315.864 -3.90519 -0.351766 0
M  V30 3331 H 317.354 -3.95494 -1.34069 0
M  V30 3332 N 317.792 -0.46758 -1.50504 0
M  V30 3333 C 319.203 -0.0116166 -1.86696 0
M  V30 3334 C 319.554 1.39202 -1.38265 0
M  V30 3335 O 318.679 2.0313 -0.746132 0
M  V30 3336 C 319.274 -0.0143044 -3.38797 0
M  V30 3337 C 317.833 0.386175 -3.74414 0
M  V30 3338 C 316.98 -0.401287 -2.74381 0
M  V30 3339 H 319.931 -0.682022 -1.43297 0
M  V30 3340 H 319.952 0.788641 -3.72237 0
M  V30 3341 H 319.464 -1.03602 -3.74016 0
M  V30 3342 H 317.565 1.41237 -3.44794 0
M  V30 3343 H 317.678 0.0899596 -4.79016 0
M  V30 3344 H 316.042 0.144536 -2.5429 0
M  V30 3345 H 316.825 -1.42244 -3.12444 0
M  V30 3346 N 319.27 1.56325 -0.20005 0
M  V30 3347 C 320.218 2.20666 0.735482 0
M  V30 3348 C 321.212 1.17934 1.21605 0
M  V30 3349 O 322.418 1.36068 1.17837 0
M  V30 3350 H 318.793 0.70725 0.255542 0
M  V30 3351 H 320.764 2.9792 0.169166 0
M  V30 3352 C 319.513 2.88391 1.94232 0
M  V30 3353 H 318.836 3.67185 1.58161 0
M  V30 3354 H 320.276 3.3684 2.57517 0
M  V30 3355 C 318.735 1.89692 2.78421 0
M  V30 3356 O 319.265 1.40032 3.76502 0
M  V30 3357 N 317.471 1.57813 2.44015 0
M  V30 3358 H 317.018 1.9839 1.64314 0
M  V30 3359 H 316.976 0.920325 3.00628 0
M  V30 3360 N 320.748 -0.0735177 1.57428 0
M  V30 3361 C 321.68 -1.11423 2.00294 0
M  V30 3362 C 322.693 -1.35084 0.908637 0
M  V30 3363 O 323.882 -1.33355 1.18654 0
M  V30 3364 C 320.982 -2.46548 2.32523 0
M  V30 3365 C 320.155 -2.42867 3.63778 0
M  V30 3366 C 319.214 -3.60087 3.83697 0
M  V30 3367 O 318.24 -3.41595 4.55304 0
M  V30 3368 N 319.442 -4.80372 3.25919 0
M  V30 3369 H 322.207 -0.749206 2.90184 0
M  V30 3370 H 319.768 -0.262195 1.59763 0
M  V30 3371 H 321.76 -3.23607 2.43024 0
M  V30 3372 H 320.33 -2.75059 1.48531 0
M  V30 3373 H 319.55 -1.51206 3.64047 0
M  V30 3374 H 320.838 -2.37506 4.49965 0
M  V30 3375 H 320.236 -4.983 2.67795 0
M  V30 3376 H 318.793 -5.54948 3.41871 0
M  V30 3377 N 322.226 -1.5378 -0.344866 0
M  V30 3378 C 323.474 -1.70625 -1.08311 0
M  V30 3379 C 323.795 -0.471447 -1.89215 0
M  V30 3380 O 323.065 0.514616 -1.8902 0
M  V30 3381 H 321.645 -0.629058 -0.402859 0
M  V30 3382 H 324.307 -1.9103 -0.386459 0
M  V30 3383 H 323.403 -2.57656 -1.76124 0
M  V30 3384 N 323.704 0.605807 -1.45491 0
M  V30 3385 C 325.12 0.926751 -1.29936 0
M  V30 3386 C 325.32 1.99896 -0.253706 0
M  V30 3387 O 324.376 2.50038 0.351737 0
M  V30 3388 C 325.689 1.36599 -2.67883 0
M  V30 3389 C 327.237 1.4801 -2.75793 0
M  V30 3390 C 327.712 1.95309 -4.14268 0
M  V30 3391 N 329.203 2.0254 -4.16571 0
M  V30 3392 C 329.938 2.40363 -5.20589 0
M  V30 3393 N 329.434 2.77143 -6.34952 0
M  V30 3394 N 331.227 2.40718 -5.07948 0
M  V30 3395 H 323.378 -0.102862 -2.12151 0
M  V30 3396 H 325.641 0.016639 -0.947854 0
M  V30 3397 H 325.347 0.652306 -3.45598 0
M  V30 3398 H 325.221 2.33215 -2.96463 0
M  V30 3399 H 327.608 2.1847 -1.98381 0
M  V30 3400 H 327.689 0.497041 -2.50925 0
M  V30 3401 H 327.333 1.25436 -4.92167 0
M  V30 3402 H 327.263 2.94532 -4.3653 0
M  V30 3403 H 329.754 1.76699 -3.34045 0
M  V30 3404 H 330.067 3.0489 -7.10114 0
M  V30 3405 H 328.412 2.74834 -6.3835 0
M  V30 3406 H 331.603 2.11392 -4.1765 0
M  V30 3407 H 331.776 2.69869 -5.89131 0
M  V30 3408 N 325.182 1.32811 0.848464 0
M  V30 3409 C 326.129 1.22265 1.95755 0
M  V30 3410 C 327.099 0.103413 1.65778 0
M  V30 3411 O 328.284 0.280033 1.88734 0
M  V30 3412 C 325.424 0.958014 3.31536 0
M  V30 3413 C 324.537 2.16262 3.73971 0
M  V30 3414 C 323.672 1.83295 4.98575 0
M  V30 3415 C 322.711 3.00041 5.33518 0
M  V30 3416 N 321.848 2.67125 6.49299 0
M  V30 3417 H 326.688 2.17128 2.04107 0
M  V30 3418 H 324.225 1.07982 0.998913 0
M  V30 3419 H 326.183 0.785052 4.09747 0
M  V30 3420 H 324.813 0.046159 3.22767 0
M  V30 3421 H 323.865 2.44565 2.91362 0
M  V30 3422 H 325.177 3.03572 3.95785 0
M  V30 3423 H 324.331 1.62586 5.84509 0
M  V30 3424 H 323.07 0.932078 4.7871 0
M  V30 3425 H 322.075 3.21374 4.46093 0
M  V30 3426 H 323.3 3.90869 5.55336 0
M  V30 3427 H 321.246 1.79586 6.3094 0
M  V30 3428 H 321.163 3.47965 6.71161 0
M  V30 3429 H 322.431 2.49861 7.3837 0
M  V30 3430 N 326.66 -1.06551 1.16123 0
M  V30 3431 C 327.623 -2.12132 0.867906 0
M  V30 3432 C 328.623 -1.60224 -0.135944 0
M  V30 3433 O 329.813 -1.73943 0.0946422 0
M  V30 3434 C 326.945 -3.396 0.297419 0
M  V30 3435 H 328.138 -2.39586 1.80385 0
M  V30 3436 H 325.691 -1.22574 0.969812 0
M  V30 3437 H 326.426 -3.17794 -0.64633 0
M  V30 3438 H 326.211 -3.78581 1.02073 0
M  V30 3439 H 327.701 -4.17455 0.110052 0
M  V30 3440 N 328.138 -0.959301 -1.25041 0
M  V30 3441 C 329.048 -0.489994 -2.29426 0
M  V30 3442 C 330.064 0.444944 -1.68215 0
M  V30 3443 O 331.24 0.320046 -1.98841 0
M  V30 3444 C 328.305 0.220309 -3.45999 0
M  V30 3445 C 327.366 -0.753418 -4.22637 0
M  V30 3446 C 326.599 -0.076918 -5.33645 0
M  V30 3447 O 326.822 1.13649 -5.58963 0
M  V30 3448 O 325.756 -0.764824 -5.97021 0
M  V30 3449 H 329.582 -1.35755 -2.71669 0
M  V30 3450 H 327.167 -0.725961 -1.30576 0
M  V30 3451 H 329.049 0.619677 -4.16819 0
M  V30 3452 H 327.724 1.06296 -3.0575 0
M  V30 3453 H 326.631 -1.20308 -3.54227 0
M  V30 3454 H 327.964 -1.56423 -4.66683 0
M  V30 3455 N 329.616 1.39756 -0.72842 0
M  V30 3456 C 330.864 2.00248 -0.272946 0
M  V30 3457 C 331.185 1.58077 1.14178 0
M  V30 3458 O 330.455 0.826014 1.77634 0
M  V30 3459 H 329.035 0.740554 -0.0979247 0
M  V30 3460 H 331.697 1.70903 -0.936912 0
M  V30 3461 H 330.793 3.10495 -0.316142 0
M  V30 3462 N 331.094 0.475555 1.50254 0
M  V30 3463 C 332.322 -0.0754493 2.06762 0
M  V30 3464 C 332.737 -1.33111 1.33891 0
M  V30 3465 O 332.094 -1.77846 0.40952 0
M  V30 3466 C 332.145 -0.359008 3.59713 0
M  V30 3467 O 331.866 0.846851 4.29837 0
M  V30 3468 C 333.367 -0.956484 4.32858 0
M  V30 3469 H 330.587 0.00907525 0.670939 0
M  V30 3470 H 333.131 0.665618 1.93364 0
M  V30 3471 H 331.286 -1.05001 3.72899 0
M  V30 3472 H 331.7 0.594162 5.21124 0
M  V30 3473 H 333.174 -1.10463 5.40834 0
M  V30 3474 H 333.651 -1.94775 3.93649 0
M  V30 3475 H 334.257 -0.303723 4.24214 0
M  V30 3476 N 332.573 -1.56217 0.208337 0
M  V30 3477 C 333.984 -1.84243 -0.301904 0
M  V30 3478 C 334.335 -1.12939 -1.60434 0
M  V30 3479 O 333.46 -0.39461 -2.12772 0
M  V30 3480 C 334.055 -3.34231 -0.554543 0
M  V30 3481 C 332.614 -3.62621 -1.00912 0
M  V30 3482 C 331.761 -2.77224 -0.064933 0
M  V30 3483 H 334.712 -1.52712 0.431833 0
M  V30 3484 H 334.733 -3.5372 -1.40223 0
M  V30 3485 H 334.245 -3.86099 0.393561 0
M  V30 3486 H 332.346 -3.16197 -1.97104 0
M  V30 3487 H 332.459 -4.7071 -0.892674 0
M  V30 3488 H 330.823 -2.48256 -0.56929 0
M  V30 3489 H 331.606 -3.31887 0.877851 0
M  V30 3490 N 334.051 0.0651679 -1.57465 0
M  V30 3491 C 334.999 1.09542 -2.05191 0
M  V30 3492 C 335.993 1.39675 -0.958509 0
M  V30 3493 O 337.199 1.39003 -1.14359 0
M  V30 3494 H 333.574 0.370623 -0.654326 0
M  V30 3495 H 335.545 0.666802 -2.90854 0
M  V30 3496 C 334.294 2.39881 -2.51699 0
M  V30 3497 H 333.617 2.17547 -3.3543 0
M  V30 3498 H 335.057 3.104 -2.88839 0
M  V30 3499 C 333.516 3.0631 -1.40271 0
M  V30 3500 O 334.046 3.94664 -0.748523 0
M  V30 3501 N 332.252 2.67041 -1.14618 0
M  V30 3502 H 331.799 1.95281 -1.67997 0
M  V30 3503 H 331.757 3.1181 -0.402688 0
M  V30 3504 N 335.529 1.53961 0.336706 0
M  V30 3505 C 336.461 1.78751 1.4346 0
M  V30 3506 C 337.474 0.669019 1.48418 0
M  V30 3507 O 338.663 0.945884 1.51378 0
M  V30 3508 C 335.763 1.87844 2.82078 0
M  V30 3509 C 334.936 3.17854 3.00479 0
M  V30 3510 C 333.995 3.17816 4.19379 0
M  V30 3511 O 333.021 3.91511 4.13168 0
M  V30 3512 N 334.223 2.40669 5.2826 0
M  V30 3513 H 336.988 2.73493 1.22563 0
M  V30 3514 H 334.549 1.53096 0.526625 0
M  V30 3515 H 336.541 1.85261 3.59806 0
M  V30 3516 H 335.111 1.00257 2.96086 0
M  V30 3517 H 334.331 3.33504 2.10163 0
M  V30 3518 H 335.619 4.03718 3.0966 0
M  V30 3519 H 335.017 1.8036 5.36178 0
M  V30 3520 H 333.574 2.43877 6.04456 0
M  V30 3521 N 337.007 -0.598083 1.45811 0
M  V30 3522 C 338.255 -1.35413 1.50026 0
M  V30 3523 C 338.576 -1.94444 0.147177 0
M  V30 3524 O 337.846 -1.77701 -0.824571 0
M  V30 3525 H 336.426 -0.502727 0.552517 0
M  V30 3526 H 339.088 -0.701606 1.81834 0
M  V30 3527 H 338.184 -2.16871 2.2444 0
M  V30 3528 N 338.485 -1.33259 -0.841409 0
M  V30 3529 C 339.432 -1.23302 -1.95103 0
M  V30 3530 C 340.402 -0.112204 -1.65721 0
M  V30 3531 O 341.587 -0.290038 -1.88583 0
M  V30 3532 C 338.727 -0.975583 -3.31023 0
M  V30 3533 C 337.84 -2.18243 -3.72819 0
M  V30 3534 C 336.975 -1.85936 -4.97595 0
M  V30 3535 C 336.014 -3.02866 -5.3192 0
M  V30 3536 N 335.151 -2.70565 -6.47873 0
M  V30 3537 H 339.991 -2.18207 -2.02952 0
M  V30 3538 H 337.528 -1.0851 -0.993173 0
M  V30 3539 H 339.486 -0.80677 -4.09325 0
M  V30 3540 H 338.116 -0.0632755 -3.22738 0
M  V30 3541 H 337.168 -2.46107 -2.90061 0
M  V30 3542 H 338.48 -3.05666 -3.94169 0
M  V30 3543 H 337.634 -1.65684 -5.83638 0
M  V30 3544 H 336.373 -0.957452 -4.78209 0
M  V30 3545 H 335.378 -3.23736 -4.44382 0
M  V30 3546 H 336.603 -3.93809 -5.53255 0
M  V30 3547 H 334.549 -1.8293 -6.29978 0
M  V30 3548 H 334.466 -3.51519 -6.69306 0
M  V30 3549 H 335.734 -2.53774 -7.37034 0
M  V30 3550 N 339.963 1.05934 -1.16686 0
M  V30 3551 C 340.91 2.13499 -0.876748 0
M  V30 3552 C 341.88 1.65162 0.176299 0
M  V30 3553 O 343.065 1.90757 0.0407143 0
M  V30 3554 C 340.205 3.42912 -0.387967 0
M  V30 3555 C 339.318 4.04964 -1.50426 0
M  V30 3556 C 338.453 5.22266 -0.970125 0
M  V30 3557 C 337.492 5.76309 -2.06238 0
M  V30 3558 N 336.629 6.84922 -1.54356 0
M  V30 3559 H 341.469 2.37654 -1.7979 0
M  V30 3560 H 339.006 1.16598 -0.896843 0
M  V30 3561 H 340.964 4.17111 -0.086186 0
M  V30 3562 H 339.594 3.18963 0.496235 0
M  V30 3563 H 338.646 3.28277 -1.92193 0
M  V30 3564 H 339.958 4.41122 -2.32836 0
M  V30 3565 H 339.112 6.03506 -0.621743 0
M  V30 3566 H 337.851 4.87564 -0.115377 0
M  V30 3567 H 336.856 4.93704 -2.41942 0
M  V30 3568 H 338.081 6.13062 -2.92115 0
M  V30 3569 H 336.027 6.52131 -0.711406 0
M  V30 3570 H 335.944 7.20043 -2.30379 0
M  V30 3571 H 337.212 7.69832 -1.22387 0
M  V30 3572 N 341.441 0.965919 1.2453 0
M  V30 3573 C 342.669 0.644385 1.96609 0
M  V30 3574 C 343.084 -0.785823 1.71669 0
M  V30 3575 O 342.441 -1.52703 0.999399 0
M  V30 3576 C 342.492 0.907375 3.49927 0
M  V30 3577 O 342.213 2.28136 3.74013 0
M  V30 3578 C 343.714 0.599784 4.39224 0
M  V30 3579 H 340.934 0.240588 0.626385 0
M  V30 3580 H 343.478 1.29337 1.58405 0
M  V30 3581 H 341.633 0.304631 3.862 0
M  V30 3582 H 342.047 2.36002 4.68405 0
M  V30 3583 H 343.521 0.834263 5.45659 0
M  V30 3584 H 343.998 -0.465921 4.36722 0
M  V30 3585 H 344.604 1.18235 4.08535 0
M  V30 3586 N 342.919 -1.39368 0.735821 0
M  V30 3587 C 343.829 -2.34395 0.0979693 0
M  V30 3588 C 344.845 -1.58361 -0.720968 0
M  V30 3589 O 346.021 -1.90648 -0.649245 0
M  V30 3590 C 343.086 -3.37393 -0.797916 0
M  V30 3591 C 342.147 -4.29287 0.0333662 0
M  V30 3592 C 341.38 -5.27365 -0.819854 0
M  V30 3593 O 341.603 -5.31959 -2.05855 0
M  V30 3594 O 340.537 -6.01389 -0.248079 0
M  V30 3595 H 344.363 -2.90601 0.882315 0
M  V30 3596 H 341.948 -1.40909 0.4965 0
M  V30 3597 H 343.83 -4.00505 -1.31048 0
M  V30 3598 H 342.505 -2.83571 -1.56106 0
M  V30 3599 H 341.412 -3.69395 0.591475 0
M  V30 3600 H 342.745 -4.86317 0.758752 0
M  V30 3601 N 344.397 -0.483516 -1.5 0
M  V30 3602 C 345.645 0.067027 -2.01989 0
M  V30 3603 C 345.966 1.3909 -1.36671 0
M  V30 3604 O 345.236 1.88978 -0.516152 0
M  V30 3605 H 343.816 0.0277606 -0.746484 0
M  V30 3606 H 346.478 -0.636773 -1.84204 0
M  V30 3607 H 345.574 0.209484 -3.11396 0
M  V30 3608 N 345.875 1.56104 -0.216619 0
M  V30 3609 C 347.103 2.02563 0.421413 0
M  V30 3610 C 347.518 1.0965 1.53695 0
M  V30 3611 O 346.875 0.10521 1.82196 0
M  V30 3612 C 346.926 3.48584 0.957665 0
M  V30 3613 O 346.647 4.37953 -0.113389 0
M  V30 3614 C 348.148 4.10664 1.66943 0
M  V30 3615 H 345.368 0.662944 0.103665 0
M  V30 3616 H 347.912 2.01793 -0.331629 0
M  V30 3617 H 346.067 3.49985 1.661 0
M  V30 3618 H 346.481 5.23704 0.288932 0
M  V30 3619 H 347.955 5.14622 1.99671 0
M  V30 3620 H 348.432 3.55373 2.58083 0
M  V30 3621 H 349.038 4.13098 1.01142 0
M  V30 3622 N 347.353 -0.0568162 1.57498 0
M  V30 3623 C 348.764 -0.606858 1.76562 0
M  V30 3624 C 349.115 -1.77114 0.844094 0
M  V30 3625 O 348.24 -2.16376 0.0318911 0
M  V30 3626 C 348.835 -1.10766 3.20182 0
M  V30 3627 C 347.394 -1.60344 3.40539 0
M  V30 3628 C 346.541 -0.529311 2.72201 0
M  V30 3629 H 349.492 0.169393 1.57793 0
M  V30 3630 H 349.513 -1.97602 3.25167 0
M  V30 3631 H 349.025 -0.26006 3.87228 0
M  V30 3632 H 347.126 -2.47379 2.78629 0
M  V30 3633 H 347.239 -1.67006 4.4905 0
M  V30 3634 H 345.603 -0.977893 2.35179 0
M  V30 3635 H 346.386 0.308352 3.41912 0
M  V30 3636 N 348.832 -1.54138 -0.328536 0
M  V30 3637 C 349.78 -1.83894 -1.42428 0
M  V30 3638 C 350.774 -0.710478 -1.53781 0
M  V30 3639 O 351.98 -0.894062 -1.56226 0
M  V30 3640 H 348.355 -0.582837 -0.475189 0
M  V30 3641 H 350.326 -2.75537 -1.14552 0
M  V30 3642 C 349.075 -2.07866 -2.78724 0
M  V30 3643 H 348.398 -2.94158 -2.7076 0
M  V30 3644 H 349.838 -2.32644 -3.54476 0
M  V30 3645 C 348.297 -0.868689 -3.25508 0
M  V30 3646 O 348.827 -0.0754908 -4.01629 0
M  V30 3647 N 347.033 -0.681711 -2.82491 0
M  V30 3648 H 346.58 -1.32838 -2.20708 0
M  V30 3649 H 346.538 0.126374 -3.14146 0
M  V30 3650 N 350.31 0.590341 -1.46126 0
M  V30 3651 C 351.242 1.71427 -1.52136 0
M  V30 3652 C 352.255 1.57542 -0.41042 0
M  V30 3653 O 353.444 1.65106 -0.678389 0
M  V30 3654 C 350.544 3.09605 -1.37834 0
M  V30 3655 C 349.717 3.49566 -2.62912 0
M  V30 3656 C 348.776 4.66773 -2.42918 0
M  V30 3657 O 347.802 4.73019 -3.1661 0
M  V30 3658 N 349.004 5.61161 -1.4859 0
M  V30 3659 H 351.769 1.66728 -2.49042 0
M  V30 3660 H 349.33 0.776113 -1.42085 0
M  V30 3661 H 351.322 3.85796 -1.22243 0
M  V30 3662 H 349.892 3.08714 -0.491393 0
M  V30 3663 H 349.112 2.63158 -2.93499 0
M  V30 3664 H 350.4 3.73028 -3.46017 0
M  V30 3665 H 349.798 5.58844 -0.87808 0
M  V30 3666 H 348.355 6.36814 -1.38965 0
M  V30 3667 N 351.788 1.33704 0.83433 0
M  V30 3668 C 353.036 1.25169 1.58673 0
M  V30 3669 C 353.357 -0.18127 1.94156 0
M  V30 3670 O 352.627 -1.11113 1.6134 0
M  V30 3671 H 351.207 0.4603 0.58833 0
M  V30 3672 H 353.869 1.67478 0.996847 0
M  V30 3673 H 352.965 1.84856 2.51465 0
M  V30 3674 N 353.266 -1.05314 1.17247 0
M  V30 3675 C 354.213 -2.13031 0.888058 0
M  V30 3676 C 355.183 -1.65253 -0.167537 0
M  V30 3677 O 356.368 -1.90775 -0.0305974 0
M  V30 3678 C 353.508 -3.42702 0.406147 0
M  V30 3679 C 352.621 -4.04161 1.52572 0
M  V30 3680 C 351.756 -5.21744 0.997808 0
M  V30 3681 C 350.795 -5.75207 2.09291 0
M  V30 3682 N 349.932 -6.84094 1.57986 0
M  V30 3683 H 354.772 -2.36698 1.81048 0
M  V30 3684 H 352.309 -1.16121 0.903013 0
M  V30 3685 H 354.267 -4.17059 0.108305 0
M  V30 3686 H 352.897 -3.19222 -0.479313 0
M  V30 3687 H 351.949 -3.27253 1.93931 0
M  V30 3688 H 353.261 -4.39881 2.35172 0
M  V30 3689 H 352.415 -6.03168 0.653739 0
M  V30 3690 H 351.154 -4.87495 0.141232 0
M  V30 3691 H 350.159 -4.92414 2.44557 0
M  V30 3692 H 351.384 -6.11505 2.95362 0
M  V30 3693 H 349.33 -6.51745 0.74598 0
M  V30 3694 H 349.247 -7.18811 2.34195 0
M  V30 3695 H 350.515 -7.69172 1.26468 0
M  V30 3696 N 354.744 -0.972509 -1.24016 0
M  V30 3697 C 355.691 -0.505969 -2.25186 0
M  V30 3698 C 356.661 0.451009 -1.5986 0
M  V30 3699 O 357.846 0.360307 -1.87367 0
M  V30 3700 C 354.986 0.193089 -3.44559 0
M  V30 3701 C 354.099 -0.803222 -4.24467 0
M  V30 3702 C 353.234 -0.0797793 -5.3114 0
M  V30 3703 C 352.273 -1.06583 -6.02749 0
M  V30 3704 N 351.41 -0.372074 -7.01113 0
M  V30 3705 H 356.25 -1.37351 -2.64459 0
M  V30 3706 H 353.787 -0.688419 -1.29997 0
M  V30 3707 H 355.745 0.615125 -4.1264 0
M  V30 3708 H 354.375 1.02455 -3.06109 0
M  V30 3709 H 353.427 -1.34368 -3.55878 0
M  V30 3710 H 354.739 -1.55494 -4.73944 0
M  V30 3711 H 353.893 0.400015 -6.0538 0
M  V30 3712 H 352.632 0.704597 -4.82583 0
M  V30 3713 H 351.637 -1.55645 -5.27309 0
M  V30 3714 H 352.862 -1.85074 -6.53395 0
M  V30 3715 H 350.808 0.393238 -6.5482 0
M  V30 3716 H 350.725 -1.06258 -7.48495 0
M  V30 3717 H 351.993 0.0855932 -7.79453 0
M  V30 3718 N 356.222 1.38976 -0.743202 0
M  V30 3719 C 357.185 2.28901 -0.117014 0
M  V30 3720 C 358.185 1.46698 0.658503 0
M  V30 3721 O 359.375 1.67274 0.486305 0
M  V30 3722 C 356.507 3.30309 0.84315 0
M  V30 3723 H 357.7 2.8578 -0.909373 0
M  V30 3724 H 355.253 1.47761 -0.509547 0
M  V30 3725 H 355.988 2.785 1.66157 0
M  V30 3726 H 355.773 3.91029 0.289594 0
M  V30 3727 H 357.263 3.97577 1.2776 0
M  V30 3728 N 357.7 0.491464 1.49741 0
M  V30 3729 C 358.61 -0.296835 2.32715 0
M  V30 3730 C 359.626 -0.976536 1.44013 0
M  V30 3731 O 360.802 -0.960023 1.77047 0
M  V30 3732 C 357.867 -1.35288 3.19215 0
M  V30 3733 C 356.928 -0.687632 4.23757 0
M  V30 3734 C 356.161 -1.69336 5.06123 0
M  V30 3735 O 356.384 -2.92219 4.89861 0
M  V30 3736 O 355.318 -1.25394 5.88693 0
M  V30 3737 H 359.144 0.382048 3.01287 0
M  V30 3738 H 356.729 0.252953 1.47243 0
M  V30 3739 H 358.611 -1.96411 3.72828 0
M  V30 3740 H 357.286 -2.01487 2.53347 0
M  V30 3741 H 356.193 -0.0369159 3.74082 0
M  V30 3742 H 357.526 -0.0682566 4.92153 0
M  V30 3743 N 359.178 -1.55987 0.224894 0
M  V30 3744 C 360.426 -1.97998 -0.405099 0
M  V30 3745 C 360.747 -1.11387 -1.60056 0
M  V30 3746 O 360.017 -0.191645 -1.9496 0
M  V30 3747 H 358.597 -0.731235 -0.152658 0
M  V30 3748 H 361.259 -1.92279 0.318567 0
M  V30 3749 H 360.355 -3.03463 -0.729167 0
M  V30 3750 N 360.656 0.0484629 -1.57525 0
M  V30 3751 C 361.884 0.755421 -1.92616 0
M  V30 3752 C 362.299 1.69919 -0.822984 0
M  V30 3753 O 361.656 1.81378 0.202085 0
M  V30 3754 C 361.707 1.52915 -3.27566 0
M  V30 3755 O 361.428 0.62329 -4.33644 0
M  V30 3756 C 362.929 2.33502 -3.76818 0
M  V30 3757 H 360.149 0.213465 -0.63614 0
M  V30 3758 H 362.693 0.0117698 -2.04497 0
M  V30 3759 H 360.848 2.22486 -3.17142 0
M  V30 3760 H 361.262 1.16383 -5.11425 0
M  V30 3761 H 362.736 2.83214 -4.73808 0
M  V30 3762 H 363.213 3.14068 -3.07014 0
M  V30 3763 H 363.819 1.69043 -3.90262 0
M  V30 3764 N 362.134 1.5431 0.320358 0
M  V30 3765 C 363.545 1.63872 0.894594 0
M  V30 3766 C 363.896 0.534847 1.88769 0
M  V30 3767 O 363.021 -0.331732 2.13842 0
M  V30 3768 C 363.616 2.97049 1.62934 0
M  V30 3769 C 362.175 3.08796 2.15226 0
M  V30 3770 C 361.322 2.59456 0.978671 0
M  V30 3771 H 364.273 1.58398 0.0978544 0
M  V30 3772 H 364.294 2.87388 2.49376 0
M  V30 3773 H 363.806 3.7737 0.906302 0
M  V30 3774 H 361.907 2.33156 2.90636 0
M  V30 3775 H 362.02 4.14649 2.40006 0
M  V30 3776 H 360.384 2.1543 1.35875 0
M  V30 3777 H 361.167 3.42237 0.269895 0
M  V30 3778 N 363.613 -0.582584 1.46437 0
M  V30 3779 C 364.561 -1.71272 1.5738 0
M  V30 3780 C 365.555 -1.63524 0.44229 0
M  V30 3781 O 366.761 -1.69016 0.619166 0
M  V30 3782 H 363.136 -0.566273 0.494813 0
M  V30 3783 H 365.107 -1.59174 2.52401 0
M  V30 3784 C 363.856 -3.09658 1.58136 0
M  V30 3785 H 363.179 -3.16291 2.44541 0
M  V30 3786 H 364.619 -3.88494 1.69847 0
M  V30 3787 C 363.078 -3.3547 0.310026 0
M  V30 3788 O 363.608 -3.97199 -0.599683 0
M  V30 3789 N 361.814 -2.89925 0.197901 0
M  V30 3790 H 361.361 -2.39873 0.93909 0
M  V30 3791 H 361.319 -3.07568 -0.65185 0
M  V30 3792 N 365.091 -1.34144 -0.827227 0
M  V30 3793 C 366.023 -1.21206 -1.9453 0
M  V30 3794 C 367.036 -0.140176 -1.62195 0
M  V30 3795 O 368.225 -0.391647 -1.7415 0
M  V30 3796 C 365.325 -0.839141 -3.28347 0
M  V30 3797 C 364.498 -2.0051 -3.88734 0
M  V30 3798 C 363.557 -1.61128 -5.00923 0
M  V30 3799 O 362.583 -2.32726 -5.19449 0
M  V30 3800 N 363.785 -0.522958 -5.7814 0
M  V30 3801 H 366.55 -2.17525 -2.06162 0
M  V30 3802 H 364.111 -1.27043 -1.00358 0
M  V30 3803 H 366.103 -0.557556 -4.00841 0
M  V30 3804 H 364.673 0.0337293 -3.12582 0
M  V30 3805 H 363.893 -2.45166 -3.08686 0
M  V30 3806 H 365.181 -2.78498 -4.25812 0
M  V30 3807 H 364.579 0.0723518 -5.65654 0
M  V30 3808 H 363.136 -0.301089 -6.51104 0
M  V30 3809 N 366.569 1.04691 -1.17803 0
M  V30 3810 C 367.817 1.7743 -0.967617 0
M  V30 3811 C 368.138 1.88359 0.504574 0
M  V30 3812 O 367.408 1.40402 1.36617 0
M  V30 3813 H 365.988 0.657242 -0.355024 0
M  V30 3814 H 368.65 1.2638 -1.48371 0
M  V30 3815 H 367.746 2.78924 -1.40027 0
M  V30 3816 N 368.047 0.979072 1.23499 0
M  V30 3817 C 368.994 0.517904 2.24914 0
M  V30 3818 C 369.964 -0.442525 1.60097 0
M  V30 3819 O 371.149 -0.350365 1.87556 0
M  V30 3820 C 368.289 -0.174813 3.44657 0
M  V30 3821 C 367.402 0.825721 4.24035 0
M  V30 3822 C 366.537 0.107946 5.3109 0
M  V30 3823 C 365.576 1.09778 6.02175 0
M  V30 3824 N 364.713 0.40925 7.00906 0
M  V30 3825 H 369.553 1.38751 2.63727 0
M  V30 3826 H 367.09 0.695303 1.2963 0
M  V30 3827 H 369.048 -0.593233 4.12961 0
M  V30 3828 H 367.678 -1.0083 3.06648 0
M  V30 3829 H 366.73 1.36253 3.55161 0
M  V30 3830 H 368.042 1.58005 4.73113 0
M  V30 3831 H 367.196 -0.367904 6.05583 0
M  V30 3832 H 365.935 -0.678994 4.8295 0
M  V30 3833 H 364.94 1.5844 5.26476 0
M  V30 3834 H 366.165 1.88536 6.52404 0
M  V30 3835 H 364.111 -0.358506 6.5502 0
M  V30 3836 H 364.028 1.10226 7.47921 0
M  V30 3837 H 365.296 -0.0442557 7.79487 0
M  V30 3838 N 369.525 -1.3858 0.750561 0
M  V30 3839 C 370.472 -2.30483 0.120835 0
M  V30 3840 C 371.442 -1.50022 -0.712923 0
M  V30 3841 O 372.627 -1.78662 -0.669676 0
M  V30 3842 C 369.767 -3.36431 -0.768666 0
M  V30 3843 C 368.88 -4.31927 0.0793922 0
M  V30 3844 C 368.015 -5.24944 -0.81283 0
M  V30 3845 C 367.054 -6.12088 0.0390447 0
M  V30 3846 N 366.191 -6.97412 -0.809969 0
M  V30 3847 H 371.031 -2.83761 0.91015 0
M  V30 3848 H 368.568 -1.39707 0.460463 0
M  V30 3849 H 370.526 -3.96462 -1.29898 0
M  V30 3850 H 369.156 -2.8457 -1.5238 0
M  V30 3851 H 368.208 -3.73382 0.727303 0
M  V30 3852 H 369.52 -4.93319 0.737401 0
M  V30 3853 H 368.674 -5.90078 -1.41042 0
M  V30 3854 H 367.413 -4.63911 -1.50458 0
M  V30 3855 H 366.418 -5.45952 0.649328 0
M  V30 3856 H 367.643 -6.75189 0.727809 0
M  V30 3857 H 365.589 -6.38931 -1.48672 0
M  V30 3858 H 365.506 -7.55712 -0.208789 0
M  V30 3859 H 366.774 -7.66959 -1.39263 0
M  V30 3860 N 371.003 -0.499398 -1.49478 0
M  V30 3861 C 371.966 0.268838 -2.27618 0
M  V30 3862 C 372.966 0.895383 -1.33565 0
M  V30 3863 O 374.156 0.760164 -1.56739 0
M  V30 3864 C 371.288 1.38559 -3.11471 0
M  V30 3865 H 372.481 -0.416812 -2.96989 0
M  V30 3866 H 370.034 -0.254313 -1.54217 0
M  V30 3867 H 370.769 2.10544 -2.46661 0
M  V30 3868 H 370.554 0.941797 -3.80621 0
M  V30 3869 H 372.044 1.92678 -3.70493 0
M  V30 3870 N 372.481 1.55866 -0.233164 0
M  V30 3871 C 373.391 2.24431 0.683217 0
M  V30 3872 C 374.407 1.2558 1.2044 0
M  V30 3873 O 375.583 1.58422 1.24356 0
M  V30 3874 C 372.648 2.91979 1.86947 0
M  V30 3875 C 371.709 4.06204 1.38912 0
M  V30 3876 C 370.942 4.70522 2.51883 0
M  V30 3877 O 371.165 4.33865 3.70293 0
M  V30 3878 O 370.099 5.59296 2.22423 0
M  V30 3879 H 373.925 3.03426 0.129059 0
M  V30 3880 H 371.51 1.494 -0.0022283 0
M  V30 3881 H 373.392 3.34573 2.56201 0
M  V30 3882 H 372.067 2.15935 2.41151 0
M  V30 3883 H 370.974 3.68155 0.664259 0
M  V30 3884 H 372.307 4.84025 0.893328 0
M  V30 3885 N 373.959 -0.0401083 1.57549 0
M  V30 3886 C 375.207 -0.731677 1.8839 0
M  V30 3887 C 375.528 -1.76481 0.829425 0
M  V30 3888 O 374.798 -1.95411 -0.1383 0
M  V30 3889 H 373.378 -0.273225 0.695239 0
M  V30 3890 H 376.04 -0.00867725 1.94898 0
M  V30 3891 H 375.136 -1.22816 2.86919 0
M  V30 3892 N 375.437 -1.54477 -0.31217 0
M  V30 3893 C 376.665 -1.77205 -1.068 0
M  V30 3894 C 377.08 -0.526114 -1.81321 0
M  V30 3895 O 376.437 0.503647 -1.75413 0
M  V30 3896 C 376.488 -2.97253 -2.05725 0
M  V30 3897 O 376.209 -4.1703 -1.34228 0
M  V30 3898 C 377.71 -3.32281 -2.93435 0
M  V30 3899 H 374.93 -0.591287 -0.317208 0
M  V30 3900 H 377.474 -2.01398 -0.354834 0
M  V30 3901 H 375.629 -2.753 -2.72559 0
M  V30 3902 H 376.043 -4.84636 -2.00571 0
M  V30 3903 H 377.517 -4.19551 -3.58721 0
M  V30 3904 H 377.994 -2.49945 -3.61143 0
M  V30 3905 H 378.6 -3.56353 -2.32147 0
M  V30 3906 N 376.915 0.57481 -1.46744 0
M  V30 3907 C 378.326 1.15695 -1.46532 0
M  V30 3908 C 378.677 1.95068 -0.210425 0
M  V30 3909 O 377.802 2.05241 0.685944 0
M  V30 3910 C 378.397 2.1048 -2.65487 0
M  V30 3911 C 376.956 2.64002 -2.68291 0
M  V30 3912 C 376.103 1.40026 -2.39349 0
M  V30 3913 H 379.054 0.362325 -1.54509 0
M  V30 3914 H 379.075 2.94074 -2.41455 0
M  V30 3915 H 378.587 1.52683 -3.56805 0
M  V30 3916 H 376.688 3.25646 -1.81067 0
M  V30 3917 H 376.801 3.06197 -3.68483 0
M  V30 3918 H 375.165 1.70106 -1.89568 0
M  V30 3919 H 375.948 0.840485 -3.32852 0
M  V30 3920 N 378.394 1.34581 0.820102 0
M  V30 3921 C 379.342 1.26401 1.95258 0
M  V30 3922 C 380.336 0.161553 1.68628 0
M  V30 3923 O 381.542 0.326703 1.7701 0
M  V30 3924 H 377.917 0.392749 0.64129 0
M  V30 3925 H 379.888 2.22105 1.99279 0
M  V30 3926 C 378.637 1.03919 3.31807 0
M  V30 3927 H 377.96 1.87984 3.52848 0
M  V30 3928 H 379.4 1.02232 4.11491 0
M  V30 3929 C 377.859 -0.257433 3.35915 0
M  V30 3930 O 378.389 -1.25784 3.81499 0
M  V30 3931 N 376.595 -0.291524 2.89134 0
M  V30 3932 H 376.142 0.523161 2.52232 0
M  V30 3933 H 376.1 -1.15883 2.92264 0
M  V30 3934 N 379.872 -1.04064 1.18357 0
M  V30 3935 C 380.804 -2.12114 0.868358 0
M  V30 3936 C 381.817 -1.62247 -0.134045 0
M  V30 3937 O 383.006 -1.78253 0.0937933 0
M  V30 3938 C 380.106 -3.37773 0.276132 0
M  V30 3939 C 379.279 -4.16874 1.3242 0
M  V30 3940 C 378.338 -5.20861 0.747662 0
M  V30 3941 O 377.364 -5.51141 1.42239 0
M  V30 3942 N 378.566 -5.78715 -0.454823 0
M  V30 3943 H 381.331 -2.39748 1.79836 0
M  V30 3944 H 378.892 -1.20258 1.08396 0
M  V30 3945 H 380.884 -4.04513 -0.123133 0
M  V30 3946 H 379.454 -3.07581 -0.557895 0
M  V30 3947 H 378.674 -3.45456 1.89878 0
M  V30 3948 H 379.962 -4.66516 2.03078 0
M  V30 3949 H 379.36 -5.56415 -1.02073 0
M  V30 3950 H 377.917 -6.46921 -0.79601 0
M  V30 3951 N 381.35 -0.985608 -1.22978 0
M  V30 3952 C 382.598 -0.656087 -1.91154 0
M  V30 3953 C 382.919 0.813561 -1.77218 0
M  V30 3954 O 382.189 1.58244 -1.1548 0
M  V30 3955 H 380.769 -0.239674 -0.707506 0
M  V30 3956 H 383.431 -1.25054 -1.49491 0
M  V30 3957 H 382.527 -0.912253 -2.9847 0
M  V30 3958 N 382.828 1.3818 -0.7579 0
M  V30 3959 C 383.775 2.30416 -0.133057 0
M  V30 3960 C 384.745 1.50398 0.704957 0
M  V30 3961 O 385.93 1.79014 0.660192 0
M  V30 3962 C 383.07 3.36834 0.750813 0
M  V30 3963 C 382.183 4.31879 -0.102297 0
M  V30 3964 C 381.318 5.25368 0.784979 0
M  V30 3965 C 380.357 6.12058 -0.0715046 0
M  V30 3966 N 379.494 6.97832 0.772972 0
M  V30 3967 H 384.334 2.83274 -0.925186 0
M  V30 3968 H 381.871 1.39461 -0.467866 0
M  V30 3969 H 383.829 3.97145 1.27794 0
M  V30 3970 H 382.459 2.85374 1.50868 0
M  V30 3971 H 381.511 3.72991 -0.747095 0
M  V30 3972 H 382.823 4.92921 -0.763552 0
M  V30 3973 H 381.977 5.90818 1.37911 0
M  V30 3974 H 380.716 4.64703 1.47996 0
M  V30 3975 H 379.721 5.456 -0.678272 0
M  V30 3976 H 380.946 6.74793 -0.763606 0
M  V30 3977 H 378.892 6.3971 1.45282 0
M  V30 3978 H 378.809 7.55812 0.168709 0
M  V30 3979 H 380.077 7.67687 1.35194 0
M  V30 3980 N 384.306 0.507319 1.49211 0
M  V30 3981 C 385.253 -0.267728 2.29242 0
M  V30 3982 C 386.223 -0.954609 1.35928 0
M  V30 3983 O 387.408 -0.960046 1.64887 0
M  V30 3984 C 384.548 -1.32243 3.18756 0
M  V30 3985 C 383.661 -0.64669 4.27132 0
M  V30 3986 C 382.796 -1.68238 5.03855 0
M  V30 3987 C 381.835 -0.98885 6.0406 0
M  V30 3988 N 380.972 -1.96903 6.73924 0
M  V30 3989 H 385.812 0.420968 2.95012 0
M  V30 3990 H 383.349 0.219443 1.45454 0
M  V30 3991 H 385.307 -1.94599 3.69036 0
M  V30 3992 H 383.937 -1.97981 2.54958 0
M  V30 3993 H 382.989 0.0902926 3.80293 0
M  V30 3994 H 384.301 -0.101058 4.98698 0
M  V30 3995 H 383.455 -2.38081 5.58034 0
M  V30 3996 H 382.194 -2.26187 4.32077 0
M  V30 3997 H 381.199 -0.276222 5.49106 0
M  V30 3998 H 382.424 -0.415767 6.77826 0
M  V30 3999 H 380.37 -2.53803 6.04913 0
M  V30 4000 H 380.287 -1.47423 7.41487 0
M  V30 4001 H 381.555 -2.66015 7.32705 0
M  V30 4002 N 385.784 -1.5574 0.241426 0
M  V30 4003 C 386.747 -2.19877 -0.647063 0
M  V30 4004 C 387.747 -1.16642 -1.10686 0
M  V30 4005 O 388.937 -1.41757 -1.01245 0
M  V30 4006 C 386.069 -2.83797 -1.88871 0
M  V30 4007 H 387.262 -2.99772 -0.087574 0
M  V30 4008 H 384.815 -1.56298 -0.00813574 0
M  V30 4009 H 385.55 -2.07824 -2.48957 0
M  V30 4010 H 385.335 -3.59414 -1.56728 0
M  V30 4011 H 386.825 -3.32898 -2.52129 0
M  V30 4012 N 387.262 0.0317525 -1.57568 0
M  V30 4013 C 388.172 1.05021 -2.0978 0
M  V30 4014 C 389.188 1.39809 -1.03583 0
M  V30 4015 O 390.364 1.49182 -1.35302 0
M  V30 4016 C 387.429 2.33301 -2.56459 0
M  V30 4017 C 386.49 2.0512 -3.77127 0
M  V30 4018 C 385.723 3.27283 -4.2157 0
M  V30 4019 O 385.946 4.37861 -3.65559 0
M  V30 4020 O 384.88 3.13141 -5.14029 0
M  V30 4021 H 388.706 0.636505 -2.96955 0
M  V30 4022 H 386.291 0.248559 -1.47318 0
M  V30 4023 H 388.173 3.08722 -2.86825 0
M  V30 4024 H 386.848 2.73973 -1.72397 0
M  V30 4025 H 385.755 1.27276 -3.51784 0
M  V30 4026 H 387.088 1.69305 -4.62165 0
M  V30 4027 N 388.74 1.54641 0.303973 0
M  V30 4028 C 389.988 1.73437 1.0375 0
M  V30 4029 C 390.309 0.521449 1.87899 0
M  V30 4030 O 389.579 -0.46432 1.90318 0
M  V30 4031 H 388.159 0.639518 0.386039 0
M  V30 4032 H 390.821 1.91988 0.335675 0
M  V30 4033 H 389.917 2.62235 1.69231 0
M  V30 4034 N 390.218 -0.567019 1.47046 0
M  V30 4035 C 391.181 -1.65696 1.58359 0
M  V30 4036 C 392.181 -1.54097 0.459441 0
M  V30 4037 O 393.371 -1.58432 0.724225 0
M  V30 4038 C 390.503 -3.05197 1.51879 0
M  V30 4039 H 391.696 -1.57019 2.5551 0
M  V30 4040 H 389.249 -0.786148 1.3509 0
M  V30 4041 H 389.984 -3.19417 0.560673 0
M  V30 4042 H 389.769 -3.15025 2.33455 0
M  V30 4043 H 391.259 -3.84511 1.62913 0
M  V30 4044 N 391.696 -1.35014 -0.812953 0
M  V30 4045 C 392.628 -1.23262 -1.93233 0
M  V30 4046 C 393.641 -0.157371 -1.62038 0
M  V30 4047 O 394.83 -0.410096 -1.73725 0
M  V30 4048 C 391.93 -0.87392 -3.27438 0
M  V30 4049 C 391.103 -2.04622 -3.86586 0
M  V30 4050 C 390.162 -1.66432 -4.99186 0
M  V30 4051 O 389.188 -2.38222 -5.16951 0
M  V30 4052 N 390.39 -0.584248 -5.77552 0
M  V30 4053 H 393.155 -2.19699 -2.03844 0
M  V30 4054 H 390.716 -1.281 -0.99005 0
M  V30 4055 H 392.708 -0.600039 -4.00227 0
M  V30 4056 H 391.278 0.00057392 -3.126 0
M  V30 4057 H 390.498 -2.48427 -3.06068 0
M  V30 4058 H 391.786 -2.82999 -4.22835 0
M  V30 4059 H 391.184 0.0123526 -5.65699 0
M  V30 4060 H 389.741 -0.37013 -6.50748 0
M  V30 4061 N 393.175 1.03435 -1.18907 0
M  V30 4062 C 394.123 2.13703 -0.918353 0
M  V30 4063 C 395.117 1.68947 0.123767 0
M  V30 4064 O 396.323 1.79983 -0.0249701 0
M  V30 4065 H 392.698 0.698112 -0.279542 0
M  V30 4066 H 394.669 2.33731 -1.85506 0
M  V30 4067 C 393.418 3.44542 -0.467532 0
M  V30 4068 H 392.741 3.79394 -1.26095 0
M  V30 4069 H 394.181 4.22812 -0.317164 0
M  V30 4070 C 392.64 3.26829 0.817588 0
M  V30 4071 O 393.17 3.54975 1.88031 0
M  V30 4072 N 391.376 2.80139 0.772677 0
M  V30 4073 H 390.923 2.57434 -0.0923883 0
M  V30 4074 H 390.881 2.68668 1.63294 0
M  V30 4075 N 394.653 0.992116 1.22453 0
M  V30 4076 C 395.585 0.500024 2.23679 0
M  V30 4077 C 396.598 -0.404463 1.57696 0
M  V30 4078 O 397.787 -0.206722 1.77299 0
M  V30 4079 C 394.887 -0.294711 3.37616 0
M  V30 4080 C 394.06 0.605723 4.33186 0
M  V30 4081 C 393.119 -0.13717 5.26021 0
M  V30 4082 O 392.145 0.477164 5.67196 0
M  V30 4083 N 393.347 -1.4197 5.62872 0
M  V30 4084 H 396.112 1.37045 2.66531 0
M  V30 4085 H 393.673 0.866741 1.36745 0
M  V30 4086 H 395.665 -0.800329 3.96707 0
M  V30 4087 H 394.235 -1.06623 2.93854 0
M  V30 4088 H 393.455 1.29202 3.72425 0
M  V30 4089 H 394.743 1.21896 4.93983 0
M  V30 4090 H 394.141 -1.94015 5.31389 0
M  V30 4091 H 392.698 -1.87052 6.24383 0
M  V30 4092 N 396.131 -1.37776 0.765217 0
M  V30 4093 C 397.379 -1.99454 0.325943 0
M  V30 4094 C 397.7 -1.61049 -1.09947 0
M  V30 4095 O 396.97 -0.872821 -1.75381 0
M  V30 4096 H 395.55 -0.737697 0.117525 0
M  V30 4097 H 398.212 -1.68359 0.981895 0
M  V30 4098 H 397.308 -3.09547 0.398353 0
M  V30 4099 N 397.609 -0.515225 -1.4894 0
M  V30 4100 C 398.556 0.255567 -2.29381 0
M  V30 4101 C 399.526 0.947387 -1.36432 0
M  V30 4102 O 400.711 0.951288 -1.65394 0
M  V30 4103 C 397.851 1.30551 -3.19453 0
M  V30 4104 C 396.964 0.624029 -4.27469 0
M  V30 4105 C 396.099 1.65563 -5.0474 0
M  V30 4106 C 395.138 0.956802 -6.04576 0
M  V30 4107 N 394.275 1.93326 -6.74959 0
M  V30 4108 H 399.115 -0.436607 -2.94784 0
M  V30 4109 H 396.652 -0.227154 -1.45336 0
M  V30 4110 H 398.61 1.92639 -3.70062 0
M  V30 4111 H 397.24 1.96626 -2.56004 0
M  V30 4112 H 396.292 -0.110459 -3.8024 0
M  V30 4113 H 397.604 0.0746092 -4.98744 0
M  V30 4114 H 396.758 2.35119 -5.59289 0
M  V30 4115 H 395.497 2.23893 -4.3327 0
M  V30 4116 H 394.502 0.247097 -5.49244 0
M  V30 4117 H 395.727 0.379814 -6.78037 0
M  V30 4118 H 393.673 2.50591 -6.06251 0
M  V30 4119 H 393.59 1.43489 -7.42258 0
M  V30 4120 H 394.858 2.62126 -7.34105 0
M  V30 4121 N 399.087 1.5561 -0.249682 0
M  V30 4122 C 400.034 2.21496 0.648694 0
M  V30 4123 C 401.004 1.17977 1.16921 0
M  V30 4124 O 402.189 1.46434 1.22318 0
M  V30 4125 C 399.329 2.92039 1.83868 0
M  V30 4126 C 398.442 4.10219 1.35442 0
M  V30 4127 C 397.577 4.6847 2.50419 0
M  V30 4128 C 396.616 5.78893 1.98869 0
M  V30 4129 N 395.753 6.31315 3.07223 0
M  V30 4130 H 400.593 2.97892 0.0801582 0
M  V30 4131 H 398.13 1.47074 0.0278031 0
M  V30 4132 H 400.088 3.31138 2.53778 0
M  V30 4133 H 398.718 2.18111 2.37965 0
M  V30 4134 H 397.77 3.76413 0.54928 0
M  V30 4135 H 399.082 4.89927 0.936649 0
M  V30 4136 H 398.236 5.10158 3.28366 0
M  V30 4137 H 396.975 3.87984 2.95499 0
M  V30 4138 H 395.98 5.3668 1.19393 0
M  V30 4139 H 397.205 6.61232 1.54755 0
M  V30 4140 H 395.151 5.53733 3.51732 0
M  V30 4141 H 395.068 7.06224 2.69784 0
M  V30 4142 H 396.336 6.77662 3.8522 0
M  V30 4143 N 400.565 -0.0233959 1.57583 0
M  V30 4144 C 401.811 -0.714119 1.89811 0
M  V30 4145 C 402.144 -1.74702 0.848113 0
M  V30 4146 O 401.419 -1.94023 -0.136135 0
M  V30 4147 C 401.702 -1.37853 3.32669 0
M  V30 4148 C 401.555 -0.358764 4.48367 0
M  V30 4149 C 402.874 -2.31101 3.7454 0
M  V30 4150 H 399.993 -0.25814 0.690314 0
M  V30 4151 H 402.635 0.0230927 1.89986 0
M  V30 4152 H 400.785 -2.00689 3.3265 0
M  V30 4153 H 402.457 0.268115 4.6052 0
M  V30 4154 H 400.7 0.321387 4.32608 0
M  V30 4155 H 401.371 -0.862242 5.45224 0
M  V30 4156 H 403.847 -1.78304 3.75961 0
M  V30 4157 H 402.723 -2.74567 4.75294 0
M  V30 4158 H 402.984 -3.18018 3.0711 0
M  V30 4159 N 402.043 -1.548 -0.295768 0
M  V30 4160 C 403.32 -1.65014 -1.05023 0
M  V30 4161 C 403.7 -0.501805 -2.05049 0
M  V30 4162 O 403.048 0.500869 -2.22943 0
M  V30 4163 C 403.258 -3.03252 -1.72741 0
M  V30 4164 C 404.606 -3.60242 -2.24746 0
M  V30 4165 O 405.63 -3.05737 -1.82765 0
M  V30 4166 O 404.489 -4.55687 -3.01681 0
M  V30 4167 H 401.583 -0.669314 -0.485744 0
M  V30 4168 H 404.129 -1.67144 -0.293438 0
M  V30 4169 H 402.901 -3.7827 -1.00138 0
M  V30 4170 H 402.524 -3.04922 -2.55163 0
M  V30 4171 N 403.521 0.559213 -1.47345 0
M  V30 4172 C 404.749 1.34194 -1.57479 0
M  V30 4173 C 405.164 1.87463 -0.224261 0
M  V30 4174 O 404.521 1.64888 0.782185 0
M  V30 4175 C 404.572 2.51324 -2.59843 0
M  V30 4176 O 404.293 2.00256 -3.89653 0
M  V30 4177 C 405.794 3.43563 -2.80142 0
M  V30 4178 H 403.014 0.409136 -0.531835 0
M  V30 4179 H 405.558 0.677609 -1.92947 0
M  V30 4180 H 403.713 3.13699 -2.27314 0
M  V30 4181 H 404.127 2.76708 -4.4557 0
M  V30 4182 H 405.601 4.2217 -3.55635 0
M  V30 4183 H 406.078 3.9698 -1.87892 0
M  V30 4184 H 406.684 2.87005 -3.1386 0
M  V30 4185 N 404.999 1.35443 0.805782 0
M  V30 4186 C 406.227 1.31878 1.59423 0
M  V30 4187 C 406.642 -0.103562 1.88516 0
M  V30 4188 O 405.999 -1.05575 1.48863 0
M  V30 4189 C 406.05 2.12426 2.92502 0
M  V30 4190 O 405.771 3.49115 2.6467 0
M  V30 4191 C 407.272 2.16455 3.86862 0
M  V30 4192 H 404.492 0.453002 0.495005 0
M  V30 4193 H 407.036 1.78309 1.00131 0
M  V30 4194 H 405.191 1.69593 3.48306 0
M  V30 4195 H 405.605 3.90957 3.49647 0
M  V30 4196 H 407.079 2.77204 4.77349 0
M  V30 4197 H 407.556 1.16352 4.23508 0
M  V30 4198 H 408.162 2.59453 3.36993 0
M  V30 4199 N 406.477 -1.02803 1.19454 0
M  V30 4200 C 407.888 -1.57667 0.999899 0
M  V30 4201 C 408.239 -1.91041 -0.446956 0
M  V30 4202 O 407.364 -1.70978 -1.32648 0
M  V30 4203 C 407.959 -2.86477 1.80877 0
M  V30 4204 C 406.518 -3.37911 1.65811 0
M  V30 4205 C 405.665 -2.11343 1.79526 0
M  V30 4206 H 408.616 -0.853214 1.33813 0
M  V30 4207 H 408.637 -3.57408 1.30536 0
M  V30 4208 H 408.149 -2.62155 2.86175 0
M  V30 4209 H 406.25 -3.67218 0.63102 0
M  V30 4210 H 406.363 -4.10885 2.46395 0
M  V30 4211 H 404.727 -2.23254 1.22596 0
M  V30 4212 H 405.51 -1.89461 2.86285 0
M  V30 4213 N 407.956 -0.998596 -1.21925 0
M  V30 4214 C 408.904 -0.546641 -2.26085 0
M  V30 4215 C 409.898 0.405576 -1.64473 0
M  V30 4216 O 411.104 0.277471 -1.77849 0
M  V30 4217 H 407.479 -0.158403 -0.735127 0
M  V30 4218 H 409.45 -1.43645 -2.61551 0
M  V30 4219 C 408.199 0.117388 -3.47502 0
M  V30 4220 H 407.522 -0.606277 -3.95176 0
M  V30 4221 H 408.962 0.396993 -4.22137 0
M  V30 4222 C 407.421 1.35455 -3.0847 0
M  V30 4223 O 407.951 2.44944 -3.18379 0
M  V30 4224 N 406.157 1.23191 -2.63196 0
M  V30 4225 H 405.704 0.341006 -2.55333 0
M  V30 4226 H 405.662 2.06071 -2.37449 0
M  V30 4227 N 409.434 1.37368 -0.772513 0
M  V30 4228 C 410.366 2.28899 -0.117502 0
M  V30 4229 C 411.379 1.4867 0.663405 0
M  V30 4230 O 412.568 1.71314 0.501372 0
M  V30 4231 C 409.668 3.2788 0.857192 0
M  V30 4232 C 408.841 4.37207 0.129938 0
M  V30 4233 C 407.9 5.16257 1.01811 0
M  V30 4234 O 406.926 5.67159 0.481601 0
M  V30 4235 N 408.128 5.31058 2.3443 0
M  V30 4236 H 410.893 2.85752 -0.903662 0
M  V30 4237 H 408.454 1.49353 -0.62493 0
M  V30 4238 H 410.446 3.77647 1.45482 0
M  V30 4239 H 409.016 2.7179 1.54432 0
M  V30 4240 H 408.236 3.88827 -0.648605 0
M  V30 4241 H 409.524 5.07434 -0.372559 0
M  V30 4242 H 408.922 4.91287 2.80452 0
M  V30 4243 H 407.479 5.84131 2.89197 0
M  V30 4244 N 410.912 0.523116 1.48665 0
M  V30 4245 C 412.16 -0.0134497 2.02096 0
M  V30 4246 C 412.481 -1.35418 1.40311 0
M  V30 4247 O 411.751 -1.87543 0.566074 0
M  V30 4248 H 410.331 -0.00795915 0.746958 0
M  V30 4249 H 412.993 0.685388 1.82451 0
M  V30 4250 H 412.089 -0.126849 3.11842 0
M  V30 4251 N 412.39 -1.55475 0.257931 0
M  V30 4252 C 413.337 -2.21837 -0.636939 0
M  V30 4253 C 414.307 -1.18596 -1.16294 0
M  V30 4254 O 415.492 -1.47081 -1.21539 0
M  V30 4255 C 412.632 -2.9301 -1.82317 0
M  V30 4256 C 411.745 -4.10931 -1.33265 0
M  V30 4257 C 410.88 -4.69791 -2.47931 0
M  V30 4258 C 409.919 -5.7994 -1.95796 0
M  V30 4259 N 409.056 -6.32935 -3.0387 0
M  V30 4260 H 413.896 -2.9793 -0.0643591 0
M  V30 4261 H 411.433 -1.47086 -0.0200031 0
M  V30 4262 H 413.391 -3.3248 -2.52018 0
M  V30 4263 H 412.021 -2.1937 -2.36805 0
M  V30 4264 H 411.073 -3.76699 -0.52931 0
M  V30 4265 H 412.385 -4.90417 -0.910654 0
M  V30 4266 H 411.539 -5.11892 -3.25656 0
M  V30 4267 H 410.278 -3.89545 -2.93438 0
M  V30 4268 H 409.283 -5.37305 -1.16546 0
M  V30 4269 H 410.508 -6.62043 -1.51246 0
M  V30 4270 H 408.454 -5.55591 -3.48791 0
M  V30 4271 H 408.371 -7.07645 -2.66035 0
M  V30 4272 H 409.639 -6.79695 -3.81621 0
M  V30 4273 N 413.868 0.0150385 -1.57593 0
M  V30 4274 C 414.815 1.01126 -2.07466 0
M  V30 4275 C 415.785 1.35064 -0.966794 0
M  V30 4276 O 416.97 1.4516 -1.23827 0
M  V30 4277 C 414.11 2.30276 -2.57035 0
M  V30 4278 C 413.223 2.02373 -3.81666 0
M  V30 4279 C 412.358 3.25496 -4.19793 0
M  V30 4280 C 411.397 2.93211 -5.37303 0
M  V30 4281 N 410.534 4.08826 -5.70794 0
M  V30 4282 H 415.374 0.57901 -2.92321 0
M  V30 4283 H 412.911 0.27426 -1.44521 0
M  V30 4284 H 414.869 3.05757 -2.83846 0
M  V30 4285 H 413.499 2.71197 -1.75077 0
M  V30 4286 H 412.551 1.17327 -3.61854 0
M  V30 4287 H 413.863 1.74567 -4.67256 0
M  V30 4288 H 413.017 4.09333 -4.47807 0
M  V30 4289 H 411.756 3.56428 -3.32882 0
M  V30 4290 H 410.761 2.07777 -5.09027 0
M  V30 4291 H 411.986 2.63542 -6.25877 0
M  V30 4292 H 409.932 4.39682 -4.86842 0
M  V30 4293 H 409.849 3.84491 -6.50924 0
M  V30 4294 H 411.117 4.93496 -6.03392 0
M  V30 4295 N 415.346 1.54954 0.287554 0
M  V30 4296 C 416.592 1.75132 1.02257 0
M  V30 4297 C 416.925 0.542858 1.86458 0
M  V30 4298 O 416.2 -0.459856 1.88986 0
M  V30 4299 C 416.483 3.04812 1.91733 0
M  V30 4300 C 416.336 4.35985 1.10622 0
M  V30 4301 C 417.655 3.30438 2.90687 0
M  V30 4302 H 414.774 0.637194 0.370341 0
M  V30 4303 H 417.416 1.87678 0.296111 0
M  V30 4304 H 415.566 2.94247 2.53675 0
M  V30 4305 H 417.238 4.58487 0.508636 0
M  V30 4306 H 415.481 4.31865 0.409271 0
M  V30 4307 H 416.152 5.23017 1.76513 0
M  V30 4308 H 418.628 3.40701 2.38877 0
M  V30 4309 H 417.504 4.22467 3.50447 0
M  V30 4310 H 417.765 2.49377 3.65053 0
M  V30 4311 N 416.824 -0.551391 1.4764 0
M  V30 4312 C 417.734 -1.68525 1.63207 0
M  V30 4313 C 418.75 -1.6621 0.514815 0
M  V30 4314 O 419.926 -1.85551 0.783113 0
M  V30 4315 C 416.991 -3.05025 1.64805 0
M  V30 4316 C 416.052 -3.18362 2.88 0
M  V30 4317 C 415.285 -4.4835 2.89513 0
M  V30 4318 O 415.508 -5.34163 2.00065 0
M  V30 4319 O 414.442 -4.65602 3.81443 0
M  V30 4320 H 418.268 -1.58333 2.59161 0
M  V30 4321 H 415.853 -0.722063 1.30792 0
M  V30 4322 H 417.735 -3.86245 1.68502 0
M  V30 4323 H 416.41 -3.15587 0.720197 0
M  V30 4324 H 415.317 -2.36518 2.89845 0
M  V30 4325 H 416.65 -3.12707 3.80099 0
M  V30 4326 N 418.302 -1.35869 -0.798587 0
M  V30 4327 C 419.55 -1.29332 -1.55298 0
M  V30 4328 C 419.871 0.129729 -1.94568 0
M  V30 4329 O 419.141 1.06796 -1.6423 0
M  V30 4330 H 417.721 -0.475737 -0.57592 0
M  V30 4331 H 420.383 -1.70062 -0.952093 0
M  V30 4332 H 419.479 -1.91458 -2.46476 0
M  V30 4333 N 419.78 1.02168 -1.19998 0
M  V30 4334 C 420.743 2.08765 -0.94604 0
M  V30 4335 C 421.743 1.60618 0.0763846 0
M  V30 4336 O 422.933 1.73472 -0.159135 0
M  V30 4337 C 420.065 3.38262 -0.423255 0
M  V30 4338 H 421.258 2.32726 -1.89153 0
M  V30 4339 H 418.811 1.1889 -1.01464 0
M  V30 4340 H 419.546 3.19974 0.527938 0
M  V30 4341 H 419.331 3.74532 -1.16053 0
M  V30 4342 H 420.821 4.16759 -0.264911 0
M  V30 4343 N 421.258 1.00505 1.21394 0
M  V30 4344 C 422.669 0.721082 1.72213 0
M  V30 4345 C 423.02 -0.761263 1.80829 0
M  V30 4346 O 422.145 -1.59464 1.46288 0
M  V30 4347 C 422.74 1.30228 3.12772 0
M  V30 4348 C 421.299 1.06743 3.60947 0
M  V30 4349 C 420.446 1.41507 2.38477 0
M  V30 4350 H 423.397 1.17594 1.06571 0
M  V30 4351 H 423.418 0.686955 3.74247 0
M  V30 4352 H 422.93 2.38115 3.06468 0
M  V30 4353 H 421.031 0.00572162 3.726 0
M  V30 4354 H 421.144 1.73936 4.46411 0
M  V30 4355 H 419.508 0.833852 2.40664 0
M  V30 4356 H 420.291 2.50424 2.34824 0
M  V30 4357 N 422.737 -1.36956 0.779787 0
M  V30 4358 C 423.965 -2.03755 0.359398 0
M  V30 4359 C 424.38 -1.58807 -1.02106 0
M  V30 4360 O 423.737 -0.773024 -1.6532 0
M  V30 4361 C 423.788 -3.59251 0.402568 0
M  V30 4362 O 423.509 -4.02557 1.72858 0
M  V30 4363 C 425.01 -4.43291 -0.0284068 0
M  V30 4364 H 422.23 -0.654148 0.149437 0
M  V30 4365 H 424.774 -1.75128 1.05595 0
M  V30 4366 H 422.929 -3.86621 -0.245478 0
M  V30 4367 H 423.343 -4.97111 1.67275 0
M  V30 4368 H 424.817 -5.51975 0.0529466 0
M  V30 4369 H 425.294 -4.25719 -1.07982 0
M  V30 4370 H 425.9 -4.21163 0.591758 0
M  V30 4371 N 424.215 -0.530993 -1.48385 0
M  V30 4372 C 425.147 0.268353 -2.27624 0
M  V30 4373 C 426.16 0.903525 -1.35426 0
M  V30 4374 O 427.349 0.781796 -1.60469 0
M  V30 4375 C 424.449 1.39535 -3.08842 0
M  V30 4376 C 423.622 0.861913 -4.28824 0
M  V30 4377 C 422.681 1.87016 -4.91845 0
M  V30 4378 O 421.707 1.4267 -5.5103 0
M  V30 4379 N 422.909 3.20238 -4.84178 0
M  V30 4380 H 425.674 -0.41123 -2.96865 0
M  V30 4381 H 423.235 -0.365387 -1.57723 0
M  V30 4382 H 425.227 2.06803 -3.47871 0
M  V30 4383 H 423.797 1.97859 -2.42014 0
M  V30 4384 H 423.017 0.0132126 -3.94198 0
M  V30 4385 H 424.305 0.484415 -5.06489 0
M  V30 4386 H 423.703 3.58932 -4.37246 0
M  V30 4387 H 422.26 3.83136 -5.27305 0
M  V30 4388 N 425.693 1.55336 -0.266172 0
M  V30 4389 C 426.941 1.99003 0.35246 0
M  V30 4390 C 427.262 1.15591 1.57047 0
M  V30 4391 O 426.532 0.243268 1.94384 0
M  V30 4392 H 425.112 0.735025 0.133217 0
M  V30 4393 H 427.774 1.91367 -0.369434 0
M  V30 4394 H 426.87 3.05289 0.648453 0
M  V30 4395 N 427.171 -0.0066808 1.57599 0
M  V30 4396 C 428.587 -0.36267 1.55425 0
M  V30 4397 C 428.787 -1.75209 0.995187 0
M  V30 4398 O 427.843 -2.44616 0.626058 0
M  V30 4399 C 429.156 -0.244017 2.99708 0
M  V30 4400 C 430.704 -0.319451 3.11366 0
M  V30 4401 C 431.179 -0.229998 4.57422 0
M  V30 4402 N 432.67 -0.288105 4.62303 0
M  V30 4403 C 433.405 -0.242127 5.72889 0
M  V30 4404 N 432.901 -0.147133 6.92644 0
M  V30 4405 N 434.694 -0.293502 5.61333 0
M  V30 4406 H 426.845 0.902314 1.92281 0
M  V30 4407 H 429.108 0.34525 0.882896 0
M  V30 4408 H 428.814 0.711678 3.44424 0
M  V30 4409 H 428.688 -1.02877 3.629 0
M  V30 4410 H 431.075 -1.26559 2.66584 0
M  V30 4411 H 431.156 0.495055 2.50964 0
M  V30 4412 H 430.8 0.712566 5.02877 0
M  V30 4413 H 430.73 -1.0629 5.15761 0
M  V30 4414 H 433.221 -0.363126 3.76151 0
M  V30 4415 H 433.534 -0.117763 7.7271 0
M  V30 4416 H 431.879 -0.112857 6.94908 0
M  V30 4417 H 435.07 -0.365864 4.66668 0
M  V30 4418 H 435.243 -0.254204 6.47501 0
M  V30 4419 N 428.649 -1.55105 -0.279332 0
M  V30 4420 C 429.596 -1.8755 -1.34513 0
M  V30 4421 C 430.566 -0.726384 -1.49375 0
M  V30 4422 O 431.751 -0.977063 -1.63884 0
M  V30 4423 C 428.891 -2.14738 -2.70151 0
M  V30 4424 C 428.004 -3.42285 -2.63562 0
M  V30 4425 C 427.139 -3.59206 -3.91337 0
M  V30 4426 C 426.178 -4.80467 -3.79233 0
M  V30 4427 N 425.315 -4.94079 -4.98829 0
M  V30 4428 H 430.155 -2.78456 -1.06143 0
M  V30 4429 H 427.692 -1.37867 -0.512936 0
M  V30 4430 H 429.65 -2.28501 -3.49061 0
M  V30 4431 H 428.28 -1.27075 -2.96735 0
M  V30 4432 H 427.332 -3.37029 -1.76397 0
M  V30 4433 H 428.644 -4.31328 -2.50515 0
M  V30 4434 H 427.798 -3.72751 -4.78687 0
M  V30 4435 H 426.537 -2.68337 -4.07243 0
M  V30 4436 H 425.542 -4.66932 -2.90266 0
M  V30 4437 H 426.767 -5.72765 -3.64852 0
M  V30 4438 H 424.713 -4.06139 -5.15158 0
M  V30 4439 H 424.63 -5.77156 -4.8829 0
M  V30 4440 H 425.898 -5.12003 -5.8777 0
M  V30 4441 N 430.127 0.543554 -1.4793 0
M  V30 4442 C 431.09 1.63156 -1.60975 0
M  V30 4443 C 432.09 1.53346 -0.483899 0
M  V30 4444 O 433.28 1.5726 -0.749339 0
M  V30 4445 C 430.412 3.02743 -1.56716 0
M  V30 4446 H 431.605 1.52934 -2.57975 0
M  V30 4447 H 429.158 0.764557 -1.36324 0
M  V30 4448 H 429.893 3.18484 -0.611418 0
M  V30 4449 H 429.678 3.11272 -2.38438 0
M  V30 4450 H 431.168 3.81871 -1.6901 0
M  V30 4451 N 431.605 1.3629 0.791371 0
M  V30 4452 C 432.515 1.32606 1.93527 0
M  V30 4453 C 433.531 0.228541 1.72493 0
M  V30 4454 O 434.707 0.460571 1.96063 0
M  V30 4455 C 431.772 1.11271 3.28359 0
M  V30 4456 C 430.833 2.3048 3.62185 0
M  V30 4457 C 430.066 2.10154 4.90583 0
M  V30 4458 O 430.289 1.07572 5.60165 0
M  V30 4459 O 429.223 2.97884 5.23019 0
M  V30 4460 H 433.049 2.28909 1.99585 0
M  V30 4461 H 430.634 1.16818 0.931344 0
M  V30 4462 H 432.516 1.01283 4.09047 0
M  V30 4463 H 431.191 0.180292 3.23198 0
M  V30 4464 H 430.098 2.46036 2.81811 0
M  V30 4465 H 431.431 3.22221 3.72068 0
M  V30 4466 N 433.083 -1.0153 1.20538 0
M  V30 4467 C 434.331 -1.74803 1.01432 0
M  V30 4468 C 434.652 -1.8963 -0.454456 0
M  V30 4469 O 433.922 -1.43975 -1.32846 0
M  V30 4470 H 432.502 -0.647598 0.372324 0
M  V30 4471 H 435.164 -1.22402 1.5167 0
M  V30 4472 H 434.26 -2.75114 1.47373 0
M  V30 4473 N 434.561 -1.01147 -1.20859 0
M  V30 4474 C 435.524 -0.582224 -2.21682 0
M  V30 4475 C 436.524 0.344887 -1.57058 0
M  V30 4476 O 437.714 0.134281 -1.73682 0
M  V30 4477 C 434.846 0.150496 -3.40568 0
M  V30 4478 H 436.039 -1.47408 -2.61172 0
M  V30 4479 H 433.592 -0.800695 -1.34233 0
M  V30 4480 H 434.327 1.0575 -3.06574 0
M  V30 4481 H 434.112 -0.515444 -3.88697 0
M  V30 4482 H 435.602 0.438344 -4.15293 0
M  V30 4483 N 436.039 1.36541 -0.78704 0
M  V30 4484 C 436.971 2.28761 -0.141773 0
M  V30 4485 C 437.984 1.49365 0.647599 0
M  V30 4486 O 439.173 1.71836 0.483173 0
M  V30 4487 C 436.273 3.28771 0.822368 0
M  V30 4488 C 435.446 4.3732 0.0835594 0
M  V30 4489 C 434.505 5.17307 0.963296 0
M  V30 4490 O 433.531 5.67638 0.421419 0
M  V30 4491 N 434.733 5.33515 2.28784 0
M  V30 4492 H 437.498 2.84777 -0.933919 0
M  V30 4493 H 435.059 1.48682 -0.640735 0
M  V30 4494 H 437.051 3.79169 1.41468 0
M  V30 4495 H 435.621 2.73412 1.5154 0
M  V30 4496 H 434.841 3.88118 -0.689809 0
M  V30 4497 H 436.129 5.0701 -0.426358 0
M  V30 4498 H 435.527 4.94234 2.75226 0
M  V30 4499 H 434.084 5.87165 2.82985 0
M  V30 4500 N 437.518 0.538854 1.48102 0
M  V30 4501 C 438.466 -0.232325 2.31437 0
M  V30 4502 C 439.46 -0.927004 1.41785 0
M  V30 4503 O 440.666 -0.850378 1.58646 0
M  V30 4504 H 437.041 -0.0937916 0.746128 0
M  V30 4505 H 439.012 0.489986 2.9435 0
M  V30 4506 C 437.761 -1.26074 3.24038 0
M  V30 4507 H 437.084 -0.735609 3.92974 0
M  V30 4508 H 438.524 -1.77157 3.85216 0
M  V30 4509 C 436.983 -2.29902 2.46265 0
M  V30 4510 O 437.513 -3.36502 2.19384 0
M  V30 4511 N 435.719 -2.03348 2.07601 0
M  V30 4512 H 435.266 -1.16675 2.29662 0
M  V30 4513 H 435.224 -2.73038 1.55877 0
M  V30 4514 N 438.996 -1.55193 0.274407 0
M  V30 4515 C 439.928 -2.1989 -0.646595 0
M  V30 4516 C 440.941 -1.1834 -1.11801 0
M  V30 4517 O 442.13 -1.4507 -1.04004 0
M  V30 4518 C 439.23 -2.8104 -1.89393 0
M  V30 4519 C 438.403 -4.08274 -1.56943 0
M  V30 4520 C 437.462 -4.53478 -2.66916 0
M  V30 4521 O 436.488 -5.19267 -2.33132 0
M  V30 4522 N 437.69 -4.2356 -3.9696 0
M  V30 4523 H 440.455 -2.99556 -0.0928686 0
M  V30 4524 H 438.016 -1.61618 0.0954783 0
M  V30 4525 H 440.008 -3.08226 -2.62257 0
M  V30 4526 H 438.578 -2.05372 -2.35672 0
M  V30 4527 H 437.798 -3.88384 -0.674655 0
M  V30 4528 H 439.086 -4.91173 -1.32764 0
M  V30 4529 H 438.484 -3.70799 -4.27229 0
M  V30 4530 H 437.041 -4.55518 -4.66205 0
M  V30 4531 N 440.474 -0.00167713 -1.576 0
M  V30 4532 C 441.437 0.974046 -2.07473 0
M  V30 4533 C 442.437 1.27143 -0.984444 0
M  V30 4534 O 443.627 1.21633 -1.24703 0
M  V30 4535 C 440.759 2.29849 -2.51759 0
M  V30 4536 H 441.952 0.54262 -2.9495 0
M  V30 4537 H 439.505 0.245829 -1.54355 0
M  V30 4538 H 440.24 2.77677 -1.67529 0
M  V30 4539 H 440.025 2.09584 -3.31386 0
M  V30 4540 H 441.515 2.9984 -2.90664 0
M  V30 4541 N 441.952 1.55251 0.271103 0
M  V30 4542 C 442.899 1.88261 1.33516 0
M  V30 4543 C 443.869 0.734296 1.48988 0
M  V30 4544 O 445.054 0.985741 1.63364 0
M  V30 4545 C 442.194 2.16168 2.69008 0
M  V30 4546 C 441.307 3.43678 2.61743 0
M  V30 4547 C 440.442 3.61276 3.89427 0
M  V30 4548 C 439.481 4.82472 3.7668 0
M  V30 4549 N 438.618 4.96717 4.96202 0
M  V30 4550 H 443.458 2.79015 1.04665 0
M  V30 4551 H 440.995 1.38137 0.505618 0
M  V30 4552 H 442.953 2.30349 3.47844 0
M  V30 4553 H 441.583 1.28646 2.96057 0
M  V30 4554 H 440.635 3.37959 1.74607 0
M  V30 4555 H 441.947 4.3265 2.48224 0
M  V30 4556 H 441.101 3.75284 4.76704 0
M  V30 4557 H 439.84 2.70492 4.05814 0
M  V30 4558 H 438.845 4.68465 2.87786 0
M  V30 4559 H 440.07 5.74692 3.61809 0
M  V30 4560 H 438.016 4.08865 5.12997 0
M  V30 4561 H 437.933 5.79738 4.85222 0
M  V30 4562 H 439.201 5.15113 5.85046 0
M  V30 4563 N 443.43 -0.535701 1.48216 0
M  V30 4564 C 444.377 -1.64083 1.62312 0
M  V30 4565 C 445.347 -1.59448 0.465365 0
M  V30 4566 O 446.532 -1.77959 0.688135 0
M  V30 4567 C 443.672 -3.0236 1.66349 0
M  V30 4568 C 442.785 -3.17273 2.93193 0
M  V30 4569 C 441.92 -4.46075 2.88427 0
M  V30 4570 C 440.959 -4.54496 4.1 0
M  V30 4571 N 440.096 -5.7468 4.03345 0
M  V30 4572 H 444.936 -1.51374 2.5669 0
M  V30 4573 H 442.473 -0.737059 1.27302 0
M  V30 4574 H 444.431 -3.82461 1.66672 0
M  V30 4575 H 443.061 -3.13854 0.754672 0
M  V30 4576 H 442.113 -2.30462 3.02641 0
M  V30 4577 H 443.425 -3.19357 3.83162 0
M  V30 4578 H 442.579 -5.3446 2.87119 0
M  V30 4579 H 441.318 -4.46504 1.96177 0
M  V30 4580 H 440.323 -3.64519 4.11589 0
M  V30 4581 H 441.548 -4.5581 5.03402 0
M  V30 4582 H 439.494 -5.76017 3.13912 0
M  V30 4583 H 439.411 -5.78234 4.87013 0
M  V30 4584 H 440.679 -6.65367 4.06087 0
M  V30 4585 N 444.908 -1.36708 -0.784132 0
M  V30 4586 C 446.154 -1.31426 -1.54451 0
M  V30 4587 C 446.487 0.10476 -1.93917 0
M  V30 4588 O 445.762 1.05934 -1.6312 0
M  V30 4589 C 446.045 -2.24189 -2.818 0
M  V30 4590 C 445.898 -3.74813 -2.48667 0
M  V30 4591 C 447.217 -2.15626 -3.83658 0
M  V30 4592 H 444.336 -0.478739 -0.560337 0
M  V30 4593 H 446.978 -1.67305 -0.900498 0
M  V30 4594 H 445.128 -1.93722 -3.36755 0
M  V30 4595 H 446.8 -4.15823 -1.99722 0
M  V30 4596 H 445.043 -3.93989 -1.81535 0
M  V30 4597 H 445.714 -4.35138 -3.39646 0
M  V30 4598 H 448.19 -2.42456 -3.38163 0
M  V30 4599 H 447.066 -2.82694 -4.70506 0
M  V30 4600 H 447.327 -1.14522 -4.27009 0
M  V30 4601 N 446.386 1.0089 -1.21074 0
M  V30 4602 C 447.296 2.13039 -0.982425 0
M  V30 4603 C 448.312 1.73881 0.0642161 0
M  V30 4604 O 449.488 2.01012 -0.12496 0
M  V30 4605 C 446.553 3.42377 -0.545803 0
M  V30 4606 C 445.614 3.95731 -1.6642 0
M  V30 4607 C 444.847 5.18896 -1.24832 0
M  V30 4608 O 445.07 5.70273 -0.120265 0
M  V30 4609 O 444.004 5.65597 -2.05873 0
M  V30 4610 H 447.83 2.35175 -1.92163 0
M  V30 4611 H 445.415 1.1142 -0.995285 0
M  V30 4612 H 447.297 4.20244 -0.311912 0
M  V30 4613 H 445.972 3.21639 0.364727 0
M  V30 4614 H 444.879 3.19108 -1.95246 0
M  V30 4615 H 446.212 4.20872 -2.55201 0
M  V30 4616 N 447.864 1.01787 1.20321 0
M  V30 4617 C 449.112 0.706538 1.89347 0
M  V30 4618 C 449.433 -0.766289 1.79313 0
M  V30 4619 O 448.703 -1.55126 1.19635 0
M  V30 4620 H 447.283 0.258348 0.700903 0
M  V30 4621 H 449.945 1.28974 1.46122 0
M  V30 4622 H 449.041 0.991066 2.95946 0
M  V30 4623 N 449.342 -1.36122 0.79427 0
M  V30 4624 C 450.305 -2.28309 0.201889 0
M  V30 4625 C 451.305 -1.49041 -0.603603 0
M  V30 4626 O 452.495 -1.68964 -0.423888 0
M  V30 4627 C 449.627 -3.3321 -0.719978 0
M  V30 4628 H 450.82 -2.82208 1.01481 0
M  V30 4629 H 448.373 -1.45768 0.564037 0
M  V30 4630 H 449.108 -2.84475 -1.55706 0
M  V30 4631 H 448.893 -3.91835 -0.144266 0
M  V30 4632 H 450.383 -4.02044 -1.12916 0
M  V30 4633 N 450.82 -0.546701 -1.47814 0
M  V30 4634 C 451.752 0.244196 -2.27895 0
M  V30 4635 C 452.765 0.88911 -1.36377 0
M  V30 4636 O 453.954 0.764733 -1.61289 0
M  V30 4637 C 451.054 1.36252 -3.10304 0
M  V30 4638 C 450.227 0.816382 -4.29714 0
M  V30 4639 C 449.286 1.81789 -4.93801 0
M  V30 4640 O 448.312 1.36818 -5.52512 0
M  V30 4641 N 449.514 3.15085 -4.87547 0
M  V30 4642 H 452.279 -0.442694 -2.96412 0
M  V30 4643 H 449.84 -0.382095 -1.57327 0
M  V30 4644 H 451.832 2.03102 -3.50045 0
M  V30 4645 H 450.402 1.95281 -2.44099 0
M  V30 4646 H 449.622 -0.0285981 -3.9419 0
M  V30 4647 H 450.91 0.430668 -5.06974 0
M  V30 4648 H 450.308 3.54275 -4.41028 0
M  V30 4649 H 448.865 3.77522 -5.31339 0
M  V30 4650 N 452.299 1.55045 -0.282633 0
M  V30 4651 C 453.247 2.24254 0.617478 0
M  V30 4652 C 454.241 1.24215 1.15183 0
M  V30 4653 O 455.447 1.42123 1.10459 0
M  V30 4654 H 451.822 0.719801 0.217693 0
M  V30 4655 H 453.793 2.98398 0.0110076 0
M  V30 4656 C 452.542 2.98281 1.78672 0
M  V30 4657 H 451.865 3.75053 1.38475 0
M  V30 4658 H 453.305 3.50017 2.393 0
M  V30 4659 C 451.764 2.04184 2.67975 0
M  V30 4660 O 452.294 1.59792 3.6855 0
M  V30 4661 N 450.5 1.70526 2.35307 0
M  V30 4662 H 450.047 2.06821 1.53567 0
M  V30 4663 H 450.005 1.07839 2.95327 0
M  V30 4664 N 453.777 0.010035 1.57597 0
M  V30 4665 C 454.709 -1.00649 2.05918 0
M  V30 4666 C 455.722 -1.30077 0.978964 0
M  V30 4667 O 456.911 -1.26878 1.25556 0
M  V30 4668 C 454.011 -2.33876 2.45265 0
M  V30 4669 C 453.184 -2.23242 3.7614 0
M  V30 4670 C 452.243 -3.39242 4.02245 0
M  V30 4671 O 451.269 -3.1698 4.72771 0
M  V30 4672 N 452.471 -4.6242 3.50924 0
M  V30 4673 H 455.236 -0.594333 2.93748 0
M  V30 4674 H 452.797 -0.17714 1.60928 0
M  V30 4675 H 454.789 -3.1027 2.59836 0
M  V30 4676 H 453.359 -2.66799 1.62902 0
M  V30 4677 H 452.579 -1.31696 3.71551 0
M  V30 4678 H 453.867 -2.13321 4.61922 0
M  V30 4679 H 453.265 -4.83404 2.93832 0
M  V30 4680 H 451.822 -5.36046 3.70807 0
M  V30 4681 N 455.255 -1.55392 -0.262866 0
M  V30 4682 C 456.503 -1.76127 -0.991147 0
M  V30 4683 C 456.824 -0.571083 -1.8645 0
M  V30 4684 O 456.094 0.413698 -1.91482 0
M  V30 4685 H 454.674 -0.649528 -0.368948 0
M  V30 4686 H 457.336 -1.9281 -0.284655 0
M  V30 4687 H 456.432 -2.6663 -1.62219 0
M  V30 4688 N 456.733 0.527833 -1.48498 0
M  V30 4689 C 457.68 1.6322 -1.6318 0
M  V30 4690 C 458.65 1.59199 -0.473815 0
M  V30 4691 O 459.835 1.77591 -0.697563 0
M  V30 4692 C 456.975 3.01474 -1.67951 0
M  V30 4693 C 456.088 3.15713 -2.94871 0
M  V30 4694 C 455.223 4.44539 -2.90789 0
M  V30 4695 C 454.262 4.52315 -4.12404 0
M  V30 4696 N 453.399 5.72533 -4.06387 0
M  V30 4697 H 458.239 1.50011 -2.57489 0
M  V30 4698 H 455.776 0.730298 -1.27691 0
M  V30 4699 H 457.734 3.81572 -1.68698 0
M  V30 4700 H 456.364 3.1345 -0.771306 0
M  V30 4701 H 455.416 2.28854 -3.03859 0
M  V30 4702 H 456.728 3.1732 -3.8485 0
M  V30 4703 H 455.882 5.3293 -2.89949 0
M  V30 4704 H 454.621 4.45457 -1.98542 0
M  V30 4705 H 453.626 3.62331 -4.13517 0
M  V30 4706 H 454.851 4.53134 -5.05812 0
M  V30 4707 H 452.797 5.74344 -3.16962 0
M  V30 4708 H 452.714 5.75643 -4.90073 0
M  V30 4709 H 453.982 6.63204 -4.0961 0
M  V30 4710 N 458.211 1.37122 0.776871 0
M  V30 4711 C 459.158 1.3247 1.88998 0
M  V30 4712 C 460.128 0.191143 1.64997 0
M  V30 4713 O 461.313 0.379683 1.86984 0
M  V30 4714 C 458.453 1.13241 3.25992 0
M  V30 4715 C 457.566 2.35782 3.61982 0
M  V30 4716 C 456.701 2.09465 4.88158 0
M  V30 4717 C 455.74 3.279 5.16864 0
M  V30 4718 N 454.877 3.01167 6.34226 0
M  V30 4719 H 459.717 2.27642 1.9231 0
M  V30 4720 H 457.254 1.13125 0.94027 0
M  V30 4721 H 459.212 1.00115 4.0501 0
M  V30 4722 H 457.842 0.217186 3.22069 0
M  V30 4723 H 456.894 2.59666 2.77989 0
M  V30 4724 H 458.206 3.24125 3.79137 0
M  V30 4725 H 457.36 1.93341 5.75069 0
M  V30 4726 H 456.099 1.18452 4.73097 0
M  V30 4727 H 455.104 3.44569 4.2843 0
M  V30 4728 H 456.329 4.19757 5.33836 0
M  V30 4729 H 454.275 2.12779 6.20533 0
M  V30 4730 H 454.192 3.83052 6.51772 0
M  V30 4731 H 455.46 2.88649 7.24087 0
M  V30 4732 N 459.689 -1.00246 1.21608 0
M  V30 4733 C 460.652 -2.07233 0.979133 0
M  V30 4734 C 461.652 -1.6072 -0.0508219 0
M  V30 4735 O 462.842 -1.73196 0.186712 0
M  V30 4736 C 459.974 -3.37546 0.477016 0
M  V30 4737 H 461.167 -2.29687 1.92831 0
M  V30 4738 H 458.72 -1.17261 1.03342 0
M  V30 4739 H 459.455 -3.20773 -0.476966 0
M  V30 4740 H 459.24 -3.72638 1.21997 0
M  V30 4741 H 460.73 -4.16285 0.331181 0
M  V30 4742 N 461.167 -1.02423 -1.1978 0
M  V30 4743 C 462.077 -0.610919 -2.26506 0
M  V30 4744 C 463.093 0.355152 -1.70337 0
M  V30 4745 O 464.269 0.214195 -2.00258 0
M  V30 4746 C 461.334 0.0365921 -3.46681 0
M  V30 4747 C 460.395 -0.976389 -4.18049 0
M  V30 4748 C 459.628 -0.359683 -5.32487 0
M  V30 4749 O 459.851 0.838601 -5.64202 0
M  V30 4750 O 458.785 -1.08022 -5.92127 0
M  V30 4751 H 462.611 -1.49965 -2.64091 0
M  V30 4752 H 460.196 -0.794156 -1.26545 0
M  V30 4753 H 462.078 0.39786 -4.19518 0
M  V30 4754 H 460.753 0.899398 -3.10954 0
M  V30 4755 H 459.66 -1.38916 -3.47352 0
M  V30 4756 H 460.993 -1.80941 -4.57735 0
M  V30 4757 N 462.645 1.35699 -0.801477 0
M  V30 4758 C 463.893 1.9852 -0.37871 0
M  V30 4759 C 464.214 1.63907 1.05638 0
M  V30 4760 O 463.484 0.919013 1.73006 0
M  V30 4761 H 462.064 0.734322 -0.137042 0
M  V30 4762 H 464.726 1.65697 -1.02619 0
M  V30 4763 H 463.822 3.08382 -0.480284 0
M  V30 4764 N 464.123 0.554532 1.47522 0
M  V30 4765 C 465.086 -0.184174 2.28459 0
M  V30 4766 C 466.086 -0.845195 1.36796 0
M  V30 4767 O 467.276 -0.701467 1.59452 0
M  V30 4768 C 464.408 -1.26903 3.16399 0
M  V30 4769 H 465.601 0.526751 2.95238 0
M  V30 4770 H 463.154 0.311375 1.53167 0
M  V30 4771 H 463.889 -2.01244 2.54306 0
M  V30 4772 H 463.674 -0.799883 3.83854 0
M  V30 4773 H 465.164 -1.78794 3.77389 0
M  V30 4774 N 465.601 -1.54893 0.290851 0
M  V30 4775 C 466.533 -2.20564 -0.623236 0
M  V30 4776 C 467.546 -1.19519 -1.1054 0
M  V30 4777 O 468.735 -1.46165 -1.02459 0
M  V30 4778 C 465.835 -2.83033 -1.86401 0
M  V30 4779 C 465.008 -4.09916 -1.52604 0
M  V30 4780 C 464.067 -4.56284 -2.62091 0
M  V30 4781 O 463.093 -5.2171 -2.27612 0
M  V30 4782 N 464.295 -4.27746 -3.92446 0
M  V30 4783 H 467.06 -2.99638 -0.0610915 0
M  V30 4784 H 464.621 -1.61508 0.112615 0
M  V30 4785 H 466.613 -3.1099 -2.58973 0
M  V30 4786 H 465.183 -2.0786 -2.33481 0
M  V30 4787 H 464.403 -3.89078 -0.633424 0
M  V30 4788 H 465.691 -4.92554 -1.27547 0
M  V30 4789 H 465.089 -3.7531 -4.23272 0
M  V30 4790 H 463.646 -4.60437 -4.61347 0
M  V30 4791 N 467.08 -0.0183926 -1.57589 0
M  V30 4792 C 468.028 0.985111 -2.10709 0
M  V30 4793 C 469.022 1.34397 -1.0312 0
M  V30 4794 O 470.228 1.32746 -1.21567 0
M  V30 4795 H 466.603 0.335418 -0.673052 0
M  V30 4796 H 468.574 0.511689 -2.9398 0
M  V30 4797 C 467.323 2.26202 -2.64061 0
M  V30 4798 H 466.646 1.9946 -3.4649 0
M  V30 4799 H 468.086 2.94652 -3.04887 0
M  V30 4800 C 466.545 2.98444 -1.5631 0
M  V30 4801 O 467.075 3.90142 -0.956674 0
M  V30 4802 N 465.281 2.6059 -1.28612 0
M  V30 4803 H 464.828 1.86101 -1.78112 0
M  V30 4804 H 464.786 3.09238 -0.567406 0
M  V30 4805 N 468.558 1.5553 0.254621 0
M  V30 4806 C 469.49 1.86104 1.33783 0
M  V30 4807 C 470.503 0.746752 1.44663 0
M  V30 4808 O 471.692 1.0248 1.46151 0
M  V30 4809 C 468.792 2.02532 2.71724 0
M  V30 4810 C 467.965 3.33335 2.83208 0
M  V30 4811 C 467.024 3.396 4.01943 0
M  V30 4812 O 466.05 4.12862 3.91834 0
M  V30 4813 N 467.252 2.68332 5.1476 0
M  V30 4814 H 470.017 2.79605 1.07893 0
M  V30 4815 H 467.578 1.55672 0.444732 0
M  V30 4816 H 469.57 2.04074 3.4948 0
M  V30 4817 H 468.14 1.15811 2.90356 0
M  V30 4818 H 467.36 3.44176 1.92189 0
M  V30 4819 H 468.648 4.19565 2.87824 0
M  V30 4820 H 468.046 2.08528 5.25864 0
M  V30 4821 H 466.603 2.75575 5.90679 0
M  V30 4822 N 470.036 -0.519951 1.48776 0
M  V30 4823 C 471.284 -1.2727 1.56993 0
M  V30 4824 C 471.605 -1.9339 0.25004 0
M  V30 4825 O 470.875 -1.81822 -0.729216 0
M  V30 4826 H 469.455 -0.472732 0.578389 0
M  V30 4827 H 472.117 -0.604234 1.85297 0
M  V30 4828 H 471.213 -2.04669 2.3562 0
M  V30 4829 N 471.514 -1.37532 -0.769588 0
M  V30 4830 C 472.461 -1.3347 -1.88293 0
M  V30 4831 C 473.431 -0.199891 -1.64893 0
M  V30 4832 O 474.616 -0.389594 -1.8678 0
M  V30 4833 C 471.756 -1.14968 -3.25387 0
M  V30 4834 C 470.869 -2.37698 -3.60727 0
M  V30 4835 C 470.004 -2.12051 -4.8704 0
M  V30 4836 C 469.043 -3.30636 -5.15117 0
M  V30 4837 N 468.18 -3.04527 -6.3262 0
M  V30 4838 H 473.02 -2.28658 -1.911 0
M  V30 4839 H 470.557 -1.13622 -0.934257 0
M  V30 4840 H 472.515 -1.02261 -4.04473 0
M  V30 4841 H 471.145 -0.234263 -3.21949 0
M  V30 4842 H 470.197 -2.61137 -2.76608 0
M  V30 4843 H 471.509 -3.26131 -3.77413 0
M  V30 4844 H 470.663 -1.96388 -5.74035 0
M  V30 4845 H 469.402 -1.20959 -4.72462 0
M  V30 4846 H 468.407 -3.46836 -4.26597 0
M  V30 4847 H 469.632 -4.22582 -5.31603 0
M  V30 4848 H 467.578 -2.16067 -6.19396 0
M  V30 4849 H 467.495 -3.86503 -6.49732 0
M  V30 4850 H 468.763 -2.92485 -7.22546 0
M  V30 4851 N 472.992 0.995999 -1.22138 0
M  V30 4852 C 473.939 2.08551 -0.988687 0
M  V30 4853 C 474.909 1.65864 0.0885021 0
M  V30 4854 O 476.094 1.90704 -0.0604589 0
M  V30 4855 C 473.234 3.40374 -0.569191 0
M  V30 4856 C 472.347 3.96421 -1.71681 0
M  V30 4857 C 471.482 5.1639 -1.2456 0
M  V30 4858 C 470.521 5.64567 -2.36497 0
M  V30 4859 N 469.658 6.75777 -1.90445 0
M  V30 4860 H 474.498 2.2779 -1.92135 0
M  V30 4861 H 472.035 1.1168 -0.957388 0
M  V30 4862 H 473.993 4.16068 -0.307166 0
M  V30 4863 H 472.623 3.21145 0.326462 0
M  V30 4864 H 471.675 3.17628 -2.09324 0
M  V30 4865 H 472.987 4.2816 -2.55891 0
M  V30 4866 H 472.141 5.99362 -0.940774 0
M  V30 4867 H 470.88 4.86266 -0.373662 0
M  V30 4868 H 469.885 4.80185 -2.67772 0
M  V30 4869 H 471.11 5.96716 -3.24202 0
M  V30 4870 H 469.056 6.47443 -1.05609 0
M  V30 4871 H 468.973 7.06818 -2.68223 0
M  V30 4872 H 470.241 7.62262 -1.63022 0
M  V30 4873 N 474.47 1.03057 1.19235 0
M  V30 4874 C 475.718 0.726581 1.88587 0
M  V30 4875 C 476.039 -0.747227 1.80115 0
M  V30 4876 O 475.309 -1.53849 1.21274 0
M  V30 4877 H 473.889 0.265768 0.698124 0
M  V30 4878 H 476.551 1.30516 1.44746 0
M  V30 4879 H 475.647 1.0224 2.94879 0
M  V30 4880 N 475.948 -1.35272 0.808662 0
M  V30 4881 C 476.858 -2.33546 0.222079 0
M  V30 4882 C 477.874 -1.6196 -0.636011 0
M  V30 4883 O 479.05 -1.93822 -0.547274 0
M  V30 4884 C 476.115 -3.41148 -0.61795 0
M  V30 4885 C 475.176 -4.28507 0.260875 0
M  V30 4886 C 474.409 -5.3097 -0.539156 0
M  V30 4887 O 474.632 -5.42123 -1.77367 0
M  V30 4888 O 473.566 -6.01858 0.0710526 0
M  V30 4889 H 477.392 -2.85515 1.03512 0
M  V30 4890 H 474.977 -1.38079 0.570495 0
M  V30 4891 H 476.859 -4.06889 -1.09634 0
M  V30 4892 H 475.534 -2.91447 -1.40855 0
M  V30 4893 H 474.441 -3.6574 0.786451 0
M  V30 4894 H 475.774 -4.81611 1.01547 0
M  V30 4895 N 477.426 -0.562348 -1.47226 0
M  V30 4896 C 478.674 -0.0401371 -2.0206 0
M  V30 4897 C 478.995 1.3165 -1.43852 0
M  V30 4898 O 478.265 1.85976 -0.615599 0
M  V30 4899 H 476.845 -0.0118479 -0.746906 0
M  V30 4900 H 479.507 -0.73352 -1.8057 0
M  V30 4901 H 478.603 0.0441254 -3.12069 0
M  V30 4902 N 478.904 1.54736 -0.299062 0
M  V30 4903 C 479.867 2.22127 0.565012 0
M  V30 4904 C 480.867 1.20669 1.06281 0
M  V30 4905 O 482.057 1.45417 0.959145 0
M  V30 4906 C 479.189 2.90611 1.78208 0
M  V30 4907 H 480.382 2.99891 -0.0237448 0
M  V30 4908 H 477.935 1.5622 -0.0498788 0
M  V30 4909 H 478.67 2.16921 2.41072 0
M  V30 4910 H 478.455 3.64984 1.43281 0
M  V30 4911 H 479.945 3.42026 2.396 0
M  V30 4912 N 480.382 0.0267497 1.57577 0
M  V30 4913 C 481.314 -0.984594 2.06974 0
M  V30 4914 C 482.327 -1.29032 0.992705 0
M  V30 4915 O 483.516 -1.25539 1.26895 0
M  V30 4916 C 480.616 -2.31262 2.47732 0
M  V30 4917 C 479.789 -2.1924 3.78487 0
M  V30 4918 C 478.848 -3.34956 4.05821 0
M  V30 4919 O 477.874 -3.11948 4.76106 0
M  V30 4920 N 479.076 -4.58672 3.55809 0
M  V30 4921 H 481.841 -0.563143 2.94362 0
M  V30 4922 H 479.402 -0.160061 1.61107 0
M  V30 4923 H 481.394 -3.07496 2.63112 0
M  V30 4924 H 479.964 -2.65056 1.65723 0
M  V30 4925 H 479.184 -1.27747 3.72927 0
M  V30 4926 H 480.472 -2.08409 4.64158 0
M  V30 4927 H 479.87 -4.8026 2.98942 0
M  V30 4928 H 478.427 -5.32083 3.76472 0
M  V30 4929 N 481.861 -1.55662 -0.24637 0
M  V30 4930 C 482.809 -1.91186 -1.3248 0
M  V30 4931 C 483.803 -0.790996 -1.49799 0
M  V30 4932 O 485.009 -0.975617 -1.51267 0
M  V30 4933 H 481.384 -0.607207 -0.443626 0
M  V30 4934 H 483.355 -2.81221 -0.997853 0
M  V30 4935 C 482.104 -2.22349 -2.67313 0
M  V30 4936 H 481.427 -3.08097 -2.54786 0
M  V30 4937 H 482.867 -2.51107 -3.41645 0
M  V30 4938 C 481.326 -1.04001 -3.20446 0
M  V30 4939 O 481.856 -0.28828 -4.00664 0
M  V30 4940 N 480.062 -0.830494 -2.7848 0
M  V30 4941 H 479.609 -1.4435 -2.13356 0
M  V30 4942 H 479.567 -0.0403258 -3.14374 0
M  V30 4943 N 483.339 0.512053 -1.4905 0
M  V30 4944 C 484.271 1.63121 -1.6101 0
M  V30 4945 C 485.284 1.55145 -0.493352 0
M  V30 4946 O 486.473 1.61278 -0.764955 0
M  V30 4947 C 483.573 3.01863 -1.54052 0
M  V30 4948 C 482.746 3.35138 -2.81072 0
M  V30 4949 C 481.805 4.5324 -2.67319 0
M  V30 4950 O 480.831 4.55571 -3.41238 0
M  V30 4951 N 482.033 5.52495 -1.78127 0
M  V30 4952 H 484.798 1.53292 -2.5753 0
M  V30 4953 H 482.359 0.699706 -1.45999 0
M  V30 4954 H 484.351 3.78774 -1.42521 0
M  V30 4955 H 482.921 3.05675 -0.654345 0
M  V30 4956 H 482.141 2.4723 -3.07036 0
M  V30 4957 H 483.429 3.54162 -3.65304 0
M  V30 4958 H 482.827 5.53403 -1.17308 0
M  V30 4959 H 481.384 6.28553 -1.72525 0
M  V30 4960 N 484.817 1.37938 0.762283 0
M  V30 4961 C 486.065 1.33404 1.51815 0
M  V30 4962 C 486.386 -0.0780975 1.94844 0
M  V30 4963 O 485.656 -1.02405 1.67003 0
M  V30 4964 H 484.236 0.490839 0.563104 0
M  V30 4965 H 486.898 1.72527 0.906669 0
M  V30 4966 H 485.994 1.97926 2.41313 0
M  V30 4967 N 486.295 -0.989507 1.22664 0
M  V30 4968 C 487.242 -2.08024 0.999733 0
M  V30 4969 C 488.212 -1.65909 -0.0797047 0
M  V30 4970 O 489.397 -1.90669 0.0705715 0
M  V30 4971 C 486.537 -3.40067 0.587234 0
M  V30 4972 C 485.65 -3.95505 1.73781 0
M  V30 4973 C 484.785 -5.15722 1.27297 0
M  V30 4974 C 483.824 -5.63305 2.39488 0
M  V30 4975 N 482.961 -6.74758 1.94026 0
M  V30 4976 H 487.801 -2.26768 1.9334 0
M  V30 4977 H 485.338 -1.11171 0.963297 0
M  V30 4978 H 487.296 -4.15899 0.329227 0
M  V30 4979 H 485.926 -3.21314 -0.309426 0
M  V30 4980 H 484.978 -3.16513 2.11006 0
M  V30 4981 H 486.29 -4.26797 2.58158 0
M  V30 4982 H 485.444 -5.98854 0.972546 0
M  V30 4983 H 484.183 -4.86061 0.399445 0
M  V30 4984 H 483.188 -4.78759 2.70315 0
M  V30 4985 H 484.413 -5.94988 3.27362 0
M  V30 4986 H 482.359 -6.46874 1.09041 0
M  V30 4987 H 482.276 -7.05386 2.71968 0
M  V30 4988 H 483.544 -7.61387 1.67062 0
M  V30 4989 N 487.773 -1.03688 -1.18687 0
M  V30 4990 C 488.72 -0.624624 -2.22187 0
M  V30 4991 C 489.69 0.365636 -1.62026 0
M  V30 4992 O 490.875 0.260481 -1.89014 0
M  V30 4993 C 488.015 0.0101738 -3.45099 0
M  V30 4994 C 487.128 -1.02709 -4.19613 0
M  V30 4995 C 486.263 -0.361213 -5.2997 0
M  V30 4996 C 485.302 -1.38384 -5.96252 0
M  V30 4997 N 484.439 -0.743196 -6.98155 0
M  V30 4998 H 489.279 -1.51176 -2.56807 0
M  V30 4999 H 486.816 -0.75636 -1.26165 0
M  V30 5000 H 488.774 0.395528 -4.15321 0
M  V30 5001 H 487.404 0.860848 -3.1111 0
M  V30 5002 H 486.456 -1.53043 -3.48256 0
M  V30 5003 H 487.768 -1.80398 -4.65036 0
M  V30 5004 H 486.922 0.0785537 -6.06649 0
M  V30 5005 H 485.661 0.447799 -4.8564 0
M  V30 5006 H 484.666 -1.83378 -5.18317 0
M  V30 5007 H 485.891 -2.19448 -6.42666 0
M  V30 5008 H 483.837 0.0455789 -6.55984 0
M  V30 5009 H 483.754 -1.45784 -7.41811 0
M  V30 5010 H 485.022 -0.327698 -7.78811 0
M  V30 5011 N 489.251 1.34841 -0.815825 0
M  V30 5012 C 490.214 2.27959 -0.238185 0
M  V30 5013 C 491.214 1.49983 0.579816 0
M  V30 5014 O 492.404 1.69617 0.396953 0
M  V30 5015 C 489.536 3.34314 0.666876 0
M  V30 5016 H 490.729 2.80558 -1.05958 0
M  V30 5017 H 488.282 1.44852 -0.587156 0
M  V30 5018 H 489.017 2.86916 1.5116 0
M  V30 5019 H 488.802 3.92014 0.0819106 0
M  V30 5020 H 490.292 4.0379 1.06506 0
M  V30 5021 N 490.729 0.570148 1.46925 0
M  V30 5022 C 491.639 -0.173061 2.33961 0
M  V30 5023 C 492.655 -0.898825 1.48987 0
M  V30 5024 O 493.831 -0.864825 1.81887 0
M  V30 5025 C 490.896 -1.18177 3.25937 0
M  V30 5026 C 489.957 -0.462041 4.26806 0
M  V30 5027 C 489.19 -1.4227 5.14388 0
M  V30 5028 O 489.413 -2.65842 5.04662 0
M  V30 5029 O 488.347 -0.940127 5.94513 0
M  V30 5030 H 492.173 0.541216 2.98839 0
M  V30 5031 H 489.758 0.330647 1.45695 0
M  V30 5032 H 491.64 -1.76372 3.82715 0
M  V30 5033 H 490.315 -1.87774 2.63671 0
M  V30 5034 H 489.222 0.161429 3.73752 0
M  V30 5035 H 490.555 0.192719 4.91823 0
M  V30 5036 N 492.207 -1.54576 0.307264 0
M  V30 5037 C 493.455 -1.99867 -0.299574 0
M  V30 5038 C 493.776 -1.19714 -1.53927 0
M  V30 5039 O 493.046 -0.29472 -1.9367 0
M  V30 5040 H 491.626 -0.738299 -0.113683 0
M  V30 5041 H 494.288 -1.9032 0.420042 0
M  V30 5042 H 493.384 -3.06901 -0.567283 0
M  V30 5043 N 493.685 -0.035106 -1.57561 0
M  V30 5044 C 494.648 0.929819 -2.09492 0
M  V30 5045 C 495.648 1.25026 -1.01119 0
M  V30 5046 O 496.838 1.18961 -1.27255 0
M  V30 5047 C 493.97 2.24457 -2.56577 0
M  V30 5048 H 495.163 0.479935 -2.96035 0
M  V30 5049 H 492.716 0.213033 -1.54841 0
M  V30 5050 H 493.451 2.74061 -1.73382 0
M  V30 5051 H 493.236 2.02508 -3.35757 0
M  V30 5052 H 494.726 2.93607 -2.96959 0
M  V30 5053 N 495.163 1.55791 0.238111 0
M  V30 5054 C 496.095 1.87513 1.31802 0
M  V30 5055 C 497.108 0.762053 1.43863 0
M  V30 5056 O 498.297 1.04024 1.45056 0
M  V30 5057 C 495.397 2.05402 2.69561 0
M  V30 5058 C 494.57 3.3632 2.79656 0
M  V30 5059 C 493.629 3.43844 3.98319 0
M  V30 5060 O 492.655 4.16994 3.87433 0
M  V30 5061 N 493.857 2.73777 5.11885 0
M  V30 5062 H 496.622 2.80734 1.04922 0
M  V30 5063 H 494.183 1.56135 0.428196 0
M  V30 5064 H 496.175 2.07769 3.47296 0
M  V30 5065 H 494.745 1.18884 2.89111 0
M  V30 5066 H 493.965 3.46195 1.88528 0
M  V30 5067 H 495.253 4.22594 2.83358 0
M  V30 5068 H 494.651 2.14094 5.23622 0
M  V30 5069 H 493.208 2.81825 5.87723 0
M  V30 5070 N 496.642 -0.504142 1.49319 0
M  V30 5071 C 497.59 -1.62689 1.66238 0
M  V30 5072 C 498.584 -1.6095 0.528349 0
M  V30 5073 O 499.79 -1.65496 0.707887 0
M  V30 5074 H 496.165 -0.539247 0.524134 0
M  V30 5075 H 498.136 -1.45571 2.60484 0
M  V30 5076 C 496.885 -3.00841 1.74328 0
M  V30 5077 H 496.208 -3.02884 2.60963 0
M  V30 5078 H 497.648 -3.78945 1.90202 0
M  V30 5079 C 496.107 -3.33355 0.487416 0
M  V30 5080 O 496.637 -3.99819 -0.388294 0
M  V30 5081 N 494.843 -2.88469 0.351306 0
M  V30 5082 H 494.39 -2.34557 1.06492 0
M  V30 5083 H 494.348 -3.10591 -0.487899 0
M  V30 5084 N 498.12 -1.38341 -0.754957 0
M  V30 5085 C 499.052 -1.31347 -1.87831 0
M  V30 5086 C 500.065 -0.225955 -1.61224 0
M  V30 5087 O 501.254 -0.48341 -1.7183 0
M  V30 5088 C 498.354 -1.01201 -3.23437 0
M  V30 5089 C 497.527 -2.20834 -3.77559 0
M  V30 5090 C 496.586 -1.87454 -4.91678 0
M  V30 5091 O 495.612 -2.59934 -5.06382 0
M  V30 5092 N 496.814 -0.828682 -5.74555 0
M  V30 5093 H 499.579 -2.28147 -1.94342 0
M  V30 5094 H 497.14 -1.32184 -0.934828 0
M  V30 5095 H 499.132 -0.769249 -3.97322 0
M  V30 5096 H 497.702 -0.132011 -3.12321 0
M  V30 5097 H 496.922 -2.61184 -2.95256 0
M  V30 5098 H 498.21 -3.00678 -4.10451 0
M  V30 5099 H 497.608 -0.227591 -5.65242 0
M  V30 5100 H 496.165 -0.645802 -6.48593 0
M  V30 5101 N 499.598 0.982988 -1.23187 0
M  V30 5102 C 500.846 1.72052 -1.06031 0
M  V30 5103 C 501.167 1.90769 0.404019 0
M  V30 5104 O 500.437 1.47446 1.28982 0
M  V30 5105 H 499.017 0.637499 -0.389363 0
M  V30 5106 H 501.679 1.18338 -1.54862 0
M  V30 5107 H 500.775 2.7111 -1.54615 0
M  V30 5108 N 501.076 1.04316 1.18135 0
M  V30 5109 C 502.023 0.636398 2.21853 0
M  V30 5110 C 502.993 -0.357039 1.62217 0
M  V30 5111 O 504.178 -0.250453 1.89149 0
M  V30 5112 C 501.318 0.00812779 3.45099 0
M  V30 5113 C 500.431 1.04933 4.19062 0
M  V30 5114 C 499.566 0.389313 5.29771 0
M  V30 5115 C 498.605 1.41544 5.9551 0
M  V30 5116 N 497.742 0.78021 6.97751 0
M  V30 5117 H 502.582 1.52536 2.56002 0
M  V30 5118 H 500.119 0.76304 1.25762 0
M  V30 5119 H 502.077 -0.373497 4.15525 0
M  V30 5120 H 500.707 -0.844336 3.11562 0
M  V30 5121 H 499.759 1.54888 3.47439 0
M  V30 5122 H 501.071 1.82862 4.64072 0
M  V30 5123 H 500.225 -0.0463805 6.06682 0
M  V30 5124 H 498.964 -0.422038 4.8587 0
M  V30 5125 H 497.969 1.86124 5.17337 0
M  V30 5126 H 499.194 2.22854 6.41493 0
M  V30 5127 H 497.14 -0.0107899 6.55999 0
M  V30 5128 H 497.057 1.49716 7.41027 0
M  V30 5129 H 498.325 0.368996 7.78626 0
M  V30 5130 N 502.554 -1.34406 0.822964 0
M  V30 5131 C 503.501 -2.29519 0.24284 0
M  V30 5132 C 504.471 -1.5359 -0.632397 0
M  V30 5133 O 505.656 -1.8196 -0.57403 0
M  V30 5134 C 502.796 -3.40032 -0.58925 0
M  V30 5135 C 501.909 -4.30899 0.308236 0
M  V30 5136 C 501.044 -5.28515 -0.533425 0
M  V30 5137 C 500.083 -6.1102 0.363444 0
M  V30 5138 N 499.22 -7.00725 -0.439147 0
M  V30 5139 H 504.06 -2.78537 1.05929 0
M  V30 5140 H 501.597 -1.3707 0.533872 0
M  V30 5141 H 503.555 -4.0279 -1.087 0
M  V30 5142 H 502.185 -2.92248 -1.37081 0
M  V30 5143 H 501.237 -3.69002 0.924203 0
M  V30 5144 H 502.549 -4.88717 0.997862 0
M  V30 5145 H 501.703 -5.96725 -1.09565 0
M  V30 5146 H 500.442 -4.71235 -1.25656 0
M  V30 5147 H 499.447 -5.41743 0.937812 0
M  V30 5148 H 500.672 -6.70381 1.08469 0
M  V30 5149 H 498.618 -6.45913 -1.14595 0
M  V30 5150 H 498.535 -7.55756 0.19209 0
M  V30 5151 H 499.803 -7.73263 -0.984124 0
M  V30 5152 N 504.032 -0.577932 -1.46621 0
M  V30 5153 C 504.995 0.147805 -2.28723 0
M  V30 5154 C 505.995 0.823325 -1.38123 0
M  V30 5155 O 507.185 0.676011 -1.60548 0
M  V30 5156 C 504.317 1.21853 -3.18378 0
M  V30 5157 H 505.51 -0.573654 -2.94362 0
M  V30 5158 H 503.063 -0.335703 -1.52652 0
M  V30 5159 H 503.798 1.97173 -2.57475 0
M  V30 5160 H 503.583 0.738714 -3.85078 0
M  V30 5161 H 505.073 1.72768 -3.80186 0
M  V30 5162 N 505.51 1.54411 -0.315457 0
M  V30 5163 C 506.42 2.27737 0.56329 0
M  V30 5164 C 507.436 1.31787 1.13614 0
M  V30 5165 O 508.612 1.64791 1.15784 0
M  V30 5166 C 505.677 3.01478 1.71207 0
M  V30 5167 C 504.738 4.12997 1.17185 0
M  V30 5168 C 503.971 4.83212 2.26588 0
M  V30 5169 O 504.194 4.52884 3.46775 0
M  V30 5170 O 503.128 5.70299 1.92463 0
M  V30 5171 H 506.954 3.03683 -0.0319614 0
M  V30 5172 H 504.539 1.49178 -0.0814188 0
M  V30 5173 H 506.421 3.47683 2.38106 0
M  V30 5174 H 505.096 2.28414 2.29366 0
M  V30 5175 H 504.003 3.71159 0.468174 0
M  V30 5176 H 505.336 4.8808 0.635501 0
M  V30 5177 N 506.988 0.0434614 1.5754 0
M  V30 5178 C 508.236 -0.630786 1.92004 0
M  V30 5179 C 508.557 -1.71836 0.921807 0
M  V30 5180 O 507.827 -1.9587 -0.034522 0
M  V30 5181 H 506.407 -0.235988 0.708745 0
M  V30 5182 H 509.069 0.0946462 1.9467 0
M  V30 5183 H 508.165 -1.07434 2.93026 0
M  V30 5184 N 508.466 -1.55915 -0.229846 0
M  V30 5185 C 509.429 -1.90914 -1.26824 0
M  V30 5186 C 510.429 -0.786999 -1.40225 0
M  V30 5187 O 511.619 -1.05484 -1.38632 0
M  V30 5188 C 508.751 -2.15264 -2.64337 0
M  V30 5189 H 509.944 -2.8378 -0.969998 0
M  V30 5190 H 507.497 -1.49069 -0.4699 0
M  V30 5191 H 508.232 -1.24923 -2.99274 0
M  V30 5192 H 508.017 -2.97005 -2.55989 0
M  V30 5193 H 509.507 -2.43467 -3.39284 0
M  V30 5194 N 509.944 0.496216 -1.49584 0
M  V30 5195 C 510.876 1.61404 -1.62731 0
M  V30 5196 C 511.889 1.54613 -0.50978 0
M  V30 5197 O 513.078 1.60458 -0.782017 0
M  V30 5198 C 510.178 3.00212 -1.57245 0
M  V30 5199 C 509.351 3.32138 -2.84611 0
M  V30 5200 C 508.41 4.5038 -2.72112 0
M  V30 5201 O 507.436 4.51926 -3.46051 0
M  V30 5202 N 508.638 5.50575 -1.83977 0
M  V30 5203 H 511.403 1.50552 -2.59141 0
M  V30 5204 H 508.964 0.684182 -1.46733 0
M  V30 5205 H 510.956 3.77241 -1.4653 0
M  V30 5206 H 509.526 3.04964 -0.686729 0
M  V30 5207 H 508.746 2.4396 -3.09641 0
M  V30 5208 H 510.034 3.50268 -3.69039 0
M  V30 5209 H 509.432 5.52128 -1.23171 0
M  V30 5210 H 507.989 6.26687 -1.79182 0
M  V30 5211 N 511.423 1.38739 0.74761 0
M  V30 5212 C 512.371 1.36573 1.88283 0
M  V30 5213 C 513.365 0.250712 1.67534 0
M  V30 5214 O 514.571 0.420073 1.7503 0
M  V30 5215 H 510.946 0.42619 0.619569 0
M  V30 5216 H 512.917 2.32356 1.87226 0
M  V30 5217 C 511.666 1.21361 3.25832 0
M  V30 5218 H 510.989 2.06424 3.42388 0
M  V30 5219 H 512.429 1.23901 4.05493 0
M  V30 5220 C 510.888 -0.0790099 3.36807 0
M  V30 5221 O 511.418 -1.05385 3.8763 0
M  V30 5222 N 509.624 -0.13785 2.90273 0
M  V30 5223 H 509.171 0.656128 2.49104 0
M  V30 5224 H 509.129 -1.00228 2.97996 0
M  V30 5225 N 512.901 -0.976442 1.23707 0
M  V30 5226 C 513.833 -2.07212 0.979574 0
M  V30 5227 C 514.846 -1.6273 -0.0478528 0
M  V30 5228 O 516.035 -1.77506 0.18815 0
M  V30 5229 C 513.135 -3.35835 0.45479 0
M  V30 5230 C 512.308 -4.09268 1.54331 0
M  V30 5231 C 511.367 -5.16166 1.02271 0
M  V30 5232 O 510.393 -5.42827 1.71254 0
M  V30 5233 N 511.595 -5.80313 -0.147419 0
M  V30 5234 H 514.36 -2.29878 1.92292 0
M  V30 5235 H 511.921 -1.14343 1.14618 0
M  V30 5236 H 513.913 -4.04597 0.0914631 0
M  V30 5237 H 512.483 -3.10106 -0.394068 0
M  V30 5238 H 511.703 -3.34906 2.07923 0
M  V30 5239 H 512.991 -4.55095 2.27522 0
M  V30 5240 H 512.389 -5.61043 -0.724353 0
M  V30 5241 H 510.946 -6.50231 -0.451972 0
M  V30 5242 N 514.379 -1.04941 -1.1758 0
M  V30 5243 C 515.627 -0.756492 -1.87408 0
M  V30 5244 C 515.948 0.718478 -1.81281 0
M  V30 5245 O 515.218 1.519 -1.23706 0
M  V30 5246 H 513.798 -0.276841 -0.693807 0
M  V30 5247 H 516.46 -1.32803 -1.42652 0
M  V30 5248 H 515.556 -1.06918 -2.93215 0
M  V30 5249 N 515.857 1.33968 -0.830081 0
M  V30 5250 C 516.804 2.29387 -0.255008 0
M  V30 5251 C 517.774 1.53923 0.624243 0
M  V30 5252 O 518.959 1.82262 0.564372 0
M  V30 5253 C 516.099 3.4034 0.571209 0
M  V30 5254 C 515.212 4.30729 -0.331083 0
M  V30 5255 C 514.347 5.2879 0.505389 0
M  V30 5256 C 513.386 6.10819 -0.395843 0
M  V30 5257 N 512.523 7.00948 0.401979 0
M  V30 5258 H 517.363 2.77972 -1.07404 0
M  V30 5259 H 514.9 1.36785 -0.541133 0
M  V30 5260 H 516.858 4.03361 1.06562 0
M  V30 5261 H 515.488 2.9297 1.35529 0
M  V30 5262 H 514.54 3.68507 -0.943759 0
M  V30 5263 H 515.852 4.88181 -1.02377 0
M  V30 5264 H 515.006 5.97297 1.06399 0
M  V30 5265 H 513.745 4.71894 1.23155 0
M  V30 5266 H 512.75 5.41238 -0.966529 0
M  V30 5267 H 513.975 6.69797 -1.12023 0
M  V30 5268 H 511.921 6.46512 1.11168 0
M  V30 5269 H 511.838 7.55643 -0.232167 0
M  V30 5270 H 513.106 7.73774 0.943102 0
M  V30 5271 N 517.335 0.585699 1.46312 0
M  V30 5272 C 518.282 -0.145835 2.30339 0
M  V30 5273 C 519.252 -0.881215 1.40797 0
M  V30 5274 O 520.437 -0.871293 1.69744 0
M  V30 5275 C 517.577 -1.15161 3.25318 0
M  V30 5276 C 516.69 -0.419367 4.2996 0
M  V30 5277 C 515.825 -1.41293 5.12064 0
M  V30 5278 C 514.864 -0.667261 6.08452 0
M  V30 5279 N 514.001 -1.60903 6.83414 0
M  V30 5280 H 518.841 0.576755 2.92365 0
M  V30 5281 H 516.378 0.296237 1.44086 0
M  V30 5282 H 518.336 -1.74763 3.78832 0
M  V30 5283 H 516.966 -1.84188 2.65094 0
M  V30 5284 H 516.018 0.291751 3.7928 0
M  V30 5285 H 517.33 0.163433 4.98532 0
M  V30 5286 H 516.484 -2.08167 5.6987 0
M  V30 5287 H 515.223 -2.02966 4.43459 0
M  V30 5288 H 514.228 0.0152356 5.49798 0
M  V30 5289 H 515.453 -0.0558817 6.79077 0
M  V30 5290 H 513.399 -2.21381 6.17516 0
M  V30 5291 H 513.316 -1.07911 7.48259 0
M  V30 5292 H 514.584 -2.26802 7.45775 0
M  V30 5293 N 518.813 -1.54241 0.323641 0
M  V30 5294 C 519.776 -2.22997 -0.529602 0
M  V30 5295 C 520.776 -1.22345 -1.04347 0
M  V30 5296 O 521.966 -1.46924 -0.935889 0
M  V30 5297 C 519.098 -2.93409 -1.73562 0
M  V30 5298 H 520.291 -2.99815 0.0714518 0
M  V30 5299 H 517.844 -1.56121 0.0747258 0
M  V30 5300 H 518.579 -2.20729 -2.37591 0
M  V30 5301 H 518.364 -3.67217 -1.37456 0
M  V30 5302 H 519.854 -3.45794 -2.34128 0
M  V30 5303 N 520.291 -0.0518155 -1.57515 0
M  V30 5304 C 521.201 0.937539 -2.15052 0
M  V30 5305 C 522.217 1.34121 -1.10849 0
M  V30 5306 O 523.393 1.418 -1.4302 0
M  V30 5307 C 520.458 2.19379 -2.68466 0
M  V30 5308 C 519.519 1.84841 -3.87469 0
M  V30 5309 C 518.752 3.04477 -4.38326 0
M  V30 5310 O 518.975 4.17868 -3.88256 0
M  V30 5311 O 517.909 2.85453 -5.29906 0
M  V30 5312 H 521.735 0.478201 -2.99912 0
M  V30 5313 H 519.32 0.17012 -1.48428 0
M  V30 5314 H 521.202 2.93084 -3.02787 0
M  V30 5315 H 519.877 2.64449 -1.86677 0
M  V30 5316 H 518.784 1.08449 -3.58036 0
M  V30 5317 H 520.117 1.44569 -4.7049 0
M  V30 5318 N 521.769 1.56035 0.221574 0
M  V30 5319 C 523.017 1.78693 0.944102 0
M  V30 5320 C 523.338 0.620317 1.8487 0
M  V30 5321 O 522.608 -0.362784 1.92512 0
M  V30 5322 H 521.188 0.659082 0.351597 0
M  V30 5323 H 523.85 1.93497 0.233435 0
M  V30 5324 H 522.946 2.70837 1.55093 0
M  V30 5325 N 523.247 -0.488276 1.49845 0
M  V30 5326 C 524.21 -1.57069 1.66919 0
M  V30 5327 C 525.21 -1.51445 0.540479 0
M  V30 5328 O 526.4 -1.5437 0.807188 0
M  V30 5329 C 523.532 -2.96718 1.67844 0
M  V30 5330 H 524.725 -1.43254 2.63474 0
M  V30 5331 H 522.278 -0.713435 1.39068 0
M  V30 5332 H 523.013 -3.15996 0.7292 0
M  V30 5333 H 522.798 -3.02208 2.49826 0
M  V30 5334 H 524.288 -3.75335 1.83066 0
M  V30 5335 N 524.725 -1.39134 -0.740242 0
M  V30 5336 C 525.657 -1.33332 -1.86428 0
M  V30 5337 C 526.67 -0.243042 -1.60976 0
M  V30 5338 O 527.859 -0.501608 -1.71307 0
M  V30 5339 C 524.959 -1.04626 -3.22346 0
M  V30 5340 C 524.132 -2.24826 -3.75196 0
M  V30 5341 C 523.191 -1.92659 -4.89662 0
M  V30 5342 O 522.217 -2.6529 -5.03597 0
M  V30 5343 N 523.419 -0.889575 -5.73643 0
M  V30 5344 H 526.184 -2.30196 -1.91911 0
M  V30 5345 H 523.745 -1.33168 -0.920756 0
M  V30 5346 H 525.737 -0.811347 -3.96484 0
M  V30 5347 H 524.307 -0.165129 -3.12164 0
M  V30 5348 H 523.527 -2.64301 -2.9247 0
M  V30 5349 H 524.815 -3.05015 -4.07239 0
M  V30 5350 H 524.213 -0.287529 -5.64969 0
M  V30 5351 H 522.77 -0.714557 -6.47871 0
M  V30 5352 N 526.204 0.969867 -1.24223 0
M  V30 5353 C 527.152 2.08535 -1.03034 0
M  V30 5354 C 528.146 1.69366 0.0340379 0
M  V30 5355 O 529.352 1.79597 -0.12034 0
M  V30 5356 H 525.727 0.682313 -0.316154 0
M  V30 5357 H 527.698 2.23569 -1.97635 0
M  V30 5358 C 526.447 3.4158 -0.649509 0
M  V30 5359 H 525.77 3.72177 -1.46028 0
M  V30 5360 H 527.21 4.20536 -0.540841 0
M  V30 5361 C 525.669 3.30703 0.643194 0
M  V30 5362 O 526.199 3.64443 1.68951 0
M  V30 5363 N 524.405 2.83841 0.623095 0
M  V30 5364 H 523.952 2.56583 -0.228719 0
M  V30 5365 H 523.91 2.76946 1.48823 0
M  V30 5366 N 527.682 1.05563 1.17022 0
M  V30 5367 C 528.614 0.617888 2.20714 0
M  V30 5368 C 529.627 -0.320303 1.59618 0
M  V30 5369 O 530.816 -0.112449 1.78145 0
M  V30 5370 C 527.916 -0.115333 3.38704 0
M  V30 5371 C 527.089 0.834493 4.29366 0
M  V30 5372 C 526.148 0.141855 5.26009 0
M  V30 5373 O 525.174 0.777151 5.6387 0
M  V30 5374 N 526.376 -1.11934 5.69606 0
M  V30 5375 H 529.141 1.50981 2.58892 0
M  V30 5376 H 526.702 0.938008 1.31958 0
M  V30 5377 H 528.694 -0.588918 4.00392 0
M  V30 5378 H 527.264 -0.908967 2.99093 0
M  V30 5379 H 526.484 1.48762 3.65053 0
M  V30 5380 H 527.772 1.4791 4.86827 0
M  V30 5381 H 527.17 -1.65574 5.40927 0
M  V30 5382 H 525.727 -1.53692 6.33421 0
M  V30 5383 N 529.16 -1.33526 0.837174 0
M  V30 5384 C 530.408 -1.97446 0.431211 0
M  V30 5385 C 530.729 -1.6665 -1.01255 0
M  V30 5386 O 529.999 -0.964559 -1.70508 0
M  V30 5387 H 528.579 -0.73043 0.156463 0
M  V30 5388 H 531.241 -1.62918 1.06976 0
M  V30 5389 H 530.337 -3.07001 0.561877 0
M  V30 5390 N 530.638 -0.59345 -1.46 0
M  V30 5391 C 531.585 0.133618 -2.30413 0
M  V30 5392 C 532.555 0.873736 -1.41262 0
M  V30 5393 O 533.74 0.862279 -1.70204 0
M  V30 5394 C 530.88 1.13434 -3.25924 0
M  V30 5395 C 529.993 0.39656 -4.30176 0
M  V30 5396 C 529.128 1.38575 -5.12806 0
M  V30 5397 C 528.167 0.634984 -6.08797 0
M  V30 5398 N 527.304 1.57276 -6.84258 0
M  V30 5399 H 532.144 -0.592252 -2.92055 0
M  V30 5400 H 529.681 -0.303874 -1.43927 0
M  V30 5401 H 531.639 1.72752 -3.79753 0
M  V30 5402 H 530.269 1.82779 -2.66067 0
M  V30 5403 H 529.321 -0.311861 -3.79119 0
M  V30 5404 H 530.633 -0.189869 -4.98438 0
M  V30 5405 H 529.787 2.05141 -5.70966 0
M  V30 5406 H 528.526 2.00611 -4.44529 0
M  V30 5407 H 527.531 -0.0443925 -5.49782 0
M  V30 5408 H 528.756 0.0198678 -6.79097 0
M  V30 5409 H 526.702 2.18103 -6.18682 0
M  V30 5410 H 526.619 1.03941 -7.48821 0
M  V30 5411 H 527.887 2.22844 -7.46968 0
M  V30 5412 N 532.116 1.54067 -0.331816 0
M  V30 5413 C 533.063 2.24623 0.530372 0
M  V30 5414 C 534.033 1.24009 1.10503 0
M  V30 5415 O 535.218 1.52712 1.14384 0
M  V30 5416 C 532.358 3.01374 1.68129 0
M  V30 5417 C 531.471 4.16821 1.13507 0
M  V30 5418 C 530.606 4.81085 2.25234 0
M  V30 5419 C 529.645 5.88621 1.67903 0
M  V30 5420 N 528.782 6.46713 2.73326 0
M  V30 5421 H 533.622 2.97898 -0.0778607 0
M  V30 5422 H 531.159 1.47014 -0.0501965 0
M  V30 5423 H 533.117 3.44125 2.35868 0
M  V30 5424 H 531.747 2.30419 2.26069 0
M  V30 5425 H 530.799 3.78796 0.348979 0
M  V30 5426 H 532.111 4.94203 0.675633 0
M  V30 5427 H 531.265 5.26846 3.00862 0
M  V30 5428 H 530.004 4.03102 2.74518 0
M  V30 5429 H 529.009 5.42254 0.907773 0
M  V30 5430 H 530.234 6.68506 1.19487 0
M  V30 5431 H 528.18 5.71599 3.21886 0
M  V30 5432 H 528.097 7.19532 2.3197 0
M  V30 5433 H 529.365 6.97129 3.48758 0
M  V30 5434 N 533.594 0.0601682 1.57485 0
M  V30 5435 C 534.557 -0.896373 2.10945 0
M  V30 5436 C 535.557 -1.23402 1.03095 0
M  V30 5437 O 536.747 -1.16921 1.29132 0
M  V30 5438 C 533.879 -2.20346 2.60116 0
M  V30 5439 H 535.072 -0.432778 2.96761 0
M  V30 5440 H 532.625 -0.188372 1.55161 0
M  V30 5441 H 533.36 -2.71268 1.7772 0
M  V30 5442 H 533.145 -1.9714 3.38937 0
M  V30 5443 H 534.635 -2.88846 3.01592 0
M  V30 5444 N 535.072 -1.5615 -0.213296 0
M  V30 5445 C 535.982 -1.96265 -1.28519 0
M  V30 5446 C 536.998 -0.86765 -1.50824 0
M  V30 5447 O 538.174 -1.17191 -1.63793 0
M  V30 5448 C 535.239 -2.27836 -2.61327 0
M  V30 5449 C 534.3 -3.50949 -2.47252 0
M  V30 5450 C 533.533 -3.81004 -3.73727 0
M  V30 5451 O 533.756 -3.12612 -4.77106 0
M  V30 5452 O 532.69 -4.74477 -3.70344 0
M  V30 5453 H 536.516 -2.87631 -0.974795 0
M  V30 5454 H 534.101 -1.43467 -0.416832 0
M  V30 5455 H 535.983 -2.49299 -3.39747 0
M  V30 5456 H 534.658 -1.39643 -2.9203 0
M  V30 5457 H 533.565 -3.34754 -1.67004 0
M  V30 5458 H 534.898 -4.39551 -2.21486 0
M  V30 5459 N 536.55 0.480323 -1.50102 0
M  V30 5460 C 537.798 1.23063 -1.60312 0
M  V30 5461 C 538.119 1.92659 -0.301226 0
M  V30 5462 O 537.389 1.83691 0.680753 0
M  V30 5463 H 535.969 0.457231 -0.590719 0
M  V30 5464 H 538.631 0.554893 -1.86834 0
M  V30 5465 H 537.727 1.9835 -2.40964 0
M  V30 5466 N 538.028 1.39524 0.732853 0
M  V30 5467 C 538.991 1.38189 1.82857 0
M  V30 5468 C 539.991 0.278624 1.58368 0
M  V30 5469 O 541.181 0.536639 1.65728 0
M  V30 5470 C 538.313 1.15661 3.2068 0
M  V30 5471 H 539.506 2.35692 1.85444 0
M  V30 5472 H 537.059 1.2512 0.936728 0
M  V30 5473 H 537.794 0.188482 3.23752 0
M  V30 5474 H 537.579 1.95559 3.39852 0
M  V30 5475 H 539.069 1.17472 4.00737 0
M  V30 5476 N 539.506 -0.963266 1.24736 0
M  V30 5477 C 540.438 -2.06162 1.0015 0
M  V30 5478 C 541.451 -1.62771 -0.0305905 0
M  V30 5479 O 542.64 -1.77296 0.206966 0
M  V30 5480 C 539.74 -3.35333 0.490385 0
M  V30 5481 C 538.913 -4.07609 1.58663 0
M  V30 5482 C 537.972 -5.15052 1.0774 0
M  V30 5483 O 536.998 -5.4098 1.77002 0
M  V30 5484 N 538.2 -5.80436 -0.0858605 0
M  V30 5485 H 540.965 -2.27825 1.94719 0
M  V30 5486 H 538.526 -1.13121 1.15825 0
M  V30 5487 H 540.518 -4.04477 0.134371 0
M  V30 5488 H 539.088 -3.10507 -0.361155 0
M  V30 5489 H 538.308 -3.32681 2.11463 0
M  V30 5490 H 539.596 -4.52656 2.32336 0
M  V30 5491 H 538.994 -5.6178 -0.664806 0
M  V30 5492 H 537.551 -6.50674 -0.382981 0
M  V30 5493 N 540.985 -1.06182 -1.16461 0
M  V30 5494 C 541.933 -0.665716 -2.2287 0
M  V30 5495 C 542.927 0.317822 -1.66392 0
M  V30 5496 O 544.133 0.182807 -1.79069 0
M  V30 5497 H 540.508 -0.197148 -0.725697 0
M  V30 5498 H 542.479 -1.57307 -2.53569 0
M  V30 5499 C 541.228 -0.0669803 -3.47635 0
M  V30 5500 H 540.551 -0.814899 -3.91407 0
M  V30 5501 H 541.991 0.172669 -4.23648 0
M  V30 5502 C 540.45 1.18913 -3.15216 0
M  V30 5503 O 540.98 2.27723 -3.30916 0
M  V30 5504 N 539.186 1.09066 -2.69357 0
M  V30 5505 H 538.733 0.20518 -2.56782 0
M  V30 5506 H 538.691 1.93195 -2.48039 0
M  V30 5507 N 542.463 1.3308 -0.844243 0
M  V30 5508 C 543.395 2.27954 -0.238671 0
M  V30 5509 C 544.408 1.51978 0.583665 0
M  V30 5510 O 545.597 1.73731 0.409857 0
M  V30 5511 C 542.697 3.31963 0.682185 0
M  V30 5512 C 541.87 4.37281 -0.101998 0
M  V30 5513 C 540.929 5.20928 0.743022 0
M  V30 5514 O 539.955 5.68914 0.180285 0
M  V30 5515 N 541.157 5.42738 2.0595 0
M  V30 5516 H 543.922 2.8056 -1.05386 0
M  V30 5517 H 541.483 1.4583 -0.70322 0
M  V30 5518 H 543.475 3.84828 1.25259 0
M  V30 5519 H 542.045 2.79594 1.39808 0
M  V30 5520 H 541.265 3.84843 -0.853802 0
M  V30 5521 H 542.553 5.04746 -0.641015 0
M  V30 5522 H 541.951 5.05463 2.54016 0
M  V30 5523 H 540.508 5.98639 2.57827 0
M  V30 5524 N 543.941 0.601185 1.45683 0
M  V30 5525 C 545.189 0.0936957 2.01883 0
M  V30 5526 C 545.51 -1.2779 1.47291 0
M  V30 5527 O 544.78 -1.84279 0.664691 0
M  V30 5528 H 543.36 0.0316466 0.746329 0
M  V30 5529 H 546.022 0.781137 1.78562 0
M  V30 5530 H 545.118 0.0386297 3.12076 0
M  V30 5531 N 545.419 -1.53889 0.339982 0
M  V30 5532 C 546.366 -2.24902 -0.518452 0
M  V30 5533 C 547.336 -1.24593 -1.09844 0
M  V30 5534 O 548.521 -1.53317 -1.13572 0
M  V30 5535 C 545.661 -3.02262 -1.66529 0
M  V30 5536 C 544.774 -4.17418 -1.11295 0
M  V30 5537 C 543.909 -4.82273 -2.2268 0
M  V30 5538 C 542.948 -5.89503 -1.6478 0
M  V30 5539 N 542.085 -6.48153 -2.69893 0
M  V30 5540 H 546.925 -2.97853 0.0936579 0
M  V30 5541 H 544.462 -1.46986 0.0579924 0
M  V30 5542 H 546.42 -3.45371 -2.3404 0
M  V30 5543 H 545.05 -2.31614 -2.24844 0
M  V30 5544 H 544.102 -3.78976 -0.328886 0
M  V30 5545 H 545.414 -4.94554 -0.649414 0
M  V30 5546 H 544.568 -5.28435 -2.98063 0
M  V30 5547 H 543.307 -4.04552 -2.72376 0
M  V30 5548 H 542.312 -5.42728 -0.879004 0
M  V30 5549 H 543.537 -6.6913 -1.1594 0
M  V30 5550 H 541.483 -5.73298 -3.1885 0
M  V30 5551 H 541.4 -7.20752 -2.28151 0
M  V30 5552 H 542.668 -6.98968 -3.45056 0
M  V30 5553 N 546.897 -0.0685191 -1.57451 0
M  V30 5554 C 547.844 0.899861 -2.12535 0
M  V30 5555 C 548.814 1.29749 -1.03703 0
M  V30 5556 O 549.999 1.38392 -1.31348 0
M  V30 5557 C 547.139 2.16328 -2.6888 0
M  V30 5558 C 546.252 1.81857 -3.91857 0
M  V30 5559 C 545.387 3.02786 -4.36457 0
M  V30 5560 C 544.426 2.64317 -5.5209 0
M  V30 5561 N 543.563 3.77994 -5.91663 0
M  V30 5562 H 548.403 0.423243 -2.94979 0
M  V30 5563 H 545.94 0.197268 -1.45771 0
M  V30 5564 H 547.898 2.90281 -2.99655 0
M  V30 5565 H 546.528 2.61536 -1.89206 0
M  V30 5566 H 545.58 0.979808 -3.67565 0
M  V30 5567 H 546.892 1.49553 -4.75852 0
M  V30 5568 H 546.046 3.85021 -4.68875 0
M  V30 5569 H 544.785 3.38281 -3.51308 0
M  V30 5570 H 543.79 1.80503 -5.19325 0
M  V30 5571 H 545.015 2.29995 -6.38967 0
M  V30 5572 H 542.961 4.13258 -5.09464 0
M  V30 5573 H 542.878 3.49447 -6.7039 0
M  V30 5574 H 544.146 4.60818 -6.28703 0
M  V30 5575 N 548.375 1.56261 0.205012 0
M  V30 5576 C 549.338 1.92908 1.23771 0
M  V30 5577 C 550.338 0.809208 1.38955 0
M  V30 5578 O 551.528 1.07676 1.36936 0
M  V30 5579 C 548.66 2.19442 2.60879 0
M  V30 5580 H 549.853 2.85287 0.924728 0
M  V30 5581 H 547.406 1.49798 0.446125 0
M  V30 5582 H 548.141 1.29668 2.97248 0
M  V30 5583 H 547.926 3.0104 2.51232 0
M  V30 5584 H 549.416 2.48833 3.35368 0
M  V30 5585 N 549.853 -0.472356 1.50355 0
M  V30 5586 C 550.763 -1.59637 1.7191 0
M  V30 5587 C 551.779 -1.63247 0.602195 0
M  V30 5588 O 552.955 -1.81139 0.880369 0
M  V30 5589 C 550.02 -2.9586 1.80742 0
M  V30 5590 C 549.081 -3.02649 3.04471 0
M  V30 5591 C 548.314 -4.32374 3.12872 0
M  V30 5592 O 548.537 -5.22807 2.28099 0
M  V30 5593 O 547.471 -4.44728 4.05587 0
M  V30 5594 H 551.297 -1.44373 2.67189 0
M  V30 5595 H 548.882 -0.651717 1.34436 0
M  V30 5596 H 550.764 -3.7677 1.88739 0
M  V30 5597 H 549.439 -3.11325 0.88647 0
M  V30 5598 H 548.346 -2.20821 3.01975 0
M  V30 5599 H 549.679 -2.92119 3.9614 0
M  V30 5600 N 551.331 -1.39911 -0.725443 0
M  V30 5601 C 552.579 -1.37382 -1.48224 0
M  V30 5602 C 552.9 0.0264107 -1.94982 0
M  V30 5603 O 552.17 0.979408 -1.6966 0
M  V30 5604 H 550.75 -0.505596 -0.549892 0
M  V30 5605 H 553.412 -1.7487 -0.860608 0
M  V30 5606 H 552.508 -2.04254 -2.3598 0
M  V30 5607 N 552.809 0.956637 -1.25245 0
M  V30 5608 C 553.772 2.03457 -1.05537 0
M  V30 5609 C 554.772 1.60798 -0.00886317 0
M  V30 5610 O 555.962 1.72384 -0.250865 0
M  V30 5611 C 553.094 3.35543 -0.601965 0
M  V30 5612 H 554.287 2.22372 -2.01223 0
M  V30 5613 H 551.84 1.13344 -1.07623 0
M  V30 5614 H 552.575 3.22323 0.357584 0
M  V30 5615 H 552.36 3.67854 -1.35743 0
M  V30 5616 H 553.85 4.14769 -0.485454 0
M  V30 5617 N 554.287 1.06798 1.15896 0
M  V30 5618 C 555.219 0.641263 2.20046 0
M  V30 5619 C 556.232 -0.303355 1.59949 0
M  V30 5620 O 557.421 -0.0935478 1.78255 0
M  V30 5621 C 554.521 -0.0794029 3.38807 0
M  V30 5622 C 553.694 0.879986 4.28457 0
M  V30 5623 C 552.753 0.197638 5.25829 0
M  V30 5624 O 551.779 0.836913 5.63014 0
M  V30 5625 N 552.981 -1.05886 5.70761 0
M  V30 5626 H 555.746 1.53718 2.57276 0
M  V30 5627 H 553.307 0.951951 1.30956 0
M  V30 5628 H 555.299 -0.546418 4.00994 0
M  V30 5629 H 553.869 -0.877193 3.0004 0
M  V30 5630 H 553.089 1.52625 3.63454 0
M  V30 5631 H 554.377 1.53065 4.8523 0
M  V30 5632 H 553.775 -1.59828 5.42652 0
M  V30 5633 H 552.332 -1.46965 6.35015 0
M  V30 5634 N 555.766 -1.3263 0.851289 0
M  V30 5635 C 556.714 -2.30882 0.282202 0
M  V30 5636 C 557.708 -1.58697 -0.592589 0
M  V30 5637 O 558.914 -1.73461 -0.480768 0
M  V30 5638 H 555.289 -0.748492 0.0725487 0
M  V30 5639 H 557.26 -2.76374 1.12516 0
M  V30 5640 C 556.009 -3.43828 -0.517449 0
M  V30 5641 H 555.332 -3.99532 0.146392 0
M  V30 5642 H 556.772 -4.1474 -0.88128 0
M  V30 5643 C 555.231 -2.90786 -1.70133 0
M  V30 5644 O 555.761 -2.88 -2.80034 0
M  V30 5645 N 553.967 -2.4723 -1.52728 0
M  V30 5646 H 553.514 -2.49695 -0.633257 0
M  V30 5647 H 553.472 -2.12094 -2.32085 0
M  V30 5648 N 557.244 -0.608902 -1.45362 0
M  V30 5649 C 558.176 0.147318 -2.28726 0
M  V30 5650 C 559.189 0.830468 -1.40025 0
M  V30 5651 O 560.378 0.695636 -1.64387 0
M  V30 5652 C 557.478 1.22968 -3.15804 0
M  V30 5653 C 556.651 0.633391 -4.3279 0
M  V30 5654 C 555.71 1.60682 -5.01067 0
M  V30 5655 O 554.736 1.13261 -5.57818 0
M  V30 5656 N 555.938 2.94123 -5.00472 0
M  V30 5657 H 558.703 -0.568014 -2.94268 0
M  V30 5658 H 556.264 -0.448479 -1.55564 0
M  V30 5659 H 558.256 1.88072 -3.58345 0
M  V30 5660 H 556.826 1.84752 -2.52162 0
M  V30 5661 H 556.046 -0.195762 -3.93714 0
M  V30 5662 H 557.334 0.215255 -5.08344 0
M  V30 5663 H 556.732 3.3525 -4.55657 0
M  V30 5664 H 555.289 3.54646 -5.46872 0
M  V30 5665 N 558.722 1.53707 -0.348139 0
M  V30 5666 C 559.97 2.00591 0.246478 0
M  V30 5667 C 560.291 1.23753 1.50699 0
M  V30 5668 O 559.561 0.345964 1.92821 0
M  V30 5669 H 558.141 0.741053 0.0940679 0
M  V30 5670 H 560.803 1.89139 -0.470354 0
M  V30 5671 H 559.899 3.08297 0.485714 0
M  V30 5672 N 560.2 0.0768682 1.57412 0
M  V30 5673 C 561.147 -0.888577 2.13009 0
M  V30 5674 C 562.117 -1.29198 1.0439 0
M  V30 5675 O 563.302 -1.37694 1.3208 0
M  V30 5676 C 560.442 -2.14899 2.70023 0
M  V30 5677 C 559.555 -1.79777 3.92816 0
M  V30 5678 C 558.69 -3.00467 4.38056 0
M  V30 5679 C 557.729 -2.61385 5.53484 0
M  V30 5680 N 556.866 -3.74851 5.93659 0
M  V30 5681 H 561.706 -0.407593 2.95199 0
M  V30 5682 H 559.243 -0.189534 1.45874 0
M  V30 5683 H 561.201 -2.88688 3.0119 0
M  V30 5684 H 559.831 -2.60529 1.9059 0
M  V30 5685 H 558.883 -0.960301 3.68079 0
M  V30 5686 H 560.195 -1.47027 4.76639 0
M  V30 5687 H 559.349 -3.82529 4.7091 0
M  V30 5688 H 558.088 -3.36413 3.53097 0
M  V30 5689 H 557.093 -1.77746 5.20275 0
M  V30 5690 H 558.318 -2.26603 6.40178 0
M  V30 5691 H 556.264 -4.1055 5.11649 0
M  V30 5692 H 556.181 -3.45887 6.72234 0
M  V30 5693 H 557.449 -4.57477 6.31138 0
M  V30 5694 N 561.678 -1.56367 -0.196722 0
M  V30 5695 C 562.625 -1.94417 -1.24382 0
M  V30 5696 C 563.595 -0.804543 -1.45315 0
M  V30 5697 O 564.78 -1.06256 -1.58475 0
M  V30 5698 C 561.92 -2.28757 -2.58388 0
M  V30 5699 C 561.033 -3.55775 -2.45047 0
M  V30 5700 C 560.168 -3.79445 -3.71746 0
M  V30 5701 C 559.207 -4.99894 -3.53231 0
M  V30 5702 N 558.344 -5.19826 -4.71938 0
M  V30 5703 H 563.184 -2.83691 -0.912338 0
M  V30 5704 H 560.721 -1.40392 -0.439135 0
M  V30 5705 H 562.679 -2.46682 -3.36457 0
M  V30 5706 H 561.309 -1.42625 -2.89582 0
M  V30 5707 H 560.361 -3.45905 -1.58284 0
M  V30 5708 H 561.673 -4.44 -2.27299 0
M  V30 5709 H 560.827 -3.97601 -4.58256 0
M  V30 5710 H 559.566 -2.89546 -3.92446 0
M  V30 5711 H 558.571 -4.81662 -2.65107 0
M  V30 5712 H 559.796 -5.913 -3.33978 0
M  V30 5713 H 557.742 -4.32875 -4.92905 0
M  V30 5714 H 557.659 -6.02228 -4.57009 0
M  V30 5715 H 558.927 -5.42439 -5.59803 0
M  V30 5716 N 563.156 0.464375 -1.50603 0
M  V30 5717 C 564.381 1.24372 -1.65971 0
M  V30 5718 C 564.806 1.84901 -0.345453 0
M  V30 5719 O 564.164 1.67596 0.691457 0
M  V30 5720 C 564.212 2.32331 -2.7578 0
M  V30 5721 O 563.316 3.37146 -2.375 0
M  V30 5722 H 562.657 0.365604 -0.554283 0
M  V30 5723 H 565.187 0.55183 -1.97018 0
M  V30 5724 H 565.197 2.77539 -2.99059 0
M  V30 5725 H 563.872 1.87648 -3.71162 0
M  V30 5726 H 562.449 2.97602 -2.24694 0
M  V30 5727 N 564.634 1.40294 0.718013 0
M  V30 5728 C 565.544 1.42678 1.86226 0
M  V30 5729 C 566.56 0.319655 1.71039 0
M  V30 5730 O 567.736 0.563852 1.93346 0
M  V30 5731 C 564.801 1.2852 3.21999 0
M  V30 5732 C 563.862 2.49354 3.49458 0
M  V30 5733 C 563.095 2.35863 4.78753 0
M  V30 5734 O 563.318 1.37114 5.53675 0
M  V30 5735 O 562.252 3.25189 5.06494 0
M  V30 5736 H 566.078 2.39167 1.87171 0
M  V30 5737 H 563.663 1.2159 0.868112 0
M  V30 5738 H 565.545 1.22824 4.03103 0
M  V30 5739 H 564.22 0.351359 3.21787 0
M  V30 5740 H 563.127 2.60628 2.68373 0
M  V30 5741 H 564.46 3.41491 3.54464 0
M  V30 5742 N 566.112 -0.949982 1.2575 0
M  V30 5743 C 567.36 -1.6918 1.10555 0
M  V30 5744 C 567.681 -1.91773 -0.353298 0
M  V30 5745 O 566.951 -1.50814 -1.25027 0
M  V30 5746 H 565.531 -0.626952 0.406129 0
M  V30 5747 H 568.193 -1.1419 1.57945 0
M  V30 5748 H 567.289 -2.66915 1.61749 0
M  V30 5749 N 567.59 -1.07411 -1.15328 0
M  V30 5750 C 568.553 -0.698914 -2.18284 0
M  V30 5751 C 569.553 0.261149 -1.58665 0
M  V30 5752 O 570.743 0.0420277 -1.74149 0
M  V30 5753 C 567.875 -0.0302427 -3.40887 0
M  V30 5754 H 569.068 -1.61045 -2.52991 0
M  V30 5755 H 566.621 -0.870724 -1.298 0
M  V30 5756 H 567.356 0.893505 -3.11748 0
M  V30 5757 H 567.141 -0.720759 -3.85419 0
M  V30 5758 H 568.631 0.21759 -4.17033 0
M  V30 5759 N 569.068 1.32177 -0.85831 0
M  V30 5760 C 570 2.27688 -0.262835 0
M  V30 5761 C 571.013 1.52588 0.567513 0
M  V30 5762 O 572.202 1.74156 0.391407 0
M  V30 5763 C 569.302 3.32668 0.646937 0
M  V30 5764 C 568.475 4.37148 -0.148372 0
M  V30 5765 C 567.534 5.21686 0.687728 0
M  V30 5766 O 566.56 5.69074 0.119934 0
M  V30 5767 N 567.762 5.44892 2.00182 0
M  V30 5768 H 570.527 2.79426 -1.08356 0
M  V30 5769 H 568.088 1.45076 -0.718647 0
M  V30 5770 H 570.08 3.86134 1.2117 0
M  V30 5771 H 568.65 2.81061 1.36834 0
M  V30 5772 H 567.87 3.83915 -0.894572 0
M  V30 5773 H 569.158 5.04038 -0.694514 0
M  V30 5774 H 568.556 5.08128 2.4864 0
M  V30 5775 H 567.113 6.0134 2.51463 0
M  V30 5776 N 570.547 0.616602 1.45037 0
M  V30 5777 C 571.495 -0.109318 2.32343 0
M  V30 5778 C 572.489 -0.850543 1.465 0
M  V30 5779 O 573.695 -0.765088 1.62931 0
M  V30 5780 H 570.07 -0.0541091 0.750051 0
M  V30 5781 H 572.041 0.645326 2.91338 0
M  V30 5782 C 570.79 -1.0872 3.30266 0
M  V30 5783 H 570.113 -0.526267 3.96321 0
M  V30 5784 H 571.553 -1.56489 3.94065 0
M  V30 5785 C 570.012 -2.16525 2.58105 0
M  V30 5786 O 570.542 -3.244 2.36913 0
M  V30 5787 N 568.748 -1.92057 2.18088 0
M  V30 5788 H 568.295 -1.04337 2.35524 0
M  V30 5789 H 568.253 -2.64391 1.70131 0
M  V30 5790 N 572.025 -1.5352 0.356285 0
M  V30 5791 C 572.957 -2.23009 -0.529127 0
M  V30 5792 C 573.97 -1.241 -1.05371 0
M  V30 5793 O 575.159 -1.50379 -0.961679 0
M  V30 5794 C 572.259 -2.90685 -1.74229 0
M  V30 5795 C 571.432 -4.16019 -1.35081 0
M  V30 5796 C 570.491 -4.66989 -2.42502 0
M  V30 5797 O 569.517 -5.30895 -2.05279 0
M  V30 5798 N 570.719 -4.44006 -3.7395 0
M  V30 5799 H 573.484 -2.99627 0.0660501 0
M  V30 5800 H 571.045 -1.60885 0.181014 0
M  V30 5801 H 573.037 -3.21695 -2.4555 0
M  V30 5802 H 571.607 -2.17575 -2.24454 0
M  V30 5803 H 570.827 -3.91414 -0.467833 0
M  V30 5804 H 572.115 -4.9752 -1.06542 0
M  V30 5805 H 571.513 -3.92924 -4.06973 0
M  V30 5806 H 570.07 -4.7959 -4.41403 0
M  V30 5807 N 573.503 -0.0852151 -1.57369 0
M  V30 5808 C 574.751 0.579658 -1.93609 0
M  V30 5809 C 575.072 1.69332 -0.967043 0
M  V30 5810 O 574.342 1.95892 -0.0174215 0
M  V30 5811 H 572.922 0.217113 -0.714752 0
M  V30 5812 H 575.584 -0.146226 -1.94351 0
M  V30 5813 H 574.68 0.996276 -2.95771 0
M  V30 5814 N 574.981 1.5647 0.188427 0
M  V30 5815 C 575.928 1.95073 1.23349 0
M  V30 5816 C 576.898 0.812238 1.44886 0
M  V30 5817 O 578.083 1.07095 1.57909 0
M  V30 5818 C 575.223 2.30124 2.57171 0
M  V30 5819 C 574.336 3.57069 2.43157 0
M  V30 5820 C 573.471 3.81411 3.69729 0
M  V30 5821 C 572.51 5.0176 3.50575 0
M  V30 5822 N 571.647 5.22321 4.69175 0
M  V30 5823 H 576.487 2.84171 0.89728 0
M  V30 5824 H 574.024 1.40623 0.431683 0
M  V30 5825 H 575.982 2.48463 3.35145 0
M  V30 5826 H 574.612 1.44159 2.88822 0
M  V30 5827 H 573.664 3.4674 1.56447 0
M  V30 5828 H 574.976 4.452 2.24942 0
M  V30 5829 H 574.13 4.00026 4.56141 0
M  V30 5830 H 572.869 2.91624 3.90905 0
M  V30 5831 H 571.874 4.83061 2.62549 0
M  V30 5832 H 573.099 5.93063 3.30837 0
M  V30 5833 H 571.045 4.35483 4.90602 0
M  V30 5834 H 570.962 6.04643 4.53809 0
M  V30 5835 H 572.23 5.45401 5.56919 0
M  V30 5836 N 576.459 -0.456382 1.50847 0
M  V30 5837 C 577.406 -1.55249 1.70782 0
M  V30 5838 C 578.376 -1.56757 0.549231 0
M  V30 5839 O 579.561 -1.74061 0.7815 0
M  V30 5840 C 576.701 -2.93118 1.82143 0
M  V30 5841 C 575.814 -3.01285 3.09598 0
M  V30 5842 C 574.949 -4.30159 3.11667 0
M  V30 5843 C 573.988 -4.32124 4.33515 0
M  V30 5844 N 573.125 -5.52492 4.3324 0
M  V30 5845 H 577.965 -1.37555 2.64353 0
M  V30 5846 H 575.502 -0.668543 1.3103 0
M  V30 5847 H 577.46 -3.73088 1.86711 0
M  V30 5848 H 576.09 -3.09413 0.919978 0
M  V30 5849 H 575.142 -2.14096 3.14431 0
M  V30 5850 H 576.454 -2.98597 3.99551 0
M  V30 5851 H 575.608 -5.18489 3.15046 0
M  V30 5852 H 574.347 -4.35477 2.1957 0
M  V30 5853 H 573.352 -3.42189 4.30333 0
M  V30 5854 H 574.577 -4.28485 5.26856 0
M  V30 5855 H 572.523 -5.58567 3.44004 0
M  V30 5856 H 572.44 -5.51605 5.16979 0
M  V30 5857 H 573.708 -6.42906 4.40786 0
M  V30 5858 N 577.937 -1.40673 -0.710563 0
M  V30 5859 C 579.183 -1.39428 -1.47267 0
M  V30 5860 C 579.516 0.00182129 -1.942 0
M  V30 5861 O 578.791 0.971387 -1.68506 0
M  V30 5862 C 579.074 -2.38812 -2.6952 0
M  V30 5863 C 578.927 -3.87467 -2.28449 0
M  V30 5864 C 580.246 -2.3566 -3.71689 0
M  V30 5865 H 577.365 -0.507768 -0.534173 0
M  V30 5866 H 580.007 -1.71843 -0.810547 0
M  V30 5867 H 578.157 -2.113 -3.26013 0
M  V30 5868 H 579.829 -4.25825 -1.77399 0
M  V30 5869 H 578.072 -4.03058 -1.60395 0
M  V30 5870 H 578.743 -4.5253 -3.16103 0
M  V30 5871 H 581.219 -2.6004 -3.24836 0
M  V30 5872 H 580.095 -3.07237 -4.54859 0
M  V30 5873 H 580.356 -1.36996 -4.20339 0
M  V30 5874 N 579.415 0.9433 -1.26252 0
M  V30 5875 C 580.325 2.07532 -1.09397 0
M  V30 5876 C 581.341 1.73977 -0.0280449 0
M  V30 5877 O 582.517 2.00067 -0.231337 0
M  V30 5878 C 579.582 3.39002 -0.726523 0
M  V30 5879 C 578.643 3.86353 -1.87163 0
M  V30 5880 C 577.876 5.11549 -1.52162 0
M  V30 5881 O 578.099 5.68834 -0.422385 0
M  V30 5882 O 577.033 5.53889 -2.35565 0
M  V30 5883 H 580.859 2.24658 -2.04359 0
M  V30 5884 H 578.444 1.05988 -1.05295 0
M  V30 5885 H 580.326 4.18 -0.534236 0
M  V30 5886 H 579.001 3.2312 0.193721 0
M  V30 5887 H 577.908 3.0831 -2.11886 0
M  V30 5888 H 579.241 4.06752 -2.77152 0
M  V30 5889 N 580.893 1.08022 1.14757 0
M  V30 5890 C 582.141 0.805913 1.85336 0
M  V30 5891 C 582.462 -0.670162 1.83122 0
M  V30 5892 O 581.732 -1.48567 1.2769 0
M  V30 5893 H 580.312 0.295138 0.686223 0
M  V30 5894 H 582.974 1.36538 1.3908 0
M  V30 5895 H 582.07 1.14655 2.90277 0
M  V30 5896 N 582.371 -1.3172 0.865308 0
M  V30 5897 C 583.334 -2.26918 0.322627 0
M  V30 5898 C 584.334 -1.52031 -0.523751 0
M  V30 5899 O 585.524 -1.70973 -0.333727 0
M  V30 5900 C 582.656 -3.36558 -0.542338 0
M  V30 5901 H 583.849 -2.76432 1.16298 0
M  V30 5902 H 581.402 -1.42573 0.640512 0
M  V30 5903 H 582.137 -2.92329 -1.40407 0
M  V30 5904 H 581.922 -3.92048 0.0636395 0
M  V30 5905 H 583.412 -4.07465 -0.91446 0
M  V30 5906 N 583.85 -0.624285 -1.44708 0
M  V30 5907 C 584.782 0.12305 -2.28869 0
M  V30 5908 C 585.795 0.81557 -1.40898 0
M  V30 5909 O 586.984 0.678162 -1.65116 0
M  V30 5910 C 584.084 1.19612 -3.1709 0
M  V30 5911 C 583.257 0.587452 -4.33437 0
M  V30 5912 C 582.316 1.55358 -5.02743 0
M  V30 5913 O 581.341 1.07338 -5.58988 0
M  V30 5914 N 582.543 2.88798 -5.03563 0
M  V30 5915 H 585.308 -0.599193 -2.93649 0
M  V30 5916 H 582.87 -0.464954 -1.5508 0
M  V30 5917 H 584.861 1.84261 -3.60319 0
M  V30 5918 H 583.432 1.82067 -2.54107 0
M  V30 5919 H 582.652 -0.237509 -3.93484 0
M  V30 5920 H 583.94 0.161326 -5.08544 0
M  V30 5921 H 583.338 3.30399 -4.59188 0
M  V30 5922 H 581.894 3.48826 -5.50603 0
M  V30 5923 N 585.328 1.53329 -0.364422 0
M  V30 5924 C 586.276 2.27212 0.497737 0
M  V30 5925 C 587.27 1.30146 1.08437 0
M  V30 5926 O 588.476 1.47778 1.0277 0
M  V30 5927 H 584.851 0.730329 0.179232 0
M  V30 5928 H 586.822 2.98037 -0.147182 0
M  V30 5929 C 585.571 3.07333 1.6261 0
M  V30 5930 H 584.894 3.81866 1.184 0
M  V30 5931 H 586.334 3.62209 2.20409 0
M  V30 5932 C 584.793 2.18102 2.56775 0
M  V30 5933 O 585.323 1.79104 3.59562 0
M  V30 5934 N 583.529 1.82759 2.25937 0
M  V30 5935 H 583.076 2.14671 1.42387 0
M  V30 5936 H 583.034 1.23342 2.89196 0
M  V30 5937 N 586.806 0.0935595 1.57322 0
M  V30 5938 C 587.738 -0.895923 2.10964 0
M  V30 5939 C 588.751 -1.24705 1.04654 0
M  V30 5940 O 589.94 -1.20044 1.32105 0
M  V30 5941 C 587.04 -2.20546 2.57318 0
M  V30 5942 C 586.213 -2.0299 3.87445 0
M  V30 5943 C 585.272 -3.17443 4.19662 0
M  V30 5944 O 584.298 -2.91474 4.88909 0
M  V30 5945 N 585.5 -4.43168 3.74943 0
M  V30 5946 H 588.265 -0.437788 2.96485 0
M  V30 5947 H 585.826 -0.0915863 1.61641 0
M  V30 5948 H 587.818 -2.9606 2.75917 0
M  V30 5949 H 586.388 -2.57789 1.76816 0
M  V30 5950 H 585.608 -1.11815 3.78009 0
M  V30 5951 H 586.896 -1.88535 4.7258 0
M  V30 5952 H 586.294 -4.67149 3.19043 0
M  V30 5953 H 584.851 -5.15637 3.987 0
M  V30 5954 N 588.284 -1.56567 -0.180126 0
M  V30 5955 C 589.532 -1.81133 -0.896392 0
M  V30 5956 C 589.853 -0.669114 -1.83161 0
M  V30 5957 O 589.123 0.311616 -1.93406 0
M  V30 5958 H 587.703 -0.668172 -0.333999 0
M  V30 5959 H 590.365 -1.94048 -0.182051 0
M  V30 5960 H 589.461 -2.74854 -1.47857 0
M  V30 5961 N 589.762 0.448376 -1.51087 0
M  V30 5962 C 590.709 1.54341 -1.71603 0
M  V30 5963 C 591.679 1.56463 -0.557536 0
M  V30 5964 O 592.864 1.73644 -0.79072 0
M  V30 5965 C 590.004 2.92148 -1.83695 0
M  V30 5966 C 589.117 2.99639 -3.11192 0
M  V30 5967 C 588.252 4.285 -3.13944 0
M  V30 5968 C 587.291 4.29819 -4.35801 0
M  V30 5969 N 586.428 5.50186 -4.36164 0
M  V30 5970 H 591.268 1.36151 -2.65079 0
M  V30 5971 H 588.805 0.661585 -1.31383 0
M  V30 5972 H 590.763 3.72093 -1.88687 0
M  V30 5973 H 589.393 3.0892 -0.936374 0
M  V30 5974 H 588.445 2.12425 -3.15562 0
M  V30 5975 H 589.757 2.96474 -4.01129 0
M  V30 5976 H 588.911 5.16811 -3.17791 0
M  V30 5977 H 587.65 4.34307 -2.21876 0
M  V30 5978 H 586.655 3.39902 -4.32142 0
M  V30 5979 H 587.88 4.25685 -5.29121 0
M  V30 5980 H 585.826 5.56735 -3.46961 0
M  V30 5981 H 585.743 5.48856 -5.19897 0
M  V30 5982 H 587.011 6.40559 -4.44189 0
M  V30 5983 N 591.24 1.41047 0.703093 0
M  V30 5984 C 592.187 1.42302 1.81711 0
M  V30 5985 C 593.157 0.278336 1.63751 0
M  V30 5986 O 594.342 0.478266 1.84709 0
M  V30 5987 C 591.482 1.30362 3.19531 0
M  V30 5988 C 590.595 2.54638 3.48975 0
M  V30 5989 C 589.73 2.35047 4.76368 0
M  V30 5990 C 588.769 3.54837 4.98756 0
M  V30 5991 N 587.906 3.34363 6.1737 0
M  V30 5992 H 592.746 2.37516 1.79973 0
M  V30 5993 H 590.283 1.1795 0.878983 0
M  V30 5994 H 592.241 1.21443 3.99134 0
M  V30 5995 H 590.871 0.387602 3.20464 0
M  V30 5996 H 589.923 2.74037 2.63833 0
M  V30 5997 H 591.235 3.43766 3.61423 0
M  V30 5998 H 590.389 2.23552 5.64012 0
M  V30 5999 H 589.128 1.43363 4.66153 0
M  V30 6000 H 588.133 3.66795 4.09563 0
M  V30 6001 H 589.358 4.47464 5.10835 0
M  V30 6002 H 587.304 2.45373 6.08382 0
M  V30 6003 H 587.221 4.17063 6.30551 0
M  V30 6004 H 588.489 3.26626 7.07768 0
M  V30 6005 N 592.718 -0.936591 1.26751 0
M  V30 6006 C 593.681 -2.01752 1.08761 0
M  V30 6007 C 594.681 -1.60763 0.0344435 0
M  V30 6008 O 595.871 -1.71963 0.278258 0
M  V30 6009 C 593.003 -3.34543 0.655271 0
M  V30 6010 H 594.196 -2.19143 2.04735 0
M  V30 6011 H 591.749 -1.11618 1.09413 0
M  V30 6012 H 592.484 -3.22851 -0.30626 0
M  V30 6013 H 592.269 -3.65647 1.41578 0
M  V30 6014 H 593.759 -4.13944 0.551378 0
M  V30 6015 N 594.196 -1.08629 -1.14182 0
M  V30 6016 C 595.106 -0.730126 -2.22949 0
M  V30 6017 C 596.122 0.26436 -1.7198 0
M  V30 6018 O 597.298 0.107742 -2.01112 0
M  V30 6019 C 594.363 -0.147227 -3.46387 0
M  V30 6020 C 593.424 -1.19662 -4.12286 0
M  V30 6021 C 592.657 -0.641437 -5.29831 0
M  V30 6022 O 592.88 0.538351 -5.67854 0
M  V30 6023 O 591.814 -1.39257 -5.85569 0
M  V30 6024 H 595.64 -1.63753 -2.55771 0
M  V30 6025 H 593.225 -0.860118 -1.22157 0
M  V30 6026 H 595.107 0.174923 -4.21037 0
M  V30 6027 H 593.782 0.733304 -3.15285 0
M  V30 6028 H 592.689 -1.57133 -3.395 0
M  V30 6029 H 594.022 -2.0495 -4.475 0
M  V30 6030 N 595.674 1.31259 -0.872281 0
M  V30 6031 C 596.922 1.96233 -0.483409 0
M  V30 6032 C 597.243 1.69276 0.968012 0
M  V30 6033 O 596.513 1.00943 1.67891 0
M  V30 6034 H 595.093 0.726025 -0.175774 0
M  V30 6035 H 597.755 1.60024 -1.11258 0
M  V30 6036 H 596.851 3.05403 -0.643075 0
M  V30 6037 N 597.152 0.631951 1.44375 0
M  V30 6038 C 598.115 -0.0628142 2.29114 0
M  V30 6039 C 599.115 -0.771494 1.41084 0
M  V30 6040 O 600.305 -0.615959 1.62947 0
M  V30 6041 C 597.437 -1.09953 3.22681 0
M  V30 6042 H 598.63 0.682509 2.92031 0
M  V30 6043 H 596.183 0.392128 1.51301 0
M  V30 6044 H 596.918 -1.87481 2.64616 0
M  V30 6045 H 596.703 -0.595286 3.87555 0
M  V30 6046 H 598.193 -1.58538 3.86336 0
M  V30 6047 N 598.631 -1.53133 0.372548 0
M  V30 6048 C 599.563 -2.23557 -0.505444 0
M  V30 6049 C 600.576 -1.25211 -1.04049 0
M  V30 6050 O 601.765 -1.51391 -0.945675 0
M  V30 6051 C 598.865 -2.92516 -1.71136 0
M  V30 6052 C 598.038 -4.17428 -1.30661 0
M  V30 6053 C 597.097 -4.69535 -2.37536 0
M  V30 6054 O 596.123 -5.33042 -1.99637 0
M  V30 6055 N 597.325 -4.47947 -3.6922 0
M  V30 6056 H 600.09 -2.9954 0.0978259 0
M  V30 6057 H 597.651 -1.60684 0.198068 0
M  V30 6058 H 599.643 -3.24281 -2.42124 0
M  V30 6059 H 598.213 -2.19944 -2.22134 0
M  V30 6060 H 597.433 -3.91888 -0.426292 0
M  V30 6061 H 598.721 -4.98622 -1.01259 0
M  V30 6062 H 598.119 -3.97219 -4.02783 0
M  V30 6063 H 596.676 -4.84245 -4.36292 0
M  V30 6064 N 600.109 -0.101901 -1.5727 0
M  V30 6065 C 601.057 0.872034 -2.15635 0
M  V30 6066 C 602.051 1.28742 -1.10099 0
M  V30 6067 O 603.257 1.26116 -1.28432 0
M  V30 6068 H 599.632 0.299269 -0.689886 0
M  V30 6069 H 601.603 0.355137 -2.96279 0
M  V30 6070 C 600.352 2.11886 -2.7568 0
M  V30 6071 H 599.675 1.80813 -3.56576 0
M  V30 6072 H 601.115 2.78077 -3.20077 0
M  V30 6073 C 599.574 2.89739 -1.7191 0
M  V30 6074 O 600.104 3.84522 -1.16213 0
M  V30 6075 N 598.31 2.53407 -1.42245 0
M  V30 6076 H 597.857 1.76398 -1.87727 0
M  V30 6077 H 597.815 3.05795 -0.730529 0
M  V30 6078 N 601.587 1.56661 0.17182 0
M  V30 6079 C 602.519 1.92934 1.2373 0
M  V30 6080 C 603.532 0.822385 1.40502 0
M  V30 6081 O 604.721 1.10083 1.40514 0
M  V30 6082 C 601.821 2.16651 2.60607 0
M  V30 6083 C 600.994 3.47878 2.6514 0
M  V30 6084 C 600.053 3.60429 3.83377 0
M  V30 6085 O 599.079 4.33051 3.69398 0
M  V30 6086 N 600.281 2.95241 4.99813 0
M  V30 6087 H 603.046 2.84931 0.929205 0
M  V30 6088 H 600.607 1.5781 0.361588 0
M  V30 6089 H 602.599 2.22312 3.38171 0
M  V30 6090 H 601.169 1.3104 2.83809 0
M  V30 6091 H 600.389 3.53879 1.73675 0
M  V30 6092 H 601.677 4.34232 2.6518 0
M  V30 6093 H 601.075 2.3611 5.14071 0
M  V30 6094 H 599.632 3.06499 5.75241 0
M  V30 6095 N 603.065 -0.440357 1.51323 0
M  V30 6096 C 604.313 -1.18769 1.63518 0
M  V30 6097 C 604.634 -1.91793 0.352201 0
M  V30 6098 O 603.904 -1.85432 -0.631811 0
M  V30 6099 H 602.484 -0.441408 0.602634 0
M  V30 6100 H 605.146 -0.505162 1.8824 0
M  V30 6101 H 604.242 -1.91892 2.46138 0
M  V30 6102 N 604.543 -1.41418 -0.695603 0
M  V30 6103 C 605.49 -1.43264 -1.80954 0
M  V30 6104 C 606.46 -0.287016 -1.63601 0
M  V30 6105 O 607.645 -0.488054 -1.84452 0
M  V30 6106 C 604.785 -1.32054 -3.18835 0
M  V30 6107 C 603.898 -2.56485 -3.4762 0
M  V30 6108 C 603.033 -2.3757 -4.75115 0
M  V30 6109 C 602.072 -3.57477 -4.96867 0
M  V30 6110 N 601.209 -3.37632 -6.15588 0
M  V30 6111 H 606.049 -2.38467 -1.78711 0
M  V30 6112 H 603.586 -1.18415 -0.872715 0
M  V30 6113 H 605.544 -1.23558 -3.98484 0
M  V30 6114 H 604.174 -0.404592 -3.20254 0
M  V30 6115 H 603.226 -2.75432 -2.62376 0
M  V30 6116 H 604.538 -3.45678 -3.59594 0
M  V30 6117 H 603.692 -2.2654 -5.62818 0
M  V30 6118 H 602.431 -1.45834 -4.65386 0
M  V30 6119 H 601.436 -3.68961 -4.07612 0
M  V30 6120 H 602.661 -4.50167 -5.08455 0
M  V30 6121 H 600.607 -2.48596 -6.07072 0
M  V30 6122 H 600.524 -4.20401 -6.2833 0
M  V30 6123 H 601.792 -3.30375 -7.06026 0
M  V30 6124 N 606.021 0.929856 -1.27246 0
M  V30 6125 C 606.968 2.03017 -1.09785 0
M  V30 6126 C 607.938 1.661 0.000456744 0
M  V30 6127 O 609.123 1.90116 -0.161462 0
M  V30 6128 C 606.263 3.36878 -0.748816 0
M  V30 6129 C 605.376 3.86763 -1.92453 0
M  V30 6130 C 604.511 5.09061 -1.51758 0
M  V30 6131 C 603.55 5.51237 -2.66091 0
M  V30 6132 N 602.687 6.64732 -2.25999 0
M  V30 6133 H 607.527 2.17285 -2.03939 0
M  V30 6134 H 605.064 1.06448 -1.01524 0
M  V30 6135 H 607.022 4.13855 -0.527283 0
M  V30 6136 H 605.652 3.22424 0.155771 0
M  V30 6137 H 604.704 3.06086 -2.25867 0
M  V30 6138 H 606.016 4.13994 -2.78227 0
M  V30 6139 H 605.17 5.93532 -1.25716 0
M  V30 6140 H 603.909 4.83602 -0.630896 0
M  V30 6141 H 602.914 4.65316 -2.92849 0
M  V30 6142 H 604.139 5.78692 -3.55377 0
M  V30 6143 H 602.085 6.40935 -1.3978 0
M  V30 6144 H 602.002 6.91607 -3.05313 0
M  V30 6145 H 603.27 7.52549 -2.03199 0
M  V30 6146 N 607.499 1.09233 1.13605 0
M  V30 6147 C 608.462 0.733553 2.17144 0
M  V30 6148 C 609.462 -0.235873 1.59061 0
M  V30 6149 O 610.652 -0.0143167 1.74194 0
M  V30 6150 C 607.784 0.084471 3.40795 0
M  V30 6151 H 608.977 1.65049 2.50397 0
M  V30 6152 H 606.53 0.891264 1.28399 0
M  V30 6153 H 607.265 -0.843795 3.1313 0
M  V30 6154 H 607.05 0.781985 3.84223 0
M  V30 6155 H 608.54 -0.151216 4.17326 0
M  V30 6156 N 608.977 -1.30795 0.87923 0
M  V30 6157 C 609.887 -2.32041 0.345565 0
M  V30 6158 C 610.903 -1.65103 -0.549265 0
M  V30 6159 O 612.079 -1.9645 -0.443763 0
M  V30 6160 C 609.144 -3.43944 -0.436245 0
M  V30 6161 C 608.205 -4.26521 0.48765 0
M  V30 6162 C 607.438 -5.33081 -0.256943 0
M  V30 6163 O 607.661 -5.50762 -1.48381 0
M  V30 6164 O 606.595 -6.00635 0.389985 0
M  V30 6165 H 610.421 -2.79627 1.18501 0
M  V30 6166 H 608.006 -1.3486 0.642885 0
M  V30 6167 H 609.888 -4.12128 -0.879119 0
M  V30 6168 H 608.563 -2.98504 -1.25208 0
M  V30 6169 H 607.47 -3.61057 0.979216 0
M  V30 6170 H 608.803 -4.75551 1.26933 0
M  V30 6171 N 610.455 -0.639598 -1.44038 0
M  V30 6172 C 611.703 -0.147188 -2.01563 0
M  V30 6173 C 612.024 1.2384 -1.50628 0
M  V30 6174 O 611.294 1.82452 -0.713316 0
M  V30 6175 H 609.874 -0.0514231 -0.745228 0
M  V30 6176 H 612.536 -0.828205 -1.76428 0
M  V30 6177 H 611.632 -0.121358 -3.11864 0
M  V30 6178 N 611.933 1.52934 -0.380664 0
M  V30 6179 C 612.896 2.24809 0.446473 0
M  V30 6180 C 613.896 1.26133 0.997347 0
M  V30 6181 O 615.086 1.50297 0.880714 0
M  V30 6182 C 612.218 2.99649 1.62553 0
M  V30 6183 H 613.411 2.99343 -0.182677 0
M  V30 6184 H 610.964 1.55736 -0.132618 0
M  V30 6185 H 611.699 2.29395 2.29235 0
M  V30 6186 H 611.484 3.72066 1.23732 0
M  V30 6187 H 612.974 3.54246 2.21133 0
M  V30 6188 N 613.412 0.11024 1.57214 0
M  V30 6189 C 614.344 -0.873497 2.11902 0
M  V30 6190 C 615.357 -1.23588 1.05971 0
M  V30 6191 O 616.546 -1.18636 1.33371 0
M  V30 6192 C 613.646 -2.17805 2.59643 0
M  V30 6193 C 612.819 -1.98869 3.89576 0
M  V30 6194 C 611.878 -3.12974 4.23006 0
M  V30 6195 O 610.904 -2.86272 4.91973 0
M  V30 6196 N 612.106 -4.39167 3.79622 0
M  V30 6197 H 614.871 -0.406317 2.96933 0
M  V30 6198 H 612.432 -0.074437 1.61729 0
M  V30 6199 H 614.424 -2.93117 2.79042 0
M  V30 6200 H 612.994 -2.55899 1.7954 0
M  V30 6201 H 612.214 -1.078 3.79174 0
M  V30 6202 H 613.502 -1.83512 4.74553 0
M  V30 6203 H 612.9 -4.63739 3.2398 0
M  V30 6204 H 611.457 -5.11379 4.04147 0
M  V30 6205 N 614.89 -1.56749 -0.16351 0
M  V30 6206 C 615.838 -1.97939 -1.22159 0
M  V30 6207 C 616.832 -0.869288 -1.45395 0
M  V30 6208 O 618.038 -1.05443 -1.45883 0
M  V30 6209 H 614.413 -0.629869 -0.410815 0
M  V30 6210 H 616.384 -2.86115 -0.847381 0
M  V30 6211 C 615.133 -2.36206 -2.55151 0
M  V30 6212 H 614.456 -3.2117 -2.38097 0
M  V30 6213 H 615.896 -2.68863 -3.27854 0
M  V30 6214 C 614.355 -1.20841 -3.14482 0
M  V30 6215 O 614.885 -0.500258 -3.98573 0
M  V30 6216 N 613.091 -0.976943 -2.73686 0
M  V30 6217 H 612.638 -1.55457 -2.05404 0
M  V30 6218 H 612.596 -0.206912 -3.13718 0
M  V30 6219 N 616.368 0.432326 -1.51554 0
M  V30 6220 C 617.3 1.54357 -1.6943 0
M  V30 6221 C 618.313 1.52311 -0.574897 0
M  V30 6222 O 619.502 1.56997 -0.849369 0
M  V30 6223 C 616.602 2.93273 -1.69836 0
M  V30 6224 C 615.775 3.19768 -2.98442 0
M  V30 6225 C 614.834 4.38433 -2.90969 0
M  V30 6226 O 613.86 4.36842 -3.64908 0
M  V30 6227 N 615.062 5.42276 -2.07163 0
M  V30 6228 H 617.827 1.39426 -2.65293 0
M  V30 6229 H 615.388 0.621331 -1.49503 0
M  V30 6230 H 617.38 3.70687 -1.62399 0
M  V30 6231 H 615.95 3.01777 -0.815456 0
M  V30 6232 H 615.17 2.30607 -3.19709 0
M  V30 6233 H 616.458 3.343 -3.83563 0
M  V30 6234 H 615.856 5.46407 -1.46477 0
M  V30 6235 H 614.413 6.18524 -2.05601 0
M  V30 6236 N 617.846 1.41785 0.688094 0
M  V30 6237 C 619.094 1.41264 1.4453 0
M  V30 6238 C 619.415 0.0252946 1.94984 0
M  V30 6239 O 618.685 -0.934081 1.72197 0
M  V30 6240 H 617.265 0.519998 0.536294 0
M  V30 6241 H 619.927 1.7709 0.813941 0
M  V30 6242 H 619.023 2.10439 2.30482 0
M  V30 6243 N 619.324 -0.923095 1.27737 0
M  V30 6244 C 620.271 -2.02432 1.1086 0
M  V30 6245 C 621.241 -1.66098 0.00835195 0
M  V30 6246 O 622.426 -1.90027 0.171542 0
M  V30 6247 C 619.566 -3.36476 0.766671 0
M  V30 6248 C 618.679 -3.85737 1.94501 0
M  V30 6249 C 617.814 -5.08249 1.54455 0
M  V30 6250 C 616.853 -5.49818 2.6901 0
M  V30 6251 N 615.99 -6.63524 2.29521 0
M  V30 6252 H 620.83 -2.16201 2.05089 0
M  V30 6253 H 618.367 -1.05909 1.02087 0
M  V30 6254 H 620.325 -4.13569 0.549223 0
M  V30 6255 H 618.955 -3.22502 -0.13867 0
M  V30 6256 H 618.007 -3.04883 2.27487 0
M  V30 6257 H 619.319 -4.12513 2.80419 0
M  V30 6258 H 618.473 -5.92857 1.28862 0
M  V30 6259 H 617.212 -4.83261 0.656534 0
M  V30 6260 H 616.217 -4.63757 2.95313 0
M  V30 6261 H 617.442 -5.76799 3.5844 0
M  V30 6262 H 615.388 -6.40185 1.43177 0
M  V30 6263 H 615.305 -6.89978 3.08977 0
M  V30 6264 H 616.573 -7.51461 2.07187 0
M  V30 6265 N 620.802 -1.09834 -1.13024 0
M  V30 6266 C 621.749 -0.741522 -2.18564 0
M  V30 6267 C 622.719 0.279236 -1.63736 0
M  V30 6268 O 623.904 0.159923 -1.90129 0
M  V30 6269 C 621.044 -0.17277 -3.44667 0
M  V30 6270 C 620.157 -1.24808 -4.13578 0
M  V30 6271 C 619.292 -0.641631 -5.27311 0
M  V30 6272 C 618.331 -1.69795 -5.88078 0
M  V30 6273 N 617.468 -1.11223 -6.93234 0
M  V30 6274 H 622.308 -1.64576 -2.48432 0
M  V30 6275 H 619.845 -0.822174 -1.21978 0
M  V30 6276 H 621.803 0.17482 -4.16834 0
M  V30 6277 H 620.433 0.694725 -3.15235 0
M  V30 6278 H 619.485 -1.71288 -3.39653 0
M  V30 6279 H 620.797 -2.04795 -4.54819 0
M  V30 6280 H 619.951 -0.243128 -6.06213 0
M  V30 6281 H 618.69 0.189742 -4.87331 0
M  V30 6282 H 617.695 -2.10595 -5.07868 0
M  V30 6283 H 618.92 -2.53206 -6.3013 0
M  V30 6284 H 616.866 -0.302208 -6.55304 0
M  V30 6285 H 616.783 -1.84901 -7.3304 0
M  V30 6286 H 618.051 -0.740068 -7.75979 0
M  V30 6287 N 622.28 1.30327 -0.886154 0
M  V30 6288 C 623.243 2.26376 -0.358687 0
M  V30 6289 C 624.243 1.52845 0.499498 0
M  V30 6290 O 625.433 1.71483 0.306485 0
M  V30 6291 C 622.565 3.37379 0.488726 0
M  V30 6292 H 623.758 2.74547 -1.20681 0
M  V30 6293 H 621.311 1.41536 -0.663113 0
M  V30 6294 H 622.046 2.94526 1.35739 0
M  V30 6295 H 621.831 3.91897 -0.126003 0
M  V30 6296 H 623.321 4.08868 0.84952 0
M  V30 6297 N 623.758 0.647228 1.43697 0
M  V30 6298 C 624.668 -0.0487997 2.34549 0
M  V30 6299 C 625.684 -0.818586 1.53542 0
M  V30 6300 O 626.86 -0.767195 1.86215 0
M  V30 6301 C 623.925 -1.00734 3.31743 0
M  V30 6302 C 622.986 -0.23515 4.28655 0
M  V30 6303 C 622.219 -1.14803 5.21206 0
M  V30 6304 O 622.442 -2.38717 5.18045 0
M  V30 6305 O 621.376 -0.623667 5.9866 0
M  V30 6306 H 625.202 0.698863 2.9555 0
M  V30 6307 H 622.787 0.407412 1.43738 0
M  V30 6308 H 624.669 -1.55837 3.91526 0
M  V30 6309 H 623.344 -1.73534 2.73254 0
M  V30 6310 H 622.251 0.359319 3.7237 0
M  V30 6311 H 623.584 0.453152 4.9011 0
M  V30 6312 N 625.236 -1.5273 0.388769 0
M  V30 6313 C 626.484 -2.01174 -0.193208 0
M  V30 6314 C 626.805 -1.27705 -1.47365 0
M  V30 6315 O 626.075 -0.396966 -1.91836 0
M  V30 6316 H 624.655 -0.743287 -0.0743871 0
M  V30 6317 H 627.317 -1.87826 0.520336 0
M  V30 6318 H 626.413 -3.09477 -0.403803 0
M  V30 6319 N 626.714 -0.118576 -1.57153 0
M  V30 6320 C 627.677 0.817464 -2.14127 0
M  V30 6321 C 628.677 1.1949 -1.07604 0
M  V30 6322 O 629.867 1.12048 -1.33382 0
M  V30 6323 C 626.999 2.10541 -2.68115 0
M  V30 6324 H 628.192 0.322339 -2.98163 0
M  V30 6325 H 625.745 0.130655 -1.55753 0
M  V30 6326 H 626.48 2.64485 -1.87665 0
M  V30 6327 H 626.265 1.84425 -3.4602 0
M  V30 6328 H 627.755 2.77453 -3.12105 0
M  V30 6329 N 628.193 1.56834 0.155195 0
M  V30 6330 C 629.125 1.94235 1.21677 0
M  V30 6331 C 630.138 0.83724 1.39621 0
M  V30 6332 O 631.327 1.11567 1.39338 0
M  V30 6333 C 628.427 2.19402 2.58294 0
M  V30 6334 C 627.6 3.50671 2.61436 0
M  V30 6335 C 626.659 3.64475 3.79532 0
M  V30 6336 O 625.685 4.36945 3.64784 0
M  V30 6337 N 626.887 3.00526 4.96653 0
M  V30 6338 H 629.652 2.85901 0.898932 0
M  V30 6339 H 627.213 1.58185 0.34483 0
M  V30 6340 H 629.205 2.25886 3.35794 0
M  V30 6341 H 627.775 1.34042 2.82403 0
M  V30 6342 H 626.995 3.55702 1.69912 0
M  V30 6343 H 628.283 4.3702 2.60559 0
M  V30 6344 H 627.681 2.41549 5.11538 0
M  V30 6345 H 626.238 3.12583 5.71958 0
M  V30 6346 N 629.671 -0.424282 1.51781 0
M  V30 6347 C 630.619 -1.53649 1.74628 0
M  V30 6348 C 631.613 -1.57923 0.612922 0
M  V30 6349 O 632.819 -1.61511 0.794618 0
M  V30 6350 H 629.194 -0.510706 0.551981 0
M  V30 6351 H 631.165 -1.31558 2.67834 0
M  V30 6352 C 629.914 -2.91177 1.9003 0
M  V30 6353 H 629.237 -2.88625 2.76651 0
M  V30 6354 H 630.677 -3.6833 2.10021 0
M  V30 6355 C 629.136 -3.30303 0.663435 0
M  V30 6356 O 629.666 -4.01315 -0.175812 0
M  V30 6357 N 627.872 -2.86201 0.503723 0
M  V30 6358 H 627.419 -2.28583 1.18776 0
M  V30 6359 H 627.377 -3.12741 -0.322575 0
M  V30 6360 N 631.149 -1.42148 -0.680565 0
M  V30 6361 C 632.081 -1.41119 -1.80605 0
M  V30 6362 C 633.094 -0.311099 -1.598 0
M  V30 6363 O 634.283 -0.573813 -1.69026 0
M  V30 6364 C 631.383 -1.18204 -3.17618 0
M  V30 6365 C 630.556 -2.40537 -3.65322 0
M  V30 6366 C 629.615 -2.13254 -4.8105 0
M  V30 6367 O 628.641 -2.8641 -4.91892 0
M  V30 6368 N 629.843 -1.13208 -5.69354 0
M  V30 6369 H 632.608 -2.38128 -1.81975 0
M  V30 6370 H 630.169 -1.36953 -0.863446 0
M  V30 6371 H 632.161 -0.97878 -3.92686 0
M  V30 6372 H 630.731 -0.29738 -3.11182 0
M  V30 6373 H 629.951 -2.76468 -2.80996 0
M  V30 6374 H 631.239 -3.22012 -3.93936 0
M  V30 6375 H 630.637 -0.526893 -5.63241 0
M  V30 6376 H 629.194 -0.988699 -6.44258 0
M  V30 6377 N 632.627 0.916307 -1.28225 0
M  V30 6378 C 633.875 1.6619 -1.15002 0
M  V30 6379 C 634.196 1.92642 0.302329 0
M  V30 6380 O 633.466 1.54076 1.20985 0
M  V30 6381 H 632.046 0.615964 -0.422608 0
M  V30 6382 H 634.708 1.09963 -1.60917 0
M  V30 6383 H 633.804 2.62533 -1.68769 0
M  V30 6384 N 634.105 1.10431 1.1244 0
M  V30 6385 C 635.052 0.753103 2.18167 0
M  V30 6386 C 636.022 -0.270549 1.63882 0
M  V30 6387 O 637.207 -0.149837 1.90211 0
M  V30 6388 C 634.347 0.191046 3.44571 0
M  V30 6389 C 633.46 1.26999 4.12911 0
M  V30 6390 C 632.595 0.669586 5.26963 0
M  V30 6391 C 631.634 1.72912 5.87169 0
M  V30 6392 N 630.771 1.14898 6.92635 0
M  V30 6393 H 635.611 1.65892 2.47556 0
M  V30 6394 H 633.148 0.828631 1.21541 0
M  V30 6395 H 635.106 -0.152712 4.1692 0
M  V30 6396 H 633.736 -0.677997 3.15599 0
M  V30 6397 H 632.788 1.73087 3.3874 0
M  V30 6398 H 634.1 2.07204 4.53727 0
M  V30 6399 H 633.254 0.275274 6.06075 0
M  V30 6400 H 631.993 -0.163895 4.87425 0
M  V30 6401 H 630.998 2.13286 5.06744 0
M  V30 6402 H 632.223 2.56544 6.28778 0
M  V30 6403 H 630.169 0.336956 6.55134 0
M  V30 6404 H 630.086 1.88786 7.32049 0
M  V30 6405 H 631.354 0.78121 7.75576 0
M  V30 6406 N 635.583 -1.29855 0.893053 0
M  V30 6407 C 636.53 -2.27909 0.364161 0
M  V30 6408 C 637.5 -1.56726 -0.550093 0
M  V30 6409 O 638.685 -1.84747 -0.47677 0
M  V30 6410 C 635.825 -3.42678 -0.408178 0
M  V30 6411 C 634.938 -4.28659 0.536212 0
M  V30 6412 C 634.073 -5.30599 -0.252521 0
M  V30 6413 C 633.112 -6.08234 0.686822 0
M  V30 6414 N 632.249 -7.02068 -0.0670902 0
M  V30 6415 H 637.089 -2.72531 1.20544 0
M  V30 6416 H 634.626 -1.34047 0.605779 0
M  V30 6417 H 636.584 -4.07986 -0.871962 0
M  V30 6418 H 635.214 -2.99103 -1.21397 0
M  V30 6419 H 634.266 -3.63584 1.1185 0
M  V30 6420 H 635.578 -4.8274 1.25552 0
M  V30 6421 H 634.732 -6.01694 -0.777801 0
M  V30 6422 H 633.471 -4.77233 -1.005 0
M  V30 6423 H 632.476 -5.3601 1.22366 0
M  V30 6424 H 633.701 -6.63689 1.43852 0
M  V30 6425 H 631.647 -6.5108 -0.801955 0
M  V30 6426 H 631.564 -7.53675 0.59243 0
M  V30 6427 H 632.832 -7.77392 -0.572851 0
M  V30 6428 N 637.061 -0.65484 -1.43351 0
M  V30 6429 C 638.024 0.0263562 -2.29185 0
M  V30 6430 C 639.024 0.748951 -1.42293 0
M  V30 6431 O 640.214 0.589957 -1.63906 0
M  V30 6432 C 637.346 1.04806 -3.2439 0
M  V30 6433 H 638.539 -0.728883 -2.90908 0
M  V30 6434 H 636.092 -0.416149 -1.50658 0
M  V30 6435 H 636.827 1.83247 -2.67565 0
M  V30 6436 H 636.612 0.533554 -3.88453 0
M  V30 6437 H 638.102 1.52372 -3.88809 0
M  V30 6438 N 638.539 1.52521 -0.396863 0
M  V30 6439 C 639.449 2.30403 0.44178 0
M  V30 6440 C 640.465 1.37625 1.06468 0
M  V30 6441 O 641.641 1.70697 1.06886 0
M  V30 6442 C 638.706 3.1013 1.54986 0
M  V30 6443 C 637.767 4.18628 0.951279 0
M  V30 6444 C 637 4.94543 2.00655 0
M  V30 6445 O 637.223 4.70629 3.22281 0
M  V30 6446 O 636.157 5.797 1.61962 0
M  V30 6447 H 639.983 3.03087 -0.192892 0
M  V30 6448 H 637.568 1.48537 -0.16038 0
M  V30 6449 H 639.45 3.59816 2.19341 0
M  V30 6450 H 638.125 2.40251 2.16935 0
M  V30 6451 H 637.032 3.73119 0.270773 0
M  V30 6452 H 638.365 4.90763 0.375887 0
M  V30 6453 N 640.017 0.126909 1.57088 0
M  V30 6454 C 641.265 -0.528123 1.95078 0
M  V30 6455 C 641.586 -1.66708 1.0116 0
M  V30 6456 O 640.856 -1.95777 0.0693527 0
M  V30 6457 H 639.436 -0.198087 0.720257 0
M  V30 6458 H 642.098 0.197703 1.93895 0
M  V30 6459 H 641.194 -0.917507 2.98309 0
M  V30 6460 N 641.495 -1.56914 -0.146875 0
M  V30 6461 C 642.458 -1.97368 -1.16526 0
M  V30 6462 C 643.458 -0.860223 -1.35856 0
M  V30 6463 O 644.648 -1.12684 -1.32846 0
M  V30 6464 C 641.78 -2.28974 -2.52555 0
M  V30 6465 H 642.973 -2.88523 -0.818209 0
M  V30 6466 H 640.526 -1.5135 -0.390221 0
M  V30 6467 H 641.261 -1.40611 -2.92231 0
M  V30 6468 H 641.046 -3.10157 -2.39886 0
M  V30 6469 H 642.536 -2.61109 -3.25902 0
M  V30 6470 N 642.974 0.416227 -1.52004 0
M  V30 6471 C 643.906 1.52552 -1.71058 0
M  V30 6472 C 644.919 1.51693 -0.59102 0
M  V30 6473 O 646.108 1.56087 -0.865973 0
M  V30 6474 C 643.208 2.91455 -1.72937 0
M  V30 6475 C 642.381 3.16584 -3.01816 0
M  V30 6476 C 641.44 4.35322 -2.95603 0
M  V30 6477 O 640.466 4.32947 -3.6952 0
M  V30 6478 N 641.668 5.40049 -2.12903 0
M  V30 6479 H 644.433 1.36604 -2.66757 0
M  V30 6480 H 641.994 0.60544 -1.50153 0
M  V30 6481 H 643.986 3.68944 -1.66321 0
M  V30 6482 H 642.556 3.00895 -0.847418 0
M  V30 6483 H 641.776 2.27203 -3.22137 0
M  V30 6484 H 643.064 3.30213 -3.87088 0
M  V30 6485 H 642.462 5.44823 -1.52265 0
M  V30 6486 H 641.019 6.16308 -2.1215 0
M  V30 6487 N 644.452 1.42507 0.673017 0
M  V30 6488 C 645.4 1.46362 1.80779 0
M  V30 6489 C 646.394 0.339166 1.6597 0
M  V30 6490 O 647.6 0.512262 1.72557 0
M  V30 6491 H 643.975 0.458433 0.596107 0
M  V30 6492 H 645.946 2.41953 1.74646 0
M  V30 6493 C 644.695 1.38462 3.18941 0
M  V30 6494 H 644.018 2.24283 3.30964 0
M  V30 6495 H 645.458 1.45221 3.98355 0
M  V30 6496 C 643.917 0.0996354 3.36753 0
M  V30 6497 O 644.447 -0.846894 3.92671 0
M  V30 6498 N 642.653 0.016211 2.90595 0
M  V30 6499 H 642.2 0.78725 2.45276 0
M  V30 6500 H 642.158 -0.84291 3.0289 0
M  V30 6501 N 645.93 -0.909495 1.28709 0
M  V30 6502 C 646.862 -2.01729 1.08804 0
M  V30 6503 C 647.875 -1.62755 0.0384739 0
M  V30 6504 O 649.064 -1.76259 0.281977 0
M  V30 6505 C 646.164 -3.32952 0.63217 0
M  V30 6506 C 645.337 -4.00512 1.75809 0
M  V30 6507 C 644.396 -5.10019 1.29488 0
M  V30 6508 O 643.422 -5.32986 1.99787 0
M  V30 6509 N 644.624 -5.80278 0.1604 0
M  V30 6510 H 647.389 -2.19362 2.04207 0
M  V30 6511 H 644.95 -1.08106 1.20518 0
M  V30 6512 H 646.942 -4.03543 0.305802 0
M  V30 6513 H 645.512 -3.11759 -0.229134 0
M  V30 6514 H 644.732 -3.23413 2.25383 0
M  V30 6515 H 646.02 -4.42395 2.51325 0
M  V30 6516 H 645.418 -5.64094 -0.425937 0
M  V30 6517 H 643.975 -6.51713 -0.106663 0
M  V30 6518 N 647.408 -1.11026 -1.11852 0
M  V30 6519 C 648.656 -0.854769 -1.83134 0
M  V30 6520 C 648.977 0.621375 -1.84835 0
M  V30 6521 O 648.247 1.45129 -1.31584 0
M  V30 6522 H 646.827 -0.313229 -0.678157 0
M  V30 6523 H 649.489 -1.40178 -1.35411 0
M  V30 6524 H 648.585 -1.22311 -2.87135 0
M  V30 6525 N 648.886 1.2938 -0.899927 0
M  V30 6526 C 649.833 2.27713 -0.376243 0
M  V30 6527 C 650.803 1.57016 0.541774 0
M  V30 6528 O 651.988 1.84997 0.466966 0
M  V30 6529 C 649.128 3.42889 0.39 0
M  V30 6530 C 648.241 4.28369 -0.558938 0
M  V30 6531 C 647.376 5.30726 0.224379 0
M  V30 6532 C 646.415 6.07862 -0.719068 0
M  V30 6533 N 645.552 7.02094 0.0298569 0
M  V30 6534 H 650.392 2.71888 -1.21988 0
M  V30 6535 H 647.929 1.33724 -0.612879 0
M  V30 6536 H 649.887 4.08443 0.850314 0
M  V30 6537 H 648.517 2.99743 1.19809 0
M  V30 6538 H 647.569 3.62986 -1.13777 0
M  V30 6539 H 648.881 4.82068 -1.2811 0
M  V30 6540 H 648.035 6.02098 0.745881 0
M  V30 6541 H 646.774 4.77759 0.979674 0
M  V30 6542 H 645.779 5.35353 -1.25207 0
M  V30 6543 H 647.004 6.62917 -1.4737 0
M  V30 6544 H 644.95 6.51496 0.767415 0
M  V30 6545 H 644.867 7.5335 -0.632391 0
M  V30 6546 H 646.135 7.77685 0.531615 0
M  V30 6547 N 650.364 0.662433 1.43002 0
M  V30 6548 C 651.311 -0.0235324 2.30788 0
M  V30 6549 C 652.281 -0.805342 1.4527 0
M  V30 6550 O 653.466 -0.78009 1.74124 0
M  V30 6551 C 650.606 -0.977545 3.30965 0
M  V30 6552 C 649.719 -0.190865 4.31578 0
M  V30 6553 C 648.854 -1.13951 5.18834 0
M  V30 6554 C 647.893 -0.343796 6.11134 0
M  V30 6555 N 647.03 -1.2445 6.90982 0
M  V30 6556 H 651.87 0.730921 2.88897 0
M  V30 6557 H 649.407 0.372197 1.42313 0
M  V30 6558 H 651.365 -1.54437 3.87563 0
M  V30 6559 H 649.995 -1.69877 2.74484 0
M  V30 6560 H 649.047 0.492388 3.772 0
M  V30 6561 H 650.359 0.427464 4.96965 0
M  V30 6562 H 649.513 -1.77666 5.80103 0
M  V30 6563 H 648.252 -1.79174 4.53595 0
M  V30 6564 H 647.257 0.30665 5.48944 0
M  V30 6565 H 648.482 0.304161 6.78419 0
M  V30 6566 H 646.428 -1.88336 6.28383 0
M  V30 6567 H 646.345 -0.680959 7.52927 0
M  V30 6568 H 647.613 -1.86952 7.56749 0
M  V30 6569 N 651.842 -1.52309 0.404946 0
M  V30 6570 C 652.805 -2.25491 -0.410651 0
M  V30 6571 C 653.805 -1.27704 -0.977154 0
M  V30 6572 O 654.995 -1.51679 -0.856691 0
M  V30 6573 C 652.127 -3.02197 -1.57765 0
M  V30 6574 H 653.32 -2.99015 0.230277 0
M  V30 6575 H 650.873 -1.55506 0.157377 0
M  V30 6576 H 651.608 -2.33013 -2.25556 0
M  V30 6577 H 651.393 -3.73987 -1.17797 0
M  V30 6578 H 652.883 -3.57719 -2.15469 0
M  V30 6579 N 653.32 -0.135238 -1.57019 0
M  V30 6580 C 654.23 0.822226 -2.19719 0
M  V30 6581 C 655.246 1.28057 -1.17802 0
M  V30 6582 O 656.422 1.3402 -1.50335 0
M  V30 6583 C 653.487 2.0484 -2.79717 0
M  V30 6584 C 652.548 1.64042 -3.96723 0
M  V30 6585 C 651.781 2.80814 -4.53849 0
M  V30 6586 O 652.004 3.967 -4.0986 0
M  V30 6587 O 650.938 2.56963 -5.44292 0
M  V30 6588 H 654.764 0.318552 -3.02025 0
M  V30 6589 H 652.349 0.0912021 -1.49121 0
M  V30 6590 H 654.231 2.76622 -3.17897 0
M  V30 6591 H 652.906 2.54182 -2.00432 0
M  V30 6592 H 651.813 0.893182 -3.63281 0
M  V30 6593 H 653.146 1.19426 -4.77492 0
M  V30 6594 N 654.798 1.5699 0.138552 0
M  V30 6595 C 656.046 1.83446 0.848053 0
M  V30 6596 C 656.367 0.71744 1.81322 0
M  V30 6597 O 655.637 -0.260228 1.94164 0
M  V30 6598 H 654.217 0.676792 0.316166 0
M  V30 6599 H 656.879 1.94462 0.130538 0
M  V30 6600 H 655.975 2.78677 1.40518 0
M  V30 6601 N 656.276 -0.40816 1.52223 0
M  V30 6602 C 657.239 -1.48 1.7501 0
M  V30 6603 C 658.239 -1.48367 0.619996 0
M  V30 6604 O 659.429 -1.49874 0.887881 0
M  V30 6605 C 656.561 -2.87403 1.83336 0
M  V30 6606 H 657.754 -1.29086 2.70697 0
M  V30 6607 H 655.307 -0.638715 1.42654 0
M  V30 6608 H 656.042 -3.11686 0.895677 0
M  V30 6609 H 655.827 -2.8854 2.65494 0
M  V30 6610 H 657.317 -3.65103 2.02705 0
M  V30 6611 N 657.755 -1.42862 -0.66545 0
M  V30 6612 C 658.687 -1.43026 -1.79098 0
M  V30 6613 C 659.7 -0.32803 -1.59461 0
M  V30 6614 O 660.889 -0.591709 -1.68407 0
M  V30 6615 C 657.989 -1.21566 -3.16346 0
M  V30 6616 C 657.162 -2.44399 -3.62751 0
M  V30 6617 C 656.221 -2.18344 -4.78761 0
M  V30 6618 O 655.247 -2.91611 -4.88827 0
M  V30 6619 N 656.449 -1.1924 -5.68122 0
M  V30 6620 H 659.214 -2.40045 -1.79439 0
M  V30 6621 H 656.775 -1.37861 -0.848872 0
M  V30 6622 H 658.767 -1.02037 -3.91625 0
M  V30 6623 H 657.337 -0.330368 -3.10849 0
M  V30 6624 H 656.557 -2.79433 -2.78048 0
M  V30 6625 H 657.845 -3.26173 -3.90498 0
M  V30 6626 H 657.243 -0.586603 -5.6265 0
M  V30 6627 H 655.8 -1.05698 -6.43173 0
M  V30 6628 N 659.233 0.902656 -1.29189 0
M  V30 6629 C 660.181 2.0278 -1.13943 0
M  V30 6630 C 661.175 1.69308 -0.055787 0
M  V30 6631 O 662.381 1.78707 -0.215371 0
M  V30 6632 H 658.756 0.664595 -0.351877 0
M  V30 6633 H 660.727 2.12778 -2.09208 0
M  V30 6634 C 659.476 3.37657 -0.82966 0
M  V30 6635 H 658.799 3.63913 -1.65551 0
M  V30 6636 H 660.239 4.17078 -0.762998 0
M  V30 6637 C 658.698 3.33648 0.466991 0
M  V30 6638 O 659.228 3.72886 1.49395 0
M  V30 6639 N 657.434 2.86745 0.471761 0
M  V30 6640 H 656.981 2.55009 -0.364406 0
M  V30 6641 H 656.939 2.84446 1.33933 0
M  V30 6642 N 660.711 1.11618 1.11262 0
M  V30 6643 C 661.643 0.734015 2.17129 0
M  V30 6644 C 662.656 -0.235243 1.61091 0
M  V30 6645 O 663.845 -0.0178597 1.78491 0
M  V30 6646 C 660.945 0.0643682 3.38839 0
M  V30 6647 C 660.118 1.06092 4.24339 0
M  V30 6648 C 659.177 0.420482 5.24517 0
M  V30 6649 O 658.203 1.07495 5.58957 0
M  V30 6650 N 659.405 -0.815828 5.74739 0
M  V30 6651 H 662.17 1.64492 2.50524 0
M  V30 6652 H 659.731 1.00664 1.26801 0
M  V30 6653 H 661.723 -0.375851 4.02951 0
M  V30 6654 H 660.293 -0.749147 3.03491 0
M  V30 6655 H 659.513 1.67903 3.56654 0
M  V30 6656 H 660.801 1.73507 4.78302 0
M  V30 6657 H 660.199 -1.36668 5.48943 0
M  V30 6658 H 658.756 -1.199 6.40677 0
M  V30 6659 N 662.189 -1.289 0.906776 0
M  V30 6660 C 663.437 -1.94883 0.535266 0
M  V30 6661 C 663.758 -1.71784 -0.922791 0
M  V30 6662 O 663.028 -1.05359 -1.65156 0
M  V30 6663 H 661.608 -0.721109 0.194962 0
M  V30 6664 H 664.27 -1.57018 1.15461 0
M  V30 6665 H 663.366 -3.03591 0.723821 0
M  V30 6666 N 663.667 -0.670007 -1.42649 0
M  V30 6667 C 664.614 0.0112928 -2.30797 0
M  V30 6668 C 665.584 0.797627 -1.45695 0
M  V30 6669 O 666.769 0.770845 -1.74535 0
M  V30 6670 C 663.909 0.95998 -3.31479 0
M  V30 6671 C 663.022 0.167975 -4.31673 0
M  V30 6672 C 662.157 1.11198 -5.19431 0
M  V30 6673 C 661.196 0.311381 -6.11307 0
M  V30 6674 N 660.333 1.20784 -6.91633 0
M  V30 6675 H 665.173 -0.746231 -2.88505 0
M  V30 6676 H 662.71 -0.379739 -1.42114 0
M  V30 6677 H 664.668 1.52379 -3.88377 0
M  V30 6678 H 663.298 1.68419 -2.75382 0
M  V30 6679 H 662.35 -0.512385 -3.76933 0
M  V30 6680 H 663.662 -0.453814 -4.96731 0
M  V30 6681 H 662.816 1.74587 -5.81037 0
M  V30 6682 H 661.555 1.76766 -4.54538 0
M  V30 6683 H 660.56 -0.335758 -5.48774 0
M  V30 6684 H 661.785 -0.340135 -6.78248 0
M  V30 6685 H 659.731 1.85001 -6.29373 0
M  V30 6686 H 659.648 0.64102 -7.53277 0
M  V30 6687 H 660.916 1.82936 -7.5773 0
M  V30 6688 N 665.145 1.52092 -0.413018 0
M  V30 6689 C 666.092 2.27119 0.410558 0
M  V30 6690 C 667.062 1.29692 1.03774 0
M  V30 6691 O 668.247 1.58561 1.06128 0
M  V30 6692 C 665.387 3.09863 1.51918 0
M  V30 6693 C 664.5 4.22252 0.912528 0
M  V30 6694 C 663.635 4.92348 1.99417 0
M  V30 6695 C 662.674 5.96694 1.36466 0
M  V30 6696 N 661.811 6.60292 2.38661 0
M  V30 6697 H 666.651 2.97067 -0.235661 0
M  V30 6698 H 664.188 1.46542 -0.128055 0
M  V30 6699 H 666.146 3.56144 2.17295 0
M  V30 6700 H 664.776 2.42078 2.13537 0
M  V30 6701 H 663.828 3.80113 0.147697 0
M  V30 6702 H 665.14 4.9709 0.412717 0
M  V30 6703 H 664.294 5.42054 2.72512 0
M  V30 6704 H 663.033 4.17087 2.52764 0
M  V30 6705 H 662.038 5.46304 0.61906 0
M  V30 6706 H 663.263 6.73899 0.838827 0
M  V30 6707 H 661.209 5.87858 2.91134 0
M  V30 6708 H 661.126 7.30816 1.93503 0
M  V30 6709 H 662.394 7.14635 3.11314 0
M  V30 6710 N 666.623 0.143563 1.56945 0
M  V30 6711 C 667.586 -0.783295 2.154 0
M  V30 6712 C 668.586 -1.17763 1.09492 0
M  V30 6713 O 669.776 -1.09912 1.35148 0
M  V30 6714 C 666.908 -2.06248 2.7143 0
M  V30 6715 H 668.101 -0.274863 2.98638 0
M  V30 6716 H 665.654 -0.105859 1.55941 0
M  V30 6717 H 666.389 -2.61466 1.91849 0
M  V30 6718 H 666.174 -1.78897 3.4891 0
M  V30 6719 H 667.664 -2.72453 3.16479 0
M  V30 6720 N 668.101 -1.57061 -0.130224 0
M  V30 6721 C 669.011 -2.02802 -1.17934 0
M  V30 6722 C 670.027 -0.946378 -1.46013 0
M  V30 6723 O 671.203 -1.25708 -1.57351 0
M  V30 6724 C 668.268 -2.41368 -2.48882 0
M  V30 6725 C 667.329 -3.63561 -2.28301 0
M  V30 6726 C 666.562 -4.00279 -3.53005 0
M  V30 6727 O 666.785 -3.37463 -4.59864 0
M  V30 6728 O 665.719 -4.93441 -3.44673 0
M  V30 6729 H 669.545 -2.92394 -0.820958 0
M  V30 6730 H 667.13 -1.45475 -0.340197 0
M  V30 6731 H 669.012 -2.66958 -3.26054 0
M  V30 6732 H 667.687 -1.54926 -2.84217 0
M  V30 6733 H 666.594 -3.43136 -1.49025 0
M  V30 6734 H 667.927 -4.50673 -1.97875 0
M  V30 6735 N 669.579 0.400081 -1.52437 0
M  V30 6736 C 670.827 1.14392 -1.6661 0
M  V30 6737 C 671.148 1.90792 -0.402927 0
M  V30 6738 O 670.418 1.87042 0.582425 0
M  V30 6739 H 668.998 0.425275 -0.614125 0
M  V30 6740 H 671.66 0.455076 -1.89513 0
M  V30 6741 H 670.756 1.85298 -2.51139 0
M  V30 6742 N 671.057 1.43213 0.657864 0
M  V30 6743 C 672.02 1.47687 1.75275 0
M  V30 6744 C 673.02 0.362179 1.56668 0
M  V30 6745 O 674.21 0.623734 1.62651 0
M  V30 6746 C 671.342 1.32497 3.14098 0
M  V30 6747 H 672.535 2.4519 1.7269 0
M  V30 6748 H 670.088 1.2991 0.869087 0
M  V30 6749 H 670.823 0.359831 3.22298 0
M  V30 6750 H 670.608 2.13299 3.29008 0
M  V30 6751 H 672.098 1.38549 3.93946 0
M  V30 6752 N 672.536 -0.895792 1.29666 0
M  V30 6753 C 673.468 -2.00563 1.10937 0
M  V30 6754 C 674.481 -1.62705 0.055734 0
M  V30 6755 O 675.67 -1.7595 0.300656 0
M  V30 6756 C 672.77 -3.32262 0.667448 0
M  V30 6757 C 671.943 -3.98625 1.80047 0
M  V30 6758 C 671.002 -5.08617 1.3489 0
M  V30 6759 O 670.028 -5.30837 2.05429 0
M  V30 6760 N 671.23 -5.80076 0.221937 0
M  V30 6761 H 673.995 -2.17184 2.06522 0
M  V30 6762 H 671.556 -1.06822 1.21658 0
M  V30 6763 H 673.548 -4.03196 0.348586 0
M  V30 6764 H 672.118 -3.11985 -0.196055 0
M  V30 6765 H 671.338 -3.21005 2.28801 0
M  V30 6766 H 672.626 -4.39704 2.56003 0
M  V30 6767 H 672.024 -5.64514 -0.366084 0
M  V30 6768 H 670.581 -6.51789 -0.0375346 0
M  V30 6769 N 674.014 -1.12206 -1.10668 0
M  V30 6770 C 674.962 -0.782918 -2.19028 0
M  V30 6771 C 675.956 0.229175 -1.67843 0
M  V30 6772 O 677.162 0.0876295 -1.79787 0
M  V30 6773 H 673.537 -0.235339 -0.714227 0
M  V30 6774 H 675.508 -1.70527 -2.44874 0
M  V30 6775 C 674.257 -0.25116 -3.46792 0
M  V30 6776 H 673.58 -1.02123 -3.86537 0
M  V30 6777 H 675.02 -0.0521409 -4.23968 0
M  V30 6778 C 673.479 1.02037 -3.21076 0
M  V30 6779 O 674.009 2.09862 -3.42522 0
M  V30 6780 N 672.215 0.946348 -2.74759 0
M  V30 6781 H 671.762 0.068777 -2.57508 0
M  V30 6782 H 671.72 1.79775 -2.57931 0
M  V30 6783 N 675.492 1.28418 -0.913599 0
M  V30 6784 C 676.424 2.26368 -0.359169 0
M  V30 6785 C 677.437 1.54858 0.502285 0
M  V30 6786 O 678.626 1.75659 0.31719 0
M  V30 6787 C 675.726 3.35112 0.50526 0
M  V30 6788 C 674.899 4.36126 -0.333648 0
M  V30 6789 C 673.958 5.24134 0.465845 0
M  V30 6790 O 672.984 5.6907 -0.121538 0
M  V30 6791 N 674.186 5.52892 1.76891 0
M  V30 6792 H 676.951 2.74579 -1.2011 0
M  V30 6793 H 674.512 1.41898 -0.779532 0
M  V30 6794 H 676.504 3.90926 1.04684 0
M  V30 6795 H 675.074 2.86611 1.2479 0
M  V30 6796 H 674.294 3.79776 -1.0566 0
M  V30 6797 H 675.582 5.00638 -0.907669 0
M  V30 6798 H 674.98 5.18217 2.26865 0
M  V30 6799 H 673.537 6.11464 2.25732 0
M  V30 6800 N 676.97 0.677563 1.42291 0
M  V30 6801 C 678.218 0.200578 2.01102 0
M  V30 6802 C 678.539 -1.19803 1.53858 0
M  V30 6803 O 677.809 -1.80496 0.761439 0
M  V30 6804 H 676.389 0.0711634 0.743603 0
M  V30 6805 H 679.051 0.874691 1.7417 0
M  V30 6806 H 678.147 0.204 3.11433 0
M  V30 6807 N 678.448 -1.51871 0.421078 0
M  V30 6808 C 679.395 -2.27334 -0.398508 0
M  V30 6809 C 680.365 -1.30241 -1.03085 0
M  V30 6810 O 681.55 -1.59121 -1.05285 0
M  V30 6811 C 678.69 -3.10664 -1.50272 0
M  V30 6812 C 677.803 -4.2273 -0.890122 0
M  V30 6813 C 676.938 -4.93399 -1.96803 0
M  V30 6814 C 675.977 -5.97409 -1.333 0
M  V30 6815 N 675.114 -6.61548 -2.35156 0
M  V30 6816 H 679.954 -2.96938 0.251411 0
M  V30 6817 H 677.491 -1.46472 0.135825 0
M  V30 6818 H 679.449 -3.57292 -2.15403 0
M  V30 6819 H 678.079 -2.43207 -2.1225 0
M  V30 6820 H 677.131 -3.80186 -0.127537 0
M  V30 6821 H 678.443 -4.97302 -0.386349 0
M  V30 6822 H 677.597 -5.43491 -2.69633 0
M  V30 6823 H 676.336 -4.18421 -2.50549 0
M  V30 6824 H 675.341 -5.46624 -0.59008 0
M  V30 6825 H 676.566 -6.74335 -0.803076 0
M  V30 6826 H 674.512 -5.89394 -2.88012 0
M  V30 6827 H 674.429 -7.31832 -1.89624 0
M  V30 6828 H 675.697 -7.16276 -3.0752 0
M  V30 6829 N 679.926 -0.151884 -1.56866 0
M  V30 6830 C 680.873 0.785936 -2.17006 0
M  V30 6831 C 681.843 1.2407 -1.10435 0
M  V30 6832 O 683.028 1.31235 -1.38499 0
M  V30 6833 C 680.168 2.01771 -2.79969 0
M  V30 6834 C 679.281 1.6083 -4.00946 0
M  V30 6835 C 678.416 2.79224 -4.51893 0
M  V30 6836 C 677.455 2.3468 -5.65324 0
M  V30 6837 N 676.592 3.461 -6.10867 0
M  V30 6838 H 681.432 0.266286 -2.96808 0
M  V30 6839 H 678.969 0.11972 -1.46612 0
M  V30 6840 H 680.927 2.73989 -3.14621 0
M  V30 6841 H 679.557 2.51139 -2.02803 0
M  V30 6842 H 678.609 0.783592 -3.72242 0
M  V30 6843 H 679.921 1.24119 -4.83111 0
M  V30 6844 H 679.075 3.59625 -4.88625 0
M  V30 6845 H 677.814 3.19183 -3.68746 0
M  V30 6846 H 676.819 1.52721 -5.28163 0
M  V30 6847 H 678.044 1.95801 -6.5026 0
M  V30 6848 H 675.99 3.85671 -5.30654 0
M  V30 6849 H 675.907 3.1342 -6.87971 0
M  V30 6850 H 677.175 4.26844 -6.52246 0
M  V30 6851 N 681.404 1.57128 0.121893 0
M  V30 6852 C 682.367 1.99197 1.13372 0
M  V30 6853 C 683.367 0.881728 1.3447 0
M  V30 6854 O 684.557 1.14783 1.31036 0
M  V30 6855 C 681.689 2.32963 2.4888 0
M  V30 6856 H 682.882 2.89788 0.772204 0
M  V30 6857 H 680.435 1.51952 0.366093 0
M  V30 6858 H 681.17 1.45243 2.89957 0
M  V30 6859 H 680.955 3.13934 2.34921 0
M  V30 6860 H 682.445 2.66261 3.21706 0
M  V30 6861 N 682.882 -0.391992 1.52647 0
M  V30 6862 C 683.792 -1.503 1.80131 0
M  V30 6863 C 684.808 -1.59825 0.687882 0
M  V30 6864 O 685.984 -1.76218 0.975149 0
M  V30 6865 C 683.049 -2.85863 1.96171 0
M  V30 6866 C 682.11 -2.86084 3.20085 0
M  V30 6867 C 681.343 -4.15181 3.35351 0
M  V30 6868 O 681.566 -5.09981 2.55491 0
M  V30 6869 O 680.5 -4.22603 4.28591 0
M  V30 6870 H 684.326 -1.30007 2.74466 0
M  V30 6871 H 681.911 -0.579539 1.37701 0
M  V30 6872 H 683.793 -3.66236 2.08445 0
M  V30 6873 H 682.468 -3.06189 1.05025 0
M  V30 6874 H 681.375 -2.04504 3.13256 0
M  V30 6875 H 682.708 -2.7071 4.11068 0
M  V30 6876 N 684.36 -1.4356 -0.65026 0
M  V30 6877 C 685.608 -1.45046 -1.40734 0
M  V30 6878 C 685.929 -0.0769822 -1.94848 0
M  V30 6879 O 685.199 0.888098 -1.74613 0
M  V30 6880 H 683.779 -0.534034 -0.522318 0
M  V30 6881 H 686.441 -1.79186 -0.766703 0
M  V30 6882 H 685.537 -2.16476 -2.24822 0
M  V30 6883 N 685.838 0.888903 -1.30139 0
M  V30 6884 C 686.801 1.97576 -1.16174 0
M  V30 6885 C 687.801 1.60525 -0.094086 0
M  V30 6886 O 688.991 1.70812 -0.341889 0
M  V30 6887 C 686.123 3.3188 -0.778983 0
M  V30 6888 H 687.316 2.11393 -2.12728 0
M  V30 6889 H 684.869 1.0748 -1.1348 0
M  V30 6890 H 685.604 3.23765 0.186225 0
M  V30 6891 H 685.389 3.60141 -1.55051 0
M  V30 6892 H 686.879 4.11612 -0.704631 0
M  V30 6893 N 687.317 1.12792 1.10072 0
M  V30 6894 C 688.249 0.757003 2.16338 0
M  V30 6895 C 689.262 -0.218144 1.61332 0
M  V30 6896 O 690.451 0.0010727 1.785 0
M  V30 6897 C 687.551 0.100303 3.38752 0
M  V30 6898 C 686.724 1.10586 4.2319 0
M  V30 6899 C 685.783 0.47609 5.24042 0
M  V30 6900 O 684.809 1.13418 5.57786 0
M  V30 6901 N 686.011 -0.754823 5.75572 0
M  V30 6902 H 688.776 1.6714 2.48766 0
M  V30 6903 H 686.337 1.02003 1.25726 0
M  V30 6904 H 688.329 -0.333092 4.03327 0
M  V30 6905 H 686.899 -0.716915 3.04268 0
M  V30 6906 H 686.119 1.71677 3.54853 0
M  V30 6907 H 687.407 1.78571 4.76435 0
M  V30 6908 H 686.805 -1.30838 5.50362 0
M  V30 6909 H 685.362 -1.13098 6.41913 0
M  V30 6910 N 688.795 -1.27931 0.920396 0
M  V30 6911 C 689.743 -2.29061 0.404191 0
M  V30 6912 C 690.737 -1.61615 -0.507634 0
M  V30 6913 O 691.943 -1.75765 -0.388144 0
M  V30 6914 H 688.318 -0.743594 0.112123 0
M  V30 6915 H 690.289 -2.70021 1.27008 0
M  V30 6916 C 689.038 -3.46088 -0.334466 0
M  V30 6917 H 688.361 -3.98194 0.35797 0
M  V30 6918 H 689.801 -4.18829 -0.660196 0
M  V30 6919 C 688.26 -2.99396 -1.54479 0
M  V30 6920 O 688.79 -3.02439 -2.64374 0
M  V30 6921 N 686.996 -2.54978 -1.39408 0
M  V30 6922 H 686.543 -2.52701 -0.500009 0
M  V30 6923 H 686.501 -2.24098 -2.20516 0
M  V30 6924 N 690.273 -0.685099 -1.4193 0
M  V30 6925 C 691.205 0.0258679 -2.29185 0
M  V30 6926 C 692.218 0.755076 -1.44231 0
M  V30 6927 O 693.407 0.60752 -1.67844 0
M  V30 6928 C 690.507 1.06055 -3.21878 0
M  V30 6929 C 689.68 0.403088 -4.35539 0
M  V30 6930 C 688.739 1.33895 -5.0888 0
M  V30 6931 O 687.765 0.835326 -5.63037 0
M  V30 6932 N 688.967 2.6718 -5.15359 0
M  V30 6933 H 691.732 -0.723201 -2.90843 0
M  V30 6934 H 689.293 -0.53031 -1.52968 0
M  V30 6935 H 691.285 1.68813 -3.6781 0
M  V30 6936 H 689.855 1.71126 -2.616 0
M  V30 6937 H 689.075 -0.404185 -3.92122 0
M  V30 6938 H 690.363 -0.0545098 -5.08771 0
M  V30 6939 H 689.761 3.10626 -4.72788 0
M  V30 6940 H 688.318 3.25159 -5.64903 0
M  V30 6941 N 691.751 1.51645 -0.429126 0
M  V30 6942 C 692.999 2.01616 0.139802 0
M  V30 6943 C 693.32 1.31568 1.43927 0
M  V30 6944 O 692.59 0.447688 1.90716 0
M  V30 6945 H 691.17 0.744998 0.054654 0
M  V30 6946 H 693.832 1.8638 -0.569952 0
M  V30 6947 H 692.928 3.10439 0.321609 0
M  V30 6948 N 693.229 0.160201 1.56784 0
M  V30 6949 C 694.176 -0.774416 2.1742 0
M  V30 6950 C 695.146 -1.23483 1.11091 0
M  V30 6951 O 696.331 -1.30499 1.39193 0
M  V30 6952 C 693.471 -2.00283 2.81035 0
M  V30 6953 C 692.584 -1.58701 4.01793 0
M  V30 6954 C 691.719 -2.76824 4.53367 0
M  V30 6955 C 690.758 -2.31679 5.66561 0
M  V30 6956 N 689.895 -3.42856 6.12694 0
M  V30 6957 H 694.735 -0.250542 2.96945 0
M  V30 6958 H 692.272 -0.111943 1.46673 0
M  V30 6959 H 694.23 -2.72316 3.16069 0
M  V30 6960 H 692.86 -2.5006 2.04132 0
M  V30 6961 H 691.912 -0.76384 3.72652 0
M  V30 6962 H 693.224 -1.21555 4.83762 0
M  V30 6963 H 692.378 -3.57029 4.90525 0
M  V30 6964 H 691.117 -3.17223 3.70433 0
M  V30 6965 H 690.122 -1.49917 5.28966 0
M  V30 6966 H 691.347 -1.9235 6.5129 0
M  V30 6967 H 689.293 -3.82852 5.32692 0
M  V30 6968 H 689.21 -3.09767 6.89624 0
M  V30 6969 H 690.478 -4.23379 6.545 0
M  V30 6970 N 694.707 -1.5719 -0.113559 0
M  V30 6971 C 695.654 -2.00736 -1.13901 0
M  V30 6972 C 696.624 -0.88044 -1.40846 0
M  V30 6973 O 697.809 -1.14507 -1.5262 0
M  V30 6974 C 694.949 -2.42132 -2.45899 0
M  V30 6975 C 694.062 -3.68264 -2.25844 0
M  V30 6976 C 693.197 -3.98617 -3.5111 0
M  V30 6977 C 692.236 -5.17915 -3.26236 0
M  V30 6978 N 691.373 -5.44111 -4.4372 0
M  V30 6979 H 696.213 -2.88128 -0.760677 0
M  V30 6980 H 693.75 -1.42523 -0.364099 0
M  V30 6981 H 695.708 -2.6417 -3.22908 0
M  V30 6982 H 694.338 -1.57775 -2.81615 0
M  V30 6983 H 693.39 -3.53809 -1.39726 0
M  V30 6984 H 694.702 -4.55425 -2.03444 0
M  V30 6985 H 693.856 -4.21333 -4.36536 0
M  V30 6986 H 692.595 -3.09942 -3.76546 0
M  V30 6987 H 691.6 -4.95038 -2.39202 0
M  V30 6988 H 692.825 -6.08172 -3.02165 0
M  V30 6989 H 690.771 -4.58394 -4.69266 0
M  V30 6990 H 690.688 -6.25606 -4.24444 0
M  V30 6991 H 691.956 -5.71351 -5.30263 0
M  V30 6992 N 696.185 0.383891 -1.52853 0
M  V30 6993 C 697.431 1.13009 -1.68395 0
M  V30 6994 C 697.764 1.89488 -0.425195 0
M  V30 6995 O 697.039 1.8574 0.577136 0
M  V30 6996 C 697.322 2.10419 -2.92226 0
M  V30 6997 C 697.175 1.3767 -4.28214 0
M  V30 6998 C 698.494 3.10781 -3.11614 0
M  V30 6999 H 695.613 0.409463 -0.612788 0
M  V30 7000 H 698.255 0.412895 -1.85459 0
M  V30 7001 H 696.405 2.71579 -2.77808 0
M  V30 7002 H 698.077 0.794352 -4.54409 0
M  V30 7003 H 696.32 0.678533 -4.2846 0
M  V30 7004 H 696.991 2.08874 -5.10956 0
M  V30 7005 H 699.467 2.59715 -3.25096 0
M  V30 7006 H 698.343 3.76179 -3.99725 0
M  V30 7007 H 698.604 3.79933 -2.2606 0
M  V30 7008 N 697.663 1.43903 0.642637 0
M  V30 7009 C 698.573 1.52349 1.78401 0
M  V30 7010 C 699.589 0.409869 1.69104 0
M  V30 7011 O 700.765 0.665548 1.90085 0
M  V30 7012 C 697.83 1.45408 3.14734 0
M  V30 7013 C 696.891 2.67528 3.35749 0
M  V30 7014 C 696.124 2.60909 4.65577 0
M  V30 7015 O 696.347 1.6627 5.45628 0
M  V30 7016 O 695.281 3.5158 4.88544 0
M  V30 7017 H 699.107 2.48752 1.7423 0
M  V30 7018 H 696.692 1.26021 0.802439 0
M  V30 7019 H 698.574 1.44019 3.96026 0
M  V30 7020 H 697.249 0.521437 3.19473 0
M  V30 7021 H 696.156 2.74487 2.5418 0
M  V30 7022 H 697.489 3.598 3.35864 0
M  V30 7023 N 699.141 -0.881989 1.30609 0
M  V30 7024 C 700.389 -1.63082 1.19368 0
M  V30 7025 C 700.71 -1.93376 -0.251147 0
M  V30 7026 O 699.98 -1.5723 -1.16857 0
M  V30 7027 H 698.56 -0.604542 0.438791 0
M  V30 7028 H 701.222 -1.05658 1.63776 0
M  V30 7029 H 700.318 -2.57966 1.7567 0
M  V30 7030 N 700.619 -1.13374 -1.09472 0
M  V30 7031 C 701.582 -0.813639 -2.14272 0
M  V30 7032 C 702.582 0.176677 -1.59826 0
M  V30 7033 O 703.772 -0.0503441 -1.74127 0
M  V30 7034 C 700.904 -0.210897 -3.40247 0
M  V30 7035 H 702.097 -1.74229 -2.44099 0
M  V30 7036 H 699.65 -0.938304 -1.25002 0
M  V30 7037 H 700.385 0.726998 -3.16046 0
M  V30 7038 H 700.17 -0.924048 -3.81056 0
M  V30 7039 H 701.66 -0.00377603 -4.176 0
M  V30 7040 N 702.098 1.27442 -0.927168 0
M  V30 7041 C 703.03 2.25975 -0.383158 0
M  V30 7042 C 704.043 1.55382 0.485832 0
M  V30 7043 O 705.232 1.75986 0.298541 0
M  V30 7044 C 702.332 3.35629 0.469688 0
M  V30 7045 C 701.505 4.35747 -0.379886 0
M  V30 7046 C 700.564 5.24598 0.410227 0
M  V30 7047 O 699.59 5.68909 -0.181888 0
M  V30 7048 N 700.792 5.54737 1.71017 0
M  V30 7049 H 703.557 2.7329 -1.23015 0
M  V30 7050 H 701.118 1.41063 -0.794539 0
M  V30 7051 H 703.11 3.92015 1.00532 0
M  V30 7052 H 701.68 2.87919 1.21744 0
M  V30 7053 H 700.9 3.78634 -1.09682 0
M  V30 7054 H 702.188 4.99648 -0.960717 0
M  V30 7055 H 701.586 5.20594 2.21356 0
M  V30 7056 H 700.143 6.13824 2.19234 0
M  V30 7057 N 703.576 0.692616 1.41565 0
M  V30 7058 C 704.524 0.0139952 2.32596 0
M  V30 7059 C 705.518 -0.771691 1.50802 0
M  V30 7060 O 706.724 -0.677646 1.66757 0
M  V30 7061 H 703.099 -0.0142745 0.751865 0
M  V30 7062 H 705.07 0.798851 2.87508 0
M  V30 7063 C 703.819 -0.910602 3.35564 0
M  V30 7064 H 703.142 -0.315446 3.98554 0
M  V30 7065 H 704.582 -1.3538 4.01806 0
M  V30 7066 C 703.041 -2.02539 2.6922 0
M  V30 7067 O 703.571 -3.11386 2.53775 0
M  V30 7068 N 701.777 -1.80227 2.27962 0
M  V30 7069 H 701.324 -0.917054 2.40724 0
M  V30 7070 H 701.282 -2.55001 1.83907 0
M  V30 7071 N 705.054 -1.51416 0.437162 0
M  V30 7072 C 705.986 -2.255 -0.410171 0
M  V30 7073 C 706.999 -1.29511 -0.986444 0
M  V30 7074 O 708.188 -1.55266 -0.880614 0
M  V30 7075 C 705.288 -2.99511 -1.58575 0
M  V30 7076 C 704.461 -4.22595 -1.12839 0
M  V30 7077 C 703.52 -4.79187 -2.17407 0
M  V30 7078 O 702.546 -5.4103 -1.76849 0
M  V30 7079 N 703.748 -4.63204 -3.49889 0
M  V30 7080 H 706.513 -2.98856 0.224783 0
M  V30 7081 H 704.074 -1.59699 0.266041 0
M  V30 7082 H 706.066 -3.34258 -2.28152 0
M  V30 7083 H 704.636 -2.29167 -2.12606 0
M  V30 7084 H 703.856 -3.93344 -0.259695 0
M  V30 7085 H 705.144 -5.02468 -0.800196 0
M  V30 7086 H 704.542 -4.13945 -3.85573 0
M  V30 7087 H 703.099 -5.02313 -4.15361 0
M  V30 7088 N 706.532 -0.168513 -1.56696 0
M  V30 7089 C 707.78 0.476216 -1.96409 0
M  V30 7090 C 708.101 1.63968 -1.05544 0
M  V30 7091 O 707.371 1.95525 -0.121235 0
M  V30 7092 H 705.951 0.178921 -0.725256 0
M  V30 7093 H 708.613 -0.249042 -1.93302 0
M  V30 7094 H 707.709 0.838094 -3.00637 0
M  V30 7095 N 708.01 1.57248 0.105221 0
M  V30 7096 C 708.957 2.01338 1.12835 0
M  V30 7097 C 709.927 0.887897 1.40377 0
M  V30 7098 O 711.112 1.15315 1.5201 0
M  V30 7099 C 708.252 2.43432 2.44611 0
M  V30 7100 C 707.365 3.69457 2.23888 0
M  V30 7101 C 706.5 4.00473 3.48991 0
M  V30 7102 C 705.539 5.19638 3.23485 0
M  V30 7103 N 704.676 5.46457 4.40828 0
M  V30 7104 H 709.516 2.88527 0.745386 0
M  V30 7105 H 707.053 1.42714 0.356535 0
M  V30 7106 H 709.011 2.65879 3.21503 0
M  V30 7107 H 707.641 1.59266 2.80774 0
M  V30 7108 H 706.693 3.54545 1.37847 0
M  V30 7109 H 708.005 4.56497 2.01026 0
M  V30 7110 H 707.159 4.23642 4.34295 0
M  V30 7111 H 705.898 3.11935 3.74897 0
M  V30 7112 H 704.903 4.96299 2.36574 0
M  V30 7113 H 706.128 6.09766 2.98935 0
M  V30 7114 H 704.074 4.60876 4.66829 0
M  V30 7115 H 703.991 6.27849 4.2112 0
M  V30 7116 H 705.259 5.74155 5.27225 0
M  V30 7117 N 709.488 -0.375779 1.53054 0
M  V30 7118 C 710.435 -1.45978 1.78771 0
M  V30 7119 C 711.405 -1.53625 0.631552 0
M  V30 7120 O 712.59 -1.69674 0.872667 0
M  V30 7121 C 709.73 -2.8305 1.97425 0
M  V30 7122 C 708.843 -2.84451 3.25134 0
M  V30 7123 C 707.978 -4.13034 3.34031 0
M  V30 7124 C 707.017 -4.08536 4.55812 0
M  V30 7125 N 706.154 -5.2875 4.61918 0
M  V30 7126 H 710.994 -1.23349 2.71273 0
M  V30 7127 H 708.531 -0.598147 1.3439 0
M  V30 7128 H 710.489 -3.62666 2.06225 0
M  V30 7129 H 709.119 -3.04101 1.0827 0
M  V30 7130 H 708.171 -1.97127 3.25338 0
M  V30 7131 H 709.483 -2.76998 4.14818 0
M  V30 7132 H 708.637 -5.0106 3.42087 0
M  V30 7133 H 707.376 -4.23226 2.42345 0
M  V30 7134 H 706.381 -3.18897 4.47867 0
M  V30 7135 H 707.606 -3.99955 5.48828 0
M  V30 7136 H 705.552 -5.39547 3.73129 0
M  V30 7137 H 705.469 -5.23426 5.45492 0
M  V30 7138 H 706.737 -6.18637 4.74245 0
M  V30 7139 N 710.966 -1.44241 -0.634997 0
M  V30 7140 C 711.929 -1.50457 -1.72903 0
M  V30 7141 C 712.929 -0.387058 -1.56072 0
M  V30 7142 O 714.119 -0.649531 -1.61638 0
M  V30 7143 C 711.251 -1.37477 -3.1195 0
M  V30 7144 H 712.444 -2.47907 -1.68767 0
M  V30 7145 H 709.997 -1.31276 -0.84831 0
M  V30 7146 H 710.732 -0.41106 -3.21684 0
M  V30 7147 H 710.517 -2.18506 -3.25573 0
M  V30 7148 H 712.007 -1.44799 -3.91692 0
M  V30 7149 N 712.444 0.87505 -1.31075 0
M  V30 7150 C 713.354 2.01441 -1.20244 0
M  V30 7151 C 714.37 1.73584 -0.120227 0
M  V30 7152 O 715.546 1.98559 -0.337063 0
M  V30 7153 C 712.611 3.34675 -0.905199 0
M  V30 7154 C 711.672 3.75889 -2.0738 0
M  V30 7155 C 710.905 5.02764 -1.79064 0
M  V30 7156 O 711.128 5.65795 -0.723318 0
M  V30 7157 O 710.062 5.40623 -2.64594 0
M  V30 7158 H 713.888 2.13509 -2.1598 0
M  V30 7159 H 711.473 1.00257 -1.10765 0
M  V30 7160 H 713.355 4.1458 -0.755057 0
M  V30 7161 H 712.03 3.23692 0.0221695 0
M  V30 7162 H 710.937 2.96645 -2.27931 0
M  V30 7163 H 712.27 3.91489 -2.98324 0
M  V30 7164 N 713.922 1.13953 1.08869 0
M  V30 7165 C 715.17 0.903023 1.80803 0
M  V30 7166 C 715.491 -0.572151 1.86417 0
M  V30 7167 O 714.761 -1.41589 1.35386 0
M  V30 7168 H 713.341 0.331099 0.669614 0
M  V30 7169 H 716.003 1.43719 1.31647 0
M  V30 7170 H 715.099 1.29881 2.83791 0
M  V30 7171 N 715.4 -1.26948 0.933913 0
M  V30 7172 C 716.363 -2.24889 0.442457 0
M  V30 7173 C 717.363 -1.54594 -0.442426 0
M  V30 7174 O 718.553 -1.72502 -0.242629 0
M  V30 7175 C 715.685 -3.3896 -0.363173 0
M  V30 7176 H 716.878 -2.69879 1.30787 0
M  V30 7177 H 714.431 -1.38978 0.715187 0
M  V30 7178 H 715.166 -2.99361 -1.24714 0
M  V30 7179 H 714.951 -3.9116 0.271366 0
M  V30 7180 H 716.441 -4.11739 -0.697186 0
M  V30 7181 N 716.879 -0.700114 -1.41195 0
M  V30 7182 C 717.811 0.00155823 -2.292 0
M  V30 7183 C 718.824 0.739736 -1.45023 0
M  V30 7184 O 720.013 0.589684 -1.68478 0
M  V30 7185 C 717.113 1.02635 -3.22985 0
M  V30 7186 C 716.286 0.356871 -4.35942 0
M  V30 7187 C 715.345 1.28491 -5.10271 0
M  V30 7188 O 714.371 0.775562 -5.63892 0
M  V30 7189 N 715.573 2.61699 -5.18164 0
M  V30 7190 H 718.338 -0.754008 -2.9006 0
M  V30 7191 H 715.899 -0.546504 -1.52397 0
M  V30 7192 H 717.891 1.64902 -3.6958 0
M  V30 7193 H 716.461 1.68341 -2.63401 0
M  V30 7194 H 715.681 -0.445753 -3.91672 0
M  V30 7195 H 716.969 -0.108469 -5.08684 0
M  V30 7196 H 716.367 3.05594 -4.76056 0
M  V30 7197 H 714.924 3.19149 -5.6832 0
M  V30 7198 N 718.357 1.51182 -0.445186 0
M  V30 7199 C 719.305 2.29531 0.376597 0
M  V30 7200 C 720.299 1.35711 1.01385 0
M  V30 7201 O 721.505 1.53018 0.947922 0
M  V30 7202 H 717.88 0.738803 0.140267 0
M  V30 7203 H 719.851 2.96838 -0.304958 0
M  V30 7204 C 718.6 3.1552 1.4609 0
M  V30 7205 H 717.923 3.87605 0.979912 0
M  V30 7206 H 719.363 3.73384 2.009 0
M  V30 7207 C 717.822 2.31406 2.44852 0
M  V30 7208 O 718.352 1.97912 3.49562 0
M  V30 7209 N 716.558 1.94478 2.15932 0
M  V30 7210 H 716.105 2.21917 1.30808 0
M  V30 7211 H 716.063 1.38498 2.82251 0
M  V30 7212 N 719.835 0.176821 1.56605 0
M  V30 7213 C 720.767 -0.782836 2.15417 0
M  V30 7214 C 721.78 -1.18982 1.11117 0
M  V30 7215 O 722.969 -1.12872 1.38283 0
M  V30 7216 C 720.069 -2.06596 2.68647 0
M  V30 7217 C 719.242 -1.82167 3.9766 0
M  V30 7218 C 718.301 -2.94751 4.35899 0
M  V30 7219 O 717.327 -2.65148 5.03672 0
M  V30 7220 N 718.529 -4.2267 3.97907 0
M  V30 7221 H 721.294 -0.280012 2.98389 0
M  V30 7222 H 718.855 -0.00577529 1.61899 0
M  V30 7223 H 720.847 -2.81018 2.91223 0
M  V30 7224 H 719.417 -2.48054 1.90232 0
M  V30 7225 H 718.637 -0.916208 3.83405 0
M  V30 7226 H 719.925 -1.6322 4.81909 0
M  V30 7227 H 719.323 -4.4958 3.43357 0
M  V30 7228 H 717.88 -4.93778 4.25472 0
M  V30 7229 N 721.313 -1.57302 -0.09688 0
M  V30 7230 C 722.561 -1.8563 -0.799117 0
M  V30 7231 C 722.882 -0.765263 -1.79356 0
M  V30 7232 O 722.152 0.208657 -1.94786 0
M  V30 7233 H 720.732 -0.684937 -0.298111 0
M  V30 7234 H 723.394 -1.9474 -0.0789341 0
M  V30 7235 H 722.49 -2.82305 -1.3308 0
M  V30 7236 N 722.791 0.367657 -1.53252 0
M  V30 7237 C 723.738 1.45028 -1.79543 0
M  V30 7238 C 724.708 1.53288 -0.63969 0
M  V30 7239 O 725.893 1.69209 -0.881653 0
M  V30 7240 C 723.033 2.82 -1.98923 0
M  V30 7241 C 722.146 2.82722 -3.26638 0
M  V30 7242 C 721.281 4.11257 -3.36216 0
M  V30 7243 C 720.32 4.06113 -4.57972 0
M  V30 7244 N 719.457 5.26293 -4.64715 0
M  V30 7245 H 724.297 1.21908 -2.71923 0
M  V30 7246 H 721.834 0.591011 -1.34705 0
M  V30 7247 H 723.792 3.61568 -2.08146 0
M  V30 7248 H 722.422 3.03523 -1.09881 0
M  V30 7249 H 721.474 1.95399 -3.26379 0
M  V30 7250 H 722.786 2.74794 -4.16281 0
M  V30 7251 H 721.94 4.99239 -3.44739 0
M  V30 7252 H 720.679 4.21935 -2.44586 0
M  V30 7253 H 719.684 3.16517 -4.49552 0
M  V30 7254 H 720.909 3.97039 -5.50942 0
M  V30 7255 H 718.855 5.37561 -3.75985 0
M  V30 7256 H 718.772 5.20526 -5.4826 0
M  V30 7257 H 720.04 6.16113 -4.77519 0
M  V30 7258 N 724.269 1.44576 0.627338 0
M  V30 7259 C 725.216 1.51734 1.73912 0
M  V30 7260 C 726.186 0.364745 1.62046 0
M  V30 7261 O 727.371 0.575503 1.81914 0
M  V30 7262 C 724.511 1.47116 3.12171 0
M  V30 7263 C 723.624 2.72778 3.34986 0
M  V30 7264 C 722.759 2.59968 4.63239 0
M  V30 7265 C 721.798 3.80776 4.79245 0
M  V30 7266 N 720.935 3.66618 5.98778 0
M  V30 7267 H 725.775 2.46722 1.6713 0
M  V30 7268 H 723.312 1.22444 0.815224 0
M  V30 7269 H 725.27 1.42429 3.92135 0
M  V30 7270 H 723.9 0.556928 3.17959 0
M  V30 7271 H 722.952 2.87637 2.48936 0
M  V30 7272 H 724.264 3.62441 3.42692 0
M  V30 7273 H 723.418 2.53135 5.51369 0
M  V30 7274 H 722.157 1.67872 4.57898 0
M  V30 7275 H 721.162 3.87989 3.89544 0
M  V30 7276 H 722.387 4.73913 4.86398 0
M  V30 7277 H 720.333 2.77277 5.9452 0
M  V30 7278 H 720.25 4.499 6.07557 0
M  V30 7279 H 721.518 3.63684 6.89459 0
M  V30 7280 N 725.747 -0.868086 1.31537 0
M  V30 7281 C 726.71 -1.95703 1.19302 0
M  V30 7282 C 727.71 -1.60355 0.119612 0
M  V30 7283 O 728.9 -1.70247 0.36902 0
M  V30 7284 C 726.032 -3.30599 0.831684 0
M  V30 7285 H 727.225 -2.07982 2.16064 0
M  V30 7286 H 724.778 -1.05661 1.15176 0
M  V30 7287 H 725.513 -3.2402 -0.134694 0
M  V30 7288 H 725.298 -3.57629 1.60761 0
M  V30 7289 H 726.788 -4.10439 0.770026 0
M  V30 7290 N 727.225 -1.14528 -1.08264 0
M  V30 7291 C 728.135 -0.84728 -2.18765 0
M  V30 7292 C 729.151 0.172826 -1.7314 0
M  V30 7293 O 730.327 0.000985336 -2.014 0
M  V30 7294 C 727.392 -0.330633 -3.4512 0
M  V30 7295 C 726.453 -1.41348 -4.05363 0
M  V30 7296 C 725.686 -0.921387 -5.25686 0
M  V30 7297 O 725.909 0.236587 -5.69909 0
M  V30 7298 O 724.843 -1.70101 -5.77364 0
M  V30 7299 H 728.669 -1.7708 -2.46731 0
M  V30 7300 H 726.254 -0.923661 -1.17426 0
M  V30 7301 H 728.136 -0.0485053 -4.21372 0
M  V30 7302 H 726.811 0.565147 -3.18728 0
M  V30 7303 H 725.718 -1.74908 -3.30693 0
M  V30 7304 H 727.051 -2.28383 -4.36007 0
M  V30 7305 N 728.703 1.26451 -0.940633 0
M  V30 7306 C 729.951 1.93395 -0.586748 0
M  V30 7307 C 730.272 1.7417 0.876921 0
M  V30 7308 O 729.542 1.097 1.62304 0
M  V30 7309 H 728.122 0.715687 -0.214012 0
M  V30 7310 H 730.784 1.53902 -1.19584 0
M  V30 7311 H 729.88 3.01565 -0.804059 0
M  V30 7312 N 730.181 0.707592 1.40822 0
M  V30 7313 C 731.144 0.0587224 2.29125 0
M  V30 7314 C 732.144 -0.695624 1.44975 0
M  V30 7315 O 733.334 -0.528718 1.65983 0
M  V30 7316 C 730.466 -0.926939 3.28056 0
M  V30 7317 H 731.659 0.836349 2.88002 0
M  V30 7318 H 729.212 0.471778 1.4901 0
M  V30 7319 H 729.947 -1.7319 2.74182 0
M  V30 7320 H 729.732 -0.389015 3.90165 0
M  V30 7321 H 731.222 -1.37837 3.94196 0
M  V30 7322 N 731.66 -1.50943 0.453197 0
M  V30 7323 C 732.592 -2.25922 -0.38623 0
M  V30 7324 C 733.605 -1.3055 -0.972652 0
M  V30 7325 O 734.794 -1.56191 -0.864097 0
M  V30 7326 C 731.894 -3.01176 -1.5539 0
M  V30 7327 C 731.067 -4.23768 -1.0835 0
M  V30 7328 C 730.126 -4.81466 -2.12313 0
M  V30 7329 O 729.152 -5.42875 -1.71101 0
M  V30 7330 N 730.354 -4.66889 -3.44956 0
M  V30 7331 H 733.119 -2.98601 0.256468 0
M  V30 7332 H 730.68 -1.59408 0.282965 0
M  V30 7333 H 732.672 -3.36659 -2.24594 0
M  V30 7334 H 731.242 -2.31409 -2.10163 0
M  V30 7335 H 730.462 -3.93597 -0.217961 0
M  V30 7336 H 731.75 -5.03289 -0.746857 0
M  V30 7337 H 731.148 -4.18011 -3.81161 0
M  V30 7338 H 729.705 -5.06691 -4.1001 0
M  V30 7339 N 733.138 -0.185124 -1.56509 0
M  V30 7340 C 734.086 0.756505 -2.19954 0
M  V30 7341 C 735.08 1.22725 -1.16769 0
M  V30 7342 O 736.286 1.1913 -1.34937 0
M  V30 7343 H 732.661 0.262279 -0.704779 0
M  V30 7344 H 734.632 0.197587 -2.97745 0
M  V30 7345 C 733.381 1.96975 -2.86524 0
M  V30 7346 H 732.704 1.61658 -3.65659 0
M  V30 7347 H 734.144 2.60719 -3.34367 0
M  V30 7348 C 732.603 2.80219 -1.87027 0
M  V30 7349 O 733.133 3.77821 -1.36433 0
M  V30 7350 N 731.339 2.4551 -1.55477 0
M  V30 7351 H 730.886 1.66199 -1.96813 0
M  V30 7352 H 730.844 3.01493 -0.891597 0
M  V30 7353 N 734.616 1.57351 0.0885366 0
M  V30 7354 C 735.548 1.99221 1.13329 0
M  V30 7355 C 736.561 0.895705 1.35945 0
M  V30 7356 O 737.75 1.17376 1.34481 0
M  V30 7357 C 734.85 2.3016 2.48756 0
M  V30 7358 C 734.023 3.61444 2.46327 0
M  V30 7359 C 733.082 3.80244 3.63732 0
M  V30 7360 O 732.108 4.52024 3.45924 0
M  V30 7361 N 733.31 3.2132 4.8346 0
M  V30 7362 H 736.075 2.89456 0.776862 0
M  V30 7363 H 733.636 1.59505 0.277428 0
M  V30 7364 H 735.628 2.39925 3.25911 0
M  V30 7365 H 734.198 1.459 2.76464 0
M  V30 7366 H 733.418 3.62588 1.54673 0
M  V30 7367 H 734.706 4.47678 2.41789 0
M  V30 7368 H 734.104 2.63028 5.00832 0
M  V30 7369 H 732.661 3.3656 5.58185 0
M  V30 7370 N 736.094 -0.359525 1.53444 0
M  V30 7371 C 737.342 -1.09935 1.69584 0
M  V30 7372 C 737.663 -1.89656 0.453371 0
M  V30 7373 O 736.933 -1.8852 -0.53263 0
M  V30 7374 H 735.513 -0.408843 0.625185 0
M  V30 7375 H 738.175 -0.40467 1.90653 0
M  V30 7376 H 737.271 -1.78575 2.55964 0
M  V30 7377 N 737.572 -1.44907 -0.619662 0
M  V30 7378 C 738.519 -1.52654 -1.73105 0
M  V30 7379 C 739.489 -0.373334 -1.6185 0
M  V30 7380 O 740.674 -0.585143 -1.81606 0
M  V30 7381 C 737.814 -1.48769 -3.11387 0
M  V30 7382 C 736.927 -2.74551 -3.33535 0
M  V30 7383 C 736.062 -2.62421 -4.61854 0
M  V30 7384 C 735.101 -3.83312 -4.77219 0
M  V30 7385 N 734.238 -3.69789 -5.96826 0
M  V30 7386 H 739.078 -2.47605 -1.65819 0
M  V30 7387 H 736.615 -1.22875 -0.808719 0
M  V30 7388 H 738.573 -1.44507 -3.91374 0
M  V30 7389 H 737.203 -0.573783 -3.1766 0
M  V30 7390 H 736.255 -2.88953 -2.47408 0
M  V30 7391 H 737.567 -3.64253 -3.40765 0
M  V30 7392 H 736.721 -2.56056 -5.50019 0
M  V30 7393 H 735.46 -1.70298 -4.57001 0
M  V30 7394 H 734.465 -3.90049 -3.87481 0
M  V30 7395 H 735.69 -4.76486 -4.83878 0
M  V30 7396 H 733.636 -2.80426 -5.93041 0
M  V30 7397 H 733.553 -4.53116 -6.05163 0
M  V30 7398 H 734.821 -3.67335 -6.87521 0
M  V30 7399 N 739.05 0.861098 -1.31996 0
M  V30 7400 C 739.997 1.96912 -1.20392 0
M  V30 7401 C 740.967 1.65869 -0.0875899 0
M  V30 7402 O 742.152 1.88992 -0.262011 0
M  V30 7403 C 739.292 3.32435 -0.926335 0
M  V30 7404 C 738.405 3.76018 -2.12684 0
M  V30 7405 C 737.54 5.00301 -1.78529 0
M  V30 7406 C 736.579 5.36357 -2.94937 0
M  V30 7407 N 735.716 6.51818 -2.60917 0
M  V30 7408 H 740.556 2.06169 -2.1517 0
M  V30 7409 H 738.093 1.00917 -1.07024 0
M  V30 7410 H 740.051 4.10478 -0.745917 0
M  V30 7411 H 738.681 3.22796 -0.0153578 0
M  V30 7412 H 737.733 2.93683 -2.41774 0
M  V30 7413 H 739.045 3.98664 -2.99781 0
M  V30 7414 H 738.199 5.86034 -1.57001 0
M  V30 7415 H 736.938 4.79578 -0.886356 0
M  V30 7416 H 735.943 4.49139 -3.17103 0
M  V30 7417 H 737.168 5.59041 -3.85552 0
M  V30 7418 H 735.114 6.32624 -1.73558 0
M  V30 7419 H 735.031 6.7445 -3.41544 0
M  V30 7420 H 736.299 7.4072 -2.42804 0
M  V30 7421 N 740.528 1.15101 1.07655 0
M  V30 7422 C 741.491 0.847625 2.12951 0
M  V30 7423 C 742.491 -0.151227 1.60087 0
M  V30 7424 O 743.681 0.0780399 1.74025 0
M  V30 7425 C 740.813 0.265 3.39868 0
M  V30 7426 H 742.006 1.7809 2.41296 0
M  V30 7427 H 739.559 0.958072 1.23494 0
M  V30 7428 H 740.294 -0.676625 3.17163 0
M  V30 7429 H 740.079 0.984554 3.79538 0
M  V30 7430 H 741.569 0.0702121 4.17541 0
M  V30 7431 N 742.006 -1.2595 0.947325 0
M  V30 7432 C 742.916 -2.29883 0.468079 0
M  V30 7433 C 743.932 -1.67783 -0.460975 0
M  V30 7434 O 745.108 -1.98526 -0.339006 0
M  V30 7435 C 742.173 -3.45773 -0.253315 0
M  V30 7436 C 741.234 -4.23337 0.713054 0
M  V30 7437 C 740.467 -5.33694 0.025993 0
M  V30 7438 O 740.69 -5.57853 -1.18978 0
M  V30 7439 O 739.624 -5.97724 0.70782 0
M  V30 7440 H 743.45 -2.72952 1.33156 0
M  V30 7441 H 741.035 -1.31263 0.713468 0
M  V30 7442 H 742.917 -4.16209 -0.659423 0
M  V30 7443 H 741.592 -3.04721 -1.09209 0
M  V30 7444 H 740.499 -3.55359 1.16923 0
M  V30 7445 H 741.832 -4.68154 1.51963 0
M  V30 7446 N 743.484 -0.715051 -1.40445 0
M  V30 7447 C 744.732 -0.253826 -2.005 0
M  V30 7448 C 745.053 1.15681 -1.5698 0
M  V30 7449 O 744.323 1.78414 -0.809027 0
M  V30 7450 H 742.903 -0.0908537 -0.741454 0
M  V30 7451 H 745.565 -0.920561 -1.7179 0
M  V30 7452 H 744.661 -0.286499 -3.10782 0
M  V30 7453 N 744.962 1.50701 -0.461195 0
M  V30 7454 C 745.925 2.2686 0.326679 0
M  V30 7455 C 746.925 1.31243 0.929085 0
M  V30 7456 O 748.115 1.54754 0.799807 0
M  V30 7457 C 745.247 3.07844 1.46441 0
M  V30 7458 H 746.44 2.97954 -0.341095 0
M  V30 7459 H 743.993 1.54814 -0.214984 0
M  V30 7460 H 744.728 2.41223 2.16753 0
M  V30 7461 H 744.513 3.78101 1.03836 0
M  V30 7462 H 746.003 3.65469 2.02044 0
M  V30 7463 N 746.441 0.193421 1.56409 0
M  V30 7464 C 747.373 -0.759944 2.16235 0
M  V30 7465 C 748.386 -1.17797 1.12373 0
M  V30 7466 O 749.575 -1.11399 1.39472 0
M  V30 7467 C 746.675 -2.03735 2.70823 0
M  V30 7468 C 745.848 -1.77939 3.9957 0
M  V30 7469 C 744.907 -2.90111 4.39001 0
M  V30 7470 O 743.933 -2.59791 5.06456 0
M  V30 7471 N 745.135 -4.18426 4.02368 0
M  V30 7472 H 747.9 -0.248348 2.98669 0
M  V30 7473 H 745.461 0.0113966 1.61896 0
M  V30 7474 H 747.453 -2.77914 2.94187 0
M  V30 7475 H 746.023 -2.46022 1.92852 0
M  V30 7476 H 745.243 -0.875491 3.84355 0
M  V30 7477 H 746.531 -1.58099 4.83614 0
M  V30 7478 H 745.929 -4.45913 3.48106 0
M  V30 7479 H 744.486 -4.89237 4.30686 0
M  V30 7480 N 747.919 -1.57396 -0.0801906 0
M  V30 7481 C 748.867 -2.04136 -1.11495 0
M  V30 7482 C 749.861 -0.945137 -1.40583 0
M  V30 7483 O 751.067 -1.13028 -1.40088 0
M  V30 7484 H 747.442 -0.65076 -0.37685 0
M  V30 7485 H 749.413 -2.90205 -0.694526 0
M  V30 7486 C 748.162 -2.49399 -2.42272 0
M  V30 7487 H 747.485 -3.33339 -2.20737 0
M  V30 7488 H 748.925 -2.85864 -3.13142 0
M  V30 7489 C 747.384 -1.37341 -3.07635 0
M  V30 7490 O 747.914 -0.710829 -3.95361 0
M  V30 7491 N 746.12 -1.12064 -2.68123 0
M  V30 7492 H 745.667 -1.66126 -1.96875 0
M  V30 7493 H 745.625 -0.372916 -3.12181 0
M  V30 7494 N 749.397 0.351382 -1.53633 0
M  V30 7495 C 750.329 1.45159 -1.77374 0
M  V30 7496 C 751.342 1.4905 -0.654826 0
M  V30 7497 O 752.531 1.52274 -0.931396 0
M  V30 7498 C 749.631 2.83858 -1.85143 0
M  V30 7499 C 748.804 3.03498 -3.14972 0
M  V30 7500 C 747.863 4.22393 -3.138 0
M  V30 7501 O 746.889 4.16885 -3.87551 0
M  V30 7502 N 748.091 5.30533 -2.35617 0
M  V30 7503 H 750.856 1.25167 -2.72311 0
M  V30 7504 H 748.417 0.54121 -1.52586 0
M  V30 7505 H 750.409 3.61557 -1.8182 0
M  V30 7506 H 748.979 2.9703 -0.974275 0
M  V30 7507 H 748.199 2.13336 -3.31484 0
M  V30 7508 H 749.487 3.13498 -4.00745 0
M  V30 7509 H 748.885 5.37875 -1.75235 0
M  V30 7510 H 747.442 6.06756 -2.38098 0
M  V30 7511 N 750.875 1.45233 0.611969 0
M  V30 7512 C 752.123 1.48727 1.36838 0
M  V30 7513 C 752.444 0.128616 1.94575 0
M  V30 7514 O 751.714 -0.84149 1.76906 0
M  V30 7515 H 750.294 0.547695 0.507976 0
M  V30 7516 H 752.956 1.81156 0.718925 0
M  V30 7517 H 752.052 2.2236 2.19003 0
M  V30 7518 N 752.353 -0.854086 1.3245 0
M  V30 7519 C 753.285 -1.96932 1.17262 0
M  V30 7520 C 754.298 -1.62445 0.107469 0
M  V30 7521 O 755.487 -1.74904 0.356481 0
M  V30 7522 C 752.587 -3.29971 0.772817 0
M  V30 7523 C 751.76 -3.92695 1.92638 0
M  V30 7524 C 750.819 -5.04068 1.51003 0
M  V30 7525 O 749.845 -5.24032 2.22213 0
M  V30 7526 N 751.047 -5.79076 0.406371 0
M  V30 7527 H 753.812 -2.10503 2.13327 0
M  V30 7528 H 751.373 -1.02897 1.24995 0
M  V30 7529 H 753.365 -4.01883 0.476684 0
M  V30 7530 H 751.935 -3.1245 -0.0967 0
M  V30 7531 H 751.155 -3.13563 2.38897 0
M  V30 7532 H 752.443 -4.31337 2.69863 0
M  V30 7533 H 751.841 -5.65393 -0.186302 0
M  V30 7534 H 750.398 -6.51579 0.169846 0
M  V30 7535 N 753.831 -1.1567 -1.07043 0
M  V30 7536 C 754.778 -0.856336 -2.14326 0
M  V30 7537 C 755.748 0.192051 -1.64986 0
M  V30 7538 O 756.933 0.0589148 -1.90709 0
M  V30 7539 C 754.073 -0.355227 -3.43267 0
M  V30 7540 C 753.186 -1.46555 -4.06381 0
M  V30 7541 C 752.321 -0.920245 -5.23168 0
M  V30 7542 C 751.36 -2.00729 -5.78251 0
M  V30 7543 N 750.497 -1.47813 -6.86364 0
M  V30 7544 H 755.337 -1.77514 -2.39359 0
M  V30 7545 H 752.874 -0.885676 -1.17449 0
M  V30 7546 H 754.832 -0.0463804 -4.17174 0
M  V30 7547 H 753.462 0.526649 -3.18475 0
M  V30 7548 H 752.514 -1.89052 -3.30096 0
M  V30 7549 H 753.826 -2.28616 -4.43324 0
M  V30 7550 H 752.98 -0.564127 -6.04072 0
M  V30 7551 H 751.719 -0.0688477 -4.87651 0
M  V30 7552 H 750.724 -2.3722 -4.95991 0
M  V30 7553 H 751.949 -2.86252 -6.15822 0
M  V30 7554 H 749.895 -0.649145 -6.5278 0
M  V30 7555 H 749.812 -2.23498 -7.22208 0
M  V30 7556 H 751.08 -1.15036 -7.70965 0
M  V30 7557 N 755.309 1.25446 -0.953992 0
M  V30 7558 C 756.557 1.92762 -0.607227 0
M  V30 7559 C 756.878 1.7509 0.858399 0
M  V30 7560 O 756.148 1.11416 1.61132 0
M  V30 7561 H 754.728 0.713377 -0.221591 0
M  V30 7562 H 757.39 1.52625 -1.21209 0
M  V30 7563 H 756.486 3.00695 -0.835998 0
M  V30 7564 N 756.787 0.722489 1.40064 0
M  V30 7565 C 757.697 0.0755984 2.34478 0
M  V30 7566 C 758.713 -0.736046 1.57665 0
M  V30 7567 O 759.889 -0.667407 1.9002 0
M  V30 7568 C 756.954 -0.830075 3.36616 0
M  V30 7569 C 756.015 -0.00759884 4.29299 0
M  V30 7570 C 755.248 -0.870139 5.26559 0
M  V30 7571 O 755.471 -2.10921 5.2997 0
M  V30 7572 O 754.405 -0.305454 6.01124 0
M  V30 7573 H 758.231 0.854545 2.9143 0
M  V30 7574 H 755.816 0.483032 1.41376 0
M  V30 7575 H 757.698 -1.34864 3.99236 0
M  V30 7576 H 756.373 -1.58805 2.82069 0
M  V30 7577 H 755.28 0.556199 3.69942 0
M  V30 7578 H 756.613 0.712312 4.87018 0
M  V30 7579 N 758.265 -1.50454 0.469181 0
M  V30 7580 C 759.513 -2.01916 -0.0862982 0
M  V30 7581 C 759.834 -1.35337 -1.40388 0
M  V30 7582 O 759.104 -0.498096 -1.89462 0
M  V30 7583 H 757.684 -0.746185 -0.0348825 0
M  V30 7584 H 760.346 -1.84804 0.619167 0
M  V30 7585 H 759.442 -3.11182 -0.239189 0
M  V30 7586 N 759.743 -0.201713 -1.56304 0
M  V30 7587 C 760.706 0.702811 -2.18159 0
M  V30 7588 C 761.706 1.13619 -1.13787 0
M  V30 7589 O 762.896 1.0482 -1.39134 0
M  V30 7590 C 760.028 1.96032 -2.78898 0
M  V30 7591 H 761.221 0.163836 -2.99452 0
M  V30 7592 H 758.774 0.04791 -1.56227 0
M  V30 7593 H 759.509 2.54165 -2.01421 0
M  V30 7594 H 759.294 1.65824 -3.55309 0
M  V30 7595 H 760.784 2.60519 -3.26373 0
M  V30 7596 N 761.222 1.57436 0.0718424 0
M  V30 7597 C 762.154 2.00412 1.1121 0
M  V30 7598 C 763.167 0.910074 1.34987 0
M  V30 7599 O 764.356 1.18796 1.33228 0
M  V30 7600 C 761.456 2.32786 2.46301 0
M  V30 7601 C 760.629 3.64036 2.4248 0
M  V30 7602 C 759.688 3.8408 3.59679 0
M  V30 7603 O 758.714 4.55667 3.4111 0
M  V30 7604 N 759.916 3.2643 4.80025 0
M  V30 7605 H 762.681 2.90264 0.746118 0
M  V30 7606 H 760.242 1.59791 0.260495 0
M  V30 7607 H 762.234 2.43368 3.23348 0
M  V30 7608 H 760.804 1.48824 2.74901 0
M  V30 7609 H 760.024 3.64208 1.50818 0
M  V30 7610 H 761.312 4.50217 2.37027 0
M  V30 7611 H 760.71 2.68325 4.98014 0
M  V30 7612 H 759.267 3.42461 5.54584 0
M  V30 7613 N 762.7 -0.34323 1.53817 0
M  V30 7614 C 763.648 -1.44176 1.82527 0
M  V30 7615 C 764.642 -1.54452 0.695772 0
M  V30 7616 O 765.848 -1.57072 0.879114 0
M  V30 7617 H 762.223 -0.480729 0.578277 0
M  V30 7618 H 764.194 -1.17176 2.74431 0
M  V30 7619 C 762.943 -2.80695 2.05197 0
M  V30 7620 H 762.266 -2.73554 2.91561 0
M  V30 7621 H 763.706 -3.56679 2.29251 0
M  V30 7622 C 762.165 -3.26322 0.837589 0
M  V30 7623 O 762.695 -4.01683 0.0371631 0
M  V30 7624 N 760.901 -2.83128 0.654724 0
M  V30 7625 H 760.448 -2.21965 1.30725 0
M  V30 7626 H 760.406 -3.14011 -0.156345 0
M  V30 7627 N 764.178 -1.45556 -0.604258 0
M  V30 7628 C 765.11 -1.50494 -1.72871 0
M  V30 7629 C 766.123 -0.395368 -1.57926 0
M  V30 7630 O 767.312 -0.662603 -1.65746 0
M  V30 7631 C 764.412 -1.34874 -3.10906 0
M  V30 7632 C 763.585 -2.59564 -3.52058 0
M  V30 7633 C 762.644 -2.38453 -4.6907 0
M  V30 7634 O 761.67 -3.12082 -4.76018 0
M  V30 7635 N 762.872 -1.43229 -5.62553 0
M  V30 7636 H 765.637 -2.4744 -1.69097 0
M  V30 7637 H 763.198 -1.41338 -0.789636 0
M  V30 7638 H 765.19 -1.18556 -3.86945 0
M  V30 7639 H 763.76 -0.461913 -3.09168 0
M  V30 7640 H 762.98 -2.90974 -2.65946 0
M  V30 7641 H 764.268 -3.42441 -3.76313 0
M  V30 7642 H 763.666 -0.824714 -5.59656 0
M  V30 7643 H 762.223 -1.32882 -6.38111 0
M  V30 7644 N 765.656 0.84705 -1.32902 0
M  V30 7645 C 766.904 1.5986 -1.2365 0
M  V30 7646 C 767.225 1.93974 0.199789 0
M  V30 7647 O 766.495 1.60273 1.12648 0
M  V30 7648 H 765.075 0.592696 -0.454665 0
M  V30 7649 H 767.737 1.01278 -1.66519 0
M  V30 7650 H 766.833 2.53218 -1.82448 0
M  V30 7651 N 767.134 1.16236 1.06428 0
M  V30 7652 C 768.081 0.86769 2.13869 0
M  V30 7653 C 769.051 -0.183298 1.65086 0
M  V30 7654 O 770.236 -0.0488002 1.90738 0
M  V30 7655 C 767.376 0.373427 3.43074 0
M  V30 7656 C 766.489 1.48708 4.05598 0
M  V30 7657 C 765.624 0.947977 5.22673 0
M  V30 7658 C 764.663 2.03793 5.77178 0
M  V30 7659 N 763.8 1.51451 6.85571 0
M  V30 7660 H 768.64 1.78781 2.38414 0
M  V30 7661 H 766.177 0.891892 1.16977 0
M  V30 7662 H 768.135 0.0685035 4.17144 0
M  V30 7663 H 766.765 -0.509752 3.1875 0
M  V30 7664 H 765.817 1.908 3.29089 0
M  V30 7665 H 767.129 2.30964 4.42105 0
M  V30 7666 H 766.283 0.596154 6.03764 0
M  V30 7667 H 765.022 0.0947081 4.87608 0
M  V30 7668 H 764.027 2.39847 4.94726 0
M  V30 7669 H 765.252 2.89514 6.14295 0
M  V30 7670 H 763.198 0.683755 6.52427 0
M  V30 7671 H 763.115 2.27325 7.21013 0
M  V30 7672 H 764.383 1.19123 7.70344 0
M  V30 7673 N 768.612 -1.24939 0.960631 0
M  V30 7674 C 769.559 -2.25658 0.484459 0
M  V30 7675 C 770.529 -1.59422 -0.466242 0
M  V30 7676 O 771.714 -1.87015 -0.378169 0
M  V30 7677 C 768.854 -3.44359 -0.225958 0
M  V30 7678 C 767.967 -4.25214 0.762682 0
M  V30 7679 C 767.102 -5.31192 0.0290931 0
M  V30 7680 C 766.141 -6.03739 1.00827 0
M  V30 7681 N 765.278 -7.01437 0.305155 0
M  V30 7682 H 770.118 -2.65758 1.34821 0
M  V30 7683 H 767.655 -1.30648 0.675983 0
M  V30 7684 H 769.613 -4.12035 -0.654472 0
M  V30 7685 H 768.243 -3.05118 -1.05371 0
M  V30 7686 H 767.295 -3.57144 1.30966 0
M  V30 7687 H 768.607 -4.75406 1.50964 0
M  V30 7688 H 767.761 -6.04971 -0.457763 0
M  V30 7689 H 766.5 -4.81889 -0.750614 0
M  V30 7690 H 765.505 -5.2877 1.50607 0
M  V30 7691 H 766.73 -6.55131 1.7883 0
M  V30 7692 H 764.676 -6.54415 -0.455704 0
M  V30 7693 H 764.593 -7.49475 0.991104 0
M  V30 7694 H 765.861 -7.79336 -0.159966 0
M  V30 7695 N 770.09 -0.729906 -1.39679 0
M  V30 7696 C 771.318 -0.285709 -2.04918 0
M  V30 7697 C 771.733 1.07765 -1.55023 0
M  V30 7698 O 771.09 1.67999 -0.712923 0
M  V30 7699 C 771.141 -0.272793 -3.60469 0
M  V30 7700 O 770.862 -1.58233 -4.08527 0
M  V30 7701 C 772.363 0.188199 -4.429 0
M  V30 7702 H 769.583 -0.125758 -0.65911 0
M  V30 7703 H 772.127 -0.992129 -1.78821 0
M  V30 7704 H 770.282 0.384699 -3.85485 0
M  V30 7705 H 770.696 -1.49245 -5.02818 0
M  V30 7706 H 772.17 0.14608 -5.51807 0
M  V30 7707 H 772.647 1.2326 -4.21549 0
M  V30 7708 H 773.253 -0.439541 -4.23023 0
M  V30 7709 N 771.568 1.50203 -0.477153 0
M  V30 7710 C 772.478 2.32421 0.319027 0
M  V30 7711 C 773.494 1.43075 0.990233 0
M  V30 7712 O 774.67 1.76123 0.976873 0
M  V30 7713 C 771.735 3.17909 1.38328 0
M  V30 7714 C 770.796 4.23082 0.728036 0
M  V30 7715 C 770.029 5.04484 1.74158 0
M  V30 7716 O 770.252 4.8705 2.96881 0
M  V30 7717 O 769.186 5.8747 1.31006 0
M  V30 7718 H 773.012 3.01638 -0.353281 0
M  V30 7719 H 770.597 1.47478 -0.238891 0
M  V30 7720 H 772.479 3.70937 1.9996 0
M  V30 7721 H 771.154 2.51413 2.03895 0
M  V30 7722 H 770.061 3.7403 0.07261 0
M  V30 7723 H 771.394 4.92065 0.115216 0
M  V30 7724 N 773.046 0.209999 1.56195 0
M  V30 7725 C 774.294 -0.423974 1.97603 0
M  V30 7726 C 774.615 -1.61112 1.09854 0
M  V30 7727 O 773.885 -1.95134 0.173032 0
M  V30 7728 H 772.465 -0.159629 0.729745 0
M  V30 7729 H 775.127 0.300205 1.92574 0
M  V30 7730 H 774.223 -0.75809 3.02753 0
M  V30 7731 N 774.524 -1.57472 -0.0634922 0
M  V30 7732 C 775.487 -2.03268 -1.059 0
M  V30 7733 C 776.487 -0.931028 -1.31105 0
M  V30 7734 O 777.677 -1.19567 -1.26686 0
M  V30 7735 C 774.809 -2.42039 -2.40062 0
M  V30 7736 H 776.002 -2.92454 -0.664119 0
M  V30 7737 H 773.555 -1.53206 -0.309444 0
M  V30 7738 H 774.29 -1.55904 -2.84367 0
M  V30 7739 H 774.075 -3.22437 -2.23108 0
M  V30 7740 H 775.565 -2.78017 -3.11603 0
M  V30 7741 N 776.003 0.335068 -1.53997 0
M  V30 7742 C 776.935 1.4327 -1.78903 0
M  V30 7743 C 777.948 1.48347 -0.670598 0
M  V30 7744 O 779.137 1.51277 -0.947494 0
M  V30 7745 C 776.237 2.81878 -1.88144 0
M  V30 7746 C 775.41 3.00141 -3.18174 0
M  V30 7747 C 774.469 4.19041 -3.18263 0
M  V30 7748 O 773.495 4.12751 -3.9195 0
M  V30 7749 N 774.697 5.28004 -2.41231 0
M  V30 7750 H 777.462 1.22272 -2.73623 0
M  V30 7751 H 775.023 0.524996 -1.53152 0
M  V30 7752 H 777.015 3.59609 -1.85644 0
M  V30 7753 H 775.585 2.9598 -1.00572 0
M  V30 7754 H 774.805 2.09808 -3.33728 0
M  V30 7755 H 776.093 3.0923 -4.04047 0
M  V30 7756 H 775.491 5.35986 -1.8093 0
M  V30 7757 H 774.048 6.04196 -2.44521 0
M  V30 7758 N 777.481 1.45874 0.596531 0
M  V30 7759 C 778.729 1.5017 1.35253 0
M  V30 7760 C 779.05 0.149246 1.94428 0
M  V30 7761 O 778.32 -0.82268 1.77789 0
M  V30 7762 H 776.9 0.553052 0.502138 0
M  V30 7763 H 779.562 1.81908 0.699671 0
M  V30 7764 H 778.658 2.24671 2.16632 0
M  V30 7765 N 778.959 -0.83999 1.33349 0
M  V30 7766 C 779.906 -1.94972 1.23509 0
M  V30 7767 C 780.876 -1.65709 0.113967 0
M  V30 7768 O 782.061 -1.88552 0.292045 0
M  V30 7769 C 779.201 -3.30919 0.979105 0
M  V30 7770 C 778.314 -3.72587 2.18639 0
M  V30 7771 C 777.449 -4.97397 1.86465 0
M  V30 7772 C 776.488 -5.31597 3.03432 0
M  V30 7773 N 775.625 -6.47584 2.71254 0
M  V30 7774 H 780.465 -2.0272 2.18423 0
M  V30 7775 H 778.002 -0.992017 1.08616 0
M  V30 7776 H 779.96 -4.09239 0.811126 0
M  V30 7777 H 778.59 -3.22731 0.0667099 0
M  V30 7778 H 777.642 -2.89799 2.46416 0
M  V30 7779 H 778.954 -3.93844 3.06086 0
M  V30 7780 H 778.108 -5.83462 1.66305 0
M  V30 7781 H 776.847 -4.78107 0.96254 0
M  V30 7782 H 775.852 -4.44037 3.24208 0
M  V30 7783 H 777.077 -5.52836 3.94397 0
M  V30 7784 H 775.023 -6.29783 1.836 0
M  V30 7785 H 774.94 -6.68931 3.52231 0
M  V30 7786 H 776.208 -7.36764 2.54558 0
M  V30 7787 N 780.437 -1.16799 -1.0581 0
M  V30 7788 C 781.384 -0.87902 -2.13405 0
M  V30 7789 C 782.354 0.174541 -1.6518 0
M  V30 7790 O 783.539 0.0386843 -1.90761 0
M  V30 7791 C 780.679 -0.391616 -3.42871 0
M  V30 7792 C 779.792 -1.50857 -4.04804 0
M  V30 7793 C 778.927 -0.975682 -5.22163 0
M  V30 7794 C 777.966 -2.06851 -5.76089 0
M  V30 7795 N 777.103 -1.55085 -6.84758 0
M  V30 7796 H 781.943 -1.80043 -2.37463 0
M  V30 7797 H 779.48 -0.898083 -1.16503 0
M  V30 7798 H 781.438 -0.0906247 -4.17102 0
M  V30 7799 H 780.068 0.49284 -3.19016 0
M  V30 7800 H 779.12 -1.92542 -3.28073 0
M  V30 7801 H 780.432 -2.33305 -4.40874 0
M  V30 7802 H 779.586 -0.628165 -6.03439 0
M  V30 7803 H 778.325 -0.120566 -4.87551 0
M  V30 7804 H 777.33 -2.42467 -4.93447 0
M  V30 7805 H 778.555 -2.92768 -6.12751 0
M  V30 7806 H 776.501 -0.718345 -6.52055 0
M  V30 7807 H 776.418 -2.31145 -7.19797 0
M  V30 7808 H 777.686 -1.23206 -7.69702 0
M  V30 7809 N 781.915 1.24427 -0.967243 0
M  V30 7810 C 782.878 2.23637 -0.501927 0
M  V30 7811 C 783.878 1.55712 0.401283 0
M  V30 7812 O 785.068 1.73085 0.196808 0
M  V30 7813 C 782.2 3.39804 0.273176 0
M  V30 7814 H 783.393 2.66317 -1.37897 0
M  V30 7815 H 780.946 1.37033 -0.751783 0
M  V30 7816 H 781.681 3.02562 1.16733 0
M  V30 7817 H 781.466 3.90303 -0.37498 0
M  V30 7818 H 782.956 4.13443 0.587776 0
M  V30 7819 N 783.393 0.737304 1.3929 0
M  V30 7820 C 784.303 0.100464 2.34385 0
M  V30 7821 C 785.319 -0.719282 1.58437 0
M  V30 7822 O 786.495 -0.647216 1.90717 0
M  V30 7823 C 783.56 -0.794325 3.37478 0
M  V30 7824 C 782.621 0.0379345 4.29283 0
M  V30 7825 C 781.854 -0.814241 5.27452 0
M  V30 7826 O 782.077 -2.05288 5.32177 0
M  V30 7827 O 781.011 -0.241679 6.01415 0
M  V30 7828 H 784.837 0.885407 2.90507 0
M  V30 7829 H 782.422 0.497999 1.40856 0
M  V30 7830 H 784.304 -1.30622 4.00644 0
M  V30 7831 H 782.979 -1.55804 2.83737 0
M  V30 7832 H 781.886 0.595405 3.69331 0
M  V30 7833 H 783.219 0.763926 4.86236 0
M  V30 7834 N 784.871 -1.49948 0.485112 0
M  V30 7835 C 786.287 -1.58984 0.140096 0
M  V30 7836 C 786.487 -1.49194 -1.35438 0
M  V30 7837 O 785.543 -1.35765 -2.12894 0
M  V30 7838 C 786.856 -2.92372 0.702769 0
M  V30 7839 C 788.404 -3.05801 0.66745 0
M  V30 7840 C 788.879 -4.41785 1.20791 0
M  V30 7841 N 790.37 -4.48234 1.16792 0
M  V30 7842 C 791.105 -5.51871 1.55646 0
M  V30 7843 N 790.601 -6.62692 2.02016 0
M  V30 7844 N 792.394 -5.42494 1.47161 0
M  V30 7845 H 784.545 -1.54555 1.45693 0
M  V30 7846 H 786.808 -0.731206 0.603359 0
M  V30 7847 H 786.514 -3.05056 1.75025 0
M  V30 7848 H 786.388 -3.76885 0.154205 0
M  V30 7849 H 788.775 -2.92757 -0.371157 0
M  V30 7850 H 788.856 -2.23011 1.25298 0
M  V30 7851 H 788.5 -4.55579 2.24522 0
M  V30 7852 H 788.43 -5.23188 0.598464 0
M  V30 7853 H 790.921 -3.68718 0.827982 0
M  V30 7854 H 791.234 -7.3785 2.29775 0
M  V30 7855 H 789.579 -6.63775 2.05979 0
M  V30 7856 H 792.77 -4.54806 1.10765 0
M  V30 7857 H 792.943 -6.2314 1.77766 0
M  V30 7858 N 786.349 -0.21828 -1.56081 0
M  V30 7859 C 787.574 0.422302 -2.03055 0
M  V30 7860 C 787.999 1.5279 -1.09713 0
M  V30 7861 O 787.357 1.81102 -0.0847187 0
M  V30 7862 C 787.405 0.934177 -3.48289 0
M  V30 7863 O 786.509 2.04574 -3.58083 0
M  V30 7864 H 785.85 0.0959764 -0.657027 0
M  V30 7865 H 788.38 -0.335958 -2.01823 0
M  V30 7866 H 788.39 1.24484 -3.88546 0
M  V30 7867 H 787.065 0.124963 -4.15712 0
M  V30 7868 H 785.642 1.74196 -3.29712 0
M  V30 7869 N 787.827 1.57504 0.0551401 0
M  V30 7870 C 789.238 1.76626 0.604979 0
M  V30 7871 C 789.589 0.845978 1.77024 0
M  V30 7872 O 788.714 0.0341936 2.16373 0
M  V30 7873 C 789.309 3.203 1.10425 0
M  V30 7874 C 787.868 3.4071 1.59981 0
M  V30 7875 C 787.015 2.72258 0.526414 0
M  V30 7876 H 789.966 1.57775 -0.171072 0
M  V30 7877 H 789.987 3.25377 1.97256 0
M  V30 7878 H 789.499 3.87255 0.255939 0
M  V30 7879 H 787.6 2.78892 2.47083 0
M  V30 7880 H 787.713 4.49227 1.66528 0
M  V30 7881 H 786.077 2.35283 0.97539 0
M  V30 7882 H 786.86 3.41879 -0.311991 0
M  V30 7883 N 789.305 -0.326896 1.54172 0
M  V30 7884 C 790.253 -1.42232 1.84046 0
M  V30 7885 C 791.247 -1.53705 0.712115 0
M  V30 7886 O 792.453 -1.56131 0.895724 0
M  V30 7887 H 788.828 -0.474568 0.583343 0
M  V30 7888 H 790.799 -1.14259 2.75658 0
M  V30 7889 C 789.548 -2.78502 2.08163 0
M  V30 7890 H 788.871 -2.70447 2.94446 0
M  V30 7891 H 790.311 -3.54228 2.33021 0
M  V30 7892 C 788.77 -3.25415 0.872152 0
M  V30 7893 O 789.3 -4.01621 0.0797648 0
M  V30 7894 N 787.506 -2.82418 0.684716 0
M  V30 7895 H 787.053 -2.20566 1.33072 0
M  V30 7896 H 787.011 -3.14159 -0.123031 0
M  V30 7897 N 790.784 -1.46188 -0.588786 0
M  V30 7898 C 791.716 -1.52319 -1.71265 0
M  V30 7899 C 792.729 -0.412096 -1.57498 0
M  V30 7900 O 793.918 -0.680146 -1.65034 0
M  V30 7901 C 791.018 -1.38164 -3.09458 0
M  V30 7902 C 790.191 -2.63284 -3.49286 0
M  V30 7903 C 789.25 -2.43415 -4.66514 0
M  V30 7904 O 788.276 -3.17113 -4.72682 0
M  V30 7905 N 789.478 -1.49187 -5.61002 0
M  V30 7906 H 792.243 -2.49219 -1.66463 0
M  V30 7907 H 789.804 -1.42167 -0.774601 0
M  V30 7908 H 791.796 -1.22653 -3.85666 0
M  V30 7909 H 790.366 -0.494678 -3.08661 0
M  V30 7910 H 789.586 -2.93779 -2.62845 0
M  V30 7911 H 790.874 -3.46413 -3.7266 0
M  V30 7912 H 790.272 -0.884027 -5.5875 0
M  V30 7913 H 788.829 -1.39642 -6.36666 0
M  V30 7914 N 792.262 0.832906 -1.33792 0
M  V30 7915 C 793.51 1.58539 -1.25338 0
M  V30 7916 C 793.831 1.94175 0.179204 0
M  V30 7917 O 793.101 1.61458 1.10941 0
M  V30 7918 H 791.681 0.58784 -0.460926 0
M  V30 7919 H 794.343 0.995064 -1.67584 0
M  V30 7920 H 793.439 2.51268 -1.85123 0
M  V30 7921 N 793.74 1.17359 1.05189 0
M  V30 7922 C 794.687 0.890325 2.12936 0
M  V30 7923 C 795.657 -0.165779 1.65271 0
M  V30 7924 O 796.842 -0.0285672 1.90779 0
M  V30 7925 C 793.982 0.409793 3.42658 0
M  V30 7926 C 793.095 1.53002 4.03998 0
M  V30 7927 C 792.23 1.00336 5.21638 0
M  V30 7928 C 791.269 2.09903 5.74984 0
M  V30 7929 N 790.406 1.58714 6.83926 0
M  V30 7930 H 795.246 1.81299 2.36505 0
M  V30 7931 H 792.783 0.904249 1.16025 0
M  V30 7932 H 794.741 0.112743 4.17048 0
M  V30 7933 H 793.371 -0.475915 3.19272 0
M  V30 7934 H 792.423 1.9428 3.27047 0
M  V30 7935 H 793.735 2.3564 4.39631 0
M  V30 7936 H 792.889 0.660158 6.03098 0
M  V30 7937 H 791.628 0.14642 4.8748 0
M  V30 7938 H 790.633 2.45081 4.92154 0
M  V30 7939 H 791.858 2.96013 6.1119 0
M  V30 7940 H 789.804 0.752915 6.51665 0
M  V30 7941 H 789.721 2.34959 7.18561 0
M  V30 7942 H 790.989 1.27287 7.69037 0
M  V30 7943 N 795.218 -1.23913 0.973828 0
M  V30 7944 C 796.165 -2.25132 0.508366 0
M  V30 7945 C 797.135 -1.59908 -0.449307 0
M  V30 7946 O 798.32 -1.87405 -0.358313 0
M  V30 7947 C 795.46 -3.4458 -0.189422 0
M  V30 7948 C 794.573 -4.24381 0.807738 0
M  V30 7949 C 793.708 -5.31131 0.0854315 0
M  V30 7950 C 792.747 -6.02635 1.07225 0
M  V30 7951 N 791.884 -7.01073 0.379535 0
M  V30 7952 H 796.724 -2.64313 1.37632 0
M  V30 7953 H 794.261 -1.29924 0.689802 0
M  V30 7954 H 796.219 -4.12706 -0.610733 0
M  V30 7955 H 794.849 -3.06218 -1.02129 0
M  V30 7956 H 793.901 -3.55735 1.34747 0
M  V30 7957 H 795.213 -4.73778 1.55998 0
M  V30 7958 H 794.367 -6.05422 -0.393572 0
M  V30 7959 H 793.106 -4.82658 -0.699461 0
M  V30 7960 H 792.111 -5.27143 1.56207 0
M  V30 7961 H 793.336 -6.53197 1.85769 0
M  V30 7962 H 791.282 -6.54862 -0.386269 0
M  V30 7963 H 791.199 -7.48382 1.07054 0
M  V30 7964 H 792.467 -7.79462 -0.0772984 0
M  V30 7965 N 796.696 -0.74468 -1.38897 0
M  V30 7966 C 797.944 -0.296298 -1.99916 0
M  V30 7967 C 798.265 1.12325 -1.59399 0
M  V30 7968 O 797.535 1.76658 -0.846689 0
M  V30 7969 H 796.115 -0.106561 -0.73936 0
M  V30 7970 H 798.777 -0.956793 -1.69798 0
M  V30 7971 H 797.873 -0.352356 -3.10105 0
M  V30 7972 N 798.174 1.49689 -0.493057 0
M  V30 7973 C 799.084 2.32746 0.294358 0
M  V30 7974 C 800.1 1.44117 0.975003 0
M  V30 7975 O 801.276 1.77149 0.958138 0
M  V30 7976 C 798.341 3.19358 1.34949 0
M  V30 7977 C 797.402 4.2383 0.683122 0
M  V30 7978 C 796.635 5.06303 1.68798 0
M  V30 7979 O 796.858 4.90172 2.91698 0
M  V30 7980 O 795.792 5.88826 1.24768 0
M  V30 7981 H 799.618 3.01247 -0.385254 0
M  V30 7982 H 797.203 1.47216 -0.254519 0
M  V30 7983 H 799.085 3.73037 1.96014 0
M  V30 7984 H 797.76 2.53561 2.01217 0
M  V30 7985 H 796.667 3.74086 0.0329351 0
M  V30 7986 H 798 4.9216 0.0630192 0
M  V30 7987 N 799.652 0.226554 1.55963 0
M  V30 7988 C 800.9 -0.402991 1.98041 0
M  V30 7989 C 801.221 -1.59938 1.11557 0
M  V30 7990 O 800.491 -1.9494 0.193719 0
M  V30 7991 H 799.071 -0.15188 0.731397 0
M  V30 7992 H 801.733 0.320613 1.92245 0
M  V30 7993 H 800.829 -0.725937 3.0354 0
M  V30 7994 N 801.13 -1.57531 -0.0467866 0
M  V30 7995 C 802.093 -2.04379 -1.03738 0
M  V30 7996 C 803.093 -0.944881 -1.3011 0
M  V30 7997 O 804.283 -1.20904 -1.25411 0
M  V30 7998 C 801.415 -2.44572 -2.37482 0
M  V30 7999 H 802.608 -2.93142 -0.633063 0
M  V30 8000 H 800.161 -1.53526 -0.293177 0
M  V30 8001 H 800.896 -1.58911 -2.82697 0
M  V30 8002 H 800.681 -3.24785 -2.19675 0
M  V30 8003 H 802.171 -2.81307 -3.08636 0
M  V30 8004 N 802.608 0.318715 -1.54344 0
M  V30 8005 C 804.019 0.89285 -1.63967 0
M  V30 8006 C 804.37 1.88712 -0.536855 0
M  V30 8007 O 803.495 2.13877 0.329457 0
M  V30 8008 C 804.09 1.62618 -2.97222 0
M  V30 8009 C 802.649 2.14897 -3.09025 0
M  V30 8010 C 801.796 0.975909 -2.5956 0
M  V30 8011 H 804.747 0.0961687 -1.58408 0
M  V30 8012 H 804.768 2.4907 -2.87653 0
M  V30 8013 H 804.28 0.902286 -3.77466 0
M  V30 8014 H 802.381 2.90387 -2.33465 0
M  V30 8015 H 802.494 2.39565 -4.14904 0
M  V30 8016 H 800.858 1.35646 -2.15574 0
M  V30 8017 H 801.641 0.266253 -3.42266 0
M  V30 8018 N 804.086 1.46499 0.581025 0
M  V30 8019 C 805.335 1.51162 1.3354 0
M  V30 8020 C 805.648 0.168433 1.94873 0
M  V30 8021 O 806.854 0.092883 2.71341 0
M  V30 8022 C 805.31 2.66362 2.42032 0
M  V30 8023 C 804.918 4.07109 1.86994 0
M  V30 8024 C 806.662 2.80297 3.188 0
M  V30 8025 C 804.569 5.13645 2.93125 0
M  V30 8026 H 803.499 0.562576 0.502021 0
M  V30 8027 H 806.15 1.72713 0.619863 0
M  V30 8028 H 804.532 2.38143 3.16392 0
M  V30 8029 H 805.706 4.45125 1.19166 0
M  V30 8030 H 804.021 3.97854 1.22887 0
M  V30 8031 H 806.618 3.5706 3.9801 0
M  V30 8032 H 806.961 1.87875 3.71495 0
M  V30 8033 H 807.494 3.0817 2.51547 0
M  V30 8034 H 804.233 6.07866 2.45315 0
M  V30 8035 H 803.753 4.80172 3.59437 0
M  V30 8036 H 805.432 5.39562 3.57046 0
M  V30 8037 N 805.565 -0.825799 1.34232 0
M  V30 8038 C 806.497 -1.94401 1.21413 0
M  V30 8039 C 807.51 -1.6218 0.141902 0
M  V30 8040 O 808.699 -1.74109 0.3935 0
M  V30 8041 C 805.799 -3.28257 0.842635 0
M  V30 8042 C 804.972 -3.88521 2.00924 0
M  V30 8043 C 804.031 -5.00752 1.61661 0
M  V30 8044 O 803.057 -5.19201 2.33279 0
M  V30 8045 N 804.259 -5.78084 0.52911 0
M  V30 8046 H 807.024 -2.05931 2.17744 0
M  V30 8047 H 804.585 -1.00223 1.27149 0
M  V30 8048 H 806.577 -4.00781 0.561822 0
M  V30 8049 H 805.147 -3.12585 -0.0304029 0
M  V30 8050 H 804.367 -3.08425 2.45495 0
M  V30 8051 H 805.655 -4.25516 2.78951 0
M  V30 8052 H 805.053 -5.65661 -0.0663322 0
M  V30 8053 H 803.61 -6.51072 0.308017 0
M  V30 8054 N 807.043 -1.17915 -1.04565 0
M  V30 8055 C 808.291 -0.969505 -1.77327 0
M  V30 8056 C 808.612 0.502569 -1.88412 0
M  V30 8057 O 807.882 1.36467 -1.40547 0
M  V30 8058 H 806.462 -0.355723 -0.656864 0
M  V30 8059 H 809.124 -1.48506 -1.26223 0
M  V30 8060 H 808.22 -1.40324 -2.78775 0
M  V30 8061 N 808.521 1.23394 -0.980386 0
M  V30 8062 C 809.468 2.24859 -0.520298 0
M  V30 8063 C 810.438 1.60144 0.440821 0
M  V30 8064 O 811.623 1.87593 0.348369 0
M  V30 8065 C 808.763 3.44675 0.171145 0
M  V30 8066 C 807.876 4.23947 -0.830233 0
M  V30 8067 C 807.011 5.31079 -0.113597 0
M  V30 8068 C 806.05 6.02058 -1.10419 0
M  V30 8069 N 805.187 7.00862 -0.416709 0
M  V30 8070 H 810.027 2.63579 -1.39032 0
M  V30 8071 H 807.564 1.29556 -0.696682 0
M  V30 8072 H 809.522 4.13024 0.588838 0
M  V30 8073 H 808.152 3.06755 1.00504 0
M  V30 8074 H 807.204 3.55016 -1.36631 0
M  V30 8075 H 808.516 4.72945 -1.58508 0
M  V30 8076 H 807.67 6.05622 0.36146 0
M  V30 8077 H 806.409 4.83022 0.673854 0
M  V30 8078 H 805.414 5.26307 -1.59 0
M  V30 8079 H 806.639 6.52203 -1.8923 0
M  V30 8080 H 804.585 6.55057 0.351535 0
M  V30 8081 H 804.502 7.47804 -1.11021 0
M  V30 8082 H 805.77 7.79492 0.0359606 0
M  V30 8083 N 809.999 0.752036 1.385 0
M  V30 8084 C 810.946 0.123288 2.3047 0
M  V30 8085 C 811.916 -0.711326 1.50098 0
M  V30 8086 O 813.101 -0.667775 1.78733 0
M  V30 8087 C 810.241 -0.765085 3.36512 0
M  V30 8088 C 809.354 0.0839885 4.31918 0
M  V30 8089 C 808.489 -0.807243 5.25031 0
M  V30 8090 C 807.528 0.0455583 6.12083 0
M  V30 8091 N 806.665 -0.802547 6.97498 0
M  V30 8092 H 811.505 0.913169 2.83664 0
M  V30 8093 H 809.042 0.46195 1.39658 0
M  V30 8094 H 811 -1.29476 3.966 0
M  V30 8095 H 809.63 -1.52077 2.84732 0
M  V30 8096 H 808.682 0.731276 3.73305 0
M  V30 8097 H 809.994 0.74265 4.9324 0
M  V30 8098 H 809.148 -1.40414 5.90228 0
M  V30 8099 H 807.887 -1.49964 4.64071 0
M  V30 8100 H 806.892 0.655137 5.45883 0
M  V30 8101 H 808.117 0.734994 6.75111 0
M  V30 8102 H 806.063 -1.47992 6.39089 0
M  V30 8103 H 805.98 -0.200747 7.55733 0
M  V30 8104 H 807.248 -1.38447 7.67107 0
M  V30 8105 N 811.477 -1.49425 0.500989 0
M  V30 8106 C 812.44 -2.27646 -0.266416 0
M  V30 8107 C 813.44 -1.3366 -0.893961 0
M  V30 8108 O 814.63 -1.5682 -0.758495 0
M  V30 8109 C 811.762 -3.11618 -1.38227 0
M  V30 8110 H 812.955 -2.96945 0.419973 0
M  V30 8111 H 810.508 -1.5419 0.255954 0
M  V30 8112 H 811.243 -2.46885 -2.10281 0
M  V30 8113 H 811.028 -3.80721 -0.937746 0
M  V30 8114 H 812.518 -3.70698 -1.92283 0
M  V30 8115 N 812.955 -0.234822 -1.55841 0
M  V30 8116 C 814.232 0.442961 -1.90518 0
M  V30 8117 C 814.612 1.76768 -1.15397 0
M  V30 8118 O 813.96 2.26928 -0.267534 0
M  V30 8119 C 814.17 0.622905 -3.43396 0
M  V30 8120 C 815.518 0.9243 -4.14417 0
M  V30 8121 O 816.542 0.709211 -3.49068 0
M  V30 8122 O 815.401 1.33323 -5.29988 0
M  V30 8123 H 812.495 0.236042 -0.792599 0
M  V30 8124 H 815.041 -0.277992 -1.67408 0
M  V30 8125 H 813.813 -0.310973 -3.90062 0
M  V30 8126 H 813.436 1.39485 -3.7233 0
M  V30 8127 N 814.433 1.57553 0.0384317 0
M  V30 8128 C 815.658 1.93485 0.746872 0
M  V30 8129 C 816.083 0.834069 1.68597 0
M  V30 8130 O 815.441 -0.210902 1.80069 0
M  V30 8131 C 815.489 3.28463 1.4881 0
M  V30 8132 O 814.593 3.20051 2.60079 0
M  V30 8133 H 813.934 0.632675 0.201539 0
M  V30 8134 H 816.464 2.046 -0.00329815 0
M  V30 8135 H 816.474 3.63132 1.86009 0
M  V30 8136 H 815.149 4.08147 0.799297 0
M  V30 8137 H 813.726 2.96998 2.25492 0
M  V30 8138 N 815.911 -0.310526 1.54511 0
M  V30 8139 C 817.157 -1.04846 1.73595 0
M  V30 8140 C 817.49 -1.87244 0.515118 0
M  V30 8141 O 816.765 -1.88282 -0.48786 0
M  V30 8142 C 817.048 -1.96237 3.01932 0
M  V30 8143 C 816.901 -1.17082 4.34295 0
M  V30 8144 C 818.22 -2.9556 3.26086 0
M  V30 8145 H 815.339 -0.37976 0.631626 0
M  V30 8146 H 817.981 -0.32394 1.87218 0
M  V30 8147 H 816.131 -2.58015 2.90449 0
M  V30 8148 H 817.803 -0.576643 4.57682 0
M  V30 8149 H 816.046 -0.473336 4.3121 0
M  V30 8150 H 816.717 -1.84257 5.20339 0
M  V30 8151 H 819.193 -2.43908 3.37117 0
M  V30 8152 H 818.069 -3.5668 4.17218 0
M  V30 8153 H 818.33 -3.68715 2.4393 0
M  V30 8154 N 817.389 -1.46805 -0.573248 0
M  V30 8155 C 818.352 -1.57655 -1.66366 0
M  V30 8156 C 819.352 -0.452905 -1.5429 0
M  V30 8157 O 820.542 -0.717502 -1.58737 0
M  V30 8158 C 817.674 -1.50584 -3.05839 0
M  V30 8159 H 818.867 -2.54842 -1.581 0
M  V30 8160 H 816.42 -1.34756 -0.791868 0
M  V30 8161 H 817.155 -0.547127 -3.19651 0
M  V30 8162 H 816.94 -2.32118 -3.16012 0
M  V30 8163 H 818.43 -1.61282 -3.85199 0
M  V30 8164 N 818.867 0.818669 -1.34668 0
M  V30 8165 C 819.815 1.95123 -1.26609 0
M  V30 8166 C 820.809 1.68611 -0.163348 0
M  V30 8167 O 822.015 1.76975 -0.328586 0
M  V30 8168 H 818.39 0.640871 -0.393431 0
M  V30 8169 H 820.361 1.99043 -2.22316 0
M  V30 8170 C 819.11 3.31697 -1.04272 0
M  V30 8171 H 818.433 3.52648 -1.8836 0
M  V30 8172 H 819.873 4.11382 -1.0267 0
M  V30 8173 C 818.332 3.35942 0.253858 0
M  V30 8174 O 818.862 3.81632 1.25378 0
M  V30 8175 N 817.068 2.89165 0.288447 0
M  V30 8176 H 816.615 2.52176 -0.525845 0
M  V30 8177 H 816.573 2.92387 1.15572 0
M  V30 8178 N 820.346 1.18468 1.03938 0
M  V30 8179 C 821.278 0.870615 2.12021 0
M  V30 8180 C 822.291 -0.132318 1.62261 0
M  V30 8181 O 823.48 0.0956901 1.78243 0
M  V30 8182 C 820.58 0.279727 3.37744 0
M  V30 8183 C 819.753 1.32863 4.16733 0
M  V30 8184 C 818.812 0.753204 5.20781 0
M  V30 8185 O 817.838 1.42825 5.5099 0
M  V30 8186 N 819.04 -0.448664 5.78764 0
M  V30 8187 H 821.805 1.80091 2.39556 0
M  V30 8188 H 819.366 1.08524 1.20142 0
M  V30 8189 H 821.358 -0.118829 4.04526 0
M  V30 8190 H 819.928 -0.554621 3.07641 0
M  V30 8191 H 819.148 1.90245 3.45254 0
M  V30 8192 H 820.436 2.03574 4.66299 0
M  V30 8193 H 819.834 -1.01481 5.56523 0
M  V30 8194 H 818.391 -0.789125 6.47005 0
M  V30 8195 N 821.824 -1.22873 0.986916 0
M  V30 8196 C 823.072 -1.91084 0.658121 0
M  V30 8197 C 823.393 -1.77304 -0.811675 0
M  V30 8198 O 822.663 -1.15649 -1.58121 0
M  V30 8199 H 821.243 -0.707251 0.240427 0
M  V30 8200 H 823.905 -1.49357 1.25213 0
M  V30 8201 H 823.001 -2.98373 0.915428 0
M  V30 8202 N 823.302 -0.75937 -1.38099 0
M  V30 8203 C 824.53 -0.329111 -2.04266 0
M  V30 8204 C 824.945 1.04453 -1.57274 0
M  V30 8205 O 824.302 1.66449 -0.748397 0
M  V30 8206 C 824.353 -0.349192 -3.5981 0
M  V30 8207 O 824.074 -1.66863 -4.05078 0
M  V30 8208 C 825.575 0.0942106 -4.432 0
M  V30 8209 H 822.795 -0.13971 -0.656294 0
M  V30 8210 H 825.339 -1.02984 -1.76677 0
M  V30 8211 H 823.494 0.302846 -3.86214 0
M  V30 8212 H 823.908 -1.59877 -4.9954 0
M  V30 8213 H 825.382 0.0290004 -5.51992 0
M  V30 8214 H 825.859 1.1429 -4.24069 0
M  V30 8215 H 826.465 -0.529171 -4.21995 0
M  V30 8216 N 824.78 1.49157 -0.508906 0
M  V30 8217 C 825.727 2.2927 0.265288 0
M  V30 8218 C 826.697 1.3603 0.953162 0
M  V30 8219 O 827.882 1.64989 0.958291 0
M  V30 8220 C 825.022 3.18897 1.31904 0
M  V30 8221 C 824.135 4.27201 0.642144 0
M  V30 8222 C 823.27 5.04033 1.67701 0
M  V30 8223 C 822.309 6.04165 0.982422 0
M  V30 8224 N 821.446 6.74133 1.96186 0
M  V30 8225 H 826.286 2.94967 -0.424107 0
M  V30 8226 H 823.823 1.45431 -0.220991 0
M  V30 8227 H 825.781 3.69242 1.94206 0
M  V30 8228 H 824.411 2.55168 1.97709 0
M  V30 8229 H 823.463 3.80283 -0.0943395 0
M  V30 8230 H 824.775 4.98708 0.0957507 0
M  V30 8231 H 823.929 5.58287 2.37487 0
M  V30 8232 H 822.668 4.32317 2.25728 0
M  V30 8233 H 821.673 5.49135 0.270378 0
M  V30 8234 H 822.898 6.7787 0.408554 0
M  V30 8235 H 820.844 6.05183 2.53159 0
M  V30 8236 H 820.761 7.41643 1.46634 0
M  V30 8237 H 822.029 7.32987 2.65236 0
M  V30 8238 N 826.258 0.243083 1.55714 0
M  V30 8239 C 827.504 -0.383287 1.99145 0
M  V30 8240 C 827.837 -1.57868 1.13098 0
M  V30 8241 O 827.112 -1.93535 0.193509 0
M  V30 8242 C 827.395 -0.796879 3.51172 0
M  V30 8243 C 827.248 0.403642 4.47985 0
M  V30 8244 C 828.567 -1.64525 4.08191 0
M  V30 8245 H 825.686 -0.137843 0.723995 0
M  V30 8246 H 828.328 0.343631 1.86867 0
M  V30 8247 H 826.478 -1.41625 3.61766 0
M  V30 8248 H 828.15 1.04204 4.49376 0
M  V30 8249 H 826.393 1.04741 4.20965 0
M  V30 8250 H 827.064 0.0709794 5.51954 0
M  V30 8251 H 829.54 -1.12246 4.00674 0
M  V30 8252 H 828.416 -1.9035 5.14838 0
M  V30 8253 H 828.677 -2.61582 3.56409 0
M  V30 8254 N 827.736 -1.57571 -0.0300757 0
M  V30 8255 C 828.646 -2.09892 -1.04798 0
M  V30 8256 C 829.662 -1.03732 -1.39698 0
M  V30 8257 O 830.838 -1.35461 -1.49038 0
M  V30 8258 C 827.903 -2.56707 -2.33028 0
M  V30 8259 C 826.964 -3.77345 -2.04718 0
M  V30 8260 C 826.197 -4.21918 -3.26834 0
M  V30 8261 O 826.42 -3.66025 -4.37472 0
M  V30 8262 O 825.354 -5.14362 -3.12594 0
M  V30 8263 H 829.18 -2.97023 -0.633344 0
M  V30 8264 H 826.765 -1.47344 -0.246991 0
M  V30 8265 H 828.647 -2.87154 -3.08417 0
M  V30 8266 H 827.322 -1.72688 -2.73789 0
M  V30 8267 H 826.229 -3.51919 -1.26901 0
M  V30 8268 H 827.562 -4.62345 -1.68813 0
M  V30 8269 N 829.214 0.302327 -1.54673 0
M  V30 8270 C 830.462 1.03565 -1.73547 0
M  V30 8271 C 830.783 1.87843 -0.523448 0
M  V30 8272 O 830.053 1.90367 0.462295 0
M  V30 8273 H 828.633 0.385358 -0.639928 0
M  V30 8274 H 831.295 0.333632 -1.92023 0
M  V30 8275 H 830.391 1.68952 -2.62415 0
M  V30 8276 N 830.692 1.47107 0.565454 0
M  V30 8277 C 831.941 1.5257 1.31929 0
M  V30 8278 C 832.254 0.189092 1.94684 0
M  V30 8279 O 833.46 0.121657 2.71227 0
M  V30 8280 C 831.916 2.68914 2.39193 0
M  V30 8281 C 831.524 4.09069 1.82665 0
M  V30 8282 C 833.268 2.83663 3.1581 0
M  V30 8283 C 831.175 5.16726 2.87661 0
M  V30 8284 H 830.105 0.567869 0.496025 0
M  V30 8285 H 832.756 1.73361 0.60151 0
M  V30 8286 H 831.138 2.41486 3.13848 0
M  V30 8287 H 832.312 4.46364 1.14438 0
M  V30 8288 H 830.627 3.99135 1.1866 0
M  V30 8289 H 833.224 3.61261 3.94201 0
M  V30 8290 H 833.567 1.91804 3.69482 0
M  V30 8291 H 834.1 3.10821 2.48265 0
M  V30 8292 H 830.839 6.10433 2.38854 0
M  V30 8293 H 830.359 4.83957 3.54324 0
M  V30 8294 H 832.038 5.43319 3.51303 0
M  V30 8295 N 832.17 -0.811516 1.35101 0
M  V30 8296 C 833.398 -1.59981 1.31201 0
M  V30 8297 C 833.813 -1.8847 -0.111552 0
M  V30 8298 O 833.17 -1.48414 -1.06205 0
M  V30 8299 C 833.221 -2.934 2.11184 0
M  V30 8300 O 832.942 -2.66148 3.4799 0
M  V30 8301 C 834.443 -3.87776 2.14813 0
M  V30 8302 H 831.663 -0.496921 0.450899 0
M  V30 8303 H 834.207 -1.00886 1.77883 0
M  V30 8304 H 832.362 -3.49022 1.68115 0
M  V30 8305 H 832.776 -3.51301 3.89471 0
M  V30 8306 H 834.25 -4.7852 2.75178 0
M  V30 8307 H 834.727 -4.23997 1.14556 0
M  V30 8308 H 835.333 -3.3809 2.58022 0
M  V30 8309 N 833.648 -1.19017 -1.03309 0
M  V30 8310 C 834.596 -0.920627 -2.13605 0
M  V30 8311 C 835.59 0.121969 -1.6896 0
M  V30 8312 O 836.796 -0.0268854 -1.7998 0
M  V30 8313 H 833.171 -0.280284 -0.697814 0
M  V30 8314 H 835.142 -1.85755 -2.33533 0
M  V30 8315 C 833.891 -0.471198 -3.44492 0
M  V30 8316 H 833.214 -1.26499 -3.7926 0
M  V30 8317 H 834.654 -0.321663 -4.22778 0
M  V30 8318 C 833.113 0.81411 -3.26916 0
M  V30 8319 O 833.643 1.87654 -3.55175 0
M  V30 8320 N 831.849 0.769695 -2.80221 0
M  V30 8321 H 831.396 -0.0951278 -2.57424 0
M  V30 8322 H 831.354 1.63008 -2.68842 0
M  V30 8323 N 835.127 1.22348 -0.993418 0
M  V30 8324 C 836.059 2.23626 -0.502404 0
M  V30 8325 C 837.072 1.57739 0.402784 0
M  V30 8326 O 838.261 1.77321 0.204835 0
M  V30 8327 C 835.361 3.37647 0.291118 0
M  V30 8328 C 834.534 4.33121 -0.610332 0
M  V30 8329 C 833.593 5.26035 0.131572 0
M  V30 8330 O 832.619 5.67145 -0.483199 0
M  V30 8331 N 833.821 5.63023 1.41371 0
M  V30 8332 H 836.586 2.66385 -1.37329 0
M  V30 8333 H 834.147 1.36653 -0.868196 0
M  V30 8334 H 836.139 3.96792 0.796107 0
M  V30 8335 H 834.709 2.93967 1.0631 0
M  V30 8336 H 833.929 3.72287 -1.29598 0
M  V30 8337 H 835.217 4.93853 -1.22422 0
M  V30 8338 H 834.615 5.31596 1.93449 0
M  V30 8339 H 833.172 6.24582 1.86388 0
M  V30 8340 N 836.605 0.766683 1.37694 0
M  V30 8341 C 837.853 0.328065 1.9942 0
M  V30 8342 C 838.174 -1.09775 1.61166 0
M  V30 8343 O 837.444 -1.75288 0.874686 0
M  V30 8344 H 836.024 0.11831 0.737572 0
M  V30 8345 H 838.686 0.983686 1.68255 0
M  V30 8346 H 837.782 0.401647 3.09505 0
M  V30 8347 N 838.083 -1.48885 0.516809 0
M  V30 8348 C 839.03 -2.29408 -0.253125 0
M  V30 8349 C 840 -1.36533 -0.945935 0
M  V30 8350 O 841.185 -1.65495 -0.949527 0
M  V30 8351 C 838.325 -3.19592 -1.30211 0
M  V30 8352 C 837.438 -4.27535 -0.61948 0
M  V30 8353 C 836.573 -5.04916 -1.65026 0
M  V30 8354 C 835.612 -6.04677 -0.950368 0
M  V30 8355 N 834.749 -6.75164 -1.92608 0
M  V30 8356 H 839.589 -2.94738 0.439744 0
M  V30 8357 H 837.126 -1.45311 0.2287 0
M  V30 8358 H 839.084 -3.70267 -1.92245 0
M  V30 8359 H 837.714 -2.56213 -1.96353 0
M  V30 8360 H 836.766 -3.80228 0.114505 0
M  V30 8361 H 838.078 -4.98752 -0.0693016 0
M  V30 8362 H 837.232 -5.59539 -2.34523 0
M  V30 8363 H 835.971 -4.33508 -2.23432 0
M  V30 8364 H 834.976 -5.4927 -0.241252 0
M  V30 8365 H 836.201 -6.78077 -0.372599 0
M  V30 8366 H 834.147 -6.06517 -2.49946 0
M  V30 8367 H 834.064 -7.4241 -1.42699 0
M  V30 8368 H 835.332 -7.34384 -2.61345 0
M  V30 8369 N 839.561 -0.251338 -1.55583 0
M  V30 8370 C 840.508 0.646337 -2.21565 0
M  V30 8371 C 841.478 1.16796 -1.18102 0
M  V30 8372 O 842.663 1.22162 -1.46564 0
M  V30 8373 C 839.803 1.83557 -2.92234 0
M  V30 8374 C 838.916 1.35006 -4.10363 0
M  V30 8375 C 838.051 2.4992 -4.68736 0
M  V30 8376 C 837.09 1.98253 -5.79105 0
M  V30 8377 N 836.227 3.06551 -6.31642 0
M  V30 8378 H 841.067 0.0769881 -2.97901 0
M  V30 8379 H 838.604 0.026238 -1.47077 0
M  V30 8380 H 840.562 2.53425 -3.31408 0
M  V30 8381 H 839.192 2.37733 -2.18364 0
M  V30 8382 H 838.244 0.545274 -3.76472 0
M  V30 8383 H 839.556 0.931435 -4.90026 0
M  V30 8384 H 838.71 3.27823 -5.10507 0
M  V30 8385 H 837.449 2.95086 -3.88298 0
M  V30 8386 H 836.454 1.18822 -5.36807 0
M  V30 8387 H 837.679 1.54051 -6.61396 0
M  V30 8388 H 835.625 3.51143 -5.54107 0
M  V30 8389 H 835.542 2.69033 -7.06511 0
M  V30 8390 H 836.81 3.84499 -6.78071 0
M  V30 8391 N 841.039 1.57585 0.0217189 0
M  V30 8392 C 842.002 2.06004 1.00474 0
M  V30 8393 C 843.002 0.965461 1.2859 0
M  V30 8394 O 844.192 1.22884 1.23471 0
M  V30 8395 C 841.324 2.48319 2.33561 0
M  V30 8396 H 842.517 2.94112 0.586346 0
M  V30 8397 H 840.07 1.53973 0.268716 0
M  V30 8398 H 840.805 1.63389 2.80133 0
M  V30 8399 H 840.59 3.28239 2.1448 0
M  V30 8400 H 842.08 2.86181 3.04122 0
M  V30 8401 N 842.517 -0.29412 1.54831 0
M  V30 8402 C 843.427 -1.3854 1.89325 0
M  V30 8403 C 844.443 -1.55127 0.788133 0
M  V30 8404 O 845.619 -1.6966 1.08524 0
M  V30 8405 C 842.684 -2.72809 2.13954 0
M  V30 8406 C 841.745 -2.65148 3.37631 0
M  V30 8407 C 840.978 -3.93014 3.61076 0
M  V30 8408 O 841.201 -4.927 2.87406 0
M  V30 8409 O 840.135 -3.94491 4.54599 0
M  V30 8410 H 843.961 -1.12289 2.82179 0
M  V30 8411 H 841.546 -0.490793 1.41108 0
M  V30 8412 H 843.428 -3.52238 2.31315 0
M  V30 8413 H 842.103 -2.9889 1.24285 0
M  V30 8414 H 841.01 -1.84168 3.25627 0
M  V30 8415 H 842.343 -2.4402 4.27452 0
M  V30 8416 N 843.995 -1.47404 -0.557645 0
M  V30 8417 C 845.243 -1.53703 -1.31224 0
M  V30 8418 C 845.564 -0.200742 -1.93964 0
M  V30 8419 O 844.834 0.775253 -1.79907 0
M  V30 8420 H 843.414 -0.566171 -0.487299 0
M  V30 8421 H 846.076 -1.83699 -0.651195 0
M  V30 8422 H 845.172 -2.30335 -2.10599 0
M  V30 8423 N 845.473 0.80434 -1.35529 0
M  V30 8424 C 846.698 1.598 -1.32207 0
M  V30 8425 C 847.123 1.87848 0.0974226 0
M  V30 8426 O 846.481 1.46728 1.06492 0
M  V30 8427 C 846.529 2.90483 -2.13663 0
M  V30 8428 O 845.633 3.83411 -1.51888 0
M  V30 8429 H 844.974 0.485305 -0.453183 0
M  V30 8430 H 847.504 0.998119 -1.78602 0
M  V30 8431 H 847.514 3.39888 -2.257 0
M  V30 8432 H 846.189 2.69395 -3.16859 0
M  V30 8433 H 844.766 3.41967 -1.48704 0
M  V30 8434 N 846.951 1.19563 1.02676 0
M  V30 8435 C 848.362 1.00158 1.57561 0
M  V30 8436 C 848.713 -0.444922 1.91089 0
M  V30 8437 O 847.838 -1.32466 1.71119 0
M  V30 8438 C 848.433 1.81181 2.86284 0
M  V30 8439 C 846.992 1.66171 3.37734 0
M  V30 8440 C 846.139 1.7975 2.11152 0
M  V30 8441 H 849.09 1.33904 0.85179 0
M  V30 8442 H 849.111 1.30916 3.57269 0
M  V30 8443 H 848.623 2.86454 2.6185 0
M  V30 8444 H 846.724 0.634927 3.6715 0
M  V30 8445 H 846.837 2.46832 4.10622 0
M  V30 8446 H 845.201 1.22833 2.23123 0
M  V30 8447 H 845.984 2.86487 1.89157 0
M  V30 8448 N 848.429 -1.21819 0.999893 0
M  V30 8449 C 849.654 -1.95298 0.698094 0
M  V30 8450 C 850.079 -1.73273 -0.731982 0
M  V30 8451 O 849.437 -1.01634 -1.50134 0
M  V30 8452 C 849.485 -3.45922 1.01834 0
M  V30 8453 O 848.589 -4.12223 0.120801 0
M  V30 8454 H 847.93 -0.610729 0.260588 0
M  V30 8455 H 850.46 -1.5472 1.33876 0
M  V30 8456 H 850.47 -3.96471 0.963074 0
M  V30 8457 H 849.145 -3.61278 2.06037 0
M  V30 8458 H 847.722 -3.72177 0.232153 0
M  V30 8459 N 849.908 -0.773975 -1.37286 0
M  V30 8460 C 850.818 -0.162571 -2.34036 0
M  V30 8461 C 851.834 0.677022 -1.60289 0
M  V30 8462 O 853.01 0.596423 -1.92366 0
M  V30 8463 C 850.075 0.70457 -3.39465 0
M  V30 8464 C 849.136 -0.151738 -4.29032 0
M  V30 8465 C 848.369 0.674111 -5.29426 0
M  V30 8466 O 848.592 1.91107 -5.37433 0
M  V30 8467 O 847.526 0.0821398 -6.01844 0
M  V30 8468 H 851.352 -0.962119 -2.88057 0
M  V30 8469 H 848.937 -0.53517 -1.39486 0
M  V30 8470 H 850.819 1.19954 -4.03967 0
M  V30 8471 H 849.494 1.48227 -2.87768 0
M  V30 8472 H 848.401 -0.693118 -3.67623 0
M  V30 8473 H 849.734 -0.892575 -4.84039 0
M  V30 8474 N 851.386 1.48609 -0.524698 0
M  V30 8475 C 852.634 2.02097 0.0112991 0
M  V30 8476 C 852.955 1.40455 1.35268 0
M  V30 8477 O 852.225 0.56807 1.87483 0
M  V30 8478 H 850.805 0.746966 0.00716426 0
M  V30 8479 H 853.467 1.82378 -0.687329 0
M  V30 8480 H 852.563 3.11855 0.123531 0
M  V30 8481 N 852.864 0.259585 1.55447 0
M  V30 8482 C 853.811 -0.634578 2.21905 0
M  V30 8483 C 854.781 -1.16168 1.18719 0
M  V30 8484 O 855.966 -1.21383 1.4721 0
M  V30 8485 C 853.106 -1.82005 2.93203 0
M  V30 8486 C 852.219 -1.32828 4.11073 0
M  V30 8487 C 851.354 -2.47431 4.70055 0
M  V30 8488 C 850.393 -1.95179 5.80148 0
M  V30 8489 N 849.53 -3.03197 6.33258 0
M  V30 8490 H 854.37 -0.0611886 2.97937 0
M  V30 8491 H 851.907 -0.0184378 1.47088 0
M  V30 8492 H 853.865 -2.51664 3.32748 0
M  V30 8493 H 852.495 -2.36571 2.19622 0
M  V30 8494 H 851.547 -0.525301 3.76756 0
M  V30 8495 H 852.859 -0.905435 4.90513 0
M  V30 8496 H 852.013 -3.25111 5.12238 0
M  V30 8497 H 850.752 -2.93023 3.89857 0
M  V30 8498 H 849.757 -1.15974 5.37429 0
M  V30 8499 H 850.982 -1.50541 6.62204 0
M  V30 8500 H 848.928 -3.48199 5.55961 0
M  V30 8501 H 848.845 -2.65282 7.07928 0
M  V30 8502 H 850.113 -3.80898 6.80101 0
M  V30 8503 N 854.342 -1.57594 -0.0133615 0
M  V30 8504 C 855.289 -2.07574 -1.00905 0
M  V30 8505 C 856.259 -0.968231 -1.34961 0
M  V30 8506 O 857.444 -1.23981 -1.45028 0
M  V30 8507 C 854.584 -2.5728 -2.30002 0
M  V30 8508 C 853.697 -3.81881 -2.01967 0
M  V30 8509 C 852.832 -4.20139 -3.25049 0
M  V30 8510 C 851.871 -5.37614 -2.92639 0
M  V30 8511 N 851.008 -5.71229 -4.08218 0
M  V30 8512 H 855.848 -2.92382 -0.575899 0
M  V30 8513 H 853.385 -1.4455 -0.272722 0
M  V30 8514 H 855.343 -2.84171 -3.05454 0
M  V30 8515 H 853.973 -1.75365 -2.71011 0
M  V30 8516 H 853.025 -3.61979 -1.16942 0
M  V30 8517 H 854.337 -4.67441 -1.74069 0
M  V30 8518 H 853.491 -4.48242 -4.08857 0
M  V30 8519 H 852.23 -3.33262 -3.56073 0
M  V30 8520 H 851.235 -5.09248 -2.07235 0
M  V30 8521 H 852.46 -6.26157 -2.62876 0
M  V30 8522 H 850.406 -4.8731 -4.39164 0
M  V30 8523 H 850.323 -6.51333 -3.83799 0
M  V30 8524 H 851.591 -6.03917 -4.92854 0
M  V30 8525 N 855.82 0.285905 -1.54985 0
M  V30 8526 C 856.783 1.33625 -1.86218 0
M  V30 8527 C 857.783 1.42971 -0.735936 0
M  V30 8528 O 858.973 1.42345 -1.00417 0
M  V30 8529 C 856.105 2.71926 -2.05595 0
M  V30 8530 H 857.298 1.07167 -2.80099 0
M  V30 8531 H 854.851 0.523335 -1.47278 0
M  V30 8532 H 855.586 3.03583 -1.14053 0
M  V30 8533 H 855.371 2.6653 -2.87583 0
M  V30 8534 H 856.861 3.47841 -2.31077 0
M  V30 8535 N 857.298 1.47698 0.54982 0
M  V30 8536 C 858.208 1.63386 1.68351 0
M  V30 8537 C 859.224 0.516583 1.66155 0
M  V30 8538 O 860.4 0.785088 1.85468 0
M  V30 8539 C 857.465 1.6513 3.04849 0
M  V30 8540 C 856.526 2.88338 3.18056 0
M  V30 8541 C 855.759 2.8999 4.48042 0
M  V30 8542 O 855.982 2.00633 5.3395 0
M  V30 8543 O 854.916 3.81938 4.65196 0
M  V30 8544 H 858.742 2.59329 1.58057 0
M  V30 8545 H 856.327 1.30869 0.72067 0
M  V30 8546 H 858.209 1.68913 3.86065 0
M  V30 8547 H 856.884 0.723555 3.1551 0
M  V30 8548 H 855.791 2.90097 2.36209 0
M  V30 8549 H 857.124 3.80431 3.12302 0
M  V30 8550 N 858.776 -0.797141 1.35954 0
M  V30 8551 C 860.024 -1.55161 1.29497 0
M  V30 8552 C 860.345 -1.94582 -0.127659 0
M  V30 8553 O 859.615 -1.64343 -1.06622 0
M  V30 8554 H 858.195 -0.575413 0.47635 0
M  V30 8555 H 860.857 -0.950282 1.70164 0
M  V30 8556 H 859.953 -2.46272 1.9172 0
M  V30 8557 N 860.254 -1.20106 -1.0204 0
M  V30 8558 C 861.479 -1.0351 -1.79723 0
M  V30 8559 C 861.904 0.411328 -1.83548 0
M  V30 8560 O 861.262 1.29608 -1.26773 0
M  V30 8561 C 861.31 -1.61876 -3.22224 0
M  V30 8562 O 860.414 -0.853813 -4.03465 0
M  V30 8563 H 859.755 -0.365299 -0.554484 0
M  V30 8564 H 862.285 -1.59316 -1.28373 0
M  V30 8565 H 862.295 -1.65451 -3.72948 0
M  V30 8566 H 860.97 -2.67148 -3.18755 0
M  V30 8567 H 859.547 -0.891983 -3.62075 0
M  V30 8568 N 861.732 1.21287 -1.00634 0
M  V30 8569 C 863.143 1.72136 -0.722914 0
M  V30 8570 C 863.494 1.8091 0.759338 0
M  V30 8571 O 862.619 1.46458 1.59308 0
M  V30 8572 C 863.214 3.12633 -1.30561 0
M  V30 8573 C 861.773 3.60833 -1.07127 0
M  V30 8574 C 860.92 2.38326 -1.4176 0
M  V30 8575 H 863.871 1.06445 -1.17708 0
M  V30 8576 H 863.892 3.74174 -0.690937 0
M  V30 8577 H 863.404 3.06215 -2.38441 0
M  V30 8578 H 861.505 3.72599 -0.00968671 0
M  V30 8579 H 861.618 4.46226 -1.74411 0
M  V30 8580 H 859.982 2.40575 -0.836412 0
M  V30 8581 H 860.765 2.34558 -2.50674 0
M  V30 8582 N 863.21 0.781244 1.36873 0
M  V30 8583 C 864.158 0.161889 2.32036 0
M  V30 8584 C 865.152 -0.674225 1.55405 0
M  V30 8585 O 866.358 -0.570223 1.70729 0
M  V30 8586 H 862.733 0.0335702 0.75125 0
M  V30 8587 H 864.704 0.980078 2.81846 0
M  V30 8588 C 863.453 -0.695352 3.40676 0
M  V30 8589 H 862.776 -0.0613425 3.99753 0
M  V30 8590 H 864.216 -1.09553 4.09602 0
M  V30 8591 C 862.675 -1.85008 2.81556 0
M  V30 8592 O 863.205 -2.94616 2.73065 0
M  V30 8593 N 861.411 -1.65364 2.38962 0
M  V30 8594 H 860.958 -0.762106 2.46068 0
M  V30 8595 H 860.916 -2.42789 1.99752 0
M  V30 8596 N 864.689 -1.48329 0.532571 0
M  V30 8597 C 865.621 -2.27652 -0.265931 0
M  V30 8598 C 866.634 -1.35522 -0.902083 0
M  V30 8599 O 867.823 -1.60552 -0.780088 0
M  V30 8600 C 864.923 -3.0899 -1.39207 0
M  V30 8601 C 864.096 -4.28915 -0.857349 0
M  V30 8602 C 863.155 -4.92044 -1.86493 0
M  V30 8603 O 862.181 -5.51181 -1.42084 0
M  V30 8604 N 863.383 -4.84518 -3.19723 0
M  V30 8605 H 866.148 -2.96821 0.414389 0
M  V30 8606 H 863.709 -1.57684 0.367066 0
M  V30 8607 H 865.701 -3.48091 -2.06433 0
M  V30 8608 H 864.271 -2.42224 -1.97601 0
M  V30 8609 H 863.491 -3.94199 -0.00901765 0
M  V30 8610 H 864.779 -5.0654 -0.479025 0
M  V30 8611 H 864.177 -4.37628 -3.58467 0
M  V30 8612 H 862.734 -5.27712 -3.82575 0
M  V30 8613 N 866.167 -0.267825 -1.55308 0
M  V30 8614 C 867.415 0.350343 -1.9904 0
M  V30 8615 C 867.736 1.56924 -1.15758 0
M  V30 8616 O 867.006 1.94358 -0.245336 0
M  V30 8617 H 865.586 0.132435 -0.735167 0
M  V30 8618 H 868.248 -0.371471 -1.91327 0
M  V30 8619 H 867.344 0.645203 -3.05358 0
M  V30 8620 N 867.645 1.57599 0.00500368 0
M  V30 8621 C 868.592 2.08106 0.998025 0
M  V30 8622 C 869.562 0.975374 1.34446 0
M  V30 8623 O 870.747 1.24749 1.44369 0
M  V30 8624 C 867.887 2.58496 2.28635 0
M  V30 8625 C 867 3.82947 1.99939 0
M  V30 8626 C 866.135 4.21857 3.22816 0
M  V30 8627 C 865.174 5.39159 2.89783 0
M  V30 8628 N 864.311 5.73386 4.05183 0
M  V30 8629 H 869.151 2.92684 0.560385 0
M  V30 8630 H 866.688 1.44692 0.265053 0
M  V30 8631 H 868.646 2.85787 3.03943 0
M  V30 8632 H 867.276 1.768 2.70077 0
M  V30 8633 H 866.328 3.62594 1.1502 0
M  V30 8634 H 867.64 4.68358 1.71588 0
M  V30 8635 H 866.794 4.50404 4.06474 0
M  V30 8636 H 865.533 3.35145 3.54301 0
M  V30 8637 H 864.538 5.1034 2.04532 0
M  V30 8638 H 865.763 6.27543 2.59551 0
M  V30 8639 H 863.709 4.89632 4.36574 0
M  V30 8640 H 863.626 6.53359 3.80339 0
M  V30 8641 H 864.894 6.06522 4.89644 0
M  V30 8642 N 869.123 -0.277682 1.55134 0
M  V30 8643 C 870.07 -1.34313 1.87693 0
M  V30 8644 C 871.04 -1.49298 0.727973 0
M  V30 8645 O 872.225 -1.6378 0.978807 0
M  V30 8646 C 869.365 -2.69922 2.15026 0
M  V30 8647 C 868.478 -2.63197 3.42565 0
M  V30 8648 C 867.613 -3.90955 3.59622 0
M  V30 8649 C 866.652 -3.78722 4.8087 0
M  V30 8650 N 865.789 -4.98303 4.94609 0
M  V30 8651 H 870.629 -1.05847 2.78569 0
M  V30 8652 H 868.166 -0.511469 1.37922 0
M  V30 8653 H 870.124 -3.48817 2.28872 0
M  V30 8654 H 868.754 -2.966 1.2739 0
M  V30 8655 H 867.806 -1.76038 3.37216 0
M  V30 8656 H 869.118 -2.50056 4.31594 0
M  V30 8657 H 868.272 -4.78291 3.7326 0
M  V30 8658 H 867.011 -4.06957 2.6877 0
M  V30 8659 H 866.016 -2.89769 4.67241 0
M  V30 8660 H 867.241 -3.64242 5.73153 0
M  V30 8661 H 865.187 -5.14725 4.06687 0
M  V30 8662 H 865.104 -4.87675 5.77676 0
M  V30 8663 H 866.372 -5.87225 5.12628 0
M  V30 8664 N 870.601 -1.47988 -0.541979 0
M  V30 8665 C 871.564 -1.61148 -1.62984 0
M  V30 8666 C 872.564 -0.48553 -1.53295 0
M  V30 8667 O 873.754 -0.751012 -1.5718 0
M  V30 8668 C 870.886 -1.57038 -3.02576 0
M  V30 8669 H 872.079 -2.58138 -1.52659 0
M  V30 8670 H 869.632 -1.36405 -0.763106 0
M  V30 8671 H 870.367 -0.614807 -3.18419 0
M  V30 8672 H 870.152 -2.38769 -3.11018 0
M  V30 8673 H 871.642 -1.69416 -3.81691 0
M  V30 8674 N 872.079 0.78992 -1.36375 0
M  V30 8675 C 873.356 1.53584 -1.21126 0
M  V30 8676 C 873.736 2.10124 0.202785 0
M  V30 8677 O 873.084 1.93936 1.20835 0
M  V30 8678 C 873.294 2.63117 -2.29282 0
M  V30 8679 C 874.642 3.31013 -2.65924 0
M  V30 8680 O 875.666 2.734 -2.28321 0
M  V30 8681 O 874.525 4.35129 -3.30643 0
M  V30 8682 H 871.619 0.679366 -0.471583 0
M  V30 8683 H 874.165 0.828446 -1.48104 0
M  V30 8684 H 872.937 2.19329 -3.24053 0
M  V30 8685 H 872.56 3.41476 -2.03666 0
M  V30 8686 N 873.557 1.20646 1.01402 0
M  V30 8687 C 874.52 0.959314 2.08158 0
M  V30 8688 C 875.52 -0.0661558 1.60664 0
M  V30 8689 O 876.71 0.170177 1.73367 0
M  V30 8690 C 873.842 0.444785 3.37986 0
M  V30 8691 H 875.035 1.90631 2.31517 0
M  V30 8692 H 872.588 1.02219 1.18241 0
M  V30 8693 H 873.323 -0.507553 3.20304 0
M  V30 8694 H 873.108 1.18435 3.73785 0
M  V30 8695 H 874.598 0.291443 4.16582 0
M  V30 8696 N 875.035 -1.20752 1.01276 0
M  V30 8697 C 875.998 -2.2162 0.584583 0
M  V30 8698 C 876.998 -1.57094 -0.343215 0
M  V30 8699 O 878.188 -1.73696 -0.132433 0
M  V30 8700 C 875.32 -3.40583 -0.146872 0
M  V30 8701 H 876.513 -2.61015 1.47686 0
M  V30 8702 H 874.066 -1.34148 0.802123 0
M  V30 8703 H 874.801 -3.06686 -1.05424 0
M  V30 8704 H 874.586 -3.88642 0.51958 0
M  V30 8705 H 876.076 -4.15339 -0.433924 0
M  V30 8706 N 876.513 -0.788492 -1.36457 0
M  V30 8707 C 877.476 -0.192209 -2.28393 0
M  V30 8708 C 878.476 0.609916 -1.48784 0
M  V30 8709 O 879.666 0.431046 -1.68783 0
M  V30 8710 C 876.798 0.734096 -3.32902 0
M  V30 8711 H 877.991 -1.00284 -2.82636 0
M  V30 8712 H 875.544 -0.557852 -1.46006 0
M  V30 8713 H 876.279 1.5691 -2.83813 0
M  V30 8714 H 876.064 0.160875 -3.9177 0
M  V30 8715 H 877.554 1.1462 -4.01562 0
M  V30 8716 N 877.991 1.48044 -0.54043 0
M  V30 8717 C 878.939 2.31461 0.229862 0
M  V30 8718 C 879.933 1.41884 0.925495 0
M  V30 8719 O 881.139 1.58736 0.848689 0
M  V30 8720 H 877.514 0.746227 0.0929975 0
M  V30 8721 H 879.485 2.94297 -0.493118 0
M  V30 8722 C 878.234 3.24172 1.25729 0
M  V30 8723 H 877.557 3.93052 0.731426 0
M  V30 8724 H 878.997 3.85404 1.76747 0
M  V30 8725 C 877.456 2.4651 2.2964 0
M  V30 8726 O 877.986 2.19742 3.36268 0
M  V30 8727 N 876.192 2.07817 2.03127 0
M  V30 8728 H 875.739 2.29786 1.1643 0
M  V30 8729 H 875.697 1.56168 2.72872 0
M  V30 8730 N 879.47 0.276058 1.55163 0
M  V30 8731 C 880.402 -0.644254 2.19959 0
M  V30 8732 C 881.415 -1.11675 1.18459 0
M  V30 8733 O 882.604 -1.0385 1.45181 0
M  V30 8734 C 879.704 -1.89093 2.81242 0
M  V30 8735 C 878.877 -1.56509 4.08441 0
M  V30 8736 C 877.936 -2.66433 4.53762 0
M  V30 8737 O 876.962 -2.32579 5.19515 0
M  V30 8738 N 878.164 -3.96509 4.23982 0
M  V30 8739 H 880.929 -0.0896808 2.99566 0
M  V30 8740 H 878.49 0.0971981 1.61608 0
M  V30 8741 H 880.482 -2.61929 3.08505 0
M  V30 8742 H 879.052 -2.35453 2.05622 0
M  V30 8743 H 878.272 -0.670522 3.88455 0
M  V30 8744 H 879.56 -1.32242 4.91314 0
M  V30 8745 H 878.958 -4.26834 3.71254 0
M  V30 8746 H 877.515 -4.6572 4.56014 0
M  V30 8747 N 880.948 -1.576 0.00335426 0
M  V30 8748 C 882.196 -1.90336 -0.679446 0
M  V30 8749 C 882.517 -0.877777 -1.74127 0
M  V30 8750 O 881.787 0.0843585 -1.95718 0
M  V30 8751 H 880.367 -0.702509 -0.253948 0
M  V30 8752 H 883.029 -1.94848 0.0450731 0
M  V30 8753 H 882.125 -2.90197 -1.14857 0
M  V30 8754 N 882.426 0.269451 -1.5528 0
M  V30 8755 C 883.373 1.33316 -1.88403 0
M  V30 8756 C 884.343 1.48909 -0.735881 0
M  V30 8757 O 885.528 1.63259 -0.987479 0
M  V30 8758 C 882.668 2.68778 -2.16454 0
M  V30 8759 C 881.781 2.61377 -3.43956 0
M  V30 8760 C 880.916 3.89042 -3.6169 0
M  V30 8761 C 879.955 3.76166 -4.82872 0
M  V30 8762 N 879.092 4.95673 -4.97245 0
M  V30 8763 H 883.932 1.04368 -2.79126 0
M  V30 8764 H 881.469 0.504147 -1.38191 0
M  V30 8765 H 883.427 3.47599 -2.30719 0
M  V30 8766 H 882.057 2.9592 -1.28961 0
M  V30 8767 H 881.109 1.74247 -3.38145 0
M  V30 8768 H 882.421 2.47764 -4.32914 0
M  V30 8769 H 881.575 4.76304 -3.75791 0
M  V30 8770 H 880.314 4.05526 -2.70924 0
M  V30 8771 H 879.319 2.87287 -4.68771 0
M  V30 8772 H 880.544 3.61198 -5.75077 0
M  V30 8773 H 878.49 5.12561 -4.09411 0
M  V30 8774 H 878.407 4.84605 -5.80254 0
M  V30 8775 H 879.675 5.84498 -5.15735 0
M  V30 8776 N 883.904 1.48273 0.534124 0
M  V30 8777 C 884.851 1.62487 1.6391 0
M  V30 8778 C 885.821 0.467062 1.59398 0
M  V30 8779 O 887.006 0.690029 1.77885 0
M  V30 8780 C 884.146 1.66671 3.02183 0
M  V30 8781 C 883.259 2.9353 3.16961 0
M  V30 8782 C 882.394 2.88902 4.45768 0
M  V30 8783 C 881.433 4.10483 4.54059 0
M  V30 8784 N 880.57 4.03956 5.74251 0
M  V30 8785 H 885.41 2.56851 1.51101 0
M  V30 8786 H 882.947 1.27381 0.735704 0
M  V30 8787 H 884.905 1.67079 3.82283 0
M  V30 8788 H 883.535 0.758011 3.13774 0
M  V30 8789 H 882.587 3.02886 2.3014 0
M  V30 8790 H 883.899 3.83501 3.18949 0
M  V30 8791 H 883.053 2.87688 5.34154 0
M  V30 8792 H 881.792 1.96652 4.46295 0
M  V30 8793 H 880.797 4.11977 3.64081 0
M  V30 8794 H 882.022 5.03887 4.55274 0
M  V30 8795 H 879.968 3.14525 5.75682 0
M  V30 8796 H 879.885 4.87628 5.77715 0
M  V30 8797 H 881.153 4.06795 6.64935 0
M  V30 8798 N 885.382 -0.782676 1.36792 0
M  V30 8799 C 886.61 -1.57162 1.34565 0
M  V30 8800 C 887.025 -1.88664 -0.0715501 0
M  V30 8801 O 886.382 -1.50633 -1.03033 0
M  V30 8802 C 886.433 -2.88854 2.1736 0
M  V30 8803 O 886.154 -2.58707 3.53557 0
M  V30 8804 C 887.655 -3.83132 2.2299 0
M  V30 8805 H 884.875 -0.487245 0.461338 0
M  V30 8806 H 887.419 -0.970905 1.79982 0
M  V30 8807 H 885.574 -3.45377 1.7548 0
M  V30 8808 H 885.988 -3.42961 3.96835 0
M  V30 8809 H 887.462 -4.72575 2.85266 0
M  V30 8810 H 887.939 -4.21472 1.23524 0
M  V30 8811 H 888.545 -3.32541 2.65135 0
M  V30 8812 N 886.86 -1.21182 -1.00761 0
M  V30 8813 C 887.77 -0.984691 -2.12934 0
M  V30 8814 C 888.786 0.0623657 -1.73888 0
M  V30 8815 O 889.962 -0.1271 -2.00999 0
M  V30 8816 C 887.027 -0.549447 -3.42319 0
M  V30 8817 C 886.088 -1.66841 -3.95553 0
M  V30 8818 C 885.321 -1.25384 -5.18763 0
M  V30 8819 O 885.544 -0.126333 -5.7026 0
M  V30 8820 O 884.478 -2.06475 -5.65377 0
M  V30 8821 H 888.304 -1.92413 -2.3497 0
M  V30 8822 H 885.889 -0.99647 -1.11314 0
M  V30 8823 H 887.771 -0.316384 -4.20211 0
M  V30 8824 H 886.446 0.361304 -3.21677 0
M  V30 8825 H 885.353 -1.95585 -3.189 0
M  V30 8826 H 886.686 -2.55649 -4.206 0
M  V30 8827 N 888.338 1.20213 -1.01915 0
M  V30 8828 C 889.563 1.94163 -0.729076 0
M  V30 8829 C 889.988 1.74416 0.704323 0
M  V30 8830 O 889.346 1.0401 1.48498 0
M  V30 8831 C 889.394 3.44258 -1.07324 0
M  V30 8832 O 888.498 4.11979 -0.186367 0
M  V30 8833 H 887.839 0.606506 -0.270272 0
M  V30 8834 H 890.369 1.52571 -1.3632 0
M  V30 8835 H 890.379 3.94888 -1.02603 0
M  V30 8836 H 889.054 3.57954 -2.11759 0
M  V30 8837 H 887.631 3.7176 -0.291334 0
M  V30 8838 N 889.816 0.795718 1.36037 0
M  V30 8839 C 890.779 0.204318 2.28287 0
M  V30 8840 C 891.779 -0.602017 1.49105 0
M  V30 8841 O 892.969 -0.422089 1.69009 0
M  V30 8842 C 890.101 -0.716431 3.33287 0
M  V30 8843 H 891.294 1.01781 2.821 0
M  V30 8844 H 888.847 0.565588 1.45708 0
M  V30 8845 H 889.582 -1.55403 2.84641 0
M  V30 8846 H 889.367 -0.140096 3.9185 0
M  V30 8847 H 890.857 -1.12488 4.02164 0
M  V30 8848 N 891.294 -1.47756 0.548274 0
M  V30 8849 C 892.519 -2.07387 0.023475 0
M  V30 8850 C 892.944 -1.39956 -1.25674 0
M  V30 8851 O 892.302 -0.471543 -1.7506 0
M  V30 8852 C 892.35 -3.60224 -0.164669 0
M  V30 8853 O 891.454 -3.93653 -1.22928 0
M  V30 8854 H 890.795 -0.662312 0.0473156 0
M  V30 8855 H 893.325 -1.89905 0.761409 0
M  V30 8856 H 893.335 -4.06211 -0.38166 0
M  V30 8857 H 892.01 -4.08702 0.770425 0
M  V30 8858 H 890.587 -3.59422 -0.993495 0
M  V30 8859 N 892.772 -0.284283 -1.55015 0
M  V30 8860 C 894.018 0.330352 -2.00091 0
M  V30 8861 C 894.351 1.54814 -1.17244 0
M  V30 8862 O 893.626 1.92954 -0.244753 0
M  V30 8863 C 893.909 0.703492 -3.53161 0
M  V30 8864 C 893.762 -0.522275 -4.46758 0
M  V30 8865 C 895.081 1.53645 -4.12409 0
M  V30 8866 H 892.2 0.118599 -0.727395 0
M  V30 8867 H 894.842 -0.393054 -1.8589 0
M  V30 8868 H 892.992 1.31983 -3.65394 0
M  V30 8869 H 894.664 -1.16082 -4.46456 0
M  V30 8870 H 892.907 -1.15865 -4.1804 0
M  V30 8871 H 893.578 -0.217295 -5.51572 0
M  V30 8872 H 896.054 1.01583 -4.0351 0
M  V30 8873 H 894.93 1.76633 -5.19704 0
M  V30 8874 H 895.191 2.5204 -3.63219 0
M  V30 8875 N 894.251 1.57596 -0.0117121 0
M  V30 8876 C 895.183 2.06025 1.0043 0
M  V30 8877 C 896.196 0.980348 1.29973 0
M  V30 8878 O 897.385 1.25691 1.26744 0
M  V30 8879 C 894.485 2.45514 2.33615 0
M  V30 8880 C 893.658 3.76378 2.22842 0
M  V30 8881 C 892.717 4.02606 3.38814 0
M  V30 8882 O 891.743 4.73108 3.16477 0
M  V30 8883 N 892.945 3.51416 4.62047 0
M  V30 8884 H 895.71 2.93811 0.591206 0
M  V30 8885 H 893.271 1.60947 0.175427 0
M  V30 8886 H 895.263 2.60166 3.09993 0
M  V30 8887 H 893.833 1.63186 2.66625 0
M  V30 8888 H 893.053 3.71691 1.313 0
M  V30 8889 H 894.341 4.62149 2.12829 0
M  V30 8890 H 893.739 2.94346 4.83091 0
M  V30 8891 H 892.296 3.71377 5.35651 0
M  V30 8892 N 895.729 -0.261212 1.5542 0
M  V30 8893 C 896.977 -0.989272 1.76232 0
M  V30 8894 C 897.298 -1.86389 0.573067 0
M  V30 8895 O 896.568 -1.91526 -0.41166 0
M  V30 8896 H 895.148 -0.368256 0.64992 0
M  V30 8897 H 897.81 -0.282603 1.9284 0
M  V30 8898 H 896.906 -1.61935 2.66802 0
M  V30 8899 N 897.207 -1.48554 -0.526253 0
M  V30 8900 C 898.623 -1.34757 -0.855138 0
M  V30 8901 C 898.823 -0.36142 -1.98232 0
M  V30 8902 O 897.879 0.216026 -2.51574 0
M  V30 8903 C 899.192 -2.74877 -1.21915 0
M  V30 8904 C 900.74 -2.83393 -1.32882 0
M  V30 8905 C 901.215 -4.24223 -1.72624 0
M  V30 8906 N 902.706 -4.26913 -1.7972 0
M  V30 8907 C 903.441 -5.32824 -2.11863 0
M  V30 8908 N 902.937 -6.49008 -2.42405 0
M  V30 8909 N 904.73 -5.20221 -2.12901 0
M  V30 8910 H 896.881 -2.11284 0.217422 0
M  V30 8911 H 899.144 -0.947367 0.0346362 0
M  V30 8912 H 898.85 -3.48619 -0.464486 0
M  V30 8913 H 898.724 -3.0864 -2.16844 0
M  V30 8914 H 901.111 -2.09904 -2.07424 0
M  V30 8915 H 901.192 -2.53245 -0.360638 0
M  V30 8916 H 900.836 -4.98229 -0.986411 0
M  V30 8917 H 900.766 -4.51817 -2.70498 0
M  V30 8918 H 903.257 -3.4311 -1.58379 0
M  V30 8919 H 903.57 -7.25561 -2.66048 0
M  V30 8920 H 901.915 -6.52277 -2.39917 0
M  V30 8921 H 905.106 -4.28469 -1.885 0
M  V30 8922 H 905.279 -6.02861 -2.37619 0
M  V30 8923 N 898.685 0.775411 -1.37205 0
M  V30 8924 C 899.633 1.90996 -1.32752 0
M  V30 8925 C 900.627 1.68006 -0.216907 0
M  V30 8926 O 901.833 1.7584 -0.384723 0
M  V30 8927 H 898.208 0.62803 -0.413621 0
M  V30 8928 H 900.179 1.91869 -2.28536 0
M  V30 8929 C 898.928 3.28211 -1.14772 0
M  V30 8930 H 898.251 3.46477 -1.99484 0
M  V30 8931 H 899.691 4.07907 -1.15706 0
M  V30 8932 C 898.15 3.3658 0.146852 0
M  V30 8933 O 898.68 3.85428 1.13173 0
M  V30 8934 N 896.886 2.89936 0.196305 0
M  V30 8935 H 896.433 2.50375 -0.605807 0
M  V30 8936 H 896.391 2.95916 1.06212 0
M  V30 8937 N 900.163 1.21714 1.00117 0
M  V30 8938 C 901.391 1.06278 1.77518 0
M  V30 8939 C 901.806 -0.387193 1.84787 0
M  V30 8940 O 901.163 -1.26854 1.31203 0
M  V30 8941 C 901.214 1.65795 3.21239 0
M  V30 8942 O 900.935 3.05119 3.14378 0
M  V30 8943 C 902.436 1.55521 4.15124 0
M  V30 8944 H 899.656 0.373013 0.557765 0
M  V30 8945 H 902.2 1.61133 1.25922 0
M  V30 8946 H 900.355 1.15022 3.69931 0
M  V30 8947 H 900.769 3.33643 4.04701 0
M  V30 8948 H 902.243 2.01902 5.13751 0
M  V30 8949 H 902.72 0.510307 4.36225 0
M  V30 8950 H 903.326 2.0556 3.72324 0
M  V30 8951 N 901.641 -1.19671 1.02551 0
M  V30 8952 C 902.918 -1.85014 0.634771 0
M  V30 8953 C 903.298 -1.91574 -0.886706 0
M  V30 8954 O 902.646 -1.43022 -1.78205 0
M  V30 8955 C 902.856 -3.24167 1.29292 0
M  V30 8956 C 904.204 -4.00363 1.41402 0
M  V30 8957 O 905.228 -3.33553 1.24983 0
M  V30 8958 O 904.087 -5.2003 1.6802 0
M  V30 8959 H 901.181 -0.797147 0.220196 0
M  V30 8960 H 903.727 -1.27188 1.12345 0
M  V30 8961 H 902.499 -3.14208 2.33215 0
M  V30 8962 H 902.122 -3.89634 0.791895 0
M  V30 8963 N 903.119 -0.802921 -1.35613 0
M  V30 8964 C 904.365 -0.382141 -1.99167 0
M  V30 8965 C 904.698 1.04704 -1.63556 0
M  V30 8966 O 903.973 1.72578 -0.89706 0
M  V30 8967 C 904.256 -0.561493 -3.55695 0
M  V30 8968 C 904.109 -2.03534 -4.01116 0
M  V30 8969 C 905.428 0.0151135 -4.40097 0
M  V30 8970 H 902.547 -0.140322 -0.723518 0
M  V30 8971 H 905.189 -1.01177 -1.6082 0
M  V30 8972 H 903.339 -0.0255083 -3.88492 0
M  V30 8973 H 905.011 -2.63343 -3.78746 0
M  V30 8974 H 903.254 -2.5331 -3.52159 0
M  V30 8975 H 903.925 -2.11173 -5.1001 0
M  V30 8976 H 906.401 -0.442582 -4.1374 0
M  V30 8977 H 905.277 -0.140316 -5.48721 0
M  V30 8978 H 905.538 1.10848 -4.27978 0
M  V30 8979 N 904.597 1.47463 -0.556102 0
M  V30 8980 C 905.56 2.28478 0.181743 0
M  V30 8981 C 906.56 1.36886 0.843738 0
M  V30 8982 O 907.75 1.59527 0.69977 0
M  V30 8983 C 904.882 3.16534 1.26566 0
M  V30 8984 H 906.075 2.95182 -0.529892 0
M  V30 8985 H 903.628 1.53134 -0.313005 0
M  V30 8986 H 904.363 2.5452 2.00973 0
M  V30 8987 H 904.148 3.83939 0.795798 0
M  V30 8988 H 905.638 3.77579 1.78393 0
M  V30 8989 N 906.075 0.2925 1.54862 0
M  V30 8990 C 907.007 -0.620889 2.2063 0
M  V30 8991 C 908.02 -1.10412 1.19637 0
M  V30 8992 O 909.209 -1.02304 1.46274 0
M  V30 8993 C 906.309 -1.861 2.83232 0
M  V30 8994 C 905.482 -1.52168 4.10078 0
M  V30 8995 C 904.541 -2.61605 4.56562 0
M  V30 8996 O 903.567 -2.27056 5.21952 0
M  V30 8997 N 904.769 -3.9199 4.28163 0
M  V30 8998 H 907.534 -0.0579028 2.99644 0
M  V30 8999 H 905.095 0.114333 1.61496 0
M  V30 9000 H 907.087 -2.58642 3.11266 0
M  V30 9001 H 905.657 -2.33259 2.08108 0
M  V30 9002 H 904.877 -0.629283 3.89145 0
M  V30 9003 H 906.165 -1.27023 4.92689 0
M  V30 9004 H 905.563 -4.22872 3.7576 0
M  V30 9005 H 904.12 -4.60857 4.60928 0
M  V30 9006 N 907.553 -1.57587 0.0200696 0
M  V30 9007 C 908.778 -1.96124 -0.674547 0
M  V30 9008 C 909.203 -0.896068 -1.65385 0
M  V30 9009 O 908.561 0.143925 -1.80728 0
M  V30 9010 C 908.609 -3.3376 -1.36517 0
M  V30 9011 O 907.713 -3.29483 -2.48022 0
M  V30 9012 H 907.054 -0.639719 -0.177919 0
M  V30 9013 H 909.584 -2.04447 0.0792317 0
M  V30 9014 H 909.594 -3.69785 -1.72403 0
M  V30 9015 H 908.269 -4.10832 -0.647265 0
M  V30 9016 H 906.846 -3.05162 -2.14314 0
M  V30 9017 N 909.032 0.252966 -1.55557 0
M  V30 9018 C 910.443 0.822503 -1.67606 0
M  V30 9019 C 910.794 1.86265 -0.616411 0
M  V30 9020 O 909.919 2.15082 0.238447 0
M  V30 9021 C 910.514 1.49866 -3.03852 0
M  V30 9022 C 909.073 2.01597 -3.17861 0
M  V30 9023 C 908.22 0.864943 -2.63465 0
M  V30 9024 H 911.171 0.0288958 -1.58674 0
M  V30 9025 H 911.192 2.36646 -2.97958 0
M  V30 9026 H 910.704 0.741378 -3.80953 0
M  V30 9027 H 908.805 2.80224 -2.45571 0
M  V30 9028 H 908.918 2.21752 -4.24692 0
M  V30 9029 H 907.282 1.2638 -2.21134 0
M  V30 9030 H 908.065 0.120847 -3.43087 0
M  V30 9031 N 910.51 1.48831 0.518367 0
M  V30 9032 C 911.42 1.6692 1.64848 0
M  V30 9033 C 912.436 0.551711 1.65022 0
M  V30 9034 O 913.612 0.824251 1.83761 0
M  V30 9035 C 910.677 1.71559 3.01278 0
M  V30 9036 C 909.738 2.9502 3.11868 0
M  V30 9037 C 908.971 2.99428 4.4179 0
M  V30 9038 O 909.194 2.11914 5.29574 0
M  V30 9039 O 908.128 3.91719 4.5699 0
M  V30 9040 H 911.954 2.62623 1.52521 0
M  V30 9041 H 909.539 1.32368 0.692749 0
M  V30 9042 H 911.421 1.77064 3.82396 0
M  V30 9043 H 910.096 0.790316 3.13904 0
M  V30 9044 H 909.003 2.95042 2.30003 0
M  V30 9045 H 910.336 3.8697 3.04163 0
M  V30 9046 N 911.988 -0.768124 1.37614 0
M  V30 9047 C 912.951 -1.86314 1.3349 0
M  V30 9048 C 913.951 -1.59025 0.23823 0
M  V30 9049 O 915.141 -1.6704 0.494288 0
M  V30 9050 C 912.273 -3.23519 1.07462 0
M  V30 9051 H 913.466 -1.91382 2.30896 0
M  V30 9052 H 911.019 -0.968267 1.22696 0
M  V30 9053 H 911.754 -3.24127 0.106028 0
M  V30 9054 H 911.539 -3.44719 1.86846 0
M  V30 9055 H 913.029 -4.03597 1.07236 0
M  V30 9056 N 913.466 -1.22244 -0.994698 0
M  V30 9057 C 914.877 -1.043 -1.5485 0
M  V30 9058 C 915.228 0.394102 -1.92201 0
M  V30 9059 O 914.353 1.27883 -1.74571 0
M  V30 9060 C 914.948 -1.88708 -2.8138 0
M  V30 9061 C 913.507 -1.75067 -3.3321 0
M  V30 9062 C 912.654 -1.85286 -2.06312 0
M  V30 9063 H 915.605 -1.36115 -0.815988 0
M  V30 9064 H 915.626 -1.40342 -3.53673 0
M  V30 9065 H 915.138 -2.93296 -2.54164 0
M  V30 9066 H 913.239 -0.732047 -3.65338 0
M  V30 9067 H 913.352 -2.57632 -4.03934 0
M  V30 9068 H 911.716 -1.28706 -2.19788 0
M  V30 9069 H 912.499 -2.91401 -1.81494 0
M  V30 9070 N 914.944 1.19125 -1.03184 0
M  V30 9071 C 915.891 2.2245 -0.6152 0
M  V30 9072 C 916.861 1.61869 0.372502 0
M  V30 9073 O 918.046 1.88901 0.268491 0
M  V30 9074 C 915.186 3.45091 0.0248027 0
M  V30 9075 C 914.299 4.20044 -1.0093 0
M  V30 9076 C 913.434 5.30119 -0.338744 0
M  V30 9077 C 912.473 5.96833 -1.35855 0
M  V30 9078 N 911.61 6.98464 -0.713594 0
M  V30 9079 H 916.45 2.57445 -1.50086 0
M  V30 9080 H 913.987 1.26485 -0.751005 0
M  V30 9081 H 915.945 4.15149 0.413131 0
M  V30 9082 H 914.575 3.10742 0.874028 0
M  V30 9083 H 913.627 3.48901 -1.51566 0
M  V30 9084 H 914.939 4.65796 -1.78425 0
M  V30 9085 H 914.093 6.0661 0.104269 0
M  V30 9086 H 912.832 4.85446 0.468382 0
M  V30 9087 H 911.837 5.1909 -1.81179 0
M  V30 9088 H 913.062 6.4359 -2.16722 0
M  V30 9089 H 911.008 6.55959 0.0733863 0
M  V30 9090 H 910.925 7.42422 -1.42638 0
M  V30 9091 H 912.193 7.78943 -0.294681 0
M  V30 9092 N 916.422 0.810101 1.35185 0
M  V30 9093 C 917.354 0.180581 2.28488 0
M  V30 9094 C 918.367 -0.622154 1.50443 0
M  V30 9095 O 919.556 -0.453938 1.72632 0
M  V30 9096 C 916.656 -0.766447 3.30119 0
M  V30 9097 C 915.829 -0.00932028 4.37399 0
M  V30 9098 C 914.888 -0.875354 5.18868 0
M  V30 9099 O 913.914 -0.325012 5.68271 0
M  V30 9100 N 915.116 -2.19695 5.37321 0
M  V30 9101 H 917.881 0.98212 2.83151 0
M  V30 9102 H 915.442 0.665879 1.47573 0
M  V30 9103 H 917.434 -1.35012 3.81515 0
M  V30 9104 H 916.004 -1.46878 2.75945 0
M  V30 9105 H 915.224 0.755585 3.86891 0
M  V30 9106 H 916.512 0.512352 5.06214 0
M  V30 9107 H 915.91 -2.66797 4.98834 0
M  V30 9108 H 914.467 -2.72978 5.91884 0
M  V30 9109 N 917.9 -1.47166 0.563914 0
M  V30 9110 C 918.81 -2.33885 -0.182977 0
M  V30 9111 C 919.826 -1.48605 -0.905132 0
M  V30 9112 O 921.002 -1.81518 -0.872527 0
M  V30 9113 C 918.067 -3.25433 -1.19558 0
M  V30 9114 C 917.128 -4.26607 -0.480129 0
M  V30 9115 C 916.361 -5.1378 -1.44449 0
M  V30 9116 O 916.584 -5.03531 -2.67979 0
M  V30 9117 O 915.518 -5.94109 -0.965321 0
M  V30 9118 H 919.344 -2.99065 0.528544 0
M  V30 9119 H 916.929 -1.45834 0.324468 0
M  V30 9120 H 918.811 -3.81964 -1.77993 0
M  V30 9121 H 917.486 -2.62873 -1.8889 0
M  V30 9122 H 916.393 -3.73817 0.145583 0
M  V30 9123 H 917.726 -4.919 0.171868 0
M  V30 9124 N 919.378 -0.300708 -1.54705 0
M  V30 9125 C 920.341 0.562648 -2.22187 0
M  V30 9126 C 921.341 1.06152 -1.20782 0
M  V30 9127 O 922.531 0.957596 -1.45519 0
M  V30 9128 C 919.663 1.77899 -2.908 0
M  V30 9129 H 920.856 -0.0269361 -2.99888 0
M  V30 9130 H 918.409 -0.0515412 -1.56215 0
M  V30 9131 H 919.144 2.40841 -2.17177 0
M  V30 9132 H 918.929 1.42892 -3.65136 0
M  V30 9133 H 920.419 2.39236 -3.42281 0
M  V30 9134 N 920.856 1.57574 -0.0284266 0
M  V30 9135 C 922.267 1.79585 0.510502 0
M  V30 9136 C 922.618 0.938625 1.72291 0
M  V30 9137 O 921.743 0.14884 2.15888 0
M  V30 9138 C 922.338 3.25703 0.932912 0
M  V30 9139 C 920.897 3.48711 1.41696 0
M  V30 9140 C 920.044 2.74665 0.381356 0
M  V30 9141 H 922.995 1.56647 -0.254464 0
M  V30 9142 H 923.016 3.35376 1.79731 0
M  V30 9143 H 922.528 3.88067 0.0503036 0
M  V30 9144 H 920.629 2.91597 2.31952 0
M  V30 9145 H 920.742 4.57423 1.42481 0
M  V30 9146 H 919.106 2.40123 0.8493 0
M  V30 9147 H 919.889 3.39745 -0.492775 0
M  V30 9148 N 922.334 -0.244713 1.55689 0
M  V30 9149 C 923.297 -1.2864 1.89695 0
M  V30 9150 C 924.297 -1.40969 0.773583 0
M  V30 9151 O 925.487 -1.39632 1.04156 0
M  V30 9152 C 922.619 -2.66379 2.12732 0
M  V30 9153 H 923.812 -0.997033 2.82841 0
M  V30 9154 H 921.365 -0.484103 1.48614 0
M  V30 9155 H 922.1 -3.00452 1.22062 0
M  V30 9156 H 921.885 -2.58812 2.94549 0
M  V30 9157 H 923.375 -3.41592 2.40218 0
M  V30 9158 N 923.813 -1.49104 -0.510467 0
M  V30 9159 C 924.76 -1.65074 -1.61305 0
M  V30 9160 C 925.73 -0.492362 -1.58635 0
M  V30 9161 O 926.915 -0.718241 -1.76765 0
M  V30 9162 C 924.055 -1.71457 -2.99493 0
M  V30 9163 C 923.168 -2.98536 -3.12251 0
M  V30 9164 C 922.303 -2.95957 -4.41116 0
M  V30 9165 C 921.342 -4.17655 -4.47471 0
M  V30 9166 N 920.479 -4.13041 -5.67751 0
M  V30 9167 H 925.319 -2.59222 -1.46996 0
M  V30 9168 H 922.856 -1.28535 -0.715346 0
M  V30 9169 H 924.814 -1.7314 -3.79577 0
M  V30 9170 H 923.444 -0.807834 -3.12528 0
M  V30 9171 H 922.496 -3.06509 -2.25292 0
M  V30 9172 H 923.808 -3.88527 -3.12807 0
M  V30 9173 H 922.962 -2.96149 -5.2951 0
M  V30 9174 H 921.701 -2.03728 -4.4311 0
M  V30 9175 H 920.706 -4.17717 -3.57481 0
M  V30 9176 H 921.931 -5.11066 -4.472 0
M  V30 9177 H 919.877 -3.23643 -5.70606 0
M  V30 9178 H 919.794 -4.96757 -5.69884 0
M  V30 9179 H 921.062 -4.17322 -6.58379 0
M  V30 9180 N 925.291 0.760815 -1.38019 0
M  V30 9181 C 926.238 1.8744 -1.34666 0
M  V30 9182 C 927.208 1.64762 -0.210386 0
M  V30 9183 O 928.393 1.86528 -0.401479 0
M  V30 9184 C 925.533 3.24648 -1.17037 0
M  V30 9185 C 924.646 3.59206 -2.3999 0
M  V30 9186 C 923.781 4.8568 -2.15148 0
M  V30 9187 C 922.82 5.13002 -3.3391 0
M  V30 9188 N 921.957 6.30668 -3.08549 0
M  V30 9189 H 926.797 1.8964 -2.29871 0
M  V30 9190 H 924.334 0.927004 -1.14215 0
M  V30 9191 H 926.292 4.03814 -1.04834 0
M  V30 9192 H 924.922 3.21793 -0.254758 0
M  V30 9193 H 923.974 2.74939 -2.62893 0
M  V30 9194 H 925.286 3.75328 -3.28527 0
M  V30 9195 H 924.44 5.72773 -2.00039 0
M  V30 9196 H 923.179 4.71682 -1.23965 0
M  V30 9197 H 922.184 4.2438 -3.49545 0
M  V30 9198 H 923.409 5.28901 -4.25958 0
M  V30 9199 H 921.355 6.18008 -2.20006 0
M  V30 9200 H 921.272 6.47257 -3.90633 0
M  V30 9201 H 922.54 7.20669 -2.9708 0
M  V30 9202 N 926.769 1.22769 0.988202 0
M  V30 9203 C 927.716 1.00195 2.07917 0
M  V30 9204 C 928.686 -0.0779391 1.65917 0
M  V30 9205 O 929.871 0.0726005 1.90662 0
M  V30 9206 C 927.011 0.590853 3.40004 0
M  V30 9207 C 926.124 1.74202 3.9532 0
M  V30 9208 C 925.259 1.27846 5.15586 0
M  V30 9209 C 924.298 2.40087 5.63049 0
M  V30 9210 N 923.435 1.94744 6.74551 0
M  V30 9211 H 928.275 1.93581 2.26562 0
M  V30 9212 H 925.812 0.96448 1.11068 0
M  V30 9213 H 927.77 0.333653 4.15864 0
M  V30 9214 H 926.4 -0.306007 3.21346 0
M  V30 9215 H 925.452 2.11342 3.16289 0
M  V30 9216 H 926.764 2.58612 4.26522 0
M  V30 9217 H 925.918 0.978919 5.9875 0
M  V30 9218 H 924.657 0.404617 4.86019 0
M  V30 9219 H 923.662 2.70824 4.78471 0
M  V30 9220 H 924.887 3.27995 5.9464 0
M  V30 9221 H 922.833 1.09729 6.46758 0
M  V30 9222 H 922.75 2.72718 7.05096 0
M  V30 9223 H 924.018 1.67873 7.61209 0
M  V30 9224 N 928.247 -1.18576 1.03814 0
M  V30 9225 C 929.472 -1.92978 0.759873 0
M  V30 9226 C 929.897 -1.75514 -0.676486 0
M  V30 9227 O 929.255 -1.06359 -1.46824 0
M  V30 9228 C 929.303 -3.42507 1.12788 0
M  V30 9229 O 928.407 -4.1163 0.251886 0
M  V30 9230 H 927.748 -0.602129 0.279886 0
M  V30 9231 H 930.278 -1.50383 1.3873 0
M  V30 9232 H 930.288 -3.93206 1.08872 0
M  V30 9233 H 928.963 -3.5454 2.17427 0
M  V30 9234 H 927.54 -3.7125 0.350441 0
M  V30 9235 N 929.725 -0.817259 -1.34754 0
M  V30 9236 C 930.973 -0.401852 -1.98065 0
M  V30 9237 C 931.294 1.03718 -1.65129 0
M  V30 9238 O 930.564 1.71921 -0.939141 0
M  V30 9239 H 929.144 -0.145603 -0.732672 0
M  V30 9240 H 931.806 -1.04545 -1.64488 0
M  V30 9241 H 930.902 -0.516241 -3.07801 0
M  V30 9242 N 931.203 1.46865 -0.571711 0
M  V30 9243 C 932.428 2.07323 -0.0564655 0
M  V30 9244 C 932.853 1.41938 1.23431 0
M  V30 9245 O 932.211 0.499334 1.74288 0
M  V30 9246 C 932.259 3.6044 0.107339 0
M  V30 9247 O 931.363 3.95558 1.1665 0
M  V30 9248 H 930.704 0.661475 -0.0578465 0
M  V30 9249 H 933.234 1.88669 -0.791524 0
M  V30 9250 H 933.244 4.06767 0.316987 0
M  V30 9251 H 931.919 4.07425 -0.835348 0
M  V30 9252 H 930.496 3.60957 0.936189 0
M  V30 9253 N 932.681 0.308908 1.54543 0
M  V30 9254 C 933.628 -0.563659 2.23811 0
M  V30 9255 C 934.598 -1.12332 1.22355 0
M  V30 9256 O 935.783 -1.16638 1.50997 0
M  V30 9257 C 932.923 -1.72585 2.98845 0
M  V30 9258 C 932.036 -1.19682 4.1509 0
M  V30 9259 C 931.171 -2.32351 4.77688 0
M  V30 9260 C 930.21 -1.76623 5.86064 0
M  V30 9261 N 929.347 -2.82896 6.42584 0
M  V30 9262 H 934.187 0.0336288 2.97981 0
M  V30 9263 H 931.724 0.0283666 1.47073 0
M  V30 9264 H 933.682 -2.40951 3.40586 0
M  V30 9265 H 932.312 -2.29464 2.27037 0
M  V30 9266 H 931.364 -0.405173 3.78236 0
M  V30 9267 H 932.676 -0.748923 4.93146 0
M  V30 9268 H 931.83 -3.0865 5.22322 0
M  V30 9269 H 930.569 -2.80472 3.98982 0
M  V30 9270 H 929.574 -0.988171 5.40847 0
M  V30 9271 H 930.799 -1.29398 6.66658 0
M  V30 9272 H 928.745 -3.30336 5.66758 0
M  V30 9273 H 928.662 -2.42626 7.16009 0
M  V30 9274 H 929.93 -3.59068 6.91875 0
M  V30 9275 N 934.159 -1.57557 0.0367827 0
M  V30 9276 C 935.106 -2.10679 -0.942499 0
M  V30 9277 C 936.076 -1.01068 -1.31812 0
M  V30 9278 O 937.261 -1.28533 -1.41011 0
M  V30 9279 C 934.401 -2.64467 -2.21701 0
M  V30 9280 C 933.514 -3.88114 -1.89715 0
M  V30 9281 C 932.649 -4.30268 -3.11518 0
M  V30 9282 C 931.688 -5.46652 -2.75387 0
M  V30 9283 N 930.825 -5.83927 -3.89838 0
M  V30 9284 H 935.665 -2.94066 -0.482588 0
M  V30 9285 H 933.202 -1.45344 -0.226597 0
M  V30 9286 H 935.16 -2.93745 -2.96259 0
M  V30 9287 H 933.79 -1.83898 -2.65295 0
M  V30 9288 H 932.842 -3.65516 -1.05366 0
M  V30 9289 H 934.154 -4.72743 -1.5911 0
M  V30 9290 H 933.308 -4.61023 -3.94389 0
M  V30 9291 H 932.047 -3.44421 -3.4529 0
M  V30 9292 H 931.052 -5.15583 -1.90929 0
M  V30 9293 H 932.277 -6.34204 -2.42822 0
M  V30 9294 H 930.223 -5.01035 -4.23438 0
M  V30 9295 H 930.14 -6.63214 -3.62883 0
M  V30 9296 H 931.408 -6.19291 -4.73391 0
M  V30 9297 N 935.637 0.236453 -1.55816 0
M  V30 9298 C 936.584 1.29289 -1.91188 0
M  V30 9299 C 937.554 1.47315 -0.767301 0
M  V30 9300 O 938.739 1.61128 -1.02189 0
M  V30 9301 C 935.879 2.64126 -2.22107 0
M  V30 9302 C 934.992 2.54022 -3.49423 0
M  V30 9303 C 934.127 3.81282 -3.69861 0
M  V30 9304 C 933.166 3.65839 -4.90743 0
M  V30 9305 N 932.303 4.85014 -5.07647 0
M  V30 9306 H 937.143 0.98424 -2.81277 0
M  V30 9307 H 934.68 0.474722 -1.39229 0
M  V30 9308 H 936.638 3.42626 -2.3804 0
M  V30 9309 H 935.268 2.93118 -1.35209 0
M  V30 9310 H 934.32 1.67036 -3.41765 0
M  V30 9311 H 935.632 2.38525 -4.38072 0
M  V30 9312 H 934.786 4.68226 -3.8581 0
M  V30 9313 H 933.525 3.99688 -2.79465 0
M  V30 9314 H 932.53 2.77279 -4.74759 0
M  V30 9315 H 933.755 3.48918 -5.82609 0
M  V30 9316 H 931.701 5.03762 -4.20191 0
M  V30 9317 H 931.618 4.72188 -5.90402 0
M  V30 9318 H 932.886 5.73427 -5.28017 0
M  V30 9319 N 937.115 1.49373 0.502552 0
M  V30 9320 C 938.363 1.58467 1.25429 0
M  V30 9321 C 938.684 0.272593 1.93085 0
M  V30 9322 O 937.954 -0.707947 1.82661 0
M  V30 9323 H 936.534 0.583866 0.46595 0
M  V30 9324 H 939.196 1.8599 0.582568 0
M  V30 9325 H 938.292 2.37993 2.01906 0
M  V30 9326 N 938.594 -0.753485 1.38421 0
M  V30 9327 C 939.504 -1.89797 1.37892 0
M  V30 9328 C 940.52 -1.71797 0.276023 0
M  V30 9329 O 941.696 -1.94718 0.514464 0
M  V30 9330 C 938.761 -3.25166 1.20284 0
M  V30 9331 C 937.822 -3.55691 2.4038 0
M  V30 9332 C 937.055 -4.84601 2.23602 0
M  V30 9333 O 937.278 -5.56985 1.22979 0
M  V30 9334 O 936.212 -5.14605 3.12194 0
M  V30 9335 H 940.038 -1.93197 2.34326 0
M  V30 9336 H 937.623 -0.898775 1.19342 0
M  V30 9337 H 939.505 -4.06099 1.12525 0
M  V30 9338 H 938.18 -3.22577 0.269352 0
M  V30 9339 H 937.087 -2.74919 2.53714 0
M  V30 9340 H 938.42 -3.6304 3.32359 0
M  V30 9341 N 940.072 -1.23292 -0.981677 0
M  V30 9342 C 941.483 -1.05936 -1.53735 0
M  V30 9343 C 941.834 0.373695 -1.92608 0
M  V30 9344 O 940.959 1.26024 -1.75917 0
M  V30 9345 C 941.554 -1.91682 -2.79363 0
M  V30 9346 C 940.113 -1.78591 -3.31334 0
M  V30 9347 C 939.26 -1.87463 -2.04335 0
M  V30 9348 H 942.211 -1.36973 -0.801505 0
M  V30 9349 H 942.232 -1.44085 -3.52164 0
M  V30 9350 H 941.744 -2.95975 -2.51039 0
M  V30 9351 H 939.845 -0.770755 -3.64541 0
M  V30 9352 H 939.958 -2.61902 -4.01179 0
M  V30 9353 H 938.322 -1.3103 -2.18411 0
M  V30 9354 H 939.105 -2.9331 -1.78394 0
M  V30 9355 N 941.55 1.18024 -1.04442 0
M  V30 9356 C 942.798 1.87727 -0.74854 0
M  V30 9357 C 943.119 1.80975 0.726156 0
M  V30 9358 O 942.389 1.23061 1.52423 0
M  V30 9359 H 940.969 0.694974 -0.273897 0
M  V30 9360 H 943.631 1.43213 -1.32197 0
M  V30 9361 H 942.727 2.93665 -1.05674 0
M  V30 9362 N 943.028 0.824394 1.34319 0
M  V30 9363 C 944.439 0.471802 1.8064 0
M  V30 9364 C 944.79 -1.00793 1.6833 0
M  V30 9365 O 943.915 -1.78447 1.22416 0
M  V30 9366 C 944.51 0.849609 3.27974 0
M  V30 9367 C 943.069 0.549365 3.72369 0
M  V30 9368 C 942.216 1.06573 2.56003 0
M  V30 9369 H 945.167 1.01443 1.22045 0
M  V30 9370 H 945.188 0.153968 3.80188 0
M  V30 9371 H 944.7 1.92663 3.36902 0
M  V30 9372 H 942.801 -0.518182 3.68979 0
M  V30 9373 H 942.914 1.09446 4.66432 0
M  V30 9374 H 941.278 0.487214 2.49997 0
M  V30 9375 H 942.061 2.14923 2.677 0
M  V30 9376 N 944.506 -1.46559 0.579492 0
M  V30 9377 C 945.917 -1.8608 0.152052 0
M  V30 9378 C 946.268 -1.48346 -1.28405 0
M  V30 9379 O 945.393 -0.89685 -1.9694 0
M  V30 9380 C 945.988 -3.37729 0.269171 0
M  V30 9381 C 944.547 -3.76258 -0.103376 0
M  V30 9382 C 943.694 -2.70584 0.60659 0
M  V30 9383 H 946.645 -1.3776 0.787904 0
M  V30 9384 H 946.666 -3.77116 -0.506339 0
M  V30 9385 H 946.178 -3.65162 1.31448 0
M  V30 9386 H 944.279 -3.54443 -1.14895 0
M  V30 9387 H 944.392 -4.78335 0.270701 0
M  V30 9388 H 942.756 -2.54656 0.0471984 0
M  V30 9389 H 943.539 -3.00856 1.65349 0
M  V30 9390 N 945.984 -0.3171 -1.54377 0
M  V30 9391 C 947.261 0.341348 -1.92598 0
M  V30 9392 C 947.641 1.70402 -1.24605 0
M  V30 9393 O 946.989 2.25191 -0.387448 0
M  V30 9394 C 947.199 0.440003 -3.46215 0
M  V30 9395 C 948.547 0.703327 -4.18734 0
M  V30 9396 O 949.571 0.523181 -3.52337 0
M  V30 9397 O 948.43 1.05042 -5.3631 0
M  V30 9398 H 945.524 0.193696 -0.803997 0
M  V30 9399 H 948.07 -0.366341 -1.65699 0
M  V30 9400 H 946.842 -0.517299 -3.87866 0
M  V30 9401 H 946.465 1.19553 -3.792 0
M  V30 9402 N 947.462 1.57535 -0.0451378 0
M  V30 9403 C 948.425 2.1008 0.916461 0
M  V30 9404 C 949.425 1.01913 1.2438 0
M  V30 9405 O 950.615 1.2801 1.18148 0
M  V30 9406 C 947.747 2.58001 2.22818 0
M  V30 9407 H 948.94 2.96334 0.461076 0
M  V30 9408 H 946.493 1.54974 0.203169 0
M  V30 9409 H 947.228 1.75123 2.72951 0
M  V30 9410 H 947.013 3.3704 2.00366 0
M  V30 9411 H 948.503 2.98822 2.9171 0
M  V30 9412 N 948.94 -0.228186 1.55939 0
M  V30 9413 C 950.217 -0.977492 1.69424 0
M  V30 9414 C 950.597 -2.02674 0.590479 0
M  V30 9415 O 949.945 -2.2491 -0.403467 0
M  V30 9416 C 950.155 -1.59394 3.10475 0
M  V30 9417 C 951.503 -2.08871 3.69673 0
M  V30 9418 O 952.527 -1.693 3.13394 0
M  V30 9419 O 951.386 -2.81584 4.68372 0
M  V30 9420 H 948.48 -0.456185 0.6898 0
M  V30 9421 H 951.026 -0.220492 1.68261 0
M  V30 9422 H 949.798 -0.835971 3.82266 0
M  V30 9423 H 949.421 -2.41665 3.15727 0
M  V30 9424 N 950.418 -1.49637 -0.494624 0
M  V30 9425 C 951.666 -1.5913 -1.24587 0
M  V30 9426 C 951.987 -0.282828 -1.92938 0
M  V30 9427 O 951.257 0.69825 -1.83034 0
M  V30 9428 H 949.837 -0.586329 -0.462847 0
M  V30 9429 H 952.499 -1.86296 -0.572696 0
M  V30 9430 H 951.595 -2.3906 -2.00641 0
M  V30 9431 N 951.896 0.746133 -1.38819 0
M  V30 9432 C 953.307 1.32384 -1.31648 0
M  V30 9433 C 953.658 1.96185 0.0243086 0
M  V30 9434 O 952.783 1.95567 0.92641 0
M  V30 9435 C 953.378 2.40712 -2.38418 0
M  V30 9436 C 951.937 2.94185 -2.34803 0
M  V30 9437 C 951.084 1.67639 -2.20891 0
M  V30 9438 H 954.035 0.544457 -1.49068 0
M  V30 9439 H 954.056 3.20833 -2.04564 0
M  V30 9440 H 953.568 1.94247 -3.3599 0
M  V30 9441 H 951.669 3.44959 -1.40834 0
M  V30 9442 H 951.782 3.48057 -3.29231 0
M  V30 9443 H 950.146 1.9155 -1.67871 0
M  V30 9444 H 950.929 1.23242 -3.20416 0
M  V30 9445 N 953.375 1.23811 0.975125 0
M  V30 9446 C 954.305 1.04846 2.08638 0
M  V30 9447 C 955.286 -0.0362859 1.70061 0
M  V30 9448 O 956.471 0.12937 1.93769 0
M  V30 9449 C 953.601 0.644534 3.41267 0
M  V30 9450 C 952.555 1.67722 3.93768 0
M  V30 9451 C 951.881 1.12857 5.22654 0
M  V30 9452 C 953.181 3.07147 4.22443 0
M  V30 9453 H 954.875 1.97795 2.24761 0
M  V30 9454 H 952.421 0.952397 1.08006 0
M  V30 9455 H 954.374 0.498887 4.18436 0
M  V30 9456 H 953.098 -0.320641 3.25022 0
M  V30 9457 H 951.757 1.81095 3.18748 0
M  V30 9458 H 951.405 0.154227 5.02764 0
M  V30 9459 H 951.105 1.81862 5.58749 0
M  V30 9460 H 952.629 0.994891 6.0244 0
M  V30 9461 H 954.043 2.97045 4.90344 0
M  V30 9462 H 952.44 3.73437 4.6975 0
M  V30 9463 H 953.51 3.55743 3.29507 0
M  V30 9464 N 954.853 -1.17469 1.05066 0
M  V30 9465 C 956.083 -1.91343 0.779202 0
M  V30 9466 C 956.491 -1.76986 -0.668764 0
M  V30 9467 O 955.834 -1.1037 -1.46848 0
M  V30 9468 C 955.896 -3.42938 1.0786 0
M  V30 9469 C 955.56 -3.81076 2.52249 0
M  V30 9470 C 956.557 -3.84027 3.50456 0
M  V30 9471 C 954.242 -4.12076 2.87225 0
M  V30 9472 C 956.236 -4.17445 4.81683 0
M  V30 9473 C 953.923 -4.45163 4.18656 0
M  V30 9474 C 954.921 -4.47825 5.15696 0
M  V30 9475 O 954.609 -4.80133 6.44769 0
M  V30 9476 H 954.341 -0.613974 0.282863 0
M  V30 9477 H 956.895 -1.49907 1.40417 0
M  V30 9478 H 955.125 -3.84662 0.39653 0
M  V30 9479 H 956.814 -3.98071 0.793357 0
M  V30 9480 H 957.58 -3.60203 3.24775 0
M  V30 9481 H 953.459 -4.09176 2.12358 0
M  V30 9482 H 957.003 -4.19437 5.57421 0
M  V30 9483 H 952.9 -4.68449 4.44101 0
M  V30 9484 H 953.668 -4.97995 6.49571 0
M  V30 9485 N 956.331 -0.831506 -1.3388 0
M  V30 9486 C 957.261 -0.274378 -2.31882 0
M  V30 9487 C 958.242 0.613872 -1.58637 0
M  V30 9488 O 959.427 0.538961 -1.86571 0
M  V30 9489 C 956.557 0.557498 -3.42796 0
M  V30 9490 C 955.511 -0.234337 -4.27358 0
M  V30 9491 C 954.837 0.720825 -5.29819 0
M  V30 9492 C 956.137 -1.44732 -5.01847 0
M  V30 9493 H 957.831 -1.09322 -2.78728 0
M  V30 9494 H 955.377 -0.527136 -1.34005 0
M  V30 9495 H 957.33 0.957501 -4.10378 0
M  V30 9496 H 956.054 1.40947 -2.94621 0
M  V30 9497 H 954.713 -0.61581 -3.61391 0
M  V30 9498 H 954.361 1.569 -4.77903 0
M  V30 9499 H 954.061 0.195171 -5.87276 0
M  V30 9500 H 955.585 1.1185 -6.00268 0
M  V30 9501 H 956.999 -1.12087 -5.62236 0
M  V30 9502 H 955.396 -1.90923 -5.68919 0
M  V30 9503 H 956.466 -2.22099 -4.31045 0
M  V30 9504 N 957.809 1.4625 -0.587256 0
M  V30 9505 C 959.22 1.85997 -0.161918 0
M  V30 9506 C 959.571 1.49025 1.27616 0
M  V30 9507 O 958.696 0.907282 1.96462 0
M  V30 9508 C 959.291 3.37582 -0.287077 0
M  V30 9509 C 957.85 3.76308 0.0834211 0
M  V30 9510 C 956.997 2.70259 -0.620932 0
M  V30 9511 H 959.948 1.3734 -0.795199 0
M  V30 9512 H 959.969 3.77379 0.486333 0
M  V30 9513 H 959.481 3.64459 -1.33383 0
M  V30 9514 H 957.582 3.55047 1.13013 0
M  V30 9515 H 957.695 4.78184 -0.296064 0
M  V30 9516 H 956.059 2.54628 -0.0607027 0
M  V30 9517 H 956.842 2.99975 -1.66942 0
M  V30 9518 N 959.287 0.325282 1.54207 0
M  V30 9519 C 960.517 -0.278285 2.04717 0
M  V30 9520 C 960.925 -1.46198 1.20095 0
M  V30 9521 O 960.268 -1.82319 0.224813 0
M  V30 9522 C 960.33 -0.774387 3.51061 0
M  V30 9523 C 959.994 0.287225 4.56096 0
M  V30 9524 C 960.991 1.12388 5.07607 0
M  V30 9525 C 958.676 0.435908 5.00405 0
M  V30 9526 C 960.67 2.09492 6.0199 0
M  V30 9527 C 958.357 1.41037 5.94602 0
M  V30 9528 C 959.355 2.23834 6.45281 0
M  V30 9529 O 959.043 3.19625 7.37628 0
M  V30 9530 H 958.775 -0.0608309 0.673257 0
M  V30 9531 H 961.329 0.470049 1.99949 0
M  V30 9532 H 959.559 -1.57366 3.53232 0
M  V30 9533 H 961.248 -1.29649 3.84637 0
M  V30 9534 H 962.014 1.02 4.74153 0
M  V30 9535 H 957.893 -0.198668 4.60572 0
M  V30 9536 H 961.437 2.74157 6.4147 0
M  V30 9537 H 957.334 1.51487 6.27473 0
M  V30 9538 H 958.102 3.14884 7.55507 0
M  V30 9539 N 960.765 -1.57509 0.0534917 0
M  V30 9540 C 961.712 -2.11667 -0.920101 0
M  V30 9541 C 962.682 -1.0246 -1.30733 0
M  V30 9542 O 963.867 -1.30021 -1.39639 0
M  V30 9543 C 961.007 -2.66803 -2.18883 0
M  V30 9544 C 960.12 -3.90104 -1.85588 0
M  V30 9545 C 959.255 -4.33547 -3.06937 0
M  V30 9546 C 958.294 -5.49542 -2.69573 0
M  V30 9547 N 957.431 -5.88029 -3.83623 0
M  V30 9548 H 962.271 -2.94562 -0.451371 0
M  V30 9549 H 959.808 -1.45576 -0.211168 0
M  V30 9550 H 961.766 -2.96871 -2.93127 0
M  V30 9551 H 960.396 -1.86702 -2.63329 0
M  V30 9552 H 959.448 -3.66613 -1.01484 0
M  V30 9553 H 960.76 -4.74404 -1.54087 0
M  V30 9554 H 959.914 -4.6518 -3.89477 0
M  V30 9555 H 958.653 -3.48064 -3.41618 0
M  V30 9556 H 957.658 -5.17579 -1.8545 0
M  V30 9557 H 958.883 -6.36743 -2.36082 0
M  V30 9558 H 956.829 -5.05498 -4.181 0
M  V30 9559 H 956.746 -6.67025 -3.55828 0
M  V30 9560 H 958.014 -6.24277 -4.66796 0
M  V30 9561 N 962.243 0.219913 -1.56058 0
M  V30 9562 C 963.471 0.960915 -1.83232 0
M  V30 9563 C 963.886 1.77878 -0.632828 0
M  V30 9564 O 963.243 1.78093 0.398624 0
M  V30 9565 C 963.294 1.87716 -3.08942 0
M  V30 9566 O 963.015 1.09235 -4.24263 0
M  V30 9567 C 964.516 2.73192 -3.49115 0
M  V30 9568 H 961.736 0.281546 -0.609075 0
M  V30 9569 H 964.28 0.234648 -2.03149 0
M  V30 9570 H 962.435 2.55736 -2.90995 0
M  V30 9571 H 962.849 1.71446 -4.95688 0
M  V30 9572 H 964.323 3.33181 -4.40107 0
M  V30 9573 H 964.8 3.45668 -2.70943 0
M  V30 9574 H 965.406 2.10583 -3.69506 0
M  V30 9575 N 963.721 1.49897 0.486681 0
M  V30 9576 C 964.651 1.7054 1.59494 0
M  V30 9577 C 965.632 0.554184 1.60819 0
M  V30 9578 O 966.817 0.791617 1.77333 0
M  V30 9579 C 963.947 1.78517 2.97908 0
M  V30 9580 C 962.901 2.93571 3.11449 0
M  V30 9581 C 962.227 2.86674 4.51356 0
M  V30 9582 C 963.527 4.34308 2.90127 0
M  V30 9583 H 965.221 2.63329 1.42472 0
M  V30 9584 H 962.767 1.2672 0.683969 0
M  V30 9585 H 964.72 1.91544 3.75352 0
M  V30 9586 H 963.444 0.823381 3.16051 0
M  V30 9587 H 962.103 2.80169 2.36433 0
M  V30 9588 H 961.751 1.88373 4.66395 0
M  V30 9589 H 961.451 3.63903 4.61355 0
M  V30 9590 H 962.975 3.01728 5.30841 0
M  V30 9591 H 964.389 4.48317 3.57331 0
M  V30 9592 H 962.786 5.12869 3.11585 0
M  V30 9593 H 963.856 4.47759 1.86119 0
M  V30 9594 N 965.199 -0.738761 1.39212 0
M  V30 9595 C 966.445 -1.50046 1.36433 0
M  V30 9596 C 966.778 -1.94157 -0.0409474 0
M  V30 9597 O 966.053 -1.66515 -1.00514 0
M  V30 9598 C 966.336 -2.74277 2.33333 0
M  V30 9599 C 966.189 -2.36209 3.82786 0
M  V30 9600 C 967.508 -3.76361 2.28123 0
M  V30 9601 H 964.627 -0.544294 0.496903 0
M  V30 9602 H 967.269 -0.845005 1.70175 0
M  V30 9603 H 965.419 -3.30204 2.04689 0
M  V30 9604 H 967.091 -1.85942 4.22165 0
M  V30 9605 H 965.334 -1.68483 3.99745 0
M  V30 9606 H 966.005 -3.25156 4.46069 0
M  V30 9607 H 968.481 -3.30009 2.53443 0
M  V30 9608 H 967.357 -4.60957 2.9801 0
M  V30 9609 H 967.618 -4.23013 1.28499 0
M  V30 9610 N 966.677 -1.24326 -0.968545 0
M  V30 9611 C 967.902 -1.1104 -1.75171 0
M  V30 9612 C 968.327 0.333109 -1.85127 0
M  V30 9613 O 967.685 1.24115 -1.32156 0
M  V30 9614 C 967.733 -1.75397 -3.15068 0
M  V30 9615 O 966.837 -1.02417 -3.9948 0
M  V30 9616 H 966.178 -0.388488 -0.538491 0
M  V30 9617 H 968.708 -1.64617 -1.215 0
M  V30 9618 H 968.718 -1.8112 -3.65595 0
M  V30 9619 H 967.393 -2.80427 -3.07138 0
M  V30 9620 H 965.97 -1.04475 -3.57966 0
M  V30 9621 N 968.156 1.1691 -1.05688 0
M  V30 9622 C 969.384 1.91204 -0.790485 0
M  V30 9623 C 969.799 1.77095 0.654434 0
M  V30 9624 O 969.156 1.11146 1.44751 0
M  V30 9625 C 969.207 3.42108 -1.16808 0
M  V30 9626 O 968.928 3.55788 -2.55629 0
M  V30 9627 C 970.429 4.33466 -0.92855 0
M  V30 9628 H 967.649 0.606508 -0.287035 0
M  V30 9629 H 970.193 1.48225 -1.40888 0
M  V30 9630 H 968.348 3.82814 -0.59434 0
M  V30 9631 H 968.762 4.49321 -2.70575 0
M  V30 9632 H 970.236 5.37836 -1.24245 0
M  V30 9633 H 970.713 4.38989 0.136016 0
M  V30 9634 H 971.319 3.98481 -1.48638 0
M  V30 9635 N 969.634 0.838594 1.33437 0
M  V30 9636 C 970.88 0.434813 1.98084 0
M  V30 9637 C 971.213 -1.00331 1.66275 0
M  V30 9638 O 970.488 -1.70139 0.942501 0
M  V30 9639 C 970.771 0.655602 3.54082 0
M  V30 9640 C 970.624 2.14097 3.95578 0
M  V30 9641 C 971.943 0.101576 4.39983 0
M  V30 9642 H 969.062 0.159456 0.719544 0
M  V30 9643 H 971.704 1.05406 1.58081 0
M  V30 9644 H 969.854 0.128501 3.88287 0
M  V30 9645 H 971.526 2.73292 3.71631 0
M  V30 9646 H 969.769 2.62558 3.4532 0
M  V30 9647 H 970.44 2.24621 5.04231 0
M  V30 9648 H 972.916 0.552122 4.12421 0
M  V30 9649 H 971.792 0.28575 5.48156 0
M  V30 9650 H 972.053 -0.994616 4.30767 0
M  V30 9651 N 971.112 -1.45937 0.595003 0
M  V30 9652 C 972.36 -2.01921 0.0851368 0
M  V30 9653 C 972.681 -1.46748 -1.28413 0
M  V30 9654 O 971.951 -0.656873 -1.84559 0
M  V30 9655 H 970.531 -0.746457 0.0284826 0
M  V30 9656 H 973.193 -1.78891 0.773561 0
M  V30 9657 H 972.289 -3.1209 0.0254002 0
M  V30 9658 N 972.59 -0.333456 -1.54032 0
M  V30 9659 C 973.815 0.270517 -2.05628 0
M  V30 9660 C 974.24 1.44231 -1.20744 0
M  V30 9661 O 973.598 1.79975 -0.218822 0
M  V30 9662 C 973.646 0.673251 -3.54259 0
M  V30 9663 O 972.75 1.77448 -3.72271 0
M  V30 9664 H 972.091 0.0469753 -0.662336 0
M  V30 9665 H 974.621 -0.484739 -1.98775 0
M  V30 9666 H 974.631 0.953194 -3.96709 0
M  V30 9667 H 973.306 -0.183747 -4.15494 0
M  V30 9668 H 971.883 1.49259 -3.41725 0
M  V30 9669 N 974.068 1.57479 -0.061844 0
M  V30 9670 C 975.001 2.07734 0.94455 0
M  V30 9671 C 975.979 0.980207 1.29733 0
M  V30 9672 O 977.163 1.2529 1.40836 0
M  V30 9673 C 974.29 2.52673 2.25553 0
M  V30 9674 C 973.336 3.73725 2.05503 0
M  V30 9675 S 974.169 5.18886 1.32354 0
M  V30 9676 C 975.325 5.67148 2.64753 0
M  V30 9677 H 975.558 2.92772 0.516888 0
M  V30 9678 H 973.091 1.53663 0.150684 0
M  V30 9679 H 975.049 2.79226 3.00904 0
M  V30 9680 H 973.71 1.67921 2.65445 0
M  V30 9681 H 972.903 4.03125 3.025 0
M  V30 9682 H 972.505 3.47494 1.3829 0
M  V30 9683 H 974.797 5.73385 3.60882 0
M  V30 9684 H 975.74 6.66196 2.39976 0
M  V30 9685 H 976.148 4.94921 2.71502 0
M  V30 9686 N 975.546 -0.211634 1.56173 0
M  V30 9687 C 976.792 -0.935935 1.79911 0
M  V30 9688 C 977.125 -1.83589 0.633155 0
M  V30 9689 O 976.4 -1.91004 -0.367132 0
M  V30 9690 C 976.683 -1.76638 3.13801 0
M  V30 9691 C 976.536 -0.892259 4.40861 0
M  V30 9692 C 977.855 -2.74224 3.44223 0
M  V30 9693 H 974.974 -0.338822 0.654499 0
M  V30 9694 H 977.616 -0.20422 1.88899 0
M  V30 9695 H 975.766 -2.39021 3.0627 0
M  V30 9696 H 977.438 -0.284407 4.60422 0
M  V30 9697 H 975.681 -0.198145 4.33347 0
M  V30 9698 H 976.352 -1.50793 5.31004 0
M  V30 9699 H 978.828 -2.21975 3.51946 0
M  V30 9700 H 977.704 -3.29424 4.39057 0
M  V30 9701 H 977.965 -3.52455 2.66885 0
M  V30 9702 N 977.024 -1.50153 -0.478725 0
M  V30 9703 C 978.271 -1.6076 -1.23136 0
M  V30 9704 C 978.599 -0.30442 -1.92103 0
M  V30 9705 O 977.854 0.709213 -1.82397 0
M  V30 9706 C 978.153 -2.73208 -2.30417 0
M  V30 9707 C 977.819 -4.13953 -1.78755 0
M  V30 9708 C 976.481 -4.52251 -1.64386 0
M  V30 9709 C 978.833 -5.01949 -1.40344 0
M  V30 9710 C 976.161 -5.76292 -1.10018 0
M  V30 9711 C 978.513 -6.2653 -0.874206 0
M  V30 9712 C 977.177 -6.63637 -0.717085 0
M  V30 9713 H 976.447 -0.588264 -0.450585 0
M  V30 9714 H 979.094 -1.84061 -0.528551 0
M  V30 9715 H 977.399 -2.43965 -3.06575 0
M  V30 9716 H 979.096 -2.7862 -2.88395 0
M  V30 9717 H 975.686 -3.83736 -1.90904 0
M  V30 9718 H 979.87 -4.73 -1.50283 0
M  V30 9719 H 975.126 -6.03723 -0.965838 0
M  V30 9720 H 979.3 -6.94081 -0.567883 0
M  V30 9721 H 976.927 -7.59633 -0.293639 0
M  V30 9722 N 978.502 0.731368 -1.39602 0
M  V30 9723 C 979.45 1.86676 -1.38761 0
M  V30 9724 C 980.444 1.6723 -0.270247 0
M  V30 9725 O 981.65 1.74528 -0.440471 0
M  V30 9726 H 978.025 0.614553 -0.433391 0
M  V30 9727 H 979.996 1.84501 -2.34525 0
M  V30 9728 C 978.745 3.24394 -1.25155 0
M  V30 9729 H 978.068 3.39955 -2.10406 0
M  V30 9730 H 979.508 4.04019 -1.28625 0
M  V30 9731 C 977.967 3.36877 0.0396976 0
M  V30 9732 O 978.497 3.88833 1.00854 0
M  V30 9733 N 976.703 2.90414 0.103965 0
M  V30 9734 H 976.25 2.48321 -0.685155 0
M  V30 9735 H 976.208 2.99146 0.967435 0
M  V30 9736 N 979.98 1.24838 0.961938 0
M  V30 9737 C 980.89 1.06304 2.09133 0
M  V30 9738 C 981.906 0.00221475 1.74 0
M  V30 9739 O 983.082 0.201611 2.00388 0
M  V30 9740 C 980.147 0.676117 3.40043 0
M  V30 9741 C 979.208 1.81407 3.89089 0
M  V30 9742 C 978.441 1.44551 5.13752 0
M  V30 9743 O 978.664 0.337894 5.69398 0
M  V30 9744 O 977.598 2.27316 5.57325 0
M  V30 9745 H 981.424 2.01001 2.27667 0
M  V30 9746 H 979.009 1.0371 1.07539 0
M  V30 9747 H 980.891 0.472124 4.18747 0
M  V30 9748 H 979.566 -0.241667 3.22797 0
M  V30 9749 H 978.473 2.07286 3.11421 0
M  V30 9750 H 979.806 2.71083 4.10822 0
M  V30 9751 N 981.458 -1.16348 1.06306 0
M  V30 9752 C 982.706 -1.86512 0.778311 0
M  V30 9753 C 983.027 -1.82107 -0.697273 0
M  V30 9754 O 982.297 -1.2547 -1.50446 0
M  V30 9755 H 980.877 -0.690529 0.284919 0
M  V30 9756 H 983.539 -1.41092 1.34458 0
M  V30 9757 H 982.635 -2.91947 1.10333 0
M  V30 9758 N 982.937 -0.845659 -1.3299 0
M  V30 9759 C 983.847 -0.2864 -2.32845 0
M  V30 9760 C 984.863 0.591105 -1.63652 0
M  V30 9761 O 986.039 0.493615 -1.95257 0
M  V30 9762 C 983.104 0.523636 -3.42723 0
M  V30 9763 C 982.165 -0.378945 -4.27624 0
M  V30 9764 C 981.398 0.392526 -5.32255 0
M  V30 9765 O 981.621 1.6235 -5.46808 0
M  V30 9766 O 980.555 -0.237 -6.01433 0
M  V30 9767 H 984.381 -1.11346 -2.82552 0
M  V30 9768 H 981.966 -0.608356 -1.36453 0
M  V30 9769 H 983.848 0.983718 -4.09757 0
M  V30 9770 H 982.523 1.32764 -2.95221 0
M  V30 9771 H 981.43 -0.887012 -3.63432 0
M  V30 9772 H 982.763 -1.1479 -4.78627 0
M  V30 9773 N 984.415 1.45619 -0.602734 0
M  V30 9774 C 985.378 2.28941 0.108962 0
M  V30 9775 C 986.378 1.39501 0.799762 0
M  V30 9776 O 987.568 1.61673 0.648663 0
M  V30 9777 C 984.7 3.204 1.16432 0
M  V30 9778 H 985.893 2.93346 -0.623534 0
M  V30 9779 H 983.446 1.52061 -0.361565 0
M  V30 9780 H 984.181 2.60785 1.92774 0
M  V30 9781 H 983.966 3.86277 0.673248 0
M  V30 9782 H 985.456 3.83063 1.6629 0
M  V30 9783 N 985.893 0.34162 1.53853 0
M  V30 9784 C 986.825 -0.550383 2.22494 0
M  V30 9785 C 987.838 -1.0655 1.23089 0
M  V30 9786 O 989.027 -0.975985 1.49455 0
M  V30 9787 C 986.127 -1.76995 2.89009 0
M  V30 9788 C 985.3 -1.39045 4.14711 0
M  V30 9789 C 984.359 -2.46947 4.64654 0
M  V30 9790 O 983.385 -2.10336 5.28912 0
M  V30 9791 N 984.587 -3.7817 4.40418 0
M  V30 9792 H 987.352 0.037456 2.99677 0
M  V30 9793 H 984.913 0.165654 1.6105 0
M  V30 9794 H 986.905 -2.48608 3.19337 0
M  V30 9795 H 985.475 -2.2652 2.15424 0
M  V30 9796 H 984.695 -0.505161 3.9095 0
M  V30 9797 H 985.983 -1.11284 4.96481 0
M  V30 9798 H 985.381 -4.10704 3.89023 0
M  V30 9799 H 983.938 -4.45959 4.75356 0
M  V30 9800 N 987.371 -1.57444 0.0701946 0
M  V30 9801 C 988.787 -1.57009 -0.286431 0
M  V30 9802 C 988.987 -1.07946 -1.70147 0
M  V30 9803 O 988.043 -0.744622 -2.41271 0
M  V30 9804 C 989.356 -3.00542 -0.0975466 0
M  V30 9805 C 990.904 -3.12553 -0.167205 0
M  V30 9806 C 991.379 -4.58 -0.00662047 0
M  V30 9807 N 992.87 -4.63158 -0.0622778 0
M  V30 9808 C 993.605 -5.73388 0.0375831 0
M  V30 9809 N 993.101 -6.92537 0.190873 0
M  V30 9810 N 994.894 -5.62097 -0.0193672 0
M  V30 9811 H 987.045 -1.87651 0.995023 0
M  V30 9812 H 989.308 -0.865006 0.387902 0
M  V30 9813 H 989.014 -3.40543 0.878822 0
M  V30 9814 H 988.888 -3.67485 -0.850547 0
M  V30 9815 H 991.275 -2.72439 -1.13406 0
M  V30 9816 H 991.356 -2.48251 0.616871 0
M  V30 9817 H 991 -4.98803 0.956992 0
M  V30 9818 H 990.93 -5.20332 -0.810081 0
M  V30 9819 H 993.421 -3.77475 -0.179229 0
M  V30 9820 H 993.734 -7.72365 0.25926 0
M  V30 9821 H 992.079 -6.94632 0.226214 0
M  V30 9822 H 995.27 -4.67897 -0.137815 0
M  V30 9823 H 995.443 -6.4797 0.0619121 0
M  V30 9824 N 988.849 0.203349 -1.56283 0
M  V30 9825 C 989.779 1.2549 -1.96912 0
M  V30 9826 C 990.76 1.47919 -0.839884 0
M  V30 9827 O 991.945 1.59795 -1.10359 0
M  V30 9828 C 989.075 2.6009 -2.30153 0
M  V30 9829 C 988.029 2.52289 -3.45738 0
M  V30 9830 C 987.355 3.91086 -3.64632 0
M  V30 9831 C 988.655 2.05503 -4.80173 0
M  V30 9832 H 990.349 0.917306 -2.85002 0
M  V30 9833 H 987.895 0.439818 -1.37119 0
M  V30 9834 H 989.848 3.33829 -2.5717 0
M  V30 9835 H 988.572 2.95574 -1.38937 0
M  V30 9836 H 987.231 1.81006 -3.18798 0
M  V30 9837 H 986.879 4.23908 -2.7076 0
M  V30 9838 H 986.579 3.86742 -4.42385 0
M  V30 9839 H 988.103 4.66459 -3.94016 0
M  V30 9840 H 989.517 2.68995 -5.06275 0
M  V30 9841 H 987.914 2.1218 -5.61337 0
M  V30 9842 H 988.984 1.00793 -4.74309 0
M  V30 9843 N 990.327 1.50405 0.470755 0
M  V30 9844 C 991.576 1.60652 1.21959 0
M  V30 9845 C 991.889 0.312521 1.93087 0
M  V30 9846 O 993.095 0.293901 2.69905 0
M  V30 9847 C 991.551 2.83581 2.21607 0
M  V30 9848 C 991.159 4.19858 1.5628 0
M  V30 9849 C 992.903 3.03173 2.9713 0
M  V30 9850 C 990.81 5.33974 2.54217 0
M  V30 9851 H 989.74 0.598264 0.458907 0
M  V30 9852 H 992.391 1.76836 0.490041 0
M  V30 9853 H 990.773 2.60957 2.97855 0
M  V30 9854 H 991.947 4.52738 0.85819 0
M  V30 9855 H 990.262 4.05873 0.930366 0
M  V30 9856 H 992.859 3.856 3.70428 0
M  V30 9857 H 993.202 2.14914 3.56536 0
M  V30 9858 H 993.735 3.2598 2.27995 0
M  V30 9859 H 990.474 6.24388 1.99549 0
M  V30 9860 H 989.994 5.05511 3.22829 0
M  V30 9861 H 991.673 5.64561 3.16039 0
M  V30 9862 N 991.805 -0.723954 1.39988 0
M  V30 9863 C 992.715 -1.86829 1.41887 0
M  V30 9864 C 993.731 -1.71173 0.312401 0
M  V30 9865 O 994.907 -1.93583 0.555651 0
M  V30 9866 C 991.972 -3.22541 1.27154 0
M  V30 9867 C 991.033 -3.50512 2.47871 0
M  V30 9868 C 990.266 -4.79749 2.33831 0
M  V30 9869 O 990.489 -5.54251 1.34765 0
M  V30 9870 O 989.423 -5.07868 3.23039 0
M  V30 9871 H 993.249 -1.88183 2.38371 0
M  V30 9872 H 990.834 -0.873259 1.21221 0
M  V30 9873 H 992.716 -4.0362 1.21114 0
M  V30 9874 H 991.391 -3.21933 0.337715 0
M  V30 9875 H 990.298 -2.69475 2.59488 0
M  V30 9876 H 991.631 -3.55909 3.39985 0
M  V30 9877 N 993.283 -1.25346 -0.955304 0
M  V30 9878 C 994.532 -1.0945 -1.69421 0
M  V30 9879 C 994.845 0.364459 -1.92175 0
M  V30 9880 O 996.051 0.643843 -2.63755 0
M  V30 9881 C 994.507 -1.91045 -3.05008 0
M  V30 9882 C 994.115 -3.41428 -2.90053 0
M  V30 9883 C 995.859 -1.83716 -3.82686 0
M  V30 9884 C 993.766 -4.1532 -4.21026 0
M  V30 9885 H 992.696 -0.405978 -0.635372 0
M  V30 9886 H 995.347 -1.49536 -1.06354 0
M  V30 9887 H 993.729 -1.43781 -3.68975 0
M  V30 9888 H 994.903 -3.9636 -2.35022 0
M  V30 9889 H 993.218 -3.49842 -2.25831 0
M  V30 9890 H 995.815 -2.36217 -4.79693 0
M  V30 9891 H 996.158 -0.804919 -4.08444 0
M  V30 9892 H 996.691 -2.28726 -3.25468 0
M  V30 9893 H 993.43 -5.18955 -4.00457 0
M  V30 9894 H 992.95 -3.65172 -4.75825 0
M  V30 9895 H 994.629 -4.22999 -4.89572 0
M  V30 9896 N 994.761 1.15782 -1.06922 0
M  V30 9897 C 995.691 2.22538 -0.707045 0
M  V30 9898 C 996.672 1.67371 0.303471 0
M  V30 9899 O 997.857 1.9339 0.177189 0
M  V30 9900 C 994.987 3.47158 -0.0994269 0
M  V30 9901 C 993.941 4.15257 -1.03661 0
M  V30 9902 C 993.267 5.33902 -0.291974 0
M  V30 9903 C 994.567 4.65516 -2.36837 0
M  V30 9904 H 996.261 2.53089 -1.59958 0
M  V30 9905 H 993.807 1.21649 -0.770552 0
M  V30 9906 H 995.76 4.21073 0.165852 0
M  V30 9907 H 994.484 3.15926 0.828155 0
M  V30 9908 H 993.143 3.43276 -1.28674 0
M  V30 9909 H 992.791 4.98926 0.638928 0
M  V30 9910 H 992.491 5.80407 -0.916613 0
M  V30 9911 H 994.015 6.1059 -0.0343915 0
M  V30 9912 H 995.429 5.30981 -2.16175 0
M  V30 9913 H 993.826 5.22666 -2.94856 0
M  V30 9914 H 994.896 3.81387 -2.99453 0
M  V30 9915 N 996.239 0.8527 1.3254 0
M  V30 9916 C 997.464 0.468157 2.02047 0
M  V30 9917 C 997.889 -0.926967 1.63673 0
M  V30 9918 O 997.247 -1.60855 0.836378 0
M  V30 9919 C 997.295 0.612519 3.5536 0
M  V30 9920 O 996.399 -0.355506 4.10865 0
M  V30 9921 H 995.74 0.188401 0.636711 0
M  V30 9922 H 998.27 1.15135 1.6913 0
M  V30 9923 H 998.28 0.499315 4.04933 0
M  V30 9924 H 996.955 1.62988 3.82632 0
M  V30 9925 H 995.532 -0.198703 3.7237 0
M  V30 9926 N 997.718 -1.45297 0.610449 0
M  V30 9927 C 998.628 -2.34349 -0.108475 0
M  V30 9928 C 999.644 -1.51409 -0.857397 0
M  V30 9929 O 1000.82 -1.84202 -0.814337 0
M  V30 9930 C 997.885 -3.29072 -1.09144 0
M  V30 9931 C 996.946 -4.27918 -0.344165 0
M  V30 9932 C 996.179 -5.18116 -1.28031 0
M  V30 9933 O 996.402 -5.11802 -2.51824 0
M  V30 9934 O 995.336 -5.96879 -0.775821 0
M  V30 9935 H 999.162 -2.97232 0.623421 0
M  V30 9936 H 996.747 -1.44728 0.3707 0
M  V30 9937 H 998.629 -3.87433 -1.65751 0
M  V30 9938 H 997.304 -2.68749 -1.80431 0
M  V30 9939 H 996.211 -3.73164 0.264437 0
M  V30 9940 H 997.544 -4.91104 0.328275 0
M  V30 9941 N 999.196 -0.349774 -1.5367 0
M  V30 9942 C 1000.14 0.504121 -2.25227 0
M  V30 9943 C 1001.11 1.09048 -1.2529 0
M  V30 9944 O 1002.3 1.12594 -1.54037 0
M  V30 9945 C 999.438 1.64601 -3.03316 0
M  V30 9946 C 998.551 1.08635 -4.18118 0
M  V30 9947 C 997.686 2.19605 -4.83681 0
M  V30 9948 C 996.725 1.61023 -5.90541 0
M  V30 9949 N 995.862 2.6576 -6.49858 0
M  V30 9950 H 1000.7 -0.112621 -2.97787 0
M  V30 9951 H 998.239 -0.0673503 -1.46946 0
M  V30 9952 H 1000.2 2.31836 -3.46854 0
M  V30 9953 H 998.827 2.23364 -2.33041 0
M  V30 9954 H 997.879 0.304748 -3.79177 0
M  V30 9955 H 999.191 0.617911 -4.94958 0
M  V30 9956 H 998.345 2.94693 -5.30322 0
M  V30 9957 H 997.084 2.69795 -4.06278 0
M  V30 9958 H 996.089 0.844428 -5.43277 0
M  V30 9959 H 997.314 1.11677 -6.69855 0
M  V30 9960 H 995.26 3.15193 -5.75317 0
M  V30 9961 H 995.177 2.23557 -7.2219 0
M  V30 9962 H 996.445 3.40598 -7.01151 0
M  V30 9963 N 1000.67 1.57404 -0.0785433 0
M  V30 9964 C 1001.64 2.11977 0.871693 0
M  V30 9965 C 1002.64 1.04529 1.2219 0
M  V30 9966 O 1003.83 1.30488 1.15406 0
M  V30 9967 C 1000.96 2.6267 2.17296 0
M  V30 9968 H 1002.15 2.97246 0.398115 0
M  V30 9969 H 999.705 1.5537 0.170251 0
M  V30 9970 H 1000.44 1.80873 2.69175 0
M  V30 9971 H 1000.22 3.41214 1.93171 0
M  V30 9972 H 1001.71 3.04943 2.85306 0
M  V30 9973 N 1002.15 -0.195058 1.56388 0
M  V30 9974 C 1003.4 -0.913636 1.8027 0
M  V30 9975 C 1003.72 -1.83791 0.651606 0
M  V30 9976 O 1002.99 -1.931 -0.330057 0
M  V30 9977 H 1001.57 -0.34036 0.664954 0
M  V30 9978 H 1004.23 -0.200559 1.93865 0
M  V30 9979 H 1003.33 -1.50473 2.7343 0
M  V30 9980 N 1003.63 -1.50653 -0.462772 0
M  V30 9981 C 1004.88 -1.61296 -1.21105 0
M  V30 9982 C 1005.19 -0.322757 -1.92919 0
M  V30 9983 O 1006.4 -0.308211 -2.69745 0
M  V30 9984 C 1004.85 -2.84752 -2.201 0
M  V30 9985 C 1004.46 -4.20681 -1.54051 0
M  V30 9986 C 1006.21 -3.04744 -2.95518 0
M  V30 9987 C 1004.11 -5.35314 -2.51381 0
M  V30 9988 H 1003.04 -0.60069 -0.455728 0
M  V30 9989 H 1005.69 -1.77093 -0.480656 0
M  V30 9990 H 1004.08 -2.62532 -2.96467 0
M  V30 9991 H 1005.25 -4.53187 -0.834168 0
M  V30 9992 H 1003.56 -4.06361 -0.908828 0
M  V30 9993 H 1006.16 -3.87559 -3.68378 0
M  V30 9994 H 1006.5 -2.16802 -3.55391 0
M  V30 9995 H 1007.04 -3.27185 -2.26263 0
M  V30 9996 H 1003.78 -6.25437 -1.96235 0
M  V30 9997 H 1003.3 -5.07216 -3.20144 0
M  V30 9998 H 1004.98 -5.66229 -3.1304 0
M  V30 9999 N 1005.11 0.71652 -1.4037 0
M  V30 10000 C 1006.36 1.47193 -1.37903 0
M  V30 10001 C 1006.67 1.95593 0.0159939 0
M  V30 10002 O 1007.88 2.71009 0.163282 0
M  V30 10003 C 1006.33 2.6606 -2.42363 0
M  V30 10004 C 1005.94 2.24533 -3.87671 0
M  V30 10005 C 1007.68 3.438 -2.49001 0
M  V30 10006 C 1005.59 3.40234 -4.8373 0
M  V30 10007 H 1004.52 0.552811 -0.512753 0
M  V30 10008 H 1007.17 0.779894 -1.66102 0
M  V30 10009 H 1005.55 3.37429 -2.07262 0
M  V30 10010 H 1006.73 1.6059 -4.31911 0
M  V30 10011 H 1005.04 1.59839 -3.845 0
M  V30 10012 H 1007.64 4.29893 -3.17956 0
M  V30 10013 H 1007.98 3.8755 -1.52023 0
M  V30 10014 H 1008.52 2.79474 -2.83088 0
M  V30 10015 H 1005.26 3.01517 -5.82037 0
M  V30 10016 H 1004.78 4.03095 -4.44156 0
M  V30 10017 H 1006.45 4.06312 -5.03507 0
M  V30 10018 N 1006.59 1.25851 0.948643 0
M  V30 10019 C 1007.52 1.02549 2.04979 0
M  V30 10020 C 1008.53 -0.0115923 1.62796 0
M  V30 10021 O 1009.72 0.227643 1.77042 0
M  V30 10022 C 1006.82 0.529486 3.34738 0
M  V30 10023 C 1005.99 1.6341 4.05729 0
M  V30 10024 C 1005.05 1.13743 5.1376 0
M  V30 10025 O 1004.08 1.83303 5.38877 0
M  V30 10026 N 1005.28 -0.0181151 5.80497 0
M  V30 10027 H 1008.05 1.97365 2.25537 0
M  V30 10028 H 1005.61 1.17137 1.11761 0
M  V30 10029 H 1007.6 0.181566 4.04293 0
M  V30 10030 H 1006.17 -0.324893 3.10907 0
M  V30 10031 H 1005.39 2.15331 3.30191 0
M  V30 10032 H 1006.68 2.37603 4.49914 0
M  V30 10033 H 1006.07 -0.599198 5.62518 0
M  V30 10034 H 1004.63 -0.307019 6.51077 0
M  V30 10035 N 1008.06 -1.15214 1.07534 0
M  V30 10036 C 1009.34 -1.82155 0.71267 0
M  V30 10037 C 1009.72 -1.95163 -0.804655 0
M  V30 10038 O 1009.07 -1.50451 -1.71979 0
M  V30 10039 C 1009.28 -3.18392 1.42925 0
M  V30 10040 C 1010.63 -3.94005 1.58256 0
M  V30 10041 O 1011.65 -3.27952 1.39018 0
M  V30 10042 O 1010.51 -5.12436 1.89925 0
M  V30 10043 H 1007.6 -0.78709 0.253808 0
M  V30 10044 H 1010.15 -1.22309 1.17638 0
M  V30 10045 H 1008.92 -3.04034 2.46331 0
M  V30 10046 H 1008.55 -3.85925 0.956439 0
M  V30 10047 N 1009.54 -0.859717 -1.32086 0
M  V30 10048 C 1010.77 -0.479724 -2.01262 0
M  V30 10049 C 1011.19 0.924985 -1.64589 0
M  V30 10050 O 1010.54 1.60439 -0.869803 0
M  V30 10051 C 1010.59 -0.615128 -3.56228 0
M  V30 10052 O 1010.31 -1.96451 -3.91585 0
M  V30 10053 C 1011.82 -0.234804 -4.42678 0
M  V30 10054 H 1009.04 -0.188007 -0.644123 0
M  V30 10055 H 1011.58 -1.15805 -1.68551 0
M  V30 10056 H 1009.73 0.0155268 -3.87397 0
M  V30 10057 H 1010.15 -1.96491 -4.86304 0
M  V30 10058 H 1011.62 -0.380534 -5.50687 0
M  V30 10059 H 1012.1 0.825189 -4.31378 0
M  V30 10060 H 1012.71 -0.840739 -4.16907 0
M  V30 10061 N 1011.02 1.44971 -0.618145 0
M  V30 10062 C 1012.27 2.03009 -0.126125 0
M  V30 10063 C 1012.62 1.47656 1.23351 0
M  V30 10064 O 1011.91 0.645901 1.80385 0
M  V30 10065 C 1012.11 3.57378 -0.0394861 0
M  V30 10066 C 1011.94 4.27706 -1.38918 0
M  V30 10067 C 1010.71 4.65206 -1.97261 0
M  V30 10068 C 1012.91 4.58987 -2.32024 0
M  V30 10069 N 1010.89 5.2044 -3.256 0
M  V30 10070 C 1012.26 5.15167 -3.44969 0
M  V30 10071 C 1014.31 4.40932 -2.31265 0
M  V30 10072 C 1013.02 5.55193 -4.57333 0
M  V30 10073 C 1015.04 4.81997 -3.42684 0
M  V30 10074 C 1014.4 5.38279 -4.54352 0
M  V30 10075 H 1010.5 0.77683 -0.0897695 0
M  V30 10076 H 1013.09 1.76646 -0.818805 0
M  V30 10077 H 1011.26 3.8338 0.622441 0
M  V30 10078 H 1012.99 4.02075 0.460165 0
M  V30 10079 H 1009.75 4.49102 -1.50348 0
M  V30 10080 H 1010.17 5.52546 -3.9118 0
M  V30 10081 H 1014.81 3.96723 -1.46187 0
M  V30 10082 H 1012.53 5.98362 -5.43128 0
M  V30 10083 H 1016.12 4.69751 -3.43257 0
M  V30 10084 H 1015 5.6947 -5.39142 0
M  V30 10085 N 1012.5 0.357919 1.53482 0
M  V30 10086 C 1013.45 -0.50845 2.22258 0
M  V30 10087 C 1014.43 -1.05476 1.21506 0
M  V30 10088 O 1015.62 -0.986075 1.46988 0
M  V30 10089 C 1012.75 -1.65157 3.00962 0
M  V30 10090 C 1011.84 -1.11851 4.09084 0
M  V30 10091 N 1012.23 -0.307818 5.04862 0
M  V30 10092 C 1010.53 -1.39405 4.23653 0
M  V30 10093 C 1011.23 -0.016842 5.81698 0
M  V30 10094 N 1010.21 -0.612396 5.40139 0
M  V30 10095 H 1014.01 0.117836 2.93664 0
M  V30 10096 H 1011.52 0.16553 1.61554 0
M  V30 10097 H 1013.52 -2.28435 3.48745 0
M  V30 10098 H 1012.18 -2.281 2.31086 0
M  V30 10099 H 1013.19 0.0523313 5.17874 0
M  V30 10100 H 1009.87 -2.02682 3.65002 0
M  V30 10101 H 1011.26 0.638046 6.68864 0
M  V30 10102 N 1013.98 -1.5736 0.0868897 0
M  V30 10103 C 1014.92 -2.13571 -0.874996 0
M  V30 10104 C 1015.89 -1.0521 -1.2853 0
M  V30 10105 O 1017.08 -1.32954 -1.3685 0
M  V30 10106 C 1014.22 -2.71386 -2.13175 0
M  V30 10107 C 1013.33 -3.93953 -1.77272 0
M  V30 10108 C 1012.47 -4.3996 -2.97671 0
M  V30 10109 C 1011.51 -5.55137 -2.57856 0
M  V30 10110 N 1010.64 -5.96034 -3.71064 0
M  V30 10111 H 1015.48 -2.95453 -0.388789 0
M  V30 10112 H 1013.02 -1.45992 -0.180242 0
M  V30 10113 H 1014.98 -3.03022 -2.86764 0
M  V30 10114 H 1013.61 -1.92245 -2.5931 0
M  V30 10115 H 1012.66 -3.68683 -0.936845 0
M  V30 10116 H 1013.97 -4.77565 -1.43989 0
M  V30 10117 H 1013.13 -4.73337 -3.79522 0
M  V30 10118 H 1011.86 -3.55232 -3.34158 0
M  V30 10119 H 1010.87 -5.21397 -1.7443 0
M  V30 10120 H 1012.09 -6.41608 -2.22522 0
M  V30 10121 H 1010.04 -5.14253 -4.07284 0
M  V30 10122 H 1009.96 -6.74423 -3.41599 0
M  V30 10123 H 1011.23 -6.34038 -4.53449 0
M  V30 10124 N 1015.45 0.186762 -1.56489 0
M  V30 10125 C 1016.42 1.21511 -1.94339 0
M  V30 10126 C 1017.42 1.38001 -0.82537 0
M  V30 10127 O 1018.61 1.3567 -1.09266 0
M  V30 10128 C 1015.74 2.583 -2.22472 0
M  V30 10129 H 1016.93 0.891371 -2.86347 0
M  V30 10130 H 1014.49 0.428612 -1.50308 0
M  V30 10131 H 1015.22 2.95715 -1.33129 0
M  V30 10132 H 1015.01 2.47701 -3.03951 0
M  V30 10133 H 1016.5 3.32441 -2.5273 0
M  V30 10134 N 1016.93 1.50896 0.454776 0
M  V30 10135 C 1018.16 1.6648 1.22849 0
M  V30 10136 C 1018.58 0.354841 1.85435 0
M  V30 10137 O 1017.93 -0.664931 1.69956 0
M  V30 10138 C 1017.98 2.76787 2.32532 0
M  V30 10139 O 1017.7 4.02706 1.72509 0
M  V30 10140 C 1019.21 3.03488 3.23125 0
M  V30 10141 H 1016.43 0.559152 0.370932 0
M  V30 10142 H 1018.97 1.97215 0.540983 0
M  V30 10143 H 1017.12 2.48701 2.9703 0
M  V30 10144 H 1017.54 4.63834 2.44863 0
M  V30 10145 H 1019.01 3.84294 3.9626 0
M  V30 10146 H 1019.49 2.152 3.82865 0
M  V30 10147 H 1020.1 3.33167 2.64347 0
M  V30 10148 N 1018.41 -0.709066 1.40748 0
M  V30 10149 C 1019.34 -1.83412 1.37451 0
M  V30 10150 C 1020.36 -1.60394 0.27884 0
M  V30 10151 O 1021.54 -1.70147 0.539642 0
M  V30 10152 C 1018.64 -3.19935 1.1178 0
M  V30 10153 C 1017.82 -3.70095 2.33128 0
M  V30 10154 C 1016.88 -4.85249 2.03518 0
M  V30 10155 O 1015.9 -4.97563 2.76442 0
M  V30 10156 N 1017.1 -5.7152 1.01714 0
M  V30 10157 H 1019.87 -1.86736 2.34414 0
M  V30 10158 H 1017.43 -0.890863 1.35186 0
M  V30 10159 H 1019.42 -3.94578 0.899464 0
M  V30 10160 H 1017.99 -3.11718 0.234624 0
M  V30 10161 H 1017.21 -2.8651 2.70751 0
M  V30 10162 H 1018.5 -4.00344 3.1401 0
M  V30 10163 H 1017.9 -5.64188 0.413307 0
M  V30 10164 H 1016.46 -6.46119 0.858696 0
M  V30 10165 N 1019.89 -1.26353 -0.941956 0
M  V30 10166 C 1020.84 -1.07842 -2.04056 0
M  V30 10167 C 1021.81 0.0163064 -1.66092 0
M  V30 10168 O 1022.99 -0.143313 -1.90261 0
M  V30 10169 C 1020.13 -0.716636 -3.37577 0
M  V30 10170 C 1019.24 -1.88754 -3.88582 0
M  V30 10171 C 1018.38 -1.46893 -5.10486 0
M  V30 10172 C 1017.42 -2.60819 -5.53751 0
M  V30 10173 N 1016.56 -2.19646 -6.66858 0
M  V30 10174 H 1021.4 -2.01856 -2.19221 0
M  V30 10175 H 1018.93 -1.00504 -1.07412 0
M  V30 10176 H 1020.89 -0.487768 -4.14339 0
M  V30 10177 H 1019.52 0.18653 -3.22261 0
M  V30 10178 H 1018.57 -2.22936 -3.08227 0
M  V30 10179 H 1019.88 -2.74264 -4.1663 0
M  V30 10180 H 1019.04 -1.20047 -5.94705 0
M  V30 10181 H 1017.78 -0.584721 -4.84182 0
M  V30 10182 H 1016.78 -2.88396 -4.6809 0
M  V30 10183 H 1018.01 -3.49838 -5.82057 0
M  V30 10184 H 1015.95 -1.33657 -6.4224 0
M  V30 10185 H 1015.87 -2.987 -6.94489 0
M  V30 10186 H 1017.14 -1.96009 -7.54454 0
M  V30 10187 N 1021.37 1.14642 -1.08144 0
M  V30 10188 C 1022.62 1.8525 -0.807885 0
M  V30 10189 C 1022.94 1.83194 0.668213 0
M  V30 10190 O 1022.21 1.27848 1.48431 0
M  V30 10191 H 1020.79 0.685909 -0.295868 0
M  V30 10192 H 1023.45 1.38935 -1.36686 0
M  V30 10193 H 1022.54 2.90155 -1.14964 0
M  V30 10194 N 1022.85 0.866709 1.31628 0
M  V30 10195 C 1024.12 0.396828 1.91532 0
M  V30 10196 C 1024.5 -1.12081 1.78889 0
M  V30 10197 O 1023.85 -1.94791 1.19452 0
M  V30 10198 C 1024.06 0.874578 3.37864 0
M  V30 10199 C 1025.41 0.8988 4.14978 0
M  V30 10200 O 1026.43 0.820014 3.46633 0
M  V30 10201 O 1025.29 1.01223 5.37044 0
M  V30 10202 H 1022.39 0.1181 0.818524 0
M  V30 10203 H 1024.93 0.954407 1.40318 0
M  V30 10204 H 1023.7 1.91807 3.41066 0
M  V30 10205 H 1023.33 0.295126 3.96503 0
M  V30 10206 N 1024.32 -1.44642 0.625825 0
M  V30 10207 C 1025.73 -1.85502 0.211175 0
M  V30 10208 C 1026.09 -1.52356 -1.2362 0
M  V30 10209 O 1025.21 -0.959051 -1.93988 0
M  V30 10210 C 1025.81 -3.36702 0.37648 0
M  V30 10211 C 1024.36 -3.76396 0.0163795 0
M  V30 10212 C 1023.51 -2.68517 0.692368 0
M  V30 10213 H 1026.46 -1.35183 0.831333 0
M  V30 10214 H 1026.48 -3.78536 -0.386106 0
M  V30 10215 H 1026 -3.60795 1.42999 0
M  V30 10216 H 1024.1 -3.57919 -1.0356 0
M  V30 10217 H 1024.21 -4.77231 0.422742 0
M  V30 10218 H 1022.57 -2.54377 0.128191 0
M  V30 10219 H 1023.36 -2.95444 1.74837 0
M  V30 10220 N 1025.8 -0.366053 -1.5329 0
M  V30 10221 C 1027.05 0.223824 -2.01561 0
M  V30 10222 C 1027.38 1.48382 -1.25286 0
M  V30 10223 O 1026.66 1.91385 -0.34669 0
M  V30 10224 C 1026.94 0.5153 -3.56394 0
M  V30 10225 C 1026.79 -0.758357 -4.43361 0
M  V30 10226 C 1028.11 1.31568 -4.19974 0
M  V30 10227 H 1025.23 0.0798751 -0.732659 0
M  V30 10228 H 1027.87 -0.491038 -1.83545 0
M  V30 10229 H 1026.02 1.12429 -3.71876 0
M  V30 10230 H 1027.69 -1.39584 -4.39675 0
M  V30 10231 H 1025.94 -1.37862 -4.11311 0
M  V30 10232 H 1026.61 -0.509366 -5.49645 0
M  V30 10233 H 1029.08 0.800514 -4.08327 0
M  V30 10234 H 1027.96 1.48837 -5.28336 0
M  V30 10235 H 1028.22 2.32432 -3.76069 0
M  V30 10236 N 1027.28 1.57312 -0.0952337 0
M  V30 10237 C 1028.24 2.12889 0.849161 0
M  V30 10238 C 1029.24 1.05819 1.21075 0
M  V30 10239 O 1030.43 1.31704 1.14016 0
M  V30 10240 C 1027.56 2.6496 2.14498 0
M  V30 10241 H 1028.76 2.97651 0.366566 0
M  V30 10242 H 1026.31 1.55542 0.153762 0
M  V30 10243 H 1027.05 1.83718 2.67242 0
M  V30 10244 H 1026.83 3.43244 1.89542 0
M  V30 10245 H 1028.32 3.07952 2.82056 0
M  V30 10246 N 1028.76 -0.17846 1.56586 0
M  V30 10247 C 1030.01 -0.894502 1.8078 0
M  V30 10248 C 1030.32 -1.8372 0.67129 0
M  V30 10249 O 1031.53 -2.59509 0.797971 0
M  V30 10250 C 1029.98 -1.64109 3.20306 0
M  V30 10251 C 1029.59 -0.742387 4.41806 0
M  V30 10252 C 1031.33 -2.34578 3.53798 0
M  V30 10253 C 1029.24 -1.4888 5.72354 0
M  V30 10254 H 1028.17 -0.33776 0.674117 0
M  V30 10255 H 1030.82 -0.14752 1.82906 0
M  V30 10256 H 1029.2 -2.43257 3.12477 0
M  V30 10257 H 1030.38 0.011615 4.60799 0
M  V30 10258 H 1028.69 -0.147705 4.16138 0
M  V30 10259 H 1031.29 -2.91004 4.48577 0
M  V30 10260 H 1031.63 -3.09572 2.78336 0
M  V30 10261 H 1032.17 -1.62381 3.63149 0
M  V30 10262 H 1028.9 -0.781325 6.50827 0
M  V30 10263 H 1028.42 -2.21631 5.57351 0
M  V30 10264 H 1030.1 -2.03819 6.14058 0
M  V30 10265 N 1030.24 -1.51135 -0.446768 0
M  V30 10266 C 1031.17 -1.74709 -1.54916 0
M  V30 10267 C 1032.15 -0.596628 -1.59293 0
M  V30 10268 O 1033.33 -0.838356 -1.75172 0
M  V30 10269 C 1030.46 -1.86353 -2.9307 0
M  V30 10270 C 1029.42 -3.01725 -3.03556 0
M  V30 10271 C 1028.74 -2.9854 -4.43597 0
M  V30 10272 C 1030.04 -4.41848 -2.7851 0
M  V30 10273 H 1031.74 -2.67014 -1.3544 0
M  V30 10274 H 1029.28 -1.28489 -0.650131 0
M  V30 10275 H 1031.23 -2.01428 -3.70141 0
M  V30 10276 H 1029.96 -0.906887 -3.13756 0
M  V30 10277 H 1028.62 -2.86339 -2.28922 0
M  V30 10278 H 1028.27 -2.00673 -4.61237 0
M  V30 10279 H 1027.97 -3.76008 -4.51544 0
M  V30 10280 H 1029.49 -3.15696 -5.22655 0
M  V30 10281 H 1030.9 -4.57633 -3.45319 0
M  V30 10282 H 1029.3 -5.2095 -2.97877 0
M  V30 10283 H 1030.37 -4.52536 -1.74182 0
M  V30 10284 N 1031.71 0.701592 -1.41122 0
M  V30 10285 C 1032.66 1.81559 -1.42495 0
M  V30 10286 C 1033.63 1.63722 -0.280078 0
M  V30 10287 O 1034.82 1.84658 -0.480231 0
M  V30 10288 C 1031.96 3.19392 -1.30702 0
M  V30 10289 C 1031.07 3.48704 -2.55009 0
M  V30 10290 C 1030.2 4.76118 -2.35554 0
M  V30 10291 C 1029.24 4.98378 -3.55367 0
M  V30 10292 N 1028.38 6.17014 -3.3502 0
M  V30 10293 H 1033.22 1.7972 -2.37707 0
M  V30 10294 H 1030.76 0.877727 -1.18044 0
M  V30 10295 H 1032.71 3.99004 -1.21867 0
M  V30 10296 H 1031.34 3.20423 -0.391012 0
M  V30 10297 H 1030.4 2.63542 -2.74317 0
M  V30 10298 H 1031.71 3.61057 -3.44151 0
M  V30 10299 H 1030.86 5.63774 -2.24152 0
M  V30 10300 H 1029.6 4.66 -1.43859 0
M  V30 10301 H 1028.61 4.09172 -3.6723 0
M  V30 10302 H 1029.83 5.10359 -4.48007 0
M  V30 10303 H 1027.78 6.0812 -2.4602 0
M  V30 10304 H 1027.69 6.30107 -4.17733 0
M  V30 10305 H 1028.96 7.0742 -3.27379 0
M  V30 10306 N 1033.19 1.2685 0.935242 0
M  V30 10307 C 1034.61 1.04091 1.20984 0
M  V30 10308 C 1034.81 -0.230242 2.0018 0
M  V30 10309 O 1033.86 -0.93778 2.3444 0
M  V30 10310 C 1035.18 2.27586 1.96533 0
M  V30 10311 C 1036.72 2.32547 2.09501 0
M  V30 10312 C 1037.2 3.55751 2.88454 0
M  V30 10313 N 1038.69 3.56263 2.96025 0
M  V30 10314 C 1039.43 4.48262 3.57559 0
M  V30 10315 N 1038.92 5.50557 4.20546 0
M  V30 10316 N 1040.71 4.35901 3.5489 0
M  V30 10317 H 1032.87 2.08484 0.405954 0
M  V30 10318 H 1035.13 0.916548 0.242164 0
M  V30 10319 H 1034.83 3.20076 1.45753 0
M  V30 10320 H 1034.71 2.32305 2.97177 0
M  V30 10321 H 1037.1 1.40568 2.5947 0
M  V30 10322 H 1037.18 2.31836 1.08101 0
M  V30 10323 H 1036.82 4.48063 2.3917 0
M  V30 10324 H 1036.75 3.53711 3.90123 0
M  V30 10325 H 1039.24 2.82278 2.51252 0
M  V30 10326 H 1039.55 6.16935 4.65415 0
M  V30 10327 H 1037.9 5.54407 4.19115 0
M  V30 10328 H 1041.09 3.552 3.04879 0
M  V30 10329 H 1041.26 5.07792 4.02557 0
M  V30 10330 N 1034.67 -1.14067 1.0875 0
M  V30 10331 C 1035.6 -2.18926 0.67852 0
M  V30 10332 C 1036.62 -1.60441 -0.276163 0
M  V30 10333 O 1037.8 -1.78388 -0.0632788 0
M  V30 10334 C 1034.9 -3.38893 -0.0218852 0
M  V30 10335 C 1034.08 -4.26901 0.952582 0
M  V30 10336 C 1033.14 -5.25418 0.286859 0
M  V30 10337 O 1032.16 -5.61512 0.932354 0
M  V30 10338 N 1033.36 -5.72476 -0.961831 0
M  V30 10339 H 1036.13 -2.54629 1.58063 0
M  V30 10340 H 1033.69 -1.29321 0.974042 0
M  V30 10341 H 1035.68 -4.01864 -0.478278 0
M  V30 10342 H 1034.25 -3.01486 -0.826141 0
M  V30 10343 H 1033.47 -3.60812 1.58772 0
M  V30 10344 H 1034.76 -4.82563 1.61279 0
M  V30 10345 H 1034.16 -5.45287 -1.50594 0
M  V30 10346 H 1032.72 -6.37418 -1.36166 0
M  V30 10347 N 1036.15 -0.873678 -1.31166 0
M  V30 10348 C 1037.08 -0.348011 -2.30892 0
M  V30 10349 C 1038.06 0.563092 -1.60509 0
M  V30 10350 O 1039.24 0.479332 -1.88192 0
M  V30 10351 C 1036.37 0.448158 -3.44396 0
M  V30 10352 C 1035.33 -0.370179 -4.26396 0
M  V30 10353 C 1034.65 0.551903 -5.31844 0
M  V30 10354 C 1035.95 -1.60624 -4.96988 0
M  V30 10355 H 1037.65 -1.18134 -2.75109 0
M  V30 10356 H 1035.19 -0.569502 -1.3226 0
M  V30 10357 H 1037.15 0.826458 -4.13216 0
M  V30 10358 H 1035.87 1.31503 -2.98956 0
M  V30 10359 H 1034.53 -0.730472 -3.59249 0
M  V30 10360 H 1034.18 1.41616 -4.82653 0
M  V30 10361 H 1033.88 0.00823478 -5.87599 0
M  V30 10362 H 1035.4 0.926965 -6.03523 0
M  V30 10363 H 1036.82 -1.29917 -5.58386 0
M  V30 10364 H 1035.21 -2.08926 -5.62557 0
M  V30 10365 H 1036.28 -2.357 -4.23761 0
M  V30 10366 N 1037.63 1.44308 -0.633487 0
M  V30 10367 C 1038.54 2.34492 0.0711787 0
M  V30 10368 C 1039.55 1.52754 0.8332 0
M  V30 10369 O 1040.73 1.85475 0.784929 0
M  V30 10370 C 1037.79 3.30767 1.03895 0
M  V30 10371 C 1036.85 4.28412 0.276043 0
M  V30 10372 C 1036.09 5.20087 1.19772 0
M  V30 10373 O 1036.31 5.15743 2.4365 0
M  V30 10374 O 1035.24 5.98038 0.680764 0
M  V30 10375 H 1039.07 2.96203 -0.67063 0
M  V30 10376 H 1036.66 1.4412 -0.393678 0
M  V30 10377 H 1038.54 3.90021 1.59566 0
M  V30 10378 H 1037.21 2.71586 1.76133 0
M  V30 10379 H 1036.12 3.72696 -0.32377 0
M  V30 10380 H 1037.45 4.9052 -0.406364 0
M  V30 10381 N 1039.1 0.374177 1.53094 0
M  V30 10382 C 1040.01 -0.475935 2.29722 0
M  V30 10383 C 1041.03 -1.085 1.36029 0
M  V30 10384 O 1042.21 -1.09408 1.69091 0
M  V30 10385 C 1039.27 -1.59572 3.07795 0
M  V30 10386 C 1038.33 -1.01332 4.17169 0
M  V30 10387 C 1037.57 -2.07975 4.9151 0
M  V30 10388 O 1037.79 -3.29232 4.65793 0
M  V30 10389 O 1036.72 -1.7055 5.77232 0
M  V30 10390 H 1040.55 0.147877 3.0334 0
M  V30 10391 H 1038.13 0.138312 1.48758 0
M  V30 10392 H 1040.02 -2.24658 3.5652 0
M  V30 10393 H 1038.69 -2.20478 2.37005 0
M  V30 10394 H 1037.6 -0.326133 3.72676 0
M  V30 10395 H 1038.93 -0.4487 4.90151 0
M  V30 10396 N 1040.58 -1.57259 0.103575 0
M  V30 10397 C 1041.53 -2.14487 -0.852295 0
M  V30 10398 C 1042.5 -1.06567 -1.27407 0
M  V30 10399 O 1043.68 -1.34398 -1.35432 0
M  V30 10400 C 1040.82 -2.73632 -2.10284 0
M  V30 10401 C 1039.94 -3.95811 -1.73083 0
M  V30 10402 C 1039.07 -4.43093 -2.92988 0
M  V30 10403 C 1038.11 -5.5784 -2.51953 0
M  V30 10404 N 1037.25 -5.99936 -3.64721 0
M  V30 10405 H 1042.09 -2.95849 -0.35743 0
M  V30 10406 H 1039.63 -1.46175 -0.164748 0
M  V30 10407 H 1041.58 -3.06046 -2.83534 0
M  V30 10408 H 1040.21 -1.94985 -2.57256 0
M  V30 10409 H 1039.27 -3.69656 -0.897688 0
M  V30 10410 H 1040.58 -4.79066 -1.38916 0
M  V30 10411 H 1039.73 -4.77335 -3.74481 0
M  V30 10412 H 1038.47 -3.58756 -3.30372 0
M  V30 10413 H 1037.48 -5.23217 -1.6889 0
M  V30 10414 H 1038.7 -6.43932 -2.15705 0
M  V30 10415 H 1036.65 -5.18543 -4.01807 0
M  V30 10416 H 1036.56 -6.78008 -3.34427 0
M  V30 10417 H 1037.83 -6.38812 -4.46699 0
M  V30 10418 N 1042.06 0.170153 -1.56679 0
M  V30 10419 C 1042.97 1.23057 -1.99735 0
M  V30 10420 C 1043.99 1.48374 -0.908912 0
M  V30 10421 O 1045.16 1.60499 -1.21663 0
M  V30 10422 C 1042.23 2.54944 -2.34956 0
M  V30 10423 C 1041.29 2.3748 -3.57634 0
M  V30 10424 C 1040.52 3.63078 -3.91165 0
M  V30 10425 O 1040.74 4.68304 -3.2565 0
M  V30 10426 O 1039.68 3.57119 -4.8451 0
M  V30 10427 H 1043.5 0.895104 -2.9021 0
M  V30 10428 H 1041.09 0.377109 -1.44562 0
M  V30 10429 H 1042.97 3.32742 -2.58574 0
M  V30 10430 H 1041.65 2.88068 -1.47643 0
M  V30 10431 H 1040.55 1.57709 -3.39232 0
M  V30 10432 H 1041.89 2.0928 -4.45491 0
M  V30 10433 N 1043.54 1.5137 0.438746 0
M  V30 10434 C 1044.49 1.72582 1.53245 0
M  V30 10435 C 1045.46 0.567488 1.56105 0
M  V30 10436 O 1046.64 0.80176 1.73137 0
M  V30 10437 C 1043.78 1.85551 2.90972 0
M  V30 10438 C 1042.89 3.13094 2.97652 0
M  V30 10439 C 1042.03 3.16666 4.26493 0
M  V30 10440 C 1041.07 4.38529 4.27035 0
M  V30 10441 N 1040.2 4.39659 5.47398 0
M  V30 10442 H 1045.04 2.65941 1.3446 0
M  V30 10443 H 1042.58 1.31801 0.653206 0
M  V30 10444 H 1044.54 1.91053 3.70884 0
M  V30 10445 H 1043.17 0.956025 3.08318 0
M  V30 10446 H 1042.22 3.16909 2.10412 0
M  V30 10447 H 1043.53 4.03009 2.93914 0
M  V30 10448 H 1042.69 3.21075 5.14777 0
M  V30 10449 H 1041.43 2.24637 4.32885 0
M  V30 10450 H 1040.43 4.34297 3.37144 0
M  V30 10451 H 1041.66 5.31821 4.22307 0
M  V30 10452 H 1039.6 3.50499 5.54514 0
M  V30 10453 H 1039.52 5.23382 5.45534 0
M  V30 10454 H 1040.79 4.48259 6.37718 0
M  V30 10455 N 1045.02 -0.694098 1.41492 0
M  V30 10456 C 1045.95 -1.82042 1.46229 0
M  V30 10457 C 1046.93 -1.67047 0.320803 0
M  V30 10458 O 1048.11 -1.86758 0.53245 0
M  V30 10459 C 1045.24 -3.2019 1.34519 0
M  V30 10460 C 1044.2 -3.49892 2.46495 0
M  V30 10461 C 1043.52 -4.87411 2.1985 0
M  V30 10462 C 1044.82 -3.4872 3.88834 0
M  V30 10463 H 1046.52 -1.78335 2.40493 0
M  V30 10464 H 1044.06 -0.856566 1.15754 0
M  V30 10465 H 1046.02 -3.98699 1.36445 0
M  V30 10466 H 1044.74 -3.24527 0.367406 0
M  V30 10467 H 1043.4 -2.73734 2.43854 0
M  V30 10468 H 1043.05 -4.88375 1.20411 0
M  V30 10469 H 1042.75 -5.08248 2.94885 0
M  V30 10470 H 1044.27 -5.68228 2.23494 0
M  V30 10471 H 1045.68 -4.1723 3.93182 0
M  V30 10472 H 1044.08 -3.81089 4.63564 0
M  V30 10473 H 1045.15 -2.47665 4.16881 0
M  V30 10474 N 1046.49 -1.27344 -0.928501 0
M  V30 10475 C 1047.42 -1.12517 -2.04602 0
M  V30 10476 C 1048.41 -0.0268563 -1.70079 0
M  V30 10477 O 1049.59 -0.201197 -1.93155 0
M  V30 10478 C 1046.72 -0.770749 -3.3864 0
M  V30 10479 C 1045.67 -1.8222 -3.87272 0
M  V30 10480 C 1045 -1.32178 -5.18105 0
M  V30 10481 C 1046.3 -3.22614 -4.10752 0
M  V30 10482 H 1047.99 -2.06 -2.17265 0
M  V30 10483 H 1045.54 -0.991827 -1.04397 0
M  V30 10484 H 1047.49 -0.653843 -4.16297 0
M  V30 10485 H 1046.22 0.19979 -3.25988 0
M  V30 10486 H 1044.88 -1.928 -3.11807 0
M  V30 10487 H 1044.52 -0.340719 -5.01845 0
M  V30 10488 H 1044.22 -2.02474 -5.51614 0
M  V30 10489 H 1045.75 -1.2178 -5.98333 0
M  V30 10490 H 1047.16 -3.1504 -4.78981 0
M  V30 10491 H 1045.56 -3.90614 -4.55566 0
M  V30 10492 H 1046.63 -3.67727 -3.16077 0
M  V30 10493 N 1047.97 1.13488 -1.09353 0
M  V30 10494 C 1048.94 2.17066 -0.735863 0
M  V30 10495 C 1049.94 1.59086 0.234181 0
M  V30 10496 O 1051.13 1.74196 0.012463 0
M  V30 10497 C 1048.26 3.40786 -0.0880975 0
M  V30 10498 H 1049.45 2.50221 -1.65316 0
M  V30 10499 H 1047 1.28304 -0.89263 0
M  V30 10500 H 1047.74 3.1322 0.840462 0
M  V30 10501 H 1047.52 3.8414 -0.786073 0
M  V30 10502 H 1049.01 4.17342 0.146775 0
M  V30 10503 N 1049.45 0.880621 1.30701 0
M  V30 10504 C 1050.68 0.511682 2.00473 0
M  V30 10505 C 1051.09 -0.898684 1.6604 0
M  V30 10506 O 1050.45 -1.59035 0.895218 0
M  V30 10507 C 1050.5 0.671723 3.55204 0
M  V30 10508 O 1050.22 2.02656 3.8841 0
M  V30 10509 C 1051.72 0.3052 4.42248 0
M  V30 10510 H 1048.94 0.198231 0.64105 0
M  V30 10511 H 1051.49 1.18472 1.66687 0
M  V30 10512 H 1049.64 0.0461066 3.87373 0
M  V30 10513 H 1050.06 2.04202 4.83117 0
M  V30 10514 H 1051.53 0.468095 5.50012 0
M  V30 10515 H 1052.01 -0.756456 4.32637 0
M  V30 10516 H 1052.61 0.906959 4.15517 0
M  V30 10517 N 1050.93 -1.4397 0.641131 0
M  V30 10518 C 1051.84 -2.34526 -0.058742 0
M  V30 10519 C 1052.86 -1.53194 -0.825088 0
M  V30 10520 O 1054.03 -1.85888 -0.775081 0
M  V30 10521 C 1051.1 -3.31313 -1.02139 0
M  V30 10522 C 1050.16 -4.28552 -0.253319 0
M  V30 10523 C 1049.39 -5.20715 -1.17012 0
M  V30 10524 O 1049.61 -5.17028 -2.40911 0
M  V30 10525 O 1048.55 -5.9839 -0.649039 0
M  V30 10526 H 1052.37 -2.95843 0.686329 0
M  V30 10527 H 1049.96 -1.43909 0.401316 0
M  V30 10528 H 1051.84 -3.90862 -1.57496 0
M  V30 10529 H 1050.52 -2.72516 -1.7469 0
M  V30 10530 H 1049.42 -3.72519 0.343531 0
M  V30 10531 H 1050.76 -4.90297 0.432372 0
M  V30 10532 N 1052.41 -0.382291 -1.52893 0
M  V30 10533 C 1053.34 0.491199 -2.23875 0
M  V30 10534 C 1054.35 1.03249 -1.25871 0
M  V30 10535 O 1055.54 0.936016 -1.5199 0
M  V30 10536 C 1052.64 1.6927 -2.936 0
M  V30 10537 C 1051.81 1.28 -4.18252 0
M  V30 10538 C 1050.87 2.34541 -4.71038 0
M  V30 10539 O 1049.9 1.96239 -5.34302 0
M  V30 10540 N 1051.1 3.6636 -4.50289 0
M  V30 10541 H 1053.87 -0.116897 -2.99472 0
M  V30 10542 H 1051.43 -0.208296 -1.60554 0
M  V30 10543 H 1053.42 2.40054 -3.25816 0
M  V30 10544 H 1051.99 2.20729 -2.21354 0
M  V30 10545 H 1051.21 0.40133 -3.92152 0
M  V30 10546 H 1052.5 0.98082 -4.99257 0
M  V30 10547 H 1051.9 4.00245 -3.99775 0
M  V30 10548 H 1050.45 4.332 -4.87013 0
M  V30 10549 N 1053.89 1.57202 -0.111913 0
M  V30 10550 C 1054.8 2.18475 0.854753 0
M  V30 10551 C 1055.81 1.15888 1.29792 0
M  V30 10552 O 1056.99 1.48329 1.36237 0
M  V30 10553 C 1054.05 2.76645 2.0897 0
M  V30 10554 C 1053.11 3.94244 1.69913 0
M  V30 10555 C 1052.35 4.49631 2.8752 0
M  V30 10556 O 1052.57 4.03926 4.02741 0
M  V30 10557 O 1051.5 5.40417 2.65015 0
M  V30 10558 H 1055.33 3.01519 0.363352 0
M  V30 10559 H 1052.91 1.4897 0.113329 0
M  V30 10560 H 1054.8 3.13755 2.81311 0
M  V30 10561 H 1053.47 1.96637 2.5713 0
M  V30 10562 H 1052.38 3.61915 0.947013 0
M  V30 10563 H 1053.71 4.75666 1.26501 0
M  V30 10564 N 1055.36 -0.161842 1.56767 0
M  V30 10565 C 1056.64 -0.904754 1.73417 0
M  V30 10566 C 1057.02 -1.99987 0.675908 0
M  V30 10567 O 1056.37 -2.26419 -0.307712 0
M  V30 10568 C 1056.58 -1.46082 3.16956 0
M  V30 10569 C 1057.93 -1.93004 3.78199 0
M  V30 10570 O 1058.95 -1.55856 3.20293 0
M  V30 10571 O 1057.81 -2.61465 4.79894 0
M  V30 10572 H 1054.9 -0.426518 0.708528 0
M  V30 10573 H 1057.45 -0.148928 1.69045 0
M  V30 10574 H 1056.22 -0.673087 3.85468 0
M  V30 10575 H 1055.84 -2.28056 3.25693 0
M  V30 10576 N 1056.84 -1.516 -0.430713 0
M  V30 10577 C 1057.8 -1.72794 -1.50582 0
M  V30 10578 C 1058.8 -0.597903 -1.49271 0
M  V30 10579 O 1059.99 -0.865535 -1.51176 0
M  V30 10580 C 1057.13 -1.79049 -2.90093 0
M  V30 10581 H 1058.32 -2.68751 -1.33091 0
M  V30 10582 H 1055.87 -1.4169 -0.659822 0
M  V30 10583 H 1056.61 -0.849309 -3.12981 0
M  V30 10584 H 1056.39 -2.61181 -2.92449 0
M  V30 10585 H 1057.88 -1.97262 -3.68072 0
M  V30 10586 N 1058.32 0.686584 -1.41858 0
M  V30 10587 C 1059.28 1.78214 -1.44126 0
M  V30 10588 C 1060.28 1.57366 -0.330541 0
M  V30 10589 O 1061.47 1.63874 -0.590837 0
M  V30 10590 C 1058.6 3.16704 -1.26142 0
M  V30 10591 H 1059.8 1.77594 -2.41661 0
M  V30 10592 H 1057.35 0.895085 -1.28132 0
M  V30 10593 H 1058.09 3.22957 -0.294823 0
M  V30 10594 H 1057.87 3.33238 -2.06627 0
M  V30 10595 H 1059.36 3.96658 -1.30584 0
M  V30 10596 N 1059.8 1.27835 0.921735 0
M  V30 10597 C 1061.04 1.14692 1.67253 0
M  V30 10598 C 1061.38 -0.305384 1.91784 0
M  V30 10599 O 1060.65 -1.22286 1.51249 0
M  V30 10600 C 1060.93 1.93743 3.03539 0
M  V30 10601 C 1060.79 3.46991 2.86212 0
M  V30 10602 C 1062.11 1.74658 4.03959 0
M  V30 10603 H 1059.23 0.418021 0.606983 0
M  V30 10604 H 1061.87 1.5706 1.06922 0
M  V30 10605 H 1060.02 1.57738 3.55037 0
M  V30 10606 H 1061.69 3.92858 2.41785 0
M  V30 10607 H 1059.93 3.73029 2.21432 0
M  V30 10608 H 1060.6 3.97551 3.82958 0
M  V30 10609 H 1063.08 2.06063 3.61493 0
M  V30 10610 H 1061.96 2.32353 4.97296 0
M  V30 10611 H 1062.22 0.696019 4.36587 0
M  V30 10612 N 1061.28 -1.12907 1.09954 0
M  V30 10613 C 1062.24 -2.16673 0.747364 0
M  V30 10614 C 1063.24 -1.59208 -0.225741 0
M  V30 10615 O 1064.43 -1.742 -0.00322482 0
M  V30 10616 C 1061.56 -3.40735 0.106169 0
M  V30 10617 H 1062.75 -2.49341 1.6664 0
M  V30 10618 H 1060.31 -1.27828 0.899421 0
M  V30 10619 H 1061.04 -3.13661 -0.82384 0
M  V30 10620 H 1060.83 -3.83717 0.806434 0
M  V30 10621 H 1062.32 -4.17414 -0.12464 0
M  V30 10622 N 1062.75 -0.88754 -1.30232 0
M  V30 10623 C 1063.7 -0.354497 -2.28061 0
M  V30 10624 C 1064.67 0.556732 -1.56492 0
M  V30 10625 O 1065.86 0.484597 -1.84543 0
M  V30 10626 C 1063 0.422701 -3.42501 0
M  V30 10627 C 1062.11 -0.518036 -4.28883 0
M  V30 10628 C 1061.24 0.275011 -5.30488 0
M  V30 10629 C 1060.28 -0.661032 -6.0852 0
M  V30 10630 N 1059.42 0.0968509 -7.02033 0
M  V30 10631 H 1064.26 -1.19388 -2.73039 0
M  V30 10632 H 1061.8 -0.600091 -1.34303 0
M  V30 10633 H 1063.75 0.889249 -4.07613 0
M  V30 10634 H 1062.38 1.22664 -2.98586 0
M  V30 10635 H 1061.44 -1.10308 -3.64055 0
M  V30 10636 H 1062.75 -1.23504 -4.83268 0
M  V30 10637 H 1061.9 0.803301 -6.01358 0
M  V30 10638 H 1060.64 1.02522 -4.76802 0
M  V30 10639 H 1059.65 -1.20093 -5.36524 0
M  V30 10640 H 1060.87 -1.41037 -6.64293 0
M  V30 10641 H 1058.82 0.829548 -6.50734 0
M  V30 10642 H 1058.73 -0.560476 -7.5392 0
M  V30 10643 H 1060 0.6058 -7.77142 0
M  V30 10644 N 1064.23 1.43628 -0.648757 0
M  V30 10645 C 1065.46 2.06732 -0.166284 0
M  V30 10646 C 1065.88 1.48281 1.15734 0
M  V30 10647 O 1065.24 0.591018 1.71396 0
M  V30 10648 C 1065.29 3.60502 -0.0838732 0
M  V30 10649 O 1064.39 4.01186 0.955185 0
M  V30 10650 H 1063.73 0.657479 -0.0928285 0
M  V30 10651 H 1066.26 1.84208 -0.890421 0
M  V30 10652 H 1066.27 4.07875 0.100923 0
M  V30 10653 H 1064.95 4.02424 -1.05014 0
M  V30 10654 H 1063.53 3.65412 0.743537 0
M  V30 10655 N 1065.71 0.390394 1.52688 0
M  V30 10656 C 1066.66 -0.444229 2.26485 0
M  V30 10657 C 1067.63 -1.05688 1.28138 0
M  V30 10658 O 1068.81 -1.0847 1.56968 0
M  V30 10659 C 1065.95 -1.56501 3.07574 0
M  V30 10660 C 1065.07 -0.975111 4.20851 0
M  V30 10661 C 1064.2 -2.06704 4.89333 0
M  V30 10662 C 1063.24 -1.45309 5.94602 0
M  V30 10663 N 1062.38 -2.48437 6.56676 0
M  V30 10664 H 1067.22 0.191535 2.97384 0
M  V30 10665 H 1064.75 0.106287 1.46716 0
M  V30 10666 H 1066.71 -2.22558 3.52879 0
M  V30 10667 H 1065.34 -2.17107 2.38881 0
M  V30 10668 H 1064.39 -0.204109 3.79852 0
M  V30 10669 H 1065.71 -0.486465 4.96422 0
M  V30 10670 H 1064.86 -2.80528 5.37949 0
M  V30 10671 H 1063.6 -2.58928 4.13289 0
M  V30 10672 H 1062.6 -0.700091 5.45324 0
M  V30 10673 H 1063.83 -0.938775 6.7258 0
M  V30 10674 H 1061.77 -2.99829 5.83471 0
M  V30 10675 H 1061.69 -2.04331 7.27863 0
M  V30 10676 H 1062.96 -3.21888 7.09935 0
M  V30 10677 N 1067.19 -1.57141 0.120249 0
M  V30 10678 C 1068.12 -2.18398 -0.826112 0
M  V30 10679 C 1069.1 -1.12439 -1.27638 0
M  V30 10680 O 1070.28 -1.40679 -1.33877 0
M  V30 10681 C 1067.41 -2.78438 -2.0758 0
M  V30 10682 C 1066.37 -3.89991 -1.76327 0
M  V30 10683 C 1065.69 -4.36844 -3.08336 0
M  V30 10684 C 1066.99 -5.12031 -1.03062 0
M  V30 10685 H 1068.69 -2.97731 -0.315656 0
M  V30 10686 H 1066.23 -1.43213 -0.150387 0
M  V30 10687 H 1068.19 -3.19951 -2.74243 0
M  V30 10688 H 1066.91 -1.96396 -2.60953 0
M  V30 10689 H 1065.57 -3.49055 -1.12053 0
M  V30 10690 H 1065.22 -3.51659 -3.59646 0
M  V30 10691 H 1064.92 -5.1207 -2.88199 0
M  V30 10692 H 1066.44 -4.81009 -3.76116 0
M  V30 10693 H 1067.86 -5.50555 -1.59881 0
M  V30 10694 H 1066.25 -5.92848 -0.930146 0
M  V30 10695 H 1067.32 -4.84897 -0.017582 0
M  V30 10696 N 1068.67 0.153526 -1.5685 0
M  V30 10697 C 1070.08 0.505939 -1.51368 0
M  V30 10698 C 1070.28 1.83721 -0.82757 0
M  V30 10699 O 1069.34 2.49385 -0.395364 0
M  V30 10700 C 1070.65 0.522269 -2.9613 0
M  V30 10701 C 1072.2 0.608238 -3.07033 0
M  V30 10702 C 1072.67 0.655292 -4.53288 0
M  V30 10703 N 1074.17 0.717695 -4.57606 0
M  V30 10704 C 1074.9 0.774977 -5.68139 0
M  V30 10705 N 1074.4 0.792003 -6.88258 0
M  V30 10706 N 1076.19 0.81536 -5.56155 0
M  V30 10707 H 1068.34 -0.71919 -1.99853 0
M  V30 10708 H 1070.6 -0.261466 -0.91123 0
M  V30 10709 H 1070.31 -0.387595 -3.49558 0
M  V30 10710 H 1070.18 1.3625 -3.51733 0
M  V30 10711 H 1072.57 1.50852 -2.53629 0
M  V30 10712 H 1072.65 -0.259014 -2.54485 0
M  V30 10713 H 1072.3 -0.240809 -5.07329 0
M  V30 10714 H 1072.23 1.53894 -5.03611 0
M  V30 10715 H 1074.72 0.7121 -3.7113 0
M  V30 10716 H 1075.03 0.837378 -7.6825 0
M  V30 10717 H 1073.37 0.759986 -6.90832 0
M  V30 10718 H 1076.57 0.799183 -4.61227 0
M  V30 10719 H 1076.74 0.856537 -6.42314 0
M  V30 10720 N 1070.14 1.51827 0.422667 0
M  V30 10721 C 1071.05 1.77066 1.53899 0
M  V30 10722 C 1072.07 0.655541 1.61179 0
M  V30 10723 O 1073.25 0.939448 1.78147 0
M  V30 10724 C 1070.31 1.90372 2.89758 0
M  V30 10725 C 1069.37 3.14256 2.92475 0
M  V30 10726 C 1068.61 3.26918 4.21853 0
M  V30 10727 O 1068.83 2.45164 5.15025 0
M  V30 10728 O 1067.76 4.19989 4.31153 0
M  V30 10729 H 1071.59 2.71791 1.35511 0
M  V30 10730 H 1069.17 1.36506 0.607165 0
M  V30 10731 H 1071.06 2.01024 3.70361 0
M  V30 10732 H 1069.73 0.988347 3.08242 0
M  V30 10733 H 1068.64 3.09072 2.10773 0
M  V30 10734 H 1069.97 4.0553 2.78937 0
M  V30 10735 N 1071.62 -0.679052 1.4222 0
M  V30 10736 C 1072.55 -1.80481 1.48152 0
M  V30 10737 C 1073.53 -1.66698 0.338502 0
M  V30 10738 O 1074.72 -1.86183 0.552228 0
M  V30 10739 C 1071.85 -3.18746 1.37908 0
M  V30 10740 C 1070.8 -3.47258 2.50192 0
M  V30 10741 C 1070.13 -4.85052 2.25008 0
M  V30 10742 C 1071.43 -3.44576 3.92511 0
M  V30 10743 H 1073.12 -1.75774 2.42371 0
M  V30 10744 H 1070.67 -0.844241 1.16656 0
M  V30 10745 H 1072.62 -3.97229 1.40666 0
M  V30 10746 H 1071.35 -3.24119 0.401806 0
M  V30 10747 H 1070 -2.71133 2.46744 0
M  V30 10748 H 1069.65 -4.8707 1.25584 0
M  V30 10749 H 1069.35 -5.05092 3.00259 0
M  V30 10750 H 1070.88 -5.65825 2.29508 0
M  V30 10751 H 1072.29 -4.13036 3.97585 0
M  V30 10752 H 1070.69 -3.76151 4.67579 0
M  V30 10753 H 1071.76 -2.4323 4.19484 0
M  V30 10754 N 1073.1 -1.28322 -0.914942 0
M  V30 10755 C 1074.05 -1.12003 -2.03858 0
M  V30 10756 C 1075.04 -0.0396287 -1.69354 0
M  V30 10757 O 1076.25 -0.198309 -1.78904 0
M  V30 10758 H 1072.62 -0.34552 -0.667922 0
M  V30 10759 H 1074.59 -2.07168 -2.14765 0
M  V30 10760 C 1073.34 -0.797402 -3.38433 0
M  V30 10761 H 1072.67 -1.62071 -3.65476 0
M  V30 10762 H 1074.11 -0.723165 -4.17787 0
M  V30 10763 C 1072.57 0.498807 -3.33187 0
M  V30 10764 O 1073.1 1.52946 -3.71444 0
M  V30 10765 N 1071.3 0.499101 -2.86282 0
M  V30 10766 H 1070.85 -0.340056 -2.55346 0
M  V30 10767 H 1070.81 1.36641 -2.83155 0
M  V30 10768 N 1074.58 1.12322 -1.10551 0
M  V30 10769 C 1075.53 2.18087 -0.755424 0
M  V30 10770 C 1076.5 1.6391 0.268805 0
M  V30 10771 O 1077.68 1.90227 0.147813 0
M  V30 10772 C 1074.82 3.4455 -0.194713 0
M  V30 10773 C 1073.93 4.12775 -1.27439 0
M  V30 10774 C 1073.07 5.26891 -0.675194 0
M  V30 10775 C 1072.11 5.86985 -1.73536 0
M  V30 10776 N 1071.24 6.92512 -1.15635 0
M  V30 10777 H 1076.08 2.47379 -1.66155 0
M  V30 10778 H 1073.62 1.21452 -0.829924 0
M  V30 10779 H 1075.58 4.16936 0.148275 0
M  V30 10780 H 1074.21 3.15671 0.674638 0
M  V30 10781 H 1073.26 3.38556 -1.73448 0
M  V30 10782 H 1074.57 4.53506 -2.07687 0
M  V30 10783 H 1073.73 6.06046 -0.281723 0
M  V30 10784 H 1072.47 4.87442 0.158708 0
M  V30 10785 H 1071.47 5.06517 -2.13825 0
M  V30 10786 H 1072.7 6.28505 -2.57213 0
M  V30 10787 H 1070.64 6.55098 -0.343928 0
M  V30 10788 H 1070.56 7.31848 -1.89565 0
M  V30 10789 H 1071.83 7.75492 -0.789463 0
M  V30 10790 N 1076.06 0.894434 1.2976 0
M  V30 10791 C 1076.97 0.372622 2.31622 0
M  V30 10792 C 1077.98 -0.52996 1.65733 0
M  V30 10793 O 1079.16 -0.420807 1.96955 0
M  V30 10794 C 1076.22 -0.396076 3.4443 0
M  V30 10795 C 1075.28 0.537394 4.25923 0
M  V30 10796 C 1074.52 -0.194713 5.33345 0
M  V30 10797 O 1074.74 -1.41943 5.52457 0
M  V30 10798 O 1073.67 0.460055 6.00139 0
M  V30 10799 H 1077.5 1.21756 2.78225 0
M  V30 10800 H 1075.09 0.65858 1.34101 0
M  V30 10801 H 1076.97 -0.830962 4.13126 0
M  V30 10802 H 1075.64 -1.21716 2.99945 0
M  V30 10803 H 1074.55 1.02129 3.5989 0
M  V30 10804 H 1075.88 1.32475 4.74037 0
M  V30 10805 N 1077.53 -1.43282 0.656365 0
M  V30 10806 C 1078.47 -2.28049 -0.083127 0
M  V30 10807 C 1079.45 -1.40009 -0.826812 0
M  V30 10808 O 1080.63 -1.69452 -0.825736 0
M  V30 10809 C 1077.76 -3.19487 -1.12452 0
M  V30 10810 C 1076.8 -4.23807 -0.478527 0
M  V30 10811 S 1077.64 -5.30218 0.750248 0
M  V30 10812 C 1078.79 -6.25225 -0.290534 0
M  V30 10813 H 1079.02 -2.90419 0.635922 0
M  V30 10814 H 1076.56 -1.47839 0.445303 0
M  V30 10815 H 1078.52 -3.72713 -1.72034 0
M  V30 10816 H 1077.18 -2.56288 -1.81591 0
M  V30 10817 H 1076.37 -4.87901 -1.26368 0
M  V30 10818 H 1075.97 -3.73975 0.043251 0
M  V30 10819 H 1078.26 -6.67568 -1.15579 0
M  V30 10820 H 1079.21 -7.07397 0.315458 0
M  V30 10821 H 1079.61 -5.60999 -0.627751 0
M  V30 10822 N 1079.01 -0.398486 -1.52479 0
M  V30 10823 C 1079.98 0.420206 -2.25315 0
M  V30 10824 C 1080.98 0.982559 -1.27289 0
M  V30 10825 O 1082.17 0.863113 -1.51314 0
M  V30 10826 C 1079.3 1.59045 -3.01525 0
M  V30 10827 H 1080.49 -0.217599 -2.9911 0
M  V30 10828 H 1078.04 -0.150784 -1.55571 0
M  V30 10829 H 1078.78 2.26542 -2.32054 0
M  V30 10830 H 1078.56 1.19382 -3.73484 0
M  V30 10831 H 1080.05 2.16984 -3.56802 0
M  V30 10832 N 1080.49 1.57075 -0.12858 0
M  V30 10833 C 1081.45 2.14643 0.803813 0
M  V30 10834 C 1082.45 1.08363 1.18803 0
M  V30 10835 O 1083.64 1.34093 1.11197 0
M  V30 10836 C 1080.78 2.6945 2.08829 0
M  V30 10837 H 1081.97 2.98362 0.303347 0
M  V30 10838 H 1079.52 1.55833 0.120735 0
M  V30 10839 H 1080.26 1.89345 2.63285 0
M  V30 10840 H 1080.04 3.47187 1.82218 0
M  V30 10841 H 1081.53 3.13865 2.7546 0
M  V30 10842 N 1081.97 -0.145205 1.5693 0
M  V30 10843 C 1082.88 -1.19864 2.01667 0
M  V30 10844 C 1083.9 -1.46909 0.932402 0
M  V30 10845 O 1085.07 -1.58543 1.24201 0
M  V30 10846 C 1082.14 -2.51174 2.38982 0
M  V30 10847 C 1081.2 -2.3176 3.61366 0
M  V30 10848 C 1080.43 -3.56809 3.96892 0
M  V30 10849 O 1080.65 -4.63063 3.33059 0
M  V30 10850 O 1079.59 -3.49366 4.9013 0
M  V30 10851 H 1083.41 -0.848821 2.91597 0
M  V30 10852 H 1081 -0.354063 1.45144 0
M  V30 10853 H 1082.88 -3.28587 2.63835 0
M  V30 10854 H 1081.56 -2.85683 1.52207 0
M  V30 10855 H 1080.46 -1.52293 3.41698 0
M  V30 10856 H 1081.8 -2.02167 4.48764 0
M  V30 10857 N 1083.45 -1.52049 -0.414609 0
M  V30 10858 C 1084.39 -1.74998 -1.5048 0
M  V30 10859 C 1085.36 -0.592251 -1.55182 0
M  V30 10860 O 1086.55 -0.829203 -1.7184 0
M  V30 10861 C 1083.69 -1.90157 -2.87983 0
M  V30 10862 C 1082.8 -3.17789 -2.92633 0
M  V30 10863 C 1081.94 -3.23411 -4.21401 0
M  V30 10864 C 1080.98 -4.45267 -4.20004 0
M  V30 10865 N 1080.11 -4.48312 -5.40334 0
M  V30 10866 H 1084.95 -2.68046 -1.30212 0
M  V30 10867 H 1082.49 -1.32824 -0.632154 0
M  V30 10868 H 1084.45 -1.96929 -3.67797 0
M  V30 10869 H 1083.08 -1.00496 -3.06758 0
M  V30 10870 H 1082.13 -3.20216 -2.05343 0
M  V30 10871 H 1083.44 -4.07634 -2.87465 0
M  V30 10872 H 1082.6 -3.29224 -5.09604 0
M  V30 10873 H 1081.34 -2.31495 -4.29257 0
M  V30 10874 H 1080.34 -4.39606 -3.30192 0
M  V30 10875 H 1081.57 -5.38472 -4.13793 0
M  V30 10876 H 1079.51 -3.59277 -5.48868 0
M  V30 10877 H 1079.43 -5.31994 -5.37139 0
M  V30 10878 H 1080.7 -4.58347 -6.30506 0
M  V30 10879 N 1084.93 0.6715 -1.42579 0
M  V30 10880 C 1085.89 1.76676 -1.46008 0
M  V30 10881 C 1086.89 1.57007 -0.347213 0
M  V30 10882 O 1088.08 1.63238 -0.608185 0
M  V30 10883 C 1085.21 3.15348 -1.29494 0
M  V30 10884 H 1086.4 1.75021 -2.43531 0
M  V30 10885 H 1083.96 0.881444 -1.29075 0
M  V30 10886 H 1084.69 3.22626 -0.32906 0
M  V30 10887 H 1084.48 3.31028 -2.10149 0
M  V30 10888 H 1085.97 3.95251 -1.34784 0
M  V30 10889 N 1086.4 1.28806 0.908124 0
M  V30 10890 C 1087.35 1.13215 2.01125 0
M  V30 10891 C 1088.32 0.0277357 1.66077 0
M  V30 10892 O 1089.51 0.193707 1.89814 0
M  V30 10893 C 1086.65 0.805887 3.35558 0
M  V30 10894 C 1085.76 1.9899 3.83441 0
M  V30 10895 C 1084.89 1.60376 5.06412 0
M  V30 10896 C 1083.93 2.75409 5.46641 0
M  V30 10897 N 1083.07 2.37249 6.60801 0
M  V30 10898 H 1087.91 2.07598 2.13792 0
M  V30 10899 H 1085.45 1.03316 1.0471 0
M  V30 10900 H 1087.4 0.597451 4.129 0
M  V30 10901 H 1086.03 -0.101023 3.22642 0
M  V30 10902 H 1085.09 2.31029 3.02208 0
M  V30 10903 H 1086.4 2.85214 4.09212 0
M  V30 10904 H 1085.55 1.35772 5.91313 0
M  V30 10905 H 1084.29 0.712888 4.82462 0
M  V30 10906 H 1083.3 3.00705 4.60279 0
M  V30 10907 H 1084.52 3.65148 5.72577 0
M  V30 10908 H 1082.47 1.50638 6.3847 0
M  V30 10909 H 1082.38 3.17008 6.86325 0
M  V30 10910 H 1083.65 2.15943 7.48992 0
M  V30 10911 N 1087.88 -1.11734 1.11145 0
M  V30 10912 C 1088.84 -2.15868 0.770303 0
M  V30 10913 C 1089.84 -1.59438 -0.208842 0
M  V30 10914 O 1091.03 -1.74193 0.0152516 0
M  V30 10915 C 1088.17 -3.40603 0.142303 0
M  V30 10916 H 1089.36 -2.4756 1.69276 0
M  V30 10917 H 1086.91 -1.26867 0.912929 0
M  V30 10918 H 1087.65 -3.14517 -0.790526 0
M  V30 10919 H 1087.43 -3.8284 0.847087 0
M  V30 10920 H 1088.92 -4.17523 -0.0803608 0
M  V30 10921 N 1089.36 -0.901303 -1.29284 0
M  V30 10922 C 1090.32 -0.385081 -2.25942 0
M  V30 10923 C 1091.32 0.481626 -1.53418 0
M  V30 10924 O 1092.51 0.286451 -1.71829 0
M  V30 10925 C 1089.64 0.449319 -3.37926 0
M  V30 10926 H 1090.84 -1.23877 -2.7312 0
M  V30 10927 H 1088.39 -0.679586 -1.40753 0
M  V30 10928 H 1089.13 1.32292 -2.9609 0
M  V30 10929 H 1088.91 -0.171731 -3.91724 0
M  V30 10930 H 1090.4 0.801746 -4.09831 0
M  V30 10931 N 1090.84 1.42931 -0.663954 0
M  V30 10932 C 1091.8 2.29197 0.0117626 0
M  V30 10933 C 1092.8 1.42767 0.739875 0
M  V30 10934 O 1093.99 1.64278 0.579509 0
M  V30 10935 C 1091.12 3.2505 1.02738 0
M  V30 10936 H 1092.32 2.90438 -0.747391 0
M  V30 10937 H 1089.87 1.5039 -0.425733 0
M  V30 10938 H 1090.6 2.68726 1.8154 0
M  V30 10939 H 1090.39 3.88785 0.508809 0
M  V30 10940 H 1091.88 3.89771 1.49893 0
M  V30 10941 N 1092.32 0.406567 1.52266 0
M  V30 10942 C 1093.56 -0.169717 2.01386 0
M  V30 10943 C 1093.88 -1.45864 1.29417 0
M  V30 10944 O 1093.15 -1.9136 0.419327 0
M  V30 10945 H 1091.73 -0.0657075 0.744105 0
M  V30 10946 H 1094.4 0.542221 1.87206 0
M  V30 10947 H 1093.49 -0.367659 3.09927 0
M  V30 10948 N 1093.79 -1.57004 0.136909 0
M  V30 10949 C 1094.7 -2.19807 -0.819887 0
M  V30 10950 C 1095.72 -1.17939 -1.27932 0
M  V30 10951 O 1096.9 -1.50478 -1.3386 0
M  V30 10952 C 1093.96 -2.79935 -2.04542 0
M  V30 10953 C 1093.02 -3.96897 -1.6362 0
M  V30 10954 C 1092.26 -4.54148 -2.80331 0
M  V30 10955 O 1092.48 -4.10282 -3.96264 0
M  V30 10956 O 1091.41 -5.44565 -2.56384 0
M  V30 10957 H 1095.24 -3.02058 -0.315337 0
M  V30 10958 H 1092.82 -1.49131 -0.0896151 0
M  V30 10959 H 1094.71 -3.18191 -2.76283 0
M  V30 10960 H 1093.38 -2.00703 -2.53969 0
M  V30 10961 H 1092.29 -3.63376 -0.889316 0
M  V30 10962 H 1093.62 -4.77618 -1.18918 0
M  V30 10963 N 1095.27 0.136881 -1.57004 0
M  V30 10964 C 1096.24 1.15267 -1.98106 0
M  V30 10965 C 1097.24 1.35305 -0.868856 0
M  V30 10966 O 1098.43 1.32126 -1.13527 0
M  V30 10967 C 1095.56 2.51092 -2.30577 0
M  V30 10968 H 1096.75 0.799821 -2.89038 0
M  V30 10969 H 1094.3 0.380576 -1.51596 0
M  V30 10970 H 1095.04 2.9133 -1.42469 0
M  V30 10971 H 1094.82 2.37906 -3.11678 0
M  V30 10972 H 1096.31 3.24232 -2.63179 0
M  V30 10973 N 1096.75 1.52266 0.40654 0
M  V30 10974 C 1097.7 1.75794 1.4955 0
M  V30 10975 C 1098.67 0.600472 1.54866 0
M  V30 10976 O 1099.85 0.838305 1.71397 0
M  V30 10977 C 1096.99 1.91682 2.86971 0
M  V30 10978 C 1096.11 3.19337 2.90943 0
M  V30 10979 C 1095.24 3.25641 4.1968 0
M  V30 10980 C 1094.28 4.47488 4.17637 0
M  V30 10981 N 1093.42 4.51171 5.37949 0
M  V30 10982 H 1098.26 2.68733 1.28789 0
M  V30 10983 H 1095.79 1.33157 0.625102 0
M  V30 10984 H 1097.75 1.98877 3.66748 0
M  V30 10985 H 1096.38 1.02121 3.06221 0
M  V30 10986 H 1095.43 3.21301 2.03642 0
M  V30 10987 H 1096.75 4.09153 2.85299 0
M  V30 10988 H 1095.9 3.31922 5.07851 0
M  V30 10989 H 1094.64 2.33769 4.28023 0
M  V30 10990 H 1093.64 4.41351 3.27856 0
M  V30 10991 H 1094.87 5.40659 4.10932 0
M  V30 10992 H 1092.81 3.62182 5.46955 0
M  V30 10993 H 1092.73 5.34835 5.3431 0
M  V30 10994 H 1094 4.61685 6.28066 0
M  V30 10995 N 1098.23 -0.663929 1.42933 0
M  V30 10996 C 1099.47 -1.42603 1.44195 0
M  V30 10997 C 1099.81 -1.94101 0.0620284 0
M  V30 10998 O 1099.08 -1.71609 -0.91546 0
M  V30 10999 C 1099.37 -2.61522 2.47544 0
M  V30 11000 C 1099.22 -2.15587 3.94769 0
M  V30 11001 C 1100.54 -3.6374 2.47753 0
M  V30 11002 H 1097.66 -0.517189 0.525056 0
M  V30 11003 H 1100.3 -0.75361 1.74415 0
M  V30 11004 H 1098.45 -3.1889 2.21904 0
M  V30 11005 H 1100.12 -1.63303 4.31428 0
M  V30 11006 H 1098.36 -1.47057 4.08114 0
M  V30 11007 H 1099.03 -3.01053 4.62678 0
M  V30 11008 H 1101.51 -3.16111 2.70579 0
M  V30 11009 H 1100.39 -4.44512 3.22025 0
M  V30 11010 H 1100.65 -4.15607 1.50742 0
M  V30 11011 N 1099.71 -1.29285 -0.901281 0
M  V30 11012 C 1100.65 -1.1428 -2.00521 0
M  V30 11013 C 1101.62 -0.0365428 -1.6606 0
M  V30 11014 O 1102.81 -0.203771 -1.89709 0
M  V30 11015 C 1099.95 -0.823671 -3.35126 0
M  V30 11016 C 1099.06 -2.01021 -3.8238 0
M  V30 11017 C 1098.2 -1.6306 -5.05554 0
M  V30 11018 C 1097.24 -2.78304 -5.45173 0
M  V30 11019 N 1096.37 -2.4075 -6.59533 0
M  V30 11020 H 1101.21 -2.08729 -2.12688 0
M  V30 11021 H 1098.75 -1.0387 -1.04161 0
M  V30 11022 H 1100.71 -0.61934 -4.12577 0
M  V30 11023 H 1099.34 0.0839113 -3.22691 0
M  V30 11024 H 1098.39 -2.32629 -3.00978 0
M  V30 11025 H 1099.7 -2.8738 -4.07694 0
M  V30 11026 H 1098.86 -1.38906 -5.90584 0
M  V30 11027 H 1097.59 -0.738464 -4.82077 0
M  V30 11028 H 1096.6 -3.03142 -4.58678 0
M  V30 11029 H 1097.82 -3.68179 -5.70632 0
M  V30 11030 H 1095.77 -1.54022 -6.37662 0
M  V30 11031 H 1095.69 -3.20643 -6.84634 0
M  V30 11032 H 1096.96 -2.19912 -7.47836 0
M  V30 11033 N 1101.18 1.11143 -1.11736 0
M  V30 11034 C 1102.13 2.17274 -0.778513 0
M  V30 11035 C 1103.1 1.64186 0.251405 0
M  V30 11036 O 1104.29 1.90373 0.127629 0
M  V30 11037 C 1101.43 3.44324 -0.231246 0
M  V30 11038 C 1100.54 4.114 -1.31809 0
M  V30 11039 C 1099.67 5.26146 -0.73104 0
M  V30 11040 C 1098.71 5.85112 -1.79752 0
M  V30 11041 N 1097.85 6.91247 -1.22973 0
M  V30 11042 H 1102.69 2.45603 -1.68769 0
M  V30 11043 H 1100.23 1.20565 -0.842759 0
M  V30 11044 H 1102.19 4.1707 0.104045 0
M  V30 11045 H 1100.82 3.16369 0.641119 0
M  V30 11046 H 1099.87 3.36697 -1.77029 0
M  V30 11047 H 1101.18 4.51278 -2.12485 0
M  V30 11048 H 1100.33 6.05713 -0.345987 0
M  V30 11049 H 1099.07 4.87583 0.107 0
M  V30 11050 H 1098.08 5.0422 -2.19185 0
M  V30 11051 H 1099.3 6.25741 -2.63865 0
M  V30 11052 H 1097.25 6.54696 -0.41339 0
M  V30 11053 H 1097.17 7.29796 -1.97316 0
M  V30 11054 H 1098.43 7.74611 -0.87167 0
M  V30 11055 N 1102.66 0.908147 1.28804 0
M  V30 11056 C 1103.59 0.34957 2.26519 0
M  V30 11057 C 1104.61 -0.508845 1.54643 0
M  V30 11058 O 1105.8 -0.324633 1.75523 0
M  V30 11059 C 1102.9 -0.519461 3.34895 0
M  V30 11060 C 1102.07 0.315157 4.36263 0
M  V30 11061 C 1101.13 -0.488059 5.23932 0
M  V30 11062 O 1100.15 0.0974133 5.69117 0
M  V30 11063 N 1101.36 -1.79233 5.52137 0
M  V30 11064 H 1104.12 1.18945 2.75086 0
M  V30 11065 H 1101.68 0.77351 1.42227 0
M  V30 11066 H 1103.67 -1.0634 3.90479 0
M  V30 11067 H 1102.24 -1.26004 2.8608 0
M  V30 11068 H 1101.46 1.04049 3.8022 0
M  V30 11069 H 1102.75 0.886438 5.01019 0
M  V30 11070 H 1102.15 -2.2906 5.1725 0
M  V30 11071 H 1100.71 -2.28322 6.10502 0
M  V30 11072 N 1104.14 -1.42577 0.671525 0
M  V30 11073 C 1105.07 -2.33499 0.00506984 0
M  V30 11074 C 1106.05 -1.50497 -0.792763 0
M  V30 11075 O 1107.24 -1.79109 -0.750574 0
M  V30 11076 C 1104.37 -3.34077 -0.949194 0
M  V30 11077 C 1103.32 -4.27208 -0.260187 0
M  V30 11078 C 1102.65 -5.17968 -1.32716 0
M  V30 11079 C 1103.95 -5.15192 0.858772 0
M  V30 11080 H 1105.64 -2.89477 0.764407 0
M  V30 11081 H 1103.19 -1.39191 0.369043 0
M  V30 11082 H 1105.14 -3.96594 -1.42448 0
M  V30 11083 H 1103.86 -2.76396 -1.73991 0
M  V30 11084 H 1102.52 -3.66082 0.194834 0
M  V30 11085 H 1102.17 -4.56615 -2.10979 0
M  V30 11086 H 1101.87 -5.81104 -0.871293 0
M  V30 11087 H 1103.39 -5.83359 -1.80345 0
M  V30 11088 H 1104.81 -5.71412 0.464844 0
M  V30 11089 H 1103.21 -5.87144 1.24023 0
M  V30 11090 H 1104.28 -4.53787 1.70895 0
M  V30 11091 N 1105.62 -0.414636 -1.52048 0
M  V30 11092 C 1106.86 0.159585 -2.02171 0
M  V30 11093 C 1107.2 1.44321 -1.29943 0
M  V30 11094 O 1106.47 1.90185 -0.407402 0
M  V30 11095 C 1106.76 0.401655 -3.57853 0
M  V30 11096 C 1106.61 -0.899026 -4.40724 0
M  V30 11097 C 1107.93 1.1814 -4.23947 0
M  V30 11098 H 1105.05 0.0565257 -0.734829 0
M  V30 11099 H 1107.69 -0.549183 -1.8189 0
M  V30 11100 H 1105.84 1.00541 -3.75265 0
M  V30 11101 H 1107.51 -1.53502 -4.35011 0
M  V30 11102 H 1105.75 -1.50877 -4.06717 0
M  V30 11103 H 1106.42 -0.683974 -5.47746 0
M  V30 11104 H 1108.9 0.670203 -4.10667 0
M  V30 11105 H 1107.78 1.31953 -5.32804 0
M  V30 11106 H 1108.04 2.2035 -3.83273 0
M  V30 11107 N 1107.1 1.56929 -0.145233 0
M  V30 11108 C 1108.06 2.15483 0.781002 0
M  V30 11109 C 1109.06 1.09617 1.17647 0
M  V30 11110 O 1110.25 1.35265 1.09768 0
M  V30 11111 C 1107.38 2.7165 2.05959 0
M  V30 11112 H 1108.57 2.98667 0.271685 0
M  V30 11113 H 1106.13 1.55952 0.1042 0
M  V30 11114 H 1106.86 1.92127 2.61262 0
M  V30 11115 H 1106.65 3.491 1.78526 0
M  V30 11116 H 1108.14 3.16769 2.72116 0
M  V30 11117 N 1108.58 -0.128553 1.57075 0
M  V30 11118 C 1109.99 -0.481794 1.52154 0
M  V30 11119 C 1110.19 -1.82381 0.856694 0
M  V30 11120 O 1109.25 -2.48725 0.434989 0
M  V30 11121 C 1110.56 -0.475091 2.96923 0
M  V30 11122 C 1112.11 -0.559315 3.07962 0
M  V30 11123 C 1112.58 -0.583095 4.54273 0
M  V30 11124 N 1114.07 -0.644803 4.5869 0
M  V30 11125 C 1114.81 -0.684493 5.693 0
M  V30 11126 N 1114.31 -0.682407 6.89431 0
M  V30 11127 N 1116.1 -0.726777 5.57382 0
M  V30 11128 H 1108.25 0.750894 1.98684 0
M  V30 11129 H 1110.51 0.27593 0.906955 0
M  V30 11130 H 1110.22 0.443157 3.48897 0
M  V30 11131 H 1110.09 -1.30637 3.53856 0
M  V30 11132 H 1112.48 -1.46798 2.55997 0
M  V30 11133 H 1112.56 0.299468 2.54041 0
M  V30 11134 H 1112.2 0.32149 5.06881 0
M  V30 11135 H 1112.13 -1.45863 5.05996 0
M  V30 11136 H 1114.63 -0.652967 3.72216 0
M  V30 11137 H 1114.94 -0.715051 7.69485 0
M  V30 11138 H 1113.28 -0.649984 6.91954 0
M  V30 11139 H 1116.47 -0.725704 4.6244 0
M  V30 11140 H 1116.65 -0.754242 6.43596 0
M  V30 11141 N 1110.05 -1.5248 -0.398459 0
M  V30 11142 C 1110.96 -1.79492 -1.51062 0
M  V30 11143 C 1111.98 -0.681101 -1.60116 0
M  V30 11144 O 1113.16 -0.967671 -1.7663 0
M  V30 11145 C 1110.22 -1.94958 -2.86692 0
M  V30 11146 C 1109.28 -3.1887 -2.87438 0
M  V30 11147 C 1108.51 -3.33588 -4.16599 0
M  V30 11148 O 1108.74 -2.53327 -5.11059 0
M  V30 11149 O 1107.67 -4.26795 -4.24416 0
M  V30 11150 H 1111.5 -2.73913 -1.31169 0
M  V30 11151 H 1109.08 -1.37455 -0.585372 0
M  V30 11152 H 1110.96 -2.06891 -3.67116 0
M  V30 11153 H 1109.64 -1.03726 -3.06631 0
M  V30 11154 H 1108.55 -3.12386 -2.0583 0
M  V30 11155 H 1109.88 -4.09917 -2.7245 0
M  V30 11156 N 1111.53 0.65634 -1.43283 0
M  V30 11157 C 1112.46 1.78184 -1.44164 0
M  V30 11158 C 1113.48 1.59249 -0.338177 0
M  V30 11159 O 1114.67 1.68027 -0.60242 0
M  V30 11160 C 1111.77 3.15566 -1.23577 0
M  V30 11161 C 1110.94 3.61187 -2.46704 0
M  V30 11162 C 1110 4.77361 -2.21388 0
M  V30 11163 O 1109.02 4.8696 -2.94718 0
M  V30 11164 N 1110.23 5.67351 -1.22855 0
M  V30 11165 H 1112.99 1.77907 -2.41183 0
M  V30 11166 H 1110.55 0.840076 -1.38399 0
M  V30 11167 H 1112.54 3.90968 -1.04529 0
M  V30 11168 H 1111.11 3.10633 -0.350155 0
M  V30 11169 H 1110.33 2.76263 -2.81198 0
M  V30 11170 H 1111.62 3.88413 -3.28652 0
M  V30 11171 H 1111.02 5.62265 -0.622417 0
M  V30 11172 H 1109.58 6.42487 -1.09791 0
M  V30 11173 N 1113.01 1.29761 0.894412 0
M  V30 11174 C 1113.92 1.1724 2.03204 0
M  V30 11175 C 1114.94 0.0944452 1.73743 0
M  V30 11176 O 1116.11 0.307549 1.99038 0
M  V30 11177 C 1113.18 0.855416 3.35981 0
M  V30 11178 C 1112.24 2.01777 3.78926 0
M  V30 11179 C 1111.47 1.71581 5.05367 0
M  V30 11180 O 1111.69 0.639245 5.66807 0
M  V30 11181 O 1110.63 2.56539 5.44492 0
M  V30 11182 H 1114.45 2.12787 2.16692 0
M  V30 11183 H 1112.04 1.09264 1.0189 0
M  V30 11184 H 1113.92 0.693429 4.15656 0
M  V30 11185 H 1112.6 -0.0702195 3.23624 0
M  V30 11186 H 1111.5 2.23502 2.99996 0
M  V30 11187 H 1112.84 2.92479 3.95875 0
M  V30 11188 N 1114.49 -1.10549 1.12324 0
M  V30 11189 C 1115.74 -1.81851 0.872531 0
M  V30 11190 C 1116.05 -1.86058 -0.603468 0
M  V30 11191 O 1117.26 -2.53553 -0.970736 0
M  V30 11192 C 1115.71 -3.26631 1.51131 0
M  V30 11193 C 1115.32 -3.30725 3.02201 0
M  V30 11194 C 1117.06 -4.02768 1.34082 0
M  V30 11195 C 1114.97 -4.69957 3.59018 0
M  V30 11196 H 1113.9 -0.681422 0.322769 0
M  V30 11197 H 1116.55 -1.24332 1.34959 0
M  V30 11198 H 1114.93 -3.8414 0.961913 0
M  V30 11199 H 1116.11 -2.83046 3.63623 0
M  V30 11200 H 1114.42 -2.68072 3.18632 0
M  V30 11201 H 1117.02 -5.05612 1.73955 0
M  V30 11202 H 1117.36 -4.15328 0.284369 0
M  V30 11203 H 1117.9 -3.51671 1.85937 0
M  V30 11204 H 1114.63 -4.62597 4.64418 0
M  V30 11205 H 1114.15 -5.18008 3.02371 0
M  V30 11206 H 1115.83 -5.38925 3.58007 0
M  V30 11207 N 1115.97 -0.914965 -1.28321 0
M  V30 11208 C 1117.19 -0.564654 -1.99046 0
M  V30 11209 C 1117.61 0.854345 -1.68364 0
M  V30 11210 O 1116.97 1.56605 -0.937068 0
M  V30 11211 C 1117.02 -0.765663 -3.53299 0
M  V30 11212 O 1116.74 -2.12883 -3.829 0
M  V30 11213 C 1118.24 -0.422347 -4.41283 0
M  V30 11214 H 1115.46 -0.215158 -0.635569 0
M  V30 11215 H 1118 -1.2285 -1.63487 0
M  V30 11216 H 1116.16 -0.148795 -3.87114 0
M  V30 11217 H 1116.57 -2.1694 -4.77533 0
M  V30 11218 H 1118.05 -0.613757 -5.48577 0
M  V30 11219 H 1118.52 0.641484 -4.3449 0
M  V30 11220 H 1119.13 -1.01681 -4.12966 0
M  V30 11221 N 1117.44 1.42219 -0.679077 0
M  V30 11222 C 1118.41 2.29197 -0.0125475 0
M  V30 11223 C 1119.41 1.43544 0.724691 0
M  V30 11224 O 1120.6 1.64884 0.562052 0
M  V30 11225 C 1117.73 3.26122 0.992846 0
M  V30 11226 H 1118.92 2.89629 -0.778154 0
M  V30 11227 H 1116.47 1.4993 -0.44166 0
M  V30 11228 H 1117.21 2.70637 1.78679 0
M  V30 11229 H 1116.99 3.89302 0.467544 0
M  V30 11230 H 1118.48 3.91339 1.45751 0
M  V30 11231 N 1118.92 0.422693 1.51826 0
M  V30 11232 C 1120.17 -0.148861 2.02253 0
M  V30 11233 C 1120.5 -1.43629 1.30707 0
M  V30 11234 O 1119.78 -1.89967 0.417482 0
M  V30 11235 C 1120.06 -0.382672 3.58061 0
M  V30 11236 C 1119.91 0.922386 4.40241 0
M  V30 11237 C 1121.23 -1.1589 4.24567 0
M  V30 11238 H 1118.35 -0.0526279 0.735119 0
M  V30 11239 H 1120.99 0.558821 1.81596 0
M  V30 11240 H 1119.14 -0.985495 3.75793 0
M  V30 11241 H 1120.81 1.55806 4.34191 0
M  V30 11242 H 1119.06 1.53032 4.05911 0
M  V30 11243 H 1119.73 0.713012 5.47376 0
M  V30 11244 H 1122.2 -0.648415 4.11017 0
M  V30 11245 H 1121.08 -1.29125 5.33496 0
M  V30 11246 H 1121.34 -2.18315 3.84436 0
M  V30 11247 N 1120.4 -1.5685 0.153553 0
M  V30 11248 C 1121.33 -2.14231 -0.814729 0
M  V30 11249 C 1122.34 -1.09339 -1.20619 0
M  V30 11250 O 1123.53 -1.36592 -1.14913 0
M  V30 11251 C 1120.63 -2.6555 -2.10562 0
M  V30 11252 C 1119.81 -3.94912 -1.8805 0
M  V30 11253 C 1118.87 -4.31476 -3.0119 0
M  V30 11254 O 1117.89 -4.9968 -2.72596 0
M  V30 11255 N 1119.09 -3.91588 -4.28531 0
M  V30 11256 H 1121.86 -2.9794 -0.324277 0
M  V30 11257 H 1119.42 -1.61873 -0.0298087 0
M  V30 11258 H 1121.41 -2.87019 -2.85311 0
M  V30 11259 H 1119.98 -1.86529 -2.5085 0
M  V30 11260 H 1119.2 -3.82002 -0.973024 0
M  V30 11261 H 1120.49 -4.79433 -1.70356 0
M  V30 11262 H 1119.89 -3.36645 -4.54628 0
M  V30 11263 H 1118.44 -4.18095 -5.00039 0
M  V30 11264 N 1121.88 0.120221 -1.57141 0
M  V30 11265 C 1122.84 1.13159 -1.99318 0
M  V30 11266 C 1123.84 1.34376 -0.883158 0
M  V30 11267 O 1125.03 1.30914 -1.14922 0
M  V30 11268 C 1122.16 2.48632 -2.33227 0
M  V30 11269 H 1123.36 0.769119 -2.8987 0
M  V30 11270 H 1120.91 0.364475 -1.51991 0
M  V30 11271 H 1121.64 2.89802 -1.45551 0
M  V30 11272 H 1121.43 2.34587 -3.14184 0
M  V30 11273 H 1122.92 3.21423 -2.66603 0
M  V30 11274 N 1123.36 1.52689 0.390367 0
M  V30 11275 C 1124.77 1.41909 0.730338 0
M  V30 11276 C 1124.97 0.538427 1.94173 0
M  V30 11277 O 1124.03 0.0113527 2.52497 0
M  V30 11278 C 1125.34 2.84737 0.966714 0
M  V30 11279 C 1126.89 2.94206 1.06827 0
M  V30 11280 C 1127.36 4.38042 1.33728 0
M  V30 11281 N 1128.86 4.4136 1.40553 0
M  V30 11282 C 1129.59 5.49735 1.63031 0
M  V30 11283 N 1129.09 6.68197 1.82988 0
M  V30 11284 N 1130.88 5.37276 1.65199 0
M  V30 11285 H 1123.03 2.08469 -0.406766 0
M  V30 11286 H 1125.29 0.940401 -0.11979 0
M  V30 11287 H 1125 3.51385 0.148725 0
M  V30 11288 H 1124.87 3.26909 1.88176 0
M  V30 11289 H 1127.26 2.27726 1.87683 0
M  V30 11290 H 1127.34 2.55463 0.131168 0
M  V30 11291 H 1126.99 5.05087 0.533832 0
M  V30 11292 H 1126.92 4.74336 2.28721 0
M  V30 11293 H 1129.41 3.55976 1.26844 0
M  V30 11294 H 1129.72 7.46567 1.99643 0
M  V30 11295 H 1128.06 6.71228 1.80215 0
M  V30 11296 H 1131.26 4.437 1.49158 0
M  V30 11297 H 1131.43 6.21806 1.82377 0
M  V30 11298 N 1124.83 -0.648732 1.43629 0
M  V30 11299 C 1125.77 -1.77363 1.43589 0
M  V30 11300 C 1126.75 -1.59869 0.296783 0
M  V30 11301 O 1127.93 -1.81991 0.491065 0
M  V30 11302 C 1125.06 -3.1472 1.25175 0
M  V30 11303 C 1124.1 -3.50906 2.4242 0
M  V30 11304 S 1124.94 -3.50372 4.04968 0
M  V30 11305 C 1126.09 -4.90379 3.88946 0
M  V30 11306 H 1126.32 -1.77127 2.38774 0
M  V30 11307 H 1123.86 -0.821778 1.30714 0
M  V30 11308 H 1125.82 -3.93993 1.15239 0
M  V30 11309 H 1124.48 -3.12513 0.315303 0
M  V30 11310 H 1123.67 -4.50813 2.25353 0
M  V30 11311 H 1123.27 -2.79056 2.49006 0
M  V30 11312 H 1125.56 -5.79155 3.51548 0
M  V30 11313 H 1126.51 -5.12498 4.88622 0
M  V30 11314 H 1126.91 -4.64125 3.21323 0
M  V30 11315 N 1126.31 -1.30234 -0.887518 0
M  V30 11316 C 1127.24 -1.12212 -1.99853 0
M  V30 11317 C 1128.26 -0.0660929 -1.62666 0
M  V30 11318 O 1129.45 -0.311853 -1.75755 0
M  V30 11319 C 1126.55 -0.688591 -3.31831 0
M  V30 11320 C 1125.72 -1.82581 -3.97471 0
M  V30 11321 C 1124.78 -1.38126 -5.07748 0
M  V30 11322 O 1123.8 -2.08805 -5.29518 0
M  V30 11323 N 1125.01 -0.258868 -5.79923 0
M  V30 11324 H 1127.77 -2.07901 -2.15864 0
M  V30 11325 H 1125.33 -1.22336 -1.06045 0
M  V30 11326 H 1127.32 -0.374252 -4.02966 0
M  V30 11327 H 1125.89 0.176185 -3.12103 0
M  V30 11328 H 1125.11 -2.3084 -3.19541 0
M  V30 11329 H 1126.4 -2.58798 -4.38065 0
M  V30 11330 H 1125.8 0.330131 -5.64736 0
M  V30 11331 H 1124.36 -0.00396813 -6.518 0
M  V30 11332 N 1127.79 1.09952 -1.12909 0
M  V30 11333 C 1128.75 2.14615 -0.804548 0
M  V30 11334 C 1129.75 1.5975 0.18345 0
M  V30 11335 O 1130.94 1.74147 -0.0429623 0
M  V30 11336 C 1128.08 3.40333 -0.196471 0
M  V30 11337 H 1129.27 2.44835 -1.73193 0
M  V30 11338 H 1126.82 1.25399 -0.932997 0
M  V30 11339 H 1127.56 3.15735 0.740388 0
M  V30 11340 H 1127.34 3.81444 -0.907886 0
M  V30 11341 H 1128.83 4.17598 0.0139264 0
M  V30 11342 N 1129.27 0.921757 1.27833 0
M  V30 11343 C 1130.49 0.574599 1.99281 0
M  V30 11344 C 1130.92 -0.838905 1.68357 0
M  V30 11345 O 1130.28 -1.56196 0.920468 0
M  V30 11346 C 1130.32 0.800027 3.51613 0
M  V30 11347 O 1129.43 -0.137215 4.12172 0
M  V30 11348 H 1128.77 0.221887 0.625829 0
M  V30 11349 H 1131.3 1.23939 1.62789 0
M  V30 11350 H 1131.31 0.71326 4.01717 0
M  V30 11351 H 1129.98 1.83042 3.73455 0
M  V30 11352 H 1128.56 -0.00103872 3.729 0
M  V30 11353 N 1130.75 -1.41857 0.686609 0
M  V30 11354 C 1131.98 -2.05401 0.222238 0
M  V30 11355 C 1132.38 -1.51731 -1.13023 0
M  V30 11356 O 1131.73 -0.656701 -1.71561 0
M  V30 11357 C 1131.79 -3.59381 0.0926608 0
M  V30 11358 C 1131.45 -4.35801 1.37573 0
M  V30 11359 C 1132.45 -4.65678 2.31171 0
M  V30 11360 C 1130.14 -4.75233 1.62661 0
M  V30 11361 C 1132.13 -5.33936 3.48125 0
M  V30 11362 C 1129.82 -5.43229 2.79902 0
M  V30 11363 C 1130.81 -5.72507 3.72458 0
M  V30 11364 O 1130.5 -6.39106 4.87646 0
M  V30 11365 H 1130.23 -0.668126 0.102876 0
M  V30 11366 H 1132.79 -1.82775 0.93714 0
M  V30 11367 H 1131.02 -3.80711 -0.67793 0
M  V30 11368 H 1132.71 -4.04529 -0.333364 0
M  V30 11369 H 1133.47 -4.35704 2.13042 0
M  V30 11370 H 1129.35 -4.51831 0.914862 0
M  V30 11371 H 1132.9 -5.56706 4.20386 0
M  V30 11372 H 1128.79 -5.72621 2.97951 0
M  V30 11373 H 1129.56 -6.576 4.87344 0
M  V30 11374 N 1132.22 -0.430739 -1.51599 0
M  V30 11375 C 1133.64 -0.0826902 -1.59386 0
M  V30 11376 C 1133.84 1.40729 -1.44214 0
M  V30 11377 O 1132.9 2.1765 -1.28002 0
M  V30 11378 C 1134.21 -0.59691 -2.94716 0
M  V30 11379 C 1135.76 -0.556772 -3.08008 0
M  V30 11380 C 1136.23 -1.04786 -4.45852 0
M  V30 11381 N 1137.72 -1.00557 -4.52153 0
M  V30 11382 C 1138.46 -1.35649 -5.57124 0
M  V30 11383 N 1137.95 -1.77994 -6.69545 0
M  V30 11384 N 1139.75 -1.27508 -5.47447 0
M  V30 11385 H 1131.9 -1.40027 -1.59707 0
M  V30 11386 H 1134.16 -0.576606 -0.752482 0
M  V30 11387 H 1133.87 -1.63914 -3.11167 0
M  V30 11388 H 1133.74 -0.0182342 -3.77196 0
M  V30 11389 H 1136.13 0.476457 -2.91228 0
M  V30 11390 H 1136.21 -1.17177 -2.27383 0
M  V30 11391 H 1135.85 -2.07952 -4.63377 0
M  V30 11392 H 1135.78 -0.409461 -5.25006 0
M  V30 11393 H 1138.27 -0.694518 -3.71463 0
M  V30 11394 H 1138.59 -2.03026 -7.45654 0
M  V30 11395 H 1136.93 -1.81916 -6.70769 0
M  V30 11396 H 1140.12 -0.942969 -4.58504 0
M  V30 11397 H 1140.3 -1.55185 -6.29143 0
M  V30 11398 N 1133.7 1.56767 -0.161869 0
M  V30 11399 C 1134.61 2.21083 0.784814 0
M  V30 11400 C 1135.63 1.19959 1.26039 0
M  V30 11401 O 1136.8 1.52588 1.31449 0
M  V30 11402 C 1133.87 2.83153 2.00063 0
M  V30 11403 C 1132.93 3.9945 1.57285 0
M  V30 11404 C 1132.16 4.5855 2.7307 0
M  V30 11405 O 1132.39 4.16534 3.89686 0
M  V30 11406 O 1131.32 5.48575 2.47688 0
M  V30 11407 H 1135.15 3.02522 0.267243 0
M  V30 11408 H 1132.73 1.49255 0.0658783 0
M  V30 11409 H 1134.61 3.22546 2.71186 0
M  V30 11410 H 1133.29 2.04718 2.50744 0
M  V30 11411 H 1132.2 3.64745 0.831393 0
M  V30 11412 H 1133.53 4.7945 1.11304 0
M  V30 11413 N 1135.18 -0.111886 1.57202 0
M  V30 11414 C 1136.13 -1.14287 1.97288 0
M  V30 11415 C 1137.11 -1.36686 0.848868 0
M  V30 11416 O 1138.31 -1.37659 1.11261 0
M  V30 11417 C 1135.44 -2.46759 2.38673 0
M  V30 11418 C 1134.52 -2.27805 3.57723 0
M  V30 11419 N 1134.91 -1.78679 4.73189 0
M  V30 11420 C 1133.21 -2.58435 3.63494 0
M  V30 11421 C 1133.91 -1.736 5.55192 0
M  V30 11422 N 1132.89 -2.18205 4.97883 0
M  V30 11423 H 1136.69 -0.755711 2.84018 0
M  V30 11424 H 1134.2 -0.31954 1.59225 0
M  V30 11425 H 1136.2 -3.21335 2.65611 0
M  V30 11426 H 1134.86 -2.86227 1.53311 0
M  V30 11427 H 1135.87 -1.48121 4.96267 0
M  V30 11428 H 1132.55 -3.0154 2.88755 0
M  V30 11429 H 1133.94 -1.36812 6.57824 0
M  V30 11430 N 1136.66 -1.52894 -0.382264 0
M  V30 11431 C 1137.9 -1.68515 -1.12829 0
M  V30 11432 C 1138.24 -0.427211 -1.89443 0
M  V30 11433 O 1137.51 0.57516 -1.85801 0
M  V30 11434 C 1137.8 -2.92449 -2.10108 0
M  V30 11435 C 1137.65 -4.2836 -1.37214 0
M  V30 11436 C 1138.97 -3.11944 -3.1045 0
M  V30 11437 H 1136.09 -0.613223 -0.408811 0
M  V30 11438 H 1138.73 -1.85503 -0.410921 0
M  V30 11439 H 1136.88 -2.78097 -2.71283 0
M  V30 11440 H 1138.55 -4.54493 -0.789516 0
M  V30 11441 H 1136.79 -4.28532 -0.673973 0
M  V30 11442 H 1137.46 -5.11178 -2.0833 0
M  V30 11443 H 1139.94 -3.25372 -2.59369 0
M  V30 11444 H 1138.82 -4.00125 -3.75754 0
M  V30 11445 H 1139.08 -2.26465 -3.79692 0
M  V30 11446 N 1138.14 0.641106 -1.43971 0
M  V30 11447 C 1139.08 1.75352 -1.50068 0
M  V30 11448 C 1140.05 1.62386 -0.349266 0
M  V30 11449 O 1141.24 1.82455 -0.558118 0
M  V30 11450 C 1138.38 3.13561 -1.4413 0
M  V30 11451 C 1137.49 3.37574 -2.6957 0
M  V30 11452 C 1136.63 4.65698 -2.55535 0
M  V30 11453 C 1135.67 4.82857 -3.76186 0
M  V30 11454 N 1134.8 6.02249 -3.60888 0
M  V30 11455 H 1139.64 1.69477 -2.45116 0
M  V30 11456 H 1137.18 0.826871 -1.2166 0
M  V30 11457 H 1139.14 3.93476 -1.38681 0
M  V30 11458 H 1137.77 3.18476 -0.526563 0
M  V30 11459 H 1136.82 2.5167 -2.85248 0
M  V30 11460 H 1138.13 3.46135 -3.59154 0
M  V30 11461 H 1137.29 5.53759 -2.47862 0
M  V30 11462 H 1136.03 4.59479 -1.63495 0
M  V30 11463 H 1135.03 3.93229 -3.84254 0
M  V30 11464 H 1136.26 4.90898 -4.6925 0
M  V30 11465 H 1134.2 5.97138 -2.71591 0
M  V30 11466 H 1134.12 6.11822 -4.44083 0
M  V30 11467 H 1135.39 6.92898 -3.57088 0
M  V30 11468 N 1139.62 1.30703 0.880598 0
M  V30 11469 C 1140.53 1.19389 2.01949 0
M  V30 11470 C 1141.54 0.112868 1.73634 0
M  V30 11471 O 1142.72 0.328643 1.98701 0
M  V30 11472 C 1139.78 0.891004 3.35055 0
M  V30 11473 C 1138.84 2.05784 3.76764 0
M  V30 11474 C 1138.08 1.76931 5.03519 0
M  V30 11475 O 1138.3 0.699326 5.66097 0
M  V30 11476 O 1137.23 2.623 5.4174 0
M  V30 11477 H 1141.06 2.15073 2.14423 0
M  V30 11478 H 1138.64 1.10339 1.00726 0
M  V30 11479 H 1140.53 0.737476 4.14897 0
M  V30 11480 H 1139.2 -0.0358909 3.2368 0
M  V30 11481 H 1138.11 2.26672 2.97608 0
M  V30 11482 H 1139.44 2.96661 3.9275 0
M  V30 11483 N 1141.09 -1.09351 1.1349 0
M  V30 11484 C 1142.34 -1.81812 0.898452 0
M  V30 11485 C 1142.67 -1.85525 -0.573959 0
M  V30 11486 O 1141.95 -1.32403 -1.42477 0
M  V30 11487 C 1142.23 -3.27921 1.48794 0
M  V30 11488 C 1142.08 -3.32476 3.02952 0
M  V30 11489 C 1143.4 -4.24625 1.15678 0
M  V30 11490 H 1140.52 -0.660074 0.327829 0
M  V30 11491 H 1143.16 -1.28091 1.40331 0
M  V30 11492 H 1141.31 -3.738 1.05858 0
M  V30 11493 H 1142.99 -2.94994 3.54649 0
M  V30 11494 H 1141.23 -2.72037 3.37903 0
M  V30 11495 H 1141.9 -4.35409 3.39298 0
M  V30 11496 H 1144.38 -3.87036 1.52781 0
M  V30 11497 H 1143.25 -5.25194 1.59571 0
M  V30 11498 H 1143.51 -4.42044 0.0705933 0
M  V30 11499 N 1142.57 -0.928524 -1.27343 0
M  V30 11500 C 1143.5 -0.385563 -2.25934 0
M  V30 11501 C 1144.52 0.484178 -1.55433 0
M  V30 11502 O 1145.71 0.296668 -1.76017 0
M  V30 11503 C 1142.81 0.466116 -3.35679 0
M  V30 11504 C 1141.98 -0.384523 -4.35707 0
M  V30 11505 C 1141.04 0.404644 -5.24642 0
M  V30 11506 O 1140.06 -0.187943 -5.6889 0
M  V30 11507 N 1141.27 1.70426 -5.54919 0
M  V30 11508 H 1144.03 -1.23306 -2.73159 0
M  V30 11509 H 1141.59 -0.796039 -1.40978 0
M  V30 11510 H 1143.58 1.00115 -3.92121 0
M  V30 11511 H 1142.15 1.21437 -2.88048 0
M  V30 11512 H 1141.37 -1.10085 -3.78517 0
M  V30 11513 H 1142.66 -0.966033 -4.99545 0
M  V30 11514 H 1142.06 2.20802 -5.20829 0
M  V30 11515 H 1140.62 2.1858 -6.14057 0
M  V30 11516 N 1144.05 1.41491 -0.694123 0
M  V30 11517 C 1144.98 2.29197 0.0112742 0
M  V30 11518 C 1145.99 1.44708 0.745877 0
M  V30 11519 O 1147.18 1.68227 0.596821 0
M  V30 11520 C 1144.28 3.22547 1.04004 0
M  V30 11521 C 1143.46 4.35787 0.375347 0
M  V30 11522 C 1142.52 5.09722 1.30652 0
M  V30 11523 O 1141.54 5.63558 0.799459 0
M  V30 11524 N 1142.74 5.1705 2.63893 0
M  V30 11525 H 1145.51 2.90377 -0.741705 0
M  V30 11526 H 1143.07 1.52628 -0.540039 0
M  V30 11527 H 1145.06 3.68878 1.66468 0
M  V30 11528 H 1143.63 2.62685 1.69456 0
M  V30 11529 H 1142.85 3.91857 -0.429145 0
M  V30 11530 H 1144.14 5.08726 -0.0869041 0
M  V30 11531 H 1143.54 4.74756 3.07609 0
M  V30 11532 H 1142.09 5.66962 3.21555 0
M  V30 11533 N 1145.53 0.438773 1.51369 0
M  V30 11534 C 1146.46 -0.362467 2.3067 0
M  V30 11535 C 1147.44 -1.01973 1.36145 0
M  V30 11536 O 1148.62 -1.0231 1.65065 0
M  V30 11537 C 1145.75 -1.46313 3.14976 0
M  V30 11538 C 1144.71 -0.929272 4.1779 0
M  V30 11539 C 1144.03 -2.12579 4.90627 0
M  V30 11540 C 1145.33 0.0372782 5.22287 0
M  V30 11541 H 1147.03 0.29931 2.979 0
M  V30 11542 H 1144.57 0.14539 1.43264 0
M  V30 11543 H 1146.53 -2.03088 3.69233 0
M  V30 11544 H 1145.25 -2.15321 2.45569 0
M  V30 11545 H 1143.91 -0.383722 3.64586 0
M  V30 11546 H 1143.56 -2.8021 4.17722 0
M  V30 11547 H 1143.26 -1.77496 5.60151 0
M  V30 11548 H 1144.78 -2.69905 5.47708 0
M  V30 11549 H 1146.2 -0.44022 5.71607 0
M  V30 11550 H 1144.59 0.300748 5.99346 0
M  V30 11551 H 1145.66 0.973503 4.75027 0
M  V30 11552 N 1147.01 -1.56678 0.170181 0
M  V30 11553 C 1147.94 -2.15083 -0.791961 0
M  V30 11554 C 1148.95 -1.10612 -1.19452 0
M  V30 11555 O 1150.14 -1.37803 -1.13457 0
M  V30 11556 C 1147.24 -2.67769 -2.07733 0
M  V30 11557 C 1146.41 -3.96885 -1.83851 0
M  V30 11558 C 1145.47 -4.34646 -2.96596 0
M  V30 11559 O 1144.5 -5.02543 -2.67281 0
M  V30 11560 N 1145.7 -3.96112 -4.24353 0
M  V30 11561 H 1148.46 -2.98268 -0.292658 0
M  V30 11562 H 1146.03 -1.61895 -0.0126383 0
M  V30 11563 H 1148.02 -2.90029 -2.8225 0
M  V30 11564 H 1146.59 -1.89179 -2.48858 0
M  V30 11565 H 1145.81 -3.83013 -0.932452 0
M  V30 11566 H 1147.1 -4.81213 -1.65261 0
M  V30 11567 H 1146.49 -3.41448 -4.51032 0
M  V30 11568 H 1145.05 -4.23375 -4.95577 0
M  V30 11569 N 1148.48 0.103547 -1.57259 0
M  V30 11570 C 1149.73 0.806979 -1.8529 0
M  V30 11571 C 1150.05 1.79679 -0.757653 0
M  V30 11572 O 1149.32 1.94695 0.216913 0
M  V30 11573 H 1147.9 0.301012 -0.683667 0
M  V30 11574 H 1150.56 0.0871886 -1.94705 0
M  V30 11575 H 1149.66 1.34275 -2.81738 0
M  V30 11576 N 1149.96 1.53094 0.37415 0
M  V30 11577 C 1150.91 1.78927 1.45787 0
M  V30 11578 C 1151.88 0.633187 1.53558 0
M  V30 11579 O 1153.06 0.874472 1.69581 0
M  V30 11580 C 1150.2 1.97726 2.8284 0
M  V30 11581 C 1149.32 3.25436 2.84104 0
M  V30 11582 C 1148.45 3.3447 4.12678 0
M  V30 11583 C 1147.49 4.56246 4.08051 0
M  V30 11584 N 1146.63 4.6248 5.28258 0
M  V30 11585 H 1151.47 2.71404 1.2306 0
M  V30 11586 H 1149 1.34453 0.596716 0
M  V30 11587 H 1150.96 2.06611 3.62447 0
M  V30 11588 H 1149.59 1.08593 3.03986 0
M  V30 11589 H 1148.64 3.25548 1.96781 0
M  V30 11590 H 1149.96 4.15112 2.76556 0
M  V30 11591 H 1149.11 3.4262 5.00696 0
M  V30 11592 H 1147.85 2.42795 4.22968 0
M  V30 11593 H 1146.85 4.48206 3.1842 0
M  V30 11594 H 1148.08 5.49254 3.99371 0
M  V30 11595 H 1146.03 3.73703 5.3915 0
M  V30 11596 H 1145.94 5.46049 5.22845 0
M  V30 11597 H 1147.21 4.74903 6.18132 0
M  V30 11598 N 1151.44 -0.633461 1.44309 0
M  V30 11599 C 1152.69 -1.38902 1.4625 0
M  V30 11600 C 1153 -1.95354 0.0980699 0
M  V30 11601 O 1154.21 -2.715 -0.0049983 0
M  V30 11602 C 1152.66 -2.51477 2.57463 0
M  V30 11603 C 1152.27 -2.01549 4.00103 0
M  V30 11604 C 1154.02 -3.28698 2.68622 0
M  V30 11605 C 1151.92 -3.11452 5.02744 0
M  V30 11606 H 1150.85 -0.521976 0.544112 0
M  V30 11607 H 1153.5 -0.681725 1.70367 0
M  V30 11608 H 1151.89 -3.24771 2.26582 0
M  V30 11609 H 1153.06 -1.35135 4.4054 0
M  V30 11610 H 1151.37 -1.3715 3.93165 0
M  V30 11611 H 1153.97 -4.10624 3.42479 0
M  V30 11612 H 1154.31 -3.78027 1.7436 0
M  V30 11613 H 1154.85 -2.62494 2.98901 0
M  V30 11614 H 1151.59 -2.6707 5.98627 0
M  V30 11615 H 1151.11 -3.76514 4.66902 0
M  V30 11616 H 1152.79 -3.76265 5.2634 0
M  V30 11617 N 1152.92 -1.31168 -0.873655 0
M  V30 11618 C 1154.33 -1.09745 -1.1588 0
M  V30 11619 C 1154.53 0.134471 -2.01051 0
M  V30 11620 O 1153.59 0.824857 -2.38647 0
M  V30 11621 C 1154.9 -2.36704 -1.85451 0
M  V30 11622 C 1156.45 -2.42278 -1.98167 0
M  V30 11623 C 1156.93 -3.69108 -2.71152 0
M  V30 11624 N 1158.42 -3.69981 -2.7869 0
M  V30 11625 C 1159.15 -4.64811 -3.35765 0
M  V30 11626 N 1158.65 -5.69995 -3.938 0
M  V30 11627 N 1160.44 -4.52337 -3.33688 0
M  V30 11628 H 1152.59 -2.10184 -0.306021 0
M  V30 11629 H 1154.86 -0.927058 -0.198159 0
M  V30 11630 H 1154.56 -3.26666 -1.30316 0
M  V30 11631 H 1154.44 -2.46219 -2.85755 0
M  V30 11632 H 1156.82 -1.52787 -2.52468 0
M  V30 11633 H 1156.9 -2.3673 -0.969164 0
M  V30 11634 H 1156.55 -4.58963 -2.1752 0
M  V30 11635 H 1156.48 -3.71922 -3.72803 0
M  V30 11636 H 1158.97 -2.93944 -2.37498 0
M  V30 11637 H 1159.28 -6.38438 -4.3545 0
M  V30 11638 H 1157.63 -5.73773 -3.92186 0
M  V30 11639 H 1160.82 -3.69341 -2.87584 0
M  V30 11640 H 1160.99 -5.2642 -3.77871 0
M  V30 11641 N 1154.4 1.08748 -1.14068 0
M  V30 11642 C 1155.62 1.84814 -0.930138 0
M  V30 11643 C 1156.04 1.81461 0.521267 0
M  V30 11644 O 1155.4 1.21577 1.36108 0
M  V30 11645 C 1155.45 3.32501 -1.41863 0
M  V30 11646 O 1155.17 3.35846 -2.81317 0
M  V30 11647 C 1156.67 4.25384 -1.24753 0
M  V30 11648 H 1153.89 0.583546 -0.331233 0
M  V30 11649 H 1156.43 1.37366 -1.51495 0
M  V30 11650 H 1154.59 3.7735 -0.876664 0
M  V30 11651 H 1155 4.28013 -3.03159 0
M  V30 11652 H 1156.48 5.27138 -1.63798 0
M  V30 11653 H 1156.95 4.38789 -0.18999 0
M  V30 11654 H 1157.56 3.86357 -1.77787 0
M  V30 11655 N 1155.87 0.935264 1.26849 0
M  V30 11656 C 1156.8 0.457776 2.28969 0
M  V30 11657 C 1157.79 -0.48587 1.63013 0
M  V30 11658 O 1158.97 -0.388998 1.90264 0
M  V30 11659 C 1156.1 -0.283332 3.46142 0
M  V30 11660 C 1155.05 0.573196 4.24144 0
M  V30 11661 C 1154.38 -0.297525 5.33872 0
M  V30 11662 C 1155.68 1.84153 4.88759 0
M  V30 11663 H 1157.37 1.31125 2.69159 0
M  V30 11664 H 1154.92 0.631956 1.29392 0
M  V30 11665 H 1156.87 -0.628366 4.16689 0
M  V30 11666 H 1155.6 -1.1709 3.04889 0
M  V30 11667 H 1154.26 0.901043 3.55354 0
M  V30 11668 H 1153.9 -1.18427 4.8886 0
M  V30 11669 H 1153.6 0.272126 5.8697 0
M  V30 11670 H 1155.13 -0.637961 6.07258 0
M  V30 11671 H 1156.54 1.5641 5.51551 0
M  V30 11672 H 1154.94 2.35528 5.51948 0
M  V30 11673 H 1156.01 2.5565 4.12033 0
M  V30 11674 N 1157.35 -1.41121 0.701616 0
M  V30 11675 C 1158.28 -2.292 0.000880842 0
M  V30 11676 C 1159.3 -1.45102 -0.738192 0
M  V30 11677 O 1160.49 -1.68541 -0.587891 0
M  V30 11678 C 1157.59 -3.23094 -1.02292 0
M  V30 11679 C 1156.76 -4.35979 -0.352231 0
M  V30 11680 C 1155.82 -5.10408 -1.27947 0
M  V30 11681 O 1154.84 -5.63974 -0.769561 0
M  V30 11682 N 1156.05 -5.18442 -2.61147 0
M  V30 11683 H 1158.81 -2.8998 0.757094 0
M  V30 11684 H 1156.37 -1.52339 0.548126 0
M  V30 11685 H 1158.36 -3.69755 -1.64509 0
M  V30 11686 H 1156.93 -2.6358 -1.68061 0
M  V30 11687 H 1156.15 -3.91624 0.44992 0
M  V30 11688 H 1157.44 -5.08673 0.113882 0
M  V30 11689 H 1156.84 -4.76381 -3.05087 0
M  V30 11690 H 1155.4 -5.68659 -3.18544 0
M  V30 11691 N 1158.83 -0.446794 -1.51134 0
M  V30 11692 C 1159.74 0.36579 -2.31731 0
M  V30 11693 C 1160.76 1.01886 -1.41051 0
M  V30 11694 O 1161.93 1.01216 -1.74119 0
M  V30 11695 C 1159 1.44705 -3.15058 0
M  V30 11696 C 1158.06 0.813129 -4.21529 0
M  V30 11697 C 1157.29 1.84287 -5.00873 0
M  V30 11698 O 1157.51 3.06633 -4.8097 0
M  V30 11699 O 1156.45 1.42816 -5.84711 0
M  V30 11700 H 1160.27 -0.292436 -3.02289 0
M  V30 11701 H 1157.86 -0.209129 -1.47929 0
M  V30 11702 H 1159.74 2.07393 -3.66833 0
M  V30 11703 H 1158.42 2.08919 -2.47254 0
M  V30 11704 H 1157.32 0.147953 -3.73807 0
M  V30 11705 H 1158.66 0.214331 -4.91733 0
M  V30 11706 N 1160.31 1.56586 -0.178487 0
M  V30 11707 C 1161.24 2.155 0.780543 0
M  V30 11708 C 1162.25 1.11244 1.18864 0
M  V30 11709 O 1163.44 1.38403 1.12725 0
M  V30 11710 C 1160.54 2.68867 2.0631 0
M  V30 11711 C 1159.72 3.97854 1.81744 0
M  V30 11712 C 1158.77 4.36213 2.94287 0
M  V30 11713 O 1157.8 5.03954 2.64612 0
M  V30 11714 N 1159 3.98356 4.22247 0
M  V30 11715 H 1161.77 2.98419 0.276836 0
M  V30 11716 H 1159.33 1.61899 0.00405241 0
M  V30 11717 H 1161.32 2.91522 2.80708 0
M  V30 11718 H 1159.89 1.90496 2.47851 0
M  V30 11719 H 1159.11 3.83502 0.912127 0
M  V30 11720 H 1160.4 4.82083 1.62707 0
M  V30 11721 H 1159.8 3.43835 4.49215 0
M  V30 11722 H 1158.35 4.25998 4.93325 0
M  V30 11723 N 1161.79 -0.095206 1.57312 0
M  V30 11724 C 1162.72 -1.11627 2.05089 0
M  V30 11725 C 1163.7 -1.41782 0.939787 0
M  V30 11726 O 1164.88 -1.51813 1.21105 0
M  V30 11727 C 1162.01 -2.43618 2.47523 0
M  V30 11728 C 1160.97 -2.27872 3.62296 0
M  V30 11729 C 1160.29 -3.65038 3.90706 0
M  V30 11730 C 1161.59 -1.71936 4.93189 0
M  V30 11731 H 1163.29 -0.718795 2.90644 0
M  V30 11732 H 1160.83 -0.344315 1.39823 0
M  V30 11733 H 1162.79 -3.1532 2.79556 0
M  V30 11734 H 1161.51 -2.85301 1.58968 0
M  V30 11735 H 1160.17 -1.58615 3.3051 0
M  V30 11736 H 1159.82 -4.04249 2.99319 0
M  V30 11737 H 1159.52 -3.55349 4.67976 0
M  V30 11738 H 1161.04 -4.38208 4.25213 0
M  V30 11739 H 1162.45 -2.33479 5.23603 0
M  V30 11740 H 1160.85 -1.73006 5.74621 0
M  V30 11741 H 1161.92 -0.678789 4.80125 0
M  V30 11742 N 1163.26 -1.53291 -0.366026 0
M  V30 11743 C 1164.17 -1.82656 -1.47221 0
M  V30 11744 C 1165.19 -0.71491 -1.58635 0
M  V30 11745 O 1166.37 -1.00492 -1.74538 0
M  V30 11746 C 1163.43 -2.00995 -2.82492 0
M  V30 11747 C 1162.49 -3.24895 -2.8061 0
M  V30 11748 C 1161.73 -3.4235 -4.09429 0
M  V30 11749 O 1161.95 -2.6411 -5.05571 0
M  V30 11750 O 1160.88 -4.35702 -4.15268 0
M  V30 11751 H 1164.71 -2.76634 -1.2533 0
M  V30 11752 H 1162.29 -1.38665 -0.556084 0
M  V30 11753 H 1164.18 -2.14632 -3.62645 0
M  V30 11754 H 1162.85 -1.10207 -3.04362 0
M  V30 11755 H 1161.76 -3.16682 -1.99157 0
M  V30 11756 H 1163.09 -4.15604 -2.63694 0
M  V30 11757 N 1164.74 0.6258 -1.44643 0
M  V30 11758 C 1165.69 1.75869 -1.52226 0
M  V30 11759 C 1166.68 1.64765 -0.39355 0
M  V30 11760 O 1167.89 1.70779 -0.568718 0
M  V30 11761 H 1164.27 0.580712 -0.477784 0
M  V30 11762 H 1166.24 1.66596 -2.47565 0
M  V30 11763 C 1164.99 3.14217 -1.48873 0
M  V30 11764 H 1164.31 3.23411 -2.35043 0
M  V30 11765 H 1165.75 3.93365 -1.58239 0
M  V30 11766 C 1164.21 3.36243 -0.210299 0
M  V30 11767 O 1164.74 3.95243 0.717335 0
M  V30 11768 N 1162.94 2.90385 -0.111744 0
M  V30 11769 H 1162.49 2.42555 -0.867466 0
M  V30 11770 H 1162.45 3.05498 0.742871 0
M  V30 11771 N 1166.22 1.31629 0.866686 0
M  V30 11772 C 1167.47 1.21263 1.61678 0
M  V30 11773 C 1167.79 -0.228562 1.93656 0
M  V30 11774 O 1167.06 -1.15014 1.58583 0
M  V30 11775 H 1165.64 0.445817 0.59938 0
M  V30 11776 H 1168.3 1.64998 1.03739 0
M  V30 11777 H 1167.4 1.78669 2.55898 0
M  V30 11778 N 1167.7 -1.08142 1.14644 0
M  V30 11779 C 1169.11 -1.62061 0.926986 0
M  V30 11780 C 1169.46 -1.88805 -0.533578 0
M  V30 11781 O 1168.59 -1.64753 -1.40305 0
M  V30 11782 C 1169.18 -2.94425 1.67629 0
M  V30 11783 C 1167.74 -3.45118 1.50235 0
M  V30 11784 C 1166.89 -2.19307 1.69705 0
M  V30 11785 H 1169.84 -0.913326 1.29785 0
M  V30 11786 H 1169.86 -3.62987 1.14107 0
M  V30 11787 H 1169.37 -2.74928 2.73927 0
M  V30 11788 H 1167.47 -3.69713 0.462967 0
M  V30 11789 H 1167.59 -4.2169 2.27408 0
M  V30 11790 H 1165.95 -2.28611 1.12291 0
M  V30 11791 H 1166.73 -2.02315 2.77351 0
M  V30 11792 N 1169.18 -0.941978 -1.26351 0
M  V30 11793 C 1170.13 -0.443011 -2.28342 0
M  V30 11794 C 1171.12 0.48013 -1.62453 0
M  V30 11795 O 1172.33 0.358255 -1.76399 0
M  V30 11796 H 1168.7 -0.124728 -0.741584 0
M  V30 11797 H 1170.67 -1.31573 -2.67827 0
M  V30 11798 C 1169.42 0.275675 -3.46605 0
M  V30 11799 H 1168.74 -0.425504 -3.97529 0
M  V30 11800 H 1170.18 0.589012 -4.19889 0
M  V30 11801 C 1168.64 1.49376 -3.01974 0
M  V30 11802 O 1169.17 2.59203 -3.06883 0
M  V30 11803 N 1167.38 1.35061 -2.57307 0
M  V30 11804 H 1166.93 0.457045 -2.53513 0
M  V30 11805 H 1166.88 2.16681 -2.27809 0
M  V30 11806 N 1170.66 1.40747 -0.709091 0
M  V30 11807 C 1171.88 2.05319 -0.255258 0
M  V30 11808 C 1172.3 1.53406 1.10054 0
M  V30 11809 O 1171.66 0.687905 1.69039 0
M  V30 11810 C 1171.71 3.60835 -0.219251 0
M  V30 11811 O 1171.43 4.1083 -1.52151 0
M  V30 11812 C 1172.93 4.42572 0.253927 0
M  V30 11813 H 1170.15 0.660904 -0.115959 0
M  V30 11814 H 1172.69 1.80274 -0.965474 0
M  V30 11815 H 1170.85 3.84872 0.441882 0
M  V30 11816 H 1171.26 5.04979 -1.41764 0
M  V30 11817 H 1172.74 5.51529 0.22798 0
M  V30 11818 H 1173.21 4.19673 1.29504 0
M  V30 11819 H 1173.82 4.23629 -0.376694 0
M  V30 11820 N 1172.13 0.454803 1.50895 0
M  V30 11821 C 1173.07 -0.383826 2.25963 0
M  V30 11822 C 1174.08 -0.971263 1.30653 0
M  V30 11823 O 1175.27 -0.862434 1.56283 0
M  V30 11824 C 1172.37 -1.55069 3.01342 0
M  V30 11825 C 1171.54 -1.07899 4.23883 0
M  V30 11826 C 1170.6 -2.118 4.81692 0
M  V30 11827 O 1169.63 -1.70523 5.43057 0
M  V30 11828 N 1170.83 -3.44459 4.67256 0
M  V30 11829 H 1173.59 0.259646 2.98573 0
M  V30 11830 H 1171.15 0.284661 1.59378 0
M  V30 11831 H 1173.15 -2.24236 3.36898 0
M  V30 11832 H 1171.72 -2.09917 2.31633 0
M  V30 11833 H 1170.94 -0.213773 3.9362 0
M  V30 11834 H 1172.22 -0.741501 5.03368 0
M  V30 11835 H 1171.62 -3.80716 4.18416 0
M  V30 11836 H 1170.18 -4.0947 5.07127 0
M  V30 11837 N 1173.61 -1.56489 0.186789 0
M  V30 11838 C 1174.54 -2.21705 -0.732739 0
M  V30 11839 C 1175.52 -1.17751 -1.22755 0
M  V30 11840 O 1176.71 -1.46231 -1.27789 0
M  V30 11841 C 1173.84 -2.86992 -1.95584 0
M  V30 11842 C 1172.79 -3.97118 -1.59628 0
M  V30 11843 C 1172.12 -4.49529 -2.89531 0
M  V30 11844 C 1173.42 -5.15941 -0.812518 0
M  V30 11845 H 1175.11 -2.98802 -0.189094 0
M  V30 11846 H 1172.66 -1.43722 -0.0895099 0
M  V30 11847 H 1174.61 -3.31295 -2.60426 0
M  V30 11848 H 1173.33 -2.07287 -2.52388 0
M  V30 11849 H 1171.99 -3.53494 -0.971475 0
M  V30 11850 H 1171.64 -3.66596 -3.44407 0
M  V30 11851 H 1171.34 -5.23832 -2.66221 0
M  V30 11852 H 1172.87 -4.96528 -3.55376 0
M  V30 11853 H 1174.28 -5.56841 -1.36386 0
M  V30 11854 H 1172.68 -5.96259 -0.677862 0
M  V30 11855 H 1173.75 -4.84535 0.188095 0
M  V30 11856 N 1175.09 0.086862 -1.5736 0
M  V30 11857 C 1176.05 1.08906 -2.01673 0
M  V30 11858 C 1177.05 1.32473 -0.911463 0
M  V30 11859 O 1178.24 1.28447 -1.17673 0
M  V30 11860 C 1175.37 2.43629 -2.38449 0
M  V30 11861 H 1176.57 0.707461 -2.91436 0
M  V30 11862 H 1174.12 0.332154 -1.5273 0
M  V30 11863 H 1174.86 2.8665 -1.51665 0
M  V30 11864 H 1174.64 2.2787 -3.19089 0
M  V30 11865 H 1176.13 3.15695 -2.73361 0
M  V30 11866 N 1176.57 1.53483 0.357892 0
M  V30 11867 C 1177.98 1.43426 0.700073 0
M  V30 11868 C 1178.18 0.579493 1.92987 0
M  V30 11869 O 1177.24 0.0649086 2.52417 0
M  V30 11870 C 1178.55 2.86723 0.906099 0
M  V30 11871 C 1180.1 2.96405 1.00563 0
M  V30 11872 C 1180.58 4.4078 1.24407 0
M  V30 11873 N 1182.07 4.44243 1.3116 0
M  V30 11874 C 1182.8 5.53069 1.51333 0
M  V30 11875 N 1182.3 6.71928 1.68774 0
M  V30 11876 N 1184.09 5.40659 1.53765 0
M  V30 11877 H 1176.24 2.07559 -0.450894 0
M  V30 11878 H 1178.5 0.937649 -0.139711 0
M  V30 11879 H 1178.21 3.51622 0.0741579 0
M  V30 11880 H 1178.08 3.30827 1.81199 0
M  V30 11881 H 1180.47 2.31656 1.8281 0
M  V30 11882 H 1180.55 2.55684 0.0769512 0
M  V30 11883 H 1180.2 5.06105 0.426575 0
M  V30 11884 H 1180.13 4.7908 2.18608 0
M  V30 11885 H 1182.62 3.58587 1.19265 0
M  V30 11886 H 1182.93 7.50634 1.83762 0
M  V30 11887 H 1181.28 6.749 1.65937 0
M  V30 11888 H 1184.47 4.46764 1.39713 0
M  V30 11889 H 1184.64 6.25535 1.69146 0
M  V30 11890 N 1178.05 -0.61812 1.44973 0
M  V30 11891 C 1178.98 -1.74035 1.55673 0
M  V30 11892 C 1179.96 -1.65112 0.4089 0
M  V30 11893 O 1181.14 -1.83673 0.630698 0
M  V30 11894 C 1178.27 -3.1261 1.51303 0
M  V30 11895 C 1177.23 -3.36334 2.64696 0
M  V30 11896 C 1176.55 -4.75072 2.45378 0
M  V30 11897 C 1177.85 -3.27618 4.06772 0
M  V30 11898 H 1179.55 -1.65336 2.49608 0
M  V30 11899 H 1177.09 -0.794003 1.20132 0
M  V30 11900 H 1179.04 -3.90906 1.57388 0
M  V30 11901 H 1177.77 -3.22123 0.538914 0
M  V30 11902 H 1176.43 -2.60423 2.58022 0
M  V30 11903 H 1176.08 -4.81306 1.46129 0
M  V30 11904 H 1175.78 -4.91903 3.21412 0
M  V30 11905 H 1177.3 -5.55582 2.53301 0
M  V30 11906 H 1178.71 -3.95802 4.14746 0
M  V30 11907 H 1177.11 -3.55981 4.83113 0
M  V30 11908 H 1178.18 -2.25219 4.29423 0
M  V30 11909 N 1179.52 -1.32087 -0.859693 0
M  V30 11910 C 1180.46 -1.16426 -1.97428 0
M  V30 11911 C 1181.47 -0.100582 -1.62489 0
M  V30 11912 O 1182.66 -0.349063 -1.75054 0
M  V30 11913 C 1179.76 -0.758822 -3.30295 0
M  V30 11914 C 1178.93 -1.90971 -3.93508 0
M  V30 11915 C 1177.99 -1.48865 -5.04704 0
M  V30 11916 O 1177.02 -2.1999 -5.2497 0
M  V30 11917 N 1178.22 -0.38182 -5.79243 0
M  V30 11918 H 1180.98 -2.12433 -2.11406 0
M  V30 11919 H 1178.54 -1.24558 -1.03426 0
M  V30 11920 H 1180.54 -0.459643 -4.02081 0
M  V30 11921 H 1179.11 0.109944 -3.12407 0
M  V30 11922 H 1178.33 -2.37566 -3.14573 0
M  V30 11923 H 1179.61 -2.68032 -4.32477 0
M  V30 11924 H 1179.01 0.210268 -5.65309 0
M  V30 11925 H 1177.57 -0.142224 -6.51645 0
M  V30 11926 N 1181 1.07532 -1.15215 0
M  V30 11927 C 1181.93 2.14598 -0.805006 0
M  V30 11928 C 1182.95 1.61778 0.182152 0
M  V30 11929 O 1184.14 1.78453 -0.040834 0
M  V30 11930 C 1181.24 3.38444 -0.175736 0
M  V30 11931 C 1180.41 4.20621 -1.19986 0
M  V30 11932 C 1179.47 5.22851 -0.592705 0
M  V30 11933 O 1178.49 5.55121 -1.25815 0
M  V30 11934 N 1179.7 5.7711 0.626425 0
M  V30 11935 H 1182.46 2.44981 -1.7264 0
M  V30 11936 H 1180.02 1.23423 -1.04778 0
M  V30 11937 H 1182.01 4.03969 0.243166 0
M  V30 11938 H 1180.58 3.0579 0.64896 0
M  V30 11939 H 1179.8 3.50941 -1.79539 0
M  V30 11940 H 1181.09 4.72339 -1.89139 0
M  V30 11941 H 1180.49 5.53139 1.18546 0
M  V30 11942 H 1179.05 6.44273 0.98771 0
M  V30 11943 N 1182.48 0.948665 1.2585 0
M  V30 11944 C 1183.39 0.470525 2.29833 0
M  V30 11945 C 1184.41 -0.45919 1.67832 0
M  V30 11946 O 1185.58 -0.336893 1.98562 0
M  V30 11947 C 1182.65 -0.249635 3.458 0
M  V30 11948 C 1181.71 0.717559 4.23261 0
M  V30 11949 C 1180.94 0.0316724 5.33691 0
M  V30 11950 O 1181.16 -1.18384 5.5798 0
M  V30 11951 O 1180.1 0.71418 5.97648 0
M  V30 11952 H 1183.92 1.33447 2.72811 0
M  V30 11953 H 1181.51 0.714864 1.31187 0
M  V30 11954 H 1183.39 -0.654993 4.16279 0
M  V30 11955 H 1182.07 -1.08885 3.04837 0
M  V30 11956 H 1180.97 1.17301 3.55234 0
M  V30 11957 H 1182.31 1.52461 4.67992 0
M  V30 11958 N 1183.96 -1.40369 0.716545 0
M  V30 11959 C 1184.91 -2.32539 0.053472 0
M  V30 11960 C 1185.9 -1.5209 -0.745984 0
M  V30 11961 O 1187.11 -1.67883 -0.649245 0
M  V30 11962 H 1183.48 -0.751998 -0.00151088 0
M  V30 11963 H 1185.45 -2.86111 0.847535 0
M  V30 11964 C 1184.2 -3.37061 -0.853515 0
M  V30 11965 H 1183.52 -3.99032 -0.247754 0
M  V30 11966 H 1184.96 -4.04046 -1.28541 0
M  V30 11967 C 1183.42 -2.72619 -1.97941 0
M  V30 11968 O 1183.95 -2.59024 -3.07033 0
M  V30 11969 N 1182.16 -2.30988 -1.76332 0
M  V30 11970 H 1181.71 -2.42246 -0.876063 0
M  V30 11971 H 1181.66 -1.88209 -2.51843 0
M  V30 11972 N 1185.44 -0.462799 -1.50652 0
M  V30 11973 C 1186.66 0.0952726 -2.07181 0
M  V30 11974 C 1187.09 1.33479 -1.32533 0
M  V30 11975 O 1186.44 1.77473 -0.370564 0
M  V30 11976 C 1186.49 0.370592 -3.58691 0
M  V30 11977 O 1185.6 1.4526 -3.85971 0
M  V30 11978 H 1184.94 -0.00932702 -0.663934 0
M  V30 11979 H 1187.47 -0.651458 -1.93951 0
M  V30 11980 H 1187.48 0.613551 -4.0336 0
M  V30 11981 H 1186.15 -0.535219 -4.12442 0
M  V30 11982 H 1184.73 1.1976 -3.53146 0
M  V30 11983 N 1186.91 1.56388 -0.195085 0
M  V30 11984 C 1188.16 1.96755 0.443901 0
M  V30 11985 C 1188.48 1.08483 1.6276 0
M  V30 11986 O 1189.68 1.38632 2.33438 0
M  V30 11987 C 1188.14 3.49933 0.841139 0
M  V30 11988 C 1187.75 4.46868 -0.318275 0
M  V30 11989 C 1189.49 3.99069 1.44721 0
M  V30 11990 C 1187.4 5.91316 0.0999211 0
M  V30 11991 H 1186.33 0.734674 0.169616 0
M  V30 11992 H 1188.98 1.8124 -0.287101 0
M  V30 11993 H 1187.36 3.60951 1.62881 0
M  V30 11994 H 1188.53 4.47581 -1.0958 0
M  V30 11995 H 1186.85 4.07925 -0.835842 0
M  V30 11996 H 1189.45 5.04465 1.77255 0
M  V30 11997 H 1189.79 3.43376 2.35369 0
M  V30 11998 H 1190.32 3.91165 0.723513 0
M  V30 11999 H 1187.06 6.50934 -0.77237 0
M  V30 12000 H 1186.58 5.93856 0.842304 0
M  V30 12001 H 1188.26 6.44778 0.535726 0
M  V30 12002 N 1188.39 -0.0785156 1.57404 0
M  V30 12003 C 1189.32 -1.09446 2.06262 0
M  V30 12004 C 1190.3 -1.40777 0.954772 0
M  V30 12005 O 1191.49 -1.5052 1.22708 0
M  V30 12006 C 1188.62 -2.40979 2.50093 0
M  V30 12007 C 1187.57 -2.24017 3.64692 0
M  V30 12008 C 1186.9 -3.60873 3.94556 0
M  V30 12009 C 1188.2 -1.66696 4.94985 0
M  V30 12010 H 1189.89 -0.687928 2.9139 0
M  V30 12011 H 1187.44 -0.329466 1.4018 0
M  V30 12012 H 1189.39 -3.12337 2.82884 0
M  V30 12013 H 1188.12 -2.83599 1.61985 0
M  V30 12014 H 1186.77 -1.55101 3.32174 0
M  V30 12015 H 1186.42 -4.01051 3.0359 0
M  V30 12016 H 1186.12 -3.50365 4.71718 0
M  V30 12017 H 1187.65 -4.33673 4.29837 0
M  V30 12018 H 1189.06 -2.27913 5.2605 0
M  V30 12019 H 1187.46 -1.66902 5.76423 0
M  V30 12020 H 1188.53 -0.627827 4.80818 0
M  V30 12021 N 1189.87 -1.5367 -0.349747 0
M  V30 12022 C 1191.29 -1.43796 -0.692457 0
M  V30 12023 C 1191.49 -0.58972 -1.92677 0
M  V30 12024 O 1190.54 -0.078294 -2.52379 0
M  V30 12025 C 1191.86 -2.872 -0.890881 0
M  V30 12026 C 1193.4 -2.96935 -0.989892 0
M  V30 12027 C 1193.88 -4.41433 -1.22068 0
M  V30 12028 N 1195.37 -4.44932 -1.28802 0
M  V30 12029 C 1196.1 -5.53864 -1.48398 0
M  V30 12030 N 1195.6 -6.72814 -1.65208 0
M  V30 12031 N 1197.39 -5.41467 -1.50896 0
M  V30 12032 H 1189.54 -2.07317 0.461895 0
M  V30 12033 H 1191.81 -0.936895 0.144681 0
M  V30 12034 H 1191.51 -3.51656 -0.0555095 0
M  V30 12035 H 1191.39 -3.31784 -1.79442 0
M  V30 12036 H 1193.77 -2.32622 -1.81579 0
M  V30 12037 H 1193.86 -2.55721 -0.0633906 0
M  V30 12038 H 1193.5 -5.06325 -0.399729 0
M  V30 12039 H 1193.43 -4.80233 -2.16064 0
M  V30 12040 H 1195.92 -3.59214 -1.17361 0
M  V30 12041 H 1196.23 -7.51598 -1.79779 0
M  V30 12042 H 1194.58 -6.7577 -1.62356 0
M  V30 12043 H 1197.77 -4.47498 -1.37342 0
M  V30 12044 H 1197.94 -6.26423 -1.65826 0
M  V30 12045 N 1191.35 0.610423 -1.45298 0
M  V30 12046 C 1192.63 1.36966 -1.39641 0
M  V30 12047 C 1193.01 2.10998 -0.0655757 0
M  V30 12048 O 1192.35 2.07705 0.952407 0
M  V30 12049 C 1192.56 2.31885 -2.60826 0
M  V30 12050 C 1193.91 2.9458 -3.05791 0
M  V30 12051 O 1194.94 2.42207 -2.61179 0
M  V30 12052 O 1193.79 3.89639 -3.83202 0
M  V30 12053 H 1190.89 0.61401 -0.554004 0
M  V30 12054 H 1193.43 0.633748 -1.57422 0
M  V30 12055 H 1192.21 1.76421 -3.49272 0
M  V30 12056 H 1191.83 3.12861 -2.45364 0
M  V30 12057 N 1192.83 1.32541 0.852676 0
M  V30 12058 C 1193.79 1.21578 1.94297 0
M  V30 12059 C 1194.79 0.138318 1.60204 0
M  V30 12060 O 1195.98 0.388864 1.69804 0
M  V30 12061 C 1193.11 0.870209 3.29606 0
M  V30 12062 H 1194.3 2.18476 2.05446 0
M  V30 12063 H 1191.86 1.16401 1.0431 0
M  V30 12064 H 1192.59 -0.0968698 3.24155 0
M  V30 12065 H 1192.38 1.64924 3.55728 0
M  V30 12066 H 1193.87 0.817874 4.09513 0
M  V30 12067 N 1194.3 -1.0692 1.15784 0
M  V30 12068 C 1195.23 -2.16216 0.881649 0
M  V30 12069 C 1196.22 -1.69253 -0.16951 0
M  V30 12070 O 1197.4 -1.94186 -0.0229511 0
M  V30 12071 C 1194.53 -3.4527 0.374982 0
M  V30 12072 C 1193.48 -4.05706 1.36332 0
M  V30 12073 C 1192.81 -5.29894 0.715317 0
M  V30 12074 C 1194.11 -4.45224 2.7308 0
M  V30 12075 H 1195.8 -2.39577 1.79563 0
M  V30 12076 H 1193.35 -1.15141 0.864784 0
M  V30 12077 H 1195.3 -4.2106 0.169279 0
M  V30 12078 H 1194.03 -3.21508 -0.574485 0
M  V30 12079 H 1192.69 -3.31965 1.55546 0
M  V30 12080 H 1192.33 -5.02425 -0.240436 0
M  V30 12081 H 1192.03 -5.71287 1.37494 0
M  V30 12082 H 1193.56 -6.08386 0.519489 0
M  V30 12083 H 1194.97 -5.12124 2.57686 0
M  V30 12084 H 1193.37 -4.97583 3.35457 0
M  V30 12085 H 1194.44 -3.56384 3.28813 0
M  V30 12086 N 1195.78 -0.955326 -1.25345 0
M  V30 12087 C 1196.73 -0.467205 -2.2786 0
M  V30 12088 C 1197.72 0.462873 -1.62954 0
M  V30 12089 O 1198.93 0.339526 -1.76769 0
M  V30 12090 H 1195.31 -0.132586 -0.74022 0
M  V30 12091 H 1197.28 -1.34406 -2.66416 0
M  V30 12092 C 1196.03 0.238898 -3.46878 0
M  V30 12093 H 1195.35 -0.467644 -3.97056 0
M  V30 12094 H 1196.79 0.544444 -4.2049 0
M  V30 12095 C 1195.25 1.46164 -3.03542 0
M  V30 12096 O 1195.78 2.55933 -3.09615 0
M  V30 12097 N 1193.98 1.32324 -2.58725 0
M  V30 12098 H 1193.53 0.430131 -2.53984 0
M  V30 12099 H 1193.49 2.14253 -2.30094 0
M  V30 12100 N 1197.26 1.39987 -0.723979 0
M  V30 12101 C 1198.19 2.2917 -0.0373445 0
M  V30 12102 C 1199.21 1.46258 0.715015 0
M  V30 12103 O 1200.4 1.69455 0.561003 0
M  V30 12104 C 1197.5 3.2468 0.971384 0
M  V30 12105 C 1196.67 4.36485 0.282826 0
M  V30 12106 C 1195.73 5.12379 1.19811 0
M  V30 12107 O 1194.75 5.65127 0.67974 0
M  V30 12108 N 1195.96 5.22531 2.52866 0
M  V30 12109 H 1198.72 2.88738 -0.803131 0
M  V30 12110 H 1196.28 1.51448 -0.572292 0
M  V30 12111 H 1198.27 3.72326 1.58606 0
M  V30 12112 H 1196.84 2.6622 1.63846 0
M  V30 12113 H 1196.06 3.90859 -0.512167 0
M  V30 12114 H 1197.35 5.08427 -0.194793 0
M  V30 12115 H 1196.75 4.81174 2.97469 0
M  V30 12116 H 1195.31 5.73655 3.09457 0
M  V30 12117 N 1198.74 0.470782 1.50404 0
M  V30 12118 C 1199.7 -0.312227 2.27063 0
M  V30 12119 C 1200.7 -0.920709 1.31832 0
M  V30 12120 O 1201.89 -0.789937 1.5526 0
M  V30 12121 C 1199.02 -1.44477 3.0877 0
M  V30 12122 H 1200.22 0.36006 2.97731 0
M  V30 12123 H 1197.77 0.224837 1.54674 0
M  V30 12124 H 1198.51 -2.15212 2.42599 0
M  V30 12125 H 1198.29 -1.01426 3.78755 0
M  V30 12126 H 1199.78 -1.99713 3.66749 0
M  V30 12127 N 1200.22 -1.56282 0.203376 0
M  V30 12128 C 1201.45 -2.02198 -0.438572 0
M  V30 12129 C 1201.86 -1.08343 -1.54619 0
M  V30 12130 O 1201.22 -0.0897594 -1.82279 0
M  V30 12131 C 1201.27 -3.4776 -0.987184 0
M  V30 12132 O 1200.99 -4.38034 0.0762552 0
M  V30 12133 C 1202.49 -4.09234 -1.70419 0
M  V30 12134 H 1199.71 -0.662041 -0.109282 0
M  V30 12135 H 1202.25 -2.02067 0.314509 0
M  V30 12136 H 1200.41 -3.48564 -1.69061 0
M  V30 12137 H 1200.82 -5.2344 -0.333322 0
M  V30 12138 H 1202.3 -5.1291 -2.04027 0
M  V30 12139 H 1202.77 -3.53172 -2.61087 0
M  V30 12140 H 1203.38 -4.12226 -1.04641 0
M  V30 12141 N 1201.7 0.070167 -1.57444 0
M  V30 12142 C 1202.92 0.785703 -1.91941 0
M  V30 12143 C 1203.35 1.70243 -0.799932 0
M  V30 12144 O 1202.7 1.79608 0.247139 0
M  V30 12145 C 1202.75 1.55398 -3.25398 0
M  V30 12146 O 1201.86 2.66475 -3.14746 0
M  V30 12147 H 1201.2 0.214245 -0.628486 0
M  V30 12148 H 1203.73 0.0379243 -2.04565 0
M  V30 12149 H 1203.74 1.93287 -3.5931 0
M  V30 12150 H 1202.41 0.881366 -4.06454 0
M  V30 12151 H 1200.99 2.3143 -2.92394 0
M  V30 12152 N 1203.17 1.53854 0.341593 0
M  V30 12153 C 1204.11 1.78295 1.44027 0
M  V30 12154 C 1205.12 0.664303 1.4863 0
M  V30 12155 O 1206.31 0.941073 1.51678 0
M  V30 12156 C 1203.41 1.86947 2.82673 0
M  V30 12157 C 1202.58 3.16898 3.01487 0
M  V30 12158 C 1201.64 3.16483 4.20386 0
M  V30 12159 O 1200.67 3.90197 4.14409 0
M  V30 12160 N 1201.87 2.3899 5.29022 0
M  V30 12161 H 1204.63 2.73102 1.23431 0
M  V30 12162 H 1202.19 1.52928 0.531483 0
M  V30 12163 H 1204.19 1.84118 3.60392 0
M  V30 12164 H 1202.76 0.993169 2.96403 0
M  V30 12165 H 1201.98 3.32835 2.11221 0
M  V30 12166 H 1203.26 4.02733 3.1094 0
M  V30 12167 H 1202.66 1.78657 5.36748 0
M  V30 12168 H 1201.22 2.41957 6.05227 0
M  V30 12169 N 1204.65 -0.602709 1.4562 0
M  V30 12170 C 1205.9 -1.36359 1.50113 0
M  V30 12171 C 1206.23 -1.93663 0.144297 0
M  V30 12172 O 1205.51 -1.75337 -0.841851 0
M  V30 12173 C 1205.79 -2.50788 2.58413 0
M  V30 12174 C 1205.64 -1.98649 4.03557 0
M  V30 12175 C 1206.96 -3.52905 2.62957 0
M  V30 12176 H 1204.08 -0.494455 0.54652 0
M  V30 12177 H 1206.72 -0.678957 1.77455 0
M  V30 12178 H 1204.87 -3.09191 2.3523 0
M  V30 12179 H 1206.54 -1.44857 4.37966 0
M  V30 12180 H 1204.79 -1.29615 4.13984 0
M  V30 12181 H 1205.46 -2.81159 4.7503 0
M  V30 12182 H 1207.93 -3.0435 2.83743 0
M  V30 12183 H 1206.81 -4.30454 3.40589 0
M  V30 12184 H 1207.07 -4.0884 1.68233 0
M  V30 12185 N 1206.13 -1.32992 -0.845635 0
M  V30 12186 C 1207.04 -1.24701 -1.98713 0
M  V30 12187 C 1208.06 -0.158864 -1.73273 0
M  V30 12188 O 1209.23 -0.381209 -1.97759 0
M  V30 12189 C 1206.3 -0.979524 -3.32575 0
M  V30 12190 C 1205.36 -2.15701 -3.71176 0
M  V30 12191 C 1204.59 -1.90219 -4.98651 0
M  V30 12192 O 1204.81 -0.849171 -5.64044 0
M  V30 12193 O 1203.75 -2.76571 -5.34595 0
M  V30 12194 H 1207.57 -2.20683 -2.08645 0
M  V30 12195 H 1205.16 -1.12971 -0.97765 0
M  V30 12196 H 1207.04 -0.847219 -4.12796 0
M  V30 12197 H 1205.72 -0.0499398 -3.23661 0
M  V30 12198 H 1204.62 -2.34483 -2.91494 0
M  V30 12199 H 1205.96 -3.0697 -3.84747 0
M  V30 12200 N 1207.61 1.06304 -1.1635 0
M  V30 12201 C 1208.83 1.83338 -0.969639 0
M  V30 12202 C 1209.26 1.81945 0.477231 0
M  V30 12203 O 1208.62 1.22018 1.34094 0
M  V30 12204 C 1208.66 3.2785 -1.50155 0
M  V30 12205 O 1207.77 4.06281 -0.707805 0
M  V30 12206 H 1207.11 0.567293 -0.345072 0
M  V30 12207 H 1209.64 1.34033 -1.54584 0
M  V30 12208 H 1209.65 3.7867 -1.51898 0
M  V30 12209 H 1208.32 3.28179 -2.55483 0
M  V30 12210 H 1206.9 3.65055 -0.760872 0
M  V30 12211 N 1209.09 0.96196 1.24836 0
M  V30 12212 C 1210.03 0.48686 2.25607 0
M  V30 12213 C 1211 -0.464546 1.59472 0
M  V30 12214 O 1212.19 -0.376179 1.87055 0
M  V30 12215 C 1209.33 -0.222294 3.44383 0
M  V30 12216 C 1208.44 0.767206 4.25133 0
M  V30 12217 C 1207.58 0.0347458 5.31189 0
M  V30 12218 C 1206.61 1.01469 6.03631 0
M  V30 12219 N 1205.75 0.312619 7.01404 0
M  V30 12220 H 1210.59 1.35104 2.65614 0
M  V30 12221 H 1208.13 0.677373 1.30576 0
M  V30 12222 H 1210.09 -0.650087 4.12104 0
M  V30 12223 H 1208.72 -1.05047 3.0523 0
M  V30 12224 H 1207.77 1.31346 3.57005 0
M  V30 12225 H 1209.08 1.5147 4.75245 0
M  V30 12226 H 1208.23 -0.451325 6.05019 0
M  V30 12227 H 1206.97 -0.745485 4.81969 0
M  V30 12228 H 1205.98 1.51169 5.28609 0
M  V30 12229 H 1207.2 1.79527 6.5494 0
M  V30 12230 H 1205.15 -0.44874 6.54463 0
M  V30 12231 H 1205.07 0.999079 7.49369 0
M  V30 12232 H 1206.33 -0.151673 7.79352 0
M  V30 12233 N 1210.56 -1.39601 0.731392 0
M  V30 12234 C 1211.5 -2.29147 0.0494974 0
M  V30 12235 C 1212.51 -1.46635 -0.707248 0
M  V30 12236 O 1213.7 -1.6975 -0.552008 0
M  V30 12237 C 1210.8 -3.25191 -0.954152 0
M  V30 12238 C 1209.97 -4.36629 -0.259674 0
M  V30 12239 C 1209.03 -5.13007 -1.17092 0
M  V30 12240 O 1208.06 -5.65479 -0.64976 0
M  V30 12241 N 1209.26 -5.23865 -2.50092 0
M  V30 12242 H 1212.02 -2.88308 0.818433 0
M  V30 12243 H 1209.58 -1.51142 0.580316 0
M  V30 12244 H 1211.58 -3.73161 -1.56629 0
M  V30 12245 H 1210.15 -2.67085 -1.62432 0
M  V30 12246 H 1209.37 -3.90582 0.532888 0
M  V30 12247 H 1210.65 -5.08317 0.221753 0
M  V30 12248 H 1210.05 -4.82745 -2.94913 0
M  V30 12249 H 1208.61 -5.75288 -3.0641 0
M  V30 12250 N 1212.04 -0.478751 -1.50152 0
M  V30 12251 C 1212.99 0.325375 -2.30313 0
M  V30 12252 C 1213.98 0.983372 -1.37935 0
M  V30 12253 O 1215.19 0.913601 -1.55091 0
M  V30 12254 H 1211.57 0.123775 -0.741744 0
M  V30 12255 H 1213.54 -0.371004 -2.96085 0
M  V30 12256 C 1212.29 1.39026 -3.18696 0
M  V30 12257 H 1211.61 0.893329 -3.89692 0
M  V30 12258 H 1213.05 1.92533 -3.77766 0
M  V30 12259 C 1211.51 2.39637 -2.36803 0
M  V30 12260 O 1212.04 3.45067 -2.05649 0
M  V30 12261 N 1210.24 2.11546 -1.9924 0
M  V30 12262 H 1209.79 1.25832 -2.24775 0
M  V30 12263 H 1209.75 2.79096 -1.44751 0
M  V30 12264 N 1213.52 1.56172 -0.211661 0
M  V30 12265 C 1214.48 2.18602 0.688906 0
M  V30 12266 C 1215.48 1.14508 1.12892 0
M  V30 12267 O 1216.67 1.39799 1.03932 0
M  V30 12268 C 1213.81 2.80141 1.94253 0
M  V30 12269 H 1215 2.9955 0.144765 0
M  V30 12270 H 1212.55 1.56254 0.0379615 0
M  V30 12271 H 1213.29 2.03035 2.52878 0
M  V30 12272 H 1213.07 3.56358 1.63558 0
M  V30 12273 H 1214.56 3.28026 2.58436 0
M  V30 12274 N 1215 -0.0618163 1.57479 0
M  V30 12275 C 1215.91 -1.09006 2.07738 0
M  V30 12276 C 1216.92 -1.4176 1.00896 0
M  V30 12277 O 1218.1 -1.51737 1.32431 0
M  V30 12278 C 1215.17 -2.38153 2.5196 0
M  V30 12279 C 1214.23 -2.12279 3.73143 0
M  V30 12280 C 1213.46 -3.35269 4.15248 0
M  V30 12281 O 1213.68 -4.44758 3.57137 0
M  V30 12282 O 1212.62 -3.22894 5.0796 0
M  V30 12283 H 1216.44 -0.693059 2.95686 0
M  V30 12284 H 1214.03 -0.276628 1.46817 0
M  V30 12285 H 1215.91 -3.14139 2.80882 0
M  V30 12286 H 1214.58 -2.77213 1.67137 0
M  V30 12287 H 1213.49 -1.33966 3.49291 0
M  V30 12288 H 1214.82 -1.78094 4.5885 0
M  V30 12289 N 1216.48 -1.54033 -0.333429 0
M  V30 12290 C 1217.41 -1.85719 -1.4153 0
M  V30 12291 C 1218.39 -0.713144 -1.54429 0
M  V30 12292 O 1219.57 -0.965984 -1.68471 0
M  V30 12293 C 1216.7 -2.07578 -2.78439 0
M  V30 12294 C 1215.66 -3.23411 -2.80338 0
M  V30 12295 C 1214.98 -3.30622 -4.2023 0
M  V30 12296 C 1216.28 -4.6129 -2.44968 0
M  V30 12297 H 1217.98 -2.76325 -1.15261 0
M  V30 12298 H 1215.52 -1.32957 -0.55303 0
M  V30 12299 H 1217.48 -2.28329 -3.5418 0
M  V30 12300 H 1216.2 -1.13713 -3.06165 0
M  V30 12301 H 1214.86 -3.02531 -2.07052 0
M  V30 12302 H 1214.51 -2.34333 -4.45081 0
M  V30 12303 H 1214.21 -4.08466 -4.22409 0
M  V30 12304 H 1215.73 -3.53596 -4.97798 0
M  V30 12305 H 1217.14 -4.81987 -3.10421 0
M  V30 12306 H 1215.54 -5.41611 -2.58414 0
M  V30 12307 H 1216.61 -4.6421 -1.40134 0
M  V30 12308 N 1217.95 0.594978 -1.45938 0
M  V30 12309 C 1218.92 1.68688 -1.55168 0
M  V30 12310 C 1219.92 1.54945 -0.429951 0
M  V30 12311 O 1221.11 1.59785 -0.693859 0
M  V30 12312 C 1218.24 3.0804 -1.46027 0
M  V30 12313 H 1219.43 1.61866 -2.52467 0
M  V30 12314 H 1216.99 0.811785 -1.33565 0
M  V30 12315 H 1217.72 3.20428 -0.499614 0
M  V30 12316 H 1217.51 3.19423 -2.27401 0
M  V30 12317 H 1219 3.8755 -1.55546 0
M  V30 12318 N 1219.43 1.33438 0.838571 0
M  V30 12319 C 1220.38 1.23717 1.94841 0
M  V30 12320 C 1221.35 0.11573 1.65696 0
M  V30 12321 O 1222.53 0.294051 1.8852 0
M  V30 12322 C 1219.67 0.982626 3.30815 0
M  V30 12323 C 1218.79 2.19036 3.72354 0
M  V30 12324 C 1217.92 1.86995 4.97199 0
M  V30 12325 C 1216.96 3.03998 5.31274 0
M  V30 12326 N 1216.1 2.71943 6.47295 0
M  V30 12327 H 1220.94 2.18639 2.02487 0
M  V30 12328 H 1218.48 1.08721 0.990861 0
M  V30 12329 H 1220.43 0.81548 4.09152 0
M  V30 12330 H 1219.06 0.0701443 3.22724 0
M  V30 12331 H 1218.12 2.46724 2.89537 0
M  V30 12332 H 1219.43 3.06505 3.93518 0
M  V30 12333 H 1218.58 1.66925 5.83285 0
M  V30 12334 H 1217.32 0.967628 4.78004 0
M  V30 12335 H 1216.33 3.24681 4.43692 0
M  V30 12336 H 1217.55 3.94985 5.52416 0
M  V30 12337 H 1215.5 1.8427 6.29588 0
M  V30 12338 H 1215.41 3.52943 6.68556 0
M  V30 12339 H 1216.68 2.55342 7.36492 0
M  V30 12340 N 1220.91 -1.05686 1.16912 0
M  V30 12341 C 1221.84 -2.15268 0.904532 0
M  V30 12342 C 1222.82 -1.69424 -0.151548 0
M  V30 12343 O 1224.01 -1.942 -0.00235371 0
M  V30 12344 C 1221.14 -3.44853 0.411581 0
M  V30 12345 C 1220.09 -4.04237 1.40628 0
M  V30 12346 C 1219.42 -5.29105 0.771479 0
M  V30 12347 C 1220.72 -4.42303 2.77787 0
M  V30 12348 H 1222.41 -2.37659 1.82094 0
M  V30 12349 H 1219.96 -1.14217 0.876947 0
M  V30 12350 H 1221.91 -4.20857 0.213929 0
M  V30 12351 H 1220.63 -3.22099 -0.540352 0
M  V30 12352 H 1219.29 -3.30297 1.59058 0
M  V30 12353 H 1218.94 -5.02652 -0.187133 0
M  V30 12354 H 1218.64 -5.69797 1.43545 0
M  V30 12355 H 1220.16 -6.07801 0.583988 0
M  V30 12356 H 1221.58 -5.09362 2.63103 0
M  V30 12357 H 1219.98 -4.93997 3.40716 0
M  V30 12358 H 1221.05 -3.52877 3.32575 0
M  V30 12359 N 1222.39 -0.968567 -1.24324 0
M  V30 12360 C 1223.8 -0.675239 -1.44612 0
M  V30 12361 C 1224 0.762641 -1.8651 0
M  V30 12362 O 1223.06 1.53644 -2.00374 0
M  V30 12363 C 1224.37 -1.66007 -2.50723 0
M  V30 12364 C 1225.92 -1.6728 -2.6455 0
M  V30 12365 C 1226.4 -2.64563 -3.73859 0
M  V30 12366 N 1227.89 -2.6301 -3.81287 0
M  V30 12367 C 1228.62 -3.34957 -4.65394 0
M  V30 12368 N 1228.12 -4.16424 -5.53681 0
M  V30 12369 N 1229.91 -3.23778 -4.59483 0
M  V30 12370 H 1222.06 -1.89757 -0.954257 0
M  V30 12371 H 1224.33 -0.817004 -0.480841 0
M  V30 12372 H 1224.03 -2.68779 -2.26827 0
M  V30 12373 H 1223.91 -1.43353 -3.48898 0
M  V30 12374 H 1226.29 -0.652184 -2.87803 0
M  V30 12375 H 1226.37 -1.93997 -1.6673 0
M  V30 12376 H 1226.02 -3.66759 -3.51355 0
M  V30 12377 H 1225.95 -2.35124 -4.71194 0
M  V30 12378 H 1228.44 -2.03877 -3.18186 0
M  V30 12379 H 1228.75 -4.68207 -6.14818 0
M  V30 12380 H 1227.1 -4.20518 -5.53344 0
M  V30 12381 H 1230.29 -2.59594 -3.89524 0
M  V30 12382 H 1230.46 -3.80112 -5.24804 0
M  V30 12383 N 1223.87 1.39211 -0.738786 0
M  V30 12384 C 1224.8 2.29117 -0.0616489 0
M  V30 12385 C 1225.81 1.47008 0.699462 0
M  V30 12386 O 1227 1.70041 0.542998 0
M  V30 12387 C 1224.1 3.25692 0.936893 0
M  V30 12388 C 1223.27 4.3676 0.236515 0
M  V30 12389 C 1222.33 5.1362 1.1437 0
M  V30 12390 O 1221.36 5.65816 0.619762 0
M  V30 12391 N 1222.56 5.25184 2.4731 0
M  V30 12392 H 1225.33 2.8787 -0.833711 0
M  V30 12393 H 1222.89 1.50832 -0.588323 0
M  V30 12394 H 1224.88 3.73987 1.54648 0
M  V30 12395 H 1223.45 2.67943 1.61014 0
M  V30 12396 H 1222.67 3.90293 -0.553594 0
M  V30 12397 H 1223.96 5.08192 -0.248707 0
M  V30 12398 H 1223.35 4.84302 2.92349 0
M  V30 12399 H 1221.91 5.76905 3.03355 0
M  V30 12400 N 1225.34 0.486708 1.49896 0
M  V30 12401 C 1226.25 -0.304222 2.32619 0
M  V30 12402 C 1227.27 -0.981103 1.43702 0
M  V30 12403 O 1228.45 -0.965639 1.76741 0
M  V30 12404 C 1225.51 -1.36301 3.18783 0
M  V30 12405 C 1224.57 -0.701082 4.23537 0
M  V30 12406 C 1223.81 -1.70943 5.05583 0
M  V30 12407 O 1224.03 -2.93773 4.88931 0
M  V30 12408 O 1222.96 -1.27263 5.88292 0
M  V30 12409 H 1226.79 0.37248 3.01407 0
M  V30 12410 H 1224.37 0.248277 1.47323 0
M  V30 12411 H 1226.26 -1.97594 3.72202 0
M  V30 12412 H 1224.93 -2.0229 2.52706 0
M  V30 12413 H 1223.84 -0.0487926 3.74068 0
M  V30 12414 H 1225.17 -0.0838817 4.92129 0
M  V30 12415 N 1226.82 -1.56058 0.219941 0
M  V30 12416 C 1227.75 -2.2321 -0.685547 0
M  V30 12417 C 1228.73 -1.20328 -1.20229 0
M  V30 12418 O 1229.92 -1.48909 -1.24659 0
M  V30 12419 C 1227.05 -2.91076 -1.89452 0
M  V30 12420 C 1226 -4.00415 -1.51169 0
M  V30 12421 C 1225.33 -4.55569 -2.79931 0
M  V30 12422 C 1226.63 -5.17549 -0.702896 0
M  V30 12423 H 1228.32 -2.99136 -0.125671 0
M  V30 12424 H 1225.87 -1.43879 -0.0590043 0
M  V30 12425 H 1227.82 -3.36744 -2.53341 0
M  V30 12426 H 1226.55 -2.12594 -2.47934 0
M  V30 12427 H 1225.21 -3.55475 -0.896275 0
M  V30 12428 H 1224.85 -3.73819 -3.36553 0
M  V30 12429 H 1224.55 -5.29361 -2.55049 0
M  V30 12430 H 1226.08 -5.03955 -3.44764 0
M  V30 12431 H 1227.49 -5.59608 -1.24544 0
M  V30 12432 H 1225.89 -5.97563 -0.551234 0
M  V30 12433 H 1226.96 -4.84027 0.29083 0
M  V30 12434 N 1228.3 0.053464 -1.57509 0
M  V30 12435 C 1229.53 0.765301 -1.92764 0
M  V30 12436 C 1229.95 1.69385 -0.817943 0
M  V30 12437 O 1229.31 1.7986 0.228075 0
M  V30 12438 C 1229.36 1.51938 -3.27028 0
M  V30 12439 O 1228.46 2.63121 -3.17555 0
M  V30 12440 H 1227.8 0.207567 -0.630723 0
M  V30 12441 H 1230.33 0.0162254 -2.04594 0
M  V30 12442 H 1230.34 1.89466 -3.6134 0
M  V30 12443 H 1229.02 0.838207 -4.07366 0
M  V30 12444 H 1227.59 2.28316 -2.94832 0
M  V30 12445 N 1229.78 1.54207 0.325255 0
M  V30 12446 C 1230.73 1.83474 1.40021 0
M  V30 12447 C 1231.7 0.681719 1.51466 0
M  V30 12448 O 1232.88 0.92798 1.66713 0
M  V30 12449 C 1230.02 2.06624 2.76407 0
M  V30 12450 C 1229.13 3.3431 2.73607 0
M  V30 12451 C 1228.27 3.4743 4.01828 0
M  V30 12452 C 1227.31 4.68997 3.93329 0
M  V30 12453 N 1226.45 4.79052 5.13277 0
M  V30 12454 H 1231.29 2.75182 1.14363 0
M  V30 12455 H 1228.82 1.36284 0.553639 0
M  V30 12456 H 1230.78 2.18037 3.5569 0
M  V30 12457 H 1229.41 1.18209 3.00377 0
M  V30 12458 H 1228.46 3.31643 1.86324 0
M  V30 12459 H 1229.77 4.237 2.6321 0
M  V30 12460 H 1228.93 3.58376 4.89542 0
M  V30 12461 H 1227.67 2.56128 4.1503 0
M  V30 12462 H 1226.67 4.58109 3.04 0
M  V30 12463 H 1227.9 5.61681 3.81695 0
M  V30 12464 H 1225.84 3.90666 5.26988 0
M  V30 12465 H 1225.76 5.62406 5.05208 0
M  V30 12466 H 1227.03 4.94328 6.02711 0
M  V30 12467 N 1231.26 -0.58723 1.46251 0
M  V30 12468 C 1232.5 -1.3476 1.51551 0
M  V30 12469 C 1232.84 -1.93499 0.16483 0
M  V30 12470 O 1232.11 -1.7622 -0.823207 0
M  V30 12471 C 1232.39 -2.48033 2.61059 0
M  V30 12472 C 1232.25 -1.94358 4.05642 0
M  V30 12473 C 1233.57 -3.50096 2.66685 0
M  V30 12474 H 1230.69 -0.48863 0.551733 0
M  V30 12475 H 1233.33 -0.660097 1.78165 0
M  V30 12476 H 1231.48 -3.06679 2.38496 0
M  V30 12477 H 1233.15 -1.40204 4.39478 0
M  V30 12478 H 1231.39 -1.25217 4.15335 0
M  V30 12479 H 1232.06 -2.76105 4.77986 0
M  V30 12480 H 1234.54 -3.01324 2.86955 0
M  V30 12481 H 1233.42 -4.26817 3.45135 0
M  V30 12482 H 1233.68 -4.07032 1.7256 0
M  V30 12483 N 1232.74 -1.33881 -0.831482 0
M  V30 12484 C 1233.96 -1.28961 -1.62431 0
M  V30 12485 C 1234.39 0.135249 -1.87613 0
M  V30 12486 O 1233.74 1.09426 -1.44553 0
M  V30 12487 C 1233.79 -2.07767 -2.94729 0
M  V30 12488 O 1232.9 -1.44133 -3.86393 0
M  V30 12489 H 1232.24 -0.443313 -0.494337 0
M  V30 12490 H 1234.77 -1.76555 -1.0339 0
M  V30 12491 H 1234.78 -2.18806 -3.44366 0
M  V30 12492 H 1233.45 -3.11367 -2.75724 0
M  V30 12493 H 1232.03 -1.41784 -3.44894 0
M  V30 12494 N 1234.21 1.05064 -1.1747 0
M  V30 12495 C 1235.16 2.12841 -0.89259 0
M  V30 12496 C 1236.13 1.65288 0.16402 0
M  V30 12497 O 1237.32 1.90782 0.026537 0
M  V30 12498 C 1234.46 3.42614 -0.41344 0
M  V30 12499 C 1233.57 4.03835 -1.53432 0
M  V30 12500 C 1232.7 5.21531 -1.00891 0
M  V30 12501 C 1231.74 5.74761 -2.10515 0
M  V30 12502 N 1230.88 6.83756 -1.59442 0
M  V30 12503 H 1235.72 2.36312 -1.81551 0
M  V30 12504 H 1233.26 1.15929 -0.905483 0
M  V30 12505 H 1235.21 4.17035 -0.117181 0
M  V30 12506 H 1233.84 3.19323 0.472517 0
M  V30 12507 H 1232.9 3.2684 -1.94627 0
M  V30 12508 H 1234.21 4.3938 -2.36108 0
M  V30 12509 H 1233.36 6.03027 -0.666575 0
M  V30 12510 H 1232.1 4.87464 -0.151608 0
M  V30 12511 H 1231.11 4.91893 -2.45604 0
M  V30 12512 H 1232.33 6.10875 -2.96663 0
M  V30 12513 H 1230.28 6.51584 -0.759849 0
M  V30 12514 H 1230.19 7.18311 -2.35724 0
M  V30 12515 H 1231.46 7.68901 -1.28105 0
M  V30 12516 N 1235.69 0.975146 1.23809 0
M  V30 12517 C 1236.6 0.51917 2.28783 0
M  V30 12518 C 1237.62 -0.423487 1.68768 0
M  V30 12519 O 1238.79 -0.294699 1.99232 0
M  V30 12520 C 1235.86 -0.176229 3.46252 0
M  V30 12521 C 1234.92 0.807177 4.21643 0
M  V30 12522 C 1234.15 0.144869 5.33503 0
M  V30 12523 O 1234.38 -1.06522 5.60365 0
M  V30 12524 O 1233.31 0.84079 5.95999 0
M  V30 12525 H 1237.14 1.39204 2.69919 0
M  V30 12526 H 1234.72 0.74253 1.29641 0
M  V30 12527 H 1236.6 -0.566547 4.17574 0
M  V30 12528 H 1235.28 -1.02394 3.07078 0
M  V30 12529 H 1234.18 1.2481 3.52666 0
M  V30 12530 H 1235.52 1.62354 4.64653 0
M  V30 12531 N 1237.17 -1.38817 0.746158 0
M  V30 12532 C 1238.1 -2.33144 0.128836 0
M  V30 12533 C 1239.08 -1.54487 -0.711873 0
M  V30 12534 O 1240.27 -1.82836 -0.654577 0
M  V30 12535 C 1237.4 -3.38639 -0.770772 0
M  V30 12536 C 1236.35 -4.27987 -0.0333669 0
M  V30 12537 C 1235.68 -5.24274 -1.05073 0
M  V30 12538 C 1236.98 -5.09915 1.13066 0
M  V30 12539 H 1238.67 -2.85019 0.916778 0
M  V30 12540 H 1236.22 -1.37039 0.442306 0
M  V30 12541 H 1238.17 -4.03587 -1.21225 0
M  V30 12542 H 1236.89 -2.8523 -1.59095 0
M  V30 12543 H 1235.55 -3.64534 0.388612 0
M  V30 12544 H 1235.2 -4.67156 -1.86478 0
M  V30 12545 H 1234.9 -5.84906 -0.562037 0
M  V30 12546 H 1236.42 -5.92099 -1.49169 0
M  V30 12547 H 1237.84 -5.68145 0.767084 0
M  V30 12548 H 1236.23 -5.79744 1.54972 0
M  V30 12549 H 1237.3 -4.4409 1.94709 0
M  V30 12550 N 1238.65 -0.49465 -1.49636 0
M  V30 12551 C 1239.89 0.0521945 -2.02733 0
M  V30 12552 C 1240.23 1.3723 -1.37411 0
M  V30 12553 O 1239.5 1.87758 -0.507642 0
M  V30 12554 C 1239.78 0.2114 -3.59479 0
M  V30 12555 C 1239.64 -1.13138 -4.35339 0
M  V30 12556 C 1240.96 0.955015 -4.29613 0
M  V30 12557 H 1238.08 0.0174946 -0.736792 0
M  V30 12558 H 1240.72 -0.644827 -1.78723 0
M  V30 12559 H 1238.87 0.805078 -3.80067 0
M  V30 12560 H 1240.54 -1.76345 -4.26263 0
M  V30 12561 H 1238.78 -1.72224 -3.98147 0
M  V30 12562 H 1239.45 -0.97336 -5.4335 0
M  V30 12563 H 1241.93 0.451575 -4.13642 0
M  V30 12564 H 1240.81 1.03524 -5.39049 0
M  V30 12565 H 1241.07 1.99724 -3.94414 0
M  V30 12566 N 1240.13 1.55939 -0.228214 0
M  V30 12567 C 1241.04 2.24213 0.690339 0
M  V30 12568 C 1242.05 1.25197 1.20838 0
M  V30 12569 O 1243.23 1.58026 1.24859 0
M  V30 12570 C 1240.29 2.91384 1.87873 0
M  V30 12571 C 1239.35 4.05761 1.40201 0
M  V30 12572 C 1238.59 4.6972 2.53376 0
M  V30 12573 O 1238.81 4.32687 3.71669 0
M  V30 12574 O 1237.74 5.58587 2.24198 0
M  V30 12575 H 1241.57 3.03383 0.138692 0
M  V30 12576 H 1239.15 1.494 0.00251504 0
M  V30 12577 H 1241.04 3.33758 2.57262 0
M  V30 12578 H 1239.71 2.15168 2.41835 0
M  V30 12579 H 1238.62 3.67943 0.675945 0
M  V30 12580 H 1239.95 4.83739 0.908691 0
M  V30 12581 N 1241.6 -0.0451101 1.57535 0
M  V30 12582 C 1242.55 -1.05066 2.05499 0
M  V30 12583 C 1243.52 -1.36884 0.940843 0
M  V30 12584 O 1244.71 -1.47497 1.21034 0
M  V30 12585 C 1241.85 -2.35139 2.52594 0
M  V30 12586 C 1240.96 -2.0962 3.77735 0
M  V30 12587 C 1240.09 -3.33447 4.13505 0
M  V30 12588 C 1239.13 -3.03411 5.31609 0
M  V30 12589 N 1238.27 -4.19644 5.62888 0
M  V30 12590 H 1243.11 -0.63469 2.91163 0
M  V30 12591 H 1240.65 -0.30179 1.43971 0
M  V30 12592 H 1242.61 -3.11118 2.7796 0
M  V30 12593 H 1241.24 -2.74489 1.69869 0
M  V30 12594 H 1240.29 -1.24211 3.59549 0
M  V30 12595 H 1241.6 -1.83452 4.63839 0
M  V30 12596 H 1240.75 -4.17805 4.39914 0
M  V30 12597 H 1239.49 -3.62715 3.2602 0
M  V30 12598 H 1238.5 -2.17453 5.04969 0
M  V30 12599 H 1239.72 -2.75438 6.20734 0
M  V30 12600 H 1237.67 -4.48893 4.78363 0
M  V30 12601 H 1237.59 -3.96843 6.43468 0
M  V30 12602 H 1238.85 -5.04921 5.93865 0
M  V30 12603 N 1243.08 -1.54377 -0.317073 0
M  V30 12604 C 1244.31 -1.77184 -1.07798 0
M  V30 12605 C 1244.73 -0.52204 -1.80711 0
M  V30 12606 O 1244.09 0.52672 -1.7348 0
M  V30 12607 C 1244.14 -2.96887 -2.04671 0
M  V30 12608 O 1243.24 -2.68887 -3.12688 0
M  V30 12609 H 1242.58 -0.586937 -0.310485 0
M  V30 12610 H 1245.11 -2.01419 -0.35939 0
M  V30 12611 H 1245.12 -3.24414 -2.47426 0
M  V30 12612 H 1243.8 -3.87518 -1.51005 0
M  V30 12613 H 1242.38 -2.52329 -2.74562 0
M  V30 12614 N 1244.56 0.579466 -1.4656 0
M  V30 12615 C 1245.47 1.71609 -1.59961 0
M  V30 12616 C 1246.49 1.67162 -0.483002 0
M  V30 12617 O 1247.66 1.87012 -0.747561 0
M  V30 12618 C 1244.73 3.08114 -1.58954 0
M  V30 12619 C 1243.79 3.238 -2.81872 0
M  V30 12620 C 1243.02 4.53794 -2.80904 0
M  V30 12621 O 1243.24 5.37884 -1.89835 0
M  V30 12622 O 1242.18 4.72796 -3.72488 0
M  V30 12623 H 1246 1.6325 -2.56092 0
M  V30 12624 H 1243.59 0.746891 -1.2939 0
M  V30 12625 H 1245.47 3.8939 -1.611 0
M  V30 12626 H 1244.15 3.16903 -0.65984 0
M  V30 12627 H 1243.05 2.42006 -2.85279 0
M  V30 12628 H 1244.39 3.19904 -3.74062 0
M  V30 12629 N 1246.04 1.3432 0.824371 0
M  V30 12630 C 1247 1.25672 1.91675 0
M  V30 12631 C 1248 0.172269 1.59875 0
M  V30 12632 O 1249.19 0.424794 1.68941 0
M  V30 12633 C 1246.32 0.939928 3.27686 0
M  V30 12634 H 1247.52 2.22785 2.00766 0
M  V30 12635 H 1245.07 1.18587 1.01817 0
M  V30 12636 H 1245.8 -0.0280898 3.24288 0
M  V30 12637 H 1245.59 1.72432 3.5215 0
M  V30 12638 H 1247.08 0.904553 4.07686 0
M  V30 12639 N 1247.52 -1.0444 1.18026 0
M  V30 12640 C 1248.76 -1.77838 0.974756 0
M  V30 12641 C 1249.1 -1.87792 -0.494755 0
M  V30 12642 O 1248.37 -1.38327 -1.36733 0
M  V30 12643 C 1248.65 -3.21315 1.62569 0
M  V30 12644 C 1248.51 -3.19327 3.16781 0
M  V30 12645 C 1249.83 -4.19337 1.33583 0
M  V30 12646 H 1246.94 -0.645575 0.35553 0
M  V30 12647 H 1249.59 -1.22023 1.45638 0
M  V30 12648 H 1247.74 -3.68974 1.21617 0
M  V30 12649 H 1249.41 -2.79687 3.66842 0
M  V30 12650 H 1247.65 -2.57461 3.49137 0
M  V30 12651 H 1248.32 -4.20626 3.5746 0
M  V30 12652 H 1250.8 -3.80208 1.69059 0
M  V30 12653 H 1249.67 -5.17953 1.81702 0
M  V30 12654 H 1249.94 -4.41346 0.258016 0
M  V30 12655 N 1248.99 -0.981699 -1.2329 0
M  V30 12656 C 1250.41 -0.690539 -1.43888 0
M  V30 12657 C 1250.61 0.742816 -1.87309 0
M  V30 12658 O 1249.67 1.5151 -2.01993 0
M  V30 12659 C 1250.98 -1.68657 -2.48948 0
M  V30 12660 C 1252.53 -1.70076 -2.62761 0
M  V30 12661 C 1253 -2.68513 -3.71032 0
M  V30 12662 N 1254.49 -2.67039 -3.78476 0
M  V30 12663 C 1255.23 -3.39874 -4.61815 0
M  V30 12664 N 1254.72 -4.22273 -5.49233 0
M  V30 12665 N 1256.52 -3.28633 -4.56023 0
M  V30 12666 H 1248.67 -1.90758 -0.934077 0
M  V30 12667 H 1250.93 -0.822058 -0.472149 0
M  V30 12668 H 1250.64 -2.7117 -2.23964 0
M  V30 12669 H 1250.51 -1.47045 -3.47358 0
M  V30 12670 H 1252.9 -0.682673 -2.87095 0
M  V30 12671 H 1252.98 -1.95754 -1.64663 0
M  V30 12672 H 1252.62 -3.70464 -3.47446 0
M  V30 12673 H 1252.55 -2.40109 -4.68674 0
M  V30 12674 H 1255.04 -2.07241 -3.16006 0
M  V30 12675 H 1255.36 -4.74702 -6.09818 0
M  V30 12676 H 1253.7 -4.26364 -5.48852 0
M  V30 12677 H 1256.89 -2.6371 -3.86749 0
M  V30 12678 H 1257.07 -3.85656 -5.20743 0
M  V30 12679 N 1250.47 1.3842 -0.753509 0
M  V30 12680 C 1251.4 2.29039 -0.0859463 0
M  V30 12681 C 1252.42 1.47742 0.68383 0
M  V30 12682 O 1253.61 1.70607 0.524933 0
M  V30 12683 C 1250.71 3.26668 0.902296 0
M  V30 12684 C 1249.88 4.36986 0.190178 0
M  V30 12685 C 1248.94 5.14805 1.08916 0
M  V30 12686 O 1247.96 5.66441 0.559715 0
M  V30 12687 N 1249.17 5.27777 2.41726 0
M  V30 12688 H 1251.93 2.8697 -0.864196 0
M  V30 12689 H 1249.49 1.502 -0.604288 0
M  V30 12690 H 1251.48 3.75606 1.50672 0
M  V30 12691 H 1250.05 2.69636 1.58163 0
M  V30 12692 H 1249.27 3.89684 -0.594959 0
M  V30 12693 H 1250.56 5.07899 -0.302594 0
M  V30 12694 H 1249.96 4.87376 2.87196 0
M  V30 12695 H 1248.52 5.8009 2.97219 0
M  V30 12696 N 1251.95 0.502579 1.49372 0
M  V30 12697 C 1253.23 -0.104472 1.95321 0
M  V30 12698 C 1253.61 -1.53975 1.44412 0
M  V30 12699 O 1252.96 -2.18804 0.658566 0
M  V30 12700 C 1253.17 -0.0154833 3.48997 0
M  V30 12701 C 1254.51 -0.188615 4.24181 0
M  V30 12702 O 1255.54 -0.090595 3.56085 0
M  V30 12703 O 1254.4 -0.390068 5.45106 0
M  V30 12704 H 1251.49 -0.0944325 0.821591 0
M  V30 12705 H 1254.04 0.565229 1.6001 0
M  V30 12706 H 1252.81 0.985383 3.7869 0
M  V30 12707 H 1252.43 -0.72526 3.90929 0
M  V30 12708 N 1253.43 -1.55816 0.23648 0
M  V30 12709 C 1254.34 -2.24576 -0.678439 0
M  V30 12710 C 1255.35 -1.25836 -1.20172 0
M  V30 12711 O 1256.53 -1.58686 -1.24019 0
M  V30 12712 C 1253.6 -2.92376 -1.86325 0
M  V30 12713 C 1252.66 -4.06499 -1.38047 0
M  V30 12714 C 1251.89 -4.71057 -2.50881 0
M  V30 12715 O 1252.11 -4.34652 -3.69369 0
M  V30 12716 O 1251.05 -5.59768 -2.21232 0
M  V30 12717 H 1254.87 -3.03452 -0.122601 0
M  V30 12718 H 1252.46 -1.49399 0.00540803 0
M  V30 12719 H 1254.34 -3.35117 -2.55488 0
M  V30 12720 H 1253.01 -2.16448 -2.40691 0
M  V30 12721 H 1251.92 -3.68296 -0.656422 0
M  V30 12722 H 1253.25 -4.84214 -0.883024 0
M  V30 12723 N 1254.91 0.036755 -1.57557 0
M  V30 12724 C 1255.84 1.06718 -2.0284 0
M  V30 12725 C 1256.85 1.32926 -0.939917 0
M  V30 12726 O 1258.04 1.30549 -1.21734 0
M  V30 12727 C 1255.14 2.41054 -2.38214 0
M  V30 12728 C 1254.31 2.3431 -3.69347 0
M  V30 12729 C 1253.37 3.51034 -3.91997 0
M  V30 12730 O 1252.4 3.30875 -4.63152 0
M  V30 12731 N 1253.6 4.72634 -3.37042 0
M  V30 12732 H 1256.37 0.681275 -2.91854 0
M  V30 12733 H 1253.93 0.224836 -1.60331 0
M  V30 12734 H 1255.92 3.17847 -2.5051 0
M  V30 12735 H 1254.49 2.71517 -1.5491 0
M  V30 12736 H 1253.71 1.42668 -3.67477 0
M  V30 12737 H 1255 2.2694 -4.55385 0
M  V30 12738 H 1254.39 4.91914 -2.79352 0
M  V30 12739 H 1252.95 5.46818 -3.5473 0
M  V30 12740 N 1256.39 1.54543 0.308881 0
M  V30 12741 C 1257.32 1.81309 1.40212 0
M  V30 12742 C 1258.33 0.69568 1.47187 0
M  V30 12743 O 1259.52 0.973034 1.49647 0
M  V30 12744 C 1256.62 1.92901 2.78644 0
M  V30 12745 C 1255.79 3.23222 2.94697 0
M  V30 12746 C 1254.85 3.25329 4.13579 0
M  V30 12747 O 1253.88 3.989 4.06039 0
M  V30 12748 N 1255.08 2.50158 5.23833 0
M  V30 12749 H 1257.84 2.75659 1.1761 0
M  V30 12750 H 1255.41 1.54021 0.498925 0
M  V30 12751 H 1257.4 1.91721 3.56406 0
M  V30 12752 H 1255.97 1.05582 2.9423 0
M  V30 12753 H 1255.19 3.37241 2.04113 0
M  V30 12754 H 1256.48 4.09238 3.02328 0
M  V30 12755 H 1255.87 1.90002 5.32838 0
M  V30 12756 H 1254.43 2.5474 5.99959 0
M  V30 12757 N 1257.86 -0.571685 1.46866 0
M  V30 12758 C 1259.28 -0.896172 1.32064 0
M  V30 12759 C 1259.48 -1.9925 0.300291 0
M  V30 12760 O 1258.54 -2.50791 -0.293284 0
M  V30 12761 C 1259.85 -1.3031 2.70998 0
M  V30 12762 C 1261.4 -1.41533 2.79173 0
M  V30 12763 C 1261.87 -1.85587 4.18714 0
M  V30 12764 N 1263.36 -1.92762 4.21185 0
M  V30 12765 C 1264.1 -2.28148 5.26057 0
M  V30 12766 N 1263.59 -2.62248 6.41247 0
M  V30 12767 N 1265.39 -2.28797 5.13428 0
M  V30 12768 H 1257.54 0.152349 2.11853 0
M  V30 12769 H 1259.8 0.00548777 0.947984 0
M  V30 12770 H 1259.51 -0.571469 3.47026 0
M  V30 12771 H 1259.38 -2.26233 3.01826 0
M  V30 12772 H 1261.77 -2.1378 2.03426 0
M  V30 12773 H 1261.85 -0.438342 2.52016 0
M  V30 12774 H 1261.49 -1.13915 4.9496 0
M  V30 12775 H 1261.42 -2.84264 4.43285 0
M  V30 12776 H 1263.91 -1.68854 3.38078 0
M  V30 12777 H 1264.23 -2.88234 7.17036 0
M  V30 12778 H 1262.57 -2.59861 6.44591 0
M  V30 12779 H 1265.76 -2.01587 4.22469 0
M  V30 12780 H 1265.94 -2.56045 5.95269 0
M  V30 12781 N 1259.34 -1.34755 -0.817236 0
M  V30 12782 C 1260.29 -1.26801 -1.92848 0
M  V30 12783 C 1261.26 -0.142077 -1.65491 0
M  V30 12784 O 1262.44 -0.324006 -1.88029 0
M  V30 12785 C 1259.58 -1.03513 -3.2921 0
M  V30 12786 C 1258.7 -2.24932 -3.68822 0
M  V30 12787 C 1257.83 -1.94881 -4.94161 0
M  V30 12788 C 1256.87 -3.12411 -5.2637 0
M  V30 12789 N 1256.01 -2.82207 -6.42887 0
M  V30 12790 H 1260.85 -2.21832 -1.98983 0
M  V30 12791 H 1258.38 -1.10284 -0.973439 0
M  V30 12792 H 1260.34 -0.88047 -4.07803 0
M  V30 12793 H 1258.97 -0.121478 -3.22571 0
M  V30 12794 H 1258.02 -2.51299 -2.85575 0
M  V30 12795 H 1259.34 -3.12726 -3.88592 0
M  V30 12796 H 1258.49 -1.76184 -5.80555 0
M  V30 12797 H 1257.23 -1.04355 -4.76405 0
M  V30 12798 H 1256.23 -3.31698 -4.3847 0
M  V30 12799 H 1257.46 -4.03724 -5.46062 0
M  V30 12800 H 1255.41 -1.94263 -6.26576 0
M  V30 12801 H 1255.32 -3.63534 -6.62857 0
M  V30 12802 H 1256.59 -2.67026 -7.32337 0
M  V30 12803 N 1260.82 1.03812 -1.18578 0
M  V30 12804 C 1261.78 2.10049 -0.91718 0
M  V30 12805 C 1262.78 1.60498 0.0985122 0
M  V30 12806 O 1263.97 1.73674 -0.135213 0
M  V30 12807 C 1261.1 3.38813 -0.376599 0
M  V30 12808 H 1262.3 2.3531 -1.85927 0
M  V30 12809 H 1259.85 1.20277 -0.998156 0
M  V30 12810 H 1260.59 3.19216 0.571983 0
M  V30 12811 H 1260.37 3.76096 -1.10881 0
M  V30 12812 H 1261.86 4.17084 -0.207453 0
M  V30 12813 N 1262.3 0.988223 1.22768 0
M  V30 12814 C 1263.23 0.554478 2.26821 0
M  V30 12815 C 1264.21 -0.416293 1.64927 0
M  V30 12816 O 1265.39 -0.30795 1.91743 0
M  V30 12817 C 1262.52 -0.136266 3.47033 0
M  V30 12818 C 1261.48 0.752575 4.21332 0
M  V30 12819 C 1260.8 -0.0708236 5.34653 0
M  V30 12820 C 1262.1 2.04717 4.80508 0
M  V30 12821 H 1263.8 1.42423 2.63355 0
M  V30 12822 H 1261.34 0.686267 1.26595 0
M  V30 12823 H 1263.3 -0.451068 4.18979 0
M  V30 12824 H 1262.02 -1.04053 3.09581 0
M  V30 12825 H 1260.68 1.05095 3.51213 0
M  V30 12826 H 1260.33 -0.975859 4.93443 0
M  V30 12827 H 1260.03 0.520835 5.85287 0
M  V30 12828 H 1261.55 -0.379828 6.09417 0
M  V30 12829 H 1262.97 1.79663 5.44421 0
M  V30 12830 H 1261.36 2.58726 5.41462 0
M  V30 12831 H 1262.43 2.72896 4.00819 0
M  V30 12832 N 1263.78 -1.38018 0.760839 0
M  V30 12833 C 1264.69 -2.34181 0.140232 0
M  V30 12834 C 1265.7 -1.59635 -0.692287 0
M  V30 12835 O 1266.88 -1.91788 -0.614752 0
M  V30 12836 C 1263.94 -3.38778 -0.73693 0
M  V30 12837 C 1263 -4.29157 0.110792 0
M  V30 12838 C 1262.24 -5.28758 -0.724599 0
M  V30 12839 O 1262.46 -5.35585 -1.96226 0
M  V30 12840 O 1261.39 -6.01738 -0.139565 0
M  V30 12841 H 1265.22 -2.88962 0.934588 0
M  V30 12842 H 1262.8 -1.3999 0.521835 0
M  V30 12843 H 1264.69 -4.02804 -1.23803 0
M  V30 12844 H 1263.36 -2.86341 -1.50966 0
M  V30 12845 H 1262.27 -3.68268 0.658007 0
M  V30 12846 H 1263.6 -4.84869 0.846346 0
M  V30 12847 N 1265.25 -0.510493 -1.49103 0
M  V30 12848 C 1266.22 0.251915 -2.27811 0
M  V30 12849 C 1267.22 0.885432 -1.34226 0
M  V30 12850 O 1268.41 0.748494 -1.573 0
M  V30 12851 C 1265.54 1.3624 -3.12492 0
M  V30 12852 H 1266.73 -0.438872 -2.96671 0
M  V30 12853 H 1264.28 -0.265767 -1.54024 0
M  V30 12854 H 1265.02 2.08705 -2.48219 0
M  V30 12855 H 1264.8 0.913485 -3.81311 0
M  V30 12856 H 1266.29 1.89919 -3.71915 0
M  V30 12857 N 1266.73 1.55688 -0.24474 0
M  V30 12858 C 1267.68 2.21289 0.655723 0
M  V30 12859 C 1268.65 1.17606 1.17295 0
M  V30 12860 O 1269.83 1.46045 1.22782 0
M  V30 12861 C 1266.97 2.91453 1.84794 0
M  V30 12862 C 1266.09 4.09787 1.36744 0
M  V30 12863 C 1265.22 4.67672 2.51905 0
M  V30 12864 C 1264.26 5.78259 2.00706 0
M  V30 12865 N 1263.4 6.30336 3.09225 0
M  V30 12866 H 1268.24 2.97865 0.0896156 0
M  V30 12867 H 1265.77 1.47064 0.0324725 0
M  V30 12868 H 1267.73 3.30331 2.54828 0
M  V30 12869 H 1266.36 2.17355 2.38656 0
M  V30 12870 H 1265.41 3.76237 0.561228 0
M  V30 12871 H 1266.73 4.89627 0.952199 0
M  V30 12872 H 1265.88 5.09113 3.29984 0
M  V30 12873 H 1264.62 3.87044 2.9673 0
M  V30 12874 H 1263.62 5.36298 1.21097 0
M  V30 12875 H 1264.85 6.60737 1.56853 0
M  V30 12876 H 1262.8 5.52614 3.53489 0
M  V30 12877 H 1262.71 7.05364 2.72025 0
M  V30 12878 H 1263.98 6.76435 3.8737 0
M  V30 12879 N 1268.21 -0.0283989 1.57574 0
M  V30 12880 C 1269.17 -1.01346 2.05576 0
M  V30 12881 C 1270.17 -1.28999 0.960001 0
M  V30 12882 O 1271.36 -1.23991 1.2236 0
M  V30 12883 C 1268.49 -2.34611 2.47327 0
M  V30 12884 H 1269.69 -0.598809 2.93861 0
M  V30 12885 H 1267.24 -0.27524 1.53857 0
M  V30 12886 H 1267.98 -2.80823 1.622 0
M  V30 12887 H 1267.76 -2.1587 3.27326 0
M  V30 12888 H 1269.25 -3.05332 2.84889 0
M  V30 12889 N 1269.69 -1.54705 -0.300681 0
M  V30 12890 C 1270.65 -1.84934 -1.35395 0
M  V30 12891 C 1271.65 -0.72226 -1.43666 0
M  V30 12892 O 1272.84 -0.990543 -1.43296 0
M  V30 12893 C 1269.97 -2.02991 -2.73875 0
M  V30 12894 H 1271.17 -2.79063 -1.09835 0
M  V30 12895 H 1268.72 -1.46772 -0.537365 0
M  V30 12896 H 1269.45 -1.11151 -3.04657 0
M  V30 12897 H 1269.24 -2.85027 -2.69262 0
M  V30 12898 H 1270.73 -2.27747 -3.5003 0
M  V30 12899 N 1271.17 0.563888 -1.47167 0
M  V30 12900 C 1272.13 1.65359 -1.58711 0
M  V30 12901 C 1273.13 1.53999 -0.46272 0
M  V30 12902 O 1274.32 1.58277 -0.727595 0
M  V30 12903 C 1271.45 3.04874 -1.52529 0
M  V30 12904 H 1272.64 1.56475 -2.55843 0
M  V30 12905 H 1270.2 0.783271 -1.35257 0
M  V30 12906 H 1270.93 3.19297 -0.56747 0
M  V30 12907 H 1270.72 3.14528 -2.34125 0
M  V30 12908 H 1272.21 3.84164 -1.63731 0
M  V30 12909 N 1272.64 1.35187 0.810078 0
M  V30 12910 C 1273.89 1.28264 1.56699 0
M  V30 12911 C 1274.22 -0.143906 1.93967 0
M  V30 12912 O 1273.47 -1.10832 1.61291 0
M  V30 12913 C 1273.77 2.13135 2.86894 0
M  V30 12914 C 1273.44 3.61974 2.6886 0
M  V30 12915 C 1272.1 4.02545 2.63649 0
M  V30 12916 C 1274.45 4.5643 2.51636 0
M  V30 12917 C 1271.78 5.35745 2.39154 0
M  V30 12918 C 1274.13 5.89824 2.2867 0
M  V30 12919 C 1272.8 6.29544 2.2188 0
M  V30 12920 H 1272.07 0.469353 0.573401 0
M  V30 12921 H 1274.71 1.67051 0.936282 0
M  V30 12922 H 1273.02 1.67218 3.54324 0
M  V30 12923 H 1274.72 2.05117 3.44569 0
M  V30 12924 H 1271.31 3.29777 2.73761 0
M  V30 12925 H 1275.49 4.25974 2.54677 0
M  V30 12926 H 1270.75 5.65524 2.32363 0
M  V30 12927 H 1274.92 6.62597 2.14333 0
M  V30 12928 H 1272.55 7.32689 2.0266 0
M  V30 12929 N 1274.12 -1.03182 1.19127 0
M  V30 12930 C 1275.03 -2.14875 0.94159 0
M  V30 12931 C 1276.05 -1.73727 -0.0973872 0
M  V30 12932 O 1277.22 -2.01214 0.0865775 0
M  V30 12933 C 1274.29 -3.43356 0.480366 0
M  V30 12934 C 1273.35 -3.98835 1.58838 0
M  V30 12935 C 1272.58 -5.21183 1.14907 0
M  V30 12936 O 1272.81 -5.70399 0.0114141 0
M  V30 12937 O 1271.74 -5.69423 1.95042 0
M  V30 12938 H 1275.57 -2.38799 1.8764 0
M  V30 12939 H 1273.15 -1.13299 0.973841 0
M  V30 12940 H 1275.03 -4.20763 0.231658 0
M  V30 12941 H 1273.71 -3.20884 -0.426041 0
M  V30 12942 H 1272.62 -3.22776 1.8912 0
M  V30 12943 H 1273.95 -4.25665 2.47123 0
M  V30 12944 N 1275.6 -0.99472 -1.22242 0
M  V30 12945 C 1276.55 -0.546504 -2.24236 0
M  V30 12946 C 1277.52 0.422101 -1.60647 0
M  V30 12947 O 1278.7 0.326452 -1.87987 0
M  V30 12948 C 1275.84 0.130909 -3.44852 0
M  V30 12949 C 1274.96 -0.879653 -4.22949 0
M  V30 12950 C 1274.09 -0.175569 -5.3091 0
M  V30 12951 C 1273.13 -1.17438 -6.00729 0
M  V30 12952 N 1272.27 -0.498474 -7.00328 0
M  V30 12953 H 1277.11 -1.42099 -2.61939 0
M  V30 12954 H 1274.64 -0.711755 -1.28734 0
M  V30 12955 H 1276.6 0.540596 -4.13683 0
M  V30 12956 H 1275.23 0.96917 -3.07907 0
M  V30 12957 H 1274.28 -1.40765 -3.53397 0
M  V30 12958 H 1275.6 -1.64017 -4.71062 0
M  V30 12959 H 1274.75 0.290756 -6.06003 0
M  V30 12960 H 1273.49 0.617438 -4.83776 0
M  V30 12961 H 1272.49 -1.65131 -5.24416 0
M  V30 12962 H 1273.72 -1.96829 -6.4995 0
M  V30 12963 H 1271.66 0.275063 -6.55423 0
M  V30 12964 H 1271.58 -1.19741 -7.46457 0
M  V30 12965 H 1272.85 -0.0550119 -7.79481 0
M  V30 12966 N 1277.08 1.37613 -0.768148 0
M  V30 12967 C 1278.01 2.28935 -0.110234 0
M  V30 12968 C 1279.02 1.48459 0.668122 0
M  V30 12969 O 1280.21 1.71154 0.506808 0
M  V30 12970 C 1277.31 3.27606 0.867598 0
M  V30 12971 C 1276.49 4.37163 0.143819 0
M  V30 12972 C 1275.54 5.15931 1.03449 0
M  V30 12973 O 1274.57 5.67003 0.499605 0
M  V30 12974 N 1275.77 5.30311 2.36114 0
M  V30 12975 H 1278.54 2.86037 -0.894585 0
M  V30 12976 H 1276.1 1.4955 -0.620185 0
M  V30 12977 H 1278.09 3.77183 1.4668 0
M  V30 12978 H 1276.66 2.71298 1.55294 0
M  V30 12979 H 1275.88 3.89031 -0.636257 0
M  V30 12980 H 1277.17 5.0755 -0.356446 0
M  V30 12981 H 1276.57 4.90394 2.82011 0
M  V30 12982 H 1275.12 5.83209 2.9105 0
M  V30 12983 N 1278.56 0.518393 1.4883 0
M  V30 12984 C 1279.8 -0.0199348 2.0279 0
M  V30 12985 C 1280.14 -1.35026 1.39576 0
M  V30 12986 O 1279.41 -1.86927 0.537449 0
M  V30 12987 C 1279.69 -0.154184 3.5977 0
M  V30 12988 C 1279.55 1.2005 4.33484 0
M  V30 12989 C 1280.87 -0.886547 4.31078 0
M  V30 12990 H 1277.98 -0.00577061 0.736977 0
M  V30 12991 H 1280.63 0.673178 1.77675 0
M  V30 12992 H 1278.78 -0.74451 3.81299 0
M  V30 12993 H 1280.45 1.83104 4.23404 0
M  V30 12994 H 1278.69 1.78537 3.95357 0
M  V30 12995 H 1279.36 1.05968 5.41733 0
M  V30 12996 H 1281.84 -0.385711 4.14308 0
M  V30 12997 H 1280.71 -0.949355 5.40628 0
M  V30 12998 H 1280.98 -1.93424 3.97542 0
M  V30 12999 N 1280.03 -1.55556 0.252993 0
M  V30 13000 C 1280.96 -2.24613 -0.638047 0
M  V30 13001 C 1281.95 -1.22852 -1.1765 0
M  V30 13002 O 1283.13 -1.51519 -1.21472 0
M  V30 13003 C 1280.26 -2.95029 -1.83236 0
M  V30 13004 C 1279.21 -4.03531 -1.42641 0
M  V30 13005 C 1278.54 -4.61404 -2.70204 0
M  V30 13006 C 1279.84 -5.18923 -0.592958 0
M  V30 13007 H 1281.53 -2.99335 -0.0621918 0
M  V30 13008 H 1279.08 -1.43972 -0.0284722 0
M  V30 13009 H 1281.03 -3.42042 -2.46141 0
M  V30 13010 H 1279.76 -2.17805 -2.43369 0
M  V30 13011 H 1278.42 -3.57296 -0.820672 0
M  V30 13012 H 1278.06 -3.80874 -3.28548 0
M  V30 13013 H 1277.76 -5.34652 -2.43764 0
M  V30 13014 H 1279.29 -5.11154 -3.33997 0
M  V30 13015 H 1280.7 -5.62124 -1.12646 0
M  V30 13016 H 1279.1 -5.98598 -0.424358 0
M  V30 13017 H 1280.17 -4.83301 0.393434 0
M  V30 13018 N 1281.51 0.0200419 -1.57587 0
M  V30 13019 C 1282.44 1.0456 -2.0396 0
M  V30 13020 C 1283.46 1.31922 -0.953962 0
M  V30 13021 O 1284.65 1.2925 -1.23112 0
M  V30 13022 C 1281.75 2.38514 -2.40758 0
M  V30 13023 C 1280.92 2.3038 -3.71812 0
M  V30 13024 C 1279.98 3.46856 -3.95698 0
M  V30 13025 O 1279 3.25944 -4.66636 0
M  V30 13026 N 1280.21 4.69033 -3.42036 0
M  V30 13027 H 1282.97 0.650282 -2.9256 0
M  V30 13028 H 1280.53 0.207818 -1.60561 0
M  V30 13029 H 1282.52 3.15172 -2.53868 0
M  V30 13030 H 1281.09 2.69859 -1.57781 0
M  V30 13031 H 1280.31 1.38762 -3.6897 0
M  V30 13032 H 1281.6 2.22097 -4.57767 0
M  V30 13033 H 1281 4.88923 -2.84553 0
M  V30 13034 H 1279.56 5.43025 -3.6051 0
M  V30 13035 N 1282.99 1.54862 0.292472 0
M  V30 13036 C 1283.92 1.89406 1.36556 0
M  V30 13037 C 1284.9 0.753838 1.52484 0
M  V30 13038 O 1286.09 1.01031 1.6585 0
M  V30 13039 C 1283.22 2.14888 2.72838 0
M  V30 13040 C 1282.17 3.3073 2.71665 0
M  V30 13041 C 1281.5 3.41648 4.11316 0
M  V30 13042 C 1282.8 4.67622 2.32651 0
M  V30 13043 H 1284.49 2.79284 1.07894 0
M  V30 13044 H 1282.04 1.34377 0.517585 0
M  V30 13045 H 1283.99 2.3764 3.48002 0
M  V30 13046 H 1282.71 1.2179 3.03042 0
M  V30 13047 H 1281.37 3.07915 1.98958 0
M  V30 13048 H 1281.02 2.46051 4.38711 0
M  V30 13049 H 1280.72 4.19522 4.11431 0
M  V30 13050 H 1282.24 3.6667 4.88248 0
M  V30 13051 H 1283.66 4.90048 2.97533 0
M  V30 13052 H 1282.06 5.48272 2.43963 0
M  V30 13053 H 1283.13 4.67762 1.27777 0
M  V30 13054 N 1284.47 -0.556076 1.47464 0
M  V30 13055 C 1285.4 -1.67829 1.56096 0
M  V30 13056 C 1286.41 -1.56541 0.447077 0
M  V30 13057 O 1287.6 -1.63478 0.716739 0
M  V30 13058 C 1284.7 -3.06303 1.45023 0
M  V30 13059 C 1283.88 -3.43334 2.70999 0
M  V30 13060 C 1282.93 -4.60976 2.53746 0
M  V30 13061 O 1281.96 -4.65501 3.27564 0
M  V30 13062 N 1283.16 -5.5754 1.61647 0
M  V30 13063 H 1285.93 -1.6087 2.52865 0
M  V30 13064 H 1283.49 -0.74274 1.43857 0
M  V30 13065 H 1285.48 -3.82838 1.31214 0
M  V30 13066 H 1284.05 -3.07483 0.563311 0
M  V30 13067 H 1283.27 -2.56236 2.99561 0
M  V30 13068 H 1284.56 -3.64851 3.54629 0
M  V30 13069 H 1283.96 -5.56642 1.00827 0
M  V30 13070 H 1282.51 -6.33397 1.53789 0
M  V30 13071 N 1285.95 -1.35615 -0.802897 0
M  V30 13072 C 1286.91 -1.28705 -1.89651 0
M  V30 13073 C 1287.91 -0.197681 -1.5958 0
M  V30 13074 O 1289.1 -0.451618 -1.68244 0
M  V30 13075 C 1286.23 -0.991941 -3.26149 0
M  V30 13076 H 1287.43 -2.25951 -1.97196 0
M  V30 13077 H 1284.98 -1.20192 -0.999179 0
M  V30 13078 H 1285.71 -0.0235051 -3.24291 0
M  V30 13079 H 1285.5 -1.78013 -3.49362 0
M  V30 13080 H 1286.99 -0.969298 -4.06195 0
M  V30 13081 N 1287.43 1.02549 -1.19673 0
M  V30 13082 C 1288.65 1.8016 -1.02748 0
M  V30 13083 C 1289.08 1.83372 0.419105 0
M  V30 13084 O 1288.43 1.26222 1.30144 0
M  V30 13085 C 1288.48 3.22907 -1.60509 0
M  V30 13086 O 1287.59 4.03823 -0.836702 0
M  V30 13087 H 1286.93 0.556027 -0.362946 0
M  V30 13088 H 1289.46 1.29047 -1.5877 0
M  V30 13089 H 1289.47 3.73646 -1.63868 0
M  V30 13090 H 1288.14 3.19885 -2.65794 0
M  V30 13091 H 1286.72 3.6245 -0.876626 0
M  V30 13092 N 1288.9 1.00119 1.21713 0
M  V30 13093 C 1289.85 0.529464 2.21767 0
M  V30 13094 C 1290.84 -0.406858 1.55671 0
M  V30 13095 O 1292.03 -0.232329 1.75469 0
M  V30 13096 C 1289.16 -0.146336 3.42988 0
M  V30 13097 C 1288.24 0.81078 4.16278 0
M  V30 13098 N 1288.64 1.96204 4.66195 0
M  V30 13099 C 1286.93 0.628371 4.41551 0
M  V30 13100 C 1287.63 2.56346 5.2217 0
M  V30 13101 N 1286.61 1.8454 5.11318 0
M  V30 13102 H 1290.41 1.40738 2.58012 0
M  V30 13103 H 1287.93 0.864518 1.37477 0
M  V30 13104 H 1289.92 -0.501726 4.1387 0
M  V30 13105 H 1288.58 -1.02029 3.08254 0
M  V30 13106 H 1289.59 2.34255 4.61893 0
M  V30 13107 H 1286.27 -0.198819 4.17026 0
M  V30 13108 H 1287.66 3.53688 5.71274 0
M  V30 13109 N 1290.38 -1.37203 0.775435 0
M  V30 13110 C 1291.8 -1.52962 0.455488 0
M  V30 13111 C 1292 -1.73284 -1.02834 0
M  V30 13112 O 1291.05 -1.75631 -1.81411 0
M  V30 13113 C 1292.37 -2.72389 1.27377 0
M  V30 13114 C 1293.91 -2.86252 1.26604 0
M  V30 13115 C 1294.39 -4.08666 2.06775 0
M  V30 13116 N 1295.88 -4.15786 2.04148 0
M  V30 13117 C 1296.62 -5.09548 2.6296 0
M  V30 13118 N 1296.11 -6.08845 3.30574 0
M  V30 13119 N 1297.9 -5.02059 2.5277 0
M  V30 13120 H 1290.06 -1.22265 1.73681 0
M  V30 13121 H 1292.32 -0.595638 0.737509 0
M  V30 13122 H 1292.02 -2.63849 2.32544 0
M  V30 13123 H 1291.9 -3.66171 0.905467 0
M  V30 13124 H 1294.29 -2.94261 0.222345 0
M  V30 13125 H 1294.37 -1.93418 1.67401 0
M  V30 13126 H 1294.01 -4.01419 3.11168 0
M  V30 13127 H 1293.94 -5.00621 1.63358 0
M  V30 13128 H 1296.43 -3.44683 1.54926 0
M  V30 13129 H 1296.74 -6.76926 3.72815 0
M  V30 13130 H 1295.09 -6.09113 3.34674 0
M  V30 13131 H 1298.28 -4.23431 1.99559 0
M  V30 13132 H 1298.45 -5.74947 2.98898 0
M  V30 13133 N 1291.86 -0.526279 -1.48553 0
M  V30 13134 C 1292.77 0.24244 -2.33344 0
M  V30 13135 C 1293.79 0.942658 -1.46253 0
M  V30 13136 O 1294.96 0.91844 -1.79239 0
M  V30 13137 C 1292.03 1.27801 -3.22285 0
M  V30 13138 C 1291.09 0.588543 -4.25247 0
M  V30 13139 C 1290.32 1.57478 -5.09938 0
M  V30 13140 O 1290.54 2.80707 -4.96548 0
M  V30 13141 O 1289.48 1.11621 -5.9146 0
M  V30 13142 H 1293.3 -0.452262 -3.00314 0
M  V30 13143 H 1290.89 -0.287249 -1.46613 0
M  V30 13144 H 1292.77 1.87656 -3.7731 0
M  V30 13145 H 1291.45 1.95519 -2.57981 0
M  V30 13146 H 1290.35 -0.0504022 -3.74066 0
M  V30 13147 H 1291.69 -0.046627 -4.92178 0
M  V30 13148 N 1293.34 1.5542 -0.261239 0
M  V30 13149 C 1294.56 2.04142 0.366144 0
M  V30 13150 C 1294.99 1.13884 1.49706 0
M  V30 13151 O 1294.35 0.134629 1.80799 0
M  V30 13152 C 1294.39 3.50733 0.837774 0
M  V30 13153 O 1293.5 3.63588 1.94621 0
M  V30 13154 H 1292.84 0.659424 0.077821 0
M  V30 13155 H 1295.37 2.0082 -0.391487 0
M  V30 13156 H 1295.38 3.91831 1.13721 0
M  V30 13157 H 1294.05 4.15899 0.0102742 0
M  V30 13158 H 1292.63 3.34391 1.65037 0
M  V30 13159 N 1294.82 -0.0116844 1.57596 0
M  V30 13160 C 1295.73 -1.02342 2.111 0
M  V30 13161 C 1296.74 -1.38478 1.05355 0
M  V30 13162 O 1297.92 -1.47447 1.37191 0
M  V30 13163 C 1294.98 -2.30016 2.5941 0
M  V30 13164 C 1294.04 -2.003 3.79708 0
M  V30 13165 C 1293.28 -3.21888 4.25704 0
M  V30 13166 O 1293.5 -4.33171 3.71106 0
M  V30 13167 O 1292.43 -3.0657 5.17975 0
M  V30 13168 H 1296.26 -0.598637 2.97742 0
M  V30 13169 H 1293.84 -0.229779 1.47622 0
M  V30 13170 H 1295.73 -3.05044 2.90733 0
M  V30 13171 H 1294.4 -2.71755 1.75871 0
M  V30 13172 H 1293.31 -1.22785 3.53376 0
M  V30 13173 H 1294.64 -1.63406 4.64284 0
M  V30 13174 N 1296.29 -1.55015 -0.284256 0
M  V30 13175 C 1297.2 -1.90203 -1.37332 0
M  V30 13176 C 1298.22 -0.797994 -1.54622 0
M  V30 13177 O 1299.4 -1.09602 -1.68965 0
M  V30 13178 C 1296.46 -2.15687 -2.71441 0
M  V30 13179 C 1295.52 -3.39313 -2.62993 0
M  V30 13180 C 1294.75 -3.63571 -3.90707 0
M  V30 13181 O 1294.98 -2.90538 -4.9086 0
M  V30 13182 O 1293.91 -4.57102 -3.91589 0
M  V30 13183 H 1297.74 -2.82888 -1.1049 0
M  V30 13184 H 1295.32 -1.41418 -0.481798 0
M  V30 13185 H 1297.2 -2.33553 -3.50758 0
M  V30 13186 H 1295.88 -1.26185 -2.98092 0
M  V30 13187 H 1294.79 -3.26793 -1.82091 0
M  V30 13188 H 1296.12 -4.28997 -2.41293 0
M  V30 13189 N 1297.77 0.548248 -1.47757 0
M  V30 13190 C 1298.73 1.63666 -1.60456 0
M  V30 13191 C 1299.73 1.53499 -0.479028 0
M  V30 13192 O 1300.92 1.57497 -0.744342 0
M  V30 13193 C 1298.06 3.03239 -1.55754 0
M  V30 13194 H 1299.25 1.53752 -2.57488 0
M  V30 13195 H 1296.8 0.768881 -1.36081 0
M  V30 13196 H 1297.54 3.18677 -0.601303 0
M  V30 13197 H 1297.32 3.12027 -2.37448 0
M  V30 13198 H 1298.81 3.82406 -1.67797 0
M  V30 13199 N 1299.25 1.36039 0.795694 0
M  V30 13200 C 1300.18 1.32528 1.92246 0
M  V30 13201 C 1301.16 0.197805 1.68946 0
M  V30 13202 O 1302.35 0.394474 1.90151 0
M  V30 13203 C 1299.48 1.10748 3.29169 0
M  V30 13204 C 1298.43 2.20253 3.66978 0
M  V30 13205 C 1297.76 1.83624 5.02181 0
M  V30 13206 C 1299.06 3.62296 3.76216 0
M  V30 13207 H 1300.75 2.2681 1.95442 0
M  V30 13208 H 1298.3 1.09181 0.938908 0
M  V30 13209 H 1300.25 1.06929 4.07608 0
M  V30 13210 H 1298.97 0.129141 3.26345 0
M  V30 13211 H 1297.63 2.23187 2.90832 0
M  V30 13212 H 1297.28 0.843804 4.95872 0
M  V30 13213 H 1296.98 2.56935 5.28449 0
M  V30 13214 H 1298.5 1.81349 5.83048 0
M  V30 13215 H 1299.92 3.61623 4.44861 0
M  V30 13216 H 1298.31 4.34459 4.13963 0
M  V30 13217 H 1299.38 3.97657 2.77483 0
M  V30 13218 N 1300.73 -1.01913 1.20215 0
M  V30 13219 C 1301.66 -2.10513 0.906476 0
M  V30 13220 C 1302.67 -1.62463 -0.104758 0
M  V30 13221 O 1303.86 -1.78055 0.12593 0
M  V30 13222 C 1300.96 -3.3722 0.337012 0
M  V30 13223 C 1300.14 -4.14417 1.39917 0
M  V30 13224 C 1299.19 -5.19428 0.841489 0
M  V30 13225 O 1298.22 -5.48486 1.52157 0
M  V30 13226 N 1299.42 -5.79442 -0.350365 0
M  V30 13227 H 1302.19 -2.36465 1.84132 0
M  V30 13228 H 1299.75 -1.18283 1.10548 0
M  V30 13229 H 1301.74 -4.04669 -0.0501507 0
M  V30 13230 H 1300.31 -3.08538 -0.502325 0
M  V30 13231 H 1299.53 -3.41975 1.96078 0
M  V30 13232 H 1300.82 -4.62777 2.1146 0
M  V30 13233 H 1300.22 -5.58166 -0.920204 0
M  V30 13234 H 1298.77 -6.48252 -0.679194 0
M  V30 13235 N 1302.21 -1.00763 -1.2118 0
M  V30 13236 C 1303.15 -0.570257 -2.23644 0
M  V30 13237 C 1304.12 0.405039 -1.61086 0
M  V30 13238 O 1305.31 0.306496 -1.88322 0
M  V30 13239 C 1302.45 0.094325 -3.44971 0
M  V30 13240 C 1301.56 -0.924463 -4.21993 0
M  V30 13241 C 1300.7 -0.231869 -5.30694 0
M  V30 13242 C 1299.74 -1.23803 -5.99449 0
M  V30 13243 N 1298.87 -0.572725 -6.9976 0
M  V30 13244 H 1303.71 -1.44869 -2.60417 0
M  V30 13245 H 1301.25 -0.725369 -1.27972 0
M  V30 13246 H 1303.21 0.496689 -4.14233 0
M  V30 13247 H 1301.84 0.936457 -3.08918 0
M  V30 13248 H 1300.89 -1.44505 -3.51884 0
M  V30 13249 H 1302.2 -1.69004 -4.69296 0
M  V30 13250 H 1301.36 0.226465 -6.06277 0
M  V30 13251 H 1300.09 0.566092 -4.84403 0
M  V30 13252 H 1299.1 -1.70684 -5.22635 0
M  V30 13253 H 1300.32 -2.03711 -6.47826 0
M  V30 13254 H 1298.27 0.205531 -6.55678 0
M  V30 13255 H 1298.19 -1.27651 -7.45145 0
M  V30 13256 H 1299.46 -0.137683 -7.79378 0
M  V30 13257 N 1303.68 1.3679 -0.7827 0
M  V30 13258 C 1305.1 1.52719 -0.463594 0
M  V30 13259 C 1305.3 1.73827 1.01914 0
M  V30 13260 O 1304.36 1.76591 1.80477 0
M  V30 13261 C 1305.67 2.71709 -1.2882 0
M  V30 13262 C 1307.22 2.85577 -1.2812 0
M  V30 13263 C 1307.69 4.07564 -2.0894 0
M  V30 13264 N 1309.18 4.14697 -2.0635 0
M  V30 13265 C 1309.92 5.08147 -2.65659 0
M  V30 13266 N 1309.41 6.07083 -3.33799 0
M  V30 13267 N 1311.21 5.00712 -2.55429 0
M  V30 13268 H 1303.36 1.21342 -1.74327 0
M  V30 13269 H 1305.62 0.591719 -0.740657 0
M  V30 13270 H 1305.33 2.62612 -2.3394 0
M  V30 13271 H 1305.2 3.65686 -0.924873 0
M  V30 13272 H 1307.59 2.94139 -0.237947 0
M  V30 13273 H 1307.67 1.92528 -1.68424 0
M  V30 13274 H 1307.31 3.99763 -3.13293 0
M  V30 13275 H 1307.24 4.99748 -1.66011 0
M  V30 13276 H 1309.73 3.43856 -1.56752 0
M  V30 13277 H 1310.05 6.74939 -3.764 0
M  V30 13278 H 1308.39 6.07329 -3.379 0
M  V30 13279 H 1311.58 4.22367 -2.01802 0
M  V30 13280 H 1311.76 5.73354 -3.01943 0
M  V30 13281 N 1305.16 0.53415 1.48272 0
M  V30 13282 C 1306.09 -0.215037 2.32508 0
M  V30 13283 C 1307.07 -0.931083 1.42355 0
M  V30 13284 O 1308.26 -0.916051 1.71237 0
M  V30 13285 C 1305.39 -1.25985 3.23643 0
M  V30 13286 C 1304.34 -0.661692 4.22854 0
M  V30 13287 C 1303.67 -1.80946 5.03153 0
M  V30 13288 C 1304.97 0.369358 5.20992 0
M  V30 13289 H 1306.66 0.488158 2.95394 0
M  V30 13290 H 1304.21 0.236206 1.4205 0
M  V30 13291 H 1306.16 -1.79195 3.81402 0
M  V30 13292 H 1304.89 -1.99268 2.58766 0
M  V30 13293 H 1303.54 -0.151082 3.66289 0
M  V30 13294 H 1303.19 -2.53077 4.34696 0
M  V30 13295 H 1302.89 -1.41513 5.70305 0
M  V30 13296 H 1304.42 -2.34526 5.63764 0
M  V30 13297 H 1305.83 -0.0758076 5.7325 0
M  V30 13298 H 1304.23 0.681301 5.9622 0
M  V30 13299 H 1305.3 1.27363 4.67875 0
M  V30 13300 N 1306.64 -1.55279 0.269478 0
M  V30 13301 C 1307.92 -1.91458 -0.400412 0
M  V30 13302 C 1308.3 -1.19306 -1.74153 0
M  V30 13303 O 1307.65 -0.318017 -2.26276 0
M  V30 13304 C 1307.86 -3.44698 -0.546258 0
M  V30 13305 C 1309.2 -4.16374 -0.831758 0
M  V30 13306 O 1310.23 -3.50561 -0.631279 0
M  V30 13307 O 1309.09 -5.32826 -1.21484 0
M  V30 13308 H 1306.18 -0.79766 -0.218328 0
M  V30 13309 H 1308.73 -1.66747 0.315214 0
M  V30 13310 H 1307.5 -3.89273 0.397784 0
M  V30 13311 H 1307.12 -3.75345 -1.31157 0
M  V30 13312 N 1308.12 0.00332656 -1.576 0
M  V30 13313 C 1309.03 1.01221 -2.1164 0
M  V30 13314 C 1310.04 1.37918 -1.06088 0
M  V30 13315 O 1311.22 1.46717 -1.37971 0
M  V30 13316 C 1308.29 2.28638 -2.60626 0
M  V30 13317 C 1307.35 1.98284 -3.80765 0
M  V30 13318 C 1306.58 3.19626 -4.27405 0
M  V30 13319 O 1306.8 4.31196 -3.73398 0
M  V30 13320 O 1305.74 3.03819 -5.19594 0
M  V30 13321 H 1309.56 0.582839 -2.98055 0
M  V30 13322 H 1307.15 0.221947 -1.47742 0
M  V30 13323 H 1309.03 3.03498 -2.92347 0
M  V30 13324 H 1307.7 2.70819 -1.7731 0
M  V30 13325 H 1306.61 1.2091 -3.54022 0
M  V30 13326 H 1307.94 1.60942 -4.65144 0
M  V30 13327 N 1309.6 1.55164 0.276031 0
M  V30 13328 C 1310.84 1.75887 1.00953 0
M  V30 13329 C 1311.18 0.5567 1.8605 0
M  V30 13330 O 1310.45 -0.445799 1.89322 0
M  V30 13331 C 1310.73 3.06228 1.89463 0
M  V30 13332 C 1310.59 4.36795 1.07379 0
M  V30 13333 C 1311.91 3.32589 2.88223 0
M  V30 13334 H 1309.02 0.639929 0.365596 0
M  V30 13335 H 1311.67 1.87893 0.282156 0
M  V30 13336 H 1309.82 2.96124 2.51481 0
M  V30 13337 H 1311.49 4.58853 0.474549 0
M  V30 13338 H 1309.73 4.32157 0.377165 0
M  V30 13339 H 1310.4 5.24315 1.72621 0
M  V30 13340 H 1312.88 3.42467 2.36338 0
M  V30 13341 H 1311.75 4.2506 3.47297 0
M  V30 13342 H 1312.02 2.52083 3.6319 0
M  V30 13343 N 1311.07 -0.540404 1.48045 0
M  V30 13344 C 1312.3 -1.32656 1.59427 0
M  V30 13345 C 1312.72 -1.86419 0.250924 0
M  V30 13346 O 1312.08 -1.63861 -0.775838 0
M  V30 13347 C 1312.13 -2.46062 2.63602 0
M  V30 13348 O 1311.23 -3.48794 2.20038 0
M  V30 13349 H 1310.58 -0.393334 0.534962 0
M  V30 13350 H 1313.11 -0.651363 1.93955 0
M  V30 13351 H 1313.12 -2.92396 2.84549 0
M  V30 13352 H 1311.79 -2.06291 3.61133 0
M  V30 13353 H 1310.37 -3.0865 2.0926 0
M  V30 13354 N 1312.55 -1.36459 -0.788468 0
M  V30 13355 C 1313.97 -1.16893 -1.08666 0
M  V30 13356 C 1314.17 0.00633808 -2.01499 0
M  V30 13357 O 1313.22 0.671417 -2.4341 0
M  V30 13358 C 1314.54 -2.48018 -1.70022 0
M  V30 13359 C 1316.09 -2.5439 -1.82358 0
M  V30 13360 C 1316.56 -3.85605 -2.47129 0
M  V30 13361 N 1318.05 -3.86956 -2.54597 0
M  V30 13362 C 1318.79 -4.85224 -3.05525 0
M  V30 13363 N 1318.28 -5.93885 -3.56753 0
M  V30 13364 N 1320.08 -4.72643 -3.04246 0
M  V30 13365 H 1312.23 -2.11705 -0.171733 0
M  V30 13366 H 1314.49 -0.937784 -0.1388 0
M  V30 13367 H 1314.2 -3.34292 -1.09277 0
M  V30 13368 H 1314.07 -2.63894 -2.69518 0
M  V30 13369 H 1316.46 -1.68534 -2.4224 0
M  V30 13370 H 1316.54 -2.42414 -0.816651 0
M  V30 13371 H 1316.18 -4.71868 -1.87891 0
M  V30 13372 H 1316.11 -3.94878 -3.48395 0
M  V30 13373 H 1318.6 -3.08453 -2.18323 0
M  V30 13374 H 1318.92 -6.64839 -3.93966 0
M  V30 13375 H 1317.26 -5.97553 -3.54902 0
M  V30 13376 H 1320.45 -3.86883 -2.63513 0
M  V30 13377 H 1320.62 -5.49385 -3.43627 0
M  V30 13378 N 1314.03 1.01274 -1.20754 0
M  V30 13379 C 1314.94 2.1335 -0.975656 0
M  V30 13380 C 1315.96 1.7386 0.0697364 0
M  V30 13381 O 1317.13 2.01051 -0.118578 0
M  V30 13382 C 1314.2 3.42548 -0.534931 0
M  V30 13383 C 1313.26 3.96257 -1.65163 0
M  V30 13384 C 1312.49 5.19289 -1.23184 0
M  V30 13385 O 1312.71 5.70309 -0.102158 0
M  V30 13386 O 1311.65 5.66248 -2.04076 0
M  V30 13387 H 1315.47 2.35783 -1.91415 0
M  V30 13388 H 1313.06 1.11736 -0.991743 0
M  V30 13389 H 1314.94 4.20341 -0.298568 0
M  V30 13390 H 1313.62 3.21521 0.374937 0
M  V30 13391 H 1312.52 3.19726 -1.94232 0
M  V30 13392 H 1313.86 4.2168 -2.53864 0
M  V30 13393 N 1315.51 1.01404 1.20644 0
M  V30 13394 C 1316.44 0.602465 2.25594 0
M  V30 13395 C 1317.42 -0.381216 1.65773 0
M  V30 13396 O 1318.61 -0.267209 1.92353 0
M  V30 13397 C 1315.74 -0.0626245 3.47244 0
M  V30 13398 C 1314.69 0.841776 4.1964 0
M  V30 13399 C 1314.02 0.0426002 5.34683 0
M  V30 13400 C 1315.32 2.14864 4.76058 0
M  V30 13401 H 1317.01 1.47977 2.60275 0
M  V30 13402 H 1314.56 0.712966 1.25111 0
M  V30 13403 H 1316.51 -0.362095 4.19841 0
M  V30 13404 H 1315.23 -0.974627 3.11719 0
M  V30 13405 H 1313.89 1.12521 3.48905 0
M  V30 13406 H 1313.54 -0.870973 4.95402 0
M  V30 13407 H 1313.24 0.644866 5.84051 0
M  V30 13408 H 1314.76 -0.250476 6.10086 0
M  V30 13409 H 1316.18 1.9117 5.40488 0
M  V30 13410 H 1314.57 2.70153 5.35852 0
M  V30 13411 H 1315.64 2.81336 3.9494 0
M  V30 13412 N 1316.99 -1.36373 0.789944 0
M  V30 13413 C 1318.23 -2.0106 0.367995 0
M  V30 13414 C 1318.59 -1.61336 -1.0409 0
M  V30 13415 O 1319.79 -2.18618 -1.56396 0
M  V30 13416 C 1318.06 -3.53492 0.527106 0
M  V30 13417 S 1319.62 -4.38375 0.193113 0
M  V30 13418 H 1316.44 -0.696965 0.140573 0
M  V30 13419 H 1319.04 -1.66256 1.02855 0
M  V30 13420 H 1317.75 -3.7989 1.55279 0
M  V30 13421 H 1317.28 -3.93116 -0.149364 0
M  V30 13422 H 1319.29 -4.85913 -1.00513 0
M  V30 13423 N 1318.47 -0.542005 -1.47987 0
M  V30 13424 C 1319.42 0.234244 -2.26794 0
M  V30 13425 C 1320.4 0.899085 -1.33436 0
M  V30 13426 O 1321.59 0.799904 -1.57894 0
M  V30 13427 C 1318.72 1.27312 -3.18821 0
M  V30 13428 C 1317.81 0.612457 -4.19654 0
M  V30 13429 N 1318.2 -0.30875 -5.04857 0
M  V30 13430 C 1316.5 0.868224 -4.37468 0
M  V30 13431 C 1317.2 -0.691052 -5.77581 0
M  V30 13432 N 1316.17 -0.0493574 -5.43578 0
M  V30 13433 H 1319.97 -0.47427 -2.90048 0
M  V30 13434 H 1317.49 -0.360868 -1.5834 0
M  V30 13435 H 1319.49 1.84305 -3.73948 0
M  V30 13436 H 1318.15 1.98288 -2.57122 0
M  V30 13437 H 1319.16 -0.682054 -5.13389 0
M  V30 13438 H 1315.83 1.56765 -3.86951 0
M  V30 13439 H 1317.22 -1.44713 -6.56131 0
M  V30 13440 N 1319.94 1.55134 -0.277709 0
M  V30 13441 C 1321.17 2.04061 0.341601 0
M  V30 13442 C 1321.59 1.15597 1.49274 0
M  V30 13443 O 1320.94 0.176625 1.81643 0
M  V30 13444 C 1320.99 3.52074 0.820139 0
M  V30 13445 O 1320.72 4.37171 -0.28516 0
M  V30 13446 C 1322.22 4.16899 1.507 0
M  V30 13447 H 1319.44 0.666501 0.0775708 0
M  V30 13448 H 1321.98 2.00336 -0.410559 0
M  V30 13449 H 1320.14 3.56233 1.52238 0
M  V30 13450 H 1320.55 5.24434 0.0832022 0
M  V30 13451 H 1322.02 5.22061 1.79323 0
M  V30 13452 H 1322.5 3.65227 2.43939 0
M  V30 13453 H 1323.11 4.16749 0.848541 0
M  V30 13454 N 1321.42 0.00503138 1.57599 0
M  V30 13455 C 1322.35 -1.01302 2.05598 0
M  V30 13456 C 1323.37 -1.30388 0.974829 0
M  V30 13457 O 1324.56 -1.27275 1.25153 0
M  V30 13458 C 1321.66 -2.34654 2.44522 0
M  V30 13459 C 1320.83 -2.24436 3.7543 0
M  V30 13460 C 1319.89 -3.40517 4.01166 0
M  V30 13461 O 1318.91 -3.18479 4.71762 0
M  V30 13462 N 1320.12 -4.63532 3.49454 0
M  V30 13463 H 1322.88 -0.603656 2.93558 0
M  V30 13464 H 1320.44 -0.182248 1.60871 0
M  V30 13465 H 1322.43 -3.11093 2.5885 0
M  V30 13466 H 1321 -2.67315 1.62055 0
M  V30 13467 H 1320.22 -1.32875 3.71131 0
M  V30 13468 H 1321.51 -2.14786 4.61242 0
M  V30 13469 H 1320.91 -4.84334 2.92296 0
M  V30 13470 H 1319.47 -5.37221 3.69103 0
M  V30 13471 N 1322.9 -1.55308 -0.267798 0
M  V30 13472 C 1324.12 -1.80524 -1.02107 0
M  V30 13473 C 1324.55 -0.579268 -1.78958 0
M  V30 13474 O 1323.91 0.471262 -1.75068 0
M  V30 13475 C 1323.96 -3.03248 -1.95123 0
M  V30 13476 O 1323.06 -2.78699 -3.03975 0
M  V30 13477 H 1322.4 -0.596518 -0.291655 0
M  V30 13478 H 1324.93 -2.0246 -0.295128 0
M  V30 13479 H 1324.94 -3.32121 -2.3698 0
M  V30 13480 H 1323.62 -3.92126 -1.386 0
M  V30 13481 H 1322.19 -2.60936 -2.66396 0
M  V30 13482 N 1324.38 0.532545 -1.4833 0
M  V30 13483 C 1325.6 1.31809 -1.60129 0
M  V30 13484 C 1326.03 1.86283 -0.260807 0
M  V30 13485 O 1325.39 1.6427 0.767137 0
M  V30 13486 C 1325.43 2.44661 -2.64903 0
M  V30 13487 O 1324.54 3.47622 -2.21885 0
M  V30 13488 H 1323.88 0.390492 -0.53704 0
M  V30 13489 H 1326.41 0.641068 -1.94297 0
M  V30 13490 H 1326.42 2.90883 -2.86096 0
M  V30 13491 H 1325.09 2.04373 -3.62222 0
M  V30 13492 H 1323.67 3.07536 -2.10894 0
M  V30 13493 N 1325.86 1.36875 0.78122 0
M  V30 13494 C 1326.81 1.28392 1.88413 0
M  V30 13495 C 1327.79 0.173687 1.5996 0
M  V30 13496 O 1328.98 0.407238 1.72251 0
M  V30 13497 C 1326.11 1.08368 3.25747 0
M  V30 13498 C 1325.2 2.23894 3.60184 0
M  V30 13499 N 1325.59 3.49247 3.65869 0
M  V30 13500 C 1323.89 2.1584 3.90294 0
M  V30 13501 C 1324.59 4.2537 3.96781 0
M  V30 13502 N 1323.56 3.54402 4.1219 0
M  V30 13503 H 1327.36 2.23334 1.91047 0
M  V30 13504 H 1324.88 1.29711 0.977175 0
M  V30 13505 H 1326.88 1.00376 4.04636 0
M  V30 13506 H 1325.54 0.143334 3.24383 0
M  V30 13507 H 1326.55 3.83276 3.4831 0
M  V30 13508 H 1323.22 1.29808 3.96807 0
M  V30 13509 H 1324.61 5.33814 4.08035 0
M  V30 13510 N 1327.33 -1.00632 1.21289 0
M  V30 13511 C 1328.3 -2.07543 0.972548 0
M  V30 13512 C 1329.3 -1.60703 -0.0559244 0
M  V30 13513 O 1330.49 -1.73255 0.181213 0
M  V30 13514 C 1327.62 -3.37696 0.466297 0
M  V30 13515 H 1328.81 -2.30298 1.92101 0
M  V30 13516 H 1326.36 -1.17588 1.02969 0
M  V30 13517 H 1327.1 -3.2062 -0.487148 0
M  V30 13518 H 1326.88 -3.73024 1.20813 0
M  V30 13519 H 1328.37 -4.16388 0.317962 0
M  V30 13520 N 1328.81 -1.02043 -1.20104 0
M  V30 13521 C 1330.04 -0.731142 -1.94085 0
M  V30 13522 C 1330.46 0.702467 -1.74491 0
M  V30 13523 O 1329.82 1.48387 -1.04168 0
M  V30 13524 C 1329.87 -1.07691 -3.44144 0
M  V30 13525 O 1328.97 -0.190751 -4.11959 0
M  V30 13526 H 1328.31 -0.270917 -0.606218 0
M  V30 13527 H 1330.84 -1.36483 -1.52426 0
M  V30 13528 H 1330.85 -1.03023 -3.94779 0
M  V30 13529 H 1329.53 -2.1214 -3.57728 0
M  V30 13530 H 1328.1 -0.29529 -3.71729 0
M  V30 13531 N 1330.29 1.35952 -0.797165 0
M  V30 13532 C 1331.22 2.32506 -0.215277 0
M  V30 13533 C 1332.2 1.57023 0.654046 0
M  V30 13534 O 1333.39 1.85139 0.586268 0
M  V30 13535 C 1330.52 3.41266 0.644557 0
M  V30 13536 C 1329.47 4.27816 -0.125501 0
M  V30 13537 C 1328.8 5.27813 0.855428 0
M  V30 13538 C 1330.1 5.05367 -1.31913 0
M  V30 13539 H 1331.79 2.8142 -1.02193 0
M  V30 13540 H 1329.34 1.35303 -0.492862 0
M  V30 13541 H 1331.29 4.07808 1.06163 0
M  V30 13542 H 1330.01 2.90938 1.484 0
M  V30 13543 H 1328.67 3.62841 -0.523639 0
M  V30 13544 H 1328.32 4.73755 1.69011 0
M  V30 13545 H 1328.02 5.86589 0.344566 0
M  V30 13546 H 1329.54 5.97227 1.2709 0
M  V30 13547 H 1330.96 5.64907 -0.977418 0
M  V30 13548 H 1329.36 5.73593 -1.76382 0
M  V30 13549 H 1330.43 4.36558 -2.11057 0
M  V30 13550 N 1331.77 0.549846 1.47697 0
M  V30 13551 C 1333.18 0.209085 1.58225 0
M  V30 13552 C 1333.38 -1.28823 1.54941 0
M  V30 13553 O 1332.44 -2.0679 1.44893 0
M  V30 13554 C 1333.75 0.829219 2.89041 0
M  V30 13555 C 1335.3 0.79977 3.0261 0
M  V30 13556 C 1335.78 1.39884 4.36115 0
M  V30 13557 N 1337.27 1.36169 4.42733 0
M  V30 13558 C 1338 1.79492 5.44583 0
M  V30 13559 N 1337.5 2.30637 6.53283 0
M  V30 13560 N 1339.29 1.70608 5.35583 0
M  V30 13561 H 1331.44 1.52275 1.48074 0
M  V30 13562 H 1333.71 0.634579 0.704283 0
M  V30 13563 H 1333.41 1.88122 2.97158 0
M  V30 13564 H 1333.29 0.317916 3.75858 0
M  V30 13565 H 1335.67 -0.243525 2.94093 0
M  V30 13566 H 1335.75 1.34875 2.17353 0
M  V30 13567 H 1335.4 2.44116 4.45387 0
M  V30 13568 H 1335.33 0.825362 5.20092 0
M  V30 13569 H 1337.82 0.987505 3.64769 0
M  V30 13570 H 1338.13 2.61637 7.27163 0
M  V30 13571 H 1336.48 2.34643 6.54192 0
M  V30 13572 H 1339.67 1.30434 4.4956 0
M  V30 13573 H 1339.84 2.0469 6.14822 0
M  V30 13574 N 1333.25 -1.54984 0.285932 0
M  V30 13575 C 1334.21 -2.2164 -0.583824 0
M  V30 13576 C 1335.21 -1.19764 -1.073 0
M  V30 13577 O 1336.4 -1.44598 -0.971439 0
M  V30 13578 C 1333.53 -2.8909 -1.80665 0
M  V30 13579 H 1334.72 -2.999 -0.00168109 0
M  V30 13580 H 1332.28 -1.56257 0.0366325 0
M  V30 13581 H 1333.01 -2.14869 -2.42903 0
M  V30 13582 H 1332.8 -3.63756 -1.4637 0
M  V30 13583 H 1334.29 -3.39982 -2.42491 0
M  V30 13584 N 1334.72 -0.0133892 -1.57594 0
M  V30 13585 C 1336 0.706416 -1.82398 0
M  V30 13586 C 1336.38 1.91236 -0.893983 0
M  V30 13587 O 1335.73 2.28436 0.0541675 0
M  V30 13588 C 1335.94 1.09951 -3.31228 0
M  V30 13589 C 1337.29 1.49776 -3.97306 0
M  V30 13590 O 1338.31 1.19293 -3.3563 0
M  V30 13591 O 1337.17 2.06511 -5.0598 0
M  V30 13592 H 1334.26 0.345131 -0.751541 0
M  V30 13593 H 1336.81 -0.0398687 -1.69653 0
M  V30 13594 H 1335.58 0.240514 -3.9056 0
M  V30 13595 H 1335.21 1.90447 -3.49021 0
M  V30 13596 N 1336.2 1.55448 0.259558 0
M  V30 13597 C 1337.17 1.88459 1.30445 0
M  V30 13598 C 1338.17 0.760096 1.41701 0
M  V30 13599 O 1339.36 1.02819 1.4062 0
M  V30 13600 C 1336.49 2.10181 2.68397 0
M  V30 13601 H 1337.68 2.81877 1.02398 0
M  V30 13602 H 1335.23 1.48145 0.498262 0
M  V30 13603 H 1335.97 1.19189 3.01603 0
M  V30 13604 H 1335.75 2.92066 2.6161 0
M  V30 13605 H 1337.24 2.36947 3.43869 0
M  V30 13606 N 1337.68 -0.524672 1.4861 0
M  V30 13607 C 1338.59 -1.65554 1.6622 0
M  V30 13608 C 1339.61 -1.65254 0.54471 0
M  V30 13609 O 1340.78 -1.84109 0.816454 0
M  V30 13610 C 1337.85 -3.02003 1.7028 0
M  V30 13611 C 1336.91 -3.13116 2.93695 0
M  V30 13612 C 1336.14 -4.43055 2.97553 0
M  V30 13613 O 1336.36 -5.30468 2.09667 0
M  V30 13614 O 1335.3 -4.58646 3.89779 0
M  V30 13615 H 1339.12 -1.53633 2.61974 0
M  V30 13616 H 1336.71 -0.698354 1.32073 0
M  V30 13617 H 1338.59 -3.83143 1.75441 0
M  V30 13618 H 1337.27 -3.14236 0.777002 0
M  V30 13619 H 1336.17 -2.31251 2.94064 0
M  V30 13620 H 1337.51 -3.058 3.85677 0
M  V30 13621 N 1339.16 -1.37287 -0.77395 0
M  V30 13622 C 1340.11 -1.32872 -1.88716 0
M  V30 13623 C 1341.08 -0.194655 -1.64955 0
M  V30 13624 O 1342.26 -0.383662 -1.86903 0
M  V30 13625 C 1339.4 -1.13934 -3.2575 0
M  V30 13626 C 1338.51 -2.36552 -3.61479 0
M  V30 13627 C 1337.65 -2.10504 -4.87711 0
M  V30 13628 C 1336.69 -3.28999 -5.16165 0
M  V30 13629 N 1335.82 -3.02517 -6.33584 0
M  V30 13630 H 1340.66 -2.28051 -1.91825 0
M  V30 13631 H 1338.2 -1.13325 -0.93786 0
M  V30 13632 H 1340.16 -1.00976 -4.04796 0
M  V30 13633 H 1338.79 -0.22404 -3.22022 0
M  V30 13634 H 1337.84 -2.60257 -2.77435 0
M  V30 13635 H 1339.15 -3.24931 -3.78446 0
M  V30 13636 H 1338.31 -1.94564 -5.74656 0
M  V30 13637 H 1337.05 -1.19459 -4.72843 0
M  V30 13638 H 1336.05 -3.4548 -4.27696 0
M  V30 13639 H 1337.28 -4.20892 -5.32942 0
M  V30 13640 H 1335.22 -2.14099 -6.20079 0
M  V30 13641 H 1335.14 -3.84439 -6.50955 0
M  V30 13642 H 1336.41 -2.9019 -7.23471 0
M  V30 13643 N 1340.64 0.999871 -1.21821 0
M  V30 13644 C 1341.6 2.07024 -0.983541 0
M  V30 13645 C 1342.6 1.6073 0.0474011 0
M  V30 13646 O 1343.79 1.73156 -0.190398 0
M  V30 13647 C 1340.92 3.37444 -0.484199 0
M  V30 13648 H 1342.11 2.29276 -1.9332 0
M  V30 13649 H 1339.67 1.1704 -1.03592 0
M  V30 13650 H 1340.4 3.20874 0.470138 0
M  V30 13651 H 1340.19 3.72378 -1.2279 0
M  V30 13652 H 1341.68 4.16213 -0.34004 0
M  V30 13653 N 1342.11 1.02678 1.19562 0
M  V30 13654 C 1343.05 0.563882 2.22155 0
M  V30 13655 C 1344.06 -0.359132 1.58789 0
M  V30 13656 O 1345.25 -0.155857 1.77818 0
M  V30 13657 C 1342.35 -0.197894 3.38322 0
M  V30 13658 C 1341.52 0.729542 4.31273 0
M  V30 13659 C 1340.58 0.013543 5.26198 0
M  V30 13660 O 1339.61 0.639417 5.65597 0
M  V30 13661 N 1340.81 -1.25791 5.66707 0
M  V30 13662 H 1343.57 1.44623 2.62496 0
M  V30 13663 H 1341.13 0.90555 1.34207 0
M  V30 13664 H 1343.13 -0.686381 3.98837 0
M  V30 13665 H 1341.7 -0.981632 2.96787 0
M  V30 13666 H 1340.92 1.39816 3.68572 0
M  V30 13667 H 1342.2 1.35994 4.90289 0
M  V30 13668 H 1341.6 -1.78716 5.36728 0
M  V30 13669 H 1340.16 -1.69093 6.29485 0
M  V30 13670 N 1343.59 -1.35528 0.804364 0
M  V30 13671 C 1344.5 -2.33616 0.214663 0
M  V30 13672 C 1345.52 -1.61757 -0.64115 0
M  V30 13673 O 1346.69 -1.93647 -0.553424 0
M  V30 13674 C 1343.76 -3.40951 -0.628778 0
M  V30 13675 C 1342.82 -4.28587 0.247269 0
M  V30 13676 C 1342.05 -5.30796 -0.556012 0
M  V30 13677 O 1342.28 -5.41557 -1.79088 0
M  V30 13678 O 1341.21 -6.01878 0.0519437 0
M  V30 13679 H 1345.04 -2.85843 1.02605 0
M  V30 13680 H 1342.62 -1.38259 0.566108 0
M  V30 13681 H 1344.5 -4.06538 -1.10926 0
M  V30 13682 H 1343.18 -2.90999 -1.4178 0
M  V30 13683 H 1342.09 -3.65988 0.774835 0
M  V30 13684 H 1343.42 -4.81931 1.00017 0
M  V30 13685 N 1345.07 -0.557671 -1.47404 0
M  V30 13686 C 1346 0.227253 -2.28071 0
M  V30 13687 C 1347.02 0.878951 -1.37034 0
M  V30 13688 O 1348.21 0.752725 -1.61853 0
M  V30 13689 C 1345.31 1.33942 -3.11308 0
M  V30 13690 C 1344.48 0.784425 -4.30309 0
M  V30 13691 C 1343.54 1.78114 -4.95138 0
M  V30 13692 O 1342.56 1.32708 -5.53514 0
M  V30 13693 N 1343.77 3.11453 -4.89875 0
M  V30 13694 H 1346.53 -0.464709 -2.96075 0
M  V30 13695 H 1344.09 -0.393777 -1.57038 0
M  V30 13696 H 1346.08 2.00495 -3.51545 0
M  V30 13697 H 1344.65 1.93461 -2.45543 0
M  V30 13698 H 1343.87 -0.0578917 -3.94157 0
M  V30 13699 H 1345.16 0.39298 -5.0728 0
M  V30 13700 H 1344.56 3.50987 -4.43649 0
M  V30 13701 H 1343.12 3.73563 -5.34129 0
M  V30 13702 N 1346.55 1.54831 -0.294147 0
M  V30 13703 C 1347.48 2.20696 0.61854 0
M  V30 13704 C 1348.49 1.19754 1.10285 0
M  V30 13705 O 1349.68 1.46383 1.02148 0
M  V30 13706 C 1346.78 2.83429 1.85798 0
M  V30 13707 C 1345.96 4.10239 1.51731 0
M  V30 13708 C 1345.02 4.56841 2.61119 0
M  V30 13709 O 1344.04 5.22194 2.26501 0
M  V30 13710 N 1345.24 4.2858 3.91534 0
M  V30 13711 H 1348.01 2.9965 0.054714 0
M  V30 13712 H 1345.57 1.61484 -0.116052 0
M  V30 13713 H 1347.56 3.11541 2.5831 0
M  V30 13714 H 1346.13 2.08356 2.33038 0
M  V30 13715 H 1345.35 3.89212 0.625142 0
M  V30 13716 H 1346.64 4.92824 1.26499 0
M  V30 13717 H 1346.04 3.7621 4.22472 0
M  V30 13718 H 1344.59 4.61418 4.60366 0
M  V30 13719 N 1348.03 0.0217466 1.57585 0
M  V30 13720 C 1348.96 -0.99116 2.06661 0
M  V30 13721 C 1349.97 -1.29346 0.988604 0
M  V30 13722 O 1351.16 -1.25941 1.26496 0
M  V30 13723 C 1348.26 -2.32047 2.46997 0
M  V30 13724 C 1347.43 -2.20441 3.77789 0
M  V30 13725 C 1346.49 -3.36243 4.04755 0
M  V30 13726 O 1345.52 -3.13458 4.75114 0
M  V30 13727 N 1346.72 -4.598 3.54351 0
M  V30 13728 H 1349.49 -0.572486 2.94181 0
M  V30 13729 H 1347.05 -0.165175 1.61055 0
M  V30 13730 H 1349.04 -3.0833 2.62135 0
M  V30 13731 H 1347.61 -2.65581 1.64881 0
M  V30 13732 H 1346.83 -1.28931 3.72519 0
M  V30 13733 H 1348.12 -2.09882 4.63494 0
M  V30 13734 H 1347.52 -4.81207 2.97416 0
M  V30 13735 H 1346.07 -5.33276 3.7478 0
M  V30 13736 N 1349.51 -1.55583 -0.251311 0
M  V30 13737 C 1350.44 -1.86388 -1.33387 0
M  V30 13738 C 1351.45 -0.749829 -1.44504 0
M  V30 13739 O 1352.64 -1.0279 -1.45933 0
M  V30 13740 C 1349.74 -2.0311 -2.71293 0
M  V30 13741 C 1348.91 -3.33937 -2.82498 0
M  V30 13742 C 1347.97 -3.40455 -4.01219 0
M  V30 13743 O 1347 -4.13695 -3.90954 0
M  V30 13744 N 1348.2 -2.69427 -5.14188 0
M  V30 13745 H 1350.96 -2.79834 -1.07298 0
M  V30 13746 H 1348.53 -1.55766 -0.441418 0
M  V30 13747 H 1350.52 -2.04817 -3.49045 0
M  V30 13748 H 1349.09 -1.16429 -2.90109 0
M  V30 13749 H 1348.31 -3.44584 -1.91456 0
M  V30 13750 H 1349.6 -4.20176 -2.86931 0
M  V30 13751 H 1348.99 -2.09647 -5.25419 0
M  V30 13752 H 1347.55 -2.76832 -5.90091 0
M  V30 13753 N 1350.98 0.516783 -1.48886 0
M  V30 13754 C 1351.92 1.63715 -1.58974 0
M  V30 13755 C 1352.89 1.56547 -0.439513 0
M  V30 13756 O 1354.08 1.76831 -0.652924 0
M  V30 13757 C 1351.21 3.02172 -1.53002 0
M  V30 13758 C 1350.25 3.27655 -2.73029 0
M  V30 13759 S 1351.08 3.12489 -4.34869 0
M  V30 13760 C 1352.24 4.53369 -4.31517 0
M  V30 13761 H 1352.47 1.5491 -2.53752 0
M  V30 13762 H 1350.01 0.700754 -1.37582 0
M  V30 13763 H 1351.96 3.82017 -1.50243 0
M  V30 13764 H 1350.63 3.08405 -0.59539 0
M  V30 13765 H 1349.82 4.28693 -2.65026 0
M  V30 13766 H 1349.42 2.55504 -2.73119 0
M  V30 13767 H 1351.71 5.45151 -4.02264 0
M  V30 13768 H 1352.66 4.66425 -5.32779 0
M  V30 13769 H 1353.06 4.3331 -3.61804 0
M  V30 13770 N 1352.46 1.37696 0.766659 0
M  V30 13771 C 1353.42 1.33688 1.86172 0
M  V30 13772 C 1354.42 0.239922 1.59 0
M  V30 13773 O 1355.61 0.496066 1.66988 0
M  V30 13774 C 1352.75 1.07807 3.23405 0
M  V30 13775 H 1353.94 2.311 1.91136 0
M  V30 13776 H 1351.49 1.22799 0.966961 0
M  V30 13777 H 1352.23 0.109477 3.24115 0
M  V30 13778 H 1352.01 1.87213 3.4452 0
M  V30 13779 H 1353.5 1.07665 4.03482 0
M  V30 13780 N 1353.94 -0.993397 1.22349 0
M  V30 13781 C 1354.85 -2.11771 1.00947 0
M  V30 13782 C 1355.87 -1.73949 -0.0420679 0
M  V30 13783 O 1357.04 -2.00837 0.150548 0
M  V30 13784 C 1354.11 -3.41654 0.589359 0
M  V30 13785 C 1353.17 -3.93579 1.71446 0
M  V30 13786 C 1352.4 -5.17264 1.3143 0
M  V30 13787 O 1352.62 -5.70074 0.192876 0
M  V30 13788 O 1351.56 -5.62929 2.13059 0
M  V30 13789 H 1355.38 -2.32708 1.95142 0
M  V30 13790 H 1352.97 -1.10144 1.00939 0
M  V30 13791 H 1354.85 -4.19813 0.365403 0
M  V30 13792 H 1353.53 -3.22077 -0.323738 0
M  V30 13793 H 1352.43 -3.16596 1.99294 0
M  V30 13794 H 1353.77 -4.17588 2.6054 0
M  V30 13795 N 1355.42 -1.03311 -1.19015 0
M  V30 13796 C 1356.35 -0.638279 -2.24607 0
M  V30 13797 C 1357.33 0.354795 -1.66359 0
M  V30 13798 O 1358.51 0.236574 -1.92754 0
M  V30 13799 C 1355.64 0.00737316 -3.47299 0
M  V30 13800 C 1354.6 -0.908431 -4.18248 0
M  V30 13801 C 1353.92 -0.127658 -5.34548 0
M  V30 13802 C 1355.22 -2.2241 -4.72579 0
M  V30 13803 H 1356.92 -1.52099 -2.57888 0
M  V30 13804 H 1354.46 -0.732779 -1.23961 0
M  V30 13805 H 1356.42 0.295256 -4.20364 0
M  V30 13806 H 1355.14 0.924912 -3.1323 0
M  V30 13807 H 1353.8 -1.18058 -3.47071 0
M  V30 13808 H 1353.45 0.792048 -4.96725 0
M  V30 13809 H 1353.15 -0.737702 -5.82951 0
M  V30 13810 H 1354.67 0.153385 -6.10407 0
M  V30 13811 H 1356.09 -1.99745 -5.37378 0
M  V30 13812 H 1354.48 -2.78644 -5.31486 0
M  V30 13813 H 1355.55 -2.87584 -3.90415 0
M  V30 13814 N 1356.9 1.35099 -0.81154 0
M  V30 13815 C 1357.85 2.27139 -0.197958 0
M  V30 13816 C 1358.83 1.48006 0.631116 0
M  V30 13817 O 1360.02 1.70152 0.487562 0
M  V30 13818 C 1357.15 3.37118 0.648577 0
M  V30 13819 C 1356.24 4.23672 -0.190498 0
M  V30 13820 N 1356.63 4.89959 -1.25594 0
M  V30 13821 C 1354.93 4.45992 0.0270572 0
M  V30 13822 C 1355.63 5.54161 -1.76862 0
M  V30 13823 N 1354.6 5.32879 -1.07428 0
M  V30 13824 H 1358.4 2.75886 -1.01311 0
M  V30 13825 H 1355.92 1.48685 -0.653195 0
M  V30 13826 H 1357.92 4.0201 1.10423 0
M  V30 13827 H 1356.58 2.89922 1.46202 0
M  V30 13828 H 1357.59 4.91293 -1.63864 0
M  V30 13829 H 1354.26 4.09582 0.809248 0
M  V30 13830 H 1355.65 6.17032 -2.65935 0
M  V30 13831 N 1358.37 0.56548 1.47106 0
M  V30 13832 C 1359.6 0.0476763 2.07345 0
M  V30 13833 C 1360.02 -1.24032 1.41413 0
M  V30 13834 O 1359.38 -1.74498 0.491941 0
M  V30 13835 C 1359.43 -0.122618 3.60391 0
M  V30 13836 O 1358.53 -1.18326 3.9506 0
M  V30 13837 H 1357.87 0.0550419 0.661715 0
M  V30 13838 H 1360.4 0.78352 1.89003 0
M  V30 13839 H 1360.41 -0.334227 4.06629 0
M  V30 13840 H 1359.09 0.81807 4.07775 0
M  V30 13841 H 1357.67 -0.951481 3.60557 0
M  V30 13842 N 1359.85 -1.54672 0.302354 0
M  V30 13843 C 1360.8 -2.2357 -0.573141 0
M  V30 13844 C 1361.77 -1.21878 -1.12849 0
M  V30 13845 O 1362.95 -1.50502 -1.17277 0
M  V30 13846 C 1360.09 -2.98111 -1.7385 0
M  V30 13847 C 1359.21 -4.14579 -1.21441 0
M  V30 13848 C 1358.34 -4.76699 -2.34374 0
M  V30 13849 C 1357.38 -5.8531 -1.79106 0
M  V30 13850 N 1356.52 -6.41379 -2.85618 0
M  V30 13851 H 1361.36 -2.97993 0.0209969 0
M  V30 13852 H 1358.9 -1.47083 0.0221318 0
M  V30 13853 H 1360.85 -3.39561 -2.42392 0
M  V30 13854 H 1359.48 -2.26063 -2.30425 0
M  V30 13855 H 1358.54 -3.78061 -0.421204 0
M  V30 13856 H 1359.85 -4.92824 -0.769821 0
M  V30 13857 H 1359 -5.21009 -3.10861 0
M  V30 13858 H 1357.74 -3.9779 -2.8216 0
M  V30 13859 H 1356.75 -5.40423 -1.01109 0
M  V30 13860 H 1357.97 -6.66104 -1.32222 0
M  V30 13861 H 1355.92 -5.65352 -3.32735 0
M  V30 13862 H 1355.83 -7.14974 -2.45659 0
M  V30 13863 H 1357.1 -6.90346 -3.61998 0
M  V30 13864 N 1361.33 -0.0301034 -1.57571 0
M  V30 13865 C 1362.26 0.94977 -2.13311 0
M  V30 13866 C 1363.24 1.33865 -1.04948 0
M  V30 13867 O 1364.43 1.4171 -1.32786 0
M  V30 13868 C 1361.56 2.23178 -2.66099 0
M  V30 13869 C 1360.51 1.98362 -3.79258 0
M  V30 13870 C 1359.84 3.32836 -4.18479 0
M  V30 13871 C 1361.14 1.32201 -5.05292 0
M  V30 13872 H 1362.83 0.485562 -2.95436 0
M  V30 13873 H 1360.38 0.232116 -1.42117 0
M  V30 13874 H 1362.33 2.92108 -3.03728 0
M  V30 13875 H 1361.05 2.71766 -1.81137 0
M  V30 13876 H 1359.71 1.31849 -3.42069 0
M  V30 13877 H 1359.36 3.79185 -3.30496 0
M  V30 13878 H 1359.06 3.17037 -4.94733 0
M  V30 13879 H 1360.58 4.03032 -4.58691 0
M  V30 13880 H 1362 1.91133 -5.40501 0
M  V30 13881 H 1360.4 1.26797 -5.86551 0
M  V30 13882 H 1361.47 0.29511 -4.84001 0
M  V30 13883 N 1362.81 1.55714 0.243056 0
M  V30 13884 C 1363.74 1.87093 1.32396 0
M  V30 13885 C 1364.75 0.757482 1.44104 0
M  V30 13886 O 1365.94 1.03563 1.45386 0
M  V30 13887 C 1363.04 2.04546 2.70212 0
M  V30 13888 C 1362.22 3.3543 2.80723 0
M  V30 13889 C 1361.27 3.42578 3.99408 0
M  V30 13890 O 1360.3 4.15762 3.88755 0
M  V30 13891 N 1361.5 2.7215 5.12752 0
M  V30 13892 H 1364.27 2.80399 1.05813 0
M  V30 13893 H 1361.83 1.55998 0.433151 0
M  V30 13894 H 1363.82 2.06665 3.47954 0
M  V30 13895 H 1362.39 1.17966 2.89487 0
M  V30 13896 H 1361.61 3.45594 1.89626 0
M  V30 13897 H 1362.9 4.21692 2.84698 0
M  V30 13898 H 1362.3 2.1243 5.24299 0
M  V30 13899 H 1360.85 2.79957 5.88615 0
M  V30 13900 N 1364.29 -0.50888 1.49158 0
M  V30 13901 C 1365.51 -1.29245 1.62205 0
M  V30 13902 C 1365.94 -1.85845 0.29041 0
M  V30 13903 O 1365.29 -1.6547 -0.740906 0
M  V30 13904 C 1365.34 -2.40415 2.68762 0
M  V30 13905 O 1364.45 -3.44048 2.27387 0
M  V30 13906 H 1363.79 -0.381898 0.543185 0
M  V30 13907 H 1366.32 -0.610076 1.95293 0
M  V30 13908 H 1366.33 -2.86295 2.90688 0
M  V30 13909 H 1365 -1.98584 3.65427 0
M  V30 13910 H 1363.58 -3.04141 2.1576 0
M  V30 13911 N 1365.76 -1.381 -0.759346 0
M  V30 13912 C 1366.99 -1.37389 -1.55367 0
M  V30 13913 C 1367.41 0.0356097 -1.88066 0
M  V30 13914 O 1366.77 1.0161 -1.5015 0
M  V30 13915 C 1366.82 -2.23098 -2.83302 0
M  V30 13916 O 1365.92 -1.64412 -3.7821 0
M  V30 13917 H 1365.27 -0.468894 -0.470143 0
M  V30 13918 H 1367.8 -1.81787 -0.938858 0
M  V30 13919 H 1367.81 -2.36753 -3.32283 0
M  V30 13920 H 1366.48 -3.25544 -2.58831 0
M  V30 13921 H 1365.06 -1.59867 -3.36893 0
M  V30 13922 N 1367.24 0.986894 -1.22875 0
M  V30 13923 C 1368.15 2.11232 -1.02069 0
M  V30 13924 C 1369.17 1.73969 0.0328424 0
M  V30 13925 O 1370.34 2.00754 -0.161197 0
M  V30 13926 C 1367.41 3.41337 -0.60747 0
M  V30 13927 C 1366.47 3.92665 -1.73531 0
M  V30 13928 C 1365.7 5.1656 -1.34171 0
M  V30 13929 O 1365.93 5.69964 -0.223106 0
M  V30 13930 O 1364.86 5.61791 -2.16041 0
M  V30 13931 H 1368.69 2.3167 -1.96374 0
M  V30 13932 H 1366.27 1.09607 -1.01522 0
M  V30 13933 H 1368.15 4.19613 -0.387661 0
M  V30 13934 H 1366.83 3.22244 0.306653 0
M  V30 13935 H 1365.74 3.15534 -2.0097 0
M  V30 13936 H 1367.07 4.162 -2.62751 0
M  V30 13937 N 1368.72 1.0394 1.18466 0
M  V30 13938 C 1369.68 0.633804 2.20262 0
M  V30 13939 C 1370.68 -0.308136 1.5782 0
M  V30 13940 O 1371.87 -0.0937087 1.73948 0
M  V30 13941 C 1369.01 -0.0709693 3.40826 0
M  V30 13942 H 1370.2 1.53463 2.57661 0
M  V30 13943 H 1367.75 0.831806 1.32328 0
M  V30 13944 H 1368.49 -0.985659 3.08958 0
M  V30 13945 H 1368.27 0.606023 3.87388 0
M  V30 13946 H 1369.76 -0.341298 4.16203 0
M  V30 13947 N 1370.2 -1.34667 0.818693 0
M  V30 13948 C 1371.11 -2.33375 0.239429 0
M  V30 13949 C 1372.12 -1.62428 -0.623957 0
M  V30 13950 O 1373.3 -1.94223 -0.532854 0
M  V30 13951 C 1370.37 -3.41598 -0.59258 0
M  V30 13952 C 1369.43 -4.28301 0.292712 0
M  V30 13953 C 1368.66 -5.31356 -0.499682 0
M  V30 13954 O 1368.88 -5.43426 -1.73334 0
M  V30 13955 O 1367.82 -6.01789 0.115778 0
M  V30 13956 H 1371.64 -2.84738 1.05631 0
M  V30 13957 H 1369.23 -1.37651 0.58074 0
M  V30 13958 H 1371.11 -4.07692 -1.06607 0
M  V30 13959 H 1369.78 -2.92486 -1.38685 0
M  V30 13960 H 1368.69 -3.65145 0.81361 0
M  V30 13961 H 1370.02 -4.80843 1.05123 0
M  V30 13962 N 1371.68 -0.573274 -1.46804 0
M  V30 13963 C 1372.92 -0.0553432 -2.02724 0
M  V30 13964 C 1373.26 1.29753 -1.44492 0
M  V30 13965 O 1372.53 1.84804 -0.606455 0
M  V30 13966 C 1372.81 0.0205511 -3.60094 0
M  V30 13967 C 1372.67 -1.36055 -4.2873 0
M  V30 13968 C 1373.99 0.725944 -4.34071 0
M  V30 13969 H 1371.1 -0.0215858 -0.736684 0
M  V30 13970 H 1373.75 -0.738657 -1.75054 0
M  V30 13971 H 1371.9 0.602481 -3.838 0
M  V30 13972 H 1373.57 -1.98692 -4.16316 0
M  V30 13973 H 1371.81 -1.93087 -3.88458 0
M  V30 13974 H 1372.48 -1.26001 -5.37427 0
M  V30 13975 H 1374.96 0.231677 -4.15455 0
M  V30 13976 H 1373.83 0.74805 -5.43779 0
M  V30 13977 H 1374.1 1.78536 -4.04447 0
M  V30 13978 N 1373.15 1.5451 -0.310553 0
M  V30 13979 C 1374.57 1.59543 0.0425296 0
M  V30 13980 C 1374.77 1.32737 1.51602 0
M  V30 13981 O 1373.83 1.10543 2.27016 0
M  V30 13982 C 1375.14 2.98489 -0.364002 0
M  V30 13983 C 1376.69 3.11425 -0.313566 0
M  V30 13984 C 1377.16 4.52695 -0.695064 0
M  V30 13985 N 1378.65 4.58645 -0.647966 0
M  V30 13986 C 1379.39 5.66044 -0.915508 0
M  V30 13987 N 1378.88 6.81439 -1.24951 0
M  V30 13988 N 1380.68 5.55759 -0.841933 0
M  V30 13989 H 1372.83 1.70194 -1.27074 0
M  V30 13990 H 1375.09 0.795374 -0.515833 0
M  V30 13991 H 1374.8 3.23061 -1.39012 0
M  V30 13992 H 1374.67 3.76177 0.27756 0
M  V30 13993 H 1377.06 2.86596 0.703326 0
M  V30 13994 H 1377.14 2.35871 -0.989883 0
M  V30 13995 H 1376.78 4.78255 -1.70981 0
M  V30 13996 H 1376.71 5.266 0.00342684 0
M  V30 13997 H 1379.2 3.75765 -0.401137 0
M  V30 13998 H 1379.52 7.59277 -1.43938 0
M  V30 13999 H 1377.86 6.82968 -1.28764 0
M  V30 14000 H 1381.05 4.64486 -0.58058 0
M  V30 14001 H 1381.23 6.39374 -1.0538 0
M  V30 14002 N 1374.63 0.0384594 1.57553 0
M  V30 14003 C 1375.86 -0.651613 1.96898 0
M  V30 14004 C 1376.28 -1.64328 0.915308 0
M  V30 14005 O 1375.64 -1.80883 -0.122824 0
M  V30 14006 C 1375.69 -1.32613 3.3533 0
M  V30 14007 O 1374.79 -2.44159 3.32355 0
M  V30 14008 H 1374.13 -0.170441 0.641752 0
M  V30 14009 H 1376.66 0.103086 2.0434 0
M  V30 14010 H 1376.67 -1.68076 3.71772 0
M  V30 14011 H 1375.35 -0.599275 4.1156 0
M  V30 14012 H 1373.93 -2.10738 3.07642 0
M  V30 14013 N 1376.11 -1.55841 -0.234795 0
M  V30 14014 C 1377.06 -1.91326 -1.29086 0
M  V30 14015 C 1378.03 -0.768868 -1.47233 0
M  V30 14016 O 1379.21 -1.0236 -1.61019 0
M  V30 14017 C 1376.35 -2.22388 -2.6389 0
M  V30 14018 C 1375.47 -3.49693 -2.5365 0
M  V30 14019 C 1374.6 -3.70267 -3.80889 0
M  V30 14020 C 1373.64 -4.91132 -3.65317 0
M  V30 14021 N 1372.78 -5.08163 -4.84474 0
M  V30 14022 H 1377.62 -2.81382 -0.981246 0
M  V30 14023 H 1375.15 -1.3928 -0.47324 0
M  V30 14024 H 1377.11 -2.38404 -3.42373 0
M  V30 14025 H 1375.74 -1.35521 -2.92974 0
M  V30 14026 H 1374.79 -3.41943 -1.66672 0
M  V30 14027 H 1376.11 -4.38326 -2.38059 0
M  V30 14028 H 1375.26 -3.86308 -4.67815 0
M  V30 14029 H 1374 -2.7989 -3.9939 0
M  V30 14030 H 1373 -4.75054 -2.76774 0
M  V30 14031 H 1374.23 -5.8298 -3.48298 0
M  V30 14032 H 1372.18 -4.20726 -5.03314 0
M  V30 14033 H 1372.09 -5.90904 -4.71559 0
M  V30 14034 H 1373.36 -5.28627 -5.72865 0
M  V30 14035 N 1377.59 0.500963 -1.49426 0
M  V30 14036 C 1378.83 1.26526 -1.60532 0
M  V30 14037 C 1379.19 1.89864 -0.28562 0
M  V30 14038 O 1380.39 2.67422 -0.271868 0
M  V30 14039 C 1378.67 2.30375 -2.73244 0
M  V30 14040 S 1380.22 3.16143 -3.04301 0
M  V30 14041 H 1377.04 0.429994 -0.566238 0
M  V30 14042 H 1379.64 0.567427 -1.87084 0
M  V30 14043 H 1378.35 1.82373 -3.67652 0
M  V30 14044 H 1377.88 3.04827 -2.48685 0
M  V30 14045 H 1379.89 4.31027 -2.45826 0
M  V30 14046 N 1379.07 1.38501 0.752011 0
M  V30 14047 C 1379.98 1.38094 1.8965 0
M  V30 14048 C 1380.99 0.277851 1.71767 0
M  V30 14049 O 1382.17 0.516536 1.94663 0
M  V30 14050 C 1379.23 1.2063 3.25037 0
M  V30 14051 C 1378.3 2.40758 3.55435 0
M  V30 14052 C 1377.53 2.24118 4.84362 0
M  V30 14053 O 1377.75 1.23571 5.56854 0
M  V30 14054 O 1376.69 3.12741 5.14273 0
M  V30 14055 H 1380.51 2.34532 1.92947 0
M  V30 14056 H 1378.1 1.19437 0.897504 0
M  V30 14057 H 1379.98 1.12957 4.05979 0
M  V30 14058 H 1378.65 0.272785 3.22549 0
M  V30 14059 H 1377.56 2.54006 2.74648 0
M  V30 14060 H 1378.89 3.32745 3.62686 0
M  V30 14061 N 1380.55 -0.980364 1.23396 0
M  V30 14062 C 1381.46 -2.10688 1.03188 0
M  V30 14063 C 1382.47 -1.73984 -0.0236159 0
M  V30 14064 O 1383.65 -2.00666 0.171841 0
M  V30 14065 C 1380.71 -3.4101 0.625563 0
M  V30 14066 C 1379.77 -3.91739 1.75611 0
M  V30 14067 C 1379.01 -5.15841 1.36908 0
M  V30 14068 O 1379.23 -5.69837 0.253329 0
M  V30 14069 O 1378.16 -5.60638 2.19018 0
M  V30 14070 H 1381.99 -2.30626 1.97599 0
M  V30 14071 H 1379.57 -1.09067 1.02102 0
M  V30 14072 H 1381.46 -4.19402 0.409909 0
M  V30 14073 H 1380.13 -3.22402 -0.28956 0
M  V30 14074 H 1379.04 -3.14464 2.0264 0
M  V30 14075 H 1380.37 -4.14801 2.64955 0
M  V30 14076 N 1382.02 -1.04567 -1.17913 0
M  V30 14077 C 1382.95 -0.662066 -2.23917 0
M  V30 14078 C 1383.93 0.33713 -1.66726 0
M  V30 14079 O 1385.12 0.216116 -1.92994 0
M  V30 14080 C 1382.25 -0.029463 -3.47288 0
M  V30 14081 C 1381.2 -0.95274 -4.17261 0
M  V30 14082 C 1380.53 -0.184347 -5.34382 0
M  V30 14083 C 1381.83 -2.2741 -4.70194 0
M  V30 14084 H 1383.52 -1.54826 -2.5626 0
M  V30 14085 H 1381.07 -0.745886 -1.23177 0
M  V30 14086 H 1383.02 0.250654 -4.20654 0
M  V30 14087 H 1381.75 0.891638 -3.14193 0
M  V30 14088 H 1380.41 -1.21732 -3.45799 0
M  V30 14089 H 1380.05 0.73932 -4.97537 0
M  V30 14090 H 1379.75 -0.79949 -5.82136 0
M  V30 14091 H 1381.28 0.0886344 -6.10536 0
M  V30 14092 H 1382.69 -2.05433 -5.35229 0
M  V30 14093 H 1381.09 -2.84265 -5.28501 0
M  V30 14094 H 1382.16 -2.91708 -3.87342 0
M  V30 14095 N 1383.5 1.34231 -0.825823 0
M  V30 14096 C 1384.73 2.02949 -0.427354 0
M  V30 14097 C 1385.15 1.61772 0.959755 0
M  V30 14098 O 1384.51 0.803799 1.62508 0
M  V30 14099 C 1384.56 3.56522 -0.540799 0
M  V30 14100 O 1383.66 4.10065 0.438213 0
M  V30 14101 H 1383 0.640378 -0.175535 0
M  V30 14102 H 1385.53 1.71416 -1.11704 0
M  V30 14103 H 1385.54 4.05857 -0.41763 0
M  V30 14104 H 1384.22 3.85839 -1.55246 0
M  V30 14105 H 1382.79 3.71894 0.273687 0
M  V30 14106 N 1384.98 0.581051 1.46498 0
M  V30 14107 C 1386.23 0.0658652 2.01993 0
M  V30 14108 C 1386.55 -1.29807 1.45516 0
M  V30 14109 O 1385.82 -1.85177 0.639233 0
M  V30 14110 H 1384.4 0.0213584 0.746695 0
M  V30 14111 H 1387.06 0.756456 1.79621 0
M  V30 14112 H 1386.16 -0.00438128 3.121 0
M  V30 14113 N 1386.46 -1.54343 0.318742 0
M  V30 14114 C 1387.39 -2.27118 -0.542206 0
M  V30 14115 C 1388.37 -1.27731 -1.12334 0
M  V30 14116 O 1389.55 -1.56535 -1.14937 0
M  V30 14117 C 1386.68 -3.02535 -1.70558 0
M  V30 14118 C 1385.64 -4.09218 -1.25398 0
M  V30 14119 C 1384.96 -4.72449 -2.50391 0
M  V30 14120 C 1386.26 -5.20971 -0.372332 0
M  V30 14121 H 1387.96 -2.9933 0.0648226 0
M  V30 14122 H 1385.5 -1.43963 0.0326168 0
M  V30 14123 H 1387.46 -3.52174 -2.31412 0
M  V30 14124 H 1386.18 -2.27931 -2.33912 0
M  V30 14125 H 1384.84 -3.60455 -0.668392 0
M  V30 14126 H 1384.49 -3.94466 -3.12099 0
M  V30 14127 H 1384.19 -5.4451 -2.20868 0
M  V30 14128 H 1385.71 -5.2486 -3.12016 0
M  V30 14129 H 1387.13 -5.66396 -0.887029 0
M  V30 14130 H 1385.52 -5.99859 -0.17009 0
M  V30 14131 H 1386.59 -4.81198 0.598064 0
M  V30 14132 N 1387.94 -0.0468143 -1.5753 0
M  V30 14133 C 1388.89 0.938619 -2.07783 0
M  V30 14134 C 1389.87 1.27454 -0.982057 0
M  V30 14135 O 1391.06 1.25769 -1.24544 0
M  V30 14136 C 1388.19 2.21499 -2.62285 0
M  V30 14137 C 1387.28 1.90665 -3.78824 0
M  V30 14138 N 1387.67 1.30174 -4.88762 0
M  V30 14139 C 1385.97 2.20559 -3.87646 0
M  V30 14140 C 1386.67 1.16872 -5.69838 0
M  V30 14141 N 1385.64 1.67016 -5.17307 0
M  V30 14142 H 1389.44 0.466179 -2.90179 0
M  V30 14143 H 1386.96 0.157752 -1.61632 0
M  V30 14144 H 1388.96 2.92987 -2.96588 0
M  V30 14145 H 1387.62 2.69353 -1.81326 0
M  V30 14146 H 1388.63 0.974495 -5.08649 0
M  V30 14147 H 1385.3 2.70964 -3.17623 0
M  V30 14148 H 1386.69 0.699463 -6.68249 0
M  V30 14149 N 1389.41 1.55964 0.226527 0
M  V30 14150 C 1390.66 1.78392 0.94977 0
M  V30 14151 C 1390.98 0.614444 1.85066 0
M  V30 14152 O 1390.25 -0.368894 1.92395 0
M  V30 14153 H 1388.83 0.657962 0.353688 0
M  V30 14154 H 1391.5 1.93422 0.239577 0
M  V30 14155 H 1390.59 2.70343 1.55952 0
M  V30 14156 N 1390.89 -0.493031 1.4969 0
M  V30 14157 C 1391.82 -1.61058 1.63074 0
M  V30 14158 C 1392.84 -1.54504 0.513069 0
M  V30 14159 O 1394.03 -1.60291 0.785431 0
M  V30 14160 C 1391.13 -2.99877 1.57883 0
M  V30 14161 C 1390.3 -3.31531 2.85317 0
M  V30 14162 C 1389.36 -4.49799 2.7307 0
M  V30 14163 O 1388.38 -4.51189 3.47012 0
M  V30 14164 N 1389.59 -5.50182 1.85148 0
M  V30 14165 H 1392.35 -1.5 2.59461 0
M  V30 14166 H 1389.91 -0.681057 1.46878 0
M  V30 14167 H 1391.9 -3.76928 1.47333 0
M  V30 14168 H 1390.47 -3.04817 0.693218 0
M  V30 14169 H 1389.69 -2.433 3.10159 0
M  V30 14170 H 1390.98 -3.49481 3.69784 0
M  V30 14171 H 1390.38 -5.51865 1.24345 0
M  V30 14172 H 1388.94 -6.26305 1.80516 0
M  V30 14173 N 1392.37 -1.38898 -0.744656 0
M  V30 14174 C 1393.3 -1.39571 -1.87195 0
M  V30 14175 C 1394.28 -0.260372 -1.68095 0
M  V30 14176 O 1395.47 -0.464776 -1.88556 0
M  V30 14177 C 1392.6 -1.22889 -3.24832 0
M  V30 14178 C 1391.55 -2.33721 -3.58551 0
M  V30 14179 C 1390.88 -2.02136 -4.9502 0
M  V30 14180 C 1392.18 -3.7601 -3.62511 0
M  V30 14181 H 1393.87 -2.33908 -1.86889 0
M  V30 14182 H 1391.42 -1.12591 -0.897739 0
M  V30 14183 H 1393.37 -1.21983 -4.03359 0
M  V30 14184 H 1392.09 -0.250172 -3.2564 0
M  V30 14185 H 1390.75 -2.33828 -2.82348 0
M  V30 14186 H 1390.4 -1.02726 -4.92399 0
M  V30 14187 H 1390.1 -2.76371 -5.18549 0
M  V30 14188 H 1391.62 -2.02864 -5.75915 0
M  V30 14189 H 1393.04 -3.77885 -4.31133 0
M  V30 14190 H 1391.44 -4.49524 -3.97553 0
M  V30 14191 H 1392.51 -4.07682 -2.62533 0
M  V30 14192 N 1393.85 0.973806 -1.23914 0
M  V30 14193 C 1394.78 2.07003 -0.983982 0
M  V30 14194 C 1395.79 1.62739 0.0443893 0
M  V30 14195 O 1396.98 1.77465 -0.191927 0
M  V30 14196 C 1394.08 3.35737 -0.461937 0
M  V30 14197 C 1393.26 4.08939 -1.55202 0
M  V30 14198 C 1392.31 5.15947 -1.03369 0
M  V30 14199 O 1391.34 5.42461 -1.72409 0
M  V30 14200 N 1392.54 5.80343 0.135067 0
M  V30 14201 H 1395.31 2.29468 -1.92781 0
M  V30 14202 H 1392.87 1.14098 -1.14861 0
M  V30 14203 H 1394.86 4.04576 -0.100074 0
M  V30 14204 H 1393.43 3.10189 0.387467 0
M  V30 14205 H 1392.65 3.34462 -2.08635 0
M  V30 14206 H 1393.94 4.5461 -2.2849 0
M  V30 14207 H 1393.34 5.61196 0.71241 0
M  V30 14208 H 1391.89 6.50326 0.438132 0
M  V30 14209 N 1395.33 1.05191 1.17357 0
M  V30 14210 C 1396.24 0.663617 2.25018 0
M  V30 14211 C 1397.25 -0.315299 1.71119 0
M  V30 14212 O 1398.43 -0.167398 2.00703 0
M  V30 14213 C 1395.49 0.0443307 3.46672 0
M  V30 14214 C 1394.55 1.07369 4.15656 0
M  V30 14215 C 1393.79 0.483864 5.31502 0
M  V30 14216 O 1394.01 -0.706692 5.66005 0
M  V30 14217 O 1392.94 1.21812 5.89445 0
M  V30 14218 H 1396.77 1.56088 2.60519 0
M  V30 14219 H 1394.36 0.823474 1.24657 0
M  V30 14220 H 1396.24 -0.299839 4.20332 0
M  V30 14221 H 1394.91 -0.826579 3.12969 0
M  V30 14222 H 1393.82 1.46985 3.44015 0
M  V30 14223 H 1395.15 1.91575 4.53387 0
M  V30 14224 N 1396.8 -1.33791 0.83293 0
M  V30 14225 C 1397.77 -2.27637 0.267196 0
M  V30 14226 C 1398.77 -1.50709 -0.560669 0
M  V30 14227 O 1399.96 -1.70109 -0.375321 0
M  V30 14228 C 1397.09 -3.35136 -0.624248 0
M  V30 14229 H 1398.28 -2.79186 1.09522 0
M  V30 14230 H 1395.84 -1.44093 0.605554 0
M  V30 14231 H 1396.57 -2.88818 -1.47494 0
M  V30 14232 H 1396.36 -3.92087 -0.0319827 0
M  V30 14233 H 1397.85 -4.05113 -1.01355 0
M  V30 14234 N 1398.28 -0.588812 -1.46187 0
M  V30 14235 C 1399.7 -0.250962 -1.57615 0
M  V30 14236 C 1399.9 1.2467 -1.58302 0
M  V30 14237 O 1398.95 2.02876 -1.50325 0
M  V30 14238 C 1400.27 -0.905561 -2.8674 0
M  V30 14239 C 1401.82 -0.879721 -3.00383 0
M  V30 14240 C 1402.29 -1.51398 -4.32253 0
M  V30 14241 N 1403.78 -1.4786 -4.38967 0
M  V30 14242 C 1404.52 -1.93868 -5.39632 0
M  V30 14243 N 1404.01 -2.47876 -6.46938 0
M  V30 14244 N 1405.81 -1.84748 -5.30872 0
M  V30 14245 H 1397.96 -1.56148 -1.43985 0
M  V30 14246 H 1400.22 -0.653028 -0.68721 0
M  V30 14247 H 1399.93 -1.95935 -2.92066 0
M  V30 14248 H 1399.8 -0.417456 -3.74883 0
M  V30 14249 H 1402.19 0.165466 -2.94636 0
M  V30 14250 H 1402.27 -1.40591 -2.137 0
M  V30 14251 H 1401.91 -2.55839 -4.38758 0
M  V30 14252 H 1401.84 -0.962965 -5.17721 0
M  V30 14253 H 1404.33 -1.08387 -3.62023 0
M  V30 14254 H 1404.65 -2.80824 -7.1997 0
M  V30 14255 H 1402.99 -2.51905 -6.47741 0
M  V30 14256 H 1406.18 -1.42307 -4.45944 0
M  V30 14257 H 1406.35 -2.20919 -6.09179 0
M  V30 14258 N 1399.76 1.54172 -0.326923 0
M  V30 14259 C 1400.72 2.2311 0.524855 0
M  V30 14260 C 1401.72 1.22567 1.04087 0
M  V30 14261 O 1402.91 1.47123 0.932759 0
M  V30 14262 C 1400.05 2.93778 1.72937 0
M  V30 14263 H 1401.24 2.99799 -0.0778327 0
M  V30 14264 H 1398.79 1.56105 -0.0780484 0
M  V30 14265 H 1399.53 2.21234 2.3712 0
M  V30 14266 H 1399.31 3.67509 1.36674 0
M  V30 14267 H 1400.8 3.46292 2.33392 0
M  V30 14268 N 1401.24 0.0551678 1.57503 0
M  V30 14269 C 1402.15 -0.932959 2.15251 0
M  V30 14270 C 1403.16 -1.33885 1.11134 0
M  V30 14271 O 1404.34 -1.41495 1.43321 0
M  V30 14272 C 1401.41 -2.18807 2.68932 0
M  V30 14273 C 1400.47 -1.84016 3.87862 0
M  V30 14274 C 1399.7 -3.03543 4.38973 0
M  V30 14275 O 1399.92 -4.17041 3.89144 0
M  V30 14276 O 1398.86 -2.84325 5.30512 0
M  V30 14277 H 1402.68 -0.471816 3.00013 0
M  V30 14278 H 1400.27 -0.16696 1.48464 0
M  V30 14279 H 1402.15 -2.92439 3.0341 0
M  V30 14280 H 1400.82 -2.64051 1.87239 0
M  V30 14281 H 1399.73 -1.07687 3.58266 0
M  V30 14282 H 1401.06 -1.43567 4.70796 0
M  V30 14283 N 1402.72 -1.56081 -0.218252 0
M  V30 14284 C 1403.66 -1.93544 -1.2901 0
M  V30 14285 C 1404.66 -0.817886 -1.48348 0
M  V30 14286 O 1405.86 -1.00274 -1.49483 0
M  V30 14287 H 1402.24 -0.61511 -0.432601 0
M  V30 14288 H 1404.21 -2.82975 -0.946966 0
M  V30 14289 C 1402.96 -2.27134 -2.63259 0
M  V30 14290 H 1402.28 -3.12643 -2.49188 0
M  V30 14291 H 1403.72 -2.57228 -3.3706 0
M  V30 14292 C 1402.18 -1.09764 -3.18518 0
M  V30 14293 O 1402.71 -0.360501 -4.00079 0
M  V30 14294 N 1400.92 -0.880589 -2.76937 0
M  V30 14295 H 1400.46 -1.48175 -2.10718 0
M  V30 14296 H 1400.42 -0.0970234 -3.1425 0
M  V30 14297 N 1404.2 0.485086 -1.49949 0
M  V30 14298 C 1405.42 1.26648 -1.64241 0
M  V30 14299 C 1405.85 1.85359 -0.319939 0
M  V30 14300 O 1405.2 1.66628 0.714487 0
M  V30 14301 C 1405.25 2.36109 -2.72552 0
M  V30 14302 O 1404.36 3.40387 -2.32832 0
M  V30 14303 H 1403.7 0.373208 -0.549192 0
M  V30 14304 H 1406.23 0.578929 -1.96239 0
M  V30 14305 H 1406.24 2.81634 -2.95205 0
M  V30 14306 H 1404.91 1.92745 -3.6854 0
M  V30 14307 H 1403.49 3.0067 -2.20571 0
M  V30 14308 N 1405.67 1.39291 0.737279 0
M  V30 14309 C 1406.61 1.33728 1.86144 0
M  V30 14310 C 1407.62 0.246468 1.60924 0
M  V30 14311 O 1408.81 0.505252 1.712 0
M  V30 14312 C 1405.91 1.05312 3.22122 0
M  V30 14313 C 1405.08 2.25624 3.74716 0
M  V30 14314 C 1404.14 1.937 4.89251 0
M  V30 14315 O 1403.17 2.66361 5.03031 0
M  V30 14316 N 1404.37 0.901782 5.73453 0
M  V30 14317 H 1407.13 2.30604 1.91421 0
M  V30 14318 H 1404.69 1.33364 0.917919 0
M  V30 14319 H 1406.69 0.819784 3.9631 0
M  V30 14320 H 1405.26 0.171773 3.12128 0
M  V30 14321 H 1404.48 2.64923 2.91906 0
M  V30 14322 H 1405.76 3.05881 4.06589 0
M  V30 14323 H 1405.16 0.299553 5.64906 0
M  V30 14324 H 1403.72 0.728344 6.47718 0
M  V30 14325 N 1407.15 -0.967221 1.24429 0
M  V30 14326 C 1408.08 -2.07966 1.06172 0
M  V30 14327 C 1409.06 -1.70081 -0.0254566 0
M  V30 14328 O 1410.25 -1.93682 0.141705 0
M  V30 14329 C 1407.38 -3.4085 0.666251 0
M  V30 14330 C 1406.33 -3.92692 1.70225 0
M  V30 14331 C 1405.66 -5.21925 1.16183 0
M  V30 14332 C 1406.96 -4.20478 3.09831 0
M  V30 14333 H 1408.65 -2.23497 1.99222 0
M  V30 14334 H 1406.2 -1.07398 0.959255 0
M  V30 14335 H 1408.15 -4.1811 0.52552 0
M  V30 14336 H 1406.87 -3.2522 -0.299939 0
M  V30 14337 H 1405.53 -3.17588 1.83121 0
M  V30 14338 H 1405.18 -5.02655 0.186237 0
M  V30 14339 H 1404.88 -5.57579 1.85416 0
M  V30 14340 H 1406.41 -6.01795 1.03323 0
M  V30 14341 H 1407.82 -4.88442 3.00162 0
M  V30 14342 H 1406.22 -4.67362 3.7642 0
M  V30 14343 H 1407.29 -3.27235 3.57834 0
M  V30 14344 N 1408.63 -1.05812 -1.16797 0
M  V30 14345 C 1409.86 -0.792519 -1.9112 0
M  V30 14346 C 1410.27 0.652549 -1.77164 0
M  V30 14347 O 1409.63 1.44633 -1.113 0
M  V30 14348 C 1409.68 -1.17172 -3.41984 0
M  V30 14349 O 1409.4 -2.56008 -3.55516 0
M  V30 14350 C 1410.9 -0.933162 -4.33367 0
M  V30 14351 H 1408.12 -0.28768 -0.606202 0
M  V30 14352 H 1410.67 -1.41046 -1.48075 0
M  V30 14353 H 1408.82 -0.598413 -3.8275 0
M  V30 14354 H 1409.24 -2.71053 -4.49033 0
M  V30 14355 H 1410.71 -1.24817 -5.37703 0
M  V30 14356 H 1411.19 0.131345 -4.39004 0
M  V30 14357 H 1411.79 -1.49062 -3.98322 0
M  V30 14358 N 1410.11 1.33347 -0.840014 0
M  V30 14359 C 1411.02 2.32965 -0.276527 0
M  V30 14360 C 1412.03 1.634 0.598037 0
M  V30 14361 O 1413.21 1.95046 0.501888 0
M  V30 14362 C 1410.27 3.42498 0.53816 0
M  V30 14363 C 1409.34 4.27781 -0.360814 0
M  V30 14364 C 1408.57 5.32083 0.415085 0
M  V30 14365 O 1408.79 5.46115 1.64666 0
M  V30 14366 O 1407.73 6.01528 -0.211503 0
M  V30 14367 H 1411.55 2.83022 -1.10147 0
M  V30 14368 H 1409.14 1.3671 -0.602566 0
M  V30 14369 H 1411.02 4.09336 1.00108 0
M  V30 14370 H 1409.69 2.94655 1.34015 0
M  V30 14371 H 1408.6 3.63805 -0.871598 0
M  V30 14372 H 1409.93 4.7911 -1.1276 0
M  V30 14373 N 1411.59 0.596556 1.45873 0
M  V30 14374 C 1413 0.259317 1.57479 0
M  V30 14375 C 1413.2 -1.23829 1.58961 0
M  V30 14376 O 1412.26 -2.02076 1.51399 0
M  V30 14377 C 1413.57 0.920755 2.86256 0
M  V30 14378 C 1415.12 0.895638 2.99912 0
M  V30 14379 C 1415.59 1.53688 4.31444 0
M  V30 14380 N 1417.08 1.50186 4.38176 0
M  V30 14381 C 1417.82 1.96727 5.38596 0
M  V30 14382 N 1417.32 2.51304 6.45615 0
M  V30 14383 N 1419.11 1.87561 5.29884 0
M  V30 14384 H 1411.26 1.56909 1.43155 0
M  V30 14385 H 1413.52 0.656664 0.683737 0
M  V30 14386 H 1413.23 1.97481 2.91023 0
M  V30 14387 H 1413.1 0.437331 3.74656 0
M  V30 14388 H 1415.49 -0.149838 2.94719 0
M  V30 14389 H 1415.57 1.41722 2.12952 0
M  V30 14390 H 1415.21 2.58163 4.37395 0
M  V30 14391 H 1415.14 0.990408 5.17203 0
M  V30 14392 H 1417.64 1.10305 3.61443 0
M  V30 14393 H 1417.95 2.84639 7.18471 0
M  V30 14394 H 1416.29 2.55337 6.46396 0
M  V30 14395 H 1419.48 1.4467 4.45183 0
M  V30 14396 H 1419.66 2.24146 6.07999 0
M  V30 14397 N 1413.06 -1.53996 0.335095 0
M  V30 14398 C 1414.31 -1.99952 -0.264954 0
M  V30 14399 C 1414.63 -1.22696 -1.52332 0
M  V30 14400 O 1415.83 -1.59086 -2.20009 0
M  V30 14401 C 1414.29 -3.56085 -0.522667 0
M  V30 14402 C 1413.9 -4.42188 0.719314 0
M  V30 14403 C 1415.64 -4.10478 -1.08204 0
M  V30 14404 C 1413.55 -5.89814 0.432867 0
M  V30 14405 H 1412.48 -0.746962 -0.102782 0
M  V30 14406 H 1415.13 -1.77919 0.449111 0
M  V30 14407 H 1413.51 -3.7415 -1.29722 0
M  V30 14408 H 1414.68 -4.35898 1.49432 0
M  V30 14409 H 1413 -3.98743 1.19972 0
M  V30 14410 H 1415.6 -5.18375 -1.31116 0
M  V30 14411 H 1415.94 -3.63173 -2.03497 0
M  V30 14412 H 1416.47 -3.96091 -0.368395 0
M  V30 14413 H 1413.21 -6.41336 1.35529 0
M  V30 14414 H 1412.73 -5.99028 -0.304214 0
M  V30 14415 H 1414.41 -6.46983 0.0469657 0
M  V30 14416 N 1414.54 -0.0635198 -1.57472 0
M  V30 14417 C 1415.96 0.293084 -1.56886 0
M  V30 14418 C 1416.16 1.70603 -1.07224 0
M  V30 14419 O 1415.21 2.41584 -0.734388 0
M  V30 14420 C 1416.53 0.110286 -3.00498 0
M  V30 14421 C 1418.07 0.180453 -3.12479 0
M  V30 14422 C 1418.55 0.0260354 -4.57993 0
M  V30 14423 N 1420.04 0.0819109 -4.63128 0
M  V30 14424 C 1420.78 -0.0132764 -5.73398 0
M  V30 14425 N 1420.27 -0.161514 -6.92612 0
M  V30 14426 N 1422.06 0.0431948 -5.62083 0
M  V30 14427 H 1414.22 -0.98706 -1.88072 0
M  V30 14428 H 1416.48 -0.384232 -0.866643 0
M  V30 14429 H 1416.18 -0.864378 -3.40913 0
M  V30 14430 H 1416.06 0.866117 -3.67122 0
M  V30 14431 H 1418.45 1.1456 -2.71956 0
M  V30 14432 H 1418.53 -0.606342 -2.4851 0
M  V30 14433 H 1418.17 -0.935839 -4.99204 0
M  V30 14434 H 1418.1 0.832131 -5.19984 0
M  V30 14435 H 1420.59 0.195229 -3.77395 0
M  V30 14436 H 1420.9 -0.226517 -7.72468 0
M  V30 14437 H 1419.25 -0.196766 -6.94721 0
M  V30 14438 H 1422.44 0.157648 -4.67834 0
M  V30 14439 H 1422.61 -0.0344435 -6.47991 0
M  V30 14440 N 1416.02 1.56195 0.209972 0
M  V30 14441 C 1417.24 1.84189 0.953364 0
M  V30 14442 C 1417.67 0.645288 1.76685 0
M  V30 14443 O 1417.03 -0.405962 1.76696 0
M  V30 14444 C 1417.08 3.10281 1.83733 0
M  V30 14445 O 1416.18 2.89788 2.93422 0
M  V30 14446 H 1415.52 0.606931 0.269314 0
M  V30 14447 H 1418.05 2.03416 0.219783 0
M  V30 14448 H 1418.06 3.40688 2.2449 0
M  V30 14449 H 1416.74 3.97 1.23951 0
M  V30 14450 H 1415.31 2.70643 2.56528 0
M  V30 14451 N 1417.5 -0.477127 1.50204 0
M  V30 14452 C 1418.75 -1.22639 1.60133 0
M  V30 14453 C 1419.06 -1.93218 0.304333 0
M  V30 14454 O 1420.27 -2.70027 0.282457 0
M  V30 14455 C 1418.72 -2.22807 2.82639 0
M  V30 14456 C 1418.33 -1.58059 4.19191 0
M  V30 14457 C 1420.07 -2.98413 3.01911 0
M  V30 14458 C 1417.98 -2.56478 5.32891 0
M  V30 14459 H 1416.91 -0.461439 0.596314 0
M  V30 14460 H 1419.56 -0.497533 1.76626 0
M  V30 14461 H 1417.94 -2.98959 2.59692 0
M  V30 14462 H 1419.12 -0.877374 4.5237 0
M  V30 14463 H 1417.43 -0.947563 4.05475 0
M  V30 14464 H 1420.03 -3.72059 3.84026 0
M  V30 14465 H 1420.37 -3.57444 2.134 0
M  V30 14466 H 1420.91 -2.29375 3.25011 0
M  V30 14467 H 1417.64 -2.02194 6.23536 0
M  V30 14468 H 1417.16 -3.24969 5.04138 0
M  V30 14469 H 1418.84 -3.18429 5.63216 0
M  V30 14470 N 1418.98 -1.3968 -0.729882 0
M  V30 14471 C 1419.89 -1.41094 -1.87429 0
M  V30 14472 C 1420.9 -0.305142 -1.71303 0
M  V30 14473 O 1422.08 -0.54744 -1.93817 0
M  V30 14474 C 1419.14 -1.25786 -3.23077 0
M  V30 14475 C 1418.2 -2.46382 -3.5156 0
M  V30 14476 C 1417.44 -2.31795 -4.80735 0
M  V30 14477 O 1417.66 -1.32415 -5.54818 0
M  V30 14478 O 1416.59 -3.20883 -5.09232 0
M  V30 14479 H 1420.42 -2.37571 -1.89192 0
M  V30 14480 H 1418.01 -1.2085 -0.878389 0
M  V30 14481 H 1419.89 -1.19402 -4.0413 0
M  V30 14482 H 1418.56 -0.324065 -3.22074 0
M  V30 14483 H 1417.47 -2.58343 -2.70573 0
M  V30 14484 H 1418.8 -3.38473 -3.57347 0
M  V30 14485 N 1420.45 0.960609 -1.2494 0
M  V30 14486 C 1421.42 2.03791 -1.04891 0
M  V30 14487 C 1422.42 1.608 -0.00375792 0
M  V30 14488 O 1423.61 1.72463 -0.24539 0
M  V30 14489 C 1420.74 3.35733 -0.591309 0
M  V30 14490 H 1421.93 2.2301 -2.00516 0
M  V30 14491 H 1419.49 1.13686 -1.07263 0
M  V30 14492 H 1420.22 3.22207 0.367816 0
M  V30 14493 H 1420.01 3.68283 -1.34574 0
M  V30 14494 H 1421.5 4.14921 -0.472283 0
M  V30 14495 N 1421.93 1.0643 1.16234 0
M  V30 14496 C 1422.86 0.697605 2.22836 0
M  V30 14497 C 1423.84 -0.310563 1.67241 0
M  V30 14498 O 1425.03 -0.185385 1.93313 0
M  V30 14499 C 1422.16 0.0847097 3.47197 0
M  V30 14500 C 1421.11 1.019 4.15693 0
M  V30 14501 C 1420.44 0.269339 5.34021 0
M  V30 14502 C 1421.74 2.34861 4.66516 0
M  V30 14503 H 1423.43 1.58883 2.53765 0
M  V30 14504 H 1420.98 0.765388 1.21975 0
M  V30 14505 H 1422.93 -0.1837 4.20999 0
M  V30 14506 H 1421.66 -0.84154 3.15572 0
M  V30 14507 H 1420.31 1.27218 3.43818 0
M  V30 14508 H 1419.96 -0.660072 4.9865 0
M  V30 14509 H 1419.66 0.892001 5.8079 0
M  V30 14510 H 1421.19 0.00850775 6.10599 0
M  V30 14511 H 1422.6 2.13922 5.31893 0
M  V30 14512 H 1421 2.92637 5.23912 0
M  V30 14513 H 1422.07 2.97834 3.82653 0
M  V30 14514 N 1423.41 -1.329 0.847073 0
M  V30 14515 C 1424.34 -2.31546 0.301422 0
M  V30 14516 C 1425.32 -1.59342 -0.595317 0
M  V30 14517 O 1426.51 -1.87188 -0.517151 0
M  V30 14518 C 1423.64 -3.43423 -0.517454 0
M  V30 14519 C 1422.59 -4.27055 0.284195 0
M  V30 14520 C 1421.92 -5.30624 -0.658944 0
M  V30 14521 C 1423.22 -5.00123 1.50578 0
M  V30 14522 H 1424.91 -2.77433 1.12567 0
M  V30 14523 H 1422.46 -1.3338 0.542739 0
M  V30 14524 H 1424.41 -4.11467 -0.909543 0
M  V30 14525 H 1423.13 -2.96246 -1.37499 0
M  V30 14526 H 1421.79 -3.60648 0.657944 0
M  V30 14527 H 1421.44 -4.79702 -1.51311 0
M  V30 14528 H 1421.14 -5.87464 -0.12662 0
M  V30 14529 H 1422.66 -6.01533 -1.04837 0
M  V30 14530 H 1424.08 -5.6089 1.18641 0
M  V30 14531 H 1422.48 -5.66652 1.97549 0
M  V30 14532 H 1423.55 -4.28424 2.27115 0
M  V30 14533 N 1424.89 -0.604284 -1.45555 0
M  V30 14534 C 1425.8 0.118409 -2.34301 0
M  V30 14535 C 1426.81 0.863807 -1.51044 0
M  V30 14536 O 1427.99 0.822138 -1.83856 0
M  V30 14537 C 1425.06 1.10538 -3.28606 0
M  V30 14538 C 1424.12 0.362301 -4.27768 0
M  V30 14539 C 1423.35 1.30226 -5.17568 0
M  V30 14540 O 1423.57 2.53991 -5.10729 0
M  V30 14541 O 1422.51 0.801116 -5.96545 0
M  V30 14542 H 1426.33 -0.610816 -2.97494 0
M  V30 14543 H 1423.92 -0.364562 -1.44884 0
M  V30 14544 H 1425.8 1.67392 -3.86727 0
M  V30 14545 H 1424.47 1.81569 -2.67982 0
M  V30 14546 H 1423.38 -0.248616 -3.73273 0
M  V30 14547 H 1424.71 -0.307454 -4.91239 0
M  V30 14548 N 1426.37 1.53816 -0.343257 0
M  V30 14549 C 1427.33 2.23654 0.501161 0
M  V30 14550 C 1428.33 1.23664 1.02781 0
M  V30 14551 O 1429.52 1.48104 0.917103 0
M  V30 14552 C 1426.65 2.95596 1.69812 0
M  V30 14553 H 1427.84 2.997 -0.109626 0
M  V30 14554 H 1425.4 1.56013 -0.0946011 0
M  V30 14555 H 1426.13 2.23736 2.34761 0
M  V30 14556 H 1425.92 3.68938 1.32768 0
M  V30 14557 H 1427.41 3.48748 2.29706 0
M  V30 14558 N 1427.84 0.0718701 1.57436 0
M  V30 14559 C 1429.09 -0.596052 1.9311 0
M  V30 14560 C 1429.41 -1.70146 0.952652 0
M  V30 14561 O 1428.68 -1.959 0.000812941 0
M  V30 14562 H 1427.26 -0.223165 0.712886 0
M  V30 14563 H 1429.93 0.129744 1.94468 0
M  V30 14564 H 1429.02 -1.02132 2.94916 0
M  V30 14565 N 1429.32 -1.56304 -0.201686 0
M  V30 14566 C 1430.25 -1.90538 -1.27389 0
M  V30 14567 C 1431.27 -0.795422 -1.42045 0
M  V30 14568 O 1432.46 -1.07381 -1.42589 0
M  V30 14569 C 1429.56 -2.11638 -2.64694 0
M  V30 14570 C 1428.73 -3.42755 -2.71731 0
M  V30 14571 C 1427.79 -3.53047 -3.90185 0
M  V30 14572 O 1426.81 -4.25923 -3.77595 0
M  V30 14573 N 1428.02 -2.85649 -5.05356 0
M  V30 14574 H 1430.78 -2.83106 -0.983411 0
M  V30 14575 H 1428.34 -1.57092 -0.391638 0
M  V30 14576 H 1430.33 -2.15818 -3.42352 0
M  V30 14577 H 1428.9 -1.256 -2.86258 0
M  V30 14578 H 1428.12 -3.50501 -1.80397 0
M  V30 14579 H 1429.41 -4.29092 -2.73418 0
M  V30 14580 H 1428.81 -2.26256 -5.18483 0
M  V30 14581 H 1427.37 -2.95465 -5.80985 0
M  V30 14582 N 1430.8 0.469154 -1.50455 0
M  V30 14583 C 1431.76 1.5493 -1.68906 0
M  V30 14584 C 1432.76 1.50744 -0.559721 0
M  V30 14585 O 1433.95 1.5333 -0.826781 0
M  V30 14586 C 1431.09 2.94556 -1.71609 0
M  V30 14587 H 1432.28 1.39887 -2.65276 0
M  V30 14588 H 1429.83 0.695667 -1.39965 0
M  V30 14589 H 1430.57 3.15041 -0.769382 0
M  V30 14590 H 1430.35 2.99002 -2.53654 0
M  V30 14591 H 1431.84 3.72973 -1.87831 0
M  V30 14592 N 1432.28 1.40065 0.722464 0
M  V30 14593 C 1433.69 1.21944 1.02965 0
M  V30 14594 C 1433.89 0.0898069 2.013 0
M  V30 14595 O 1432.95 -0.554519 2.46336 0
M  V30 14596 C 1434.26 2.55848 1.57995 0
M  V30 14597 C 1435.81 2.62801 1.70013 0
M  V30 14598 C 1436.29 3.96957 2.2845 0
M  V30 14599 N 1437.78 3.98662 2.35844 0
M  V30 14600 C 1438.51 4.99248 2.82026 0
M  V30 14601 N 1438.01 6.1023 3.28012 0
M  V30 14602 N 1439.8 4.8662 2.81349 0
M  V30 14603 H 1431.95 2.12283 0.0705301 0
M  V30 14604 H 1434.22 0.943338 0.0938991 0
M  V30 14605 H 1433.92 3.39125 0.932034 0
M  V30 14606 H 1433.8 2.76452 2.5662 0
M  V30 14607 H 1436.18 1.799 2.33923 0
M  V30 14608 H 1436.26 2.46034 0.700062 0
M  V30 14609 H 1435.91 4.80295 1.65164 0
M  V30 14610 H 1435.84 4.1105 3.29158 0
M  V30 14611 H 1438.33 3.18518 2.03358 0
M  V30 14612 H 1438.64 6.82878 3.61797 0
M  V30 14613 H 1436.99 6.13805 3.25988 0
M  V30 14614 H 1440.18 3.99015 2.44755 0
M  V30 14615 H 1440.35 5.65155 3.17024 0
M  V30 14616 N 1433.76 -0.95397 1.25448 0
M  V30 14617 C 1435.03 -1.67502 1.01008 0
M  V30 14618 C 1435.41 -2.05949 -0.463483 0
M  V30 14619 O 1434.76 -1.77336 -1.44098 0
M  V30 14620 C 1434.97 -2.89679 1.94645 0
M  V30 14621 C 1436.32 -3.61617 2.22526 0
M  V30 14622 O 1437.34 -2.99762 1.92409 0
M  V30 14623 O 1436.2 -4.72998 2.73743 0
M  V30 14624 H 1433.3 -0.732917 0.383094 0
M  V30 14625 H 1435.84 -1.00684 1.36605 0
M  V30 14626 H 1434.62 -2.58063 2.94141 0
M  V30 14627 H 1434.24 -3.64228 1.59449 0
M  V30 14628 N 1435.24 -1.07045 -1.15668 0
M  V30 14629 C 1436.2 -0.69198 -2.18505 0
M  V30 14630 C 1437.2 0.266185 -1.58582 0
M  V30 14631 O 1438.39 0.0475566 -1.74135 0
M  V30 14632 C 1435.52 -0.0194196 -3.40894 0
M  V30 14633 H 1436.71 -1.60241 -2.53501 0
M  V30 14634 H 1434.27 -0.866598 -1.30076 0
M  V30 14635 H 1435 0.903398 -3.11463 0
M  V30 14636 H 1434.79 -0.708519 -3.85645 0
M  V30 14637 H 1436.28 0.230829 -4.16962 0
M  V30 14638 N 1436.71 1.32449 -0.85411 0
M  V30 14639 C 1437.65 2.2777 -0.255605 0
M  V30 14640 C 1438.66 1.52407 0.572355 0
M  V30 14641 O 1439.85 1.74031 0.396935 0
M  V30 14642 C 1436.95 3.32461 0.657496 0
M  V30 14643 C 1436.12 4.37193 -0.134492 0
M  V30 14644 C 1435.18 5.21465 0.704288 0
M  V30 14645 O 1434.21 5.69033 0.138001 0
M  V30 14646 N 1435.41 5.44254 2.01911 0
M  V30 14647 H 1438.17 2.79769 -1.07468 0
M  V30 14648 H 1435.73 1.45304 -0.714038 0
M  V30 14649 H 1437.73 3.85748 1.22396 0
M  V30 14650 H 1436.3 2.80625 1.37726 0
M  V30 14651 H 1435.52 3.84198 -0.882378 0
M  V30 14652 H 1436.8 5.04256 -0.678508 0
M  V30 14653 H 1436.2 5.07336 2.50252 0
M  V30 14654 H 1434.76 6.00538 2.53371 0
M  V30 14655 N 1438.19 0.611994 1.45232 0
M  V30 14656 C 1439.47 0.0407 1.95558 0
M  V30 14657 C 1439.85 -1.42839 1.55436 0
M  V30 14658 O 1439.2 -2.13316 0.819055 0
M  V30 14659 C 1439.41 0.243436 3.4815 0
M  V30 14660 C 1440.75 0.126551 4.24411 0
M  V30 14661 O 1441.78 0.17379 3.55776 0
M  V30 14662 O 1440.64 0.0153526 5.46498 0
M  V30 14663 H 1437.73 -0.0332288 0.826332 0
M  V30 14664 H 1440.28 0.682364 1.55377 0
M  V30 14665 H 1439.05 1.26357 3.70337 0
M  V30 14666 H 1438.67 -0.43328 3.95232 0
M  V30 14667 N 1439.67 -1.53632 0.351409 0
M  V30 14668 C 1440.92 -2.01338 -0.243047 0
M  V30 14669 C 1441.25 -1.23864 -1.4957 0
M  V30 14670 O 1440.52 -0.328412 -1.91707 0
M  V30 14671 C 1440.81 -3.55886 -0.549284 0
M  V30 14672 C 1440.66 -4.44064 0.716016 0
M  V30 14673 C 1441.98 -4.18699 -1.35569 0
M  V30 14674 H 1439.1 -0.731863 -0.0868627 0
M  V30 14675 H 1441.74 -1.84005 0.473501 0
M  V30 14676 H 1439.89 -3.70787 -1.15972 0
M  V30 14677 H 1441.56 -4.40987 1.35383 0
M  V30 14678 H 1439.8 -4.12608 1.3393 0
M  V30 14679 H 1440.48 -5.50106 0.456895 0
M  V30 14680 H 1442.95 -4.07545 -0.839441 0
M  V30 14681 H 1441.83 -5.26892 -1.53871 0
M  V30 14682 H 1442.09 -3.73834 -2.3601 0
M  V30 14683 N 1441.15 -0.0802183 -1.57396 0
M  V30 14684 C 1442.08 0.913777 -2.10197 0
M  V30 14685 C 1443.09 1.25588 -1.03593 0
M  V30 14686 O 1444.28 1.21159 -1.31083 0
M  V30 14687 C 1441.38 2.2272 -2.55439 0
M  V30 14688 C 1440.55 2.06268 -3.8571 0
M  V30 14689 C 1439.61 3.20989 -4.16956 0
M  V30 14690 O 1438.64 2.95608 -4.8642 0
M  V30 14691 N 1439.84 4.46331 -3.71172 0
M  V30 14692 H 1442.61 0.462908 -2.96103 0
M  V30 14693 H 1440.17 0.105287 -1.61557 0
M  V30 14694 H 1442.16 2.98389 -2.73397 0
M  V30 14695 H 1440.73 2.59278 -1.74624 0
M  V30 14696 H 1439.95 1.15016 -3.77048 0
M  V30 14697 H 1441.24 1.92535 -4.70965 0
M  V30 14698 H 1440.64 4.69837 -3.15071 0
M  V30 14699 H 1439.19 5.18999 -3.94314 0
M  V30 14700 N 1442.63 1.56409 0.193394 0
M  V30 14701 C 1443.59 1.93822 1.22334 0
M  V30 14702 C 1444.59 0.819513 1.3835 0
M  V30 14703 O 1445.78 1.0869 1.36132 0
M  V30 14704 C 1442.91 2.21375 2.59241 0
M  V30 14705 H 1444.1 2.85967 0.903502 0
M  V30 14706 H 1441.66 1.50125 0.43498 0
M  V30 14707 H 1442.39 1.31874 2.96277 0
M  V30 14708 H 1442.18 3.02899 2.48988 0
M  V30 14709 H 1443.67 2.51319 3.33509 0
M  V30 14710 N 1444.1 -0.461169 1.50702 0
M  V30 14711 C 1445.33 -1.24019 1.66235 0
M  V30 14712 C 1445.75 -1.84827 0.349388 0
M  V30 14713 O 1445.11 -1.67743 -0.687888 0
M  V30 14714 C 1445.16 -2.31743 2.76274 0
M  V30 14715 O 1444.26 -3.3664 2.38217 0
M  V30 14716 H 1443.6 -0.364424 0.55506 0
M  V30 14717 H 1446.13 -0.547636 1.97135 0
M  V30 14718 H 1446.14 -2.76902 2.99649 0
M  V30 14719 H 1444.82 -1.86858 3.7156 0
M  V30 14720 H 1443.4 -2.97123 2.25327 0
M  V30 14721 N 1445.58 -1.40446 -0.715026 0
M  V30 14722 C 1446.51 -1.36673 -1.83993 0
M  V30 14723 C 1447.53 -0.272038 -1.60511 0
M  V30 14724 O 1448.72 -0.532425 -1.70375 0
M  V30 14725 C 1445.82 -1.10423 -3.20406 0
M  V30 14726 C 1444.99 -2.31557 -3.71079 0
M  V30 14727 C 1444.05 -2.01459 -4.86108 0
M  V30 14728 O 1443.07 -2.7433 -4.9873 0
M  V30 14729 N 1444.28 -0.992899 -5.71946 0
M  V30 14730 H 1447.04 -2.3362 -1.87728 0
M  V30 14731 H 1444.6 -1.34807 -0.896586 0
M  V30 14732 H 1446.59 -0.88273 -3.94956 0
M  V30 14733 H 1445.16 -0.221408 -3.11815 0
M  V30 14734 H 1444.38 -2.69534 -2.87655 0
M  V30 14735 H 1445.67 -3.1231 -4.01671 0
M  V30 14736 H 1445.07 -0.389387 -5.64358 0
M  V30 14737 H 1443.63 -0.831299 -6.46477 0
M  V30 14738 N 1447.06 0.947303 -1.25952 0
M  V30 14739 C 1448.02 2.02667 -1.07046 0
M  V30 14740 C 1449.02 1.60787 -0.0208127 0
M  V30 14741 O 1450.21 1.72193 -0.263668 0
M  V30 14742 C 1447.34 3.35087 -0.626885 0
M  V30 14743 H 1448.54 2.20871 -2.0287 0
M  V30 14744 H 1446.09 1.12541 -1.08462 0
M  V30 14745 H 1446.83 3.22579 0.333621 0
M  V30 14746 H 1446.61 3.66835 -1.38473 0
M  V30 14747 H 1448.1 4.14397 -0.516264 0
M  V30 14748 N 1448.54 1.07657 1.15099 0
M  V30 14749 C 1449.45 0.711198 2.2356 0
M  V30 14750 C 1450.46 -0.278932 1.7175 0
M  V30 14751 O 1451.64 -0.124788 2.01013 0
M  V30 14752 C 1448.71 0.117855 3.465 0
M  V30 14753 C 1447.77 1.16162 4.13286 0
M  V30 14754 C 1447 0.596494 5.30356 0
M  V30 14755 O 1447.22 -0.586474 5.67377 0
M  V30 14756 O 1446.16 1.34288 5.86729 0
M  V30 14757 H 1449.98 1.61578 2.5715 0
M  V30 14758 H 1447.57 0.84973 1.22882 0
M  V30 14759 H 1449.45 -0.210613 4.20873 0
M  V30 14760 H 1448.12 -0.760008 3.14652 0
M  V30 14761 H 1447.03 1.54249 3.4082 0
M  V30 14762 H 1448.36 2.01149 4.49221 0
M  V30 14763 N 1450.02 -1.31994 0.861122 0
M  V30 14764 C 1450.98 -2.27019 0.315421 0
M  V30 14765 C 1451.98 -1.51864 -0.528575 0
M  V30 14766 O 1453.17 -1.70867 -0.339154 0
M  V30 14767 C 1450.3 -3.36384 -0.553021 0
M  V30 14768 H 1451.49 -2.768 1.1542 0
M  V30 14769 H 1449.05 -1.42776 0.635982 0
M  V30 14770 H 1449.78 -2.91882 -1.41335 0
M  V30 14771 H 1449.57 -3.92067 0.0511919 0
M  V30 14772 H 1451.06 -4.07172 -0.927392 0
M  V30 14773 N 1451.49 -0.619688 -1.44906 0
M  V30 14774 C 1452.77 -0.0510703 -1.95533 0
M  V30 14775 C 1453.15 1.42013 -1.56191 0
M  V30 14776 O 1452.5 2.12879 -0.830356 0
M  V30 14777 C 1452.71 -0.261896 -3.48016 0
M  V30 14778 C 1454.06 -0.149057 -4.24338 0
M  V30 14779 O 1455.08 -0.192655 -3.55679 0
M  V30 14780 O 1453.94 -0.0443345 -5.46482 0
M  V30 14781 H 1451.03 0.0288461 -0.826497 0
M  V30 14782 H 1453.58 -0.690594 -1.55013 0
M  V30 14783 H 1452.35 -1.28319 -3.69662 0
M  V30 14784 H 1451.98 0.412314 -3.95456 0
M  V30 14785 N 1452.97 1.53444 -0.359552 0
M  V30 14786 C 1453.9 2.23121 0.524379 0
M  V30 14787 C 1454.92 1.24324 1.05106 0
M  V30 14788 O 1456.11 1.50584 0.958476 0
M  V30 14789 C 1453.21 2.91055 1.7361 0
M  V30 14790 C 1452.38 4.16306 1.34195 0
M  V30 14791 C 1451.44 4.67504 2.41508 0
M  V30 14792 O 1450.46 5.3133 2.04149 0
M  V30 14793 N 1451.67 4.44801 3.73005 0
M  V30 14794 H 1454.43 2.99612 -0.072427 0
M  V30 14795 H 1451.99 1.60846 -0.184438 0
M  V30 14796 H 1453.98 3.22216 2.44865 0
M  V30 14797 H 1452.55 2.18052 2.23991 0
M  V30 14798 H 1451.77 3.91513 0.459501 0
M  V30 14799 H 1453.06 4.97746 1.05483 0
M  V30 14800 H 1452.46 3.9379 4.06136 0
M  V30 14801 H 1451.02 4.80528 4.40382 0
M  V30 14802 N 1454.45 0.0885642 1.57351 0
M  V30 14803 C 1455.38 -0.902617 2.10679 0
M  V30 14804 C 1456.4 -1.25037 1.04257 0
M  V30 14805 O 1457.58 -1.20462 1.31723 0
M  V30 14806 C 1454.68 -2.21362 2.56616 0
M  V30 14807 C 1453.86 -2.04219 3.86799 0
M  V30 14808 C 1452.92 -3.18774 4.18652 0
M  V30 14809 O 1451.94 -2.93024 4.87981 0
M  V30 14810 N 1453.14 -4.44357 3.73534 0
M  V30 14811 H 1455.91 -0.447199 2.96345 0
M  V30 14812 H 1453.47 -0.0967178 1.61611 0
M  V30 14813 H 1455.46 -2.96935 2.74976 0
M  V30 14814 H 1454.03 -2.58349 1.75996 0
M  V30 14815 H 1453.25 -1.13015 3.77652 0
M  V30 14816 H 1454.54 -1.90035 4.71979 0
M  V30 14817 H 1453.94 -4.68159 3.17558 0
M  V30 14818 H 1452.5 -5.169 3.97061 0
M  V30 14819 N 1455.93 -1.56509 -0.185096 0
M  V30 14820 C 1456.86 -1.91878 -1.25361 0
M  V30 14821 C 1457.87 -0.810443 -1.41194 0
M  V30 14822 O 1459.06 -1.08887 -1.41442 0
M  V30 14823 C 1456.16 -2.14433 -2.62434 0
M  V30 14824 C 1455.34 -3.45618 -2.6808 0
M  V30 14825 C 1454.39 -3.57165 -3.86419 0
M  V30 14826 O 1453.42 -4.29904 -3.73056 0
M  V30 14827 N 1454.62 -2.90993 -5.02298 0
M  V30 14828 H 1457.39 -2.84133 -0.953328 0
M  V30 14829 H 1454.95 -1.57498 -0.374955 0
M  V30 14830 H 1456.94 -2.19437 -3.40044 0
M  V30 14831 H 1455.51 -1.28629 -2.84909 0
M  V30 14832 H 1454.73 -3.52394 -1.76669 0
M  V30 14833 H 1456.02 -4.31968 -2.68851 0
M  V30 14834 H 1455.42 -2.31743 -5.16054 0
M  V30 14835 H 1453.97 -3.01611 -5.77819 0
M  V30 14836 N 1457.41 0.45317 -1.50944 0
M  V30 14837 C 1458.63 1.22672 -1.66611 0
M  V30 14838 C 1459.05 1.85398 -0.356814 0
M  V30 14839 O 1458.41 1.70026 0.663122 0
M  V30 14840 C 1458.46 2.32238 -2.77034 0
M  V30 14841 O 1458.18 1.72081 -4.02889 0
M  V30 14842 C 1459.68 3.22802 -3.03832 0
M  V30 14843 H 1456.9 0.370337 -0.559546 0
M  V30 14844 H 1459.44 0.538884 -1.97272 0
M  V30 14845 H 1457.6 2.96765 -2.49017 0
M  V30 14846 H 1458.01 2.4437 -4.64095 0
M  V30 14847 H 1459.49 3.95851 -3.84716 0
M  V30 14848 H 1459.96 3.82636 -2.15608 0
M  V30 14849 H 1460.57 2.63993 -3.33449 0
M  V30 14850 N 1458.88 1.40823 0.707568 0
M  V30 14851 C 1460.3 1.23029 1.01666 0
M  V30 14852 C 1460.5 0.111152 2.01193 0
M  V30 14853 O 1459.56 -0.52836 2.4691 0
M  V30 14854 C 1460.87 2.57509 1.55272 0
M  V30 14855 C 1462.42 2.6459 1.67216 0
M  V30 14856 C 1462.89 3.99357 2.24227 0
M  V30 14857 N 1464.38 4.01141 2.31603 0
M  V30 14858 C 1465.12 5.02211 2.76715 0
M  V30 14859 N 1464.61 6.13674 3.21521 0
M  V30 14860 N 1466.41 4.89577 2.76172 0
M  V30 14861 H 1458.56 2.12346 0.0480107 0
M  V30 14862 H 1460.82 0.944281 0.0838885 0
M  V30 14863 H 1460.53 3.40095 0.896012 0
M  V30 14864 H 1460.4 2.79158 2.53674 0
M  V30 14865 H 1462.79 1.8237 2.32002 0
M  V30 14866 H 1462.87 2.46763 0.673927 0
M  V30 14867 H 1462.51 4.8202 1.6006 0
M  V30 14868 H 1462.44 4.14518 3.2478 0
M  V30 14869 H 1464.93 3.20657 1.99968 0
M  V30 14870 H 1465.25 6.86677 3.54534 0
M  V30 14871 H 1463.59 6.17228 3.1946 0
M  V30 14872 H 1466.78 4.01588 2.40509 0
M  V30 14873 H 1466.96 5.68485 3.11012 0
M  V30 14874 N 1460.36 -0.94061 1.26453 0
M  V30 14875 C 1461.29 -2.05667 1.10559 0
M  V30 14876 C 1462.27 -1.70097 0.0106258 0
M  V30 14877 O 1463.46 -1.93338 0.182756 0
M  V30 14878 C 1460.59 -3.3936 0.7384 0
M  V30 14879 C 1459.54 -3.88993 1.78517 0
M  V30 14880 C 1458.87 -5.19343 1.27228 0
M  V30 14881 C 1460.17 -4.13812 3.1868 0
M  V30 14882 H 1461.86 -2.19221 2.03918 0
M  V30 14883 H 1459.41 -1.05339 0.98182 0
M  V30 14884 H 1461.36 -4.16902 0.61409 0
M  V30 14885 H 1460.09 -3.25783 -0.230887 0
M  V30 14886 H 1458.74 -3.13633 1.89816 0
M  V30 14887 H 1458.39 -5.02147 0.292816 0
M  V30 14888 H 1458.09 -5.53521 1.97201 0
M  V30 14889 H 1459.62 -5.99468 1.16065 0
M  V30 14890 H 1461.03 -4.81966 3.10455 0
M  V30 14891 H 1459.43 -4.59273 3.86249 0
M  V30 14892 H 1460.5 -3.19571 3.64695 0
M  V30 14893 N 1461.84 -1.08266 -1.14527 0
M  V30 14894 C 1462.79 -0.711332 -2.19565 0
M  V30 14895 C 1463.76 0.301774 -1.63336 0
M  V30 14896 O 1464.94 0.186109 -1.8989 0
M  V30 14897 C 1462.08 -0.125255 -3.44873 0
M  V30 14898 C 1461.2 -1.19096 -4.15259 0
M  V30 14899 C 1460.33 -0.568901 -5.28145 0
M  V30 14900 C 1459.37 -1.61675 -5.90362 0
M  V30 14901 N 1458.51 -1.01659 -6.94701 0
M  V30 14902 H 1463.35 -1.61137 -2.50677 0
M  V30 14903 H 1460.88 -0.805286 -1.231 0
M  V30 14904 H 1462.84 0.232247 -4.16553 0
M  V30 14905 H 1461.47 0.738101 -3.14248 0
M  V30 14906 H 1460.52 -1.66591 -3.41982 0
M  V30 14907 H 1461.84 -1.98508 -4.57598 0
M  V30 14908 H 1460.99 -0.159563 -6.0649 0
M  V30 14909 H 1459.73 0.256884 -4.87023 0
M  V30 14910 H 1458.73 -2.03576 -5.10722 0
M  V30 14911 H 1459.96 -2.44498 -6.33559 0
M  V30 14912 H 1457.9 -0.211872 -6.55658 0
M  V30 14913 H 1457.82 -1.74781 -7.35518 0
M  V30 14914 H 1459.09 -0.63306 -7.76925 0
M  V30 14915 N 1463.32 1.31536 -0.86811 0
M  V30 14916 C 1464.23 2.32326 -0.32588 0
M  V30 14917 C 1465.25 1.64632 0.563243 0
M  V30 14918 O 1466.42 1.96067 0.460403 0
M  V30 14919 C 1463.49 3.43562 0.46539 0
M  V30 14920 C 1462.55 4.26919 -0.451472 0
M  V30 14921 C 1461.78 5.32844 0.302129 0
M  V30 14922 O 1462 5.49485 1.53045 0
M  V30 14923 O 1460.94 6.00944 -0.339048 0
M  V30 14924 H 1464.76 2.80622 -1.16126 0
M  V30 14925 H 1462.35 1.35401 -0.631428 0
M  V30 14926 H 1464.23 4.11368 0.914028 0
M  V30 14927 H 1462.91 2.97432 1.27734 0
M  V30 14928 H 1461.81 3.61874 -0.948571 0
M  V30 14929 H 1463.15 4.7661 -1.22897 0
M  V30 14930 N 1464.8 0.627364 1.44575 0
M  V30 14931 C 1465.73 -0.066735 2.33405 0
M  V30 14932 C 1466.71 -0.838666 1.47988 0
M  V30 14933 O 1467.89 -0.805296 1.76716 0
M  V30 14934 C 1465.02 -1.05148 3.31 0
M  V30 14935 C 1463.98 -0.391433 4.26206 0
M  V30 14936 C 1463.3 -1.48581 5.13642 0
M  V30 14937 C 1464.6 0.699942 5.17589 0
M  V30 14938 H 1466.3 0.675029 2.91691 0
M  V30 14939 H 1463.84 0.326066 1.4026 0
M  V30 14940 H 1465.8 -1.54576 3.92026 0
M  V30 14941 H 1464.52 -1.82408 2.70915 0
M  V30 14942 H 1463.18 0.0821694 3.66508 0
M  V30 14943 H 1462.83 -2.2492 4.49911 0
M  V30 14944 H 1462.53 -1.04957 5.7815 0
M  V30 14945 H 1464.05 -1.98198 5.77538 0
M  V30 14946 H 1465.47 0.288911 5.72572 0
M  V30 14947 H 1463.86 1.0591 5.9068 0
M  V30 14948 H 1464.93 1.5686 4.58828 0
M  V30 14949 N 1466.28 -1.53251 0.367684 0
M  V30 14950 C 1467.19 -2.29518 -0.485669 0
M  V30 14951 C 1468.2 -1.35568 -1.09075 0
M  V30 14952 O 1469.38 -1.68626 -1.10124 0
M  V30 14953 C 1466.44 -3.07115 -1.60876 0
M  V30 14954 C 1465.5 -4.16736 -1.031 0
M  V30 14955 C 1464.74 -4.90624 -2.10056 0
M  V30 14956 O 1464.96 -4.64393 -3.31203 0
M  V30 14957 O 1463.89 -5.76503 -1.72996 0
M  V30 14958 H 1467.72 -3.034 0.135017 0
M  V30 14959 H 1465.3 -1.48816 0.132005 0
M  V30 14960 H 1467.19 -3.55564 -2.26168 0
M  V30 14961 H 1465.86 -2.36068 -2.21481 0
M  V30 14962 H 1464.77 -3.72534 -0.341928 0
M  V30 14963 H 1466.1 -4.89956 -0.469473 0
M  V30 14964 N 1467.75 -0.0969077 -1.57302 0
M  V30 14965 C 1468.98 0.578086 -1.99181 0
M  V30 14966 C 1469.4 1.60818 -0.975667 0
M  V30 14967 O 1468.76 1.81215 0.0556054 0
M  V30 14968 C 1468.81 1.20076 -3.40021 0
M  V30 14969 O 1467.91 2.31656 -3.41188 0
M  V30 14970 H 1467.25 0.146506 -0.647636 0
M  V30 14971 H 1469.78 -0.178855 -2.03817 0
M  V30 14972 H 1469.79 1.54162 -3.77754 0
M  V30 14973 H 1468.47 0.446114 -4.135 0
M  V30 14974 H 1467.05 1.99175 -3.15252 0
M  V30 14975 N 1469.23 1.56605 0.176793 0
M  V30 14976 C 1470.16 1.9254 1.24342 0
M  V30 14977 C 1471.18 0.81792 1.40762 0
M  V30 14978 O 1472.37 1.09636 1.40862 0
M  V30 14979 C 1469.47 2.15822 2.61293 0
M  V30 14980 C 1468.64 3.47035 2.66243 0
M  V30 14981 C 1467.7 3.5921 3.84519 0
M  V30 14982 O 1466.72 4.31876 3.70771 0
M  V30 14983 N 1467.93 2.93653 5.00748 0
M  V30 14984 H 1470.69 2.84635 0.938246 0
M  V30 14985 H 1468.25 1.57695 0.366597 0
M  V30 14986 H 1470.24 2.21237 3.38875 0
M  V30 14987 H 1468.81 1.30138 2.84223 0
M  V30 14988 H 1468.03 3.53326 1.74798 0
M  V30 14989 H 1469.32 4.33388 2.66557 0
M  V30 14990 H 1468.72 2.34476 5.14818 0
M  V30 14991 H 1467.28 3.04671 5.76211 0
M  V30 14992 N 1470.71 -0.445159 1.51182 0
M  V30 14993 C 1471.96 -1.19701 1.63705 0
M  V30 14994 C 1472.29 -1.91047 0.348511 0
M  V30 14995 O 1471.56 -1.83264 -0.651497 0
M  V30 14996 C 1471.85 -2.22021 2.83511 0
M  V30 14997 C 1471.7 -1.54809 4.2232 0
M  V30 14998 C 1473.02 -3.23083 2.9884 0
M  V30 14999 H 1470.14 -0.433818 0.595795 0
M  V30 15000 H 1472.78 -0.487276 1.83645 0
M  V30 15001 H 1470.93 -2.82551 2.66641 0
M  V30 15002 H 1472.6 -0.976774 4.5084 0
M  V30 15003 H 1470.84 -0.850596 4.25379 0
M  V30 15004 H 1471.52 -2.29289 5.02126 0
M  V30 15005 H 1473.99 -2.72601 3.14369 0
M  V30 15006 H 1472.87 -3.91978 3.84246 0
M  V30 15007 H 1473.13 -3.88732 2.1057 0
M  V30 15008 N 1472.19 -1.41197 -0.700089 0
M  V30 15009 C 1473.41 -1.43856 -1.494 0
M  V30 15010 C 1473.84 -0.0441877 -1.88048 0
M  V30 15011 O 1473.2 0.951503 -1.54325 0
M  V30 15012 C 1473.24 -2.34913 -2.73584 0
M  V30 15013 O 1472.35 -1.80305 -3.70896 0
M  V30 15014 H 1471.69 -0.488412 -0.449833 0
M  V30 15015 H 1474.22 -1.85606 -0.860911 0
M  V30 15016 H 1474.23 -2.50633 -3.21943 0
M  V30 15017 H 1472.9 -3.36229 -2.44791 0
M  V30 15018 H 1471.48 -1.74012 -3.29809 0
M  V30 15019 N 1473.67 0.933891 -1.2695 0
M  V30 15020 C 1474.91 1.67759 -1.12701 0
M  V30 15021 C 1475.23 1.92207 0.328848 0
M  V30 15022 O 1474.5 1.52394 1.23097 0
M  V30 15023 H 1473.08 0.621729 -0.41408 0
M  V30 15024 H 1475.75 1.1217 -1.59386 0
M  V30 15025 H 1474.84 2.64834 -1.65135 0
M  V30 15026 N 1475.14 1.08871 1.13951 0
M  V30 15027 C 1476.07 0.744715 2.21306 0
M  V30 15028 C 1477.05 -0.275019 1.67862 0
M  V30 15029 O 1478.24 -0.144339 1.93663 0
M  V30 15030 C 1475.37 0.158336 3.46939 0
M  V30 15031 C 1474.32 1.10695 4.13438 0
M  V30 15032 C 1473.65 0.382552 5.3333 0
M  V30 15033 C 1474.95 2.44704 4.61429 0
M  V30 15034 H 1476.64 1.6423 2.50337 0
M  V30 15035 H 1474.19 0.791088 1.20324 0
M  V30 15036 H 1476.14 -0.0943587 4.21294 0
M  V30 15037 H 1474.87 -0.774413 3.17286 0
M  V30 15038 H 1473.53 1.34482 3.41043 0
M  V30 15039 H 1473.17 -0.554153 4.99938 0
M  V30 15040 H 1472.87 1.01499 5.78767 0
M  V30 15041 H 1474.4 0.138023 6.10444 0
M  V30 15042 H 1475.81 2.25156 5.27236 0
M  V30 15043 H 1474.21 3.03684 5.17586 0
M  V30 15044 H 1475.28 3.05883 3.76249 0
M  V30 15045 N 1476.62 -1.31073 0.875073 0
M  V30 15046 C 1477.53 -2.3215 0.338196 0
M  V30 15047 C 1478.55 -1.64928 -0.554504 0
M  V30 15048 O 1479.72 -1.96308 -0.449998 0
M  V30 15049 C 1476.79 -3.43804 -0.447163 0
M  V30 15050 C 1475.85 -4.26674 0.474106 0
M  V30 15051 C 1475.08 -5.32997 -0.273867 0
M  V30 15052 O 1475.31 -5.50288 -1.50129 0
M  V30 15053 O 1474.24 -6.00756 0.370913 0
M  V30 15054 H 1478.07 -2.80002 1.17612 0
M  V30 15055 H 1475.65 -1.35064 0.6386 0
M  V30 15056 H 1477.53 -4.11847 -0.892199 0
M  V30 15057 H 1476.21 -2.98105 -1.26155 0
M  V30 15058 H 1475.11 -3.61366 0.967748 0
M  V30 15059 H 1476.45 -4.75952 1.25423 0
M  V30 15060 N 1478.1 -0.635022 -1.4424 0
M  V30 15061 C 1479.05 0.0675707 -2.30701 0
M  V30 15062 C 1480.02 0.832919 -1.43707 0
M  V30 15063 O 1481.2 0.813177 -1.72604 0
M  V30 15064 C 1478.34 1.04053 -3.2904 0
M  V30 15065 C 1477.46 0.273191 -4.31135 0
M  V30 15066 C 1476.59 1.23831 -5.16565 0
M  V30 15067 C 1475.63 0.460359 -6.10366 0
M  V30 15068 N 1474.77 1.37614 -6.88481 0
M  V30 15069 H 1479.61 -0.675656 -2.90239 0
M  V30 15070 H 1477.14 -0.344971 -1.42998 0
M  V30 15071 H 1479.1 1.61805 -3.84545 0
M  V30 15072 H 1477.73 1.75084 -2.71193 0
M  V30 15073 H 1476.78 -0.420315 -3.78071 0
M  V30 15074 H 1478.1 -0.332548 -4.9769 0
M  V30 15075 H 1477.25 1.88704 -5.76607 0
M  V30 15076 H 1475.99 1.87797 -4.50093 0
M  V30 15077 H 1474.99 -0.201836 -5.49429 0
M  V30 15078 H 1476.22 -0.174639 -6.78875 0
M  V30 15079 H 1474.16 2.00294 -6.24675 0
M  V30 15080 H 1474.08 0.82452 -7.5149 0
M  V30 15081 H 1475.35 2.01359 -7.53044 0
M  V30 15082 N 1479.58 1.53054 -0.375806 0
M  V30 15083 C 1480.49 2.29772 0.47349 0
M  V30 15084 C 1481.5 1.36144 1.08355 0
M  V30 15085 O 1482.68 1.69208 1.09228 0
M  V30 15086 C 1479.75 3.07964 1.59245 0
M  V30 15087 C 1478.81 4.17277 1.00888 0
M  V30 15088 C 1478.04 4.91731 2.07451 0
M  V30 15089 O 1478.26 4.66143 3.28736 0
M  V30 15090 O 1477.2 5.77413 1.69936 0
M  V30 15091 H 1481.02 3.03324 -0.151105 0
M  V30 15092 H 1478.61 1.48744 -0.139895 0
M  V30 15093 H 1480.49 3.56759 2.24279 0
M  V30 15094 H 1479.16 2.37239 2.20226 0
M  V30 15095 H 1478.07 3.7271 0.322167 0
M  V30 15096 H 1479.4 4.90198 0.443483 0
M  V30 15097 N 1481.06 0.105248 1.57248 0
M  V30 15098 C 1482.02 -0.835589 2.13426 0
M  V30 15099 C 1483.02 -1.20398 1.06587 0
M  V30 15100 O 1484.21 -1.13175 1.32428 0
M  V30 15101 C 1481.34 -2.12806 2.6632 0
M  V30 15102 H 1482.53 -0.347606 2.97879 0
M  V30 15103 H 1480.09 -0.143855 1.55637 0
M  V30 15104 H 1480.82 -2.66066 1.85416 0
M  V30 15105 H 1480.61 -1.87352 3.44444 0
M  V30 15106 H 1482.1 -2.80089 3.09741 0
M  V30 15107 N 1482.53 -1.56697 -0.168486 0
M  V30 15108 C 1483.78 -1.81346 -0.882973 0
M  V30 15109 C 1484.1 -0.682975 -1.83289 0
M  V30 15110 O 1485.3 -0.814479 -2.58995 0
M  V30 15111 C 1483.76 -3.21345 -1.62066 0
M  V30 15112 C 1483.37 -4.4227 -0.714241 0
M  V30 15113 C 1485.11 -3.55285 -2.32321 0
M  V30 15114 C 1483.02 -5.7329 -1.45233 0
M  V30 15115 H 1481.95 -0.676254 -0.333461 0
M  V30 15116 H 1484.6 -1.82996 -0.135871 0
M  V30 15117 H 1482.98 -3.1402 -2.41262 0
M  V30 15118 H 1484.15 -4.60782 0.0409556 0
M  V30 15119 H 1482.47 -4.16224 -0.121205 0
M  V30 15120 H 1485.07 -4.50421 -2.88141 0
M  V30 15121 H 1485.41 -2.80301 -3.07793 0
M  V30 15122 H 1485.94 -3.64176 -1.60066 0
M  V30 15123 H 1482.68 -6.51311 -0.739869 0
M  V30 15124 H 1482.2 -5.58751 -2.18077 0
M  V30 15125 H 1483.88 -6.15343 -1.99905 0
M  V30 15126 N 1484.01 0.437135 -1.51416 0
M  V30 15127 C 1484.92 1.55581 -1.75589 0
M  V30 15128 C 1485.94 1.61797 -0.640132 0
M  V30 15129 O 1487.11 1.79035 -0.922406 0
M  V30 15130 C 1484.18 2.91561 -1.87598 0
M  V30 15131 C 1483.24 2.9546 -3.11451 0
M  V30 15132 C 1482.47 4.24954 -3.22878 0
M  V30 15133 O 1482.7 5.17341 -2.40238 0
M  V30 15134 O 1481.63 4.35141 -4.15856 0
M  V30 15135 H 1485.46 1.38098 -2.70486 0
M  V30 15136 H 1483.04 0.620163 -1.3592 0
M  V30 15137 H 1484.92 3.72262 -1.97481 0
M  V30 15138 H 1483.6 3.09171 -0.958889 0
M  V30 15139 H 1482.51 2.13713 -3.07046 0
M  V30 15140 H 1483.84 2.82794 -4.0285 0
M  V30 15141 N 1485.49 1.41566 0.692592 0
M  V30 15142 C 1486.42 1.46423 1.81886 0
M  V30 15143 C 1487.4 0.32258 1.67013 0
M  V30 15144 O 1488.59 0.534437 1.86701 0
M  V30 15145 C 1485.72 1.3486 3.20047 0
M  V30 15146 C 1484.67 2.46867 3.49629 0
M  V30 15147 C 1484 2.20369 4.87177 0
M  V30 15148 C 1485.3 3.89205 3.48306 0
M  V30 15149 H 1486.99 2.40683 1.78079 0
M  V30 15150 H 1484.54 1.15845 0.855334 0
M  V30 15151 H 1486.49 1.36869 3.98553 0
M  V30 15152 H 1485.21 0.370859 3.24488 0
M  V30 15153 H 1483.87 2.44146 2.73475 0
M  V30 15154 H 1483.52 1.20931 4.88247 0
M  V30 15155 H 1483.22 2.95426 5.07934 0
M  V30 15156 H 1484.74 2.24099 5.6799 0
M  V30 15157 H 1486.16 3.93626 4.16811 0
M  V30 15158 H 1484.56 4.63969 3.80595 0
M  V30 15159 H 1485.63 4.17144 2.47222 0
M  V30 15160 N 1486.97 -0.927146 1.27443 0
M  V30 15161 C 1488.38 -1.20319 1.0486 0
M  V30 15162 C 1488.58 -2.00323 -0.217491 0
M  V30 15163 O 1487.64 -2.35032 -0.922833 0
M  V30 15164 C 1488.95 -1.9508 2.28833 0
M  V30 15165 C 1490.5 -2.08016 2.33877 0
M  V30 15166 C 1490.98 -2.86183 3.5758 0
M  V30 15167 N 1492.47 -2.93751 3.58141 0
M  V30 15168 C 1493.2 -3.54698 4.5053 0
M  V30 15169 N 1492.7 -4.17032 5.53223 0
M  V30 15170 N 1494.49 -3.52107 4.38152 0
M  V30 15171 H 1486.64 -0.392671 2.08739 0
M  V30 15172 H 1488.91 -0.236323 0.918072 0
M  V30 15173 H 1488.61 -1.43712 3.20998 0
M  V30 15174 H 1488.49 -2.95692 2.34193 0
M  V30 15175 H 1490.87 -2.5857 1.42217 0
M  V30 15176 H 1490.95 -1.06622 2.3252 0
M  V30 15177 H 1490.6 -2.36312 4.49576 0
M  V30 15178 H 1490.53 -3.87863 3.56188 0
M  V30 15179 H 1493.02 -2.49449 2.83872 0
M  V30 15180 H 1493.33 -4.61477 6.19886 0
M  V30 15181 H 1491.68 -4.15576 5.57065 0
M  V30 15182 H 1494.87 -3.02611 3.57134 0
M  V30 15183 H 1495.04 -3.99315 5.10344 0
M  V30 15184 N 1488.45 -1.09474 -1.13372 0
M  V30 15185 C 1489.36 -0.746674 -2.224 0
M  V30 15186 C 1490.37 0.251572 -1.72172 0
M  V30 15187 O 1491.55 0.092793 -2.01186 0
M  V30 15188 C 1488.61 -0.172965 -3.46268 0
M  V30 15189 C 1487.67 -1.22722 -4.11385 0
M  V30 15190 C 1486.91 -0.680794 -5.2934 0
M  V30 15191 O 1487.13 0.496135 -5.68238 0
M  V30 15192 O 1486.06 -1.43605 -5.84518 0
M  V30 15193 H 1489.89 -1.65649 -2.54547 0
M  V30 15194 H 1487.48 -0.869172 -1.21514 0
M  V30 15195 H 1489.36 0.143629 -4.21155 0
M  V30 15196 H 1488.03 0.709853 -3.15821 0
M  V30 15197 H 1486.94 -1.59652 -3.38323 0
M  V30 15198 H 1488.27 -2.0827 -4.45965 0
M  V30 15199 N 1489.92 1.30607 -0.882012 0
M  V30 15200 C 1490.89 2.26489 -0.351498 0
M  V30 15201 C 1491.89 1.52686 0.504348 0
M  V30 15202 O 1493.08 1.71385 0.311928 0
M  V30 15203 C 1490.21 3.37222 0.499435 0
M  V30 15204 H 1491.4 2.74929 -1.19809 0
M  V30 15205 H 1488.96 1.41746 -0.658616 0
M  V30 15206 H 1489.69 2.94093 1.36673 0
M  V30 15207 H 1489.48 3.91936 -0.11356 0
M  V30 15208 H 1490.97 4.08596 0.862497 0
M  V30 15209 N 1491.4 0.642663 1.43901 0
M  V30 15210 C 1492.65 0.152003 2.0223 0
M  V30 15211 C 1492.98 -1.22711 1.50518 0
M  V30 15212 O 1492.26 -1.817 0.693937 0
M  V30 15213 C 1492.54 0.151278 3.59782 0
M  V30 15214 C 1492.39 1.56356 4.2175 0
M  V30 15215 C 1493.71 -0.518016 4.37041 0
M  V30 15216 H 1490.83 0.0567094 0.734815 0
M  V30 15217 H 1493.47 0.821337 1.7133 0
M  V30 15218 H 1491.62 -0.418679 3.86237 0
M  V30 15219 H 1493.29 2.18329 4.06362 0
M  V30 15220 H 1491.54 2.11401 3.78803 0
M  V30 15221 H 1492.21 1.51499 5.30803 0
M  V30 15222 H 1494.68 -0.0331947 4.16087 0
M  V30 15223 H 1493.56 -0.487754 5.46729 0
M  V30 15224 H 1493.82 -1.59036 4.12504 0
M  V30 15225 N 1492.88 -1.52852 0.383918 0
M  V30 15226 C 1493.79 -2.3002 -0.461298 0
M  V30 15227 C 1494.81 -1.36717 -1.07631 0
M  V30 15228 O 1495.98 -1.69784 -1.08329 0
M  V30 15229 C 1493.05 -3.08804 -1.57609 0
M  V30 15230 C 1492.11 -4.17806 -0.986737 0
M  V30 15231 C 1491.34 -4.92825 -2.04841 0
M  V30 15232 O 1491.57 -4.67879 -3.26259 0
M  V30 15233 O 1490.5 -5.78306 -1.66871 0
M  V30 15234 H 1494.33 -3.03239 0.167189 0
M  V30 15235 H 1491.91 -1.48667 0.147781 0
M  V30 15236 H 1493.79 -3.57943 -2.22384 0
M  V30 15237 H 1492.47 -2.38404 -2.18964 0
M  V30 15238 H 1491.37 -3.72876 -0.302396 0
M  V30 15239 H 1492.71 -4.90426 -0.417481 0
M  V30 15240 N 1494.36 -0.113586 -1.5719 0
M  V30 15241 C 1495.29 0.868985 -2.12088 0
M  V30 15242 C 1496.3 1.23362 -1.06233 0
M  V30 15243 O 1497.49 1.18352 -1.33623 0
M  V30 15244 C 1494.59 2.17252 -2.60106 0
M  V30 15245 C 1493.77 1.9804 -3.89999 0
M  V30 15246 C 1492.83 3.12073 -4.23671 0
M  V30 15247 O 1491.85 2.85224 -4.92581 0
M  V30 15248 N 1493.05 4.38358 -3.80556 0
M  V30 15249 H 1495.82 0.399996 -2.97019 0
M  V30 15250 H 1493.38 0.0709947 -1.61744 0
M  V30 15251 H 1495.37 2.92523 -2.79665 0
M  V30 15252 H 1493.94 2.55516 -1.80084 0
M  V30 15253 H 1493.16 1.06993 -3.79402 0
M  V30 15254 H 1494.45 1.82502 -4.74943 0
M  V30 15255 H 1493.85 4.63048 -3.24966 0
M  V30 15256 H 1492.4 5.10518 -4.05234 0
M  V30 15257 N 1495.84 1.56784 0.160173 0
M  V30 15258 C 1496.77 1.93848 1.22293 0
M  V30 15259 C 1497.78 0.832803 1.39886 0
M  V30 15260 O 1498.97 1.11124 1.39692 0
M  V30 15261 C 1496.07 2.18581 2.58989 0
M  V30 15262 C 1495.24 3.49839 2.62548 0
M  V30 15263 C 1494.3 3.63268 3.80687 0
M  V30 15264 O 1493.33 4.35785 3.6617 0
M  V30 15265 N 1494.53 2.98948 4.97605 0
M  V30 15266 H 1497.3 2.85614 0.908004 0
M  V30 15267 H 1494.86 1.58075 0.349851 0
M  V30 15268 H 1496.85 2.24819 3.36509 0
M  V30 15269 H 1495.42 1.33145 2.82827 0
M  V30 15270 H 1494.64 3.5516 1.7104 0
M  V30 15271 H 1495.93 4.3619 2.61945 0
M  V30 15272 H 1495.33 2.39924 5.12302 0
M  V30 15273 H 1493.88 3.10765 5.72947 0
M  V30 15274 N 1497.32 -0.429099 1.51646 0
M  V30 15275 C 1498.26 -1.52143 1.73554 0
M  V30 15276 C 1499.23 -1.55741 0.577416 0
M  V30 15277 O 1500.42 -1.72623 0.812768 0
M  V30 15278 C 1497.56 -2.89785 1.874 0
M  V30 15279 C 1496.67 -2.95652 3.14982 0
M  V30 15280 C 1495.81 -4.24468 3.19375 0
M  V30 15281 C 1494.84 -4.24234 4.41239 0
M  V30 15282 N 1493.98 -5.44587 4.43135 0
M  V30 15283 H 1498.82 -1.32764 2.66791 0
M  V30 15284 H 1496.36 -0.6448 1.32215 0
M  V30 15285 H 1498.32 -3.6966 1.9341 0
M  V30 15286 H 1496.95 -3.07703 0.975638 0
M  V30 15287 H 1496 -2.0839 3.18242 0
M  V30 15288 H 1497.31 -2.91342 4.04872 0
M  V30 15289 H 1496.46 -5.12722 3.24347 0
M  V30 15290 H 1495.2 -4.31446 2.27389 0
M  V30 15291 H 1494.21 -3.34371 4.36435 0
M  V30 15292 H 1495.43 -4.18913 5.34499 0
M  V30 15293 H 1493.38 -5.52271 3.54023 0
M  V30 15294 H 1493.3 -5.42191 5.26845 0
M  V30 15295 H 1494.56 -6.34851 4.5231 0
M  V30 15296 N 1498.79 -1.41931 -0.685074 0
M  V30 15297 C 1500.04 -1.42062 -1.44728 0
M  V30 15298 C 1500.37 -0.0332072 -1.94172 0
M  V30 15299 O 1499.65 0.940835 -1.70231 0
M  V30 15300 C 1499.93 -2.43634 -2.65168 0
M  V30 15301 C 1499.78 -3.91525 -2.21423 0
M  V30 15302 C 1501.1 -2.42325 -3.67378 0
M  V30 15303 H 1498.22 -0.517321 -0.524927 0
M  V30 15304 H 1500.86 -1.73277 -0.779419 0
M  V30 15305 H 1499.01 -2.17146 -3.22149 0
M  V30 15306 H 1500.69 -4.28956 -1.69689 0
M  V30 15307 H 1498.93 -4.05886 -1.53099 0
M  V30 15308 H 1499.6 -4.58158 -3.07889 0
M  V30 15309 H 1502.08 -2.65857 -3.20093 0
M  V30 15310 H 1500.95 -3.15391 -4.49243 0
M  V30 15311 H 1501.21 -1.44555 -4.17799 0
M  V30 15312 N 1500.27 0.920374 -1.27933 0
M  V30 15313 C 1501.22 2.02196 -1.1129 0
M  V30 15314 C 1502.19 1.66096 -0.0118871 0
M  V30 15315 O 1503.37 1.8999 -0.175586 0
M  V30 15316 C 1500.51 3.36312 -0.77383 0
M  V30 15317 C 1499.63 3.85322 -1.95322 0
M  V30 15318 C 1498.76 5.07919 -1.55537 0
M  V30 15319 C 1497.8 5.49244 -2.7018 0
M  V30 15320 N 1496.94 6.63034 -2.30933 0
M  V30 15321 H 1501.78 2.15764 -2.05548 0
M  V30 15322 H 1499.31 1.05691 -1.02312 0
M  V30 15323 H 1501.27 4.13451 -0.558024 0
M  V30 15324 H 1499.9 3.22531 0.131806 0
M  V30 15325 H 1498.95 3.04399 -2.28135 0
M  V30 15326 H 1500.27 4.11915 -2.81296 0
M  V30 15327 H 1499.42 5.92581 -1.30123 0
M  V30 15328 H 1498.16 4.8312 -0.666818 0
M  V30 15329 H 1497.16 4.63127 -2.96299 0
M  V30 15330 H 1498.39 5.76035 -3.59667 0
M  V30 15331 H 1496.34 6.39878 -1.44539 0
M  V30 15332 H 1496.25 6.89319 -3.10444 0
M  V30 15333 H 1497.52 7.51018 -2.08786 0
M  V30 15334 N 1501.75 1.10074 1.1279 0
M  V30 15335 C 1502.7 0.740977 2.20482 0
M  V30 15336 C 1503.69 -0.261163 1.67375 0
M  V30 15337 O 1504.9 -0.121923 1.79587 0
M  V30 15338 H 1501.27 0.221666 0.718588 0
M  V30 15339 H 1503.24 1.65823 2.48083 0
M  V30 15340 C 1501.99 0.184934 3.47208 0
M  V30 15341 H 1501.32 0.947278 3.88416 0
M  V30 15342 H 1502.76 -0.0287769 4.2399 0
M  V30 15343 C 1501.21 -1.08145 3.19071 0
M  V30 15344 O 1501.74 -2.1636 3.38454 0
M  V30 15345 N 1499.95 -0.998609 2.72903 0
M  V30 15346 H 1499.5 -0.117906 2.5733 0
M  V30 15347 H 1499.46 -1.84664 2.54453 0
M  V30 15348 N 1503.23 -1.30138 0.888926 0
M  V30 15349 C 1504.18 -2.29979 0.348212 0
M  V30 15350 C 1505.17 -1.60329 -0.546894 0
M  V30 15351 O 1506.38 -1.74767 -0.43089 0
M  V30 15352 H 1502.75 -0.746107 0.0939563 0
M  V30 15353 H 1504.72 -2.73038 1.20385 0
M  V30 15354 C 1503.47 -3.45169 -0.418762 0
M  V30 15355 H 1502.79 -3.98949 0.260761 0
M  V30 15356 H 1504.23 -4.17094 -0.762133 0
M  V30 15357 C 1502.69 -2.95539 -1.61734 0
M  V30 15358 O 1503.22 -2.95902 -2.7167 0
M  V30 15359 N 1501.43 -2.51502 -1.45585 0
M  V30 15360 H 1500.98 -2.51406 -0.561483 0
M  V30 15361 H 1500.93 -2.18654 -2.25916 0
M  V30 15362 N 1504.71 -0.650285 -1.43559 0
M  V30 15363 C 1505.98 -0.0925343 -1.95381 0
M  V30 15364 C 1506.36 1.38668 -1.59168 0
M  V30 15365 O 1505.71 2.11069 -0.875324 0
M  V30 15366 C 1505.92 -0.335657 -3.47382 0
M  V30 15367 C 1507.27 -0.239032 -4.23927 0
M  V30 15368 O 1508.29 -0.268056 -3.5519 0
M  V30 15369 O 1507.15 -0.160241 -5.46265 0
M  V30 15370 H 1504.25 0.0113084 -0.826923 0
M  V30 15371 H 1506.79 -0.723319 -1.53513 0
M  V30 15372 H 1505.56 -1.36132 -3.66857 0
M  V30 15373 H 1505.19 0.328339 -3.96242 0
M  V30 15374 N 1506.18 1.52647 -0.392018 0
M  V30 15375 C 1507.11 2.29446 0.433228 0
M  V30 15376 C 1508.09 1.32945 1.06111 0
M  V30 15377 O 1509.28 1.61841 1.07337 0
M  V30 15378 C 1506.41 3.10328 1.55929 0
M  V30 15379 C 1505.36 4.14735 1.05731 0
M  V30 15380 C 1504.69 4.83858 2.27565 0
M  V30 15381 C 1505.99 5.22154 0.123346 0
M  V30 15382 H 1507.68 2.9868 -0.207563 0
M  V30 15383 H 1505.23 1.43643 -0.101266 0
M  V30 15384 H 1507.18 3.62814 2.14346 0
M  V30 15385 H 1505.91 2.38832 2.22771 0
M  V30 15386 H 1504.57 3.63234 0.495653 0
M  V30 15387 H 1504.21 4.08907 2.92923 0
M  V30 15388 H 1503.91 5.54428 1.94637 0
M  V30 15389 H 1505.44 5.39149 2.86619 0
M  V30 15390 H 1506.85 5.69983 0.615784 0
M  V30 15391 H 1505.25 5.99987 -0.116304 0
M  V30 15392 H 1506.32 4.77796 -0.826969 0
M  V30 15393 N 1507.66 0.121921 1.57128 0
M  V30 15394 C 1509.08 -0.234655 1.57866 0
M  V30 15395 C 1509.28 -1.66506 1.13482 0
M  V30 15396 O 1508.33 -2.38692 0.823544 0
M  V30 15397 C 1509.65 0.00131784 3.007 0
M  V30 15398 C 1511.2 -0.0643537 3.12934 0
M  V30 15399 C 1511.67 0.143964 4.57774 0
M  V30 15400 N 1513.16 0.0900323 4.63112 0
M  V30 15401 C 1513.9 0.22608 5.72954 0
M  V30 15402 N 1513.39 0.418461 6.91535 0
M  V30 15403 N 1515.19 0.165449 5.61856 0
M  V30 15404 H 1507.34 1.05618 1.84279 0
M  V30 15405 H 1509.6 0.416132 0.851785 0
M  V30 15406 H 1509.31 0.99031 3.3747 0
M  V30 15407 H 1509.18 -0.729266 3.70083 0
M  V30 15408 H 1511.57 -1.04387 2.7602 0
M  V30 15409 H 1511.65 0.698157 2.46088 0
M  V30 15410 H 1511.29 1.12047 4.95387 0
M  V30 15411 H 1511.22 -0.638569 5.22714 0
M  V30 15412 H 1513.71 -0.0550269 3.7786 0
M  V30 15413 H 1514.03 0.513057 7.71095 0
M  V30 15414 H 1512.37 0.454471 6.93512 0
M  V30 15415 H 1515.56 0.0160945 4.68097 0
M  V30 15416 H 1515.73 0.274917 6.47417 0
M  V30 15417 N 1509.14 -1.56867 -0.151857 0
M  V30 15418 C 1510.05 -2.01157 -1.20718 0
M  V30 15419 C 1511.07 -0.926166 -1.47303 0
M  V30 15420 O 1512.24 -1.23528 -1.59069 0
M  V30 15421 C 1509.31 -2.37915 -2.52185 0
M  V30 15422 C 1508.37 -3.60381 -2.3329 0
M  V30 15423 C 1507.6 -3.95376 -3.58488 0
M  V30 15424 O 1507.82 -3.31093 -4.64471 0
M  V30 15425 O 1506.76 -4.88645 -3.5144 0
M  V30 15426 H 1510.58 -2.91234 -0.861175 0
M  V30 15427 H 1508.17 -1.44993 -0.360213 0
M  V30 15428 H 1510.05 -2.6244 -3.29702 0
M  V30 15429 H 1508.73 -1.50995 -2.86325 0
M  V30 15430 H 1507.63 -3.4105 -1.5374 0
M  V30 15431 H 1508.97 -4.47903 -2.04067 0
M  V30 15432 N 1510.62 0.421051 -1.51871 0
M  V30 15433 C 1511.57 1.5122 -1.74359 0
M  V30 15434 C 1512.54 1.55432 -0.585667 0
M  V30 15435 O 1513.72 1.7219 -0.821912 0
M  V30 15436 C 1510.86 2.88787 -1.88935 0
M  V30 15437 C 1509.97 2.93977 -3.16546 0
M  V30 15438 C 1509.11 4.22768 -3.21622 0
M  V30 15439 C 1508.15 4.21888 -4.43483 0
M  V30 15440 N 1507.28 5.4223 -4.46017 0
M  V30 15441 H 1512.12 1.31348 -2.67492 0
M  V30 15442 H 1509.66 0.637779 -1.32555 0
M  V30 15443 H 1511.62 3.68629 -1.95368 0
M  V30 15444 H 1510.25 3.07181 -0.991942 0
M  V30 15445 H 1509.3 2.06699 -3.19343 0
M  V30 15446 H 1510.61 2.8919 -4.06412 0
M  V30 15447 H 1509.77 5.10995 -3.27061 0
M  V30 15448 H 1508.51 4.30234 -2.29674 0
M  V30 15449 H 1507.51 3.32052 -4.38202 0
M  V30 15450 H 1508.74 4.16072 -5.36713 0
M  V30 15451 H 1506.68 5.50386 -3.56947 0
M  V30 15452 H 1506.6 5.39389 -5.29713 0
M  V30 15453 H 1507.87 6.32443 -4.55671 0
M  V30 15454 N 1512.1 1.42293 0.677538 0
M  V30 15455 C 1513.04 1.45787 1.81243 0
M  V30 15456 C 1514.04 0.333895 1.66077 0
M  V30 15457 O 1515.24 0.50678 1.72719 0
M  V30 15458 H 1511.62 0.456538 0.597559 0
M  V30 15459 H 1513.59 2.41398 1.75413 0
M  V30 15460 C 1512.34 1.37449 3.19379 0
M  V30 15461 H 1511.66 2.23231 3.31674 0
M  V30 15462 H 1513.1 1.43955 3.98814 0
M  V30 15463 C 1511.56 0.0889433 3.36783 0
M  V30 15464 O 1512.09 -0.859357 3.924 0
M  V30 15465 N 1510.3 0.00698476 2.90599 0
M  V30 15466 H 1509.84 0.779459 2.45524 0
M  V30 15467 H 1509.8 -0.852522 3.02621 0
M  V30 15468 N 1513.57 -0.913576 1.28419 0
M  V30 15469 C 1514.82 -1.66546 1.16765 0
M  V30 15470 C 1515.18 -1.90338 -0.280935 0
M  V30 15471 O 1514.47 -1.49279 -1.2011 0
M  V30 15472 C 1514.66 -3.02722 1.89985 0
M  V30 15473 C 1514.49 -2.9222 3.41815 0
M  V30 15474 C 1513.26 -2.93735 4.11154 0
M  V30 15475 C 1515.46 -2.70279 4.37554 0
M  V30 15476 N 1513.44 -2.73824 5.49448 0
M  V30 15477 C 1514.81 -2.59213 5.63213 0
M  V30 15478 C 1516.87 -2.55278 4.27478 0
M  V30 15479 C 1515.57 -2.34673 6.79942 0
M  V30 15480 C 1517.6 -2.32118 5.43944 0
M  V30 15481 C 1516.96 -2.21806 6.68567 0
M  V30 15482 H 1513.06 -0.615629 0.482208 0
M  V30 15483 H 1515.64 -1.07892 1.62072 0
M  V30 15484 H 1513.81 -3.59462 1.47112 0
M  V30 15485 H 1515.54 -3.66932 1.70714 0
M  V30 15486 H 1512.3 -3.04498 3.62736 0
M  V30 15487 H 1512.72 -2.6696 6.22143 0
M  V30 15488 H 1517.37 -2.62001 3.31836 0
M  V30 15489 H 1515.08 -2.26689 7.75653 0
M  V30 15490 H 1518.67 -2.21375 5.38038 0
M  V30 15491 H 1517.55 -2.0413 7.57166 0
M  V30 15492 N 1515.05 -1.1067 -1.12204 0
M  V30 15493 C 1516 -0.757745 -2.18007 0
M  V30 15494 C 1516.97 0.26706 -1.63939 0
M  V30 15495 O 1518.15 0.145789 -1.90242 0
M  V30 15496 C 1515.29 -0.198379 -3.44529 0
M  V30 15497 C 1514.41 -1.27878 -4.12639 0
M  V30 15498 C 1513.54 -0.6808 -5.26819 0
M  V30 15499 C 1512.58 -1.74161 -5.868 0
M  V30 15500 N 1511.72 -1.16372 -6.92389 0
M  V30 15501 H 1516.56 -1.66418 -2.47202 0
M  V30 15502 H 1514.1 -0.831216 -1.21364 0
M  V30 15503 H 1516.05 0.143838 -4.16952 0
M  V30 15504 H 1514.68 0.671279 -3.15743 0
M  V30 15505 H 1513.74 -1.73808 -3.38371 0
M  V30 15506 H 1515.05 -2.08169 -4.53285 0
M  V30 15507 H 1514.2 -0.288172 -6.06015 0
M  V30 15508 H 1512.94 0.153521 -4.87458 0
M  V30 15509 H 1511.95 -2.14364 -5.06289 0
M  V30 15510 H 1513.17 -2.57882 -6.28231 0
M  V30 15511 H 1511.12 -0.350899 -6.55061 0
M  V30 15512 H 1511.03 -1.90344 -7.31646 0
M  V30 15513 H 1512.3 -0.797715 -7.75407 0
M  V30 15514 N 1516.53 1.29665 -0.895815 0
M  V30 15515 C 1517.49 2.26103 -0.3755 0
M  V30 15516 C 1518.49 1.53212 0.488126 0
M  V30 15517 O 1519.68 1.71706 0.293733 0
M  V30 15518 C 1516.82 3.37732 0.46364 0
M  V30 15519 H 1518.01 2.73643 -1.22718 0
M  V30 15520 H 1515.56 1.4104 -0.673613 0
M  V30 15521 H 1516.3 2.95526 1.33546 0
M  V30 15522 H 1516.08 3.91793 -0.155123 0
M  V30 15523 H 1517.57 4.09488 0.819112 0
M  V30 15524 N 1518.01 0.657889 1.43212 0
M  V30 15525 C 1518.94 -0.0807001 2.28057 0
M  V30 15526 C 1519.92 -0.825321 1.40097 0
M  V30 15527 O 1521.1 -0.823932 1.69539 0
M  V30 15528 C 1518.23 -1.12112 3.19607 0
M  V30 15529 C 1517.28 -0.474017 4.23858 0
M  V30 15530 S 1518.11 0.75589 5.30138 0
M  V30 15531 C 1519.27 -0.28388 6.25256 0
M  V30 15532 H 1519.5 0.639012 2.90351 0
M  V30 15533 H 1517.03 0.446876 1.47792 0
M  V30 15534 H 1518.99 -1.71637 3.72895 0
M  V30 15535 H 1517.65 -1.81318 2.56481 0
M  V30 15536 H 1516.84 -1.25849 4.88035 0
M  V30 15537 H 1516.45 0.0472307 3.7397 0
M  V30 15538 H 1518.74 -1.14869 6.67691 0
M  V30 15539 H 1519.68 0.322986 7.07363 0
M  V30 15540 H 1520.09 -0.621781 5.61065 0
M  V30 15541 N 1519.49 -1.52437 0.400108 0
M  V30 15542 C 1520.4 -2.30496 -0.436875 0
M  V30 15543 C 1521.41 -1.37851 -1.06175 0
M  V30 15544 O 1522.59 -1.70924 -1.06522 0
M  V30 15545 C 1519.65 -3.10459 -1.54325 0
M  V30 15546 C 1518.71 -4.18829 -0.942367 0
M  V30 15547 C 1517.95 -4.94969 -1.99602 0
M  V30 15548 O 1518.17 -4.71314 -3.21278 0
M  V30 15549 O 1517.1 -5.80043 -1.60728 0
M  V30 15550 H 1520.93 -3.03045 0.199343 0
M  V30 15551 H 1518.52 -1.48502 0.163541 0
M  V30 15552 H 1520.4 -3.60282 -2.18575 0
M  V30 15553 H 1519.07 -2.40713 -2.16423 0
M  V30 15554 H 1517.98 -3.73176 -0.262831 0
M  V30 15555 H 1519.31 -4.90841 -0.365441 0
M  V30 15556 N 1520.96 -0.130252 -1.57061 0
M  V30 15557 C 1521.93 0.801529 -2.14728 0
M  V30 15558 C 1522.93 1.18687 -1.08489 0
M  V30 15559 O 1524.12 1.11054 -1.34211 0
M  V30 15560 C 1521.25 2.08542 -2.69672 0
M  V30 15561 H 1522.44 0.300172 -2.98394 0
M  V30 15562 H 1520 0.119077 -1.55846 0
M  V30 15563 H 1520.73 2.63083 -1.89625 0
M  V30 15564 H 1520.52 1.81849 -3.47381 0
M  V30 15565 H 1522.01 2.75126 -3.14158 0
M  V30 15566 N 1522.44 1.56945 0.143535 0
M  V30 15567 C 1523.37 2.0156 1.17881 0
M  V30 15568 C 1524.35 0.895744 1.44604 0
M  V30 15569 O 1525.54 1.16379 1.55466 0
M  V30 15570 C 1522.67 2.39915 2.51114 0
M  V30 15571 C 1521.62 3.55117 2.38905 0
M  V30 15572 C 1520.95 3.79296 3.7688 0
M  V30 15573 C 1522.25 4.87668 1.87021 0
M  V30 15574 H 1523.94 2.88296 0.80783 0
M  V30 15575 H 1521.49 1.38698 0.387149 0
M  V30 15576 H 1523.44 2.69727 3.23767 0
M  V30 15577 H 1522.17 1.5012 2.90055 0
M  V30 15578 H 1520.83 3.25476 1.68703 0
M  V30 15579 H 1520.47 2.86747 4.13262 0
M  V30 15580 H 1520.17 4.56827 3.69571 0
M  V30 15581 H 1521.7 4.11537 4.51076 0
M  V30 15582 H 1523.11 5.16176 2.4947 0
M  V30 15583 H 1521.51 5.69029 1.90594 0
M  V30 15584 H 1522.58 4.77811 0.82611 0
M  V30 15585 N 1523.92 -0.412991 1.52093 0
M  V30 15586 C 1524.88 -1.48555 1.7454 0
M  V30 15587 C 1525.88 -1.48563 0.615283 0
M  V30 15588 O 1527.07 -1.50155 0.883119 0
M  V30 15589 C 1524.21 -2.87984 1.82423 0
M  V30 15590 H 1525.4 -1.29945 2.70285 0
M  V30 15591 H 1522.95 -0.643241 1.4245 0
M  V30 15592 H 1523.69 -3.11969 0.885777 0
M  V30 15593 H 1523.47 -2.89381 2.64577 0
M  V30 15594 H 1524.96 -3.65745 2.01545 0
M  V30 15595 N 1525.4 -1.4265 -0.669982 0
M  V30 15596 C 1526.63 -1.46784 -1.45816 0
M  V30 15597 C 1527.04 -0.080606 -1.88628 0
M  V30 15598 O 1526.4 0.905687 -1.58441 0
M  V30 15599 C 1526.45 -2.39915 -2.70413 0
M  V30 15600 O 1526.17 -3.73241 -2.29396 0
M  V30 15601 C 1527.67 -2.53118 -3.63931 0
M  V30 15602 H 1524.89 -0.499076 -0.448513 0
M  V30 15603 H 1527.44 -1.87216 -0.822819 0
M  V30 15604 H 1525.59 -2.02722 -3.30125 0
M  V30 15605 H 1526.01 -4.23164 -3.09891 0
M  V30 15606 H 1527.48 -3.22395 -4.48069 0
M  V30 15607 H 1527.96 -1.57062 -4.10156 0
M  V30 15608 H 1528.56 -2.91052 -3.10111 0
M  V30 15609 N 1526.88 0.906753 -1.28902 0
M  V30 15610 C 1527.84 1.99158 -1.1344 0
M  V30 15611 C 1528.84 1.60639 -0.0719551 0
M  V30 15612 O 1530.03 1.71267 -0.318317 0
M  V30 15613 C 1527.16 3.32923 -0.733172 0
M  V30 15614 H 1528.36 2.14305 -2.09794 0
M  V30 15615 H 1525.91 1.09034 -1.11988 0
M  V30 15616 H 1526.64 3.23477 0.230826 0
M  V30 15617 H 1526.43 3.62244 -1.50073 0
M  V30 15618 H 1527.92 4.12544 -0.64784 0
M  V30 15619 N 1528.36 1.11264 1.11616 0
M  V30 15620 C 1529.27 0.781961 2.21184 0
M  V30 15621 C 1530.28 -0.224149 1.7255 0
M  V30 15622 O 1531.46 -0.0607743 2.01308 0
M  V30 15623 C 1528.52 0.228031 3.45949 0
M  V30 15624 C 1527.58 1.29251 4.09381 0
M  V30 15625 C 1526.82 0.764921 5.2819 0
M  V30 15626 O 1527.04 -0.405671 5.68956 0
M  V30 15627 O 1525.97 1.52886 5.82159 0
M  V30 15628 H 1529.8 1.69678 2.51879 0
M  V30 15629 H 1527.38 0.888394 1.20116 0
M  V30 15630 H 1529.27 -0.0766085 4.2133 0
M  V30 15631 H 1527.94 -0.659519 3.1691 0
M  V30 15632 H 1526.85 1.65014 3.3574 0
M  V30 15633 H 1528.18 2.15339 4.42595 0
M  V30 15634 N 1529.83 -1.29188 0.902679 0
M  V30 15635 C 1530.77 -2.26665 0.339964 0
M  V30 15636 C 1531.78 -1.54426 -0.515396 0
M  V30 15637 O 1532.97 -1.75384 -0.332071 0
M  V30 15638 C 1530.07 -3.34672 -0.533653 0
M  V30 15639 C 1529.24 -4.36393 0.296661 0
M  V30 15640 C 1528.3 -5.2372 -0.510264 0
M  V30 15641 O 1527.33 -5.69153 0.0732871 0
M  V30 15642 N 1528.53 -5.51373 -1.81572 0
M  V30 15643 H 1531.29 -2.75588 1.17778 0
M  V30 15644 H 1528.85 -1.42553 0.767474 0
M  V30 15645 H 1530.85 -3.90025 -1.07995 0
M  V30 15646 H 1529.42 -2.85543 -1.27216 0
M  V30 15647 H 1528.64 -3.80658 1.02436 0
M  V30 15648 H 1529.92 -5.0139 0.865191 0
M  V30 15649 H 1529.32 -5.16275 -2.31251 0
M  V30 15650 H 1527.88 -6.09528 -2.30908 0
M  V30 15651 N 1531.31 -0.665475 -1.42861 0
M  V30 15652 C 1532.27 0.00932351 -2.29198 0
M  V30 15653 C 1533.27 0.738356 -1.42846 0
M  V30 15654 O 1534.46 0.57776 -1.6434 0
M  V30 15655 C 1531.6 1.02392 -3.25159 0
M  V30 15656 H 1532.79 -0.750481 -2.90358 0
M  V30 15657 H 1530.34 -0.427334 -1.50345 0
M  V30 15658 H 1531.08 1.81254 -2.68919 0
M  V30 15659 H 1530.86 0.504671 -3.88839 0
M  V30 15660 H 1532.35 1.49479 -3.89931 0
M  V30 15661 N 1532.79 1.52222 -0.408187 0
M  V30 15662 C 1534.03 2.03713 0.167444 0
M  V30 15663 C 1534.39 1.28722 1.42459 0
M  V30 15664 O 1535.59 1.70434 2.0786 0
M  V30 15665 C 1533.87 3.55039 0.410146 0
M  V30 15666 S 1535.42 4.28318 0.953358 0
M  V30 15667 H 1532.24 0.709544 0.0454811 0
M  V30 15668 H 1534.84 1.87281 -0.560888 0
M  V30 15669 H 1533.55 4.07199 -0.511618 0
M  V30 15670 H 1533.08 3.75712 1.16638 0
M  V30 15671 H 1535.09 4.43066 2.23399 0
M  V30 15672 N 1534.27 0.138579 1.5699 0
M  V30 15673 C 1535.21 -0.804305 2.16332 0
M  V30 15674 C 1536.18 -1.25002 1.09379 0
M  V30 15675 O 1537.37 -1.32405 1.37381 0
M  V30 15676 C 1534.51 -2.04137 2.78248 0
M  V30 15677 C 1533.62 -1.64223 3.99568 0
M  V30 15678 C 1532.76 -2.83046 4.49509 0
M  V30 15679 C 1531.8 -2.39465 5.63314 0
M  V30 15680 N 1530.93 -3.51267 6.07911 0
M  V30 15681 H 1535.77 -0.29144 2.96571 0
M  V30 15682 H 1533.31 -0.132146 1.46505 0
M  V30 15683 H 1535.27 -2.76646 3.12286 0
M  V30 15684 H 1533.9 -2.52849 2.00667 0
M  V30 15685 H 1532.95 -0.815123 3.71564 0
M  V30 15686 H 1534.26 -1.2821 4.82041 0
M  V30 15687 H 1533.42 -3.63755 4.85559 0
M  V30 15688 H 1532.16 -3.22298 3.66026 0
M  V30 15689 H 1531.16 -1.57193 5.2685 0
M  V30 15690 H 1532.39 -2.01307 6.48577 0
M  V30 15691 H 1530.33 -3.90156 5.27365 0
M  V30 15692 H 1530.25 -3.19241 6.85289 0
M  V30 15693 H 1531.52 -4.32358 6.48604 0
M  V30 15694 N 1535.75 -1.57019 -0.13521 0
M  V30 15695 C 1536.66 -2.02427 -1.18578 0
M  V30 15696 C 1537.67 -0.941738 -1.46312 0
M  V30 15697 O 1538.85 -1.25208 -1.57749 0
M  V30 15698 C 1535.91 -2.40577 -2.49647 0
M  V30 15699 C 1534.97 -3.62835 -2.29455 0
M  V30 15700 C 1534.21 -3.99156 -3.54274 0
M  V30 15701 O 1534.43 -3.36001 -4.60933 0
M  V30 15702 O 1533.36 -4.92345 -3.46238 0
M  V30 15703 H 1537.19 -2.92131 -0.830237 0
M  V30 15704 H 1534.77 -1.45366 -0.344814 0
M  V30 15705 H 1536.66 -2.65922 -3.269 0
M  V30 15706 H 1535.33 -1.54023 -2.84708 0
M  V30 15707 H 1534.24 -3.42661 -1.50114 0
M  V30 15708 H 1535.57 -4.50043 -1.99305 0
M  V30 15709 N 1537.22 0.404919 -1.52309 0
M  V30 15710 C 1538.17 1.49363 -1.75953 0
M  V30 15711 C 1539.14 1.54802 -0.60212 0
M  V30 15712 O 1540.33 1.71308 -0.840128 0
M  V30 15713 C 1537.47 2.86767 -1.91987 0
M  V30 15714 C 1536.58 2.90603 -3.19646 0
M  V30 15715 C 1535.71 4.19333 -3.26088 0
M  V30 15716 C 1534.75 4.17161 -4.47932 0
M  V30 15717 N 1533.89 5.37469 -4.51743 0
M  V30 15718 H 1538.73 1.28503 -2.6887 0
M  V30 15719 H 1536.27 0.623684 -1.33224 0
M  V30 15720 H 1538.23 3.66536 -1.99267 0
M  V30 15721 H 1536.86 3.06112 -1.02447 0
M  V30 15722 H 1535.91 2.033 -3.21517 0
M  V30 15723 H 1537.22 2.84864 -4.09456 0
M  V30 15724 H 1536.37 5.07497 -3.32463 0
M  V30 15725 H 1535.11 4.27774 -2.34224 0
M  V30 15726 H 1534.12 3.27386 -4.417 0
M  V30 15727 H 1535.34 4.10356 -5.41096 0
M  V30 15728 H 1533.29 5.46569 -3.62764 0
M  V30 15729 H 1533.21 5.3374 -5.35404 0
M  V30 15730 H 1534.47 6.27575 -4.62353 0
M  V30 15731 N 1538.7 1.43003 0.662408 0
M  V30 15732 C 1539.63 1.50248 1.78739 0
M  V30 15733 C 1540.61 0.357934 1.66291 0
M  V30 15734 O 1541.8 0.573919 1.85526 0
M  V30 15735 C 1538.93 1.41618 3.17114 0
M  V30 15736 C 1537.88 2.54228 3.44314 0
M  V30 15737 C 1537.21 2.30653 4.82393 0
M  V30 15738 C 1538.51 3.96505 3.39972 0
M  V30 15739 H 1540.2 2.44406 1.72934 0
M  V30 15740 H 1537.75 1.17633 0.830569 0
M  V30 15741 H 1539.7 1.45293 3.9556 0
M  V30 15742 H 1538.43 0.439605 3.23628 0
M  V30 15743 H 1537.08 2.49891 2.68235 0
M  V30 15744 H 1536.73 1.3126 4.85572 0
M  V30 15745 H 1536.43 3.06134 5.01554 0
M  V30 15746 H 1537.96 2.36096 5.63108 0
M  V30 15747 H 1539.37 4.02378 4.08368 0
M  V30 15748 H 1537.77 4.71937 3.70668 0
M  V30 15749 H 1538.84 4.22295 2.38318 0
M  V30 15750 N 1540.18 -0.899904 1.29381 0
M  V30 15751 C 1541.11 -2.02045 1.17047 0
M  V30 15752 C 1542.09 -1.69977 0.0647354 0
M  V30 15753 O 1543.28 -1.92659 0.244173 0
M  V30 15754 C 1540.41 -3.36839 0.845991 0
M  V30 15755 C 1539.36 -3.83117 1.90802 0
M  V30 15756 C 1538.69 -5.15032 1.43686 0
M  V30 15757 C 1539.99 -4.03464 3.31684 0
M  V30 15758 H 1541.68 -2.12623 2.10789 0
M  V30 15759 H 1539.23 -1.02162 1.01484 0
M  V30 15760 H 1541.18 -4.14737 0.746413 0
M  V30 15761 H 1539.9 -3.26352 -0.127125 0
M  V30 15762 H 1538.56 -3.07435 1.99698 0
M  V30 15763 H 1538.21 -5.00961 0.452422 0
M  V30 15764 H 1537.91 -5.46967 2.14711 0
M  V30 15765 H 1539.43 -5.95472 1.35078 0
M  V30 15766 H 1540.85 -4.71845 3.25631 0
M  V30 15767 H 1539.25 -4.46752 4.00665 0
M  V30 15768 H 1540.32 -3.07807 3.74677 0
M  V30 15769 N 1541.66 -1.11854 -1.11024 0
M  V30 15770 C 1542.88 -0.892999 -1.8719 0
M  V30 15771 C 1543.31 0.552058 -1.79816 0
M  V30 15772 O 1542.67 1.39025 -1.16369 0
M  V30 15773 C 1542.71 -1.3647 -3.33779 0
M  V30 15774 O 1541.82 -0.539202 -4.0886 0
M  V30 15775 H 1541.16 -0.321319 -0.581076 0
M  V30 15776 H 1543.69 -1.4891 -1.4031 0
M  V30 15777 H 1543.7 -1.3611 -3.84627 0
M  V30 15778 H 1542.37 -2.41694 -3.38462 0
M  V30 15779 H 1540.95 -0.60927 -3.67889 0
M  V30 15780 N 1543.14 1.28707 -0.909517 0
M  V30 15781 C 1544.07 2.29845 -0.411552 0
M  V30 15782 C 1545.05 1.62001 0.518615 0
M  V30 15783 O 1546.23 1.89442 0.427252 0
M  V30 15784 C 1543.36 3.45501 0.353013 0
M  V30 15785 C 1542.32 4.25213 -0.487625 0
M  V30 15786 C 1541.64 5.33164 0.405026 0
M  V30 15787 C 1542.94 4.9237 -1.74268 0
M  V30 15788 H 1544.64 2.71746 -1.25676 0
M  V30 15789 H 1542.18 1.30639 -0.605759 0
M  V30 15790 H 1544.14 4.15338 0.712191 0
M  V30 15791 H 1542.86 3.02469 1.23209 0
M  V30 15792 H 1541.52 3.57098 -0.829265 0
M  V30 15793 H 1541.17 4.86375 1.28252 0
M  V30 15794 H 1540.87 5.87399 -0.153811 0
M  V30 15795 H 1542.39 6.0585 0.760179 0
M  V30 15796 H 1543.8 5.5459 -1.45266 0
M  V30 15797 H 1542.2 5.56581 -2.2436 0
M  V30 15798 H 1543.27 4.171 -2.47297 0
M  V30 15799 N 1544.61 0.673042 1.42506 0
M  V30 15800 C 1545.84 0.202922 2.05902 0
M  V30 15801 C 1546.26 -1.13923 1.50556 0
M  V30 15802 O 1545.61 -1.70735 0.644662 0
M  V30 15803 C 1545.67 0.12735 3.61276 0
M  V30 15804 O 1545.39 1.41646 4.1457 0
M  V30 15805 C 1546.89 -0.366477 4.41783 0
M  V30 15806 H 1544.11 0.0991021 0.663641 0
M  V30 15807 H 1546.65 0.919282 1.82673 0
M  V30 15808 H 1544.81 -0.539687 3.83622 0
M  V30 15809 H 1545.22 1.28866 5.08423 0
M  V30 15810 H 1546.69 -0.368267 5.5077 0
M  V30 15811 H 1547.17 -1.40142 4.16241 0
M  V30 15812 H 1547.78 0.268761 4.2445 0
M  V30 15813 N 1546.09 -1.52004 0.416254 0
M  V30 15814 C 1547.02 -2.24913 -0.441208 0
M  V30 15815 C 1548.04 -1.28139 -1.0042 0
M  V30 15816 O 1549.23 -1.54037 -0.901928 0
M  V30 15817 C 1546.33 -2.97298 -1.62688 0
M  V30 15818 C 1545.5 -4.20999 -1.18652 0
M  V30 15819 C 1544.56 -4.76146 -2.2399 0
M  V30 15820 O 1543.58 -5.38541 -1.84288 0
M  V30 15821 N 1544.79 -4.58338 -3.56239 0
M  V30 15822 H 1547.55 -2.99137 0.183576 0
M  V30 15823 H 1545.11 -1.60051 0.244008 0
M  V30 15824 H 1547.1 -3.31082 -2.32737 0
M  V30 15825 H 1545.67 -2.26216 -2.15744 0
M  V30 15826 H 1544.89 -3.92948 -0.313877 0
M  V30 15827 H 1546.18 -5.01318 -0.869365 0
M  V30 15828 H 1545.58 -4.08592 -3.91241 0
M  V30 15829 H 1544.14 -4.96542 -4.22244 0
M  V30 15830 N 1547.57 -0.146903 -1.56914 0
M  V30 15831 C 1548.53 0.778709 -2.15566 0
M  V30 15832 C 1549.53 1.1753 -1.09742 0
M  V30 15833 O 1550.72 1.09624 -1.35382 0
M  V30 15834 C 1547.86 2.0567 -2.71869 0
M  V30 15835 H 1549.05 0.268506 -2.98696 0
M  V30 15836 H 1546.6 0.10254 -1.55963 0
M  V30 15837 H 1547.34 2.61057 -1.92405 0
M  V30 15838 H 1547.12 1.78154 -3.4929 0
M  V30 15839 H 1548.61 2.71779 -3.17059 0
M  V30 15840 N 1549.05 1.57088 0.126881 0
M  V30 15841 C 1550 1.99764 1.15599 0
M  V30 15842 C 1550.97 0.868468 1.41587 0
M  V30 15843 O 1552.15 1.13209 1.53585 0
M  V30 15844 C 1549.29 2.40038 2.47943 0
M  V30 15845 C 1548.4 3.66336 2.28958 0
M  V30 15846 C 1547.54 3.95626 3.54477 0
M  V30 15847 C 1546.58 5.15131 3.30616 0
M  V30 15848 N 1545.71 5.4033 4.48317 0
M  V30 15849 H 1550.55 2.87473 0.785078 0
M  V30 15850 H 1548.09 1.42209 0.376169 0
M  V30 15851 H 1550.05 2.61423 3.25136 0
M  V30 15852 H 1548.68 1.55382 2.82942 0
M  V30 15853 H 1547.73 3.52612 1.4272 0
M  V30 15854 H 1549.04 4.53684 2.07298 0
M  V30 15855 H 1548.2 4.17617 4.40092 0
M  V30 15856 H 1546.94 3.06738 3.79161 0
M  V30 15857 H 1545.94 4.92992 2.43391 0
M  V30 15858 H 1547.17 6.05588 3.0731 0
M  V30 15859 H 1545.11 4.54399 4.73136 0
M  V30 15860 H 1545.03 6.21985 4.29733 0
M  V30 15861 H 1546.3 5.66835 5.35088 0
M  V30 15862 N 1550.53 -0.396836 1.52522 0
M  V30 15863 C 1551.44 -1.50871 1.79653 0
M  V30 15864 C 1552.45 -1.60043 0.682804 0
M  V30 15865 O 1553.63 -1.76527 0.96955 0
M  V30 15866 C 1550.69 -2.86485 1.95263 0
M  V30 15867 C 1549.75 -2.87099 3.19175 0
M  V30 15868 C 1548.99 -4.16244 3.34031 0
M  V30 15869 O 1549.21 -5.1079 2.5387 0
M  V30 15870 O 1548.14 -4.23962 4.27247 0
M  V30 15871 H 1551.97 -1.30878 2.74052 0
M  V30 15872 H 1549.56 -0.583908 1.37517 0
M  V30 15873 H 1551.44 -3.66895 2.07282 0
M  V30 15874 H 1550.11 -3.0652 1.04052 0
M  V30 15875 H 1549.02 -2.05497 3.12605 0
M  V30 15876 H 1550.35 -2.72014 4.10206 0
M  V30 15877 N 1552.01 -1.43353 -0.654814 0
M  V30 15878 C 1552.92 -1.50831 -1.79687 0
M  V30 15879 C 1553.93 -0.395518 -1.69445 0
M  V30 15880 O 1555.11 -0.649408 -1.90643 0
M  V30 15881 C 1552.17 -1.42735 -3.15955 0
M  V30 15882 C 1551.23 -2.64671 -3.38005 0
M  V30 15883 C 1550.47 -2.56952 -4.67773 0
M  V30 15884 O 1550.69 -1.61638 -5.47019 0
M  V30 15885 O 1549.62 -3.47425 -4.91507 0
M  V30 15886 H 1553.45 -2.47266 -1.76333 0
M  V30 15887 H 1551.03 -1.25336 -0.813095 0
M  V30 15888 H 1552.92 -1.40656 -3.97233 0
M  V30 15889 H 1551.59 -0.494334 -3.19903 0
M  V30 15890 H 1550.5 -2.72323 -2.56498 0
M  V30 15891 H 1551.83 -3.5694 -3.38903 0
M  V30 15892 N 1553.48 0.89303 -1.29857 0
M  V30 15893 C 1554.71 1.6827 -1.21243 0
M  V30 15894 C 1555.13 1.86778 0.222621 0
M  V30 15895 O 1554.49 1.39291 1.1605 0
M  V30 15896 C 1554.54 3.041 -1.93792 0
M  V30 15897 O 1553.64 3.92696 -1.25951 0
M  V30 15898 H 1552.98 0.514479 -0.419771 0
M  V30 15899 H 1555.51 1.11513 -1.7154 0
M  V30 15900 H 1555.52 3.54198 -2.02504 0
M  V30 15901 H 1554.2 2.89948 -2.98166 0
M  V30 15902 H 1552.78 3.51132 -1.25541 0
M  V30 15903 N 1554.96 1.12442 1.10429 0
M  V30 15904 C 1555.87 0.805377 2.20343 0
M  V30 15905 C 1556.89 -0.205836 1.72778 0
M  V30 15906 O 1558.06 -0.0394195 2.01361 0
M  V30 15907 C 1555.13 0.264711 3.45688 0
M  V30 15908 C 1554.19 1.33586 4.07987 0
M  V30 15909 C 1553.42 0.8209 5.27349 0
M  V30 15910 O 1553.65 -0.345303 5.69354 0
M  V30 15911 O 1552.58 1.59052 5.80505 0
M  V30 15912 H 1556.41 1.7234 2.50065 0
M  V30 15913 H 1553.99 0.901084 1.19167 0
M  V30 15914 H 1555.87 -0.0319164 4.21388 0
M  V30 15915 H 1554.55 -0.625869 3.17592 0
M  V30 15916 H 1553.45 1.68566 3.33971 0
M  V30 15917 H 1554.79 2.20021 4.40286 0
M  V30 15918 N 1556.44 -1.28223 0.91633 0
M  V30 15919 C 1557.39 -2.27215 0.40521 0
M  V30 15920 C 1558.36 -1.57693 -0.521734 0
M  V30 15921 O 1559.54 -1.85577 -0.443369 0
M  V30 15922 C 1556.68 -3.43358 -0.346303 0
M  V30 15923 C 1555.79 -4.27622 0.613443 0
M  V30 15924 C 1554.93 -5.30969 -0.156775 0
M  V30 15925 C 1553.97 -6.06897 0.796418 0
M  V30 15926 N 1553.11 -7.02075 0.0595539 0
M  V30 15927 H 1557.95 -2.70312 1.2544 0
M  V30 15928 H 1555.48 -1.32933 0.629859 0
M  V30 15929 H 1557.44 -4.09492 -0.798231 0
M  V30 15930 H 1556.07 -3.01244 -1.15982 0
M  V30 15931 H 1555.12 -3.61508 1.1839 0
M  V30 15932 H 1556.43 -4.80397 1.34239 0
M  V30 15933 H 1555.59 -6.02999 -0.669146 0
M  V30 15934 H 1554.33 -4.78968 -0.918755 0
M  V30 15935 H 1553.33 -5.33716 1.32014 0
M  V30 15936 H 1554.56 -6.60987 1.558 0
M  V30 15937 H 1552.5 -6.5242 -0.684388 0
M  V30 15938 H 1552.42 -7.52484 0.728275 0
M  V30 15939 H 1553.69 -7.78299 -0.432538 0
M  V30 15940 N 1557.92 -0.68059 -1.42147 0
M  V30 15941 C 1558.85 0.0331442 -2.29176 0
M  V30 15942 C 1559.86 0.759652 -1.4399 0
M  V30 15943 O 1561.05 0.612846 -1.6765 0
M  V30 15944 C 1558.15 1.07077 -3.2154 0
M  V30 15945 C 1557.32 0.416914 -4.35409 0
M  V30 15946 C 1556.38 1.3551 -5.08452 0
M  V30 15947 O 1555.41 0.853198 -5.62769 0
M  V30 15948 N 1556.61 2.68815 -5.14508 0
M  V30 15949 H 1559.38 -0.713963 -2.91072 0
M  V30 15950 H 1556.94 -0.525451 -1.53136 0
M  V30 15951 H 1558.93 1.6998 -3.67272 0
M  V30 15952 H 1557.5 1.71955 -2.61056 0
M  V30 15953 H 1556.72 -0.391734 -3.92249 0
M  V30 15954 H 1558.01 -0.0383564 -5.08786 0
M  V30 15955 H 1557.41 3.12125 -4.71799 0
M  V30 15956 H 1555.96 3.26951 -5.63867 0
M  V30 15957 N 1559.4 1.51781 -0.424309 0
M  V30 15958 C 1560.33 2.30313 0.384462 0
M  V30 15959 C 1561.31 1.35166 1.03268 0
M  V30 15960 O 1562.49 1.64081 1.0388 0
M  V30 15961 C 1559.62 3.13566 1.49311 0
M  V30 15962 C 1558.58 4.16884 0.969096 0
M  V30 15963 C 1557.9 4.88576 2.17251 0
M  V30 15964 C 1559.2 5.22298 0.0125613 0
M  V30 15965 H 1560.9 2.98172 -0.270871 0
M  V30 15966 H 1558.44 1.43396 -0.131712 0
M  V30 15967 H 1560.39 3.67279 2.06602 0
M  V30 15968 H 1559.12 2.43504 2.17655 0
M  V30 15969 H 1557.78 3.64203 0.418494 0
M  V30 15970 H 1557.43 4.15029 2.84183 0
M  V30 15971 H 1557.13 5.58432 1.82833 0
M  V30 15972 H 1558.65 5.45107 2.75119 0
M  V30 15973 H 1560.06 5.71161 0.494744 0
M  V30 15974 H 1558.46 5.99606 -0.243544 0
M  V30 15975 H 1559.53 4.75935 -0.92813 0
M  V30 15976 N 1560.87 0.155222 1.56834 0
M  V30 15977 C 1562.11 -0.496476 1.98279 0
M  V30 15978 C 1562.48 -1.61495 1.03843 0
M  V30 15979 O 1563.68 -2.32808 1.34365 0
M  V30 15980 C 1561.95 -0.982022 3.43644 0
M  V30 15981 S 1563.51 -1.63717 4.07115 0
M  V30 15982 H 1560.33 -0.160256 0.692704 0
M  V30 15983 H 1562.93 0.248881 1.93909 0
M  V30 15984 H 1561.63 -0.157344 4.10098 0
M  V30 15985 H 1561.16 -1.7618 3.51744 0
M  V30 15986 H 1563.18 -2.92473 4.00841 0
M  V30 15987 N 1562.35 -1.57153 -0.118549 0
M  V30 15988 C 1563.28 -2.03409 -1.1466 0
M  V30 15989 C 1564.26 -0.918636 -1.43161 0
M  V30 15990 O 1565.45 -1.18838 -1.53594 0
M  V30 15991 C 1562.58 -2.43879 -2.47265 0
M  V30 15992 C 1561.53 -3.58873 -2.33225 0
M  V30 15993 C 1560.86 -3.85244 -3.70798 0
M  V30 15994 C 1562.16 -4.90582 -1.79239 0
M  V30 15995 H 1563.85 -2.89545 -0.761862 0
M  V30 15996 H 1561.4 -1.39296 -0.365034 0
M  V30 15997 H 1563.35 -2.74844 -3.19435 0
M  V30 15998 H 1562.07 -1.54715 -2.8763 0
M  V30 15999 H 1560.73 -3.28119 -1.63504 0
M  V30 16000 H 1560.38 -2.93285 -4.08648 0
M  V30 16001 H 1560.08 -4.62649 -3.62257 0
M  V30 16002 H 1561.61 -4.18661 -4.44472 0
M  V30 16003 H 1563.02 -5.20079 -2.41227 0
M  V30 16004 H 1561.42 -5.71989 -1.81518 0
M  V30 16005 H 1562.49 -4.79065 -0.74999 0
M  V30 16006 N 1563.83 0.388742 -1.5273 0
M  V30 16007 C 1565.08 1.13094 -1.67011 0
M  V30 16008 C 1565.39 1.91115 -0.416467 0
M  V30 16009 O 1566.6 2.67921 -0.43941 0
M  V30 16010 C 1565.05 2.0595 -2.95149 0
M  V30 16011 C 1564.66 1.3335 -4.27694 0
M  V30 16012 C 1566.41 2.80303 -3.18795 0
M  V30 16013 C 1564.31 2.24973 -5.46938 0
M  V30 16014 H 1563.24 0.425887 -0.622203 0
M  V30 16015 H 1565.89 0.393708 -1.79227 0
M  V30 16016 H 1564.28 2.83309 -2.7668 0
M  V30 16017 H 1565.45 0.612137 -4.56716 0
M  V30 16018 H 1563.76 0.709547 -4.1031 0
M  V30 16019 H 1566.36 3.49036 -4.05065 0
M  V30 16020 H 1566.7 3.44394 -2.33877 0
M  V30 16021 H 1567.24 2.10036 -3.37831 0
M  V30 16022 H 1563.98 1.65497 -6.34264 0
M  V30 16023 H 1563.5 2.95024 -5.22227 0
M  V30 16024 H 1565.18 2.8505 -5.80823 0
M  V30 16025 N 1565.31 1.43698 0.647203 0
M  V30 16026 C 1566.22 1.51781 1.78884 0
M  V30 16027 C 1567.23 0.404498 1.69233 0
M  V30 16028 O 1568.41 0.659509 1.90296 0
M  V30 16029 C 1565.47 1.44408 3.15194 0
M  V30 16030 C 1564.54 2.6646 3.36597 0
M  V30 16031 C 1563.77 2.59429 4.66403 0
M  V30 16032 O 1563.99 1.64537 5.46154 0
M  V30 16033 O 1562.93 3.50027 4.89658 0
M  V30 16034 H 1566.75 2.48198 1.75019 0
M  V30 16035 H 1564.34 1.25766 0.806436 0
M  V30 16036 H 1566.22 1.42761 3.96481 0
M  V30 16037 H 1564.89 0.511292 3.19637 0
M  V30 16038 H 1563.8 2.73679 2.5505 0
M  V30 16039 H 1565.13 3.58732 3.37005 0
M  V30 16040 N 1566.79 -0.886131 1.30328 0
M  V30 16041 C 1567.75 -1.97328 1.16594 0
M  V30 16042 C 1568.75 -1.60504 0.0975023 0
M  V30 16043 O 1569.94 -1.70739 0.345524 0
M  V30 16044 C 1567.07 -3.31714 0.786045 0
M  V30 16045 H 1568.26 -2.1094 2.13177 0
M  V30 16046 H 1565.82 -1.07238 1.13708 0
M  V30 16047 H 1566.55 -3.23804 -0.179334 0
M  V30 16048 H 1566.34 -3.5981 1.55817 0
M  V30 16049 H 1567.83 -4.11461 0.71339 0
M  V30 16050 N 1568.26 -1.13026 -1.09832 0
M  V30 16051 C 1569.2 -0.761606 -2.16176 0
M  V30 16052 C 1570.21 0.214709 -1.61378 0
M  V30 16053 O 1571.4 -0.00487178 -1.78499 0
M  V30 16054 C 1568.5 -0.107513 -3.38729 0
M  V30 16055 C 1567.67 -1.11487 -4.22953 0
M  V30 16056 C 1566.73 -0.487243 -5.23939 0
M  V30 16057 O 1565.76 -1.14605 -5.57543 0
M  V30 16058 N 1566.96 0.742571 -5.75731 0
M  V30 16059 H 1569.72 -1.67669 -2.48409 0
M  V30 16060 H 1567.28 -1.0227 -1.25509 0
M  V30 16061 H 1569.28 0.324507 -4.03397 0
M  V30 16062 H 1567.85 0.710438 -3.0442 0
M  V30 16063 H 1567.07 -1.72432 -3.54487 0
M  V30 16064 H 1568.35 -1.79584 -4.76053 0
M  V30 16065 H 1567.75 1.29667 -5.50639 0
M  V30 16066 H 1566.31 1.11731 -6.42152 0
M  V30 16067 N 1569.74 1.27735 -0.923117 0
M  V30 16068 C 1570.97 1.98682 -0.577317 0
M  V30 16069 C 1571.39 1.68904 0.843608 0
M  V30 16070 O 1570.74 0.947021 1.56006 0
M  V30 16071 C 1570.79 3.52804 -0.788144 0
M  V30 16072 O 1570.51 3.81537 -2.15316 0
M  V30 16073 C 1572.02 4.41006 -0.450437 0
M  V30 16074 H 1569.24 0.634186 -0.2192 0
M  V30 16075 H 1571.78 1.62702 -1.23888 0
M  V30 16076 H 1569.93 3.87012 -0.173441 0
M  V30 16077 H 1570.35 4.76142 -2.19976 0
M  V30 16078 H 1571.82 5.48175 -0.648674 0
M  V30 16079 H 1572.3 4.3489 0.613806 0
M  V30 16080 H 1572.91 4.1231 -1.04308 0
M  V30 16081 N 1571.22 0.688118 1.41784 0
M  V30 16082 C 1572.15 -0.0323076 2.28177 0
M  V30 16083 C 1573.13 -0.795419 1.41816 0
M  V30 16084 O 1574.32 -0.787785 1.71249 0
M  V30 16085 C 1571.44 -1.05308 3.21913 0
M  V30 16086 C 1570.49 -0.384003 4.24768 0
M  V30 16087 S 1571.32 0.86817 5.28416 0
M  V30 16088 C 1572.48 -0.151191 6.25717 0
M  V30 16089 H 1572.71 0.700456 2.88931 0
M  V30 16090 H 1570.24 0.478125 1.46811 0
M  V30 16091 H 1572.2 -1.63689 3.76452 0
M  V30 16092 H 1570.86 -1.75837 2.6027 0
M  V30 16093 H 1570.06 -1.15469 4.90594 0
M  V30 16094 H 1569.66 0.126545 3.73786 0
M  V30 16095 H 1571.95 -1.0068 6.69977 0
M  V30 16096 H 1572.89 0.472955 7.06519 0
M  V30 16097 H 1573.3 -0.502631 5.62258 0
M  V30 16098 N 1572.7 -1.51554 0.432352 0
M  V30 16099 C 1573.61 -2.31371 -0.387885 0
M  V30 16100 C 1574.62 -1.40072 -1.03227 0
M  V30 16101 O 1575.8 -1.73145 -1.02873 0
M  V30 16102 C 1572.87 -3.13662 -1.47705 0
M  V30 16103 C 1571.93 -4.20734 -0.853315 0
M  V30 16104 C 1571.16 -4.99092 -1.89058 0
M  V30 16105 O 1571.38 -4.78022 -3.11209 0
M  V30 16106 O 1570.32 -5.83322 -1.48389 0
M  V30 16107 H 1574.14 -3.02554 0.263578 0
M  V30 16108 H 1571.73 -1.48122 0.195004 0
M  V30 16109 H 1573.61 -3.64837 -2.10884 0
M  V30 16110 H 1572.28 -2.45249 -2.11269 0
M  V30 16111 H 1571.19 -3.73649 -0.183616 0
M  V30 16112 H 1572.52 -4.91506 -0.261244 0
M  V30 16113 N 1574.18 -0.163538 -1.56749 0
M  V30 16114 C 1575.14 0.755801 -2.1638 0
M  V30 16115 C 1576.14 1.16359 -1.10982 0
M  V30 16116 O 1577.33 1.08182 -1.36537 0
M  V30 16117 C 1574.46 2.02775 -2.74035 0
M  V30 16118 H 1575.65 0.23681 -2.98964 0
M  V30 16119 H 1573.21 0.0859925 -1.56063 0
M  V30 16120 H 1573.94 2.59002 -1.95163 0
M  V30 16121 H 1573.73 1.74439 -3.5116 0
M  V30 16122 H 1575.22 2.684 -3.19923 0
M  V30 16123 N 1575.65 1.57214 0.110213 0
M  V30 16124 C 1576.58 2.04015 1.13579 0
M  V30 16125 C 1577.57 0.926215 1.42672 0
M  V30 16126 O 1578.75 1.19651 1.52962 0
M  V30 16127 C 1575.88 2.45187 2.45969 0
M  V30 16128 C 1574.83 3.60105 2.31319 0
M  V30 16129 C 1574.16 3.87205 3.68749 0
M  V30 16130 C 1575.46 4.91526 1.76635 0
M  V30 16131 H 1577.15 2.89944 0.746496 0
M  V30 16132 H 1574.7 1.39488 0.357642 0
M  V30 16133 H 1576.65 2.76534 3.17973 0
M  V30 16134 H 1575.38 1.56238 2.86805 0
M  V30 16135 H 1574.04 3.28981 1.61762 0
M  V30 16136 H 1573.68 2.95448 4.07087 0
M  V30 16137 H 1573.38 4.64563 3.59798 0
M  V30 16138 H 1574.91 4.21013 4.42245 0
M  V30 16139 H 1576.32 5.21351 2.38465 0
M  V30 16140 H 1574.72 5.72944 1.78482 0
M  V30 16141 H 1575.79 4.79456 0.724573 0
M  V30 16142 N 1577.13 -0.380637 1.52934 0
M  V30 16143 C 1578.06 -1.47174 1.81279 0
M  V30 16144 C 1579.04 -1.56549 0.665319 0
M  V30 16145 O 1580.23 -1.71362 0.913722 0
M  V30 16146 C 1577.36 -2.84691 1.98918 0
M  V30 16147 C 1576.31 -2.90151 3.14637 0
M  V30 16148 C 1575.64 -4.30198 3.17544 0
M  V30 16149 C 1576.94 -2.59037 4.53539 0
M  V30 16150 H 1578.63 -1.23703 2.7265 0
M  V30 16151 H 1576.18 -0.593654 1.31194 0
M  V30 16152 H 1578.13 -3.61034 2.1733 0
M  V30 16153 H 1576.86 -3.09517 1.04244 0
M  V30 16154 H 1575.51 -2.16257 2.96021 0
M  V30 16155 H 1575.16 -4.52076 2.20536 0
M  V30 16156 H 1574.86 -4.3477 3.95284 0
M  V30 16157 H 1576.39 -5.08435 3.38121 0
M  V30 16158 H 1577.8 -3.25096 4.72214 0
M  V30 16159 H 1576.2 -2.74946 5.33408 0
M  V30 16160 H 1577.27 -1.54342 4.59681 0
M  V30 16161 N 1578.61 -1.44039 -0.639573 0
M  V30 16162 C 1579.57 -1.49907 -1.7338 0
M  V30 16163 C 1580.57 -0.382101 -1.56194 0
M  V30 16164 O 1581.76 -0.644396 -1.61843 0
M  V30 16165 C 1578.9 -1.36486 -3.12385 0
M  V30 16166 H 1580.09 -2.4737 -1.69553 0
M  V30 16167 H 1577.64 -1.31006 -0.852474 0
M  V30 16168 H 1578.38 -0.400845 -3.21813 0
M  V30 16169 H 1578.16 -2.17471 -3.26265 0
M  V30 16170 H 1579.65 -1.43555 -3.9215 0
M  V30 16171 N 1580.09 0.879207 -1.30796 0
M  V30 16172 C 1581.02 2.00158 -1.20246 0
M  V30 16173 C 1582 1.69852 -0.091769 0
M  V30 16174 O 1583.18 1.92246 -0.274792 0
M  V30 16175 C 1580.31 3.3545 -0.899472 0
M  V30 16176 C 1579.27 3.80033 -1.96873 0
M  V30 16177 C 1578.59 5.12681 -1.51861 0
M  V30 16178 C 1579.89 3.98136 -3.38061 0
M  V30 16179 H 1581.59 2.09242 -2.14145 0
M  V30 16180 H 1579.13 1.00535 -1.03096 0
M  V30 16181 H 1581.09 4.13497 -0.812299 0
M  V30 16182 H 1579.81 3.26513 0.075189 0
M  V30 16183 H 1578.47 3.04219 -2.04564 0
M  V30 16184 H 1578.12 5.00178 -0.532063 0
M  V30 16185 H 1577.82 5.43482 -2.23386 0
M  V30 16186 H 1579.34 5.93247 -1.44534 0
M  V30 16187 H 1580.76 4.66604 -3.33096 0
M  V30 16188 H 1579.15 4.40321 -4.07722 0
M  V30 16189 H 1580.22 3.01807 -3.79526 0
M  V30 16190 N 1581.57 1.13606 1.09231 0
M  V30 16191 C 1582.5 0.837908 2.17948 0
M  V30 16192 C 1583.48 -0.203575 1.68877 0
M  V30 16193 O 1584.66 -0.0620702 1.94101 0
M  V30 16194 C 1581.79 0.305342 3.45955 0
M  V30 16195 C 1580.75 1.2813 4.08371 0
M  V30 16196 C 1580.07 0.608412 5.31227 0
M  V30 16197 C 1581.37 2.64055 4.50636 0
M  V30 16198 H 1583.07 1.747 2.43147 0
M  V30 16199 H 1580.61 0.84141 1.1686 0
M  V30 16200 H 1582.57 0.0844116 4.21315 0
M  V30 16201 H 1581.29 -0.639144 3.20285 0
M  V30 16202 H 1579.95 1.48826 3.35032 0
M  V30 16203 H 1579.6 -0.341613 5.01839 0
M  V30 16204 H 1579.3 1.25956 5.73942 0
M  V30 16205 H 1580.82 0.396809 6.09309 0
M  V30 16206 H 1582.24 2.47316 5.17212 0
M  V30 16207 H 1580.63 3.25364 5.0424 0
M  V30 16208 H 1581.7 3.21566 3.62937 0
M  V30 16209 N 1583.05 -1.27244 0.929878 0
M  V30 16210 C 1584.46 -1.76254 0.615732 0
M  V30 16211 C 1584.81 -1.759 -0.869111 0
M  V30 16212 O 1583.93 -1.36388 -1.6801 0
M  V30 16213 C 1584.53 -3.20068 1.11095 0
M  V30 16214 C 1583.09 -3.66736 0.847435 0
M  V30 16215 C 1582.23 -2.4659 1.26842 0
M  V30 16216 H 1585.18 -1.1348 1.10942 0
M  V30 16217 H 1585.21 -3.77714 0.459618 0
M  V30 16218 H 1584.72 -3.20293 2.19166 0
M  V30 16219 H 1582.82 -3.71954 -0.219376 0
M  V30 16220 H 1582.93 -4.56104 1.4665 0
M  V30 16221 H 1581.3 -2.45261 0.686944 0
M  V30 16222 H 1582.08 -2.49524 2.35781 0
M  V30 16223 N 1584.52 -0.695628 -1.41417 0
M  V30 16224 C 1585.43 -0.0308378 -2.3458 0
M  V30 16225 C 1586.45 0.766 -1.56232 0
M  V30 16226 O 1587.63 0.703548 -1.88712 0
M  V30 16227 C 1584.69 0.894162 -3.34971 0
M  V30 16228 C 1583.75 0.0895231 -4.29207 0
M  V30 16229 C 1582.98 0.970467 -5.24802 0
M  V30 16230 O 1583.21 2.20997 -5.25848 0
M  V30 16231 O 1582.14 0.420114 -6.00432 0
M  V30 16232 H 1585.97 -0.798775 -2.93007 0
M  V30 16233 H 1583.55 -0.455964 -1.42272 0
M  V30 16234 H 1585.43 1.42458 -3.9659 0
M  V30 16235 H 1584.11 1.64159 -2.78987 0
M  V30 16236 H 1583.02 -0.4855 -3.70936 0
M  V30 16237 H 1584.35 -0.619241 -4.88289 0
M  V30 16238 N 1586 1.51322 -0.440383 0
M  V30 16239 C 1586.93 2.30708 0.360013 0
M  V30 16240 C 1587.91 1.36254 1.01828 0
M  V30 16241 O 1589.1 1.65174 1.02134 0
M  V30 16242 C 1586.23 3.15132 1.45977 0
M  V30 16243 C 1585.18 4.17889 0.924825 0
M  V30 16244 C 1584.51 4.90853 2.12056 0
M  V30 16245 C 1585.81 5.22282 -0.0428362 0
M  V30 16246 H 1587.5 2.97868 -0.30248 0
M  V30 16247 H 1585.05 1.43249 -0.146914 0
M  V30 16248 H 1587 3.69449 2.02695 0
M  V30 16249 H 1585.72 2.45798 2.1506 0
M  V30 16250 H 1584.38 3.64627 0.379842 0
M  V30 16251 H 1584.03 4.1802 2.79765 0
M  V30 16252 H 1583.73 5.60339 1.769 0
M  V30 16253 H 1585.26 5.47995 2.69322 0
M  V30 16254 H 1586.67 5.71654 0.434137 0
M  V30 16255 H 1585.07 5.99314 -0.307126 0
M  V30 16256 H 1586.14 4.74923 -0.978557 0
M  V30 16257 N 1587.48 0.171848 1.5666 0
M  V30 16258 C 1588.7 -0.482396 2.01712 0
M  V30 16259 C 1589.13 -1.5598 1.05128 0
M  V30 16260 O 1588.49 -1.81274 0.0309178 0
M  V30 16261 C 1588.54 -1.03716 3.45363 0
M  V30 16262 O 1587.64 -2.15114 3.51852 0
M  V30 16263 H 1586.98 -0.115439 0.653888 0
M  V30 16264 H 1589.51 0.275895 2.02731 0
M  V30 16265 H 1589.52 -1.35964 3.84679 0
M  V30 16266 H 1588.2 -0.24832 4.15158 0
M  V30 16267 H 1586.77 -1.83907 3.24396 0
M  V30 16268 N 1588.96 -1.5727 -0.101874 0
M  V30 16269 C 1590.2 -1.86017 -0.807795 0
M  V30 16270 C 1590.54 -0.760024 -1.7871 0
M  V30 16271 O 1589.81 0.232627 -1.93104 0
M  V30 16272 C 1590.09 -3.25388 -1.54255 0
M  V30 16273 C 1589.95 -4.46023 -0.581693 0
M  V30 16274 C 1591.27 -3.62561 -2.49474 0
M  V30 16275 H 1588.39 -0.676596 -0.29221 0
M  V30 16276 H 1591.03 -1.89865 -0.0715861 0
M  V30 16277 H 1589.18 -3.22239 -2.17013 0
M  V30 16278 H 1590.85 -4.61284 0.0383529 0
M  V30 16279 H 1589.09 -4.33672 0.105465 0
M  V30 16280 H 1589.76 -5.40251 -1.1328 0
M  V30 16281 H 1592.24 -3.66611 -1.96813 0
M  V30 16282 H 1591.12 -4.61025 -2.97905 0
M  V30 16283 H 1591.38 -2.90885 -3.32924 0
M  V30 16284 N 1590.44 0.372521 -1.53134 0
M  V30 16285 C 1591.37 1.4621 -1.82057 0
M  V30 16286 C 1592.35 1.56194 -0.673612 0
M  V30 16287 O 1593.53 1.70875 -0.922797 0
M  V30 16288 C 1590.66 2.83632 -2.00425 0
M  V30 16289 C 1589.62 2.88478 -3.16171 0
M  V30 16290 C 1588.94 4.28508 -3.19821 0
M  V30 16291 C 1590.24 2.56628 -4.54906 0
M  V30 16292 H 1591.94 1.22256 -2.73302 0
M  V30 16293 H 1589.48 0.586688 -1.31507 0
M  V30 16294 H 1591.43 3.59876 -2.19242 0
M  V30 16295 H 1590.16 3.0896 -1.05884 0
M  V30 16296 H 1588.82 2.14684 -2.97164 0
M  V30 16297 H 1588.47 4.509 -2.2293 0
M  V30 16298 H 1588.17 4.32667 -3.97584 0
M  V30 16299 H 1589.69 5.06635 -3.40813 0
M  V30 16300 H 1591.1 3.22587 -4.73931 0
M  V30 16301 H 1589.5 2.72114 -5.34859 0
M  V30 16302 H 1590.57 1.51902 -4.60493 0
M  V30 16303 N 1591.91 1.44376 0.631925 0
M  V30 16304 C 1592.88 1.50825 1.72582 0
M  V30 16305 C 1593.88 0.390379 1.55989 0
M  V30 16306 O 1595.07 0.65297 1.61499 0
M  V30 16307 C 1592.2 1.38141 3.11657 0
M  V30 16308 H 1593.39 2.48265 1.68239 0
M  V30 16309 H 1590.94 1.31456 0.845514 0
M  V30 16310 H 1591.68 0.417905 3.21596 0
M  V30 16311 H 1591.46 2.19198 3.25107 0
M  V30 16312 H 1592.95 1.45633 3.91383 0
M  V30 16313 N 1593.39 -0.872258 1.31261 0
M  V30 16314 C 1594.32 -1.9853 1.14537 0
M  V30 16315 C 1595.34 -1.62578 0.0850723 0
M  V30 16316 O 1596.53 -1.75379 0.332343 0
M  V30 16317 C 1593.63 -3.31005 0.72727 0
M  V30 16318 C 1592.8 -3.95313 1.87208 0
M  V30 16319 C 1591.86 -5.06101 1.44042 0
M  V30 16320 O 1590.88 -5.27045 2.1497 0
M  V30 16321 N 1592.09 -5.79581 0.32653 0
M  V30 16322 H 1594.85 -2.13423 2.10406 0
M  V30 16323 H 1592.41 -1.0461 1.23565 0
M  V30 16324 H 1594.4 -4.02502 0.421255 0
M  V30 16325 H 1592.97 -3.12287 -0.13975 0
M  V30 16326 H 1592.19 -3.16825 2.34553 0
M  V30 16327 H 1593.48 -4.35015 2.63893 0
M  V30 16328 H 1592.88 -5.65083 -0.264202 0
M  V30 16329 H 1591.44 -6.51751 0.0800358 0
M  V30 16330 N 1594.87 -1.14184 -1.08627 0
M  V30 16331 C 1595.8 -0.784492 -2.15356 0
M  V30 16332 C 1596.81 0.197581 -1.61597 0
M  V30 16333 O 1598 -0.0238037 -1.78484 0
M  V30 16334 C 1595.1 -0.143433 -3.38596 0
M  V30 16335 C 1594.28 -1.15967 -4.21747 0
M  V30 16336 C 1593.34 -0.542786 -5.23393 0
M  V30 16337 O 1592.36 -1.20512 -5.56296 0
M  V30 16338 N 1593.56 0.681466 -5.76486 0
M  V30 16339 H 1596.33 -1.70294 -2.46617 0
M  V30 16340 H 1593.89 -1.03596 -1.24417 0
M  V30 16341 H 1595.88 0.281703 -4.03718 0
M  V30 16342 H 1594.45 0.67811 -3.05156 0
M  V30 16343 H 1593.67 -1.76182 -3.52638 0
M  V30 16344 H 1594.96 -1.84623 -4.74122 0
M  V30 16345 H 1594.36 1.23819 -5.51983 0
M  V30 16346 H 1592.91 1.04914 -6.43301 0
M  V30 16347 N 1596.35 1.26749 -0.936613 0
M  V30 16348 C 1597.3 2.28528 -0.433328 0
M  V30 16349 C 1598.29 1.62248 0.487012 0
M  V30 16350 O 1599.5 1.76245 0.36573 0
M  V30 16351 H 1595.87 0.742106 -0.121583 0
M  V30 16352 H 1597.84 2.68382 -1.30436 0
M  V30 16353 C 1596.59 3.46485 0.290366 0
M  V30 16354 H 1595.91 3.97706 -0.408649 0
M  V30 16355 H 1597.35 4.19635 0.606807 0
M  V30 16356 C 1595.81 3.01339 1.50654 0
M  V30 16357 O 1596.34 3.05781 2.60501 0
M  V30 16358 N 1594.55 2.56732 1.3615 0
M  V30 16359 H 1594.1 2.53317 0.467788 0
M  V30 16360 H 1594.05 2.26888 2.17645 0
M  V30 16361 N 1597.83 0.703118 1.41046 0
M  V30 16362 C 1599.06 0.246194 2.05128 0
M  V30 16363 C 1599.46 -1.11245 1.5304 0
M  V30 16364 O 1598.81 -1.70783 0.676678 0
M  V30 16365 C 1598.87 0.134596 3.59248 0
M  V30 16366 C 1598.53 1.4265 4.34166 0
M  V30 16367 C 1599.53 2.3659 4.62948 0
M  V30 16368 C 1597.22 1.68196 4.73303 0
M  V30 16369 C 1599.21 3.54332 5.29837 0
M  V30 16370 C 1596.9 2.86223 5.39926 0
M  V30 16371 C 1597.89 3.79114 5.68121 0
M  V30 16372 O 1597.58 4.95072 6.33371 0
M  V30 16373 H 1597.31 0.110667 0.66688 0
M  V30 16374 H 1599.87 0.958407 1.81669 0
M  V30 16375 H 1598.1 -0.633453 3.81476 0
M  V30 16376 H 1599.79 -0.286131 4.0489 0
M  V30 16377 H 1600.55 2.18113 4.33188 0
M  V30 16378 H 1596.43 0.96753 4.50733 0
M  V30 16379 H 1599.98 4.26855 5.51762 0
M  V30 16380 H 1595.87 3.04614 5.69105 0
M  V30 16381 H 1596.64 4.94986 6.51868 0
M  V30 16382 N 1599.3 -1.51086 0.448402 0
M  V30 16383 C 1600.53 -2.06593 -0.112695 0
M  V30 16384 C 1600.95 -1.31471 -1.35502 0
M  V30 16385 O 1600.3 -0.377406 -1.78555 0
M  V30 16386 C 1600.36 -3.59008 -0.423769 0
M  V30 16387 O 1600.08 -4.31293 0.769259 0
M  V30 16388 C 1601.58 -4.31064 -1.03433 0
M  V30 16389 H 1598.8 -0.670993 -0.00301626 0
M  V30 16390 H 1601.34 -1.94532 0.630667 0
M  V30 16391 H 1599.5 -3.70946 -1.11704 0
M  V30 16392 H 1599.91 -5.2211 0.500162 0
M  V30 16393 H 1601.38 -5.38756 -1.20191 0
M  V30 16394 H 1601.86 -3.90075 -2.01837 0
M  V30 16395 H 1602.47 -4.23598 -0.380115 0
M  V30 16396 N 1600.78 -0.180154 -1.56567 0
M  V30 16397 C 1601.69 0.758959 -2.21984 0
M  V30 16398 C 1602.71 1.24631 -1.21422 0
M  V30 16399 O 1603.88 1.29659 -1.54112 0
M  V30 16400 C 1600.95 1.96744 -2.85469 0
M  V30 16401 C 1600.01 1.52612 -4.01258 0
M  V30 16402 C 1599.24 2.677 -4.61706 0
M  V30 16403 O 1599.47 3.84799 -4.21054 0
M  V30 16404 O 1598.4 2.41269 -5.51428 0
M  V30 16405 H 1602.23 0.231919 -3.02813 0
M  V30 16406 H 1599.81 0.0484552 -1.49321 0
M  V30 16407 H 1601.69 2.67404 -3.25689 0
M  V30 16408 H 1600.37 2.48337 -2.0763 0
M  V30 16409 H 1599.28 0.78877 -3.6569 0
M  V30 16410 H 1600.61 1.05701 -4.80716 0
M  V30 16411 N 1602.26 1.57322 0.0935319 0
M  V30 16412 C 1603.51 1.87313 0.792794 0
M  V30 16413 C 1603.86 0.771181 1.76268 0
M  V30 16414 O 1603.15 -0.226679 1.90254 0
M  V30 16415 C 1603.35 3.21605 1.55901 0
M  V30 16416 C 1603.18 4.44758 0.66483 0
M  V30 16417 C 1601.95 5.04348 0.309971 0
M  V30 16418 C 1604.15 5.14292 -0.0288905 0
M  V30 16419 N 1602.13 6.11037 -0.592212 0
M  V30 16420 C 1603.5 6.14958 -0.789082 0
M  V30 16421 C 1605.55 4.97794 -0.102647 0
M  V30 16422 C 1604.26 7.00909 -1.61614 0
M  V30 16423 C 1606.28 5.84254 -0.916612 0
M  V30 16424 C 1605.64 6.84441 -1.66492 0
M  V30 16425 H 1601.74 0.735289 0.266222 0
M  V30 16426 H 1604.33 1.94622 0.0552534 0
M  V30 16427 H 1602.5 3.15345 2.26742 0
M  V30 16428 H 1604.23 3.39317 2.20559 0
M  V30 16429 H 1600.99 4.69007 0.65798 0
M  V30 16430 H 1601.41 6.69028 -1.0359 0
M  V30 16431 H 1606.05 4.20273 0.461548 0
M  V30 16432 H 1603.77 7.7782 -2.1914 0
M  V30 16433 H 1607.36 5.73549 -0.976374 0
M  V30 16434 H 1606.24 7.50183 -2.28461 0
M  V30 16435 N 1603.74 -0.364395 1.53329 0
M  V30 16436 C 1604.67 -1.45243 1.8283 0
M  V30 16437 C 1605.65 -1.55834 0.681886 0
M  V30 16438 O 1606.83 -1.70383 0.931845 0
M  V30 16439 C 1603.96 -2.82565 2.01926 0
M  V30 16440 C 1602.92 -2.86797 3.17697 0
M  V30 16441 C 1602.24 -4.26806 3.22089 0
M  V30 16442 C 1603.54 -2.54212 4.56261 0
M  V30 16443 H 1605.24 -1.20804 2.73946 0
M  V30 16444 H 1602.78 -0.579705 1.31816 0
M  V30 16445 H 1604.74 -3.58709 2.21147 0
M  V30 16446 H 1603.46 -3.08394 1.07521 0
M  V30 16447 H 1602.12 -2.13105 2.98298 0
M  V30 16448 H 1601.77 -4.49712 2.25318 0
M  V30 16449 H 1601.47 -4.30553 3.99873 0
M  V30 16450 H 1602.99 -5.04821 3.43495 0
M  V30 16451 H 1604.41 -3.20069 4.75635 0
M  V30 16452 H 1602.8 -2.69273 5.36295 0
M  V30 16453 H 1603.87 -1.49458 4.61292 0
M  V30 16454 N 1605.22 -1.44709 -0.62426 0
M  V30 16455 C 1606.15 -1.48097 -1.74928 0
M  V30 16456 C 1607.16 -0.373567 -1.58456 0
M  V30 16457 O 1608.35 -0.639699 -1.66644 0
M  V30 16458 C 1605.45 -1.30576 -3.12735 0
M  V30 16459 C 1604.62 -2.54688 -3.55602 0
M  V30 16460 C 1603.68 -2.31966 -4.72311 0
M  V30 16461 O 1602.71 -3.05492 -4.80274 0
M  V30 16462 N 1603.91 -1.35463 -5.64473 0
M  V30 16463 H 1606.68 -2.45086 -1.72491 0
M  V30 16464 H 1604.24 -1.40236 -0.809039 0
M  V30 16465 H 1606.23 -1.13212 -3.88542 0
M  V30 16466 H 1604.8 -0.419262 -3.09776 0
M  V30 16467 H 1604.02 -2.87282 -2.69931 0
M  V30 16468 H 1605.31 -3.37223 -3.80996 0
M  V30 16469 H 1604.7 -0.747509 -5.60739 0
M  V30 16470 H 1603.26 -1.24075 -6.39882 0
M  V30 16471 N 1606.69 0.865285 -1.31722 0
M  V30 16472 C 1607.97 1.60146 -1.12306 0
M  V30 16473 C 1608.35 2.08653 0.320508 0
M  V30 16474 O 1607.7 1.86841 1.31539 0
M  V30 16475 C 1607.91 2.75583 -2.14138 0
M  V30 16476 C 1609.26 3.45429 -2.46909 0
M  V30 16477 O 1610.28 2.85795 -2.12602 0
M  V30 16478 O 1609.14 4.53017 -3.05676 0
M  V30 16479 H 1606.23 0.704786 -0.432673 0
M  V30 16480 H 1608.78 0.910339 -1.43216 0
M  V30 16481 H 1607.55 2.37187 -3.1122 0
M  V30 16482 H 1607.18 3.52378 -1.84161 0
M  V30 16483 N 1608.17 1.14759 1.0802 0
M  V30 16484 C 1609.1 0.860977 2.17047 0
M  V30 16485 C 1610.08 -0.185652 1.69084 0
M  V30 16486 O 1611.27 -0.0414797 1.94156 0
M  V30 16487 C 1608.4 0.342018 3.45612 0
M  V30 16488 C 1607.35 1.32455 4.06989 0
M  V30 16489 C 1606.68 0.664721 5.30552 0
M  V30 16490 C 1607.98 2.68819 4.4781 0
M  V30 16491 H 1609.67 1.77269 2.4128 0
M  V30 16492 H 1607.22 0.853757 1.15961 0
M  V30 16493 H 1609.17 0.129093 4.21202 0
M  V30 16494 H 1607.9 -0.605138 3.20945 0
M  V30 16495 H 1606.55 1.52371 3.33435 0
M  V30 16496 H 1606.2 -0.288367 5.02173 0
M  V30 16497 H 1605.9 1.32036 5.72573 0
M  V30 16498 H 1607.43 0.461412 6.08854 0
M  V30 16499 H 1608.84 2.52787 5.14559 0
M  V30 16500 H 1607.24 3.30694 5.00761 0
M  V30 16501 H 1608.31 3.25398 3.59506 0
M  V30 16502 N 1609.65 -1.26251 0.943322 0
M  V30 16503 C 1610.6 -2.26304 0.453315 0
M  V30 16504 C 1611.57 -1.58764 -0.488168 0
M  V30 16505 O 1612.75 -1.86476 -0.403906 0
M  V30 16506 C 1609.89 -3.44015 -0.273393 0
M  V30 16507 C 1609.01 -4.26225 0.70401 0
M  V30 16508 C 1608.14 -5.31182 -0.0441134 0
M  V30 16509 C 1607.18 -6.05071 0.924971 0
M  V30 16510 N 1606.32 -7.0179 0.208461 0
M  V30 16511 H 1611.16 -2.67591 1.31146 0
M  V30 16512 H 1608.69 -1.31567 0.657914 0
M  V30 16513 H 1610.65 -4.11094 -0.711192 0
M  V30 16514 H 1609.28 -3.03636 -1.09566 0
M  V30 16515 H 1608.33 -3.58915 1.26032 0
M  V30 16516 H 1609.65 -4.77442 1.44398 0
M  V30 16517 H 1608.8 -6.04282 -0.541091 0
M  V30 16518 H 1607.54 -4.80809 -0.816952 0
M  V30 16519 H 1606.54 -5.30795 1.43305 0
M  V30 16520 H 1607.77 -6.57533 1.69785 0
M  V30 16521 H 1605.71 -6.53725 -0.545846 0
M  V30 16522 H 1605.63 -7.5077 0.887725 0
M  V30 16523 H 1606.9 -7.79041 -0.267352 0
M  V30 16524 N 1611.13 -0.710588 -1.40671 0
M  V30 16525 C 1612.04 -0.0557164 -2.34534 0
M  V30 16526 C 1613.06 0.749387 -1.57036 0
M  V30 16527 O 1614.23 0.683493 -1.89447 0
M  V30 16528 C 1611.3 0.858583 -3.35901 0
M  V30 16529 C 1610.36 0.043995 -4.29277 0
M  V30 16530 C 1609.59 0.91475 -5.25802 0
M  V30 16531 O 1609.81 2.15407 -5.28163 0
M  V30 16532 O 1608.75 0.356407 -6.00844 0
M  V30 16533 H 1612.57 -0.829807 -2.92144 0
M  V30 16534 H 1610.16 -0.471028 -1.4178 0
M  V30 16535 H 1612.04 1.38244 -3.98079 0
M  V30 16536 H 1610.72 1.61191 -2.80712 0
M  V30 16537 H 1609.62 -0.524815 -3.704 0
M  V30 16538 H 1610.96 -0.670996 -4.87605 0
M  V30 16539 N 1612.61 1.50847 -0.456408 0
M  V30 16540 C 1613.55 2.28202 0.345341 0
M  V30 16541 C 1614.52 1.32611 1.00017 0
M  V30 16542 O 1615.71 1.61535 1.01543 0
M  V30 16543 C 1612.85 3.14087 1.42981 0
M  V30 16544 C 1611.96 4.24693 0.791217 0
M  V30 16545 C 1611.1 4.97857 1.85234 0
M  V30 16546 C 1610.14 6.00357 1.1932 0
M  V30 16547 N 1609.27 6.66856 2.19652 0
M  V30 16548 H 1614.11 2.9627 -0.320646 0
M  V30 16549 H 1611.65 1.46115 -0.169973 0
M  V30 16550 H 1613.61 3.62222 2.07006 0
M  V30 16551 H 1612.24 2.48095 2.06516 0
M  V30 16552 H 1611.29 3.8038 0.0387694 0
M  V30 16553 H 1612.6 4.98068 0.270177 0
M  V30 16554 H 1611.76 5.49636 2.56875 0
M  V30 16555 H 1610.5 4.24155 2.40715 0
M  V30 16556 H 1609.5 5.47853 0.462341 0
M  V30 16557 H 1610.73 6.76025 0.645473 0
M  V30 16558 H 1608.67 5.95955 2.74178 0
M  V30 16559 H 1608.59 7.36059 1.72492 0
M  V30 16560 H 1609.86 7.23259 2.90719 0
M  V30 16561 N 1614.09 0.188454 1.56469 0
M  V30 16562 C 1615.33 -0.451165 1.97 0
M  V30 16563 C 1615.65 -1.6261 1.07624 0
M  V30 16564 O 1614.92 -1.95354 0.146125 0
M  V30 16565 H 1613.5 -0.16967 0.727476 0
M  V30 16566 H 1616.17 0.273638 1.9297 0
M  V30 16567 H 1615.26 -0.799741 3.0168 0
M  V30 16568 N 1615.56 -1.5737 -0.0851874 0
M  V30 16569 C 1616.97 -1.7544 -0.638575 0
M  V30 16570 C 1617.33 -0.812041 -1.78607 0
M  V30 16571 O 1616.45 0.00710428 -2.16399 0
M  V30 16572 C 1617.05 -3.18134 -1.16517 0
M  V30 16573 C 1615.6 -3.37594 -1.66454 0
M  V30 16574 C 1614.75 -2.71203 -0.578274 0
M  V30 16575 H 1617.7 -1.58073 0.140931 0
M  V30 16576 H 1617.72 -3.21553 -2.0343 0
M  V30 16577 H 1617.24 -3.86696 -0.329794 0
M  V30 16578 H 1615.34 -2.74126 -2.5236 0
M  V30 16579 H 1615.45 -4.45968 -1.75071 0
M  V30 16580 H 1613.81 -2.33379 -1.02011 0
M  V30 16581 H 1614.6 -3.42413 0.246691 0
M  V30 16582 N 1617.04 0.356258 -1.53521 0
M  V30 16583 C 1618.27 1.11828 -1.74075 0
M  V30 16584 C 1618.68 1.82753 -0.473998 0
M  V30 16585 O 1618.04 1.73899 0.553649 0
M  V30 16586 C 1618.09 2.14149 -2.91243 0
M  V30 16587 O 1617.81 1.4611 -4.13017 0
M  V30 16588 C 1619.31 3.02826 -3.23746 0
M  V30 16589 H 1616.53 0.334002 -0.581965 0
M  V30 16590 H 1619.08 0.412336 -2.003 0
M  V30 16591 H 1617.23 2.80328 -2.67386 0
M  V30 16592 H 1617.65 2.1436 -4.78696 0
M  V30 16593 H 1619.12 3.70583 -4.09112 0
M  V30 16594 H 1619.6 3.68149 -2.39505 0
M  V30 16595 H 1620.2 2.42252 -3.49563 0
M  V30 16596 N 1618.52 1.45038 0.616577 0
M  V30 16597 C 1619.45 1.55858 1.73869 0
M  V30 16598 C 1620.43 0.410657 1.65069 0
M  V30 16599 O 1621.62 0.632652 1.83606 0
M  V30 16600 C 1618.75 1.51635 3.12448 0
M  V30 16601 C 1617.7 2.65053 3.36052 0
M  V30 16602 C 1617.03 2.45883 4.74811 0
M  V30 16603 C 1618.33 4.07121 3.27185 0
M  V30 16604 H 1620.02 2.49784 1.6507 0
M  V30 16605 H 1617.57 1.20216 0.792724 0
M  V30 16606 H 1619.52 1.57803 3.90738 0
M  V30 16607 H 1618.24 0.542342 3.22066 0
M  V30 16608 H 1616.9 2.58299 2.60149 0
M  V30 16609 H 1616.55 1.46641 4.8115 0
M  V30 16610 H 1616.25 3.21935 4.9156 0
M  V30 16611 H 1617.77 2.53892 5.55312 0
M  V30 16612 H 1619.19 4.15167 3.9536 0
M  V30 16613 H 1617.58 4.83491 3.55466 0
M  V30 16614 H 1618.65 4.29663 2.24762 0
M  V30 16615 N 1620 -0.858287 1.32179 0
M  V30 16616 C 1620.93 -1.98219 1.23415 0
M  V30 16617 C 1621.91 -1.69685 0.118779 0
M  V30 16618 O 1623.09 -1.91785 0.305342 0
M  V30 16619 C 1620.22 -3.33977 0.952725 0
M  V30 16620 C 1619.18 -3.76853 2.02894 0
M  V30 16621 C 1618.5 -5.10201 1.59999 0
M  V30 16622 C 1619.8 -3.92707 3.44352 0
M  V30 16623 H 1621.5 -2.05809 2.17446 0
M  V30 16624 H 1619.04 -0.988817 1.04682 0
M  V30 16625 H 1621 -4.12152 0.87798 0
M  V30 16626 H 1619.72 -3.26592 -0.023234 0
M  V30 16627 H 1618.38 -3.00926 2.09378 0
M  V30 16628 H 1618.03 -4.99268 0.61157 0
M  V30 16629 H 1617.73 -5.39859 2.32004 0
M  V30 16630 H 1619.25 -5.90873 1.53954 0
M  V30 16631 H 1620.67 -4.61246 3.40477 0
M  V30 16632 H 1619.06 -4.33779 4.14675 0
M  V30 16633 H 1620.13 -2.95731 3.8428 0
M  V30 16634 N 1621.48 -1.1533 -1.07409 0
M  V30 16635 C 1622.42 -0.849527 -2.14597 0
M  V30 16636 C 1623.39 0.197288 -1.64924 0
M  V30 16637 O 1624.58 0.0649694 -1.90689 0
M  V30 16638 C 1621.72 -0.344327 -3.43378 0
M  V30 16639 C 1620.83 -1.45264 -4.06844 0
M  V30 16640 C 1619.97 -0.90363 -5.23458 0
M  V30 16641 C 1619 -1.98892 -5.78885 0
M  V30 16642 N 1618.14 -1.45633 -6.8683 0
M  V30 16643 H 1622.98 -1.76753 -2.39922 0
M  V30 16644 H 1620.52 -0.881942 -1.17729 0
M  V30 16645 H 1622.48 -0.0331352 -4.17187 0
M  V30 16646 H 1621.11 0.536757 -3.18306 0
M  V30 16647 H 1620.16 -1.88003 -3.30695 0
M  V30 16648 H 1621.47 -2.27207 -4.44048 0
M  V30 16649 H 1620.62 -0.544945 -6.04248 0
M  V30 16650 H 1619.36 -0.0533648 -4.87671 0
M  V30 16651 H 1618.37 -2.35644 -4.96741 0
M  V30 16652 H 1619.59 -2.84295 -6.16728 0
M  V30 16653 H 1617.54 -0.628417 -6.52983 0
M  V30 16654 H 1617.46 -2.21204 -7.22914 0
M  V30 16655 H 1618.72 -1.12587 -7.71326 0
M  V30 16656 N 1622.95 1.25748 -0.950004 0
M  V30 16657 C 1623.9 2.23767 -0.43731 0
M  V30 16658 C 1624.89 1.53856 0.47088 0
M  V30 16659 O 1626.08 1.74358 0.304687 0
M  V30 16660 C 1623.21 3.4209 0.288037 0
M  V30 16661 C 1622.29 4.19274 -0.637955 0
M  V30 16662 N 1622.69 4.73909 -1.76759 0
M  V30 16663 C 1620.98 4.43772 -0.445251 0
M  V30 16664 C 1621.68 5.32323 -2.34535 0
M  V30 16665 N 1620.66 5.18511 -1.63239 0
M  V30 16666 H 1624.46 2.6361 -1.29949 0
M  V30 16667 H 1621.98 1.40934 -0.806931 0
M  V30 16668 H 1623.97 4.11441 0.672433 0
M  V30 16669 H 1622.63 3.03771 1.14688 0
M  V30 16670 H 1623.64 4.71184 -2.14955 0
M  V30 16671 H 1620.32 4.15848 0.37109 0
M  V30 16672 H 1621.71 5.85411 -3.29763 0
M  V30 16673 N 1624.43 0.718038 1.40292 0
M  V30 16674 C 1625.84 0.330675 1.83748 0
M  V30 16675 C 1626.19 -1.13511 1.6003 0
M  V30 16676 O 1625.32 -1.87381 1.08247 0
M  V30 16677 C 1625.91 0.593398 3.33563 0
M  V30 16678 C 1624.47 0.259717 3.75503 0
M  V30 16679 C 1623.62 0.864537 2.63479 0
M  V30 16680 H 1626.57 0.917 1.29525 0
M  V30 16681 H 1626.59 -0.140544 3.8024 0
M  V30 16682 H 1626.1 1.66028 3.50794 0
M  V30 16683 H 1624.2 -0.802011 3.63866 0
M  V30 16684 H 1624.32 0.730427 4.73499 0
M  V30 16685 H 1622.68 0.292399 2.53016 0
M  V30 16686 H 1623.46 1.93574 2.83521 0
M  V30 16687 N 1625.91 -1.50602 0.464402 0
M  V30 16688 C 1627.32 -1.86698 0.00767586 0
M  V30 16689 C 1627.67 -1.37971 -1.39494 0
M  V30 16690 O 1626.8 -0.741843 -2.03287 0
M  V30 16691 C 1627.39 -3.38799 0.00715323 0
M  V30 16692 C 1625.95 -3.74331 -0.394077 0
M  V30 16693 C 1625.1 -2.74465 0.395495 0
M  V30 16694 H 1628.05 -1.43441 0.678996 0
M  V30 16695 H 1628.07 -3.7207 -0.796497 0
M  V30 16696 H 1627.58 -3.74234 1.02812 0
M  V30 16697 H 1625.68 -3.44495 -1.41964 0
M  V30 16698 H 1625.8 -4.78995 -0.10007 0
M  V30 16699 H 1624.16 -2.54258 -0.149903 0
M  V30 16700 H 1624.94 -3.12744 1.41585 0
M  V30 16701 N 1627.39 -0.19675 -1.56367 0
M  V30 16702 C 1628.35 0.709734 -2.17934 0
M  V30 16703 C 1629.35 1.13979 -1.13426 0
M  V30 16704 O 1630.54 1.05261 -1.38801 0
M  V30 16705 C 1627.67 1.96917 -2.78274 0
M  V30 16706 H 1628.87 0.173342 -2.99399 0
M  V30 16707 H 1626.42 0.0528698 -1.56211 0
M  V30 16708 H 1627.15 2.54804 -2.00613 0
M  V30 16709 H 1626.94 1.66951 -3.54781 0
M  V30 16710 H 1628.43 2.61554 -3.25545 0
M  V30 16711 N 1628.87 1.57413 0.0768405 0
M  V30 16712 C 1630.28 1.75776 0.629262 0
M  V30 16713 C 1630.63 0.821502 1.78173 0
M  V30 16714 O 1629.75 0.00437198 2.164 0
M  V30 16715 C 1630.35 3.18747 1.14828 0
M  V30 16716 C 1628.91 3.38472 1.64661 0
M  V30 16717 C 1628.05 2.71506 0.563884 0
M  V30 16718 H 1631.01 1.57996 -0.149312 0
M  V30 16719 H 1631.03 3.22628 2.01722 0
M  V30 16720 H 1630.54 3.86866 0.309282 0
M  V30 16721 H 1628.64 2.75461 2.50903 0
M  V30 16722 H 1628.75 4.4689 1.72703 0
M  V30 16723 H 1627.12 2.33917 1.00772 0
M  V30 16724 H 1627.9 3.42277 -0.264847 0
M  V30 16725 N 1630.34 -0.348112 1.53707 0
M  V30 16726 C 1631.31 -1.41018 1.80683 0
M  V30 16727 C 1632.31 -1.4582 0.67774 0
M  V30 16728 O 1633.5 -1.46275 0.94601 0
M  V30 16729 C 1630.63 -2.79988 1.94473 0
M  V30 16730 H 1631.82 -1.18365 2.75554 0
M  V30 16731 H 1629.38 -0.582244 1.4505 0
M  V30 16732 H 1630.11 -3.07931 1.0173 0
M  V30 16733 H 1629.9 -2.77899 2.76612 0
M  V30 16734 H 1631.39 -3.56868 2.16876 0
M  V30 16735 N 1631.82 -1.45363 -0.608876 0
M  V30 16736 C 1632.73 -1.56471 -1.74797 0
M  V30 16737 C 1633.75 -0.449225 -1.68101 0
M  V30 16738 O 1634.92 -0.709731 -1.8848 0
M  V30 16739 C 1631.99 -1.52714 -3.11254 0
M  V30 16740 C 1631.05 -2.75291 -3.29414 0
M  V30 16741 C 1630.28 -2.71704 -4.59361 0
M  V30 16742 O 1630.51 -1.78959 -5.41599 0
M  V30 16743 O 1629.44 -3.62886 -4.80205 0
M  V30 16744 H 1633.27 -2.52751 -1.68377 0
M  V30 16745 H 1630.85 -1.27859 -0.772808 0
M  V30 16746 H 1632.73 -1.53222 -3.92557 0
M  V30 16747 H 1631.41 -0.595858 -3.18169 0
M  V30 16748 H 1630.32 -2.80345 -2.47704 0
M  V30 16749 H 1631.65 -3.67541 -3.27375 0
M  V30 16750 N 1633.3 0.851265 -1.32632 0
M  V30 16751 C 1634.71 1.4217 -1.21015 0
M  V30 16752 C 1635.06 1.95409 0.175972 0
M  V30 16753 O 1634.19 1.87816 1.07489 0
M  V30 16754 C 1634.78 2.58431 -2.19086 0
M  V30 16755 C 1633.34 3.11464 -2.11346 0
M  V30 16756 C 1632.49 1.84221 -2.07263 0
M  V30 16757 H 1635.44 0.65812 -1.44411 0
M  V30 16758 H 1635.46 3.35694 -1.79137 0
M  V30 16759 H 1634.97 2.19652 -3.1996 0
M  V30 16760 H 1633.07 3.54818 -1.13732 0
M  V30 16761 H 1633.19 3.72478 -3.01325 0
M  V30 16762 H 1631.55 2.0396 -1.52553 0
M  V30 16763 H 1632.33 1.47654 -3.09924 0
M  V30 16764 N 1634.78 1.15898 1.06796 0
M  V30 16765 C 1636 0.961859 1.83747 0
M  V30 16766 C 1636.43 -0.48494 1.81741 0
M  V30 16767 O 1635.79 -1.3461 1.21449 0
M  V30 16768 C 1635.83 1.48764 3.28484 0
M  V30 16769 O 1634.94 0.690576 4.06577 0
M  V30 16770 H 1634.28 0.342664 0.568751 0
M  V30 16771 H 1636.81 1.54015 1.34687 0
M  V30 16772 H 1636.82 1.50291 3.79311 0
M  V30 16773 H 1635.49 2.54089 3.29259 0
M  V30 16774 H 1634.07 0.74539 3.65374 0
M  V30 16775 N 1636.26 -1.25243 0.956659 0
M  V30 16776 C 1637.48 -1.97621 0.629337 0
M  V30 16777 C 1637.91 -1.70606 -0.792158 0
M  V30 16778 O 1637.26 -0.963192 -1.53598 0
M  V30 16779 C 1637.31 -3.49273 0.896687 0
M  V30 16780 O 1636.42 -4.12393 -0.0234986 0
M  V30 16781 H 1635.76 -0.619472 0.239061 0
M  V30 16782 H 1638.29 -1.5931 1.28381 0
M  V30 16783 H 1638.3 -3.99597 0.82377 0
M  V30 16784 H 1636.97 -3.68265 1.93271 0
M  V30 16785 H 1635.55 -3.72761 0.101796 0
M  V30 16786 N 1637.73 -0.725468 -1.3991 0
M  V30 16787 C 1639.01 -0.195971 -1.94616 0
M  V30 16788 C 1639.39 1.30035 -1.66295 0
M  V30 16789 O 1638.74 2.06133 -0.985977 0
M  V30 16790 C 1638.95 -0.519325 -3.45115 0
M  V30 16791 C 1640.3 -0.46341 -4.22064 0
M  V30 16792 O 1641.32 -0.455958 -3.5327 0
M  V30 16793 O 1640.18 -0.449579 -5.44648 0
M  V30 16794 H 1637.27 -0.0325409 -0.82636 0
M  V30 16795 H 1639.82 -0.803676 -1.49463 0
M  V30 16796 H 1638.59 -1.55386 -3.59125 0
M  V30 16797 H 1638.22 0.117838 -3.97425 0
M  V30 16798 N 1639.21 1.50354 -0.472382 0
M  V30 16799 C 1640.14 2.3142 0.310995 0
M  V30 16800 C 1641.12 1.38383 0.989151 0
M  V30 16801 O 1642.31 1.67303 0.986074 0
M  V30 16802 C 1639.44 3.18157 1.3926 0
M  V30 16803 C 1638.39 4.19756 0.835977 0
M  V30 16804 C 1637.72 4.9524 2.01597 0
M  V30 16805 C 1639.02 5.22074 -0.15361 0
M  V30 16806 H 1640.71 2.97159 -0.365595 0
M  V30 16807 H 1638.26 1.42905 -0.177266 0
M  V30 16808 H 1640.21 3.73666 1.94813 0
M  V30 16809 H 1638.94 2.50305 2.09798 0
M  V30 16810 H 1637.59 3.65351 0.302414 0
M  V30 16811 H 1637.24 4.2386 2.70836 0
M  V30 16812 H 1636.94 5.63966 1.64974 0
M  V30 16813 H 1638.47 5.53584 2.57637 0
M  V30 16814 H 1639.88 5.72446 0.312783 0
M  V30 16815 H 1638.28 5.98527 -0.43418 0
M  V30 16816 H 1639.35 4.72741 -1.07908 0
M  V30 16817 N 1640.69 0.205039 1.56261 0
M  V30 16818 C 1641.65 -0.698166 2.18308 0
M  V30 16819 C 1642.65 -1.13376 1.14029 0
M  V30 16820 O 1643.84 -1.04524 1.39357 0
M  V30 16821 C 1640.98 -1.95438 2.79315 0
M  V30 16822 H 1642.17 -0.157462 2.99486 0
M  V30 16823 H 1639.72 -0.0445849 1.56236 0
M  V30 16824 H 1640.46 -2.53736 2.01962 0
M  V30 16825 H 1640.24 -1.65068 3.55662 0
M  V30 16826 H 1641.73 -2.59824 3.26927 0
M  V30 16827 N 1642.17 -1.57451 -0.0684915 0
M  V30 16828 C 1643.39 -1.92025 -0.78366 0
M  V30 16829 C 1643.82 -0.801743 -1.70158 0
M  V30 16830 O 1643.18 0.245227 -1.79634 0
M  V30 16831 C 1643.23 -3.25563 -1.55051 0
M  V30 16832 O 1642.33 -3.15029 -2.6614 0
M  V30 16833 H 1641.67 -0.628714 -0.213576 0
M  V30 16834 H 1644.2 -2.04569 -0.0357474 0
M  V30 16835 H 1644.21 -3.59516 -1.92905 0
M  V30 16836 H 1642.89 -4.06547 -0.87704 0
M  V30 16837 H 1641.46 -2.9264 -2.31119 0
M  V30 16838 N 1643.65 0.339955 -1.5389 0
M  V30 16839 C 1644.59 1.41765 -1.8213 0
M  V30 16840 C 1645.56 1.52109 -0.667235 0
M  V30 16841 O 1646.75 1.67591 -0.91203 0
M  V30 16842 C 1643.89 2.78366 -2.03977 0
M  V30 16843 C 1643 2.76785 -3.31684 0
M  V30 16844 C 1642.14 4.05125 -3.4358 0
M  V30 16845 C 1641.18 3.97787 -4.65223 0
M  V30 16846 N 1640.31 5.17825 -4.74133 0
M  V30 16847 H 1645.15 1.16984 -2.74078 0
M  V30 16848 H 1642.69 0.566618 -1.35749 0
M  V30 16849 H 1644.65 3.57755 -2.14633 0
M  V30 16850 H 1643.28 3.01491 -1.15338 0
M  V30 16851 H 1642.33 1.89481 -3.2985 0
M  V30 16852 H 1643.64 2.67241 -4.2117 0
M  V30 16853 H 1642.8 4.9294 -3.53688 0
M  V30 16854 H 1641.54 4.17455 -2.52157 0
M  V30 16855 H 1640.54 3.08357 -4.55188 0
M  V30 16856 H 1641.77 3.87037 -5.58014 0
M  V30 16857 H 1639.71 5.30691 -3.8562 0
M  V30 16858 H 1639.63 5.10552 -5.5756 0
M  V30 16859 H 1640.9 6.074 -4.88554 0
M  V30 16860 N 1645.13 1.45684 0.601159 0
M  V30 16861 C 1646.06 1.57694 1.72206 0
M  V30 16862 C 1647.04 0.428141 1.64624 0
M  V30 16863 O 1648.22 0.65209 1.82925 0
M  V30 16864 C 1645.35 1.54941 3.10822 0
M  V30 16865 C 1644.31 2.68603 3.33222 0
M  V30 16866 C 1643.63 2.50906 4.72176 0
M  V30 16867 C 1644.93 4.10568 3.22849 0
M  V30 16868 H 1646.63 2.51521 1.62412 0
M  V30 16869 H 1644.17 1.2105 0.779929 0
M  V30 16870 H 1646.12 1.61939 3.89042 0
M  V30 16871 H 1644.85 0.576471 3.21472 0
M  V30 16872 H 1643.51 2.61043 2.57394 0
M  V30 16873 H 1643.16 1.51736 4.79568 0
M  V30 16874 H 1642.86 3.27131 4.88118 0
M  V30 16875 H 1644.38 2.59767 5.52588 0
M  V30 16876 H 1645.79 4.19336 3.90935 0
M  V30 16877 H 1644.19 4.87234 3.50318 0
M  V30 16878 H 1645.26 4.32022 2.20192 0
M  V30 16879 N 1646.6 -0.84422 1.33082 0
M  V30 16880 C 1648.02 -1.13406 1.12299 0
M  V30 16881 C 1648.22 -2.013 -0.0896529 0
M  V30 16882 O 1647.28 -2.40425 -0.771493 0
M  V30 16883 C 1648.59 -1.80132 2.40776 0
M  V30 16884 C 1650.14 -1.92721 2.46632 0
M  V30 16885 C 1650.61 -2.62863 3.75056 0
M  V30 16886 N 1652.1 -2.70379 3.76097 0
M  V30 16887 C 1652.84 -3.25328 4.72175 0
M  V30 16888 N 1652.33 -3.81005 5.78625 0
M  V30 16889 N 1654.13 -3.23529 4.59658 0
M  V30 16890 H 1646.28 -0.259126 2.10813 0
M  V30 16891 H 1648.54 -0.177459 0.931242 0
M  V30 16892 H 1648.25 -1.23007 3.29488 0
M  V30 16893 H 1648.12 -2.802 2.52523 0
M  V30 16894 H 1650.51 -2.49002 1.58373 0
M  V30 16895 H 1650.59 -0.916191 2.3883 0
M  V30 16896 H 1650.23 -2.07242 4.63695 0
M  V30 16897 H 1650.16 -3.64425 3.80134 0
M  V30 16898 H 1652.65 -2.30891 2.99162 0
M  V30 16899 H 1652.97 -4.21121 6.47979 0
M  V30 16900 H 1651.31 -3.79308 5.82366 0
M  V30 16901 H 1654.5 -2.79286 3.75656 0
M  V30 16902 H 1654.68 -3.66051 5.34706 0
M  V30 16903 N 1648.08 -1.16463 -1.0618 0
M  V30 16904 C 1648.99 -0.886601 -2.17202 0
M  V30 16905 C 1650.01 0.141568 -1.73423 0
M  V30 16906 O 1651.18 -0.0353417 -2.01369 0
M  V30 16907 C 1648.25 -0.392829 -3.44467 0
M  V30 16908 C 1647.31 -1.48636 -4.02748 0
M  V30 16909 C 1646.54 -1.01606 -5.23939 0
M  V30 16910 O 1646.77 0.133753 -5.70243 0
M  V30 16911 O 1645.7 -1.80487 -5.74202 0
M  V30 16912 H 1649.53 -1.81502 -2.43497 0
M  V30 16913 H 1647.11 -0.944691 -1.15741 0
M  V30 16914 H 1648.99 -0.124501 -4.21216 0
M  V30 16915 H 1647.67 0.507566 -3.19696 0
M  V30 16916 H 1646.57 -1.80845 -3.27484 0
M  V30 16917 H 1647.91 -2.3621 -4.31817 0
M  V30 16918 N 1649.56 1.24734 -0.963288 0
M  V30 16919 C 1650.52 2.23795 -0.494824 0
M  V30 16920 C 1651.52 1.55584 0.406225 0
M  V30 16921 O 1652.71 1.73021 0.202302 0
M  V30 16922 C 1649.84 3.39715 0.283963 0
M  V30 16923 H 1651.04 2.66753 -1.37051 0
M  V30 16924 H 1648.59 1.37271 -0.747428 0
M  V30 16925 H 1649.33 3.0219 1.17693 0
M  V30 16926 H 1649.11 3.9042 -0.362586 0
M  V30 16927 H 1650.6 4.13254 0.600899 0
M  V30 16928 N 1651.04 0.732878 1.39523 0
M  V30 16929 C 1651.95 0.0930216 2.34416 0
M  V30 16930 C 1652.96 -0.724309 1.58208 0
M  V30 16931 O 1654.14 -0.653267 1.90511 0
M  V30 16932 C 1651.2 -0.805036 3.37224 0
M  V30 16933 C 1650.27 0.0243049 4.29293 0
M  V30 16934 C 1649.5 -0.830984 5.27191 0
M  V30 16935 O 1649.72 -2.06977 5.31523 0
M  V30 16936 O 1648.66 -0.260772 6.01335 0
M  V30 16937 H 1652.48 0.876179 2.90786 0
M  V30 16938 H 1650.07 0.493525 1.41013 0
M  V30 16939 H 1651.95 -1.31894 4.00228 0
M  V30 16940 H 1650.62 -1.56704 2.83241 0
M  V30 16941 H 1649.53 0.583677 3.69519 0
M  V30 16942 H 1650.86 0.748485 4.86476 0
M  V30 16943 N 1652.52 -1.50101 0.480349 0
M  V30 16944 C 1653.43 -2.32488 -0.31408 0
M  V30 16945 C 1654.44 -1.43285 -0.987186 0
M  V30 16946 O 1655.62 -1.7633 -0.973123 0
M  V30 16947 C 1652.68 -3.18203 -1.37651 0
M  V30 16948 C 1651.74 -4.23236 -0.71903 0
M  V30 16949 C 1650.98 -5.04854 -1.73084 0
M  V30 16950 O 1651.2 -4.87681 -2.95843 0
M  V30 16951 O 1650.13 -5.87748 -1.29755 0
M  V30 16952 H 1653.96 -3.01562 0.3597 0
M  V30 16953 H 1651.54 -1.47427 0.242029 0
M  V30 16954 H 1653.43 -3.71362 -1.9917 0
M  V30 16955 H 1652.1 -2.51846 -2.0336 0
M  V30 16956 H 1651.01 -3.74044 -0.0646492 0
M  V30 16957 H 1652.34 -4.92089 -0.104743 0
M  V30 16958 N 1653.99 -0.213323 -1.5615 0
M  V30 16959 C 1655.22 0.425688 -2.02473 0
M  V30 16960 C 1655.64 1.53926 -1.09326 0
M  V30 16961 O 1654.99 1.82218 -0.101364 0
M  V30 16962 C 1655.04 0.965021 -3.48381 0
M  V30 16963 O 1654.77 -0.104145 -4.37976 0
M  V30 16964 C 1656.27 1.6781 -4.10311 0
M  V30 16965 H 1653.49 0.105064 -0.662724 0
M  V30 16966 H 1656.03 -0.327369 -2.01863 0
M  V30 16967 H 1654.19 1.66838 -3.49634 0
M  V30 16968 H 1654.6 0.299985 -5.23641 0
M  V30 16969 H 1656.07 2.00757 -5.14199 0
M  V30 16970 H 1656.55 2.58833 -3.54827 0
M  V30 16971 H 1657.16 1.02014 -4.12884 0
M  V30 16972 N 1655.47 1.57485 0.0601405 0
M  V30 16973 C 1656.4 2.01233 1.09717 0
M  V30 16974 C 1657.42 0.92008 1.34307 0
M  V30 16975 O 1658.61 1.19783 1.32342 0
M  V30 16976 C 1655.71 2.3461 2.44564 0
M  V30 16977 C 1654.88 3.65828 2.39768 0
M  V30 16978 C 1653.94 3.86743 3.56814 0
M  V30 16979 O 1652.96 4.5819 3.37714 0
M  V30 16980 N 1654.17 3.29988 4.77586 0
M  V30 16981 H 1656.93 2.9081 0.724526 0
M  V30 16982 H 1654.49 1.5998 0.248613 0
M  V30 16983 H 1656.48 2.45764 3.21531 0
M  V30 16984 H 1655.05 1.50862 2.73787 0
M  V30 16985 H 1654.27 3.65319 1.48107 0
M  V30 16986 H 1655.56 4.51966 2.33675 0
M  V30 16987 H 1654.96 2.72018 4.96007 0
M  V30 16988 H 1653.52 3.46573 5.52024 0
M  V30 16989 N 1656.95 -0.331789 1.54068 0
M  V30 16990 C 1658.18 -1.09484 1.76148 0
M  V30 16991 C 1658.6 -1.81201 0.504772 0
M  V30 16992 O 1657.96 -1.7297 -0.54325 0
M  V30 16993 C 1658.01 -2.07495 2.94921 0
M  V30 16994 O 1657.11 -3.15239 2.65891 0
M  V30 16995 H 1656.45 -0.316071 0.583948 0
M  V30 16996 H 1658.98 -0.378593 2.01067 0
M  V30 16997 H 1658.99 -2.5051 3.22038 0
M  V30 16998 H 1657.67 -1.54696 3.8606 0
M  V30 16999 H 1656.24 -2.76958 2.49697 0
M  V30 17000 N 1658.43 -1.46001 -0.593424 0
M  V30 17001 C 1659.66 -1.54307 -1.3783 0
M  V30 17002 C 1660.07 -0.18048 -1.87935 0
M  V30 17003 O 1659.43 0.820427 -1.63019 0
M  V30 17004 C 1659.48 -2.53911 -2.57316 0
M  V30 17005 O 1659.2 -3.84876 -2.09289 0
M  V30 17006 C 1660.7 -2.72054 -3.50002 0
M  V30 17007 H 1657.92 -0.522149 -0.421428 0
M  V30 17008 H 1660.47 -1.91315 -0.722423 0
M  V30 17009 H 1658.62 -2.19937 -3.18915 0
M  V30 17010 H 1659.03 -4.38996 -2.87025 0
M  V30 17011 H 1660.51 -3.45692 -4.3035 0
M  V30 17012 H 1660.99 -1.78583 -4.01254 0
M  V30 17013 H 1661.59 -3.07082 -2.94246 0
M  V30 17014 N 1659.91 0.83715 -1.33527 0
M  V30 17015 C 1660.84 1.96231 -1.26553 0
M  V30 17016 C 1661.82 1.69474 -0.14576 0
M  V30 17017 O 1663 1.91274 -0.335815 0
M  V30 17018 C 1660.13 3.32419 -1.00574 0
M  V30 17019 C 1659.09 3.73577 -2.08864 0
M  V30 17020 C 1658.41 5.07591 -1.68095 0
M  V30 17021 C 1659.71 3.87179 -3.50556 0
M  V30 17022 H 1661.41 2.02324 -2.20693 0
M  V30 17023 H 1658.95 0.972038 -1.06242 0
M  V30 17024 H 1660.91 4.10703 -0.943439 0
M  V30 17025 H 1659.63 3.26587 -0.0287268 0
M  V30 17026 H 1658.29 2.97557 -2.14139 0
M  V30 17027 H 1657.94 4.98232 -0.690922 0
M  V30 17028 H 1657.64 5.361 -2.40563 0
M  V30 17029 H 1659.16 5.88349 -1.63334 0
M  V30 17030 H 1660.57 4.55771 -3.47772 0
M  V30 17031 H 1658.97 4.27127 -4.21524 0
M  V30 17032 H 1660.04 2.8958 -3.88936 0
M  V30 17033 N 1661.38 1.17024 1.05561 0
M  V30 17034 C 1662.32 0.841314 2.13201 0
M  V30 17035 C 1663.33 -0.154667 1.62064 0
M  V30 17036 O 1664.52 0.0711173 1.78358 0
M  V30 17037 C 1661.62 0.233156 3.38097 0
M  V30 17038 C 1660.79 1.27108 4.18524 0
M  V30 17039 C 1659.85 0.681364 5.2177 0
M  V30 17040 O 1658.88 1.35219 5.52906 0
M  V30 17041 N 1660.08 -0.528381 5.7809 0
M  V30 17042 H 1662.84 1.76773 2.42015 0
M  V30 17043 H 1660.4 1.06858 1.21626 0
M  V30 17044 H 1662.4 -0.174565 4.04323 0
M  V30 17045 H 1660.97 -0.596965 3.06847 0
M  V30 17046 H 1660.19 1.85469 3.47843 0
M  V30 17047 H 1661.47 1.97129 4.6906 0
M  V30 17048 H 1660.87 -1.09141 5.55072 0
M  V30 17049 H 1659.43 -0.878214 6.45857 0
M  V30 17050 N 1662.86 -1.24221 0.969889 0
M  V30 17051 C 1663.83 -2.23529 0.506686 0
M  V30 17052 C 1664.83 -1.55797 -0.397968 0
M  V30 17053 O 1666.02 -1.73126 -0.193124 0
M  V30 17054 C 1663.15 -3.39861 -0.265943 0
M  V30 17055 H 1664.34 -2.66022 1.38463 0
M  V30 17056 H 1661.89 -1.36872 0.754698 0
M  V30 17057 H 1662.63 -3.0281 -1.16089 0
M  V30 17058 H 1662.41 -3.90222 0.383286 0
M  V30 17059 H 1663.9 -4.13567 -0.578975 0
M  V30 17060 N 1664.34 -0.740267 -1.39132 0
M  V30 17061 C 1665.25 -0.105452 -2.34363 0
M  V30 17062 C 1666.27 0.715908 -1.5859 0
M  V30 17063 O 1667.44 0.643155 -1.90855 0
M  V30 17064 C 1664.51 0.787141 -3.37646 0
M  V30 17065 C 1663.57 -0.047071 -4.29274 0
M  V30 17066 C 1662.8 0.803014 -5.27624 0
M  V30 17067 O 1663.02 2.04155 -5.32613 0
M  V30 17068 O 1661.96 0.228879 -6.01465 0
M  V30 17069 H 1665.78 -0.891588 -2.90318 0
M  V30 17070 H 1663.37 -0.500996 -1.40749 0
M  V30 17071 H 1665.25 1.29769 -4.00921 0
M  V30 17072 H 1663.93 1.552 -2.84068 0
M  V30 17073 H 1662.83 -0.603265 -3.69204 0
M  V30 17074 H 1664.17 -0.774273 -4.86072 0
M  V30 17075 N 1665.82 1.49844 -0.488302 0
M  V30 17076 C 1667.06 2.04314 0.0592245 0
M  V30 17077 C 1667.42 1.36093 1.35436 0
M  V30 17078 O 1668.62 1.81212 1.98533 0
M  V30 17079 C 1666.89 3.56714 0.221371 0
M  V30 17080 S 1668.45 4.3277 0.724976 0
M  V30 17081 H 1665.27 0.710957 0.00780581 0
M  V30 17082 H 1667.87 1.84045 -0.659373 0
M  V30 17083 H 1666.58 4.03914 -0.726746 0
M  V30 17084 H 1666.11 3.81366 0.965581 0
M  V30 17085 H 1668.12 4.54285 1.99599 0
M  V30 17086 N 1667.3 0.221601 1.56034 0
M  V30 17087 C 1668.57 -0.459097 1.90136 0
M  V30 17088 C 1668.95 -1.7774 1.13894 0
M  V30 17089 O 1668.3 -2.27147 0.248285 0
M  V30 17090 C 1668.51 -0.651996 3.42856 0
M  V30 17091 C 1669.86 -0.959402 4.13619 0
M  V30 17092 O 1670.88 -0.73878 3.48454 0
M  V30 17093 O 1669.74 -1.37811 5.28839 0
M  V30 17094 H 1666.84 -0.242753 0.790569 0
M  V30 17095 H 1669.38 0.263789 1.67637 0
M  V30 17096 H 1668.15 0.277892 3.90312 0
M  V30 17097 H 1667.78 -1.42637 3.71134 0
M  V30 17098 N 1668.77 -1.57515 -0.0517878 0
M  V30 17099 C 1669.71 -2.01812 -1.08649 0
M  V30 17100 C 1670.72 -0.92719 -1.33817 0
M  V30 17101 O 1671.91 -1.20483 -1.31705 0
M  V30 17102 C 1669.01 -2.35903 -2.43316 0
M  V30 17103 C 1668.18 -3.67095 -2.37824 0
M  V30 17104 C 1667.24 -3.8863 -3.54758 0
M  V30 17105 O 1666.27 -4.59974 -3.3528 0
M  V30 17106 N 1667.47 -3.32516 -4.75829 0
M  V30 17107 H 1670.23 -2.91191 -0.709094 0
M  V30 17108 H 1667.79 -1.60109 -0.240125 0
M  V30 17109 H 1669.79 -2.47466 -3.20223 0
M  V30 17110 H 1668.36 -1.52312 -2.72983 0
M  V30 17111 H 1667.58 -3.66099 -1.46168 0
M  V30 17112 H 1668.86 -4.53199 -2.31275 0
M  V30 17113 H 1668.26 -2.74645 -4.94557 0
M  V30 17114 H 1666.82 -3.49496 -5.50178 0
M  V30 17115 N 1670.25 0.323614 -1.54242 0
M  V30 17116 C 1671.48 1.07954 -1.76152 0
M  V30 17117 C 1671.89 1.82194 -0.510099 0
M  V30 17118 O 1671.23 1.75923 0.528838 0
M  V30 17119 C 1671.3 2.12323 -2.90102 0
M  V30 17120 C 1670.96 1.57481 -4.29009 0
M  V30 17121 C 1671.96 1.01662 -5.09864 0
M  V30 17122 C 1669.64 1.61726 -4.75552 0
M  V30 17123 C 1671.64 0.508168 -6.35371 0
M  V30 17124 C 1669.32 1.10493 -6.01028 0
M  V30 17125 C 1670.32 0.551331 -6.80771 0
M  V30 17126 O 1670.01 0.0467053 -8.03886 0
M  V30 17127 H 1669.74 0.326941 -0.59168 0
M  V30 17128 H 1672.3 0.375423 -2.0194 0
M  V30 17129 H 1670.53 2.8635 -2.59885 0
M  V30 17130 H 1672.21 2.73636 -2.99796 0
M  V30 17131 H 1672.98 0.976899 -4.7506 0
M  V30 17132 H 1668.86 2.03755 -4.13527 0
M  V30 17133 H 1672.4 0.0754082 -6.97559 0
M  V30 17134 H 1668.3 1.14172 -6.35323 0
M  V30 17135 H 1669.07 0.162133 -8.18339 0
M  V30 17136 N 1671.73 1.46313 0.585673 0
M  V30 17137 C 1673.15 1.31203 0.908733 0
M  V30 17138 C 1673.35 0.281265 1.99527 0
M  V30 17139 O 1672.4 -0.317202 2.505 0
M  V30 17140 C 1673.72 2.69742 1.3289 0
M  V30 17141 C 1675.26 2.77809 1.44191 0
M  V30 17142 C 1675.74 4.16924 1.89574 0
M  V30 17143 N 1677.23 4.19327 1.96773 0
M  V30 17144 C 1677.97 5.23856 2.33157 0
M  V30 17145 N 1677.46 6.38716 2.68355 0
M  V30 17146 N 1679.25 5.11221 2.33686 0
M  V30 17147 H 1671.41 2.11989 -0.132126 0
M  V30 17148 H 1673.67 0.947993 0.00355835 0
M  V30 17149 H 1673.37 3.46465 0.604557 0
M  V30 17150 H 1673.25 2.99653 2.29102 0
M  V30 17151 H 1675.64 2.01377 2.15712 0
M  V30 17152 H 1675.72 2.51587 0.46237 0
M  V30 17153 H 1675.36 4.93851 1.18633 0
M  V30 17154 H 1675.29 4.40552 2.88481 0
M  V30 17155 H 1677.78 3.36451 1.72073 0
M  V30 17156 H 1678.09 7.14253 2.95063 0
M  V30 17157 H 1676.44 6.42082 2.66 0
M  V30 17158 H 1679.63 4.20527 2.05609 0
M  V30 17159 H 1679.8 5.92798 2.61714 0
M  V30 17160 N 1673.21 -0.830057 1.33969 0
M  V30 17161 C 1674.43 -1.62294 1.29133 0
M  V30 17162 C 1674.86 -1.87627 -0.133253 0
M  V30 17163 O 1674.22 -1.44669 -1.09272 0
M  V30 17164 C 1674.27 -2.94508 2.0808 0
M  V30 17165 O 1673.37 -3.86239 1.44544 0
M  V30 17166 H 1672.71 -0.493865 0.443839 0
M  V30 17167 H 1675.24 -1.03202 1.76665 0
M  V30 17168 H 1675.25 -3.44133 2.19173 0
M  V30 17169 H 1673.93 -2.75392 3.1166 0
M  V30 17170 H 1672.5 -3.44743 1.42151 0
M  V30 17171 N 1674.69 -1.17582 -1.04939 0
M  V30 17172 C 1675.94 -0.960189 -1.77379 0
M  V30 17173 C 1676.25 0.512001 -1.8878 0
M  V30 17174 O 1677.46 0.845912 -2.57986 0
M  V30 17175 C 1675.91 -1.66882 -3.18871 0
M  V30 17176 C 1675.52 -3.17972 -3.15591 0
M  V30 17177 C 1677.26 -1.53567 -3.95749 0
M  V30 17178 C 1675.17 -3.81513 -4.51887 0
M  V30 17179 H 1674.1 -0.35562 -0.664869 0
M  V30 17180 H 1676.75 -1.40863 -1.17601 0
M  V30 17181 H 1675.13 -1.14813 -3.78991 0
M  V30 17182 H 1676.31 -3.76995 -2.64974 0
M  V30 17183 H 1674.62 -3.31328 -2.52212 0
M  V30 17184 H 1677.22 -1.98408 -4.96526 0
M  V30 17185 H 1677.56 -0.486603 -4.13446 0
M  V30 17186 H 1678.1 -2.02868 -3.42183 0
M  V30 17187 H 1674.83 -4.86428 -4.39395 0
M  V30 17188 H 1674.35 -3.27276 -5.02643 0
M  V30 17189 H 1676.03 -3.83867 -5.20822 0
M  V30 17190 N 1676.17 1.23705 -0.976463 0
M  V30 17191 C 1677.1 2.2734 -0.532809 0
M  V30 17192 C 1678.08 1.64523 0.432012 0
M  V30 17193 O 1679.26 1.9144 0.326233 0
M  V30 17194 C 1676.39 3.46887 0.169374 0
M  V30 17195 C 1675.35 4.22031 -0.712336 0
M  V30 17196 C 1674.67 5.34561 0.121838 0
M  V30 17197 C 1675.97 4.8244 -2.00123 0
M  V30 17198 H 1677.67 2.64702 -1.39904 0
M  V30 17199 H 1675.21 1.27244 -0.674156 0
M  V30 17200 H 1677.16 4.18529 0.491028 0
M  V30 17201 H 1675.89 3.08574 1.07002 0
M  V30 17202 H 1674.55 3.522 -1.01739 0
M  V30 17203 H 1674.2 4.92489 1.0229 0
M  V30 17204 H 1673.9 5.85758 -0.464962 0
M  V30 17205 H 1675.42 6.09027 0.437963 0
M  V30 17206 H 1676.83 5.46111 -1.7446 0
M  V30 17207 H 1675.23 5.43906 -2.53548 0
M  V30 17208 H 1676.3 4.03405 -2.69059 0
M  V30 17209 N 1677.64 0.747635 1.38738 0
M  V30 17210 C 1678.61 0.124321 2.28863 0
M  V30 17211 C 1679.61 -0.653816 1.46908 0
M  V30 17212 O 1680.8 -0.480963 1.67429 0
M  V30 17213 C 1677.93 -0.832601 3.30576 0
M  V30 17214 H 1679.12 0.918492 2.85489 0
M  V30 17215 H 1676.67 0.514262 1.47598 0
M  V30 17216 H 1677.41 -1.65267 2.79029 0
M  V30 17217 H 1677.19 -0.277109 3.9112 0
M  V30 17218 H 1678.68 -1.2649 3.97982 0
M  V30 17219 N 1679.12 -1.49583 0.496242 0
M  V30 17220 C 1680.03 -2.32808 -0.289404 0
M  V30 17221 C 1681.05 -1.44324 -0.971933 0
M  V30 17222 O 1682.22 -1.77352 -0.954366 0
M  V30 17223 C 1679.29 -3.19645 -1.34269 0
M  V30 17224 C 1678.35 -4.23975 -0.6741 0
M  V30 17225 C 1677.58 -5.06661 -1.6772 0
M  V30 17226 O 1677.81 -4.90792 -2.90654 0
M  V30 17227 O 1676.74 -5.89091 -1.23514 0
M  V30 17228 H 1680.57 -3.01164 0.391664 0
M  V30 17229 H 1678.15 -1.47162 0.257652 0
M  V30 17230 H 1680.03 -3.73453 -1.9522 0
M  V30 17231 H 1678.71 -2.53989 -2.00677 0
M  V30 17232 H 1677.61 -3.74092 -0.0249732 0
M  V30 17233 H 1678.95 -4.92172 -0.0525442 0
M  V30 17234 N 1680.6 -0.229873 -1.55915 0
M  V30 17235 C 1681.83 0.404189 -2.02914 0
M  V30 17236 C 1682.24 1.52758 -1.10952 0
M  V30 17237 O 1681.6 1.82101 -0.120685 0
M  V30 17238 C 1681.65 0.928016 -3.49385 0
M  V30 17239 O 1681.37 -0.150592 -4.37841 0
M  V30 17240 C 1682.87 1.63448 -4.12067 0
M  V30 17241 H 1680.09 0.0980294 -0.663801 0
M  V30 17242 H 1682.64 -0.34876 -2.01504 0
M  V30 17243 H 1680.79 1.63121 -3.51384 0
M  V30 17244 H 1681.21 0.244429 -5.2393 0
M  V30 17245 H 1682.68 1.95292 -5.16299 0
M  V30 17246 H 1683.16 2.55055 -3.57553 0
M  V30 17247 H 1683.76 0.976292 -4.13943 0
M  V30 17248 N 1682.08 1.5754 0.0434337 0
M  V30 17249 C 1682.99 2.08996 1.06574 0
M  V30 17250 C 1684 1.02544 1.40573 0
M  V30 17251 O 1685.18 1.34192 1.50181 0
M  V30 17252 C 1682.24 2.54723 2.35196 0
M  V30 17253 C 1681.31 3.75595 2.0791 0
M  V30 17254 C 1680.54 4.19132 3.304 0
M  V30 17255 O 1680.76 3.62303 4.40559 0
M  V30 17256 O 1679.7 5.11694 3.16944 0
M  V30 17257 H 1683.52 2.96475 0.658503 0
M  V30 17258 H 1681.11 1.47129 0.259475 0
M  V30 17259 H 1682.99 2.84529 3.1084 0
M  V30 17260 H 1681.66 1.70361 2.75243 0
M  V30 17261 H 1680.57 3.5083 1.2988 0
M  V30 17262 H 1681.9 4.60897 1.72727 0
M  V30 17263 N 1683.56 -0.31543 1.54411 0
M  V30 17264 C 1684.8 -1.05033 1.72663 0
M  V30 17265 C 1685.12 -1.8828 0.507504 0
M  V30 17266 O 1684.39 -1.89968 -0.478418 0
M  V30 17267 H 1682.97 -0.39077 0.636638 0
M  V30 17268 H 1685.64 -0.3499 1.91733 0
M  V30 17269 H 1684.73 -1.71171 2.60973 0
M  V30 17270 N 1685.03 -1.46622 -0.577906 0
M  V30 17271 C 1685.97 -1.52068 -1.70148 0
M  V30 17272 C 1686.95 -0.374405 -1.58231 0
M  V30 17273 O 1688.13 -0.579245 -1.79379 0
M  V30 17274 C 1685.26 -1.40377 -3.0824 0
M  V30 17275 C 1684.3 -2.59247 -3.38664 0
M  V30 17276 S 1685.14 -4.21576 -3.30203 0
M  V30 17277 C 1686.29 -4.12401 -4.70825 0
M  V30 17278 H 1686.52 -2.4713 -1.6527 0
M  V30 17279 H 1684.06 -1.34567 -0.757045 0
M  V30 17280 H 1686.02 -1.34318 -3.87903 0
M  V30 17281 H 1684.68 -0.467354 -3.10604 0
M  V30 17282 H 1683.87 -2.47073 -4.39285 0
M  V30 17283 H 1683.47 -2.6232 -2.66579 0
M  V30 17284 H 1685.76 -3.79378 -5.61319 0
M  V30 17285 H 1686.71 -5.13037 -4.88056 0
M  V30 17286 H 1687.11 -3.43578 -4.479 0
M  V30 17287 N 1686.51 0.822941 -1.34408 0
M  V30 17288 C 1687.44 1.94878 -1.28627 0
M  V30 17289 C 1688.42 1.6931 -0.163727 0
M  V30 17290 O 1689.61 1.90908 -0.356083 0
M  V30 17291 C 1686.74 3.31333 -1.04094 0
M  V30 17292 C 1685.69 3.71341 -2.12814 0
M  V30 17293 C 1685.02 5.05779 -1.73469 0
M  V30 17294 C 1686.32 3.83439 -3.54643 0
M  V30 17295 H 1688.01 1.99972 -2.22827 0
M  V30 17296 H 1685.56 0.960715 -1.07267 0
M  V30 17297 H 1687.51 4.0968 -0.986947 0
M  V30 17298 H 1686.24 3.26539 -0.0633642 0
M  V30 17299 H 1684.89 2.95269 -2.17282 0
M  V30 17300 H 1684.54 4.97471 -0.743727 0
M  V30 17301 H 1684.24 5.33518 -2.46236 0
M  V30 17302 H 1685.77 5.86583 -1.69566 0
M  V30 17303 H 1687.18 4.52057 -3.52587 0
M  V30 17304 H 1685.58 4.22632 -4.2603 0
M  V30 17305 H 1686.65 2.85439 -3.91986 0
M  V30 17306 N 1687.99 1.18137 1.04314 0
M  V30 17307 C 1689.41 0.930523 1.29667 0
M  V30 17308 C 1689.61 -0.405336 1.97381 0
M  V30 17309 O 1688.66 -1.14025 2.25288 0
M  V30 17310 C 1689.98 2.09427 2.1578 0
M  V30 17311 C 1691.52 2.13229 2.29134 0
M  V30 17312 C 1692 3.29014 3.18612 0
M  V30 17313 N 1693.49 3.28859 3.26199 0
M  V30 17314 C 1694.22 4.15092 3.95583 0
M  V30 17315 N 1693.72 5.11453 4.67319 0
M  V30 17316 N 1695.51 4.03014 3.91837 0
M  V30 17317 H 1687.66 2.04108 0.587669 0
M  V30 17318 H 1689.93 0.89171 0.321804 0
M  V30 17319 H 1689.63 3.06023 1.73328 0
M  V30 17320 H 1689.51 2.0528 3.16449 0
M  V30 17321 H 1691.89 1.17212 2.70823 0
M  V30 17322 H 1691.98 2.21435 1.28064 0
M  V30 17323 H 1691.62 4.25302 2.77635 0
M  V30 17324 H 1691.55 3.18045 4.19708 0
M  V30 17325 H 1694.04 2.59097 2.75095 0
M  V30 17326 H 1694.35 5.7363 5.1785 0
M  V30 17327 H 1692.7 5.15415 4.66232 0
M  V30 17328 H 1695.89 3.27021 3.34925 0
M  V30 17329 H 1696.06 4.70435 4.4564 0
M  V30 17330 N 1689.47 -1.23186 0.98301 0
M  V30 17331 C 1690.75 -1.87121 0.569651 0
M  V30 17332 C 1691.13 -1.88355 -0.95319 0
M  V30 17333 O 1690.47 -1.36699 -1.831 0
M  V30 17334 C 1690.68 -3.28493 1.17871 0
M  V30 17335 C 1692.03 -4.05065 1.27308 0
M  V30 17336 O 1693.06 -3.37722 1.13236 0
M  V30 17337 O 1691.91 -5.2559 1.49723 0
M  V30 17338 H 1689.01 -0.804363 0.192171 0
M  V30 17339 H 1691.55 -1.31041 1.07826 0
M  V30 17340 H 1690.33 -3.22175 2.22078 0
M  V30 17341 H 1689.95 -3.92166 0.655087 0
M  V30 17342 N 1690.95 -0.754982 -1.38339 0
M  V30 17343 C 1691.88 -0.143678 -2.33058 0
M  V30 17344 C 1692.86 0.702022 -1.54938 0
M  V30 17345 O 1694.04 0.642922 -1.83249 0
M  V30 17346 C 1691.17 0.749194 -3.39123 0
M  V30 17347 C 1690.13 0.00611459 -4.28 0
M  V30 17348 C 1689.45 1.01733 -5.24933 0
M  V30 17349 C 1690.75 -1.1631 -5.09185 0
M  V30 17350 H 1692.45 -0.934907 -2.84429 0
M  V30 17351 H 1689.99 -0.451023 -1.36754 0
M  V30 17352 H 1691.95 1.18653 -4.04351 0
M  V30 17353 H 1690.67 1.57276 -2.86237 0
M  V30 17354 H 1689.33 -0.411816 -3.6428 0
M  V30 17355 H 1688.98 1.83499 -4.68334 0
M  V30 17356 H 1688.68 0.524783 -5.85252 0
M  V30 17357 H 1690.2 1.45395 -5.93037 0
M  V30 17358 H 1691.61 -0.803244 -5.67645 0
M  V30 17359 H 1690.01 -1.5866 -5.78746 0
M  V30 17360 H 1691.08 -1.97533 -4.42842 0
M  V30 17361 N 1692.42 1.49318 -0.504168 0
M  V30 17362 C 1693.36 2.27103 0.309327 0
M  V30 17363 C 1694.37 1.33776 0.927781 0
M  V30 17364 O 1695.56 1.59034 0.810585 0
M  V30 17365 C 1692.66 3.06277 1.45078 0
M  V30 17366 C 1691.83 4.27201 0.939045 0
M  V30 17367 C 1690.89 4.88395 1.95849 0
M  V30 17368 O 1689.92 5.4837 1.52576 0
M  V30 17369 N 1691.12 4.78328 3.28911 0
M  V30 17370 H 1693.88 2.97558 -0.35767 0
M  V30 17371 H 1691.44 1.58356 -0.336907 0
M  V30 17372 H 1693.44 3.44088 2.13038 0
M  V30 17373 H 1692.01 2.38409 2.02188 0
M  V30 17374 H 1691.23 3.9411 0.0842433 0
M  V30 17375 H 1692.51 5.05534 0.575603 0
M  V30 17376 H 1691.91 4.30707 3.66753 0
M  V30 17377 H 1690.47 5.20315 3.92576 0
M  V30 17378 N 1693.9 0.238138 1.5579 0
M  V30 17379 C 1694.85 -0.665098 2.21009 0
M  V30 17380 C 1695.82 -1.17793 1.17107 0
M  V30 17381 O 1697 -1.234 1.45523 0
M  V30 17382 C 1694.14 -1.86028 2.90667 0
M  V30 17383 C 1693.26 -1.3848 4.09203 0
M  V30 17384 C 1692.39 -2.53885 4.666 0
M  V30 17385 C 1691.43 -2.03155 5.77403 0
M  V30 17386 N 1690.57 -3.11895 6.2902 0
M  V30 17387 H 1695.41 -0.102242 2.97825 0
M  V30 17388 H 1692.95 -0.0387064 1.47049 0
M  V30 17389 H 1694.9 -2.56226 3.29248 0
M  V30 17390 H 1693.53 -2.39575 2.16341 0
M  V30 17391 H 1692.59 -0.577172 3.75996 0
M  V30 17392 H 1693.9 -0.972946 4.89219 0
M  V30 17393 H 1693.05 -3.32139 5.07709 0
M  V30 17394 H 1691.79 -2.98368 3.85782 0
M  V30 17395 H 1690.8 -1.23369 5.3578 0
M  V30 17396 H 1692.02 -1.59653 6.60067 0
M  V30 17397 H 1689.97 -3.55828 5.5111 0
M  V30 17398 H 1689.88 -2.75013 7.04204 0
M  V30 17399 H 1691.15 -3.90234 6.74787 0
M  V30 17400 N 1695.38 -1.57561 -0.0350783 0
M  V30 17401 C 1696.61 -1.93644 -0.742753 0
M  V30 17402 C 1697.03 -0.837655 -1.68419 0
M  V30 17403 O 1696.39 0.207069 -1.80114 0
M  V30 17404 C 1696.44 -3.28779 -1.48111 0
M  V30 17405 O 1695.54 -3.20604 -2.59398 0
M  V30 17406 H 1694.88 -0.633103 -0.200192 0
M  V30 17407 H 1697.41 -2.04599 0.00765271 0
M  V30 17408 H 1697.42 -3.63527 -1.85236 0
M  V30 17409 H 1696.1 -4.08316 -0.790608 0
M  V30 17410 H 1694.67 -2.97477 -2.2486 0
M  V30 17411 N 1696.86 0.307236 -1.54576 0
M  V30 17412 C 1698.1 1.04476 -1.73818 0
M  V30 17413 C 1698.44 1.87134 -0.519102 0
M  V30 17414 O 1697.71 1.88386 0.483852 0
M  V30 17415 C 1698 1.95594 -3.02349 0
M  V30 17416 C 1697.85 1.16158 -4.34543 0
M  V30 17417 C 1699.17 2.94865 -3.26715 0
M  V30 17418 H 1696.29 0.378415 -0.632433 0
M  V30 17419 H 1698.93 0.319955 -1.87287 0
M  V30 17420 H 1697.08 2.57396 -2.90997 0
M  V30 17421 H 1698.75 0.5669 -4.57803 0
M  V30 17422 H 1696.99 0.464158 -4.3131 0
M  V30 17423 H 1697.66 1.8315 -5.2073 0
M  V30 17424 H 1700.14 2.4319 -3.37636 0
M  V30 17425 H 1699.02 3.55791 -4.17976 0
M  V30 17426 H 1699.28 3.68195 -2.44714 0
M  V30 17427 N 1698.34 1.46926 0.570122 0
M  V30 17428 C 1699.25 1.6105 1.70587 0
M  V30 17429 C 1700.26 0.493636 1.66851 0
M  V30 17430 O 1701.44 0.759454 1.86532 0
M  V30 17431 C 1698.5 1.60913 3.07096 0
M  V30 17432 C 1697.56 2.83928 3.21999 0
M  V30 17433 C 1696.8 2.83788 4.51996 0
M  V30 17434 O 1697.02 1.93256 5.36664 0
M  V30 17435 O 1695.95 3.75491 4.70415 0
M  V30 17436 H 1699.78 2.57126 1.61616 0
M  V30 17437 H 1697.37 1.29863 0.738637 0
M  V30 17438 H 1699.25 1.63576 3.88356 0
M  V30 17439 H 1697.92 0.680005 3.16477 0
M  V30 17440 H 1696.83 2.86814 2.40185 0
M  V30 17441 H 1698.16 3.76091 3.17516 0
M  V30 17442 N 1699.82 -0.815801 1.34842 0
M  V30 17443 C 1700.73 -1.95886 1.29097 0
M  V30 17444 C 1701.74 -1.72876 0.197422 0
M  V30 17445 O 1702.92 -1.96861 0.425166 0
M  V30 17446 C 1699.98 -3.30311 1.05336 0
M  V30 17447 C 1699.04 -3.66279 2.23916 0
M  V30 17448 C 1698.28 -4.9429 2.01279 0
M  V30 17449 O 1698.5 -5.62012 0.974603 0
M  V30 17450 O 1697.43 -5.28302 2.88411 0
M  V30 17451 H 1701.26 -2.03678 2.25276 0
M  V30 17452 H 1698.84 -0.952243 1.1512 0
M  V30 17453 H 1700.73 -4.10806 0.938961 0
M  V30 17454 H 1699.4 -3.2347 0.122024 0
M  V30 17455 H 1698.31 -2.86198 2.40918 0
M  V30 17456 H 1699.64 -3.77814 3.15464 0
M  V30 17457 N 1701.29 -1.18689 -1.03686 0
M  V30 17458 C 1702.2 -0.932473 -2.15272 0
M  V30 17459 C 1703.22 0.104751 -1.73684 0
M  V30 17460 O 1704.4 -0.0780471 -2.01249 0
M  V30 17461 C 1701.46 -0.465807 -3.43557 0
M  V30 17462 C 1700.52 -1.57146 -3.99504 0
M  V30 17463 C 1699.75 -1.12696 -5.21666 0
M  V30 17464 O 1699.98 0.0127657 -5.70399 0
M  V30 17465 O 1698.91 -1.92627 -5.70244 0
M  V30 17466 H 1702.74 -1.86626 -2.39592 0
M  V30 17467 H 1700.32 -0.969029 -1.13711 0
M  V30 17468 H 1702.2 -0.213819 -4.20857 0
M  V30 17469 H 1700.88 0.43964 -3.20701 0
M  V30 17470 H 1699.79 -1.8775 -3.23575 0
M  V30 17471 H 1701.12 -2.45317 -4.26709 0
M  V30 17472 N 1702.77 1.22662 -0.989529 0
M  V30 17473 C 1703.68 2.28162 -0.545835 0
M  V30 17474 C 1704.7 1.69251 0.403762 0
M  V30 17475 O 1705.87 1.99563 0.271428 0
M  V30 17476 C 1702.94 3.46434 0.135808 0
M  V30 17477 C 1702 4.20673 -0.85633 0
M  V30 17478 C 1701.23 5.33298 -0.207121 0
M  V30 17479 O 1701.46 5.6157 0.99975 0
M  V30 17480 O 1700.39 5.94977 -0.910288 0
M  V30 17481 H 1704.22 2.68276 -1.42344 0
M  V30 17482 H 1701.8 1.28766 -0.757609 0
M  V30 17483 H 1703.68 4.18207 0.517776 0
M  V30 17484 H 1702.36 3.08252 0.988035 0
M  V30 17485 H 1701.26 3.51186 -1.28917 0
M  V30 17486 H 1702.6 4.62726 -1.67765 0
M  V30 17487 N 1704.25 0.762308 1.37937 0
M  V30 17488 C 1705.18 0.100528 2.28979 0
M  V30 17489 C 1706.19 -0.674409 1.48174 0
M  V30 17490 O 1707.38 -0.514059 1.70938 0
M  V30 17491 C 1704.48 -0.881478 3.27236 0
M  V30 17492 C 1703.66 -0.162349 4.37099 0
M  V30 17493 C 1702.72 -1.05636 5.15488 0
M  V30 17494 O 1701.74 -0.523636 5.66786 0
M  V30 17495 N 1702.94 -2.3836 5.29306 0
M  V30 17496 H 1705.71 0.882451 2.86414 0
M  V30 17497 H 1703.27 0.613839 1.49812 0
M  V30 17498 H 1705.26 -1.48278 3.76558 0
M  V30 17499 H 1703.83 -1.56443 2.70637 0
M  V30 17500 H 1703.05 0.61976 3.89298 0
M  V30 17501 H 1704.34 0.334928 5.07696 0
M  V30 17502 H 1703.74 -2.84087 4.89194 0
M  V30 17503 H 1702.29 -2.9352 5.8197 0
M  V30 17504 N 1705.73 -1.49049 0.51208 0
M  V30 17505 C 1706.97 -2.0278 -0.0285311 0
M  V30 17506 C 1707.31 -1.39003 -1.35617 0
M  V30 17507 O 1706.58 -0.52952 -1.87153 0
M  V30 17508 C 1706.86 -3.59701 -0.169433 0
M  V30 17509 C 1706.72 -4.33989 1.18211 0
M  V30 17510 C 1708.04 -4.30698 -0.904812 0
M  V30 17511 H 1705.16 -0.736946 -0.00889467 0
M  V30 17512 H 1707.8 -1.77959 0.66564 0
M  V30 17513 H 1705.95 -3.8098 -0.760667 0
M  V30 17514 H 1707.62 -4.24176 1.81307 0
M  V30 17515 H 1705.86 -3.9611 1.76859 0
M  V30 17516 H 1706.53 -5.42177 1.03671 0
M  V30 17517 H 1709.01 -4.14141 -0.40327 0
M  V30 17518 H 1707.89 -5.40221 -0.972264 0
M  V30 17519 H 1708.15 -3.96718 -1.95108 0
M  V30 17520 N 1707.21 -0.246397 -1.55662 0
M  V30 17521 C 1708.45 0.372173 -1.99966 0
M  V30 17522 C 1708.81 1.55602 -1.13162 0
M  V30 17523 O 1708.1 1.90685 -0.187055 0
M  V30 17524 C 1708.29 0.832225 -3.47576 0
M  V30 17525 C 1708.12 -0.305503 -4.48661 0
M  V30 17526 C 1706.89 -0.780019 -4.99243 0
M  V30 17527 C 1709.09 -1.13233 -5.0168 0
M  V30 17528 N 1707.07 -1.89021 -5.84076 0
M  V30 17529 C 1708.44 -2.09091 -5.83679 0
M  V30 17530 C 1710.5 -1.16895 -4.83984 0
M  V30 17531 C 1709.2 -3.08321 -6.4987 0
M  V30 17532 C 1711.23 -2.14955 -5.50952 0
M  V30 17533 C 1710.59 -3.09549 -6.32739 0
M  V30 17534 H 1706.69 0.102159 -0.775298 0
M  V30 17535 H 1709.27 -0.363859 -1.9127 0
M  V30 17536 H 1707.44 1.53755 -3.56671 0
M  V30 17537 H 1709.18 1.4257 -3.78756 0
M  V30 17538 H 1705.93 -0.364252 -4.72197 0
M  V30 17539 H 1706.35 -2.44806 -6.31189 0
M  V30 17540 H 1711 -0.45148 -4.20383 0
M  V30 17541 H 1708.71 -3.81017 -7.12637 0
M  V30 17542 H 1712.3 -2.18493 -5.39214 0
M  V30 17543 H 1711.18 -3.84188 -6.83644 0
M  V30 17544 N 1708.68 1.57577 0.026722 0
M  V30 17545 C 1710.1 1.54951 0.382406 0
M  V30 17546 C 1710.3 0.972826 1.76461 0
M  V30 17547 O 1709.36 0.5949 2.45392 0
M  V30 17548 C 1710.67 2.99374 0.282111 0
M  V30 17549 C 1712.22 3.10934 0.359022 0
M  V30 17550 C 1712.69 4.57093 0.28815 0
M  V30 17551 N 1714.18 4.61899 0.346873 0
M  V30 17552 C 1714.92 5.72534 0.314961 0
M  V30 17553 N 1714.41 6.92401 0.235205 0
M  V30 17554 N 1716.21 5.60915 0.364863 0
M  V30 17555 H 1708.36 1.93413 -0.877788 0
M  V30 17556 H 1710.62 0.887216 -0.333995 0
M  V30 17557 H 1710.33 3.45301 -0.667821 0
M  V30 17558 H 1710.2 3.61562 1.07484 0
M  V30 17559 H 1712.59 2.64953 1.29939 0
M  V30 17560 H 1712.67 2.51573 -0.4631 0
M  V30 17561 H 1712.31 5.03742 -0.648558 0
M  V30 17562 H 1712.24 5.14368 1.12841 0
M  V30 17563 H 1714.73 3.75659 0.410932 0
M  V30 17564 H 1715.05 7.72498 0.216019 0
M  V30 17565 H 1713.39 6.94709 0.201219 0
M  V30 17566 H 1716.58 4.66165 0.42518 0
M  V30 17567 H 1716.76 6.47126 0.336526 0
M  V30 17568 N 1710.16 -0.299034 1.54737 0
M  V30 17569 C 1711.12 -1.35199 1.85078 0
M  V30 17570 C 1712.12 -1.4359 0.723788 0
M  V30 17571 O 1713.31 -1.43191 0.992067 0
M  V30 17572 C 1710.45 -2.73659 2.03282 0
M  V30 17573 H 1711.64 -1.09538 2.7918 0
M  V30 17574 H 1709.19 -0.535803 1.46829 0
M  V30 17575 H 1709.93 -3.04539 1.11475 0
M  V30 17576 H 1709.71 -2.68959 2.85313 0
M  V30 17577 H 1711.2 -3.49787 2.28119 0
M  V30 17578 N 1711.64 -1.47227 -0.562322 0
M  V30 17579 C 1712.59 -1.59329 -1.66981 0
M  V30 17580 C 1713.56 -0.436558 -1.6026 0
M  V30 17581 O 1714.74 -0.655956 -1.7917 0
M  V30 17582 C 1711.88 -1.60874 -3.05309 0
M  V30 17583 C 1710.99 -2.87428 -3.22505 0
M  V30 17584 C 1710.13 -2.80342 -4.512 0
M  V30 17585 C 1709.17 -4.01744 -4.6181 0
M  V30 17586 N 1708.31 -3.92924 -5.81855 0
M  V30 17587 H 1713.15 -2.53921 -1.55975 0
M  V30 17588 H 1710.68 -1.25953 -0.759879 0
M  V30 17589 H 1712.64 -1.59753 -3.85402 0
M  V30 17590 H 1711.27 -0.697994 -3.15163 0
M  V30 17591 H 1710.32 -2.98439 -2.35878 0
M  V30 17592 H 1711.63 -3.77345 -3.26209 0
M  V30 17593 H 1710.79 -2.77442 -5.39547 0
M  V30 17594 H 1709.53 -1.881 -4.49966 0
M  V30 17595 H 1708.53 -4.04954 -3.71877 0
M  V30 17596 H 1709.76 -4.95107 -4.64807 0
M  V30 17597 H 1707.7 -3.03481 -5.8158 0
M  V30 17598 H 1707.62 -4.76514 -5.86916 0
M  V30 17599 H 1708.89 -3.94031 -6.72577 0
M  V30 17600 N 1713.12 0.808639 -1.35273 0
M  V30 17601 C 1714.36 1.56794 -1.28621 0
M  V30 17602 C 1714.7 1.93697 0.139686 0
M  V30 17603 O 1713.97 1.61185 1.08856 0
M  V30 17604 C 1714.25 2.85794 -2.19075 0
M  V30 17605 C 1714.11 2.5538 -3.70271 0
M  V30 17606 C 1715.43 3.87481 -2.08678 0
M  V30 17607 H 1712.55 0.568873 -0.468564 0
M  V30 17608 H 1715.19 0.930499 -1.65655 0
M  V30 17609 H 1713.34 3.40191 -1.87622 0
M  V30 17610 H 1715.01 2.07182 -4.12157 0
M  V30 17611 H 1713.25 1.88605 -3.90654 0
M  V30 17612 H 1713.92 3.47432 -4.28947 0
M  V30 17613 H 1716.4 3.42478 -2.36323 0
M  V30 17614 H 1715.28 4.75523 -2.7417 0
M  V30 17615 H 1715.54 4.29004 -1.06809 0
M  V30 17616 N 1714.6 1.19237 1.03055 0
M  V30 17617 C 1715.84 0.992008 1.76078 0
M  V30 17618 C 1716.17 -0.478535 1.89037 0
M  V30 17619 O 1715.44 -1.34666 1.42274 0
M  V30 17620 H 1714.02 0.364059 0.652281 0
M  V30 17621 H 1716.68 1.50101 1.24321 0
M  V30 17622 H 1715.77 1.43862 2.76966 0
M  V30 17623 N 1716.07 -1.22136 0.99602 0
M  V30 17624 C 1717.04 -2.22404 0.553986 0
M  V30 17625 C 1718.04 -1.56607 -0.364832 0
M  V30 17626 O 1719.23 -1.73497 -0.156358 0
M  V30 17627 C 1716.36 -3.40349 -0.193794 0
M  V30 17628 H 1717.55 -2.63026 1.44075 0
M  V30 17629 H 1715.11 -1.35241 0.78356 0
M  V30 17630 H 1715.84 -3.05204 -1.0964 0
M  V30 17631 H 1715.63 -3.89321 0.465972 0
M  V30 17632 H 1717.12 -4.14702 -0.491121 0
M  V30 17633 N 1717.55 -0.769612 -1.37531 0
M  V30 17634 C 1718.52 -0.160716 -2.28636 0
M  V30 17635 C 1719.52 0.630362 -1.47929 0
M  V30 17636 O 1720.71 0.454265 -1.68173 0
M  V30 17637 C 1717.84 0.779904 -3.31859 0
M  V30 17638 H 1719.03 -0.963794 -2.83991 0
M  V30 17639 H 1716.58 -0.537678 -1.46761 0
M  V30 17640 H 1717.32 1.60807 -2.81623 0
M  V30 17641 H 1717.1 0.21485 -3.91511 0
M  V30 17642 H 1718.59 1.20143 -3.99944 0
M  V30 17643 N 1719.03 1.48775 -0.519977 0
M  V30 17644 C 1719.94 2.33239 0.252329 0
M  V30 17645 C 1720.96 1.45852 0.948849 0
M  V30 17646 O 1722.13 1.78848 0.92603 0
M  V30 17647 C 1719.2 3.2174 1.29166 0
M  V30 17648 C 1718.26 4.24993 0.606564 0
M  V30 17649 C 1717.49 5.09266 1.59638 0
M  V30 17650 O 1717.71 4.95353 2.82809 0
M  V30 17651 O 1716.65 5.90981 1.14127 0
M  V30 17652 H 1720.47 3.00503 -0.439527 0
M  V30 17653 H 1718.06 1.46733 -0.281032 0
M  V30 17654 H 1719.94 3.76512 1.89254 0
M  V30 17655 H 1718.62 2.5715 1.96611 0
M  V30 17656 H 1717.52 3.74084 -0.0345447 0
M  V30 17657 H 1718.86 4.92193 -0.0257627 0
M  V30 17658 N 1720.51 0.254649 1.55529 0
M  V30 17659 C 1721.42 -0.652184 2.25352 0
M  V30 17660 C 1722.43 -1.18695 1.2723 0
M  V30 17661 O 1723.61 -1.22158 1.60123 0
M  V30 17662 C 1720.68 -1.829 2.94531 0
M  V30 17663 C 1719.74 -1.33294 4.08082 0
M  V30 17664 C 1718.97 -2.45367 4.73952 0
M  V30 17665 O 1719.19 -3.64271 4.38933 0
M  V30 17666 O 1718.13 -2.14684 5.62311 0
M  V30 17667 H 1721.95 -0.0871786 3.03575 0
M  V30 17668 H 1719.54 0.0228432 1.49383 0
M  V30 17669 H 1721.42 -2.5156 3.38076 0
M  V30 17670 H 1720.09 -2.38148 2.19242 0
M  V30 17671 H 1719 -0.613396 3.69037 0
M  V30 17672 H 1720.33 -0.826454 4.85212 0
M  V30 17673 N 1721.99 -1.57589 -0.0183649 0
M  V30 17674 C 1722.9 -2.10665 -1.03235 0
M  V30 17675 C 1723.91 -1.04767 -1.38924 0
M  V30 17676 O 1725.09 -1.36565 -1.48027 0
M  V30 17677 C 1722.15 -2.58432 -2.31114 0
M  V30 17678 C 1721.21 -3.78856 -2.01908 0
M  V30 17679 C 1720.45 -4.24335 -3.2369 0
M  V30 17680 O 1720.67 -3.69266 -4.3474 0
M  V30 17681 O 1719.6 -5.16671 -3.08763 0
M  V30 17682 H 1723.43 -2.97485 -0.611254 0
M  V30 17683 H 1721.02 -1.47524 -0.236035 0
M  V30 17684 H 1722.9 -2.89438 -3.06274 0
M  V30 17685 H 1721.57 -1.74718 -2.72498 0
M  V30 17686 H 1720.48 -3.52852 -1.24282 0
M  V30 17687 H 1721.81 -4.63587 -1.65373 0
M  V30 17688 N 1723.46 0.290824 -1.54893 0
M  V30 17689 C 1724.39 1.36354 -1.89551 0
M  V30 17690 C 1725.38 1.52403 -0.75546 0
M  V30 17691 O 1726.56 1.65743 -1.01208 0
M  V30 17692 C 1723.69 2.72609 -2.15178 0
M  V30 17693 C 1722.64 2.71313 -3.31019 0
M  V30 17694 C 1721.97 4.10952 -3.42085 0
M  V30 17695 C 1723.27 2.32153 -4.6787 0
M  V30 17696 H 1724.96 1.07597 -2.79398 0
M  V30 17697 H 1722.51 0.516154 -1.34432 0
M  V30 17698 H 1724.46 3.47749 -2.3801 0
M  V30 17699 H 1723.19 3.02913 -1.22112 0
M  V30 17700 H 1721.85 1.9863 -3.08126 0
M  V30 17701 H 1721.49 4.38449 -2.46518 0
M  V30 17702 H 1721.19 4.10984 -4.1996 0
M  V30 17703 H 1722.72 4.87857 -3.67189 0
M  V30 17704 H 1724.13 2.97011 -4.90364 0
M  V30 17705 H 1722.53 2.4338 -5.48531 0
M  V30 17706 H 1723.6 1.27279 -4.67897 0
M  V30 17707 N 1724.94 1.47523 0.554506 0
M  V30 17708 C 1725.87 1.56275 1.67663 0
M  V30 17709 C 1726.89 0.448743 1.56493 0
M  V30 17710 O 1728.08 0.718478 1.63402 0
M  V30 17711 C 1725.18 1.45348 3.06149 0
M  V30 17712 C 1724.35 2.71364 3.43046 0
M  V30 17713 C 1723.41 2.54237 4.60706 0
M  V30 17714 O 1722.43 3.28059 4.65152 0
M  V30 17715 N 1723.64 1.6224 5.57367 0
M  V30 17716 H 1726.4 2.53036 1.60601 0
M  V30 17717 H 1723.96 1.43936 0.741209 0
M  V30 17718 H 1725.95 1.31621 3.82698 0
M  V30 17719 H 1724.52 0.566583 3.07423 0
M  V30 17720 H 1723.74 2.99833 2.55917 0
M  V30 17721 H 1725.03 3.55017 3.64473 0
M  V30 17722 H 1724.43 1.01419 5.56534 0
M  V30 17723 H 1722.99 1.54463 6.33233 0
M  V30 17724 N 1726.42 -0.801453 1.357 0
M  V30 17725 C 1727.37 -1.91355 1.29043 0
M  V30 17726 C 1728.34 -1.65314 0.161381 0
M  V30 17727 O 1729.52 -1.87638 0.345928 0
M  V30 17728 C 1726.66 -3.27979 1.07348 0
M  V30 17729 C 1725.78 -3.66172 2.29221 0
M  V30 17730 C 1724.91 -4.91853 2.00635 0
M  V30 17731 C 1723.95 -5.22688 3.18533 0
M  V30 17732 N 1723.09 -6.3955 2.8969 0
M  V30 17733 H 1727.93 -1.96381 2.24139 0
M  V30 17734 H 1725.46 -0.960502 1.11413 0
M  V30 17735 H 1727.42 -4.06748 0.928002 0
M  V30 17736 H 1726.05 -3.22408 0.159115 0
M  V30 17737 H 1725.1 -2.82623 2.54615 0
M  V30 17738 H 1726.42 -3.84916 3.1724 0
M  V30 17739 H 1725.57 -5.78459 1.82947 0
M  V30 17740 H 1724.31 -4.75154 1.09908 0
M  V30 17741 H 1723.31 -4.34569 3.36793 0
M  V30 17742 H 1724.54 -5.41313 4.10069 0
M  V30 17743 H 1722.48 -6.24266 2.01562 0
M  V30 17744 H 1722.4 -6.58569 3.71245 0
M  V30 17745 H 1723.67 -7.29171 2.75555 0
M  V30 17746 N 1727.9 -1.19782 -1.02421 0
M  V30 17747 C 1729.12 -1.02939 -1.80051 0
M  V30 17748 C 1729.55 0.417153 -1.83416 0
M  V30 17749 O 1728.91 1.3001 -1.26361 0
M  V30 17750 C 1728.95 -1.60853 -3.22736 0
M  V30 17751 O 1728.06 -0.840999 -4.03734 0
M  V30 17752 H 1727.4 -0.363537 -0.555641 0
M  V30 17753 H 1729.93 -1.58908 -1.28878 0
M  V30 17754 H 1729.94 -1.64266 -3.73471 0
M  V30 17755 H 1728.61 -2.66135 -3.19602 0
M  V30 17756 H 1727.19 -0.880482 -3.62356 0
M  V30 17757 N 1729.38 1.21606 -1.00248 0
M  V30 17758 C 1730.79 1.42695 -0.714862 0
M  V30 17759 C 1730.99 1.88542 0.710917 0
M  V30 17760 O 1730.05 2.04535 1.48059 0
M  V30 17761 C 1731.36 2.4605 -1.72858 0
M  V30 17762 C 1732.91 2.59836 -1.74511 0
M  V30 17763 C 1733.39 3.66421 -2.74772 0
M  V30 17764 N 1734.88 3.73889 -2.73425 0
M  V30 17765 C 1735.61 4.5598 -3.47664 0
M  V30 17766 N 1735.11 5.41987 -4.31535 0
M  V30 17767 N 1736.9 4.50379 -3.36326 0
M  V30 17768 H 1729.05 0.901565 -1.92316 0
M  V30 17769 H 1731.31 0.458128 -0.829954 0
M  V30 17770 H 1731.02 2.19329 -2.74932 0
M  V30 17771 H 1730.89 3.44812 -1.5292 0
M  V30 17772 H 1733.28 2.85895 -0.731304 0
M  V30 17773 H 1733.36 1.61317 -1.98521 0
M  V30 17774 H 1733.01 3.41108 -3.76308 0
M  V30 17775 H 1732.94 4.64531 -2.48029 0
M  V30 17776 H 1735.43 3.12443 -2.12575 0
M  V30 17777 H 1735.74 6.01673 -4.84984 0
M  V30 17778 H 1734.09 5.41537 -4.35618 0
M  V30 17779 H 1737.28 3.82217 -2.70237 0
M  V30 17780 H 1737.45 5.14122 -3.9444 0
M  V30 17781 N 1730.86 0.776895 1.37121 0
M  V30 17782 C 1732.1 0.344063 1.9986 0
M  V30 17783 C 1732.43 -1.07806 1.61529 0
M  V30 17784 O 1731.71 -1.74258 0.863963 0
M  V30 17785 C 1731.99 0.493512 3.56702 0
M  V30 17786 C 1731.85 1.95842 4.04927 0
M  V30 17787 C 1733.16 -0.099097 4.39988 0
M  V30 17788 H 1730.28 0.126489 0.726064 0
M  V30 17789 H 1732.93 0.980899 1.62722 0
M  V30 17790 H 1731.08 -0.0486344 3.8847 0
M  V30 17791 H 1732.75 2.56067 3.83702 0
M  V30 17792 H 1730.99 2.46544 3.56929 0
M  V30 17793 H 1731.66 2.01402 5.13947 0
M  V30 17794 H 1734.14 0.363545 4.14509 0
M  V30 17795 H 1733.01 0.0355748 5.48888 0
M  V30 17796 H 1733.27 -1.18995 4.25785 0
M  V30 17797 N 1732.33 -1.48497 0.527859 0
M  V30 17798 C 1733.56 -2.069 -0.00302594 0
M  V30 17799 C 1733.98 -1.38469 -1.28342 0
M  V30 17800 O 1733.33 -0.471524 -1.76303 0
M  V30 17801 C 1733.38 -3.60749 -0.232871 0
M  V30 17802 O 1733.11 -4.26609 0.996797 0
M  V30 17803 C 1734.61 -4.35941 -0.804376 0
M  V30 17804 H 1731.83 -0.67021 0.0325559 0
M  V30 17805 H 1734.37 -1.90916 0.732897 0
M  V30 17806 H 1732.53 -3.76346 -0.918837 0
M  V30 17807 H 1732.94 -5.18725 0.776217 0
M  V30 17808 H 1734.41 -5.4437 -0.914635 0
M  V30 17809 H 1734.89 -4.00225 -1.80876 0
M  V30 17810 H 1735.5 -4.25017 -0.155041 0
M  V30 17811 N 1733.81 -0.262893 -1.55392 0
M  V30 17812 C 1735.06 0.357895 -1.99617 0
M  V30 17813 C 1735.39 1.56415 -1.151 0
M  V30 17814 O 1734.67 1.93273 -0.218139 0
M  V30 17815 C 1734.95 0.752095 -3.52158 0
M  V30 17816 C 1734.8 -0.460658 -4.47435 0
M  V30 17817 C 1736.12 1.59314 -4.10253 0
M  V30 17818 H 1733.24 0.128612 -0.725691 0
M  V30 17819 H 1735.88 -0.367399 -1.86414 0
M  V30 17820 H 1734.03 1.37006 -3.6354 0
M  V30 17821 H 1735.7 -1.09918 -4.48013 0
M  V30 17822 H 1733.95 -1.10093 -4.19597 0
M  V30 17823 H 1734.62 -0.141262 -5.51819 0
M  V30 17824 H 1737.09 1.07135 -4.02071 0
M  V30 17825 H 1735.97 1.83779 -5.1722 0
M  V30 17826 H 1736.23 2.57022 -3.59711 0
M  V30 17827 N 1735.29 1.57597 0.0100073 0
M  V30 17828 C 1736.24 2.07788 1.00463 0
M  V30 17829 C 1737.21 0.971101 1.34755 0
M  V30 17830 O 1738.39 1.2429 1.44764 0
M  V30 17831 C 1735.53 2.57769 2.29454 0
M  V30 17832 C 1734.64 3.8231 2.01153 0
M  V30 17833 C 1733.78 4.2083 3.24154 0
M  V30 17834 C 1732.82 5.38236 2.91494 0
M  V30 17835 N 1731.96 5.72096 4.07001 0
M  V30 17836 H 1736.8 2.92504 0.569675 0
M  V30 17837 H 1734.33 1.44607 0.269645 0
M  V30 17838 H 1736.29 2.84821 3.04849 0
M  V30 17839 H 1734.92 1.75942 2.70637 0
M  V30 17840 H 1733.97 3.62227 1.16171 0
M  V30 17841 H 1735.28 4.67811 1.73074 0
M  V30 17842 H 1734.44 4.49111 4.07902 0
M  V30 17843 H 1733.18 3.34019 3.55363 0
M  V30 17844 H 1732.18 5.09688 2.06151 0
M  V30 17845 H 1733.41 6.26716 2.61543 0
M  V30 17846 H 1731.35 4.88243 4.38126 0
M  V30 17847 H 1731.27 6.52148 3.82411 0
M  V30 17848 H 1732.54 6.04964 4.91567 0
M  V30 17849 N 1736.77 -0.282606 1.55045 0
M  V30 17850 C 1737.72 -1.35115 1.83652 0
M  V30 17851 C 1738.7 -1.45126 0.694788 0
M  V30 17852 O 1739.89 -1.48968 0.955898 0
M  V30 17853 C 1737.02 -2.71309 2.10348 0
M  V30 17854 C 1736.11 -2.65447 3.30755 0
M  V30 17855 N 1736.5 -2.29202 4.50888 0
M  V30 17856 C 1734.8 -2.96523 3.33152 0
M  V30 17857 C 1735.5 -2.33094 5.32956 0
M  V30 17858 N 1734.47 -2.71185 4.71126 0
M  V30 17859 H 1738.28 -1.06085 2.74086 0
M  V30 17860 H 1735.79 -0.491228 1.54792 0
M  V30 17861 H 1737.79 -3.48378 2.28995 0
M  V30 17862 H 1736.45 -3.01235 1.21192 0
M  V30 17863 H 1737.46 -2.01343 4.7716 0
M  V30 17864 H 1734.14 -3.31224 2.54159 0
M  V30 17865 H 1735.53 -2.07714 6.38987 0
M  V30 17866 N 1738.25 -1.47815 -0.546675 0
M  V30 17867 C 1739.18 -1.63976 -1.66235 0
M  V30 17868 C 1740.16 -0.488945 -1.62921 0
M  V30 17869 O 1741.34 -0.719532 -1.80378 0
M  V30 17870 C 1738.47 -1.6637 -3.04858 0
M  V30 17871 C 1737.43 -2.80785 -3.23023 0
M  V30 17872 C 1736.75 -2.68257 -4.62539 0
M  V30 17873 C 1738.05 -4.22267 -3.07388 0
M  V30 17874 H 1739.75 -2.57375 -1.52965 0
M  V30 17875 H 1737.29 -1.23861 -0.734465 0
M  V30 17876 H 1739.24 -1.76266 -3.82764 0
M  V30 17877 H 1737.97 -0.695386 -3.19111 0
M  V30 17878 H 1736.63 -2.70417 -2.47529 0
M  V30 17879 H 1736.28 -1.69431 -4.73606 0
M  V30 17880 H 1735.98 -3.45022 -4.75641 0
M  V30 17881 H 1737.5 -2.80097 -5.42566 0
M  V30 17882 H 1738.91 -4.33557 -3.75102 0
M  V30 17883 H 1737.31 -4.999 -3.31994 0
M  V30 17884 H 1738.38 -4.39897 -2.04006 0
M  V30 17885 N 1739.72 0.794246 -1.36123 0
M  V30 17886 C 1740.63 1.93807 -1.32197 0
M  V30 17887 C 1741.65 1.7254 -0.2249 0
M  V30 17888 O 1742.83 1.9616 -0.456431 0
M  V30 17889 C 1739.89 3.28593 -1.10578 0
M  V30 17890 C 1738.95 3.6267 -2.29715 0
M  V30 17891 C 1738.18 4.91025 -2.09118 0
M  V30 17892 O 1738.41 5.6039 -1.06389 0
M  V30 17893 O 1737.34 5.23647 -2.96779 0
M  V30 17894 H 1741.17 2.00068 -2.28487 0
M  V30 17895 H 1738.75 0.933808 -1.16621 0
M  V30 17896 H 1740.63 4.0926 -1.0042 0
M  V30 17897 H 1739.31 3.23235 -0.17347 0
M  V30 17898 H 1738.22 2.82329 -2.4544 0
M  V30 17899 H 1739.55 3.72747 -3.21435 0
M  V30 17900 N 1741.2 1.20323 1.01785 0
M  V30 17901 C 1742.11 0.966603 2.13761 0
M  V30 17902 C 1743.13 -0.0771059 1.73829 0
M  V30 17903 O 1744.3 0.110054 2.01099 0
M  V30 17904 C 1741.37 0.520405 3.42772 0
M  V30 17905 C 1740.43 1.63482 3.96954 0
M  V30 17906 C 1739.66 1.20981 5.19807 0
M  V30 17907 O 1739.89 0.0779814 5.70347 0
M  V30 17908 O 1738.82 2.01674 5.67108 0
M  V30 17909 H 1742.65 1.90414 2.36593 0
M  V30 17910 H 1740.23 0.986997 1.12155 0
M  V30 17911 H 1742.11 0.280747 4.20464 0
M  V30 17912 H 1740.79 -0.388563 3.21359 0
M  V30 17913 H 1739.69 1.92874 3.20547 0
M  V30 17914 H 1741.03 2.52074 4.22752 0
M  V30 17915 N 1742.68 -1.21073 1.00892 0
M  V30 17916 C 1743.93 -1.89559 0.689214 0
M  V30 17917 C 1744.24 -1.79211 -0.783753 0
M  V30 17918 O 1745.45 -2.42761 -1.2157 0
M  V30 17919 C 1743.9 -3.39925 1.18232 0
M  V30 17920 C 1743.51 -3.58876 2.68164 0
M  V30 17921 C 1745.26 -4.14014 0.937683 0
M  V30 17922 C 1743.16 -5.03027 3.10995 0
M  V30 17923 H 1742.09 -0.709895 0.254098 0
M  V30 17924 H 1744.74 -1.37017 1.2206 0
M  V30 17925 H 1743.13 -3.91745 0.578961 0
M  V30 17926 H 1744.3 -3.17478 3.33983 0
M  V30 17927 H 1742.61 -2.98146 2.90685 0
M  V30 17928 H 1745.21 -5.20285 1.23319 0
M  V30 17929 H 1745.55 -4.16109 -0.126003 0
M  V30 17930 H 1746.09 -3.68271 1.50403 0
M  V30 17931 H 1742.83 -5.06082 4.16607 0
M  V30 17932 H 1742.35 -5.45266 2.49891 0
M  V30 17933 H 1744.03 -5.7156 3.03197 0
M  V30 17934 N 1744.16 -0.784156 -1.36707 0
M  V30 17935 C 1745.4 -0.354658 -1.99675 0
M  V30 17936 C 1745.74 1.06948 -1.62098 0
M  V30 17937 O 1745.01 1.73798 -0.873192 0
M  V30 17938 C 1745.3 -0.512421 -3.56435 0
M  V30 17939 C 1745.15 -1.97987 -4.03883 0
M  V30 17940 C 1746.47 0.075762 -4.40035 0
M  V30 17941 H 1743.59 -0.130338 -0.725383 0
M  V30 17942 H 1746.23 -0.989515 -1.62199 0
M  V30 17943 H 1744.38 0.0280323 -3.8849 0
M  V30 17944 H 1746.05 -2.58098 -3.82339 0
M  V30 17945 H 1744.29 -2.48433 -3.55617 0
M  V30 17946 H 1744.96 -2.04125 -5.12871 0
M  V30 17947 H 1747.44 -0.385522 -4.1431 0
M  V30 17948 H 1746.32 -0.0646832 -5.48862 0
M  V30 17949 H 1746.58 1.16735 -4.2641 0
M  V30 17950 N 1745.64 1.48215 -0.535727 0
M  V30 17951 C 1746.55 2.33494 0.227577 0
M  V30 17952 C 1747.56 1.4685 0.933327 0
M  V30 17953 O 1748.74 1.7982 0.907008 0
M  V30 17954 C 1745.8 3.23092 1.25747 0
M  V30 17955 C 1744.86 4.25613 0.561454 0
M  V30 17956 C 1744.1 5.1093 1.54228 0
M  V30 17957 O 1744.32 4.98325 2.77539 0
M  V30 17958 O 1743.25 5.92158 1.07852 0
M  V30 17959 H 1747.08 3.0002 -0.471375 0
M  V30 17960 H 1744.67 1.46427 -0.296579 0
M  V30 17961 H 1746.55 3.78498 1.8525 0
M  V30 17962 H 1745.22 2.5922 1.93872 0
M  V30 17963 H 1744.13 3.74026 -0.0742194 0
M  V30 17964 H 1745.46 4.92138 -0.0779649 0
M  V30 17965 N 1747.11 0.27113 1.5525 0
M  V30 17966 C 1748.06 -0.618069 2.2237 0
M  V30 17967 C 1749.03 -1.15282 1.19579 0
M  V30 17968 O 1750.22 -1.20285 1.48108 0
M  V30 17969 C 1747.36 -1.79821 2.94548 0
M  V30 17970 C 1746.47 -1.29769 4.12049 0
M  V30 17971 C 1745.6 -2.43931 4.7188 0
M  V30 17972 C 1744.64 -1.90862 5.81582 0
M  V30 17973 N 1743.78 -2.98482 6.35494 0
M  V30 17974 H 1748.62 -0.0390456 2.97974 0
M  V30 17975 H 1746.16 -0.00750636 1.47098 0
M  V30 17976 H 1748.12 -2.49184 3.34609 0
M  V30 17977 H 1746.75 -2.34933 2.21374 0
M  V30 17978 H 1745.8 -0.497288 3.77136 0
M  V30 17979 H 1747.11 -0.868957 4.91173 0
M  V30 17980 H 1746.26 -3.21295 5.1464 0
M  V30 17981 H 1745 -2.90118 3.92024 0
M  V30 17982 H 1744.01 -1.11977 5.38276 0
M  V30 17983 H 1745.23 -1.45616 6.63304 0
M  V30 17984 H 1743.18 -3.44058 5.58534 0
M  V30 17985 H 1743.1 -2.60014 7.09879 0
M  V30 17986 H 1744.36 -3.75833 6.82913 0
M  V30 17987 N 1748.59 -1.576 -0.00164943 0
M  V30 17988 C 1749.52 -2.11354 -0.992554 0
M  V30 17989 C 1750.5 -1.0223 -1.35952 0
M  V30 17990 O 1751.69 -1.29904 -1.44356 0
M  V30 17991 C 1748.82 -2.61549 -2.28494 0
M  V30 17992 C 1747.77 -3.75185 -2.05962 0
M  V30 17993 C 1747.1 -4.11688 -3.412 0
M  V30 17994 C 1748.4 -5.02526 -1.42355 0
M  V30 17995 H 1750.09 -2.94398 -0.544986 0
M  V30 17996 H 1747.64 -1.4162 -0.260702 0
M  V30 17997 H 1749.59 -2.97782 -2.98168 0
M  V30 17998 H 1748.32 -1.75625 -2.75361 0
M  V30 17999 H 1746.97 -3.39343 -1.38714 0
M  V30 18000 H 1746.62 -3.22789 -3.85767 0
M  V30 18001 H 1746.32 -4.88246 -3.2694 0
M  V30 18002 H 1747.85 -4.50478 -4.12192 0
M  V30 18003 H 1749.26 -5.3654 -2.01984 0
M  V30 18004 H 1747.66 -5.83878 -1.38589 0
M  V30 18005 H 1748.73 -4.83308 -0.392565 0
M  V30 18006 N 1750.07 0.274379 -1.55193 0
M  V30 18007 C 1751.02 1.33913 -1.87978 0
M  V30 18008 C 1751.99 1.49142 -0.731149 0
M  V30 18009 O 1753.17 1.63572 -0.98229 0
M  V30 18010 C 1750.31 2.69464 -2.156 0
M  V30 18011 C 1749.43 2.62468 -3.43125 0
M  V30 18012 C 1748.56 3.90188 -3.60453 0
M  V30 18013 C 1747.6 3.77697 -4.81675 0
M  V30 18014 N 1746.74 4.97249 -4.95669 0
M  V30 18015 H 1751.58 1.05254 -2.78793 0
M  V30 18016 H 1749.11 0.508532 -1.3803 0
M  V30 18017 H 1751.07 3.48329 -2.29614 0
M  V30 18018 H 1749.7 2.96328 -1.28021 0
M  V30 18019 H 1748.75 1.7532 -3.3759 0
M  V30 18020 H 1750.07 2.49137 -4.32125 0
M  V30 18021 H 1749.22 4.77495 -3.74277 0
M  V30 18022 H 1747.96 4.06384 -2.69635 0
M  V30 18023 H 1746.96 2.88774 -4.67857 0
M  V30 18024 H 1748.19 3.63022 -5.73927 0
M  V30 18025 H 1746.13 5.13858 -4.07781 0
M  V30 18026 H 1746.05 4.86444 -5.78712 0
M  V30 18027 H 1747.32 5.86132 -5.13877 0
M  V30 18028 N 1751.55 1.48103 0.538828 0
M  V30 18029 C 1752.8 1.55362 1.29256 0
M  V30 18030 C 1753.12 0.225427 1.93693 0
M  V30 18031 O 1752.39 -0.75228 1.8088 0
M  V30 18032 H 1750.97 0.57233 0.480049 0
M  V30 18033 H 1753.63 1.84514 0.627749 0
M  V30 18034 H 1752.73 2.32998 2.07649 0
M  V30 18035 N 1753.03 -0.787016 1.36542 0
M  V30 18036 C 1753.94 -1.93103 1.33223 0
M  V30 18037 C 1754.95 -1.72419 0.234047 0
M  V30 18038 O 1756.13 -1.95915 0.466828 0
M  V30 18039 C 1753.19 -3.28002 1.12319 0
M  V30 18040 C 1752.25 -3.61447 2.31635 0
M  V30 18041 C 1751.49 -4.89909 2.11719 0
M  V30 18042 O 1751.71 -5.59818 1.0936 0
M  V30 18043 O 1750.64 -5.22065 2.99552 0
M  V30 18044 H 1754.47 -1.98853 2.29545 0
M  V30 18045 H 1752.06 -0.92761 1.17114 0
M  V30 18046 H 1753.94 -4.08722 1.02589 0
M  V30 18047 H 1752.61 -3.23138 0.19061 0
M  V30 18048 H 1751.52 -2.81024 2.46934 0
M  V30 18049 H 1752.85 -3.71037 3.23407 0
M  V30 18050 N 1754.5 -1.20861 -1.01145 0
M  V30 18051 C 1755.43 -0.986058 -2.11658 0
M  V30 18052 C 1756.42 0.0867558 -1.69879 0
M  V30 18053 O 1757.6 -0.0717892 -1.94067 0
M  V30 18054 C 1754.73 -0.542938 -3.4303 0
M  V30 18055 C 1753.68 -1.55958 -3.98574 0
M  V30 18056 C 1753.01 -0.972917 -5.25774 0
M  V30 18057 C 1754.31 -2.94471 -4.31375 0
M  V30 18058 H 1756 -1.91035 -2.30534 0
M  V30 18059 H 1753.55 -0.919914 -1.10786 0
M  V30 18060 H 1755.5 -0.374446 -4.19733 0
M  V30 18061 H 1754.23 0.416988 -3.23927 0
M  V30 18062 H 1752.89 -1.71552 -3.23984 0
M  V30 18063 H 1752.53 -0.00490446 -5.03 0
M  V30 18064 H 1752.23 -1.65194 -5.63901 0
M  V30 18065 H 1753.76 -0.815607 -6.05128 0
M  V30 18066 H 1755.17 -2.82358 -4.98946 0
M  V30 18067 H 1753.57 -3.59327 -4.80629 0
M  V30 18068 H 1754.64 -3.45804 -3.39923 0
M  V30 18069 N 1755.98 1.20536 -1.01532 0
M  V30 18070 C 1756.89 2.26953 -0.594109 0
M  V30 18071 C 1757.91 1.70069 0.367771 0
M  V30 18072 O 1759.08 2.00093 0.229036 0
M  V30 18073 C 1756.15 3.46644 0.0622939 0
M  V30 18074 C 1755.21 4.18762 -0.945368 0
M  V30 18075 C 1754.44 5.32739 -0.320195 0
M  V30 18076 O 1754.67 5.63565 0.880407 0
M  V30 18077 O 1753.6 5.92912 -1.03629 0
M  V30 18078 H 1757.43 2.65196 -1.48003 0
M  V30 18079 H 1755.01 1.2713 -0.784752 0
M  V30 18080 H 1756.89 4.19211 0.428952 0
M  V30 18081 H 1755.57 3.10279 0.922428 0
M  V30 18082 H 1754.48 3.48372 -1.36337 0
M  V30 18083 H 1755.81 4.59064 -1.77543 0
M  V30 18084 N 1757.46 0.791395 1.36289 0
M  V30 18085 C 1758.69 0.375566 2.03971 0
M  V30 18086 C 1759.11 -1.00061 1.59277 0
M  V30 18087 O 1758.47 -1.64501 0.762182 0
M  V30 18088 C 1758.52 0.449891 3.57783 0
M  V30 18089 O 1757.62 -0.54243 4.08817 0
M  V30 18090 H 1756.96 0.159181 0.644637 0
M  V30 18091 H 1759.49 1.07306 1.74203 0
M  V30 18092 H 1759.5 0.314206 4.06788 0
M  V30 18093 H 1758.18 1.45377 3.89665 0
M  V30 18094 H 1756.75 -0.368243 3.71077 0
M  V30 18095 N 1758.94 -1.47929 0.54358 0
M  V30 18096 C 1760.16 -2.07393 0.0168905 0
M  V30 18097 C 1760.59 -1.39557 -1.26117 0
M  V30 18098 O 1759.95 -0.465983 -1.75209 0
M  V30 18099 C 1760 -3.6017 -0.176105 0
M  V30 18100 O 1759.1 -3.9326 -1.24178 0
M  V30 18101 H 1758.44 -0.662459 0.0452126 0
M  V30 18102 H 1760.97 -1.90145 0.755376 0
M  V30 18103 H 1760.98 -4.06088 -0.394555 0
M  V30 18104 H 1759.66 -4.08944 0.757445 0
M  V30 18105 H 1758.23 -3.59105 -1.0049 0
M  V30 18106 N 1760.42 -0.27936 -1.55104 0
M  V30 18107 C 1761.69 0.388213 -1.91709 0
M  V30 18108 C 1762.07 1.7339 -1.20412 0
M  V30 18109 O 1761.42 2.26069 -0.332419 0
M  V30 18110 C 1761.63 0.524298 -3.45039 0
M  V30 18111 C 1762.98 0.805229 -4.16895 0
M  V30 18112 O 1764 0.608944 -3.50956 0
M  V30 18113 O 1762.86 1.18089 -5.33589 0
M  V30 18114 H 1759.96 0.213245 -0.799034 0
M  V30 18115 H 1762.5 -0.325825 -1.66543 0
M  V30 18116 H 1761.28 -0.422562 -3.89012 0
M  V30 18117 H 1760.9 1.28764 -3.76172 0
M  V30 18118 N 1761.9 1.57599 -0.0067085 0
M  V30 18119 C 1762.83 2.05706 1.01084 0
M  V30 18120 C 1763.84 0.976216 1.30284 0
M  V30 18121 O 1765.03 1.25288 1.27142 0
M  V30 18122 C 1762.13 2.44771 2.34393 0
M  V30 18123 C 1761.3 3.75668 2.24036 0
M  V30 18124 C 1760.36 4.01528 3.4009 0
M  V30 18125 O 1759.39 4.72101 3.17977 0
M  V30 18126 N 1760.59 3.49947 4.6316 0
M  V30 18127 H 1763.35 2.93622 0.600532 0
M  V30 18128 H 1760.92 1.6089 0.180536 0
M  V30 18129 H 1762.91 2.5918 3.10818 0
M  V30 18130 H 1761.48 1.62339 2.67142 0
M  V30 18131 H 1760.7 3.71272 1.3248 0
M  V30 18132 H 1761.99 4.6147 2.14295 0
M  V30 18133 H 1761.38 2.92811 4.84023 0
M  V30 18134 H 1759.94 3.69675 5.36828 0
M  V30 18135 N 1763.37 -0.266145 1.55336 0
M  V30 18136 C 1764.62 -0.998308 1.76527 0
M  V30 18137 C 1764.95 -1.85691 0.568535 0
M  V30 18138 O 1764.23 -1.89602 -0.433735 0
M  V30 18139 C 1764.51 -1.87509 3.07429 0
M  V30 18140 C 1764.36 -1.04596 4.3747 0
M  V30 18141 C 1765.68 -2.86099 3.34418 0
M  V30 18142 H 1762.8 -0.361514 0.642244 0
M  V30 18143 H 1765.44 -0.270186 1.88069 0
M  V30 18144 H 1763.59 -2.49591 2.97719 0
M  V30 18145 H 1765.27 -0.445323 4.59145 0
M  V30 18146 H 1763.51 -0.349641 4.32389 0
M  V30 18147 H 1764.18 -1.69279 5.25403 0
M  V30 18148 H 1766.66 -2.34153 3.43965 0
M  V30 18149 H 1765.53 -3.44584 4.27262 0
M  V30 18150 H 1765.79 -3.61577 2.5439 0
M  V30 18151 N 1764.85 -1.48386 -0.530967 0
M  V30 18152 C 1766.27 -1.34485 -0.859412 0
M  V30 18153 C 1766.47 -0.355124 -1.98346 0
M  V30 18154 O 1765.52 0.224012 -2.51504 0
M  V30 18155 C 1766.84 -2.74488 -1.22787 0
M  V30 18156 C 1768.38 -2.82969 -1.33781 0
M  V30 18157 C 1768.86 -4.23673 -1.7397 0
M  V30 18158 N 1770.35 -4.26341 -1.81074 0
M  V30 18159 C 1771.09 -5.32149 -2.13554 0
M  V30 18160 N 1770.58 -6.48235 -2.44464 0
M  V30 18161 N 1772.37 -5.19542 -2.14551 0
M  V30 18162 H 1764.53 -2.11352 0.210713 0
M  V30 18163 H 1766.79 -0.947472 0.0316283 0
M  V30 18164 H 1766.49 -3.4847 -0.475552 0
M  V30 18165 H 1766.37 -3.0795 -2.17823 0
M  V30 18166 H 1768.76 -2.09244 -2.08089 0
M  V30 18167 H 1768.84 -2.53129 -0.368677 0
M  V30 18168 H 1768.48 -4.97914 -1.00222 0
M  V30 18169 H 1768.41 -4.50956 -2.71931 0
M  V30 18170 H 1770.9 -3.42606 -1.59467 0
M  V30 18171 H 1771.21 -7.24712 -2.6835 0
M  V30 18172 H 1769.56 -6.51512 -2.41986 0
M  V30 18173 H 1772.75 -4.27868 -1.89859 0
M  V30 18174 H 1772.92 -6.02103 -2.39532 0
M  V30 18175 N 1766.33 0.779763 -1.36958 0
M  V30 18176 C 1767.24 1.92394 -1.34245 0
M  V30 18177 C 1768.26 1.72292 -0.243187 0
M  V30 18178 O 1769.43 1.95665 -0.477211 0
M  V30 18179 C 1766.5 3.27402 -1.14057 0
M  V30 18180 C 1765.56 3.60213 -2.33548 0
M  V30 18181 C 1764.79 4.88779 -2.14314 0
M  V30 18182 O 1765.01 5.59231 -1.12327 0
M  V30 18183 O 1763.95 5.20469 -3.02316 0
M  V30 18184 H 1767.77 1.97633 -2.30596 0
M  V30 18185 H 1765.36 0.921386 -1.17605 0
M  V30 18186 H 1767.24 4.08172 -1.04755 0
M  V30 18187 H 1765.92 3.23033 -0.207744 0
M  V30 18188 H 1764.82 2.7971 -2.48421 0
M  V30 18189 H 1766.16 3.69317 -3.25371 0
M  V30 18190 N 1767.81 1.21396 1.00503 0
M  V30 18191 C 1768.76 0.940669 2.07691 0
M  V30 18192 C 1769.74 -0.104065 1.60563 0
M  V30 18193 O 1770.93 0.104861 1.76689 0
M  V30 18194 C 1768.06 0.507176 3.39533 0
M  V30 18195 C 1767.15 1.58598 3.93329 0
M  V30 18196 N 1767.54 2.81104 4.20493 0
M  V30 18197 C 1765.84 1.45484 4.21605 0
M  V30 18198 C 1766.54 3.50775 4.64038 0
M  V30 18199 N 1765.51 2.78214 4.67009 0
M  V30 18200 H 1769.32 1.87141 2.26617 0
M  V30 18201 H 1766.83 1.10969 1.18574 0
M  V30 18202 H 1768.83 0.292749 4.15871 0
M  V30 18203 H 1767.49 -0.416806 3.22014 0
M  V30 18204 H 1768.5 3.17647 4.09049 0
M  V30 18205 H 1765.18 0.596142 4.13222 0
M  V30 18206 H 1766.57 4.55667 4.93779 0
M  V30 18207 N 1769.29 -1.19996 1.0217 0
M  V30 18208 C 1770.51 -1.93466 0.733374 0
M  V30 18209 C 1770.93 -1.75074 -0.70672 0
M  V30 18210 O 1770.29 -1.068 -1.47987 0
M  V30 18211 C 1770.34 -3.45425 1.06601 0
M  V30 18212 O 1770.06 -3.6322 2.44954 0
M  V30 18213 C 1771.56 -4.36032 0.799458 0
M  V30 18214 H 1768.78 -0.614762 0.268903 0
M  V30 18215 H 1771.32 -1.52343 1.36426 0
M  V30 18216 H 1769.48 -3.84409 0.480432 0
M  V30 18217 H 1769.89 -4.57155 2.57117 0
M  V30 18218 H 1771.37 -5.41287 1.08223 0
M  V30 18219 H 1771.84 -4.38392 -0.266279 0
M  V30 18220 H 1772.45 -4.02718 1.36743 0
M  V30 18221 N 1770.76 -0.798611 -1.35867 0
M  V30 18222 C 1771.99 -0.386378 -2.03769 0
M  V30 18223 C 1772.41 0.992154 -1.59806 0
M  V30 18224 O 1771.77 1.64094 -0.770895 0
M  V30 18225 C 1771.82 -0.468859 -3.57539 0
M  V30 18226 O 1770.92 0.520742 -4.09099 0
M  V30 18227 H 1770.26 -0.162597 -0.643784 0
M  V30 18228 H 1772.79 -1.08228 -1.73631 0
M  V30 18229 H 1772.8 -0.335775 -4.06616 0
M  V30 18230 H 1771.48 -1.47441 -3.88888 0
M  V30 18231 H 1770.06 0.348559 -3.71267 0
M  V30 18232 N 1772.24 1.47639 -0.551417 0
M  V30 18233 C 1773.19 2.26938 0.219798 0
M  V30 18234 C 1774.18 1.34006 0.890571 0
M  V30 18235 O 1775.37 1.584 0.789834 0
M  V30 18236 C 1772.5 3.19625 1.25279 0
M  V30 18237 C 1771.58 4.20036 0.585724 0
M  V30 18238 N 1771.97 5.0465 -0.34089 0
M  V30 18239 C 1770.27 4.38012 0.840352 0
M  V30 18240 C 1770.97 5.77129 -0.727814 0
M  V30 18241 N 1769.95 5.43535 -0.0839681 0
M  V30 18242 H 1773.75 2.8974 -0.492729 0
M  V30 18243 H 1771.26 1.58107 -0.370943 0
M  V30 18244 H 1773.26 3.75114 1.8192 0
M  V30 18245 H 1771.92 2.5838 1.96647 0
M  V30 18246 H 1772.93 5.12944 -0.71473 0
M  V30 18247 H 1769.61 3.87941 1.54298 0
M  V30 18248 H 1771 6.55196 -1.48888 0
M  V30 18249 N 1773.72 0.287581 1.54954 0
M  V30 18250 C 1774.65 -0.587855 2.25979 0
M  V30 18251 C 1775.63 -1.14884 1.25442 0
M  V30 18252 O 1776.82 -1.18067 1.54188 0
M  V30 18253 C 1773.95 -1.76618 2.99037 0
M  V30 18254 C 1772.9 -1.33617 4.06609 0
M  V30 18255 C 1772.23 -2.59859 4.67309 0
M  V30 18256 C 1773.53 -0.477219 5.20115 0
M  V30 18257 H 1775.22 0.00450183 2.994 0
M  V30 18258 H 1772.77 0.00360521 1.44 0
M  V30 18259 H 1774.72 -2.38461 3.4744 0
M  V30 18260 H 1773.44 -2.38457 2.23172 0
M  V30 18261 H 1772.1 -0.74088 3.59036 0
M  V30 18262 H 1771.75 -3.19983 3.88098 0
M  V30 18263 H 1771.45 -2.31793 5.3995 0
M  V30 18264 H 1772.97 -3.22528 5.18467 0
M  V30 18265 H 1774.39 -1.00096 5.64494 0
M  V30 18266 H 1772.79 -0.290913 5.99394 0
M  V30 18267 H 1773.86 0.500993 4.82305 0
M  V30 18268 N 1775.2 -1.57593 0.0150662 0
M  V30 18269 C 1776.11 -2.12807 -0.987437 0
M  V30 18270 C 1777.12 -1.07691 -1.3667 0
M  V30 18271 O 1778.3 -1.39674 -1.45097 0
M  V30 18272 C 1775.37 -2.63276 -2.2558 0
M  V30 18273 C 1774.43 -3.83053 -1.93827 0
M  V30 18274 C 1773.66 -4.31106 -3.14616 0
M  V30 18275 O 1773.88 -3.78405 -4.26809 0
M  V30 18276 O 1772.82 -5.23104 -2.97734 0
M  V30 18277 H 1776.64 -2.98715 -0.548015 0
M  V30 18278 H 1774.23 -1.47991 -0.20469 0
M  V30 18279 H 1776.11 -2.95869 -3.00066 0
M  V30 18280 H 1774.78 -1.80459 -2.68731 0
M  V30 18281 H 1773.69 -3.55409 -1.1677 0
M  V30 18282 H 1775.02 -4.6699 -1.55502 0
M  V30 18283 N 1776.68 0.257904 -1.55475 0
M  V30 18284 C 1777.64 1.30244 -1.88598 0
M  V30 18285 C 1778.64 1.4162 -0.761604 0
M  V30 18286 O 1779.83 1.4051 -1.02968 0
M  V30 18287 C 1776.96 2.68173 -2.10466 0
M  V30 18288 H 1778.15 1.02098 -2.81986 0
M  V30 18289 H 1775.71 0.496685 -1.48198 0
M  V30 18290 H 1776.44 3.01476 -1.1951 0
M  V30 18291 H 1776.23 2.61299 -2.92344 0
M  V30 18292 H 1777.72 3.43616 -2.37313 0
M  V30 18293 N 1778.15 1.48666 0.52309 0
M  V30 18294 C 1779.06 1.66396 1.65377 0
M  V30 18295 C 1780.08 0.546469 1.65196 0
M  V30 18296 O 1781.26 0.818413 1.84022 0
M  V30 18297 C 1778.32 1.70602 3.01821 0
M  V30 18298 C 1777.38 2.94028 3.12803 0
M  V30 18299 C 1776.62 2.98024 4.42739 0
M  V30 18300 O 1776.84 2.10232 5.30244 0
M  V30 18301 O 1775.77 3.90266 4.58231 0
M  V30 18302 H 1779.6 2.62138 1.53354 0
M  V30 18303 H 1777.18 1.32148 0.696948 0
M  V30 18304 H 1779.07 1.75849 3.82956 0
M  V30 18305 H 1777.74 0.780346 3.14153 0
M  V30 18306 H 1776.65 2.9431 2.30938 0
M  V30 18307 H 1777.98 3.86003 3.0539 0
M  V30 18308 N 1779.63 -0.772489 1.37369 0
M  V30 18309 C 1780.56 -1.89969 1.35772 0
M  V30 18310 C 1781.54 -1.68586 0.226452 0
M  V30 18311 O 1782.73 -1.89454 0.426692 0
M  V30 18312 C 1779.86 -3.27242 1.16319 0
M  V30 18313 C 1778.81 -3.63187 2.2645 0
M  V30 18314 C 1778.14 -4.98992 1.92121 0
M  V30 18315 C 1779.44 -3.70013 3.6863 0
M  V30 18316 H 1781.13 -1.91564 2.30095 0
M  V30 18317 H 1778.68 -0.920241 1.10759 0
M  V30 18318 H 1780.63 -4.05734 1.13832 0
M  V30 18319 H 1779.36 -3.26078 0.184513 0
M  V30 18320 H 1778.01 -2.87001 2.28091 0
M  V30 18321 H 1777.66 -4.94368 0.927848 0
M  V30 18322 H 1777.36 -5.24012 2.65867 0
M  V30 18323 H 1778.89 -5.79886 1.91219 0
M  V30 18324 H 1780.3 -4.38659 3.69122 0
M  V30 18325 H 1778.7 -4.06529 4.41423 0
M  V30 18326 H 1779.77 -2.70694 4.02309 0
M  V30 18327 N 1781.11 -1.21927 -0.998575 0
M  V30 18328 C 1782.02 -1.00049 -2.12197 0
M  V30 18329 C 1783.04 0.0494414 -1.7393 0
M  V30 18330 O 1784.21 -0.142033 -2.00899 0
M  V30 18331 C 1781.28 -0.574871 -3.41901 0
M  V30 18332 C 1780.34 -1.69776 -3.94303 0
M  V30 18333 C 1779.57 -1.29236 -5.17816 0
M  V30 18334 O 1779.79 -0.168709 -5.7015 0
M  V30 18335 O 1778.73 -2.10671 -5.63827 0
M  V30 18336 H 1782.55 -1.94154 -2.33534 0
M  V30 18337 H 1780.14 -1.00472 -1.10571 0
M  V30 18338 H 1782.02 -0.347603 -4.19964 0
M  V30 18339 H 1780.7 0.337389 -3.21937 0
M  V30 18340 H 1779.6 -1.9795 -3.17438 0
M  V30 18341 H 1780.94 -2.58768 -4.18688 0
M  V30 18342 N 1782.59 1.19452 -1.02805 0
M  V30 18343 C 1783.54 2.22644 -0.608134 0
M  V30 18344 C 1784.51 1.6175 0.377639 0
M  V30 18345 O 1785.69 1.88815 0.274487 0
M  V30 18346 C 1782.83 3.45081 0.0357589 0
M  V30 18347 C 1781.94 4.20363 -0.995955 0
M  V30 18348 C 1781.08 5.30224 -0.321911 0
M  V30 18349 C 1780.12 5.97261 -1.33959 0
M  V30 18350 N 1779.25 6.98687 -0.691414 0
M  V30 18351 H 1784.09 2.57921 -1.49268 0
M  V30 18352 H 1781.63 1.26722 -0.746985 0
M  V30 18353 H 1783.59 4.15016 0.426309 0
M  V30 18354 H 1782.22 3.10463 0.883889 0
M  V30 18355 H 1781.27 3.49381 -1.50457 0
M  V30 18356 H 1782.58 4.6636 -1.76945 0
M  V30 18357 H 1781.74 6.06574 0.123528 0
M  V30 18358 H 1780.48 4.85294 0.483792 0
M  V30 18359 H 1779.48 5.19662 -1.7953 0
M  V30 18360 H 1780.71 6.44275 -2.14678 0
M  V30 18361 H 1778.65 6.55932 0.0942121 0
M  V30 18362 H 1778.57 7.42871 -1.40281 0
M  V30 18363 H 1779.84 7.79032 -0.269948 0
M  V30 18364 N 1784.07 0.805805 1.35442 0
M  V30 18365 C 1785.02 0.188328 2.27221 0
M  V30 18366 C 1786 -0.637384 1.47737 0
M  V30 18367 O 1787.19 -0.49477 1.69944 0
M  V30 18368 C 1784.32 -0.662862 3.3684 0
M  V30 18369 C 1783.41 0.172537 4.23749 0
M  V30 18370 N 1783.8 1.23516 4.90487 0
M  V30 18371 C 1782.1 -0.0459629 4.45976 0
M  V30 18372 C 1782.8 1.74511 5.54906 0
M  V30 18373 N 1781.77 1.05168 5.3333 0
M  V30 18374 H 1785.58 1.00141 2.76313 0
M  V30 18375 H 1783.09 0.646886 1.4896 0
M  V30 18376 H 1785.09 -1.12126 4.01539 0
M  V30 18377 H 1783.75 -1.4743 2.893 0
M  V30 18378 H 1784.76 1.6178 4.91983 0
M  V30 18379 H 1781.43 -0.826604 4.09235 0
M  V30 18380 H 1782.82 2.63317 6.18154 0
M  V30 18381 N 1785.54 -1.47344 0.559239 0
M  V30 18382 C 1786.48 -2.26985 -0.235197 0
M  V30 18383 C 1787.46 -1.34177 -0.918443 0
M  V30 18384 O 1788.64 -1.63561 -0.937027 0
M  V30 18385 C 1785.77 -3.11267 -1.33532 0
M  V30 18386 C 1784.81 -4.19667 -0.760412 0
M  V30 18387 S 1785.65 -5.34044 0.394576 0
M  V30 18388 C 1786.8 -6.21891 -0.707314 0
M  V30 18389 H 1787.03 -2.94017 0.440606 0
M  V30 18390 H 1784.57 -1.50482 0.345606 0
M  V30 18391 H 1786.53 -3.60395 -1.96534 0
M  V30 18392 H 1785.19 -2.43593 -1.98296 0
M  V30 18393 H 1784.38 -4.78375 -1.58661 0
M  V30 18394 H 1783.98 -3.73429 -0.206528 0
M  V30 18395 H 1786.27 -6.58362 -1.59891 0
M  V30 18396 H 1787.22 -7.07925 -0.157535 0
M  V30 18397 H 1787.62 -5.55556 -1.0009 0
M  V30 18398 N 1787.02 -0.295795 -1.54799 0
M  V30 18399 C 1787.99 0.569699 -2.22007 0
M  V30 18400 C 1788.99 1.06535 -1.20445 0
M  V30 18401 O 1790.18 0.962212 -1.45214 0
M  V30 18402 C 1787.31 1.78821 -2.90234 0
M  V30 18403 H 1788.5 -0.0174148 -2.99895 0
M  V30 18404 H 1786.05 -0.0465813 -1.56231 0
M  V30 18405 H 1786.79 2.4153 -2.16412 0
M  V30 18406 H 1786.57 1.44051 -3.6468 0
M  V30 18407 H 1788.06 2.40321 -3.41519 0
M  V30 18408 N 1788.5 1.57583 -0.0234236 0
M  V30 18409 C 1789.46 2.08797 0.945325 0
M  V30 18410 C 1790.46 1.00189 1.25773 0
M  V30 18411 O 1791.65 1.2637 1.19901 0
M  V30 18412 C 1788.79 2.54906 2.26353 0
M  V30 18413 H 1789.98 2.95671 0.50187 0
M  V30 18414 H 1787.53 1.54679 0.224507 0
M  V30 18415 H 1788.27 1.71345 2.75339 0
M  V30 18416 H 1788.05 3.34247 2.04991 0
M  V30 18417 H 1789.54 2.94774 2.95801 0
M  V30 18418 N 1789.98 -0.249655 1.5561 0
M  V30 18419 C 1790.94 -1.29242 1.89286 0
M  V30 18420 C 1791.94 -1.41214 0.769104 0
M  V30 18421 O 1793.13 -1.39962 1.03712 0
M  V30 18422 C 1790.26 -2.67053 2.11885 0
M  V30 18423 H 1791.46 -1.00601 2.82523 0
M  V30 18424 H 1789.01 -0.488819 1.4846 0
M  V30 18425 H 1789.75 -3.00838 1.21107 0
M  V30 18426 H 1789.53 -2.59745 2.93726 0
M  V30 18427 H 1791.02 -3.42353 2.39132 0
M  V30 18428 N 1791.46 -1.48941 -0.515198 0
M  V30 18429 C 1792.68 -1.61656 -1.29931 0
M  V30 18430 C 1793.11 -0.282529 -1.85966 0
M  V30 18431 O 1792.47 0.747914 -1.65154 0
M  V30 18432 C 1792.51 -2.6774 -2.41553 0
M  V30 18433 O 1791.62 -2.25926 -3.45009 0
M  V30 18434 H 1790.96 -0.541561 -0.384197 0
M  V30 18435 H 1793.49 -1.95032 -0.618349 0
M  V30 18436 H 1793.5 -2.89471 -2.87525 0
M  V30 18437 H 1792.17 -3.64582 -2.00131 0
M  V30 18438 H 1790.75 -2.14469 -3.05053 0
M  V30 18439 N 1792.94 0.765193 -1.37777 0
M  V30 18440 C 1793.9 1.8603 -1.33886 0
M  V30 18441 C 1794.9 1.58974 -0.241614 0
M  V30 18442 O 1796.09 1.66935 -0.497843 0
M  V30 18443 C 1793.22 3.2329 -1.08151 0
M  V30 18444 H 1794.41 1.9089 -2.31303 0
M  V30 18445 H 1791.97 0.965653 -1.22902 0
M  V30 18446 H 1792.7 3.24103 -0.112926 0
M  V30 18447 H 1792.49 3.4432 -1.8758 0
M  V30 18448 H 1793.98 4.03367 -1.08095 0
M  V30 18449 N 1794.41 1.22455 0.992094 0
M  V30 18450 C 1795.32 1.01173 2.11663 0
M  V30 18451 C 1796.34 -0.0402168 1.73954 0
M  V30 18452 O 1797.52 0.152685 2.0082 0
M  V30 18453 C 1794.58 0.592995 3.41591 0
M  V30 18454 C 1793.64 1.71865 3.93397 0
M  V30 18455 C 1792.87 1.3198 5.17124 0
M  V30 18456 O 1793.1 0.198943 5.70053 0
M  V30 18457 O 1792.03 2.13658 5.62702 0
M  V30 18458 H 1795.86 1.9539 2.32501 0
M  V30 18459 H 1793.44 1.01056 1.10036 0
M  V30 18460 H 1795.32 0.36987 4.19774 0
M  V30 18461 H 1794 -0.320311 3.22111 0
M  V30 18462 H 1792.91 1.9963 3.16384 0
M  V30 18463 H 1794.24 2.60985 4.1731 0
M  V30 18464 N 1795.89 -1.18905 1.03437 0
M  V30 18465 C 1797.13 -1.90424 0.74284 0
M  V30 18466 C 1797.5 -1.78157 -0.715837 0
M  V30 18467 O 1798.7 -2.44323 -1.12069 0
M  V30 18468 C 1796.97 -3.37067 1.18831 0
M  V30 18469 S 1798.53 -4.26745 1.02146 0
M  V30 18470 H 1795.34 -0.657626 0.270275 0
M  V30 18471 H 1797.95 -1.43717 1.32535 0
M  V30 18472 H 1796.65 -3.43522 2.24545 0
M  V30 18473 H 1796.18 -3.88808 0.599328 0
M  V30 18474 H 1798.2 -4.96158 -0.0647961 0
M  V30 18475 N 1797.37 -0.812977 -1.35013 0
M  V30 18476 C 1798.3 -0.185443 -2.28449 0
M  V30 18477 C 1799.31 0.618951 -1.50575 0
M  V30 18478 O 1800.5 0.450262 -1.72728 0
M  V30 18479 C 1797.6 0.759419 -3.30282 0
M  V30 18480 C 1796.78 1.09356e-05 -4.374 0
M  V30 18481 C 1795.84 0.864309 -5.19053 0
M  V30 18482 O 1794.86 0.312916 -5.68339 0
M  V30 18483 N 1796.06 2.18551 -5.37788 0
M  V30 18484 H 1798.83 -0.988144 -2.82941 0
M  V30 18485 H 1796.39 -0.669018 -1.47431 0
M  V30 18486 H 1798.38 1.342 -3.81802 0
M  V30 18487 H 1796.95 1.4629 -2.76257 0
M  V30 18488 H 1796.17 -0.763818 -3.86729 0
M  V30 18489 H 1797.46 -0.523125 -5.06104 0
M  V30 18490 H 1796.86 2.65735 -4.99401 0
M  V30 18491 H 1795.41 2.71718 -5.92463 0
M  V30 18492 N 1798.85 1.47045 -0.567045 0
M  V30 18493 C 1799.8 2.31838 0.188075 0
M  V30 18494 C 1800.79 1.4353 0.899752 0
M  V30 18495 O 1802 1.60241 0.81992 0
M  V30 18496 H 1798.37 0.747783 0.0795226 0
M  V30 18497 H 1800.34 2.9336 -0.546121 0
M  V30 18498 C 1799.09 3.26387 1.19861 0
M  V30 18499 H 1798.41 3.94308 0.660412 0
M  V30 18500 H 1799.85 3.8853 1.69767 0
M  V30 18501 C 1798.31 2.50612 2.25157 0
M  V30 18502 O 1798.84 2.25771 3.3225 0
M  V30 18503 N 1797.05 2.11447 1.99345 0
M  V30 18504 H 1796.6 2.31849 1.12267 0
M  V30 18505 H 1796.55 1.61064 2.7001 0
M  V30 18506 N 1800.33 0.304 1.5464 0
M  V30 18507 C 1801.56 -0.306471 2.04314 0
M  V30 18508 C 1801.96 -1.47839 1.18069 0
M  V30 18509 O 1801.31 -1.82612 0.199666 0
M  V30 18510 C 1801.37 -0.822694 3.4996 0
M  V30 18511 C 1801.03 0.224343 4.56449 0
M  V30 18512 C 1802.03 1.05382 5.09108 0
M  V30 18513 C 1799.71 0.366905 5.00958 0
M  V30 18514 C 1801.71 2.01176 6.0482 0
M  V30 18515 C 1799.4 1.32829 5.96489 0
M  V30 18516 C 1800.39 2.1492 6.48304 0
M  V30 18517 O 1800.08 3.09429 7.41963 0
M  V30 18518 H 1799.81 -0.0701033 0.672355 0
M  V30 18519 H 1802.37 0.442449 2.00578 0
M  V30 18520 H 1800.6 -1.62219 3.5103 0
M  V30 18521 H 1802.29 -1.34938 3.82814 0
M  V30 18522 H 1803.05 0.954561 4.75514 0
M  V30 18523 H 1798.93 -0.262121 4.60254 0
M  V30 18524 H 1802.48 2.65291 6.45187 0
M  V30 18525 H 1798.37 1.42826 6.29501 0
M  V30 18526 H 1799.14 3.04442 7.59774 0
M  V30 18527 N 1801.8 -1.57568 0.0317802 0
M  V30 18528 C 1802.77 -2.09296 -0.934239 0
M  V30 18529 C 1803.77 -1.00855 -1.25239 0
M  V30 18530 O 1804.96 -1.27004 -1.19229 0
M  V30 18531 C 1802.09 -2.56103 -2.24998 0
M  V30 18532 H 1803.28 -2.95933 -0.486183 0
M  V30 18533 H 1800.83 -1.54796 -0.2163 0
M  V30 18534 H 1801.57 -1.72803 -2.74426 0
M  V30 18535 H 1801.35 -3.35329 -2.03216 0
M  V30 18536 H 1802.84 -2.96339 -2.94233 0
M  V30 18537 N 1803.28 0.241399 -1.5574 0
M  V30 18538 C 1804.23 1.29896 -1.90777 0
M  V30 18539 C 1805.2 1.47558 -0.76262 0
M  V30 18540 O 1806.38 1.61451 -1.01677 0
M  V30 18541 C 1803.52 2.6483 -2.21267 0
M  V30 18542 C 1802.64 2.5513 -3.48615 0
M  V30 18543 C 1801.77 3.82455 -3.68649 0
M  V30 18544 C 1800.81 3.67395 -4.89579 0
M  V30 18545 N 1799.95 4.86624 -5.06105 0
M  V30 18546 H 1804.79 0.993166 -2.80963 0
M  V30 18547 H 1802.33 0.47914 -1.39078 0
M  V30 18548 H 1804.28 3.4338 -2.36951 0
M  V30 18549 H 1802.91 2.93546 -1.34278 0
M  V30 18550 H 1801.97 1.6812 -3.41233 0
M  V30 18551 H 1803.28 2.39915 -4.37312 0
M  V30 18552 H 1802.43 4.69449 -3.84321 0
M  V30 18553 H 1801.17 4.00573 -2.78195 0
M  V30 18554 H 1800.18 2.78785 -4.73877 0
M  V30 18555 H 1801.4 3.50766 -5.81498 0
M  V30 18556 H 1799.35 5.05093 -4.18589 0
M  V30 18557 H 1799.26 4.7406 -5.889 0
M  V30 18558 H 1800.53 5.751 -5.26194 0
M  V30 18559 N 1804.76 1.49212 0.507292 0
M  V30 18560 C 1805.67 1.68141 1.63603 0
M  V30 18561 C 1806.69 0.563959 1.64607 0
M  V30 18562 O 1807.86 0.837885 1.83143 0
M  V30 18563 C 1804.93 1.73793 2.99995 0
M  V30 18564 C 1803.99 2.9733 3.09667 0
M  V30 18565 C 1803.22 3.02703 4.39553 0
M  V30 18566 O 1803.44 2.15844 5.27985 0
M  V30 18567 O 1802.38 3.95105 4.54066 0
M  V30 18568 H 1806.2 2.63749 1.50565 0
M  V30 18569 H 1803.79 1.32879 0.682893 0
M  V30 18570 H 1805.67 1.79901 3.81069 0
M  V30 18571 H 1804.35 0.813622 3.13308 0
M  V30 18572 H 1803.25 2.96743 2.27804 0
M  V30 18573 H 1804.59 3.8922 3.01278 0
M  V30 18574 N 1806.24 -0.757876 1.38181 0
M  V30 18575 C 1807.48 -1.51912 1.34352 0
M  V30 18576 C 1807.82 -1.94082 -0.0677003 0
M  V30 18577 O 1807.09 -1.65114 -1.02799 0
M  V30 18578 C 1807.38 -2.77466 2.29531 0
M  V30 18579 C 1807.23 -2.41462 3.79495 0
M  V30 18580 C 1808.55 -3.79469 2.22915 0
M  V30 18581 H 1805.67 -0.551091 0.489355 0
M  V30 18582 H 1808.31 -0.868376 1.68995 0
M  V30 18583 H 1806.46 -3.32994 2.00119 0
M  V30 18584 H 1808.13 -1.91742 4.19562 0
M  V30 18585 H 1806.37 -1.73976 3.97385 0
M  V30 18586 H 1807.04 -3.31272 4.41546 0
M  V30 18587 H 1809.52 -3.33471 2.48871 0
M  V30 18588 H 1808.4 -4.6502 2.91629 0
M  V30 18589 H 1808.66 -4.24744 1.22658 0
M  V30 18590 N 1807.72 -1.22979 -0.985586 0
M  V30 18591 C 1808.68 -1.00763 -2.05862 0
M  V30 18592 C 1809.68 0.02864 -1.60774 0
M  V30 18593 O 1810.87 -0.210593 -1.72922 0
M  V30 18594 C 1808 -0.523547 -3.36856 0
M  V30 18595 H 1809.19 -1.95982 -2.27004 0
M  V30 18596 H 1806.75 -1.0495 -1.15824 0
M  V30 18597 H 1807.48 0.432658 -3.21401 0
M  V30 18598 H 1807.27 -1.27127 -3.70919 0
M  V30 18599 H 1808.76 -0.388591 -4.15788 0
M  V30 18600 N 1809.19 1.18355 -1.04066 0
M  V30 18601 C 1810.44 1.87963 -0.742576 0
M  V30 18602 C 1810.76 1.80744 0.731899 0
M  V30 18603 O 1810.03 1.22576 1.52813 0
M  V30 18604 H 1808.61 0.69584 -0.271689 0
M  V30 18605 H 1811.28 1.43632 -1.31741 0
M  V30 18606 H 1810.37 2.93999 -1.04741 0
M  V30 18607 N 1810.67 0.820125 1.3458 0
M  V30 18608 C 1811.6 0.254709 2.32107 0
M  V30 18609 C 1812.58 -0.6273 1.58111 0
M  V30 18610 O 1813.77 -0.554759 1.86108 0
M  V30 18611 C 1810.9 -0.586541 3.42311 0
M  V30 18612 C 1809.85 0.198096 4.27541 0
M  V30 18613 C 1809.18 -0.765718 5.29189 0
M  V30 18614 C 1810.48 1.40472 5.03056 0
M  V30 18615 H 1812.17 1.06955 2.79644 0
M  V30 18616 H 1809.72 0.515756 1.34447 0
M  V30 18617 H 1811.67 -0.992259 4.09551 0
M  V30 18618 H 1810.4 -1.4344 2.93415 0
M  V30 18619 H 1809.05 0.585149 3.619 0
M  V30 18620 H 1808.7 -1.60946 4.76556 0
M  V30 18621 H 1808.4 -0.244954 5.87089 0
M  V30 18622 H 1809.93 -1.16935 5.99298 0
M  V30 18623 H 1811.34 1.07316 5.63166 0
M  V30 18624 H 1809.74 1.86092 5.70517 0
M  V30 18625 H 1810.81 2.18437 4.32913 0
M  V30 18626 N 1812.15 -1.46743 0.574835 0
M  V30 18627 C 1813.57 -1.57847 0.23591 0
M  V30 18628 C 1813.77 -1.57105 -1.26175 0
M  V30 18629 O 1812.82 -1.48382 -2.04301 0
M  V30 18630 C 1814.14 -2.87591 0.878158 0
M  V30 18631 C 1815.68 -3.01209 0.851018 0
M  V30 18632 C 1816.16 -4.33678 1.47266 0
M  V30 18633 N 1817.65 -4.40358 1.43664 0
M  V30 18634 C 1818.38 -5.41458 1.8871 0
M  V30 18635 N 1817.88 -6.49274 2.41692 0
M  V30 18636 N 1819.67 -5.3261 1.79674 0
M  V30 18637 H 1811.82 -1.45469 1.54766 0
M  V30 18638 H 1814.09 -0.69341 0.646441 0
M  V30 18639 H 1813.79 -2.93922 1.93139 0
M  V30 18640 H 1813.67 -3.75264 0.381665 0
M  V30 18641 H 1816.05 -2.94464 -0.193573 0
M  V30 18642 H 1816.14 -2.15032 1.38545 0
M  V30 18643 H 1815.78 -4.41179 2.51641 0
M  V30 18644 H 1815.71 -5.18616 0.913519 0
M  V30 18645 H 1818.2 -3.63041 1.04928 0
M  V30 18646 H 1818.51 -7.22617 2.73942 0
M  V30 18647 H 1816.86 -6.50115 2.45713 0
M  V30 18648 H 1820.05 -4.47282 1.38045 0
M  V30 18649 H 1820.22 -6.11259 2.15096 0
M  V30 18650 N 1813.63 -0.312197 -1.54477 0
M  V30 18651 C 1814.56 0.592742 -2.21403 0
M  V30 18652 C 1815.57 1.0888 -1.21033 0
M  V30 18653 O 1816.76 1.00433 -1.47565 0
M  V30 18654 C 1813.86 1.82478 -2.85578 0
M  V30 18655 C 1813.04 1.46933 -4.11982 0
M  V30 18656 C 1812.09 2.5577 -4.59857 0
M  V30 18657 O 1811.12 2.20391 -5.24801 0
M  V30 18658 N 1812.32 3.86506 -4.3312 0
M  V30 18659 H 1815.09 0.0197398 -2.99693 0
M  V30 18660 H 1812.65 -0.13489 -1.61337 0
M  V30 18661 H 1814.64 2.54657 -3.14534 0
M  V30 18662 H 1813.21 2.3059 -2.11062 0
M  V30 18663 H 1812.43 0.579677 -3.89915 0
M  V30 18664 H 1813.72 1.20739 -4.94267 0
M  V30 18665 H 1813.12 4.18053 -3.81114 0
M  V30 18666 H 1811.67 4.5495 -4.66759 0
M  V30 18667 N 1815.11 1.57549 -0.040136 0
M  V30 18668 C 1816.04 2.13912 0.936168 0
M  V30 18669 C 1817.02 1.05798 1.33194 0
M  V30 18670 O 1818.2 1.33685 1.40861 0
M  V30 18671 C 1815.33 2.67515 2.21479 0
M  V30 18672 C 1814.29 3.80513 1.95943 0
M  V30 18673 C 1813.61 4.20589 3.30165 0
M  V30 18674 C 1814.91 5.06124 1.28981 0
M  V30 18675 H 1816.61 2.9574 0.46674 0
M  V30 18676 H 1814.15 1.42262 0.223062 0
M  V30 18677 H 1816.11 3.05582 2.90168 0
M  V30 18678 H 1814.83 1.82864 2.70608 0
M  V30 18679 H 1813.49 3.42902 1.29669 0
M  V30 18680 H 1813.14 3.32904 3.77073 0
M  V30 18681 H 1812.84 4.96742 3.13881 0
M  V30 18682 H 1814.36 4.61248 4.00103 0
M  V30 18683 H 1815.77 5.41707 1.87687 0
M  V30 18684 H 1814.17 5.87347 1.2306 0
M  V30 18685 H 1815.24 4.84179 0.264286 0
M  V30 18686 N 1816.58 -0.233136 1.55866 0
M  V30 18687 C 1817.51 -1.29225 1.94482 0
M  V30 18688 C 1818.5 -1.49495 0.811503 0
M  V30 18689 O 1819.68 -1.61872 1.07289 0
M  V30 18690 C 1816.81 -2.64435 2.25147 0
M  V30 18691 C 1815.76 -2.5884 3.4086 0
M  V30 18692 C 1815.09 -3.97973 3.57102 0
M  V30 18693 C 1816.39 -2.14629 4.76164 0
M  V30 18694 H 1818.08 -0.971527 2.83199 0
M  V30 18695 H 1815.63 -0.465905 1.36255 0
M  V30 18696 H 1817.58 -3.38676 2.50752 0
M  V30 18697 H 1816.31 -2.98172 1.33271 0
M  V30 18698 H 1814.97 -1.87057 3.15286 0
M  V30 18699 H 1814.61 -4.28998 2.62621 0
M  V30 18700 H 1814.31 -3.95114 4.34924 0
M  V30 18701 H 1815.84 -4.73893 3.85043 0
M  V30 18702 H 1817.25 -2.78607 5.0105 0
M  V30 18703 H 1815.65 -2.22853 5.57186 0
M  V30 18704 H 1816.72 -1.09826 4.72299 0
M  V30 18705 N 1818.06 -1.49479 -0.499372 0
M  V30 18706 C 1818.99 -1.69182 -1.60934 0
M  V30 18707 C 1819.97 -0.54053 -1.61283 0
M  V30 18708 O 1821.16 -0.776554 -1.77998 0
M  V30 18709 C 1818.29 -1.75985 -2.99411 0
M  V30 18710 C 1817.24 -2.9092 -3.13926 0
M  V30 18711 C 1816.57 -2.82837 -4.5377 0
M  V30 18712 C 1817.87 -4.31833 -2.93799 0
M  V30 18713 H 1819.56 -2.62112 -1.44699 0
M  V30 18714 H 1817.11 -1.26135 -0.694688 0
M  V30 18715 H 1819.06 -1.88354 -3.76962 0
M  V30 18716 H 1817.79 -0.796557 -3.16737 0
M  V30 18717 H 1816.45 -2.78155 -2.388 0
M  V30 18718 H 1816.09 -1.84412 -4.67976 0
M  V30 18719 H 1815.79 -3.59979 -4.64423 0
M  V30 18720 H 1817.32 -2.97217 -5.3338 0
M  V30 18721 H 1818.73 -4.45271 -3.61119 0
M  V30 18722 H 1817.13 -5.10209 -3.15922 0
M  V30 18723 H 1818.2 -4.46165 -1.89908 0
M  V30 18724 N 1819.54 0.750537 -1.38581 0
M  V30 18725 C 1820.45 1.89503 -1.38296 0
M  V30 18726 C 1821.47 1.71738 -0.279678 0
M  V30 18727 O 1822.64 1.94608 -0.518607 0
M  V30 18728 C 1819.71 3.24909 -1.20976 0
M  V30 18729 C 1818.77 3.55178 -2.41136 0
M  V30 18730 C 1818 4.84124 -2.24633 0
M  V30 18731 O 1818.23 5.56722 -1.24164 0
M  V30 18732 O 1817.16 5.1394 -3.13288 0
M  V30 18733 H 1820.99 1.92698 -2.34737 0
M  V30 18734 H 1818.57 0.896233 -1.19533 0
M  V30 18735 H 1820.45 4.05858 -1.13389 0
M  V30 18736 H 1819.13 3.22519 -0.276217 0
M  V30 18737 H 1818.03 2.74378 -2.54298 0
M  V30 18738 H 1819.37 3.62332 -3.33131 0
M  V30 18739 N 1821.02 1.235 0.979051 0
M  V30 18740 C 1822.24 1.09551 1.76106 0
M  V30 18741 C 1822.67 -0.348792 1.84838 0
M  V30 18742 O 1822.03 -1.25231 1.31099 0
M  V30 18743 C 1822.08 1.7272 3.16544 0
M  V30 18744 O 1821.18 0.990263 4.00334 0
M  V30 18745 H 1820.52 0.383909 0.541766 0
M  V30 18746 H 1823.05 1.63581 1.22892 0
M  V30 18747 H 1823.06 1.78014 3.67117 0
M  V30 18748 H 1821.74 2.77813 3.09504 0
M  V30 18749 H 1820.31 1.01436 3.58839 0
M  V30 18750 N 1822.5 -1.17802 1.04693 0
M  V30 18751 C 1823.43 -2.21166 0.601507 0
M  V30 18752 C 1824.44 -1.59376 -0.332128 0
M  V30 18753 O 1825.63 -1.78057 -0.125653 0
M  V30 18754 C 1822.73 -3.38609 -0.140442 0
M  V30 18755 C 1821.9 -4.29973 0.802637 0
M  V30 18756 C 1820.96 -5.26099 0.102853 0
M  V30 18757 O 1819.99 -5.6443 0.735325 0
M  V30 18758 N 1821.19 -5.68761 -1.16154 0
M  V30 18759 H 1823.96 -2.60004 1.49057 0
M  V30 18760 H 1821.52 -1.3265 0.928199 0
M  V30 18761 H 1823.51 -3.99944 -0.618587 0
M  V30 18762 H 1822.08 -2.98411 -0.931117 0
M  V30 18763 H 1821.3 -3.66146 1.46051 0
M  V30 18764 H 1822.59 -4.8791 1.44296 0
M  V30 18765 H 1821.99 -5.39684 -1.6958 0
M  V30 18766 H 1820.54 -6.32264 -1.58384 0
M  V30 18767 N 1823.98 -0.827251 -1.34143 0
M  V30 18768 C 1825.2 -0.429514 -2.02904 0
M  V30 18769 C 1825.63 0.958033 -1.61874 0
M  V30 18770 O 1824.98 1.62422 -0.805528 0
M  V30 18771 C 1825.03 -0.544592 -3.56464 0
M  V30 18772 O 1824.14 0.433849 -4.10112 0
M  V30 18773 H 1823.48 -0.176216 -0.64019 0
M  V30 18774 H 1826.01 -1.11887 -1.71297 0
M  V30 18775 H 1826.02 -0.421949 -4.05812 0
M  V30 18776 H 1824.69 -1.55657 -3.85673 0
M  V30 18777 H 1823.27 0.269729 -3.71923 0
M  V30 18778 N 1825.45 1.46436 -0.582609 0
M  V30 18779 C 1826.39 2.28423 0.188509 0
M  V30 18780 C 1827.4 1.38506 0.855565 0
M  V30 18781 O 1828.59 1.63107 0.725145 0
M  V30 18782 C 1825.69 3.13537 1.28639 0
M  V30 18783 C 1824.86 4.31578 0.711275 0
M  V30 18784 C 1823.92 4.9809 1.69685 0
M  V30 18785 O 1822.95 5.55686 1.23294 0
M  V30 18786 N 1824.15 4.95091 3.03093 0
M  V30 18787 H 1826.91 2.95244 -0.514896 0
M  V30 18788 H 1824.47 1.56347 -0.420374 0
M  V30 18789 H 1826.47 3.54897 1.94499 0
M  V30 18790 H 1825.04 2.48792 1.89266 0
M  V30 18791 H 1824.26 3.94002 -0.124784 0
M  V30 18792 H 1825.54 5.07874 0.306822 0
M  V30 18793 H 1824.94 4.49542 3.43407 0
M  V30 18794 H 1823.5 5.40393 3.64443 0
M  V30 18795 N 1826.93 0.320385 1.54309 0
M  V30 18796 C 1827.86 -0.539789 2.27175 0
M  V30 18797 C 1828.84 -1.12198 1.2785 0
M  V30 18798 O 1830.03 -1.1477 1.56657 0
M  V30 18799 C 1827.16 -1.70236 3.02716 0
M  V30 18800 C 1826.11 -1.24962 4.09351 0
M  V30 18801 C 1825.44 -2.49888 4.72715 0
M  V30 18802 C 1826.74 -0.366788 5.21011 0
M  V30 18803 H 1828.43 0.0680079 2.99323 0
M  V30 18804 H 1825.98 0.0341488 1.4396 0
M  V30 18805 H 1827.93 -2.31037 3.5242 0
M  V30 18806 H 1826.65 -2.33669 2.2818 0
M  V30 18807 H 1825.31 -0.664556 3.60526 0
M  V30 18808 H 1824.96 -3.11679 3.94798 0
M  V30 18809 H 1824.66 -2.20288 5.44745 0
M  V30 18810 H 1826.19 -3.11458 5.25192 0
M  V30 18811 H 1827.6 -0.881001 5.6649 0
M  V30 18812 H 1826 -0.163707 5.99877 0
M  V30 18813 H 1827.07 0.603185 4.81134 0
M  V30 18814 N 1828.41 -1.57525 0.0484906 0
M  V30 18815 C 1829.69 -1.83927 -0.66561 0
M  V30 18816 C 1830.07 -0.93636 -1.89197 0
M  V30 18817 O 1829.41 0.00326905 -2.285 0
M  V30 18818 C 1829.62 -3.33595 -1.02545 0
M  V30 18819 C 1830.97 -4.00544 -1.40889 0
M  V30 18820 O 1832 -3.38204 -1.11787 0
M  V30 18821 O 1830.86 -5.10454 -1.95189 0
M  V30 18822 H 1827.95 -0.759042 -0.328305 0
M  V30 18823 H 1830.5 -1.69522 0.0776497 0
M  V30 18824 H 1829.27 -3.90999 -0.153456 0
M  V30 18825 H 1828.89 -3.53177 -1.82625 0
M  V30 18826 N 1829.89 0.224867 -1.55988 0
M  V30 18827 C 1830.85 1.26214 -1.91318 0
M  V30 18828 C 1831.85 1.39973 -0.791472 0
M  V30 18829 O 1833.04 1.38295 -1.05926 0
M  V30 18830 C 1830.17 2.63648 -2.16107 0
M  V30 18831 H 1831.37 0.960933 -2.84088 0
M  V30 18832 H 1828.92 0.465138 -1.49218 0
M  V30 18833 H 1829.65 2.98873 -1.25878 0
M  V30 18834 H 1829.44 2.5504 -2.97821 0
M  V30 18835 H 1830.93 3.38505 -2.44548 0
M  V30 18836 N 1831.37 1.49742 0.491438 0
M  V30 18837 C 1832.33 1.66587 1.57421 0
M  V30 18838 C 1833.33 0.537281 1.51558 0
M  V30 18839 O 1834.52 0.803928 1.5454 0
M  V30 18840 C 1831.65 1.67217 2.97071 0
M  V30 18841 H 1832.84 2.63171 1.4381 0
M  V30 18842 H 1830.4 1.38917 0.716368 0
M  V30 18843 H 1831.13 0.722529 3.16149 0
M  V30 18844 H 1830.92 2.49187 3.02734 0
M  V30 18845 H 1832.41 1.82274 3.75721 0
M  V30 18846 N 1832.84 -0.743177 1.38977 0
M  V30 18847 C 1833.79 -1.85709 1.37043 0
M  V30 18848 C 1834.76 -1.64481 0.231351 0
M  V30 18849 O 1835.95 -1.86002 0.4252 0
M  V30 18850 C 1833.09 -3.23131 1.21162 0
M  V30 18851 C 1832.2 -3.5612 2.44545 0
M  V30 18852 C 1831.33 -4.82901 2.21315 0
M  V30 18853 C 1830.37 -5.08708 3.40415 0
M  V30 18854 N 1829.51 -6.26688 3.16555 0
M  V30 18855 H 1834.35 -1.86698 2.32267 0
M  V30 18856 H 1831.89 -0.912384 1.15386 0
M  V30 18857 H 1833.85 -4.02446 1.09968 0
M  V30 18858 H 1832.48 -3.21443 0.295716 0
M  V30 18859 H 1831.53 -2.71569 2.66373 0
M  V30 18860 H 1832.84 -3.71114 3.3328 0
M  V30 18861 H 1831.99 -5.70179 2.07317 0
M  V30 18862 H 1830.73 -4.70065 1.29962 0
M  V30 18863 H 1829.74 -4.19894 3.54921 0
M  V30 18864 H 1830.96 -5.23434 4.32659 0
M  V30 18865 H 1828.91 -6.15156 2.27858 0
M  V30 18866 H 1828.83 -6.4223 3.98843 0
M  V30 18867 H 1830.09 -7.16827 3.06233 0
M  V30 18868 N 1834.32 -1.24018 -0.972487 0
M  V30 18869 C 1835.55 -1.10483 -1.75523 0
M  V30 18870 C 1835.97 0.338985 -1.8502 0
M  V30 18871 O 1835.33 1.24534 -1.31761 0
M  V30 18872 C 1835.38 -1.74396 -3.15624 0
M  V30 18873 O 1834.48 -1.01148 -3.99804 0
M  V30 18874 H 1833.82 -0.386777 -0.539722 0
M  V30 18875 H 1836.35 -1.64231 -1.22022 0
M  V30 18876 H 1836.36 -1.79958 -3.66168 0
M  V30 18877 H 1835.04 -2.7945 -3.08026 0
M  V30 18878 H 1833.62 -1.03338 -3.58296 0
M  V30 18879 N 1835.8 1.17245 -1.05316 0
M  V30 18880 C 1836.71 2.24948 -0.666011 0
M  V30 18881 C 1837.73 1.71153 0.313478 0
M  V30 18882 O 1838.9 2.00721 0.165262 0
M  V30 18883 C 1835.97 3.46667 -0.0480198 0
M  V30 18884 C 1835.03 4.15542 -1.07812 0
M  V30 18885 C 1834.26 5.3145 -0.48952 0
M  V30 18886 O 1834.48 5.6608 0.700668 0
M  V30 18887 O 1833.42 5.89315 -1.22439 0
M  V30 18888 H 1837.24 2.60353 -1.56365 0
M  V30 18889 H 1834.83 1.24569 -0.8248 0
M  V30 18890 H 1836.71 4.20364 0.295366 0
M  V30 18891 H 1835.39 3.13056 0.823248 0
M  V30 18892 H 1834.29 3.43858 -1.47351 0
M  V30 18893 H 1835.63 4.53183 -1.92057 0
M  V30 18894 N 1837.28 0.834353 1.33702 0
M  V30 18895 C 1838.24 0.269618 2.27609 0
M  V30 18896 C 1839.24 -0.559065 1.50768 0
M  V30 18897 O 1840.43 -0.373511 1.70149 0
M  V30 18898 C 1837.56 -0.620682 3.35202 0
M  V30 18899 H 1838.76 1.09819 2.79069 0
M  V30 18900 H 1836.31 0.607087 1.44028 0
M  V30 18901 H 1837.04 -1.47187 2.88975 0
M  V30 18902 H 1836.83 -0.0278102 3.9209 0
M  V30 18903 H 1838.32 -1.00924 4.05221 0
M  V30 18904 N 1838.76 -1.46125 0.590367 0
M  V30 18905 C 1839.69 -2.2852 -0.176393 0
M  V30 18906 C 1840.7 -1.38958 -0.848208 0
M  V30 18907 O 1841.89 -1.63489 -0.716485 0
M  V30 18908 C 1838.99 -3.14214 -1.26974 0
M  V30 18909 C 1838.16 -4.31949 -0.688377 0
M  V30 18910 C 1837.22 -4.98983 -1.67041 0
M  V30 18911 O 1836.25 -5.56332 -1.20345 0
M  V30 18912 N 1837.45 -4.96691 -3.00463 0
M  V30 18913 H 1840.22 -2.94967 0.530546 0
M  V30 18914 H 1837.78 -1.56122 0.42866 0
M  V30 18915 H 1839.77 -3.55924 -1.92614 0
M  V30 18916 H 1838.34 -2.49792 -1.87944 0
M  V30 18917 H 1837.56 -3.93931 0.145677 0
M  V30 18918 H 1838.85 -5.0803 -0.279884 0
M  V30 18919 H 1838.24 -4.51357 -3.41018 0
M  V30 18920 H 1836.8 -5.42318 -3.61572 0
M  V30 18921 N 1840.23 -0.328564 -1.54137 0
M  V30 18922 C 1841.18 0.535112 -2.24511 0
M  V30 18923 C 1842.15 1.10765 -1.23776 0
M  V30 18924 O 1843.34 1.14706 -1.52471 0
M  V30 18925 C 1840.48 1.68765 -3.01019 0
M  V30 18926 C 1839.59 1.14387 -4.16581 0
M  V30 18927 C 1838.72 2.26249 -4.80609 0
M  V30 18928 C 1837.76 1.69146 -5.88265 0
M  V30 18929 N 1836.9 2.74691 -6.46134 0
M  V30 18930 H 1841.74 -0.0715726 -2.97914 0
M  V30 18931 H 1839.28 -0.0470933 -1.47025 0
M  V30 18932 H 1841.24 2.36594 -3.43626 0
M  V30 18933 H 1839.87 2.26555 -2.29941 0
M  V30 18934 H 1838.92 0.356974 -3.78721 0
M  V30 18935 H 1840.23 0.686063 -4.94059 0
M  V30 18936 H 1839.38 3.01973 -5.2621 0
M  V30 18937 H 1838.12 2.75368 -4.02522 0
M  V30 18938 H 1837.13 0.919217 -5.42061 0
M  V30 18939 H 1838.35 1.20897 -6.68252 0
M  V30 18940 H 1836.3 3.23091 -5.70918 0
M  V30 18941 H 1836.22 2.33488 -7.19041 0
M  V30 18942 H 1837.48 3.50228 -6.96391 0
M  V30 18943 N 1841.71 1.57497 -0.0568439 0
M  V30 18944 C 1842.64 2.08817 0.94488 0
M  V30 18945 C 1843.66 1.01717 1.27112 0
M  V30 18946 O 1844.85 1.2927 1.23092 0
M  V30 18947 C 1841.95 2.52104 2.26488 0
M  V30 18948 C 1841.12 3.82606 2.11971 0
M  V30 18949 C 1840.18 4.12145 3.27144 0
M  V30 18950 O 1839.2 4.81978 3.02797 0
M  V30 18951 N 1840.41 3.64505 4.51792 0
M  V30 18952 H 1843.17 2.95384 0.506814 0
M  V30 18953 H 1840.73 1.61383 0.129259 0
M  V30 18954 H 1842.72 2.68938 3.02415 0
M  V30 18955 H 1841.29 1.70756 2.61842 0
M  V30 18956 H 1840.51 3.75299 1.20601 0
M  V30 18957 H 1841.8 4.68055 1.99505 0
M  V30 18958 H 1841.2 3.08061 4.74462 0
M  V30 18959 H 1839.76 3.86566 5.24795 0
M  V30 18960 N 1843.19 -0.216591 1.56105 0
M  V30 18961 C 1844.42 -0.961164 1.83784 0
M  V30 18962 C 1844.84 -1.76957 0.637792 0
M  V30 18963 O 1844.2 -1.76523 -0.413449 0
M  V30 18964 C 1844.25 -1.85047 3.095 0
M  V30 18965 O 1843.35 -2.94648 2.88542 0
M  V30 18966 H 1842.69 -0.271885 0.605784 0
M  V30 18967 H 1845.22 -0.228404 2.03321 0
M  V30 18968 H 1845.23 -2.25932 3.39733 0
M  V30 18969 H 1843.91 -1.25633 3.96471 0
M  V30 18970 H 1842.48 -2.57673 2.69554 0
M  V30 18971 N 1844.67 -1.5 -0.48349 0
M  V30 18972 C 1845.95 -1.50879 -1.24478 0
M  V30 18973 C 1846.33 -0.246393 -2.09657 0
M  V30 18974 O 1845.67 0.77066 -2.15112 0
M  V30 18975 C 1845.88 -2.79762 -2.08648 0
M  V30 18976 C 1847.23 -3.29941 -2.67253 0
M  V30 18977 O 1848.26 -2.80999 -2.18901 0
M  V30 18978 O 1847.11 -4.15224 -3.55319 0
M  V30 18979 H 1844.21 -0.604649 -0.564206 0
M  V30 18980 H 1846.75 -1.6228 -0.496325 0
M  V30 18981 H 1845.53 -3.63123 -1.45799 0
M  V30 18982 H 1845.15 -2.71306 -2.90652 0
M  V30 18983 N 1846.15 0.735796 -1.39369 0
M  V30 18984 C 1847.06 1.88026 -1.40298 0
M  V30 18985 C 1848.07 1.71431 -0.297878 0
M  V30 18986 O 1849.25 1.94047 -0.539219 0
M  V30 18987 C 1846.31 3.23607 -1.24415 0
M  V30 18988 C 1845.37 3.52601 -2.4489 0
M  V30 18989 C 1844.61 4.81714 -2.29755 0
M  V30 18990 O 1844.83 5.55374 -1.30061 0
M  V30 18991 O 1843.76 5.10588 -3.18722 0
M  V30 18992 H 1847.59 1.90197 -2.36767 0
M  V30 18993 H 1845.18 0.883504 -1.20476 0
M  V30 18994 H 1847.06 4.04633 -1.17688 0
M  V30 18995 H 1845.73 3.22208 -0.310409 0
M  V30 18996 H 1844.64 2.71665 -2.57194 0
M  V30 18997 H 1845.97 3.58778 -3.36955 0
M  V30 18998 N 1847.63 1.24532 0.965897 0
M  V30 18999 C 1848.56 1.06393 2.07853 0
M  V30 19000 C 1849.54 -0.0236467 1.70084 0
M  V30 19001 O 1850.72 0.143767 1.93667 0
M  V30 19002 C 1847.85 0.669877 3.40778 0
M  V30 19003 C 1846.81 1.70643 3.92511 0
M  V30 19004 C 1846.13 1.16738 5.21801 0
M  V30 19005 C 1847.43 3.10278 4.20149 0
M  V30 19006 H 1849.13 1.99459 2.23285 0
M  V30 19007 H 1846.67 0.960397 1.07296 0
M  V30 19008 H 1848.62 0.52997 4.18054 0
M  V30 19009 H 1847.35 -0.296477 3.25252 0
M  V30 19010 H 1846.01 1.83458 3.17393 0
M  V30 19011 H 1845.66 0.191586 5.02635 0
M  V30 19012 H 1845.36 1.86009 5.57382 0
M  V30 19013 H 1846.88 1.03963 6.01684 0
M  V30 19014 H 1848.29 3.00681 4.88123 0
M  V30 19015 H 1846.69 3.76918 4.66962 0
M  V30 19016 H 1847.76 3.58182 3.26854 0
M  V30 19017 N 1849.1 -1.16685 1.05936 0
M  V30 19018 C 1850.07 -2.19155 0.671098 0
M  V30 19019 C 1851.07 -1.5832 -0.281305 0
M  V30 19020 O 1852.26 -1.74082 -0.0641708 0
M  V30 19021 C 1849.39 -3.40897 -0.0131101 0
M  V30 19022 H 1850.58 -2.55019 1.57815 0
M  V30 19023 H 1848.13 -1.30897 0.854147 0
M  V30 19024 H 1848.87 -3.10587 -0.933077 0
M  V30 19025 H 1848.65 -3.86304 0.671687 0
M  V30 19026 H 1850.14 -4.16722 -0.270606 0
M  V30 19027 N 1850.58 -0.841432 -1.33258 0
M  V30 19028 C 1851.51 -0.291603 -2.31672 0
M  V30 19029 C 1852.49 0.602066 -1.59089 0
M  V30 19030 O 1853.68 0.525081 -1.86967 0
M  V30 19031 C 1850.81 0.532008 -3.43201 0
M  V30 19032 C 1849.76 -0.26609 -4.27172 0
M  V30 19033 C 1849.09 0.681432 -5.3034 0
M  V30 19034 C 1850.39 -1.48457 -5.00757 0
M  V30 19035 H 1852.08 -1.1139 -2.77908 0
M  V30 19036 H 1849.63 -0.53708 -1.33609 0
M  V30 19037 H 1851.58 0.926977 -4.11078 0
M  V30 19038 H 1850.3 1.38754 -2.9566 0
M  V30 19039 H 1848.96 -0.64265 -3.60923 0
M  V30 19040 H 1848.61 1.53344 -4.79056 0
M  V30 19041 H 1848.31 0.151522 -5.87405 0
M  V30 19042 H 1849.84 1.07386 -6.01083 0
M  V30 19043 H 1851.25 -1.16262 -5.61388 0
M  V30 19044 H 1849.65 -1.95145 -5.67484 0
M  V30 19045 H 1850.72 -2.25296 -4.29383 0
M  V30 19046 N 1852.06 1.4581 -0.598108 0
M  V30 19047 C 1853.31 2.02601 -0.089744 0
M  V30 19048 C 1853.64 1.46673 1.27282 0
M  V30 19049 O 1852.91 0.637735 1.83748 0
M  V30 19050 C 1853.2 3.60077 -0.0405712 0
M  V30 19051 C 1853.05 4.26358 -1.43313 0
M  V30 19052 C 1854.37 4.35241 0.652164 0
M  V30 19053 H 1851.49 0.736211 -0.0340865 0
M  V30 19054 H 1854.13 1.73775 -0.768263 0
M  V30 19055 H 1852.28 3.84767 0.537251 0
M  V30 19056 H 1853.95 4.12884 -2.0573 0
M  V30 19057 H 1852.19 3.85125 -1.99653 0
M  V30 19058 H 1852.87 5.35211 -1.35105 0
M  V30 19059 H 1855.34 4.15788 0.161128 0
M  V30 19060 H 1854.22 5.4497 0.655646 0
M  V30 19061 H 1854.48 4.07419 1.71646 0
M  V30 19062 N 1853.54 0.336733 1.53961 0
M  V30 19063 C 1854.95 -0.0154439 1.59593 0
M  V30 19064 C 1855.15 -1.49328 1.35291 0
M  V30 19065 O 1854.21 -2.25107 1.14381 0
M  V30 19066 C 1855.52 0.414613 2.97828 0
M  V30 19067 C 1857.07 0.36638 3.10848 0
M  V30 19068 C 1857.55 0.7718 4.5145 0
M  V30 19069 N 1859.04 0.725719 4.5748 0
M  V30 19070 C 1859.77 1.01145 5.64409 0
M  V30 19071 N 1859.27 1.36499 6.7922 0
M  V30 19072 N 1861.06 0.936141 5.5425 0
M  V30 19073 H 1853.21 1.29944 1.68012 0
M  V30 19074 H 1855.47 0.529259 0.786504 0
M  V30 19075 H 1855.18 1.44476 3.20655 0
M  V30 19076 H 1855.05 -0.21367 3.76594 0
M  V30 19077 H 1857.44 -0.65458 2.87749 0
M  V30 19078 H 1857.52 1.02978 2.34157 0
M  V30 19079 H 1857.17 1.79074 4.75284 0
M  V30 19080 H 1857.1 0.0859543 5.2653 0
M  V30 19081 H 1859.59 0.464858 3.7503 0
M  V30 19082 H 1859.9 1.56805 7.56725 0
M  V30 19083 H 1858.25 1.40338 6.80684 0
M  V30 19084 H 1861.44 0.659334 4.63433 0
M  V30 19085 H 1861.61 1.16217 6.37493 0
M  V30 19086 N 1855.02 -1.57465 0.0651956 0
M  V30 19087 C 1855.95 -2.09315 -0.933793 0
M  V30 19088 C 1856.96 -1.0239 -1.26571 0
M  V30 19089 O 1858.15 -1.29921 -1.22405 0
M  V30 19090 C 1855.25 -2.53302 -2.25147 0
M  V30 19091 C 1854.42 -3.83724 -2.09939 0
M  V30 19092 C 1853.48 -4.13874 -3.24953 0
M  V30 19093 O 1852.51 -4.83577 -3.00236 0
M  V30 19094 N 1853.71 -3.66896 -4.49853 0
M  V30 19095 H 1856.47 -2.95648 -0.491142 0
M  V30 19096 H 1854.04 -1.61449 -0.120698 0
M  V30 19097 H 1856.03 -2.70538 -3.00984 0
M  V30 19098 H 1854.6 -1.72142 -2.60933 0
M  V30 19099 H 1853.82 -3.75933 -1.18609 0
M  V30 19100 H 1855.11 -4.69106 -1.9702 0
M  V30 19101 H 1854.5 -3.10573 -4.72822 0
M  V30 19102 H 1853.06 -3.89344 -5.22738 0
M  V30 19103 N 1856.49 0.20831 -1.56217 0
M  V30 19104 C 1857.43 1.28196 -1.89996 0
M  V30 19105 C 1858.44 1.42381 -0.789394 0
M  V30 19106 O 1859.63 1.43043 -1.06776 0
M  V30 19107 C 1856.73 2.65588 -2.10514 0
M  V30 19108 C 1855.9 2.73181 -3.416 0
M  V30 19109 C 1854.96 3.91678 -3.5139 0
M  V30 19110 O 1853.99 3.79397 -4.24319 0
M  V30 19111 N 1855.19 5.06562 -2.83505 0
M  V30 19112 H 1857.95 0.995403 -2.82687 0
M  V30 19113 H 1855.51 0.398294 -1.56924 0
M  V30 19114 H 1857.51 3.43264 -2.14365 0
M  V30 19115 H 1856.08 2.86788 -1.24385 0
M  V30 19116 H 1855.3 1.81881 -3.49733 0
M  V30 19117 H 1856.58 2.75234 -4.27929 0
M  V30 19118 H 1855.98 5.19437 -2.24056 0
M  V30 19119 H 1854.54 5.82232 -2.93 0
M  V30 19120 N 1857.97 1.50255 0.475528 0
M  V30 19121 C 1858.9 1.71721 1.58222 0
M  V30 19122 C 1859.88 0.56612 1.60403 0
M  V30 19123 O 1861.07 0.804774 1.7674 0
M  V30 19124 C 1858.2 1.80726 2.96573 0
M  V30 19125 C 1857.15 2.95877 3.09258 0
M  V30 19126 C 1856.48 2.9002 4.49213 0
M  V30 19127 C 1857.78 4.36452 2.86891 0
M  V30 19128 H 1859.47 2.6438 1.40511 0
M  V30 19129 H 1857.02 1.27224 0.674533 0
M  V30 19130 H 1858.97 1.94328 3.73918 0
M  V30 19131 H 1857.69 0.846846 3.1543 0
M  V30 19132 H 1856.35 2.81918 2.34345 0
M  V30 19133 H 1856 1.91834 4.64982 0
M  V30 19134 H 1855.7 3.67322 4.58637 0
M  V30 19135 H 1857.23 3.05665 5.28584 0
M  V30 19136 H 1858.64 4.5096 3.53989 0
M  V30 19137 H 1857.04 5.15171 3.07765 0
M  V30 19138 H 1858.11 4.49129 1.82786 0
M  V30 19139 N 1859.45 -0.728395 1.39758 0
M  V30 19140 C 1860.67 -1.52268 1.40816 0
M  V30 19141 C 1861.1 -1.88099 0.00629167 0
M  V30 19142 O 1860.46 -1.52376 -0.982402 0
M  V30 19143 C 1860.51 -2.78262 2.29353 0
M  V30 19144 O 1859.61 -3.74453 1.72796 0
M  V30 19145 H 1858.95 -0.459582 0.47925 0
M  V30 19146 H 1861.48 -0.898132 1.83833 0
M  V30 19147 H 1861.49 -3.26927 2.44096 0
M  V30 19148 H 1860.17 -2.51515 3.31229 0
M  V30 19149 H 1858.74 -3.33248 1.67332 0
M  V30 19150 N 1860.93 -1.25042 -0.959279 0
M  V30 19151 C 1861.84 -1.06749 -2.08906 0
M  V30 19152 C 1862.85 -0.00591805 -1.73999 0
M  V30 19153 O 1864.03 -0.205876 -2.00345 0
M  V30 19154 C 1861.09 -0.683353 -3.39899 0
M  V30 19155 C 1860.16 -1.82235 -3.88702 0
M  V30 19156 C 1859.39 -1.45644 -5.13443 0
M  V30 19157 O 1859.61 -0.350012 -5.69325 0
M  V30 19158 O 1858.55 -2.28502 -5.5684 0
M  V30 19159 H 1862.37 -2.01485 -2.27238 0
M  V30 19160 H 1859.96 -1.03938 -1.07318 0
M  V30 19161 H 1861.84 -0.481036 -4.18645 0
M  V30 19162 H 1860.51 0.234796 -3.22847 0
M  V30 19163 H 1859.42 -2.07948 -3.10979 0
M  V30 19164 H 1860.75 -2.71957 -4.10244 0
M  V30 19165 N 1862.41 1.16121 -1.06553 0
M  V30 19166 C 1863.34 2.19535 -0.622871 0
M  V30 19167 C 1864.32 1.58662 0.355702 0
M  V30 19168 O 1865.5 1.86641 0.264051 0
M  V30 19169 C 1862.63 3.3859 0.086503 0
M  V30 19170 C 1861.67 4.1796 -0.849237 0
M  V30 19171 S 1862.51 4.81381 -2.3459 0
M  V30 19172 C 1863.66 6.03812 -1.64809 0
M  V30 19173 H 1863.9 2.56744 -1.49899 0
M  V30 19174 H 1861.43 1.26954 -0.87875 0
M  V30 19175 H 1863.39 4.0757 0.489554 0
M  V30 19176 H 1862.05 2.9974 0.938853 0
M  V30 19177 H 1861.24 5.03109 -0.299489 0
M  V30 19178 H 1860.84 3.54486 -1.19229 0
M  V30 19179 H 1863.14 6.70733 -0.955182 0
M  V30 19180 H 1864.08 6.63341 -2.4776 0
M  V30 19181 H 1864.49 5.53084 -1.12955 0
M  V30 19182 N 1863.88 0.848487 1.3281 0
M  V30 19183 C 1864.83 0.286636 2.29013 0
M  V30 19184 C 1865.8 -0.602944 1.5477 0
M  V30 19185 O 1866.99 -0.539169 1.83024 0
M  V30 19186 C 1864.13 -0.524193 3.41096 0
M  V30 19187 C 1863.24 0.390486 4.30232 0
M  V30 19188 C 1862.37 -0.432376 5.29437 0
M  V30 19189 C 1861.41 0.48009 6.10214 0
M  V30 19190 N 1860.55 -0.30522 7.01436 0
M  V30 19191 H 1865.39 1.1123 2.76463 0
M  V30 19192 H 1862.93 0.559956 1.36025 0
M  V30 19193 H 1864.89 -1.00987 4.04793 0
M  V30 19194 H 1863.52 -1.31474 2.94813 0
M  V30 19195 H 1862.57 0.994518 3.6717 0
M  V30 19196 H 1863.88 1.09103 4.86722 0
M  V30 19197 H 1863.03 -0.981471 5.98709 0
M  V30 19198 H 1861.77 -1.16631 4.73549 0
M  V30 19199 H 1860.78 1.04112 5.39853 0
M  V30 19200 H 1862 1.21254 6.68187 0
M  V30 19201 H 1859.95 -1.02236 6.47984 0
M  V30 19202 H 1859.87 0.336414 7.55251 0
M  V30 19203 H 1861.13 -0.836242 7.75001 0
M  V30 19204 N 1865.36 -1.4549 0.605832 0
M  V30 19205 C 1866.59 -2.07135 0.104838 0
M  V30 19206 C 1867.01 -1.4478 -1.20085 0
M  V30 19207 O 1866.37 -0.539875 -1.73075 0
M  V30 19208 C 1866.42 -3.60593 -0.0231858 0
M  V30 19209 O 1865.52 -3.98173 -1.07386 0
M  V30 19210 H 1864.86 -0.659945 0.0732691 0
M  V30 19211 H 1867.39 -1.8677 0.835343 0
M  V30 19212 H 1867.4 -4.07396 -0.221964 0
M  V30 19213 H 1866.08 -4.05364 0.930211 0
M  V30 19214 H 1864.66 -3.63044 -0.851689 0
M  V30 19215 N 1866.84 -0.344893 -1.5378 0
M  V30 19216 C 1867.79 0.527275 -2.21819 0
M  V30 19217 C 1868.77 1.06502 -1.20607 0
M  V30 19218 O 1869.97 0.998502 -1.46147 0
M  V30 19219 C 1867.1 1.67703 -2.99551 0
M  V30 19220 C 1866.18 1.15316 -4.08121 0
M  V30 19221 N 1866.57 0.35061 -5.04583 0
M  V30 19222 C 1864.87 1.42992 -4.22456 0
M  V30 19223 C 1865.57 0.0661583 -5.81662 0
M  V30 19224 N 1864.55 0.658168 -5.39601 0
M  V30 19225 H 1868.35 -0.0929348 -2.93753 0
M  V30 19226 H 1865.86 -0.151827 -1.61689 0
M  V30 19227 H 1867.86 2.31383 -3.46796 0
M  V30 19228 H 1866.52 2.30051 -2.29144 0
M  V30 19229 H 1867.53 -0.0084236 -5.17899 0
M  V30 19230 H 1864.21 2.05769 -3.6327 0
M  V30 19231 H 1865.6 -0.581316 -6.69381 0
M  V30 19232 N 1868.32 1.57428 -0.0735454 0
M  V30 19233 C 1869.56 1.93843 0.596054 0
M  V30 19234 C 1869.9 0.953931 1.69156 0
M  V30 19235 O 1869.17 -0.0165729 1.94493 0
M  V30 19236 C 1869.46 3.40516 1.17137 0
M  V30 19237 C 1869.31 4.49725 0.0823861 0
M  V30 19238 C 1870.63 3.88042 2.07634 0
M  V30 19239 H 1867.75 0.70488 0.215204 0
M  V30 19240 H 1870.39 1.89484 -0.139871 0
M  V30 19241 H 1868.54 3.44361 1.79855 0
M  V30 19242 H 1870.21 4.58 -0.55078 0
M  V30 19243 H 1868.45 4.29813 -0.586788 0
M  V30 19244 H 1869.12 5.49494 0.525354 0
M  V30 19245 H 1871.6 3.86214 1.54849 0
M  V30 19246 H 1870.48 4.91277 2.44822 0
M  V30 19247 H 1870.74 3.26084 2.98532 0
M  V30 19248 N 1869.8 -0.200022 1.56326 0
M  V30 19249 C 1870.71 -1.26847 1.9735 0
M  V30 19250 C 1871.72 -1.50081 0.880432 0
M  V30 19251 O 1872.9 -1.62792 1.18578 0
M  V30 19252 C 1869.96 -2.59382 2.30048 0
M  V30 19253 C 1869.02 -2.44262 3.53036 0
M  V30 19254 C 1868.26 -3.70476 3.84165 0
M  V30 19255 O 1868.48 -4.74433 3.16654 0
M  V30 19256 O 1867.41 -3.663 4.77606 0
M  V30 19257 H 1871.24 -0.950324 2.88449 0
M  V30 19258 H 1868.83 -0.404628 1.43816 0
M  V30 19259 H 1870.71 -3.37616 2.52177 0
M  V30 19260 H 1869.38 -2.90833 1.42119 0
M  V30 19261 H 1868.29 -1.64154 3.36161 0
M  V30 19262 H 1869.62 -2.17744 4.41416 0
M  V30 19263 N 1871.27 -1.50505 -0.467553 0
M  V30 19264 C 1872.55 -1.52191 -1.22871 0
M  V30 19265 C 1872.93 -0.268616 -2.09384 0
M  V30 19266 O 1872.28 0.747802 -2.15917 0
M  V30 19267 C 1872.49 -2.8196 -2.05669 0
M  V30 19268 C 1873.84 -3.32757 -2.63739 0
M  V30 19269 O 1874.86 -2.83305 -2.15909 0
M  V30 19270 O 1873.72 -4.18969 -3.50895 0
M  V30 19271 H 1870.81 -0.610599 -0.557761 0
M  V30 19272 H 1873.36 -1.62797 -0.479085 0
M  V30 19273 H 1872.13 -3.64649 -1.41939 0
M  V30 19274 H 1871.76 -2.74374 -2.87758 0
M  V30 19275 N 1872.75 0.720973 -1.40142 0
M  V30 19276 C 1874 1.47785 -1.37855 0
M  V30 19277 C 1874.32 1.9499 0.0201858 0
M  V30 19278 O 1873.59 1.69972 0.973986 0
M  V30 19279 H 1872.17 0.548275 -0.507349 0
M  V30 19280 H 1874.83 0.85502 -1.75144 0
M  V30 19281 H 1873.93 2.35327 -2.05006 0
M  V30 19282 N 1874.23 1.25549 0.952634 0
M  V30 19283 C 1875.51 1.01186 1.67394 0
M  V30 19284 C 1875.89 -0.461292 2.05998 0
M  V30 19285 O 1875.24 -1.43909 1.77489 0
M  V30 19286 C 1875.45 1.94954 2.89472 0
M  V30 19287 C 1876.79 2.22911 3.6138 0
M  V30 19288 O 1877.82 1.92728 2.99557 0
M  V30 19289 O 1876.68 2.74246 4.72706 0
M  V30 19290 H 1873.77 0.383874 0.732509 0
M  V30 19291 H 1876.32 1.36712 1.00538 0
M  V30 19292 H 1875.09 2.94416 2.5775 0
M  V30 19293 H 1874.71 1.59837 3.64058 0
M  V30 19294 N 1875.71 -1.15554 1.07168 0
M  V30 19295 C 1876.96 -1.85639 0.788727 0
M  V30 19296 C 1877.27 -1.83114 -0.687656 0
M  V30 19297 O 1878.48 -2.48864 -1.08531 0
M  V30 19298 C 1876.93 -3.3318 1.36084 0
M  V30 19299 C 1876.54 -3.44157 2.8681 0
M  V30 19300 C 1878.28 -4.08462 1.15582 0
M  V30 19301 C 1876.19 -4.85835 3.37222 0
M  V30 19302 H 1875.12 -0.695427 0.29137 0
M  V30 19303 H 1877.77 -1.30354 1.29151 0
M  V30 19304 H 1876.15 -3.88125 0.785802 0
M  V30 19305 H 1877.33 -2.99328 3.50342 0
M  V30 19306 H 1875.64 -2.82318 3.06081 0
M  V30 19307 H 1878.24 -5.13017 1.50725 0
M  V30 19308 H 1878.58 -4.16192 0.0947449 0
M  V30 19309 H 1879.12 -3.59781 1.69712 0
M  V30 19310 H 1875.86 -4.83287 4.42847 0
M  V30 19311 H 1875.38 -5.31253 2.78443 0
M  V30 19312 H 1877.05 -5.54684 3.33068 0
M  V30 19313 N 1877.19 -0.855519 -1.32358 0
M  V30 19314 C 1878.15 -0.305794 -2.27151 0
M  V30 19315 C 1879.15 0.535008 -1.51639 0
M  V30 19316 O 1880.34 0.346394 -1.70721 0
M  V30 19317 C 1877.47 0.567275 -3.36147 0
M  V30 19318 H 1878.67 -1.14245 -2.77287 0
M  V30 19319 H 1876.22 -0.629924 -1.43044 0
M  V30 19320 H 1876.95 1.42571 -2.9128 0
M  V30 19321 H 1876.74 -0.0345714 -3.92085 0
M  V30 19322 H 1878.23 0.944644 -4.06775 0
M  V30 19323 N 1878.67 1.45167 -0.61354 0
M  V30 19324 C 1879.91 2.01796 -0.110844 0
M  V30 19325 C 1880.23 1.48372 1.26534 0
M  V30 19326 O 1879.5 0.680323 1.83707 0
M  V30 19327 H 1878.08 0.746034 -0.0379861 0
M  V30 19328 H 1880.75 1.77892 -0.796279 0
M  V30 19329 H 1879.84 3.12032 -0.0651413 0
M  V30 19330 N 1880.14 0.353044 1.53595 0
M  V30 19331 C 1881.11 -0.48691 2.23968 0
M  V30 19332 C 1882.11 -1.01991 1.24316 0
M  V30 19333 O 1883.3 -0.907654 1.48685 0
M  V30 19334 C 1880.43 -1.67926 2.96671 0
M  V30 19335 H 1881.62 0.128707 2.99624 0
M  V30 19336 H 1879.17 0.104533 1.5595 0
M  V30 19337 H 1879.91 -2.33331 2.25227 0
M  V30 19338 H 1879.69 -1.30417 3.69776 0
M  V30 19339 H 1881.18 -2.2748 3.50203 0
M  V30 19340 N 1881.62 -1.57387 0.0818932 0
M  V30 19341 C 1883.03 -1.81214 -0.449254 0
M  V30 19342 C 1883.38 -0.996563 -1.69006 0
M  V30 19343 O 1882.51 -0.22203 -2.15258 0
M  V30 19344 C 1883.1 -3.28681 -0.821827 0
M  V30 19345 C 1881.66 -3.53319 -1.29779 0
M  V30 19346 C 1880.81 -2.75801 -0.287911 0
M  V30 19347 H 1883.76 -1.55693 0.307486 0
M  V30 19348 H 1883.78 -3.41283 -1.68245 0
M  V30 19349 H 1883.29 -3.88015 0.081441 0
M  V30 19350 H 1881.39 -2.99302 -2.21921 0
M  V30 19351 H 1881.51 -4.61996 -1.26874 0
M  V30 19352 H 1879.87 -2.42867 -0.76731 0
M  V30 19353 H 1880.65 -3.37877 0.607805 0
M  V30 19354 N 1883.1 0.191729 -1.56429 0
M  V30 19355 C 1884.06 1.22128 -1.93952 0
M  V30 19356 C 1885.06 1.38262 -0.820984 0
M  V30 19357 O 1886.25 1.36017 -1.08835 0
M  V30 19358 C 1883.38 2.59005 -2.21651 0
M  V30 19359 H 1884.58 0.900458 -2.86063 0
M  V30 19360 H 1882.13 0.433382 -1.50172 0
M  V30 19361 H 1882.87 2.96136 -1.32189 0
M  V30 19362 H 1882.65 2.48665 -3.03164 0
M  V30 19363 H 1884.14 3.33242 -2.51674 0
M  V30 19364 N 1884.58 1.50751 0.459565 0
M  V30 19365 C 1885.8 1.66367 1.23842 0
M  V30 19366 C 1886.23 0.351355 1.84789 0
M  V30 19367 O 1885.59 -0.686103 1.67816 0
M  V30 19368 C 1885.63 2.76521 2.31449 0
M  V30 19369 O 1884.74 2.38576 3.36386 0
M  V30 19370 H 1884.08 0.555447 0.363833 0
M  V30 19371 H 1886.61 1.97193 0.545538 0
M  V30 19372 H 1886.62 2.99943 2.76583 0
M  V30 19373 H 1885.29 3.71759 1.86462 0
M  V30 19374 H 1883.87 2.25643 2.96883 0
M  V30 19375 N 1886.06 -0.713531 1.40522 0
M  V30 19376 C 1887.28 -1.50766 1.42423 0
M  V30 19377 C 1887.71 -1.88082 0.0262417 0
M  V30 19378 O 1887.06 -1.5341 -0.966185 0
M  V30 19379 C 1887.11 -2.75813 2.32291 0
M  V30 19380 O 1886.22 -3.726 1.76758 0
M  V30 19381 H 1885.56 -0.454473 0.484098 0
M  V30 19382 H 1888.09 -0.878583 1.84776 0
M  V30 19383 H 1888.1 -3.2432 2.47549 0
M  V30 19384 H 1886.77 -2.47988 3.33878 0
M  V30 19385 H 1885.35 -3.31455 1.70857 0
M  V30 19386 N 1887.53 -1.26053 -0.945962 0
M  V30 19387 C 1888.94 -1.10296 -1.50638 0
M  V30 19388 C 1889.3 0.318377 -1.936 0
M  V30 19389 O 1888.42 1.20934 -1.79454 0
M  V30 19390 C 1889.02 -1.99604 -2.73758 0
M  V30 19391 C 1887.57 -1.88007 -3.26083 0
M  V30 19392 C 1886.72 -1.93239 -1.98882 0
M  V30 19393 H 1889.67 -1.39212 -0.761946 0
M  V30 19394 H 1889.69 -1.54113 -3.47893 0
M  V30 19395 H 1889.21 -3.03044 -2.42459 0
M  V30 19396 H 1887.31 -0.874846 -3.62184 0
M  V30 19397 H 1887.42 -2.73285 -3.93513 0
M  V30 19398 H 1885.78 -1.37231 -2.14568 0
M  V30 19399 H 1886.57 -2.98299 -1.6992 0
M  V30 19400 N 1889.01 1.14984 -1.07779 0
M  V30 19401 C 1889.92 2.23484 -0.713576 0
M  V30 19402 C 1890.94 1.71779 0.277104 0
M  V30 19403 O 1892.11 2.01026 0.122649 0
M  V30 19404 C 1889.18 3.46487 -0.121542 0
M  V30 19405 C 1888.24 4.13162 -1.16602 0
M  V30 19406 C 1887.47 5.30292 -0.602138 0
M  V30 19407 O 1887.7 5.67439 0.580436 0
M  V30 19408 O 1886.63 5.86585 -1.34912 0
M  V30 19409 H 1890.46 2.56978 -1.61852 0
M  V30 19410 H 1888.04 1.22791 -0.851038 0
M  V30 19411 H 1889.92 4.20896 0.206134 0
M  V30 19412 H 1888.6 3.14732 0.756659 0
M  V30 19413 H 1887.5 3.40655 -1.54612 0
M  V30 19414 H 1888.84 4.49007 -2.01627 0
M  V30 19415 N 1890.49 0.862526 1.31902 0
M  V30 19416 C 1891.45 0.317836 2.26986 0
M  V30 19417 C 1892.45 -0.526959 1.5192 0
M  V30 19418 O 1893.64 -0.337336 1.70903 0
M  V30 19419 C 1890.77 -0.549441 3.36443 0
M  V30 19420 H 1891.97 1.15714 2.76677 0
M  V30 19421 H 1889.52 0.637501 1.42708 0
M  V30 19422 H 1890.26 -1.41024 2.92032 0
M  V30 19423 H 1890.04 0.0553642 3.92061 0
M  V30 19424 H 1891.53 -0.923059 4.07271 0
M  V30 19425 N 1891.97 -1.4484 0.62123 0
M  V30 19426 C 1893.38 -1.85568 0.205284 0
M  V30 19427 C 1893.73 -1.51963 -1.24104 0
M  V30 19428 O 1892.86 -0.952887 -1.94291 0
M  V30 19429 C 1893.45 -3.3682 0.365788 0
M  V30 19430 C 1892.01 -3.764 0.00442911 0
M  V30 19431 C 1891.16 -2.68736 0.683839 0
M  V30 19432 H 1894.11 -1.35447 0.827036 0
M  V30 19433 H 1894.13 -3.78411 -0.398123 0
M  V30 19434 H 1893.64 -3.61247 1.41853 0
M  V30 19435 H 1891.74 -3.57588 -1.04696 0
M  V30 19436 H 1891.85 -4.77363 0.407588 0
M  V30 19437 H 1890.22 -2.54417 0.120114 0
M  V30 19438 H 1891 -2.95997 1.73898 0
M  V30 19439 N 1893.45 -0.361184 -1.53405 0
M  V30 19440 C 1894.86 0.118972 -1.86321 0
M  V30 19441 C 1895.21 1.48531 -1.28191 0
M  V30 19442 O 1894.33 2.07851 -0.602253 0
M  V30 19443 C 1894.93 0.222658 -3.38068 0
M  V30 19444 C 1893.49 0.647065 -3.70796 0
M  V30 19445 C 1892.63 -0.208424 -2.76516 0
M  V30 19446 H 1895.59 -0.580142 -1.47716 0
M  V30 19447 H 1895.61 1.04702 -3.65811 0
M  V30 19448 H 1895.12 -0.771922 -3.80346 0
M  V30 19449 H 1893.22 1.65003 -3.34073 0
M  V30 19450 H 1893.33 0.424724 -4.77214 0
M  V30 19451 H 1891.7 0.322011 -2.52656 0
M  V30 19452 H 1892.48 -1.20046 -3.21627 0
M  V30 19453 N 1894.92 1.57341 -0.0902386 0
M  V30 19454 C 1895.89 2.12619 0.855916 0
M  V30 19455 C 1896.89 1.05434 1.2141 0
M  V30 19456 O 1898.08 1.31342 1.14433 0
M  V30 19457 C 1895.21 2.64277 2.15338 0
M  V30 19458 H 1896.4 2.97533 0.376014 0
M  V30 19459 H 1893.96 1.55492 0.1587 0
M  V30 19460 H 1894.69 1.82869 2.67824 0
M  V30 19461 H 1894.48 3.4264 1.9063 0
M  V30 19462 H 1895.97 3.07055 2.83032 0
M  V30 19463 N 1896.4 -0.183431 1.56529 0
M  V30 19464 C 1897.31 -1.24746 1.98684 0
M  V30 19465 C 1898.33 -1.49139 0.8963 0
M  V30 19466 O 1899.5 -1.61525 1.20298 0
M  V30 19467 C 1896.57 -2.56927 2.32786 0
M  V30 19468 C 1895.63 -2.40503 3.55607 0
M  V30 19469 C 1894.86 -3.66381 3.88073 0
M  V30 19470 O 1895.09 -4.71048 3.21668 0
M  V30 19471 O 1894.02 -3.61214 4.81465 0
M  V30 19472 H 1897.85 -0.919676 2.8944 0
M  V30 19473 H 1895.43 -0.389352 1.44237 0
M  V30 19474 H 1897.31 -3.34923 2.55744 0
M  V30 19475 H 1895.99 -2.89309 1.45196 0
M  V30 19476 H 1894.9 -1.6058 3.37883 0
M  V30 19477 H 1896.23 -2.1305 4.43701 0
M  V30 19478 N 1897.88 -1.50992 -0.451564 0
M  V30 19479 C 1898.81 -1.67453 -1.56499 0
M  V30 19480 C 1899.83 -0.555481 -1.5303 0
M  V30 19481 O 1901.01 -0.829335 -1.58064 0
M  V30 19482 C 1898.11 -1.66093 -2.95409 0
M  V30 19483 C 1897.29 -2.94351 -3.23537 0
M  V30 19484 C 1896.35 -2.8537 -4.42098 0
M  V30 19485 O 1895.37 -3.59323 -4.41447 0
M  V30 19486 N 1896.57 -2.0025 -5.44867 0
M  V30 19487 H 1899.34 -2.63499 -1.42788 0
M  V30 19488 H 1896.9 -1.48701 -0.640293 0
M  V30 19489 H 1898.89 -1.57672 -3.72722 0
M  V30 19490 H 1897.46 -0.777014 -3.02789 0
M  V30 19491 H 1896.68 -3.16751 -2.34654 0
M  V30 19492 H 1897.97 -3.79281 -3.39151 0
M  V30 19493 H 1897.37 -1.39517 -5.48226 0
M  V30 19494 H 1895.93 -1.97719 -6.21088 0
M  V30 19495 N 1899.36 0.706069 -1.40899 0
M  V30 19496 C 1900.64 1.45984 -1.30185 0
M  V30 19497 C 1901.02 2.10965 0.0754423 0
M  V30 19498 O 1900.36 2.00883 1.08896 0
M  V30 19499 C 1900.57 2.48782 -2.44762 0
M  V30 19500 C 1901.92 3.14339 -2.85441 0
M  V30 19501 O 1902.95 2.59104 -2.44425 0
M  V30 19502 O 1901.8 4.14354 -3.56333 0
M  V30 19503 H 1898.9 0.649628 -0.511774 0
M  V30 19504 H 1901.44 0.737436 -1.5284 0
M  V30 19505 H 1900.22 1.99346 -3.36715 0
M  V30 19506 H 1899.84 3.28545 -2.23929 0
M  V30 19507 N 1900.84 1.26553 0.939264 0
M  V30 19508 C 1902.25 1.11093 1.50051 0
M  V30 19509 C 1902.6 -0.308105 1.93766 0
M  V30 19510 O 1901.72 -1.19981 1.80093 0
M  V30 19511 C 1902.32 2.01053 2.72696 0
M  V30 19512 C 1900.88 1.89734 3.25082 0
M  V30 19513 C 1900.02 1.94291 1.97854 0
M  V30 19514 H 1902.98 1.39614 0.754553 0
M  V30 19515 H 1903 1.55955 3.47071 0
M  V30 19516 H 1902.51 3.04325 2.40848 0
M  V30 19517 H 1900.61 0.894042 3.61715 0
M  V30 19518 H 1900.72 2.75368 3.92058 0
M  V30 19519 H 1899.09 1.38367 2.13838 0
M  V30 19520 H 1899.87 2.99196 1.68335 0
M  V30 19521 N 1902.31 -1.14411 1.08387 0
M  V30 19522 C 1903.56 -1.85719 0.814638 0
M  V30 19523 C 1903.89 -1.82715 -0.657934 0
M  V30 19524 O 1903.17 -1.2577 -1.48365 0
M  V30 19525 C 1903.45 -3.34363 1.33691 0
M  V30 19526 C 1903.3 -3.4594 2.87481 0
M  V30 19527 C 1904.62 -4.29457 0.962006 0
M  V30 19528 H 1901.74 -0.674332 0.297399 0
M  V30 19529 H 1904.38 -1.34354 1.34346 0
M  V30 19530 H 1902.53 -3.78237 0.887082 0
M  V30 19531 H 1904.21 -3.10854 3.40833 0
M  V30 19532 H 1902.45 -2.87158 3.25151 0
M  V30 19533 H 1903.12 -4.50423 3.19097 0
M  V30 19534 H 1905.6 -3.93599 1.34979 0
M  V30 19535 H 1904.47 -5.31922 1.35464 0
M  V30 19536 H 1904.73 -4.41906 -0.130987 0
M  V30 19537 N 1903.79 -0.869509 -1.31443 0
M  V30 19538 C 1904.72 -0.282169 -2.27456 0
M  V30 19539 C 1905.74 0.55453 -1.53065 0
M  V30 19540 O 1906.93 0.376597 -1.74482 0
M  V30 19541 C 1904.03 0.618652 -3.33206 0
M  V30 19542 C 1903.2 -0.185505 -4.37006 0
M  V30 19543 C 1902.26 0.643383 -5.22252 0
M  V30 19544 O 1901.28 0.0715827 -5.69155 0
M  V30 19545 N 1902.49 1.95545 -5.46573 0
M  V30 19546 H 1905.25 -1.10726 -2.78496 0
M  V30 19547 H 1902.81 -0.730947 -1.4446 0
M  V30 19548 H 1904.8 1.17886 -3.8715 0
M  V30 19549 H 1903.37 1.34442 -2.82213 0
M  V30 19550 H 1902.59 -0.927156 -3.83142 0
M  V30 19551 H 1903.88 -0.73731 -5.03429 0
M  V30 19552 H 1903.28 2.44315 -5.10222 0
M  V30 19553 H 1901.84 2.46345 -6.03455 0
M  V30 19554 N 1905.27 1.44508 -0.628902 0
M  V30 19555 C 1906.2 2.33412 0.0642512 0
M  V30 19556 C 1907.18 1.48077 0.837091 0
M  V30 19557 O 1908.37 1.76802 0.803415 0
M  V30 19558 C 1905.5 3.31112 1.04795 0
M  V30 19559 C 1904.45 4.26248 0.386897 0
M  V30 19560 C 1903.78 5.13799 1.48035 0
M  V30 19561 C 1905.08 5.17514 -0.705449 0
M  V30 19562 H 1906.77 2.91619 -0.678133 0
M  V30 19563 H 1904.32 1.40225 -0.327558 0
M  V30 19564 H 1906.27 3.9219 1.54159 0
M  V30 19565 H 1904.99 2.71109 1.8212 0
M  V30 19566 H 1903.65 3.66499 -0.0860697 0
M  V30 19567 H 1903.3 4.5015 2.24441 0
M  V30 19568 H 1903 5.78262 1.04342 0
M  V30 19569 H 1904.52 5.77748 1.97583 0
M  V30 19570 H 1905.94 5.7254 -0.295004 0
M  V30 19571 H 1904.34 5.90567 -1.06538 0
M  V30 19572 H 1905.41 4.5866 -1.57349 0
M  V30 19573 N 1906.75 0.369315 1.53212 0
M  V30 19574 C 1907.7 -0.475399 2.25851 0
M  V30 19575 C 1908.67 -1.07444 1.26669 0
M  V30 19576 O 1909.85 -1.10623 1.55458 0
M  V30 19577 C 1906.99 -1.60725 3.05388 0
M  V30 19578 C 1906.1 -1.03302 4.19467 0
M  V30 19579 C 1905.24 -2.13427 4.86438 0
M  V30 19580 C 1904.28 -1.53489 5.92543 0
M  V30 19581 N 1903.42 -2.57463 6.5319 0
M  V30 19582 H 1908.26 0.150534 2.9762 0
M  V30 19583 H 1905.79 0.0860577 1.46848 0
M  V30 19584 H 1907.75 -2.274 3.49779 0
M  V30 19585 H 1906.38 -2.20378 2.35867 0
M  V30 19586 H 1905.43 -0.256437 3.79535 0
M  V30 19587 H 1906.74 -0.55483 4.95705 0
M  V30 19588 H 1905.9 -2.87915 5.34032 0
M  V30 19589 H 1904.64 -2.64599 4.09681 0
M  V30 19590 H 1903.64 -0.775176 5.44308 0
M  V30 19591 H 1904.87 -1.03137 6.71222 0
M  V30 19592 H 1902.81 -3.07841 5.79284 0
M  V30 19593 H 1902.73 -2.14342 7.24978 0
M  V30 19594 H 1904 -3.31642 7.05432 0
M  V30 19595 N 1908.23 -1.57291 0.0985816 0
M  V30 19596 C 1909.46 -1.98819 -0.57259 0
M  V30 19597 C 1909.87 -0.977787 -1.61508 0
M  V30 19598 O 1909.23 0.0321385 -1.82472 0
M  V30 19599 C 1909.28 -3.40393 -1.21716 0
M  V30 19600 O 1909 -4.37565 -0.216366 0
M  V30 19601 C 1910.5 -3.96943 -1.97361 0
M  V30 19602 H 1907.72 -0.653268 -0.153239 0
M  V30 19603 H 1910.26 -2.03716 0.178898 0
M  V30 19604 H 1908.42 -3.36499 -1.91956 0
M  V30 19605 H 1908.83 -5.20046 -0.68205 0
M  V30 19606 H 1910.31 -4.98144 -2.37816 0
M  V30 19607 H 1910.78 -3.34953 -2.84083 0
M  V30 19608 H 1911.39 -4.0432 -1.3193 0
M  V30 19609 N 1909.71 0.175127 -1.56624 0
M  V30 19610 C 1910.64 1.24137 -1.92672 0
M  V30 19611 C 1911.65 1.40675 -0.819417 0
M  V30 19612 O 1912.84 1.40746 -1.09786 0
M  V30 19613 C 1909.94 2.61063 -2.161 0
M  V30 19614 C 1909.11 2.65874 -3.47318 0
M  V30 19615 C 1908.17 3.84136 -3.59619 0
M  V30 19616 O 1907.2 3.70311 -4.32271 0
M  V30 19617 N 1908.4 5.00435 -2.94186 0
M  V30 19618 H 1911.16 0.935217 -2.84735 0
M  V30 19619 H 1908.73 0.364919 -1.57734 0
M  V30 19620 H 1910.72 3.38639 -2.21597 0
M  V30 19621 H 1909.29 2.84085 -1.3044 0
M  V30 19622 H 1908.51 1.74422 -3.53512 0
M  V30 19623 H 1909.8 2.66096 -4.33671 0
M  V30 19624 H 1909.19 5.14568 -2.35024 0
M  V30 19625 H 1907.75 5.75886 -3.05284 0
M  V30 19626 N 1911.18 1.5123 0.44355 0
M  V30 19627 C 1912.11 1.75038 1.54544 0
M  V30 19628 C 1913.09 0.600017 1.59166 0
M  V30 19629 O 1914.28 0.842082 1.74993 0
M  V30 19630 C 1911.41 1.86976 2.92673 0
M  V30 19631 C 1910.36 3.0237 3.02913 0
M  V30 19632 C 1909.69 2.99483 4.4296 0
M  V30 19633 C 1910.99 4.4244 2.77569 0
M  V30 19634 H 1912.68 2.67301 1.34872 0
M  V30 19635 H 1910.23 1.28627 0.647395 0
M  V30 19636 H 1912.18 2.02215 3.69712 0
M  V30 19637 H 1910.91 0.913563 3.13563 0
M  V30 19638 H 1909.57 2.86826 2.28312 0
M  V30 19639 H 1909.21 2.01654 4.60809 0
M  V30 19640 H 1908.91 3.76968 4.50743 0
M  V30 19641 H 1910.44 3.16808 5.21982 0
M  V30 19642 H 1911.85 4.58367 3.44344 0
M  V30 19643 H 1910.25 5.21583 2.96768 0
M  V30 19644 H 1911.32 4.52906 1.73218 0
M  V30 19645 N 1912.66 -0.698586 1.41271 0
M  V30 19646 C 1913.57 -1.8424 1.45234 0
M  V30 19647 C 1914.59 -1.70581 0.343225 0
M  V30 19648 O 1915.76 -1.9255 0.590477 0
M  V30 19649 C 1912.83 -3.20195 1.32951 0
M  V30 19650 C 1911.89 -3.45984 2.54152 0
M  V30 19651 C 1911.12 -4.75453 2.42446 0
M  V30 19652 O 1911.35 -5.5173 1.44741 0
M  V30 19653 O 1910.28 -5.01958 3.32147 0
M  V30 19654 H 1914.11 -1.83853 2.41727 0
M  V30 19655 H 1911.69 -0.851252 1.22776 0
M  V30 19656 H 1913.57 -4.0137 1.28374 0
M  V30 19657 H 1912.25 -3.21272 0.395728 0
M  V30 19658 H 1911.15 -2.64751 2.64306 0
M  V30 19659 H 1912.49 -3.49718 3.46349 0
M  V30 19660 N 1914.14 -1.27049 -0.93254 0
M  V30 19661 C 1915.39 -1.14279 -1.68261 0
M  V30 19662 C 1915.74 0.30916 -1.899 0
M  V30 19663 O 1915.03 1.22313 -1.47479 0
M  V30 19664 C 1915.23 -1.8547 -3.05509 0
M  V30 19665 C 1915.06 -3.37439 -2.97262 0
M  V30 19666 C 1913.83 -4.06748 -2.99807 0
M  V30 19667 C 1916.02 -4.33493 -2.76745 0
M  V30 19668 N 1914.01 -5.45323 -2.81951 0
M  V30 19669 C 1915.38 -5.59303 -2.67545 0
M  V30 19670 C 1917.43 -4.23642 -2.61595 0
M  V30 19671 C 1916.14 -6.76383 -2.44741 0
M  V30 19672 C 1918.16 -5.40438 -2.40167 0
M  V30 19673 C 1917.52 -6.652 -2.31706 0
M  V30 19674 H 1913.62 -0.473016 -0.62272 0
M  V30 19675 H 1916.21 -1.60453 -1.10286 0
M  V30 19676 H 1914.38 -1.41759 -3.61606 0
M  V30 19677 H 1916.11 -1.65248 -3.69426 0
M  V30 19678 H 1912.86 -3.58176 -3.0985 0
M  V30 19679 H 1913.29 -6.18111 -2.76166 0
M  V30 19680 H 1917.93 -3.2791 -2.66898 0
M  V30 19681 H 1915.65 -7.72202 -2.38178 0
M  V30 19682 H 1919.23 -5.34692 -2.29337 0
M  V30 19683 H 1918.11 -7.54052 -2.15348 0
M  V30 19684 N 1915.62 1.13835 -1.08993 0
M  V30 19685 C 1916.85 1.88861 -0.844923 0
M  V30 19686 C 1917.26 1.78897 0.603444 0
M  V30 19687 O 1916.62 1.15246 1.41508 0
M  V30 19688 C 1916.67 3.38622 -1.26559 0
M  V30 19689 O 1916.39 3.48321 -2.65714 0
M  V30 19690 C 1917.89 4.30629 -1.05232 0
M  V30 19691 H 1915.11 0.598038 -0.304288 0
M  V30 19692 H 1917.65 1.44129 -1.45076 0
M  V30 19693 H 1915.81 3.80954 -0.703737 0
M  V30 19694 H 1916.22 4.41387 -2.83333 0
M  V30 19695 H 1917.7 5.34057 -1.39598 0
M  V30 19696 H 1918.17 4.39199 0.0102308 0
M  V30 19697 H 1918.78 3.9406 -1.5999 0
M  V30 19698 N 1917.1 0.876467 1.3098 0
M  V30 19699 C 1918.01 0.340667 2.32113 0
M  V30 19700 C 1919.02 -0.552749 1.64987 0
M  V30 19701 O 1920.2 -0.447909 1.96356 0
M  V30 19702 C 1917.26 -0.443504 3.43852 0
M  V30 19703 C 1916.32 0.478646 4.26623 0
M  V30 19704 C 1915.56 -0.268194 5.33026 0
M  V30 19705 O 1915.78 -1.49543 5.50448 0
M  V30 19706 O 1914.71 0.377306 6.00716 0
M  V30 19707 H 1918.54 1.1791 2.79877 0
M  V30 19708 H 1916.12 0.640037 1.34996 0
M  V30 19709 H 1918.01 -0.887816 4.11941 0
M  V30 19710 H 1916.68 -1.25838 2.98239 0
M  V30 19711 H 1915.59 0.971593 3.61263 0
M  V30 19712 H 1916.92 1.25929 4.75818 0
M  V30 19713 N 1918.57 -1.44173 0.636557 0
M  V30 19714 C 1919.54 -2.29133 -0.0554994 0
M  V30 19715 C 1920.54 -1.41329 -0.766986 0
M  V30 19716 O 1921.73 -1.63142 -0.610753 0
M  V30 19717 C 1918.86 -3.23031 -1.08922 0
M  V30 19718 H 1920.05 -2.91811 0.691829 0
M  V30 19719 H 1917.6 -1.51175 0.396956 0
M  V30 19720 H 1918.34 -2.65213 -1.86635 0
M  V30 19721 H 1918.12 -3.87743 -0.58291 0
M  V30 19722 H 1919.61 -3.8684 -1.57304 0
M  V30 19723 N 1920.05 -0.377435 -1.53014 0
M  V30 19724 C 1921.3 0.209712 -2.00607 0
M  V30 19725 C 1921.61 1.48891 -1.2685 0
M  V30 19726 O 1922.82 2.15538 -1.65093 0
M  V30 19727 C 1921.28 0.424271 -3.5739 0
M  V30 19728 C 1920.88 -0.840982 -4.40036 0
M  V30 19729 C 1922.63 0.968428 -4.13306 0
M  V30 19730 C 1920.53 -0.595355 -5.88396 0
M  V30 19731 H 1919.46 0.0821436 -0.749512 0
M  V30 19732 H 1922.12 -0.498005 -1.76613 0
M  V30 19733 H 1920.5 1.19354 -3.77585 0
M  V30 19734 H 1921.67 -1.61396 -4.31611 0
M  V30 19735 H 1919.99 -1.30922 -3.95283 0
M  V30 19736 H 1922.58 1.16771 -5.21794 0
M  V30 19737 H 1922.93 1.93405 -3.68647 0
M  V30 19738 H 1923.46 0.259025 -3.96956 0
M  V30 19739 H 1920.2 -1.53164 -6.37355 0
M  V30 19740 H 1919.72 0.138904 -5.99639 0
M  V30 19741 H 1921.4 -0.225366 -6.46607 0
M  V30 19742 N 1921.53 1.57237 -0.106922 0
M  V30 19743 C 1922.46 2.1769 0.844599 0
M  V30 19744 C 1923.44 1.11352 1.28587 0
M  V30 19745 O 1924.63 1.39539 1.35065 0
M  V30 19746 C 1921.76 2.76668 2.09933 0
M  V30 19747 C 1920.71 3.88482 1.79627 0
M  V30 19748 C 1920.04 4.34214 3.12029 0
M  V30 19749 C 1921.34 5.11139 1.07399 0
M  V30 19750 H 1923.03 2.97453 0.340887 0
M  V30 19751 H 1920.58 1.4308 0.162523 0
M  V30 19752 H 1922.53 3.17614 2.76946 0
M  V30 19753 H 1921.25 1.94176 2.62608 0
M  V30 19754 H 1919.91 3.48093 1.15008 0
M  V30 19755 H 1919.56 3.48597 3.62614 0
M  V30 19756 H 1919.26 5.09608 2.9253 0
M  V30 19757 H 1920.78 4.77803 3.8018 0
M  V30 19758 H 1922.2 5.4918 1.64543 0
M  V30 19759 H 1920.6 5.92038 0.980375 0
M  V30 19760 H 1921.67 4.84864 0.0586914 0
M  V30 19761 N 1923.01 -0.166818 1.56715 0
M  V30 19762 C 1923.92 -1.22632 1.99996 0
M  V30 19763 C 1924.93 -1.4818 0.912068 0
M  V30 19764 O 1926.11 -1.6024 1.22005 0
M  V30 19765 C 1923.18 -2.54444 2.35498 0
M  V30 19766 C 1922.24 -2.36718 3.58138 0
M  V30 19767 C 1921.47 -3.62244 3.91937 0
M  V30 19768 O 1921.69 -4.67609 3.26646 0
M  V30 19769 O 1920.63 -3.56087 4.85269 0
M  V30 19770 H 1924.45 -0.888926 2.90399 0
M  V30 19771 H 1922.04 -0.374032 1.44642 0
M  V30 19772 H 1923.92 -3.32191 2.59281 0
M  V30 19773 H 1922.59 -2.87753 1.48256 0
M  V30 19774 H 1921.5 -1.56987 3.39567 0
M  V30 19775 H 1922.83 -2.08332 4.45936 0
M  V30 19776 N 1924.49 -1.51463 -0.435524 0
M  V30 19777 C 1925.76 -1.54763 -1.19615 0
M  V30 19778 C 1926.14 -0.312969 -2.08767 0
M  V30 19779 O 1925.49 0.701834 -2.17455 0
M  V30 19780 C 1925.7 -2.86259 -1.99642 0
M  V30 19781 C 1927.05 -3.38276 -2.56621 0
M  V30 19782 O 1928.07 -2.87821 -2.09851 0
M  V30 19783 O 1926.93 -4.26318 -3.41929 0
M  V30 19784 H 1924.03 -0.622293 -0.544684 0
M  V30 19785 H 1926.57 -1.63777 -0.444446 0
M  V30 19786 H 1925.34 -3.67578 -1.34173 0
M  V30 19787 H 1924.97 -2.80416 -2.81874 0
M  V30 19788 N 1925.96 0.691085 -1.4164 0
M  V30 19789 C 1926.87 1.83467 -1.46209 0
M  V30 19790 C 1927.89 1.70397 -0.352267 0
M  V30 19791 O 1929.07 1.92234 -0.60068 0
M  V30 19792 C 1926.13 3.19485 -1.34648 0
M  V30 19793 C 1925.19 3.44631 -2.55984 0
M  V30 19794 C 1924.43 4.7416 -2.44964 0
M  V30 19795 O 1924.65 5.50955 -1.47664 0
M  V30 19796 O 1923.58 5.0019 -3.34804 0
M  V30 19797 H 1927.41 1.82568 -2.42698 0
M  V30 19798 H 1924.99 0.844729 -1.23226 0
M  V30 19799 H 1926.88 4.00684 -1.30501 0
M  V30 19800 H 1925.55 3.21058 -0.41276 0
M  V30 19801 H 1924.46 2.63345 -2.65707 0
M  V30 19802 H 1925.79 3.47877 -3.48199 0
M  V30 19803 N 1927.44 1.27542 0.925789 0
M  V30 19804 C 1928.37 1.06229 2.03096 0
M  V30 19805 C 1929.39 0.0177734 1.6279 0
M  V30 19806 O 1930.58 0.259539 1.76603 0
M  V30 19807 C 1927.68 0.589777 3.33729 0
M  V30 19808 C 1926.85 1.70701 4.02716 0
M  V30 19809 C 1925.91 1.22991 5.11624 0
M  V30 19810 O 1924.93 1.92993 5.35483 0
M  V30 19811 N 1926.14 0.086593 5.80435 0
M  V30 19812 H 1928.9 2.01401 2.21941 0
M  V30 19813 H 1926.46 1.19134 1.0963 0
M  V30 19814 H 1928.45 0.254459 4.03899 0
M  V30 19815 H 1927.02 -0.268762 3.11443 0
M  V30 19816 H 1926.24 2.21252 3.26253 0
M  V30 19817 H 1927.53 2.45679 4.45555 0
M  V30 19818 H 1926.93 -0.497638 5.63507 0
M  V30 19819 H 1925.49 -0.189533 6.51524 0
M  V30 19820 N 1928.92 -1.13255 1.09595 0
M  V30 19821 C 1930.15 -1.88411 0.854927 0
M  V30 19822 C 1930.56 -1.79214 -0.593949 0
M  V30 19823 O 1929.92 -1.15995 -1.40895 0
M  V30 19824 C 1929.97 -3.37946 1.28353 0
M  V30 19825 O 1929.69 -3.46907 2.67558 0
M  V30 19826 C 1931.19 -4.30065 1.07514 0
M  V30 19827 H 1928.41 -0.596416 0.307455 0
M  V30 19828 H 1930.96 -1.43358 1.45838 0
M  V30 19829 H 1929.11 -3.80576 0.72393 0
M  V30 19830 H 1929.53 -4.39878 2.8567 0
M  V30 19831 H 1931 -5.33309 1.42428 0
M  V30 19832 H 1931.48 -4.39198 0.0130611 0
M  V30 19833 H 1932.08 -3.93206 1.62077 0
M  V30 19834 N 1930.4 -0.883401 -1.30514 0
M  V30 19835 C 1931.33 -0.306278 -2.27144 0
M  V30 19836 C 1932.34 0.538264 -1.53644 0
M  V30 19837 O 1933.53 0.35807 -1.74872 0
M  V30 19838 C 1930.63 0.583276 -3.33843 0
M  V30 19839 C 1929.81 -0.231845 -4.36785 0
M  V30 19840 C 1928.86 0.587955 -5.22905 0
M  V30 19841 O 1927.89 0.0112122 -5.69199 0
M  V30 19842 N 1929.09 1.89737 -5.48617 0
M  V30 19843 H 1931.86 -1.13674 -2.77306 0
M  V30 19844 H 1929.42 -0.746227 -1.43677 0
M  V30 19845 H 1931.41 1.13773 -3.88379 0
M  V30 19846 H 1929.98 1.31441 -2.83623 0
M  V30 19847 H 1929.2 -0.967741 -3.82137 0
M  V30 19848 H 1930.49 -0.790664 -5.02619 0
M  V30 19849 H 1929.89 2.38889 -5.12785 0
M  V30 19850 H 1928.44 2.39931 -6.06033 0
M  V30 19851 N 1931.88 1.43833 -0.644194 0
M  V30 19852 C 1933.29 1.56542 -0.310952 0
M  V30 19853 C 1933.49 1.62946 1.18536 0
M  V30 19854 O 1932.55 1.57961 1.96989 0
M  V30 19855 C 1933.86 2.83074 -1.01437 0
M  V30 19856 C 1935.41 2.96805 -0.993759 0
M  V30 19857 C 1935.88 4.26158 -1.6779 0
M  V30 19858 N 1937.38 4.33002 -1.64511 0
M  V30 19859 C 1938.11 5.31837 -2.14328 0
M  V30 19860 N 1937.61 6.37003 -2.72394 0
M  V30 19861 N 1939.4 5.23431 -2.04881 0
M  V30 19862 H 1931.55 1.37919 -1.61531 0
M  V30 19863 H 1933.81 0.661778 -0.678789 0
M  V30 19864 H 1933.52 2.84372 -2.06943 0
M  V30 19865 H 1933.39 3.73016 -0.560273 0
M  V30 19866 H 1935.78 2.95053 0.0528599 0
M  V30 19867 H 1935.86 2.08177 -1.48647 0
M  V30 19868 H 1935.51 4.28671 -2.72404 0
M  V30 19869 H 1935.44 5.13667 -1.15992 0
M  V30 19870 H 1937.93 3.57621 -1.22129 0
M  V30 19871 H 1938.24 7.08724 -3.08107 0
M  V30 19872 H 1936.58 6.37652 -2.76451 0
M  V30 19873 H 1939.78 4.40186 -1.59229 0
M  V30 19874 H 1939.95 6.00301 -2.44015 0
M  V30 19875 N 1933.35 0.385544 1.52811 0
M  V30 19876 C 1934.29 -0.486433 2.23979 0
M  V30 19877 C 1935.3 -1.02981 1.2609 0
M  V30 19878 O 1936.49 -0.932779 1.52189 0
M  V30 19879 C 1933.59 -1.68645 2.93959 0
M  V30 19880 C 1932.76 -1.2711 4.18523 0
M  V30 19881 C 1931.82 -2.33538 4.71536 0
M  V30 19882 O 1930.85 -1.95101 5.34719 0
M  V30 19883 N 1932.05 -3.65401 4.51068 0
M  V30 19884 H 1934.81 0.12327 2.99446 0
M  V30 19885 H 1932.37 0.211712 1.6051 0
M  V30 19886 H 1934.37 -2.3936 3.26326 0
M  V30 19887 H 1932.94 -2.20257 2.21823 0
M  V30 19888 H 1932.16 -0.392983 3.92236 0
M  V30 19889 H 1933.44 -0.970192 4.99464 0
M  V30 19890 H 1932.84 -3.99393 4.00626 0
M  V30 19891 H 1931.4 -4.32162 4.87934 0
M  V30 19892 N 1934.83 -1.57178 0.115259 0
M  V30 19893 C 1935.78 -2.15114 -0.836331 0
M  V30 19894 C 1936.75 -1.07511 -1.26612 0
M  V30 19895 O 1937.93 -1.354 -1.3443 0
M  V30 19896 C 1935.07 -2.75187 -2.08245 0
M  V30 19897 C 1934.19 -3.97086 -1.70137 0
M  V30 19898 C 1933.32 -4.45258 -2.89687 0
M  V30 19899 C 1932.36 -5.59697 -2.47801 0
M  V30 19900 N 1931.5 -6.0263 -3.60252 0
M  V30 19901 H 1936.34 -2.96106 -0.335434 0
M  V30 19902 H 1933.88 -1.46293 -0.15388 0
M  V30 19903 H 1935.83 -3.08145 -2.81252 0
M  V30 19904 H 1934.46 -1.96891 -2.558 0
M  V30 19905 H 1933.52 -3.70313 -0.870192 0
M  V30 19906 H 1934.83 -4.80085 -1.35352 0
M  V30 19907 H 1933.98 -4.80105 -3.70923 0
M  V30 19908 H 1932.72 -3.61201 -3.27696 0
M  V30 19909 H 1931.73 -5.24458 -1.64997 0
M  V30 19910 H 1932.95 -6.45517 -2.10913 0
M  V30 19911 H 1930.9 -5.21515 -3.97942 0
M  V30 19912 H 1930.81 -6.80474 -3.29379 0
M  V30 19913 H 1932.08 -6.42114 -4.41939 0
M  V30 19914 N 1936.31 0.158505 -1.56801 0
M  V30 19915 C 1937.24 1.19799 -2.00426 0
M  V30 19916 C 1938.22 1.45453 -0.881905 0
M  V30 19917 O 1939.41 1.56569 -1.1489 0
M  V30 19918 C 1936.54 2.53392 -2.37508 0
M  V30 19919 C 1935.49 2.42283 -3.52822 0
M  V30 19920 C 1934.82 3.80482 -3.75683 0
M  V30 19921 C 1936.12 1.91666 -4.85862 0
M  V30 19922 H 1937.81 0.835303 -2.87512 0
M  V30 19923 H 1935.36 0.400366 -1.38322 0
M  V30 19924 H 1937.31 3.26326 -2.66625 0
M  V30 19925 H 1936.03 2.91474 -1.47345 0
M  V30 19926 H 1934.69 1.71801 -3.23852 0
M  V30 19927 H 1934.34 4.15979 -2.8279 0
M  V30 19928 H 1934.04 3.73913 -4.5328 0
M  V30 19929 H 1935.57 4.54982 -4.07214 0
M  V30 19930 H 1936.98 2.54384 -5.13772 0
M  V30 19931 H 1935.38 1.96016 -5.67184 0
M  V30 19932 H 1936.45 0.871666 -4.77001 0
M  V30 19933 N 1937.79 1.51692 0.427485 0
M  V30 19934 C 1939.02 1.68669 1.19827 0
M  V30 19935 C 1939.43 0.388231 1.84765 0
M  V30 19936 O 1938.79 -0.634167 1.71127 0
M  V30 19937 C 1938.84 2.80936 2.27502 0
M  V30 19938 O 1938.56 4.05752 1.65218 0
M  V30 19939 C 1940.06 3.09267 3.17599 0
M  V30 19940 H 1937.28 0.565751 0.360786 0
M  V30 19941 H 1939.83 1.98158 0.505323 0
M  V30 19942 H 1937.98 2.54018 2.92496 0
M  V30 19943 H 1938.4 4.68175 2.36457 0
M  V30 19944 H 1939.87 3.91379 3.89264 0
M  V30 19945 H 1940.35 2.22071 3.78921 0
M  V30 19946 H 1940.95 3.37881 2.58295 0
M  V30 19947 N 1939.27 -0.683564 1.42004 0
M  V30 19948 C 1940.23 -1.77907 1.44505 0
M  V30 19949 C 1941.23 -1.57295 0.333889 0
M  V30 19950 O 1942.42 -1.63748 0.594323 0
M  V30 19951 C 1939.55 -3.16434 1.26815 0
M  V30 19952 H 1940.75 -1.7708 2.42039 0
M  V30 19953 H 1938.3 -0.892355 1.28323 0
M  V30 19954 H 1939.03 -3.22894 0.301695 0
M  V30 19955 H 1938.82 -3.32798 2.07335 0
M  V30 19956 H 1940.31 -3.96379 1.31428 0
M  V30 19957 N 1940.75 -1.28031 -0.919012 0
M  V30 19958 C 1941.66 -1.13341 -2.05404 0
M  V30 19959 C 1942.67 -0.0612715 -1.73892 0
M  V30 19960 O 1943.85 -0.26951 -1.99589 0
M  V30 19961 C 1940.91 -0.791143 -3.37553 0
M  V30 19962 C 1939.97 -1.94509 -3.82707 0
M  V30 19963 C 1939.21 -1.61905 -5.08549 0
M  V30 19964 O 1939.43 -0.530962 -5.67923 0
M  V30 19965 O 1938.36 -2.46102 -5.49288 0
M  V30 19966 H 1942.19 -2.08613 -2.20713 0
M  V30 19967 H 1939.77 -1.073 -1.03957 0
M  V30 19968 H 1941.66 -0.613981 -4.16903 0
M  V30 19969 H 1940.33 0.131966 -3.23431 0
M  V30 19970 H 1939.24 -2.17737 -3.04206 0
M  V30 19971 H 1940.57 -2.84871 -4.01384 0
M  V30 19972 N 1942.22 1.12672 -1.10194 0
M  V30 19973 C 1943.47 1.84127 -0.842833 0
M  V30 19974 C 1943.8 1.8396 0.631594 0
M  V30 19975 O 1943.05 1.27871 1.48147 0
M  V30 19976 C 1943.35 3.31602 -1.33322 0
M  V30 19977 C 1943.02 3.51943 -2.81864 0
M  V30 19978 C 1941.68 3.57202 -3.22428 0
M  V30 19979 C 1944.03 3.59262 -3.77598 0
M  V30 19980 C 1941.36 3.67323 -4.57483 0
M  V30 19981 C 1943.71 3.70911 -5.12452 0
M  V30 19982 C 1942.38 3.74427 -5.52595 0
M  V30 19983 H 1941.65 0.673767 -0.308414 0
M  V30 19984 H 1944.29 1.32968 -1.3781 0
M  V30 19985 H 1942.6 3.85166 -0.717918 0
M  V30 19986 H 1944.3 3.85353 -1.10925 0
M  V30 19987 H 1940.89 3.4851 -2.49477 0
M  V30 19988 H 1945.07 3.54471 -3.47367 0
M  V30 19989 H 1940.33 3.68315 -4.88011 0
M  V30 19990 H 1944.5 3.75518 -5.8648 0
M  V30 19991 H 1942.13 3.82021 -6.5724 0
M  V30 19992 N 1943.7 0.89031 1.30043 0
M  V30 19993 C 1944.61 0.365266 2.31739 0
M  V30 19994 C 1945.63 -0.535219 1.65564 0
M  V30 19995 O 1946.8 -0.427058 1.9682 0
M  V30 19996 C 1943.87 -0.407009 3.44303 0
M  V30 19997 C 1942.93 0.523869 4.26092 0
M  V30 19998 C 1942.16 -0.211645 5.3328 0
M  V30 19999 O 1942.39 -1.43697 5.52003 0
M  V30 20000 O 1941.32 0.440999 6.00282 0
M  V30 20001 H 1945.15 1.20872 2.7861 0
M  V30 20002 H 1942.73 0.654319 1.34309 0
M  V30 20003 H 1944.61 -0.844074 4.1286 0
M  V30 20004 H 1943.29 -1.22668 2.99557 0
M  V30 20005 H 1942.19 1.00986 3.60212 0
M  V30 20006 H 1943.53 1.30969 4.74455 0
M  V30 20007 N 1945.18 -1.43489 0.651812 0
M  V30 20008 C 1946.09 -2.34564 -0.0413115 0
M  V30 20009 C 1947.11 -1.53803 -0.81368 0
M  V30 20010 O 1948.28 -1.86459 -0.761246 0
M  V30 20011 C 1945.35 -3.32063 -0.996745 0
M  V30 20012 C 1944.41 -4.28728 -0.221464 0
M  V30 20013 C 1943.64 -5.2157 -1.13139 0
M  V30 20014 O 1943.86 -5.18804 -2.37062 0
M  V30 20015 O 1942.8 -5.98856 -0.604552 0
M  V30 20016 H 1946.62 -2.95325 0.708295 0
M  V30 20017 H 1944.21 -1.43607 0.411999 0
M  V30 20018 H 1946.09 -3.92022 -1.54586 0
M  V30 20019 H 1944.77 -2.73807 -1.7266 0
M  V30 20020 H 1943.67 -3.72254 0.371205 0
M  V30 20021 H 1945.01 -4.89962 0.468797 0
M  V30 20022 N 1946.66 -0.393643 -1.52605 0
M  V30 20023 C 1947.62 0.427358 -2.25181 0
M  V30 20024 C 1948.62 0.986595 -1.26976 0
M  V30 20025 O 1949.81 0.867913 -1.51039 0
M  V30 20026 C 1946.94 1.60001 -3.01019 0
M  V30 20027 H 1948.14 -0.208101 -2.99177 0
M  V30 20028 H 1945.69 -0.145844 -1.55618 0
M  V30 20029 H 1946.42 2.27278 -2.31334 0
M  V30 20030 H 1946.21 1.20567 -3.73103 0
M  V30 20031 H 1947.7 2.18115 -3.56112 0
M  V30 20032 N 1948.14 1.57115 -0.123593 0
M  V30 20033 C 1949.07 2.12637 0.855463 0
M  V30 20034 C 1950.08 1.07017 1.22683 0
M  V30 20035 O 1951.27 1.34374 1.17498 0
M  V30 20036 C 1948.37 2.61484 2.15591 0
M  V30 20037 C 1947.54 3.91252 1.95553 0
M  V30 20038 C 1946.6 4.25649 3.09369 0
M  V30 20039 O 1945.63 4.94387 2.82082 0
M  V30 20040 N 1946.83 3.83339 4.35926 0
M  V30 20041 H 1949.59 2.97267 0.381076 0
M  V30 20042 H 1947.16 1.61786 0.0606943 0
M  V30 20043 H 1949.15 2.81522 2.90736 0
M  V30 20044 H 1947.72 1.81708 2.54364 0
M  V30 20045 H 1946.94 3.80076 1.04575 0
M  V30 20046 H 1948.23 4.76095 1.79474 0
M  V30 20047 H 1947.62 3.27908 4.6097 0
M  V30 20048 H 1946.18 4.08477 5.07927 0
M  V30 20049 N 1949.61 -0.150187 1.56883 0
M  V30 20050 C 1950.84 -0.87835 1.8733 0
M  V30 20051 C 1951.26 -1.74883 0.711426 0
M  V30 20052 O 1950.61 -1.79692 -0.318906 0
M  V30 20053 C 1950.66 -1.73769 3.16996 0
M  V30 20054 O 1950.39 -0.902296 4.28708 0
M  V30 20055 C 1951.89 -2.57371 3.60936 0
M  V30 20056 H 1949.11 -0.254139 0.621011 0
M  V30 20057 H 1951.65 -0.143933 2.03993 0
M  V30 20058 H 1949.81 -2.42521 3.02097 0
M  V30 20059 H 1950.22 -1.49198 5.02832 0
M  V30 20060 H 1951.69 -3.13249 4.5451 0
M  V30 20061 H 1952.17 -3.33257 2.86071 0
M  V30 20062 H 1952.78 -1.93916 3.78519 0
M  V30 20063 N 1951.09 -1.51916 -0.419434 0
M  V30 20064 C 1952.32 -1.69592 -1.19387 0
M  V30 20065 C 1952.74 -0.400225 -1.83793 0
M  V30 20066 O 1952.1 0.641368 -1.69576 0
M  V30 20067 C 1952.15 -2.8256 -2.24036 0
M  V30 20068 O 1951.25 -2.4741 -3.29942 0
M  V30 20069 H 1950.59 -0.564898 -0.348978 0
M  V30 20070 H 1953.12 -1.9857 -0.493064 0
M  V30 20071 H 1953.13 -3.07171 -2.68533 0
M  V30 20072 H 1951.81 -3.76572 -1.7654 0
M  V30 20073 H 1950.39 -2.33435 -2.90796 0
M  V30 20074 N 1952.57 0.676023 -1.42365 0
M  V30 20075 C 1953.53 1.77138 -1.45446 0
M  V30 20076 C 1954.53 1.57116 -0.342226 0
M  V30 20077 O 1955.72 1.63431 -0.602999 0
M  V30 20078 C 1952.86 3.15757 -1.28492 0
M  V30 20079 H 1954.05 1.75794 -2.42974 0
M  V30 20080 H 1951.6 0.885538 -1.28794 0
M  V30 20081 H 1952.34 3.22729 -0.318815 0
M  V30 20082 H 1952.12 3.31694 -2.09097 0
M  V30 20083 H 1953.61 3.95677 -1.33528 0
M  V30 20084 N 1954.05 1.28517 0.912209 0
M  V30 20085 C 1955.29 1.17014 1.67592 0
M  V30 20086 C 1955.65 -0.27643 1.9 0
M  V30 20087 O 1956.85 -0.514187 2.63836 0
M  V30 20088 C 1955.12 1.94823 2.99631 0
M  V30 20089 S 1956.68 1.99713 3.90717 0
M  V30 20090 H 1953.5 0.417458 0.575543 0
M  V30 20091 H 1956.1 1.62637 1.08488 0
M  V30 20092 H 1954.81 2.99087 2.81025 0
M  V30 20093 H 1954.34 1.49757 3.63781 0
M  V30 20094 H 1956.35 1.10475 4.83745 0
M  V30 20095 N 1955.53 -1.12086 1.1079 0
M  V30 20096 C 1956.94 -1.35679 0.840432 0
M  V30 20097 C 1957.14 -1.94177 -0.538279 0
M  V30 20098 O 1956.2 -2.17035 -1.29043 0
M  V30 20099 C 1957.51 -2.29487 1.94309 0
M  V30 20100 C 1959.06 -2.43069 1.97197 0
M  V30 20101 C 1959.53 -3.40194 3.06646 0
M  V30 20102 N 1961.03 -3.47753 3.05977 0
M  V30 20103 C 1961.76 -4.22826 3.87305 0
M  V30 20104 N 1961.26 -5.00933 4.78579 0
M  V30 20105 N 1963.05 -4.1827 3.75509 0
M  V30 20106 H 1955.2 -0.724754 1.99652 0
M  V30 20107 H 1957.46 -0.381544 0.86783 0
M  V30 20108 H 1957.17 -1.93685 2.93563 0
M  V30 20109 H 1957.04 -3.29644 1.83343 0
M  V30 20110 H 1959.43 -2.7815 0.985735 0
M  V30 20111 H 1959.51 -1.42788 2.12239 0
M  V30 20112 H 1959.16 -3.05842 4.05491 0
M  V30 20113 H 1959.09 -4.40314 2.88845 0
M  V30 20114 H 1961.58 -2.92035 2.39841 0
M  V30 20115 H 1961.89 -5.55565 5.37185 0
M  V30 20116 H 1960.23 -5.00117 4.82605 0
M  V30 20117 H 1963.43 -3.56334 3.03551 0
M  V30 20118 H 1963.6 -4.76521 4.39126 0
M  V30 20119 N 1957 -0.897194 -1.29569 0
M  V30 20120 C 1957.93 -0.389601 -2.30227 0
M  V30 20121 C 1958.92 0.53405 -1.61499 0
M  V30 20122 O 1960.1 0.44531 -1.89025 0
M  V30 20123 C 1957.23 0.385966 -3.45149 0
M  V30 20124 C 1956.18 -0.447028 -4.25659 0
M  V30 20125 C 1955.51 0.455883 -5.32753 0
M  V30 20126 C 1956.81 -1.69562 -4.9401 0
M  V30 20127 H 1958.5 -1.23077 -2.72933 0
M  V30 20128 H 1956.05 -0.593265 -1.31211 0
M  V30 20129 H 1958 0.751791 -4.1464 0
M  V30 20130 H 1956.73 1.26089 -3.01279 0
M  V30 20131 H 1955.39 -0.795152 -3.57873 0
M  V30 20132 H 1955.03 1.32887 -4.85129 0
M  V30 20133 H 1954.73 -0.0977528 -5.87519 0
M  V30 20134 H 1956.26 0.817956 -6.05097 0
M  V30 20135 H 1957.67 -1.39968 -5.55951 0
M  V30 20136 H 1956.07 -2.19039 -5.58697 0
M  V30 20137 H 1957.14 -2.43305 -4.19441 0
M  V30 20138 N 1958.48 1.43142 -0.659413 0
M  V30 20139 C 1959.41 2.29102 0.0671619 0
M  V30 20140 C 1960.43 1.42846 0.780943 0
M  V30 20141 O 1961.62 1.66722 0.637666 0
M  V30 20142 C 1958.72 3.19915 1.11838 0
M  V30 20143 C 1957.89 4.34742 0.481505 0
M  V30 20144 C 1956.95 5.06384 1.43043 0
M  V30 20145 O 1955.97 5.61441 0.936648 0
M  V30 20146 N 1957.18 5.10461 2.76423 0
M  V30 20147 H 1959.94 2.92099 -0.670674 0
M  V30 20148 H 1957.5 1.53899 -0.50266 0
M  V30 20149 H 1959.49 3.64708 1.75413 0
M  V30 20150 H 1958.06 2.58474 1.75812 0
M  V30 20151 H 1957.28 3.92787 -0.333461 0
M  V30 20152 H 1958.57 5.08786 0.0371775 0
M  V30 20153 H 1957.97 4.67114 3.19095 0
M  V30 20154 H 1956.53 5.58952 3.35285 0
M  V30 20155 N 1959.96 0.40173 1.52394 0
M  V30 20156 C 1960.87 -0.434422 2.30543 0
M  V30 20157 C 1961.89 -1.06028 1.37964 0
M  V30 20158 O 1963.06 -1.0634 1.71037 0
M  V30 20159 C 1960.13 -1.53995 3.10623 0
M  V30 20160 C 1959.19 -0.93791 4.18929 0
M  V30 20161 C 1958.42 -1.99075 4.95182 0
M  V30 20162 O 1958.64 -3.20777 4.71655 0
M  V30 20163 O 1957.58 -1.60111 5.80214 0
M  V30 20164 H 1961.4 0.202567 3.03024 0
M  V30 20165 H 1958.99 0.165122 1.48485 0
M  V30 20166 H 1960.87 -2.18191 3.60514 0
M  V30 20167 H 1959.55 -2.16167 2.40943 0
M  V30 20168 H 1958.45 -0.25886 3.73203 0
M  V30 20169 H 1959.79 -0.360217 4.9088 0
M  V30 20170 N 1961.44 -1.57047 0.131923 0
M  V30 20171 C 1962.35 -2.19545 -0.826862 0
M  V30 20172 C 1963.36 -1.17532 -1.28305 0
M  V30 20173 O 1964.54 -1.50052 -1.34337 0
M  V30 20174 C 1961.61 -2.79284 -2.0543 0
M  V30 20175 C 1960.67 -3.96375 -1.64879 0
M  V30 20176 C 1959.9 -4.53256 -2.81771 0
M  V30 20177 O 1960.12 -4.09022 -3.97564 0
M  V30 20178 O 1959.06 -5.43748 -2.58111 0
M  V30 20179 H 1962.88 -3.01957 -0.324926 0
M  V30 20180 H 1960.47 -1.49102 -0.0943495 0
M  V30 20181 H 1962.35 -3.17312 -2.77292 0
M  V30 20182 H 1961.02 -1.99895 -2.54605 0
M  V30 20183 H 1959.93 -3.63092 -0.900848 0
M  V30 20184 H 1961.26 -4.77238 -1.20434 0
M  V30 20185 N 1962.92 0.141865 -1.5696 0
M  V30 20186 C 1963.85 1.17667 -2.01685 0
M  V30 20187 C 1964.83 1.44509 -0.897282 0
M  V30 20188 O 1966.01 1.55342 -1.16544 0
M  V30 20189 C 1963.14 2.50859 -2.40182 0
M  V30 20190 C 1962.1 2.38527 -3.55371 0
M  V30 20191 C 1961.42 3.76476 -3.79697 0
M  V30 20192 C 1962.72 1.86502 -4.87867 0
M  V30 20193 H 1964.42 0.804761 -2.88382 0
M  V30 20194 H 1961.96 0.385672 -1.38739 0
M  V30 20195 H 1963.92 3.2348 -2.70071 0
M  V30 20196 H 1962.64 2.89895 -1.50428 0
M  V30 20197 H 1961.3 1.68357 -3.25656 0
M  V30 20198 H 1960.95 4.12957 -2.87186 0
M  V30 20199 H 1960.65 3.69085 -4.5722 0
M  V30 20200 H 1962.17 4.50638 -4.12017 0
M  V30 20201 H 1963.58 2.48921 -5.16441 0
M  V30 20202 H 1961.98 1.89989 -5.69231 0
M  V30 20203 H 1963.05 0.821025 -4.77899 0
M  V30 20204 N 1964.39 1.52136 0.411372 0
M  V30 20205 C 1965.3 1.78205 1.52579 0
M  V30 20206 C 1966.32 0.667501 1.60687 0
M  V30 20207 O 1967.5 0.952661 1.77444 0
M  V30 20208 C 1964.56 1.9252 2.88335 0
M  V30 20209 C 1963.62 3.16421 2.90131 0
M  V30 20210 C 1962.86 3.30044 4.19412 0
M  V30 20211 O 1963.08 2.48985 5.13189 0
M  V30 20212 O 1962.01 4.23182 4.2802 0
M  V30 20213 H 1965.84 2.72791 1.33487 0
M  V30 20214 H 1963.42 1.36953 0.597004 0
M  V30 20215 H 1965.31 2.03771 3.68857 0
M  V30 20216 H 1963.98 1.01123 3.07499 0
M  V30 20217 H 1962.89 3.1063 2.08471 0
M  V30 20218 H 1964.22 4.07592 2.75916 0
M  V30 20219 N 1965.87 -0.668464 1.42721 0
M  V30 20220 C 1966.82 -1.78184 1.46694 0
M  V30 20221 C 1967.79 -1.63023 0.318213 0
M  V30 20222 O 1968.98 -1.83486 0.523198 0
M  V30 20223 C 1966.12 -3.16254 1.3812 0
M  V30 20224 C 1965.23 -3.42657 2.63078 0
M  V30 20225 C 1964.36 -4.7049 2.46602 0
M  V30 20226 C 1963.4 -4.89948 3.66902 0
M  V30 20227 N 1962.54 -6.09027 3.49329 0
M  V30 20228 H 1967.38 -1.74123 2.41837 0
M  V30 20229 H 1964.92 -0.849937 1.2006 0
M  V30 20230 H 1966.87 -3.96051 1.31146 0
M  V30 20231 H 1965.5 -3.19423 0.46569 0
M  V30 20232 H 1964.56 -2.57068 2.80393 0
M  V30 20233 H 1965.87 -3.52926 3.52484 0
M  V30 20234 H 1965.02 -5.58388 2.37249 0
M  V30 20235 H 1963.76 -4.62515 1.54696 0
M  V30 20236 H 1962.77 -4.0049 3.7668 0
M  V30 20237 H 1963.99 -4.99764 4.59797 0
M  V30 20238 H 1961.94 -6.02213 2.60146 0
M  V30 20239 H 1961.85 -6.20186 4.32326 0
M  V30 20240 H 1963.12 -6.99587 3.438 0
M  V30 20241 N 1967.35 -1.28999 -0.905381 0
M  V30 20242 C 1968.28 -1.16189 -2.0254 0
M  V30 20243 C 1969.26 -0.0575293 -1.70003 0
M  V30 20244 O 1970.45 -0.236004 -1.92761 0
M  V30 20245 C 1967.58 -0.831704 -3.37194 0
M  V30 20246 C 1966.53 -1.89176 -3.83922 0
M  V30 20247 C 1965.86 -1.41501 -5.15637 0
M  V30 20248 C 1967.16 -3.29971 -4.04866 0
M  V30 20249 H 1968.85 -2.09886 -2.13514 0
M  V30 20250 H 1966.4 -1.0105 -1.02591 0
M  V30 20251 H 1968.35 -0.728825 -4.1505 0
M  V30 20252 H 1967.07 0.140958 -3.26296 0
M  V30 20253 H 1965.73 -1.98393 -3.08279 0
M  V30 20254 H 1965.38 -0.431182 -5.01149 0
M  V30 20255 H 1965.08 -2.12391 -5.47872 0
M  V30 20256 H 1966.61 -1.32552 -5.96039 0
M  V30 20257 H 1968.02 -3.23628 -4.73221 0
M  V30 20258 H 1966.42 -3.98768 -4.48447 0
M  V30 20259 H 1967.49 -3.73369 -3.09393 0
M  V30 20260 N 1968.83 1.11497 -1.11383 0
M  V30 20261 C 1970.25 1.35232 -0.847616 0
M  V30 20262 C 1970.45 1.9446 0.527973 0
M  V30 20263 O 1969.5 2.17716 1.2789 0
M  V30 20264 C 1970.81 2.28454 -1.95523 0
M  V30 20265 C 1972.36 2.4202 -1.98483 0
M  V30 20266 C 1972.84 3.38563 -3.08446 0
M  V30 20267 N 1974.33 3.46126 -3.07817 0
M  V30 20268 C 1975.06 4.20766 -3.89542 0
M  V30 20269 N 1974.56 4.98388 -4.81229 0
M  V30 20270 N 1976.35 4.16272 -3.77722 0
M  V30 20271 H 1968.5 0.714156 -2.00034 0
M  V30 20272 H 1970.77 0.376936 -0.869841 0
M  V30 20273 H 1970.47 1.92126 -2.94586 0
M  V30 20274 H 1970.35 3.28667 -1.85089 0
M  V30 20275 H 1972.73 2.77623 -1.00047 0
M  V30 20276 H 1972.81 1.4166 -2.12993 0
M  V30 20277 H 1972.46 3.03687 -4.07107 0
M  V30 20278 H 1972.39 4.38776 -2.91176 0
M  V30 20279 H 1974.88 2.90759 -2.41387 0
M  V30 20280 H 1975.19 5.52708 -5.40124 0
M  V30 20281 H 1973.54 4.97551 -4.85251 0
M  V30 20282 H 1976.73 3.54719 -3.05437 0
M  V30 20283 H 1976.9 4.74186 -4.41647 0
M  V30 20284 N 1970.31 0.904053 1.29092 0
M  V30 20285 C 1971.54 0.547758 1.99517 0
M  V30 20286 C 1971.95 -0.868589 1.67633 0
M  V30 20287 O 1971.31 -1.57394 0.923758 0
M  V30 20288 C 1971.36 0.735683 3.53935 0
M  V30 20289 O 1971.08 2.09629 3.84691 0
M  V30 20290 C 1972.58 0.38492 4.41626 0
M  V30 20291 H 1969.8 0.209762 0.63737 0
M  V30 20292 H 1972.34 1.2146 1.64523 0
M  V30 20293 H 1970.5 0.11597 3.87226 0
M  V30 20294 H 1970.91 2.12883 4.79355 0
M  V30 20295 H 1972.39 0.567226 5.49078 0
M  V30 20296 H 1972.86 -0.678298 4.33931 0
M  V30 20297 H 1973.47 0.981759 4.13813 0
M  V30 20298 N 1971.79 -1.4279 0.666995 0
M  V30 20299 C 1972.75 -2.29199 -0.00688445 0
M  V30 20300 C 1973.75 -1.42924 -0.736835 0
M  V30 20301 O 1974.94 -1.64401 -0.576011 0
M  V30 20302 C 1972.07 -3.25268 -1.02046 0
M  V30 20303 H 1973.26 -2.90278 0.753571 0
M  V30 20304 H 1970.82 -1.50299 0.428933 0
M  V30 20305 H 1971.55 -2.69112 -1.80967 0
M  V30 20306 H 1971.34 -3.88892 -0.500533 0
M  V30 20307 H 1972.83 -3.9009 -1.49063 0
M  V30 20308 N 1973.26 -0.409806 -1.52179 0
M  V30 20309 C 1974.51 0.16543 -2.01422 0
M  V30 20310 C 1974.83 1.45588 -1.29727 0
M  V30 20311 O 1974.1 1.9127 -0.423399 0
M  V30 20312 H 1972.68 0.0641237 -0.744243 0
M  V30 20313 H 1975.34 -0.546204 -1.8709 0
M  V30 20314 H 1974.44 0.361061 -3.10004 0
M  V30 20315 N 1974.74 1.56975 -0.14025 0
M  V30 20316 C 1976.15 1.82757 0.381688 0
M  V30 20317 C 1976.5 1.0586 1.65191 0
M  V30 20318 O 1975.63 0.301768 2.14286 0
M  V30 20319 C 1976.22 3.31505 0.699272 0
M  V30 20320 C 1974.78 3.57892 1.16576 0
M  V30 20321 C 1973.93 2.7668 0.185351 0
M  V30 20322 H 1976.88 1.54444 -0.365058 0
M  V30 20323 H 1976.9 3.47292 1.55462 0
M  V30 20324 H 1976.41 3.87445 -0.225394 0
M  V30 20325 H 1974.51 3.07332 2.1066 0
M  V30 20326 H 1974.63 4.66386 1.0964 0
M  V30 20327 H 1972.99 2.45548 0.676642 0
M  V30 20328 H 1973.77 3.35388 -0.732787 0
M  V30 20329 N 1976.22 -0.133539 1.57033 0
M  V30 20330 C 1977.15 -1.16595 2.02306 0
M  V30 20331 C 1978.13 -1.44031 0.904933 0
M  V30 20332 O 1979.32 -1.54721 1.17367 0
M  V30 20333 C 1976.45 -2.49581 2.41509 0
M  V30 20334 C 1975.4 -2.36639 3.56631 0
M  V30 20335 C 1974.73 -3.74457 3.81688 0
M  V30 20336 C 1976.03 -1.83912 4.88849 0
M  V30 20337 H 1977.72 -0.789456 2.88804 0
M  V30 20338 H 1975.27 -0.378309 1.38942 0
M  V30 20339 H 1977.22 -3.22043 2.71783 0
M  V30 20340 H 1975.94 -2.89093 1.51964 0
M  V30 20341 H 1974.6 -1.66628 3.26544 0
M  V30 20342 H 1974.25 -4.11428 2.89372 0
M  V30 20343 H 1973.95 -3.66655 4.59171 0
M  V30 20344 H 1975.47 -4.48446 4.14401 0
M  V30 20345 H 1976.89 -2.46178 5.17754 0
M  V30 20346 H 1975.28 -1.86967 5.70231 0
M  V30 20347 H 1976.35 -0.795669 4.78327 0
M  V30 20348 N 1977.7 -1.52352 -0.403298 0
M  V30 20349 C 1978.61 -1.79011 -1.51631 0
M  V30 20350 C 1979.62 -0.676014 -1.60331 0
M  V30 20351 O 1980.8 -0.962058 -1.76936 0
M  V30 20352 C 1977.86 -1.94046 -2.8731 0
M  V30 20353 C 1976.93 -3.17955 -2.88449 0
M  V30 20354 C 1976.16 -3.32264 -4.17656 0
M  V30 20355 O 1976.38 -2.51703 -5.11861 0
M  V30 20356 O 1975.32 -4.25446 -4.25769 0
M  V30 20357 H 1979.14 -2.73495 -1.32038 0
M  V30 20358 H 1976.73 -1.37268 -0.589733 0
M  V30 20359 H 1978.61 -2.05724 -3.67771 0
M  V30 20360 H 1977.28 -1.02752 -3.06959 0
M  V30 20361 H 1976.19 -3.11731 -2.0682 0
M  V30 20362 H 1977.52 -4.0905 -2.7375 0
M  V30 20363 N 1979.18 0.660885 -1.43074 0
M  V30 20364 C 1980.4 1.45376 -1.47921 0
M  V30 20365 C 1980.83 1.87855 -0.0960289 0
M  V30 20366 O 1980.18 1.5689 0.908583 0
M  V30 20367 C 1980.23 2.67002 -2.42368 0
M  V30 20368 O 1979.34 3.65783 -1.90465 0
M  V30 20369 H 1978.68 0.436193 -0.500632 0
M  V30 20370 H 1981.21 0.809399 -1.87909 0
M  V30 20371 H 1981.22 3.14909 -2.59416 0
M  V30 20372 H 1979.89 2.35426 -3.42852 0
M  V30 20373 H 1978.47 3.24885 -1.83041 0
M  V30 20374 N 1980.65 1.29477 0.898527 0
M  V30 20375 C 1981.88 1.20529 1.68783 0
M  V30 20376 C 1982.3 -0.230536 1.86682 0
M  V30 20377 O 1981.66 -1.1664 1.38798 0
M  V30 20378 C 1981.71 1.92501 3.04919 0
M  V30 20379 O 1980.81 1.24286 3.93226 0
M  V30 20380 H 1980.16 0.417586 0.516254 0
M  V30 20381 H 1982.69 1.71066 1.1224 0
M  V30 20382 H 1982.7 2.01001 3.55053 0
M  V30 20383 H 1981.37 2.96934 2.9121 0
M  V30 20384 H 1979.95 1.24052 3.51661 0
M  V30 20385 N 1982.13 -1.10905 1.11972 0
M  V30 20386 C 1983.04 -2.20682 0.796029 0
M  V30 20387 C 1984.06 -1.72689 -0.213158 0
M  V30 20388 O 1985.23 -2.01343 -0.047955 0
M  V30 20389 C 1982.3 -3.45797 0.250055 0
M  V30 20390 C 1981.36 -4.08549 1.31855 0
M  V30 20391 C 1980.59 -5.27692 0.798538 0
M  V30 20392 O 1980.82 -5.69202 -0.369435 0
M  V30 20393 O 1979.75 -5.81174 1.5659 0
M  V30 20394 H 1983.58 -2.50794 1.71278 0
M  V30 20395 H 1981.16 -1.19548 0.896024 0
M  V30 20396 H 1983.04 -4.21371 -0.0497791 0
M  V30 20397 H 1981.72 -3.17324 -0.639327 0
M  V30 20398 H 1980.63 -3.34682 1.67148 0
M  V30 20399 H 1981.96 -4.41215 2.18153 0
M  V30 20400 N 1983.61 -0.910886 -1.2861 0
M  V30 20401 C 1984.84 -0.558332 -1.99224 0
M  V30 20402 C 1985.25 0.859686 -1.68092 0
M  V30 20403 O 1984.61 1.56902 -0.932092 0
M  V30 20404 C 1984.66 -0.754443 -3.5354 0
M  V30 20405 O 1984.38 -2.11666 -3.83574 0
M  V30 20406 C 1985.88 -0.408335 -4.41415 0
M  V30 20407 H 1983.1 -0.213139 -0.636249 0
M  V30 20408 H 1985.65 -1.2233 -1.63877 0
M  V30 20409 H 1983.8 -0.136504 -3.87159 0
M  V30 20410 H 1984.22 -2.15422 -4.78219 0
M  V30 20411 H 1985.69 -0.596337 -5.48769 0
M  V30 20412 H 1986.17 0.655276 -4.34284 0
M  V30 20413 H 1986.77 -1.00369 -4.13287 0
M  V30 20414 N 1985.09 1.42434 -0.674558 0
M  V30 20415 C 1986 2.346 0.00398919 0
M  V30 20416 C 1987.01 1.55078 0.789109 0
M  V30 20417 O 1988.19 1.87647 0.731485 0
M  V30 20418 C 1985.26 3.33607 0.94379 0
M  V30 20419 C 1984.32 4.29026 0.153229 0
M  V30 20420 C 1983.55 5.23304 1.04827 0
M  V30 20421 O 1983.77 5.2251 2.28779 0
M  V30 20422 O 1982.71 5.99742 0.509202 0
M  V30 20423 H 1986.53 2.94161 -0.755189 0
M  V30 20424 H 1984.12 1.42933 -0.434794 0
M  V30 20425 H 1986 3.94431 1.4833 0
M  V30 20426 H 1984.67 2.76519 1.68282 0
M  V30 20427 H 1983.58 3.71616 -0.430381 0
M  V30 20428 H 1984.91 4.89155 -0.546686 0
M  V30 20429 N 1986.57 0.417871 1.51959 0
M  V30 20430 C 1987.48 -0.409946 2.3099 0
M  V30 20431 C 1988.49 -1.04559 1.39081 0
M  V30 20432 O 1989.67 -1.0452 1.72155 0
M  V30 20433 C 1986.73 -1.50691 3.12239 0
M  V30 20434 C 1985.79 -0.893424 4.199 0
M  V30 20435 C 1985.03 -1.93812 4.97265 0
M  V30 20436 O 1985.25 -3.15756 4.75031 0
M  V30 20437 O 1984.18 -1.53948 5.81879 0
M  V30 20438 H 1988.01 0.234696 3.02792 0
M  V30 20439 H 1985.6 0.180861 1.48301 0
M  V30 20440 H 1987.48 -2.14355 3.62808 0
M  V30 20441 H 1986.15 -2.136 2.43222 0
M  V30 20442 H 1985.06 -0.219262 3.73457 0
M  V30 20443 H 1986.39 -0.308133 4.91235 0
M  V30 20444 N 1988.04 -1.56898 0.148573 0
M  V30 20445 C 1989.01 -2.15649 -0.776414 0
M  V30 20446 C 1990.01 -1.09867 -1.17413 0
M  V30 20447 O 1991.2 -1.35498 -1.0948 0
M  V30 20448 C 1988.33 -2.72087 -2.05381 0
M  V30 20449 H 1989.52 -2.98724 -0.265327 0
M  V30 20450 H 1987.08 -1.55974 -0.100881 0
M  V30 20451 H 1987.81 -1.92683 -2.60852 0
M  V30 20452 H 1987.6 -3.49479 -1.77782 0
M  V30 20453 H 1989.09 -3.17348 -2.71441 0
M  V30 20454 N 1989.52 0.125209 -1.57102 0
M  V30 20455 C 1990.75 0.852378 -1.89075 0
M  V30 20456 C 1991.17 1.72938 -0.739878 0
M  V30 20457 O 1990.53 1.78633 0.309828 0
M  V30 20458 C 1990.58 1.66688 -3.19762 0
M  V30 20459 O 1989.68 2.77324 -3.0523 0
M  V30 20460 H 1989.02 0.236103 -0.620606 0
M  V30 20461 H 1991.55 0.109473 -2.04307 0
M  V30 20462 H 1991.56 2.0574 -3.52328 0
M  V30 20463 H 1990.24 1.02303 -4.03121 0
M  V30 20464 H 1988.82 2.41519 -2.84118 0
M  V30 20465 N 1991 1.52564 0.395213 0
M  V30 20466 C 1991.93 1.73146 1.50177 0
M  V30 20467 C 1992.95 0.611895 1.50863 0
M  V30 20468 O 1994.13 0.887429 1.54877 0
M  V30 20469 C 1991.23 1.76943 2.89041 0
M  V30 20470 C 1990.41 3.06156 3.12389 0
M  V30 20471 C 1989.47 3.01581 4.31202 0
M  V30 20472 O 1988.49 3.75459 4.27807 0
M  V30 20473 N 1989.69 2.20335 5.37059 0
M  V30 20474 H 1992.46 2.68617 1.3291 0
M  V30 20475 H 1990.02 1.50975 0.584663 0
M  V30 20476 H 1992.01 1.71396 3.66613 0
M  V30 20477 H 1990.58 0.888857 2.99697 0
M  V30 20478 H 1989.8 3.25242 2.22737 0
M  V30 20479 H 1991.09 3.91607 3.2484 0
M  V30 20480 H 1990.49 1.59768 5.4267 0
M  V30 20481 H 1989.05 2.20634 6.13322 0
M  V30 20482 N 1992.48 -0.653289 1.43422 0
M  V30 20483 C 1993.41 -1.77779 1.51383 0
M  V30 20484 C 1994.39 -1.6606 0.368515 0
M  V30 20485 O 1995.57 -1.85157 0.585721 0
M  V30 20486 C 1992.7 -3.16206 1.43635 0
M  V30 20487 C 1991.66 -3.42688 2.56415 0
M  V30 20488 C 1990.98 -4.80915 2.3372 0
M  V30 20489 C 1992.28 -3.3744 3.98662 0
M  V30 20490 H 1993.98 -1.71374 2.45502 0
M  V30 20491 H 1991.52 -0.823062 1.1816 0
M  V30 20492 H 1993.48 -3.94627 1.47808 0
M  V30 20493 H 1992.2 -3.23341 0.460202 0
M  V30 20494 H 1990.86 -2.66638 2.51594 0
M  V30 20495 H 1990.51 -4.84726 1.34349 0
M  V30 20496 H 1990.21 -4.99594 3.09321 0
M  V30 20497 H 1991.73 -5.61594 2.39677 0
M  V30 20498 H 1993.15 -4.05798 4.0497 0
M  V30 20499 H 1991.54 -3.67656 4.74288 0
M  V30 20500 H 1992.61 -2.35624 4.23803 0
M  V30 20501 N 1993.96 -1.29952 -0.891648 0
M  V30 20502 C 1994.9 -1.15767 -1.99667 0
M  V30 20503 C 1995.87 -0.0488826 -1.66028 0
M  V30 20504 O 1997.06 -0.217864 -1.89552 0
M  V30 20505 C 1994.2 -0.848553 -3.34505 0
M  V30 20506 C 1993.31 -2.03857 -3.80876 0
M  V30 20507 C 1992.45 -1.66812 -5.04328 0
M  V30 20508 C 1991.49 -2.82348 -5.4309 0
M  V30 20509 N 1990.62 -2.45645 -6.57726 0
M  V30 20510 H 1995.46 -2.10304 -2.11131 0
M  V30 20511 H 1993 -1.04641 -1.03386 0
M  V30 20512 H 1994.96 -0.649983 -4.12106 0
M  V30 20513 H 1993.59 0.059928 -3.22744 0
M  V30 20514 H 1992.64 -2.34859 -2.99241 0
M  V30 20515 H 1993.95 -2.90402 -4.05547 0
M  V30 20516 H 1993.11 -1.43291 -5.89536 0
M  V30 20517 H 1991.84 -0.774269 -4.81515 0
M  V30 20518 H 1990.85 -3.06542 -4.56412 0
M  V30 20519 H 1992.07 -3.72409 -5.6788 0
M  V30 20520 H 1990.02 -1.58757 -6.365 0
M  V30 20521 H 1989.94 -3.25722 -6.82232 0
M  V30 20522 H 1991.21 -2.25463 -7.46181 0
M  V30 20523 N 1995.44 1.1031 -1.12559 0
M  V30 20524 C 1996.35 2.20257 -0.807721 0
M  V30 20525 C 1997.36 1.728 0.203997 0
M  V30 20526 O 1998.54 2.01365 0.0372766 0
M  V30 20527 C 1995.6 3.4566 -0.26839 0
M  V30 20528 C 1994.66 4.07844 -1.3402 0
M  V30 20529 C 1993.9 5.27261 -0.826511 0
M  V30 20530 O 1994.12 5.6939 0.339244 0
M  V30 20531 O 1993.05 5.80335 -1.5967 0
M  V30 20532 H 1996.88 2.49882 -1.72606 0
M  V30 20533 H 1994.46 1.19071 -0.902352 0
M  V30 20534 H 1996.35 4.21391 0.0274321 0
M  V30 20535 H 1995.02 3.17658 0.622489 0
M  V30 20536 H 1993.93 3.33791 -1.68921 0
M  V30 20537 H 1995.26 4.40051 -2.20489 0
M  V30 20538 N 1996.91 0.917694 1.28125 0
M  V30 20539 C 1998.33 0.616431 1.47215 0
M  V30 20540 C 1998.53 -0.837161 1.83286 0
M  V30 20541 O 1997.59 -1.61591 1.94022 0
M  V30 20542 C 1998.9 1.55772 2.57207 0
M  V30 20543 C 2000.45 1.56486 2.71074 0
M  V30 20544 C 2000.92 2.49286 3.84214 0
M  V30 20545 N 2002.41 2.47436 3.91573 0
M  V30 20546 C 2003.15 3.15936 4.7851 0
M  V30 20547 N 2002.64 3.9378 5.70008 0
M  V30 20548 N 2004.44 3.05004 4.72154 0
M  V30 20549 H 1996.59 1.85758 1.02993 0
M  V30 20550 H 1998.85 0.796969 0.513366 0
M  V30 20551 H 1998.56 2.59423 2.37471 0
M  V30 20552 H 1998.43 1.2918 3.5439 0
M  V30 20553 H 2000.82 0.535708 2.90197 0
M  V30 20554 H 2000.9 1.87122 1.7441 0
M  V30 20555 H 2000.54 3.52306 3.65846 0
M  V30 20556 H 2000.47 2.1595 4.80284 0
M  V30 20557 H 2002.96 1.90893 3.26141 0
M  V30 20558 H 2003.28 4.43058 6.33182 0
M  V30 20559 H 2001.62 3.97885 5.69836 0
M  V30 20560 H 2004.81 2.4369 3.99666 0
M  V30 20561 H 2004.99 3.5866 5.39691 0
M  V30 20562 N 1998.39 -1.42074 0.682102 0
M  V30 20563 C 1999.32 -2.33489 0.0224223 0
M  V30 20564 C 2000.3 -1.51082 -0.781557 0
M  V30 20565 O 2001.49 -1.79662 -0.737243 0
M  V30 20566 C 1998.62 -3.34773 -0.92434 0
M  V30 20567 C 1997.57 -4.2739 -0.228431 0
M  V30 20568 C 1996.9 -5.1894 -1.28863 0
M  V30 20569 C 1998.2 -5.14539 0.897035 0
M  V30 20570 H 1999.89 -2.88901 0.785898 0
M  V30 20571 H 1997.44 -1.38913 0.379376 0
M  V30 20572 H 1999.39 -3.97641 -1.39497 0
M  V30 20573 H 1998.11 -2.77681 -1.71932 0
M  V30 20574 H 1996.77 -3.65927 0.222034 0
M  V30 20575 H 1996.42 -4.5817 -2.07579 0
M  V30 20576 H 1996.12 -5.81736 -0.828084 0
M  V30 20577 H 1997.65 -5.84683 -1.76005 0
M  V30 20578 H 1999.06 -5.71051 0.507296 0
M  V30 20579 H 1997.46 -5.86206 1.28383 0
M  V30 20580 H 1998.53 -4.52505 1.74263 0
M  V30 20581 N 1999.87 -0.425924 -1.51735 0
M  V30 20582 C 2000.78 0.39769 -2.31205 0
M  V30 20583 C 2001.8 1.0382 -1.39633 0
M  V30 20584 O 2002.97 1.03606 -1.72707 0
M  V30 20585 C 2000.04 1.49033 -3.13033 0
M  V30 20586 C 1999.1 0.871143 -4.20368 0
M  V30 20587 C 1998.33 1.91172 -4.98286 0
M  V30 20588 O 1998.55 3.13232 -4.76699 0
M  V30 20589 O 1997.49 1.5086 -5.82688 0
M  V30 20590 H 2001.31 -0.25075 -3.02663 0
M  V30 20591 H 1998.9 -0.188723 -1.48203 0
M  V30 20592 H 2000.78 2.12428 -3.6394 0
M  V30 20593 H 1999.46 2.12307 -2.44351 0
M  V30 20594 H 1998.36 0.199453 -3.73568 0
M  V30 20595 H 1999.7 0.282077 -4.91391 0
M  V30 20596 N 2001.35 1.56817 -0.156891 0
M  V30 20597 C 2002.29 2.17256 0.779004 0
M  V30 20598 C 2003.26 1.1083 1.23717 0
M  V30 20599 O 2004.45 1.38917 1.30793 0
M  V30 20600 C 2001.59 2.80612 2.00876 0
M  V30 20601 C 2000.7 4.01457 1.59549 0
M  V30 20602 C 1999.84 4.52782 2.7778 0
M  V30 20603 C 1998.88 5.66071 2.32874 0
M  V30 20604 N 1998.01 6.11969 3.44148 0
M  V30 20605 H 2002.85 2.96891 0.256809 0
M  V30 20606 H 2000.39 1.46649 0.115039 0
M  V30 20607 H 2002.35 3.15494 2.72983 0
M  V30 20608 H 2000.98 2.03604 2.5049 0
M  V30 20609 H 2000.03 3.7249 0.771705 0
M  V30 20610 H 2001.34 4.83505 1.22576 0
M  V30 20611 H 2000.5 4.89771 3.58064 0
M  V30 20612 H 1999.24 3.69763 3.18005 0
M  V30 20613 H 1998.24 5.28648 1.51034 0
M  V30 20614 H 1999.47 6.50882 1.93724 0
M  V30 20615 H 1997.41 5.31883 3.83975 0
M  V30 20616 H 1997.33 6.88968 3.11222 0
M  V30 20617 H 1998.6 6.53605 4.24759 0
M  V30 20618 N 2002.83 -0.116876 1.57166 0
M  V30 20619 C 2003.74 -1.16207 2.03797 0
M  V30 20620 C 2004.75 -1.45203 0.958749 0
M  V30 20621 O 2005.93 -1.56277 1.27041 0
M  V30 20622 C 2002.99 -2.46823 2.43474 0
M  V30 20623 C 2002.05 -2.25205 3.65488 0
M  V30 20624 C 2001.29 -3.49592 4.03263 0
M  V30 20625 O 2001.51 -4.56981 3.41357 0
M  V30 20626 O 2000.44 -3.40468 4.96352 0
M  V30 20627 H 2004.27 -0.796087 2.9308 0
M  V30 20628 H 2001.85 -0.327825 1.45759 0
M  V30 20629 H 2003.74 -3.23774 2.69719 0
M  V30 20630 H 2002.41 -2.82891 1.57335 0
M  V30 20631 H 2001.32 -1.46104 3.4439 0
M  V30 20632 H 2002.65 -1.94039 4.52338 0
M  V30 20633 N 2004.3 -1.52772 -0.387116 0
M  V30 20634 C 2005.25 -1.77684 -1.47299 0
M  V30 20635 C 2006.22 -0.620145 -1.54089 0
M  V30 20636 O 2007.41 -0.860064 -1.70316 0
M  V30 20637 C 2004.55 -1.95321 -2.84506 0
M  V30 20638 C 2003.66 -3.23016 -2.86853 0
M  V30 20639 C 2002.79 -3.30959 -4.15499 0
M  V30 20640 C 2001.83 -4.5277 -4.11905 0
M  V30 20641 N 2000.97 -4.57985 -5.3216 0
M  V30 20642 H 2005.81 -2.70351 -1.25356 0
M  V30 20643 H 2003.35 -1.33943 -0.608094 0
M  V30 20644 H 2005.3 -2.03531 -3.64185 0
M  V30 20645 H 2003.93 -1.06012 -3.04895 0
M  V30 20646 H 2002.99 -3.23868 -1.99534 0
M  V30 20647 H 2004.3 -4.12753 -2.80066 0
M  V30 20648 H 2003.45 -3.38363 -5.03583 0
M  V30 20649 H 2002.19 -2.392 -4.25011 0
M  V30 20650 H 2001.2 -4.4549 -3.22209 0
M  V30 20651 H 2002.42 -5.45848 -4.04013 0
M  V30 20652 H 2000.37 -3.69118 -5.42299 0
M  V30 20653 H 2000.28 -5.41596 -5.27456 0
M  V30 20654 H 2001.55 -4.69645 -6.22136 0
M  V30 20655 N 2005.78 0.645673 -1.43767 0
M  V30 20656 C 2006.73 1.75828 -1.4951 0
M  V30 20657 C 2007.7 1.62496 -0.344109 0
M  V30 20658 O 2008.88 1.82631 -0.552323 0
M  V30 20659 C 2006.02 3.14017 -1.43134 0
M  V30 20660 C 2005.14 3.38428 -2.68496 0
M  V30 20661 C 2004.27 4.66507 -2.54056 0
M  V30 20662 C 2003.31 4.84049 -3.74651 0
M  V30 20663 N 2002.45 6.03392 -3.58974 0
M  V30 20664 H 2007.29 1.70254 -2.44576 0
M  V30 20665 H 2004.82 0.830729 -1.21397 0
M  V30 20666 H 2006.78 3.93915 -1.37431 0
M  V30 20667 H 2005.41 3.18642 -0.516449 0
M  V30 20668 H 2004.46 2.52574 -2.84448 0
M  V30 20669 H 2005.78 3.47274 -3.58054 0
M  V30 20670 H 2004.93 5.54543 -2.46103 0
M  V30 20671 H 2003.67 4.59996 -1.62035 0
M  V30 20672 H 2002.67 3.94447 -3.83004 0
M  V30 20673 H 2003.9 4.92385 -4.67689 0
M  V30 20674 H 2001.85 5.97998 -2.69694 0
M  V30 20675 H 2001.76 6.13229 -4.42138 0
M  V30 20676 H 2003.03 6.94029 -3.54887 0
M  V30 20677 N 2007.26 1.30423 0.884744 0
M  V30 20678 C 2008.19 1.19397 2.00666 0
M  V30 20679 C 2009.17 0.084568 1.6989 0
M  V30 20680 O 2010.36 0.266641 1.92361 0
M  V30 20681 C 2007.49 0.885244 3.35828 0
M  V30 20682 C 2006.44 1.9526 3.80864 0
M  V30 20683 C 2005.77 1.49687 5.13321 0
M  V30 20684 C 2007.07 3.3637 3.99566 0
M  V30 20685 H 2008.76 2.13256 2.10148 0
M  V30 20686 H 2006.31 1.02669 1.00971 0
M  V30 20687 H 2008.26 0.794764 4.13837 0
M  V30 20688 H 2006.98 -0.0890295 3.26479 0
M  V30 20689 H 2005.64 2.03272 3.05084 0
M  V30 20690 H 2005.29 0.510855 5.00399 0
M  V30 20691 H 2004.99 2.2108 5.44424 0
M  V30 20692 H 2006.51 1.42018 5.93855 0
M  V30 20693 H 2007.93 3.31115 4.68012 0
M  V30 20694 H 2006.32 4.05852 4.42046 0
M  V30 20695 H 2007.39 3.78244 3.03414 0
M  V30 20696 N 2008.74 -1.09711 1.13142 0
M  V30 20697 C 2009.97 -1.85595 0.914436 0
M  V30 20698 C 2010.38 -1.81013 -0.536632 0
M  V30 20699 O 2009.74 -1.20419 -1.37134 0
M  V30 20700 C 2009.79 -3.33692 1.39039 0
M  V30 20701 O 2009.51 -3.38219 2.78459 0
M  V30 20702 C 2011.01 -4.26427 1.21142 0
M  V30 20703 H 2008.23 -0.586333 0.326274 0
M  V30 20704 H 2010.77 -1.38646 1.50325 0
M  V30 20705 H 2008.93 -3.7808 0.844641 0
M  V30 20706 H 2009.34 -4.30567 2.9952 0
M  V30 20707 H 2010.82 -5.28508 1.59323 0
M  V30 20708 H 2011.29 -4.38934 0.152782 0
M  V30 20709 H 2011.9 -3.87851 1.74505 0
M  V30 20710 N 2010.22 -0.924476 -1.27637 0
M  V30 20711 C 2011.44 -0.57884 -1.99159 0
M  V30 20712 C 2011.87 0.83532 -1.68535 0
M  V30 20713 O 2011.22 1.55999 -0.92379 0
M  V30 20714 C 2011.27 -0.807508 -3.51442 0
M  V30 20715 O 2010.38 0.128443 -4.122 0
M  V30 20716 H 2009.72 -0.223218 -0.625356 0
M  V30 20717 H 2012.25 -1.24285 -1.62525 0
M  V30 20718 H 2012.26 -0.721808 -4.01564 0
M  V30 20719 H 2010.93 -1.83836 -3.73064 0
M  V30 20720 H 2009.51 -0.00689785 -3.72899 0
M  V30 20721 N 2011.69 1.41711 -0.689627 0
M  V30 20722 C 2012.97 1.95052 -0.146379 0
M  V30 20723 C 2013.35 1.62932 1.34225 0
M  V30 20724 O 2012.7 0.933198 2.08575 0
M  V30 20725 C 2012.91 3.46324 -0.431327 0
M  V30 20726 C 2014.26 4.23106 -0.355847 0
M  V30 20727 O 2015.28 3.54316 -0.365905 0
M  V30 20728 O 2014.14 5.45615 -0.310824 0
M  V30 20729 H 2011.23 0.82692 -0.0115 0
M  V30 20730 H 2013.78 1.5146 -0.765378 0
M  V30 20731 H 2012.55 3.62963 -1.46197 0
M  V30 20732 H 2012.18 3.96997 0.218942 0
M  V30 20733 N 2013.17 0.433965 1.51507 0
M  V30 20734 C 2014.1 -0.369789 2.30553 0
M  V30 20735 C 2015.08 -1.02405 1.35821 0
M  V30 20736 O 2016.27 -1.02833 1.64739 0
M  V30 20737 C 2013.4 -1.47312 3.1451 0
M  V30 20738 C 2012.35 -0.942531 4.17493 0
M  V30 20739 C 2011.68 -2.14135 4.89949 0
M  V30 20740 C 2012.98 0.0206958 5.22296 0
M  V30 20741 H 2014.67 0.289851 2.97994 0
M  V30 20742 H 2012.22 0.14084 1.4331 0
M  V30 20743 H 2014.17 -2.04259 3.68587 0
M  V30 20744 H 2012.9 -2.161 2.44884 0
M  V30 20745 H 2011.55 -0.395296 3.64463 0
M  V30 20746 H 2011.2 -2.81535 4.1683 0
M  V30 20747 H 2010.9 -1.79273 5.59584 0
M  V30 20748 H 2012.43 -2.71642 5.46848 0
M  V30 20749 H 2013.84 -0.458366 5.71465 0
M  V30 20750 H 2012.24 0.281718 5.99438 0
M  V30 20751 H 2013.31 0.958416 4.75334 0
M  V30 20752 N 2014.65 -1.56732 0.165206 0
M  V30 20753 C 2015.9 -1.96308 -0.48036 0
M  V30 20754 C 2016.22 -1.05198 -1.6419 0
M  V30 20755 O 2015.49 -0.117108 -1.9555 0
M  V30 20756 H 2014.07 -0.724877 -0.180451 0
M  V30 20757 H 2016.73 -1.93354 0.244961 0
M  V30 20758 H 2015.83 -3.00459 -0.844437 0
M  V30 20759 N 2016.13 0.10854 -1.57226 0
M  V30 20760 C 2017.54 0.462379 -1.52755 0
M  V30 20761 C 2017.74 1.81276 -0.87985 0
M  V30 20762 O 2016.8 2.48151 -0.466628 0
M  V30 20763 C 2018.11 0.437241 -2.97504 0
M  V30 20764 C 2019.66 0.520052 -3.08649 0
M  V30 20765 C 2020.14 0.525198 -4.54979 0
M  V30 20766 N 2021.63 0.586339 -4.59474 0
M  V30 20767 C 2022.36 0.61194 -5.70125 0
M  V30 20768 N 2021.86 0.594556 -6.90244 0
M  V30 20769 N 2023.65 0.655738 -5.58262 0
M  V30 20770 H 2015.8 -0.776135 -1.97712 0
M  V30 20771 H 2018.07 -0.287457 -0.903367 0
M  V30 20772 H 2017.77 -0.487552 -3.48304 0
M  V30 20773 H 2017.65 1.2612 -3.55491 0
M  V30 20774 H 2020.03 1.43526 -2.57845 0
M  V30 20775 H 2020.11 -0.331795 -2.53639 0
M  V30 20776 H 2019.76 -0.386013 -5.06431 0
M  V30 20777 H 2019.69 1.39407 -5.07812 0
M  V30 20778 H 2022.18 0.605514 -3.73017 0
M  V30 20779 H 2022.49 0.617002 -7.70333 0
M  V30 20780 H 2020.84 0.561814 -6.92726 0
M  V30 20781 H 2024.03 0.666756 -4.63327 0
M  V30 20782 H 2024.2 0.672222 -6.44504 0
M  V30 20783 N 2017.61 1.52975 0.379009 0
M  V30 20784 C 2018.57 1.77806 1.4463 0
M  V30 20785 C 2019.57 0.648223 1.47155 0
M  V30 20786 O 2020.76 0.916347 1.48151 0
M  V30 20787 C 2017.89 1.88792 2.83849 0
M  V30 20788 H 2019.08 2.73113 1.23892 0
M  V30 20789 H 2016.64 1.43848 0.61135 0
M  V30 20790 H 2017.37 0.955049 3.09918 0
M  V30 20791 H 2017.16 2.70957 2.83416 0
M  V30 20792 H 2018.65 2.09642 3.61165 0
M  V30 20793 N 2019.08 -0.63804 1.44107 0
M  V30 20794 C 2020.05 -1.7322 1.50092 0
M  V30 20795 C 2021.05 -1.56153 0.383763 0
M  V30 20796 O 2022.24 -1.61774 0.646118 0
M  V30 20797 C 2019.37 -3.1224 1.36818 0
M  V30 20798 H 2020.56 -1.6929 2.4755 0
M  V30 20799 H 2018.12 -0.851079 1.31097 0
M  V30 20800 H 2018.85 -3.2177 0.404269 0
M  V30 20801 H 2018.64 -3.26033 2.17818 0
M  V30 20802 H 2020.13 -3.91997 1.43972 0
M  V30 20803 N 2020.56 -1.3089 -0.877815 0
M  V30 20804 C 2021.79 -1.23068 -1.66319 0
M  V30 20805 C 2022.21 0.205309 -1.8768 0
M  V30 20806 O 2021.56 1.13467 -1.42939 0
M  V30 20807 C 2021.61 -1.96305 -3.03557 0
M  V30 20808 O 2021.33 -3.34298 -2.83154 0
M  V30 20809 C 2022.84 -1.95228 -3.97996 0
M  V30 20810 H 2020.06 -0.425583 -0.518768 0
M  V30 20811 H 2022.6 -1.72636 -1.09623 0
M  V30 20812 H 2020.75 -1.50518 -3.56964 0
M  V30 20813 H 2021.17 -3.71486 -3.70268 0
M  V30 20814 H 2022.64 -2.50997 -4.91635 0
M  V30 20815 H 2023.12 -0.932904 -4.29178 0
M  V30 20816 H 2023.73 -2.40858 -3.50525 0
M  V30 20817 N 2022.04 1.0911 -1.13723 0
M  V30 20818 C 2023.46 1.33403 -0.87611 0
M  V30 20819 C 2023.66 1.95536 0.486607 0
M  V30 20820 O 2022.71 2.2038 1.23243 0
M  V30 20821 C 2024.03 2.24255 -2.00325 0
M  V30 20822 C 2025.57 2.37755 -2.03572 0
M  V30 20823 C 2026.05 3.31944 -3.15558 0
M  V30 20824 N 2027.54 3.39519 -3.15089 0
M  V30 20825 C 2028.27 4.12409 -3.9838 0
M  V30 20826 N 2027.77 4.88068 -4.91692 0
M  V30 20827 N 2029.56 4.08167 -3.86467 0
M  V30 20828 H 2021.71 0.671565 -2.01504 0
M  V30 20829 H 2023.98 0.358401 -0.877641 0
M  V30 20830 H 2023.68 1.85834 -2.98595 0
M  V30 20831 H 2023.56 3.24667 -1.92019 0
M  V30 20832 H 2025.94 2.75438 -1.05913 0
M  V30 20833 H 2026.03 1.3711 -2.1595 0
M  V30 20834 H 2025.67 2.94984 -4.13458 0
M  V30 20835 H 2025.6 4.32501 -3.00418 0
M  V30 20836 H 2028.09 2.85573 -2.475 0
M  V30 20837 H 2028.4 5.41127 -5.51726 0
M  V30 20838 H 2026.75 4.87146 -4.95695 0
M  V30 20839 H 2029.94 3.48161 -3.12892 0
M  V30 20840 H 2030.11 4.64711 -4.51606 0
M  V30 20841 N 2023.52 0.931232 1.27145 0
M  V30 20842 C 2024.45 0.450505 2.29113 0
M  V30 20843 C 2025.43 -0.491043 1.62858 0
M  V30 20844 O 2026.61 -0.395036 1.9014 0
M  V30 20845 C 2023.74 -0.29432 3.46051 0
M  V30 20846 C 2022.7 0.559727 4.24324 0
M  V30 20847 C 2022.02 -0.314473 5.33774 0
M  V30 20848 C 2023.32 1.826 4.89341 0
M  V30 20849 H 2025.02 1.3027 2.69574 0
M  V30 20850 H 2022.56 0.627845 1.29592 0
M  V30 20851 H 2024.52 -0.641592 4.16487 0
M  V30 20852 H 2023.24 -1.18057 3.04516 0
M  V30 20853 H 2021.9 0.889756 3.55639 0
M  V30 20854 H 2021.55 -1.19978 4.88482 0
M  V30 20855 H 2021.25 0.253489 5.87053 0
M  V30 20856 H 2022.77 -0.657238 6.07053 0
M  V30 20857 H 2024.19 1.54659 5.52045 0
M  V30 20858 H 2022.58 2.33775 5.52693 0
M  V30 20859 H 2023.65 2.5434 4.12842 0
M  V30 20860 N 2025 -1.41343 0.697132 0
M  V30 20861 C 2025.93 -2.29199 -0.00639609 0
M  V30 20862 C 2026.94 -1.44867 -0.742796 0
M  V30 20863 O 2028.13 -1.68354 -0.593239 0
M  V30 20864 C 2025.23 -3.22767 -1.03317 0
M  V30 20865 C 2024.4 -4.35865 -0.366071 0
M  V30 20866 C 2023.46 -5.09999 -1.29567 0
M  V30 20867 O 2022.49 -5.63727 -0.787462 0
M  V30 20868 N 2023.69 -5.1761 -2.62792 0
M  V30 20869 H 2026.46 -2.90219 0.747884 0
M  V30 20870 H 2024.02 -1.52512 0.543287 0
M  V30 20871 H 2026.01 -3.69231 -1.65682 0
M  V30 20872 H 2024.58 -2.63045 -1.68897 0
M  V30 20873 H 2023.8 -3.91765 0.437484 0
M  V30 20874 H 2025.09 -5.08706 0.0977313 0
M  V30 20875 H 2024.49 -4.7541 -3.06598 0
M  V30 20876 H 2023.04 -5.67645 -3.20348 0
M  V30 20877 N 2026.48 -0.441993 -1.51275 0
M  V30 20878 C 2027.39 0.373145 -2.31613 0
M  V30 20879 C 2028.4 1.02333 -1.40726 0
M  V30 20880 O 2029.58 1.01768 -1.73796 0
M  V30 20881 C 2026.64 1.45705 -3.14597 0
M  V30 20882 C 2025.7 0.826508 -4.21269 0
M  V30 20883 C 2024.94 1.85876 -5.00286 0
M  V30 20884 O 2025.16 3.08159 -4.79994 0
M  V30 20885 O 2024.09 1.44671 -5.84255 0
M  V30 20886 H 2027.92 -0.282837 -3.0238 0
M  V30 20887 H 2025.5 -0.204432 -1.47995 0
M  V30 20888 H 2027.39 2.08556 -3.66172 0
M  V30 20889 H 2026.06 2.09703 -2.46589 0
M  V30 20890 H 2024.97 0.15982 -3.73758 0
M  V30 20891 H 2026.3 0.229942 -4.91663 0
M  V30 20892 N 2027.95 1.56642 -0.173515 0
M  V30 20893 C 2028.88 2.21076 0.751509 0
M  V30 20894 C 2029.86 1.16706 1.23749 0
M  V30 20895 O 2031.05 1.45142 1.29025 0
M  V30 20896 C 2028.18 2.85323 1.9801 0
M  V30 20897 C 2027.13 3.95751 1.62989 0
M  V30 20898 C 2026.46 4.47058 2.93332 0
M  V30 20899 C 2027.76 5.15234 0.856231 0
M  V30 20900 H 2029.45 2.98631 0.21442 0
M  V30 20901 H 2027 1.4364 0.101692 0
M  V30 20902 H 2028.95 3.29075 2.63226 0
M  V30 20903 H 2027.68 2.0514 2.54136 0
M  V30 20904 H 2026.34 3.52658 1.00141 0
M  V30 20905 H 2025.98 3.63663 3.47503 0
M  V30 20906 H 2025.68 5.21556 2.70652 0
M  V30 20907 H 2027.21 4.93497 3.59573 0
M  V30 20908 H 2028.62 5.55665 1.41102 0
M  V30 20909 H 2027.02 5.95663 0.728389 0
M  V30 20910 H 2028.09 4.84677 -0.147009 0
M  V30 20911 N 2029.43 -0.1002 1.57281 0
M  V30 20912 C 2030.36 -1.12278 2.04734 0
M  V30 20913 C 2031.34 -1.42079 0.935281 0
M  V30 20914 O 2032.53 -1.52197 1.20622 0
M  V30 20915 C 2029.66 -2.44402 2.46748 0
M  V30 20916 C 2028.61 -2.29021 3.61571 0
M  V30 20917 C 2027.94 -3.66276 3.89545 0
M  V30 20918 C 2029.24 -1.73501 4.9264 0
M  V30 20919 H 2030.93 -0.728019 2.90414 0
M  V30 20920 H 2028.48 -0.348753 1.39713 0
M  V30 20921 H 2030.43 -3.16206 2.78553 0
M  V30 20922 H 2029.15 -2.85804 1.58061 0
M  V30 20923 H 2027.81 -1.59664 3.30005 0
M  V30 20924 H 2027.46 -4.05197 2.98034 0
M  V30 20925 H 2027.16 -3.56833 4.66845 0
M  V30 20926 H 2028.69 -4.39555 4.2382 0
M  V30 20927 H 2030.1 -2.35141 5.22859 0
M  V30 20928 H 2028.5 -1.7483 5.74068 0
M  V30 20929 H 2029.57 -0.69403 4.79908 0
M  V30 20930 N 2030.91 -1.53174 -0.370891 0
M  V30 20931 C 2031.86 -1.79236 -1.45406 0
M  V30 20932 C 2032.83 -0.636453 -1.53423 0
M  V30 20933 O 2034.01 -0.878079 -1.69394 0
M  V30 20934 C 2031.15 -1.98327 -2.82419 0
M  V30 20935 C 2030.26 -3.2604 -2.83411 0
M  V30 20936 C 2029.4 -3.35348 -4.11965 0
M  V30 20937 C 2028.44 -4.57114 -4.07079 0
M  V30 20938 N 2027.58 -4.63603 -5.27272 0
M  V30 20939 H 2032.42 -2.71666 -1.22482 0
M  V30 20940 H 2029.95 -1.3458 -0.593853 0
M  V30 20941 H 2031.91 -2.07382 -3.62006 0
M  V30 20942 H 2030.54 -1.0924 -3.03754 0
M  V30 20943 H 2029.59 -3.25966 -1.96088 0
M  V30 20944 H 2030.9 -4.157 -2.75672 0
M  V30 20945 H 2030.06 -3.43685 -4.99966 0
M  V30 20946 H 2028.8 -2.43695 -4.2245 0
M  V30 20947 H 2027.8 -4.48883 -3.17466 0
M  V30 20948 H 2029.03 -5.50102 -3.98201 0
M  V30 20949 H 2026.97 -3.74849 -5.38353 0
M  V30 20950 H 2026.89 -5.4716 -5.21682 0
M  V30 20951 H 2028.16 -4.76218 -6.1712 0
M  V30 20952 N 2032.39 0.630389 -1.44443 0
M  V30 20953 C 2033.62 1.41712 -1.50749 0
M  V30 20954 C 2034.03 1.88334 -0.132593 0
M  V30 20955 O 2033.39 1.60878 0.861649 0
M  V30 20956 C 2033.44 2.63694 -2.47281 0
M  V30 20957 O 2033.16 2.19016 -3.79425 0
M  V30 20958 C 2034.66 3.56813 -2.63058 0
M  V30 20959 H 2031.88 0.43458 -0.511255 0
M  V30 20960 H 2034.42 0.770878 -1.89414 0
M  V30 20961 H 2032.58 3.24409 -2.11749 0
M  V30 20962 H 2032.99 2.98104 -4.31549 0
M  V30 20963 H 2034.47 4.39008 -3.34628 0
M  V30 20964 H 2034.94 4.05669 -1.68313 0
M  V30 20965 H 2035.55 3.01966 -2.99494 0
M  V30 20966 N 2033.87 1.31354 0.870861 0
M  V30 20967 C 2035.09 1.23948 1.65664 0
M  V30 20968 C 2035.51 -0.195353 1.87787 0
M  V30 20969 O 2034.87 -1.12708 1.43538 0
M  V30 20970 C 2034.92 1.97912 3.02511 0
M  V30 20971 O 2034.64 3.35795 2.81377 0
M  V30 20972 C 2036.14 1.97336 3.96955 0
M  V30 20973 H 2033.36 0.428328 0.516504 0
M  V30 20974 H 2035.9 1.73214 1.08706 0
M  V30 20975 H 2034.06 1.52409 3.5616 0
M  V30 20976 H 2034.47 3.73444 3.68293 0
M  V30 20977 H 2035.95 2.53601 4.90297 0
M  V30 20978 H 2036.42 0.955651 4.28677 0
M  V30 20979 H 2037.03 2.42714 3.49242 0
M  V30 20980 N 2035.34 -1.08505 1.143 0
M  V30 20981 C 2036.28 -2.15273 0.786783 0
M  V30 20982 C 2037.29 -1.61618 -0.195861 0
M  V30 20983 O 2038.48 -1.78481 0.0257031 0
M  V30 20984 C 2035.58 -3.38581 0.147036 0
M  V30 20985 C 2034.75 -4.21623 1.16415 0
M  V30 20986 C 2033.81 -5.23335 0.548355 0
M  V30 20987 O 2032.84 -5.56168 1.21104 0
M  V30 20988 N 2034.04 -5.76558 -0.67533 0
M  V30 20989 H 2036.8 -2.46436 1.70557 0
M  V30 20990 H 2034.36 -1.24306 1.03728 0
M  V30 20991 H 2036.36 -4.03748 -0.277407 0
M  V30 20992 H 2034.93 -3.05228 -0.674862 0
M  V30 20993 H 2034.15 -3.5245 1.76557 0
M  V30 20994 H 2035.43 -4.73925 1.85128 0
M  V30 20995 H 2034.83 -5.52115 -1.23232 0
M  V30 20996 H 2033.39 -6.43412 -1.0423 0
M  V30 20997 N 2036.82 -0.937962 -1.26649 0
M  V30 20998 C 2037.73 -0.451023 -2.30224 0
M  V30 20999 C 2038.75 0.473402 -1.67436 0
M  V30 21000 O 2039.92 0.353715 -1.9827 0
M  V30 21001 C 2036.99 0.278943 -3.45576 0
M  V30 21002 C 2036.05 -0.681649 -4.23854 0
M  V30 21003 C 2035.28 0.0135756 -5.33698 0
M  V30 21004 O 2035.51 1.2311 -5.56956 0
M  V30 21005 O 2034.44 -0.663486 -5.98232 0
M  V30 21006 H 2038.27 -1.31129 -2.73932 0
M  V30 21007 H 2035.85 -0.703717 -1.31788 0
M  V30 21008 H 2037.73 0.690262 -4.15708 0
M  V30 21009 H 2036.41 1.11465 -3.03903 0
M  V30 21010 H 2035.31 -1.14285 -3.56216 0
M  V30 21011 H 2036.65 -1.48488 -4.69268 0
M  V30 21012 N 2038.3 1.40971 -0.704618 0
M  V30 21013 C 2039.23 2.29199 -0.00575899 0
M  V30 21014 C 2040.24 1.45259 0.735102 0
M  V30 21015 O 2041.43 1.68666 0.584302 0
M  V30 21016 C 2038.53 3.23311 1.01604 0
M  V30 21017 C 2037.71 4.36053 0.342951 0
M  V30 21018 C 2036.77 5.10679 1.26861 0
M  V30 21019 O 2035.79 5.64136 0.757556 0
M  V30 21020 N 2036.99 5.18997 2.60043 0
M  V30 21021 H 2039.76 2.89818 -0.763264 0
M  V30 21022 H 2037.32 1.52222 -0.551367 0
M  V30 21023 H 2039.31 3.70104 1.63722 0
M  V30 21024 H 2037.88 2.63937 1.675 0
M  V30 21025 H 2037.1 3.91527 -0.458254 0
M  V30 21026 H 2038.39 5.08647 -0.124708 0
M  V30 21027 H 2037.79 4.77029 3.04072 0
M  V30 21028 H 2036.34 5.69336 3.17333 0
M  V30 21029 N 2039.78 0.45001 1.51039 0
M  V30 21030 C 2040.71 -0.345315 2.30933 0
M  V30 21031 C 2041.69 -1.00959 1.36899 0
M  V30 21032 O 2042.87 -1.0108 1.6582 0
M  V30 21033 C 2040 -1.43968 3.16055 0
M  V30 21034 C 2038.96 -0.898198 4.18469 0
M  V30 21035 C 2038.28 -2.08927 4.92193 0
M  V30 21036 C 2039.58 0.0760911 5.22245 0
M  V30 21037 H 2041.28 0.321441 2.97669 0
M  V30 21038 H 2038.82 0.156032 1.43152 0
M  V30 21039 H 2040.78 -2.00338 3.70732 0
M  V30 21040 H 2039.5 -2.1349 2.47163 0
M  V30 21041 H 2038.16 -0.356617 3.64861 0
M  V30 21042 H 2037.81 -2.77098 4.19792 0
M  V30 21043 H 2037.51 -1.73328 5.61454 0
M  V30 21044 H 2039.03 -2.65827 5.49698 0
M  V30 21045 H 2040.45 -0.397728 5.71919 0
M  V30 21046 H 2038.84 0.345281 5.99106 0
M  V30 21047 H 2039.91 1.00878 4.74291 0
M  V30 21048 N 2041.26 -1.56548 0.18182 0
M  V30 21049 C 2042.22 -2.17247 -0.730497 0
M  V30 21050 C 2043.22 -1.12333 -1.15056 0
M  V30 21051 O 2044.41 -1.3779 -1.06581 0
M  V30 21052 C 2041.54 -2.76383 -1.99563 0
M  V30 21053 H 2042.73 -2.9922 -0.201904 0
M  V30 21054 H 2040.29 -1.56153 -0.0677734 0
M  V30 21055 H 2041.02 -1.98173 -2.56706 0
M  V30 21056 H 2040.81 -3.53172 -1.70329 0
M  V30 21057 H 2042.3 -3.23034 -2.64649 0
M  V30 21058 N 2042.73 0.0918577 -1.57332 0
M  V30 21059 C 2044.15 0.446151 -1.53237 0
M  V30 21060 C 2044.35 1.80332 -0.899027 0
M  V30 21061 O 2043.41 2.47642 -0.492921 0
M  V30 21062 C 2044.72 0.405662 -2.97951 0
M  V30 21063 C 2046.27 0.487286 -3.09184 0
M  V30 21064 C 2046.74 0.476912 -4.5551 0
M  V30 21065 N 2048.23 0.537573 -4.6007 0
M  V30 21066 C 2048.97 0.551436 -5.70742 0
M  V30 21067 N 2048.46 0.521312 -6.90836 0
M  V30 21068 N 2050.26 0.59649 -5.58926 0
M  V30 21069 H 2042.41 -0.797061 -1.96877 0
M  V30 21070 H 2044.67 -0.297022 -0.900268 0
M  V30 21071 H 2044.38 -0.524467 -3.47768 0
M  V30 21072 H 2044.25 1.22343 -3.56808 0
M  V30 21073 H 2046.64 1.40783 -2.59353 0
M  V30 21074 H 2046.72 -0.358678 -2.53273 0
M  V30 21075 H 2046.36 -0.439705 -5.05993 0
M  V30 21076 H 2046.29 1.34013 -5.09262 0
M  V30 21077 H 2048.78 0.565916 -3.73639 0
M  V30 21078 H 2049.1 0.535263 -7.70944 0
M  V30 21079 H 2047.44 0.48831 -6.93282 0
M  V30 21080 H 2050.63 0.617576 -4.64008 0
M  V30 21081 H 2050.81 0.603826 -6.45181 0
M  V30 21082 N 2044.21 1.53368 0.362763 0
M  V30 21083 C 2045.12 1.82969 1.46832 0
M  V30 21084 C 2046.14 0.718285 1.58482 0
M  V30 21085 O 2047.31 1.00863 1.74323 0
M  V30 21086 C 2044.38 2.01596 2.82064 0
M  V30 21087 C 2043.44 3.25491 2.79918 0
M  V30 21088 C 2042.67 3.4322 4.087 0
M  V30 21089 O 2042.9 2.65185 5.05008 0
M  V30 21090 O 2041.83 4.36585 4.1434 0
M  V30 21091 H 2045.66 2.769 1.24741 0
M  V30 21092 H 2043.24 1.38783 0.553131 0
M  V30 21093 H 2045.12 2.15403 3.62187 0
M  V30 21094 H 2043.8 1.10854 3.04127 0
M  V30 21095 H 2042.71 3.17105 1.98483 0
M  V30 21096 H 2044.04 4.16164 2.62809 0
M  V30 21097 N 2045.69 -0.62272 1.44776 0
M  V30 21098 C 2046.64 -1.73427 1.52288 0
M  V30 21099 C 2047.61 -1.61928 0.369917 0
M  V30 21100 O 2048.79 -1.81729 0.581308 0
M  V30 21101 C 2045.93 -3.117 1.48112 0
M  V30 21102 C 2045.05 -3.34114 2.73847 0
M  V30 21103 C 2044.18 -4.62407 2.61445 0
M  V30 21104 C 2043.22 -4.78027 3.82304 0
M  V30 21105 N 2042.36 -5.97605 3.68528 0
M  V30 21106 H 2047.2 -1.66341 2.47254 0
M  V30 21107 H 2044.73 -0.811311 1.22704 0
M  V30 21108 H 2046.69 -3.91678 1.4368 0
M  V30 21109 H 2045.32 -3.1778 0.567076 0
M  V30 21110 H 2044.37 -2.48017 2.8843 0
M  V30 21111 H 2045.69 -3.41533 3.63533 0
M  V30 21112 H 2044.84 -5.50558 2.54894 0
M  V30 21113 H 2043.58 -4.5736 1.69333 0
M  V30 21114 H 2042.58 -3.88303 3.89231 0
M  V30 21115 H 2043.81 -4.84883 4.75464 0
M  V30 21116 H 2041.75 -5.93631 2.79173 0
M  V30 21117 H 2041.67 -6.06118 4.51838 0
M  V30 21118 H 2042.94 -6.88295 3.65883 0
M  V30 21119 N 2047.17 -1.31814 -0.863883 0
M  V30 21120 C 2048.45 -1.12477 -1.60026 0
M  V30 21121 C 2048.83 0.318288 -2.08687 0
M  V30 21122 O 2048.17 1.31341 -1.86981 0
M  V30 21123 C 2048.38 -2.14432 -2.75355 0
M  V30 21124 C 2049.73 -2.47276 -3.45166 0
M  V30 21125 O 2050.76 -2.12906 -2.85569 0
M  V30 21126 O 2049.61 -3.06158 -4.52691 0
M  V30 21127 H 2046.71 -0.433423 -0.704325 0
M  V30 21128 H 2049.25 -1.43313 -0.908815 0
M  V30 21129 H 2048.03 -3.11472 -2.36856 0
M  V30 21130 H 2047.65 -1.84536 -3.52182 0
M  V30 21131 N 2048.65 1.07897 -1.14873 0
M  V30 21132 C 2049.87 1.84117 -0.943847 0
M  V30 21133 C 2050.29 1.81844 0.507767 0
M  V30 21134 O 2049.65 1.22585 1.352 0
M  V30 21135 C 2049.7 3.31438 -1.4433 0
M  V30 21136 O 2049.42 3.33746 -2.83805 0
M  V30 21137 C 2050.92 4.24445 -1.2791 0
M  V30 21138 H 2048.14 0.581068 -0.335561 0
M  V30 21139 H 2050.68 1.36237 -1.52512 0
M  V30 21140 H 2048.84 3.76689 -0.904683 0
M  V30 21141 H 2049.25 4.25748 -3.06332 0
M  V30 21142 H 2050.73 5.25906 -1.67711 0
M  V30 21143 H 2051.2 4.38636 -0.222593 0
M  V30 21144 H 2051.81 3.85025 -1.80653 0
M  V30 21145 N 2050.12 0.944665 1.2615 0
M  V30 21146 C 2051.37 0.594973 1.93876 0
M  V30 21147 C 2051.7 -0.864305 1.73906 0
M  V30 21148 O 2050.98 -1.61882 1.07817 0
M  V30 21149 C 2051.26 0.9423 3.47552 0
M  V30 21150 C 2051.11 2.45658 3.76792 0
M  V30 21151 C 2052.43 0.460204 4.37687 0
M  V30 21152 H 2049.55 0.217629 0.704135 0
M  V30 21153 H 2052.19 1.17952 1.48954 0
M  V30 21154 H 2050.34 0.444863 3.85945 0
M  V30 21155 H 2052.02 3.02701 3.48095 0
M  V30 21156 H 2050.26 2.89856 3.22747 0
M  V30 21157 H 2050.93 2.65011 4.84224 0
M  V30 21158 H 2053.41 0.886761 4.06541 0
M  V30 21159 H 2052.28 0.732019 5.43997 0
M  V30 21160 H 2052.54 -0.639853 4.37445 0
M  V30 21161 N 2051.6 -1.40596 0.712085 0
M  V30 21162 C 2052.55 -2.30729 0.0572693 0
M  V30 21163 C 2053.52 -1.48 -0.753997 0
M  V30 21164 O 2054.7 -1.76748 -0.71866 0
M  V30 21165 C 2051.84 -3.34184 -0.861092 0
M  V30 21166 C 2050.96 -4.31982 -0.0396747 0
M  V30 21167 C 2050.09 -5.22505 -0.957193 0
M  V30 21168 C 2049.13 -6.11963 -0.129658 0
M  V30 21169 N 2048.27 -6.94915 -1.00186 0
M  V30 21170 H 2053.11 -2.86161 0.831601 0
M  V30 21171 H 2050.65 -1.40923 0.421786 0
M  V30 21172 H 2052.6 -3.92732 -1.40775 0
M  V30 21173 H 2051.23 -2.80263 -1.60164 0
M  V30 21174 H 2050.29 -3.75245 0.624125 0
M  V30 21175 H 2051.6 -4.95164 0.601165 0
M  V30 21176 H 2050.75 -5.85967 -1.57251 0
M  V30 21177 H 2049.49 -4.59589 -1.63186 0
M  V30 21178 H 2048.5 -5.47534 0.49862 0
M  V30 21179 H 2049.72 -6.76938 0.541455 0
M  V30 21180 H 2047.67 -6.34591 -1.66225 0
M  V30 21181 H 2047.58 -7.54849 -0.41698 0
M  V30 21182 H 2048.85 -7.6283 -1.60347 0
M  V30 21183 N 2053.08 -0.458013 -1.50798 0
M  V30 21184 C 2054.03 0.342913 -2.28238 0
M  V30 21185 C 2055 0.99876 -1.32718 0
M  V30 21186 O 2056.18 1.01371 -1.61643 0
M  V30 21187 C 2053.32 1.42646 -3.14239 0
M  V30 21188 C 2052.44 0.786698 -4.24776 0
M  V30 21189 C 2051.57 1.84704 -4.98054 0
M  V30 21190 C 2050.61 1.18681 -6.00484 0
M  V30 21191 N 2049.75 2.18942 -6.6709 0
M  V30 21192 H 2054.59 -0.323799 -2.96236 0
M  V30 21193 H 2052.12 -0.171528 -1.46097 0
M  V30 21194 H 2054.08 2.0662 -3.62442 0
M  V30 21195 H 2052.71 2.06252 -2.48314 0
M  V30 21196 H 2051.76 0.0347215 -3.80384 0
M  V30 21197 H 2053.08 0.264877 -4.98096 0
M  V30 21198 H 2052.23 2.5629 -5.49909 0
M  V30 21199 H 2050.97 2.40263 -4.24411 0
M  V30 21200 H 2049.97 0.45651 -5.47901 0
M  V30 21201 H 2051.2 0.638278 -6.76094 0
M  V30 21202 H 2049.14 2.73543 -5.96247 0
M  V30 21203 H 2049.06 1.71709 -7.36242 0
M  V30 21204 H 2050.33 2.89949 -7.23568 0
M  V30 21205 N 2054.56 1.56449 -0.190119 0
M  V30 21206 C 2055.49 2.21861 0.728019 0
M  V30 21207 C 2056.47 1.18012 1.22504 0
M  V30 21208 O 2057.66 1.46503 1.27478 0
M  V30 21209 C 2054.79 2.87407 1.94973 0
M  V30 21210 C 2053.74 3.97457 1.58782 0
M  V30 21211 C 2053.07 4.50144 2.88573 0
M  V30 21212 C 2054.37 5.16113 0.801535 0
M  V30 21213 H 2056.06 2.98842 0.182734 0
M  V30 21214 H 2053.61 1.4374 0.0864508 0
M  V30 21215 H 2055.56 3.31848 2.59721 0
M  V30 21216 H 2054.28 2.07824 2.51946 0
M  V30 21217 H 2052.94 3.537 0.96395 0
M  V30 21218 H 2052.59 3.67328 3.43626 0
M  V30 21219 H 2052.29 5.24398 2.65105 0
M  V30 21220 H 2053.81 4.97283 3.54318 0
M  V30 21221 H 2055.23 5.5713 1.35201 0
M  V30 21222 H 2053.62 5.96402 0.66517 0
M  V30 21223 H 2054.69 4.84494 -0.198407 0
M  V30 21224 N 2056.04 -0.0835127 1.57379 0
M  V30 21225 C 2056.97 -1.12692 1.99582 0
M  V30 21226 C 2057.98 -1.35658 0.900041 0
M  V30 21227 O 2059.17 -1.34105 1.17805 0
M  V30 21228 C 2056.27 -2.4802 2.30953 0
M  V30 21229 C 2055.44 -2.45172 3.62228 0
M  V30 21230 C 2054.5 -3.62516 3.81403 0
M  V30 21231 O 2053.53 -3.44479 4.53126 0
M  V30 21232 N 2054.73 -4.82432 3.22862 0
M  V30 21233 H 2057.5 -0.767618 2.89703 0
M  V30 21234 H 2055.06 -0.272335 1.59593 0
M  V30 21235 H 2057.05 -3.25144 2.40964 0
M  V30 21236 H 2055.62 -2.75996 1.46781 0
M  V30 21237 H 2054.84 -1.53514 3.6308 0
M  V30 21238 H 2056.13 -2.40359 4.48448 0
M  V30 21239 H 2055.53 -4.9999 2.64625 0
M  V30 21240 H 2054.08 -5.57108 3.3834 0
M  V30 21241 N 2057.52 -1.53558 -0.354624 0
M  V30 21242 C 2058.43 -1.83745 -1.4586 0
M  V30 21243 C 2059.44 -0.72668 -1.58099 0
M  V30 21244 O 2060.62 -1.01786 -1.73786 0
M  V30 21245 C 2057.68 -2.03089 -2.80991 0
M  V30 21246 C 2056.74 -3.26971 -2.78187 0
M  V30 21247 C 2055.98 -3.45383 -4.06874 0
M  V30 21248 O 2056.2 -2.6786 -5.03594 0
M  V30 21249 O 2055.13 -4.38776 -4.12019 0
M  V30 21250 H 2058.96 -2.77557 -1.23271 0
M  V30 21251 H 2056.54 -1.39075 -0.545763 0
M  V30 21252 H 2058.43 -2.17321 -3.6104 0
M  V30 21253 H 2057.1 -1.12466 -3.03534 0
M  V30 21254 H 2056.01 -3.18153 -1.96798 0
M  V30 21255 H 2057.34 -4.17552 -2.60598 0
M  V30 21256 N 2058.99 0.615033 -1.45104 0
M  V30 21257 C 2059.93 1.73982 -1.49208 0
M  V30 21258 C 2060.94 1.58215 -0.383649 0
M  V30 21259 O 2062.13 1.66233 -0.650297 0
M  V30 21260 C 2059.23 3.11897 -1.32565 0
M  V30 21261 C 2058.4 3.53973 -2.56947 0
M  V30 21262 C 2057.46 4.70825 -2.34969 0
M  V30 21263 O 2056.49 4.78319 -3.08544 0
M  V30 21264 N 2057.69 5.63599 -1.39054 0
M  V30 21265 H 2060.45 1.70927 -2.46179 0
M  V30 21266 H 2058.01 0.800093 -1.40748 0
M  V30 21267 H 2060.01 3.87814 -1.15684 0
M  V30 21268 H 2058.58 3.09502 -0.438979 0
M  V30 21269 H 2057.8 2.68096 -2.88995 0
M  V30 21270 H 2059.08 3.78841 -3.39642 0
M  V30 21271 H 2058.48 5.60252 -0.783199 0
M  V30 21272 H 2057.04 6.39079 -1.28147 0
M  V30 21273 N 2060.47 1.3227 0.85688 0
M  V30 21274 C 2061.4 1.23626 1.98088 0
M  V30 21275 C 2062.38 0.120585 1.69672 0
M  V30 21276 O 2063.57 0.307383 1.91752 0
M  V30 21277 C 2060.7 0.956279 3.33875 0
M  V30 21278 C 2059.65 2.03295 3.76637 0
M  V30 21279 C 2058.98 1.60541 5.1003 0
M  V30 21280 C 2060.28 3.4477 3.92341 0
M  V30 21281 H 2061.97 2.17665 2.05578 0
M  V30 21282 H 2059.52 1.04788 0.987703 0
M  V30 21283 H 2061.47 0.882366 4.12059 0
M  V30 21284 H 2060.19 -0.0197585 3.26594 0
M  V30 21285 H 2058.85 2.09698 3.00703 0
M  V30 21286 H 2058.5 0.616883 4.99203 0
M  V30 21287 H 2058.2 2.32578 5.39612 0
M  V30 21288 H 2059.73 1.54582 5.90709 0
M  V30 21289 H 2061.14 3.40968 4.60884 0
M  V30 21290 H 2059.54 4.15137 4.33338 0
M  V30 21291 H 2060.61 3.84594 2.95322 0
M  V30 21292 N 2061.95 -1.07287 1.15444 0
M  V30 21293 C 2062.86 -2.18038 0.865835 0
M  V30 21294 C 2063.88 -1.7328 -0.15811 0
M  V30 21295 O 2065.05 -2.01394 0.016125 0
M  V30 21296 C 2062.12 -3.44827 0.359941 0
M  V30 21297 C 2061.18 -4.04148 1.44786 0
M  V30 21298 C 2060.41 -5.24885 0.966015 0
M  V30 21299 O 2060.63 -5.7009 -0.188161 0
M  V30 21300 O 2059.57 -5.75898 1.75 0
M  V30 21301 H 2063.39 -2.45218 1.7917 0
M  V30 21302 H 2060.98 -1.16637 0.933604 0
M  V30 21303 H 2062.86 -4.21316 0.0843019 0
M  V30 21304 H 2061.54 -3.19197 -0.538049 0
M  V30 21305 H 2060.44 -3.29195 1.77711 0
M  V30 21306 H 2061.78 -4.34051 2.32079 0
M  V30 21307 N 2063.43 -0.951342 -1.25647 0
M  V30 21308 C 2064.37 -0.467715 -2.26011 0
M  V30 21309 C 2065.34 0.478049 -1.59072 0
M  V30 21310 O 2066.53 0.392024 -1.86729 0
M  V30 21311 C 2063.67 0.251483 -3.44182 0
M  V30 21312 C 2062.78 -0.731135 -4.25768 0
M  V30 21313 C 2061.92 0.0102901 -5.31199 0
M  V30 21314 C 2060.96 -0.963479 -6.0447 0
M  V30 21315 N 2060.09 -0.253142 -7.01643 0
M  V30 21316 H 2064.93 -1.32847 -2.6675 0
M  V30 21317 H 2062.47 -0.666278 -1.31146 0
M  V30 21318 H 2064.43 0.685002 -4.11538 0
M  V30 21319 H 2063.06 1.07631 -3.04328 0
M  V30 21320 H 2062.11 -1.28314 -3.58106 0
M  V30 21321 H 2063.42 -1.47435 -4.76513 0
M  V30 21322 H 2062.58 0.502603 -6.04615 0
M  V30 21323 H 2061.32 0.78632 -4.81319 0
M  V30 21324 H 2060.32 -1.46682 -5.29872 0
M  V30 21325 H 2061.55 -1.73968 -6.56439 0
M  V30 21326 H 2059.49 0.50421 -6.54059 0
M  V30 21327 H 2059.41 -0.935511 -7.50189 0
M  V30 21328 H 2060.68 0.217742 -7.79196 0
M  V30 21329 N 2064.91 1.40216 -0.719531 0
M  V30 21330 C 2065.87 2.29067 -0.078186 0
M  V30 21331 C 2066.87 1.45561 0.683282 0
M  V30 21332 O 2068.06 1.66426 0.514598 0
M  V30 21333 C 2065.19 3.28832 0.899035 0
M  V30 21334 H 2066.38 2.87281 -0.860786 0
M  V30 21335 H 2063.94 1.48604 -0.48442 0
M  V30 21336 H 2064.67 2.75643 1.70855 0
M  V30 21337 H 2064.46 3.90482 0.355853 0
M  V30 21338 H 2065.95 3.95353 1.34483 0
M  V30 21339 N 2066.38 0.466004 1.50553 0
M  V30 21340 C 2067.29 -0.33625 2.32178 0
M  V30 21341 C 2068.31 -1.00081 1.42337 0
M  V30 21342 O 2069.49 -0.989904 1.75393 0
M  V30 21343 C 2066.55 -1.40682 3.16875 0
M  V30 21344 C 2065.61 -0.759384 4.2253 0
M  V30 21345 C 2064.84 -1.77894 5.03179 0
M  V30 21346 O 2065.07 -3.00483 4.84836 0
M  V30 21347 O 2064 -1.35358 5.86483 0
M  V30 21348 H 2067.83 0.330908 3.01892 0
M  V30 21349 H 2065.41 0.22795 1.47651 0
M  V30 21350 H 2067.29 -2.02704 3.69444 0
M  V30 21351 H 2065.97 -2.05753 2.49894 0
M  V30 21352 H 2064.88 -0.100338 3.73965 0
M  V30 21353 H 2066.21 -0.151694 4.91966 0
M  V30 21354 N 2067.86 -1.56346 0.198413 0
M  V30 21355 C 2069.14 -1.89433 -0.487272 0
M  V30 21356 C 2069.52 -1.11243 -1.79411 0
M  V30 21357 O 2068.87 -0.214538 -2.27491 0
M  V30 21358 C 2069.08 -3.4185 -0.702822 0
M  V30 21359 C 2070.42 -4.12149 -1.0207 0
M  V30 21360 O 2071.45 -3.47319 -0.790427 0
M  V30 21361 O 2070.31 -5.26735 -1.45647 0
M  V30 21362 H 2067.4 -0.786878 -0.254463 0
M  V30 21363 H 2069.95 -1.6801 0.238874 0
M  V30 21364 H 2068.72 -3.90682 0.219919 0
M  V30 21365 H 2068.34 -3.68976 -1.48131 0
M  V30 21366 N 2069.34 0.0751653 -1.57421 0
M  V30 21367 C 2070.59 0.773427 -1.86715 0
M  V30 21368 C 2070.91 1.78283 -0.789938 0
M  V30 21369 O 2070.18 1.95055 0.18176 0
M  V30 21370 H 2068.76 0.288632 -0.688985 0
M  V30 21371 H 2071.42 0.0520552 -1.9483 0
M  V30 21372 H 2070.52 1.29172 -2.84114 0
M  V30 21373 N 2070.82 1.53744 0.346476 0
M  V30 21374 C 2072.04 1.75095 1.1116 0
M  V30 21375 C 2072.47 0.487459 1.81674 0
M  V30 21376 O 2071.83 -0.55973 1.72443 0
M  V30 21377 C 2071.87 2.92927 2.103 0
M  V30 21378 O 2070.98 2.62871 3.17762 0
M  V30 21379 H 2070.32 0.580905 0.321629 0
M  V30 21380 H 2072.85 2.00696 0.397762 0
M  V30 21381 H 2072.86 3.19633 2.53572 0
M  V30 21382 H 2071.53 3.84566 1.58372 0
M  V30 21383 H 2070.11 2.47043 2.79328 0
M  V30 21384 N 2072.3 -0.607329 1.45428 0
M  V30 21385 C 2073.52 -1.39786 1.53214 0
M  V30 21386 C 2073.95 -1.87369 0.165684 0
M  V30 21387 O 2073.3 -1.60154 -0.849728 0
M  V30 21388 C 2073.35 -2.57823 2.52111 0
M  V30 21389 O 2072.46 -3.58462 2.03909 0
M  V30 21390 H 2071.8 -0.417312 0.516476 0
M  V30 21391 H 2074.33 -0.739101 1.90784 0
M  V30 21392 H 2074.34 -3.05064 2.70925 0
M  V30 21393 H 2073.01 -2.22539 3.51354 0
M  V30 21394 H 2071.59 -3.17868 1.94973 0
M  V30 21395 N 2073.77 -1.32722 -0.849853 0
M  V30 21396 C 2075 -1.2671 -1.64193 0
M  V30 21397 C 2075.42 0.161092 -1.87409 0
M  V30 21398 O 2074.78 1.11408 -1.43031 0
M  V30 21399 C 2074.83 -2.03686 -2.97564 0
M  V30 21400 O 2073.93 -1.38794 -3.88343 0
M  V30 21401 H 2073.28 -0.436459 -0.5004 0
M  V30 21402 H 2075.81 -1.75113 -1.05813 0
M  V30 21403 H 2075.82 -2.1404 -3.47349 0
M  V30 21404 H 2074.49 -3.07537 -2.79989 0
M  V30 21405 H 2073.07 -1.37018 -3.46815 0
M  V30 21406 N 2075.25 1.06673 -1.16011 0
M  V30 21407 C 2076.2 2.14051 -0.863174 0
M  V30 21408 C 2077.17 1.65046 0.186783 0
M  V30 21409 O 2078.35 1.90727 0.0528262 0
M  V30 21410 C 2075.49 3.43152 -0.366184 0
M  V30 21411 C 2074.61 4.05911 -1.47852 0
M  V30 21412 C 2073.74 5.22872 -0.936942 0
M  V30 21413 C 2072.78 5.77607 -2.02574 0
M  V30 21414 N 2071.92 6.85889 -1.50004 0
M  V30 21415 H 2076.76 2.38791 -1.78277 0
M  V30 21416 H 2074.3 1.17165 -0.889421 0
M  V30 21417 H 2076.25 4.17157 -0.0596984 0
M  V30 21418 H 2074.88 3.18641 0.516479 0
M  V30 21419 H 2073.94 3.29491 -1.90105 0
M  V30 21420 H 2075.25 4.42592 -2.3003 0
M  V30 21421 H 2074.4 6.03888 -0.583409 0
M  V30 21422 H 2073.14 4.87627 -0.0844157 0
M  V30 21423 H 2072.15 4.95231 -2.38802 0
M  V30 21424 H 2073.37 6.14905 -2.88217 0
M  V30 21425 H 2071.32 6.5257 -0.669982 0
M  V30 21426 H 2071.23 7.21491 -2.25802 0
M  V30 21427 H 2072.5 7.70594 -1.17496 0
M  V30 21428 N 2076.73 0.957992 1.25141 0
M  V30 21429 C 2077.64 0.487592 2.29477 0
M  V30 21430 C 2078.66 -0.446704 1.68168 0
M  V30 21431 O 2079.83 -0.322127 1.98807 0
M  V30 21432 C 2076.9 -0.22393 3.45976 0
M  V30 21433 C 2075.96 0.748994 4.22716 0
M  V30 21434 C 2075.19 0.0713329 5.33652 0
M  V30 21435 O 2075.41 -1.14234 5.58844 0
M  V30 21436 O 2074.35 0.758575 5.97101 0
M  V30 21437 H 2078.17 1.35471 2.71811 0
M  V30 21438 H 2075.76 0.724594 1.30652 0
M  V30 21439 H 2077.64 -0.624039 4.16754 0
M  V30 21440 H 2076.32 -1.06616 3.05638 0
M  V30 21441 H 2075.22 1.19938 3.54353 0
M  V30 21442 H 2076.56 1.55935 4.66846 0
M  V30 21443 N 2078.21 -1.39832 0.726957 0
M  V30 21444 C 2079.46 -2.00277 0.27085 0
M  V30 21445 C 2079.78 -1.57958 -1.14343 0
M  V30 21446 O 2079.05 -0.824155 -1.7772 0
M  V30 21447 H 2077.63 -0.740656 0.0971496 0
M  V30 21448 H 2080.29 -1.71001 0.935123 0
M  V30 21449 H 2079.39 -3.10528 0.312892 0
M  V30 21450 N 2079.69 -0.473982 -1.50304 0
M  V30 21451 C 2080.91 0.0776132 -2.06754 0
M  V30 21452 C 2081.33 1.33251 -1.33752 0
M  V30 21453 O 2080.69 1.77889 -0.407659 0
M  V30 21454 C 2080.74 0.362773 -3.59675 0
M  V30 21455 O 2080.46 -0.842352 -4.29926 0
M  V30 21456 C 2081.96 0.961013 -4.32758 0
M  V30 21457 H 2079.18 -0.00837304 -0.670948 0
M  V30 21458 H 2081.72 -0.663594 -1.93434 0
M  V30 21459 H 2079.88 1.05392 -3.72789 0
M  V30 21460 H 2080.29 -0.588708 -5.21186 0
M  V30 21461 H 2081.77 1.11029 -5.40719 0
M  V30 21462 H 2082.24 1.95187 -3.93445 0
M  V30 21463 H 2082.85 0.308162 -4.24182 0
M  V30 21464 N 2081.16 1.56239 -0.206702 0
M  V30 21465 C 2082.39 2.02736 0.437344 0
M  V30 21466 C 2082.81 1.08577 1.53599 0
M  V30 21467 O 2082.17 0.0712895 1.8116 0
M  V30 21468 C 2082.22 3.47587 0.959974 0
M  V30 21469 O 2081.32 3.56556 2.07223 0
M  V30 21470 H 2080.67 0.656297 0.100845 0
M  V30 21471 H 2083.2 2.02066 -0.320985 0
M  V30 21472 H 2083.21 3.87612 1.27361 0
M  V30 21473 H 2081.88 4.15608 0.15578 0
M  V30 21474 H 2080.46 3.28412 1.76635 0
M  V30 21475 N 2082.64 -0.0668159 1.57458 0
M  V30 21476 C 2083.89 -0.766159 1.87771 0
M  V30 21477 C 2084.22 -1.76973 0.799644 0
M  V30 21478 O 2083.5 -1.93574 -0.189554 0
M  V30 21479 C 2083.78 -1.46969 3.28743 0
M  V30 21480 C 2083.63 -0.482195 4.47208 0
M  V30 21481 C 2084.95 -2.41336 3.68029 0
M  V30 21482 H 2082.07 -0.277066 0.682937 0
M  V30 21483 H 2084.71 -0.0292751 1.89977 0
M  V30 21484 H 2082.86 -2.09781 3.26993 0
M  V30 21485 H 2084.53 0.141096 4.61084 0
M  V30 21486 H 2082.78 0.202041 4.33329 0
M  V30 21487 H 2083.45 -1.01218 5.42641 0
M  V30 21488 H 2085.92 -1.88598 3.70905 0
M  V30 21489 H 2084.8 -2.87562 4.67546 0
M  V30 21490 H 2085.06 -3.26361 2.98229 0
M  V30 21491 O 2084.16 -1.60124 -0.21034 0
M  V30 21492 H 2084.85 -1.74026 -0.850564 0
M  V30 END ATOM
M  V30 BEGIN BOND
M  V30 END BOND
M  V30 END CTAB
M  END
$$$$
