drugbank_target|O14976 Cyclin-G-associated kinase (DB12010)
 OpenBabel12092121153D

  0  0  0     0  0            999 V3000
M  V30 BEGIN CTAB
M  V30 COUNTS 19904 20166 0 0 0
M  V30 BEGIN ATOM
M  V30 1 H -0.908 1.98254 -0.117106 0
M  V30 2 N 0 1.576 0 0
M  V30 3 C 0.933 2.03868 1.02534 0
M  V30 4 C 1.911 0.928543 1.3348 0
M  V30 5 O 3.095 1.19667 1.45644 0
M  V30 6 C 0.222 2.43627 2.35294 0
M  V30 7 C -0.732 3.65373 2.2001 0
M  V30 8 S 0.101 5.13292 1.52614 0
M  V30 9 C 1.257 5.56322 2.86805 0
M  V30 10 H 1.49 2.90518 0.631377 0
M  V30 11 H -0.977 1.52953 0.210867 0
M  V30 12 H 0.981 2.67203 3.11629 0
M  V30 13 H -0.358 1.57376 2.7183 0
M  V30 14 H -1.165 3.90944 3.18086 0
M  V30 15 H -1.563 3.418 1.51819 0
M  V30 16 H 0.729 5.58782 3.83104 0
M  V30 17 H 1.672 6.56266 2.65933 0
M  V30 18 H 2.08 4.83886 2.90714 0
M  V30 19 N 1.4781 -0.272755 1.55222 0
M  V30 20 C 2.7031 -1.02683 1.80197 0
M  V30 21 C 3.1281 -1.79142 0.573551 0
M  V30 22 O 2.4861 -1.74917 -0.476849 0
M  V30 23 C 2.5341 -1.9609 3.02624 0
M  V30 24 O 1.6381 -3.04863 2.77727 0
M  V30 25 H 0.9791 -0.293557 0.595584 0
M  V30 26 H 3.5091 -0.30159 2.02365 0
M  V30 27 H 3.5191 -2.38039 3.31363 0
M  V30 28 H 2.1941 -1.39851 3.91682 0
M  V30 29 H 0.7711 -2.67228 2.60084 0
M  V30 30 N 2.9562 -1.48159 -0.537278 0
M  V30 31 C 3.8862 -1.65029 -1.6519 0
M  V30 32 C 4.8672 -0.499281 -1.62607 0
M  V30 33 O 6.0522 -0.730972 -1.79918 0
M  V30 34 C 3.1822 -1.68303 -3.03795 0
M  V30 35 C 2.1362 -2.8283 -3.21234 0
M  V30 36 C 1.4622 -2.71189 -4.60826 0
M  V30 37 C 2.7622 -4.24211 -3.04701 0
M  V30 38 H 4.4562 -2.58341 -1.51328 0
M  V30 39 H 2.0022 -1.24325 -0.726585 0
M  V30 40 H 3.9552 -1.78693 -3.81637 0
M  V30 41 H 2.6792 -0.715635 -3.18663 0
M  V30 42 H 1.3382 -2.71983 -2.45807 0
M  V30 43 H 0.9862 -1.72435 -4.7252 0
M  V30 44 H 0.6862 -3.48035 -4.7344 0
M  V30 45 H 2.2102 -2.83537 -5.40777 0
M  V30 46 H 3.6242 -4.3593 -3.72341 0
M  V30 47 H 2.0212 -5.01998 -3.28813 0
M  V30 48 H 3.0912 -4.41184 -2.01209 0
M  V30 49 N 4.4343 0.785586 -1.36625 0
M  V30 50 C 5.3643 1.91259 -1.33949 0
M  V30 51 C 6.3453 1.68795 -0.210325 0
M  V30 52 O 7.5303 1.89854 -0.408561 0
M  V30 53 C 4.6603 3.28339 -1.13186 0
M  V30 54 C 3.6143 3.65335 -2.22967 0
M  V30 55 C 2.9403 5.00806 -1.87342 0
M  V30 56 C 4.2403 3.7352 -3.65075 0
M  V30 57 H 5.9343 1.93755 -2.28253 0
M  V30 58 H 3.4803 0.930788 -1.09874 0
M  V30 59 H 5.4333 4.06804 -1.09948 0
M  V30 60 H 4.1573 3.2624 -0.153332 0
M  V30 61 H 2.8163 2.89169 -2.25337 0
M  V30 62 H 2.4643 4.95233 -0.880545 0
M  V30 63 H 2.1643 5.26529 -2.60846 0
M  V30 64 H 3.6883 5.81687 -1.85667 0
M  V30 65 H 5.1023 4.42168 -3.64911 0
M  V30 66 H 3.4993 4.10731 -4.37516 0
M  V30 67 H 4.5693 2.74527 -3.99703 0
M  V30 68 N 5.9124 1.20967 1.01018 0
M  V30 69 C 6.8444 0.922059 2.09835 0
M  V30 70 C 7.8574 -0.0927106 1.62536 0
M  V30 71 O 9.0464 0.139127 1.77957 0
M  V30 72 C 6.1464 0.362004 3.36961 0
M  V30 73 C 5.3194 1.42986 4.13369 0
M  V30 74 C 4.3784 0.879976 5.1879 0
M  V30 75 O 3.4044 1.56219 5.47343 0
M  V30 76 N 4.6064 -0.307396 5.79686 0
M  V30 77 H 7.3714 1.8588 2.35093 0
M  V30 78 H 4.9324 1.11422 1.1746 0
M  V30 79 H 6.9244 -0.0201474 4.04695 0
M  V30 80 H 5.4944 -0.479437 3.08902 0
M  V30 81 H 4.7144 1.98608 3.40512 0
M  V30 82 H 6.0024 2.14885 4.61196 0
M  V30 83 H 5.4004 -0.878796 5.58832 0
M  V30 84 H 3.9574 -0.631115 6.48737 0
M  V30 85 N 7.3905 -1.2043 1.01659 0
M  V30 86 C 8.6155 -1.94318 0.724942 0
M  V30 87 C 9.0405 -1.74266 -0.708034 0
M  V30 88 O 8.3985 -1.03694 -1.48719 0
M  V30 89 C 8.4465 -3.44486 1.06591 0
M  V30 90 O 7.5505 -4.12017 0.177599 0
M  V30 91 H 6.8915 -0.60708 0.26898 0
M  V30 92 H 9.4215 -1.52861 1.35995 0
M  V30 93 H 9.4315 -3.95106 1.01762 0
M  V30 94 H 8.1065 -3.58404 2.10997 0
M  V30 95 H 6.6835 -3.71821 0.283421 0
M  V30 96 N 8.8686 -0.792821 -1.36206 0
M  V30 97 C 9.8316 -0.199459 -2.2833 0
M  V30 98 C 10.8316 0.605189 -1.48977 0
M  V30 99 O 12.0216 0.425685 -1.68919 0
M  V30 100 C 9.1536 0.723523 -3.33134 0
M  V30 101 H 10.3466 -1.01181 -2.82316 0
M  V30 102 H 7.8996 -0.562485 -1.45828 0
M  V30 103 H 8.6346 1.56008 -2.84309 0
M  V30 104 H 8.4196 0.148436 -3.91819 0
M  V30 105 H 9.9096 1.13344 -4.01924 0
M  V30 106 N 10.3467 1.47872 -0.545128 0
M  V30 107 C 11.2767 2.32661 0.197793 0
M  V30 108 C 12.2577 1.43041 0.920504 0
M  V30 109 O 13.4427 1.71912 0.90333 0
M  V30 110 C 10.5727 3.24569 1.23582 0
M  V30 111 C 9.5267 4.23333 0.630323 0
M  V30 112 C 8.8527 5.0448 1.77211 0
M  V30 113 C 10.1527 5.20704 -0.407974 0
M  V30 114 H 11.8467 2.95024 -0.510045 0
M  V30 115 H 9.3927 1.4187 -0.246731 0
M  V30 116 H 11.3457 3.8272 1.76362 0
M  V30 117 H 10.0697 2.60236 1.97344 0
M  V30 118 H 8.7287 3.6639 0.123922 0
M  V30 119 H 8.3767 4.36561 2.49847 0
M  V30 120 H 8.0767 5.71339 1.37281 0
M  V30 121 H 9.6007 5.65487 2.3034 0
M  V30 122 H 11.0147 5.7329 0.033305 0
M  V30 123 H 9.4117 5.95699 -0.725486 0
M  V30 124 H 10.4817 4.66917 -1.30828 0
M  V30 125 N 11.8248 0.280983 1.55075 0
M  V30 126 C 13.1018 -0.386207 1.91749 0
M  V30 127 C 13.4818 -1.73264 1.20594 0
M  V30 128 O 12.8298 -2.26034 0.334784 0
M  V30 129 C 13.0398 -0.520687 3.45094 0
M  V30 130 C 14.3878 -0.800865 4.16979 0
M  V30 131 O 15.4118 -0.605271 3.5102 0
M  V30 132 O 14.2708 -1.1753 5.33712 0
M  V30 133 H 11.3648 -0.212408 0.799257 0
M  V30 134 H 13.9108 0.327568 1.66509 0
M  V30 135 H 12.6828 0.426633 3.88967 0
M  V30 136 H 12.3058 -1.2837 3.76307 0
M  V30 137 N 13.3029 -1.57598 0.00835791 0
M  V30 138 C 14.5499 -1.90928 -0.674732 0
M  V30 139 C 14.8779 -0.88277 -1.73313 0
M  V30 140 O 14.1329 0.111294 -1.95383 0
M  V30 141 C 14.4319 -3.3101 -1.34787 0
M  V30 142 C 14.0979 -4.48922 -0.421861 0
M  V30 143 C 12.7599 -4.8091 -0.166927 0
M  V30 144 C 15.1119 -5.20755 0.215211 0
M  V30 145 C 12.4399 -5.821 0.733232 0
M  V30 146 C 14.7919 -6.22905 1.1033 0
M  V30 147 C 13.4559 -6.53346 1.36733 0
M  V30 148 H 12.7259 -0.698656 -0.246902 0
M  V30 149 H 15.3729 -1.91387 0.0656779 0
M  V30 150 H 13.6779 -3.26714 -2.16253 0
M  V30 151 H 15.3749 -3.54061 -1.8826 0
M  V30 152 H 11.9649 -4.23934 -0.630729 0
M  V30 153 H 16.1489 -4.9629 0.0312829 0
M  V30 154 H 11.4049 -6.04042 0.945712 0
M  V30 155 H 15.5789 -6.77694 1.60325 0
M  V30 156 H 13.2059 -7.31573 2.06652 0
M  V30 157 N 14.781 0.264519 -1.55364 0
M  V30 158 C 15.711 1.33121 -1.91836 0
M  V30 159 C 16.692 1.51101 -0.781192 0
M  V30 160 O 17.877 1.64003 -1.04003 0
M  V30 161 C 15.007 2.68921 -2.19769 0
M  V30 162 C 13.961 2.65661 -3.35571 0
M  V30 163 C 13.287 4.05093 -3.49004 0
M  V30 164 C 14.587 2.24187 -4.71739 0
M  V30 165 H 16.281 1.02844 -2.81182 0
M  V30 166 H 13.827 0.493286 -1.35287 0
M  V30 167 H 15.78 3.43663 -2.43872 0
M  V30 168 H 14.504 3.00799 -1.27231 0
M  V30 169 H 13.163 1.93377 -3.1145 0
M  V30 170 H 12.811 4.34206 -2.53917 0
M  V30 171 H 12.511 4.03804 -4.26868 0
M  V30 172 H 14.035 4.81561 -3.75408 0
M  V30 173 H 15.449 2.88654 -4.9533 0
M  V30 174 H 13.846 2.34044 -5.52579 0
M  V30 175 H 14.916 1.19327 -4.69988 0
M  V30 176 N 16.2591 1.48442 0.529413 0
M  V30 177 C 17.2221 1.62524 1.61612 0
M  V30 178 C 18.2221 0.498509 1.52877 0
M  V30 179 O 19.4121 0.76431 1.56537 0
M  V30 180 C 16.5441 1.59597 3.01233 0
M  V30 181 H 17.7371 2.59423 1.50465 0
M  V30 182 H 15.2901 1.37047 0.751514 0
M  V30 183 H 16.0251 0.641781 3.17886 0
M  V30 184 H 15.8101 2.41397 3.08982 0
M  V30 185 H 17.3001 1.72646 3.80241 0
M  V30 186 N 17.7372 -0.778329 1.37039 0
M  V30 187 C 18.9852 -1.53361 1.31623 0
M  V30 188 C 19.3062 -1.94739 -0.100831 0
M  V30 189 O 18.5762 -1.65797 -1.04347 0
M  V30 190 H 17.1562 -0.568794 0.484234 0
M  V30 191 H 19.8182 -0.926742 1.71457 0
M  V30 192 H 18.9142 -2.43606 1.95096 0
M  V30 193 N 19.2153 -1.21501 -1.00376 0
M  V30 194 C 20.6263 -1.03146 -1.55621 0
M  V30 195 C 20.9773 0.408375 -1.91903 0
M  V30 196 O 20.1023 1.29177 -1.73616 0
M  V30 197 C 20.6973 -1.86612 -2.82775 0
M  V30 198 C 19.2563 -1.72586 -3.34501 0
M  V30 199 C 18.4033 -1.83747 -2.07683 0
M  V30 200 H 21.3543 -1.35505 -0.826081 0
M  V30 201 H 21.3753 -1.3771 -3.54706 0
M  V30 202 H 20.8873 -2.91399 -2.56336 0
M  V30 203 H 18.9883 -0.704877 -3.65872 0
M  V30 204 H 19.1013 -2.54623 -4.05837 0
M  V30 205 H 17.4653 -1.27069 -2.20739 0
M  V30 206 H 18.2483 -2.90044 -1.83655 0
M  V30 207 N 20.6934 1.19889 -1.02296 0
M  V30 208 C 21.9414 1.89046 -0.714558 0
M  V30 209 C 22.2624 1.79636 0.758681 0
M  V30 210 O 21.5324 1.20292 1.54618 0
M  V30 211 H 20.1124 0.699802 -0.261317 0
M  V30 212 H 22.7744 1.45574 -1.29592 0
M  V30 213 H 21.8704 2.95524 -1.0036 0
M  V30 214 N 22.1715 0.800033 1.35784 0
M  V30 215 C 23.3965 0.388511 2.03729 0
M  V30 216 C 23.8215 -0.990481 1.5991 0
M  V30 217 O 23.1795 -1.64013 0.772612 0
M  V30 218 C 23.2275 0.4726 3.5749 0
M  V30 219 O 22.3315 -0.51646 4.09153 0
M  V30 220 H 21.6725 0.163271 0.643614 0
M  V30 221 H 24.2025 1.0841 1.73518 0
M  V30 222 H 24.2125 0.34003 4.06581 0
M  V30 223 H 22.8875 1.47848 3.88734 0
M  V30 224 H 21.4645 -0.344673 3.71304 0
M  V30 225 N 23.6496 -1.47581 0.552962 0
M  V30 226 C 24.5796 -2.32762 -0.185451 0
M  V30 227 C 25.5606 -1.43527 -0.912905 0
M  V30 228 O 26.7456 -1.72388 -0.894201 0
M  V30 229 C 23.8756 -3.25219 -1.21859 0
M  V30 230 C 22.8296 -4.23661 -0.607864 0
M  V30 231 C 22.1556 -5.05413 -1.74533 0
M  V30 232 C 23.4556 -5.20481 0.435582 0
M  V30 233 H 25.1496 -2.94749 0.525684 0
M  V30 234 H 22.6956 -1.41738 0.254251 0
M  V30 235 H 24.6486 -3.8365 -1.7433 0
M  V30 236 H 23.3726 -2.61279 -1.95961 0
M  V30 237 H 22.0316 -3.66451 -0.104489 0
M  V30 238 H 21.6796 -4.3788 -2.47529 0
M  V30 239 H 21.3796 -5.72059 -1.34249 0
M  V30 240 H 22.9036 -5.66701 -2.27338 0
M  V30 241 H 24.3176 -5.733 -0.00290157 0
M  V30 242 H 22.7146 -5.95305 0.757067 0
M  V30 243 H 23.7846 -4.66217 1.33303 0
M  V30 244 N 25.1277 -0.289203 -1.54924 0
M  V30 245 C 26.3757 0.322879 -1.99504 0
M  V30 246 C 26.6967 1.55313 -1.1791 0
M  V30 247 O 25.9667 1.94001 -0.272097 0
M  V30 248 H 24.5467 0.122291 -0.736922 0
M  V30 249 H 27.2087 -0.397802 -1.90797 0
M  V30 250 H 26.3047 0.603061 -3.06218 0
M  V30 251 N 26.6058 1.57591 -0.0167156 0
M  V30 252 C 27.8538 1.90906 0.663285 0
M  V30 253 C 28.1748 0.892509 1.73376 0
M  V30 254 O 27.4448 -0.0677623 1.95783 0
M  V30 255 H 26.0248 0.704637 0.247983 0
M  V30 256 H 28.6868 1.94803 -0.0615909 0
M  V30 257 H 27.7828 2.9116 1.12393 0
M  V30 258 N 28.0839 -0.256276 1.55502 0
M  V30 259 C 29.0469 -1.30047 1.88734 0
M  V30 260 C 30.0469 -1.4154 0.763086 0
M  V30 261 O 31.2369 -1.40403 1.03115 0
M  V30 262 C 28.3689 -2.67953 2.10747 0
M  V30 263 H 29.5619 -1.01802 2.82093 0
M  V30 264 H 27.1149 -0.495134 1.4825 0
M  V30 265 H 27.8499 -3.01351 1.19825 0
M  V30 266 H 27.6349 -2.60993 2.92617 0
M  V30 267 H 29.1249 -3.43368 2.37673 0
M  V30 268 N 29.562 -1.4872 -0.521534 0
M  V30 269 C 30.787 -1.61101 -1.30618 0
M  V30 270 C 31.212 -0.274611 -1.86085 0
M  V30 271 O 30.57 0.754937 -1.64834 0
M  V30 272 C 30.618 -2.66709 -2.4269 0
M  V30 273 O 29.722 -2.24456 -3.45967 0
M  V30 274 H 29.063 -0.539921 -0.386499 0
M  V30 275 H 31.593 -1.94767 -0.626645 0
M  V30 276 H 31.603 -2.88245 -2.88754 0
M  V30 277 H 30.278 -3.63727 -2.01682 0
M  V30 278 H 28.855 -2.13168 -3.05964 0
M  V30 279 N 31.0401 0.771051 -1.3745 0
M  V30 280 C 32.2881 1.52661 -1.32435 0
M  V30 281 C 32.6091 1.9479 0.0905024 0
M  V30 282 O 31.8791 1.66348 1.03466 0
M  V30 283 H 30.4591 0.566218 -0.487244 0
M  V30 284 H 33.1211 0.917636 -1.71946 0
M  V30 285 H 32.2171 2.42568 -1.96385 0
M  V30 286 N 32.5182 1.22032 0.997298 0
M  V30 287 C 33.9342 0.979326 1.26021 0
M  V30 288 C 34.1342 -0.32972 1.98784 0
M  V30 289 O 33.1902 -1.05345 2.29475 0
M  V30 290 C 34.5032 2.17509 2.07631 0
M  V30 291 C 36.0512 2.21817 2.2083 0
M  V30 292 C 36.5262 3.40933 3.05825 0
M  V30 293 N 38.0172 3.41067 3.13412 0
M  V30 294 C 38.7522 4.29885 3.79455 0
M  V30 295 N 38.2482 5.28914 4.47462 0
M  V30 296 N 40.0412 4.17673 3.76173 0
M  V30 297 H 32.1922 2.06202 0.509352 0
M  V30 298 H 34.4552 0.90334 0.287541 0
M  V30 299 H 34.1612 3.12415 1.61524 0
M  V30 300 H 34.0352 2.17206 3.08385 0
M  V30 301 H 36.4222 1.27462 2.66153 0
M  V30 302 H 36.5032 2.2616 1.1952 0
M  V30 303 H 36.1472 4.35586 2.61203 0
M  V30 304 H 36.0772 3.33829 4.07266 0
M  V30 305 H 38.5682 2.69406 2.65007 0
M  V30 306 H 38.8812 5.92973 4.95583 0
M  V30 307 H 37.2262 5.32831 4.46224 0
M  V30 308 H 40.4172 3.39564 3.22202 0
M  V30 309 H 40.5902 4.87098 4.27363 0
M  V30 310 N 33.9963 -1.19345 1.0293 0
M  V30 311 C 35.2733 -1.84811 0.640642 0
M  V30 312 C 35.6533 -1.91855 -0.88062 0
M  V30 313 O 35.0013 -1.43587 -1.7775 0
M  V30 314 C 35.2113 -3.23755 1.30321 0
M  V30 315 C 36.5593 -3.99912 1.42673 0
M  V30 316 O 37.5833 -3.33155 1.26041 0
M  V30 317 O 36.4423 -5.19494 1.6967 0
M  V30 318 H 33.5363 -0.796443 0.222726 0
M  V30 319 H 36.0823 -1.26831 1.12748 0
M  V30 320 H 34.8543 -3.13466 2.34211 0
M  V30 321 H 34.4773 -3.89381 0.804261 0
M  V30 322 N 35.4744 -0.807222 -1.35358 0
M  V30 323 C 36.4064 -0.175717 -2.28525 0
M  V30 324 C 37.4194 0.625354 -1.5031 0
M  V30 325 O 38.6084 0.457611 -1.72535 0
M  V30 326 C 35.7084 0.773471 -3.29956 0
M  V30 327 C 34.8814 0.0186296 -4.37396 0
M  V30 328 C 33.9404 0.886395 -5.18681 0
M  V30 329 O 32.9664 0.337106 -5.68201 0
M  V30 330 N 34.1684 2.20839 -5.36852 0
M  V30 331 H 36.9334 -0.976091 -2.83359 0
M  V30 332 H 34.4944 -0.662737 -1.47714 0
M  V30 333 H 36.4864 1.35824 -3.81227 0
M  V30 334 H 35.0564 1.47465 -2.75632 0
M  V30 335 H 34.2764 -0.747349 -3.87051 0
M  V30 336 H 35.5644 -0.501577 -5.06322 0
M  V30 337 H 34.9624 2.67858 -4.98265 0
M  V30 338 H 33.5194 2.74237 -5.91301 0
M  V30 339 N 36.9525 1.47285 -0.560781 0
M  V30 340 C 38.1775 2.07359 -0.0410566 0
M  V30 341 C 38.6025 1.41017 1.24483 0
M  V30 342 O 37.9605 0.486368 1.74654 0
M  V30 343 C 38.0085 3.6035 0.134123 0
M  V30 344 O 37.1125 3.94681 1.19587 0
M  V30 345 H 36.4535 0.661887 -0.0529291 0
M  V30 346 H 38.9835 1.89252 -0.777482 0
M  V30 347 H 38.9935 4.0652 0.347207 0
M  V30 348 H 37.6685 4.08034 -0.805047 0
M  V30 349 H 36.2455 3.60251 0.962987 0
M  V30 350 N 38.4306 0.297415 1.54768 0
M  V30 351 C 39.7076 -0.365847 1.92148 0
M  V30 352 C 40.0876 -1.71975 1.22424 0
M  V30 353 O 39.4356 -2.25666 0.358739 0
M  V30 354 C 39.6456 -0.484056 3.45627 0
M  V30 355 C 40.9936 -0.756594 4.17805 0
M  V30 356 O 42.0176 -0.568007 3.51642 0
M  V30 357 O 40.8766 -1.11863 5.34929 0
M  V30 358 H 37.9706 -0.203919 0.801465 0
M  V30 359 H 40.5166 0.34521 1.66152 0
M  V30 360 H 39.2886 0.467865 3.88493 0
M  V30 361 H 38.9116 -1.24372 3.77647 0
M  V30 362 N 39.9087 -1.5758 0.0250728 0
M  V30 363 C 41.1557 -1.91633 -0.654444 0
M  V30 364 C 41.4837 -0.901103 -1.72367 0
M  V30 365 O 40.7387 0.0905647 -1.9549 0
M  V30 366 C 41.0377 -3.32421 -1.31268 0
M  V30 367 C 40.7037 -4.49344 -0.374223 0
M  V30 368 C 39.3657 -4.8106 -0.115911 0
M  V30 369 C 41.7177 -5.20498 0.270432 0
M  V30 370 C 39.0457 -5.8129 0.79493 0
M  V30 371 C 41.3977 -6.21699 1.1693 0
M  V30 372 C 40.0617 -6.51859 1.43655 0
M  V30 373 H 39.3317 -0.701236 -0.239478 0
M  V30 374 H 41.9787 -1.91307 0.0859734 0
M  V30 375 H 40.2837 -3.28989 -2.12775 0
M  V30 376 H 41.9807 -3.56038 -1.84494 0
M  V30 377 H 38.5707 -4.24579 -0.58573 0
M  V30 378 H 42.7547 -4.96229 0.0839194 0
M  V30 379 H 38.0107 -6.03005 1.00973 0
M  V30 380 H 42.1847 -6.75955 1.67504 0
M  V30 381 H 39.8117 -7.2934 2.144 0
M  V30 382 N 41.3868 0.248026 -1.55636 0
M  V30 383 C 42.6328 0.97767 -1.77678 0
M  V30 384 C 42.9658 1.85016 -0.590135 0
M  V30 385 O 42.2408 1.90095 0.411611 0
M  V30 386 C 42.5238 1.83914 -3.09593 0
M  V30 387 C 42.3768 0.99491 -4.38659 0
M  V30 388 C 43.6958 2.82183 -3.37729 0
M  V30 389 H 40.8148 0.354005 -0.646413 0
M  V30 390 H 43.4568 0.248253 -1.88371 0
M  V30 391 H 41.6068 2.46104 -3.00608 0
M  V30 392 H 43.2788 0.391789 -4.59633 0
M  V30 393 H 41.5218 0.299231 -4.32767 0
M  V30 394 H 42.1928 1.63145 -5.2734 0
M  V30 395 H 44.6688 2.30129 -3.4667 0
M  V30 396 H 43.5448 3.39582 -4.31249 0
M  V30 397 H 43.8058 3.58588 -2.58586 0
M  V30 398 N 42.8649 1.48995 0.513639 0
M  V30 399 C 44.1129 1.57531 1.26604 0
M  V30 400 C 44.4339 0.258236 1.93283 0
M  V30 401 O 43.7039 -0.721502 1.8213 0
M  V30 402 H 42.2839 0.580387 0.470276 0
M  V30 403 H 44.9459 1.85552 0.596373 0
M  V30 404 H 44.0419 2.36486 2.03669 0
M  V30 405 N 44.343 -0.763751 1.37857 0
M  V30 406 C 45.275 -1.88664 1.30148 0
M  V30 407 C 46.288 -1.61365 0.215685 0
M  V30 408 O 47.477 -1.72134 0.472459 0
M  V30 409 C 44.577 -3.24075 0.991396 0
M  V30 410 C 43.75 -3.78958 2.18426 0
M  V30 411 C 42.809 -4.92862 1.8432 0
M  V30 412 O 41.835 -5.08027 2.56704 0
M  V30 413 N 43.037 -5.75071 0.792081 0
M  V30 414 H 45.802 -1.95791 2.26905 0
M  V30 415 H 43.363 -0.943226 1.31586 0
M  V30 416 H 45.355 -3.97804 0.743935 0
M  V30 417 H 43.925 -3.12399 0.112122 0
M  V30 418 H 43.145 -2.96913 2.59299 0
M  V30 419 H 44.433 -4.12357 2.98058 0
M  V30 420 H 43.831 -5.65375 0.191595 0
M  V30 421 H 42.388 -6.48991 0.60449 0
M  V30 422 N 45.8211 -1.22559 -0.990812 0
M  V30 423 C 47.0491 -1.07779 -1.76611 0
M  V30 424 C 47.4641 0.371513 -1.85109 0
M  V30 425 O 46.8211 1.25737 -1.32274 0
M  V30 426 C 46.8721 -1.68512 -3.19822 0
M  V30 427 O 46.5931 -3.07774 -3.1178 0
M  V30 428 C 48.0941 -1.59035 -4.13791 0
M  V30 429 H 45.3141 -0.377729 -0.554583 0
M  V30 430 H 47.8581 -1.62195 -1.24551 0
M  V30 431 H 46.0131 -1.18154 -3.68942 0
M  V30 432 H 46.4271 -3.37062 -4.01858 0
M  V30 433 H 47.9011 -2.0625 -5.1202 0
M  V30 434 H 48.3781 -0.547273 -4.35777 0
M  V30 435 H 48.9841 -2.08709 -3.70568 0
M  V30 436 N 47.2992 1.18797 -1.03562 0
M  V30 437 C 48.5452 1.8893 -0.737113 0
M  V30 438 C 48.8782 1.79837 0.732956 0
M  V30 439 O 48.1532 1.19525 1.5344 0
M  V30 440 C 48.4362 3.39607 -1.19745 0
M  V30 441 C 48.2892 3.57537 -2.72924 0
M  V30 442 C 49.6082 4.33069 -0.783526 0
M  V30 443 H 46.7272 0.686057 -0.269249 0
M  V30 444 H 49.3692 1.39797 -1.28673 0
M  V30 445 H 47.5192 3.81583 -0.729855 0
M  V30 446 H 49.1912 3.24688 -3.27682 0
M  V30 447 H 47.4342 3.00363 -3.12993 0
M  V30 448 H 48.1052 4.63238 -3.00191 0
M  V30 449 H 50.5812 3.98846 -1.18581 0
M  V30 450 H 49.4572 5.3707 -1.13343 0
M  V30 451 H 49.7182 4.40986 0.313681 0
M  V30 452 N 48.7773 0.814389 1.34928 0
M  V30 453 C 49.6873 0.231978 2.3345 0
M  V30 454 C 50.7033 -0.629139 1.62228 0
M  V30 455 O 51.8793 -0.539052 1.94052 0
M  V30 456 C 48.9443 -0.603482 3.41407 0
M  V30 457 C 48.0053 0.279037 4.28392 0
M  V30 458 C 47.2383 -0.516643 5.31193 0
M  V30 459 O 47.4613 -1.75068 5.4287 0
M  V30 460 O 46.3953 0.0965652 6.01823 0
M  V30 461 H 50.2213 1.04721 2.85074 0
M  V30 462 H 47.8063 0.576343 1.37836 0
M  V30 463 H 49.6883 -1.07908 4.0735 0
M  V30 464 H 48.3633 -1.39618 2.92042 0
M  V30 465 H 47.2703 0.801948 3.65403 0
M  V30 466 H 48.6033 1.03588 4.81176 0
M  V30 467 N 50.2554 -1.46986 0.568584 0
M  V30 468 C 51.1854 -2.32946 -0.160753 0
M  V30 469 C 52.1664 -1.44487 -0.897631 0
M  V30 470 O 53.3514 -1.73327 -0.875867 0
M  V30 471 C 50.4814 -3.26494 -1.18403 0
M  V30 472 C 49.4354 -4.24282 -0.562895 0
M  V30 473 C 48.7614 -5.07236 -1.69163 0
M  V30 474 C 50.0614 -5.19989 0.490761 0
M  V30 475 H 51.7554 -2.94175 0.556916 0
M  V30 476 H 49.3014 -1.4146 0.26927 0
M  V30 477 H 51.2544 -3.85477 -1.70251 0
M  V30 478 H 49.9784 -2.63343 -1.93179 0
M  V30 479 H 48.6374 -3.66541 -0.0656164 0
M  V30 480 H 48.2854 -4.4048 -2.42871 0
M  V30 481 H 47.9854 -5.7345 -1.28174 0
M  V30 482 H 49.5094 -5.6908 -2.21314 0
M  V30 483 H 50.9234 -5.73271 0.0579047 0
M  V30 484 H 49.3204 -5.94469 0.820165 0
M  V30 485 H 50.3904 -4.64777 1.3824 0
M  V30 486 N 51.7335 -0.305618 -1.54608 0
M  V30 487 C 52.9815 0.301701 -1.99835 0
M  V30 488 C 53.3025 1.54054 -1.19551 0
M  V30 489 O 52.5725 1.93702 -0.292658 0
M  V30 490 H 51.1525 0.114468 -0.738178 0
M  V30 491 H 53.8145 -0.418016 -1.90364 0
M  V30 492 H 52.9105 0.570548 -3.06841 0
M  V30 493 N 53.2116 1.57565 -0.0334293 0
M  V30 494 C 54.1216 2.13943 0.962572 0
M  V30 495 C 55.1376 1.09276 1.35406 0
M  V30 496 O 56.3136 1.41355 1.4346 0
M  V30 497 C 53.3786 2.65887 2.22497 0
M  V30 498 C 52.4396 3.85286 1.8935 0
M  V30 499 C 51.6726 4.34743 3.09571 0
M  V30 500 O 51.8956 3.83352 4.22371 0
M  V30 501 O 50.8296 5.26538 2.91618 0
M  V30 502 H 54.6556 2.99333 0.513169 0
M  V30 503 H 52.2406 1.4822 0.18743 0
M  V30 504 H 54.1226 2.99346 2.96598 0
M  V30 505 H 52.7976 1.83578 2.6661 0
M  V30 506 H 51.7046 3.56746 1.1262 0
M  V30 507 H 53.0376 4.68771 1.5005 0
M  V30 508 N 54.6897 -0.239769 1.55765 0
M  V30 509 C 55.6197 -1.30052 1.9393 0
M  V30 510 C 56.6007 -1.49839 0.805132 0
M  V30 511 O 57.7857 -1.62328 1.06599 0
M  V30 512 C 54.9157 -2.65391 2.2402 0
M  V30 513 C 53.8697 -2.60289 3.39755 0
M  V30 514 C 53.1957 -3.99489 3.55405 0
M  V30 515 C 54.4957 -2.16654 4.75246 0
M  V30 516 H 56.1897 -0.983573 2.82783 0
M  V30 517 H 53.7357 -0.471701 1.36055 0
M  V30 518 H 55.6887 -3.3974 2.49308 0
M  V30 519 H 54.4127 -2.98736 1.32 0
M  V30 520 H 53.0717 -1.88398 3.14487 0
M  V30 521 H 52.7197 -4.30112 2.60793 0
M  V30 522 H 52.4197 -3.96962 4.33238 0
M  V30 523 H 53.9437 -4.75528 3.83022 0
M  V30 524 H 55.3577 -2.80737 4.99859 0
M  V30 525 H 53.7547 -2.25223 5.56232 0
M  V30 526 H 54.8247 -1.11835 4.71827 0
M  V30 527 N 56.1678 -1.49265 -0.50573 0
M  V30 528 C 57.5838 -1.35923 -0.836486 0
M  V30 529 C 57.7838 -0.388704 -1.97715 0
M  V30 530 O 56.8398 0.181336 -2.51848 0
M  V30 531 C 58.1528 -2.76531 -1.18115 0
M  V30 532 C 59.7008 -2.85197 -1.28964 0
M  V30 533 C 60.1758 -4.26561 -1.66761 0
M  V30 534 N 61.6668 -4.2935 -1.73819 0
M  V30 535 C 62.4018 -5.35693 -2.045 0
M  V30 536 N 61.8978 -6.52287 -2.33438 0
M  V30 537 N 63.6908 -5.23105 -2.05711 0
M  V30 538 H 55.8418 -2.10965 0.246519 0
M  V30 539 H 58.1048 -0.9468 0.0476887 0
M  V30 540 H 57.8108 -3.49226 -0.416398 0
M  V30 541 H 57.6848 -3.11599 -2.1257 0
M  V30 542 H 60.0718 -2.12742 -2.04511 0
M  V30 543 H 60.1528 -2.53718 -0.325704 0
M  V30 544 H 59.7968 -4.99541 -0.917656 0
M  V30 545 H 59.7268 -4.55502 -2.64246 0
M  V30 546 H 62.2178 -3.4526 -1.53635 0
M  V30 547 H 62.5308 -7.29158 -2.56024 0
M  V30 548 H 60.8758 -6.55521 -2.30905 0
M  V30 549 H 64.0668 -4.31026 -1.82577 0
M  V30 550 H 64.2398 -6.06078 -2.29289 0
M  V30 551 N 57.6459 0.756429 -1.3826 0
M  V30 552 C 58.5759 1.88374 -1.37976 0
M  V30 553 C 59.5569 1.68311 -0.246082 0
M  V30 554 O 60.7419 1.88944 -0.44874 0
M  V30 555 C 57.8719 3.25864 -1.20125 0
M  V30 556 C 56.8259 3.60523 -2.30666 0
M  V30 557 C 56.1519 4.9672 -1.97923 0
M  V30 558 C 57.4519 3.65692 -3.72916 0
M  V30 559 H 59.1459 1.88869 -2.32312 0
M  V30 560 H 56.6919 0.907272 -1.11824 0
M  V30 561 H 58.6449 4.0438 -1.18552 0
M  V30 562 H 57.3689 3.25841 -0.222498 0
M  V30 563 H 56.0279 2.84324 -2.3142 0
M  V30 564 H 55.6759 4.93253 -0.985393 0
M  V30 565 H 55.3759 5.20878 -2.71955 0
M  V30 566 H 56.8999 5.77618 -1.97964 0
M  V30 567 H 58.3139 4.34328 -3.74208 0
M  V30 568 H 56.7109 4.01358 -4.4613 0
M  V30 569 H 57.7809 2.65987 -4.05436 0
M  V30 570 N 59.124 1.23083 0.984299 0
M  V30 571 C 60.54 0.992637 1.24975 0
M  V30 572 C 60.74 -0.308618 1.99123 0
M  V30 573 O 59.796 -1.02905 2.30579 0
M  V30 574 C 61.109 2.19698 2.05312 0
M  V30 575 C 62.657 2.24147 2.18465 0
M  V30 576 C 63.132 3.44157 3.02192 0
M  V30 577 N 64.623 3.44372 3.09777 0
M  V30 578 C 65.358 4.33886 3.74874 0
M  V30 579 N 64.854 5.3363 4.41827 0
M  V30 580 N 66.647 4.21639 3.71721 0
M  V30 581 H 58.798 2.06731 0.487453 0
M  V30 582 H 61.061 0.906339 0.277944 0
M  V30 583 H 60.767 3.1411 1.58201 0
M  V30 584 H 60.641 2.20465 3.06064 0
M  V30 585 H 63.028 1.30277 2.64786 0
M  V30 586 H 63.109 2.27415 1.17115 0
M  V30 587 H 62.753 4.38332 2.56568 0
M  V30 588 H 62.683 3.3813 4.03702 0
M  V30 589 H 65.174 2.72201 2.62135 0
M  V30 590 H 65.487 5.98196 4.89266 0
M  V30 591 H 63.832 5.37534 4.40548 0
M  V30 592 H 67.023 3.42962 3.18582 0
M  V30 593 H 67.196 4.91604 4.22173 0
M  V30 594 N 60.6021 -1.18246 1.0419 0
M  V30 595 C 61.8481 -1.88536 0.747122 0
M  V30 596 C 62.1811 -1.80223 -0.723409 0
M  V30 597 O 61.4561 -1.20337 -1.52804 0
M  V30 598 C 61.7391 -3.38968 1.21544 0
M  V30 599 C 61.5921 -3.56084 2.74816 0
M  V30 600 C 62.9111 -4.32648 0.806482 0
M  V30 601 H 60.0301 -0.684619 0.272883 0
M  V30 602 H 62.6721 -1.39113 1.29413 0
M  V30 603 H 60.8221 -3.8119 0.750081 0
M  V30 604 H 62.4941 -3.22946 3.29399 0
M  V30 605 H 60.7371 -2.98699 3.14582 0
M  V30 606 H 61.4081 -4.61639 3.02644 0
M  V30 607 H 63.8841 -3.98211 1.20695 0
M  V30 608 H 62.7601 -5.36462 1.1619 0
M  V30 609 H 63.0211 -4.41146 -0.29029 0
M  V30 610 N 62.0802 -0.821533 -1.34494 0
M  V30 611 C 63.4962 -0.507117 -1.51329 0
M  V30 612 C 63.6962 0.968964 -1.76673 0
M  V30 613 O 62.7522 1.75348 -1.81685 0
M  V30 614 C 64.0652 -1.36544 -2.67911 0
M  V30 615 C 65.6132 -1.36242 -2.81793 0
M  V30 616 C 66.0882 -2.2052 -4.01416 0
M  V30 617 N 67.5792 -2.18136 -4.08621 0
M  V30 618 C 68.3142 -2.80095 -5.00334 0
M  V30 619 N 67.8102 -3.51039 -5.9728 0
M  V30 620 N 69.6032 -2.69656 -4.93196 0
M  V30 621 H 61.7542 -1.77729 -1.16302 0
M  V30 622 H 64.0172 -0.757291 -0.570276 0
M  V30 623 H 63.7232 -2.41361 -2.55808 0
M  V30 624 H 63.5972 -1.02917 -3.62888 0
M  V30 625 H 65.9842 -0.322041 -2.93338 0
M  V30 626 H 66.0652 -1.73866 -1.87628 0
M  V30 627 H 65.7092 -3.24607 -3.90631 0
M  V30 628 H 65.6392 -1.80247 -4.94791 0
M  V30 629 H 68.1302 -1.6653 -3.39229 0
M  V30 630 H 68.4432 -3.95565 -6.63889 0
M  V30 631 H 66.7882 -3.55145 -5.97409 0
M  V30 632 H 69.9792 -2.13808 -4.16418 0
M  V30 633 H 70.1522 -3.1823 -5.64476 0
M  V30 634 N 63.5583 1.46682 -0.576371 0
M  V30 635 C 64.9743 1.57822 -0.237562 0
M  V30 636 C 65.1743 1.57237 1.26011 0
M  V30 637 O 64.2303 1.48596 2.04146 0
M  V30 638 C 65.5433 2.87499 -0.881168 0
M  V30 639 C 67.0913 3.01119 -0.85417 0
M  V30 640 C 67.5663 4.33524 -1.4772 0
M  V30 641 N 69.0573 4.40207 -1.44125 0
M  V30 642 C 69.7923 5.4126 -1.89276 0
M  V30 643 N 69.2883 6.49021 -2.42371 0
M  V30 644 N 71.0813 5.32422 -1.80231 0
M  V30 645 H 63.2323 1.45306 -1.54919 0
M  V30 646 H 65.4953 0.692733 -0.647167 0
M  V30 647 H 65.2013 2.9372 -1.93447 0
M  V30 648 H 65.0753 3.75224 -0.385592 0
M  V30 649 H 67.4623 2.94485 0.190491 0
M  V30 650 H 67.5433 2.14887 -1.3877 0
M  V30 651 H 67.1873 4.40916 -2.52103 0
M  V30 652 H 67.1173 5.1852 -0.918947 0
M  V30 653 H 69.6083 3.62931 -1.05307 0
M  V30 654 H 69.9213 7.2233 -2.74698 0
M  V30 655 H 68.2663 6.49858 -2.46393 0
M  V30 656 H 71.4573 4.47137 -1.38514 0
M  V30 657 H 71.6303 6.11034 -2.15735 0
M  V30 658 N 65.0364 0.313813 1.54444 0
M  V30 659 C 66.2824 -0.292108 2.00685 0
M  V30 660 C 66.6154 -1.52548 1.20177 0
M  V30 661 O 65.8904 -1.92452 0.281531 0
M  V30 662 C 66.1734 -0.635968 3.5444 0
M  V30 663 C 66.0264 0.607437 4.4568 0
M  V30 664 C 67.3454 -1.45747 4.15266 0
M  V30 665 H 64.4644 -0.104697 0.729526 0
M  V30 666 H 67.1064 0.428457 1.85106 0
M  V30 667 H 65.2564 -1.24986 3.67846 0
M  V30 668 H 66.9284 1.24581 4.44159 0
M  V30 669 H 65.1714 1.23822 4.15753 0
M  V30 670 H 65.8424 0.322515 5.51057 0
M  V30 671 H 68.3184 -0.938645 4.05375 0
M  V30 672 H 67.1944 -1.66683 5.2298 0
M  V30 673 H 67.4554 -2.45063 3.67963 0
M  V30 674 N 66.5145 -1.57545 0.0417849 0
M  V30 675 C 67.4445 -2.14009 -0.933929 0
M  V30 676 C 68.4255 -1.05938 -1.33083 0
M  V30 677 O 69.6105 -1.33833 -1.40721 0
M  V30 678 C 66.7405 -2.67747 -2.21199 0
M  V30 679 C 65.6945 -3.80718 -1.95544 0
M  V30 680 C 65.0205 -4.20935 -3.29724 0
M  V30 681 C 66.3205 -5.06258 -1.28452 0
M  V30 682 H 68.0145 -2.95788 -0.463645 0
M  V30 683 H 65.5605 -1.42285 -0.221573 0
M  V30 684 H 67.5135 -3.05886 -2.89848 0
M  V30 685 H 66.2375 -1.83147 -2.70416 0
M  V30 686 H 64.8965 -3.43037 -1.2931 0
M  V30 687 H 64.5445 -3.33298 -3.76724 0
M  V30 688 H 64.2445 -4.9707 -3.13361 0
M  V30 689 H 65.7685 -4.61666 -3.9962 0
M  V30 690 H 67.1825 -5.41903 -1.8712 0
M  V30 691 H 65.5795 -5.87475 -1.22445 0
M  V30 692 H 66.6495 -4.84207 -0.259219 0
M  V30 693 N 67.9926 0.231505 -1.5589 0
M  V30 694 C 68.9556 1.27028 -1.90779 0
M  V30 695 C 69.9556 1.40308 -0.785507 0
M  V30 696 O 71.1456 1.38744 -1.05336 0
M  V30 697 C 68.2776 2.64566 -2.14983 0
M  V30 698 H 69.4706 0.973017 -2.83677 0
M  V30 699 H 67.0236 0.471486 -1.49019 0
M  V30 700 H 67.7586 2.99406 -1.24604 0
M  V30 701 H 67.5436 2.56305 -2.96732 0
M  V30 702 H 69.0336 3.39543 -2.43105 0
M  V30 703 N 69.4707 1.49531 0.497807 0
M  V30 704 C 70.3807 1.69176 1.62532 0
M  V30 705 C 71.3967 0.5744 1.64246 0
M  V30 706 O 72.5727 0.849497 1.82608 0
M  V30 707 C 69.6377 1.75695 2.98885 0
M  V30 708 C 68.6987 2.9929 3.07773 0
M  V30 709 C 67.9317 3.05488 4.37622 0
M  V30 710 O 68.1547 2.19192 5.26603 0
M  V30 711 O 67.0887 3.9798 4.51548 0
M  V30 712 H 70.9147 2.647 1.48887 0
M  V30 713 H 68.4997 1.3331 0.674441 0
M  V30 714 H 70.3817 1.82317 3.79919 0
M  V30 715 H 69.0567 0.8335 3.12785 0
M  V30 716 H 67.9637 2.98183 2.25915 0
M  V30 717 H 69.2967 3.91125 2.98801 0
M  V30 718 N 70.9488 -0.749086 1.3866 0
M  V30 719 C 72.1968 -1.50535 1.34847 0
M  V30 720 C 72.5178 -1.94909 -0.0595016 0
M  V30 721 O 71.7878 -1.67973 -1.00806 0
M  V30 722 H 70.3678 -0.558395 0.49619 0
M  V30 723 H 73.0298 -0.890165 1.73384 0
M  V30 724 H 72.1258 -2.39413 2.00219 0
M  V30 725 N 72.4269 -1.23603 -0.977757 0
M  V30 726 C 73.6749 -1.06759 -1.71601 0
M  V30 727 C 73.9959 0.395929 -1.90938 0
M  V30 728 O 73.2659 1.28356 -1.47992 0
M  V30 729 H 71.8459 -0.392062 -0.635843 0
M  V30 730 H 74.5079 -1.55362 -1.1768 0
M  V30 731 H 73.6039 -1.55763 -2.70452 0
M  V30 732 N 73.905 1.17692 -1.04816 0
M  V30 733 C 75.152 1.87859 -0.75599 0
M  V30 734 C 75.48 1.80812 0.716752 0
M  V30 735 O 74.735 1.20819 1.53952 0
M  V30 736 C 75.034 3.37462 -1.17703 0
M  V30 737 C 74.7 3.64713 -2.65133 0
M  V30 738 C 73.362 3.71859 -3.05408 0
M  V30 739 C 75.714 3.76492 -3.60421 0
M  V30 740 C 73.042 3.88271 -4.39843 0
M  V30 741 C 75.394 3.94421 -4.94585 0
M  V30 742 C 74.058 3.99806 -5.3452 0
M  V30 743 H 73.328 0.687425 -0.276636 0
M  V30 744 H 75.975 1.39255 -1.31455 0
M  V30 745 H 74.28 3.88097 -0.537395 0
M  V30 746 H 75.977 3.90109 -0.928218 0
M  V30 747 H 72.567 3.59772 -2.32942 0
M  V30 748 H 76.751 3.70295 -3.30447 0
M  V30 749 H 72.007 3.90687 -4.70291 0
M  V30 750 H 76.181 4.02477 -5.68318 0
M  V30 751 H 73.808 4.12276 -6.38696 0
M  V30 752 N 75.3831 0.828654 1.34056 0
M  V30 753 C 76.3461 0.259927 2.27721 0
M  V30 754 C 77.3461 -0.565478 1.50529 0
M  V30 755 O 78.5361 -0.38075 1.69988 0
M  V30 756 C 75.6681 -0.634944 3.34935 0
M  V30 757 H 76.8611 1.0863 2.79534 0
M  V30 758 H 74.4141 0.600951 1.44285 0
M  V30 759 H 75.1491 -1.48416 2.88346 0
M  V30 760 H 74.9341 -0.0444999 3.92075 0
M  V30 761 H 76.4241 -1.02648 4.04788 0
M  V30 762 N 76.8612 -1.46375 0.584142 0
M  V30 763 C 78.1082 -2.02378 0.0702675 0
M  V30 764 C 78.4362 -1.45545 -1.29023 0
M  V30 765 O 77.6912 -0.610967 -1.85918 0
M  V30 766 C 77.9902 -3.57373 -0.0439342 0
M  V30 767 C 77.6562 -4.33252 1.24915 0
M  V30 768 C 76.3182 -4.53701 1.60341 0
M  V30 769 C 78.6702 -4.7681 2.1048 0
M  V30 770 C 75.9982 -5.1496 2.81128 0
M  V30 771 C 78.3502 -5.39404 3.30494 0
M  V30 772 C 77.0142 -5.5808 3.66201 0
M  V30 773 H 76.2842 -0.740554 0.0257127 0
M  V30 774 H 78.9312 -1.75727 0.761065 0
M  V30 775 H 77.2362 -3.83169 -0.817869 0
M  V30 776 H 78.9332 -3.98384 -0.457318 0
M  V30 777 H 75.5232 -4.17633 0.963364 0
M  V30 778 H 79.7072 -4.60766 1.84414 0
M  V30 779 H 74.9632 -5.27611 3.08928 0
M  V30 780 H 79.1372 -5.72114 3.97063 0
M  V30 781 H 76.7642 -6.05318 4.59885 0
M  V30 782 N 78.3393 -0.321999 -1.54275 0
M  V30 783 C 79.5853 0.281461 -2.00837 0
M  V30 784 C 79.9183 1.51909 -1.20985 0
M  V30 785 O 79.1933 1.923 -0.291733 0
M  V30 786 C 79.4763 0.617162 -3.54772 0
M  V30 787 C 79.3293 -0.631064 -4.45351 0
M  V30 788 C 80.6483 1.43542 -4.16033 0
M  V30 789 H 77.7673 0.100826 -0.730071 0
M  V30 790 H 80.4093 -0.438268 -1.84876 0
M  V30 791 H 78.5593 1.23034 -3.68504 0
M  V30 792 H 80.2313 -1.26934 -4.43492 0
M  V30 793 H 78.4743 -1.26025 -4.15091 0
M  V30 794 H 79.1453 -0.351735 -5.50878 0
M  V30 795 H 81.6213 0.917134 -4.05867 0
M  V30 796 H 80.4973 1.63907 -5.23856 0
M  V30 797 H 80.7583 2.43108 -3.69257 0
M  V30 798 N 79.8174 1.5752 -0.0501392 0
M  V30 799 C 81.0474 1.96678 0.632573 0
M  V30 800 C 81.4554 0.926298 1.64974 0
M  V30 801 O 80.7984 -0.09802 1.83438 0
M  V30 802 C 80.8604 3.32068 1.37735 0
M  V30 803 C 80.5244 4.54076 0.516131 0
M  V30 804 C 81.5214 5.19445 -0.217357 0
M  V30 805 C 79.2064 5.00304 0.44736 0
M  V30 806 C 81.2004 6.29378 -1.00807 0
M  V30 807 C 78.8874 6.10114 -0.347038 0
M  V30 808 C 79.8854 6.74512 -1.07344 0
M  V30 809 O 79.5734 7.82211 -1.85477 0
M  V30 810 H 79.3054 0.652193 0.177821 0
M  V30 811 H 81.8594 2.05091 -0.112543 0
M  V30 812 H 80.0894 3.20206 2.16807 0
M  V30 813 H 81.7784 3.55981 1.95019 0
M  V30 814 H 82.5444 4.84689 -0.173688 0
M  V30 815 H 78.4234 4.49971 1.00235 0
M  V30 816 H 81.9674 6.79575 -1.57556 0
M  V30 817 H 77.8644 6.44307 -0.392349 0
M  V30 818 H 78.6324 7.98982 -1.77678 0
M  V30 819 N 81.2955 -0.223234 1.56011 0
M  V30 820 C 82.2055 -1.29766 1.95443 0
M  V30 821 C 83.2215 -1.51373 0.858028 0
M  V30 822 O 84.3975 -1.64536 1.16146 0
M  V30 823 C 81.4625 -2.62772 2.26167 0
M  V30 824 C 80.5235 -2.49482 3.49367 0
M  V30 825 C 79.7565 -3.76145 3.78616 0
M  V30 826 O 79.9795 -4.79087 3.09568 0
M  V30 827 O 78.9135 -3.73358 4.72109 0
M  V30 828 H 82.7395 -0.99309 2.87004 0
M  V30 829 H 80.3245 -0.425958 1.43199 0
M  V30 830 H 82.2065 -3.41327 2.47131 0
M  V30 831 H 80.8815 -2.92913 1.37781 0
M  V30 832 H 79.7885 -1.69133 3.33684 0
M  V30 833 H 81.1215 -2.2428 4.38131 0
M  V30 834 N 82.7736 -1.49793 -0.48987 0
M  V30 835 C 83.7366 -1.66752 -1.57246 0
M  V30 836 C 84.7366 -0.538867 -1.51502 0
M  V30 837 O 85.9266 -0.805545 -1.54456 0
M  V30 838 C 83.0586 -1.67528 -2.96896 0
M  V30 839 H 84.2516 -2.63321 -1.43534 0
M  V30 840 H 81.8046 -1.38992 -0.714914 0
M  V30 841 H 82.5396 -0.725837 -3.16073 0
M  V30 842 H 82.3246 -2.49504 -3.02473 0
M  V30 843 H 83.8146 -1.82667 -3.7553 0
M  V30 844 N 84.2517 0.741722 -1.39055 0
M  V30 845 C 85.1837 1.8657 -1.33133 0
M  V30 846 C 86.1967 1.61001 -0.241329 0
M  V30 847 O 87.3857 1.7136 -0.499784 0
M  V30 848 C 84.4857 3.22457 -1.04283 0
M  V30 849 C 83.6587 3.75435 -2.24427 0
M  V30 850 C 82.7177 4.89867 -1.92138 0
M  V30 851 O 81.7437 5.03879 -2.64754 0
M  V30 852 N 82.9457 5.73738 -0.88347 0
M  V30 853 H 85.7107 1.92156 -2.29991 0
M  V30 854 H 83.2717 0.922172 -1.3307 0
M  V30 855 H 85.2637 3.9657 -0.807128 0
M  V30 856 H 83.8337 3.12181 -0.161807 0
M  V30 857 H 83.0537 2.92751 -2.6399 0
M  V30 858 H 84.3417 4.07563 -3.04581 0
M  V30 859 H 83.7397 5.64999 -0.281517 0
M  V30 860 H 82.2967 6.47947 -0.707662 0
M  V30 861 N 85.7298 1.2412 0.971189 0
M  V30 862 C 87.0068 0.986867 1.6888 0
M  V30 863 C 87.3868 -0.491857 2.0529 0
M  V30 864 O 86.7348 -1.46531 1.75331 0
M  V30 865 C 86.9448 1.9063 2.92338 0
M  V30 866 C 88.2928 2.17515 3.64654 0
M  V30 867 O 89.3168 1.88254 3.02388 0
M  V30 868 O 88.1758 2.6719 4.7673 0
M  V30 869 H 85.2698 0.372944 0.738134 0
M  V30 870 H 87.8158 1.35203 1.02559 0
M  V30 871 H 86.5878 2.90552 2.62097 0
M  V30 872 H 86.2108 1.54408 3.66393 0
M  V30 873 N 87.2079 -1.17134 1.05439 0
M  V30 874 C 88.4539 -1.87733 0.767077 0
M  V30 875 C 88.7869 -1.8098 -0.704253 0
M  V30 876 O 88.0619 -1.21951 -1.5152 0
M  V30 877 C 88.3449 -3.37659 1.25133 0
M  V30 878 C 88.1979 -3.53149 2.78578 0
M  V30 879 C 89.5169 -4.31768 0.852324 0
M  V30 880 H 86.6359 -0.681687 0.280129 0
M  V30 881 H 89.2779 -1.37732 1.30881 0
M  V30 882 H 87.4279 -3.80373 0.790469 0
M  V30 883 H 89.0999 -3.19434 3.32806 0
M  V30 884 H 87.3429 -2.95345 3.17732 0
M  V30 885 H 88.0139 -4.58403 3.07523 0
M  V30 886 H 90.4899 -3.96909 1.24911 0
M  V30 887 H 89.3659 -5.35199 1.21873 0
M  V30 888 H 89.6269 -4.41429 -0.243485 0
M  V30 889 N 88.686 -0.835752 -1.33615 0
M  V30 890 C 89.934 -0.429109 -1.97492 0
M  V30 891 C 90.255 1.01433 -1.66543 0
M  V30 892 O 89.525 1.70611 -0.962744 0
M  V30 893 H 88.105 -0.155686 -0.730596 0
M  V30 894 H 90.767 -1.06802 -1.63031 0
M  V30 895 H 89.863 -0.55861 -3.0706 0
M  V30 896 N 90.1641 1.46063 -0.591896 0
M  V30 897 C 91.3891 2.07226 -0.0850314 0
M  V30 898 C 91.8141 1.43625 1.21463 0
M  V30 899 O 91.1721 0.523305 1.73583 0
M  V30 900 C 91.2201 3.60554 0.0576567 0
M  V30 901 O 90.3241 3.97128 1.11188 0
M  V30 902 H 89.6651 0.660615 -0.0669568 0
M  V30 903 H 92.1951 1.8756 -0.81745 0
M  V30 904 H 92.2051 4.07165 0.2609 0
M  V30 905 H 90.8801 4.06235 -0.891416 0
M  V30 906 H 89.4571 3.62213 0.886356 0
M  V30 907 N 91.6422 0.330177 1.54103 0
M  V30 908 C 92.8902 -0.269871 2.0029 0
M  V30 909 C 93.2112 -1.52133 1.21986 0
M  V30 910 O 92.4812 -1.93212 0.323438 0
M  V30 911 H 91.0612 -0.10271 0.739905 0
M  V30 912 H 93.7232 0.448249 1.89675 0
M  V30 913 H 92.8192 -0.52166 3.07709 0
M  V30 914 N 93.1203 -1.57491 0.0584922 0
M  V30 915 C 94.5363 -1.56792 -0.298091 0
M  V30 916 C 94.7363 -1.06679 -1.70944 0
M  V30 917 O 93.7923 -0.726672 -2.41818 0
M  V30 918 C 95.1053 -3.00461 -0.119879 0
M  V30 919 C 96.6533 -3.1242 -0.190428 0
M  V30 920 C 97.1283 -4.57982 -0.0406567 0
M  V30 921 N 98.6193 -4.63099 -0.0966958 0
M  V30 922 C 99.3543 -5.734 -0.00502943 0
M  V30 923 N 98.8503 -6.9266 0.139402 0
M  V30 924 N 100.643 -5.62067 -0.0611391 0
M  V30 925 H 92.7943 -1.88386 0.98105 0
M  V30 926 H 95.0573 -0.867865 0.381463 0
M  V30 927 H 94.7633 -3.41187 0.85349 0
M  V30 928 H 94.6373 -3.66843 -0.877833 0
M  V30 929 H 97.0243 -2.71589 -1.15427 0
M  V30 930 H 97.1053 -2.48702 0.598405 0
M  V30 931 H 96.7493 -4.995 0.919897 0
M  V30 932 H 96.6793 -5.19715 -0.848727 0
M  V30 933 H 99.1703 -3.77331 -0.207277 0
M  V30 934 H 99.4833 -7.72536 0.201855 0
M  V30 935 H 97.8283 -6.94781 0.174586 0
M  V30 936 H 101.019 -4.67782 -0.172583 0
M  V30 937 H 101.192 -6.47999 0.0137562 0
M  V30 938 N 94.5984 0.214957 -1.56127 0
M  V30 939 C 95.5084 1.28727 -1.96129 0
M  V30 940 C 96.5244 1.50916 -0.866044 0
M  V30 941 O 97.7004 1.63918 -1.17016 0
M  V30 942 C 94.7654 2.61569 -2.27558 0
M  V30 943 C 93.8264 2.47625 -3.50685 0
M  V30 944 C 93.0594 3.74132 -3.80606 0
M  V30 945 O 93.2824 4.77438 -3.12104 0
M  V30 946 O 92.2164 3.70849 -4.74083 0
M  V30 947 H 96.0424 0.977855 -2.87527 0
M  V30 948 H 93.6274 0.418358 -1.43423 0
M  V30 949 H 95.5094 3.40012 -2.48938 0
M  V30 950 H 94.1844 2.92178 -1.39332 0
M  V30 951 H 93.0914 1.67361 -3.34576 0
M  V30 952 H 94.4244 2.21954 -4.39315 0
M  V30 953 N 96.0765 1.50051 0.48192 0
M  V30 954 C 97.3065 1.63999 1.2565 0
M  V30 955 C 97.7145 0.318288 1.86504 0
M  V30 956 O 97.0575 -0.708534 1.69486 0
M  V30 957 C 97.1195 2.66504 2.4128 0
M  V30 958 C 96.7835 4.10352 2.01148 0
M  V30 959 C 97.7805 4.96562 1.54021 0
M  V30 960 C 95.4655 4.56203 2.10199 0
M  V30 961 C 97.4595 6.26668 1.16473 0
M  V30 962 C 95.1465 5.86318 1.72264 0
M  V30 963 C 96.1445 6.71375 1.25477 0
M  V30 964 O 95.8325 7.99062 0.880626 0
M  V30 965 H 95.5645 0.55456 0.386574 0
M  V30 966 H 98.1185 1.96954 0.582944 0
M  V30 967 H 96.3485 2.28769 3.11772 0
M  V30 968 H 98.0375 2.69783 3.03268 0
M  V30 969 H 98.8035 4.62358 1.46458 0
M  V30 970 H 94.6825 3.90152 2.45566 0
M  V30 971 H 98.2265 6.93011 0.798841 0
M  V30 972 H 94.1235 6.20046 1.79482 0
M  V30 973 H 94.8915 8.12239 1.01043 0
M  V30 974 N 97.5546 -0.734337 1.39446 0
M  V30 975 C 98.5176 -1.83004 1.37994 0
M  V30 976 C 99.5176 -1.58397 0.276938 0
M  V30 977 O 100.708 -1.65785 0.534875 0
M  V30 978 C 97.8396 -3.20802 1.1532 0
M  V30 979 H 99.0326 -1.85694 2.35494 0
M  V30 980 H 96.5856 -0.938059 1.25021 0
M  V30 981 H 97.3206 -3.23772 0.185036 0
M  V30 982 H 97.1056 -3.4006 1.95197 0
M  V30 983 H 98.5956 -4.00862 1.17046 0
M  V30 984 N 99.0327 -1.24633 -0.964593 0
M  V30 985 C 99.9627 -1.06611 -2.07741 0
M  V30 986 C 100.944 0.0218666 -1.70086 0
M  V30 987 O 102.129 -0.145793 -1.93652 0
M  V30 988 C 99.2587 -0.673444 -3.40708 0
M  V30 989 C 98.2127 -1.71054 -3.92332 0
M  V30 990 C 97.5387 -1.17285 -5.21678 0
M  V30 991 C 98.8387 -3.10718 -4.19824 0
M  V30 992 H 100.533 -1.99693 -2.23076 0
M  V30 993 H 98.0787 -0.96152 -1.07195 0
M  V30 994 H 100.032 -0.534345 -4.17998 0
M  V30 995 H 98.7557 0.293073 -3.25282 0
M  V30 996 H 97.4147 -1.83791 -3.17201 0
M  V30 997 H 97.0627 -0.196847 -5.02615 0
M  V30 998 H 96.7627 -1.86592 -5.57187 0
M  V30 999 H 98.2867 -1.04593 -6.01575 0
M  V30 1000 H 99.7007 -3.01192 -4.87808 0
M  V30 1001 H 98.0977 -3.77406 -4.66567 0
M  V30 1002 H 99.1677 -3.58524 -3.26479 0
M  V30 1003 N 100.511 1.16574 -1.06058 0
M  V30 1004 C 101.458 2.20883 -0.669263 0
M  V30 1005 C 102.428 1.62729 0.332918 0
M  V30 1006 O 103.613 1.895 0.222346 0
M  V30 1007 C 100.753 3.45049 -0.0593572 0
M  V30 1008 C 99.8658 4.17458 -1.11143 0
M  V30 1009 C 99.0008 5.29135 -0.467916 0
M  V30 1010 C 98.0398 5.93343 -1.50369 0
M  V30 1011 N 97.1768 6.96516 -0.883706 0
M  V30 1012 H 102.017 2.53709 -1.5632 0
M  V30 1013 H 99.5538 1.24616 -0.781625 0
M  V30 1014 H 101.512 4.16033 0.311771 0
M  V30 1015 H 100.142 3.12781 0.797992 0
M  V30 1016 H 99.1938 3.45101 -1.60029 0
M  V30 1017 H 100.506 4.61307 -1.89731 0
M  V30 1018 H 99.6598 6.06684 -0.0436871 0
M  V30 1019 H 98.3988 4.86443 0.349864 0
M  V30 1020 H 97.4038 5.14517 -1.93784 0
M  V30 1021 H 98.6288 6.38114 -2.32352 0
M  V30 1022 H 96.5748 6.55943 -0.086595 0
M  V30 1023 H 96.4918 7.38723 -1.607 0
M  V30 1024 H 97.7598 7.77993 -0.484543 0
M  V30 1025 N 101.989 0.842826 1.3317 0
M  V30 1026 C 103.405 0.531128 1.50503 0
M  V30 1027 C 103.605 -0.940734 1.78192 0
M  V30 1028 O 102.661 -1.72436 1.84451 0
M  V30 1029 C 103.974 1.40789 2.65705 0
M  V30 1030 C 105.522 1.40708 2.79589 0
M  V30 1031 C 105.997 2.26878 3.97857 0
M  V30 1032 N 107.488 2.24609 4.05099 0
M  V30 1033 C 108.223 2.88019 4.95815 0
M  V30 1034 N 107.719 3.60496 5.9162 0
M  V30 1035 N 109.512 2.77469 4.88843 0
M  V30 1036 H 101.663 1.79557 1.1346 0
M  V30 1037 H 103.926 0.766267 0.558156 0
M  V30 1038 H 103.632 2.454 2.51936 0
M  V30 1039 H 103.506 1.08677 3.61205 0
M  V30 1040 H 105.893 0.368668 2.92788 0
M  V30 1041 H 105.974 1.76829 1.84838 0
M  V30 1042 H 105.618 3.3078 3.85418 0
M  V30 1043 H 105.548 1.88096 4.91861 0
M  V30 1044 H 108.039 1.71906 3.36536 0
M  V30 1045 H 108.352 4.06076 6.57512 0
M  V30 1046 H 106.697 3.64604 5.91683 0
M  V30 1047 H 109.888 2.20406 4.12963 0
M  V30 1048 H 110.061 3.2717 5.59342 0
M  V30 1049 N 103.467 -1.45747 0.599634 0
M  V30 1050 C 104.397 -2.33235 -0.111306 0
M  V30 1051 C 105.378 -1.46359 -0.866781 0
M  V30 1052 O 106.563 -1.75146 -0.838904 0
M  V30 1053 C 103.693 -3.28932 -1.11451 0
M  V30 1054 C 102.647 -4.25381 -0.472772 0
M  V30 1055 C 101.973 -5.1071 -1.58365 0
M  V30 1056 C 103.273 -5.18831 0.600948 0
M  V30 1057 H 104.967 -2.92927 0.61919 0
M  V30 1058 H 102.513 -1.40857 0.299215 0
M  V30 1059 H 104.466 -3.89002 -1.62036 0
M  V30 1060 H 103.19 -2.67381 -1.8755 0
M  V30 1061 H 101.849 -3.66598 0.0121472 0
M  V30 1062 H 101.497 -4.45533 -2.33473 0
M  V30 1063 H 101.197 -5.7604 -1.15982 0
M  V30 1064 H 102.721 -5.73647 -2.09194 0
M  V30 1065 H 104.135 -5.73019 0.179491 0
M  V30 1066 H 102.532 -5.92595 0.946076 0
M  V30 1067 H 103.602 -4.6174 1.48068 0
M  V30 1068 N 104.945 -0.338344 -1.53925 0
M  V30 1069 C 105.875 0.51328 -2.27789 0
M  V30 1070 C 106.856 1.107 -1.29149 0
M  V30 1071 O 108.041 1.12937 -1.57984 0
M  V30 1072 C 105.171 1.66697 -3.04679 0
M  V30 1073 C 104.125 1.20183 -4.1078 0
M  V30 1074 C 103.451 2.44363 -4.75595 0
M  V30 1075 C 104.751 0.30605 -5.21403 0
M  V30 1076 H 106.445 -0.102883 -2.99223 0
M  V30 1077 H 103.991 -0.0509219 -1.4391 0
M  V30 1078 H 105.944 2.26915 -3.55088 0
M  V30 1079 H 104.668 2.30995 -2.30887 0
M  V30 1080 H 103.327 0.622499 -3.61276 0
M  V30 1081 H 102.975 3.07057 -3.98403 0
M  V30 1082 H 102.675 2.13925 -5.47275 0
M  V30 1083 H 104.199 3.05317 -5.28786 0
M  V30 1084 H 105.613 0.814929 -5.67478 0
M  V30 1085 H 104.01 0.0937929 -6.00027 0
M  V30 1086 H 105.08 -0.65921 -4.80398 0
M  V30 1087 N 106.423 1.57458 -0.0668435 0
M  V30 1088 C 107.648 1.9804 0.616027 0
M  V30 1089 C 108.073 0.944771 1.62652 0
M  V30 1090 O 107.431 -0.0902094 1.81075 0
M  V30 1091 C 107.479 3.37665 1.26549 0
M  V30 1092 O 106.583 3.36701 2.38131 0
M  V30 1093 H 105.924 0.644719 0.158849 0
M  V30 1094 H 108.454 2.04121 -0.139891 0
M  V30 1095 H 108.464 3.7474 1.6135 0
M  V30 1096 H 107.139 4.12573 0.525016 0
M  V30 1097 H 105.716 3.1139 2.0516 0
M  V30 1098 N 107.901 -0.206675 1.56239 0
M  V30 1099 C 108.849 -1.27571 1.94495 0
M  V30 1100 C 109.843 -1.47737 0.828862 0
M  V30 1101 O 111.049 -1.48735 1.0138 0
M  V30 1102 H 107.424 -0.428029 0.6183 0
M  V30 1103 H 109.395 -0.925961 2.8367 0
M  V30 1104 C 108.144 -2.61568 2.29079 0
M  V30 1105 H 107.467 -2.46863 3.14482 0
M  V30 1106 H 108.907 -3.35144 2.5972 0
M  V30 1107 C 107.366 -3.17695 1.12123 0
M  V30 1108 O 107.896 -3.99801 0.390153 0
M  V30 1109 N 106.102 -2.76276 0.901097 0
M  V30 1110 H 105.649 -2.09613 1.49733 0
M  V30 1111 H 105.607 -3.1417 0.120319 0
M  V30 1112 N 109.379 -1.50304 -0.473955 0
M  V30 1113 C 110.289 -1.7174 -1.5982 0
M  V30 1114 C 111.305 -0.600457 -1.63311 0
M  V30 1115 O 112.481 -0.878441 -1.81233 0
M  V30 1116 C 109.546 -1.80427 -2.96052 0
M  V30 1117 C 108.607 -3.04148 -3.02972 0
M  V30 1118 C 107.84 -3.12411 -4.32706 0
M  V30 1119 O 108.063 -2.27542 -5.23049 0
M  V30 1120 O 106.997 -4.05113 -4.45159 0
M  V30 1121 H 110.823 -2.67035 -1.44657 0
M  V30 1122 H 108.408 -1.34366 -0.653148 0
M  V30 1123 H 110.29 -1.88338 -3.7697 0
M  V30 1124 H 108.965 -0.883156 -3.11419 0
M  V30 1125 H 107.872 -3.0174 -2.21142 0
M  V30 1126 H 109.205 -3.95829 -2.92541 0
M  V30 1127 N 110.857 0.726932 -1.39834 0
M  V30 1128 C 111.767 1.87131 -1.41489 0
M  V30 1129 C 112.783 1.71239 -0.308757 0
M  V30 1130 O 113.959 1.93701 -0.551529 0
M  V30 1131 C 111.024 3.22811 -1.26468 0
M  V30 1132 C 110.085 3.51039 -2.47124 0
M  V30 1133 C 109.318 4.80245 -2.3281 0
M  V30 1134 O 109.541 5.54537 -1.33585 0
M  V30 1135 O 108.475 5.08554 -3.21957 0
M  V30 1136 H 112.301 1.8869 -2.3797 0
M  V30 1137 H 109.886 0.875837 -1.21035 0
M  V30 1138 H 111.768 4.03877 -1.20255 0
M  V30 1139 H 110.443 3.22005 -0.330862 0
M  V30 1140 H 109.35 2.70027 -2.58914 0
M  V30 1141 H 110.683 3.56632 -3.39227 0
M  V30 1142 N 112.336 1.25143 0.95797 0
M  V30 1143 C 113.246 1.06968 2.08794 0
M  V30 1144 C 114.262 0.00773911 1.73998 0
M  V30 1145 O 115.438 0.207972 2.00323 0
M  V30 1146 C 112.503 0.68691 3.39827 0
M  V30 1147 C 111.564 1.82641 3.88511 0
M  V30 1148 C 110.797 1.46181 5.1329 0
M  V30 1149 O 111.02 0.355971 5.69288 0
M  V30 1150 O 109.954 2.29085 5.566 0
M  V30 1151 H 113.78 2.01723 2.27027 0
M  V30 1152 H 111.365 1.04051 1.07209 0
M  V30 1153 H 113.247 0.485417 4.18595 0
M  V30 1154 H 111.922 -0.231417 3.22872 0
M  V30 1155 H 110.829 2.08274 3.10762 0
M  V30 1156 H 112.162 2.72386 4.09959 0
M  V30 1157 N 113.814 -1.1601 1.06675 0
M  V30 1158 C 114.761 -2.20525 0.680967 0
M  V30 1159 C 115.731 -1.62904 -0.324283 0
M  V30 1160 O 116.916 -1.89615 -0.212294 0
M  V30 1161 C 114.056 -3.45013 0.0776551 0
M  V30 1162 C 113.169 -4.16863 1.13355 0
M  V30 1163 C 112.304 -5.2888 0.49597 0
M  V30 1164 C 111.343 -5.92537 1.53513 0
M  V30 1165 N 110.48 -6.96038 0.920631 0
M  V30 1166 H 115.32 -2.52876 1.57663 0
M  V30 1167 H 112.857 -1.24199 0.788223 0
M  V30 1168 H 114.815 -4.16193 -0.289704 0
M  V30 1169 H 113.445 -3.132 -0.781393 0
M  V30 1170 H 112.497 -3.44248 1.61857 0
M  V30 1171 H 113.809 -4.60294 1.92174 0
M  V30 1172 H 112.963 -6.06653 0.0758604 0
M  V30 1173 H 111.702 -4.86622 -0.324062 0
M  V30 1174 H 110.707 -5.13482 1.9651 0
M  V30 1175 H 111.932 -6.36873 2.35733 0
M  V30 1176 H 109.878 -6.55888 0.12138 0
M  V30 1177 H 109.795 -7.3786 1.64616 0
M  V30 1178 H 111.063 -7.77725 0.525795 0
M  V30 1179 N 115.292 -0.849877 -1.32721 0
M  V30 1180 C 116.24 -0.279745 -2.30912 0
M  V30 1181 C 117.234 0.594278 -1.58634 0
M  V30 1182 O 118.44 0.482613 -1.73409 0
M  V30 1183 H 114.815 -0.0717521 -0.748569 0
M  V30 1184 H 116.786 -1.12222 -2.76494 0
M  V30 1185 C 115.535 0.521108 -3.43773 0
M  V30 1186 H 114.858 -0.142141 -3.99547 0
M  V30 1187 H 116.298 0.885693 -4.14646 0
M  V30 1188 C 114.757 1.70442 -2.90605 0
M  V30 1189 O 115.287 2.8034 -2.87702 0
M  V30 1190 N 113.493 1.52991 -2.47067 0
M  V30 1191 H 113.04 0.635914 -2.49628 0
M  V30 1192 H 112.998 2.32311 -2.11847 0
M  V30 1193 N 116.77 1.45427 -0.607355 0
M  V30 1194 C 118.186 1.57283 -0.270985 0
M  V30 1195 C 118.386 1.59875 1.22647 0
M  V30 1196 O 117.442 1.52893 2.00948 0
M  V30 1197 C 118.755 2.85566 -0.941952 0
M  V30 1198 C 120.303 2.9924 -0.917849 0
M  V30 1199 C 120.778 4.30293 -1.56882 0
M  V30 1200 N 122.269 4.37051 -1.5343 0
M  V30 1201 C 123.004 5.37123 -2.00715 0
M  V30 1202 N 122.5 6.43734 -2.56084 0
M  V30 1203 N 124.293 5.28479 -1.91484 0
M  V30 1204 H 116.444 1.41988 -1.57966 0
M  V30 1205 H 118.707 0.67885 -0.661715 0
M  V30 1206 H 118.413 2.8955 -1.99633 0
M  V30 1207 H 118.287 3.74322 -0.465096 0
M  V30 1208 H 120.674 2.94822 0.127984 0
M  V30 1209 H 120.755 2.11895 -1.43297 0
M  V30 1210 H 120.399 4.35469 -2.61398 0
M  V30 1211 H 120.329 5.16454 -1.02873 0
M  V30 1212 H 122.82 3.60615 -1.12982 0
M  V30 1213 H 123.133 7.16341 -2.89958 0
M  V30 1214 H 121.478 6.44485 -2.60122 0
M  V30 1215 H 124.669 4.44098 -1.47967 0
M  V30 1216 H 124.842 6.0632 -2.28648 0
M  V30 1217 N 118.248 0.346503 1.53744 0
M  V30 1218 C 119.211 -0.496439 2.23759 0
M  V30 1219 C 120.211 -1.0252 1.2388 0
M  V30 1220 O 121.401 -0.913974 1.48297 0
M  V30 1221 C 118.533 -1.69187 2.95954 0
M  V30 1222 H 119.726 0.115952 2.99676 0
M  V30 1223 H 117.279 0.0978939 1.55993 0
M  V30 1224 H 118.014 -2.34288 2.24231 0
M  V30 1225 H 117.799 -1.31989 3.69217 0
M  V30 1226 H 119.289 -2.28969 3.49232 0
M  V30 1227 N 119.726 -1.57421 0.075193 0
M  V30 1228 C 120.975 -1.92794 -0.592731 0
M  V30 1229 C 121.288 -0.957478 -1.70563 0
M  V30 1230 O 122.494 -1.20417 -2.43335 0
M  V30 1231 C 120.95 -3.42495 -1.10569 0
M  V30 1232 C 120.558 -4.47994 -0.0236121 0
M  V30 1233 C 122.302 -3.86864 -1.74748 0
M  V30 1234 C 120.209 -5.88829 -0.550803 0
M  V30 1235 H 119.139 -0.719591 -0.225177 0
M  V30 1236 H 121.79 -1.82902 0.147978 0
M  V30 1237 H 120.172 -3.47471 -1.89947 0
M  V30 1238 H 121.346 -4.54637 0.751099 0
M  V30 1239 H 119.661 -4.13113 0.522159 0
M  V30 1240 H 122.258 -4.8947 -2.15229 0
M  V30 1241 H 122.601 -3.24417 -2.60882 0
M  V30 1242 H 123.134 -3.84504 -1.01986 0
M  V30 1243 H 119.873 -6.54929 0.273457 0
M  V30 1244 H 119.393 -5.85698 -1.29296 0
M  V30 1245 H 121.072 -6.38811 -1.02613 0
M  V30 1246 N 121.204 0.198386 -1.56346 0
M  V30 1247 C 122.453 0.917451 -1.79627 0
M  V30 1248 C 122.766 1.8456 -0.64784 0
M  V30 1249 O 123.972 2.60504 -0.764859 0
M  V30 1250 C 122.428 1.68175 -3.18191 0
M  V30 1251 C 122.036 0.798589 -4.40825 0
M  V30 1252 C 123.78 2.39065 -3.50782 0
M  V30 1253 C 121.687 1.56157 -5.70411 0
M  V30 1254 H 120.617 0.346317 -0.669762 0
M  V30 1255 H 123.268 0.170801 -1.82703 0
M  V30 1256 H 121.65 2.47216 -3.09354 0
M  V30 1257 H 122.824 0.0470665 -4.60776 0
M  V30 1258 H 121.139 0.200686 -4.15916 0
M  V30 1259 H 123.736 2.96692 -4.44835 0
M  V30 1260 H 124.079 3.13091 -2.74371 0
M  V30 1261 H 124.612 1.66993 -3.61052 0
M  V30 1262 H 121.351 0.864142 -6.49779 0
M  V30 1263 H 120.871 2.2871 -5.54483 0
M  V30 1264 H 122.55 2.11622 -6.11412 0
M  V30 1265 N 122.682 1.50554 0.465978 0
M  V30 1266 C 123.614 1.65949 1.58093 0
M  V30 1267 C 124.627 0.540827 1.53554 0
M  V30 1268 O 125.816 0.814187 1.5885 0
M  V30 1269 C 122.916 1.63261 2.96983 0
M  V30 1270 C 122.089 2.91245 3.26336 0
M  V30 1271 C 121.148 2.8113 4.44806 0
M  V30 1272 O 120.174 3.55086 4.44862 0
M  V30 1273 N 121.376 1.95032 5.46756 0
M  V30 1274 H 124.141 2.62122 1.45301 0
M  V30 1275 H 121.702 1.48082 0.65448 0
M  V30 1276 H 123.694 1.54101 3.74212 0
M  V30 1277 H 122.264 0.748032 3.03518 0
M  V30 1278 H 121.484 3.14493 2.37672 0
M  V30 1279 H 122.772 3.76022 3.42761 0
M  V30 1280 H 122.17 1.3427 5.49534 0
M  V30 1281 H 120.727 1.91772 6.2295 0
M  V30 1282 N 124.16 -0.719506 1.40217 0
M  V30 1283 C 125.07 -1.86378 1.42479 0
M  V30 1284 C 126.086 -1.71073 0.317834 0
M  V30 1285 O 127.262 -1.93406 0.561794 0
M  V30 1286 C 124.327 -3.22136 1.28178 0
M  V30 1287 C 123.388 -3.49723 2.48982 0
M  V30 1288 C 122.621 -4.79004 2.35353 0
M  V30 1289 O 122.844 -5.53821 1.36524 0
M  V30 1290 O 121.778 -5.06839 3.2465 0
M  V30 1291 H 125.604 -1.87425 2.38968 0
M  V30 1292 H 123.189 -0.869405 1.21498 0
M  V30 1293 H 125.071 -4.03234 1.22395 0
M  V30 1294 H 123.746 -3.21825 0.347934 0
M  V30 1295 H 122.653 -2.6865 2.60342 0
M  V30 1296 H 123.986 -3.54828 3.41113 0
M  V30 1297 N 125.638 -1.25649 -0.95132 0
M  V30 1298 C 126.884 -1.10757 -1.69884 0
M  V30 1299 C 127.217 0.350061 -1.91019 0
M  V30 1300 O 126.492 1.25783 -1.48354 0
M  V30 1301 C 126.775 -1.86606 -3.07978 0
M  V30 1302 C 126.628 -3.40217 -2.94232 0
M  V30 1303 C 127.947 -1.65182 -4.07925 0
M  V30 1304 H 125.066 -0.40374 -0.616574 0
M  V30 1305 H 127.708 -1.54521 -1.10558 0
M  V30 1306 H 125.858 -1.49409 -3.58621 0
M  V30 1307 H 127.53 -3.87108 -2.50889 0
M  V30 1308 H 125.773 -3.67759 -2.30078 0
M  V30 1309 H 126.444 -3.88505 -3.92133 0
M  V30 1310 H 128.92 -1.9757 -3.66204 0
M  V30 1311 H 127.796 -2.20683 -5.02583 0
M  V30 1312 H 128.057 -0.593933 -4.38092 0
M  V30 1313 N 127.117 1.15442 -1.07289 0
M  V30 1314 C 128.357 1.8788 -0.805012 0
M  V30 1315 C 128.721 1.80413 0.656907 0
M  V30 1316 O 129.922 2.47874 1.0398 0
M  V30 1317 C 128.193 3.3298 -1.29843 0
M  V30 1318 S 129.752 4.23158 -1.16114 0
M  V30 1319 H 126.57 0.64839 -0.291739 0
M  V30 1320 H 129.172 1.39285 -1.37186 0
M  V30 1321 H 127.876 3.35958 -2.35712 0
M  V30 1322 H 127.407 3.86629 -0.726767 0
M  V30 1323 H 129.422 4.96103 -0.0982778 0
M  V30 1324 N 128.595 0.856903 1.32268 0
M  V30 1325 C 129.842 0.461386 1.97174 0
M  V30 1326 C 130.17 -0.983491 1.67803 0
M  V30 1327 O 129.425 -1.70541 0.959903 0
M  V30 1328 C 129.724 0.649919 3.51441 0
M  V30 1329 C 129.39 2.0656 4.00804 0
M  V30 1330 C 128.052 2.45279 4.13995 0
M  V30 1331 C 130.404 2.98947 4.26943 0
M  V30 1332 C 127.732 3.75653 4.50668 0
M  V30 1333 C 130.084 4.28822 4.65075 0
M  V30 1334 C 128.748 4.67472 4.76472 0
M  V30 1335 H 128.018 0.168833 0.72151 0
M  V30 1336 H 130.665 1.08739 1.57633 0
M  V30 1337 H 128.97 -0.0593018 3.91755 0
M  V30 1338 H 130.667 0.32391 3.9969 0
M  V30 1339 H 127.257 1.75495 3.91024 0
M  V30 1340 H 131.441 2.70265 4.16258 0
M  V30 1341 H 126.697 4.05379 4.57688 0
M  V30 1342 H 130.871 5.0047 4.84255 0
M  V30 1343 H 128.498 5.68539 5.04646 0
M  V30 1344 N 130.073 -1.45103 0.615059 0
M  V30 1345 C 131.006 -2.27717 -0.148408 0
M  V30 1346 C 131.984 -1.37584 -0.866572 0
M  V30 1347 O 133.168 -1.67017 -0.87393 0
M  V30 1348 C 130.295 -3.16136 -1.21557 0
M  V30 1349 C 129.341 -4.22263 -0.599712 0
M  V30 1350 S 130.174 -5.3215 0.598081 0
M  V30 1351 C 131.33 -6.24137 -0.469484 0
M  V30 1352 H 131.563 -2.92121 0.552483 0
M  V30 1353 H 129.096 -1.49054 0.402778 0
M  V30 1354 H 131.054 -3.67633 -1.82638 0
M  V30 1355 H 129.715 -2.50982 -1.88857 0
M  V30 1356 H 128.908 -4.84081 -1.4029 0
M  V30 1357 H 128.51 -3.73945 -0.063876 0
M  V30 1358 H 130.802 -6.63984 -1.34652 0
M  V30 1359 H 131.745 -7.0801 0.112725 0
M  V30 1360 H 132.153 -5.58971 -0.788168 0
M  V30 1361 N 131.551 -0.354651 -1.53558 0
M  V30 1362 C 132.498 0.496968 -2.25386 0
M  V30 1363 C 133.468 1.0865 -1.25636 0
M  V30 1364 O 134.653 1.12104 -1.54394 0
M  V30 1365 C 131.793 1.63637 -3.03837 0
M  V30 1366 C 130.906 1.07307 -4.18461 0
M  V30 1367 C 130.041 2.18068 -4.84376 0
M  V30 1368 C 129.08 1.59147 -5.91049 0
M  V30 1369 N 128.217 2.63695 -6.50699 0
M  V30 1370 H 133.057 -0.122075 -2.9775 0
M  V30 1371 H 130.594 -0.0720154 -1.46924 0
M  V30 1372 H 132.552 2.30734 -3.47589 0
M  V30 1373 H 131.182 2.22623 -2.33749 0
M  V30 1374 H 130.234 0.292708 -3.79272 0
M  V30 1375 H 131.546 0.602193 -4.95152 0
M  V30 1376 H 130.7 2.93007 -5.31255 0
M  V30 1377 H 129.439 2.68504 -4.07133 0
M  V30 1378 H 128.444 0.827175 -5.43542 0
M  V30 1379 H 129.669 1.09549 -6.70206 0
M  V30 1380 H 127.615 3.13365 -5.76315 0
M  V30 1381 H 127.532 2.21263 -7.22896 0
M  V30 1382 H 128.8 3.3837 -7.02229 0
M  V30 1383 N 133.029 1.57378 -0.0835403 0
M  V30 1384 C 133.976 2.13384 0.879539 0
M  V30 1385 C 134.946 1.04936 1.28754 0
M  V30 1386 O 136.131 1.32662 1.37133 0
M  V30 1387 C 133.271 2.70932 2.13752 0
M  V30 1388 C 132.384 3.93575 1.7811 0
M  V30 1389 C 131.519 4.39326 2.98607 0
M  V30 1390 C 130.558 5.54587 2.59037 0
M  V30 1391 N 129.695 5.95243 3.72331 0
M  V30 1392 H 134.535 2.9537 0.395076 0
M  V30 1393 H 132.072 1.45953 0.183349 0
M  V30 1394 H 134.03 3.02411 2.87408 0
M  V30 1395 H 132.66 1.91693 2.59718 0
M  V30 1396 H 131.712 3.68483 0.94469 0
M  V30 1397 H 133.024 4.77258 1.45005 0
M  V30 1398 H 132.178 4.72528 3.80529 0
M  V30 1399 H 130.917 3.5452 3.34913 0
M  V30 1400 H 129.922 5.21024 1.75539 0
M  V30 1401 H 131.147 6.41133 2.23887 0
M  V30 1402 H 129.093 5.13385 4.08378 0
M  V30 1403 H 129.01 6.73694 3.43034 0
M  V30 1404 H 130.278 6.33072 4.54797 0
M  V30 1405 N 134.507 -0.190092 1.56449 0
M  V30 1406 C 135.437 -1.23816 1.97969 0
M  V30 1407 C 136.418 -1.47201 0.852395 0
M  V30 1408 O 137.603 -1.58854 1.1171 0
M  V30 1409 C 134.733 -2.5813 2.3235 0
M  V30 1410 C 133.687 -2.49348 3.47864 0
M  V30 1411 C 133.013 -3.8798 3.67934 0
M  V30 1412 C 134.313 -2.01424 4.81898 0
M  V30 1413 H 136.007 -0.89311 2.85769 0
M  V30 1414 H 133.553 -0.428177 1.37487 0
M  V30 1415 H 135.506 -3.31637 2.59991 0
M  V30 1416 H 134.23 -2.94386 1.41438 0
M  V30 1417 H 132.889 -1.78297 3.20321 0
M  V30 1418 H 132.537 -4.21597 2.74344 0
M  V30 1419 H 132.237 -3.82978 4.45648 0
M  V30 1420 H 133.761 -4.63101 3.97957 0
M  V30 1421 H 135.175 -2.64693 5.08538 0
M  V30 1422 H 133.572 -2.07413 5.63116 0
M  V30 1423 H 134.642 -0.967677 4.75146 0
M  V30 1424 N 135.985 -1.50799 -0.457987 0
M  V30 1425 C 137.21 -1.66496 -1.23668 0
M  V30 1426 C 137.635 -0.353288 -1.84752 0
M  V30 1427 O 136.993 0.684346 -1.67888 0
M  V30 1428 C 137.041 -2.76763 -2.3116 0
M  V30 1429 O 136.145 -2.38928 -3.36136 0
M  V30 1430 H 135.486 -0.555828 -0.363252 0
M  V30 1431 H 138.016 -1.9725 -0.543474 0
M  V30 1432 H 138.026 -3.00232 -2.76269 0
M  V30 1433 H 136.701 -3.71954 -1.86073 0
M  V30 1434 H 135.278 -2.25953 -2.96647 0
M  V30 1435 N 137.463 0.71206 -1.40597 0
M  V30 1436 C 138.711 1.46907 -1.38791 0
M  V30 1437 C 139.032 1.94998 0.00780391 0
M  V30 1438 O 138.302 1.70587 0.963174 0
M  V30 1439 H 136.882 0.545043 -0.51082 0
M  V30 1440 H 139.544 0.843882 -1.75683 0
M  V30 1441 H 138.64 2.34021 -2.06496 0
M  V30 1442 N 138.941 1.26152 0.944643 0
M  V30 1443 C 139.891 1.04081 2.02857 0
M  V30 1444 C 140.875 -0.0256555 1.6088 0
M  V30 1445 O 142.067 0.190884 1.75968 0
M  V30 1446 C 139.196 0.672118 3.36656 0
M  V30 1447 C 138.282 1.77586 3.85128 0
M  V30 1448 N 138.673 3.01272 4.06287 0
M  V30 1449 C 136.971 1.65867 4.1401 0
M  V30 1450 C 137.672 3.72983 4.46384 0
M  V30 1451 N 136.648 3.00653 4.52889 0
M  V30 1452 H 140.45 1.97968 2.17223 0
M  V30 1453 H 137.964 1.16618 1.13022 0
M  V30 1454 H 139.961 0.495166 4.13949 0
M  V30 1455 H 138.621 -0.259307 3.23663 0
M  V30 1456 H 139.632 3.37213 3.93075 0
M  V30 1457 H 136.309 0.796907 4.09824 0
M  V30 1458 H 137.699 4.792 4.70975 0
M  V30 1459 N 140.419 -1.14872 1.07899 0
M  V30 1460 C 141.83 -1.67367 0.827363 0
M  V30 1461 C 142.181 -1.85236 -0.646693 0
M  V30 1462 O 141.306 -1.55974 -1.50004 0
M  V30 1463 C 141.901 -3.04016 1.49532 0
M  V30 1464 C 140.46 -3.53566 1.29106 0
M  V30 1465 C 139.607 -2.29161 1.56143 0
M  V30 1466 H 142.558 -0.990083 1.24028 0
M  V30 1467 H 142.579 -3.69219 0.919643 0
M  V30 1468 H 142.091 -2.90978 2.56814 0
M  V30 1469 H 140.192 -3.71835 0.238713 0
M  V30 1470 H 140.305 -4.34661 2.01511 0
M  V30 1471 H 138.669 -2.34978 0.982717 0
M  V30 1472 H 139.452 -2.18705 2.64619 0
M  V30 1473 N 141.898 -0.863906 -1.31812 0
M  V30 1474 C 142.846 -0.30422 -2.30602 0
M  V30 1475 C 143.84 0.577419 -1.59255 0
M  V30 1476 O 145.046 0.464194 -1.73912 0
M  V30 1477 H 141.421 -0.0796877 -0.747766 0
M  V30 1478 H 143.392 -1.15148 -2.75288 0
M  V30 1479 C 142.141 0.484617 -3.44306 0
M  V30 1480 H 141.464 -0.18451 -3.99374 0
M  V30 1481 H 142.904 0.841664 -4.15562 0
M  V30 1482 C 141.363 1.6735 -2.92396 0
M  V30 1483 O 141.893 2.77273 -2.90659 0
M  V30 1484 N 140.099 1.50362 -2.48676 0
M  V30 1485 H 139.646 0.609402 -2.50288 0
M  V30 1486 H 139.604 2.30051 -2.14299 0
M  V30 1487 N 143.376 1.44774 -0.622745 0
M  V30 1488 C 144.625 2.01334 -0.121397 0
M  V30 1489 C 144.938 1.49505 1.26125 0
M  V30 1490 O 146.144 1.98139 1.85616 0
M  V30 1491 C 144.6 3.59516 -0.166298 0
M  V30 1492 C 144.208 4.20342 -1.54974 0
M  V30 1493 C 145.952 4.23582 0.279021 0
M  V30 1494 C 143.859 5.70721 -1.55021 0
M  V30 1495 H 142.789 0.752851 -0.0416172 0
M  V30 1496 H 145.44 1.66083 -0.780309 0
M  V30 1497 H 143.822 3.92027 0.559557 0
M  V30 1498 H 144.996 3.99381 -2.29851 0
M  V30 1499 H 143.311 3.68529 -1.93843 0
M  V30 1500 H 145.908 5.33868 0.298083 0
M  V30 1501 H 146.251 3.95327 1.30471 0
M  V30 1502 H 146.784 3.95843 -0.394063 0
M  V30 1503 H 143.523 6.03698 -2.55399 0
M  V30 1504 H 143.043 5.93829 -0.844245 0
M  V30 1505 H 144.722 6.34203 -1.28047 0
M  V30 1506 N 144.854 0.36279 1.53368 0
M  V30 1507 C 146.1 -0.228113 2.01513 0
M  V30 1508 C 146.433 -1.48648 1.2497 0
M  V30 1509 O 145.708 -1.91459 0.342616 0
M  V30 1510 C 145.991 -0.522884 3.56284 0
M  V30 1511 C 145.844 0.74892 4.43521 0
M  V30 1512 C 147.163 -1.32461 4.19693 0
M  V30 1513 H 144.282 -0.0814343 0.732487 0
M  V30 1514 H 146.924 0.48713 1.83649 0
M  V30 1515 H 145.074 -1.1322 3.71636 0
M  V30 1516 H 146.746 1.38648 4.39971 0
M  V30 1517 H 144.989 1.36986 4.11603 0
M  V30 1518 H 145.66 0.497667 5.49752 0
M  V30 1519 H 148.136 -0.809203 4.08156 0
M  V30 1520 H 147.012 -1.49961 5.28018 0
M  V30 1521 H 147.273 -2.33232 3.75573 0
M  V30 1522 N 146.332 -1.57332 0.0918853 0
M  V30 1523 C 147.264 -2.10869 -0.898168 0
M  V30 1524 C 148.277 -1.04521 -1.24817 0
M  V30 1525 O 149.466 -1.31977 -1.20184 0
M  V30 1526 C 146.566 -2.57083 -2.2082 0
M  V30 1527 C 145.739 -3.87229 -2.03402 0
M  V30 1528 C 144.798 -4.19324 -3.17889 0
M  V30 1529 O 143.824 -4.88598 -2.91994 0
M  V30 1530 N 145.026 -3.74471 -4.43567 0
M  V30 1531 H 147.791 -2.96439 -0.440943 0
M  V30 1532 H 145.352 -1.61631 -0.0933064 0
M  V30 1533 H 147.344 -2.75602 -2.96354 0
M  V30 1534 H 145.914 -1.76541 -2.57977 0
M  V30 1535 H 145.134 -3.7789 -1.12218 0
M  V30 1536 H 146.422 -4.72379 -1.89038 0
M  V30 1537 H 145.82 -3.18546 -4.67488 0
M  V30 1538 H 144.377 -3.98151 -5.16061 0
M  V30 1539 N 147.81 0.181792 -1.56548 0
M  V30 1540 C 149.057 0.900097 -1.81396 0
M  V30 1541 C 149.385 1.82695 -0.667281 0
M  V30 1542 O 148.64 1.92614 0.346146 0
M  V30 1543 C 148.939 1.73728 -3.12335 0
M  V30 1544 C 148.605 0.960255 -4.40556 0
M  V30 1545 C 147.267 0.745766 -4.75386 0
M  V30 1546 C 149.619 0.414477 -5.19549 0
M  V30 1547 C 146.947 -0.0257694 -5.86694 0
M  V30 1548 C 149.299 -0.343916 -6.31664 0
M  V30 1549 C 147.963 -0.569301 -6.65068 0
M  V30 1550 H 147.233 0.329369 -0.663775 0
M  V30 1551 H 149.88 0.165647 -1.90782 0
M  V30 1552 H 148.185 2.54081 -2.98245 0
M  V30 1553 H 149.882 2.29591 -3.28769 0
M  V30 1554 H 146.472 1.13746 -4.13231 0
M  V30 1555 H 150.656 0.567554 -4.93044 0
M  V30 1556 H 145.912 -0.210233 -6.11038 0
M  V30 1557 H 150.086 -0.774133 -6.92084 0
M  V30 1558 H 147.713 -1.16903 -7.51158 0
M  V30 1559 N 149.288 1.51039 0.449983 0
M  V30 1560 C 150.528 1.64732 1.21007 0
M  V30 1561 C 150.892 0.349865 1.88785 0
M  V30 1562 O 152.093 0.362431 2.66345 0
M  V30 1563 C 150.364 2.80902 2.20973 0
M  V30 1564 S 151.923 3.14851 3.05638 0
M  V30 1565 H 148.741 0.5805 0.410538 0
M  V30 1566 H 151.343 1.88901 0.503634 0
M  V30 1567 H 150.047 3.73627 1.69796 0
M  V30 1568 H 149.578 2.58882 2.96215 0
M  V30 1569 H 151.593 2.60306 4.22439 0
M  V30 1570 N 150.766 -0.704594 1.40972 0
M  V30 1571 C 151.991 -1.49858 1.43378 0
M  V30 1572 C 152.416 -1.88061 0.038184 0
M  V30 1573 O 151.774 -1.5402 -0.956425 0
M  V30 1574 C 151.822 -2.74333 2.34038 0
M  V30 1575 O 150.926 -3.7147 1.7912 0
M  V30 1576 H 150.267 -0.45139 0.486974 0
M  V30 1577 H 152.797 -0.866832 1.8533 0
M  V30 1578 H 152.807 -3.22741 2.49604 0
M  V30 1579 H 151.482 -2.45863 3.35446 0
M  V30 1580 H 150.059 -3.30363 1.72958 0
M  V30 1581 N 152.244 -1.26651 -0.937939 0
M  V30 1582 C 153.207 -1.08546 -2.01867 0
M  V30 1583 C 154.207 -0.0327327 -1.60767 0
M  V30 1584 O 155.397 -0.276427 -1.71993 0
M  V30 1585 C 152.529 -0.651711 -3.34613 0
M  V30 1586 H 153.722 -2.04502 -2.1936 0
M  V30 1587 H 151.275 -1.09294 -1.11734 0
M  V30 1588 H 152.01 0.309696 -3.22818 0
M  V30 1589 H 151.795 -1.41189 -3.65798 0
M  V30 1590 H 153.285 -0.546973 -4.14002 0
M  V30 1591 N 153.722 1.14298 -1.08507 0
M  V30 1592 C 154.685 2.17607 -0.719711 0
M  V30 1593 C 155.685 1.58907 0.245997 0
M  V30 1594 O 156.875 1.74181 0.0254081 0
M  V30 1595 C 154.007 3.40842 -0.0627695 0
M  V30 1596 H 155.2 2.51443 -1.63452 0
M  V30 1597 H 152.753 1.28963 -0.88307 0
M  V30 1598 H 153.488 3.12587 0.863716 0
M  V30 1599 H 153.273 3.84713 -0.757504 0
M  V30 1600 H 154.763 4.17221 0.177786 0
M  V30 1601 N 155.201 0.870884 1.31352 0
M  V30 1602 C 156.426 0.495957 2.01383 0
M  V30 1603 C 156.851 -0.904324 1.64935 0
M  V30 1604 O 156.209 -1.59687 0.858466 0
M  V30 1605 C 156.257 0.661433 3.54482 0
M  V30 1606 O 155.361 -0.298851 4.11316 0
M  V30 1607 H 154.702 0.197158 0.634054 0
M  V30 1608 H 157.232 1.17455 1.67527 0
M  V30 1609 H 157.242 0.555072 4.04207 0
M  V30 1610 H 155.917 1.68246 3.8035 0
M  V30 1611 H 154.494 -0.147368 3.72609 0
M  V30 1612 N 156.679 -1.44442 0.630414 0
M  V30 1613 C 157.928 -2.01267 0.132073 0
M  V30 1614 C 158.241 -1.50172 -1.25331 0
M  V30 1615 O 159.447 -1.9912 -1.84562 0
M  V30 1616 C 157.903 -3.59422 0.185362 0
M  V30 1617 C 157.511 -4.19514 1.57201 0
M  V30 1618 C 159.255 -4.23724 -0.256553 0
M  V30 1619 C 157.162 -5.69891 1.58045 0
M  V30 1620 H 156.092 -0.752619 0.0456092 0
M  V30 1621 H 158.743 -1.65666 0.789106 0
M  V30 1622 H 157.125 -3.92318 -0.538759 0
M  V30 1623 H 158.299 -3.98156 2.31966 0
M  V30 1624 H 156.614 -3.67496 1.95795 0
M  V30 1625 H 159.211 -5.34019 -0.269767 0
M  V30 1626 H 159.554 -3.96013 -1.28372 0
M  V30 1627 H 160.087 -3.95629 0.41505 0
M  V30 1628 H 156.826 -6.02336 2.58597 0
M  V30 1629 H 156.346 -5.93373 0.875725 0
M  V30 1630 H 158.025 -6.33515 1.31408 0
M  V30 1631 N 158.157 -0.370918 -1.53173 0
M  V30 1632 C 159.405 0.216673 -2.00935 0
M  V30 1633 C 159.726 1.48845 -1.25977 0
M  V30 1634 O 158.996 1.92286 -0.374551 0
M  V30 1635 H 157.576 0.0830565 -0.742368 0
M  V30 1636 H 160.238 -0.49838 -1.8842 0
M  V30 1637 H 159.334 0.439893 -3.08984 0
M  V30 1638 N 159.635 1.57281 -0.100228 0
M  V30 1639 C 160.582 2.14305 0.856858 0
M  V30 1640 C 161.552 1.06296 1.27634 0
M  V30 1641 O 162.737 1.34109 1.35718 0
M  V30 1642 C 159.877 2.73184 2.10866 0
M  V30 1643 C 158.99 3.95442 1.73925 0
M  V30 1644 C 158.125 4.42468 2.93931 0
M  V30 1645 C 157.164 5.57303 2.5314 0
M  V30 1646 N 156.301 5.99158 3.65997 0
M  V30 1647 H 161.141 2.95772 0.363726 0
M  V30 1648 H 158.678 1.46139 0.167858 0
M  V30 1649 H 160.636 3.05442 2.84185 0
M  V30 1650 H 159.266 1.94437 2.57671 0
M  V30 1651 H 158.318 3.69464 0.905554 0
M  V30 1652 H 159.63 4.78769 1.39935 0
M  V30 1653 H 158.784 4.76537 3.75496 0
M  V30 1654 H 157.523 3.58052 3.31134 0
M  V30 1655 H 156.528 5.22857 1.70003 0
M  V30 1656 H 157.753 6.43471 2.17075 0
M  V30 1657 H 155.699 5.17687 4.02909 0
M  V30 1658 H 155.616 6.77295 3.35869 0
M  V30 1659 H 156.884 6.3786 4.48057 0
M  V30 1660 N 161.113 -0.173488 1.56642 0
M  V30 1661 C 162.023 -1.23482 1.99473 0
M  V30 1662 C 163.039 -1.48567 0.905752 0
M  V30 1663 O 164.215 -1.60758 1.21321 0
M  V30 1664 C 161.28 -2.55444 2.34413 0
M  V30 1665 C 160.341 -2.38241 3.57127 0
M  V30 1666 C 159.574 -3.63909 3.90392 0
M  V30 1667 O 159.797 -4.68996 3.24653 0
M  V30 1668 O 158.731 -3.58149 4.83749 0
M  V30 1669 H 162.557 -0.901279 2.90018 0
M  V30 1670 H 160.142 -0.380185 1.44482 0
M  V30 1671 H 162.024 -3.33292 2.57865 0
M  V30 1672 H 160.699 -2.88382 1.4703 0
M  V30 1673 H 159.606 -1.58431 3.38896 0
M  V30 1674 H 160.939 -2.10228 4.45045 0
M  V30 1675 N 162.591 -1.51276 -0.441967 0
M  V30 1676 C 163.501 -1.75092 -1.56141 0
M  V30 1677 C 164.517 -0.634963 -1.62001 0
M  V30 1678 O 165.693 -0.916686 -1.79329 0
M  V30 1679 C 162.758 -1.86666 -2.92158 0
M  V30 1680 C 161.819 -3.10506 -2.96453 0
M  V30 1681 C 161.052 -3.21519 -4.25982 0
M  V30 1682 O 161.275 -2.38586 -5.18105 0
M  V30 1683 O 160.209 -4.14465 -4.36466 0
M  V30 1684 H 164.035 -2.70044 -1.38961 0
M  V30 1685 H 161.62 -1.35722 -0.624499 0
M  V30 1686 H 163.502 -1.96292 -3.72891 0
M  V30 1687 H 162.177 -0.949014 -3.09476 0
M  V30 1688 H 161.084 -3.06363 -2.14692 0
M  V30 1689 H 162.417 -4.01945 -2.84079 0
M  V30 1690 N 164.069 0.697108 -1.41344 0
M  V30 1691 C 165.294 1.49096 -1.44171 0
M  V30 1692 C 165.719 1.88038 -0.0481568 0
M  V30 1693 O 165.077 1.54525 0.948243 0
M  V30 1694 C 165.125 2.73088 -2.3549 0
M  V30 1695 O 164.229 3.70514 -1.81088 0
M  V30 1696 H 163.57 0.448801 -0.489361 0
M  V30 1697 H 166.1 0.856992 -1.85787 0
M  V30 1698 H 166.11 3.21413 -2.51312 0
M  V30 1699 H 164.785 2.44081 -3.36745 0
M  V30 1700 H 163.362 3.29441 -1.74708 0
M  V30 1701 N 165.547 1.27147 0.931209 0
M  V30 1702 C 166.824 1.0401 1.65654 0
M  V30 1703 C 167.204 -0.426297 2.06751 0
M  V30 1704 O 166.552 -1.40879 1.79904 0
M  V30 1705 C 166.762 1.99834 2.86125 0
M  V30 1706 C 168.11 2.29007 3.57549 0
M  V30 1707 O 169.134 1.97779 2.96246 0
M  V30 1708 O 167.993 2.82222 4.67989 0
M  V30 1709 H 165.087 0.396239 0.725895 0
M  V30 1710 H 167.633 1.38397 0.982056 0
M  V30 1711 H 166.405 2.98744 2.52721 0
M  V30 1712 H 166.028 1.65987 3.61295 0
M  V30 1713 N 167.025 -1.13721 1.09112 0
M  V30 1714 C 168.253 -1.88773 0.846899 0
M  V30 1715 C 168.668 -1.7896 -0.601572 0
M  V30 1716 O 168.025 -1.15394 -1.41388 0
M  V30 1717 C 168.076 -3.3849 1.26913 0
M  V30 1718 O 167.797 -3.48043 2.66079 0
M  V30 1719 C 169.298 -4.30518 1.05682 0
M  V30 1720 H 166.518 -0.59772 0.304914 0
M  V30 1721 H 169.062 -1.43977 1.45227 0
M  V30 1722 H 167.217 -3.80881 0.707723 0
M  V30 1723 H 167.631 -4.4109 2.83795 0
M  V30 1724 H 169.105 -5.3391 1.40156 0
M  V30 1725 H 169.582 -4.392 -0.00563416 0
M  V30 1726 H 170.188 -3.93893 1.60402 0
M  V30 1727 N 168.503 -0.877838 -1.30888 0
M  V30 1728 C 169.751 -0.491723 -1.96027 0
M  V30 1729 C 170.072 0.960827 -1.69685 0
M  V30 1730 O 169.342 1.67462 -1.01654 0
M  V30 1731 H 167.922 -0.17885 -0.725273 0
M  V30 1732 H 170.584 -1.11935 -1.59551 0
M  V30 1733 H 169.68 -0.656016 -3.05128 0
M  V30 1734 N 169.982 1.44106 -0.638065 0
M  V30 1735 C 170.914 2.28976 0.101205 0
M  V30 1736 C 171.927 1.4167 0.802088 0
M  V30 1737 O 173.116 1.65755 0.662375 0
M  V30 1738 C 170.216 3.18217 1.16581 0
M  V30 1739 C 169.389 4.33978 0.546066 0
M  V30 1740 C 168.448 5.04202 1.50554 0
M  V30 1741 O 167.474 5.59986 1.01999 0
M  V30 1742 N 168.676 5.06296 2.8398 0
M  V30 1743 H 171.441 2.93064 -0.627186 0
M  V30 1744 H 169.002 1.54629 -0.479731 0
M  V30 1745 H 170.994 3.62061 1.80815 0
M  V30 1746 H 169.564 2.55833 1.79634 0
M  V30 1747 H 168.784 3.93239 -0.275046 0
M  V30 1748 H 170.072 5.08675 0.112793 0
M  V30 1749 H 169.47 4.62319 3.26002 0
M  V30 1750 H 168.027 5.53907 3.43556 0
M  V30 1751 N 171.46 0.379036 1.52974 0
M  V30 1752 C 172.423 -0.448865 2.24762 0
M  V30 1753 C 173.423 -0.998689 1.26027 0
M  V30 1754 O 174.613 -0.882313 1.50203 0
M  V30 1755 C 171.745 -1.62872 2.99476 0
M  V30 1756 H 172.938 0.179491 2.99362 0
M  V30 1757 H 170.491 0.13096 1.5575 0
M  V30 1758 H 171.226 -2.29479 2.29151 0
M  V30 1759 H 171.011 -1.24128 3.71934 0
M  V30 1760 H 172.501 -2.2151 3.5401 0
M  V30 1761 N 172.938 -1.57226 0.108567 0
M  V30 1762 C 173.848 -2.18292 -0.859401 0
M  V30 1763 C 174.864 -1.15612 -1.30038 0
M  V30 1764 O 176.04 -1.48039 -1.36552 0
M  V30 1765 C 173.105 -2.762 -2.09558 0
M  V30 1766 C 172.166 -3.93881 -1.70752 0
M  V30 1767 C 171.399 -4.49018 -2.88477 0
M  V30 1768 O 171.622 -4.03068 -4.036 0
M  V30 1769 O 170.556 -5.39852 -2.66164 0
M  V30 1770 H 174.382 -3.01441 -0.369769 0
M  V30 1771 H 171.967 -1.48945 -0.1165 0
M  V30 1772 H 173.849 -3.13156 -2.81978 0
M  V30 1773 H 172.524 -1.96089 -2.57548 0
M  V30 1774 H 171.431 -3.61713 -0.954714 0
M  V30 1775 H 172.764 -4.75396 -1.27513 0
M  V30 1776 N 174.416 0.165178 -1.56732 0
M  V30 1777 C 175.663 0.880807 -1.8234 0
M  V30 1778 C 175.991 1.81977 -0.686621 0
M  V30 1779 O 175.246 1.92971 0.325697 0
M  V30 1780 C 175.545 1.70405 -3.1416 0
M  V30 1781 C 175.211 0.913475 -4.4155 0
M  V30 1782 C 173.873 0.695303 -4.7615 0
M  V30 1783 C 176.225 0.359349 -5.1996 0
M  V30 1784 C 173.553 -0.0879947 -5.86634 0
M  V30 1785 C 175.905 -0.410893 -6.31264 0
M  V30 1786 C 174.569 -0.639808 -6.64427 0
M  V30 1787 H 173.839 0.32231 -0.667231 0
M  V30 1788 H 176.486 0.145402 -1.90947 0
M  V30 1789 H 174.791 2.50903 -3.00923 0
M  V30 1790 H 176.488 2.26091 -3.31186 0
M  V30 1791 H 173.078 1.09357 -4.14414 0
M  V30 1792 H 177.262 0.515228 -4.93618 0
M  V30 1793 H 172.518 -0.27503 -6.10781 0
M  V30 1794 H 176.692 -0.847494 -6.91224 0
M  V30 1795 H 174.319 -1.24864 -7.49875 0
M  V30 1796 N 175.894 1.51508 0.433938 0
M  V30 1797 C 176.824 1.76016 1.53429 0
M  V30 1798 C 177.805 0.610112 1.58782 0
M  V30 1799 O 178.99 0.853177 1.74455 0
M  V30 1800 C 176.12 1.88831 2.9148 0
M  V30 1801 C 175.074 3.04288 3.00987 0
M  V30 1802 C 174.4 3.0229 4.4105 0
M  V30 1803 C 175.7 4.44193 2.74754 0
M  V30 1804 H 177.394 2.68152 1.33171 0
M  V30 1805 H 174.94 1.29035 0.639214 0
M  V30 1806 H 176.893 2.04559 3.6842 0
M  V30 1807 H 175.617 0.933455 3.12976 0
M  V30 1808 H 174.276 2.8827 2.26486 0
M  V30 1809 H 173.924 2.04576 4.59519 0
M  V30 1810 H 173.624 3.79822 4.4834 0
M  V30 1811 H 175.148 3.20116 5.1996 0
M  V30 1812 H 176.562 4.60544 3.41426 0
M  V30 1813 H 174.959 5.23457 2.9345 0
M  V30 1814 H 176.029 4.53996 1.70339 0
M  V30 1815 N 177.372 -0.689602 1.41712 0
M  V30 1816 C 178.302 -1.81577 1.46806 0
M  V30 1817 C 179.283 -1.66945 0.326105 0
M  V30 1818 O 180.468 -1.86588 0.538377 0
M  V30 1819 C 177.598 -3.19762 1.35535 0
M  V30 1820 C 176.552 -3.49107 2.47605 0
M  V30 1821 C 175.878 -4.86711 2.21397 0
M  V30 1822 C 177.178 -3.47483 3.89939 0
M  V30 1823 H 178.872 -1.7757 2.41058 0
M  V30 1824 H 176.418 -0.852887 1.16025 0
M  V30 1825 H 178.371 -3.98263 1.3771 0
M  V30 1826 H 177.095 -3.24409 0.377708 0
M  V30 1827 H 175.754 -2.72959 2.44722 0
M  V30 1828 H 175.402 -4.8799 1.21961 0
M  V30 1829 H 175.102 -5.0731 2.96497 0
M  V30 1830 H 176.626 -5.67515 2.25297 0
M  V30 1831 H 178.04 -4.1598 3.94505 0
M  V30 1832 H 176.437 -3.79615 4.64771 0
M  V30 1833 H 177.507 -2.46341 4.17665 0
M  V30 1834 N 178.85 -1.27639 -0.924453 0
M  V30 1835 C 179.78 -1.13166 -2.04244 0
M  V30 1836 C 180.761 -0.032256 -1.70069 0
M  V30 1837 O 181.946 -0.207328 -1.9309 0
M  V30 1838 C 179.076 -0.781496 -3.38393 0
M  V30 1839 C 178.03 -1.83449 -3.86692 0
M  V30 1840 C 177.356 -1.33822 -5.17683 0
M  V30 1841 C 178.656 -3.23917 -4.09726 0
M  V30 1842 H 180.35 -2.06689 -2.1661 0
M  V30 1843 H 177.896 -0.995136 -1.04082 0
M  V30 1844 H 179.849 -0.667057 -4.16087 0
M  V30 1845 H 178.573 0.189439 -3.2605 0
M  V30 1846 H 177.232 -1.93789 -3.11193 0
M  V30 1847 H 176.88 -0.35665 -5.01734 0
M  V30 1848 H 176.58 -2.04224 -5.50968 0
M  V30 1849 H 178.104 -1.23679 -5.97943 0
M  V30 1850 H 179.518 -3.16559 -4.77978 0
M  V30 1851 H 177.915 -3.92059 -4.54324 0
M  V30 1852 H 178.985 -3.68729 -3.14908 0
M  V30 1853 N 180.328 1.1314 -1.09713 0
M  V30 1854 C 181.556 1.88321 -0.856898 0
M  V30 1855 C 181.971 1.79276 0.592073 0
M  V30 1856 O 181.328 1.16142 1.40774 0
M  V30 1857 C 181.379 3.37812 -1.28706 0
M  V30 1858 O 181.1 3.46627 -2.67921 0
M  V30 1859 C 182.601 4.29952 -1.07964 0
M  V30 1860 H 179.821 0.596094 -0.308079 0
M  V30 1861 H 182.365 1.43205 -1.45988 0
M  V30 1862 H 180.52 3.805 -0.727912 0
M  V30 1863 H 180.934 4.39579 -2.8613 0
M  V30 1864 H 182.408 5.33159 -1.42986 0
M  V30 1865 H 182.885 4.39196 -0.0176577 0
M  V30 1866 H 183.491 3.93036 -1.62489 0
M  V30 1867 N 181.806 0.884767 1.30421 0
M  V30 1868 C 182.716 0.355398 2.31892 0
M  V30 1869 C 183.732 -0.542261 1.65335 0
M  V30 1870 O 184.908 -0.435432 1.96637 0
M  V30 1871 C 181.973 -0.421661 3.44126 0
M  V30 1872 C 181.034 0.505727 4.26311 0
M  V30 1873 C 180.267 -0.234343 5.33185 0
M  V30 1874 O 180.49 -1.46045 5.51386 0
M  V30 1875 O 179.424 0.415443 6.00465 0
M  V30 1876 H 183.25 1.19685 2.79122 0
M  V30 1877 H 180.835 0.648596 1.34587 0
M  V30 1878 H 182.717 -0.861641 4.12497 0
M  V30 1879 H 181.392 -1.23942 2.99032 0
M  V30 1880 H 180.299 0.994513 3.60639 0
M  V30 1881 H 181.632 1.28948 4.75009 0
M  V30 1882 N 183.284 -1.43765 0.645699 0
M  V30 1883 C 184.214 -2.33471 -0.0370477 0
M  V30 1884 C 185.195 -1.49042 -0.819779 0
M  V30 1885 O 186.38 -1.77726 -0.782758 0
M  V30 1886 C 183.51 -3.32311 -1.0093 0
M  V30 1887 C 182.464 -4.2667 -0.337201 0
M  V30 1888 C 181.79 -5.1549 -1.42037 0
M  V30 1889 C 183.09 -5.16657 0.765706 0
M  V30 1890 H 184.784 -2.90809 0.712069 0
M  V30 1891 H 182.33 -1.39834 0.343876 0
M  V30 1892 H 184.283 -3.9396 -1.49578 0
M  V30 1893 H 183.007 -2.73213 -1.78948 0
M  V30 1894 H 181.666 -3.66374 0.128771 0
M  V30 1895 H 181.314 -4.52735 -2.1918 0
M  V30 1896 H 181.014 -5.79438 -0.975966 0
M  V30 1897 H 182.538 -5.80012 -1.90838 0
M  V30 1898 H 183.952 -5.72158 0.361702 0
M  V30 1899 H 182.349 -5.89286 1.13413 0
M  V30 1900 H 183.419 -4.56796 1.62683 0
M  V30 1901 N 184.763 -0.387143 -1.52771 0
M  V30 1902 C 186.003 0.195537 -2.03463 0
M  V30 1903 C 186.367 1.44222 -1.26744 0
M  V30 1904 O 187.568 2.10192 -1.67549 0
M  V30 1905 C 185.839 0.459097 -3.54439 0
M  V30 1906 S 187.398 1.01237 -4.26962 0
M  V30 1907 H 184.216 0.0552675 -0.708849 0
M  V30 1908 H 186.818 -0.534992 -1.88037 0
M  V30 1909 H 185.522 -0.455382 -4.07866 0
M  V30 1910 H 185.053 1.21811 -3.74066 0
M  V30 1911 H 187.068 2.29492 -4.39941 0
M  V30 1912 N 186.241 1.57166 -0.116904 0
M  V30 1913 C 187.188 2.15202 0.83408 0
M  V30 1914 C 188.158 1.07644 1.26499 0
M  V30 1915 O 189.343 1.35541 1.34288 0
M  V30 1916 C 186.483 2.75405 2.07957 0
M  V30 1917 C 185.596 3.97264 1.69721 0
M  V30 1918 C 184.731 4.45561 2.89221 0
M  V30 1919 C 183.77 5.59956 2.47215 0
M  V30 1920 N 182.907 6.03006 3.59622 0
M  V30 1921 H 187.747 2.96141 0.332335 0
M  V30 1922 H 185.284 1.46309 0.152349 0
M  V30 1923 H 187.242 3.08439 2.80929 0
M  V30 1924 H 185.872 1.97159 2.55594 0
M  V30 1925 H 184.924 3.70404 0.866316 0
M  V30 1926 H 186.236 4.80226 1.34849 0
M  V30 1927 H 185.39 4.80493 3.7042 0
M  V30 1928 H 184.129 3.61544 3.27318 0
M  V30 1929 H 183.134 5.2463 1.64448 0
M  V30 1930 H 184.359 6.45738 2.10238 0
M  V30 1931 H 182.305 5.21931 3.97396 0
M  V30 1932 H 182.222 6.80819 3.28667 0
M  V30 1933 H 183.49 6.42576 4.41267 0
M  V30 1934 N 187.719 -0.156864 1.56817 0
M  V30 1935 C 188.967 -0.869404 1.82444 0
M  V30 1936 C 189.288 -1.82147 0.69623 0
M  V30 1937 O 188.558 -1.93847 -0.28287 0
M  V30 1938 H 187.138 -0.324043 0.673056 0
M  V30 1939 H 189.8 -0.153224 1.94297 0
M  V30 1940 H 188.896 -1.43761 2.77019 0
M  V30 1941 N 189.197 -1.51736 -0.425897 0
M  V30 1942 C 190.129 -1.70083 -1.53638 0
M  V30 1943 C 191.142 -0.581349 -1.52066 0
M  V30 1944 O 192.331 -0.856017 -1.56635 0
M  V30 1945 C 189.431 -1.71078 -2.9255 0
M  V30 1946 C 188.604 -2.99795 -3.185 0
M  V30 1947 C 187.663 -2.92825 -4.37196 0
M  V30 1948 O 186.689 -3.66756 -4.35291 0
M  V30 1949 N 187.891 -2.0946 -5.41393 0
M  V30 1950 H 190.656 -2.65882 -1.383 0
M  V30 1951 H 188.217 -1.49765 -0.614988 0
M  V30 1952 H 190.209 -1.63969 -3.69995 0
M  V30 1953 H 188.779 -0.828242 -3.01428 0
M  V30 1954 H 187.999 -3.20684 -2.2925 0
M  V30 1955 H 189.287 -3.84977 -3.32671 0
M  V30 1956 H 188.685 -1.48792 -5.45781 0
M  V30 1957 H 187.242 -2.08221 -6.17647 0
M  V30 1958 N 190.675 0.682077 -1.42076 0
M  V30 1959 C 191.605 1.80796 -1.47767 0
M  V30 1960 C 192.586 1.6677 -0.334954 0
M  V30 1961 O 193.771 1.863 -0.548264 0
M  V30 1962 C 190.901 3.19038 -1.37229 0
M  V30 1963 C 189.855 3.47789 -2.49453 0
M  V30 1964 C 189.181 4.8553 -2.23975 0
M  V30 1965 C 190.481 3.45411 -3.91776 0
M  V30 1966 H 192.175 1.7629 -2.41997 0
M  V30 1967 H 189.721 0.846721 -1.16476 0
M  V30 1968 H 191.674 3.97528 -1.39821 0
M  V30 1969 H 190.398 3.24204 -0.394907 0
M  V30 1970 H 189.057 2.71657 -2.46166 0
M  V30 1971 H 188.705 4.87337 -1.24547 0
M  V30 1972 H 188.405 5.0573 -2.99184 0
M  V30 1973 H 189.929 5.66312 -2.28304 0
M  V30 1974 H 191.343 4.13882 -3.96705 0
M  V30 1975 H 189.74 3.77145 -4.66778 0
M  V30 1976 H 190.81 2.44122 -4.18966 0
M  V30 1977 N 192.153 1.28127 0.917671 0
M  V30 1978 C 193.399 1.15223 1.66888 0
M  V30 1979 C 193.732 -0.299293 1.9188 0
M  V30 1980 O 193.007 -1.21805 1.51637 0
M  V30 1981 C 193.29 1.94706 3.02922 0
M  V30 1982 C 193.143 3.47898 2.85109 0
M  V30 1983 C 194.462 1.75939 4.03402 0
M  V30 1984 H 191.581 0.419946 0.605652 0
M  V30 1985 H 194.223 1.57398 1.06423 0
M  V30 1986 H 192.373 1.58864 3.54534 0
M  V30 1987 H 194.045 3.93624 2.40537 0
M  V30 1988 H 192.288 3.7373 2.20246 0
M  V30 1989 H 192.959 3.98765 3.81694 0
M  V30 1990 H 195.435 2.07209 3.60837 0
M  V30 1991 H 194.311 2.33931 4.96556 0
M  V30 1992 H 194.572 0.709877 4.36364 0
M  V30 1993 N 193.631 -1.12557 1.10312 0
M  V30 1994 C 194.541 -2.21841 0.763142 0
M  V30 1995 C 195.557 -1.72354 -0.238801 0
M  V30 1996 O 196.733 -2.01249 -0.0778746 0
M  V30 1997 C 193.798 -3.46131 0.198632 0
M  V30 1998 C 192.859 -4.10464 1.25769 0
M  V30 1999 C 192.092 -5.28821 0.72002 0
M  V30 2000 O 192.315 -5.6859 -0.453993 0
M  V30 2001 O 191.249 -5.83437 1.47935 0
M  V30 2002 H 195.075 -2.53312 1.67532 0
M  V30 2003 H 192.66 -1.20867 0.878157 0
M  V30 2004 H 194.542 -4.2125 -0.112401 0
M  V30 2005 H 193.217 -3.16338 -0.686419 0
M  V30 2006 H 192.124 -3.3713 1.62156 0
M  V30 2007 H 193.457 -4.44408 2.11571 0
M  V30 2008 N 195.109 -0.891671 -1.2995 0
M  V30 2009 C 196.356 -0.513501 -1.95881 0
M  V30 2010 C 196.684 0.938655 -1.70351 0
M  V30 2011 O 195.939 1.67936 -1.00478 0
M  V30 2012 C 196.238 -0.742868 -3.49594 0
M  V30 2013 C 195.904 -2.17114 -3.95186 0
M  V30 2014 C 194.566 -2.56169 -4.07346 0
M  V30 2015 C 196.918 -3.10162 -4.18866 0
M  V30 2016 C 194.246 -3.87469 -4.4055 0
M  V30 2017 C 196.598 -4.41001 -4.53542 0
M  V30 2018 C 195.262 -4.79941 -4.63911 0
M  V30 2019 H 194.532 -0.187903 -0.71678 0
M  V30 2020 H 197.179 -1.1288 -1.54694 0
M  V30 2021 H 195.484 -0.044586 -3.91775 0
M  V30 2022 H 197.181 -0.429767 -3.9869 0
M  V30 2023 H 193.771 -1.85801 -3.86233 0
M  V30 2024 H 197.955 -2.81206 -4.08946 0
M  V30 2025 H 193.211 -4.17371 -4.46779 0
M  V30 2026 H 197.385 -5.13133 -4.70815 0
M  V30 2027 H 195.012 -5.81719 -4.89395 0
M  V30 2028 N 196.587 1.43421 -0.653314 0
M  V30 2029 C 197.517 2.33487 0.0246656 0
M  V30 2030 C 198.498 1.49475 0.811863 0
M  V30 2031 O 199.683 1.78139 0.773322 0
M  V30 2032 C 196.813 3.32841 0.99166 0
M  V30 2033 C 195.767 4.26842 0.314568 0
M  V30 2034 C 195.093 5.16236 1.39302 0
M  V30 2035 C 196.393 5.16243 -0.793095 0
M  V30 2036 H 198.087 2.90427 -0.727481 0
M  V30 2037 H 195.633 1.39649 -0.351287 0
M  V30 2038 H 197.586 3.94747 1.47487 0
M  V30 2039 H 196.31 2.74158 1.77497 0
M  V30 2040 H 194.969 3.663 -0.148199 0
M  V30 2041 H 194.617 4.53891 2.16776 0
M  V30 2042 H 194.317 5.79948 0.945223 0
M  V30 2043 H 195.841 5.81015 1.87759 0
M  V30 2044 H 197.255 5.71958 -0.392039 0
M  V30 2045 H 195.652 5.88676 -1.16536 0
M  V30 2046 H 196.722 4.55927 -1.65103 0
M  V30 2047 N 198.065 0.39524 1.52563 0
M  V30 2048 C 199.012 -0.437036 2.26624 0
M  V30 2049 C 199.982 -1.05281 1.28472 0
M  V30 2050 O 201.167 -1.07971 1.57311 0
M  V30 2051 C 198.307 -1.55524 3.08069 0
M  V30 2052 C 197.42 -0.961745 4.21158 0
M  V30 2053 C 196.555 -2.05149 4.89987 0
M  V30 2054 C 195.594 -1.4342 5.95061 0
M  V30 2055 N 194.731 -2.46351 6.57462 0
M  V30 2056 H 199.571 0.200976 2.97322 0
M  V30 2057 H 197.108 0.110944 1.46681 0
M  V30 2058 H 199.066 -2.21437 3.53584 0
M  V30 2059 H 197.696 -2.16348 2.3957 0
M  V30 2060 H 196.748 -0.192048 3.79915 0
M  V30 2061 H 198.06 -0.470701 4.96574 0
M  V30 2062 H 197.214 -2.78819 5.38837 0
M  V30 2063 H 195.953 -2.57615 4.14109 0
M  V30 2064 H 194.958 -0.682774 5.45544 0
M  V30 2065 H 196.183 -0.917416 6.72875 0
M  V30 2066 H 194.129 -2.97975 5.8442 0
M  V30 2067 H 194.046 -2.02019 7.28508 0
M  V30 2068 H 195.314 -3.19633 7.10954 0
M  V30 2069 N 199.544 -1.57102 0.125237 0
M  V30 2070 C 200.491 -2.15641 -0.822655 0
M  V30 2071 C 201.461 -1.08313 -1.25927 0
M  V30 2072 O 202.646 -1.36251 -1.33567 0
M  V30 2073 C 199.786 -2.76504 -2.06494 0
M  V30 2074 C 198.899 -3.98158 -1.67612 0
M  V30 2075 C 198.034 -4.47088 -2.86854 0
M  V30 2076 C 197.073 -5.6126 -2.44242 0
M  V30 2077 N 196.21 -6.04905 -3.56419 0
M  V30 2078 H 201.05 -2.96313 -0.316625 0
M  V30 2079 H 198.587 -1.46388 -0.144588 0
M  V30 2080 H 200.545 -3.09925 -2.79289 0
M  V30 2081 H 199.175 -1.98512 -2.54545 0
M  V30 2082 H 198.227 -3.70858 -0.846661 0
M  V30 2083 H 199.539 -4.80934 -1.32301 0
M  V30 2084 H 198.693 -4.82451 -3.67867 0
M  V30 2085 H 197.432 -3.63275 -3.25396 0
M  V30 2086 H 196.437 -5.25495 -1.61663 0
M  V30 2087 H 197.662 -6.46843 -2.0681 0
M  V30 2088 H 195.608 -5.24032 -3.94623 0
M  V30 2089 H 195.525 -6.82552 -3.25051 0
M  V30 2090 H 196.793 -6.44907 -4.37853 0
M  V30 2091 N 201.022 0.148545 -1.56898 0
M  V30 2092 C 201.955 1.21293 -1.93296 0
M  V30 2093 C 202.933 1.41637 -0.798599 0
M  V30 2094 O 204.117 1.56275 -1.05406 0
M  V30 2095 C 201.244 2.5721 -2.20365 0
M  V30 2096 C 200.29 2.53469 -3.4301 0
M  V30 2097 S 201.123 2.00315 -4.96623 0
M  V30 2098 C 202.279 3.37964 -5.26812 0
M  V30 2099 H 202.512 0.902393 -2.83274 0
M  V30 2100 H 200.045 0.354094 -1.50285 0
M  V30 2101 H 202.003 3.35427 -2.36641 0
M  V30 2102 H 200.664 2.85454 -1.31054 0
M  V30 2103 H 199.857 3.53518 -3.59223 0
M  V30 2104 H 199.459 1.83359 -3.25968 0
M  V30 2105 H 201.751 4.34066 -5.20185 0
M  V30 2106 H 202.694 3.26606 -6.28279 0
M  V30 2107 H 203.102 3.35028 -4.54331 0
M  V30 2108 N 202.5 1.5196 0.417844 0
M  V30 2109 C 203.41 1.77554 1.53336 0
M  V30 2110 C 204.426 0.660655 1.6097 0
M  V30 2111 O 205.602 0.945099 1.77848 0
M  V30 2112 C 202.667 1.91291 2.89152 0
M  V30 2113 C 201.728 3.15183 2.91475 0
M  V30 2114 C 200.961 3.28256 4.20813 0
M  V30 2115 O 201.184 2.46798 5.14244 0
M  V30 2116 O 200.118 4.21356 4.29817 0
M  V30 2117 H 203.944 2.7222 1.34647 0
M  V30 2118 H 201.529 1.36698 0.602828 0
M  V30 2119 H 203.411 2.02199 3.69721 0
M  V30 2120 H 202.086 0.998129 3.07927 0
M  V30 2121 H 200.993 3.09739 2.09791 0
M  V30 2122 H 202.326 4.06414 2.77648 0
M  V30 2123 N 203.978 -0.674533 1.42435 0
M  V30 2124 C 205.203 -1.46784 1.46524 0
M  V30 2125 C 205.628 -1.87938 0.078066 0
M  V30 2126 O 204.986 -1.56014 -0.92354 0
M  V30 2127 C 205.034 -2.69307 2.39805 0
M  V30 2128 O 204.138 -3.67587 1.86959 0
M  V30 2129 H 203.479 -0.440959 0.496439 0
M  V30 2130 H 206.009 -0.827326 1.87127 0
M  V30 2131 H 206.019 -3.17374 2.56393 0
M  V30 2132 H 204.694 -2.38692 3.40586 0
M  V30 2133 H 203.271 -3.2662 1.79927 0
M  V30 2134 N 205.456 -1.28612 -0.910864 0
M  V30 2135 C 206.872 -1.06381 -1.18976 0
M  V30 2136 C 207.072 0.191998 -2.00583 0
M  V30 2137 O 206.128 0.892869 -2.36187 0
M  V30 2138 C 207.441 -2.31295 -1.92154 0
M  V30 2139 C 208.989 -2.36503 -2.05025 0
M  V30 2140 C 209.464 -3.61191 -2.81612 0
M  V30 2141 N 210.955 -3.61847 -2.89172 0
M  V30 2142 C 211.69 -4.55004 -3.4894 0
M  V30 2143 N 211.186 -5.58482 -4.09963 0
M  V30 2144 N 212.979 -4.42594 -3.46506 0
M  V30 2145 H 205.13 -2.09221 -0.366094 0
M  V30 2146 H 207.393 -0.921003 -0.224629 0
M  V30 2147 H 207.099 -3.228 -1.39618 0
M  V30 2148 H 206.973 -2.37934 -2.9269 0
M  V30 2149 H 209.36 -1.45494 -2.5674 0
M  V30 2150 H 209.441 -2.33857 -1.03657 0
M  V30 2151 H 209.085 -4.52545 -2.30576 0
M  V30 2152 H 209.015 -3.61092 -3.83302 0
M  V30 2153 H 211.506 -2.87022 -2.45819 0
M  V30 2154 H 211.819 -6.25704 -4.53557 0
M  V30 2155 H 210.164 -5.62305 -4.08459 0
M  V30 2156 H 213.355 -3.60953 -2.98045 0
M  V30 2157 H 213.528 -5.15381 -3.92793 0
M  V30 2158 N 206.934 1.1197 -1.10907 0
M  V30 2159 C 208.182 1.83225 -0.852819 0
M  V30 2160 C 208.503 1.84769 0.623341 0
M  V30 2161 O 207.773 1.3143 1.45269 0
M  V30 2162 H 206.353 0.67849 -0.312507 0
M  V30 2163 H 209.015 1.3556 -1.40033 0
M  V30 2164 H 208.111 2.87265 -1.22005 0
M  V30 2165 N 208.412 0.89855 1.29475 0
M  V30 2166 C 209.823 0.572537 1.77705 0
M  V30 2167 C 210.174 -0.911778 1.73727 0
M  V30 2168 O 209.299 -1.71288 1.32247 0
M  V30 2169 C 209.894 1.03252 3.22683 0
M  V30 2170 C 208.453 0.757687 3.68695 0
M  V30 2171 C 207.6 1.20787 2.49612 0
M  V30 2172 H 210.551 1.08139 1.16153 0
M  V30 2173 H 210.572 0.367307 3.78723 0
M  V30 2174 H 210.084 2.11285 3.25546 0
M  V30 2175 H 208.185 -0.310079 3.71308 0
M  V30 2176 H 208.298 1.35476 4.59547 0
M  V30 2177 H 206.662 0.626888 2.46865 0
M  V30 2178 H 207.445 2.29622 2.55203 0
M  V30 2179 N 209.89 -1.43072 0.660911 0
M  V30 2180 C 210.82 -2.33497 -0.0122829 0
M  V30 2181 C 211.801 -1.49903 -0.803925 0
M  V30 2182 O 212.986 -1.78546 -0.763864 0
M  V30 2183 C 210.116 -3.33363 -0.973994 0
M  V30 2184 C 209.07 -4.27003 -0.291928 0
M  V30 2185 C 208.396 -5.16967 -1.36562 0
M  V30 2186 C 209.696 -5.15816 0.820462 0
M  V30 2187 H 211.39 -2.90038 0.742873 0
M  V30 2188 H 208.936 -1.39461 0.358688 0
M  V30 2189 H 210.889 -3.95524 -1.45392 0
M  V30 2190 H 209.613 -2.75095 -1.7604 0
M  V30 2191 H 208.272 -3.66217 0.167623 0
M  V30 2192 H 207.92 -4.55034 -2.14366 0
M  V30 2193 H 207.62 -5.80441 -0.914454 0
M  V30 2194 H 209.144 -5.82003 -1.84675 0
M  V30 2195 H 210.558 -5.71742 0.422366 0
M  V30 2196 H 208.955 -5.8805 1.19656 0
M  V30 2197 H 210.025 -4.55045 1.67518 0
M  V30 2198 N 211.368 -0.403325 -1.52352 0
M  V30 2199 C 212.593 0.176499 -2.06648 0
M  V30 2200 C 213.018 1.38577 -1.27193 0
M  V30 2201 O 212.376 1.7879 -0.300637 0
M  V30 2202 C 212.424 0.511061 -3.5696 0
M  V30 2203 O 211.528 1.60294 -3.79973 0
M  V30 2204 H 210.869 0.0167337 -0.663789 0
M  V30 2205 H 213.399 -0.574848 -1.96359 0
M  V30 2206 H 213.409 0.771362 -4.00642 0
M  V30 2207 H 212.084 -0.37296 -4.14224 0
M  V30 2208 H 210.661 1.33526 -3.48174 0
M  V30 2209 N 212.846 1.57033 -0.133567 0
M  V30 2210 C 214.086 1.97575 0.523789 0
M  V30 2211 C 214.45 1.01605 1.62912 0
M  V30 2212 O 215.651 1.3114 2.3464 0
M  V30 2213 C 213.922 3.42256 1.02935 0
M  V30 2214 S 215.481 4.04817 1.69319 0
M  V30 2215 H 212.299 0.690427 0.169799 0
M  V30 2216 H 214.901 1.94234 -0.222101 0
M  V30 2217 H 213.605 4.09842 0.213917 0
M  V30 2218 H 213.136 3.4928 1.81017 0
M  V30 2219 H 215.151 3.96767 2.97977 0
M  V30 2220 N 214.325 -0.140222 1.56975 0
M  V30 2221 C 215.602 -0.880769 1.74648 0
M  V30 2222 C 215.982 -1.99036 0.703404 0
M  V30 2223 O 215.33 -2.26821 -0.27648 0
M  V30 2224 C 215.54 -1.417 3.18939 0
M  V30 2225 C 216.888 -1.87774 3.80823 0
M  V30 2226 O 217.912 -1.51427 3.2241 0
M  V30 2227 O 216.771 -2.54827 4.83452 0
M  V30 2228 H 213.865 -0.416713 0.714338 0
M  V30 2229 H 216.411 -0.125618 1.69234 0
M  V30 2230 H 215.183 -0.619902 3.86359 0
M  V30 2231 H 214.806 -2.23546 3.28805 0
M  V30 2232 N 215.803 -1.52179 -0.40978 0
M  V30 2233 C 217.031 -1.70054 -1.17853 0
M  V30 2234 C 217.446 -0.409735 -1.843 0
M  V30 2235 O 216.803 0.614183 -1.71855 0
M  V30 2236 C 216.854 -2.83568 -2.24213 0
M  V30 2237 O 216.575 -4.0765 -1.60478 0
M  V30 2238 C 218.076 -3.12947 -3.13973 0
M  V30 2239 H 215.296 -0.569917 -0.354169 0
M  V30 2240 H 217.84 -1.98734 -0.482198 0
M  V30 2241 H 215.995 -2.57409 -2.89516 0
M  V30 2242 H 216.409 -4.70899 -2.30986 0
M  V30 2243 H 217.883 -3.95889 -3.84677 0
M  V30 2244 H 218.36 -2.26472 -3.76307 0
M  V30 2245 H 218.966 -3.40868 -2.5434 0
M  V30 2246 N 217.281 0.66697 -1.42791 0
M  V30 2247 C 218.527 1.4291 -1.43891 0
M  V30 2248 C 218.86 1.94114 -0.0578972 0
M  V30 2249 O 218.135 1.71414 0.91911 0
M  V30 2250 C 218.418 2.62049 -2.46987 0
M  V30 2251 C 218.271 2.16426 -3.94309 0
M  V30 2252 C 219.59 3.64266 -2.46978 0
M  V30 2253 H 216.709 0.518306 -0.523954 0
M  V30 2254 H 219.351 0.757321 -1.74255 0
M  V30 2255 H 217.501 3.19361 -2.21225 0
M  V30 2256 H 219.173 1.64221 -4.31079 0
M  V30 2257 H 217.416 1.47925 -4.078 0
M  V30 2258 H 218.087 3.02038 -4.62036 0
M  V30 2259 H 220.563 3.16686 -2.69906 0
M  V30 2260 H 219.439 4.45196 -3.21079 0
M  V30 2261 H 219.7 4.15927 -1.49857 0
M  V30 2262 N 218.759 1.29093 0.90403 0
M  V30 2263 C 219.689 1.16401 2.02418 0
M  V30 2264 C 220.67 0.0593085 1.69997 0
M  V30 2265 O 221.855 0.238021 1.92736 0
M  V30 2266 C 218.985 0.835233 3.37107 0
M  V30 2267 C 217.939 1.89578 3.83724 0
M  V30 2268 C 217.265 1.42041 5.15489 0
M  V30 2269 C 218.565 3.30394 4.04521 0
M  V30 2270 H 220.259 2.10109 2.13295 0
M  V30 2271 H 217.805 1.01157 1.02486 0
M  V30 2272 H 219.758 0.733169 4.14973 0
M  V30 2273 H 218.482 -0.137543 3.2631 0
M  V30 2274 H 217.141 1.98715 3.08071 0
M  V30 2275 H 216.789 0.436426 5.01103 0
M  V30 2276 H 216.489 2.12964 5.4765 0
M  V30 2277 H 218.013 1.33176 5.959 0
M  V30 2278 H 219.427 3.24123 4.72882 0
M  V30 2279 H 217.824 3.99237 4.48029 0
M  V30 2280 H 218.894 3.73692 3.09002 0
M  V30 2281 N 220.237 -1.11381 1.11499 0
M  V30 2282 C 221.184 -2.17439 0.773887 0
M  V30 2283 C 222.154 -1.64132 -0.254899 0
M  V30 2284 O 223.339 -1.90345 -0.13168 0
M  V30 2285 C 220.479 -3.44373 0.223917 0
M  V30 2286 C 219.592 -4.1168 1.30934 0
M  V30 2287 C 218.727 -5.263 0.71984 0
M  V30 2288 C 217.766 -5.85493 1.78507 0
M  V30 2289 N 216.903 -6.91507 1.21502 0
M  V30 2290 H 221.743 -2.45962 1.68246 0
M  V30 2291 H 219.28 -1.20744 0.840191 0
M  V30 2292 H 221.238 -4.17047 -0.112921 0
M  V30 2293 H 219.868 -3.16232 -0.647851 0
M  V30 2294 H 218.92 -3.37073 1.76312 0
M  V30 2295 H 220.232 -4.51729 2.11524 0
M  V30 2296 H 219.386 -6.05785 0.333094 0
M  V30 2297 H 218.125 -4.87559 -0.117377 0
M  V30 2298 H 217.13 -5.04686 2.18111 0
M  V30 2299 H 218.355 -6.26301 2.62533 0
M  V30 2300 H 216.301 -6.54783 0.399455 0
M  V30 2301 H 216.218 -7.30214 1.95763 0
M  V30 2302 H 217.486 -7.74795 0.855181 0
M  V30 2303 N 221.715 -0.905404 -1.28997 0
M  V30 2304 C 222.964 -0.530191 -1.94607 0
M  V30 2305 C 223.277 0.929185 -1.72121 0
M  V30 2306 O 224.483 1.41218 -2.31883 0
M  V30 2307 C 222.939 -0.897333 -3.48534 0
M  V30 2308 C 222.547 -2.37587 -3.79811 0
M  V30 2309 C 224.291 -0.592304 -4.20347 0
M  V30 2310 C 222.198 -2.68357 -5.27009 0
M  V30 2311 H 221.128 -0.194558 -0.728466 0
M  V30 2312 H 223.779 -1.10318 -1.46636 0
M  V30 2313 H 222.161 -0.253214 -3.9519 0
M  V30 2314 H 223.335 -3.06602 -3.43994 0
M  V30 2315 H 221.65 -2.6505 -3.2115 0
M  V30 2316 H 224.247 -0.798975 -5.28697 0
M  V30 2317 H 224.59 0.469474 -4.13644 0
M  V30 2318 H 225.123 -1.19452 -3.79442 0
M  V30 2319 H 221.862 -3.73355 -5.38782 0
M  V30 2320 H 221.382 -2.03971 -5.64053 0
M  V30 2321 H 223.061 -2.54922 -5.94663 0
M  V30 2322 N 223.193 1.4272 -0.668489 0
M  V30 2323 C 224.44 2.01624 -0.18814 0
M  V30 2324 C 224.768 1.5282 1.20317 0
M  V30 2325 O 224.023 0.718323 1.8204 0
M  V30 2326 C 224.322 3.57021 -0.164499 0
M  V30 2327 C 223.988 4.25232 -1.49962 0
M  V30 2328 C 222.65 4.4358 -1.8652 0
M  V30 2329 C 225.002 4.63727 -2.37921 0
M  V30 2330 C 222.33 4.97694 -3.10674 0
M  V30 2331 C 224.682 5.19218 -3.6138 0
M  V30 2332 C 223.346 5.3578 -3.98115 0
M  V30 2333 H 222.616 0.737795 -0.0688454 0
M  V30 2334 H 225.263 1.70991 -0.862225 0
M  V30 2335 H 223.568 3.87285 0.593079 0
M  V30 2336 H 225.265 4.00372 0.224271 0
M  V30 2337 H 221.855 4.11306 -1.20522 0
M  V30 2338 H 226.039 4.4923 -2.10964 0
M  V30 2339 H 221.295 5.08702 -3.39164 0
M  V30 2340 H 225.469 5.4799 -4.29743 0
M  V30 2341 H 223.096 5.77475 -4.94395 0
M  V30 2342 N 224.671 0.411399 1.52136 0
M  V30 2343 C 225.901 -0.16284 2.05957 0
M  V30 2344 C 226.309 -1.3922 1.28119 0
M  V30 2345 O 225.652 -1.80768 0.326881 0
M  V30 2346 C 225.714 -0.575946 3.54856 0
M  V30 2347 C 225.378 0.542998 4.53763 0
M  V30 2348 C 226.375 1.40726 5.00492 0
M  V30 2349 C 224.06 0.716337 4.97166 0
M  V30 2350 C 226.054 2.4298 5.8927 0
M  V30 2351 C 223.741 1.74218 5.8574 0
M  V30 2352 C 224.739 2.59731 6.31687 0
M  V30 2353 O 224.427 3.60558 7.18507 0
M  V30 2354 H 224.159 -0.0229125 0.675612 0
M  V30 2355 H 226.713 0.581634 1.96993 0
M  V30 2356 H 224.943 -1.37274 3.61515 0
M  V30 2357 H 226.632 -1.07836 3.91313 0
M  V30 2358 H 227.398 1.28476 4.67674 0
M  V30 2359 H 223.277 0.0603857 4.6096 0
M  V30 2360 H 226.821 3.0976 6.25055 0
M  V30 2361 H 222.718 1.86498 6.17971 0
M  V30 2362 H 223.486 3.56829 7.36624 0
M  V30 2363 N 226.149 -1.5696 0.141893 0
M  V30 2364 C 227.081 -2.13619 -0.830627 0
M  V30 2365 C 228.094 -1.08439 -1.21428 0
M  V30 2366 O 229.283 -1.35734 -1.15925 0
M  V30 2367 C 226.383 -2.63978 -2.12529 0
M  V30 2368 C 225.556 -3.93504 -1.9098 0
M  V30 2369 C 224.615 -4.29225 -3.04388 0
M  V30 2370 O 223.641 -4.97641 -2.76302 0
M  V30 2371 N 224.843 -3.88393 -4.31429 0
M  V30 2372 H 227.608 -2.97691 -0.34641 0
M  V30 2373 H 225.169 -1.61846 -0.0418375 0
M  V30 2374 H 227.161 -2.84891 -2.87436 0
M  V30 2375 H 225.731 -1.84659 -2.52229 0
M  V30 2376 H 224.951 -3.81269 -1.00139 0
M  V30 2377 H 226.239 -4.78154 -1.73914 0
M  V30 2378 H 225.637 -3.33257 -4.57117 0
M  V30 2379 H 224.194 -4.14368 -5.03133 0
M  V30 2380 N 227.627 0.131896 -1.57047 0
M  V30 2381 C 228.855 0.856461 -1.88341 0
M  V30 2382 C 229.27 1.74042 -0.731757 0
M  V30 2383 O 228.627 1.80051 0.297945 0
M  V30 2384 C 228.678 1.70064 -3.18999 0
M  V30 2385 O 228.399 0.852278 -4.2973 0
M  V30 2386 C 229.9 2.53148 -3.63911 0
M  V30 2387 H 227.12 0.246885 -0.62393 0
M  V30 2388 H 229.664 0.120152 -2.04147 0
M  V30 2389 H 227.819 2.38984 -3.04902 0
M  V30 2390 H 228.233 1.43329 -5.04537 0
M  V30 2391 H 229.707 3.07931 -4.58129 0
M  V30 2392 H 230.184 3.29901 -2.89935 0
M  V30 2393 H 230.79 1.89492 -3.80753 0
M  V30 2394 N 229.106 1.52395 0.401703 0
M  V30 2395 C 230.346 1.68498 1.15705 0
M  V30 2396 C 230.71 0.409748 1.87577 0
M  V30 2397 O 231.911 0.446983 2.65058 0
M  V30 2398 C 230.182 2.87789 2.11924 0
M  V30 2399 S 231.741 3.24415 2.95466 0
M  V30 2400 H 228.559 0.593267 0.391862 0
M  V30 2401 H 231.161 1.90408 0.443282 0
M  V30 2402 H 229.865 3.7884 1.57824 0
M  V30 2403 H 229.396 2.68175 2.87829 0
M  V30 2404 H 231.411 2.73614 4.13944 0
M  V30 2405 N 230.584 -0.659388 1.43143 0
M  V30 2406 C 232 -0.974337 1.26407 0
M  V30 2407 C 232.2 -2.007 0.179341 0
M  V30 2408 O 231.256 -2.4856 -0.444295 0
M  V30 2409 C 232.569 -1.46447 2.62628 0
M  V30 2410 C 234.117 -1.58144 2.7011 0
M  V30 2411 C 234.592 -2.1055 4.06734 0
M  V30 2412 N 236.083 -2.17861 4.08767 0
M  V30 2413 C 236.818 -2.59519 5.1131 0
M  V30 2414 N 236.314 -3.00518 6.24228 0
M  V30 2415 N 238.107 -2.59404 4.98664 0
M  V30 2416 H 230.258 0.0240528 2.12386 0
M  V30 2417 H 232.521 -0.0518065 0.946583 0
M  V30 2418 H 232.227 -0.780123 3.42939 0
M  V30 2419 H 232.101 -2.44058 2.87603 0
M  V30 2420 H 234.488 -2.25682 1.90136 0
M  V30 2421 H 234.569 -0.589828 2.48907 0
M  V30 2422 H 234.213 -1.43616 4.87172 0
M  V30 2423 H 234.143 -3.10531 4.25298 0
M  V30 2424 H 236.634 -1.88975 3.27257 0
M  V30 2425 H 236.947 -3.31036 6.98309 0
M  V30 2426 H 235.292 -2.98337 6.2771 0
M  V30 2427 H 238.483 -2.26747 4.09516 0
M  V30 2428 H 238.656 -2.91548 5.78709 0
M  V30 2429 N 232.062 -1.29571 -0.897171 0
M  V30 2430 C 233.025 -1.14913 -1.98312 0
M  V30 2431 C 234.025 -0.0838629 -1.60581 0
M  V30 2432 O 235.215 -0.331006 -1.71026 0
M  V30 2433 C 232.347 -0.757835 -3.3237 0
M  V30 2434 H 233.54 -2.11377 -2.12743 0
M  V30 2435 H 231.093 -1.12793 -1.08201 0
M  V30 2436 H 231.828 0.206837 -3.2364 0
M  V30 2437 H 231.613 -1.52755 -3.61121 0
M  V30 2438 H 233.103 -0.678408 -4.12053 0
M  V30 2439 N 233.54 1.10788 -1.12088 0
M  V30 2440 C 234.786 1.82942 -0.875226 0
M  V30 2441 C 235.119 1.84779 0.597538 0
M  V30 2442 O 234.394 1.30578 1.44152 0
M  V30 2443 C 234.677 3.29789 -1.44606 0
M  V30 2444 C 234.53 3.36307 -2.98693 0
M  V30 2445 C 235.849 4.26064 -1.10261 0
M  V30 2446 H 232.968 0.664195 -0.319397 0
M  V30 2447 H 235.61 1.29867 -1.38689 0
M  V30 2448 H 233.76 3.75118 -1.01089 0
M  V30 2449 H 235.432 2.99487 -3.50864 0
M  V30 2450 H 233.675 2.76318 -3.34411 0
M  V30 2451 H 234.346 4.39694 -3.33726 0
M  V30 2452 H 236.822 3.88951 -1.4784 0
M  V30 2453 H 235.698 5.27183 -1.52869 0
M  V30 2454 H 235.959 4.42098 -0.0142953 0
M  V30 2455 N 235.018 0.912232 1.28515 0
M  V30 2456 C 235.95 0.35676 2.26406 0
M  V30 2457 C 236.963 -0.503933 1.54804 0
M  V30 2458 O 238.152 -0.319059 1.75625 0
M  V30 2459 C 235.252 -0.508825 3.35058 0
M  V30 2460 C 234.425 0.329007 4.36161 0
M  V30 2461 C 233.484 -0.471422 5.24084 0
M  V30 2462 O 232.51 0.115482 5.69083 0
M  V30 2463 N 233.712 -1.77479 5.52704 0
M  V30 2464 H 236.477 1.19818 2.74707 0
M  V30 2465 H 234.038 0.778022 1.4198 0
M  V30 2466 H 236.03 -1.051 3.90815 0
M  V30 2467 H 234.6 -1.25095 2.86478 0
M  V30 2468 H 233.82 1.05256 3.79888 0
M  V30 2469 H 235.108 0.90234 5.00735 0
M  V30 2470 H 234.506 -2.27417 5.17975 0
M  V30 2471 H 233.063 -2.26382 6.11224 0
M  V30 2472 N 236.496 -1.42363 0.676048 0
M  V30 2473 C 237.446 -2.27987 -0.0242903 0
M  V30 2474 C 238.43 -1.41153 -0.772319 0
M  V30 2475 O 239.622 -1.64592 -0.651025 0
M  V30 2476 C 236.751 -3.29195 -0.973953 0
M  V30 2477 C 235.837 -4.23512 -0.223202 0
M  V30 2478 N 236.228 -4.99865 0.772589 0
M  V30 2479 C 234.526 -4.43606 -0.461469 0
M  V30 2480 C 235.227 -5.68757 1.22027 0
M  V30 2481 N 234.203 -5.40811 0.549975 0
M  V30 2482 H 238.005 -2.84445 0.73949 0
M  V30 2483 H 235.519 -1.54341 0.50522 0
M  V30 2484 H 237.516 -3.89339 -1.49067 0
M  V30 2485 H 236.176 -2.74298 -1.73755 0
M  V30 2486 H 237.187 -5.04921 1.15217 0
M  V30 2487 H 233.864 -3.99749 -1.20446 0
M  V30 2488 H 235.254 -6.40007 2.0455 0
M  V30 2489 N 237.974 -0.419461 -1.51915 0
M  V30 2490 C 238.907 0.445751 -2.23804 0
M  V30 2491 C 239.885 1.03951 -1.25031 0
M  V30 2492 O 241.069 1.08541 -1.54114 0
M  V30 2493 C 238.196 1.61964 -2.97465 0
M  V30 2494 C 237.242 1.14828 -4.10751 0
M  V30 2495 S 238.075 0.104938 -5.35397 0
M  V30 2496 C 239.231 1.28391 -6.1259 0
M  V30 2497 H 239.464 -0.164627 -2.96844 0
M  V30 2498 H 236.997 -0.203833 -1.53049 0
M  V30 2499 H 238.955 2.29271 -3.40507 0
M  V30 2500 H 237.616 2.20139 -2.24048 0
M  V30 2501 H 236.809 2.02561 -4.61503 0
M  V30 2502 H 236.411 0.553712 -3.69878 0
M  V30 2503 H 238.703 2.20563 -6.40592 0
M  V30 2504 H 239.646 0.816724 -7.03374 0
M  V30 2505 H 240.054 1.51439 -5.43807 0
M  V30 2506 N 239.452 1.56882 -0.150215 0
M  V30 2507 C 240.402 2.13501 0.800071 0
M  V30 2508 C 241.386 1.06368 1.20726 0
M  V30 2509 O 242.578 1.32538 1.17314 0
M  V30 2510 C 239.707 2.76271 2.03787 0
M  V30 2511 C 238.793 3.90533 1.65364 0
M  V30 2512 N 239.184 4.96259 0.977794 0
M  V30 2513 C 237.482 4.013 1.94613 0
M  V30 2514 C 238.183 5.76286 0.791794 0
M  V30 2515 N 237.159 5.27163 1.32666 0
M  V30 2516 H 240.961 2.92615 0.274517 0
M  V30 2517 H 238.475 1.62319 0.0512144 0
M  V30 2518 H 240.472 3.15197 2.72867 0
M  V30 2519 H 239.132 1.98631 2.56857 0
M  V30 2520 H 240.143 5.13953 0.638193 0
M  V30 2521 H 236.82 3.3474 2.4951 0
M  V30 2522 H 238.21 6.71401 0.258894 0
M  V30 2523 N 240.93 -0.123565 1.57115 0
M  V30 2524 C 242.346 -0.476961 1.52306 0
M  V30 2525 C 242.546 -1.82109 0.86248 0
M  V30 2526 O 241.602 -2.48586 0.442884 0
M  V30 2527 C 242.915 -0.465661 2.97073 0
M  V30 2528 C 244.463 -0.549534 3.08138 0
M  V30 2529 C 244.938 -0.568669 4.54456 0
M  V30 2530 N 246.429 -0.630237 4.58892 0
M  V30 2531 C 247.164 -0.666415 5.69514 0
M  V30 2532 N 246.66 -0.660514 6.89644 0
M  V30 2533 N 248.453 -0.709077 5.5761 0
M  V30 2534 H 240.604 0.757198 1.98445 0
M  V30 2535 H 242.867 0.278808 0.906074 0
M  V30 2536 H 242.573 0.454232 3.48754 0
M  V30 2537 H 242.447 -1.29513 3.54269 0
M  V30 2538 H 244.834 -1.45985 2.56461 0
M  V30 2539 H 244.915 0.307532 2.53945 0
M  V30 2540 H 244.559 0.337581 5.06777 0
M  V30 2541 H 244.489 -1.44256 5.06456 0
M  V30 2542 H 246.98 -0.641146 3.72421 0
M  V30 2543 H 247.293 -0.690616 7.69708 0
M  V30 2544 H 245.638 -0.628012 6.92157 0
M  V30 2545 H 248.829 -0.711019 4.62668 0
M  V30 2546 H 249.002 -0.733804 6.43832 0
M  V30 2547 N 242.408 -1.52605 -0.393616 0
M  V30 2548 C 243.34 -1.73303 -1.49995 0
M  V30 2549 C 244.353 -0.613473 -1.50799 0
M  V30 2550 O 245.542 -0.889049 -1.54784 0
M  V30 2551 C 242.642 -1.77245 -2.88855 0
M  V30 2552 C 241.815 -3.06483 -3.12069 0
M  V30 2553 C 240.874 -3.02033 -4.30886 0
M  V30 2554 O 239.9 -3.75907 -4.27414 0
M  V30 2555 N 241.102 -2.20897 -5.36828 0
M  V30 2556 H 243.867 -2.68756 -1.32629 0
M  V30 2557 H 241.428 -1.51036 -0.583083 0
M  V30 2558 H 243.42 -1.7178 -3.66434 0
M  V30 2559 H 241.99 -0.891993 -2.99603 0
M  V30 2560 H 241.21 -3.25474 -2.22396 0
M  V30 2561 H 242.498 -3.91947 -3.2443 0
M  V30 2562 H 241.896 -1.60336 -5.42502 0
M  V30 2563 H 240.453 -2.21275 -6.13091 0
M  V30 2564 N 243.887 0.651787 -1.4349 0
M  V30 2565 C 244.834 1.76462 -1.4876 0
M  V30 2566 C 245.804 1.62641 -0.337189 0
M  V30 2567 O 246.989 1.82864 -0.544544 0
M  V30 2568 C 244.129 3.14623 -1.41796 0
M  V30 2569 C 243.242 3.39568 -2.67053 0
M  V30 2570 C 242.377 4.67585 -2.52068 0
M  V30 2571 C 241.416 4.85639 -3.72587 0
M  V30 2572 N 240.553 6.04915 -3.56402 0
M  V30 2573 H 245.393 1.71293 -2.43849 0
M  V30 2574 H 242.93 0.835889 -1.21043 0
M  V30 2575 H 244.888 3.94496 -1.35753 0
M  V30 2576 H 243.518 3.18859 -0.50288 0
M  V30 2577 H 242.57 2.53783 -2.8337 0
M  V30 2578 H 243.882 3.48795 -3.56572 0
M  V30 2579 H 243.036 5.55586 -2.4374 0
M  V30 2580 H 241.775 4.60681 -1.60075 0
M  V30 2581 H 240.78 3.96073 -3.81321 0
M  V30 2582 H 242.005 4.94372 -4.65589 0
M  V30 2583 H 239.951 5.9914 -2.67146 0
M  V30 2584 H 239.868 6.15106 -4.39524 0
M  V30 2585 H 241.136 6.95533 -3.51929 0
M  V30 2586 N 245.365 1.30045 0.890287 0
M  V30 2587 C 246.776 1.16738 1.45702 0
M  V30 2588 C 247.127 -0.233939 1.948 0
M  V30 2589 O 246.252 -1.13021 1.84541 0
M  V30 2590 C 246.847 2.11313 2.64825 0
M  V30 2591 C 245.406 2.02001 3.17604 0
M  V30 2592 C 244.553 2.01699 1.90296 0
M  V30 2593 H 247.504 1.42392 0.700726 0
M  V30 2594 H 247.525 1.69086 3.40867 0
M  V30 2595 H 247.037 3.13294 2.2906 0
M  V30 2596 H 245.138 1.03142 3.5804 0
M  V30 2597 H 245.251 2.90128 3.81264 0
M  V30 2598 H 243.615 1.46427 2.08402 0
M  V30 2599 H 244.398 3.05402 1.56795 0
M  V30 2600 N 246.843 -1.10192 1.12674 0
M  V30 2601 C 248.254 -1.63707 0.897604 0
M  V30 2602 C 248.605 -1.87812 -0.567546 0
M  V30 2603 O 247.73 -1.62196 -1.43253 0
M  V30 2604 C 248.325 -2.974 1.62292 0
M  V30 2605 C 246.884 -3.47772 1.43986 0
M  V30 2606 C 246.031 -2.22332 1.65722 0
M  V30 2607 H 248.982 -0.936587 1.28116 0
M  V30 2608 H 249.003 -3.64986 1.07541 0
M  V30 2609 H 248.515 -2.79824 2.68924 0
M  V30 2610 H 246.616 -3.70487 0.396206 0
M  V30 2611 H 246.729 -4.25723 2.19765 0
M  V30 2612 H 245.093 -2.30599 1.08149 0
M  V30 2613 H 245.876 -2.07285 2.73657 0
M  V30 2614 N 248.321 -0.919034 -1.28029 0
M  V30 2615 C 249.57 -0.550802 -1.94034 0
M  V30 2616 C 249.883 0.910877 -1.73096 0
M  V30 2617 O 251.089 1.3875 -2.33368 0
M  V30 2618 C 249.545 -0.934249 -3.47563 0
M  V30 2619 C 249.153 -2.41602 -3.7727 0
M  V30 2620 C 250.897 -0.636854 -4.19696 0
M  V30 2621 C 248.804 -2.73932 -5.24133 0
M  V30 2622 H 247.734 -0.202273 -0.726362 0
M  V30 2623 H 250.385 -1.11867 -1.45458 0
M  V30 2624 H 248.767 -0.295115 -3.94899 0
M  V30 2625 H 249.941 -3.10233 -3.40723 0
M  V30 2626 H 248.256 -2.68441 -3.18321 0
M  V30 2627 H 250.853 -0.855005 -5.2782 0
M  V30 2628 H 251.196 0.425575 -4.14119 0
M  V30 2629 H 251.729 -1.23469 -3.78154 0
M  V30 2630 H 248.468 -3.79049 -5.34792 0
M  V30 2631 H 247.988 -2.09942 -5.61858 0
M  V30 2632 H 249.667 -2.61215 -5.91925 0
M  V30 2633 N 249.799 1.42003 -0.683588 0
M  V30 2634 C 251.048 2.00638 -0.206681 0
M  V30 2635 C 251.361 1.5472 1.19671 0
M  V30 2636 O 252.567 2.05833 1.77045 0
M  V30 2637 C 251.023 3.58487 -0.318632 0
M  V30 2638 C 250.631 4.1339 -1.72663 0
M  V30 2639 C 252.375 4.24384 0.0991141 0
M  V30 2640 C 250.282 5.63633 -1.79087 0
M  V30 2641 H 249.212 0.750408 -0.0735107 0
M  V30 2642 H 251.863 1.62624 -0.850048 0
M  V30 2643 H 250.245 3.94047 0.392781 0
M  V30 2644 H 251.419 3.89273 -2.46583 0
M  V30 2645 H 249.734 3.59976 -2.09299 0
M  V30 2646 H 252.331 5.34652 0.0713833 0
M  V30 2647 H 252.674 4.00505 1.13586 0
M  V30 2648 H 253.207 3.93816 -0.561599 0
M  V30 2649 H 249.946 5.92323 -2.80774 0
M  V30 2650 H 249.466 5.89714 -1.09535 0
M  V30 2651 H 251.145 6.28201 -1.5483 0
M  V30 2652 N 251.277 0.427512 1.51691 0
M  V30 2653 C 252.227 -0.406604 2.24345 0
M  V30 2654 C 253.211 -0.998276 1.26187 0
M  V30 2655 O 254.403 -0.918045 1.51331 0
M  V30 2656 C 251.532 -1.51266 3.08177 0
M  V30 2657 C 250.618 -0.930868 4.13758 0
M  V30 2658 N 251.009 -0.0773552 5.05741 0
M  V30 2659 C 249.307 -1.19948 4.29568 0
M  V30 2660 C 250.008 0.248344 5.8117 0
M  V30 2661 N 248.984 -0.365535 5.4237 0
M  V30 2662 H 252.786 0.251581 2.92821 0
M  V30 2663 H 250.3 0.239003 1.60632 0
M  V30 2664 H 252.297 -2.123 3.58796 0
M  V30 2665 H 250.957 -2.17328 2.41244 0
M  V30 2666 H 251.968 0.288351 5.17097 0
M  V30 2667 H 248.645 -1.85832 3.73862 0
M  V30 2668 H 250.035 0.942286 6.6526 0
M  V30 2669 N 252.755 -1.56801 0.158532 0
M  V30 2670 C 254.171 -1.5837 -0.197774 0
M  V30 2671 C 254.371 -1.17334 -1.63814 0
M  V30 2672 O 253.427 -0.878988 -2.36707 0
M  V30 2673 C 254.74 -3.00615 0.0714459 0
M  V30 2674 C 256.288 -3.12999 0.00864533 0
M  V30 2675 C 256.763 -4.57313 0.250685 0
M  V30 2676 N 258.254 -4.62777 0.198014 0
M  V30 2677 C 258.989 -5.72271 0.359642 0
M  V30 2678 N 258.485 -6.90371 0.579625 0
M  V30 2679 N 260.278 -5.61318 0.296438 0
M  V30 2680 H 252.429 -1.81765 1.09887 0
M  V30 2681 H 254.692 -0.841849 0.435884 0
M  V30 2682 H 254.398 -3.35068 1.06874 0
M  V30 2683 H 254.272 -3.71683 -0.642757 0
M  V30 2684 H 256.659 -2.7838 -0.979217 0
M  V30 2685 H 256.74 -2.44393 0.755359 0
M  V30 2686 H 256.384 -4.92639 1.2357 0
M  V30 2687 H 256.314 -5.24061 -0.516489 0
M  V30 2688 H 258.805 -3.77885 0.0331115 0
M  V30 2689 H 259.118 -7.69689 0.69275 0
M  V30 2690 H 257.463 -6.92264 0.616087 0
M  V30 2691 H 260.654 -4.67932 0.125258 0
M  V30 2692 H 260.827 -6.46599 0.425831 0
M  V30 2693 N 254.233 0.115231 -1.57178 0
M  V30 2694 C 255.51 0.852873 -1.76027 0
M  V30 2695 C 255.89 1.97892 -0.73498 0
M  V30 2696 O 255.238 2.27232 0.24036 0
M  V30 2697 C 255.448 1.36608 -3.21153 0
M  V30 2698 C 256.796 1.81692 -3.83762 0
M  V30 2699 O 257.82 1.46278 -3.24779 0
M  V30 2700 O 256.679 2.47104 -4.87444 0
M  V30 2701 H 253.773 0.405296 -0.720877 0
M  V30 2702 H 256.319 0.0986785 -1.69413 0
M  V30 2703 H 255.091 0.558357 -3.87296 0
M  V30 2704 H 254.714 2.18287 -3.3232 0
M  V30 2705 N 255.711 1.52812 0.385517 0
M  V30 2706 C 256.641 1.80808 1.47752 0
M  V30 2707 C 257.622 0.660318 1.5676 0
M  V30 2708 O 258.807 0.908246 1.71652 0
M  V30 2709 C 255.937 1.98008 2.85324 0
M  V30 2710 C 254.891 3.13709 2.91154 0
M  V30 2711 C 254.217 3.16169 4.31209 0
M  V30 2712 C 255.517 4.52709 2.60483 0
M  V30 2713 H 257.211 2.72253 1.24573 0
M  V30 2714 H 254.757 1.31003 0.597839 0
M  V30 2715 H 256.71 2.16176 3.61726 0
M  V30 2716 H 255.434 1.03255 3.09848 0
M  V30 2717 H 254.093 2.95329 2.17201 0
M  V30 2718 H 253.741 2.19092 4.52778 0
M  V30 2719 H 253.441 3.93894 4.36029 0
M  V30 2720 H 254.965 3.36496 5.09512 0
M  V30 2721 H 256.379 4.71173 3.26602 0
M  V30 2722 H 254.776 5.32528 2.76648 0
M  V30 2723 H 255.846 4.59186 1.55809 0
M  V30 2724 N 257.189 -0.644168 1.43834 0
M  V30 2725 C 258.136 -1.75671 1.49694 0
M  V30 2726 C 259.106 -1.6246 0.345809 0
M  V30 2727 O 260.291 -1.82573 0.554234 0
M  V30 2728 C 257.431 -3.13867 1.43463 0
M  V30 2729 C 256.544 -3.38147 2.6885 0
M  V30 2730 C 255.679 -4.66241 2.54544 0
M  V30 2731 C 254.718 -4.83657 3.75157 0
M  V30 2732 N 253.855 -6.03016 3.59605 0
M  V30 2733 H 258.695 -1.69998 2.44754 0
M  V30 2734 H 256.232 -0.829458 1.21484 0
M  V30 2735 H 258.19 -3.9377 1.37843 0
M  V30 2736 H 256.82 -3.18588 0.519783 0
M  V30 2737 H 255.872 -2.52276 2.84712 0
M  V30 2738 H 257.184 -3.46899 3.58417 0
M  V30 2739 H 256.338 -5.54285 2.46683 0
M  V30 2740 H 255.077 -4.59826 1.62516 0
M  V30 2741 H 254.082 -3.94046 3.83416 0
M  V30 2742 H 255.307 -4.91896 4.68204 0
M  V30 2743 H 253.253 -5.97715 2.7032 0
M  V30 2744 H 253.17 -6.12766 4.42779 0
M  V30 2745 H 254.438 -6.93657 3.55613 0
M  V30 2746 N 258.668 -1.30515 -0.883378 0
M  V30 2747 C 259.914 -1.19607 -1.63774 0
M  V30 2748 C 260.247 0.248314 -1.92606 0
M  V30 2749 O 259.522 1.17742 -1.54813 0
M  V30 2750 C 259.805 -2.02669 -2.97653 0
M  V30 2751 C 259.658 -3.55335 -2.75784 0
M  V30 2752 C 260.977 -1.86573 -3.98596 0
M  V30 2753 H 258.096 -0.435856 -0.594305 0
M  V30 2754 H 260.738 -1.60165 -1.02212 0
M  V30 2755 H 258.888 -1.68208 -3.50197 0
M  V30 2756 H 260.56 -3.99863 -2.30016 0
M  V30 2757 H 258.803 -3.79438 -2.1026 0
M  V30 2758 H 259.474 -4.08745 -3.70988 0
M  V30 2759 H 261.95 -2.16703 -3.55217 0
M  V30 2760 H 260.826 -2.47014 -4.90179 0
M  V30 2761 H 261.087 -0.825321 -4.34328 0
M  V30 2762 N 260.146 1.09593 -1.13257 0
M  V30 2763 C 261.056 2.19739 -0.821691 0
M  V30 2764 C 262.072 1.72926 0.19302 0
M  V30 2765 O 263.248 2.01385 0.0244895 0
M  V30 2766 C 260.313 3.45482 -0.290333 0
M  V30 2767 C 259.374 4.06985 -1.36607 0
M  V30 2768 C 258.607 5.26726 -0.859975 0
M  V30 2769 O 258.83 5.69594 0.303082 0
M  V30 2770 O 257.764 5.7931 -1.63351 0
M  V30 2771 H 261.59 2.48781 -1.74189 0
M  V30 2772 H 259.175 1.18496 -0.909894 0
M  V30 2773 H 261.057 4.214 0.000674022 0
M  V30 2774 H 259.732 3.18047 0.602306 0
M  V30 2775 H 258.639 3.32712 -1.71037 0
M  V30 2776 H 259.972 4.38643 -2.23279 0
M  V30 2777 N 261.624 0.925811 1.2754 0
M  V30 2778 C 262.572 0.413897 2.28888 0
M  V30 2779 C 263.566 -0.500779 1.61829 0
M  V30 2780 O 264.772 -0.38069 1.75928 0
M  V30 2781 H 261.147 0.115274 0.743112 0
M  V30 2782 H 263.118 1.28151 2.69481 0
M  V30 2783 C 261.867 -0.319792 3.46226 0
M  V30 2784 H 261.19 0.374846 3.98039 0
M  V30 2785 H 262.63 -0.642435 4.19105 0
M  V30 2786 C 261.089 -1.53209 3.00048 0
M  V30 2787 O 261.619 -2.6309 3.03557 0
M  V30 2788 N 259.825 -1.38326 2.55566 0
M  V30 2789 H 259.372 -0.489292 2.5291 0
M  V30 2790 H 259.33 -2.19564 2.25031 0
M  V30 2791 N 263.102 -1.41638 0.69111 0
M  V30 2792 C 264.032 -2.3347 0.037248 0
M  V30 2793 C 265.013 -1.51575 -0.771947 0
M  V30 2794 O 266.198 -1.80126 -0.72582 0
M  V30 2795 C 263.328 -3.35354 -0.903064 0
M  V30 2796 C 262.282 -4.27526 -0.201288 0
M  V30 2797 C 261.608 -5.19747 -1.25565 0
M  V30 2798 C 262.908 -5.13959 0.929689 0
M  V30 2799 H 264.602 -2.88397 0.804227 0
M  V30 2800 H 262.148 -1.38669 0.388189 0
M  V30 2801 H 264.101 -3.98519 -1.36969 0
M  V30 2802 H 262.825 -2.78767 -1.70166 0
M  V30 2803 H 261.484 -3.65779 0.245265 0
M  V30 2804 H 261.132 -4.59479 -2.04666 0
M  V30 2805 H 260.832 -5.8225 -0.791128 0
M  V30 2806 H 262.356 -5.85789 -1.72288 0
M  V30 2807 H 263.77 -5.70718 0.543546 0
M  V30 2808 H 262.167 -5.85379 1.32103 0
M  V30 2809 H 263.237 -4.51389 1.77133 0
M  V30 2810 N 264.58 -0.43555 -1.51462 0
M  V30 2811 C 265.51 0.367376 -2.30592 0
M  V30 2812 C 266.491 1.02263 -1.35928 0
M  V30 2813 O 267.676 1.02661 -1.64847 0
M  V30 2814 C 264.806 1.46983 -3.14664 0
M  V30 2815 C 263.76 0.938161 -4.17591 0
M  V30 2816 C 263.086 2.13622 -4.90173 0
M  V30 2817 C 264.386 -0.0261621 -5.22293 0
M  V30 2818 H 266.08 -0.292969 -2.97963 0
M  V30 2819 H 263.626 -0.14234 -1.43295 0
M  V30 2820 H 265.579 2.03873 -3.688 0
M  V30 2821 H 264.303 2.15843 -2.4511 0
M  V30 2822 H 262.962 0.391481 -3.64504 0
M  V30 2823 H 262.61 2.81098 -4.17124 0
M  V30 2824 H 262.31 1.78688 -5.59772 0
M  V30 2825 H 263.834 2.7107 -5.47132 0
M  V30 2826 H 265.248 0.452384 -5.71512 0
M  V30 2827 H 263.645 -0.287992 -5.99409 0
M  V30 2828 H 264.715 -0.963391 -4.75233 0
M  V30 2829 N 266.058 1.56714 -0.166846 0
M  V30 2830 C 266.988 2.20754 0.760913 0
M  V30 2831 C 267.969 1.16178 1.24244 0
M  V30 2832 O 269.154 1.44592 1.29641 0
M  V30 2833 C 266.284 2.84478 1.99223 0
M  V30 2834 C 265.238 3.95053 1.64672 0
M  V30 2835 C 264.564 4.45805 2.95232 0
M  V30 2836 C 265.864 5.14865 0.878155 0
M  V30 2837 H 267.558 2.98537 0.22713 0
M  V30 2838 H 265.104 1.43596 0.107805 0
M  V30 2839 H 267.057 3.27951 2.64624 0
M  V30 2840 H 265.781 2.04056 2.55007 0
M  V30 2841 H 264.44 3.52228 1.01641 0
M  V30 2842 H 264.088 3.62181 3.49047 0
M  V30 2843 H 263.788 5.204 2.7287 0
M  V30 2844 H 265.312 4.91962 3.6167 0
M  V30 2845 H 266.726 5.55059 1.43466 0
M  V30 2846 H 265.123 5.95348 0.753738 0
M  V30 2847 H 266.193 4.84735 -0.126377 0
M  V30 2848 N 267.536 -0.106894 1.57237 0
M  V30 2849 C 268.761 -0.830287 1.90055 0
M  V30 2850 C 269.186 -1.72064 0.75998 0
M  V30 2851 O 268.544 -1.78982 -0.288991 0
M  V30 2852 C 268.592 -1.6295 3.21683 0
M  V30 2853 O 267.696 -2.73748 3.08441 0
M  V30 2854 H 267.037 -0.228855 0.623315 0
M  V30 2855 H 269.567 -0.085658 2.04421 0
M  V30 2856 H 269.577 -2.01621 3.54701 0
M  V30 2857 H 268.252 -0.975989 4.04286 0
M  V30 2858 H 266.829 -2.38192 2.86913 0
M  V30 2859 N 269.014 -1.53014 -0.377408 0
M  V30 2860 C 269.962 -1.7927 -1.48206 0
M  V30 2861 C 270.956 -0.661195 -1.55963 0
M  V30 2862 O 272.162 -0.843908 -1.58991 0
M  V30 2863 H 268.537 -0.567425 -0.493491 0
M  V30 2864 H 270.508 -2.71753 -1.2326 0
M  V30 2865 C 269.257 -1.98894 -2.85196 0
M  V30 2866 H 268.58 -2.85395 -2.79981 0
M  V30 2867 H 270.02 -2.21249 -3.61698 0
M  V30 2868 C 268.479 -0.764691 -3.28107 0
M  V30 2869 O 269.009 0.0523226 -4.01666 0
M  V30 2870 N 267.215 -0.591493 -2.84517 0
M  V30 2871 H 266.762 -1.25749 -2.24822 0
M  V30 2872 H 266.72 0.226253 -3.13585 0
M  V30 2873 N 270.492 0.636531 -1.44174 0
M  V30 2874 C 271.424 1.7618 -1.46606 0
M  V30 2875 C 272.437 1.58768 -0.360091 0
M  V30 2876 O 273.626 1.67181 -0.625518 0
M  V30 2877 C 270.726 3.13833 -1.27915 0
M  V30 2878 C 269.899 3.57753 -2.51658 0
M  V30 2879 C 268.958 4.74265 -2.27945 0
M  V30 2880 O 267.984 4.82852 -3.01401 0
M  V30 2881 N 269.186 5.65604 -1.30662 0
M  V30 2882 H 271.951 1.74567 -2.43612 0
M  V30 2883 H 269.512 0.820924 -1.39544 0
M  V30 2884 H 271.504 3.8949 -1.09907 0
M  V30 2885 H 270.074 3.10121 -0.39293 0
M  V30 2886 H 269.294 2.72362 -2.84978 0
M  V30 2887 H 270.582 3.83847 -3.33974 0
M  V30 2888 H 269.98 5.61354 -0.699844 0
M  V30 2889 H 268.537 6.40913 -1.18634 0
M  V30 2890 N 271.97 1.30982 0.876444 0
M  V30 2891 C 273.218 1.20058 1.62575 0
M  V30 2892 C 273.539 -0.242947 1.93481 0
M  V30 2893 O 272.809 -1.1619 1.57724 0
M  V30 2894 H 271.389 0.44135 0.602677 0
M  V30 2895 H 274.051 1.64222 1.04962 0
M  V30 2896 H 273.147 1.76762 2.57219 0
M  V30 2897 N 273.449 -1.08991 1.13837 0
M  V30 2898 C 274.677 -1.85011 0.926202 0
M  V30 2899 C 275.092 -1.8135 -0.525127 0
M  V30 2900 O 274.449 -1.21287 -1.36366 0
M  V30 2901 C 274.5 -3.32802 1.41155 0
M  V30 2902 O 274.221 -3.36444 2.80601 0
M  V30 2903 C 275.722 -4.25649 1.23847 0
M  V30 2904 H 272.942 -0.584249 0.32999 0
M  V30 2905 H 275.486 -1.37688 1.51202 0
M  V30 2906 H 273.641 -3.77536 0.868631 0
M  V30 2907 H 274.055 -4.28657 3.02248 0
M  V30 2908 H 275.529 -5.27485 1.62675 0
M  V30 2909 H 276.006 -4.38828 0.18065 0
M  V30 2910 H 276.612 -3.86735 1.76964 0
M  V30 2911 N 274.927 -0.932562 -1.27047 0
M  V30 2912 C 276.176 -0.571351 -1.93439 0
M  V30 2913 C 276.489 0.892467 -1.74053 0
M  V30 2914 O 277.695 1.36267 -2.34826 0
M  V30 2915 C 276.151 -0.97106 -3.46552 0
M  V30 2916 C 275.759 -2.4559 -3.74686 0
M  V30 2917 C 277.503 -0.681333 -4.18997 0
M  V30 2918 C 275.41 -2.79475 -5.21198 0
M  V30 2919 H 274.34 -0.209966 -0.724176 0
M  V30 2920 H 276.991 -1.13403 -1.44263 0
M  V30 2921 H 275.373 -0.336983 -3.94564 0
M  V30 2922 H 276.547 -3.13829 -3.37414 0
M  V30 2923 H 274.862 -2.71802 -3.15456 0
M  V30 2924 H 277.459 -0.910939 -5.26883 0
M  V30 2925 H 277.802 0.381628 -4.14547 0
M  V30 2926 H 278.335 -1.27473 -3.76823 0
M  V30 2927 H 275.074 -3.847 -5.30741 0
M  V30 2928 H 274.594 -2.1589 -5.596 0
M  V30 2929 H 276.273 -2.67478 -5.89122 0
M  V30 2930 N 276.405 1.4127 -0.698611 0
M  V30 2931 C 277.352 2.30773 -0.0352094 0
M  V30 2932 C 278.322 1.47273 0.768111 0
M  V30 2933 O 279.507 1.76053 0.735524 0
M  V30 2934 C 276.647 3.33346 0.893 0
M  V30 2935 C 275.76 4.31924 0.0809695 0
M  V30 2936 C 274.895 5.21566 1.0071 0
M  V30 2937 C 273.934 6.11811 0.188155 0
M  V30 2938 N 273.071 6.93926 1.06825 0
M  V30 2939 H 277.911 2.86943 -0.804207 0
M  V30 2940 H 275.448 1.4132 -0.408294 0
M  V30 2941 H 277.406 3.91368 1.44523 0
M  V30 2942 H 276.036 2.78719 1.62836 0
M  V30 2943 H 275.088 3.75825 -0.588224 0
M  V30 2944 H 276.4 4.95716 -0.553801 0
M  V30 2945 H 275.554 5.84437 1.62845 0
M  V30 2946 H 274.293 4.58008 1.67572 0
M  V30 2947 H 273.298 5.47986 -0.446254 0
M  V30 2948 H 274.523 6.77425 -0.476716 0
M  V30 2949 H 272.469 6.32973 1.72283 0
M  V30 2950 H 272.386 7.54416 0.489123 0
M  V30 2951 H 273.654 7.61262 1.67632 0
M  V30 2952 N 277.883 0.443576 1.51229 0
M  V30 2953 C 278.813 -0.355142 2.30783 0
M  V30 2954 C 279.794 -1.0154 1.36468 0
M  V30 2955 O 280.979 -1.01785 1.65389 0
M  V30 2956 C 278.109 -1.45312 3.15439 0
M  V30 2957 C 277.063 -0.916002 4.18083 0
M  V30 2958 C 276.389 -2.1102 4.91299 0
M  V30 2959 C 277.689 0.0538602 5.22272 0
M  V30 2960 H 279.383 0.308767 2.97804 0
M  V30 2961 H 276.929 0.149937 1.43217 0
M  V30 2962 H 278.882 -2.01914 3.69876 0
M  V30 2963 H 277.606 -2.14541 2.46252 0
M  V30 2964 H 276.265 -0.372145 3.64706 0
M  V30 2965 H 275.913 -2.78882 4.18609 0
M  V30 2966 H 275.613 -1.75717 5.60712 0
M  V30 2967 H 277.137 -2.68164 5.48562 0
M  V30 2968 H 278.551 -0.422069 5.71744 0
M  V30 2969 H 276.948 0.319776 5.99247 0
M  V30 2970 H 278.018 0.98858 4.74716 0
M  V30 2971 N 279.361 -1.56624 0.175154 0
M  V30 2972 C 280.601 -1.98894 -0.471221 0
M  V30 2973 C 280.965 -1.05889 -1.60161 0
M  V30 2974 O 282.166 -1.37315 -2.3108 0
M  V30 2975 C 280.437 -3.44865 -0.938241 0
M  V30 2976 S 281.996 -4.09164 -1.58526 0
M  V30 2977 H 278.814 -0.694686 -0.151434 0
M  V30 2978 H 281.416 -1.93577 0.27352 0
M  V30 2979 H 280.12 -4.10265 -0.10518 0
M  V30 2980 H 279.651 -3.53956 -1.71693 0
M  V30 2981 H 281.666 -4.04528 -2.87352 0
M  V30 2982 N 280.839 0.0985539 -1.57292 0
M  V30 2983 C 282.116 0.834155 -1.76921 0
M  V30 2984 C 282.496 1.97101 -0.755928 0
M  V30 2985 O 281.844 2.27474 0.216245 0
M  V30 2986 C 282.054 1.33194 -3.22584 0
M  V30 2987 C 283.402 1.77611 -3.85668 0
M  V30 2988 O 284.426 1.42825 -3.26312 0
M  V30 2989 O 283.285 2.4192 -4.90038 0
M  V30 2990 H 280.379 0.397628 -0.725135 0
M  V30 2991 H 282.925 0.0807044 -1.69508 0
M  V30 2992 H 281.697 0.517248 -3.87866 0
M  V30 2993 H 281.32 2.1475 -3.34616 0
M  V30 2994 N 282.317 1.53212 0.369288 0
M  V30 2995 C 283.564 1.69215 1.11232 0
M  V30 2996 C 283.892 0.442048 1.8941 0
M  V30 2997 O 283.147 -0.575944 1.87033 0
M  V30 2998 C 283.446 2.89101 2.10132 0
M  V30 2999 C 283.112 4.25758 1.48463 0
M  V30 3000 C 281.774 4.6292 1.31372 0
M  V30 3001 C 284.126 5.10757 1.03811 0
M  V30 3002 C 281.454 5.82722 0.68207 0
M  V30 3003 C 283.806 6.31201 0.420487 0
M  V30 3004 C 282.47 6.67079 0.237038 0
M  V30 3005 H 281.74 0.619201 0.407027 0
M  V30 3006 H 284.387 1.87391 0.394552 0
M  V30 3007 H 282.692 2.65421 2.88199 0
M  V30 3008 H 284.389 2.98676 2.6757 0
M  V30 3009 H 280.979 3.96494 1.62758 0
M  V30 3010 H 285.163 4.82599 1.1581 0
M  V30 3011 H 280.419 6.09113 0.528316 0
M  V30 3012 H 284.593 6.96368 0.0662874 0
M  V30 3013 H 282.22 7.59774 -0.254477 0
M  V30 3014 N 283.795 -0.628877 1.44509 0
M  V30 3015 C 285.043 -1.38565 1.4712 0
M  V30 3016 C 285.364 -1.94712 0.105899 0
M  V30 3017 O 284.634 -1.75912 -0.862079 0
M  V30 3018 H 283.214 -0.514333 0.541729 0
M  V30 3019 H 285.876 -0.740018 1.80305 0
M  V30 3020 H 284.972 -2.21583 2.19789 0
M  V30 3021 N 285.273 -1.31445 -0.869486 0
M  V30 3022 C 286.498 -1.24256 -1.66058 0
M  V30 3023 C 286.923 0.188928 -1.87149 0
M  V30 3024 O 286.281 1.13522 -1.4136 0
M  V30 3025 C 286.329 -1.9924 -3.00559 0
M  V30 3026 O 285.433 -1.33007 -3.90362 0
M  V30 3027 H 284.774 -0.428973 -0.506831 0
M  V30 3028 H 287.304 -1.73521 -1.08404 0
M  V30 3029 H 287.314 -2.08854 -3.50491 0
M  V30 3030 H 285.989 -3.03342 -2.84528 0
M  V30 3031 H 284.566 -1.31848 -3.48813 0
M  V30 3032 N 286.751 1.08385 -1.14413 0
M  V30 3033 C 287.714 2.13486 -0.834048 0
M  V30 3034 C 288.714 1.59988 0.161418 0
M  V30 3035 O 289.904 1.74071 -0.0669575 0
M  V30 3036 C 287.036 3.4003 -0.243354 0
M  V30 3037 H 288.229 2.42425 -1.7655 0
M  V30 3038 H 285.782 1.24101 -0.950189 0
M  V30 3039 H 286.517 3.16726 0.696807 0
M  V30 3040 H 286.302 3.80157 -0.960367 0
M  V30 3041 H 287.792 4.17577 -0.0436242 0
M  V30 3042 N 288.23 0.939286 1.26551 0
M  V30 3043 C 289.458 0.602536 1.97932 0
M  V30 3044 C 289.873 -0.82206 1.69964 0
M  V30 3045 O 289.23 -1.54789 0.966784 0
M  V30 3046 C 289.281 0.832946 3.51773 0
M  V30 3047 O 289.002 2.20151 3.78768 0
M  V30 3048 C 290.503 0.506483 4.40397 0
M  V30 3049 H 287.723 0.227248 0.631347 0
M  V30 3050 H 290.267 1.25948 1.61113 0
M  V30 3051 H 288.422 0.222644 3.8676 0
M  V30 3052 H 288.836 2.26013 4.73306 0
M  V30 3053 H 290.31 0.718333 5.47306 0
M  V30 3054 H 290.787 -0.558451 4.35635 0
M  V30 3055 H 291.393 1.09543 4.10951 0
M  V30 3056 N 289.708 -1.40897 0.706093 0
M  V30 3057 C 290.936 -2.05373 0.250887 0
M  V30 3058 C 291.351 -1.53172 -1.10381 0
M  V30 3059 O 290.708 -0.684305 -1.69185 0
M  V30 3060 C 290.759 -3.6088 0.211571 0
M  V30 3061 O 290.48 -4.11153 1.51276 0
M  V30 3062 C 291.981 -4.42517 -0.263346 0
M  V30 3063 H 289.201 -0.66115 0.114552 0
M  V30 3064 H 291.745 -1.80479 0.961635 0
M  V30 3065 H 289.9 -3.84777 -0.450073 0
M  V30 3066 H 290.314 -5.05279 1.40689 0
M  V30 3067 H 291.788 -5.51479 -0.239718 0
M  V30 3068 H 292.265 -4.19396 -1.30397 0
M  V30 3069 H 292.871 -4.23708 0.367677 0
M  V30 3070 N 291.186 -0.45159 -1.50991 0
M  V30 3071 C 292.435 0.111653 -2.01391 0
M  V30 3072 C 292.748 1.42529 -1.33959 0
M  V30 3073 O 293.954 2.07232 -1.75405 0
M  V30 3074 C 292.41 0.249514 -3.59034 0
M  V30 3075 C 292.018 -1.05453 -4.35412 0
M  V30 3076 C 293.762 0.765762 -4.17536 0
M  V30 3077 C 291.669 -0.881529 -5.84793 0
M  V30 3078 H 290.599 0.0455022 -0.752626 0
M  V30 3079 H 293.25 -0.583524 -1.73975 0
M  V30 3080 H 291.632 1.00803 -3.82955 0
M  V30 3081 H 292.806 -1.82248 -4.23229 0
M  V30 3082 H 291.121 -1.50039 -3.88429 0
M  V30 3083 H 293.718 0.911913 -5.26866 0
M  V30 3084 H 294.061 1.75201 -3.77638 0
M  V30 3085 H 294.594 0.0651744 -3.97747 0
M  V30 3086 H 291.333 -1.84057 -6.29129 0
M  V30 3087 H 290.853 -0.153625 -5.99603 0
M  V30 3088 H 292.532 -0.540363 -6.4474 0
M  V30 3089 N 292.664 1.56529 -0.183458 0
M  V30 3090 C 293.889 2.02064 0.467428 0
M  V30 3091 C 294.314 1.06282 1.55196 0
M  V30 3092 O 293.672 0.0443565 1.81246 0
M  V30 3093 C 293.72 3.46122 1.01153 0
M  V30 3094 O 292.824 3.53437 2.12499 0
M  V30 3095 H 292.165 0.654726 0.110588 0
M  V30 3096 H 294.695 2.02521 -0.290917 0
M  V30 3097 H 294.705 3.85676 1.33108 0
M  V30 3098 H 293.38 4.15331 0.217533 0
M  V30 3099 H 291.957 3.2575 1.81497 0
M  V30 3100 N 294.142 -0.090211 1.57342 0
M  V30 3101 C 295.092 -1.11557 1.98844 0
M  V30 3102 C 296.076 -1.35503 0.867624 0
M  V30 3103 O 297.268 -1.36113 1.13148 0
M  V30 3104 C 294.397 -2.43446 2.42051 0
M  V30 3105 C 293.483 -2.22853 3.60828 0
M  V30 3106 N 293.874 -1.72141 4.75606 0
M  V30 3107 C 292.172 -2.53401 3.67021 0
M  V30 3108 C 292.873 -1.65932 5.57531 0
M  V30 3109 N 291.849 -2.11323 5.00843 0
M  V30 3110 H 295.651 -0.716499 2.85032 0
M  V30 3111 H 293.165 -0.297567 1.59651 0
M  V30 3112 H 295.162 -3.17644 2.70014 0
M  V30 3113 H 293.822 -2.84087 1.57241 0
M  V30 3114 H 294.833 -1.41268 4.98261 0
M  V30 3115 H 291.51 -2.97532 2.92884 0
M  V30 3116 H 292.9 -1.27733 6.59647 0
M  V30 3117 N 295.62 -1.53406 -0.361157 0
M  V30 3118 C 296.85 -1.73465 -1.1222 0
M  V30 3119 C 297.258 -0.465486 -1.83384 0
M  V30 3120 O 296.601 0.571611 -1.7458 0
M  V30 3121 C 296.663 -2.84834 -2.19339 0
M  V30 3122 C 296.327 -4.25038 -1.67903 0
M  V30 3123 C 297.324 -5.07231 -1.14074 0
M  V30 3124 C 295.009 -4.71464 -1.73282 0
M  V30 3125 C 297.003 -6.33942 -0.663068 0
M  V30 3126 C 294.69 -5.98153 -1.25127 0
M  V30 3127 C 295.688 -6.79223 -0.717296 0
M  V30 3128 O 295.376 -8.03533 -0.242865 0
M  V30 3129 H 295.108 -0.583526 -0.341283 0
M  V30 3130 H 297.662 -2.00964 -0.424591 0
M  V30 3131 H 295.892 -2.5282 -2.92607 0
M  V30 3132 H 297.581 -2.9303 -2.80871 0
M  V30 3133 H 298.347 -4.72534 -1.09254 0
M  V30 3134 H 294.226 -4.08432 -2.13786 0
M  V30 3135 H 297.77 -6.97167 -0.245612 0
M  V30 3136 H 293.667 -6.32347 -1.29642 0
M  V30 3137 H 294.435 -8.177 -0.361786 0
M  V30 3138 N 297.098 0.621204 -1.44841 0
M  V30 3139 C 298.509 1.20298 -1.42777 0
M  V30 3140 C 298.86 1.95639 -0.148259 0
M  V30 3141 O 297.985 2.02955 0.750892 0
M  V30 3142 C 298.58 2.1882 -2.58657 0
M  V30 3143 C 297.139 2.72403 -2.59756 0
M  V30 3144 C 296.286 1.4757 -2.34773 0
M  V30 3145 H 299.237 0.411297 -1.53278 0
M  V30 3146 H 299.258 3.01607 -2.31977 0
M  V30 3147 H 298.77 1.63957 -3.51766 0
M  V30 3148 H 296.871 3.31242 -1.70615 0
M  V30 3149 H 296.984 3.17765 -3.58556 0
M  V30 3150 H 295.348 1.76051 -1.8406 0
M  V30 3151 H 296.131 0.945954 -3.3001 0
M  V30 3152 N 298.576 1.31904 0.862503 0
M  V30 3153 C 299.853 1.12644 1.59908 0
M  V30 3154 C 300.233 -0.316104 2.0872 0
M  V30 3155 O 299.581 -1.31145 1.87118 0
M  V30 3156 C 299.791 2.1472 2.7513 0
M  V30 3157 C 301.139 2.47637 3.44907 0
M  V30 3158 O 302.163 2.13205 2.85346 0
M  V30 3159 O 301.022 3.06632 4.52371 0
M  V30 3160 H 298.116 0.43416 0.703871 0
M  V30 3161 H 300.662 1.43408 0.907314 0
M  V30 3162 H 299.434 3.1172 2.3653 0
M  V30 3163 H 299.057 1.84905 3.51989 0
M  V30 3164 N 300.054 -1.07777 1.14986 0
M  V30 3165 C 301.284 -1.83752 0.944402 0
M  V30 3166 C 301.692 -1.8218 -0.51058 0
M  V30 3167 O 301.035 -1.22852 -1.36576 0
M  V30 3168 C 301.097 -3.32128 1.37592 0
M  V30 3169 C 300.761 -3.57425 2.84775 0
M  V30 3170 C 301.758 -3.5173 3.8286 0
M  V30 3171 C 299.443 -3.8523 3.2234 0
M  V30 3172 C 301.437 -3.73482 5.16517 0
M  V30 3173 C 299.124 -4.06634 4.56171 0
M  V30 3174 C 300.122 -4.00754 5.53069 0
M  V30 3175 O 299.81 -4.2159 6.84483 0
M  V30 3176 H 299.542 -0.58673 0.335744 0
M  V30 3177 H 302.096 -1.36982 1.53052 0
M  V30 3178 H 300.326 -3.79686 0.733165 0
M  V30 3179 H 302.015 -3.89555 1.14024 0
M  V30 3180 H 302.781 -3.30256 3.55184 0
M  V30 3181 H 298.66 -3.88923 2.47508 0
M  V30 3182 H 302.204 -3.68808 5.92137 0
M  V30 3183 H 298.101 -4.27593 4.83564 0
M  V30 3184 H 298.869 -4.38961 6.90837 0
M  V30 3185 N 301.532 -0.945985 -1.26051 0
M  V30 3186 C 302.757 -0.612525 -1.98149 0
M  V30 3187 C 303.182 0.806623 -1.69927 0
M  V30 3188 O 302.54 1.54411 -0.950108 0
M  V30 3189 C 302.588 -0.866981 -3.50023 0
M  V30 3190 O 301.692 0.0585333 -4.12358 0
M  V30 3191 H 301.033 -0.23379 -0.621481 0
M  V30 3192 H 303.563 -1.27023 -1.60395 0
M  V30 3193 H 303.573 -0.789792 -4.00283 0
M  V30 3194 H 302.248 -1.90135 -3.69894 0
M  V30 3195 H 300.825 -0.0701241 -3.72834 0
M  V30 3196 N 303.011 1.40521 -0.713556 0
M  V30 3197 C 304.257 2.01714 -0.261382 0
M  V30 3198 C 304.612 1.55562 1.13217 0
M  V30 3199 O 303.905 0.764893 1.7567 0
M  V30 3200 C 304.099 3.56317 -0.278 0
M  V30 3201 C 303.928 4.17476 -1.67163 0
M  V30 3202 C 302.698 4.50998 -2.2788 0
M  V30 3203 C 304.896 4.42472 -2.6215 0
M  V30 3204 N 302.878 4.9754 -3.5962 0
M  V30 3205 C 304.249 4.90985 -3.78594 0
M  V30 3206 C 306.304 4.24508 -2.60188 0
M  V30 3207 C 305.007 5.2342 -4.9338 0
M  V30 3208 C 307.033 4.58043 -3.741 0
M  V30 3209 C 306.395 5.06743 -4.89276 0
M  V30 3210 H 302.494 0.769104 -0.141434 0
M  V30 3211 H 305.078 1.70785 -0.934915 0
M  V30 3212 H 303.249 3.8668 0.36509 0
M  V30 3213 H 304.981 4.0425 0.190695 0
M  V30 3214 H 301.736 4.38062 -1.79997 0
M  V30 3215 H 302.16 5.25196 -4.27198 0
M  V30 3216 H 306.802 3.86078 -1.72348 0
M  V30 3217 H 304.52 5.60765 -5.81866 0
M  V30 3218 H 308.106 4.45785 -3.73854 0
M  V30 3219 H 306.986 5.32204 -5.75959 0
M  V30 3220 N 304.489 0.459591 1.5075 0
M  V30 3221 C 305.714 -0.0996819 2.0716 0
M  V30 3222 C 306.139 -1.33761 1.32249 0
M  V30 3223 O 305.497 -1.77551 0.366786 0
M  V30 3224 C 305.545 -0.378226 3.58611 0
M  V30 3225 O 304.649 -1.46081 3.85661 0
M  V30 3226 H 303.99 0.00791392 0.663953 0
M  V30 3227 H 306.52 0.647329 1.9409 0
M  V30 3228 H 306.53 -0.622135 4.03229 0
M  V30 3229 H 305.205 0.526439 4.12555 0
M  V30 3230 H 303.782 -1.20511 3.5289 0
M  V30 3231 N 305.967 -1.56429 0.191757 0
M  V30 3232 C 306.93 -2.17707 -0.716688 0
M  V30 3233 C 307.93 -1.13061 -1.14341 0
M  V30 3234 O 309.12 -1.38464 -1.05704 0
M  V30 3235 C 306.252 -2.77644 -1.97804 0
M  V30 3236 H 307.445 -2.99342 -0.1829 0
M  V30 3237 H 304.998 -1.56193 -0.0578566 0
M  V30 3238 H 305.733 -1.99799 -2.55443 0
M  V30 3239 H 305.518 -3.54246 -1.68083 0
M  V30 3240 H 307.008 -3.24708 -2.62592 0
M  V30 3241 N 307.445 0.0818655 -1.57387 0
M  V30 3242 C 308.377 1.12484 -1.997 0
M  V30 3243 C 309.39 1.35564 -0.90146 0
M  V30 3244 O 310.579 1.33982 -1.17945 0
M  V30 3245 C 307.679 2.47778 -2.31213 0
M  V30 3246 C 306.852 2.44793 -3.62485 0
M  V30 3247 C 305.911 3.62117 -3.81782 0
M  V30 3248 O 304.937 3.44005 -4.53486 0
M  V30 3249 N 306.139 4.82094 -3.23367 0
M  V30 3250 H 308.904 0.764585 -2.89783 0
M  V30 3251 H 306.465 0.270664 -1.59621 0
M  V30 3252 H 308.457 3.24891 -2.41304 0
M  V30 3253 H 307.027 2.75843 -1.4707 0
M  V30 3254 H 306.247 1.53134 -3.6324 0
M  V30 3255 H 307.535 2.39889 -4.48699 0
M  V30 3256 H 306.933 4.99713 -2.65148 0
M  V30 3257 H 305.49 5.56753 -3.38923 0
M  V30 3258 N 308.923 1.53595 0.353017 0
M  V30 3259 C 310.339 1.43648 0.695516 0
M  V30 3260 C 310.539 0.585617 1.92802 0
M  V30 3261 O 309.595 0.0729223 2.52395 0
M  V30 3262 C 310.908 2.8701 0.896991 0
M  V30 3263 C 312.456 2.96723 0.996209 0
M  V30 3264 C 312.931 4.41173 1.23007 0
M  V30 3265 N 314.422 4.44657 1.29749 0
M  V30 3266 C 315.157 5.53547 1.49577 0
M  V30 3267 N 314.653 6.72461 1.66639 0
M  V30 3268 N 316.446 5.41145 1.52048 0
M  V30 3269 H 308.597 2.07415 -0.457481 0
M  V30 3270 H 310.86 0.9372 -0.142687 0
M  V30 3271 H 310.566 3.51644 0.0629938 0
M  V30 3272 H 310.44 3.31401 1.80148 0
M  V30 3273 H 312.827 2.32235 1.82074 0
M  V30 3274 H 312.908 2.55707 0.0688331 0
M  V30 3275 H 312.552 5.06238 0.410505 0
M  V30 3276 H 312.482 4.79772 2.17086 0
M  V30 3277 H 314.973 3.58963 1.18126 0
M  V30 3278 H 315.286 7.51214 1.81378 0
M  V30 3279 H 313.631 6.75423 1.63794 0
M  V30 3280 H 316.822 4.47205 1.38294 0
M  V30 3281 H 316.995 6.26068 1.67159 0
M  V30 3282 N 310.401 -0.613514 1.45168 0
M  V30 3283 C 311.817 -0.933629 1.29443 0
M  V30 3284 C 312.017 -2.00028 0.243101 0
M  V30 3285 O 311.073 -2.49848 -0.364992 0
M  V30 3286 C 312.386 -1.38018 2.67155 0
M  V30 3287 C 313.934 -1.49471 2.75004 0
M  V30 3288 C 314.409 -1.97503 4.13227 0
M  V30 3289 N 315.9 -2.04746 4.15491 0
M  V30 3290 C 316.635 -2.43121 5.19307 0
M  V30 3291 N 316.131 -2.80506 6.33473 0
M  V30 3292 N 317.924 -2.43408 5.06664 0
M  V30 3293 H 310.075 0.0916097 2.12202 0
M  V30 3294 H 312.338 -0.0216655 0.947752 0
M  V30 3295 H 312.044 -0.670625 3.45247 0
M  V30 3296 H 311.918 -2.34784 2.95222 0
M  V30 3297 H 314.305 -2.19519 1.9722 0
M  V30 3298 H 314.386 -0.510342 2.50657 0
M  V30 3299 H 314.03 -1.28045 4.91495 0
M  V30 3300 H 313.96 -2.96843 4.34962 0
M  V30 3301 H 316.451 -1.78468 3.33103 0
M  V30 3302 H 316.764 -3.08652 7.08487 0
M  V30 3303 H 315.109 -2.78216 6.36884 0
M  V30 3304 H 318.3 -2.13604 4.16523 0
M  V30 3305 H 318.473 -2.72989 5.87691 0
M  V30 3306 N 311.879 -1.3236 -0.855495 0
M  V30 3307 C 312.842 -1.21164 -1.94556 0
M  V30 3308 C 313.842 -0.134908 -1.60233 0
M  V30 3309 O 315.032 -0.385249 -1.69887 0
M  V30 3310 C 312.164 -0.863192 -3.29791 0
M  V30 3311 H 313.357 -2.18038 -2.05911 0
M  V30 3312 H 310.91 -1.16179 -1.04557 0
M  V30 3313 H 311.645 0.103769 -3.24134 0
M  V30 3314 H 311.43 -1.64166 -3.56078 0
M  V30 3315 H 312.92 -0.809156 -4.09686 0
M  V30 3316 N 313.357 1.07166 -1.15556 0
M  V30 3317 C 314.287 2.16403 -0.877046 0
M  V30 3318 C 315.268 1.69217 0.173111 0
M  V30 3319 O 316.453 1.94181 0.027084 0
M  V30 3320 C 313.583 3.45349 -0.367632 0
M  V30 3321 C 312.537 4.05995 -1.35468 0
M  V30 3322 C 311.863 5.30045 -0.704038 0
M  V30 3323 C 313.163 4.45804 -2.72132 0
M  V30 3324 H 314.857 2.39959 -1.79053 0
M  V30 3325 H 312.403 1.15325 -0.862331 0
M  V30 3326 H 314.356 4.21095 -0.160317 0
M  V30 3327 H 313.08 3.21385 0.581326 0
M  V30 3328 H 311.739 3.32296 -1.54839 0
M  V30 3329 H 311.387 5.02373 0.251128 0
M  V30 3330 H 311.087 5.71579 -1.36277 0
M  V30 3331 H 312.611 6.08495 -0.50654 0
M  V30 3332 H 314.025 5.12671 -2.56595 0
M  V30 3333 H 312.422 4.98296 -3.34397 0
M  V30 3334 H 313.492 3.57083 -3.28054 0
M  V30 3335 N 314.835 0.952656 1.25548 0
M  V30 3336 C 316.081 0.607272 1.93494 0
M  V30 3337 C 316.414 -0.853245 1.74452 0
M  V30 3338 O 315.689 -1.61194 1.08843 0
M  V30 3339 C 315.972 0.96435 3.46947 0
M  V30 3340 C 315.825 2.48045 3.75225 0
M  V30 3341 C 317.144 0.487987 4.37386 0
M  V30 3342 H 314.263 0.222096 0.702739 0
M  V30 3343 H 316.905 1.18895 1.48203 0
M  V30 3344 H 315.055 0.469361 3.85654 0
M  V30 3345 H 316.727 3.04905 3.46166 0
M  V30 3346 H 314.97 2.919 3.209 0
M  V30 3347 H 315.641 2.6808 4.82532 0
M  V30 3348 H 318.117 0.912558 4.0597 0
M  V30 3349 H 316.993 0.766547 5.43521 0
M  V30 3350 H 317.254 -0.612063 4.37843 0
M  V30 3351 N 316.313 -1.40141 0.720998 0
M  V30 3352 C 317.223 -2.34486 0.0731031 0
M  V30 3353 C 318.239 -1.57587 -0.737723 0
M  V30 3354 O 319.415 -1.89949 -0.669429 0
M  V30 3355 C 316.48 -3.36528 -0.833656 0
M  V30 3356 C 315.541 -4.29298 -0.0121673 0
M  V30 3357 C 314.774 -5.26466 -0.875742 0
M  V30 3358 O 314.997 -5.29745 -2.11485 0
M  V30 3359 O 313.931 -6.01092 -0.31185 0
M  V30 3360 H 317.757 -2.9152 0.851444 0
M  V30 3361 H 315.342 -1.41427 0.481527 0
M  V30 3362 H 317.224 -3.99093 -1.35289 0
M  V30 3363 H 315.899 -2.81899 -1.59105 0
M  V30 3364 H 314.806 -3.70001 0.552262 0
M  V30 3365 H 316.139 -4.87094 0.707129 0
M  V30 3366 N 317.792 -0.46758 -1.50504 0
M  V30 3367 C 318.702 0.33382 -2.32213 0
M  V30 3368 C 319.718 0.999323 -1.42441 0
M  V30 3369 O 320.894 0.988068 -1.75497 0
M  V30 3370 C 317.959 1.4035 -3.17022 0
M  V30 3371 C 317.02 0.754961 -4.2261 0
M  V30 3372 C 316.253 1.77367 -5.03365 0
M  V30 3373 O 316.476 2.99976 -4.8515 0
M  V30 3374 O 315.41 1.34744 -5.86624 0
M  V30 3375 H 319.236 -0.334067 -3.01857 0
M  V30 3376 H 316.821 -0.229496 -1.47627 0
M  V30 3377 H 318.703 2.02318 -3.69656 0
M  V30 3378 H 317.378 2.05492 -2.5011 0
M  V30 3379 H 316.285 0.0964244 -3.73976 0
M  V30 3380 H 317.618 0.146545 -4.91982 0
M  V30 3381 N 319.27 1.56325 -0.20005 0
M  V30 3382 C 320.18 2.22931 0.730668 0
M  V30 3383 C 321.196 1.22997 1.23076 0
M  V30 3384 O 322.372 1.55748 1.27689 0
M  V30 3385 C 319.437 2.87948 1.93098 0
M  V30 3386 C 318.498 4.03166 1.47497 0
M  V30 3387 C 317.731 4.65073 2.61807 0
M  V30 3388 O 317.954 4.25913 3.79413 0
M  V30 3389 O 316.888 5.54452 2.34237 0
M  V30 3390 H 320.714 3.03084 0.193391 0
M  V30 3391 H 318.299 1.49371 0.0294621 0
M  V30 3392 H 320.181 3.29063 2.6324 0
M  V30 3393 H 318.856 2.10771 2.45677 0
M  V30 3394 H 317.763 3.66664 0.742201 0
M  V30 3395 H 319.096 4.82022 0.995796 0
M  V30 3396 N 320.748 -0.0735177 1.57428 0
M  V30 3397 C 321.997 -0.771809 1.86349 0
M  V30 3398 C 322.31 -1.78828 0.792452 0
M  V30 3399 O 323.516 -2.53602 0.96945 0
M  V30 3400 C 321.972 -1.42358 3.30548 0
M  V30 3401 C 321.58 -0.445761 4.45777 0
M  V30 3402 C 323.324 -2.10434 3.6867 0
M  V30 3403 C 321.231 -1.10335 5.81016 0
M  V30 3404 H 320.161 -0.291999 0.695164 0
M  V30 3405 H 322.812 -0.0250749 1.83483 0
M  V30 3406 H 321.194 -2.21852 3.28021 0
M  V30 3407 H 322.368 0.319239 4.59693 0
M  V30 3408 H 320.683 0.130457 4.16196 0
M  V30 3409 H 323.28 -2.60405 4.67004 0
M  V30 3410 H 323.623 -2.90298 2.98383 0
M  V30 3411 H 324.156 -1.37773 3.7318 0
M  V30 3412 H 320.895 -0.345061 6.54591 0
M  V30 3413 H 320.415 -1.83925 5.70904 0
M  V30 3414 H 322.094 -1.62367 6.26295 0
M  V30 3415 N 322.226 -1.5378 -0.344866 0
M  V30 3416 C 323.454 -1.74899 -1.10534 0
M  V30 3417 C 323.869 -0.487534 -1.82397 0
M  V30 3418 O 323.226 0.540741 -1.74305 0
M  V30 3419 C 323.277 -2.92822 -2.11984 0
M  V30 3420 O 322.998 -4.14089 -1.43044 0
M  V30 3421 C 324.499 -3.25982 -3.00417 0
M  V30 3422 H 321.719 -0.584426 -0.329678 0
M  V30 3423 H 324.263 -2.006 -0.397474 0
M  V30 3424 H 322.418 -2.69457 -2.78338 0
M  V30 3425 H 322.832 -4.80272 -2.10805 0
M  V30 3426 H 324.306 -4.11848 -3.67539 0
M  V30 3427 H 324.783 -2.42228 -3.66363 0
M  V30 3428 H 325.389 -3.51349 -2.39654 0
M  V30 3429 N 323.704 0.605807 -1.45491 0
M  V30 3430 C 325.12 0.926751 -1.29936 0
M  V30 3431 C 325.32 1.99896 -0.253706 0
M  V30 3432 O 324.376 2.50038 0.351737 0
M  V30 3433 C 325.689 1.36599 -2.67883 0
M  V30 3434 C 327.237 1.4801 -2.75793 0
M  V30 3435 C 327.712 1.95309 -4.14268 0
M  V30 3436 N 329.203 2.0254 -4.16571 0
M  V30 3437 C 329.938 2.40363 -5.20589 0
M  V30 3438 N 329.434 2.77143 -6.34952 0
M  V30 3439 N 331.227 2.40718 -5.07948 0
M  V30 3440 H 323.378 -0.102862 -2.12151 0
M  V30 3441 H 325.641 0.016639 -0.947854 0
M  V30 3442 H 325.347 0.652306 -3.45598 0
M  V30 3443 H 325.221 2.33215 -2.96463 0
M  V30 3444 H 327.608 2.1847 -1.98381 0
M  V30 3445 H 327.689 0.497041 -2.50925 0
M  V30 3446 H 327.333 1.25436 -4.92167 0
M  V30 3447 H 327.263 2.94532 -4.3653 0
M  V30 3448 H 329.754 1.76699 -3.34045 0
M  V30 3449 H 330.067 3.0489 -7.10114 0
M  V30 3450 H 328.412 2.74834 -6.3835 0
M  V30 3451 H 331.603 2.11392 -4.1765 0
M  V30 3452 H 331.776 2.69869 -5.89131 0
M  V30 3453 N 325.182 1.32811 0.848464 0
M  V30 3454 C 326.13 1.22231 1.97895 0
M  V30 3455 C 327.124 0.125749 1.68933 0
M  V30 3456 O 328.33 0.289083 1.77663 0
M  V30 3457 H 324.705 0.379058 0.649476 0
M  V30 3458 H 326.676 2.17828 2.03945 0
M  V30 3459 C 325.425 0.968572 3.33937 0
M  V30 3460 H 324.748 1.80458 3.56756 0
M  V30 3461 H 326.188 0.934808 4.13567 0
M  V30 3462 C 324.647 -0.328628 3.35293 0
M  V30 3463 O 325.177 -1.33848 3.78745 0
M  V30 3464 N 323.383 -0.352788 2.88451 0
M  V30 3465 H 322.93 0.469541 2.53285 0
M  V30 3466 H 322.888 -1.22057 2.89741 0
M  V30 3467 N 326.66 -1.06551 1.16123 0
M  V30 3468 C 327.888 -1.83005 0.965237 0
M  V30 3469 C 328.303 -1.82423 -0.486542 0
M  V30 3470 O 327.66 -1.24152 -1.33763 0
M  V30 3471 C 327.711 -3.29733 1.48183 0
M  V30 3472 O 327.432 -3.30416 2.87674 0
M  V30 3473 C 328.933 -4.22926 1.32848 0
M  V30 3474 H 326.153 -0.577118 0.342309 0
M  V30 3475 H 328.697 -1.3445 1.54089 0
M  V30 3476 H 326.852 -3.75609 0.948517 0
M  V30 3477 H 327.266 -4.22149 3.11272 0
M  V30 3478 H 328.74 -5.23916 1.73827 0
M  V30 3479 H 329.217 -4.38346 0.273692 0
M  V30 3480 H 329.823 -3.82894 1.85127 0
M  V30 3481 N 328.138 -0.959301 -1.25041 0
M  V30 3482 C 329.366 -0.633949 -1.96948 0
M  V30 3483 C 329.781 0.794916 -1.7125 0
M  V30 3484 O 329.138 1.53231 -0.991287 0
M  V30 3485 C 329.189 -0.888805 -3.50403 0
M  V30 3486 O 328.91 -2.26149 -3.75218 0
M  V30 3487 C 330.411 -0.576482 -4.39536 0
M  V30 3488 H 327.631 -0.237263 -0.627652 0
M  V30 3489 H 330.175 -1.28495 -1.59089 0
M  V30 3490 H 328.33 -0.284145 -3.86357 0
M  V30 3491 H 328.744 -2.33514 -4.6965 0
M  V30 3492 H 330.218 -0.805314 -5.46094 0
M  V30 3493 H 330.695 0.489075 -4.36468 0
M  V30 3494 H 331.301 -1.16067 -4.09156 0
M  V30 3495 N 329.616 1.39756 -0.72842 0
M  V30 3496 C 331.027 1.83498 -0.344289 0
M  V30 3497 C 331.378 1.60868 1.12321 0
M  V30 3498 O 330.503 1.09634 1.86573 0
M  V30 3499 C 331.098 3.33114 -0.618112 0
M  V30 3500 C 329.657 3.753 -0.287549 0
M  V30 3501 C 328.804 2.62831 -0.884048 0
M  V30 3502 H 331.755 1.28842 -0.926578 0
M  V30 3503 H 331.776 3.80334 0.112349 0
M  V30 3504 H 331.288 3.49553 -1.68625 0
M  V30 3505 H 329.389 3.64451 0.775012 0
M  V30 3506 H 329.502 4.72945 -0.765512 0
M  V30 3507 H 327.866 2.52792 -0.311149 0
M  V30 3508 H 328.649 2.82078 -1.95671 0
M  V30 3509 N 331.094 0.475555 1.50254 0
M  V30 3510 C 332.027 -0.362381 2.25304 0
M  V30 3511 C 333.005 -0.992393 1.28803 0
M  V30 3512 O 334.189 -1.02746 1.58036 0
M  V30 3513 C 331.316 -1.50813 3.03271 0
M  V30 3514 C 330.362 -0.995044 4.1473 0
M  V30 3515 S 331.195 0.0938436 5.35418 0
M  V30 3516 C 332.351 -1.05567 6.16933 0
M  V30 3517 H 332.584 0.274686 2.96028 0
M  V30 3518 H 330.117 0.260495 1.52187 0
M  V30 3519 H 332.075 -2.16476 3.48781 0
M  V30 3520 H 330.736 -2.11672 2.32064 0
M  V30 3521 H 329.929 -1.85293 4.68703 0
M  V30 3522 H 329.531 -0.416052 3.71679 0
M  V30 3523 H 331.823 -1.96636 6.48337 0
M  V30 3524 H 332.766 -0.555109 7.05921 0
M  V30 3525 H 333.174 -1.31151 5.49053 0
M  V30 3526 N 332.573 -1.56217 0.208337 0
M  V30 3527 C 333.803 -2.02043 -0.431523 0
M  V30 3528 C 334.211 -1.08755 -1.54819 0
M  V30 3529 O 333.554 -0.0870009 -1.83494 0
M  V30 3530 C 333.616 -3.44239 -1.03633 0
M  V30 3531 C 333.28 -4.56965 -0.0567502 0
M  V30 3532 C 334.277 -5.14624 0.738773 0
M  V30 3533 C 331.962 -5.02266 0.0581736 0
M  V30 3534 C 333.956 -6.16045 1.63605 0
M  V30 3535 C 331.643 -6.03528 0.959001 0
M  V30 3536 C 332.641 -6.60293 1.7465 0
M  V30 3537 O 332.329 -7.59586 2.6322 0
M  V30 3538 H 332.061 -0.666772 -0.111313 0
M  V30 3539 H 334.615 -2.02919 0.318277 0
M  V30 3540 H 332.845 -3.40391 -1.83497 0
M  V30 3541 H 334.534 -3.73793 -1.58221 0
M  V30 3542 H 335.3 -4.80483 0.660364 0
M  V30 3543 H 331.179 -4.57771 -0.544633 0
M  V30 3544 H 334.723 -6.60279 2.25116 0
M  V30 3545 H 330.62 -6.37092 1.03848 0
M  V30 3546 H 331.388 -7.77057 2.57148 0
M  V30 3547 N 334.051 0.0651679 -1.57465 0
M  V30 3548 C 335.467 0.420105 -1.53972 0
M  V30 3549 C 335.667 1.78782 -0.929474 0
M  V30 3550 O 334.723 2.46771 -0.534839 0
M  V30 3551 C 336.036 0.355084 -2.98596 0
M  V30 3552 C 337.584 0.434792 -3.09965 0
M  V30 3553 C 338.059 0.399609 -4.56253 0
M  V30 3554 N 339.55 0.459488 -4.60915 0
M  V30 3555 C 340.285 0.454584 -5.71595 0
M  V30 3556 N 339.781 0.404102 -6.9162 0
M  V30 3557 N 341.574 0.501635 -5.59857 0
M  V30 3558 H 333.725 -0.830328 -1.95498 0
M  V30 3559 H 335.988 -0.312244 -0.895102 0
M  V30 3560 H 335.694 -0.583357 -3.46828 0
M  V30 3561 H 335.568 1.16275 -3.58831 0
M  V30 3562 H 337.955 1.36366 -2.61703 0
M  V30 3563 H 338.036 -0.40157 -2.52628 0
M  V30 3564 H 337.68 -0.525436 -5.05175 0
M  V30 3565 H 337.61 1.25359 -5.11461 0
M  V30 3566 H 340.101 0.502482 -3.74544 0
M  V30 3567 H 340.414 0.404468 -7.71741 0
M  V30 3568 H 338.759 0.37069 -6.94011 0
M  V30 3569 H 341.95 0.538812 -4.64989 0
M  V30 3570 H 342.123 0.494345 -6.46112 0
M  V30 3571 N 335.529 1.53961 0.336706 0
M  V30 3572 C 336.757 1.75483 1.09605 0
M  V30 3573 C 337.172 0.4972 1.82136 0
M  V30 3574 O 336.529 -0.53149 1.74589 0
M  V30 3575 C 336.58 2.93943 2.10428 0
M  V30 3576 O 336.301 4.14842 1.40846 0
M  V30 3577 C 337.802 3.27571 2.98684 0
M  V30 3578 H 335.022 0.586166 0.326574 0
M  V30 3579 H 337.566 2.00808 0.38683 0
M  V30 3580 H 335.721 2.70929 2.76905 0
M  V30 3581 H 336.135 4.81383 2.08255 0
M  V30 3582 H 337.609 4.13791 3.6535 0
M  V30 3583 H 338.086 2.44168 3.65074 0
M  V30 3584 H 338.692 3.52615 2.37787 0
M  V30 3585 N 337.007 -0.598083 1.45811 0
M  V30 3586 C 338.418 -1.18011 1.44673 0
M  V30 3587 C 338.769 -1.95378 0.179364 0
M  V30 3588 O 337.894 -2.04124 -0.718509 0
M  V30 3589 C 338.489 -2.14677 2.62105 0
M  V30 3590 C 337.048 -2.68236 2.64057 0
M  V30 3591 C 336.195 -1.43816 2.37091 0
M  V30 3592 H 339.146 -0.38686 1.53913 0
M  V30 3593 H 339.167 -2.97878 2.36746 0
M  V30 3594 H 338.679 -1.5834 3.5433 0
M  V30 3595 H 336.78 -3.28486 1.75864 0
M  V30 3596 H 336.893 -3.12021 3.63566 0
M  V30 3597 H 335.257 -1.731 1.86838 0
M  V30 3598 H 336.04 -0.893333 3.31473 0
M  V30 3599 N 338.485 -1.33259 -0.841409 0
M  V30 3600 C 339.395 -1.25332 -1.98316 0
M  V30 3601 C 340.411 -0.164364 -1.73222 0
M  V30 3602 O 341.587 -0.387486 -1.97637 0
M  V30 3603 C 338.652 -0.990078 -3.32262 0
M  V30 3604 C 337.713 -2.16879 -3.70489 0
M  V30 3605 C 336.946 -1.91801 -4.98044 0
M  V30 3606 O 337.169 -0.867075 -5.63771 0
M  V30 3607 O 336.103 -2.78267 -5.33714 0
M  V30 3608 H 339.929 -2.21344 -2.07944 0
M  V30 3609 H 337.514 -1.1328 -0.974058 0
M  V30 3610 H 339.396 -0.860321 -4.12524 0
M  V30 3611 H 338.071 -0.0602155 -3.23644 0
M  V30 3612 H 336.978 -2.35407 -2.90748 0
M  V30 3613 H 338.311 -3.0819 -3.8377 0
M  V30 3614 N 339.963 1.05934 -1.16686 0
M  V30 3615 C 341.212 1.78188 -0.945085 0
M  V30 3616 C 341.525 1.88338 0.528021 0
M  V30 3617 O 342.731 2.57258 0.867799 0
M  V30 3618 C 341.187 3.20277 -1.64167 0
M  V30 3619 C 340.795 3.18281 -3.15279 0
M  V30 3620 C 342.539 3.97039 -1.502 0
M  V30 3621 C 340.446 4.55112 -3.7766 0
M  V30 3622 H 339.376 0.667866 -0.349959 0
M  V30 3623 H 342.027 1.18794 -1.39858 0
M  V30 3624 H 340.409 3.79952 -1.11589 0
M  V30 3625 H 341.583 2.68167 -3.74731 0
M  V30 3626 H 339.898 2.55018 -3.29173 0
M  V30 3627 H 342.495 4.98194 -1.94183 0
M  V30 3628 H 342.838 4.13845 -0.451461 0
M  V30 3629 H 343.371 3.43894 -1.99954 0
M  V30 3630 H 340.11 4.43512 -4.82677 0
M  V30 3631 H 339.63 5.05406 -3.22994 0
M  V30 3632 H 341.309 5.24064 -3.79428 0
M  V30 3633 N 341.441 0.965919 1.2453 0
M  V30 3634 C 342.69 0.622437 1.91856 0
M  V30 3635 C 343.003 -0.846006 1.76358 0
M  V30 3636 O 344.209 -1.29993 2.38357 0
M  V30 3637 C 342.665 1.0626 3.43856 0
M  V30 3638 C 342.273 2.55437 3.68043 0
M  V30 3639 C 344.017 0.792183 4.17043 0
M  V30 3640 C 341.924 2.93196 5.13605 0
M  V30 3641 H 340.854 0.229092 0.718354 0
M  V30 3642 H 343.505 1.17189 1.41206 0
M  V30 3643 H 341.887 0.441476 3.93531 0
M  V30 3644 H 343.061 3.22665 3.28974 0
M  V30 3645 H 341.376 2.8007 3.08139 0
M  V30 3646 H 343.973 1.05031 5.24283 0
M  V30 3647 H 344.316 -0.271584 4.15413 0
M  V30 3648 H 344.849 1.37419 3.73311 0
M  V30 3649 H 341.588 3.98636 5.20355 0
M  V30 3650 H 341.108 2.30651 5.53679 0
M  V30 3651 H 342.787 2.83004 5.81823 0
M  V30 3652 N 342.919 -1.39368 0.735821 0
M  V30 3653 C 344.196 -1.94465 0.210395 0
M  V30 3654 C 344.576 -1.67254 -1.28799 0
M  V30 3655 O 343.924 -1.00123 -2.05396 0
M  V30 3656 C 344.134 -3.4472 0.544897 0
M  V30 3657 C 345.482 -4.21708 0.494689 0
M  V30 3658 O 346.506 -3.52922 0.482136 0
M  V30 3659 O 345.365 -5.44299 0.489947 0
M  V30 3660 H 342.459 -0.826096 0.0386666 0
M  V30 3661 H 345.005 -1.48863 0.814735 0
M  V30 3662 H 343.777 -3.57963 1.58045 0
M  V30 3663 H 343.4 -3.97502 -0.08837 0
M  V30 3664 N 344.397 -0.483516 -1.5 0
M  V30 3665 C 345.327 0.293829 -2.31644 0
M  V30 3666 C 346.308 0.978864 -1.39112 0
M  V30 3667 O 347.493 0.973644 -1.68029 0
M  V30 3668 C 344.623 1.36897 -3.19181 0
M  V30 3669 C 343.577 0.804833 -4.20365 0
M  V30 3670 C 342.903 1.9792 -4.96721 0
M  V30 3671 C 344.203 -0.192313 -5.21946 0
M  V30 3672 H 345.897 -0.387616 -2.9688 0
M  V30 3673 H 343.443 -0.187856 -1.42769 0
M  V30 3674 H 345.396 1.92037 -3.751 0
M  V30 3675 H 344.12 2.07936 -2.51853 0
M  V30 3676 H 342.779 0.275319 -3.65565 0
M  V30 3677 H 342.427 2.67686 -4.25856 0
M  V30 3678 H 342.127 1.60789 -5.65173 0
M  V30 3679 H 343.651 2.53526 -5.55479 0
M  V30 3680 H 345.065 0.270333 -5.72662 0
M  V30 3681 H 343.462 -0.478543 -5.98189 0
M  V30 3682 H 344.532 -1.11409 -4.71928 0
M  V30 3683 N 345.875 1.56104 -0.216619 0
M  V30 3684 C 347.105 2.02269 0.420802 0
M  V30 3685 C 347.513 1.09575 1.5424 0
M  V30 3686 O 346.856 0.0967308 1.83445 0
M  V30 3687 C 346.918 3.44784 1.01806 0
M  V30 3688 C 346.582 4.56988 0.0325154 0
M  V30 3689 C 347.579 5.14225 -0.766055 0
M  V30 3690 C 345.264 5.02228 -0.0848092 0
M  V30 3691 C 347.258 6.15169 -1.6687 0
M  V30 3692 C 344.945 6.03011 -0.990994 0
M  V30 3693 C 345.943 6.59357 -1.78149 0
M  V30 3694 O 345.631 7.58179 -2.67245 0
M  V30 3695 H 345.363 0.667353 0.107776 0
M  V30 3696 H 347.917 2.02747 -0.329034 0
M  V30 3697 H 346.147 3.41359 1.81689 0
M  V30 3698 H 347.836 3.74626 1.56237 0
M  V30 3699 H 348.602 4.80126 -0.685836 0
M  V30 3700 H 344.481 4.58054 0.520349 0
M  V30 3701 H 348.025 6.59076 -2.28615 0
M  V30 3702 H 343.922 6.36532 -1.07225 0
M  V30 3703 H 344.69 7.75682 -2.61265 0
M  V30 3704 N 347.353 -0.0568162 1.57498 0
M  V30 3705 C 348.578 -0.769402 1.92601 0
M  V30 3706 C 349.003 -1.69559 0.814336 0
M  V30 3707 O 348.361 -1.79811 -0.231903 0
M  V30 3708 C 348.409 -1.52634 3.26704 0
M  V30 3709 O 347.513 -2.63797 3.16994 0
M  V30 3710 H 346.854 -0.208909 0.63028 0
M  V30 3711 H 349.384 -0.0205798 2.0459 0
M  V30 3712 H 349.394 -1.90234 3.60936 0
M  V30 3713 H 348.069 -0.846875 4.07186 0
M  V30 3714 H 346.646 -2.28943 2.94346 0
M  V30 3715 N 348.832 -1.54138 -0.328536 0
M  V30 3716 C 349.78 -1.83894 -1.42428 0
M  V30 3717 C 350.774 -0.710478 -1.53781 0
M  V30 3718 O 351.98 -0.894062 -1.56226 0
M  V30 3719 H 348.355 -0.582837 -0.475189 0
M  V30 3720 H 350.326 -2.75537 -1.14552 0
M  V30 3721 C 349.075 -2.07866 -2.78724 0
M  V30 3722 H 348.398 -2.94158 -2.7076 0
M  V30 3723 H 349.838 -2.32644 -3.54476 0
M  V30 3724 C 348.297 -0.868689 -3.25508 0
M  V30 3725 O 348.827 -0.0754908 -4.01629 0
M  V30 3726 N 347.033 -0.681711 -2.82491 0
M  V30 3727 H 346.58 -1.32838 -2.20708 0
M  V30 3728 H 346.538 0.126374 -3.14146 0
M  V30 3729 N 350.31 0.590341 -1.46126 0
M  V30 3730 C 351.557 1.34882 -1.5104 0
M  V30 3731 C 351.885 1.93849 -0.159021 0
M  V30 3732 O 351.14 1.76544 0.844436 0
M  V30 3733 C 351.439 2.5032 -2.55097 0
M  V30 3734 C 351.105 2.09394 -3.99331 0
M  V30 3735 C 349.767 1.97947 -4.38601 0
M  V30 3736 C 352.119 1.77712 -4.89967 0
M  V30 3737 C 349.447 1.53065 -5.66381 0
M  V30 3738 C 351.799 1.34312 -6.18177 0
M  V30 3739 C 350.463 1.21436 -6.56361 0
M  V30 3740 H 349.733 0.493568 -0.552695 0
M  V30 3741 H 352.38 0.665539 -1.79563 0
M  V30 3742 H 350.685 3.24062 -2.20207 0
M  V30 3743 H 352.382 3.08541 -2.56132 0
M  V30 3744 H 348.972 2.19235 -3.68285 0
M  V30 3745 H 353.156 1.85445 -4.60352 0
M  V30 3746 H 348.412 1.41733 -5.94745 0
M  V30 3747 H 352.586 1.08849 -6.87841 0
M  V30 3748 H 350.213 0.864345 -7.5527 0
M  V30 3749 N 351.788 1.33704 0.83433 0
M  V30 3750 C 353.199 1.22813 1.4062 0
M  V30 3751 C 353.55 -0.151107 1.95617 0
M  V30 3752 O 352.675 -1.05092 1.89168 0
M  V30 3753 C 353.27 2.22355 2.55624 0
M  V30 3754 C 351.829 2.1529 3.08751 0
M  V30 3755 C 350.976 2.09589 1.8157 0
M  V30 3756 H 353.927 1.45236 0.639702 0
M  V30 3757 H 353.948 1.83391 3.33389 0
M  V30 3758 H 353.46 3.22728 2.15566 0
M  V30 3759 H 351.561 1.18235 3.53343 0
M  V30 3760 H 351.674 3.06038 3.68616 0
M  V30 3761 H 350.038 1.55134 2.02004 0
M  V30 3762 H 350.821 3.11777 1.43701 0
M  V30 3763 N 353.266 -1.05314 1.17247 0
M  V30 3764 C 354.515 -1.77685 0.954521 0
M  V30 3765 C 354.828 -1.88616 -0.518025 0
M  V30 3766 O 356.034 -2.57714 -0.854144 0
M  V30 3767 C 354.49 -3.19402 1.65863 0
M  V30 3768 C 354.098 -3.16605 3.16963 0
M  V30 3769 C 355.842 -3.96237 1.52303 0
M  V30 3770 C 353.749 -4.53103 3.80068 0
M  V30 3771 H 352.679 -0.666 0.353496 0
M  V30 3772 H 355.33 -1.1805 1.40486 0
M  V30 3773 H 353.712 -3.79355 1.13602 0
M  V30 3774 H 354.886 -2.66176 3.76148 0
M  V30 3775 H 353.201 -2.53268 3.30521 0
M  V30 3776 H 355.798 -4.97157 1.96822 0
M  V30 3777 H 356.141 -4.136 0.473401 0
M  V30 3778 H 356.674 -3.42829 2.01775 0
M  V30 3779 H 353.413 -4.40946 4.85023 0
M  V30 3780 H 352.933 -5.03686 3.2567 0
M  V30 3781 H 354.612 -5.22045 3.82202 0
M  V30 3782 N 354.744 -0.972509 -1.24016 0
M  V30 3783 C 355.992 -0.635776 -1.91839 0
M  V30 3784 C 356.313 0.832312 -1.76345 0
M  V30 3785 O 355.583 1.5946 -1.13795 0
M  V30 3786 H 354.163 -0.232157 -0.710009 0
M  V30 3787 H 356.825 -1.23462 -1.50809 0
M  V30 3788 H 355.921 -0.880545 -2.99421 0
M  V30 3789 N 356.222 1.38976 -0.743202 0
M  V30 3790 C 357.132 2.3434 -0.110399 0
M  V30 3791 C 358.148 1.58741 0.712559 0
M  V30 3792 O 359.324 1.9099 0.639125 0
M  V30 3793 C 356.389 3.37812 0.780012 0
M  V30 3794 C 355.45 4.29263 -0.0561319 0
M  V30 3795 C 354.683 5.27793 0.791875 0
M  V30 3796 O 354.906 5.33043 2.03031 0
M  V30 3797 O 353.84 6.01512 0.216183 0
M  V30 3798 H 357.666 2.90129 -0.897714 0
M  V30 3799 H 355.251 1.40643 -0.503966 0
M  V30 3800 H 357.133 4.01194 1.28923 0
M  V30 3801 H 355.808 2.84395 1.546 0
M  V30 3802 H 354.715 3.69076 -0.611056 0
M  V30 3803 H 356.048 4.85907 -0.784531 0
M  V30 3804 N 357.7 0.491464 1.49741 0
M  V30 3805 C 358.647 -0.292027 2.28945 0
M  V30 3806 C 359.617 -0.968973 1.34908 0
M  V30 3807 O 360.802 -0.97748 1.6386 0
M  V30 3808 C 357.942 -1.35617 3.17336 0
M  V30 3809 C 357.055 -0.691957 4.26422 0
M  V30 3810 C 356.19 -1.73572 5.02042 0
M  V30 3811 C 355.229 -1.05286 6.02977 0
M  V30 3812 N 354.366 -2.0404 6.71798 0
M  V30 3813 H 359.206 0.389654 2.95442 0
M  V30 3814 H 356.743 0.204003 1.45679 0
M  V30 3815 H 358.701 -1.98502 3.66951 0
M  V30 3816 H 357.331 -2.00674 2.52844 0
M  V30 3817 H 356.383 0.0499523 3.80367 0
M  V30 3818 H 357.695 -0.153946 4.98562 0
M  V30 3819 H 356.849 -2.43987 5.55478 0
M  V30 3820 H 355.588 -2.30757 4.29654 0
M  V30 3821 H 354.593 -0.334446 5.48782 0
M  V30 3822 H 355.818 -0.487636 6.77347 0
M  V30 3823 H 353.764 -2.60205 6.02187 0
M  V30 3824 H 353.681 -1.55279 7.39881 0
M  V30 3825 H 354.949 -2.73772 7.29842 0
M  V30 3826 N 359.178 -1.55987 0.224894 0
M  V30 3827 C 360.11 -2.17722 -0.716224 0
M  V30 3828 C 361.123 -1.14723 -1.15509 0
M  V30 3829 O 362.312 -1.41688 -1.08567 0
M  V30 3830 C 359.412 -2.74873 -1.98238 0
M  V30 3831 C 358.585 -4.03074 -1.69853 0
M  V30 3832 C 357.644 -4.44757 -2.81208 0
M  V30 3833 O 356.67 -5.11587 -2.49534 0
M  V30 3834 N 357.872 -4.10716 -4.10235 0
M  V30 3835 H 360.637 -2.99109 -0.188123 0
M  V30 3836 H 358.198 -1.6184 0.0440123 0
M  V30 3837 H 360.19 -2.99727 -2.7193 0
M  V30 3838 H 358.76 -1.9777 -2.42086 0
M  V30 3839 H 357.98 -3.86041 -0.797875 0
M  V30 3840 H 359.268 -4.86701 -1.48324 0
M  V30 3841 H 358.666 -3.57019 -4.38809 0
M  V30 3842 H 357.223 -4.40455 -4.80461 0
M  V30 3843 N 360.656 0.0484629 -1.57525 0
M  V30 3844 C 361.933 0.777447 -1.79486 0
M  V30 3845 C 362.313 1.94597 -0.818251 0
M  V30 3846 O 361.661 2.28047 0.143767 0
M  V30 3847 C 361.871 1.22864 -3.26658 0
M  V30 3848 C 363.219 1.65251 -3.91123 0
M  V30 3849 O 364.243 1.32372 -3.3069 0
M  V30 3850 O 363.102 2.26207 -4.97486 0
M  V30 3851 H 360.196 0.374357 -0.737419 0
M  V30 3852 H 362.742 0.0267359 -1.69679 0
M  V30 3853 H 361.514 0.393589 -3.89316 0
M  V30 3854 H 361.137 2.03996 -3.41279 0
M  V30 3855 N 362.134 1.5431 0.320358 0
M  V30 3856 C 363.383 1.7188 1.05546 0
M  V30 3857 C 363.696 0.501143 1.89071 0
M  V30 3858 O 364.902 0.558258 2.65699 0
M  V30 3859 C 363.358 3.04025 1.92605 0
M  V30 3860 C 362.966 4.33207 1.14176 0
M  V30 3861 C 364.71 3.30959 2.65832 0
M  V30 3862 C 362.617 5.56412 2.00399 0
M  V30 3863 H 361.547 0.640547 0.397763 0
M  V30 3864 H 364.198 1.80802 0.313522 0
M  V30 3865 H 362.58 2.89019 2.7071 0
M  V30 3866 H 363.754 4.58989 0.40819 0
M  V30 3867 H 362.069 4.13062 0.526165 0
M  V30 3868 H 364.666 4.20203 3.30656 0
M  V30 3869 H 365.009 2.48979 3.33639 0
M  V30 3870 H 365.542 3.46847 1.94787 0
M  V30 3871 H 362.281 6.41004 1.37094 0
M  V30 3872 H 361.801 5.34844 2.7148 0
M  V30 3873 H 363.48 5.92938 2.58908 0
M  V30 3874 N 363.613 -0.582584 1.46437 0
M  V30 3875 C 364.859 -1.34064 1.52965 0
M  V30 3876 C 365.214 -1.91566 0.178968 0
M  V30 3877 O 364.507 -1.73526 -0.812365 0
M  V30 3878 C 364.701 -2.48964 2.56421 0
M  V30 3879 C 364.53 -2.02717 4.01417 0
M  V30 3880 C 363.3 -1.87728 4.69134 0
M  V30 3881 C 365.498 -1.58675 4.8921 0
M  V30 3882 N 363.48 -1.35554 5.98747 0
M  V30 3883 C 364.851 -1.18093 6.08649 0
M  V30 3884 C 366.906 -1.46494 4.75861 0
M  V30 3885 C 365.609 -0.665427 7.16215 0
M  V30 3886 C 367.635 -0.96347 5.83499 0
M  V30 3887 C 366.997 -0.567432 7.02111 0
M  V30 3888 H 363.096 -0.483551 0.614575 0
M  V30 3889 H 365.68 -0.663309 1.83053 0
M  V30 3890 H 363.851 -3.1426 2.28244 0
M  V30 3891 H 365.583 -3.15913 2.52944 0
M  V30 3892 H 362.338 -2.09678 4.24655 0
M  V30 3893 H 362.762 -1.11628 6.67734 0
M  V30 3894 H 367.404 -1.75731 3.8455 0
M  V30 3895 H 365.122 -0.360639 8.07295 0
M  V30 3896 H 368.708 -0.873129 5.75211 0
M  V30 3897 H 367.588 -0.185389 7.83981 0
M  V30 3898 N 365.091 -1.34144 -0.827227 0
M  V30 3899 C 366.054 -1.25264 -1.91942 0
M  V30 3900 C 367.054 -0.168866 -1.59911 0
M  V30 3901 O 368.244 -0.421198 -1.69031 0
M  V30 3902 C 365.376 -0.932952 -3.27885 0
M  V30 3903 H 366.569 -2.22357 -2.0124 0
M  V30 3904 H 364.122 -1.1837 -1.0207 0
M  V30 3905 H 364.857 0.0349917 -3.24281 0
M  V30 3906 H 364.642 -1.71682 -3.52516 0
M  V30 3907 H 366.132 -0.895874 -4.07877 0
M  V30 3908 N 366.569 1.04691 -1.17803 0
M  V30 3909 C 367.499 2.14494 -0.92275 0
M  V30 3910 C 368.48 1.69546 0.137179 0
M  V30 3911 O 369.665 1.94195 -0.0141108 0
M  V30 3912 C 366.795 3.44491 -0.440803 0
M  V30 3913 C 365.749 4.03031 -1.4405 0
M  V30 3914 C 365.075 5.28432 -0.81631 0
M  V30 3915 C 366.375 4.39932 -2.81527 0
M  V30 3916 H 368.069 2.36107 -1.84103 0
M  V30 3917 H 365.615 1.1347 -0.886599 0
M  V30 3918 H 367.568 4.2066 -0.249602 0
M  V30 3919 H 366.292 3.22546 0.513025 0
M  V30 3920 H 364.951 3.28937 -1.61853 0
M  V30 3921 H 364.599 5.02792 0.144511 0
M  V30 3922 H 364.299 5.68559 -1.48371 0
M  V30 3923 H 365.823 6.07284 -0.635496 0
M  V30 3924 H 367.237 5.07113 -2.67412 0
M  V30 3925 H 365.634 4.9109 -3.44892 0
M  V30 3926 H 366.704 3.50045 -3.35554 0
M  V30 3927 N 368.047 0.979072 1.23499 0
M  V30 3928 C 369.295 0.645941 1.91499 0
M  V30 3929 C 369.616 -0.822948 1.76784 0
M  V30 3930 O 368.886 -1.58854 1.14639 0
M  V30 3931 H 367.466 0.235919 0.708767 0
M  V30 3932 H 370.128 1.2426 1.50152 0
M  V30 3933 H 369.224 0.896411 2.9895 0
M  V30 3934 N 369.525 -1.3858 0.750561 0
M  V30 3935 C 370.765 -2.02032 0.310258 0
M  V30 3936 C 371.129 -1.58288 -1.08668 0
M  V30 3937 O 372.33 -2.14049 -1.62593 0
M  V30 3938 C 370.601 -3.54856 0.425647 0
M  V30 3939 S 372.16 -4.38748 0.0674797 0
M  V30 3940 H 368.978 -0.700705 0.120554 0
M  V30 3941 H 371.58 -1.69134 0.980512 0
M  V30 3942 H 370.284 -3.84182 1.44335 0
M  V30 3943 H 369.815 -3.92527 -0.261894 0
M  V30 3944 H 371.83 -4.82835 -1.14388 0
M  V30 3945 N 371.003 -0.499398 -1.49478 0
M  V30 3946 C 372.252 0.0475259 -2.01644 0
M  V30 3947 C 372.565 1.38195 -1.38425 0
M  V30 3948 O 373.771 2.01547 -1.8191 0
M  V30 3949 C 372.227 0.135164 -3.59646 0
M  V30 3950 C 371.835 -1.19252 -4.31837 0
M  V30 3951 C 373.579 0.632538 -4.19761 0
M  V30 3952 C 371.486 -1.06713 -5.81693 0
M  V30 3953 H 370.416 0.0215349 -0.753692 0
M  V30 3954 H 373.067 -0.638577 -1.7203 0
M  V30 3955 H 371.449 0.885681 -3.85969 0
M  V30 3956 H 372.623 -1.9562 -4.17216 0
M  V30 3957 H 370.938 -1.62321 -3.83459 0
M  V30 3958 H 373.535 0.743833 -5.29501 0
M  V30 3959 H 373.878 1.63098 -3.83021 0
M  V30 3960 H 374.411 -0.0613987 -3.97753 0
M  V30 3961 H 371.15 -2.03979 -6.22955 0
M  V30 3962 H 370.67 -0.344307 -5.98811 0
M  V30 3963 H 372.349 -0.745208 -6.42694 0
M  V30 3964 N 372.481 1.55866 -0.233164 0
M  V30 3965 C 373.411 2.23783 0.666599 0
M  V30 3966 C 374.392 1.21343 1.19205 0
M  V30 3967 O 375.577 1.4996 1.23392 0
M  V30 3968 C 372.707 2.92671 1.86978 0
M  V30 3969 C 371.661 4.01682 1.47768 0
M  V30 3970 C 370.987 4.57926 2.76058 0
M  V30 3971 C 372.287 5.18126 0.658993 0
M  V30 3972 H 373.981 2.99232 0.100306 0
M  V30 3973 H 371.527 1.43924 0.046804 0
M  V30 3974 H 373.48 3.3888 2.50476 0
M  V30 3975 H 372.204 2.14688 2.46123 0
M  V30 3976 H 370.863 3.56222 0.866106 0
M  V30 3977 H 370.511 3.76659 3.33372 0
M  V30 3978 H 370.211 5.31505 2.50552 0
M  V30 3979 H 371.735 5.06859 3.40479 0
M  V30 3980 H 373.149 5.60644 1.19795 0
M  V30 3981 H 371.546 5.98009 0.500552 0
M  V30 3982 H 372.616 4.83763 -0.331856 0
M  V30 3983 N 373.959 -0.0401083 1.57549 0
M  V30 3984 C 375.189 -0.744115 1.92734 0
M  V30 3985 C 375.597 -1.70005 0.830348 0
M  V30 3986 O 374.94 -1.82576 -0.20286 0
M  V30 3987 C 375.002 -1.56516 3.2364 0
M  V30 3988 C 374.666 -0.7752 4.50377 0
M  V30 3989 C 375.663 -0.0803326 5.19838 0
M  V30 3990 C 373.348 -0.733002 4.96923 0
M  V30 3991 C 375.342 0.646154 6.34116 0
M  V30 3992 C 373.029 -0.00276321 6.111 0
M  V30 3993 C 374.027 0.685585 6.7955 0
M  V30 3994 O 373.715 1.40399 7.91545 0
M  V30 3995 H 373.447 -0.214861 0.640945 0
M  V30 3996 H 376.001 -0.00503675 2.05399 0
M  V30 3997 H 374.231 -2.3478 3.07271 0
M  V30 3998 H 375.92 -2.15076 3.44234 0
M  V30 3999 H 376.686 -0.104035 4.84888 0
M  V30 4000 H 372.565 -1.25827 4.43496 0
M  V30 4001 H 376.109 1.18398 6.87479 0
M  V30 4002 H 372.006 0.0229012 6.45496 0
M  V30 4003 H 372.774 1.31653 8.07843 0
M  V30 4004 N 375.437 -1.54477 -0.31217 0
M  V30 4005 C 376.367 -1.87652 -1.38957 0
M  V30 4006 C 377.348 -0.734358 -1.53431 0
M  V30 4007 O 378.533 -0.98911 -1.67123 0
M  V30 4008 C 375.663 -2.11396 -2.75552 0
M  V30 4009 C 374.617 -3.27243 -2.75855 0
M  V30 4010 C 373.943 -3.36382 -4.15633 0
M  V30 4011 C 375.243 -4.64622 -2.38587 0
M  V30 4012 H 376.937 -2.77887 -1.11442 0
M  V30 4013 H 374.483 -1.33707 -0.534655 0
M  V30 4014 H 376.436 -2.33189 -3.51 0
M  V30 4015 H 375.16 -1.17921 -3.04569 0
M  V30 4016 H 373.819 -3.05356 -2.02863 0
M  V30 4017 H 373.467 -2.40445 -4.41809 0
M  V30 4018 H 373.167 -4.14249 -4.1674 0
M  V30 4019 H 374.691 -3.60422 -4.92877 0
M  V30 4020 H 376.105 -4.86219 -3.03749 0
M  V30 4021 H 374.502 -5.45121 -2.50925 0
M  V30 4022 H 375.572 -4.66097 -1.33723 0
M  V30 4023 N 376.915 0.57481 -1.46744 0
M  V30 4024 C 377.845 1.69337 -1.60771 0
M  V30 4025 C 378.826 1.63825 -0.457736 0
M  V30 4026 O 380.011 1.8172 -0.684947 0
M  V30 4027 C 377.141 3.0798 -1.60517 0
M  V30 4028 C 376.095 3.28327 -2.74564 0
M  V30 4029 C 375.421 4.67578 -2.59373 0
M  V30 4030 C 376.721 3.15398 -4.16319 0
M  V30 4031 H 378.415 1.57853 -2.54407 0
M  V30 4032 H 375.961 0.75799 -1.22436 0
M  V30 4033 H 377.914 3.86061 -1.68923 0
M  V30 4034 H 376.638 3.20381 -0.634305 0
M  V30 4035 H 375.297 2.52649 -2.65639 0
M  V30 4036 H 374.945 4.76755 -1.60353 0
M  V30 4037 H 374.645 4.82144 -3.35873 0
M  V30 4038 H 376.169 5.47817 -2.69682 0
M  V30 4039 H 377.583 3.83315 -4.26313 0
M  V30 4040 H 375.98 3.41482 -4.93468 0
M  V30 4041 H 377.05 2.12372 -4.3592 0
M  V30 4042 N 378.394 1.34581 0.820102 0
M  V30 4043 C 379.634 1.28448 1.58998 0
M  V30 4044 C 379.998 -0.142883 1.91468 0
M  V30 4045 O 381.199 -0.328422 2.66786 0
M  V30 4046 C 379.47 2.153 2.85273 0
M  V30 4047 S 381.029 2.26548 3.75794 0
M  V30 4048 H 377.847 0.456685 0.54494 0
M  V30 4049 H 380.449 1.69825 0.968487 0
M  V30 4050 H 379.153 3.18008 2.59421 0
M  V30 4051 H 378.684 1.7483 3.52417 0
M  V30 4052 H 380.699 1.44034 4.74835 0
M  V30 4053 N 379.872 -1.04064 1.18357 0
M  V30 4054 C 381.119 -1.77265 0.978947 0
M  V30 4055 C 381.447 -1.88189 -0.491428 0
M  V30 4056 O 380.702 -1.38653 -1.38108 0
M  V30 4057 C 381.001 -3.20634 1.57888 0
M  V30 4058 C 380.667 -3.29743 3.07539 0
M  V30 4059 C 379.329 -3.31937 3.48384 0
M  V30 4060 C 381.681 -3.29841 4.03552 0
M  V30 4061 C 379.009 -3.3187 4.83818 0
M  V30 4062 C 381.361 -3.31313 5.38901 0
M  V30 4063 C 380.025 -3.31799 5.79194 0
M  V30 4064 H 379.295 -0.648659 0.358222 0
M  V30 4065 H 381.942 -1.22225 1.47422 0
M  V30 4066 H 380.247 -3.78675 1.00561 0
M  V30 4067 H 381.944 -3.75917 1.39598 0
M  V30 4068 H 378.534 -3.28757 2.74986 0
M  V30 4069 H 382.718 -3.27337 3.73047 0
M  V30 4070 H 377.974 -3.30562 5.14333 0
M  V30 4071 H 382.148 -3.30338 6.13066 0
M  V30 4072 H 379.775 -3.315 6.84114 0
M  V30 4073 N 381.35 -0.985608 -1.22978 0
M  V30 4074 C 382.766 -0.695104 -1.43668 0
M  V30 4075 C 382.966 0.736866 -1.87543 0
M  V30 4076 O 382.022 1.50868 -2.02473 0
M  V30 4077 C 383.335 -1.69447 -2.48412 0
M  V30 4078 C 384.883 -1.70909 -2.62219 0
M  V30 4079 C 385.358 -2.6969 -3.70178 0
M  V30 4080 N 386.849 -2.6824 -3.77626 0
M  V30 4081 C 387.584 -3.41339 -4.60733 0
M  V30 4082 N 387.08 -4.24015 -5.4789 0
M  V30 4083 N 388.873 -3.30079 -4.54977 0
M  V30 4084 H 381.024 -1.91054 -0.928016 0
M  V30 4085 H 383.287 -0.823553 -0.469536 0
M  V30 4086 H 382.993 -2.7188 -2.23102 0
M  V30 4087 H 382.867 -1.48147 -3.46889 0
M  V30 4088 H 385.254 -0.691785 -2.86877 0
M  V30 4089 H 385.335 -1.96276 -1.6404 0
M  V30 4090 H 384.979 -3.71566 -3.46268 0
M  V30 4091 H 384.909 -2.41595 -4.67909 0
M  V30 4092 H 387.4 -2.08243 -3.15346 0
M  V30 4093 H 387.713 -4.76636 -6.08308 0
M  V30 4094 H 386.058 -4.28104 -5.47496 0
M  V30 4095 H 389.249 -2.64937 -3.85909 0
M  V30 4096 H 389.422 -3.87308 -5.19516 0
M  V30 4097 N 382.828 1.3818 -0.7579 0
M  V30 4098 C 383.76 2.2901 -0.0932177 0
M  V30 4099 C 384.773 1.47958 0.679136 0
M  V30 4100 O 385.962 1.70773 0.519514 0
M  V30 4101 C 383.062 3.26953 0.89192 0
M  V30 4102 C 382.235 4.37045 0.176303 0
M  V30 4103 C 381.294 5.15148 1.07281 0
M  V30 4104 O 380.32 5.66616 0.541728 0
M  V30 4105 N 381.522 5.28542 2.40049 0
M  V30 4106 H 384.287 2.86694 -0.873303 0
M  V30 4107 H 381.848 1.50007 -0.609054 0
M  V30 4108 H 383.84 3.76083 1.49479 0
M  V30 4109 H 382.41 2.70136 1.57306 0
M  V30 4110 H 381.63 3.89493 -0.607328 0
M  V30 4111 H 382.918 5.07801 -0.318718 0
M  V30 4112 H 382.316 4.88285 2.85647 0
M  V30 4113 H 380.873 5.8103 2.95376 0
M  V30 4114 N 384.306 0.507319 1.49211 0
M  V30 4115 C 385.256 -0.287112 2.26185 0
M  V30 4116 C 386.24 -0.929983 1.31302 0
M  V30 4117 O 387.432 -0.836538 1.55984 0
M  V30 4118 C 384.561 -1.34718 3.15763 0
M  V30 4119 C 383.647 -0.710235 4.18111 0
M  V30 4120 N 384.038 0.190836 5.0544 0
M  V30 4121 C 382.336 -0.97009 4.35322 0
M  V30 4122 C 383.037 0.55606 5.79036 0
M  V30 4123 N 382.013 -0.0775232 5.43545 0
M  V30 4124 H 385.815 0.406445 2.91076 0
M  V30 4125 H 383.329 0.323814 1.59139 0
M  V30 4126 H 385.326 -1.92982 3.69545 0
M  V30 4127 H 383.986 -2.04235 2.52424 0
M  V30 4128 H 384.997 0.562047 5.14841 0
M  V30 4129 H 381.674 -1.65753 3.83187 0
M  V30 4130 H 383.064 1.2936 6.5933 0
M  V30 4131 N 385.784 -1.5574 0.241426 0
M  V30 4132 C 387.195 -1.84842 -0.262755 0
M  V30 4133 C 387.546 -1.16317 -1.58003 0
M  V30 4134 O 386.671 -0.439653 -2.11887 0
M  V30 4135 C 387.266 -3.35332 -0.483523 0
M  V30 4136 C 385.825 -3.6468 -0.931977 0
M  V30 4137 C 384.972 -2.77299 -0.0061151 0
M  V30 4138 H 387.923 -1.51761 0.464129 0
M  V30 4139 H 387.944 -3.56615 -1.32688 0
M  V30 4140 H 387.456 -3.85178 0.47537 0
M  V30 4141 H 385.557 -3.20307 -1.90353 0
M  V30 4142 H 385.67 -4.72498 -0.792628 0
M  V30 4143 H 384.034 -2.49408 -0.516503 0
M  V30 4144 H 384.817 -3.2995 0.948052 0
M  V30 4145 N 387.262 0.0317525 -1.57568 0
M  V30 4146 C 388.509 0.723104 -1.89149 0
M  V30 4147 C 388.837 1.75504 -0.838377 0
M  V30 4148 O 388.092 1.95037 0.160982 0
M  V30 4149 C 388.391 1.43167 -3.27472 0
M  V30 4150 C 388.057 0.535972 -4.47703 0
M  V30 4151 C 386.719 0.289262 -4.8033 0
M  V30 4152 C 389.071 -0.0826125 -5.21135 0
M  V30 4153 C 386.399 -0.584853 -5.83778 0
M  V30 4154 C 388.751 -0.944414 -6.25511 0
M  V30 4155 C 387.415 -1.20061 -6.56614 0
M  V30 4156 H 386.685 0.264602 -0.692146 0
M  V30 4157 H 389.332 -0.0169496 -1.91492 0
M  V30 4158 H 387.637 2.24497 -3.21105 0
M  V30 4159 H 389.334 1.97209 -3.49155 0
M  V30 4160 H 385.924 0.738414 -4.22191 0
M  V30 4161 H 390.108 0.0950302 -4.96209 0
M  V30 4162 H 385.364 -0.79168 -6.06253 0
M  V30 4163 H 389.538 -1.43026 -6.81554 0
M  V30 4164 H 387.165 -1.87967 -7.36595 0
M  V30 4165 N 388.74 1.54641 0.303973 0
M  V30 4166 C 389.65 1.88439 1.39743 0
M  V30 4167 C 390.666 0.778239 1.55626 0
M  V30 4168 O 391.842 1.07442 1.70347 0
M  V30 4169 C 388.907 2.12212 2.74166 0
M  V30 4170 C 387.968 3.35936 2.67293 0
M  V30 4171 C 387.201 3.58566 3.95305 0
M  V30 4172 O 387.424 2.84263 4.9452 0
M  V30 4173 O 386.358 4.52078 3.97378 0
M  V30 4174 H 390.184 2.81458 1.14083 0
M  V30 4175 H 387.769 1.40793 0.499768 0
M  V30 4176 H 389.651 2.29067 3.53704 0
M  V30 4177 H 388.326 1.22379 2.99675 0
M  V30 4178 H 387.233 3.24448 1.86237 0
M  V30 4179 H 388.566 4.2589 2.46736 0
M  V30 4180 N 390.218 -0.567019 1.47046 0
M  V30 4181 C 391.495 -1.3276 1.43646 0
M  V30 4182 C 391.875 -2.1071 0.128186 0
M  V30 4183 O 391.223 -2.10441 -0.890326 0
M  V30 4184 C 391.433 -2.2404 2.67595 0
M  V30 4185 C 392.781 -2.85372 3.14401 0
M  V30 4186 O 393.805 -2.34346 2.68254 0
M  V30 4187 O 392.664 -3.78091 3.946 0
M  V30 4188 H 389.758 -0.597293 0.571988 0
M  V30 4189 H 392.304 -0.586735 1.59234 0
M  V30 4190 H 391.076 -1.65975 3.54356 0
M  V30 4191 H 390.699 -3.05439 2.54544 0
M  V30 4192 N 391.696 -1.35014 -0.812953 0
M  V30 4193 C 392.944 -1.27678 -1.56661 0
M  V30 4194 C 393.265 0.150359 -1.94419 0
M  V30 4195 O 392.535 1.08532 -1.63088 0
M  V30 4196 H 391.115 -0.469602 -0.580933 0
M  V30 4197 H 393.777 -1.69043 -0.970076 0
M  V30 4198 H 392.873 -1.88833 -2.48492 0
M  V30 4199 N 393.175 1.03435 -1.18907 0
M  V30 4200 C 394.138 2.09756 -0.923844 0
M  V30 4201 C 395.138 1.60528 0.093416 0
M  V30 4202 O 396.328 1.73631 -0.140727 0
M  V30 4203 C 393.46 3.38692 -0.387354 0
M  V30 4204 H 394.653 2.34719 -1.86674 0
M  V30 4205 H 392.206 1.19959 -1.00197 0
M  V30 4206 H 392.941 3.19396 0.561845 0
M  V30 4207 H 392.726 3.75742 -1.12074 0
M  V30 4208 H 394.216 4.17016 -0.220694 0
M  V30 4209 N 394.653 0.992116 1.22453 0
M  V30 4210 C 395.6 0.541731 2.24352 0
M  V30 4211 C 396.57 -0.425519 1.60557 0
M  V30 4212 O 397.755 -0.330453 1.87917 0
M  V30 4213 C 394.895 -0.138248 3.44823 0
M  V30 4214 C 394.008 0.870649 4.23136 0
M  V30 4215 C 393.143 0.164269 5.30946 0
M  V30 4216 C 392.182 1.16159 6.00977 0
M  V30 4217 N 391.319 0.483568 7.00433 0
M  V30 4218 H 396.159 1.41541 2.62241 0
M  V30 4219 H 393.696 0.709013 1.28885 0
M  V30 4220 H 395.654 -0.5494 4.13567 0
M  V30 4221 H 394.284 -0.975721 3.077 0
M  V30 4222 H 393.336 1.40013 3.53696 0
M  V30 4223 H 394.648 1.63014 4.7141 0
M  V30 4224 H 393.802 -0.303653 6.0594 0
M  V30 4225 H 392.541 -0.627733 4.83643 0
M  V30 4226 H 391.546 1.64015 5.24766 0
M  V30 4227 H 392.771 1.95445 6.50368 0
M  V30 4228 H 390.717 -0.289012 6.55363 0
M  V30 4229 H 390.634 1.18152 7.4671 0
M  V30 4230 H 391.902 0.0384219 7.79491 0
M  V30 4231 N 396.131 -1.37776 0.765217 0
M  V30 4232 C 397.061 -2.32945 0.160953 0
M  V30 4233 C 398.042 -1.55454 -0.690516 0
M  V30 4234 O 399.227 -1.83721 -0.629318 0
M  V30 4235 C 396.357 -3.39669 -0.724031 0
M  V30 4236 C 395.311 -4.27992 0.0256173 0
M  V30 4237 C 394.637 -5.25673 -0.978383 0
M  V30 4238 C 395.937 -5.08309 1.20082 0
M  V30 4239 H 397.631 -2.83728 0.955969 0
M  V30 4240 H 395.177 -1.36416 0.461149 0
M  V30 4241 H 397.13 -4.05219 -1.15652 0
M  V30 4242 H 395.854 -2.87396 -1.5515 0
M  V30 4243 H 394.513 -3.63964 0.438812 0
M  V30 4244 H 394.161 -4.69682 -1.80022 0
M  V30 4245 H 393.861 -5.85625 -0.481378 0
M  V30 4246 H 395.385 -5.94098 -1.40995 0
M  V30 4247 H 396.799 -5.67034 0.845307 0
M  V30 4248 H 395.196 -5.77554 1.62947 0
M  V30 4249 H 396.266 -4.41365 2.00811 0
M  V30 4250 N 397.609 -0.515225 -1.4894 0
M  V30 4251 C 399.025 -0.172099 -1.58669 0
M  V30 4252 C 399.225 1.32405 -1.51892 0
M  V30 4253 O 398.281 2.10116 -1.40027 0
M  V30 4254 C 399.594 -0.761533 -2.90897 0
M  V30 4255 C 401.142 -0.728926 -3.04394 0
M  V30 4256 C 401.617 -1.29667 -4.39261 0
M  V30 4257 N 403.108 -1.25799 -4.4579 0
M  V30 4258 C 403.843 -1.66733 -5.48623 0
M  V30 4259 N 403.339 -2.15327 -6.58488 0
M  V30 4260 N 405.132 -1.58061 -5.39419 0
M  V30 4261 H 397.283 -1.48778 -1.51588 0
M  V30 4262 H 399.546 -0.617968 -0.718901 0
M  V30 4263 H 399.252 -1.81136 -3.01468 0
M  V30 4264 H 399.126 -0.230106 -3.76497 0
M  V30 4265 H 401.513 0.312098 -2.93445 0
M  V30 4266 H 401.594 -1.29766 -2.20442 0
M  V30 4267 H 401.238 -2.33655 -4.50963 0
M  V30 4268 H 401.168 -0.703752 -5.21876 0
M  V30 4269 H 403.659 -0.902102 -3.66975 0
M  V30 4270 H 403.972 -2.44594 -7.33071 0
M  V30 4271 H 402.317 -2.19311 -6.59491 0
M  V30 4272 H 405.508 -1.19906 -4.52482 0
M  V30 4273 H 405.681 -1.90284 -6.19432 0
M  V30 4274 N 399.087 1.5561 -0.249682 0
M  V30 4275 C 400.336 1.98187 0.37479 0
M  V30 4276 C 400.649 1.14111 1.58865 0
M  V30 4277 O 401.855 1.46714 2.28445 0
M  V30 4278 C 400.311 3.52661 0.718192 0
M  V30 4279 C 399.919 4.45481 -0.474428 0
M  V30 4280 C 401.663 4.03888 1.3067 0
M  V30 4281 C 399.57 5.91303 -0.107026 0
M  V30 4282 H 398.5 0.740159 0.143808 0
M  V30 4283 H 401.151 1.80125 -0.350336 0
M  V30 4284 H 399.533 3.66429 1.50152 0
M  V30 4285 H 400.707 4.43473 -1.25172 0
M  V30 4286 H 399.022 4.04751 -0.978052 0
M  V30 4287 H 401.619 5.10358 1.59496 0
M  V30 4288 H 401.962 3.51401 2.23211 0
M  V30 4289 H 402.495 3.93457 0.586211 0
M  V30 4290 H 399.234 6.47833 -0.999642 0
M  V30 4291 H 398.754 5.9644 0.634013 0
M  V30 4292 H 400.433 6.46258 0.309807 0
M  V30 4293 N 400.565 -0.0233959 1.57583 0
M  V30 4294 C 401.811 -0.714119 1.89811 0
M  V30 4295 C 402.144 -1.74702 0.848113 0
M  V30 4296 O 401.419 -1.94023 -0.136135 0
M  V30 4297 C 401.702 -1.37853 3.32669 0
M  V30 4298 C 401.555 -0.358764 4.48367 0
M  V30 4299 C 402.874 -2.31101 3.7454 0
M  V30 4300 H 399.993 -0.25814 0.690314 0
M  V30 4301 H 402.635 0.0230927 1.89986 0
M  V30 4302 H 400.785 -2.00689 3.3265 0
M  V30 4303 H 402.457 0.268115 4.6052 0
M  V30 4304 H 400.7 0.321387 4.32608 0
M  V30 4305 H 401.371 -0.862242 5.45224 0
M  V30 4306 H 403.847 -1.78304 3.75961 0
M  V30 4307 H 402.723 -2.74567 4.75294 0
M  V30 4308 H 402.984 -3.18018 3.0711 0
M  V30 4309 N 402.043 -1.548 -0.295768 0
M  V30 4310 C 402.991 -1.86874 -1.38495 0
M  V30 4311 C 403.985 -0.742938 -1.52239 0
M  V30 4312 O 405.191 -0.926999 -1.54294 0
M  V30 4313 H 401.566 -0.592786 -0.462719 0
M  V30 4314 H 403.537 -2.77904 -1.08682 0
M  V30 4315 C 402.286 -2.13732 -2.74252 0
M  V30 4316 H 401.609 -2.99835 -2.64459 0
M  V30 4317 H 403.049 -2.4011 -3.49461 0
M  V30 4318 C 401.508 -0.937539 -3.23592 0
M  V30 4319 O 402.038 -0.160665 -4.01379 0
M  V30 4320 N 400.244 -0.741478 -2.80981 0
M  V30 4321 H 399.791 -1.37489 -2.1784 0
M  V30 4322 H 399.749 0.0597103 -3.14343 0
M  V30 4323 N 403.521 0.559213 -1.47345 0
M  V30 4324 C 404.769 1.31388 -1.53563 0
M  V30 4325 C 405.09 1.93985 -0.198678 0
M  V30 4326 O 404.36 1.79825 0.777167 0
M  V30 4327 H 402.94 0.487901 -0.565652 0
M  V30 4328 H 405.602 0.65315 -1.8363 0
M  V30 4329 H 404.698 2.10844 -2.30111 0
M  V30 4330 N 404.999 1.35443 0.805782 0
M  V30 4331 C 405.946 1.28431 1.91766 0
M  V30 4332 C 406.916 0.156102 1.65365 0
M  V30 4333 O 408.101 0.339936 1.87747 0
M  V30 4334 C 405.241 1.06301 3.2832 0
M  V30 4335 C 404.354 2.2805 3.66902 0
M  V30 4336 C 403.489 1.99064 4.92491 0
M  V30 4337 C 402.528 3.16863 5.23703 0
M  V30 4338 N 401.665 2.87647 6.40471 0
M  V30 4339 H 406.505 2.23511 1.97096 0
M  V30 4340 H 404.042 1.11105 0.964054 0
M  V30 4341 H 406 0.915012 4.07042 0
M  V30 4342 H 404.63 0.148822 3.22457 0
M  V30 4343 H 403.682 2.53711 2.83434 0
M  V30 4344 H 404.994 3.1601 3.85927 0
M  V30 4345 H 404.148 1.81099 5.7904 0
M  V30 4346 H 402.887 1.0839 4.75503 0
M  V30 4347 H 401.892 3.35404 4.35642 0
M  V30 4348 H 403.117 4.08339 5.4262 0
M  V30 4349 H 401.063 1.99568 6.24907 0
M  V30 4350 H 400.98 3.69141 6.59751 0
M  V30 4351 H 402.248 2.73226 7.30047 0
M  V30 4352 N 406.477 -1.02803 1.19454 0
M  V30 4353 C 407.707 -1.79581 1.02149 0
M  V30 4354 C 408.115 -1.84182 -0.432851 0
M  V30 4355 O 407.458 -1.28534 -1.31243 0
M  V30 4356 C 407.52 -3.25993 1.51554 0
M  V30 4357 C 407.184 -3.45025 2.99678 0
M  V30 4358 C 408.181 -3.35175 3.97434 0
M  V30 4359 C 405.866 -3.71212 3.38389 0
M  V30 4360 C 407.86 -3.51238 5.31893 0
M  V30 4361 C 405.547 -3.8692 4.73008 0
M  V30 4362 C 406.545 -3.76936 5.69569 0
M  V30 4363 O 406.233 -3.92179 7.01748 0
M  V30 4364 H 405.965 -0.571962 0.360327 0
M  V30 4365 H 408.519 -1.30367 1.58725 0
M  V30 4366 H 406.749 -3.76235 0.893543 0
M  V30 4367 H 408.438 -3.84368 1.30444 0
M  V30 4368 H 409.204 -3.14895 3.68872 0
M  V30 4369 H 405.083 -3.78075 2.6378 0
M  V30 4370 H 408.627 -3.43362 6.07247 0
M  V30 4371 H 404.524 -4.06699 5.01265 0
M  V30 4372 H 405.292 -4.09265 7.08833 0
M  V30 4373 N 407.956 -0.998596 -1.21925 0
M  V30 4374 C 409.181 -0.696015 -1.95372 0
M  V30 4375 C 409.606 0.733826 -1.73195 0
M  V30 4376 O 408.964 1.50242 -1.01474 0
M  V30 4377 C 409.012 -1.01466 -3.4603 0
M  V30 4378 O 408.116 -0.116415 -4.12236 0
M  V30 4379 H 407.457 -0.259938 -0.611006 0
M  V30 4380 H 409.987 -1.33711 -1.54863 0
M  V30 4381 H 409.997 -0.958855 -3.96573 0
M  V30 4382 H 408.672 -2.05653 -3.61497 0
M  V30 4383 H 407.249 -0.228193 -3.72201 0
M  V30 4384 N 409.434 1.37368 -0.772513 0
M  V30 4385 C 410.683 1.98918 -0.333861 0
M  V30 4386 C 410.996 1.62017 1.09589 0
M  V30 4387 O 412.202 2.16676 1.63596 0
M  V30 4388 C 410.658 3.55735 -0.545971 0
M  V30 4389 C 410.266 4.01573 -1.98603 0
M  V30 4390 C 412.01 4.24156 -0.170979 0
M  V30 4391 C 409.917 5.51102 -2.1457 0
M  V30 4392 H 408.847 0.744214 -0.121085 0
M  V30 4393 H 411.498 1.56888 -0.95175 0
M  V30 4394 H 409.88 3.95748 0.141387 0
M  V30 4395 H 411.054 3.72803 -2.7084 0
M  V30 4396 H 409.369 3.45937 -2.31769 0
M  V30 4397 H 411.966 5.34024 -0.26878 0
M  V30 4398 H 412.309 4.06917 0.878855 0
M  V30 4399 H 412.842 3.89447 -0.810914 0
M  V30 4400 H 409.581 5.73268 -3.17875 0
M  V30 4401 H 409.101 5.81554 -1.46817 0
M  V30 4402 H 410.78 6.17083 -1.94468 0
M  V30 4403 N 410.912 0.523116 1.48665 0
M  V30 4404 C 412.323 0.0808997 1.86525 0
M  V30 4405 C 412.674 -1.33975 1.43336 0
M  V30 4406 O 411.799 -2.00221 0.821009 0
M  V30 4407 C 412.394 0.140037 3.3851 0
M  V30 4408 C 410.953 -0.246948 3.75589 0
M  V30 4409 C 410.1 0.502845 2.72703 0
M  V30 4410 H 413.051 0.734736 1.40667 0
M  V30 4411 H 413.072 -0.649945 3.74908 0
M  V30 4412 H 412.584 1.17412 3.69914 0
M  V30 4413 H 410.685 -1.28343 3.49798 0
M  V30 4414 H 410.798 0.0878859 4.79019 0
M  V30 4415 H 409.162 -0.0500581 2.54651 0
M  V30 4416 H 409.945 1.53743 3.0695 0
M  V30 4417 N 412.39 -1.55475 0.257931 0
M  V30 4418 C 413.801 -1.8511 -0.243135 0
M  V30 4419 C 414.152 -1.17986 -1.5676 0
M  V30 4420 O 413.277 -0.462102 -2.11409 0
M  V30 4421 C 413.872 -3.35826 -0.447929 0
M  V30 4422 C 412.431 -3.65647 -0.893245 0
M  V30 4423 C 411.578 -2.7729 0.0232965 0
M  V30 4424 H 414.529 -1.51261 0.480199 0
M  V30 4425 H 414.55 -3.58002 -1.28898 0
M  V30 4426 H 414.062 -3.84652 0.516196 0
M  V30 4427 H 412.163 -3.22308 -1.86945 0
M  V30 4428 H 412.276 -4.73312 -0.742469 0
M  V30 4429 H 410.64 -2.49942 -0.490021 0
M  V30 4430 H 411.423 -3.28926 0.982994 0
M  V30 4431 N 413.868 0.0150385 -1.57593 0
M  V30 4432 C 414.818 1.01943 -2.0394 0
M  V30 4433 C 415.802 1.31209 -0.931286 0
M  V30 4434 O 416.994 1.30559 -1.19513 0
M  V30 4435 C 414.123 2.31621 -2.53391 0
M  V30 4436 C 413.209 2.05384 -3.7105 0
M  V30 4437 N 413.6 1.49253 -4.83278 0
M  V30 4438 C 411.898 2.35601 -3.78693 0
M  V30 4439 C 412.599 1.39143 -5.64813 0
M  V30 4440 N 411.575 1.87187 -5.10355 0
M  V30 4441 H 415.377 0.57969 -2.88126 0
M  V30 4442 H 412.891 0.221056 -1.60888 0
M  V30 4443 H 414.888 3.044 -2.84862 0
M  V30 4444 H 413.548 2.76261 -1.70616 0
M  V30 4445 H 414.559 1.17334 -5.04433 0
M  V30 4446 H 411.236 2.8322 -3.06746 0
M  V30 4447 H 412.626 0.961153 -6.6499 0
M  V30 4448 N 415.346 1.54954 0.287554 0
M  V30 4449 C 416.623 1.65569 1.04146 0
M  V30 4450 C 417.003 0.512672 2.0478 0
M  V30 4451 O 416.351 -0.489038 2.23205 0
M  V30 4452 C 416.561 3.04163 1.71131 0
M  V30 4453 C 417.909 3.61429 2.22832 0
M  V30 4454 O 418.933 3.06702 1.81141 0
M  V30 4455 O 417.792 4.57281 2.9926 0
M  V30 4456 H 414.886 0.671881 0.482188 0
M  V30 4457 H 417.432 1.67297 0.28457 0
M  V30 4458 H 416.204 3.78796 0.981303 0
M  V30 4459 H 415.827 3.06271 2.53543 0
M  V30 4460 N 416.824 -0.551391 1.4764 0
M  V30 4461 C 418.052 -1.33357 1.58189 0
M  V30 4462 C 418.467 -1.87342 0.234199 0
M  V30 4463 O 417.824 -1.65301 -0.77343 0
M  V30 4464 C 417.875 -2.49942 2.61173 0
M  V30 4465 O 417.596 -1.98187 3.90709 0
M  V30 4466 C 419.097 -3.42072 2.8196 0
M  V30 4467 H 416.317 -0.40631 0.533998 0
M  V30 4468 H 418.861 -0.667367 1.93304 0
M  V30 4469 H 417.016 -3.12489 2.28975 0
M  V30 4470 H 417.43 -2.74342 4.47031 0
M  V30 4471 H 418.904 -4.20278 3.57869 0
M  V30 4472 H 419.381 -3.95978 1.89995 0
M  V30 4473 H 419.987 -2.85336 3.15378 0
M  V30 4474 N 418.302 -1.35869 -0.798587 0
M  V30 4475 C 419.234 -1.25305 -1.91915 0
M  V30 4476 C 420.247 -0.174548 -1.61862 0
M  V30 4477 O 421.436 -0.428499 -1.73281 0
M  V30 4478 C 418.536 -0.9086 -3.26493 0
M  V30 4479 C 417.709 -2.08711 -3.84394 0
M  V30 4480 C 416.768 -1.71717 -4.97393 0
M  V30 4481 O 415.794 -2.43692 -5.14396 0
M  V30 4482 N 416.996 -0.645473 -5.769 0
M  V30 4483 H 419.761 -2.21849 -2.01502 0
M  V30 4484 H 417.322 -1.29143 -0.976408 0
M  V30 4485 H 419.314 -0.642455 -3.99568 0
M  V30 4486 H 417.884 -0.0325815 -3.12583 0
M  V30 4487 H 417.104 -2.51659 -3.03416 0
M  V30 4488 H 418.392 -2.87468 -4.19809 0
M  V30 4489 H 417.79 -0.047648 -5.6568 0
M  V30 4490 H 416.347 -0.43913 -6.50319 0
M  V30 4491 N 419.78 1.02168 -1.19998 0
M  V30 4492 C 421.01 1.79036 -1.031 0
M  V30 4493 C 421.418 1.84409 0.423078 0
M  V30 4494 O 420.761 1.29228 1.30559 0
M  V30 4495 C 420.823 3.25185 -1.53281 0
M  V30 4496 C 420.487 3.43431 -3.01503 0
M  V30 4497 C 421.484 3.33063 -3.99206 0
M  V30 4498 C 419.169 3.69412 -3.40353 0
M  V30 4499 C 421.163 3.48413 -5.33748 0
M  V30 4500 C 418.85 3.84406 -4.75053 0
M  V30 4501 C 419.848 3.7391 -5.71559 0
M  V30 4502 O 419.536 3.88452 -7.03818 0
M  V30 4503 H 419.268 0.570043 -0.363355 0
M  V30 4504 H 421.822 1.29524 -1.59414 0
M  V30 4505 H 420.052 3.75756 -0.913483 0
M  V30 4506 H 421.741 3.83671 -1.32481 0
M  V30 4507 H 422.507 3.12934 -3.70537 0
M  V30 4508 H 418.386 3.76671 -2.65782 0
M  V30 4509 H 421.93 3.40137 -6.09059 0
M  V30 4510 H 417.827 4.04035 -5.03415 0
M  V30 4511 H 418.595 4.055 -7.10993 0
M  V30 4512 N 421.258 1.00505 1.21394 0
M  V30 4513 C 422.486 0.706609 1.9446 0
M  V30 4514 C 422.901 -0.73081 1.74082 0
M  V30 4515 O 422.258 -1.49446 1.04747 0
M  V30 4516 C 422.309 1.01824 3.46863 0
M  V30 4517 O 422.03 2.39919 3.66566 0
M  V30 4518 C 423.531 0.739216 4.37093 0
M  V30 4519 H 420.751 0.260394 0.618414 0
M  V30 4520 H 423.295 1.34311 1.54211 0
M  V30 4521 H 421.45 0.427343 3.85036 0
M  V30 4522 H 421.864 2.50784 4.6066 0
M  V30 4523 H 423.338 1.00744 5.42729 0
M  V30 4524 H 423.815 -0.326746 4.37983 0
M  V30 4525 H 424.421 1.31173 4.04566 0
M  V30 4526 N 422.737 -1.36956 0.779787 0
M  V30 4527 C 423.983 -1.99787 0.348281 0
M  V30 4528 C 424.316 -1.61756 -1.07465 0
M  V30 4529 O 423.591 -0.867639 -1.74075 0
M  V30 4530 C 423.874 -3.56597 0.50104 0
M  V30 4531 C 423.727 -4.04513 1.96697 0
M  V30 4532 C 425.046 -4.40008 -0.0898097 0
M  V30 4533 H 422.165 -0.725796 0.128022 0
M  V30 4534 H 424.807 -1.62514 0.984331 0
M  V30 4535 H 422.957 -3.88479 -0.0404347 0
M  V30 4536 H 424.629 -3.83161 2.56876 0
M  V30 4537 H 422.872 -3.56408 2.47297 0
M  V30 4538 H 423.543 -5.1352 2.02486 0
M  V30 4539 H 426.019 -4.14431 0.372293 0
M  V30 4540 H 424.895 -5.4888 0.0471605 0
M  V30 4541 H 425.156 -4.26035 -1.18096 0
M  V30 4542 N 424.215 -0.530993 -1.48385 0
M  V30 4543 C 425.462 0.0027373 -2.025 0
M  V30 4544 C 425.79 1.34186 -1.40799 0
M  V30 4545 O 425.045 1.88 -0.543544 0
M  V30 4546 C 425.344 0.172742 -3.56982 0
M  V30 4547 C 425.01 -1.09215 -4.37473 0
M  V30 4548 C 423.672 -1.43881 -4.59186 0
M  V30 4549 C 426.024 -1.93153 -4.84088 0
M  V30 4550 C 423.352 -2.62381 -5.2476 0
M  V30 4551 C 425.704 -3.10833 -5.50968 0
M  V30 4552 C 424.368 -3.45843 -5.70919 0
M  V30 4553 H 423.638 0.00100165 -0.740999 0
M  V30 4554 H 426.285 -0.697219 -1.78357 0
M  V30 4555 H 424.59 0.955473 -3.79971 0
M  V30 4556 H 426.287 0.600642 -3.96476 0
M  V30 4557 H 422.877 -0.812177 -4.20834 0
M  V30 4558 H 427.061 -1.67683 -4.67115 0
M  V30 4559 H 422.317 -2.89707 -5.38405 0
M  V30 4560 H 426.491 -3.7618 -5.86056 0
M  V30 4561 H 424.118 -4.37764 -6.21503 0
M  V30 4562 N 425.693 1.55336 -0.266172 0
M  V30 4563 C 426.643 2.18848 0.639497 0
M  V30 4564 C 427.627 1.1503 1.12503 0
M  V30 4565 O 428.819 1.40875 1.0716 0
M  V30 4566 C 425.948 2.90626 1.82733 0
M  V30 4567 C 425.034 4.01723 1.35939 0
M  V30 4568 N 425.425 5.02145 0.606988 0
M  V30 4569 C 423.723 4.1463 1.6431 0
M  V30 4570 C 424.424 5.80572 0.362138 0
M  V30 4571 N 423.4 5.35551 0.931971 0
M  V30 4572 H 427.202 2.93845 0.0567057 0
M  V30 4573 H 424.716 1.62252 -0.0693312 0
M  V30 4574 H 426.713 3.34569 2.48735 0
M  V30 4575 H 425.373 2.17137 2.41416 0
M  V30 4576 H 426.384 5.17271 0.255198 0
M  V30 4577 H 423.061 3.52326 2.23993 0
M  V30 4578 H 424.451 6.71472 -0.239848 0
M  V30 4579 N 427.171 -0.0066808 1.57599 0
M  V30 4580 C 428.396 -0.707738 1.94951 0
M  V30 4581 C 428.821 -1.66882 0.867868 0
M  V30 4582 O 428.179 -1.80457 -0.17458 0
M  V30 4583 C 428.227 -1.42162 3.31394 0
M  V30 4584 O 427.331 -2.53578 3.25226 0
M  V30 4585 H 426.672 -0.188752 0.636607 0
M  V30 4586 H 429.202 0.0445193 2.04552 0
M  V30 4587 H 429.212 -1.78655 3.66806 0
M  V30 4588 H 427.887 -0.716903 4.09675 0
M  V30 4589 H 426.464 -2.19463 3.01481 0
M  V30 4590 N 428.649 -1.55105 -0.279332 0
M  V30 4591 C 429.579 -1.90557 -1.34945 0
M  V30 4592 C 430.56 -0.766738 -1.51839 0
M  V30 4593 O 431.745 -1.02434 -1.64988 0
M  V30 4594 C 428.875 -2.17193 -2.71006 0
M  V30 4595 C 427.829 -3.33021 -2.68851 0
M  V30 4596 C 427.155 -3.45123 -4.08405 0
M  V30 4597 C 428.455 -4.69578 -2.28678 0
M  V30 4598 H 430.149 -2.80188 -1.05522 0
M  V30 4599 H 427.695 -1.34811 -0.506173 0
M  V30 4600 H 429.648 -2.40581 -3.45975 0
M  V30 4601 H 428.372 -1.24355 -3.01999 0
M  V30 4602 H 427.031 -3.0959 -1.9634 0
M  V30 4603 H 426.679 -2.49762 -4.3661 0
M  V30 4604 H 426.379 -4.22995 -4.07859 0
M  V30 4605 H 427.903 -3.70796 -4.85121 0
M  V30 4606 H 429.317 -4.92553 -2.93368 0
M  V30 4607 H 427.714 -5.5032 -2.39306 0
M  V30 4608 H 428.784 -4.68828 -1.23807 0
M  V30 4609 N 430.127 0.543554 -1.4793 0
M  V30 4610 C 431.376 1.29649 -1.54512 0
M  V30 4611 C 431.689 1.94382 -0.217973 0
M  V30 4612 O 432.895 2.71017 -0.161908 0
M  V30 4613 C 431.351 2.35175 -2.72435 0
M  V30 4614 C 430.959 1.76572 -4.11736 0
M  V30 4615 C 432.703 3.11564 -2.8832 0
M  V30 4616 C 430.61 2.79958 -5.20939 0
M  V30 4617 H 429.54 0.487541 -0.57517 0
M  V30 4618 H 432.191 0.575708 -1.74235 0
M  V30 4619 H 430.573 3.10229 -2.46118 0
M  V30 4620 H 431.747 1.07799 -4.48013 0
M  V30 4621 H 430.062 1.12722 -4.00852 0
M  V30 4622 H 432.659 3.88794 -3.67074 0
M  V30 4623 H 433.002 3.66594 -1.97268 0
M  V30 4624 H 433.535 2.43623 -3.14472 0
M  V30 4625 H 430.274 2.29766 -6.13912 0
M  V30 4626 H 429.794 3.47101 -4.89164 0
M  V30 4627 H 431.473 3.43198 -5.48474 0
M  V30 4628 N 431.605 1.3629 0.791371 0
M  V30 4629 C 433.021 1.16661 1.08914 0
M  V30 4630 C 433.221 -0.0106266 2.01497 0
M  V30 4631 O 432.277 -0.676596 2.43266 0
M  V30 4632 C 433.59 2.47656 1.70549 0
M  V30 4633 C 435.138 2.54002 1.82899 0
M  V30 4634 C 435.613 3.85078 2.47949 0
M  V30 4635 N 437.104 3.86413 2.5542 0
M  V30 4636 C 437.839 4.84572 3.06557 0
M  V30 4637 N 437.335 5.93124 3.58016 0
M  V30 4638 N 439.128 4.71994 3.05251 0
M  V30 4639 H 431.279 2.11668 0.176238 0
M  V30 4640 H 433.542 0.937486 0.140796 0
M  V30 4641 H 433.248 3.34059 1.09989 0
M  V30 4642 H 433.122 2.63319 2.70079 0
M  V30 4643 H 435.509 1.68018 2.42598 0
M  V30 4644 H 435.59 2.42239 0.821808 0
M  V30 4645 H 435.234 4.71467 1.88895 0
M  V30 4646 H 435.164 3.94135 3.49235 0
M  V30 4647 H 437.655 3.07988 2.18979 0
M  V30 4648 H 437.968 6.63999 3.95381 0
M  V30 4649 H 436.313 5.96796 3.56173 0
M  V30 4650 H 439.504 3.86321 2.64336 0
M  V30 4651 H 439.677 5.48653 3.44796 0
M  V30 4652 N 433.083 -1.0153 1.20538 0
M  V30 4653 C 434.046 -2.0826 0.957098 0
M  V30 4654 C 435.046 -1.60657 -0.0678655 0
M  V30 4655 O 436.236 -1.73385 0.168332 0
M  V30 4656 C 433.368 -3.38033 0.441188 0
M  V30 4657 H 434.561 -2.31719 1.90384 0
M  V30 4658 H 432.114 -1.1835 1.02093 0
M  V30 4659 H 432.849 -3.20249 -0.510961 0
M  V30 4660 H 432.634 -3.73911 1.18038 0
M  V30 4661 H 434.124 -4.16613 0.287009 0
M  V30 4662 N 434.561 -1.01147 -1.20859 0
M  V30 4663 C 435.494 -0.522108 -2.22147 0
M  V30 4664 C 436.472 0.427686 -1.56874 0
M  V30 4665 O 437.656 0.34889 -1.85243 0
M  V30 4666 C 434.783 0.240819 -3.37843 0
M  V30 4667 C 433.829 -0.657752 -4.21398 0
M  V30 4668 S 434.662 -2.12393 -4.91578 0
M  V30 4669 C 435.818 -1.37102 -6.10699 0
M  V30 4670 H 436.051 -1.38035 -2.63313 0
M  V30 4671 H 433.584 -0.819941 -1.30829 0
M  V30 4672 H 435.542 0.674908 -4.04914 0
M  V30 4673 H 434.203 1.07457 -2.95147 0
M  V30 4674 H 433.396 -0.0697456 -5.03952 0
M  V30 4675 H 432.998 -1.0294 -3.59555 0
M  V30 4676 H 435.29 -0.648315 -6.74391 0
M  V30 4677 H 436.233 -2.17252 -6.73949 0
M  V30 4678 H 436.641 -0.876154 -5.57659 0
M  V30 4679 N 436.039 1.36541 -0.78704 0
M  V30 4680 C 436.969 2.32659 -0.197992 0
M  V30 4681 C 437.95 1.56533 0.665697 0
M  V30 4682 O 439.135 1.84698 0.60001 0
M  V30 4683 C 436.265 3.40778 0.669901 0
M  V30 4684 C 435.219 4.27897 -0.0937039 0
M  V30 4685 C 434.545 5.27163 0.894629 0
M  V30 4686 C 435.845 5.06334 -1.28154 0
M  V30 4687 H 437.539 2.82171 -1.00099 0
M  V30 4688 H 435.085 1.35665 -0.482793 0
M  V30 4689 H 437.038 4.07008 1.09191 0
M  V30 4690 H 435.762 2.89827 1.50558 0
M  V30 4691 H 434.421 3.6322 -0.49666 0
M  V30 4692 H 434.069 4.72486 1.72527 0
M  V30 4693 H 433.769 5.86317 0.388149 0
M  V30 4694 H 435.293 5.96266 1.31525 0
M  V30 4695 H 436.707 5.65617 -0.93541 0
M  V30 4696 H 435.104 5.74888 -1.72115 0
M  V30 4697 H 436.174 4.38114 -2.07807 0
M  V30 4698 N 437.518 0.538854 1.48102 0
M  V30 4699 C 438.45 -0.256278 2.27763 0
M  V30 4700 C 439.463 -0.89633 1.35904 0
M  V30 4701 O 440.652 -0.773275 1.60881 0
M  V30 4702 C 437.752 -1.37896 3.09577 0
M  V30 4703 C 436.925 -0.839159 4.29275 0
M  V30 4704 C 435.984 -1.84405 4.9283 0
M  V30 4705 O 435.01 -1.39746 5.51779 0
M  V30 4706 N 436.212 -3.17666 4.85869 0
M  V30 4707 H 438.977 0.426968 2.96643 0
M  V30 4708 H 436.538 0.373747 1.57527 0
M  V30 4709 H 438.53 -2.04955 3.48963 0
M  V30 4710 H 437.1 -1.96572 2.4306 0
M  V30 4711 H 436.32 0.00769287 3.94199 0
M  V30 4712 H 437.608 -0.457548 5.06739 0
M  V30 4713 H 437.006 -3.56609 4.39143 0
M  V30 4714 H 435.563 -3.80334 5.29329 0
M  V30 4715 N 438.996 -1.55193 0.274407 0
M  V30 4716 C 440.242 -1.99877 -0.343086 0
M  V30 4717 C 440.575 -1.16256 -1.55558 0
M  V30 4718 O 439.85 -0.232462 -1.93106 0
M  V30 4719 C 440.133 -3.52706 -0.725965 0
M  V30 4720 C 439.986 -4.47081 0.493818 0
M  V30 4721 C 441.305 -4.11422 -1.56268 0
M  V30 4722 H 438.424 -0.726625 -0.123229 0
M  V30 4723 H 441.066 -1.86136 0.38121 0
M  V30 4724 H 439.216 -3.64546 -1.34307 0
M  V30 4725 H 440.888 -4.47186 1.13237 0
M  V30 4726 H 439.131 -4.1877 1.13201 0
M  V30 4727 H 439.802 -5.51699 0.18217 0
M  V30 4728 H 442.278 -4.02855 -1.04151 0
M  V30 4729 H 441.154 -5.18568 -1.79939 0
M  V30 4730 H 441.415 -3.61607 -2.54348 0
M  V30 4731 N 440.474 -0.00167713 -1.576 0
M  V30 4732 C 441.422 1.0074 -2.09652 0
M  V30 4733 C 442.416 1.35483 -1.01689 0
M  V30 4734 O 443.622 1.34028 -1.20152 0
M  V30 4735 H 439.997 0.342537 -0.669457 0
M  V30 4736 H 441.968 0.542841 -2.93421 0
M  V30 4737 C 440.717 2.2899 -2.61647 0
M  V30 4738 H 440.04 2.03124 -3.44355 0
M  V30 4739 H 441.48 2.9787 -3.01744 0
M  V30 4740 C 439.939 3.00085 -1.53136 0
M  V30 4741 O 440.469 3.91135 -0.91524 0
M  V30 4742 N 438.675 2.6194 -1.25841 0
M  V30 4743 H 438.222 1.8798 -1.76129 0
M  V30 4744 H 438.18 3.09822 -0.534576 0
M  V30 4745 N 441.952 1.55251 0.271103 0
M  V30 4746 C 443.363 1.66635 0.842007 0
M  V30 4747 C 443.714 0.594631 1.86972 0
M  V30 4748 O 442.839 -0.263532 2.14789 0
M  V30 4749 C 443.434 3.02082 1.53401 0
M  V30 4750 C 441.993 3.15487 2.05293 0
M  V30 4751 C 441.14 2.62438 0.895631 0
M  V30 4752 H 444.091 1.58629 0.0474117 0
M  V30 4753 H 444.112 2.95176 2.40107 0
M  V30 4754 H 443.624 3.80062 0.785786 0
M  V30 4755 H 441.725 2.42284 2.83071 0
M  V30 4756 H 441.838 4.22075 2.26693 0
M  V30 4757 H 440.202 2.19644 1.28953 0
M  V30 4758 H 440.985 3.42923 0.160878 0
M  V30 4759 N 443.43 -0.535701 1.48216 0
M  V30 4760 C 444.34 -1.66785 1.64985 0
M  V30 4761 C 445.356 -1.65654 0.532414 0
M  V30 4762 O 446.532 -1.8471 0.80275 0
M  V30 4763 C 443.597 -3.0326 1.68031 0
M  V30 4764 C 442.658 -3.1529 2.9136 0
M  V30 4765 C 441.891 -4.45255 2.94252 0
M  V30 4766 O 442.114 -5.32011 2.05719 0
M  V30 4767 O 441.048 -4.6153 3.86359 0
M  V30 4768 H 444.874 -1.55576 2.60825 0
M  V30 4769 H 442.459 -0.70815 1.31551 0
M  V30 4770 H 444.341 -3.84436 1.72589 0
M  V30 4771 H 443.016 -3.14805 0.753628 0
M  V30 4772 H 441.923 -2.3343 2.92337 0
M  V30 4773 H 443.256 -3.08658 3.83394 0
M  V30 4774 N 444.908 -1.36708 -0.784132 0
M  V30 4775 C 445.818 -1.3363 -1.92822 0
M  V30 4776 C 446.834 -0.237686 -1.72369 0
M  V30 4777 O 448.01 -0.470962 -1.95816 0
M  V30 4778 C 445.075 -1.13011 -3.27764 0
M  V30 4779 C 444.136 -2.32397 -3.60957 0
M  V30 4780 C 443.369 -2.12752 -4.89461 0
M  V30 4781 O 443.592 -1.10541 -5.59586 0
M  V30 4782 O 442.526 -3.00653 -5.21432 0
M  V30 4783 H 446.352 -2.29964 -1.98369 0
M  V30 4784 H 443.937 -1.1731 -0.925136 0
M  V30 4785 H 445.819 -1.03451 -4.08504 0
M  V30 4786 H 444.494 -0.19743 -3.23097 0
M  V30 4787 H 443.401 -2.47527 -2.80502 0
M  V30 4788 H 444.734 -3.2419 -3.70354 0
M  V30 4789 N 446.386 1.0089 -1.21074 0
M  V30 4790 C 447.802 1.2695 -0.967257 0
M  V30 4791 C 448.002 1.9846 0.348673 0
M  V30 4792 O 447.058 2.28459 1.0753 0
M  V30 4793 C 448.371 2.09697 -2.15517 0
M  V30 4794 C 449.919 2.22937 -2.197 0
M  V30 4795 C 450.394 3.09064 -3.37999 0
M  V30 4796 N 451.885 3.16653 -3.38061 0
M  V30 4797 C 452.62 3.8354 -4.26245 0
M  V30 4798 N 452.116 4.52488 -5.2462 0
M  V30 4799 N 453.909 3.80141 -4.14064 0
M  V30 4800 H 446.06 0.529005 -2.05707 0
M  V30 4801 H 448.323 0.296148 -0.900556 0
M  V30 4802 H 448.029 1.64497 -3.10859 0
M  V30 4803 H 447.903 3.10444 -2.14253 0
M  V30 4804 H 450.29 2.67357 -1.24916 0
M  V30 4805 H 450.371 1.21673 -2.2501 0
M  V30 4806 H 450.015 2.65347 -4.33074 0
M  V30 4807 H 449.945 4.10433 -3.29928 0
M  V30 4808 H 452.436 2.67566 -2.66865 0
M  V30 4809 H 452.749 5.01219 -5.88217 0
M  V30 4810 H 451.094 4.51288 -5.28549 0
M  V30 4811 H 454.285 3.25427 -3.36474 0
M  V30 4812 H 454.458 4.31992 -4.82998 0
M  V30 4813 N 447.864 1.01787 1.20321 0
M  V30 4814 C 448.794 0.609625 2.25401 0
M  V30 4815 C 449.775 -0.375951 1.65893 0
M  V30 4816 O 450.96 -0.261101 1.92437 0
M  V30 4817 C 448.09 -0.0515995 3.47262 0
M  V30 4818 C 447.044 0.855095 4.19371 0
M  V30 4819 C 446.37 0.0595757 5.34667 0
M  V30 4820 C 447.67 2.16374 4.75373 0
M  V30 4821 H 449.364 1.48803 2.59804 0
M  V30 4822 H 446.91 0.716934 1.24884 0
M  V30 4823 H 448.863 -0.348764 4.19954 0
M  V30 4824 H 447.587 -0.964726 3.12027 0
M  V30 4825 H 446.246 1.13628 3.48546 0
M  V30 4826 H 445.894 -0.85524 4.95676 0
M  V30 4827 H 445.594 0.663406 5.83843 0
M  V30 4828 H 447.118 -0.231105 6.10162 0
M  V30 4829 H 448.532 1.92885 5.39878 0
M  V30 4830 H 446.929 2.71853 5.34991 0
M  V30 4831 H 447.999 2.82589 3.94045 0
M  V30 4832 N 449.342 -1.36122 0.79427 0
M  V30 4833 C 450.567 -2.03891 0.379871 0
M  V30 4834 C 450.992 -1.59488 -0.997251 0
M  V30 4835 O 450.35 -0.765652 -1.64339 0
M  V30 4836 C 450.398 -3.57687 0.457442 0
M  V30 4837 O 449.502 -4.08931 -0.5338 0
M  V30 4838 H 448.843 -0.6443 0.160541 0
M  V30 4839 H 451.373 -1.73976 1.07673 0
M  V30 4840 H 451.383 -4.06721 0.322792 0
M  V30 4841 H 450.058 -3.89357 1.46199 0
M  V30 4842 H 448.635 -3.71154 -0.360409 0
M  V30 4843 N 450.82 -0.546701 -1.47814 0
M  V30 4844 C 452.069 -0.0166497 -2.01693 0
M  V30 4845 C 452.382 1.33721 -1.42752 0
M  V30 4846 O 453.588 1.95658 -1.8823 0
M  V30 4847 C 452.044 0.0206769 -3.59894 0
M  V30 4848 C 451.652 -1.3293 -4.27824 0
M  V30 4849 C 453.396 0.498674 -4.21561 0
M  V30 4850 C 451.303 -1.25165 -5.78003 0
M  V30 4851 H 450.233 -0.0024541 -0.753996 0
M  V30 4852 H 452.884 -0.692984 -1.69912 0
M  V30 4853 H 451.266 0.76244 -3.88591 0
M  V30 4854 H 452.44 -2.08795 -4.10781 0
M  V30 4855 H 450.755 -1.74438 -3.78101 0
M  V30 4856 H 453.352 0.575 -5.31599 0
M  V30 4857 H 453.695 1.5083 -3.88016 0
M  V30 4858 H 454.228 -0.18791 -3.97356 0
M  V30 4859 H 450.967 -2.23695 -6.1615 0
M  V30 4860 H 450.487 -0.53464 -5.97412 0
M  V30 4861 H 452.166 -0.949299 -6.39998 0
M  V30 4862 N 452.299 1.55045 -0.282633 0
M  V30 4863 C 453.262 2.21515 0.588539 0
M  V30 4864 C 454.262 1.19535 1.07554 0
M  V30 4865 O 455.452 1.44391 0.974514 0
M  V30 4866 C 452.584 2.88704 1.8128 0
M  V30 4867 H 453.777 2.99899 0.00806397 0
M  V30 4868 H 451.33 1.56265 -0.0333067 0
M  V30 4869 H 452.065 2.14352 2.43359 0
M  V30 4870 H 451.85 3.63443 1.47144 0
M  V30 4871 H 453.34 3.39465 2.43214 0
M  V30 4872 N 453.777 0.010035 1.57597 0
M  V30 4873 C 454.687 -0.994226 2.12491 0
M  V30 4874 C 455.703 -1.37013 1.07254 0
M  V30 4875 O 456.879 -1.45542 1.3921 0
M  V30 4876 C 453.944 -2.2642 2.62555 0
M  V30 4877 C 453.005 -1.95049 3.82432 0
M  V30 4878 C 452.238 -3.15991 4.30099 0
M  V30 4879 O 452.461 -4.28015 3.7704 0
M  V30 4880 O 451.395 -2.99403 5.22151 0
M  V30 4881 H 455.221 -0.557549 2.98538 0
M  V30 4882 H 452.806 -0.209413 1.47925 0
M  V30 4883 H 454.688 -3.01009 2.9491 0
M  V30 4884 H 453.363 -2.69306 1.796 0
M  V30 4885 H 452.27 -1.17904 3.55034 0
M  V30 4886 H 453.603 -1.56992 4.66491 0
M  V30 4887 N 455.255 -1.55392 -0.262866 0
M  V30 4888 C 456.501 -1.76737 -0.99458 0
M  V30 4889 C 456.834 -0.572453 -1.85571 0
M  V30 4890 O 456.109 0.429732 -1.89693 0
M  V30 4891 C 456.392 -3.07824 -1.8686 0
M  V30 4892 C 456.245 -4.3769 -1.03672 0
M  V30 4893 C 457.564 -3.35021 -2.85393 0
M  V30 4894 H 454.683 -0.643005 -0.360157 0
M  V30 4895 H 457.325 -1.88126 -0.266216 0
M  V30 4896 H 455.475 -2.98245 -2.48962 0
M  V30 4897 H 457.147 -4.59238 -0.43563 0
M  V30 4898 H 455.39 -4.32461 -0.340513 0
M  V30 4899 H 456.061 -5.25759 -1.6817 0
M  V30 4900 H 458.537 -3.44458 -2.33426 0
M  V30 4901 H 457.413 -4.27989 -3.43681 0
M  V30 4902 H 457.674 -2.55153 -3.61039 0
M  V30 4903 N 456.733 0.527833 -1.48498 0
M  V30 4904 C 457.979 1.28545 -1.56857 0
M  V30 4905 C 458.312 1.92678 -0.242651 0
M  V30 4906 O 457.587 1.79394 0.751545 0
M  V30 4907 C 457.87 2.37314 -2.70839 0
M  V30 4908 C 457.723 1.77858 -4.13142 0
M  V30 4909 C 459.042 3.39068 -2.80573 0
M  V30 4910 H 456.161 0.466006 -0.570971 0
M  V30 4911 H 458.803 0.587784 -1.8068 0
M  V30 4912 H 456.953 2.96821 -2.50658 0
M  V30 4913 H 458.625 1.22385 -4.44769 0
M  V30 4914 H 456.868 1.08383 -4.20042 0
M  V30 4915 H 457.539 2.56624 -4.88721 0
M  V30 4916 H 460.015 2.89518 -2.98862 0
M  V30 4917 H 458.891 4.12566 -3.6205 0
M  V30 4918 H 459.152 3.9975 -1.88818 0
M  V30 4919 N 458.211 1.37122 0.776871 0
M  V30 4920 C 459.161 1.28989 1.88005 0
M  V30 4921 C 460.145 0.178765 1.59904 0
M  V30 4922 O 461.337 0.412705 1.72121 0
M  V30 4923 C 458.466 1.09402 3.25402 0
M  V30 4924 C 457.552 2.25036 3.59471 0
M  V30 4925 N 457.943 3.50407 3.64759 0
M  V30 4926 C 456.241 2.17078 3.89607 0
M  V30 4927 C 456.942 4.26628 3.95428 0
M  V30 4928 N 455.918 3.55709 4.11062 0
M  V30 4929 H 459.72 2.2394 1.90337 0
M  V30 4930 H 457.234 1.30021 0.973052 0
M  V30 4931 H 459.231 1.01661 4.04315 0
M  V30 4932 H 457.891 0.153632 3.24336 0
M  V30 4933 H 458.902 3.8438 3.47091 0
M  V30 4934 H 455.579 1.31067 3.96393 0
M  V30 4935 H 456.969 5.35107 4.06338 0
M  V30 4936 N 459.689 -1.00246 1.21608 0
M  V30 4937 C 460.621 -2.09244 0.935401 0
M  V30 4938 C 461.634 -1.62592 -0.0823594 0
M  V30 4939 O 462.823 -1.77865 0.150456 0
M  V30 4940 C 459.923 -3.36724 0.383453 0
M  V30 4941 C 459.096 -4.1245 1.45615 0
M  V30 4942 C 458.155 -5.18219 0.912991 0
M  V30 4943 O 457.181 -5.46337 1.59701 0
M  V30 4944 N 458.383 -5.7987 -0.270478 0
M  V30 4945 H 461.148 -2.33905 1.87373 0
M  V30 4946 H 458.709 -1.16748 1.12167 0
M  V30 4947 H 460.701 -4.047 0.00562157 0
M  V30 4948 H 459.271 -3.09201 -0.459758 0
M  V30 4949 H 458.491 -3.39241 2.00772 0
M  V30 4950 H 459.779 -4.59819 2.17817 0
M  V30 4951 H 459.177 -5.59381 -0.843195 0
M  V30 4952 H 457.734 -6.49126 -0.589794 0
M  V30 4953 N 461.167 -1.02423 -1.1978 0
M  V30 4954 C 462.097 -0.62157 -2.25075 0
M  V30 4955 C 463.078 0.367148 -1.6609 0
M  V30 4956 O 464.263 0.250892 -1.92573 0
M  V30 4957 C 461.393 0.0331826 -3.47284 0
M  V30 4958 C 460.347 -0.877323 -4.18912 0
M  V30 4959 C 459.673 -0.0879296 -5.34628 0
M  V30 4960 C 460.973 -2.18892 -4.74219 0
M  V30 4961 H 462.667 -1.50179 -2.59011 0
M  V30 4962 H 460.213 -0.723547 -1.24502 0
M  V30 4963 H 462.166 0.326488 -4.20133 0
M  V30 4964 H 460.89 0.948164 -3.12534 0
M  V30 4965 H 459.549 -1.15475 -3.47938 0
M  V30 4966 H 459.197 0.828941 -4.96123 0
M  V30 4967 H 458.897 -0.694359 -5.83483 0
M  V30 4968 H 460.421 0.198743 -6.10276 0
M  V30 4969 H 461.835 -1.95746 -5.38847 0
M  V30 4970 H 460.232 -2.74686 -5.33542 0
M  V30 4971 H 461.302 -2.84674 -3.92541 0
M  V30 4972 N 462.645 1.35699 -0.801477 0
M  V30 4973 C 463.577 2.28598 -0.166028 0
M  V30 4974 C 464.59 1.50044 0.631721 0
M  V30 4975 O 465.779 1.72339 0.464921 0
M  V30 4976 C 462.879 3.29625 0.787451 0
M  V30 4977 C 462.052 4.37384 0.037171 0
M  V30 4978 C 461.111 5.183 0.908375 0
M  V30 4979 O 460.137 5.68053 0.361189 0
M  V30 4980 N 461.339 5.35912 2.23112 0
M  V30 4981 H 464.104 2.83771 -0.964071 0
M  V30 4982 H 461.665 1.47994 -0.656469 0
M  V30 4983 H 463.657 3.80648 1.37439 0
M  V30 4984 H 462.227 2.75004 1.48632 0
M  V30 4985 H 461.447 3.87364 -0.730935 0
M  V30 4986 H 462.735 5.0653 -0.480109 0
M  V30 4987 H 462.133 4.97125 2.69968 0
M  V30 4988 H 460.69 5.90133 2.76741 0
M  V30 4989 N 464.123 0.554532 1.47522 0
M  V30 4990 C 465.033 -0.197865 2.33764 0
M  V30 4991 C 466.049 -0.914576 1.48025 0
M  V30 4992 O 467.225 -0.884067 1.80959 0
M  V30 4993 C 464.29 -1.21628 3.24665 0
M  V30 4994 C 463.351 -0.507283 4.26292 0
M  V30 4995 C 462.584 -1.47718 5.1285 0
M  V30 4996 O 462.807 -2.7118 5.01814 0
M  V30 4997 O 461.741 -1.00313 5.93482 0
M  V30 4998 H 465.567 0.50949 2.99396 0
M  V30 4999 H 463.152 0.315176 1.46038 0
M  V30 5000 H 465.034 -1.80421 3.80823 0
M  V30 5001 H 463.709 -1.9056 2.61665 0
M  V30 5002 H 462.616 0.121778 3.73902 0
M  V30 5003 H 463.949 0.140544 4.91999 0
M  V30 5004 N 465.601 -1.54893 0.290851 0
M  V30 5005 C 466.85 -1.99111 -0.322113 0
M  V30 5006 C 467.163 -1.18283 -1.55784 0
M  V30 5007 O 468.369 -1.5272 -2.24475 0
M  V30 5008 C 466.825 -3.54442 -0.624438 0
M  V30 5009 C 466.433 -4.44066 0.592373 0
M  V30 5010 C 468.177 -4.07211 -1.19916 0
M  V30 5011 C 466.084 -5.90812 0.263762 0
M  V30 5012 H 465.014 -0.743712 -0.124133 0
M  V30 5013 H 467.665 -1.79132 0.39797 0
M  V30 5014 H 466.047 -3.70281 -1.40384 0
M  V30 5015 H 467.221 -4.39999 1.36886 0
M  V30 5016 H 465.536 -4.02015 1.08502 0
M  V30 5017 H 468.133 -5.14407 -1.45909 0
M  V30 5018 H 468.476 -3.57196 -2.13815 0
M  V30 5019 H 469.009 -3.94873 -0.481687 0
M  V30 5020 H 465.748 -6.44955 1.17105 0
M  V30 5021 H 465.268 -5.97911 -0.475655 0
M  V30 5022 H 466.947 -6.46852 -0.138354 0
M  V30 5023 N 467.08 -0.0183926 -1.57589 0
M  V30 5024 C 468.043 0.951986 -2.08494 0
M  V30 5025 C 469.043 1.26092 -0.997874 0
M  V30 5026 O 470.233 1.20304 -1.25987 0
M  V30 5027 C 467.365 2.27165 -2.54182 0
M  V30 5028 H 468.558 0.511307 -2.95509 0
M  V30 5029 H 466.111 0.229444 -1.54607 0
M  V30 5030 H 466.846 2.75884 -1.70465 0
M  V30 5031 H 466.631 2.06057 -3.33591 0
M  V30 5032 H 468.121 2.9674 -2.93828 0
M  V30 5033 N 468.558 1.5553 0.254621 0
M  V30 5034 C 469.521 1.88872 1.29846 0
M  V30 5035 C 470.521 0.764591 1.41459 0
M  V30 5036 O 471.711 1.03265 1.40293 0
M  V30 5037 C 468.843 2.11032 2.67728 0
M  V30 5038 H 470.036 2.82201 1.01502 0
M  V30 5039 H 467.589 1.48303 0.493556 0
M  V30 5040 H 468.324 1.20146 3.01223 0
M  V30 5041 H 468.109 2.92895 2.60682 0
M  V30 5042 H 469.599 2.38038 3.43115 0
M  V30 5043 N 470.036 -0.519951 1.48776 0
M  V30 5044 C 470.999 -1.60574 1.6355 0
M  V30 5045 C 471.999 -1.52557 0.508234 0
M  V30 5046 O 473.189 -1.56047 0.774262 0
M  V30 5047 C 470.321 -3.00211 1.61512 0
M  V30 5048 H 471.514 -1.4881 2.60376 0
M  V30 5049 H 469.067 -0.742772 1.37523 0
M  V30 5050 H 469.802 -3.17471 0.662009 0
M  V30 5051 H 469.587 -3.07439 2.43359 0
M  V30 5052 H 471.077 -3.79134 1.75064 0
M  V30 5053 N 471.514 -1.37532 -0.769588 0
M  V30 5054 C 472.93 -1.18379 -1.07045 0
M  V30 5055 C 473.13 -0.0214312 -2.01489 0
M  V30 5056 O 472.186 0.637809 -2.44312 0
M  V30 5057 C 473.499 -2.50338 -1.66588 0
M  V30 5058 C 475.047 -2.56879 -1.78835 0
M  V30 5059 C 475.522 -3.88974 -2.41792 0
M  V30 5060 N 477.013 -3.90428 -2.4924 0
M  V30 5061 C 477.748 -4.89388 -2.98809 0
M  V30 5062 N 477.244 -5.98745 -3.48535 0
M  V30 5063 N 479.037 -4.76791 -2.97703 0
M  V30 5064 H 471.188 -2.11921 -0.142541 0
M  V30 5065 H 473.451 -0.939608 -0.125863 0
M  V30 5066 H 473.157 -3.35767 -1.0466 0
M  V30 5067 H 473.031 -2.67583 -2.65856 0
M  V30 5068 H 475.418 -1.71856 -2.39895 0
M  V30 5069 H 475.499 -2.43516 -0.783166 0
M  V30 5070 H 475.143 -4.74412 -1.81371 0
M  V30 5071 H 475.073 -3.99641 -3.4292 0
M  V30 5072 H 477.564 -3.11433 -2.14052 0
M  V30 5073 H 477.877 -6.70205 -3.84767 0
M  V30 5074 H 476.222 -6.02387 -3.46634 0
M  V30 5075 H 479.413 -3.90478 -2.58157 0
M  V30 5076 H 479.586 -5.54069 -3.36024 0
M  V30 5077 N 472.992 0.995999 -1.22138 0
M  V30 5078 C 473.94 2.10673 -0.985876 0
M  V30 5079 C 474.934 1.69255 0.0699553 0
M  V30 5080 O 476.14 1.79812 -0.0822176 0
M  V30 5081 H 472.515 0.688865 -0.30161 0
M  V30 5082 H 474.486 2.27711 -1.92848 0
M  V30 5083 C 473.235 3.42881 -0.576909 0
M  V30 5084 H 472.558 3.75191 -1.38101 0
M  V30 5085 H 473.998 4.21589 -0.451518 0
M  V30 5086 C 472.457 3.29265 0.713196 0
M  V30 5087 O 472.987 3.60777 1.76643 0
M  V30 5088 N 471.193 2.82456 0.683162 0
M  V30 5089 H 470.74 2.5701 -0.174242 0
M  V30 5090 H 470.698 2.73727 1.54663 0
M  V30 5091 N 474.47 1.03057 1.19235 0
M  V30 5092 C 475.716 0.729098 1.89241 0
M  V30 5093 C 476.049 -0.740573 1.79525 0
M  V30 5094 O 475.324 -1.53946 1.18874 0
M  V30 5095 C 475.607 1.18304 3.40112 0
M  V30 5096 C 475.46 2.71406 3.5869 0
M  V30 5097 C 476.779 0.765161 4.33397 0
M  V30 5098 H 473.898 0.266338 0.687192 0
M  V30 5099 H 476.54 1.28079 1.40341 0
M  V30 5100 H 474.69 0.713672 3.81889 0
M  V30 5101 H 476.362 3.26303 3.26074 0
M  V30 5102 H 474.605 3.11717 3.01687 0
M  V30 5103 H 475.276 2.98225 4.64506 0
M  V30 5104 H 477.752 1.16889 3.99345 0
M  V30 5105 H 476.628 1.11065 5.37546 0
M  V30 5106 H 476.889 -0.332372 4.40849 0
M  V30 5107 N 475.948 -1.35272 0.808662 0
M  V30 5108 C 476.896 -2.31663 0.208606 0
M  V30 5109 C 477.89 -1.56731 -0.642778 0
M  V30 5110 O 479.096 -1.71843 -0.53571 0
M  V30 5111 H 475.471 -0.750421 0.0486993 0
M  V30 5112 H 477.442 -2.79814 1.03666 0
M  V30 5113 C 476.191 -3.42008 -0.626573 0
M  V30 5114 H 475.514 -3.99795 0.0192103 0
M  V30 5115 H 476.954 -4.11727 -1.01278 0
M  V30 5116 C 475.413 -2.85226 -1.79298 0
M  V30 5117 O 475.943 -2.78945 -2.89055 0
M  V30 5118 N 474.149 -2.42245 -1.60516 0
M  V30 5119 H 473.696 -2.47554 -0.712375 0
M  V30 5120 H 473.654 -2.04603 -2.38715 0
M  V30 5121 N 477.426 -0.562348 -1.47226 0
M  V30 5122 C 478.837 -0.130325 -1.86245 0
M  V30 5123 C 479.188 1.30128 -1.46838 0
M  V30 5124 O 478.313 1.97974 -0.873805 0
M  V30 5125 C 478.908 -0.229738 -3.3802 0
M  V30 5126 C 477.467 0.14728 -3.76112 0
M  V30 5127 C 476.614 -0.574971 -2.71274 0
M  V30 5128 H 479.565 -0.771773 -1.3867 0
M  V30 5129 H 479.586 0.550316 -3.76499 0
M  V30 5130 H 479.098 -1.27178 -3.66671 0
M  V30 5131 H 477.199 1.19023 -3.53078 0
M  V30 5132 H 477.312 -0.214858 -4.78618 0
M  V30 5133 H 475.676 -0.0174756 -2.54694 0
M  V30 5134 H 476.459 -1.61827 -3.02766 0
M  V30 5135 N 478.904 1.54736 -0.299062 0
M  V30 5136 C 479.851 2.23448 0.577899 0
M  V30 5137 C 480.821 1.21637 1.13109 0
M  V30 5138 O 482.006 1.50252 1.17597 0
M  V30 5139 C 479.146 2.9774 1.74484 0
M  V30 5140 C 478.259 4.1432 1.22323 0
M  V30 5141 C 477.394 4.76199 2.35388 0
M  V30 5142 C 476.433 5.84927 1.80351 0
M  V30 5143 N 475.57 6.4077 2.86982 0
M  V30 5144 H 480.41 2.97996 -0.0146545 0
M  V30 5145 H 477.947 1.47088 -0.0190013 0
M  V30 5146 H 479.905 3.39045 2.43114 0
M  V30 5147 H 478.535 2.25572 2.30905 0
M  V30 5148 H 477.587 3.7797 0.429249 0
M  V30 5149 H 478.899 4.92659 0.780309 0
M  V30 5150 H 478.053 5.20346 3.11969 0
M  V30 5151 H 476.792 3.97188 2.83006 0
M  V30 5152 H 475.797 5.40207 1.02259 0
M  V30 5153 H 477.022 6.65821 1.3364 0
M  V30 5154 H 474.968 5.64643 3.33938 0
M  V30 5155 H 474.885 7.1445 2.4718 0
M  V30 5156 H 476.153 6.89574 3.63466 0
M  V30 5157 N 480.382 0.0267497 1.57577 0
M  V30 5158 C 481.607 -0.666227 1.96408 0
M  V30 5159 C 482.032 -1.65004 0.903071 0
M  V30 5160 O 481.39 -1.80787 -0.136263 0
M  V30 5161 C 481.438 -1.35101 3.34335 0
M  V30 5162 O 480.542 -2.46623 3.30531 0
M  V30 5163 H 479.883 -0.175206 0.640468 0
M  V30 5164 H 482.413 0.0878977 2.04411 0
M  V30 5165 H 482.423 -1.70834 3.70513 0
M  V30 5166 H 481.098 -0.629844 4.11103 0
M  V30 5167 H 479.675 -2.13019 3.06068 0
M  V30 5168 N 481.861 -1.55662 -0.24637 0
M  V30 5169 C 483.272 -1.67953 -0.81539 0
M  V30 5170 C 483.623 -0.624302 -1.86002 0
M  V30 5171 O 482.748 0.229328 -2.15181 0
M  V30 5172 C 483.343 -3.04484 -1.48576 0
M  V30 5173 C 481.902 -3.18713 -2.00248 0
M  V30 5174 C 481.049 -2.6383 -0.853766 0
M  V30 5175 H 484 -1.58685 -0.0221692 0
M  V30 5176 H 484.021 -2.98959 -2.3538 0
M  V30 5177 H 483.533 -3.81264 -0.725222 0
M  V30 5178 H 481.634 -2.46757 -2.79181 0
M  V30 5179 H 481.747 -4.25628 -2.1995 0
M  V30 5180 H 480.111 -2.21667 -1.25442 0
M  V30 5181 H 480.894 -3.43135 -0.106302 0
M  V30 5182 N 483.339 0.512053 -1.4905 0
M  V30 5183 C 484.588 1.26343 -1.57227 0
M  V30 5184 C 484.901 1.93876 -0.259155 0
M  V30 5185 O 486.107 2.70612 -0.219358 0
M  V30 5186 C 484.563 2.29343 -2.77362 0
M  V30 5187 C 484.171 1.67799 -4.15388 0
M  V30 5188 C 485.915 3.05378 -2.94864 0
M  V30 5189 C 483.822 2.68845 -5.2676 0
M  V30 5190 H 482.752 0.475231 -0.585382 0
M  V30 5191 H 485.403 0.53862 -1.75417 0
M  V30 5192 H 483.785 3.04938 -2.52643 0
M  V30 5193 H 484.959 0.982715 -4.50199 0
M  V30 5194 H 483.274 1.04194 -4.03153 0
M  V30 5195 H 485.871 3.80921 -3.75238 0
M  V30 5196 H 486.214 3.62327 -2.05 0
M  V30 5197 H 486.747 2.36898 -3.19569 0
M  V30 5198 H 483.486 2.16692 -6.18647 0
M  V30 5199 H 483.006 3.36647 -4.96416 0
M  V30 5200 H 484.685 3.31487 -5.5563 0
M  V30 5201 N 484.817 1.37938 0.762283 0
M  V30 5202 C 486.045 1.36883 1.55147 0
M  V30 5203 C 486.46 -0.0435348 1.8875 0
M  V30 5204 O 485.817 -1.00786 1.52146 0
M  V30 5205 C 485.868 2.21624 2.85596 0
M  V30 5206 O 485.589 3.57358 2.5343 0
M  V30 5207 C 487.09 2.28653 3.7978 0
M  V30 5208 H 484.31 0.468521 0.480343 0
M  V30 5209 H 486.854 1.81404 0.944079 0
M  V30 5210 H 485.009 1.80588 3.42734 0
M  V30 5211 H 485.423 4.01883 3.37032 0
M  V30 5212 H 486.897 2.9225 4.68288 0
M  V30 5213 H 487.374 1.29767 4.19592 0
M  V30 5214 H 487.98 2.70043 3.28568 0
M  V30 5215 N 486.295 -0.989507 1.22664 0
M  V30 5216 C 487.205 -2.11449 1.01619 0
M  V30 5217 C 488.221 -1.73962 -0.036545 0
M  V30 5218 O 489.397 -2.00788 0.156924 0
M  V30 5219 C 486.462 -3.41465 0.600204 0
M  V30 5220 C 485.523 -3.93033 1.72695 0
M  V30 5221 C 484.756 -5.16844 1.33071 0
M  V30 5222 O 484.979 -5.7001 0.210975 0
M  V30 5223 O 483.913 -5.6225 2.14845 0
M  V30 5224 H 487.739 -2.32088 1.9588 0
M  V30 5225 H 485.324 -1.09823 1.01289 0
M  V30 5226 H 487.206 -4.19695 0.37873 0
M  V30 5227 H 485.881 -3.22178 -0.313511 0
M  V30 5228 H 484.788 -3.15961 2.00298 0
M  V30 5229 H 486.121 -4.16758 2.61865 0
M  V30 5230 N 487.773 -1.03688 -1.18687 0
M  V30 5231 C 488.703 -0.645407 -2.24403 0
M  V30 5232 C 489.684 0.349511 -1.66471 0
M  V30 5233 O 490.869 0.230453 -1.92828 0
M  V30 5234 C 487.999 -0.00365337 -3.473 0
M  V30 5235 C 486.953 -0.921705 -4.17958 0
M  V30 5236 C 486.279 -0.144629 -5.34504 0
M  V30 5237 C 487.579 -2.23909 -4.71871 0
M  V30 5238 H 489.273 -1.52917 -2.57404 0
M  V30 5239 H 486.819 -0.736711 -1.23728 0
M  V30 5240 H 488.772 0.281908 -4.20456 0
M  V30 5241 H 487.496 0.914963 -3.13522 0
M  V30 5242 H 486.155 -1.19159 -3.46694 0
M  V30 5243 H 485.803 0.776274 -4.96974 0
M  V30 5244 H 485.503 -0.756206 -5.82714 0
M  V30 5245 H 487.027 0.134004 -6.10453 0
M  V30 5246 H 488.441 -2.0145 -5.36741 0
M  V30 5247 H 486.838 -2.8033 -5.30599 0
M  V30 5248 H 487.908 -2.88822 -3.895 0
M  V30 5249 N 489.251 1.34841 -0.815825 0
M  V30 5250 C 490.181 2.32187 -0.247298 0
M  V30 5251 C 491.162 1.5791 0.632344 0
M  V30 5252 O 492.347 1.8593 0.560698 0
M  V30 5253 C 489.477 3.42122 0.597466 0
M  V30 5254 C 488.431 4.27602 -0.184446 0
M  V30 5255 C 487.757 5.28942 0.782609 0
M  V30 5256 C 489.057 5.03502 -1.38865 0
M  V30 5257 H 490.751 2.79985 -1.06061 0
M  V30 5258 H 488.297 1.34611 -0.511461 0
M  V30 5259 H 490.25 4.09232 1.00533 0
M  V30 5260 H 488.974 2.92956 1.44376 0
M  V30 5261 H 487.633 3.62085 -0.573592 0
M  V30 5262 H 487.281 4.7604 1.62466 0
M  V30 5263 H 486.981 5.87008 0.263695 0
M  V30 5264 H 488.505 5.98922 1.18848 0
M  V30 5265 H 489.919 5.63506 -1.05518 0
M  V30 5266 H 488.316 5.71108 -1.8427 0
M  V30 5267 H 489.386 4.33608 -2.17054 0
M  V30 5268 N 490.729 0.570148 1.46925 0
M  V30 5269 C 491.639 -0.173061 2.33961 0
M  V30 5270 C 492.655 -0.898825 1.48987 0
M  V30 5271 O 493.831 -0.864825 1.81887 0
M  V30 5272 C 490.896 -1.18177 3.25937 0
M  V30 5273 C 489.957 -0.462041 4.26806 0
M  V30 5274 C 489.19 -1.4227 5.14388 0
M  V30 5275 O 489.413 -2.65842 5.04662 0
M  V30 5276 O 488.347 -0.940127 5.94513 0
M  V30 5277 H 492.173 0.541216 2.98839 0
M  V30 5278 H 489.758 0.330647 1.45695 0
M  V30 5279 H 491.64 -1.76372 3.82715 0
M  V30 5280 H 490.315 -1.87774 2.63671 0
M  V30 5281 H 489.222 0.161429 3.73752 0
M  V30 5282 H 490.555 0.192719 4.91823 0
M  V30 5283 N 492.207 -1.54576 0.307264 0
M  V30 5284 C 493.139 -2.21212 -0.599807 0
M  V30 5285 C 494.152 -1.20685 -1.09266 0
M  V30 5286 O 495.341 -1.47244 -1.00903 0
M  V30 5287 C 492.441 -2.84994 -1.83389 0
M  V30 5288 C 491.614 -4.11511 -1.48248 0
M  V30 5289 C 490.673 -4.59038 -2.57237 0
M  V30 5290 O 489.699 -5.24095 -2.22065 0
M  V30 5291 N 490.901 -4.31884 -3.87887 0
M  V30 5292 H 493.666 -2.99686 -0.0293075 0
M  V30 5293 H 491.227 -1.61379 0.129738 0
M  V30 5294 H 493.219 -3.1372 -2.5566 0
M  V30 5295 H 491.789 -2.10324 -2.31263 0
M  V30 5296 H 491.009 -3.89728 -0.592122 0
M  V30 5297 H 492.297 -4.93879 -1.22316 0
M  V30 5298 H 491.695 -3.79778 -4.19268 0
M  V30 5299 H 490.252 -4.65304 -4.56438 0
M  V30 5300 N 493.685 -0.035106 -1.57561 0
M  V30 5301 C 494.633 0.962707 -2.11742 0
M  V30 5302 C 495.627 1.33296 -1.0454 0
M  V30 5303 O 496.833 1.31449 -1.22968 0
M  V30 5304 H 493.208 0.32826 -0.676572 0
M  V30 5305 H 495.179 0.48048 -2.94506 0
M  V30 5306 C 493.928 2.23388 -2.66445 0
M  V30 5307 H 493.251 1.95774 -3.48587 0
M  V30 5308 H 494.691 2.91402 -3.07995 0
M  V30 5309 C 493.15 2.96769 -1.59467 0
M  V30 5310 O 493.68 3.89105 -0.998 0
M  V30 5311 N 491.886 2.59212 -1.31369 0
M  V30 5312 H 491.433 1.84202 -1.80076 0
M  V30 5313 H 491.391 3.08618 -0.600173 0
M  V30 5314 N 495.163 1.55791 0.238111 0
M  V30 5315 C 496.411 1.77681 0.963001 0
M  V30 5316 C 496.732 0.600674 1.85518 0
M  V30 5317 O 496.002 -0.383182 1.92116 0
M  V30 5318 H 494.582 0.655315 0.358568 0
M  V30 5319 H 497.244 1.93239 0.253945 0
M  V30 5320 H 496.34 2.69177 1.57956 0
M  V30 5321 N 496.642 -0.504142 1.49319 0
M  V30 5322 C 497.89 -1.25598 1.58334 0
M  V30 5323 C 498.211 -1.93114 0.270538 0
M  V30 5324 O 497.481 -1.82585 -0.709891 0
M  V30 5325 H 496.061 -0.466571 0.58337 0
M  V30 5326 H 498.723 -0.584547 1.85928 0
M  V30 5327 H 497.819 -2.02159 2.37778 0
M  V30 5328 N 498.12 -1.38341 -0.754957 0
M  V30 5329 C 499.35 -1.37504 -1.54195 0
M  V30 5330 C 499.758 0.0373787 -1.89163 0
M  V30 5331 O 499.101 1.01402 -1.53178 0
M  V30 5332 C 499.163 -2.16488 -2.87008 0
M  V30 5333 C 498.827 -3.65311 -2.74585 0
M  V30 5334 C 499.824 -4.58834 -2.44474 0
M  V30 5335 C 497.509 -4.08649 -2.9208 0
M  V30 5336 C 499.503 -5.93675 -2.32011 0
M  V30 5337 C 497.19 -5.43571 -2.79237 0
M  V30 5338 C 498.188 -6.35898 -2.49245 0
M  V30 5339 O 497.876 -7.68338 -2.36458 0
M  V30 5340 H 497.608 -0.472159 -0.483779 0
M  V30 5341 H 500.162 -1.82515 -0.94221 0
M  V30 5342 H 498.392 -1.66194 -3.49166 0
M  V30 5343 H 500.081 -2.08076 -3.4851 0
M  V30 5344 H 500.847 -4.26657 -2.30627 0
M  V30 5345 H 496.726 -3.37134 -3.14422 0
M  V30 5346 H 500.27 -6.65706 -2.08522 0
M  V30 5347 H 496.167 -5.75345 -2.92657 0
M  V30 5348 H 496.935 -7.78845 -2.5168 0
M  V30 5349 N 499.598 0.982988 -1.23187 0
M  V30 5350 C 500.846 1.72052 -1.06031 0
M  V30 5351 C 501.167 1.90769 0.404019 0
M  V30 5352 O 500.437 1.47446 1.28982 0
M  V30 5353 H 499.017 0.637499 -0.389363 0
M  V30 5354 H 501.679 1.18338 -1.54862 0
M  V30 5355 H 500.775 2.7111 -1.54615 0
M  V30 5356 N 501.076 1.04316 1.18135 0
M  V30 5357 C 502.301 0.768047 1.92655 0
M  V30 5358 C 502.726 -0.66904 1.758 0
M  V30 5359 O 502.084 -1.46372 1.06981 0
M  V30 5360 C 502.132 1.14239 3.42026 0
M  V30 5361 O 501.236 0.269333 4.1152 0
M  V30 5362 H 500.577 0.282436 0.600937 0
M  V30 5363 H 503.107 1.39367 1.49793 0
M  V30 5364 H 503.117 1.10538 3.92741 0
M  V30 5365 H 501.792 2.18928 3.53615 0
M  V30 5366 H 500.369 0.366175 3.71098 0
M  V30 5367 N 502.554 -1.34406 0.822964 0
M  V30 5368 C 503.517 -2.2783 0.250271 0
M  V30 5369 C 504.517 -1.50288 -0.571854 0
M  V30 5370 O 505.707 -1.69825 -0.387952 0
M  V30 5371 C 502.839 -3.34663 -0.649137 0
M  V30 5372 H 504.032 -2.79992 1.07444 0
M  V30 5373 H 501.585 -1.44539 0.594829 0
M  V30 5374 H 502.32 -2.87714 -1.49637 0
M  V30 5375 H 502.105 -3.92052 -0.0611199 0
M  V30 5376 H 503.595 -4.04349 -1.04363 0
M  V30 5377 N 504.032 -0.577932 -1.46621 0
M  V30 5378 C 505.26 -0.0671642 -2.06791 0
M  V30 5379 C 505.675 1.23571 -1.42743 0
M  V30 5380 O 505.032 1.74602 -0.531062 0
M  V30 5381 C 505.083 0.110357 -3.61332 0
M  V30 5382 O 504.804 -1.14095 -4.22982 0
M  V30 5383 C 506.305 0.656025 -4.38419 0
M  V30 5384 H 503.525 -0.0552732 -0.66872 0
M  V30 5385 H 506.069 -0.797242 -1.8832 0
M  V30 5386 H 504.224 0.790637 -3.79246 0
M  V30 5387 H 504.638 -0.951742 -5.15793 0
M  V30 5388 H 506.112 0.729438 -5.47159 0
M  V30 5389 H 506.589 1.67195 -4.06131 0
M  V30 5390 H 507.195 0.0107692 -4.25299 0
M  V30 5391 N 505.51 1.54411 -0.315457 0
M  V30 5392 C 506.44 2.27002 0.547039 0
M  V30 5393 C 507.421 1.27492 1.12605 0
M  V30 5394 O 508.606 1.5629 1.15269 0
M  V30 5395 C 505.736 3.02171 1.71201 0
M  V30 5396 C 504.69 4.0895 1.26268 0
M  V30 5397 C 504.016 4.71915 2.51396 0
M  V30 5398 C 505.316 5.20891 0.383419 0
M  V30 5399 H 507.01 2.99343 -0.0584517 0
M  V30 5400 H 504.556 1.4397 -0.0295527 0
M  V30 5401 H 506.509 3.51681 2.32161 0
M  V30 5402 H 505.233 2.27433 2.34397 0
M  V30 5403 H 503.892 3.60312 0.676062 0
M  V30 5404 H 503.54 3.93801 3.12937 0
M  V30 5405 H 503.24 5.44039 2.22026 0
M  V30 5406 H 504.764 5.24195 3.13133 0
M  V30 5407 H 506.178 5.66206 0.899082 0
M  V30 5408 H 504.575 5.99821 0.182857 0
M  V30 5409 H 505.645 4.81324 -0.587821 0
M  V30 5410 N 506.988 0.0434614 1.5754 0
M  V30 5411 C 508.213 -0.645358 1.97104 0
M  V30 5412 C 508.638 -1.64037 0.920521 0
M  V30 5413 O 507.996 -1.80922 -0.11708 0
M  V30 5414 C 508.044 -1.31547 3.35749 0
M  V30 5415 O 507.148 -2.43103 3.33129 0
M  V30 5416 H 506.489 -0.168403 0.64229 0
M  V30 5417 H 509.019 0.109573 2.04306 0
M  V30 5418 H 509.029 -1.66895 3.72304 0
M  V30 5419 H 507.704 -0.586205 4.11748 0
M  V30 5420 H 506.281 -2.0976 3.0831 0
M  V30 5421 N 508.466 -1.55915 -0.229846 0
M  V30 5422 C 509.882 -1.48721 -0.579166 0
M  V30 5423 C 510.082 -0.736976 -1.87539 0
M  V30 5424 O 509.138 -0.273258 -2.51017 0
M  V30 5425 C 510.451 -2.9323 -0.666082 0
M  V30 5426 C 511.999 -3.03701 -0.757267 0
M  V30 5427 C 512.474 -4.49552 -0.8756 0
M  V30 5428 N 513.965 -4.53561 -0.940035 0
M  V30 5429 C 514.7 -5.63683 -1.05116 0
M  V30 5430 N 514.196 -6.83576 -1.12675 0
M  V30 5431 N 515.989 -5.51516 -1.08565 0
M  V30 5432 H 508.14 -2.03123 0.620857 0
M  V30 5433 H 510.403 -0.922898 0.21671 0
M  V30 5434 H 510.109 -3.51032 0.21664 0
M  V30 5435 H 509.983 -3.44668 -1.53243 0
M  V30 5436 H 512.37 -2.45969 -1.63043 0
M  V30 5437 H 512.451 -2.55446 0.134583 0
M  V30 5438 H 512.095 -5.079 -0.00692351 0
M  V30 5439 H 512.025 -4.95506 -1.78274 0
M  V30 5440 H 514.516 -3.67215 -0.892269 0
M  V30 5441 H 514.829 -7.63251 -1.21109 0
M  V30 5442 H 513.174 -6.86303 -1.09603 0
M  V30 5443 H 516.365 -4.5678 -1.02319 0
M  V30 5444 H 516.538 -6.37372 -1.1688 0
M  V30 5445 N 509.944 0.496216 -1.49584 0
M  V30 5446 C 511.192 1.24756 -1.58998 0
M  V30 5447 C 511.513 1.92968 -0.280775 0
M  V30 5448 O 510.783 1.82959 0.700198 0
M  V30 5449 H 509.363 0.463471 -0.585836 0
M  V30 5450 H 512.025 0.574678 -1.86235 0
M  V30 5451 H 511.121 2.00895 -2.38847 0
M  V30 5452 N 511.423 1.38739 0.74761 0
M  V30 5453 C 512.834 1.31507 1.32524 0
M  V30 5454 C 513.185 -0.0263963 1.96182 0
M  V30 5455 O 512.31 -0.92849 1.95469 0
M  V30 5456 C 512.905 2.38162 2.40966 0
M  V30 5457 C 511.464 2.34489 2.94434 0
M  V30 5458 C 510.611 2.20712 1.67873 0
M  V30 5459 H 513.562 1.4901 0.546043 0
M  V30 5460 H 513.583 2.04222 3.21051 0
M  V30 5461 H 513.095 3.35783 1.94605 0
M  V30 5462 H 511.196 1.40467 3.45108 0
M  V30 5463 H 511.309 3.28861 3.48407 0
M  V30 5464 H 509.673 1.67667 1.91729 0
M  V30 5465 H 510.456 3.20285 1.23582 0
M  V30 5466 N 512.901 -0.976442 1.23707 0
M  V30 5467 C 514.312 -1.53284 1.06587 0
M  V30 5468 C 514.663 -1.92765 -0.365526 0
M  V30 5469 O 513.788 -1.7645 -1.25277 0
M  V30 5470 C 514.383 -2.78548 1.92864 0
M  V30 5471 C 512.942 -3.30574 1.79994 0
M  V30 5472 C 512.089 -2.03538 1.88328 0
M  V30 5473 H 515.04 -0.795692 1.37311 0
M  V30 5474 H 515.061 -3.5155 1.45577 0
M  V30 5475 H 514.573 -2.49782 2.97037 0
M  V30 5476 H 512.674 -3.64211 0.786202 0
M  V30 5477 H 512.787 -4.00065 2.636 0
M  V30 5478 H 511.151 -2.17853 1.31954 0
M  V30 5479 H 511.934 -1.77149 2.94063 0
M  V30 5480 N 514.379 -1.04941 -1.1758 0
M  V30 5481 C 515.79 -0.784501 -1.69418 0
M  V30 5482 C 516.141 0.693625 -1.8353 0
M  V30 5483 O 515.266 1.53925 -1.52106 0
M  V30 5484 C 515.861 -1.41746 -3.07723 0
M  V30 5485 C 514.42 -1.20066 -3.56737 0
M  V30 5486 C 513.567 -1.5026 -2.33061 0
M  V30 5487 H 516.518 -1.21469 -1.02133 0
M  V30 5488 H 516.539 -0.825381 -3.7144 0
M  V30 5489 H 516.051 -2.49325 -2.9742 0
M  V30 5490 H 514.152 -0.144006 -3.72322 0
M  V30 5491 H 514.265 -1.90384 -4.39648 0
M  V30 5492 H 512.629 -0.922598 -2.37403 0
M  V30 5493 H 513.412 -2.58967 -2.25368 0
M  V30 5494 N 515.857 1.33968 -0.830081 0
M  V30 5495 C 517.268 1.80439 -0.479455 0
M  V30 5496 C 517.619 1.68756 1.00079 0
M  V30 5497 O 516.744 1.23171 1.77927 0
M  V30 5498 C 517.339 3.27611 -0.863505 0
M  V30 5499 C 515.898 3.72133 -0.565145 0
M  V30 5500 C 515.045 2.55549 -1.07657 0
M  V30 5501 H 517.996 1.21614 -1.0196 0
M  V30 5502 H 518.017 3.8012 -0.170083 0
M  V30 5503 H 517.529 3.36082 -1.94089 0
M  V30 5504 H 515.63 3.69196 0.502536 0
M  V30 5505 H 515.743 4.65963 -1.11422 0
M  V30 5506 H 514.107 2.49788 -0.497807 0
M  V30 5507 H 514.89 2.66786 -2.16055 0
M  V30 5508 N 517.335 0.585699 1.46312 0
M  V30 5509 C 518.581 0.0725284 2.0267 0
M  V30 5510 C 518.914 -1.28523 1.45586 0
M  V30 5511 O 518.189 -1.84283 0.622101 0
M  V30 5512 C 518.472 0.0099788 3.60099 0
M  V30 5513 C 518.325 1.39685 4.27561 0
M  V30 5514 C 519.644 -0.689117 4.34671 0
M  V30 5515 H 516.763 0.0278307 0.736474 0
M  V30 5516 H 519.405 0.753472 1.74421 0
M  V30 5517 H 517.555 -0.56992 3.84297 0
M  V30 5518 H 519.227 2.02215 4.14617 0
M  V30 5519 H 517.47 1.96374 3.86807 0
M  V30 5520 H 518.141 1.30553 5.36339 0
M  V30 5521 H 520.617 -0.196446 4.15636 0
M  V30 5522 H 519.493 -0.701921 5.44393 0
M  V30 5523 H 519.754 -1.75101 4.05946 0
M  V30 5524 N 518.813 -1.54241 0.323641 0
M  V30 5525 C 520.061 -2.00174 -0.278359 0
M  V30 5526 C 520.382 -1.2134 -1.52648 0
M  V30 5527 O 519.652 -0.315244 -1.93347 0
M  V30 5528 H 518.232 -0.739463 -0.105845 0
M  V30 5529 H 520.894 -1.89864 0.440204 0
M  V30 5530 H 519.99 -3.07486 -0.5347 0
M  V30 5531 N 520.291 -0.0518155 -1.57515 0
M  V30 5532 C 521.702 0.483787 -1.80323 0
M  V30 5533 C 522.053 1.70879 -0.964099 0
M  V30 5534 O 521.178 2.15643 -0.180872 0
M  V30 5535 C 521.773 0.884459 -3.27052 0
M  V30 5536 C 520.332 1.36504 -3.50776 0
M  V30 5537 C 519.479 0.340539 -2.75201 0
M  V30 5538 H 522.43 -0.277691 -1.56252 0
M  V30 5539 H 522.451 1.74733 -3.38007 0
M  V30 5540 H 521.963 -0.00731093 -3.88099 0
M  V30 5541 H 520.064 2.27598 -2.95009 0
M  V30 5542 H 520.177 1.35675 -4.59488 0
M  V30 5543 H 518.541 0.81356 -2.41357 0
M  V30 5544 H 519.324 -0.543156 -3.38976 0
M  V30 5545 N 521.769 1.56035 0.221574 0
M  V30 5546 C 522.732 1.91584 1.2581 0
M  V30 5547 C 523.732 0.794425 1.39805 0
M  V30 5548 O 524.922 1.06217 1.38071 0
M  V30 5549 C 522.054 2.16663 2.63192 0
M  V30 5550 H 523.247 2.8429 0.954935 0
M  V30 5551 H 520.8 1.49316 0.461988 0
M  V30 5552 H 521.535 1.26508 2.98607 0
M  V30 5553 H 521.32 2.98358 2.5441 0
M  V30 5554 H 522.81 2.45262 3.37988 0
M  V30 5555 N 523.247 -0.488276 1.49845 0
M  V30 5556 C 524.495 -1.23911 1.59657 0
M  V30 5557 C 524.816 -1.92816 0.291005 0
M  V30 5558 O 524.086 -1.83328 -0.690485 0
M  V30 5559 H 522.666 -0.460357 0.588286 0
M  V30 5560 H 525.328 -0.564794 1.86537 0
M  V30 5561 H 524.424 -1.99625 2.39909 0
M  V30 5562 N 524.725 -1.39134 -0.740242 0
M  V30 5563 C 525.95 -1.39518 -1.53459 0
M  V30 5564 C 526.375 0.00968883 -1.88098 0
M  V30 5565 O 525.733 0.995312 -1.51536 0
M  V30 5566 C 525.781 -2.26981 -2.802 0
M  V30 5567 O 524.885 -1.69609 -3.75908 0
M  V30 5568 H 524.226 -0.475328 -0.463637 0
M  V30 5569 H 526.756 -1.83064 -0.913717 0
M  V30 5570 H 526.766 -2.41309 -3.28989 0
M  V30 5571 H 525.441 -3.29081 -2.5432 0
M  V30 5572 H 524.018 -1.64495 -3.34658 0
M  V30 5573 N 526.204 0.969867 -1.24223 0
M  V30 5574 C 527.452 1.70918 -1.0785 0
M  V30 5575 C 527.773 1.91186 0.383763 0
M  V30 5576 O 527.043 1.48806 1.27411 0
M  V30 5577 H 525.623 0.633334 -0.396103 0
M  V30 5578 H 528.285 1.16689 -1.56108 0
M  V30 5579 H 527.381 2.69455 -1.57482 0
M  V30 5580 N 527.682 1.05563 1.17022 0
M  V30 5581 C 528.912 0.787307 1.91011 0
M  V30 5582 C 529.32 -0.661256 1.77268 0
M  V30 5583 O 528.663 -1.46379 1.10991 0
M  V30 5584 C 528.725 1.09313 3.42478 0
M  V30 5585 C 528.389 2.53863 3.80004 0
M  V30 5586 C 529.386 3.52081 3.82538 0
M  V30 5587 C 527.071 2.88969 4.10855 0
M  V30 5588 C 529.065 4.83449 4.15399 0
M  V30 5589 C 526.752 4.2054 4.43384 0
M  V30 5590 C 527.75 5.17589 4.45635 0
M  V30 5591 O 527.438 6.46799 4.77395 0
M  V30 5592 H 527.17 0.285463 0.61277 0
M  V30 5593 H 529.724 1.41051 1.49311 0
M  V30 5594 H 527.954 0.412833 3.8449 0
M  V30 5595 H 529.643 0.810224 3.97731 0
M  V30 5596 H 530.409 3.26299 3.58823 0
M  V30 5597 H 526.288 2.1409 4.08272 0
M  V30 5598 H 529.832 5.59194 4.1707 0
M  V30 5599 H 525.729 4.46083 4.66563 0
M  V30 5600 H 526.497 6.51677 4.95237 0
M  V30 5601 N 529.16 -1.33526 0.837174 0
M  V30 5602 C 530.385 -2.0258 0.444545 0
M  V30 5603 C 530.81 -1.6258 -0.946006 0
M  V30 5604 O 530.168 -0.817548 -1.6182 0
M  V30 5605 C 530.216 -3.5605 0.571006 0
M  V30 5606 O 529.32 -4.10422 -0.403431 0
M  V30 5607 H 528.661 -0.638866 0.180958 0
M  V30 5608 H 531.191 -1.70462 1.13154 0
M  V30 5609 H 531.201 -4.05488 0.452024 0
M  V30 5610 H 529.876 -3.84509 1.58512 0
M  V30 5611 H 528.453 -3.72113 -0.242147 0
M  V30 5612 N 530.638 -0.59345 -1.46 0
M  V30 5613 C 531.886 -0.082988 -2.0193 0
M  V30 5614 C 532.207 1.28569 -1.46612 0
M  V30 5615 O 531.477 1.84629 -0.654909 0
M  V30 5616 H 530.057 -0.0276882 -0.746487 0
M  V30 5617 H 532.719 -0.771657 -1.78973 0
M  V30 5618 H 531.815 -0.022079 -3.12092 0
M  V30 5619 N 532.116 1.54067 -0.331816 0
M  V30 5620 C 533.364 2.00319 0.267739 0
M  V30 5621 C 533.685 1.22148 1.52003 0
M  V30 5622 O 532.955 0.325494 1.93177 0
M  V30 5623 H 531.535 0.740014 0.101922 0
M  V30 5624 H 534.197 1.89628 -0.450267 0
M  V30 5625 H 533.293 3.07765 0.518385 0
M  V30 5626 N 533.594 0.0601682 1.57485 0
M  V30 5627 C 534.524 -0.90889 2.15085 0
M  V30 5628 C 535.505 -1.31838 1.07484 0
M  V30 5629 O 536.69 -1.3915 1.35466 0
M  V30 5630 C 533.82 -2.18059 2.7031 0
M  V30 5631 C 532.774 -1.91088 3.82974 0
M  V30 5632 C 532.1 -3.24789 4.24754 0
M  V30 5633 C 533.4 -1.22535 5.07723 0
M  V30 5634 H 535.094 -0.429093 2.96309 0
M  V30 5635 H 532.64 -0.204952 1.42534 0
M  V30 5636 H 534.593 -2.86258 3.09248 0
M  V30 5637 H 533.317 -2.6826 1.8629 0
M  V30 5638 H 531.976 -1.25297 3.44523 0
M  V30 5639 H 531.624 -3.72809 3.37672 0
M  V30 5640 H 531.324 -3.07538 5.00694 0
M  V30 5641 H 532.848 -3.94205 4.66299 0
M  V30 5642 H 534.262 -1.80783 5.4405 0
M  V30 5643 H 532.659 -1.1558 5.88864 0
M  V30 5644 H 533.729 -0.202692 4.84476 0
M  V30 5645 N 535.072 -1.5615 -0.213296 0
M  V30 5646 C 536.035 -1.92249 -1.24792 0
M  V30 5647 C 537.035 -0.801828 -1.39382 0
M  V30 5648 O 538.225 -1.06948 -1.37506 0
M  V30 5649 C 535.357 -2.18056 -2.62039 0
M  V30 5650 H 536.55 -2.84793 -0.939845 0
M  V30 5651 H 534.103 -1.49559 -0.454062 0
M  V30 5652 H 534.838 -1.2809 -2.97932 0
M  V30 5653 H 534.623 -2.99703 -2.52825 0
M  V30 5654 H 536.113 -2.47051 -3.36683 0
M  V30 5655 N 536.55 0.480323 -1.50102 0
M  V30 5656 C 537.48 1.58769 -1.71215 0
M  V30 5657 C 538.461 1.60583 -0.560997 0
M  V30 5658 O 539.646 1.76996 -0.799127 0
M  V30 5659 C 536.776 2.97148 -1.79778 0
M  V30 5660 C 535.73 3.10201 -2.94888 0
M  V30 5661 C 535.056 4.50137 -2.88584 0
M  V30 5662 C 536.356 2.88283 -4.35534 0
M  V30 5663 H 538.05 1.41354 -2.6393 0
M  V30 5664 H 535.596 0.678591 -1.27008 0
M  V30 5665 H 537.549 3.74536 -1.93133 0
M  V30 5666 H 536.273 3.15699 -0.836772 0
M  V30 5667 H 534.932 2.35244 -2.81169 0
M  V30 5668 H 534.58 4.65593 -1.90349 0
M  V30 5669 H 534.28 4.59808 -3.65856 0
M  V30 5670 H 535.804 5.29558 -3.03976 0
M  V30 5671 H 537.218 3.55427 -4.49827 0
M  V30 5672 H 535.615 3.09408 -5.14186 0
M  V30 5673 H 536.685 1.84219 -4.48544 0
M  V30 5674 N 538.028 1.39524 0.732853 0
M  V30 5675 C 538.991 1.38189 1.82857 0
M  V30 5676 C 539.991 0.278624 1.58368 0
M  V30 5677 O 541.181 0.536639 1.65728 0
M  V30 5678 C 538.313 1.15661 3.2068 0
M  V30 5679 H 539.506 2.35692 1.85444 0
M  V30 5680 H 537.059 1.2512 0.936728 0
M  V30 5681 H 537.794 0.188482 3.23752 0
M  V30 5682 H 537.579 1.95559 3.39852 0
M  V30 5683 H 539.069 1.17472 4.00737 0
M  V30 5684 N 539.506 -0.963266 1.24736 0
M  V30 5685 C 540.416 -2.09246 1.06082 0
M  V30 5686 C 541.432 -1.74 0.000363101 0
M  V30 5687 O 542.608 -2.0041 0.199479 0
M  V30 5688 C 539.673 -3.40115 0.672498 0
M  V30 5689 C 538.734 -3.89282 1.80993 0
M  V30 5690 C 537.967 -5.13905 1.44004 0
M  V30 5691 O 538.19 -5.69434 0.331835 0
M  V30 5692 O 537.124 -5.57566 2.26723 0
M  V30 5693 H 540.95 -2.27881 2.00759 0
M  V30 5694 H 538.535 -1.07649 1.03595 0
M  V30 5695 H 540.417 -4.18797 0.467668 0
M  V30 5696 H 539.092 -3.22771 -0.245102 0
M  V30 5697 H 537.999 -3.11642 2.06955 0
M  V30 5698 H 539.332 -4.1111 2.70646 0
M  V30 5699 N 540.985 -1.06182 -1.16461 0
M  V30 5700 C 542.215 -0.797425 -1.9059 0
M  V30 5701 C 542.623 0.651845 -1.77616 0
M  V30 5702 O 541.966 1.45788 -1.11766 0
M  V30 5703 C 542.028 -1.11128 -3.41893 0
M  V30 5704 C 541.692 -2.55874 -3.78652 0
M  V30 5705 C 542.689 -3.54104 -3.80665 0
M  V30 5706 C 540.374 -2.91144 -4.09317 0
M  V30 5707 C 542.368 -4.85645 -4.12829 0
M  V30 5708 C 540.055 -4.22885 -4.41148 0
M  V30 5709 C 541.053 -5.19945 -4.42883 0
M  V30 5710 O 540.741 -6.49322 -4.73959 0
M  V30 5711 H 540.473 -0.288709 -0.611247 0
M  V30 5712 H 543.027 -1.41841 -1.4856 0
M  V30 5713 H 541.257 -0.433217 -3.84266 0
M  V30 5714 H 542.946 -0.831306 -3.97296 0
M  V30 5715 H 543.712 -3.28197 -3.57088 0
M  V30 5716 H 539.591 -2.16252 -4.07131 0
M  V30 5717 H 543.135 -5.61398 -4.14099 0
M  V30 5718 H 539.032 -4.48551 -4.6419 0
M  V30 5719 H 539.8 -6.54294 -4.91774 0
M  V30 5720 N 542.463 1.3308 -0.844243 0
M  V30 5721 C 543.74 1.92178 -0.364261 0
M  V30 5722 C 544.12 1.76961 1.15101 0
M  V30 5723 O 543.468 1.16128 1.9679 0
M  V30 5724 C 543.678 3.393 -0.817106 0
M  V30 5725 C 545.026 4.16444 -0.828236 0
M  V30 5726 O 546.05 3.47975 -0.761062 0
M  V30 5727 O 544.909 5.38685 -0.920926 0
M  V30 5728 H 542.003 0.820411 -0.10419 0
M  V30 5729 H 544.549 1.41918 -0.930453 0
M  V30 5730 H 543.321 3.44272 -1.85991 0
M  V30 5731 H 542.944 3.96947 -0.227785 0
M  V30 5732 N 543.941 0.601185 1.45683 0
M  V30 5733 C 544.873 -0.159446 2.28645 0
M  V30 5734 C 545.886 -0.837882 1.39583 0
M  V30 5735 O 547.075 -0.704344 1.64016 0
M  V30 5736 C 544.175 -1.24641 3.15147 0
M  V30 5737 C 543.348 -0.656334 4.32448 0
M  V30 5738 C 542.407 -1.63337 5.00208 0
M  V30 5739 O 541.433 -1.16217 5.57209 0
M  V30 5740 N 542.635 -2.96773 4.98905 0
M  V30 5741 H 545.4 0.5524 2.94565 0
M  V30 5742 H 542.961 0.440223 1.558 0
M  V30 5743 H 544.953 -1.8997 3.57342 0
M  V30 5744 H 543.523 -1.86087 2.51178 0
M  V30 5745 H 542.743 0.174879 3.93812 0
M  V30 5746 H 544.031 -0.242211 5.08223 0
M  V30 5747 H 543.429 -3.37662 4.53873 0
M  V30 5748 H 541.986 -3.57541 5.44984 0
M  V30 5749 N 545.419 -1.53889 0.339982 0
M  V30 5750 C 546.83 -1.86139 -0.144671 0
M  V30 5751 C 547.181 -1.2613 -1.50285 0
M  V30 5752 O 546.306 -0.573515 -2.08662 0
M  V30 5753 C 546.901 -3.37728 -0.269285 0
M  V30 5754 C 545.46 -3.69868 -0.698168 0
M  V30 5755 C 544.607 -2.76777 0.170249 0
M  V30 5756 H 547.558 -1.48503 0.559704 0
M  V30 5757 H 547.579 -3.64331 -1.0974 0
M  V30 5758 H 547.091 -3.81375 0.719366 0
M  V30 5759 H 545.192 -3.31764 -1.69597 0
M  V30 5760 H 545.305 -4.76582 -0.490533 0
M  V30 5761 H 543.669 -2.52188 -0.356844 0
M  V30 5762 H 544.452 -3.23253 1.15597 0
M  V30 5763 N 546.897 -0.0685191 -1.57451 0
M  V30 5764 C 548.127 0.609577 -1.97402 0
M  V30 5765 C 548.535 1.63882 -0.945489 0
M  V30 5766 O 547.878 1.8354 0.0766052 0
M  V30 5767 C 547.94 1.3385 -3.33653 0
M  V30 5768 C 547.604 0.463103 -4.54648 0
M  V30 5769 C 548.601 -0.277964 -5.19156 0
M  V30 5770 C 546.286 0.388941 -5.00792 0
M  V30 5771 C 548.28 -1.08145 -6.28159 0
M  V30 5772 C 545.967 -0.418217 -6.09667 0
M  V30 5773 C 546.965 -1.15208 -6.73213 0
M  V30 5774 O 546.653 -1.94594 -7.79993 0
M  V30 5775 H 546.385 0.170197 -0.654224 0
M  V30 5776 H 548.939 -0.13647 -2.04946 0
M  V30 5777 H 547.169 2.13055 -3.22714 0
M  V30 5778 H 548.858 1.90851 -3.58233 0
M  V30 5779 H 549.624 -0.230241 -4.84453 0
M  V30 5780 H 545.503 0.949769 -4.5111 0
M  V30 5781 H 549.047 -1.65476 -6.7769 0
M  V30 5782 H 544.944 -0.467515 -6.43805 0
M  V30 5783 H 545.712 -1.8699 -7.96854 0
M  V30 5784 N 548.375 1.56261 0.205012 0
M  V30 5785 C 549.623 1.79684 0.925096 0
M  V30 5786 C 549.944 0.63989 1.84202 0
M  V30 5787 O 549.214 -0.342345 1.92885 0
M  V30 5788 H 547.794 0.662774 0.344587 0
M  V30 5789 H 550.456 1.93734 0.212899 0
M  V30 5790 H 549.552 2.72467 1.52211 0
M  V30 5791 N 549.853 -0.472356 1.50355 0
M  V30 5792 C 551.101 -1.22211 1.60962 0
M  V30 5793 C 551.422 -1.92497 0.311439 0
M  V30 5794 O 550.692 -1.8405 -0.671002 0
M  V30 5795 H 549.272 -0.454092 0.593135 0
M  V30 5796 H 551.934 -0.544977 1.87126 0
M  V30 5797 H 551.03 -1.9707 2.42012 0
M  V30 5798 N 551.331 -1.39911 -0.725443 0
M  V30 5799 C 552.578 -1.37654 -1.48518 0
M  V30 5800 C 552.906 0.0243982 -1.94485 0
M  V30 5801 O 552.161 1.00708 -1.67799 0
M  V30 5802 C 552.46 -2.30368 -2.7325 0
M  V30 5803 C 552.126 -3.77817 -2.461 0
M  V30 5804 C 550.788 -4.17991 -2.38405 0
M  V30 5805 C 553.14 -4.71036 -2.23103 0
M  V30 5806 C 550.468 -5.49433 -2.05768 0
M  V30 5807 C 552.82 -6.02766 -1.9198 0
M  V30 5808 C 551.484 -6.41993 -1.82761 0
M  V30 5809 H 550.754 -0.503713 -0.543465 0
M  V30 5810 H 553.401 -1.7249 -0.831822 0
M  V30 5811 H 551.706 -1.88683 -3.43375 0
M  V30 5812 H 553.403 -2.2591 -3.31309 0
M  V30 5813 H 549.993 -3.45982 -2.52972 0
M  V30 5814 H 554.177 -4.40823 -2.2801 0
M  V30 5815 H 549.433 -5.78738 -1.9716 0
M  V30 5816 H 553.607 -6.74519 -1.73197 0
M  V30 5817 H 551.234 -7.43761 -1.57237 0
M  V30 5818 N 552.809 0.956637 -1.25245 0
M  V30 5819 C 553.739 2.07058 -1.07931 0
M  V30 5820 C 554.72 1.70096 0.0110361 0
M  V30 5821 O 555.905 1.93555 -0.158121 0
M  V30 5822 C 553.035 3.40272 -0.695124 0
M  V30 5823 C 551.989 3.91235 -1.73549 0
M  V30 5824 C 551.315 5.20921 -1.20604 0
M  V30 5825 C 552.615 4.17837 -3.13385 0
M  V30 5826 H 554.309 2.218 -2.01109 0
M  V30 5827 H 551.855 1.06581 -0.968326 0
M  V30 5828 H 553.808 4.1765 -0.560949 0
M  V30 5829 H 552.532 3.25462 0.272355 0
M  V30 5830 H 551.191 3.16025 -1.85807 0
M  V30 5831 H 550.839 5.02479 -0.228846 0
M  V30 5832 H 550.539 5.55987 -1.90136 0
M  V30 5833 H 552.063 6.00897 -1.08421 0
M  V30 5834 H 553.477 4.8588 -3.04292 0
M  V30 5835 H 551.874 4.64154 -3.80369 0
M  V30 5836 H 552.944 3.2419 -3.60595 0
M  V30 5837 N 554.287 1.06798 1.15896 0
M  V30 5838 C 555.564 0.701057 1.82605 0
M  V30 5839 C 555.944 -0.817066 1.94646 0
M  V30 5840 O 555.292 -1.72933 1.49353 0
M  V30 5841 C 555.502 1.40895 3.19296 0
M  V30 5842 C 556.85 1.55744 3.95005 0
M  V30 5843 O 557.874 1.36927 3.28831 0
M  V30 5844 O 556.733 1.86658 5.13635 0
M  V30 5845 H 553.827 0.248791 0.78869 0
M  V30 5846 H 556.373 1.16857 1.23055 0
M  V30 5847 H 555.145 2.4439 3.05596 0
M  V30 5848 H 554.768 0.931847 3.86526 0
M  V30 5849 N 555.766 -1.3263 0.851289 0
M  V30 5850 C 557.015 -1.96633 0.449267 0
M  V30 5851 C 557.328 -1.68131 -0.999562 0
M  V30 5852 O 558.534 -2.25845 -1.50685 0
M  V30 5853 C 556.99 -3.51946 0.752446 0
M  V30 5854 C 556.598 -3.89311 2.21678 0
M  V30 5855 C 558.342 -4.22437 0.417983 0
M  V30 5856 C 556.249 -5.37655 2.46336 0
M  V30 5857 H 555.179 -0.735888 0.164269 0
M  V30 5858 H 557.83 -1.51073 1.0416 0
M  V30 5859 H 556.212 -3.95899 0.0895858 0
M  V30 5860 H 557.386 -3.56378 2.92115 0
M  V30 5861 H 555.701 -3.31836 2.51543 0
M  V30 5862 H 558.298 -5.31549 0.579674 0
M  V30 5863 H 558.641 -4.11349 -0.640115 0
M  V30 5864 H 559.174 -3.84057 1.03659 0
M  V30 5865 H 555.913 -5.5376 3.50757 0
M  V30 5866 H 555.433 -5.72005 1.80473 0
M  V30 5867 H 557.112 -6.04695 2.30115 0
M  V30 5868 N 557.244 -0.608902 -1.45362 0
M  V30 5869 C 558.174 0.0964526 -2.33301 0
M  V30 5870 C 559.155 0.857444 -1.46908 0
M  V30 5871 O 560.34 0.827735 -1.75676 0
M  V30 5872 C 557.47 1.09354 -3.29635 0
M  V30 5873 C 556.424 0.445676 -4.25673 0
M  V30 5874 C 555.75 1.5511 -5.11708 0
M  V30 5875 C 557.05 -0.633972 -5.18438 0
M  V30 5876 H 558.744 -0.637829 -2.92527 0
M  V30 5877 H 556.29 -0.308178 -1.40664 0
M  V30 5878 H 558.243 1.59556 -3.90025 0
M  V30 5879 H 556.967 1.85843 -2.6857 0
M  V30 5880 H 555.626 -0.0354897 -3.66583 0
M  V30 5881 H 555.274 2.30631 -4.4701 0
M  V30 5882 H 554.974 1.12311 -5.76767 0
M  V30 5883 H 556.498 2.05537 -5.74967 0
M  V30 5884 H 557.912 -0.215974 -5.72893 0
M  V30 5885 H 556.309 -0.983789 -5.91981 0
M  V30 5886 H 557.379 -1.51005 -4.60788 0
M  V30 5887 N 558.722 1.53707 -0.348139 0
M  V30 5888 C 560.138 1.596 0.00361134 0
M  V30 5889 C 560.338 1.36394 1.4832 0
M  V30 5890 O 559.394 1.16046 2.24253 0
M  V30 5891 C 560.707 2.97512 -0.436682 0
M  V30 5892 C 562.255 3.10568 -0.389416 0
M  V30 5893 C 562.73 4.50866 -0.805249 0
M  V30 5894 N 564.221 4.56929 -0.759616 0
M  V30 5895 C 564.956 5.63643 -1.05327 0
M  V30 5896 N 564.452 6.78189 -1.41531 0
M  V30 5897 N 566.245 5.5354 -0.977207 0
M  V30 5898 H 558.396 1.67044 -1.31187 0
M  V30 5899 H 560.659 0.782559 -0.535075 0
M  V30 5900 H 560.365 3.19575 -1.46849 0
M  V30 5901 H 560.239 3.76742 0.185744 0
M  V30 5902 H 562.626 2.88226 0.633228 0
M  V30 5903 H 562.707 2.33387 -1.04711 0
M  V30 5904 H 562.351 4.73943 -1.82593 0
M  V30 5905 H 562.281 5.26452 -0.124989 0
M  V30 5906 H 564.772 3.74675 -0.49265 0
M  V30 5907 H 565.085 7.55541 -1.62411 0
M  V30 5908 H 563.43 6.79624 -1.45381 0
M  V30 5909 H 566.621 4.62932 -0.693675 0
M  V30 5910 H 566.794 6.36614 -1.2094 0
M  V30 5911 N 560.2 0.0768682 1.57412 0
M  V30 5912 C 561.448 -0.589918 1.93299 0
M  V30 5913 C 561.769 -1.69842 0.958049 0
M  V30 5914 O 561.039 -1.95899 0.00703261 0
M  V30 5915 H 559.619 -0.220901 0.713591 0
M  V30 5916 H 562.281 0.135917 1.94425 0
M  V30 5917 H 561.377 -1.01195 2.95239 0
M  V30 5918 N 561.678 -1.56367 -0.196722 0
M  V30 5919 C 562.926 -1.80172 -0.915554 0
M  V30 5920 C 563.247 -0.649649 -1.8386 0
M  V30 5921 O 562.517 0.332111 -1.93064 0
M  V30 5922 H 561.097 -0.664592 -0.341067 0
M  V30 5923 H 563.759 -1.93844 -0.202622 0
M  V30 5924 H 562.855 -2.7327 -1.50764 0
M  V30 5925 N 563.156 0.464375 -1.50603 0
M  V30 5926 C 564.384 1.23907 -1.65695 0
M  V30 5927 C 564.799 1.85658 -0.343027 0
M  V30 5928 O 564.156 1.69529 0.675739 0
M  V30 5929 C 564.207 2.3429 -2.75301 0
M  V30 5930 O 563.928 1.7507 -4.01599 0
M  V30 5931 C 565.429 3.25051 -3.01424 0
M  V30 5932 H 562.649 0.374485 -0.556778 0
M  V30 5933 H 565.193 0.55353 -1.96866 0
M  V30 5934 H 563.348 2.98607 -2.46804 0
M  V30 5935 H 563.762 2.47812 -4.62266 0
M  V30 5936 H 565.236 3.98699 -3.81763 0
M  V30 5937 H 565.713 3.84227 -2.12758 0
M  V30 5938 H 566.319 2.66463 -3.31477 0
M  V30 5939 N 564.634 1.40294 0.718013 0
M  V30 5940 C 565.544 1.42678 1.86226 0
M  V30 5941 C 566.56 0.319655 1.71039 0
M  V30 5942 O 567.736 0.563852 1.93346 0
M  V30 5943 C 564.801 1.2852 3.21999 0
M  V30 5944 C 563.862 2.49354 3.49458 0
M  V30 5945 C 563.095 2.35863 4.78753 0
M  V30 5946 O 563.318 1.37114 5.53675 0
M  V30 5947 O 562.252 3.25189 5.06494 0
M  V30 5948 H 566.078 2.39167 1.87171 0
M  V30 5949 H 563.663 1.2159 0.868112 0
M  V30 5950 H 565.545 1.22824 4.03103 0
M  V30 5951 H 564.22 0.351359 3.21787 0
M  V30 5952 H 563.127 2.60628 2.68373 0
M  V30 5953 H 564.46 3.41491 3.54464 0
M  V30 5954 N 566.112 -0.949982 1.2575 0
M  V30 5955 C 567.528 -1.22191 1.02672 0
M  V30 5956 C 567.728 -1.99898 -0.253588 0
M  V30 5957 O 566.784 -2.33329 -0.965076 0
M  V30 5958 C 568.097 -1.99175 2.25277 0
M  V30 5959 C 569.645 -2.12201 2.30087 0
M  V30 5960 C 570.12 -2.92586 3.5236 0
M  V30 5961 N 571.611 -3.00163 3.52784 0
M  V30 5962 C 572.346 -3.62766 4.44059 0
M  V30 5963 N 571.842 -4.26943 5.45611 0
M  V30 5964 N 573.635 -3.59953 4.3173 0
M  V30 5965 H 565.786 -0.430258 2.07996 0
M  V30 5966 H 568.049 -0.252844 0.91366 0
M  V30 5967 H 567.755 -1.49479 3.18354 0
M  V30 5968 H 567.629 -2.99868 2.28821 0
M  V30 5969 H 570.016 -2.61093 1.3753 0
M  V30 5970 H 570.097 -1.10799 2.30559 0
M  V30 5971 H 569.741 -2.44383 4.45241 0
M  V30 5972 H 569.671 -3.94224 3.49134 0
M  V30 5973 H 572.162 -2.54529 2.79327 0
M  V30 5974 H 572.475 -4.72583 6.11461 0
M  V30 5975 H 570.82 -4.25557 5.49478 0
M  V30 5976 H 574.011 -3.09003 3.51617 0
M  V30 5977 H 574.184 -4.08455 5.03059 0
M  V30 5978 N 567.59 -1.07411 -1.15328 0
M  V30 5979 C 568.52 -0.716472 -2.22236 0
M  V30 5980 C 569.501 0.296373 -1.67498 0
M  V30 5981 O 570.686 0.168989 -1.93463 0
M  V30 5982 C 567.816 -0.114142 -3.47112 0
M  V30 5983 C 566.77 -1.05421 -4.14814 0
M  V30 5984 C 566.096 -0.314604 -5.33774 0
M  V30 5985 C 567.396 -2.38808 -4.64508 0
M  V30 5986 H 569.09 -1.61029 -2.52408 0
M  V30 5987 H 566.636 -0.775702 -1.21321 0
M  V30 5988 H 568.589 0.148001 -4.2114 0
M  V30 5989 H 567.313 0.814755 -3.16274 0
M  V30 5990 H 565.972 -1.30128 -3.42728 0
M  V30 5991 H 565.62 0.617772 -4.99192 0
M  V30 5992 H 565.32 -0.941209 -5.80013 0
M  V30 5993 H 566.844 -0.0602747 -6.1057 0
M  V30 5994 H 568.258 -2.18424 -5.3006 0
M  V30 5995 H 566.655 -2.97069 -5.21412 0
M  V30 5996 H 567.725 -3.01067 -3.80114 0
M  V30 5997 N 569.068 1.32177 -0.85831 0
M  V30 5998 C 570.315 1.97125 -0.463484 0
M  V30 5999 C 570.643 1.67907 0.981705 0
M  V30 6000 O 569.898 0.961717 1.70439 0
M  V30 6001 C 570.197 3.51372 -0.653658 0
M  V30 6002 C 569.863 4.00584 -2.06987 0
M  V30 6003 C 568.525 4.13733 -2.4572 0
M  V30 6004 C 570.877 4.26624 -2.99402 0
M  V30 6005 C 568.205 4.50268 -3.76132 0
M  V30 6006 C 570.557 4.64618 -4.29316 0
M  V30 6007 C 569.221 4.75975 -4.67979 0
M  V30 6008 H 568.491 0.72133 -0.169601 0
M  V30 6009 H 571.138 1.57517 -1.08907 0
M  V30 6010 H 569.443 3.91761 0.0551328 0
M  V30 6011 H 571.14 3.99655 -0.328163 0
M  V30 6012 H 567.73 3.90837 -1.75911 0
M  V30 6013 H 571.914 4.1597 -2.70708 0
M  V30 6014 H 567.17 4.57256 -4.05865 0
M  V30 6015 H 571.344 4.83722 -5.00985 0
M  V30 6016 H 568.971 5.04041 -5.69076 0
M  V30 6017 N 570.547 0.616602 1.45037 0
M  V30 6018 C 571.775 0.121968 2.0654 0
M  V30 6019 C 572.19 -1.19743 1.45969 0
M  V30 6020 O 571.547 -1.73133 0.577168 0
M  V30 6021 C 571.598 -0.0145171 3.61497 0
M  V30 6022 O 571.319 1.25269 4.19809 0
M  V30 6023 C 572.82 -0.539555 4.40004 0
M  V30 6024 H 570.04 0.0729837 0.667019 0
M  V30 6025 H 572.584 0.846891 1.8614 0
M  V30 6026 H 570.739 -0.689809 3.81209 0
M  V30 6027 H 571.153 1.08816 5.13088 0
M  V30 6028 H 572.627 -0.584112 5.48901 0
M  V30 6029 H 573.104 -1.56368 4.10421 0
M  V30 6030 H 573.71 0.101995 4.25178 0
M  V30 6031 N 572.025 -1.5352 0.356285 0
M  V30 6032 C 572.973 -2.26945 -0.50978 0
M  V30 6033 C 573.967 -1.29569 -1.09125 0
M  V30 6034 O 575.173 -1.47231 -1.03552 0
M  V30 6035 H 571.548 -0.729368 -0.183102 0
M  V30 6036 H 573.519 -2.98111 0.131374 0
M  V30 6037 C 572.268 -3.06466 -1.64237 0
M  V30 6038 H 571.591 -3.81233 -1.20423 0
M  V30 6039 H 573.031 -3.61035 -2.22327 0
M  V30 6040 C 571.49 -2.16737 -2.57928 0
M  V30 6041 O 572.02 -1.77195 -3.60507 0
M  V30 6042 N 570.226 -1.81558 -2.26903 0
M  V30 6043 H 569.773 -2.13913 -1.43524 0
M  V30 6044 H 569.731 -1.21806 -2.89846 0
M  V30 6045 N 573.503 -0.0852151 -1.57369 0
M  V30 6046 C 574.433 0.874556 -2.16503 0
M  V30 6047 C 575.414 1.30111 -1.09568 0
M  V30 6048 O 576.599 1.36977 -1.37662 0
M  V30 6049 C 573.729 2.13731 -2.73745 0
M  V30 6050 C 572.683 1.84971 -3.85966 0
M  V30 6051 C 572.009 3.17991 -4.29867 0
M  V30 6052 C 573.309 1.14442 -5.09608 0
M  V30 6053 H 575.003 0.381899 -2.96954 0
M  V30 6054 H 572.549 0.18225 -1.42842 0
M  V30 6055 H 574.502 2.81302 -3.13763 0
M  V30 6056 H 573.226 2.65263 -1.90534 0
M  V30 6057 H 571.885 1.19801 -3.46473 0
M  V30 6058 H 571.533 3.6739 -3.4356 0
M  V30 6059 H 571.233 2.99534 -5.05523 0
M  V30 6060 H 572.757 3.86737 -4.72511 0
M  V30 6061 H 574.171 1.72105 -5.46857 0
M  V30 6062 H 572.568 1.06197 -5.90629 0
M  V30 6063 H 573.638 0.12559 -4.84737 0
M  V30 6064 N 574.981 1.5647 0.188427 0
M  V30 6065 C 575.928 1.95073 1.23349 0
M  V30 6066 C 576.898 0.812238 1.44886 0
M  V30 6067 O 578.083 1.07095 1.57909 0
M  V30 6068 C 575.223 2.30124 2.57171 0
M  V30 6069 C 574.336 3.57069 2.43157 0
M  V30 6070 C 573.471 3.81411 3.69729 0
M  V30 6071 C 572.51 5.0176 3.50575 0
M  V30 6072 N 571.647 5.22321 4.69175 0
M  V30 6073 H 576.487 2.84171 0.89728 0
M  V30 6074 H 574.024 1.40623 0.431683 0
M  V30 6075 H 575.982 2.48463 3.35145 0
M  V30 6076 H 574.612 1.44159 2.88822 0
M  V30 6077 H 573.664 3.4674 1.56447 0
M  V30 6078 H 574.976 4.452 2.24942 0
M  V30 6079 H 574.13 4.00026 4.56141 0
M  V30 6080 H 572.869 2.91624 3.90905 0
M  V30 6081 H 571.874 4.83061 2.62549 0
M  V30 6082 H 573.099 5.93063 3.30837 0
M  V30 6083 H 571.045 4.35483 4.90602 0
M  V30 6084 H 570.962 6.04643 4.53809 0
M  V30 6085 H 572.23 5.45401 5.56919 0
M  V30 6086 N 576.459 -0.456382 1.50847 0
M  V30 6087 C 577.736 -1.21739 1.53098 0
M  V30 6088 C 578.116 -2.09179 0.284132 0
M  V30 6089 O 577.464 -2.16466 -0.731773 0
M  V30 6090 C 577.674 -2.03573 2.83477 0
M  V30 6091 C 579.022 -2.61264 3.34703 0
M  V30 6092 O 580.046 -2.13802 2.84898 0
M  V30 6093 O 578.905 -3.47779 4.21559 0
M  V30 6094 H 575.999 -0.553219 0.614718 0
M  V30 6095 H 578.545 -0.467003 1.63148 0
M  V30 6096 H 577.317 -1.39232 3.65691 0
M  V30 6097 H 576.94 -2.85716 2.76499 0
M  V30 6098 N 577.937 -1.40673 -0.710563 0
M  V30 6099 C 579.165 -1.42547 -1.4996 0
M  V30 6100 C 579.58 -0.0265485 -1.88781 0
M  V30 6101 O 578.937 0.950694 -1.55782 0
M  V30 6102 C 578.988 -2.32071 -2.77173 0
M  V30 6103 O 578.709 -3.66518 -2.39992 0
M  V30 6104 C 580.21 -2.42591 -3.71032 0
M  V30 6105 H 577.43 -0.486025 -0.462623 0
M  V30 6106 H 579.974 -1.84783 -0.876102 0
M  V30 6107 H 578.129 -1.93184 -3.35795 0
M  V30 6108 H 578.543 -4.14115 -3.21884 0
M  V30 6109 H 580.017 -3.09429 -4.57119 0
M  V30 6110 H 580.494 -1.4525 -4.14486 0
M  V30 6111 H 581.1 -2.82051 -3.18319 0
M  V30 6112 N 579.415 0.9433 -1.26252 0
M  V30 6113 C 580.64 1.72898 -1.14547 0
M  V30 6114 C 581.065 1.85761 0.295743 0
M  V30 6115 O 580.423 1.3463 1.21427 0
M  V30 6116 C 580.471 3.11471 -1.8171 0
M  V30 6117 O 579.575 3.97336 -1.10445 0
M  V30 6118 H 578.916 0.530555 -0.399259 0
M  V30 6119 H 581.446 1.18159 -1.67032 0
M  V30 6120 H 581.456 3.61872 -1.88449 0
M  V30 6121 H 580.131 3.01425 -2.86558 0
M  V30 6122 H 578.708 3.55788 -1.11666 0
M  V30 6123 N 580.893 1.08022 1.14757 0
M  V30 6124 C 582.118 0.82895 1.90114 0
M  V30 6125 C 582.543 -0.612772 1.77839 0
M  V30 6126 O 581.901 -1.42895 1.11583 0
M  V30 6127 C 581.949 1.25062 3.38219 0
M  V30 6128 O 581.053 0.400119 4.10454 0
M  V30 6129 H 580.394 0.301412 0.591648 0
M  V30 6130 H 582.924 1.44062 1.45284 0
M  V30 6131 H 582.934 1.22977 3.89025 0
M  V30 6132 H 581.609 2.30067 3.46471 0
M  V30 6133 H 580.186 0.484052 3.69745 0
M  V30 6134 N 582.371 -1.3172 0.865308 0
M  V30 6135 C 583.318 -2.2863 0.315736 0
M  V30 6136 C 584.288 -1.55524 -0.583213 0
M  V30 6137 O 585.473 -1.83694 -0.51585 0
M  V30 6138 C 582.613 -3.41735 -0.480773 0
M  V30 6139 C 581.726 -4.297 0.445167 0
M  V30 6140 C 580.861 -5.29944 -0.365012 0
M  V30 6141 C 579.9 -6.09554 0.557651 0
M  V30 6142 N 579.037 -7.01768 -0.215994 0
M  V30 6143 H 583.877 -2.75026 1.14736 0
M  V30 6144 H 581.414 -1.35302 0.577209 0
M  V30 6145 H 583.372 -4.06045 -0.958306 0
M  V30 6146 H 582.002 -2.96461 -1.27714 0
M  V30 6147 H 581.054 -3.65875 1.04113 0
M  V30 6148 H 582.366 -4.85295 1.15284 0
M  V30 6149 H 581.52 -5.99908 -0.905255 0
M  V30 6150 H 580.259 -4.74994 -1.106 0
M  V30 6151 H 579.264 -5.38485 1.10969 0
M  V30 6152 H 580.489 -6.66591 1.29742 0
M  V30 6153 H 578.435 -6.49232 -0.939878 0
M  V30 6154 H 578.352 -7.54762 0.432431 0
M  V30 6155 H 579.62 -7.76002 -0.737618 0
M  V30 6156 N 583.85 -0.624285 -1.44708 0
M  V30 6157 C 585.096 -0.126237 -2.02407 0
M  V30 6158 C 585.428 1.24618 -1.48943 0
M  V30 6159 O 584.704 1.82569 -0.670742 0
M  V30 6160 C 584.986 -0.105449 -3.59946 0
M  V30 6161 C 584.84 -1.50972 -4.23707 0
M  V30 6162 C 586.159 0.573629 -4.36346 0
M  V30 6163 H 583.278 -0.0473472 -0.735478 0
M  V30 6164 H 585.92 -0.799452 -1.72362 0
M  V30 6165 H 584.07 0.46783 -3.85673 0
M  V30 6166 H 585.742 -2.13136 -4.0911 0
M  V30 6167 H 583.985 -2.0656 -3.81465 0
M  V30 6168 H 584.656 -1.44727 -5.32689 0
M  V30 6169 H 587.132 0.0861787 -4.16011 0
M  V30 6170 H 586.008 0.557338 -5.46063 0
M  V30 6171 H 586.269 1.64276 -4.10446 0
M  V30 6172 N 585.328 1.53329 -0.364422 0
M  V30 6173 C 586.577 2.00421 0.226747 0
M  V30 6174 C 586.89 1.25581 1.49963 0
M  V30 6175 O 588.096 1.63256 2.16933 0
M  V30 6176 C 586.552 3.57017 0.454618 0
M  V30 6177 C 586.16 4.40734 -0.803568 0
M  V30 6178 C 587.904 4.12468 1.00351 0
M  V30 6179 C 585.811 5.8888 -0.545345 0
M  V30 6180 H 584.741 0.748787 0.0885082 0
M  V30 6181 H 587.392 1.7703 -0.482983 0
M  V30 6182 H 585.774 3.76558 1.22558 0
M  V30 6183 H 586.948 4.32967 -1.57723 0
M  V30 6184 H 585.263 3.96381 -1.27559 0
M  V30 6185 H 587.86 5.20783 1.212 0
M  V30 6186 H 588.203 3.6699 1.9653 0
M  V30 6187 H 588.736 3.96721 0.29274 0
M  V30 6188 H 585.475 6.38633 -1.47743 0
M  V30 6189 H 584.995 5.99499 0.189842 0
M  V30 6190 H 586.674 6.46776 -0.170425 0
M  V30 6191 N 586.806 0.0935595 1.57322 0
M  V30 6192 C 587.738 -0.895923 2.10964 0
M  V30 6193 C 588.751 -1.24705 1.04654 0
M  V30 6194 O 589.94 -1.20044 1.32105 0
M  V30 6195 C 587.04 -2.20546 2.57318 0
M  V30 6196 C 586.213 -2.0299 3.87445 0
M  V30 6197 C 585.272 -3.17443 4.19662 0
M  V30 6198 O 584.298 -2.91474 4.88909 0
M  V30 6199 N 585.5 -4.43168 3.74943 0
M  V30 6200 H 588.265 -0.437788 2.96485 0
M  V30 6201 H 585.826 -0.0915863 1.61641 0
M  V30 6202 H 587.818 -2.9606 2.75917 0
M  V30 6203 H 586.388 -2.57789 1.76816 0
M  V30 6204 H 585.608 -1.11815 3.78009 0
M  V30 6205 H 586.896 -1.88535 4.7258 0
M  V30 6206 H 586.294 -4.67149 3.19043 0
M  V30 6207 H 584.851 -5.15637 3.987 0
M  V30 6208 N 588.284 -1.56567 -0.180126 0
M  V30 6209 C 589.509 -1.85975 -0.918041 0
M  V30 6210 C 589.934 -0.678888 -1.75422 0
M  V30 6211 O 589.292 0.372168 -1.77439 0
M  V30 6212 C 589.34 -3.13731 -1.77779 0
M  V30 6213 O 588.444 -2.95335 -2.87838 0
M  V30 6214 H 587.785 -0.61196 -0.257683 0
M  V30 6215 H 590.315 -2.03798 -0.180923 0
M  V30 6216 H 590.325 -3.4491 -2.17948 0
M  V30 6217 H 589 -3.99293 -1.16352 0
M  V30 6218 H 587.577 -2.7549 -2.51316 0
M  V30 6219 N 589.762 0.448376 -1.51087 0
M  V30 6220 C 591.008 1.20049 -1.6345 0
M  V30 6221 C 591.341 1.91121 -0.344444 0
M  V30 6222 O 590.616 1.83125 0.655396 0
M  V30 6223 C 590.899 2.22624 -2.83038 0
M  V30 6224 C 590.752 1.55708 -4.21989 0
M  V30 6225 C 592.071 3.23718 -2.98152 0
M  V30 6226 H 589.19 0.435085 -0.59487 0
M  V30 6227 H 591.832 0.491183 -1.83541 0
M  V30 6228 H 589.982 2.83117 -2.66039 0
M  V30 6229 H 591.654 0.986367 -4.50631 0
M  V30 6230 H 589.897 0.859647 -4.25197 0
M  V30 6231 H 590.568 2.30357 -5.01637 0
M  V30 6232 H 593.044 2.73269 -3.13788 0
M  V30 6233 H 591.92 3.92795 -3.83411 0
M  V30 6234 H 592.181 3.89179 -2.09743 0
M  V30 6235 N 591.24 1.41047 0.703093 0
M  V30 6236 C 592.203 1.42036 1.79884 0
M  V30 6237 C 593.203 0.312153 1.57741 0
M  V30 6238 O 594.393 0.571672 1.64553 0
M  V30 6239 C 591.525 1.22437 3.18154 0
M  V30 6240 H 592.718 2.39572 1.80403 0
M  V30 6241 H 590.271 1.27079 0.909977 0
M  V30 6242 H 591.006 0.257112 3.23279 0
M  V30 6243 H 590.791 2.02723 3.35627 0
M  V30 6244 H 592.281 1.25946 3.98155 0
M  V30 6245 N 592.718 -0.936591 1.26751 0
M  V30 6246 C 593.666 -2.0573 1.08527 0
M  V30 6247 C 594.66 -1.69397 0.0108784 0
M  V30 6248 O 595.866 -1.79215 0.167915 0
M  V30 6249 H 592.241 -0.673691 0.334133 0
M  V30 6250 H 594.212 -2.1825 2.03493 0
M  V30 6251 C 592.961 -3.39738 0.739845 0
M  V30 6252 H 592.284 -3.68174 1.55845 0
M  V30 6253 H 593.724 -4.18955 0.652149 0
M  V30 6254 C 592.183 -3.32292 -0.555288 0
M  V30 6255 O 592.713 -3.68794 -1.59229 0
M  V30 6256 N 590.919 -2.85394 -0.54762 0
M  V30 6257 H 590.466 -2.55886 0.296667 0
M  V30 6258 H 590.424 -2.80795 -1.41427 0
M  V30 6259 N 594.196 -1.08629 -1.14182 0
M  V30 6260 C 595.426 -0.837673 -1.88856 0
M  V30 6261 C 595.834 0.614024 -1.78959 0
M  V30 6262 O 595.177 1.43384 -1.14833 0
M  V30 6263 C 595.239 -1.18355 -3.39459 0
M  V30 6264 C 594.903 -2.63848 -3.73139 0
M  V30 6265 C 595.9 -3.62099 -3.73069 0
M  V30 6266 C 593.585 -2.99761 -4.03049 0
M  V30 6267 C 595.579 -4.94292 -4.02435 0
M  V30 6268 C 593.266 -4.32147 -4.32078 0
M  V30 6269 C 594.264 -5.29223 -4.31755 0
M  V30 6270 O 593.952 -6.59229 -4.60079 0
M  V30 6271 H 593.684 -0.301609 -0.604986 0
M  V30 6272 H 596.238 -1.44961 -1.45518 0
M  V30 6273 H 594.468 -0.514628 -3.8326 0
M  V30 6274 H 596.157 -0.915391 -3.95443 0
M  V30 6275 H 596.923 -3.35698 -3.50046 0
M  V30 6276 H 592.802 -2.2484 -4.02453 0
M  V30 6277 H 596.346 -5.70055 -4.02098 0
M  V30 6278 H 592.243 -4.58296 -4.54571 0
M  V30 6279 H 593.011 -6.64578 -4.77785 0
M  V30 6280 N 595.674 1.31259 -0.872281 0
M  V30 6281 C 596.637 2.26744 -0.334656 0
M  V30 6282 C 597.637 1.52307 0.515681 0
M  V30 6283 O 598.827 1.71148 0.324656 0
M  V30 6284 C 595.959 3.36841 0.524482 0
M  V30 6285 H 597.152 2.75812 -1.17762 0
M  V30 6286 H 594.705 1.42232 -0.648064 0
M  V30 6287 H 595.44 2.93069 1.38855 0
M  V30 6288 H 595.225 3.92009 -0.0844299 0
M  V30 6289 H 596.715 4.07944 0.892838 0
M  V30 6290 N 597.152 0.631951 1.44375 0
M  V30 6291 C 598.099 -0.0724807 2.30686 0
M  V30 6292 C 599.069 -0.835975 1.43529 0
M  V30 6293 O 600.254 -0.816849 1.7243 0
M  V30 6294 C 597.394 -1.04753 3.28817 0
M  V30 6295 C 596.507 -0.282367 4.31076 0
M  V30 6296 C 595.642 -1.2493 5.163 0
M  V30 6297 C 594.681 -0.473349 6.10267 0
M  V30 6298 N 593.818 -1.39079 6.88187 0
M  V30 6299 H 598.658 0.669477 2.90383 0
M  V30 6300 H 596.195 0.341927 1.43071 0
M  V30 6301 H 598.153 -1.62623 3.842 0
M  V30 6302 H 596.783 -1.75661 2.70819 0
M  V30 6303 H 595.835 0.412268 3.78159 0
M  V30 6304 H 597.147 0.321955 4.9776 0
M  V30 6305 H 596.301 -1.89931 5.76204 0
M  V30 6306 H 595.04 -1.88755 4.49692 0
M  V30 6307 H 594.045 0.190142 5.49471 0
M  V30 6308 H 595.27 0.16019 6.78911 0
M  V30 6309 H 593.216 -2.01623 6.24247 0
M  V30 6310 H 593.133 -0.840513 7.51313 0
M  V30 6311 H 594.401 -2.02961 7.52613 0
M  V30 6312 N 598.631 -1.53133 0.372548 0
M  V30 6313 C 599.879 -2.00958 -0.214534 0
M  V30 6314 C 600.2 -1.26135 -1.48711 0
M  V30 6315 O 599.47 -0.376597 -1.92246 0
M  V30 6316 H 598.05 -0.742456 -0.0822664 0
M  V30 6317 H 600.712 -1.88367 0.500385 0
M  V30 6318 H 599.808 -3.09031 -0.436605 0
M  V30 6319 N 600.109 -0.101901 -1.5727 0
M  V30 6320 C 601.386 0.602832 -1.86079 0
M  V30 6321 C 601.766 1.85912 -1 0
M  V30 6322 O 601.114 2.28379 -0.0742488 0
M  V30 6323 C 601.324 0.911694 -3.36881 0
M  V30 6324 C 602.672 1.2722 -4.05093 0
M  V30 6325 O 603.696 1.0025 -3.41802 0
M  V30 6326 O 602.555 1.7776 -5.16782 0
M  V30 6327 H 599.649 0.302366 -0.769743 0
M  V30 6328 H 602.195 -0.135113 -1.69161 0
M  V30 6329 H 600.967 0.0207256 -3.91295 0
M  V30 6330 H 600.59 1.70538 -3.59169 0
M  V30 6331 N 601.587 1.56661 0.17182 0
M  V30 6332 C 602.517 1.99401 1.21498 0
M  V30 6333 C 603.498 0.869516 1.46197 0
M  V30 6334 O 604.683 1.13556 1.57539 0
M  V30 6335 C 601.813 2.35346 2.55401 0
M  V30 6336 C 600.767 3.5075 2.45272 0
M  V30 6337 C 600.093 3.72437 3.8366 0
M  V30 6338 C 601.393 4.84216 1.95787 0
M  V30 6339 H 603.087 2.86792 0.859699 0
M  V30 6340 H 600.633 1.37977 0.412103 0
M  V30 6341 H 602.586 2.63843 3.2858 0
M  V30 6342 H 601.31 1.44864 2.92715 0
M  V30 6343 H 599.969 3.2238 1.74547 0
M  V30 6344 H 599.617 2.79246 4.18367 0
M  V30 6345 H 599.317 4.50087 3.77751 0
M  V30 6346 H 600.841 4.03334 4.58426 0
M  V30 6347 H 602.255 5.11592 2.5874 0
M  V30 6348 H 600.652 5.65498 2.00827 0
M  V30 6349 H 601.722 4.76243 0.912159 0
M  V30 6350 N 603.065 -0.440357 1.51323 0
M  V30 6351 C 604.342 -1.20109 1.5438 0
M  V30 6352 C 604.722 -2.08866 0.306303 0
M  V30 6353 O 604.07 -2.1723 -0.708773 0
M  V30 6354 C 604.28 -2.00555 2.8562 0
M  V30 6355 C 605.628 -2.577 3.37455 0
M  V30 6356 O 606.652 -2.10769 2.8715 0
M  V30 6357 O 605.511 -3.43289 4.25224 0
M  V30 6358 H 602.605 -0.546668 0.620551 0
M  V30 6359 H 605.151 -0.449672 1.63634 0
M  V30 6360 H 603.923 -1.35346 3.67147 0
M  V30 6361 H 603.546 -2.82768 2.79514 0
M  V30 6362 N 604.543 -1.41418 -0.695603 0
M  V30 6363 C 605.792 -1.40073 -1.4513 0
M  V30 6364 C 606.105 -0.0130439 -1.95596 0
M  V30 6365 O 607.311 0.123032 -2.71221 0
M  V30 6366 C 605.767 -2.46286 -2.62433 0
M  V30 6367 C 605.375 -3.90962 -2.18753 0
M  V30 6368 C 607.119 -2.54077 -3.40066 0
M  V30 6369 C 605.026 -4.88728 -3.33015 0
M  V30 6370 H 603.956 -0.520903 -0.545138 0
M  V30 6371 H 606.607 -1.67242 -0.75515 0
M  V30 6372 H 604.989 -2.12248 -3.34315 0
M  V30 6373 H 606.163 -4.34248 -1.54161 0
M  V30 6374 H 604.478 -3.86831 -1.54114 0
M  V30 6375 H 607.075 -3.24303 -4.25125 0
M  V30 6376 H 607.418 -1.5776 -3.8525 0
M  V30 6377 H 607.951 -2.87206 -2.75241 0
M  V30 6378 H 604.69 -5.86449 -2.92844 0
M  V30 6379 H 604.21 -4.50091 -3.96457 0
M  V30 6380 H 605.889 -5.09483 -3.98793 0
M  V30 6381 N 606.021 0.929856 -1.27246 0
M  V30 6382 C 607.246 1.71674 -1.16374 0
M  V30 6383 C 607.671 1.86064 0.276024 0
M  V30 6384 O 607.029 1.3591 1.19992 0
M  V30 6385 C 607.077 3.09526 -1.85003 0
M  V30 6386 O 606.181 3.96142 -1.14653 0
M  V30 6387 H 605.522 0.52629 -0.404863 0
M  V30 6388 H 608.052 1.16381 -1.68276 0
M  V30 6389 H 608.062 3.59852 -1.92276 0
M  V30 6390 H 606.737 2.98369 -2.89739 0
M  V30 6391 H 605.314 3.54584 -1.15433 0
M  V30 6392 N 607.499 1.09233 1.13605 0
M  V30 6393 C 608.729 0.847677 1.88409 0
M  V30 6394 C 609.137 -0.604524 1.79282 0
M  V30 6395 O 608.48 -1.42773 1.15592 0
M  V30 6396 C 608.542 1.20153 3.38827 0
M  V30 6397 C 608.206 2.65824 3.71735 0
M  V30 6398 C 609.203 3.64072 3.71143 0
M  V30 6399 C 606.888 3.01894 4.01454 0
M  V30 6400 C 608.882 4.96419 3.99808 0
M  V30 6401 C 606.569 4.34433 4.29781 0
M  V30 6402 C 607.567 5.31505 4.28942 0
M  V30 6403 O 607.255 6.61659 4.56576 0
M  V30 6404 H 606.987 0.304813 0.603378 0
M  V30 6405 H 609.541 1.4573 1.44748 0
M  V30 6406 H 607.771 0.534946 3.82982 0
M  V30 6407 H 609.46 0.936349 3.94952 0
M  V30 6408 H 610.226 3.37549 3.4826 0
M  V30 6409 H 606.105 2.26971 4.01255 0
M  V30 6410 H 609.649 5.7218 3.99069 0
M  V30 6411 H 605.546 4.607 4.52135 0
M  V30 6412 H 606.314 6.67102 4.74254 0
M  V30 6413 N 608.977 -1.30795 0.87923 0
M  V30 6414 C 610.226 -1.95636 0.490875 0
M  V30 6415 C 610.539 -1.70214 -0.963674 0
M  V30 6416 O 611.745 -2.28991 -1.45861 0
M  V30 6417 C 610.201 -3.50271 0.826929 0
M  V30 6418 C 609.809 -3.84521 2.29886 0
M  V30 6419 C 611.553 -4.21456 0.507494 0
M  V30 6420 C 609.46 -5.32309 2.57685 0
M  V30 6421 H 608.39 -0.732238 0.179841 0
M  V30 6422 H 611.041 -1.48829 1.07341 0
M  V30 6423 H 609.423 -3.9562 0.173542 0
M  V30 6424 H 610.597 -3.50102 2.99609 0
M  V30 6425 H 608.912 -3.26425 2.58526 0
M  V30 6426 H 611.509 -5.30199 0.692293 0
M  V30 6427 H 611.852 -4.12614 -0.552718 0
M  V30 6428 H 612.385 -3.81772 1.11782 0
M  V30 6429 H 609.124 -5.46195 3.62424 0
M  V30 6430 H 608.644 -5.68048 1.92566 0
M  V30 6431 H 610.323 -5.99678 2.42889 0
M  V30 6432 N 610.455 -0.639598 -1.44038 0
M  V30 6433 C 611.683 -0.154811 -2.0632 0
M  V30 6434 C 612.098 1.17406 -1.47856 0
M  V30 6435 O 611.455 1.72193 -0.604638 0
M  V30 6436 C 611.506 -0.0429958 -3.61474 0
M  V30 6437 O 611.227 -1.31932 -4.17763 0
M  V30 6438 C 612.728 0.469486 -4.40807 0
M  V30 6439 H 609.948 -0.0835862 -0.665773 0
M  V30 6440 H 612.492 -0.876397 -1.84769 0
M  V30 6441 H 610.647 0.629075 -3.82258 0
M  V30 6442 H 611.061 -1.16965 -5.11292 0
M  V30 6443 H 612.535 0.496712 -5.49761 0
M  V30 6444 H 613.012 1.49819 -4.12857 0
M  V30 6445 H 613.618 -0.169624 -4.24962 0
M  V30 6446 N 611.933 1.52934 -0.380664 0
M  V30 6447 C 613.158 2.06363 0.207157 0
M  V30 6448 C 613.583 1.25122 1.4045 0
M  V30 6449 O 612.941 0.274062 1.79217 0
M  V30 6450 C 612.989 3.56162 0.563996 0
M  V30 6451 O 612.093 3.77552 1.65917 0
M  V30 6452 H 611.434 0.663468 0.0265859 0
M  V30 6453 H 613.964 1.9719 -0.545635 0
M  V30 6454 H 613.974 3.99453 0.830752 0
M  V30 6455 H 612.649 4.14732 -0.311427 0
M  V30 6456 H 611.226 3.46154 1.3868 0
M  V30 6457 N 613.412 0.11024 1.57214 0
M  V30 6458 C 614.828 -0.24638 1.57687 0
M  V30 6459 C 615.028 -1.67344 1.12241 0
M  V30 6460 O 614.084 -2.39298 0.805783 0
M  V30 6461 C 615.397 -0.0210288 3.00693 0
M  V30 6462 C 616.945 -0.0876077 3.12877 0
M  V30 6463 C 617.42 0.10994 4.57868 0
M  V30 6464 N 618.911 0.0556135 4.63167 0
M  V30 6465 C 619.646 0.183495 5.73106 0
M  V30 6466 N 619.142 0.367058 6.91827 0
M  V30 6467 N 620.935 0.123689 5.61964 0
M  V30 6468 H 613.086 1.04246 1.85058 0
M  V30 6469 H 615.349 0.40979 0.854854 0
M  V30 6470 H 615.055 0.965203 3.38196 0
M  V30 6471 H 614.929 -0.756748 3.69531 0
M  V30 6472 H 617.316 -1.06436 2.75237 0
M  V30 6473 H 617.397 0.67985 2.466 0
M  V30 6474 H 617.041 1.08362 4.96206 0
M  V30 6475 H 616.971 -0.677397 5.22225 0
M  V30 6476 H 619.462 -0.0831062 3.77809 0
M  V30 6477 H 619.775 0.455739 7.71455 0
M  V30 6478 H 618.12 0.40292 6.93831 0
M  V30 6479 H 621.311 -0.0186928 4.68096 0
M  V30 6480 H 621.484 0.226797 6.47603 0
M  V30 6481 N 614.89 -1.56749 -0.16351 0
M  V30 6482 C 616.139 -1.81626 -0.877211 0
M  V30 6483 C 616.452 -0.688791 -1.83071 0
M  V30 6484 O 617.658 -0.822697 -2.58735 0
M  V30 6485 C 616.114 -3.21858 -1.61045 0
M  V30 6486 C 615.722 -4.42494 -0.700195 0
M  V30 6487 C 617.466 -3.56021 -2.31192 0
M  V30 6488 C 615.373 -5.73748 -1.43412 0
M  V30 6489 H 614.303 -0.67731 -0.331312 0
M  V30 6490 H 616.954 -1.83039 -0.13006 0
M  V30 6491 H 615.336 -3.14784 -2.40264 0
M  V30 6492 H 616.51 -4.60766 0.0555849 0
M  V30 6493 H 614.825 -4.1626 -0.10799 0
M  V30 6494 H 617.422 -4.51333 -2.8671 0
M  V30 6495 H 617.765 -2.81277 -3.06902 0
M  V30 6496 H 618.298 -3.64682 -1.58909 0
M  V30 6497 H 615.037 -6.51543 -0.719186 0
M  V30 6498 H 614.557 -5.5944 -2.16302 0
M  V30 6499 H 616.236 -6.15975 -1.9795 0
M  V30 6500 N 616.368 0.432326 -1.51554 0
M  V30 6501 C 617.331 1.50765 -1.72634 0
M  V30 6502 C 618.331 1.49334 -0.596314 0
M  V30 6503 O 619.521 1.51268 -0.863925 0
M  V30 6504 C 616.653 2.90284 -1.7874 0
M  V30 6505 H 617.846 1.33377 -2.68609 0
M  V30 6506 H 615.399 0.661329 -1.4162 0
M  V30 6507 H 616.134 3.13071 -0.845977 0
M  V30 6508 H 615.919 2.92727 -2.6087 0
M  V30 6509 H 617.409 3.68282 -1.96871 0
M  V30 6510 N 617.846 1.41785 0.688094 0
M  V30 6511 C 619.092 1.41753 1.4503 0
M  V30 6512 C 619.425 0.0290745 1.94178 0
M  V30 6513 O 618.7 -0.944456 1.7003 0
M  V30 6514 C 618.983 2.43069 2.65686 0
M  V30 6515 C 618.836 3.91053 2.22256 0
M  V30 6516 C 620.155 2.41543 3.67893 0
M  V30 6517 H 617.274 0.516202 0.526027 0
M  V30 6518 H 619.916 1.73111 0.783105 0
M  V30 6519 H 618.066 2.1646 3.2261 0
M  V30 6520 H 619.738 4.28594 1.70602 0
M  V30 6521 H 617.981 4.05559 1.53963 0
M  V30 6522 H 618.652 4.57501 3.08863 0
M  V30 6523 H 621.128 2.65175 3.20658 0
M  V30 6524 H 620.004 3.14434 4.49914 0
M  V30 6525 H 620.265 1.43666 4.18106 0
M  V30 6526 N 619.324 -0.923095 1.27737 0
M  V30 6527 C 620.257 -2.02515 1.05181 0
M  V30 6528 C 621.235 -1.62574 -0.0292204 0
M  V30 6529 O 622.419 -1.88137 0.116848 0
M  V30 6530 C 619.546 -3.33407 0.596468 0
M  V30 6531 C 618.592 -3.92328 1.67276 0
M  V30 6532 S 619.425 -4.24342 3.26641 0
M  V30 6533 C 620.581 -5.58308 2.82919 0
M  V30 6534 H 620.814 -2.21336 1.98488 0
M  V30 6535 H 618.347 -1.06679 1.1162 0
M  V30 6536 H 620.305 -4.09086 0.34044 0
M  V30 6537 H 618.966 -3.125 -0.316614 0
M  V30 6538 H 618.159 -4.86797 1.30556 0
M  V30 6539 H 617.761 -3.2325 1.8811 0
M  V30 6540 H 620.053 -6.37801 2.28509 0
M  V30 6541 H 620.996 -5.99931 3.7615 0
M  V30 6542 H 621.404 -5.19049 2.21919 0
M  V30 6543 N 620.802 -1.09834 -1.13024 0
M  V30 6544 C 622.027 -0.85909 -1.88771 0
M  V30 6545 C 622.452 0.584402 -1.78791 0
M  V30 6546 O 621.81 1.41101 -1.13842 0
M  V30 6547 C 621.858 -1.30427 -3.36186 0
M  V30 6548 O 620.962 -0.465368 -4.09766 0
M  V30 6549 H 620.303 -0.310786 -0.586778 0
M  V30 6550 H 622.833 -1.46355 -1.42973 0
M  V30 6551 H 622.843 -1.2915 -3.8702 0
M  V30 6552 H 621.518 -2.3555 -3.42767 0
M  V30 6553 H 620.095 -0.542814 -3.68928 0
M  V30 6554 N 622.28 1.30327 -0.886154 0
M  V30 6555 C 623.527 1.96097 -0.505192 0
M  V30 6556 C 623.855 1.69952 0.945868 0
M  V30 6557 O 623.11 0.997653 1.68361 0
M  V30 6558 C 623.409 3.49906 -0.728042 0
M  V30 6559 C 623.075 3.96103 -2.15437 0
M  V30 6560 C 621.737 4.08428 -2.5444 0
M  V30 6561 C 624.089 4.20177 -3.08384 0
M  V30 6562 C 621.417 4.42189 -3.85598 0
M  V30 6563 C 623.769 4.55407 -4.39075 0
M  V30 6564 C 622.433 4.65941 -4.7797 0
M  V30 6565 H 621.703 0.71757 -0.184863 0
M  V30 6566 H 624.35 1.55171 -1.12223 0
M  V30 6567 H 622.655 3.9179 -0.027978 0
M  V30 6568 H 624.352 3.98869 -0.412862 0
M  V30 6569 H 620.942 3.87017 -1.84162 0
M  V30 6570 H 625.126 4.10134 -2.7947 0
M  V30 6571 H 620.382 4.48544 -4.15473 0
M  V30 6572 H 624.556 4.72986 -5.11133 0
M  V30 6573 H 622.183 4.91856 -5.79639 0
M  V30 6574 N 623.758 0.647228 1.43697 0
M  V30 6575 C 625.169 0.238689 1.85168 0
M  V30 6576 C 625.52 -1.21345 1.54175 0
M  V30 6577 O 624.645 -1.92542 0.987743 0
M  V30 6578 C 625.24 0.426422 3.36106 0
M  V30 6579 C 623.799 0.0722541 3.76331 0
M  V30 6580 C 622.946 0.732153 2.6746 0
M  V30 6581 H 625.897 0.851309 1.33934 0
M  V30 6582 H 625.918 -0.32987 3.79067 0
M  V30 6583 H 625.43 1.48339 3.58632 0
M  V30 6584 H 623.531 -0.982355 3.59417 0
M  V30 6585 H 623.644 0.493541 4.76551 0
M  V30 6586 H 622.008 0.16594 2.54159 0
M  V30 6587 H 622.791 1.79204 2.92816 0
M  V30 6588 N 625.236 -1.5273 0.388769 0
M  V30 6589 C 626.199 -2.25043 -0.434544 0
M  V30 6590 C 627.199 -1.26661 -0.990644 0
M  V30 6591 O 628.389 -1.50762 -0.872731 0
M  V30 6592 C 625.521 -3.00507 -1.60961 0
M  V30 6593 H 626.714 -2.99242 0.198549 0
M  V30 6594 H 624.267 -1.55664 0.140875 0
M  V30 6595 H 625.002 -2.30607 -2.28015 0
M  V30 6596 H 624.787 -3.72716 -1.21757 0
M  V30 6597 H 626.277 -3.55413 -2.19251 0
M  V30 6598 N 626.714 -0.118576 -1.57153 0
M  V30 6599 C 627.624 0.845484 -2.18835 0
M  V30 6600 C 628.64 1.29299 -1.16438 0
M  V30 6601 O 629.816 1.35607 -1.48905 0
M  V30 6602 C 626.881 2.07795 -2.77529 0
M  V30 6603 C 625.942 1.6824 -3.9496 0
M  V30 6604 C 625.175 2.85612 -4.50845 0
M  V30 6605 O 625.398 4.01025 -4.05629 0
M  V30 6606 O 624.332 2.62721 -5.41536 0
M  V30 6607 H 628.158 0.350568 -3.0167 0
M  V30 6608 H 625.743 0.107013 -1.49016 0
M  V30 6609 H 627.625 2.79978 -3.14945 0
M  V30 6610 H 626.3 2.56294 -1.97725 0
M  V30 6611 H 625.207 0.931663 -3.62313 0
M  V30 6612 H 626.54 1.24484 -4.76198 0
M  V30 6613 N 628.193 1.56834 0.155195 0
M  V30 6614 C 629.441 1.82536 0.867462 0
M  V30 6615 C 629.762 0.698168 1.82073 0
M  V30 6616 O 629.032 -0.280807 1.93877 0
M  V30 6617 H 627.612 0.673401 0.323327 0
M  V30 6618 H 630.274 1.94313 0.151156 0
M  V30 6619 H 629.37 2.77171 1.43466 0
M  V30 6620 N 629.671 -0.424282 1.51781 0
M  V30 6621 C 630.917 -1.17434 1.6534 0
M  V30 6622 C 631.25 -1.90549 0.374806 0
M  V30 6623 O 630.525 -1.84145 -0.626179 0
M  V30 6624 C 630.808 -2.18093 2.86544 0
M  V30 6625 C 630.661 -1.48975 4.24413 0
M  V30 6626 C 631.98 -3.18934 3.03264 0
M  V30 6627 H 629.099 -0.425566 0.601716 0
M  V30 6628 H 631.741 -0.461921 1.84299 0
M  V30 6629 H 629.891 -2.78849 2.7051 0
M  V30 6630 H 631.563 -0.914551 4.52143 0
M  V30 6631 H 629.806 -0.791893 4.26511 0
M  V30 6632 H 630.477 -2.22347 5.05238 0
M  V30 6633 H 632.953 -2.68243 3.18096 0
M  V30 6634 H 631.829 -3.86645 3.89611 0
M  V30 6635 H 632.09 -3.85793 2.15908 0
M  V30 6636 N 631.149 -1.42148 -0.680565 0
M  V30 6637 C 632.059 -1.47565 -1.82378 0
M  V30 6638 C 633.075 -0.36489 -1.70131 0
M  V30 6639 O 634.251 -0.614916 -1.91783 0
M  V30 6640 C 631.316 -1.37013 -3.18478 0
M  V30 6641 C 630.377 -2.58532 -3.42724 0
M  V30 6642 C 629.61 -2.48473 -4.72331 0
M  V30 6643 O 629.833 -1.51745 -5.49845 0
M  V30 6644 O 628.767 -3.38503 -4.97694 0
M  V30 6645 H 632.593 -2.44045 -1.80764 0
M  V30 6646 H 630.178 -1.23849 -0.835569 0
M  V30 6647 H 632.06 -1.33468 -3.99705 0
M  V30 6648 H 630.735 -0.436552 -3.20743 0
M  V30 6649 H 629.642 -2.67652 -2.61368 0
M  V30 6650 H 630.975 -3.50769 -3.45286 0
M  V30 6651 N 632.627 0.916307 -1.28225 0
M  V30 6652 C 633.852 1.7043 -1.18188 0
M  V30 6653 C 634.277 1.86346 0.256274 0
M  V30 6654 O 633.635 1.37175 1.18544 0
M  V30 6655 C 633.683 3.07546 -1.88275 0
M  V30 6656 O 632.787 3.94904 -1.18848 0
M  V30 6657 H 632.128 0.521967 -0.410423 0
M  V30 6658 H 634.658 1.14589 -1.69501 0
M  V30 6659 H 634.668 3.57793 -1.96082 0
M  V30 6660 H 633.343 2.95279 -2.92887 0
M  V30 6661 H 631.92 3.53339 -1.19187 0
M  V30 6662 N 634.105 1.10431 1.1244 0
M  V30 6663 C 635.068 0.756542 2.16354 0
M  V30 6664 C 636.068 -0.21899 1.59302 0
M  V30 6665 O 637.258 0.00415969 1.742 0
M  V30 6666 C 634.39 0.120612 3.40687 0
M  V30 6667 H 635.583 1.67696 2.48632 0
M  V30 6668 H 633.136 0.904832 1.27446 0
M  V30 6669 H 633.871 -0.810536 3.14008 0
M  V30 6670 H 633.656 0.822693 3.83372 0
M  V30 6671 H 635.146 -0.106945 4.17463 0
M  V30 6672 N 635.583 -1.29855 0.893053 0
M  V30 6673 C 636.513 -2.3035 0.382249 0
M  V30 6674 C 637.494 -1.61328 -0.539203 0
M  V30 6675 O 638.679 -1.88882 -0.451342 0
M  V30 6676 C 635.809 -3.45024 -0.396983 0
M  V30 6677 C 634.763 -4.258 0.433437 0
M  V30 6678 C 634.089 -5.32605 -0.472889 0
M  V30 6679 C 635.389 -4.94549 1.67984 0
M  V30 6680 H 637.083 -2.73325 1.22205 0
M  V30 6681 H 634.629 -1.314 0.589073 0
M  V30 6682 H 636.582 -4.14398 -0.765024 0
M  V30 6683 H 635.306 -3.00875 -1.2705 0
M  V30 6684 H 633.965 -3.58125 0.783723 0
M  V30 6685 H 633.613 -4.84702 -1.34435 0
M  V30 6686 H 633.313 -5.87547 0.0789958 0
M  V30 6687 H 634.837 -6.04832 -0.837269 0
M  V30 6688 H 636.251 -5.56395 1.38192 0
M  V30 6689 H 634.648 -5.59393 2.17254 0
M  V30 6690 H 635.718 -4.20215 2.41965 0
M  V30 6691 N 637.061 -0.65484 -1.43351 0
M  V30 6692 C 638.008 0.0357713 -2.30772 0
M  V30 6693 C 638.978 0.813035 -1.44841 0
M  V30 6694 O 640.163 0.789314 -1.73708 0
M  V30 6695 C 637.303 0.995084 -3.30442 0
M  V30 6696 C 636.416 0.21375 -4.31471 0
M  V30 6697 C 635.551 1.16701 -5.18222 0
M  V30 6698 C 634.59 0.376201 -6.10943 0
M  V30 6699 N 633.727 1.28113 -6.90313 0
M  V30 6700 H 638.567 -0.71559 -2.89281 0
M  V30 6701 H 636.104 -0.364645 -1.42509 0
M  V30 6702 H 638.062 1.5649 -3.86739 0
M  V30 6703 H 636.692 1.7133 -2.7358 0
M  V30 6704 H 635.744 -0.472377 -3.77456 0
M  V30 6705 H 637.056 -0.401103 -4.97185 0
M  V30 6706 H 636.21 1.8074 -5.79153 0
M  V30 6707 H 634.949 1.81577 -4.52638 0
M  V30 6708 H 633.954 -0.277534 -5.49099 0
M  V30 6709 H 635.179 -0.268178 -6.7857 0
M  V30 6710 H 633.125 1.91666 -6.27376 0
M  V30 6711 H 633.042 0.720879 -7.52555 0
M  V30 6712 H 634.31 1.90962 -7.55747 0
M  V30 6713 N 638.539 1.52521 -0.396863 0
M  V30 6714 C 639.487 2.28217 0.44943 0
M  V30 6715 C 640.481 1.32416 1.05652 0
M  V30 6716 O 641.687 1.49925 0.996124 0
M  V30 6717 H 638.062 0.733966 0.1637 0
M  V30 6718 H 640.033 2.97658 -0.210367 0
M  V30 6719 C 638.782 3.10713 1.56054 0
M  V30 6720 H 638.105 3.84291 1.10273 0
M  V30 6721 H 639.545 3.66803 2.12677 0
M  V30 6722 C 638.004 2.23499 2.52091 0
M  V30 6723 O 638.534 1.8669 3.55682 0
M  V30 6724 N 636.74 1.8751 2.2201 0
M  V30 6725 H 636.287 2.17643 1.37802 0
M  V30 6726 H 636.245 1.29448 2.86514 0
M  V30 6727 N 640.017 0.126909 1.57088 0
M  V30 6728 C 640.965 -0.837618 2.16995 0
M  V30 6729 C 641.959 -1.26974 1.12133 0
M  V30 6730 O 643.165 -1.24056 1.30423 0
M  V30 6731 H 639.54 -0.288256 0.694559 0
M  V30 6732 H 641.511 -0.307957 2.96807 0
M  V30 6733 C 640.26 -2.07474 2.79016 0
M  V30 6734 H 639.583 -1.75117 3.59408 0
M  V30 6735 H 641.023 -2.72949 3.24461 0
M  V30 6736 C 639.482 -2.86967 1.76498 0
M  V30 6737 O 640.012 -3.82625 1.22316 0
M  V30 6738 N 638.218 -2.51111 1.46258 0
M  V30 6739 H 637.765 -1.73389 1.90509 0
M  V30 6740 H 637.723 -3.04594 0.779085 0
M  V30 6741 N 641.495 -1.56914 -0.146875 0
M  V30 6742 C 642.744 -1.82546 -0.857898 0
M  V30 6743 C 643.057 -0.708169 -1.8233 0
M  V30 6744 O 644.263 -0.850093 -2.57848 0
M  V30 6745 C 642.719 -3.23548 -1.57623 0
M  V30 6746 C 642.327 -4.43212 -0.653224 0
M  V30 6747 C 644.071 -3.58453 -2.27402 0
M  V30 6748 C 641.978 -5.75237 -1.37318 0
M  V30 6749 H 640.908 -0.680786 -0.32411 0
M  V30 6750 H 643.559 -1.83166 -0.110639 0
M  V30 6751 H 641.941 -3.17315 -2.36912 0
M  V30 6752 H 643.115 -4.60682 0.104452 0
M  V30 6753 H 641.43 -4.16351 -0.0638336 0
M  V30 6754 H 644.027 -4.54349 -2.81907 0
M  V30 6755 H 644.37 -2.84516 -3.03901 0
M  V30 6756 H 644.903 -3.66347 -1.55032 0
M  V30 6757 H 641.642 -6.52269 -0.650041 0
M  V30 6758 H 641.162 -5.61703 -2.10357 0
M  V30 6759 H 642.841 -6.18039 -1.91406 0
M  V30 6760 N 642.974 0.416227 -1.52004 0
M  V30 6761 C 643.884 1.53147 -1.77717 0
M  V30 6762 C 644.9 1.609 -0.662368 0
M  V30 6763 O 646.076 1.77747 -0.946991 0
M  V30 6764 C 643.141 2.88948 -1.91598 0
M  V30 6765 C 642.202 2.9114 -3.15493 0
M  V30 6766 C 641.435 4.20464 -3.28703 0
M  V30 6767 O 641.658 5.13981 -2.47345 0
M  V30 6768 O 640.592 4.29368 -4.21813 0
M  V30 6769 H 644.418 1.34357 -2.72363 0
M  V30 6770 H 642.003 0.601373 -1.36762 0
M  V30 6771 H 643.885 3.69505 -2.02593 0
M  V30 6772 H 642.56 3.07821 -1.00141 0
M  V30 6773 H 641.467 2.09461 -3.09962 0
M  V30 6774 H 642.8 2.77216 -4.06709 0
M  V30 6775 N 644.452 1.42507 0.673017 0
M  V30 6776 C 645.729 1.33554 1.42908 0
M  V30 6777 C 646.109 -0.0262211 2.11084 0
M  V30 6778 O 645.457 -1.04181 2.03368 0
M  V30 6779 C 645.667 2.50498 2.43006 0
M  V30 6780 C 647.015 2.92694 3.07596 0
M  V30 6781 O 648.039 2.50401 2.53333 0
M  V30 6782 O 646.898 3.65899 4.05931 0
M  V30 6783 H 643.992 0.526785 0.637516 0
M  V30 6784 H 646.538 1.54518 0.701591 0
M  V30 6785 H 645.31 3.41272 1.9144 0
M  V30 6786 H 644.933 2.3153 3.23233 0
M  V30 6787 N 645.93 -0.909495 1.28709 0
M  V30 6788 C 647.176 -1.66151 1.16283 0
M  V30 6789 C 647.509 -1.92067 -0.287069 0
M  V30 6790 O 646.784 -1.52409 -1.20837 0
M  V30 6791 C 647.067 -3.01676 1.9663 0
M  V30 6792 C 646.92 -2.82888 3.49707 0
M  V30 6793 C 648.239 -4.02274 1.78504 0
M  V30 6794 H 645.358 -0.602966 0.423793 0
M  V30 6795 H 648 -1.05418 1.58073 0
M  V30 6796 H 646.15 -3.53515 1.61119 0
M  V30 6797 H 647.822 -2.38026 3.95147 0
M  V30 6798 H 646.065 -2.17862 3.75125 0
M  V30 6799 H 646.736 -3.79147 4.01187 0
M  V30 6800 H 649.212 -3.59511 2.09503 0
M  V30 6801 H 648.088 -4.95056 2.37088 0
M  V30 6802 H 648.349 -4.35903 0.737647 0
M  V30 6803 N 647.408 -1.11026 -1.11852 0
M  V30 6804 C 648.824 -0.843294 -1.35502 0
M  V30 6805 C 649.024 0.534179 -1.9429 0
M  V30 6806 O 648.08 1.28585 -2.17307 0
M  V30 6807 C 649.393 -1.94793 -2.29077 0
M  V30 6808 C 650.941 -1.97709 -2.42652 0
M  V30 6809 C 651.416 -3.07364 -3.39546 0
M  V30 6810 N 652.907 -3.0671 -3.47107 0
M  V30 6811 C 653.642 -3.88197 -4.22008 0
M  V30 6812 N 653.138 -4.79635 -4.99922 0
M  V30 6813 N 654.931 -3.76391 -4.17476 0
M  V30 6814 H 647.082 -1.99805 -0.720538 0
M  V30 6815 H 649.345 -0.868633 -0.379711 0
M  V30 6816 H 649.051 -2.93971 -1.93065 0
M  V30 6817 H 648.925 -1.84039 -3.29256 0
M  V30 6818 H 651.312 -0.991604 -2.77941 0
M  V30 6819 H 651.393 -2.1254 -1.4234 0
M  V30 6820 H 651.037 -4.06136 -3.04985 0
M  V30 6821 H 650.967 -2.89774 -4.39703 0
M  V30 6822 H 653.458 -2.40457 -2.91528 0
M  V30 6823 H 653.771 -5.38357 -5.54429 0
M  V30 6824 H 652.116 -4.8366 -4.99097 0
M  V30 6825 H 655.307 -3.04303 -3.55693 0
M  V30 6826 H 655.48 -4.40131 -4.75593 0
M  V30 6827 N 648.886 1.2938 -0.899927 0
M  V30 6828 C 649.816 2.30144 -0.39446 0
M  V30 6829 C 650.797 1.61611 0.530639 0
M  V30 6830 O 651.982 1.89119 0.441319 0
M  V30 6831 C 649.112 3.45229 0.37868 0
M  V30 6832 C 648.066 4.25564 -0.456012 0
M  V30 6833 C 647.392 5.32848 0.444637 0
M  V30 6834 C 648.692 4.93651 -1.70605 0
M  V30 6835 H 650.386 2.72673 -1.23653 0
M  V30 6836 H 647.932 1.31086 -0.596034 0
M  V30 6837 H 649.885 4.14797 0.743037 0
M  V30 6838 H 648.609 3.01545 1.25453 0
M  V30 6839 H 647.268 3.57704 -0.802704 0
M  V30 6840 H 646.916 4.85408 1.31863 0
M  V30 6841 H 646.616 5.87497 -0.110154 0
M  V30 6842 H 648.14 6.05268 0.805182 0
M  V30 6843 H 649.554 5.55655 -1.41141 0
M  V30 6844 H 647.951 5.58233 -2.20217 0
M  V30 6845 H 649.021 4.18926 -2.4419 0
M  V30 6846 N 650.364 0.662433 1.43002 0
M  V30 6847 C 651.611 0.179591 2.01702 0
M  V30 6848 C 651.939 -1.20964 1.52309 0
M  V30 6849 O 651.194 -1.82343 0.7106 0
M  V30 6850 C 651.493 0.149363 3.57088 0
M  V30 6851 C 651.159 1.48158 4.25864 0
M  V30 6852 C 649.821 1.84638 4.44367 0
M  V30 6853 C 652.173 2.35953 4.64732 0
M  V30 6854 C 649.501 3.08561 4.99006 0
M  V30 6855 C 651.853 3.59176 5.20745 0
M  V30 6856 C 650.517 3.95841 5.37463 0
M  V30 6857 H 649.787 0.0657172 0.73808 0
M  V30 6858 H 652.434 0.854968 1.71355 0
M  V30 6859 H 650.739 -0.609491 3.8703 0
M  V30 6860 H 652.436 -0.241241 4.00274 0
M  V30 6861 H 649.026 1.18777 4.11813 0
M  V30 6862 H 653.21 2.09058 4.50121 0
M  V30 6863 H 648.466 3.37005 5.10135 0
M  V30 6864 H 652.64 4.27417 5.49807 0
M  V30 6865 H 650.267 4.91942 5.79566 0
M  V30 6866 N 651.842 -1.52309 0.404946 0
M  V30 6867 C 652.772 -2.29805 -0.41376 0
M  V30 6868 C 653.753 -1.3384 -1.0498 0
M  V30 6869 O 654.938 -1.62745 -1.05961 0
M  V30 6870 C 652.068 -3.11639 -1.53292 0
M  V30 6871 C 651.022 -4.15616 -1.02211 0
M  V30 6872 C 650.348 -4.8577 -2.23455 0
M  V30 6873 C 651.648 -5.2224 -0.0790725 0
M  V30 6874 H 653.342 -2.98493 0.232878 0
M  V30 6875 H 650.888 -1.43552 0.113441 0
M  V30 6876 H 652.841 -3.64618 -2.11262 0
M  V30 6877 H 651.565 -2.40712 -2.20738 0
M  V30 6878 H 650.224 -3.63641 -0.46484 0
M  V30 6879 H 649.872 -4.11376 -2.89445 0
M  V30 6880 H 649.572 -5.56058 -1.89929 0
M  V30 6881 H 651.096 -5.4156 -2.82038 0
M  V30 6882 H 652.51 -5.70485 -0.567438 0
M  V30 6883 H 650.907 -5.99867 0.167167 0
M  V30 6884 H 651.977 -4.77078 0.867447 0
M  V30 6885 N 653.32 -0.135238 -1.57019 0
M  V30 6886 C 654.597 0.563227 -1.87316 0
M  V30 6887 C 654.977 1.83749 -1.03921 0
M  V30 6888 O 654.325 2.2817 -0.122675 0
M  V30 6889 C 654.535 0.840031 -3.3874 0
M  V30 6890 C 655.883 1.18598 -4.077 0
M  V30 6891 O 656.907 0.92977 -3.43851 0
M  V30 6892 O 655.766 1.66758 -5.20436 0
M  V30 6893 H 652.86 0.285971 -0.775983 0
M  V30 6894 H 655.406 -0.170965 -1.68837 0
M  V30 6895 H 654.178 -0.0622785 -3.9125 0
M  V30 6896 H 653.801 1.62882 -3.62706 0
M  V30 6897 N 654.798 1.5699 0.138552 0
M  V30 6898 C 656.023 1.88344 0.86841 0
M  V30 6899 C 656.448 0.725159 1.7356 0
M  V30 6900 O 655.806 -0.324992 1.78363 0
M  V30 6901 C 655.854 3.18334 1.69398 0
M  V30 6902 O 654.958 3.02863 2.79907 0
M  V30 6903 H 654.299 0.618577 0.241367 0
M  V30 6904 H 656.829 2.04207 0.126826 0
M  V30 6905 H 656.839 3.50567 2.08726 0
M  V30 6906 H 655.514 4.02238 1.05725 0
M  V30 6907 H 654.091 2.82056 2.43924 0
M  V30 6908 N 656.276 -0.40816 1.52223 0
M  V30 6909 C 657.223 -1.49737 1.75635 0
M  V30 6910 C 658.193 -1.5493 0.598824 0
M  V30 6911 O 659.378 -1.71487 0.83648 0
M  V30 6912 C 656.518 -2.87174 1.91376 0
M  V30 6913 C 655.631 -2.91283 3.19027 0
M  V30 6914 C 654.766 -4.20026 3.25195 0
M  V30 6915 C 653.805 -4.18113 4.47044 0
M  V30 6916 N 652.942 -5.38429 4.50598 0
M  V30 6917 H 657.782 -1.29075 2.68596 0
M  V30 6918 H 655.319 -0.626518 1.33091 0
M  V30 6919 H 657.277 -3.66959 1.98486 0
M  V30 6920 H 655.907 -3.06329 1.01795 0
M  V30 6921 H 654.959 -2.03984 3.21084 0
M  V30 6922 H 656.271 -2.85734 4.08849 0
M  V30 6923 H 655.425 -5.08204 3.31382 0
M  V30 6924 H 654.164 -4.28271 2.33313 0
M  V30 6925 H 653.169 -3.28325 4.41002 0
M  V30 6926 H 654.394 -4.11507 5.40221 0
M  V30 6927 H 652.34 -5.4734 3.616 0
M  V30 6928 H 652.257 -5.34879 5.34266 0
M  V30 6929 H 653.525 -6.28557 4.61016 0
M  V30 6930 N 657.755 -1.42862 -0.66545 0
M  V30 6931 C 658.705 -1.43521 -1.7716 0
M  V30 6932 C 659.689 -0.305267 -1.57978 0
M  V30 6933 O 660.881 -0.548176 -1.68297 0
M  V30 6934 C 658.01 -1.34914 -3.15679 0
M  V30 6935 C 657.096 -2.5289 -3.40452 0
M  V30 6936 N 657.487 -3.78284 -3.3576 0
M  V30 6937 C 655.785 -2.47351 -3.71124 0
M  V30 6938 C 656.486 -4.56701 -3.60276 0
M  V30 6939 N 655.462 -3.87249 -3.81496 0
M  V30 6940 H 659.264 -2.38357 -1.7194 0
M  V30 6941 H 656.778 -1.37342 -0.866653 0
M  V30 6942 H 658.775 -1.33468 -3.94958 0
M  V30 6943 H 657.435 -0.410881 -3.2209 0
M  V30 6944 H 658.446 -4.10746 -3.15448 0
M  V30 6945 H 655.123 -1.62152 -3.84725 0
M  V30 6946 H 656.513 -5.65704 -3.6253 0
M  V30 6947 N 659.233 0.902656 -1.29189 0
M  V30 6948 C 660.644 1.46809 -1.15343 0
M  V30 6949 C 660.995 1.94568 0.252517 0
M  V30 6950 O 660.12 1.83454 1.14777 0
M  V30 6951 C 660.715 2.66829 -2.08776 0
M  V30 6952 C 659.274 3.19518 -1.98961 0
M  V30 6953 C 658.421 1.92212 -1.99874 0
M  V30 6954 H 661.372 0.714282 -1.41717 0
M  V30 6955 H 661.393 3.42465 -1.65826 0
M  V30 6956 H 660.905 2.32039 -3.11094 0
M  V30 6957 H 659.006 3.59008 -0.99721 0
M  V30 6958 H 659.119 3.84016 -2.86477 0
M  V30 6959 H 657.483 2.0979 -1.44431 0
M  V30 6960 H 658.266 1.59702 -3.03891 0
M  V30 6961 N 660.711 1.11618 1.11262 0
M  V30 6962 C 661.959 0.864469 1.82678 0
M  V30 6963 C 662.28 -0.611564 1.85162 0
M  V30 6964 O 661.55 -1.44429 1.32352 0
M  V30 6965 H 660.13 0.316821 0.676486 0
M  V30 6966 H 662.792 1.40894 1.34666 0
M  V30 6967 H 661.888 1.23832 2.86482 0
M  V30 6968 N 662.189 -1.289 0.906776 0
M  V30 6969 C 663.139 -2.25122 0.361109 0
M  V30 6970 C 664.123 -1.52169 -0.52283 0
M  V30 6971 O 665.315 -1.73223 -0.363691 0
M  V30 6972 C 662.444 -3.40915 -0.403982 0
M  V30 6973 C 661.53 -4.21198 0.495279 0
M  V30 6974 N 661.921 -4.79636 1.60572 0
M  V30 6975 C 660.219 -4.45027 0.294372 0
M  V30 6976 C 660.92 -5.39977 2.16332 0
M  V30 6977 N 659.896 -5.23753 1.45546 0
M  V30 6978 H 663.698 -2.67869 1.20927 0
M  V30 6979 H 661.212 -1.43592 0.758632 0
M  V30 6980 H 663.209 -4.08922 -0.811695 0
M  V30 6981 H 661.869 -2.99703 -1.24932 0
M  V30 6982 H 662.88 -4.78209 1.98838 0
M  V30 6983 H 659.557 -4.14348 -0.512021 0
M  V30 6984 H 660.947 -5.96266 3.09704 0
M  V30 6985 N 663.667 -0.670007 -1.42649 0
M  V30 6986 C 664.897 -0.198252 -2.05647 0
M  V30 6987 C 665.305 1.14786 -1.50402 0
M  V30 6988 O 664.648 1.72316 -0.636634 0
M  V30 6989 C 664.71 -0.0507132 -3.59464 0
M  V30 6990 C 664.374 -1.32478 -4.37377 0
M  V30 6991 C 665.371 -2.2572 -4.68344 0
M  V30 6992 C 663.056 -1.57104 -4.77099 0
M  V30 6993 C 665.05 -3.4187 -5.37963 0
M  V30 6994 C 662.737 -2.73543 -5.46459 0
M  V30 6995 C 663.735 -3.65751 -5.76815 0
M  V30 6996 O 663.423 -4.80154 -6.44753 0
M  V30 6997 H 663.155 -0.0950721 -0.669281 0
M  V30 6998 H 665.709 -0.915745 -1.83857 0
M  V30 6999 H 663.939 0.722314 -3.79894 0
M  V30 7000 H 665.628 0.380552 -4.04112 0
M  V30 7001 H 666.394 -2.07943 -4.38161 0
M  V30 7002 H 662.273 -0.862069 -4.52868 0
M  V30 7003 H 665.817 -4.13861 -5.61574 0
M  V30 7004 H 661.714 -2.91248 -5.7606 0
M  V30 7005 H 662.482 -4.79637 -6.63243 0
M  V30 7006 N 665.145 1.52092 -0.413018 0
M  V30 7007 C 666.108 2.25706 0.398687 0
M  V30 7008 C 667.108 1.28221 0.970368 0
M  V30 7009 O 668.298 1.52131 0.848635 0
M  V30 7010 C 665.43 3.03029 1.5616 0
M  V30 7011 H 666.623 2.98888 -0.246131 0
M  V30 7012 H 664.176 1.5542 -0.165622 0
M  V30 7013 H 664.911 2.34205 2.24317 0
M  V30 7014 H 664.696 3.74606 1.15812 0
M  V30 7015 H 666.186 3.58857 2.13569 0
M  V30 7016 N 666.623 0.143563 1.56945 0
M  V30 7017 C 667.869 -0.50916 1.96304 0
M  V30 7018 C 668.202 -1.64741 1.0283 0
M  V30 7019 O 667.477 -1.94374 0.0700361 0
M  V30 7020 C 667.76 -1.0186 3.45393 0
M  V30 7021 C 667.613 0.117923 4.49645 0
M  V30 7022 C 668.932 -1.90151 3.96901 0
M  V30 7023 H 666.051 -0.183608 0.713763 0
M  V30 7024 H 668.693 0.224095 1.88674 0
M  V30 7025 H 666.843 -1.64345 3.52027 0
M  V30 7026 H 668.515 0.754145 4.55094 0
M  V30 7027 H 666.758 0.777568 4.26774 0
M  V30 7028 H 667.429 -0.280187 5.51288 0
M  V30 7029 H 669.905 -1.375 3.92725 0
M  V30 7030 H 668.781 -2.22707 5.0169 0
M  V30 7031 H 669.042 -2.83718 3.39052 0
M  V30 7032 N 668.101 -1.57061 -0.130224 0
M  V30 7033 C 669.331 -1.88159 -0.853217 0
M  V30 7034 C 669.739 -0.731675 -1.7448 0
M  V30 7035 O 669.082 0.307035 -1.81116 0
M  V30 7036 C 669.144 -3.1415 -1.74785 0
M  V30 7037 C 668.808 -4.45202 -1.03173 0
M  V30 7038 C 669.805 -5.18526 -0.377759 0
M  V30 7039 C 667.49 -4.91912 -1.01624 0
M  V30 7040 C 669.484 -6.36775 0.282123 0
M  V30 7041 C 667.171 -6.10082 -0.352555 0
M  V30 7042 C 668.169 -6.82361 0.295483 0
M  V30 7043 O 667.857 -7.98284 0.948606 0
M  V30 7044 H 667.589 -0.627596 -0.251197 0
M  V30 7045 H 670.143 -2.05034 -0.1226 0
M  V30 7046 H 668.373 -2.93328 -2.51983 0
M  V30 7047 H 670.062 -3.31359 -2.34427 0
M  V30 7048 H 670.828 -4.83498 -0.381417 0
M  V30 7049 H 666.707 -4.35566 -1.51007 0
M  V30 7050 H 670.251 -6.93129 0.788525 0
M  V30 7051 H 666.148 -6.44569 -0.346621 0
M  V30 7052 H 666.916 -8.14054 0.851954 0
M  V30 7053 N 669.579 0.400081 -1.52437 0
M  V30 7054 C 670.527 1.50851 -1.7705 0
M  V30 7055 C 671.521 1.56928 -0.637969 0
M  V30 7056 O 672.727 1.60226 -0.820212 0
M  V30 7057 H 669.102 0.50186 -0.560036 0
M  V30 7058 H 671.073 1.27281 -2.69893 0
M  V30 7059 C 669.822 2.88117 -1.94638 0
M  V30 7060 H 669.145 2.84187 -2.81208 0
M  V30 7061 H 670.585 3.64942 -2.15855 0
M  V30 7062 C 669.044 3.29206 -0.715899 0
M  V30 7063 O 669.574 4.01544 0.111944 0
M  V30 7064 N 667.78 2.85363 -0.549191 0
M  V30 7065 H 667.327 2.26664 -1.22397 0
M  V30 7066 H 667.285 3.13214 0.27278 0
M  V30 7067 N 671.057 1.43213 0.657864 0
M  V30 7068 C 671.987 1.50815 1.78262 0
M  V30 7069 C 672.968 0.363211 1.66177 0
M  V30 7070 O 674.153 0.579806 1.85343 0
M  V30 7071 C 671.283 1.42625 3.16663 0
M  V30 7072 C 670.237 2.5532 3.43505 0
M  V30 7073 C 669.563 2.32184 4.81658 0
M  V30 7074 C 670.863 3.97583 3.38711 0
M  V30 7075 H 672.557 2.44954 1.72157 0
M  V30 7076 H 670.103 1.17896 0.82683 0
M  V30 7077 H 672.056 1.46548 3.95097 0
M  V30 7078 H 670.78 0.449877 3.23487 0
M  V30 7079 H 669.439 2.50742 2.6744 0
M  V30 7080 H 669.087 1.32801 4.85153 0
M  V30 7081 H 668.787 3.07724 5.00579 0
M  V30 7082 H 670.311 2.37883 5.62356 0
M  V30 7083 H 671.725 4.03673 4.07089 0
M  V30 7084 H 670.122 4.73112 3.69168 0
M  V30 7085 H 671.192 4.23049 2.36976 0
M  V30 7086 N 672.536 -0.895792 1.29666 0
M  V30 7087 C 673.761 -1.68528 1.20885 0
M  V30 7088 C 674.186 -1.8673 -0.226595 0
M  V30 7089 O 673.544 -1.39044 -1.16347 0
M  V30 7090 C 673.592 -3.04512 1.93144 0
M  V30 7091 O 672.696 -3.92963 1.25115 0
M  V30 7092 H 672.037 -0.515371 0.418675 0
M  V30 7093 H 674.567 -1.11878 1.71302 0
M  V30 7094 H 674.577 -3.54628 2.0175 0
M  V30 7095 H 673.252 -2.90582 2.97548 0
M  V30 7096 H 671.829 -3.51399 1.24794 0
M  V30 7097 N 674.014 -1.12206 -1.10668 0
M  V30 7098 C 675.425 -0.890657 -1.64086 0
M  V30 7099 C 675.776 0.575502 -1.8757 0
M  V30 7100 O 674.901 1.4394 -1.61587 0
M  V30 7101 C 675.496 -1.61029 -2.98085 0
M  V30 7102 C 674.055 -1.4251 -3.48379 0
M  V30 7103 C 673.202 -1.64778 -2.23033 0
M  V30 7104 H 676.153 -1.27718 -0.94201 0
M  V30 7105 H 676.174 -1.05993 -3.65439 0
M  V30 7106 H 675.686 -2.67735 -2.80962 0
M  V30 7107 H 673.787 -0.380497 -3.70652 0
M  V30 7108 H 673.9 -2.17959 -4.26651 0
M  V30 7109 H 672.264 -1.07171 -2.31055 0
M  V30 7110 H 673.047 -2.72776 -2.08443 0
M  V30 7111 N 675.492 1.28418 -0.913599 0
M  V30 7112 C 676.908 1.47411 -0.611728 0
M  V30 7113 C 677.108 1.83018 0.843008 0
M  V30 7114 O 676.164 1.93505 1.6221 0
M  V30 7115 C 677.477 2.57703 -1.5495 0
M  V30 7116 C 679.025 2.71572 -1.5562 0
M  V30 7117 C 679.5 3.85008 -2.48058 0
M  V30 7118 N 680.991 3.92361 -2.46184 0
M  V30 7119 C 681.726 4.79516 -3.14407 0
M  V30 7120 N 681.222 5.71262 -3.91958 0
M  V30 7121 N 683.015 4.73125 -3.03495 0
M  V30 7122 H 675.166 1.03585 -1.85429 0
M  V30 7123 H 677.429 0.515907 -0.795326 0
M  V30 7124 H 677.135 2.38298 -2.58663 0
M  V30 7125 H 677.009 3.54801 -1.28048 0
M  V30 7126 H 679.396 2.90366 -0.526441 0
M  V30 7127 H 679.477 1.75006 -1.86565 0
M  V30 7128 H 679.121 3.66969 -3.51136 0
M  V30 7129 H 679.051 4.80971 -2.14416 0
M  V30 7130 H 681.542 3.26749 -1.89851 0
M  V30 7131 H 681.855 6.34593 -4.41034 0
M  V30 7132 H 680.2 5.71103 -3.96063 0
M  V30 7133 H 683.391 4.00442 -2.42413 0
M  V30 7134 H 683.564 5.40834 -3.56935 0
M  V30 7135 N 676.97 0.677563 1.42291 0
M  V30 7136 C 678.198 0.209459 2.05837 0
M  V30 7137 C 678.613 -1.13444 1.50917 0
M  V30 7138 O 677.97 -1.70529 0.65008 0
M  V30 7139 C 678.021 0.138819 3.61233 0
M  V30 7140 O 677.742 1.42962 4.14118 0
M  V30 7141 C 679.243 -0.352449 4.41897 0
M  V30 7142 H 676.463 0.101209 0.663323 0
M  V30 7143 H 679.007 0.925077 1.8238 0
M  V30 7144 H 677.162 -0.527505 3.83792 0
M  V30 7145 H 677.576 1.3048 5.08011 0
M  V30 7146 H 679.05 -0.350778 5.50884 0
M  V30 7147 H 679.527 -1.3882 4.16684 0
M  V30 7148 H 680.133 0.282236 4.24362 0
M  V30 7149 N 678.448 -1.51871 0.421078 0
M  V30 7150 C 679.678 -2.06057 -0.149723 0
M  V30 7151 C 680.086 -1.29002 -1.38402 0
M  V30 7152 O 679.429 -0.338385 -1.80556 0
M  V30 7153 C 679.491 -3.55216 -0.553339 0
M  V30 7154 C 679.155 -4.53408 0.571879 0
M  V30 7155 C 680.152 -4.99586 1.4391 0
M  V30 7156 C 677.837 -4.967 0.747979 0
M  V30 7157 C 679.831 -5.87711 2.46727 0
M  V30 7158 C 677.518 -5.84619 1.77944 0
M  V30 7159 C 678.516 -6.30021 2.63748 0
M  V30 7160 O 678.204 -7.16197 3.65126 0
M  V30 7161 H 677.936 -0.675744 -0.0186102 0
M  V30 7162 H 680.49 -1.96618 0.594166 0
M  V30 7163 H 678.72 -3.62381 -1.34969 0
M  V30 7164 H 680.409 -3.91992 -1.05342 0
M  V30 7165 H 681.175 -4.66846 1.31451 0
M  V30 7166 H 677.054 -4.60913 0.0897357 0
M  V30 7167 H 680.598 -6.2307 3.13734 0
M  V30 7168 H 676.495 -6.16771 1.90429 0
M  V30 7169 H 677.263 -7.34337 3.61512 0
M  V30 7170 N 679.926 -0.151884 -1.56866 0
M  V30 7171 C 681.342 0.204486 -1.58285 0
M  V30 7172 C 681.542 1.6431 -1.16639 0
M  V30 7173 O 680.598 2.37077 -0.868946 0
M  V30 7174 C 681.911 -0.0587019 -3.00643 0
M  V30 7175 C 683.459 0.00462303 -3.13 0
M  V30 7176 C 683.934 -0.231297 -4.57416 0
M  V30 7177 N 685.425 -0.178394 -4.62856 0
M  V30 7178 C 686.16 -0.335379 -5.72418 0
M  V30 7179 N 685.656 -0.550355 -6.90611 0
M  V30 7180 N 687.449 -0.272641 -5.61438 0
M  V30 7181 H 679.6 -1.09116 -1.82229 0
M  V30 7182 H 681.863 -0.432311 -0.843689 0
M  V30 7183 H 681.569 -1.05453 -3.35518 0
M  V30 7184 H 681.443 0.658508 -3.71407 0
M  V30 7185 H 683.83 0.991009 -2.77962 0
M  V30 7186 H 683.911 -0.744992 -2.44711 0
M  V30 7187 H 683.555 -1.2148 -4.93158 0
M  V30 7188 H 683.485 0.5387 -5.23837 0
M  V30 7189 H 685.976 -0.0170923 -3.77896 0
M  V30 7190 H 686.289 -0.660116 -7.69976 0
M  V30 7191 H 684.634 -0.586736 -6.92519 0
M  V30 7192 H 687.825 -0.105421 -4.67981 0
M  V30 7193 H 687.998 -0.398418 -6.46774 0
M  V30 7194 N 681.404 1.57128 0.121893 0
M  V30 7195 C 682.815 1.73902 0.679348 0
M  V30 7196 C 683.166 0.770135 1.80453 0
M  V30 7197 O 682.291 -0.0576083 2.16323 0
M  V30 7198 C 682.886 3.15328 1.2391 0
M  V30 7199 C 681.445 3.33618 1.74288 0
M  V30 7200 C 680.592 2.6978 0.641414 0
M  V30 7201 H 683.543 1.58359 -0.104 0
M  V30 7202 H 683.564 3.16718 2.10879 0
M  V30 7203 H 683.076 3.85821 0.419957 0
M  V30 7204 H 681.177 2.68162 2.58689 0
M  V30 7205 H 681.29 4.4176 1.85432 0
M  V30 7206 H 679.654 2.30935 1.0743 0
M  V30 7207 H 680.437 3.42895 -0.166707 0
M  V30 7208 N 682.882 -0.391992 1.52647 0
M  V30 7209 C 684.107 -1.16312 1.71716 0
M  V30 7210 C 684.532 -1.83042 0.433279 0
M  V30 7211 O 683.89 -1.70705 -0.610707 0
M  V30 7212 C 683.938 -2.18908 2.86551 0
M  V30 7213 O 683.042 -3.2543 2.53316 0
M  V30 7214 H 682.383 -0.338743 0.571095 0
M  V30 7215 H 684.913 -0.457202 1.99426 0
M  V30 7216 H 684.923 -2.62954 3.1196 0
M  V30 7217 H 683.598 -1.69726 3.79692 0
M  V30 7218 H 682.175 -2.86543 2.38637 0
M  V30 7219 N 684.36 -1.4356 -0.65026 0
M  V30 7220 C 685.776 -1.27025 -0.966269 0
M  V30 7221 C 685.976 -0.192117 -2.00582 0
M  V30 7222 O 685.032 0.428459 -2.48838 0
M  V30 7223 C 686.345 -2.63556 -1.44772 0
M  V30 7224 C 687.893 -2.71111 -1.56421 0
M  V30 7225 C 688.368 -4.08067 -2.07956 0
M  V30 7226 N 689.859 -4.10146 -2.15254 0
M  V30 7227 C 690.594 -5.12952 -2.56258 0
M  V30 7228 N 690.09 -6.26129 -2.96537 0
M  V30 7229 N 691.883 -5.00306 -2.56224 0
M  V30 7230 H 684.034 -2.12367 0.0375758 0
M  V30 7231 H 686.297 -0.946894 -0.0457782 0
M  V30 7232 H 686.003 -3.43429 -0.758271 0
M  V30 7233 H 685.877 -2.89152 -2.42221 0
M  V30 7234 H 688.264 -1.91569 -2.24467 0
M  V30 7235 H 688.345 -2.49277 -0.573967 0
M  V30 7236 H 687.989 -4.88077 -1.40511 0
M  V30 7237 H 687.919 -4.27266 -3.07817 0
M  V30 7238 H 690.41 -3.28453 -1.86887 0
M  V30 7239 H 690.723 -7.00403 -3.26582 0
M  V30 7240 H 689.068 -6.29597 -2.94334 0
M  V30 7241 H 692.259 -4.10952 -2.24135 0
M  V30 7242 H 692.432 -5.80553 -2.87857 0
M  V30 7243 N 685.838 0.888903 -1.30139 0
M  V30 7244 C 687.085 1.64037 -1.18736 0
M  V30 7245 C 687.413 1.92771 0.258801 0
M  V30 7246 O 686.668 1.54427 1.20212 0
M  V30 7247 C 686.967 2.99041 -1.95728 0
M  V30 7248 C 686.633 2.89874 -3.45375 0
M  V30 7249 C 685.295 2.87082 -3.86183 0
M  V30 7250 C 687.647 2.78289 -4.40687 0
M  V30 7251 C 684.975 2.70536 -5.20603 0
M  V30 7252 C 687.327 2.63282 -5.75209 0
M  V30 7253 C 685.991 2.58861 -6.15262 0
M  V30 7254 H 685.261 0.600253 -0.434485 0
M  V30 7255 H 687.908 1.0338 -1.61198 0
M  V30 7256 H 686.213 3.63626 -1.45888 0
M  V30 7257 H 687.91 3.56139 -1.843 0
M  V30 7258 H 684.5 2.92856 -3.12943 0
M  V30 7259 H 688.684 2.79516 -4.10103 0
M  V30 7260 H 683.94 2.65526 -5.50732 0
M  V30 7261 H 688.114 2.5329 -6.48704 0
M  V30 7262 H 685.741 2.45799 -7.19366 0
M  V30 7263 N 687.317 1.12792 1.10072 0
M  V30 7264 C 688.267 0.768086 2.14673 0
M  V30 7265 C 689.251 -0.234716 1.59179 0
M  V30 7266 O 690.443 -0.039643 1.76956 0
M  V30 7267 C 687.572 0.228472 3.42539 0
M  V30 7268 C 686.658 1.25979 4.04957 0
M  V30 7269 N 687.049 2.4586 4.42025 0
M  V30 7270 C 685.347 1.10602 4.32069 0
M  V30 7271 C 686.048 3.11747 4.9111 0
M  V30 7272 N 685.024 2.39185 4.88151 0
M  V30 7273 H 688.826 1.68029 2.4113 0
M  V30 7274 H 686.34 1.00925 1.27232 0
M  V30 7275 H 688.337 -0.0475216 4.16873 0
M  V30 7276 H 686.997 -0.678136 3.1754 0
M  V30 7277 H 688.008 2.83215 4.33601 0
M  V30 7278 H 684.685 0.257021 4.16708 0
M  V30 7279 H 686.075 4.13862 5.29309 0
M  V30 7280 N 688.795 -1.27931 0.920396 0
M  V30 7281 C 689.743 -2.29061 0.404191 0
M  V30 7282 C 690.737 -1.61615 -0.507634 0
M  V30 7283 O 691.943 -1.75765 -0.388144 0
M  V30 7284 H 688.318 -0.743594 0.112123 0
M  V30 7285 H 690.289 -2.70021 1.27008 0
M  V30 7286 C 689.038 -3.46088 -0.334466 0
M  V30 7287 H 688.361 -3.98194 0.35797 0
M  V30 7288 H 689.801 -4.18829 -0.660196 0
M  V30 7289 C 688.26 -2.99396 -1.54479 0
M  V30 7290 O 688.79 -3.02439 -2.64374 0
M  V30 7291 N 686.996 -2.54978 -1.39408 0
M  V30 7292 H 686.543 -2.52701 -0.500009 0
M  V30 7293 H 686.501 -2.24098 -2.20516 0
M  V30 7294 N 690.273 -0.685099 -1.4193 0
M  V30 7295 C 691.689 -0.355632 -1.55587 0
M  V30 7296 C 691.889 1.13823 -1.66273 0
M  V30 7297 O 690.945 1.92387 -1.63534 0
M  V30 7298 C 692.258 -1.09498 -2.80055 0
M  V30 7299 C 693.806 -1.07831 -2.93839 0
M  V30 7300 C 694.281 -1.79919 -4.21181 0
M  V30 7301 N 695.772 -1.76837 -4.28115 0
M  V30 7302 C 696.507 -2.29463 -5.25485 0
M  V30 7303 N 696.003 -2.90516 -6.28945 0
M  V30 7304 N 697.796 -2.19779 -5.17353 0
M  V30 7305 H 689.947 -1.65412 -1.33239 0
M  V30 7306 H 692.21 -0.697453 -0.642078 0
M  V30 7307 H 691.916 -2.14997 -2.78333 0
M  V30 7308 H 691.79 -0.666813 -3.71259 0
M  V30 7309 H 694.177 -0.0316152 -2.95083 0
M  V30 7310 H 694.258 -1.54545 -2.03837 0
M  V30 7311 H 693.902 -2.84562 -4.20698 0
M  V30 7312 H 693.832 -1.30647 -5.10136 0
M  V30 7313 H 696.323 -1.32315 -3.53979 0
M  V30 7314 H 696.636 -3.28266 -6.99615 0
M  V30 7315 H 694.981 -2.94589 -6.29478 0
M  V30 7316 H 698.172 -1.71763 -4.35448 0
M  V30 7317 H 698.345 -2.61097 -5.9307 0
M  V30 7318 N 691.751 1.51645 -0.429126 0
M  V30 7319 C 692.997 2.02314 0.140286 0
M  V30 7320 C 693.33 1.31314 1.43074 0
M  V30 7321 O 692.605 0.425531 1.89788 0
M  V30 7322 C 692.888 3.5822 0.36749 0
M  V30 7323 C 692.741 4.39846 -0.941039 0
M  V30 7324 C 694.06 4.25055 1.14089 0
M  V30 7325 H 691.179 0.735335 0.0495112 0
M  V30 7326 H 693.821 1.81358 -0.566514 0
M  V30 7327 H 691.971 3.76207 0.969556 0
M  V30 7328 H 693.643 4.33527 -1.57646 0
M  V30 7329 H 691.886 4.05259 -1.54751 0
M  V30 7330 H 692.557 5.47069 -0.73621 0
M  V30 7331 H 695.033 4.11288 0.630986 0
M  V30 7332 H 693.909 5.34038 1.26863 0
M  V30 7333 H 694.17 3.85358 2.16683 0
M  V30 7334 N 693.229 0.160201 1.56784 0
M  V30 7335 C 694.454 -0.497373 2.01348 0
M  V30 7336 C 694.879 -1.56757 1.03966 0
M  V30 7337 O 694.237 -1.81292 0.0174455 0
M  V30 7338 C 694.285 -1.0628 3.44582 0
M  V30 7339 O 693.389 -2.17723 3.50244 0
M  V30 7340 H 692.73 -0.120295 0.653012 0
M  V30 7341 H 695.26 0.260821 2.02931 0
M  V30 7342 H 695.27 -1.38819 3.83658 0
M  V30 7343 H 693.945 -0.279166 4.14962 0
M  V30 7344 H 692.522 -1.86313 3.2302 0
M  V30 7345 N 694.707 -1.5719 -0.113559 0
M  V30 7346 C 695.617 -2.04041 -1.15777 0
M  V30 7347 C 696.633 -0.961812 -1.45001 0
M  V30 7348 O 697.809 -1.2737 -1.56009 0
M  V30 7349 C 694.874 -2.43994 -2.46308 0
M  V30 7350 C 693.935 -3.65962 -2.24433 0
M  V30 7351 C 693.168 -4.04 -3.4874 0
M  V30 7352 O 693.391 -3.42321 -4.56259 0
M  V30 7353 O 692.325 -4.97069 -3.3942 0
M  V30 7354 H 696.151 -2.93248 -0.789899 0
M  V30 7355 H 693.736 -1.45828 -0.324748 0
M  V30 7356 H 695.618 -2.70401 -3.23204 0
M  V30 7357 H 694.293 -1.57932 -2.82558 0
M  V30 7358 H 693.2 -3.44697 -1.45377 0
M  V30 7359 H 694.533 -4.52746 -1.93084 0
M  V30 7360 N 696.185 0.383891 -1.52853 0
M  V30 7361 C 697.425 1.13731 -1.69837 0
M  V30 7362 C 697.789 1.87086 -0.431611 0
M  V30 7363 O 698.99 2.64518 -0.477886 0
M  V30 7364 C 697.261 2.08551 -2.90243 0
M  V30 7365 S 698.82 2.9166 -3.27841 0
M  V30 7366 H 695.638 0.384911 -0.5978 0
M  V30 7367 H 698.24 0.42103 -1.90913 0
M  V30 7368 H 696.944 1.53392 -3.80656 0
M  V30 7369 H 696.475 2.8468 -2.71516 0
M  V30 7370 H 698.49 4.10723 -2.78426 0
M  V30 7371 N 697.663 1.43903 0.642637 0
M  V30 7372 C 698.911 1.45791 1.39962 0
M  V30 7373 C 699.232 0.0873144 1.94804 0
M  V30 7374 O 698.502 -0.878825 1.75081 0
M  V30 7375 H 697.082 0.536797 0.519479 0
M  V30 7376 H 699.744 1.7959 0.757189 0
M  V30 7377 H 698.84 2.17665 2.2367 0
M  V30 7378 N 699.141 -0.881989 1.30609 0
M  V30 7379 C 700.387 -1.63649 1.20791 0
M  V30 7380 C 700.742 -1.90966 -0.234437 0
M  V30 7381 O 700.035 -1.52163 -1.16434 0
M  V30 7382 C 700.229 -2.97999 1.97311 0
M  V30 7383 C 700.058 -2.83798 3.48839 0
M  V30 7384 C 698.828 -2.83622 4.18195 0
M  V30 7385 C 701.026 -2.59529 4.44015 0
M  V30 7386 N 699.008 -2.60344 5.55962 0
M  V30 7387 C 700.379 -2.45401 5.69366 0
M  V30 7388 C 702.434 -2.44777 4.33576 0
M  V30 7389 C 701.137 -2.18023 6.85462 0
M  V30 7390 C 703.163 -2.18785 5.49443 0
M  V30 7391 C 702.525 -2.05436 6.73777 0
M  V30 7392 H 698.624 -0.603687 0.497077 0
M  V30 7393 H 701.208 -1.03908 1.64655 0
M  V30 7394 H 699.379 -3.55767 1.55834 0
M  V30 7395 H 701.111 -3.6266 1.79611 0
M  V30 7396 H 697.866 -2.95562 3.70054 0
M  V30 7397 H 698.29 -2.51709 6.28468 0
M  V30 7398 H 702.932 -2.53831 3.38126 0
M  V30 7399 H 700.65 -2.07707 7.8095 0
M  V30 7400 H 704.236 -2.08188 5.43276 0
M  V30 7401 H 703.116 -1.85605 7.61919 0
M  V30 7402 N 700.619 -1.13374 -1.09472 0
M  V30 7403 C 701.582 -0.813639 -2.14272 0
M  V30 7404 C 702.582 0.176677 -1.59826 0
M  V30 7405 O 703.772 -0.0503441 -1.74127 0
M  V30 7406 C 700.904 -0.210897 -3.40247 0
M  V30 7407 H 702.097 -1.74229 -2.44099 0
M  V30 7408 H 699.65 -0.938304 -1.25002 0
M  V30 7409 H 700.385 0.726998 -3.16046 0
M  V30 7410 H 700.17 -0.924048 -3.81056 0
M  V30 7411 H 701.66 -0.00377603 -4.176 0
M  V30 7412 N 702.098 1.27442 -0.927168 0
M  V30 7413 C 703.061 2.2512 -0.430525 0
M  V30 7414 C 704.061 1.54357 0.450619 0
M  V30 7415 O 705.251 1.72371 0.251774 0
M  V30 7416 C 702.383 3.38763 0.381144 0
M  V30 7417 H 703.576 2.70569 -1.29354 0
M  V30 7418 H 701.129 1.39355 -0.707806 0
M  V30 7419 H 701.864 2.98695 1.263 0
M  V30 7420 H 701.649 3.91298 -0.250618 0
M  V30 7421 H 703.139 4.11364 0.719012 0
M  V30 7422 N 703.576 0.692616 1.41565 0
M  V30 7423 C 704.992 0.363878 1.55397 0
M  V30 7424 C 705.192 -1.1294 1.66874 0
M  V30 7425 O 704.248 -1.91517 1.64552 0
M  V30 7426 C 705.561 1.10982 2.7947 0
M  V30 7427 C 707.109 1.09387 2.93263 0
M  V30 7428 C 707.584 1.8215 4.20221 0
M  V30 7429 N 709.075 1.79105 4.27172 0
M  V30 7430 C 709.81 2.32247 5.2426 0
M  V30 7431 N 709.306 2.93847 6.27396 0
M  V30 7432 N 711.099 2.22519 5.1618 0
M  V30 7433 H 703.25 1.66116 1.3236 0
M  V30 7434 H 705.513 0.700848 0.63837 0
M  V30 7435 H 705.219 2.1647 2.77188 0
M  V30 7436 H 705.093 0.686492 3.709 0
M  V30 7437 H 707.48 0.0472638 2.95062 0
M  V30 7438 H 707.561 1.55623 2.03015 0
M  V30 7439 H 707.205 2.86789 4.19183 0
M  V30 7440 H 707.135 1.33351 5.09436 0
M  V30 7441 H 709.626 1.34191 3.53272 0
M  V30 7442 H 709.939 3.31972 6.97864 0
M  V30 7443 H 708.284 2.97924 6.27906 0
M  V30 7444 H 711.475 1.7407 4.34531 0
M  V30 7445 H 711.648 2.64239 5.91677 0
M  V30 7446 N 705.054 -1.51416 0.437162 0
M  V30 7447 C 706.47 -1.59349 0.0894459 0
M  V30 7448 C 706.67 -1.44809 -1.40116 0
M  V30 7449 O 705.726 -1.28924 -2.17106 0
M  V30 7450 C 707.039 -2.9446 0.609398 0
M  V30 7451 C 708.587 -3.07769 0.569824 0
M  V30 7452 C 709.062 -4.45404 1.06675 0
M  V30 7453 N 710.553 -4.51723 1.02473 0
M  V30 7454 C 711.288 -5.56544 1.3801 0
M  V30 7455 N 710.784 -6.68784 1.80831 0
M  V30 7456 N 712.577 -5.46901 1.29828 0
M  V30 7457 H 704.728 -1.59112 1.40703 0
M  V30 7458 H 706.991 -0.750031 0.579791 0
M  V30 7459 H 706.697 -3.1047 1.65231 0
M  V30 7460 H 706.571 -3.77184 0.0342236 0
M  V30 7461 H 708.958 -2.91428 -0.464107 0
M  V30 7462 H 709.039 -2.26885 1.1814 0
M  V30 7463 H 708.683 -4.62492 2.09914 0
M  V30 7464 H 708.613 -5.24827 0.431712 0
M  V30 7465 H 711.104 -3.71165 0.710258 0
M  V30 7466 H 711.417 -7.44787 2.06185 0
M  V30 7467 H 709.762 -6.69992 1.84757 0
M  V30 7468 H 712.953 -4.581 0.962397 0
M  V30 7469 H 713.126 -6.2848 1.57851 0
M  V30 7470 N 706.532 -0.168513 -1.56696 0
M  V30 7471 C 707.495 0.748928 -2.16619 0
M  V30 7472 C 708.495 1.16007 -1.11351 0
M  V30 7473 O 709.685 1.07748 -1.3688 0
M  V30 7474 C 706.817 2.01904 -2.74677 0
M  V30 7475 H 708.01 0.227317 -2.99037 0
M  V30 7476 H 705.563 0.0810372 -1.5609 0
M  V30 7477 H 706.298 2.58381 -1.95985 0
M  V30 7478 H 706.083 1.73323 -3.51712 0
M  V30 7479 H 707.573 2.67383 -3.20774 0
M  V30 7480 N 708.01 1.57248 0.105221 0
M  V30 7481 C 709.421 1.74612 0.660865 0
M  V30 7482 C 709.772 0.789231 1.79626 0
M  V30 7483 O 708.897 -0.0346611 2.16372 0
M  V30 7484 C 709.492 3.16624 1.20559 0
M  V30 7485 C 708.051 3.35447 1.7074 0
M  V30 7486 C 707.198 2.70445 0.612764 0
M  V30 7487 H 710.149 1.5824 -0.12079 0
M  V30 7488 H 710.17 3.18937 2.07508 0
M  V30 7489 H 709.682 3.86245 0.379012 0
M  V30 7490 H 707.783 2.7089 2.5583 0
M  V30 7491 H 707.896 4.43702 1.80736 0
M  V30 7492 H 706.26 2.32061 1.04975 0
M  V30 7493 H 707.043 3.42699 -0.203066 0
M  V30 7494 N 709.488 -0.375779 1.53054 0
M  V30 7495 C 710.438 -1.45965 1.75152 0
M  V30 7496 C 711.422 -1.49059 0.605823 0
M  V30 7497 O 712.614 -1.54472 0.864133 0
M  V30 7498 C 709.743 -2.83524 1.93569 0
M  V30 7499 C 708.829 -2.84949 3.1411 0
M  V30 7500 N 709.22 -2.56029 4.36214 0
M  V30 7501 C 707.518 -3.16113 3.14625 0
M  V30 7502 C 708.219 -2.64873 5.17897 0
M  V30 7503 N 707.195 -2.99159 4.53878 0
M  V30 7504 H 710.997 -1.22454 2.67175 0
M  V30 7505 H 708.511 -0.583867 1.51541 0
M  V30 7506 H 710.508 -3.61578 2.07525 0
M  V30 7507 H 709.168 -3.08008 1.02768 0
M  V30 7508 H 710.179 -2.29808 4.64121 0
M  V30 7509 H 706.856 -3.45977 2.3368 0
M  V30 7510 H 708.246 -2.45947 6.25268 0
M  V30 7511 N 710.966 -1.44241 -0.634997 0
M  V30 7512 C 711.896 -1.53632 -1.7584 0
M  V30 7513 C 712.877 -0.389603 -1.65578 0
M  V30 7514 O 714.062 -0.609219 -1.84397 0
M  V30 7515 C 711.192 -1.47644 -3.14354 0
M  V30 7516 C 710.146 -2.60752 -3.394 0
M  V30 7517 C 709.472 -2.39817 -4.77904 0
M  V30 7518 C 710.772 -4.02921 -3.32343 0
M  V30 7519 H 712.466 -2.47662 -1.68238 0
M  V30 7520 H 710.012 -1.19197 -0.807969 0
M  V30 7521 H 711.965 -1.52815 -3.92716 0
M  V30 7522 H 710.689 -0.501284 -3.2273 0
M  V30 7523 H 709.348 -2.54965 -2.63417 0
M  V30 7524 H 708.996 -1.40502 -4.82978 0
M  V30 7525 H 708.696 -3.15649 -4.9562 0
M  V30 7526 H 710.22 -2.46799 -5.585 0
M  V30 7527 H 711.634 -4.10098 -4.00615 0
M  V30 7528 H 710.031 -4.78925 -3.61595 0
M  V30 7529 H 711.101 -4.26766 -2.30215 0
M  V30 7530 N 712.444 0.87505 -1.31075 0
M  V30 7531 C 713.394 1.96933 -1.14898 0
M  V30 7532 C 714.378 1.60783 -0.0613703 0
M  V30 7533 O 715.57 1.74678 -0.285751 0
M  V30 7534 C 712.699 3.3253 -0.853166 0
M  V30 7535 C 711.785 3.74963 -1.98151 0
M  V30 7536 N 712.176 3.89403 -3.22799 0
M  V30 7537 C 710.474 4.04436 -1.8801 0
M  V30 7538 C 711.175 4.25563 -3.96574 0
M  V30 7539 N 710.151 4.3597 -3.24701 0
M  V30 7540 H 713.953 2.06201 -2.09424 0
M  V30 7541 H 711.467 1.06551 -1.22558 0
M  V30 7542 H 713.464 4.10666 -0.718266 0
M  V30 7543 H 712.124 3.24592 0.0839218 0
M  V30 7544 H 713.135 3.74266 -3.57974 0
M  V30 7545 H 709.812 4.04915 -1.01733 0
M  V30 7546 H 711.202 4.44375 -5.03965 0
M  V30 7547 N 713.922 1.13953 1.08869 0
M  V30 7548 C 715.15 0.92817 1.84912 0
M  V30 7549 C 715.565 -0.523197 1.81406 0
M  V30 7550 O 714.922 -1.36237 1.21432 0
M  V30 7551 C 714.973 1.41509 3.32652 0
M  V30 7552 O 714.694 2.80959 3.36145 0
M  V30 7553 C 716.195 1.243 4.25517 0
M  V30 7554 H 713.415 0.330612 0.583898 0
M  V30 7555 H 715.959 1.51349 1.37527 0
M  V30 7556 H 714.114 0.872648 3.77444 0
M  V30 7557 H 714.528 3.02704 4.28335 0
M  V30 7558 H 716.002 1.63237 5.27312 0
M  V30 7559 H 716.479 0.18532 4.38809 0
M  V30 7560 H 717.085 1.77375 3.86546 0
M  V30 7561 N 715.4 -1.26948 0.933913 0
M  V30 7562 C 716.33 -2.29017 0.45534 0
M  V30 7563 C 717.311 -1.62961 -0.487605 0
M  V30 7564 O 718.496 -1.90223 -0.391022 0
M  V30 7565 C 715.626 -3.46112 -0.287015 0
M  V30 7566 C 714.58 -4.24205 0.568682 0
M  V30 7567 C 713.906 -5.3384 -0.303206 0
M  V30 7568 C 715.206 -4.88954 1.83633 0
M  V30 7569 H 716.9 -2.69298 1.30839 0
M  V30 7570 H 714.446 -1.29459 0.630579 0
M  V30 7571 H 716.399 -4.16622 -0.6328 0
M  V30 7572 H 715.123 -3.04765 -1.17414 0
M  V30 7573 H 713.782 -3.5545 0.897261 0
M  V30 7574 H 713.43 -4.88734 -1.18947 0
M  V30 7575 H 713.13 -5.86998 0.265879 0
M  V30 7576 H 714.654 -6.0719 -0.644423 0
M  V30 7577 H 716.068 -5.51717 1.55823 0
M  V30 7578 H 714.465 -5.52198 2.34941 0
M  V30 7579 H 715.535 -4.12305 2.55211 0
M  V30 7580 N 716.879 -0.700114 -1.41195 0
M  V30 7581 C 718.109 -0.241828 -2.0518 0
M  V30 7582 C 718.517 1.1157 -1.52803 0
M  V30 7583 O 717.86 1.70926 -0.673042 0
M  V30 7584 C 717.922 -0.12695 -3.59276 0
M  V30 7585 C 717.586 -1.41725 -4.34469 0
M  V30 7586 C 718.583 -2.35604 -4.63451 0
M  V30 7587 C 716.268 -1.67189 -4.73659 0
M  V30 7588 C 718.262 -3.53204 -5.3059 0
M  V30 7589 C 715.949 -2.85073 -5.40534 0
M  V30 7590 C 716.947 -3.77904 -5.68927 0
M  V30 7591 O 716.635 -4.93723 -6.34424 0
M  V30 7592 H 716.367 -0.109247 -0.667114 0
M  V30 7593 H 718.921 -0.954538 -1.81873 0
M  V30 7594 H 717.151 0.641571 -3.81341 0
M  V30 7595 H 718.84 0.294748 -4.04828 0
M  V30 7596 H 719.606 -2.1719 -4.33651 0
M  V30 7597 H 715.485 -0.957935 -4.50937 0
M  V30 7598 H 719.029 -4.25679 -5.52669 0
M  V30 7599 H 714.926 -3.03402 -5.69752 0
M  V30 7600 H 715.694 -4.93597 -6.5292 0
M  V30 7601 N 718.357 1.51182 -0.445186 0
M  V30 7602 C 719.305 2.29531 0.376597 0
M  V30 7603 C 720.299 1.35711 1.01385 0
M  V30 7604 O 721.505 1.53018 0.947922 0
M  V30 7605 H 717.88 0.738803 0.140267 0
M  V30 7606 H 719.851 2.96838 -0.304958 0
M  V30 7607 C 718.6 3.1552 1.4609 0
M  V30 7608 H 717.923 3.87605 0.979912 0
M  V30 7609 H 719.363 3.73384 2.009 0
M  V30 7610 C 717.822 2.31406 2.44852 0
M  V30 7611 O 718.352 1.97912 3.49562 0
M  V30 7612 N 716.558 1.94478 2.15932 0
M  V30 7613 H 716.105 2.21917 1.30808 0
M  V30 7614 H 716.063 1.38498 2.82251 0
M  V30 7615 N 719.835 0.176821 1.56605 0
M  V30 7616 C 721.084 -0.466833 1.96223 0
M  V30 7617 C 721.397 -1.64015 1.06576 0
M  V30 7618 O 722.603 -2.3504 1.35898 0
M  V30 7619 C 721.059 -0.881921 3.48927 0
M  V30 7620 C 720.667 0.266102 4.47209 0
M  V30 7621 C 722.411 -1.49368 3.97353 0
M  V30 7622 C 720.318 -0.168923 5.91159 0
M  V30 7623 H 719.248 -0.178178 0.732645 0
M  V30 7624 H 721.899 0.265929 1.81563 0
M  V30 7625 H 720.281 -1.67082 3.59026 0
M  V30 7626 H 721.455 1.04349 4.4883 0
M  V30 7627 H 719.77 0.788178 4.08872 0
M  V30 7628 H 722.367 -1.8313 5.02362 0
M  V30 7629 H 722.71 -2.3936 3.40606 0
M  V30 7630 H 723.243 -0.769114 3.90294 0
M  V30 7631 H 719.982 0.696351 6.51791 0
M  V30 7632 H 719.502 -0.911552 5.92833 0
M  V30 7633 H 721.181 -0.610938 6.44109 0
M  V30 7634 N 721.313 -1.57302 -0.09688 0
M  V30 7635 C 722.553 -1.87823 -0.806334 0
M  V30 7636 C 722.917 -0.767593 -1.75989 0
M  V30 7637 O 724.118 -0.955173 -2.51257 0
M  V30 7638 C 722.389 -3.23585 -1.51749 0
M  V30 7639 S 723.948 -3.75795 -2.26547 0
M  V30 7640 H 720.766 -0.658281 -0.268676 0
M  V30 7641 H 723.368 -1.95397 -0.0635476 0
M  V30 7642 H 722.072 -4.0234 -0.809348 0
M  V30 7643 H 721.603 -3.19145 -2.30021 0
M  V30 7644 H 723.618 -3.49068 -3.52656 0
M  V30 7645 N 722.791 0.367657 -1.53252 0
M  V30 7646 C 724.207 0.709191 -1.42978 0
M  V30 7647 C 724.407 1.93352 -0.567193 0
M  V30 7648 O 723.463 2.52453 -0.0488349 0
M  V30 7649 C 724.776 0.924338 -2.86141 0
M  V30 7650 C 726.324 1.02448 -2.95759 0
M  V30 7651 C 726.799 1.27211 -4.39979 0
M  V30 7652 N 728.29 1.33986 -4.43398 0
M  V30 7653 C 729.025 1.54852 -5.52095 0
M  V30 7654 N 728.521 1.73049 -6.7084 0
M  V30 7655 N 730.314 1.57205 -5.39669 0
M  V30 7656 H 722.465 -0.437669 -2.07842 0
M  V30 7657 H 724.728 -0.133737 -0.938519 0
M  V30 7658 H 724.434 0.0965455 -3.51567 0
M  V30 7659 H 724.308 1.83302 -3.29667 0
M  V30 7660 H 726.695 1.84282 -2.30487 0
M  V30 7661 H 726.776 0.0932301 -2.5563 0
M  V30 7662 H 726.42 0.458792 -5.05824 0
M  V30 7663 H 726.35 2.21654 -4.77679 0
M  V30 7664 H 728.841 1.21545 -3.5782 0
M  V30 7665 H 729.154 1.88538 -7.49449 0
M  V30 7666 H 727.499 1.70231 -6.7383 0
M  V30 7667 H 730.69 1.42555 -4.45865 0
M  V30 7668 H 730.863 1.73126 -6.24445 0
M  V30 7669 N 724.269 1.44576 0.627338 0
M  V30 7670 C 725.217 1.52039 1.76031 0
M  V30 7671 C 726.211 0.391796 1.64807 0
M  V30 7672 O 727.417 0.5669 1.7084 0
M  V30 7673 H 723.792 0.477165 0.581221 0
M  V30 7674 H 725.763 2.47387 1.6686 0
M  V30 7675 C 724.512 1.48539 3.14375 0
M  V30 7676 H 723.835 2.34699 3.23661 0
M  V30 7677 H 725.275 1.57821 3.93534 0
M  V30 7678 C 723.734 0.20672 3.36265 0
M  V30 7679 O 724.264 -0.72154 3.95167 0
M  V30 7680 N 722.47 0.108654 2.90397 0
M  V30 7681 H 722.017 0.864884 2.42647 0
M  V30 7682 H 721.975 -0.746121 3.05418 0
M  V30 7683 N 725.747 -0.868086 1.31537 0
M  V30 7684 C 726.68 -1.97871 1.13676 0
M  V30 7685 C 727.658 -1.62551 0.0397589 0
M  V30 7686 O 728.842 -1.87473 0.196539 0
M  V30 7687 C 725.969 -3.30577 0.73734 0
M  V30 7688 C 725.015 -3.8488 1.83765 0
M  V30 7689 S 725.848 -4.10106 3.44345 0
M  V30 7690 C 727.004 -5.45806 3.06344 0
M  V30 7691 H 727.237 -2.12719 2.07697 0
M  V30 7692 H 724.77 -1.01849 1.16044 0
M  V30 7693 H 726.728 -4.07274 0.513641 0
M  V30 7694 H 725.389 -3.13562 -0.183787 0
M  V30 7695 H 724.582 -4.80821 1.51085 0
M  V30 7696 H 724.184 -3.14981 2.01651 0
M  V30 7697 H 726.476 -6.27535 2.55354 0
M  V30 7698 H 727.419 -5.83437 4.01257 0
M  V30 7699 H 727.827 -5.0917 2.43734 0
M  V30 7700 N 727.225 -1.14528 -1.08264 0
M  V30 7701 C 728.175 -0.802141 -2.13424 0
M  V30 7702 C 729.159 0.209362 -1.59532 0
M  V30 7703 O 730.351 0.0114859 -1.76996 0
M  V30 7704 C 727.48 -0.282938 -3.42132 0
M  V30 7705 C 726.566 -1.32405 -4.02902 0
M  V30 7706 N 726.957 -2.52861 -4.38058 0
M  V30 7707 C 725.255 -1.17462 -4.30254 0
M  V30 7708 C 725.956 -3.1952 -4.86088 0
M  V30 7709 N 724.932 -2.46921 -4.84284 0
M  V30 7710 H 728.734 -1.71843 -2.38426 0
M  V30 7711 H 726.248 -1.02936 -1.2561 0
M  V30 7712 H 728.245 -0.0188053 -4.16896 0
M  V30 7713 H 726.905 0.627533 -3.18578 0
M  V30 7714 H 727.916 -2.90078 -4.2904 0
M  V30 7715 H 724.593 -0.323283 -4.16246 0
M  V30 7716 H 725.983 -4.2223 -5.22658 0
M  V30 7717 N 728.703 1.26451 -0.940633 0
M  V30 7718 C 729.666 2.24651 -0.454378 0
M  V30 7719 C 730.666 1.54826 0.434222 0
M  V30 7720 O 731.856 1.72628 0.233477 0
M  V30 7721 C 728.988 3.39148 0.345192 0
M  V30 7722 H 730.181 2.69182 -1.32217 0
M  V30 7723 H 727.734 1.38596 -0.722547 0
M  V30 7724 H 728.469 3.00018 1.23125 0
M  V30 7725 H 728.254 3.9101 -0.292107 0
M  V30 7726 H 729.744 4.12103 0.675341 0
M  V30 7727 N 730.181 0.707592 1.40822 0
M  V30 7728 C 731.427 0.252828 2.01823 0
M  V30 7729 C 731.782 -1.13876 1.55081 0
M  V30 7730 O 731.075 -1.75993 0.757439 0
M  V30 7731 C 731.269 0.262892 3.56432 0
M  V30 7732 C 731.098 1.65392 4.18181 0
M  V30 7733 C 729.868 2.25966 4.5196 0
M  V30 7734 C 732.066 2.60272 4.4358 0
M  V30 7735 N 730.048 3.57508 4.9906 0
M  V30 7736 C 731.419 3.76509 4.92586 0
M  V30 7737 C 733.474 2.58386 4.25607 0
M  V30 7738 C 732.177 4.91157 5.25507 0
M  V30 7739 C 734.203 3.72155 4.59625 0
M  V30 7740 C 733.565 4.87123 5.08813 0
M  V30 7741 H 729.664 0.138172 0.769696 0
M  V30 7742 H 732.248 0.927667 1.7118 0
M  V30 7743 H 730.419 -0.381479 3.86522 0
M  V30 7744 H 732.151 -0.20783 4.04166 0
M  V30 7745 H 728.906 1.78138 4.38821 0
M  V30 7746 H 729.33 4.24968 5.27002 0
M  V30 7747 H 733.972 1.7071 3.86805 0
M  V30 7748 H 731.69 5.79483 5.63227 0
M  V30 7749 H 735.276 3.71961 4.47366 0
M  V30 7750 H 734.156 5.73698 5.3464 0
M  V30 7751 N 731.66 -1.50943 0.453197 0
M  V30 7752 C 732.59 -2.31005 -0.34044 0
M  V30 7753 C 733.571 -1.37112 -1.00669 0
M  V30 7754 O 734.756 -1.66033 -1.0073 0
M  V30 7755 C 731.886 -3.16358 -1.433 0
M  V30 7756 C 730.84 -4.18658 -0.889363 0
M  V30 7757 C 730.166 -4.92633 -2.07887 0
M  V30 7758 C 731.466 -5.22227 0.0871142 0
M  V30 7759 H 733.16 -2.97601 0.327723 0
M  V30 7760 H 730.706 -1.43119 0.159054 0
M  V30 7761 H 732.659 -3.71155 -1.99555 0
M  V30 7762 H 731.383 -2.47613 -2.12968 0
M  V30 7763 H 730.042 -3.64936 -0.348915 0
M  V30 7764 H 729.69 -4.20376 -2.76211 0
M  V30 7765 H 729.39 -5.61819 -1.72143 0
M  V30 7766 H 730.914 -5.50258 -2.64666 0
M  V30 7767 H 732.328 -5.72001 -0.385656 0
M  V30 7768 H 730.725 -5.99032 0.357926 0
M  V30 7769 H 731.795 -4.74077 1.01879 0
M  V30 7770 N 733.138 -0.185124 -1.56509 0
M  V30 7771 C 734.554 0.170865 -1.58683 0
M  V30 7772 C 734.754 1.61799 -1.20098 0
M  V30 7773 O 733.81 2.35181 -0.919038 0
M  V30 7774 C 735.123 -0.122459 -3.00451 0
M  V30 7775 C 736.671 -0.0617699 -3.12939 0
M  V30 7776 C 737.146 -0.328269 -4.56822 0
M  V30 7777 N 738.637 -0.276533 -4.62374 0
M  V30 7778 C 739.372 -0.456722 -5.71578 0
M  V30 7779 N 738.868 -0.69672 -6.89288 0
M  V30 7780 N 740.661 -0.391669 -5.60734 0
M  V30 7781 H 732.812 -1.12956 -1.79874 0
M  V30 7782 H 735.075 -0.45011 -0.834329 0
M  V30 7783 H 734.781 -1.12546 -3.33206 0
M  V30 7784 H 734.655 0.579578 -3.72721 0
M  V30 7785 H 737.042 0.931826 -2.80002 0
M  V30 7786 H 737.123 -0.796732 -2.43076 0
M  V30 7787 H 736.767 -1.31914 -4.9047 0
M  V30 7788 H 736.697 0.427465 -5.24862 0
M  V30 7789 H 739.188 -0.0972458 -3.77775 0
M  V30 7790 H 739.501 -0.823291 -7.68402 0
M  V30 7791 H 737.846 -0.733497 -6.91119 0
M  V30 7792 H 741.037 -0.204663 -4.67652 0
M  V30 7793 H 741.21 -0.535518 -6.45783 0
M  V30 7794 N 734.616 1.57351 0.0885366 0
M  V30 7795 C 735.548 1.99221 1.13329 0
M  V30 7796 C 736.561 0.895705 1.35945 0
M  V30 7797 O 737.75 1.17376 1.34481 0
M  V30 7798 C 734.85 2.3016 2.48756 0
M  V30 7799 C 734.023 3.61444 2.46327 0
M  V30 7800 C 733.082 3.80244 3.63732 0
M  V30 7801 O 732.108 4.52024 3.45924 0
M  V30 7802 N 733.31 3.2132 4.8346 0
M  V30 7803 H 736.075 2.89456 0.776862 0
M  V30 7804 H 733.636 1.59505 0.277428 0
M  V30 7805 H 735.628 2.39925 3.25911 0
M  V30 7806 H 734.198 1.459 2.76464 0
M  V30 7807 H 733.418 3.62588 1.54673 0
M  V30 7808 H 734.706 4.47678 2.41789 0
M  V30 7809 H 734.104 2.63028 5.00832 0
M  V30 7810 H 732.661 3.3656 5.58185 0
M  V30 7811 N 736.094 -0.359525 1.53444 0
M  V30 7812 C 737.371 -1.11756 1.6053 0
M  V30 7813 C 737.751 -2.06949 0.416587 0
M  V30 7814 O 737.099 -2.20681 -0.592628 0
M  V30 7815 C 737.309 -1.85133 2.95849 0
M  V30 7816 C 738.657 -2.3945 3.50641 0
M  V30 7817 O 739.681 -1.95251 2.97918 0
M  V30 7818 O 738.54 -3.20266 4.42823 0
M  V30 7819 H 735.634 -0.513005 0.648656 0
M  V30 7820 H 738.18 -0.362301 1.65787 0
M  V30 7821 H 736.952 -1.15694 3.73806 0
M  V30 7822 H 736.575 -2.67554 2.9411 0
M  V30 7823 N 737.572 -1.44907 -0.619662 0
M  V30 7824 C 738.522 -1.49085 -1.72504 0
M  V30 7825 C 739.506 -0.355372 -1.56926 0
M  V30 7826 O 740.698 -0.601441 -1.66468 0
M  V30 7827 C 737.827 -1.44889 -3.11227 0
M  V30 7828 C 736.913 -2.63593 -3.32234 0
M  V30 7829 N 737.304 -3.88775 -3.23555 0
M  V30 7830 C 735.602 -2.59033 -3.63067 0
M  V30 7831 C 736.303 -4.67932 -3.45564 0
M  V30 7832 N 735.279 -3.9919 -3.68983 0
M  V30 7833 H 739.081 -2.43706 -1.6427 0
M  V30 7834 H 736.595 -1.4003 -0.82252 0
M  V30 7835 H 738.592 -1.45966 -3.90512 0
M  V30 7836 H 737.252 -0.513143 -3.2062 0
M  V30 7837 H 738.263 -4.20574 -3.02221 0
M  V30 7838 H 734.94 -1.7431 -3.79371 0
M  V30 7839 H 736.33 -5.76952 -3.44349 0
M  V30 7840 N 739.05 0.861098 -1.31996 0
M  V30 7841 C 739.997 1.96912 -1.20392 0
M  V30 7842 C 740.967 1.65869 -0.0875899 0
M  V30 7843 O 742.152 1.88992 -0.262011 0
M  V30 7844 C 739.292 3.32435 -0.926335 0
M  V30 7845 C 738.405 3.76018 -2.12684 0
M  V30 7846 C 737.54 5.00301 -1.78529 0
M  V30 7847 C 736.579 5.36357 -2.94937 0
M  V30 7848 N 735.716 6.51818 -2.60917 0
M  V30 7849 H 740.556 2.06169 -2.1517 0
M  V30 7850 H 738.093 1.00917 -1.07024 0
M  V30 7851 H 740.051 4.10478 -0.745917 0
M  V30 7852 H 738.681 3.22796 -0.0153578 0
M  V30 7853 H 737.733 2.93683 -2.41774 0
M  V30 7854 H 739.045 3.98664 -2.99781 0
M  V30 7855 H 738.199 5.86034 -1.57001 0
M  V30 7856 H 736.938 4.79578 -0.886356 0
M  V30 7857 H 735.943 4.49139 -3.17103 0
M  V30 7858 H 737.168 5.59041 -3.85552 0
M  V30 7859 H 735.114 6.32624 -1.73558 0
M  V30 7860 H 735.031 6.7445 -3.41544 0
M  V30 7861 H 736.299 7.4072 -2.42804 0
M  V30 7862 N 740.528 1.15101 1.07655 0
M  V30 7863 C 741.476 0.840714 2.16875 0
M  V30 7864 C 742.47 -0.184594 1.68391 0
M  V30 7865 O 743.676 -0.0399315 1.79956 0
M  V30 7866 H 740.051 0.254192 0.707736 0
M  V30 7867 H 742.022 1.76959 2.40266 0
M  V30 7868 C 740.771 0.343018 3.46004 0
M  V30 7869 H 740.094 1.12335 3.83694 0
M  V30 7870 H 741.534 0.16453 4.23681 0
M  V30 7871 C 739.993 -0.934881 3.23669 0
M  V30 7872 O 740.523 -2.00706 3.47965 0
M  V30 7873 N 738.729 -0.873167 2.77172 0
M  V30 7874 H 738.276 -0.000479072 2.576 0
M  V30 7875 H 738.234 -1.72873 2.62607 0
M  V30 7876 N 742.006 -1.2595 0.947325 0
M  V30 7877 C 743.252 -1.9375 0.599064 0
M  V30 7878 C 743.585 -1.74088 -0.860632 0
M  V30 7879 O 742.86 -1.08158 -1.61654 0
M  V30 7880 C 743.143 -3.47353 0.949634 0
M  V30 7881 C 742.996 -3.76273 2.46452 0
M  V30 7882 C 744.315 -4.37589 0.469442 0
M  V30 7883 H 741.434 -0.703674 0.219115 0
M  V30 7884 H 744.076 -1.48705 1.18266 0
M  V30 7885 H 742.226 -3.8585 0.453008 0
M  V30 7886 H 743.898 -3.47455 3.03435 0
M  V30 7887 H 742.141 -3.22135 2.90537 0
M  V30 7888 H 742.812 -4.83664 2.66032 0
M  V30 7889 H 745.288 -4.06353 0.89534 0
M  V30 7890 H 744.164 -5.43841 0.7435 0
M  V30 7891 H 744.425 -4.37579 -0.630618 0
M  V30 7892 N 743.484 -0.715051 -1.40445 0
M  V30 7893 C 744.724 -0.258742 -2.02756 0
M  V30 7894 C 745.088 1.12661 -1.55472 0
M  V30 7895 O 746.289 1.67988 -2.09842 0
M  V30 7896 C 744.56 -0.335201 -3.55825 0
M  V30 7897 S 746.119 0.044201 -4.38778 0
M  V30 7898 H 742.937 -0.102683 -0.703546 0
M  V30 7899 H 745.539 -0.937151 -1.71574 0
M  V30 7900 H 744.243 -1.34511 -3.87731 0
M  V30 7901 H 743.774 0.361705 -3.91734 0
M  V30 7902 H 745.789 1.26639 -4.79768 0
M  V30 7903 N 744.962 1.50701 -0.461195 0
M  V30 7904 C 746.208 2.02566 0.0973411 0
M  V30 7905 C 746.541 1.3432 1.40257 0
M  V30 7906 O 745.816 0.465692 1.88843 0
M  V30 7907 C 746.099 3.58919 0.291423 0
M  V30 7908 C 745.952 4.37751 -1.03413 0
M  V30 7909 C 747.271 4.27379 1.05048 0
M  V30 7910 H 744.39 0.73622 0.0339026 0
M  V30 7911 H 747.032 1.80115 -0.604855 0
M  V30 7912 H 745.182 3.78179 0.889539 0
M  V30 7913 H 746.854 4.30085 -1.66806 0
M  V30 7914 H 745.097 4.01885 -1.63313 0
M  V30 7915 H 745.768 5.45384 -0.852085 0
M  V30 7916 H 748.244 4.12534 0.543603 0
M  V30 7917 H 747.12 5.36609 1.15506 0
M  V30 7918 H 747.381 3.89868 2.0846 0
M  V30 7919 N 746.441 0.193421 1.56409 0
M  V30 7920 C 747.687 -0.446449 1.97825 0
M  V30 7921 C 748.02 -1.61386 1.08019 0
M  V30 7922 O 747.295 -1.94053 0.131839 0
M  V30 7923 C 747.578 -0.908199 3.48459 0
M  V30 7924 C 747.431 0.260914 4.49043 0
M  V30 7925 C 748.75 -1.77428 4.0275 0
M  V30 7926 H 745.869 -0.160807 0.719243 0
M  V30 7927 H 748.511 0.284006 1.87865 0
M  V30 7928 H 746.661 -1.53062 3.57077 0
M  V30 7929 H 748.333 0.898548 4.52464 0
M  V30 7930 H 746.576 0.912949 4.24085 0
M  V30 7931 H 747.247 -0.104657 5.51901 0
M  V30 7932 H 749.723 -1.24936 3.96901 0
M  V30 7933 H 748.599 -2.06633 5.08521 0
M  V30 7934 H 748.86 -2.72788 3.47907 0
M  V30 7935 N 747.919 -1.57396 -0.0801906 0
M  V30 7936 C 748.869 -1.9955 -1.10289 0
M  V30 7937 C 749.853 -0.876234 -1.34948 0
M  V30 7938 O 751.045 -1.14012 -1.35389 0
M  V30 7939 C 748.174 -2.43596 -2.419 0
M  V30 7940 C 747.26 -3.6224 -2.20551 0
M  V30 7941 N 747.651 -4.76693 -1.69109 0
M  V30 7942 C 745.949 -3.68627 -2.51059 0
M  V30 7943 C 746.65 -5.58577 -1.62379 0
M  V30 7944 N 745.626 -5.02178 -2.0813 0
M  V30 7945 H 749.428 -2.85483 -0.698335 0
M  V30 7946 H 746.942 -1.59837 -0.287395 0
M  V30 7947 H 748.939 -2.72031 -3.15919 0
M  V30 7948 H 747.599 -1.59047 -2.8308 0
M  V30 7949 H 748.61 -4.9915 -1.38092 0
M  V30 7950 H 745.287 -2.94772 -2.95661 0
M  V30 7951 H 746.677 -6.60447 -1.2353 0
M  V30 7952 N 749.397 0.351382 -1.53633 0
M  V30 7953 C 750.637 1.10102 -1.72212 0
M  V30 7954 C 751.001 1.86128 -0.471198 0
M  V30 7955 O 752.202 2.63445 -0.533887 0
M  V30 7956 C 750.473 2.02348 -2.94602 0
M  V30 7957 S 752.032 2.84641 -3.33954 0
M  V30 7958 H 748.85 0.372145 -0.60583 0
M  V30 7959 H 751.452 0.38044 -1.91763 0
M  V30 7960 H 750.156 1.45283 -3.83824 0
M  V30 7961 H 749.687 2.78856 -2.77493 0
M  V30 7962 H 751.702 4.04724 -2.87076 0
M  V30 7963 N 750.875 1.45233 0.611969 0
M  V30 7964 C 751.808 1.48056 1.73651 0
M  V30 7965 C 752.786 0.337373 1.59061 0
M  V30 7966 O 753.97 0.537222 1.80683 0
M  V30 7967 C 751.097 1.33144 3.11433 0
M  V30 7968 C 750.143 2.51272 3.44623 0
M  V30 7969 S 750.976 4.13754 3.39953 0
M  V30 7970 C 752.132 4.013 4.80322 0
M  V30 7971 H 752.365 2.43205 1.70993 0
M  V30 7972 H 749.898 1.32763 0.788246 0
M  V30 7973 H 751.856 1.25228 3.90932 0
M  V30 7974 H 750.517 0.394734 3.1161 0
M  V30 7975 H 749.71 2.36753 4.44932 0
M  V30 7976 H 749.312 2.56027 2.72629 0
M  V30 7977 H 751.604 3.66174 5.7002 0
M  V30 7978 H 752.547 5.01506 4.99897 0
M  V30 7979 H 752.955 3.3303 4.55797 0
M  V30 7980 N 752.353 -0.854086 1.3245 0
M  V30 7981 C 753.63 -1.59188 1.1366 0
M  V30 7982 C 754.01 -2.08917 -0.302807 0
M  V30 7983 O 753.358 -1.8795 -1.29951 0
M  V30 7984 C 753.568 -2.73757 2.16467 0
M  V30 7985 C 754.916 -3.43323 2.49829 0
M  V30 7986 O 755.94 -2.83983 2.15017 0
M  V30 7987 O 754.799 -4.50409 3.09506 0
M  V30 7988 H 751.893 -0.701092 0.438633 0
M  V30 7989 H 754.439 -0.898165 1.43983 0
M  V30 7990 H 753.211 -2.3454 3.1322 0
M  V30 7991 H 752.834 -3.50804 1.87142 0
M  V30 7992 N 753.831 -1.1567 -1.07043 0
M  V30 7993 C 755.079 -0.931673 -1.79344 0
M  V30 7994 C 755.4 0.542421 -1.87304 0
M  V30 7995 O 754.67 1.39418 -1.37621 0
M  V30 7996 H 753.25 -0.34171 -0.664262 0
M  V30 7997 H 755.912 -1.45795 -1.29344 0
M  V30 7998 H 755.008 -1.34379 -2.81689 0
M  V30 7999 N 755.309 1.25446 -0.953992 0
M  V30 8000 C 756.725 1.4539 -0.658316 0
M  V30 8001 C 756.925 1.85607 0.784356 0
M  V30 8002 O 755.981 1.98568 1.55972 0
M  V30 8003 C 757.294 2.52643 -1.6307 0
M  V30 8004 C 758.842 2.66484 -1.64181 0
M  V30 8005 C 759.317 3.76921 -2.60182 0
M  V30 8006 N 760.808 3.84331 -2.58542 0
M  V30 8007 C 761.543 4.69271 -3.29503 0
M  V30 8008 N 761.039 5.58503 -4.09934 0
M  V30 8009 N 762.832 4.6323 -3.18393 0
M  V30 8010 H 754.983 0.976337 -1.8863 0
M  V30 8011 H 757.246 0.490343 -0.811337 0
M  V30 8012 H 756.952 2.29949 -2.66114 0
M  V30 8013 H 756.826 3.50547 -1.39271 0
M  V30 8014 H 759.213 2.88545 -0.618552 0
M  V30 8015 H 759.294 1.68982 -1.92038 0
M  V30 8016 H 758.938 3.55612 -3.62633 0
M  V30 8017 H 758.868 4.73906 -2.29609 0
M  V30 8018 H 761.359 3.20544 -2.0015 0
M  V30 8019 H 761.672 6.20241 -4.61 0
M  V30 8020 H 760.017 5.58214 -4.14032 0
M  V30 8021 H 763.208 3.92527 -2.5503 0
M  V30 8022 H 763.381 5.29204 -3.73961 0
M  V30 8023 N 756.787 0.722489 1.40064 0
M  V30 8024 C 757.75 0.0830209 2.2905 0
M  V30 8025 C 758.75 -0.680208 1.45705 0
M  V30 8026 O 759.94 -0.511084 1.66534 0
M  V30 8027 C 757.072 -0.892092 3.29021 0
M  V30 8028 H 758.265 0.866848 2.87099 0
M  V30 8029 H 755.818 0.487556 1.48501 0
M  V30 8030 H 756.553 -1.70273 2.76003 0
M  V30 8031 H 756.338 -0.34761 3.90556 0
M  V30 8032 H 757.828 -1.33648 3.95636 0
M  V30 8033 N 758.265 -1.50454 0.469181 0
M  V30 8034 C 759.228 -2.2703 -0.314643 0
M  V30 8035 C 760.228 -1.31734 -0.922111 0
M  V30 8036 O 761.418 -1.55176 -0.791588 0
M  V30 8037 C 758.55 -3.08616 -1.44806 0
M  V30 8038 H 759.743 -2.97769 0.356892 0
M  V30 8039 H 757.296 -1.54698 0.223191 0
M  V30 8040 H 758.031 -2.42369 -2.1547 0
M  V30 8041 H 757.816 -3.78647 -1.01829 0
M  V30 8042 H 759.306 -3.66536 -2.00103 0
M  V30 8043 N 759.743 -0.201713 -1.56304 0
M  V30 8044 C 760.968 0.443815 -2.02596 0
M  V30 8045 C 761.393 1.53945 -1.08086 0
M  V30 8046 O 760.751 1.81182 -0.0655056 0
M  V30 8047 C 760.799 0.971066 -3.47279 0
M  V30 8048 O 759.903 2.0836 -3.55893 0
M  V30 8049 H 759.244 0.10294 -0.655972 0
M  V30 8050 H 761.774 -0.314533 -2.02168 0
M  V30 8051 H 761.784 1.28598 -3.87204 0
M  V30 8052 H 760.459 0.169048 -4.15556 0
M  V30 8053 H 759.036 1.77683 -3.27846 0
M  V30 8054 N 761.222 1.57436 0.0718424 0
M  V30 8055 C 762.185 2.02703 1.06977 0
M  V30 8056 C 763.185 0.924062 1.31597 0
M  V30 8057 O 764.375 1.18894 1.27318 0
M  V30 8058 C 761.507 2.40763 2.41342 0
M  V30 8059 H 762.7 2.92098 0.679619 0
M  V30 8060 H 760.253 1.5304 0.317565 0
M  V30 8061 H 760.988 1.54394 2.8519 0
M  V30 8062 H 760.773 3.21249 2.24814 0
M  V30 8063 H 762.263 2.76361 3.13073 0
M  V30 8064 N 762.7 -0.34323 1.53817 0
M  V30 8065 C 763.946 -1.08504 1.71332 0
M  V30 8066 C 764.279 -1.88294 0.475285 0
M  V30 8067 O 763.554 -1.87205 -0.527688 0
M  V30 8068 C 763.837 -2.02597 2.97702 0
M  V30 8069 C 763.69 -1.26268 4.31713 0
M  V30 8070 C 765.009 -3.0241 3.19744 0
M  V30 8071 H 762.128 -0.393072 0.623429 0
M  V30 8072 H 764.77 -0.363579 1.86489 0
M  V30 8073 H 762.92 -2.64118 2.8491 0
M  V30 8074 H 764.592 -0.673594 4.56356 0
M  V30 8075 H 762.835 -0.564696 4.30109 0
M  V30 8076 H 763.506 -1.95253 5.16314 0
M  V30 8077 H 765.982 -2.51004 3.31868 0
M  V30 8078 H 764.858 -3.65449 4.09558 0
M  V30 8079 H 765.119 -3.73806 2.36054 0
M  V30 8080 N 764.178 -1.45556 -0.604258 0
M  V30 8081 C 765.141 -1.54091 -1.69672 0
M  V30 8082 C 766.141 -0.420076 -1.55216 0
M  V30 8083 O 767.331 -0.683671 -1.60224 0
M  V30 8084 C 764.463 -1.44063 -3.08964 0
M  V30 8085 H 765.656 -2.51431 -1.6347 0
M  V30 8086 H 763.209 -1.33046 -0.820273 0
M  V30 8087 H 763.944 -0.479201 -3.2074 0
M  V30 8088 H 763.729 -2.25362 -3.20865 0
M  V30 8089 H 765.219 -1.53075 -3.88533 0
M  V30 8090 N 765.656 0.84705 -1.32902 0
M  V30 8091 C 766.902 1.60414 -1.24078 0
M  V30 8092 C 767.235 1.93217 0.195105 0
M  V30 8093 O 766.51 1.58001 1.13428 0
M  V30 8094 C 766.793 2.91951 -2.108 0
M  V30 8095 C 766.646 2.6588 -3.62805 0
M  V30 8096 C 767.965 3.93299 -1.97494 0
M  V30 8097 H 765.084 0.58206 -0.452079 0
M  V30 8098 H 767.726 0.977562 -1.62922 0
M  V30 8099 H 765.876 3.45425 -1.77802 0
M  V30 8100 H 767.548 2.18902 -4.06054 0
M  V30 8101 H 765.791 1.99716 -3.85092 0
M  V30 8102 H 766.462 3.59574 -4.1882 0
M  V30 8103 H 768.938 3.49105 -2.26417 0
M  V30 8104 H 767.814 4.8318 -2.60438 0
M  V30 8105 H 768.075 4.31887 -0.944782 0
M  V30 8106 N 767.134 1.16236 1.06428 0
M  V30 8107 C 768.374 0.95369 1.80787 0
M  V30 8108 C 768.738 -0.509495 1.85117 0
M  V30 8109 O 769.939 -0.836822 2.55442 0
M  V30 8110 C 768.21 1.56235 3.21443 0
M  V30 8111 S 769.769 1.49812 4.12434 0
M  V30 8112 H 766.587 0.343004 0.622792 0
M  V30 8113 H 769.189 1.47957 1.27785 0
M  V30 8114 H 767.893 2.62 3.15886 0
M  V30 8115 H 767.424 1.03574 3.79521 0
M  V30 8116 H 769.439 0.49745 4.937 0
M  V30 8117 N 768.612 -1.24939 0.960631 0
M  V30 8118 C 769.837 -1.9742 0.635608 0
M  V30 8119 C 770.262 -1.70857 -0.786737 0
M  V30 8120 O 769.62 -0.968063 -1.53291 0
M  V30 8121 C 769.668 -3.48987 0.907771 0
M  V30 8122 O 768.772 -4.12399 -0.0104053 0
M  V30 8123 H 768.113 -0.61871 0.241027 0
M  V30 8124 H 770.643 -1.58901 1.28886 0
M  V30 8125 H 770.653 -3.99334 0.836453 0
M  V30 8126 H 769.328 -3.6765 1.94439 0
M  V30 8127 H 767.905 -3.72727 0.113631 0
M  V30 8128 N 770.09 -0.729906 -1.39679 0
M  V30 8129 C 771.337 -0.275622 -2.00615 0
M  V30 8130 C 771.665 1.13559 -1.57907 0
M  V30 8131 O 770.92 1.78745 -0.796789 0
M  V30 8132 C 771.219 -0.319564 -3.55968 0
M  V30 8133 C 770.885 -1.68308 -4.1831 0
M  V30 8134 C 769.547 -2.05629 -4.35052 0
M  V30 8135 C 771.899 -2.57857 -4.52945 0
M  V30 8136 C 769.227 -3.32018 -4.83716 0
M  V30 8137 C 771.579 -3.83613 -5.03015 0
M  V30 8138 C 770.243 -4.21033 -5.17965 0
M  V30 8139 H 769.513 -0.100857 -0.734104 0
M  V30 8140 H 772.16 -0.93575 -1.67081 0
M  V30 8141 H 770.465 0.42414 -3.89497 0
M  V30 8142 H 772.162 0.0499905 -4.00969 0
M  V30 8143 H 768.752 -1.3829 -4.05677 0
M  V30 8144 H 772.936 -2.30295 -4.39634 0
M  V30 8145 H 768.192 -3.6096 -4.93475 0
M  V30 8146 H 772.366 -4.53162 -5.28788 0
M  V30 8147 H 769.993 -5.19034 -5.55435 0
M  V30 8148 N 771.568 1.50203 -0.477153 0
M  V30 8149 C 772.498 2.31517 0.303646 0
M  V30 8150 C 773.479 1.38696 0.984753 0
M  V30 8151 O 774.664 1.67615 0.980758 0
M  V30 8152 C 771.794 3.18598 1.38249 0
M  V30 8153 C 770.748 4.2002 0.822645 0
M  V30 8154 C 770.074 4.95878 2.00024 0
M  V30 8155 C 771.374 5.22023 -0.170185 0
M  V30 8156 H 773.068 2.97042 -0.375027 0
M  V30 8157 H 770.614 1.42848 -0.181802 0
M  V30 8158 H 772.567 3.74282 1.93625 0
M  V30 8159 H 771.291 2.5097 2.09002 0
M  V30 8160 H 769.95 3.65445 0.290813 0
M  V30 8161 H 769.598 4.24717 2.69489 0
M  V30 8162 H 769.298 5.64487 1.63183 0
M  V30 8163 H 770.822 5.54399 2.55878 0
M  V30 8164 H 772.236 5.72543 0.294606 0
M  V30 8165 H 770.633 5.98386 -0.453181 0
M  V30 8166 H 771.703 4.72396 -1.09408 0
M  V30 8167 N 773.046 0.209999 1.56195 0
M  V30 8168 C 774.286 -0.4268 1.99894 0
M  V30 8169 C 774.65 -1.57763 1.0943 0
M  V30 8170 O 775.851 -2.27964 1.42428 0
M  V30 8171 C 774.122 -0.861188 3.46869 0
M  V30 8172 S 775.681 -1.49372 4.12593 0
M  V30 8173 H 772.499 -0.135922 0.697887 0
M  V30 8174 H 775.101 0.316573 1.9292 0
M  V30 8175 H 773.805 -0.0137653 4.10398 0
M  V30 8176 H 773.336 -1.63766 3.57693 0
M  V30 8177 H 775.351 -2.7827 4.10829 0
M  V30 8178 N 774.524 -1.57472 -0.0634922 0
M  V30 8179 C 775.771 -1.87654 -0.761066 0
M  V30 8180 C 776.099 -0.802847 -1.77157 0
M  V30 8181 O 775.354 0.200244 -1.94673 0
M  V30 8182 C 775.653 -3.24521 -1.49736 0
M  V30 8183 C 775.319 -4.46532 -0.626065 0
M  V30 8184 C 773.981 -4.7965 -0.385978 0
M  V30 8185 C 776.333 -5.21195 -0.0224001 0
M  V30 8186 C 773.661 -5.84837 0.467118 0
M  V30 8187 C 776.013 -6.27286 0.818198 0
M  V30 8188 C 774.677 -6.58899 1.06808 0
M  V30 8189 H 773.947 -0.686675 -0.278494 0
M  V30 8190 H 776.594 -1.91488 -0.0216348 0
M  V30 8191 H 774.899 -3.16516 -2.30921 0
M  V30 8192 H 776.596 -3.45111 -2.04204 0
M  V30 8193 H 773.186 -4.20618 -0.823325 0
M  V30 8194 H 777.37 -4.95917 -0.194985 0
M  V30 8195 H 772.626 -6.07725 0.669375 0
M  V30 8196 H 776.8 -6.84298 1.29265 0
M  V30 8197 H 774.427 -7.40233 1.73088 0
M  V30 8198 N 776.003 0.335068 -1.53997 0
M  V30 8199 C 777.243 1.0827 -1.7337 0
M  V30 8200 C 777.607 1.85618 -0.490913 0
M  V30 8201 O 778.808 2.62864 -0.561799 0
M  V30 8202 C 777.079 1.99212 -2.96731 0
M  V30 8203 S 778.638 2.81083 -3.36954 0
M  V30 8204 H 775.456 0.365698 -0.609743 0
M  V30 8205 H 778.058 0.360079 -1.92155 0
M  V30 8206 H 776.762 1.41204 -3.85344 0
M  V30 8207 H 776.293 2.75898 -2.80436 0
M  V30 8208 H 778.308 4.01657 -2.91352 0
M  V30 8209 N 777.481 1.45874 0.596531 0
M  V30 8210 C 778.897 1.30524 0.918459 0
M  V30 8211 C 779.097 0.266429 1.99731 0
M  V30 8212 O 778.153 -0.335809 2.50257 0
M  V30 8213 C 779.466 2.68747 1.3489 0
M  V30 8214 C 781.014 2.7673 1.46251 0
M  V30 8215 C 781.489 4.15504 1.92667 0
M  V30 8216 N 782.98 4.17853 1.99883 0
M  V30 8217 C 783.715 5.22109 2.37044 0
M  V30 8218 N 783.211 6.36704 2.73094 0
M  V30 8219 N 785.004 5.09471 2.37479 0
M  V30 8220 H 777.155 2.12081 -0.116368 0
M  V30 8221 H 779.418 0.947941 0.0106033 0
M  V30 8222 H 779.124 3.46006 0.630288 0
M  V30 8223 H 778.998 2.97942 2.31323 0
M  V30 8224 H 781.385 1.99768 2.17202 0
M  V30 8225 H 781.466 2.51236 0.481054 0
M  V30 8226 H 781.11 4.92956 1.223 0
M  V30 8227 H 781.04 4.38396 2.91747 0
M  V30 8228 H 783.531 3.35163 1.74568 0
M  V30 8229 H 783.844 7.12041 3.00362 0
M  V30 8230 H 782.189 6.40087 2.70764 0
M  V30 8231 H 785.38 4.18987 2.08728 0
M  V30 8232 H 785.553 5.90837 2.66112 0
M  V30 8233 N 778.959 -0.83999 1.33349 0
M  V30 8234 C 779.889 -1.965 1.26135 0
M  V30 8235 C 780.87 -1.69505 0.142152 0
M  V30 8236 O 782.055 -1.91346 0.331743 0
M  V30 8237 C 779.185 -3.32632 0.99866 0
M  V30 8238 C 778.139 -3.74021 2.08068 0
M  V30 8239 C 777.465 -5.07947 1.67014 0
M  V30 8240 C 778.765 -3.87925 3.49731 0
M  V30 8241 H 780.459 -2.02793 2.20262 0
M  V30 8242 H 778.005 -0.974297 1.06035 0
M  V30 8243 H 779.958 -4.10903 0.934696 0
M  V30 8244 H 778.682 -3.26593 0.0217759 0
M  V30 8245 H 777.341 -2.98012 2.13505 0
M  V30 8246 H 776.989 -4.98378 0.680316 0
M  V30 8247 H 776.689 -5.36611 2.39422 0
M  V30 8248 H 778.213 -5.88695 1.62082 0
M  V30 8249 H 779.627 -4.5651 3.46802 0
M  V30 8250 H 778.024 -4.28023 4.20614 0
M  V30 8251 H 779.094 -2.90407 3.88319 0
M  V30 8252 N 780.437 -1.16799 -1.0581 0
M  V30 8253 C 781.684 -0.952524 -1.78699 0
M  V30 8254 C 782.012 0.51931 -1.87439 0
M  V30 8255 O 781.267 1.40151 -1.36587 0
M  V30 8256 C 781.566 -1.53111 -3.22942 0
M  V30 8257 C 781.232 -3.0261 -3.34273 0
M  V30 8258 C 779.894 -3.43418 -3.37072 0
M  V30 8259 C 782.246 -3.98611 -3.35795 0
M  V30 8260 C 779.574 -4.78838 -3.39015 0
M  V30 8261 C 781.926 -5.33923 -3.39277 0
M  V30 8262 C 780.59 -5.74205 -3.40361 0
M  V30 8263 H 779.86 -0.348553 -0.653905 0
M  V30 8264 H 782.507 -1.45591 -1.244 0
M  V30 8265 H 780.812 -0.949286 -3.80126 0
M  V30 8266 H 782.509 -1.34002 -3.77948 0
M  V30 8267 H 779.099 -2.70075 -3.32803 0
M  V30 8268 H 783.283 -3.68146 -3.32839 0
M  V30 8269 H 778.539 -5.09369 -3.38161 0
M  V30 8270 H 782.713 -6.08094 -3.39403 0
M  V30 8271 H 780.34 -6.79117 -3.4162 0
M  V30 8272 N 781.915 1.24427 -0.967243 0
M  V30 8273 C 783.14 1.9708 -0.646069 0
M  V30 8274 C 783.565 1.71272 0.777665 0
M  V30 8275 O 782.923 0.976179 1.52776 0
M  V30 8276 C 782.971 3.48501 -0.926266 0
M  V30 8277 O 782.075 4.12398 -0.0114653 0
M  V30 8278 H 781.416 0.617423 -0.244304 0
M  V30 8279 H 783.946 1.58215 -1.29727 0
M  V30 8280 H 783.956 3.98885 -0.857619 0
M  V30 8281 H 782.631 3.66613 -1.96386 0
M  V30 8282 H 781.208 3.72661 -0.133396 0
M  V30 8283 N 783.393 0.737304 1.3929 0
M  V30 8284 C 784.621 0.296573 2.04763 0
M  V30 8285 C 785.036 -1.06941 1.55592 0
M  V30 8286 O 784.393 -1.67619 0.721822 0
M  V30 8287 C 784.444 0.291906 3.6032 0
M  V30 8288 O 784.165 1.60397 4.07682 0
M  V30 8289 C 785.666 -0.164708 4.42994 0
M  V30 8290 H 782.886 0.129251 0.658434 0
M  V30 8291 H 785.43 1.0016 1.78293 0
M  V30 8292 H 783.585 -0.364251 3.85684 0
M  V30 8293 H 783.999 1.51909 5.0202 0
M  V30 8294 H 785.473 -0.116814 5.51876 0
M  V30 8295 H 785.95 -1.21022 4.22197 0
M  V30 8296 H 786.556 0.461968 4.22784 0
M  V30 8297 N 784.871 -1.49948 0.485112 0
M  V30 8298 C 785.834 -2.27351 -0.290546 0
M  V30 8299 C 786.834 -1.32704 -0.908087 0
M  V30 8300 O 788.024 -1.56007 -0.775085 0
M  V30 8301 C 785.156 -3.10135 -1.41524 0
M  V30 8302 H 786.349 -2.97374 0.388454 0
M  V30 8303 H 783.902 -1.54453 0.239586 0
M  V30 8304 H 784.637 -2.44641 -2.12888 0
M  V30 8305 H 784.422 -3.79705 -0.978074 0
M  V30 8306 H 785.912 -3.68638 -1.96204 0
M  V30 8307 N 786.349 -0.21828 -1.56081 0
M  V30 8308 C 787.259 0.704602 -2.23769 0
M  V30 8309 C 788.275 1.21633 -1.24425 0
M  V30 8310 O 789.451 1.25862 -1.57228 0
M  V30 8311 C 786.516 1.89725 -2.90182 0
M  V30 8312 C 785.577 1.42782 -4.0486 0
M  V30 8313 C 784.81 2.56361 -4.68097 0
M  V30 8314 O 785.033 3.74417 -4.30312 0
M  V30 8315 O 783.967 2.2775 -5.57148 0
M  V30 8316 H 787.793 0.158007 -3.03289 0
M  V30 8317 H 785.378 0.0120279 -1.49395 0
M  V30 8318 H 787.26 2.59382 -3.32113 0
M  V30 8319 H 785.935 2.432 -2.13624 0
M  V30 8320 H 784.842 0.699359 -3.67505 0
M  V30 8321 H 786.175 0.939474 -4.83151 0
M  V30 8322 N 787.827 1.57504 0.0551401 0
M  V30 8323 C 788.79 2.03826 1.04821 0
M  V30 8324 C 789.79 0.937968 1.30609 0
M  V30 8325 O 790.98 1.20237 1.2605 0
M  V30 8326 C 788.112 2.43309 2.38775 0
M  V30 8327 H 789.305 2.92802 0.6486 0
M  V30 8328 H 786.858 1.53368 0.301315 0
M  V30 8329 H 787.593 1.5741 2.83536 0
M  V30 8330 H 787.378 3.23615 2.21395 0
M  V30 8331 H 788.868 2.79666 3.10124 0
M  V30 8332 N 789.305 -0.326896 1.54172 0
M  V30 8333 C 790.268 -1.38515 1.8261 0
M  V30 8334 C 791.268 -1.44872 0.697771 0
M  V30 8335 O 792.458 -1.44957 0.966078 0
M  V30 8336 C 789.59 -2.77281 1.98313 0
M  V30 8337 H 790.783 -1.14556 2.77159 0
M  V30 8338 H 788.336 -0.562199 1.45839 0
M  V30 8339 H 789.071 -3.065 1.05964 0
M  V30 8340 H 788.856 -2.74061 2.80416 0
M  V30 8341 H 790.346 -3.53845 2.21773 0
M  V30 8342 N 790.784 -1.46188 -0.588786 0
M  V30 8343 C 792.03 -1.51407 -1.34921 0
M  V30 8344 C 792.363 -0.162771 -1.93517 0
M  V30 8345 O 791.638 0.825082 -1.76132 0
M  V30 8346 C 791.921 -2.60795 -2.48311 0
M  V30 8347 C 791.774 -4.05435 -1.94789 0
M  V30 8348 C 793.093 -2.66313 -3.50379 0
M  V30 8349 H 790.212 -0.551213 -0.489217 0
M  V30 8350 H 792.854 -1.78095 -0.661993 0
M  V30 8351 H 791.004 -2.3817 -3.06932 0
M  V30 8352 H 792.676 -4.39328 -1.40672 0
M  V30 8353 H 790.919 -4.15202 -1.25659 0
M  V30 8354 H 791.59 -4.77691 -2.76613 0
M  V30 8355 H 794.066 -2.86634 -3.01629 0
M  V30 8356 H 792.942 -3.44681 -4.27184 0
M  V30 8357 H 793.203 -1.72127 -4.07216 0
M  V30 8358 N 792.262 0.832906 -1.33792 0
M  V30 8359 C 793.492 1.61813 -1.28453 0
M  V30 8360 C 793.9 1.88639 0.145595 0
M  V30 8361 O 793.243 1.47122 1.10004 0
M  V30 8362 C 793.305 2.98929 -1.99704 0
M  V30 8363 C 792.969 2.95045 -3.48995 0
M  V30 8364 C 793.966 2.70337 -4.44088 0
M  V30 8365 C 791.651 3.14993 -3.91261 0
M  V30 8366 C 793.645 2.65612 -5.79421 0
M  V30 8367 C 791.332 3.09893 -5.26697 0
M  V30 8368 C 792.33 2.85235 -6.20588 0
M  V30 8369 O 792.018 2.8005 -7.53543 0
M  V30 8370 H 791.75 0.510013 -0.443693 0
M  V30 8371 H 794.304 1.04514 -1.76822 0
M  V30 8372 H 792.534 3.58106 -1.45935 0
M  V30 8373 H 794.223 3.59849 -1.87786 0
M  V30 8374 H 794.989 2.54671 -4.12756 0
M  V30 8375 H 790.868 3.33204 -3.18584 0
M  V30 8376 H 794.412 2.46285 -6.52679 0
M  V30 8377 H 790.309 3.2511 -5.5765 0
M  V30 8378 H 791.077 2.95849 -7.63162 0
M  V30 8379 N 793.74 1.17359 1.05189 0
M  V30 8380 C 794.673 0.833768 2.12423 0
M  V30 8381 C 795.651 -0.19945 1.61372 0
M  V30 8382 O 796.835 -0.080979 1.88326 0
M  V30 8383 C 793.962 0.243745 3.37822 0
M  V30 8384 C 793.008 1.25235 4.07699 0
M  V30 8385 S 793.841 2.80368 4.56239 0
M  V30 8386 C 794.997 2.22846 5.84885 0
M  V30 8387 H 795.23 1.74197 2.40921 0
M  V30 8388 H 792.763 0.998242 1.1779 0
M  V30 8389 H 794.721 -0.0901915 4.10401 0
M  V30 8390 H 793.382 -0.642396 3.07461 0
M  V30 8391 H 792.575 0.788168 4.97799 0
M  V30 8392 H 792.177 1.53194 3.41185 0
M  V30 8393 H 794.469 1.60403 6.58238 0
M  V30 8394 H 795.412 3.112 6.3605 0
M  V30 8395 H 795.82 1.66296 5.39449 0
M  V30 8396 N 795.218 -1.23913 0.973828 0
M  V30 8397 C 796.465 -1.92151 0.639079 0
M  V30 8398 C 796.793 -1.76064 -0.826545 0
M  V30 8399 O 796.048 -1.11126 -1.61088 0
M  V30 8400 C 796.347 -3.4406 0.967356 0
M  V30 8401 C 796.013 -3.80321 2.42212 0
M  V30 8402 C 794.675 -3.8993 2.81971 0
M  V30 8403 C 797.027 -3.97935 3.36596 0
M  V30 8404 C 794.355 -4.14575 4.15144 0
M  V30 8405 C 796.707 -4.24079 4.69404 0
M  V30 8406 C 795.371 -4.31908 5.08932 0
M  V30 8407 H 794.641 -0.70313 0.233856 0
M  V30 8408 H 797.288 -1.47072 1.22646 0
M  V30 8409 H 795.593 -3.90667 0.297807 0
M  V30 8410 H 797.29 -3.95077 0.686654 0
M  V30 8411 H 793.88 -3.73411 2.10385 0
M  V30 8412 H 798.064 -3.89908 3.07059 0
M  V30 8413 H 793.32 -4.18858 4.45385 0
M  V30 8414 H 797.494 -4.36652 5.42502 0
M  V30 8415 H 795.121 -4.50758 6.12145 0
M  V30 8416 N 796.696 -0.74468 -1.38897 0
M  V30 8417 C 797.921 -0.306119 -2.05128 0
M  V30 8418 C 798.346 1.0541 -1.55789 0
M  V30 8419 O 797.704 1.66993 -0.705909 0
M  V30 8420 C 797.752 -0.328195 -3.59103 0
M  V30 8421 O 796.856 0.680876 -4.06741 0
M  V30 8422 H 796.197 -0.137209 -0.649669 0
M  V30 8423 H 798.727 -1.01331 -1.77745 0
M  V30 8424 H 798.737 -0.175956 -4.0762 0
M  V30 8425 H 797.412 -1.32067 -3.94374 0
M  V30 8426 H 795.989 0.49398 -3.69614 0
M  V30 8427 N 798.174 1.49689 -0.493057 0
M  V30 8428 C 799.107 2.25712 0.336062 0
M  V30 8429 C 800.085 1.29953 0.977294 0
M  V30 8430 O 801.269 1.59225 1.00895 0
M  V30 8431 C 798.396 3.0501 1.47263 0
M  V30 8432 C 797.442 4.15863 0.946575 0
M  V30 8433 S 798.275 5.35272 -0.156323 0
M  V30 8434 C 799.431 6.18123 0.983601 0
M  V30 8435 H 799.664 2.95688 -0.309215 0
M  V30 8436 H 797.197 1.51872 -0.278238 0
M  V30 8437 H 799.155 3.51284 2.12391 0
M  V30 8438 H 797.816 2.34519 2.08949 0
M  V30 8439 H 797.009 4.70834 1.7981 0
M  V30 8440 H 796.611 3.72139 0.372647 0
M  V30 8441 H 798.903 6.50588 1.89056 0
M  V30 8442 H 799.846 7.06521 0.472687 0
M  V30 8443 H 800.254 5.50547 1.24735 0
M  V30 8444 N 799.652 0.226554 1.55963 0
M  V30 8445 C 800.599 -0.681504 2.20509 0
M  V30 8446 C 801.569 -1.1866 1.16229 0
M  V30 8447 O 802.754 -1.24478 1.44602 0
M  V30 8448 C 799.894 -1.88183 2.89277 0
M  V30 8449 C 799.007 -1.41517 4.08163 0
M  V30 8450 C 798.142 -2.57346 4.647 0
M  V30 8451 C 797.181 -2.07441 5.75877 0
M  V30 8452 N 796.318 -3.16561 6.26685 0
M  V30 8453 H 801.158 -0.124372 2.9774 0
M  V30 8454 H 798.695 -0.0496333 1.47016 0
M  V30 8455 H 800.653 -2.58666 3.27335 0
M  V30 8456 H 799.283 -2.41177 2.14555 0
M  V30 8457 H 798.335 -0.605099 3.75557 0
M  V30 8458 H 799.647 -1.00928 4.88482 0
M  V30 8459 H 798.801 -3.35903 5.05227 0
M  V30 8460 H 797.54 -3.01227 3.83554 0
M  V30 8461 H 796.545 -1.27347 5.34848 0
M  V30 8462 H 797.77 -1.64554 6.58862 0
M  V30 8463 H 795.716 -3.59914 5.48451 0
M  V30 8464 H 795.633 -2.80239 7.02141 0
M  V30 8465 H 796.901 -3.95238 6.71868 0
M  V30 8466 N 801.13 -1.57531 -0.0467866 0
M  V30 8467 C 802.546 -1.54451 -0.402107 0
M  V30 8468 C 802.746 -0.950275 -1.77685 0
M  V30 8469 O 801.802 -0.563602 -2.4613 0
M  V30 8470 C 803.115 -2.9899 -0.320212 0
M  V30 8471 C 804.663 -3.10452 -0.398588 0
M  V30 8472 C 805.138 -4.56689 -0.346335 0
M  V30 8473 N 806.629 -4.6142 -0.405666 0
M  V30 8474 C 807.364 -5.72087 -0.387845 0
M  V30 8475 N 806.86 -6.92045 -0.32336 0
M  V30 8476 N 808.653 -5.60404 -0.436263 0
M  V30 8477 H 800.804 -1.94515 0.853087 0
M  V30 8478 H 803.067 -0.891397 0.322669 0
M  V30 8479 H 802.773 -3.46124 0.623794 0
M  V30 8480 H 802.647 -3.60164 -1.1208 0
M  V30 8481 H 805.034 -2.63276 -1.33302 0
M  V30 8482 H 805.115 -2.52142 0.431026 0
M  V30 8483 H 804.759 -5.04527 0.584356 0
M  V30 8484 H 804.689 -5.12889 -1.19382 0
M  V30 8485 H 807.18 -3.75105 -0.458737 0
M  V30 8486 H 807.493 -7.7216 -0.314375 0
M  V30 8487 H 805.838 -6.94396 -0.28967 0
M  V30 8488 H 809.029 -4.65586 -0.48451 0
M  V30 8489 H 809.202 -6.46645 -0.418907 0
M  V30 8490 N 802.608 0.318715 -1.54344 0
M  V30 8491 C 803.848 1.06425 -1.74508 0
M  V30 8492 C 804.212 1.85087 -0.510572 0
M  V30 8493 O 805.413 2.62253 -0.589647 0
M  V30 8494 C 803.684 1.96054 -2.98827 0
M  V30 8495 S 805.243 2.77493 -3.39916 0
M  V30 8496 H 802.061 0.35921 -0.613587 0
M  V30 8497 H 804.663 0.339679 -1.92526 0
M  V30 8498 H 803.367 1.37109 -3.8682 0
M  V30 8499 H 802.898 2.72908 -2.83346 0
M  V30 8500 H 804.913 3.98544 -2.95596 0
M  V30 8501 N 804.086 1.46499 0.581025 0
M  V30 8502 C 805.497 1.4604 1.16315 0
M  V30 8503 C 805.848 0.202154 1.95156 0
M  V30 8504 O 804.973 -0.694638 2.04948 0
M  V30 8505 C 805.568 2.64593 2.11604 0
M  V30 8506 C 804.127 2.6717 2.65136 0
M  V30 8507 C 803.274 2.38753 1.4104 0
M  V30 8508 H 806.225 1.54354 0.368871 0
M  V30 8509 H 806.246 2.40207 2.95095 0
M  V30 8510 H 805.758 3.56154 1.54194 0
M  V30 8511 H 803.859 1.79685 3.26411 0
M  V30 8512 H 803.972 3.67182 3.07757 0
M  V30 8513 H 802.336 1.88845 1.70908 0
M  V30 8514 H 803.119 3.32493 0.854588 0
M  V30 8515 N 805.565 -0.825799 1.34232 0
M  V30 8516 C 806.976 -1.39835 1.23706 0
M  V30 8517 C 807.327 -1.95709 -0.138649 0
M  V30 8518 O 806.452 -1.89833 -1.03886 0
M  V30 8519 C 807.047 -2.54203 2.23978 0
M  V30 8520 C 805.606 -3.07374 2.17251 0
M  V30 8521 C 804.753 -1.80232 2.10741 0
M  V30 8522 H 807.704 -0.630442 1.4564 0
M  V30 8523 H 807.725 -3.32214 1.8551 0
M  V30 8524 H 807.237 -2.13506 3.24094 0
M  V30 8525 H 805.338 -3.52583 1.20483 0
M  V30 8526 H 805.451 -3.6666 3.08379 0
M  V30 8527 H 803.815 -2.01012 1.56417 0
M  V30 8528 H 804.598 -1.41713 3.12686 0
M  V30 8529 N 807.043 -1.17915 -1.04565 0
M  V30 8530 C 808.291 -0.969505 -1.77327 0
M  V30 8531 C 808.612 0.502569 -1.88412 0
M  V30 8532 O 807.882 1.36467 -1.40547 0
M  V30 8533 H 806.462 -0.355723 -0.656864 0
M  V30 8534 H 809.124 -1.48506 -1.26223 0
M  V30 8535 H 808.22 -1.40324 -2.78775 0
M  V30 8536 N 808.521 1.23394 -0.980386 0
M  V30 8537 C 809.77 1.91116 -0.644785 0
M  V30 8538 C 810.083 1.77333 0.825367 0
M  V30 8539 O 811.289 2.39858 1.27203 0
M  V30 8540 C 809.745 3.42592 -1.10266 0
M  V30 8541 C 809.353 3.65037 -2.59715 0
M  V30 8542 C 811.097 4.1609 -0.8408 0
M  V30 8543 C 809.004 5.10148 -2.9917 0
M  V30 8544 H 807.934 0.715632 -0.23746 0
M  V30 8545 H 810.585 1.39829 -1.18828 0
M  V30 8546 H 808.967 3.92989 -0.487372 0
M  V30 8547 H 810.141 3.25186 -3.26482 0
M  V30 8548 H 808.456 3.04849 -2.83647 0
M  V30 8549 H 811.053 5.23021 -1.11143 0
M  V30 8550 H 811.396 4.15702 0.223085 0
M  V30 8551 H 811.929 3.71681 -1.41767 0
M  V30 8552 H 808.668 5.15668 -4.04682 0
M  V30 8553 H 808.188 5.50949 -2.37097 0
M  V30 8554 H 809.867 5.7848 -2.89775 0
M  V30 8555 N 809.999 0.752036 1.385 0
M  V30 8556 C 811.245 0.316909 2.00916 0
M  V30 8557 C 811.6 -1.08884 1.58625 0
M  V30 8558 O 810.893 -1.73494 0.813047 0
M  V30 8559 C 811.087 0.376155 3.55415 0
M  V30 8560 C 810.916 1.78612 4.12708 0
M  V30 8561 C 809.686 2.4023 4.44542 0
M  V30 8562 C 811.884 2.74253 4.35075 0
M  V30 8563 N 809.866 3.73204 4.87434 0
M  V30 8564 C 811.237 3.9199 4.80358 0
M  V30 8565 C 813.292 2.71795 4.17171 0
M  V30 8566 C 811.995 5.07627 5.09615 0
M  V30 8567 C 814.021 3.86589 4.47552 0
M  V30 8568 C 813.383 5.03064 4.93058 0
M  V30 8569 H 809.482 0.16259 0.764911 0
M  V30 8570 H 812.066 0.981657 1.68142 0
M  V30 8571 H 810.237 -0.258317 3.8754 0
M  V30 8572 H 811.969 -0.0791421 4.04623 0
M  V30 8573 H 808.724 1.92009 4.32931 0
M  V30 8574 H 809.148 4.41519 5.13215 0
M  V30 8575 H 813.79 1.82929 3.81178 0
M  V30 8576 H 811.508 5.97109 5.44506 0
M  V30 8577 H 815.094 3.86005 4.35306 0
M  V30 8578 H 813.974 5.90417 5.16118 0
M  V30 8579 N 811.477 -1.49425 0.500989 0
M  V30 8580 C 812.888 -1.86624 0.0532011 0
M  V30 8581 C 813.239 -1.41331 -1.36088 0
M  V30 8582 O 812.364 -0.791195 -2.01418 0
M  V30 8583 C 812.959 -3.38681 0.0897693 0
M  V30 8584 C 811.518 -3.75181 -0.302677 0
M  V30 8585 C 810.665 -2.73419 0.462307 0
M  V30 8586 H 813.616 -1.41743 0.713773 0
M  V30 8587 H 813.637 -3.73902 -0.705528 0
M  V30 8588 H 813.149 -3.71616 1.11907 0
M  V30 8589 H 811.25 -3.47855 -1.33521 0
M  V30 8590 H 811.363 -4.79097 0.0167653 0
M  V30 8591 H 809.727 -2.54548 -0.0878557 0
M  V30 8592 H 810.51 -3.09198 1.49169 0
M  V30 8593 N 812.955 -0.234822 -1.55841 0
M  V30 8594 C 814.18 0.400741 -2.03492 0
M  V30 8595 C 814.605 1.51618 -1.11327 0
M  V30 8596 O 813.963 1.81002 -0.103922 0
M  V30 8597 C 814.011 0.897184 -3.49261 0
M  V30 8598 O 813.115 2.00764 -3.60233 0
M  V30 8599 H 812.456 0.0890023 -0.658008 0
M  V30 8600 H 814.986 -0.357345 -2.01455 0
M  V30 8601 H 814.996 1.20356 -3.89844 0
M  V30 8602 H 813.671 0.0808639 -4.15821 0
M  V30 8603 H 812.248 1.70689 -3.31541 0
M  V30 8604 N 814.433 1.57553 0.0384317 0
M  V30 8605 C 815.383 2.02404 1.0496 0
M  V30 8606 C 816.367 0.911705 1.32577 0
M  V30 8607 O 817.559 1.17561 1.32319 0
M  V30 8608 C 814.688 2.49924 2.35357 0
M  V30 8609 C 813.774 3.6796 2.1087 0
M  V30 8610 N 814.165 4.81009 1.56411 0
M  V30 8611 C 812.463 3.75153 2.41197 0
M  V30 8612 C 813.164 5.62686 1.47512 0
M  V30 8613 N 812.14 5.0752 1.94742 0
M  V30 8614 H 815.942 2.87234 0.622399 0
M  V30 8615 H 813.456 1.60543 0.244916 0
M  V30 8616 H 815.453 2.80312 3.08595 0
M  V30 8617 H 814.113 1.66496 2.78763 0
M  V30 8618 H 815.124 5.02636 1.2481 0
M  V30 8619 H 811.801 3.02507 2.87742 0
M  V30 8620 H 813.191 6.6349 1.05976 0
M  V30 8621 N 815.911 -0.310526 1.54511 0
M  V30 8622 C 816.858 -1.38264 1.84802 0
M  V30 8623 C 817.828 -1.50808 0.696141 0
M  V30 8624 O 819.013 -1.6582 0.943846 0
M  V30 8625 C 816.153 -2.74422 2.09252 0
M  V30 8626 C 815.266 -2.70405 3.36906 0
M  V30 8627 C 814.401 -3.98495 3.51248 0
M  V30 8628 C 813.44 -3.88836 4.72729 0
M  V30 8629 N 812.577 -5.08683 4.83928 0
M  V30 8630 H 817.417 -1.11732 2.76261 0
M  V30 8631 H 814.954 -0.540609 1.36806 0
M  V30 8632 H 816.912 -3.53593 2.21422 0
M  V30 8633 H 815.542 -2.99235 1.2107 0
M  V30 8634 H 814.594 -1.83151 3.33406 0
M  V30 8635 H 815.906 -2.59155 4.26193 0
M  V30 8636 H 815.06 -4.861 3.63031 0
M  V30 8637 H 813.799 -4.12567 2.60077 0
M  V30 8638 H 812.804 -2.99615 4.60989 0
M  V30 8639 H 814.029 -3.76318 5.65298 0
M  V30 8640 H 811.975 -5.23236 3.95677 0
M  V30 8641 H 811.892 -4.99819 5.67201 0
M  V30 8642 H 813.16 -5.97966 5.00057 0
M  V30 8643 N 817.389 -1.46805 -0.573248 0
M  V30 8644 C 818.805 -1.31969 -0.897577 0
M  V30 8645 C 819.005 -0.298171 -1.99282 0
M  V30 8646 O 818.061 0.295953 -2.5076 0
M  V30 8647 C 819.374 -2.70859 -1.30598 0
M  V30 8648 C 820.922 -2.79022 -1.4183 0
M  V30 8649 C 821.397 -4.18516 -1.86033 0
M  V30 8650 N 822.888 -4.2098 -1.9321 0
M  V30 8651 C 823.623 -5.25814 -2.28707 0
M  V30 8652 N 823.119 -6.40968 -2.6293 0
M  V30 8653 N 824.912 -5.13184 -2.29343 0
M  V30 8654 H 817.063 -2.11869 0.150094 0
M  V30 8655 H 819.326 -0.947989 0.00447895 0
M  V30 8656 H 819.032 -3.46965 -0.575161 0
M  V30 8657 H 818.906 -3.01585 -2.26554 0
M  V30 8658 H 821.293 -2.03198 -2.13996 0
M  V30 8659 H 821.374 -2.51969 -0.441024 0
M  V30 8660 H 821.018 -4.94839 -1.14442 0
M  V30 8661 H 820.948 -4.42982 -2.84735 0
M  V30 8662 H 823.439 -3.37898 -1.69214 0
M  V30 8663 H 823.752 -7.16729 -2.88996 0
M  V30 8664 H 822.097 -6.44314 -2.60547 0
M  V30 8665 H 825.288 -4.22255 -2.02036 0
M  V30 8666 H 825.461 -5.94996 -2.56679 0
M  V30 8667 N 818.867 0.818669 -1.34668 0
M  V30 8668 C 820.097 1.60441 -1.30162 0
M  V30 8669 C 820.505 1.88783 0.125579 0
M  V30 8670 O 819.848 1.48281 1.08437 0
M  V30 8671 C 819.91 2.96794 -2.02864 0
M  V30 8672 C 819.574 2.91327 -3.52105 0
M  V30 8673 C 820.571 2.65611 -4.4693 0
M  V30 8674 C 818.256 3.10825 -3.9458 0
M  V30 8675 C 820.25 2.59452 -5.82206 0
M  V30 8676 C 817.937 3.0429 -5.29954 0
M  V30 8677 C 818.935 2.78637 -6.23579 0
M  V30 8678 O 818.623 2.72042 -7.56471 0
M  V30 8679 H 818.355 0.505278 -0.449077 0
M  V30 8680 H 820.909 1.02632 -1.77921 0
M  V30 8681 H 819.139 3.56538 -1.49725 0
M  V30 8682 H 820.828 3.57837 -1.91592 0
M  V30 8683 H 821.594 2.50278 -4.15434 0
M  V30 8684 H 817.473 3.29807 -3.221 0
M  V30 8685 H 821.017 2.39349 -6.55254 0
M  V30 8686 H 816.914 3.19177 -5.61067 0
M  V30 8687 H 817.682 2.87738 -7.66257 0
M  V30 8688 N 820.346 1.18468 1.03938 0
M  V30 8689 C 821.595 0.975193 1.76558 0
M  V30 8690 C 821.908 -0.495978 1.89207 0
M  V30 8691 O 823.114 -0.824009 2.58694 0
M  V30 8692 C 821.57 1.69579 3.17444 0
M  V30 8693 C 821.178 3.20636 3.12884 0
M  V30 8694 C 822.922 1.56917 3.94433 0
M  V30 8695 C 820.829 3.8533 4.48636 0
M  V30 8696 H 819.759 0.361244 0.66183 0
M  V30 8697 H 822.41 1.41854 1.16403 0
M  V30 8698 H 820.792 1.18022 3.78004 0
M  V30 8699 H 821.966 3.79228 2.61768 0
M  V30 8700 H 820.281 3.33454 2.49394 0
M  V30 8701 H 822.878 2.02611 4.94826 0
M  V30 8702 H 823.221 0.521638 4.13019 0
M  V30 8703 H 823.754 2.05762 3.40451 0
M  V30 8704 H 820.493 4.90136 4.35255 0
M  V30 8705 H 820.013 3.31526 4.99851 0
M  V30 8706 H 821.692 3.88269 5.17549 0
M  V30 8707 N 821.824 -1.22873 0.986916 0
M  V30 8708 C 822.734 -2.28277 0.540978 0
M  V30 8709 C 823.75 -1.69164 -0.407363 0
M  V30 8710 O 824.926 -1.99504 -0.275674 0
M  V30 8711 C 821.991 -3.46404 -0.143181 0
M  V30 8712 C 821.052 -4.20854 0.847375 0
M  V30 8713 C 820.285 -5.33341 0.19577 0
M  V30 8714 O 820.508 -5.61356 -1.0117 0
M  V30 8715 O 819.442 -5.95169 0.897623 0
M  V30 8716 H 823.268 -2.68578 1.41773 0
M  V30 8717 H 820.853 -1.28927 0.754867 0
M  V30 8718 H 822.735 -4.18096 -0.526676 0
M  V30 8719 H 821.41 -3.08041 -0.994593 0
M  V30 8720 H 820.317 -3.51459 1.28169 0
M  V30 8721 H 821.65 -4.63082 1.6678 0
M  V30 8722 N 823.302 -0.75937 -1.38099 0
M  V30 8723 C 824.532 -0.328634 -2.0397 0
M  V30 8724 C 824.94 1.04989 -1.57398 0
M  V30 8725 O 824.283 1.67918 -0.744932 0
M  V30 8726 C 824.345 -0.279216 -3.58414 0
M  V30 8727 C 824.009 -1.60025 -4.28067 0
M  V30 8728 C 825.006 -2.55048 -4.53041 0
M  V30 8729 C 822.691 -1.87128 -4.66142 0
M  V30 8730 C 824.685 -3.7539 -5.15132 0
M  V30 8731 C 822.372 -3.07742 -5.27956 0
M  V30 8732 C 823.37 -4.01694 -5.52387 0
M  V30 8733 O 823.058 -5.20186 -6.12912 0
M  V30 8734 H 822.79 -0.137443 -0.66188 0
M  V30 8735 H 825.344 -1.03082 -1.77661 0
M  V30 8736 H 823.574 0.479254 -3.83719 0
M  V30 8737 H 825.263 0.122781 -4.05714 0
M  V30 8738 H 826.029 -2.35387 -4.24049 0
M  V30 8739 H 821.908 -1.14833 -4.46469 0
M  V30 8740 H 825.452 -4.48737 -5.34117 0
M  V30 8741 H 821.349 -3.27294 -5.56371 0
M  V30 8742 H 822.117 -5.20846 -6.31397 0
M  V30 8743 N 824.78 1.49157 -0.508906 0
M  V30 8744 C 825.713 2.26056 0.312103 0
M  V30 8745 C 826.691 1.30982 0.963456 0
M  V30 8746 O 827.875 1.60286 0.992002 0
M  V30 8747 C 825.002 3.06555 1.4402 0
M  V30 8748 C 824.048 4.16844 0.902414 0
M  V30 8749 S 824.881 5.35076 -0.213087 0
M  V30 8750 C 826.037 6.19132 0.917985 0
M  V30 8751 H 826.27 2.95343 -0.340559 0
M  V30 8752 H 823.803 1.51569 -0.294331 0
M  V30 8753 H 825.761 3.53517 2.08653 0
M  V30 8754 H 824.422 2.36722 2.0645 0
M  V30 8755 H 823.615 4.72714 1.74806 0
M  V30 8756 H 823.217 3.72513 0.333156 0
M  V30 8757 H 825.509 6.52556 1.82145 0
M  V30 8758 H 826.452 7.06982 0.397724 0
M  V30 8759 H 826.86 5.51839 1.18889 0
M  V30 8760 N 826.258 0.243083 1.55714 0
M  V30 8761 C 827.498 -0.384303 2.00755 0
M  V30 8762 C 827.862 -1.55406 1.12752 0
M  V30 8763 O 829.063 -2.24892 1.47231 0
M  V30 8764 C 827.334 -0.787419 3.48618 0
M  V30 8765 S 828.893 -1.40587 4.15669 0
M  V30 8766 H 825.711 -0.121088 0.700613 0
M  V30 8767 H 828.313 0.357423 1.92205 0
M  V30 8768 H 827.017 0.0732892 4.10335 0
M  V30 8769 H 826.548 -1.56142 3.61086 0
M  V30 8770 H 828.563 -2.69493 4.16639 0
M  V30 8771 N 827.736 -1.57571 -0.0300757 0
M  V30 8772 C 829.013 -1.80381 -0.756447 0
M  V30 8773 C 829.393 -0.840906 -1.93628 0
M  V30 8774 O 828.741 0.117143 -2.282 0
M  V30 8775 C 828.951 -3.2807 -1.19043 0
M  V30 8776 C 830.299 -3.93025 -1.60676 0
M  V30 8777 O 831.323 -3.32213 -1.28503 0
M  V30 8778 O 830.182 -5.00092 -2.20386 0
M  V30 8779 H 827.276 -0.741737 -0.365725 0
M  V30 8780 H 829.822 -1.69699 -0.00693177 0
M  V30 8781 H 828.594 -3.89748 -0.348128 0
M  V30 8782 H 828.217 -3.43637 -1.99999 0
M  V30 8783 N 829.214 0.302327 -1.54673 0
M  V30 8784 C 830.147 1.39738 -1.80412 0
M  V30 8785 C 831.125 1.48813 -0.655241 0
M  V30 8786 O 832.309 1.65895 -0.89505 0
M  V30 8787 C 829.436 2.7766 -1.93966 0
M  V30 8788 C 828.482 2.86014 -3.16383 0
M  V30 8789 S 829.315 2.48246 -4.74483 0
M  V30 8790 C 830.471 3.88198 -4.90971 0
M  V30 8791 H 830.704 1.17696 -2.73011 0
M  V30 8792 H 828.237 0.500364 -1.46068 0
M  V30 8793 H 830.195 3.571 -2.0246 0
M  V30 8794 H 828.856 2.96971 -1.02307 0
M  V30 8795 H 828.049 3.87174 -3.22664 0
M  V30 8796 H 827.651 2.14568 -3.06328 0
M  V30 8797 H 829.943 4.83181 -4.74913 0
M  V30 8798 H 830.886 3.86887 -5.93063 0
M  V30 8799 H 831.294 3.78139 -4.19131 0
M  V30 8800 N 830.692 1.47107 0.565454 0
M  V30 8801 C 831.938 1.53535 1.32495 0
M  V30 8802 C 832.271 0.193537 1.93233 0
M  V30 8803 O 831.546 -0.796956 1.77423 0
M  V30 8804 C 831.829 2.64712 2.4413 0
M  V30 8805 C 831.682 4.08482 1.88314 0
M  V30 8806 C 833.001 2.71853 3.46098 0
M  V30 8807 H 830.12 0.558926 0.480386 0
M  V30 8808 H 832.762 1.79125 0.633575 0
M  V30 8809 H 830.912 2.43023 3.03104 0
M  V30 8810 H 832.584 4.4151 1.33665 0
M  V30 8811 H 830.827 4.17148 1.19037 0
M  V30 8812 H 831.498 4.82032 2.68978 0
M  V30 8813 H 833.974 2.91397 2.97031 0
M  V30 8814 H 832.85 3.51433 4.21646 0
M  V30 8815 H 833.111 1.78584 4.04426 0
M  V30 8816 N 832.17 -0.811516 1.35101 0
M  V30 8817 C 833.133 -1.90467 1.27495 0
M  V30 8818 C 834.133 -1.59703 0.187516 0
M  V30 8819 O 835.323 -1.68528 0.440896 0
M  V30 8820 C 832.455 -3.26774 0.971154 0
M  V30 8821 H 833.648 -1.98631 2.2469 0
M  V30 8822 H 831.201 -1.00681 1.19553 0
M  V30 8823 H 831.936 -3.243 0.0028557 0
M  V30 8824 H 831.721 -3.50488 1.75785 0
M  V30 8825 H 833.211 -4.06804 0.943414 0
M  V30 8826 N 833.648 -1.19017 -1.03309 0
M  V30 8827 C 834.558 -0.939303 -2.14975 0
M  V30 8828 C 835.574 0.0992359 -1.73717 0
M  V30 8829 O 836.75 -0.0844362 -2.01223 0
M  V30 8830 C 833.815 -0.476712 -3.43407 0
M  V30 8831 C 832.876 -1.58413 -3.99003 0
M  V30 8832 C 832.109 -1.14352 -5.21305 0
M  V30 8833 O 832.332 -0.00534408 -5.704 0
M  V30 8834 O 831.266 -1.94436 -5.6963 0
M  V30 8835 H 835.092 -1.87386 -2.38998 0
M  V30 8836 H 832.677 -0.972635 -1.13403 0
M  V30 8837 H 834.559 -0.22718 -4.20787 0
M  V30 8838 H 833.234 0.429455 -3.20839 0
M  V30 8839 H 832.141 -1.88777 -3.22977 0
M  V30 8840 H 833.474 -2.4667 -4.25928 0
M  V30 8841 N 835.127 1.22348 -0.993418 0
M  V30 8842 C 836.037 2.27987 -0.553076 0
M  V30 8843 C 837.053 1.69378 0.398386 0
M  V30 8844 O 838.229 1.99648 0.26509 0
M  V30 8845 C 835.294 3.46475 0.124809 0
M  V30 8846 C 834.355 4.20399 -0.869682 0
M  V30 8847 C 833.588 5.33229 -0.224052 0
M  V30 8848 O 833.811 5.61885 0.981915 0
M  V30 8849 O 832.745 5.94685 -0.929174 0
M  V30 8850 H 836.571 2.67822 -1.43195 0
M  V30 8851 H 834.156 1.28525 -0.761694 0
M  V30 8852 H 836.038 4.18369 0.504496 0
M  V30 8853 H 834.713 3.08565 0.978243 0
M  V30 8854 H 833.62 3.50774 -1.30031 0
M  V30 8855 H 834.953 4.62191 -1.69233 0
M  V30 8856 N 836.605 0.766683 1.37694 0
M  V30 8857 C 838.016 0.394761 1.82479 0
M  V30 8858 C 838.367 -1.07842 1.63904 0
M  V30 8859 O 837.492 -1.83479 1.14737 0
M  V30 8860 C 838.087 0.70974 3.31283 0
M  V30 8861 C 836.646 0.390936 3.74364 0
M  V30 8862 C 835.793 0.956192 2.60293 0
M  V30 8863 H 838.744 0.961756 1.26238 0
M  V30 8864 H 838.765 -0.00742144 3.80499 0
M  V30 8865 H 838.277 1.782 3.4477 0
M  V30 8866 H 836.378 -0.674213 3.66449 0
M  V30 8867 H 836.491 0.895645 4.70654 0
M  V30 8868 H 834.855 0.380744 2.51838 0
M  V30 8869 H 835.638 2.03375 2.76575 0
M  V30 8870 N 838.083 -1.48885 0.516809 0
M  V30 8871 C 839.332 -2.01686 -0.0239899 0
M  V30 8872 C 839.645 -1.40029 -1.3657 0
M  V30 8873 O 840.851 -1.84249 -1.9941 0
M  V30 8874 C 839.307 -3.59779 -0.0931825 0
M  V30 8875 C 838.915 -4.30416 1.24283 0
M  V30 8876 C 840.659 -4.20471 -0.583507 0
M  V30 8877 C 838.566 -5.80408 1.13494 0
M  V30 8878 H 837.496 -0.753892 -0.0127376 0
M  V30 8879 H 840.147 -1.71273 0.65861 0
M  V30 8880 H 838.529 -3.86976 -0.840577 0
M  V30 8881 H 839.703 -4.14905 2.00476 0
M  V30 8882 H 838.018 -3.81539 1.66785 0
M  V30 8883 H 840.615 -5.30333 -0.681987 0
M  V30 8884 H 840.958 -3.84898 -1.58617 0
M  V30 8885 H 841.491 -3.97654 0.107814 0
M  V30 8886 H 838.23 -6.20532 2.11235 0
M  V30 8887 H 837.75 -5.98368 0.414167 0
M  V30 8888 H 839.429 -6.41781 0.820162 0
M  V30 8889 N 839.561 -0.251338 -1.55583 0
M  V30 8890 C 840.789 0.376187 -2.03451 0
M  V30 8891 C 841.204 1.51215 -1.13047 0
M  V30 8892 O 840.561 1.81917 -0.145769 0
M  V30 8893 C 840.612 0.879779 -3.50631 0
M  V30 8894 O 840.333 -0.210917 -4.37592 0
M  V30 8895 C 841.834 1.57754 -4.14281 0
M  V30 8896 H 839.054 0.0888722 -0.665089 0
M  V30 8897 H 841.598 -0.376497 -2.01004 0
M  V30 8898 H 839.753 1.58263 -3.53598 0
M  V30 8899 H 840.167 0.172203 -5.24217 0
M  V30 8900 H 841.641 1.88158 -5.18942 0
M  V30 8901 H 842.118 2.50103 -3.61034 0
M  V30 8902 H 842.724 0.919154 -4.15249 0
M  V30 8903 N 841.039 1.57585 0.0217189 0
M  V30 8904 C 842.45 1.7787 0.567377 0
M  V30 8905 C 842.801 0.883337 1.7519 0
M  V30 8906 O 841.926 0.0800819 2.16252 0
M  V30 8907 C 842.521 3.2257 1.03606 0
M  V30 8908 C 841.08 3.44026 1.52718 0
M  V30 8909 C 840.227 2.73313 0.468545 0
M  V30 8910 H 843.178 1.57377 -0.2045 0
M  V30 8911 H 843.199 3.29488 1.9031 0
M  V30 8912 H 842.711 3.87711 0.173739 0
M  V30 8913 H 840.812 2.8407 2.41111 0
M  V30 8914 H 840.925 4.52659 1.56962 0
M  V30 8915 H 839.289 2.37299 0.925263 0
M  V30 8916 H 840.072 3.41141 -0.384438 0
M  V30 8917 N 842.517 -0.29412 1.54831 0
M  V30 8918 C 843.467 -1.36476 1.82643 0
M  V30 8919 C 844.451 -1.45638 0.683984 0
M  V30 8920 O 845.643 -1.49675 0.944801 0
M  V30 8921 C 842.772 -2.72865 2.08326 0
M  V30 8922 C 841.858 -2.67898 3.28773 0
M  V30 8923 N 842.249 -2.32547 4.49172 0
M  V30 8924 C 840.547 -2.98991 3.30939 0
M  V30 8925 C 841.248 -2.37048 5.31209 0
M  V30 8926 N 840.224 -2.74679 4.69097 0
M  V30 8927 H 844.026 -1.08119 2.7329 0
M  V30 8928 H 841.54 -0.502718 1.54423 0
M  V30 8929 H 843.537 -3.5007 2.264 0
M  V30 8930 H 842.197 -3.02127 1.1895 0
M  V30 8931 H 843.208 -2.04883 4.7565 0
M  V30 8932 H 839.885 -3.33104 2.51691 0
M  V30 8933 H 841.275 -2.12457 6.37426 0
M  V30 8934 N 843.995 -1.47404 -0.557645 0
M  V30 8935 C 845.22 -1.57868 -1.34508 0
M  V30 8936 C 845.645 -0.229151 -1.86699 0
M  V30 8937 O 845.003 0.794908 -1.62944 0
M  V30 8938 C 845.051 -2.60712 -2.49122 0
M  V30 8939 O 844.155 -2.15952 -3.51338 0
M  V30 8940 H 843.496 -0.530335 -0.399551 0
M  V30 8941 H 846.026 -1.93181 -0.673954 0
M  V30 8942 H 846.036 -2.81118 -2.95697 0
M  V30 8943 H 844.711 -3.58701 -2.10491 0
M  V30 8944 H 843.288 -2.05644 -3.11071 0
M  V30 8945 N 845.473 0.80434 -1.35529 0
M  V30 8946 C 846.42 1.91629 -1.28635 0
M  V30 8947 C 847.39 1.65348 -0.157862 0
M  V30 8948 O 848.575 1.87711 -0.341934 0
M  V30 8949 C 845.715 3.28207 -1.0665 0
M  V30 8950 C 844.828 3.66659 -2.28441 0
M  V30 8951 C 843.963 4.92279 -1.99588 0
M  V30 8952 C 843.002 5.23365 -3.1742 0
M  V30 8953 N 842.139 6.40165 -2.88328 0
M  V30 8954 H 846.979 1.96858 -2.23721 0
M  V30 8955 H 844.516 0.962871 -1.11208 0
M  V30 8956 H 846.474 4.06945 -0.919343 0
M  V30 8957 H 845.104 3.22441 -0.152253 0
M  V30 8958 H 844.156 2.83164 -2.54013 0
M  V30 8959 H 845.468 3.8559 -3.1642 0
M  V30 8960 H 844.622 5.78847 -1.81715 0
M  V30 8961 H 843.361 4.75387 -1.08896 0
M  V30 8962 H 842.366 4.35285 -3.35867 0
M  V30 8963 H 843.591 5.42185 -4.08916 0
M  V30 8964 H 841.537 6.24694 -2.00233 0
M  V30 8965 H 841.454 6.59357 -3.69843 0
M  V30 8966 H 842.722 7.29755 -2.74002 0
M  V30 8967 N 846.951 1.19563 1.02676 0
M  V30 8968 C 848.362 1.00158 1.57561 0
M  V30 8969 C 848.713 -0.444922 1.91089 0
M  V30 8970 O 847.838 -1.32466 1.71119 0
M  V30 8971 C 848.433 1.81181 2.86284 0
M  V30 8972 C 846.992 1.66171 3.37734 0
M  V30 8973 C 846.139 1.7975 2.11152 0
M  V30 8974 H 849.09 1.33904 0.85179 0
M  V30 8975 H 849.111 1.30916 3.57269 0
M  V30 8976 H 848.623 2.86454 2.6185 0
M  V30 8977 H 846.724 0.634927 3.6715 0
M  V30 8978 H 846.837 2.46832 4.10622 0
M  V30 8979 H 845.201 1.22833 2.23123 0
M  V30 8980 H 845.984 2.86487 1.89157 0
M  V30 8981 N 848.429 -1.21819 0.999893 0
M  V30 8982 C 849.678 -1.90066 0.675108 0
M  V30 8983 C 849.991 -1.78624 -0.79705 0
M  V30 8984 O 851.197 -2.41851 -1.23371 0
M  V30 8985 C 849.653 -3.40795 1.15702 0
M  V30 8986 C 849.261 -3.60859 2.6549 0
M  V30 8987 C 851.005 -4.147 0.906889 0
M  V30 8988 C 848.912 -5.05324 3.07248 0
M  V30 8989 H 847.842 -0.711763 0.248815 0
M  V30 8990 H 850.493 -1.3792 1.21038 0
M  V30 8991 H 848.875 -3.92164 0.549832 0
M  V30 8992 H 850.049 -3.19951 3.31614 0
M  V30 8993 H 848.364 -3.00298 2.88461 0
M  V30 8994 H 850.961 -5.21187 1.1945 0
M  V30 8995 H 851.304 -4.16004 -0.156923 0
M  V30 8996 H 851.837 -3.69379 1.47662 0
M  V30 8997 H 848.576 -5.09164 4.12834 0
M  V30 8998 H 848.096 -5.47108 2.45832 0
M  V30 8999 H 849.775 -5.73797 2.98941 0
M  V30 9000 N 849.908 -0.773975 -1.37286 0
M  V30 9001 C 850.838 -0.175782 -2.32837 0
M  V30 9002 C 851.819 0.680603 -1.5589 0
M  V30 9003 O 853.004 0.617607 -1.84117 0
M  V30 9004 C 850.134 0.702388 -3.40123 0
M  V30 9005 C 849.088 -0.0528687 -4.27967 0
M  V30 9006 C 848.414 0.944891 -5.26285 0
M  V30 9007 C 849.714 -1.23316 -5.07534 0
M  V30 9008 H 851.408 -0.974016 -2.83114 0
M  V30 9009 H 848.954 -0.469826 -1.3612 0
M  V30 9010 H 850.907 1.13069 -4.05947 0
M  V30 9011 H 849.631 1.53316 -2.88378 0
M  V30 9012 H 848.29 -0.461978 -3.63678 0
M  V30 9013 H 847.938 1.77028 -4.70819 0
M  V30 9014 H 847.638 0.444079 -5.8592 0
M  V30 9015 H 849.162 1.37209 -5.94984 0
M  V30 9016 H 850.576 -0.881395 -5.66484 0
M  V30 9017 H 848.973 -1.66621 -5.76504 0
M  V30 9018 H 850.043 -2.03617 -4.40077 0
M  V30 9019 N 851.386 1.48609 -0.524698 0
M  V30 9020 C 852.632 2.02797 0.0113382 0
M  V30 9021 C 852.965 1.40147 1.34433 0
M  V30 9022 O 852.24 0.545368 1.86698 0
M  V30 9023 C 852.523 3.59832 0.138931 0
M  V30 9024 C 852.376 4.32971 -1.21886 0
M  V30 9025 C 853.695 4.3145 0.868265 0
M  V30 9026 H 850.814 0.736995 0.00264645 0
M  V30 9027 H 853.456 1.77388 -0.680704 0
M  V30 9028 H 851.606 3.81612 0.72834 0
M  V30 9029 H 853.278 4.22624 -1.84897 0
M  V30 9030 H 851.521 3.94597 -1.80211 0
M  V30 9031 H 852.192 5.41279 -1.08263 0
M  V30 9032 H 854.668 4.14468 0.368145 0
M  V30 9033 H 853.544 5.41025 0.926428 0
M  V30 9034 H 853.805 3.98358 1.91737 0
M  V30 9035 N 852.864 0.259585 1.55447 0
M  V30 9036 C 854.28 -0.094961 1.59317 0
M  V30 9037 C 854.48 -1.55884 1.2768 0
M  V30 9038 O 853.536 -2.30528 1.0302 0
M  V30 9039 C 854.849 0.265669 2.99524 0
M  V30 9040 C 856.397 0.211007 3.12288 0
M  V30 9041 C 856.872 0.545851 4.54736 0
M  V30 9042 N 858.363 0.496823 4.60528 0
M  V30 9043 C 859.098 0.728909 5.68748 0
M  V30 9044 N 858.594 1.02479 6.85179 0
M  V30 9045 N 860.387 0.658756 5.58226 0
M  V30 9046 H 852.538 1.2141 1.7428 0
M  V30 9047 H 854.801 0.489404 0.811904 0
M  V30 9048 H 854.507 1.28316 3.27457 0
M  V30 9049 H 854.381 -0.401089 3.75061 0
M  V30 9050 H 856.768 -0.797172 2.84129 0
M  V30 9051 H 856.849 0.911799 2.38998 0
M  V30 9052 H 856.493 1.55164 4.83618 0
M  V30 9053 H 856.423 -0.17656 5.26304 0
M  V30 9054 H 858.914 0.277376 3.76881 0
M  V30 9055 H 859.227 1.18897 7.63599 0
M  V30 9056 H 857.572 1.0624 6.86832 0
M  V30 9057 H 860.763 0.427553 4.66143 0
M  V30 9058 H 860.936 0.84302 6.42493 0
M  V30 9059 N 854.342 -1.57594 -0.0133615 0
M  V30 9060 C 855.305 -2.06534 -0.993799 0
M  V30 9061 C 856.305 -0.972267 -1.28077 0
M  V30 9062 O 857.495 -1.23537 -1.22818 0
M  V30 9063 C 854.627 -2.49554 -2.3224 0
M  V30 9064 H 855.82 -2.94419 -0.570741 0
M  V30 9065 H 853.373 -1.54113 -0.260546 0
M  V30 9066 H 854.108 -1.64872 -2.79263 0
M  V30 9067 H 853.893 -3.29371 -2.12737 0
M  V30 9068 H 855.383 -2.8779 -3.026 0
M  V30 9069 N 855.82 0.285905 -1.54985 0
M  V30 9070 C 857.066 1.02071 -1.75241 0
M  V30 9071 C 857.399 1.864 -0.544842 0
M  V30 9072 O 856.674 1.89034 0.457844 0
M  V30 9073 C 856.957 1.91409 -3.05016 0
M  V30 9074 C 856.81 1.10158 -4.36102 0
M  V30 9075 C 858.129 2.90335 -3.30747 0
M  V30 9076 H 855.248 0.369663 -0.637588 0
M  V30 9077 H 857.89 0.294114 -1.8771 0
M  V30 9078 H 856.04 2.53362 -2.94517 0
M  V30 9079 H 857.712 0.503756 -4.58541 0
M  V30 9080 H 855.955 0.404675 -4.31908 0
M  V30 9081 H 856.626 1.75956 -5.23205 0
M  V30 9082 H 859.102 2.38514 -3.40955 0
M  V30 9083 H 857.978 3.49997 -4.2284 0
M  V30 9084 H 858.239 3.64787 -2.49765 0
M  V30 9085 N 857.298 1.47698 0.54982 0
M  V30 9086 C 858.544 1.54931 1.30859 0
M  V30 9087 C 858.877 0.214021 1.93017 0
M  V30 9088 O 858.152 -0.778093 1.78258 0
M  V30 9089 C 858.435 2.67286 2.41309 0
M  V30 9090 C 858.288 4.10457 1.83971 0
M  V30 9091 C 859.607 2.75509 3.43195 0
M  V30 9092 H 856.726 0.56399 0.474431 0
M  V30 9093 H 859.368 1.79787 0.614541 0
M  V30 9094 H 857.518 2.46224 3.0051 0
M  V30 9095 H 859.19 4.42903 1.28974 0
M  V30 9096 H 857.433 4.18387 1.14606 0
M  V30 9097 H 858.104 4.84857 2.63851 0
M  V30 9098 H 860.58 2.94531 2.93923 0
M  V30 9099 H 859.456 3.55886 4.17895 0
M  V30 9100 H 859.717 1.82863 4.02509 0
M  V30 9101 N 858.776 -0.797141 1.35954 0
M  V30 9102 C 859.709 -1.91567 1.24005 0
M  V30 9103 C 860.687 -1.62112 0.125868 0
M  V30 9104 O 861.871 -1.86167 0.295638 0
M  V30 9105 C 858.998 -3.26204 0.911535 0
M  V30 9106 C 858.044 -3.74598 2.03909 0
M  V30 9107 S 858.877 -3.91276 3.656 0
M  V30 9108 C 860.033 -5.288 3.34846 0
M  V30 9109 H 860.266 -2.0141 2.18681 0
M  V30 9110 H 857.799 -0.955542 1.2128 0
M  V30 9111 H 859.757 -4.03979 0.728805 0
M  V30 9112 H 858.418 -3.14095 -0.0173159 0
M  V30 9113 H 857.611 -4.72137 1.7636 0
M  V30 9114 H 857.213 -3.03849 2.18064 0
M  V30 9115 H 859.505 -6.13117 2.8826 0
M  V30 9116 H 860.448 -5.61347 4.31619 0
M  V30 9117 H 860.856 -4.95534 2.70382 0
M  V30 9118 N 860.254 -1.20106 -1.0204 0
M  V30 9119 C 861.482 -1.0344 -1.79186 0
M  V30 9120 C 861.897 0.416542 -1.84148 0
M  V30 9121 O 861.254 1.28925 -1.29168 0
M  V30 9122 C 861.305 -1.60663 -3.23836 0
M  V30 9123 O 861.026 -3.00079 -3.19193 0
M  V30 9124 C 862.527 -1.48897 -4.17546 0
M  V30 9125 H 859.747 -0.364093 -0.563629 0
M  V30 9126 H 862.291 -1.5911 -1.28469 0
M  V30 9127 H 860.446 -1.09122 -3.71714 0
M  V30 9128 H 860.86 -3.27162 -4.09958 0
M  V30 9129 H 862.334 -1.93703 -5.16898 0
M  V30 9130 H 862.811 -0.440843 -4.36982 0
M  V30 9131 H 863.417 -1.9961 -3.75547 0
M  V30 9132 N 861.732 1.21287 -1.00634 0
M  V30 9133 C 863.143 1.72136 -0.722914 0
M  V30 9134 C 863.494 1.8091 0.759338 0
M  V30 9135 O 862.619 1.46458 1.59308 0
M  V30 9136 C 863.214 3.12633 -1.30561 0
M  V30 9137 C 861.773 3.60833 -1.07127 0
M  V30 9138 C 860.92 2.38326 -1.4176 0
M  V30 9139 H 863.871 1.06445 -1.17708 0
M  V30 9140 H 863.892 3.74174 -0.690937 0
M  V30 9141 H 863.404 3.06215 -2.38441 0
M  V30 9142 H 861.505 3.72599 -0.00968671 0
M  V30 9143 H 861.618 4.46226 -1.74411 0
M  V30 9144 H 859.982 2.40575 -0.836412 0
M  V30 9145 H 860.765 2.34558 -2.50674 0
M  V30 9146 N 863.21 0.781244 1.36873 0
M  V30 9147 C 864.456 0.350407 1.9975 0
M  V30 9148 C 864.789 -1.07293 1.6187 0
M  V30 9149 O 864.064 -1.73983 0.869491 0
M  V30 9150 C 864.347 0.504834 3.56544 0
M  V30 9151 C 864.2 1.97127 4.04303 0
M  V30 9152 C 865.519 -0.0851272 4.40018 0
M  V30 9153 H 862.638 0.128794 0.725659 0
M  V30 9154 H 865.28 0.98606 1.6241 0
M  V30 9155 H 863.43 -0.0363006 3.88483 0
M  V30 9156 H 865.102 2.57284 3.82887 0
M  V30 9157 H 863.345 2.47676 3.56145 0
M  V30 9158 H 864.016 2.03033 5.13305 0
M  V30 9159 H 866.492 0.376704 4.14391 0
M  V30 9160 H 865.368 0.0530015 5.48874 0
M  V30 9161 H 865.629 -1.17642 4.2616 0
M  V30 9162 N 864.689 -1.48329 0.532571 0
M  V30 9163 C 866.1 -1.86469 0.0927749 0
M  V30 9164 C 866.451 -1.44186 -1.3306 0
M  V30 9165 O 865.576 -0.833741 -1.99694 0
M  V30 9166 C 866.171 -3.38414 0.161588 0
M  V30 9167 C 864.73 -3.75739 -0.223028 0
M  V30 9168 C 863.877 -2.72377 0.520199 0
M  V30 9169 H 866.828 -1.40197 0.743678 0
M  V30 9170 H 866.849 -3.75314 -0.626059 0
M  V30 9171 H 866.361 -3.69159 1.19765 0
M  V30 9172 H 864.462 -3.50608 -1.26113 0
M  V30 9173 H 864.575 -4.78954 0.118385 0
M  V30 9174 H 862.939 -2.54678 -0.0338425 0
M  V30 9175 H 863.722 -3.05965 1.55694 0
M  V30 9176 N 866.167 -0.267825 -1.55308 0
M  V30 9177 C 867.097 0.616585 -2.25212 0
M  V30 9178 C 868.078 1.16472 -1.23969 0
M  V30 9179 O 869.263 1.20021 -1.52672 0
M  V30 9180 C 866.393 1.80412 -2.96764 0
M  V30 9181 C 865.347 1.38784 -4.04874 0
M  V30 9182 C 864.673 2.65789 -4.63961 0
M  V30 9183 C 865.973 0.543415 -5.19465 0
M  V30 9184 H 867.667 0.0336257 -2.99381 0
M  V30 9185 H 865.213 0.0147328 -1.43992 0
M  V30 9186 H 867.166 2.42866 -3.44375 0
M  V30 9187 H 865.89 2.4128 -2.20118 0
M  V30 9188 H 864.549 0.786541 -3.58063 0
M  V30 9189 H 864.197 3.24899 -3.83992 0
M  V30 9190 H 863.897 2.38651 -5.36954 0
M  V30 9191 H 865.421 3.29104 -5.14318 0
M  V30 9192 H 866.835 1.07277 -5.63174 0
M  V30 9193 H 865.232 0.367219 -5.98975 0
M  V30 9194 H 866.302 -0.439534 -4.82904 0
M  V30 9195 N 867.645 1.57599 0.00500368 0
M  V30 9196 C 868.892 1.90349 0.690895 0
M  V30 9197 C 869.22 0.868045 1.74055 0
M  V30 9198 O 868.475 -0.127855 1.95282 0
M  V30 9199 C 868.774 3.29855 1.37588 0
M  V30 9200 C 868.44 4.48548 0.459906 0
M  V30 9201 C 867.102 4.80752 0.207693 0
M  V30 9202 C 869.454 5.20919 -0.171054 0
M  V30 9203 C 866.782 5.82701 -0.683855 0
M  V30 9204 C 869.134 6.23818 -1.05045 0
M  V30 9205 C 867.798 6.54481 -1.31189 0
M  V30 9206 H 867.068 0.696538 0.252816 0
M  V30 9207 H 869.715 1.91436 -0.0494495 0
M  V30 9208 H 868.02 3.24869 2.19015 0
M  V30 9209 H 869.717 3.52452 1.91255 0
M  V30 9210 H 866.307 4.23384 0.666648 0
M  V30 9211 H 870.491 4.96299 0.0107942 0
M  V30 9212 H 865.747 6.04822 -0.894467 0
M  V30 9213 H 869.921 6.79029 -1.54574 0
M  V30 9214 H 867.548 7.33299 -2.00442 0
M  V30 9215 N 869.123 -0.277682 1.55134 0
M  V30 9216 C 870.348 -1.03254 1.7987 0
M  V30 9217 C 870.773 -1.79324 0.567861 0
M  V30 9218 O 870.131 -1.74764 -0.4824 0
M  V30 9219 C 870.179 -1.9705 3.02 0
M  V30 9220 O 869.283 -3.05744 2.76757 0
M  V30 9221 H 868.624 -0.295447 0.594649 0
M  V30 9222 H 871.154 -0.308013 2.02268 0
M  V30 9223 H 871.164 -2.3909 3.30606 0
M  V30 9224 H 869.839 -1.41094 3.91236 0
M  V30 9225 H 868.416 -2.68052 2.59235 0
M  V30 9226 N 870.601 -1.47988 -0.541979 0
M  V30 9227 C 871.548 -1.61615 -1.6477 0
M  V30 9228 C 872.518 -0.458602 -1.59644 0
M  V30 9229 O 873.703 -0.680585 -1.78249 0
M  V30 9230 C 870.843 -1.65066 -3.03063 0
M  V30 9231 C 869.956 -2.91845 -3.18513 0
M  V30 9232 C 869.091 -2.86534 -4.47294 0
M  V30 9233 C 868.13 -4.0807 -4.5623 0
M  V30 9234 N 867.267 -4.00905 -5.76385 0
M  V30 9235 H 872.107 -2.56046 -1.52461 0
M  V30 9236 H 869.644 -1.26989 -0.742449 0
M  V30 9237 H 871.602 -1.65049 -3.83164 0
M  V30 9238 H 870.232 -0.74136 -3.14171 0
M  V30 9239 H 869.284 -3.01661 -2.31743 0
M  V30 9240 H 870.596 -3.81804 -3.20978 0
M  V30 9241 H 869.75 -2.84851 -5.35672 0
M  V30 9242 H 868.489 -1.94283 -4.47332 0
M  V30 9243 H 867.494 -4.10041 -3.66261 0
M  V30 9244 H 868.719 -5.01465 -4.5794 0
M  V30 9245 H 866.665 -3.11467 -5.77342 0
M  V30 9246 H 866.582 -4.84557 -5.80293 0
M  V30 9247 H 867.85 -4.03263 -6.67083 0
M  V30 9248 N 872.079 0.78992 -1.36375 0
M  V30 9249 C 873.011 1.91113 -1.26524 0
M  V30 9250 C 874.024 1.61747 -0.184851 0
M  V30 9251 O 875.213 1.73004 -0.439524 0
M  V30 9252 C 872.313 3.25908 -0.92937 0
M  V30 9253 C 871.486 3.83057 -2.11154 0
M  V30 9254 C 870.545 4.96289 -1.74881 0
M  V30 9255 O 869.571 5.12834 -2.46962 0
M  V30 9256 N 870.773 5.76478 -0.682193 0
M  V30 9257 H 873.538 2.00085 -2.23128 0
M  V30 9258 H 871.099 0.968165 -1.29762 0
M  V30 9259 H 873.091 3.99151 -0.667884 0
M  V30 9260 H 871.661 3.12556 -0.0524843 0
M  V30 9261 H 870.881 3.01808 -2.53586 0
M  V30 9262 H 872.169 4.1797 -2.90135 0
M  V30 9263 H 871.567 5.65638 -0.0836661 0
M  V30 9264 H 870.124 6.50026 -0.480529 0
M  V30 9265 N 873.557 1.20646 1.01402 0
M  V30 9266 C 874.973 0.961866 1.27359 0
M  V30 9267 C 875.173 -0.357083 1.98311 0
M  V30 9268 O 874.229 -1.08498 2.28001 0
M  V30 9269 C 875.542 2.14627 2.10609 0
M  V30 9270 C 877.09 2.18753 2.23866 0
M  V30 9271 C 877.565 3.36686 3.10494 0
M  V30 9272 N 879.056 3.36716 3.18083 0
M  V30 9273 C 879.791 4.24615 3.85343 0
M  V30 9274 N 879.287 5.22697 4.54708 0
M  V30 9275 N 881.08 4.12449 3.81893 0
M  V30 9276 H 873.231 2.05481 0.537721 0
M  V30 9277 H 875.494 0.899292 0.299963 0
M  V30 9278 H 875.2 3.10159 1.65814 0
M  V30 9279 H 875.074 2.12935 3.11349 0
M  V30 9280 H 877.461 1.23782 2.67885 0
M  V30 9281 H 877.542 2.24492 1.22626 0
M  V30 9282 H 877.186 4.31945 2.67181 0
M  V30 9283 H 877.116 3.28185 4.11828 0
M  V30 9284 H 879.607 2.65728 2.68695 0
M  V30 9285 H 879.92 5.86087 5.03708 0
M  V30 9286 H 878.265 5.26631 4.53525 0
M  V30 9287 H 881.456 3.35091 3.26851 0
M  V30 9288 H 881.629 4.81162 4.34035 0
M  V30 9289 N 875.035 -1.20752 1.01276 0
M  V30 9290 C 876.26 -1.94547 0.718769 0
M  V30 9291 C 876.685 -1.7404 -0.713563 0
M  V30 9292 O 876.043 -1.03221 -1.49047 0
M  V30 9293 C 876.091 -3.44823 1.05497 0
M  V30 9294 O 875.195 -4.12072 0.164516 0
M  V30 9295 H 874.536 -0.607931 0.267051 0
M  V30 9296 H 877.066 -1.53292 1.35509 0
M  V30 9297 H 877.076 -3.95427 1.00507 0
M  V30 9298 H 875.751 -3.59072 2.09858 0
M  V30 9299 H 874.328 -3.71909 0.271615 0
M  V30 9300 N 876.513 -0.788492 -1.36457 0
M  V30 9301 C 877.761 -0.359749 -1.98872 0
M  V30 9302 C 878.082 1.07197 -1.62892 0
M  V30 9303 O 877.352 1.73875 -0.902463 0
M  V30 9304 H 875.932 -0.130029 -0.735596 0
M  V30 9305 H 878.594 -1.01033 -1.66668 0
M  V30 9306 H 877.69 -0.450835 -3.08827 0
M  V30 9307 N 877.991 1.48044 -0.54043 0
M  V30 9308 C 879.231 2.04396 -0.012296 0
M  V30 9309 C 879.595 1.40748 1.30591 0
M  V30 9310 O 880.796 1.88048 1.92072 0
M  V30 9311 C 879.067 3.5727 0.0964302 0
M  V30 9312 S 880.626 4.35041 0.573117 0
M  V30 9313 H 877.444 0.710795 -0.0170735 0
M  V30 9314 H 880.046 1.81625 -0.723362 0
M  V30 9315 H 878.75 4.01124 -0.86762 0
M  V30 9316 H 878.281 3.84511 0.83156 0
M  V30 9317 H 880.296 4.6099 1.83583 0
M  V30 9318 N 879.47 0.276058 1.55163 0
M  V30 9319 C 880.886 -0.0780579 1.59409 0
M  V30 9320 C 881.086 -1.54521 1.29327 0
M  V30 9321 O 880.142 -2.29422 1.05459 0
M  V30 9322 C 881.455 0.297422 2.99225 0
M  V30 9323 C 883.003 0.244117 3.12047 0
M  V30 9324 C 883.478 0.594051 4.54131 0
M  V30 9325 N 884.969 0.54564 4.59975 0
M  V30 9326 C 885.704 0.789192 5.67943 0
M  V30 9327 N 885.2 1.09741 6.84053 0
M  V30 9328 N 886.993 0.717926 5.57496 0
M  V30 9329 H 879.144 1.23251 1.72982 0
M  V30 9330 H 881.407 0.497988 0.806667 0
M  V30 9331 H 881.113 1.31782 3.26077 0
M  V30 9332 H 880.987 -0.361286 3.75466 0
M  V30 9333 H 883.374 -0.766992 2.84958 0
M  V30 9334 H 883.455 0.937097 2.38017 0
M  V30 9335 H 883.099 1.60285 4.81945 0
M  V30 9336 H 883.029 -0.120728 5.26462 0
M  V30 9337 H 885.52 0.317334 3.76565 0
M  V30 9338 H 885.833 1.26989 7.62295 0
M  V30 9339 H 884.178 1.13519 6.85666 0
M  V30 9340 H 887.369 0.47697 4.65664 0
M  V30 9341 H 887.542 0.911118 6.41563 0
M  V30 9342 N 880.948 -1.576 0.00335426 0
M  V30 9343 C 882.359 -1.7875 -0.539008 0
M  V30 9344 C 882.71 -0.911097 -1.73763 0
M  V30 9345 O 881.835 -0.114476 -2.16097 0
M  V30 9346 C 882.43 -3.24177 -0.984611 0
M  V30 9347 C 880.989 -3.46412 -1.47226 0
M  V30 9348 C 880.136 -2.74024 -0.425004 0
M  V30 9349 H 883.087 -1.57032 0.229511 0
M  V30 9350 H 883.108 -3.32474 -1.85044 0
M  V30 9351 H 882.62 -3.87938 -0.112035 0
M  V30 9352 H 880.721 -2.8787 -2.36562 0
M  V30 9353 H 880.834 -4.55098 -1.49741 0
M  V30 9354 H 879.198 -2.38741 -0.887394 0
M  V30 9355 H 879.981 -3.40486 0.438662 0
M  V30 9356 N 882.426 0.269451 -1.5528 0
M  V30 9357 C 883.673 1.00058 -1.76053 0
M  V30 9358 C 884.001 1.86156 -0.563592 0
M  V30 9359 O 883.256 1.90366 0.453806 0
M  V30 9360 C 883.555 1.91 -3.02082 0
M  V30 9361 C 883.221 1.20623 -4.34466 0
M  V30 9362 C 881.883 1.01165 -4.70446 0
M  V30 9363 C 884.235 0.705695 -5.164 0
M  V30 9364 C 881.563 0.303865 -5.85913 0
M  V30 9365 C 883.915 0.0114838 -6.32599 0
M  V30 9366 C 882.579 -0.19478 -6.67216 0
M  V30 9367 H 881.849 0.366138 -0.644223 0
M  V30 9368 H 884.496 0.272563 -1.8955 0
M  V30 9369 H 882.801 2.70435 -2.835 0
M  V30 9370 H 884.498 2.47698 -3.15352 0
M  V30 9371 H 881.088 1.36781 -4.06188 0
M  V30 9372 H 885.272 0.84364 -4.89077 0
M  V30 9373 H 880.528 0.133368 -6.11255 0
M  V30 9374 H 884.702 -0.384111 -6.9534 0
M  V30 9375 H 882.329 -0.745201 -7.56539 0
M  V30 9376 N 883.904 1.48273 0.534124 0
M  V30 9377 C 885.144 1.57674 1.3007 0
M  V30 9378 C 885.508 0.243256 1.90453 0
M  V30 9379 O 886.709 0.212231 2.67961 0
M  V30 9380 C 884.98 2.68044 2.36405 0
M  V30 9381 S 886.539 2.97183 3.22843 0
M  V30 9382 H 883.357 0.55652 0.442501 0
M  V30 9383 H 885.959 1.85774 0.60896 0
M  V30 9384 H 884.663 3.63498 1.90518 0
M  V30 9385 H 884.194 2.41833 3.10291 0
M  V30 9386 H 886.209 2.36164 4.36396 0
M  V30 9387 N 885.382 -0.782676 1.36792 0
M  V30 9388 C 886.292 -1.92679 1.33835 0
M  V30 9389 C 887.308 -1.72344 0.23952 0
M  V30 9390 O 888.484 -1.95766 0.473045 0
M  V30 9391 C 885.549 -3.27644 1.1336 0
M  V30 9392 C 884.61 -3.6071 2.32781 0
M  V30 9393 C 883.843 -4.89234 2.13273 0
M  V30 9394 O 884.066 -5.59468 1.11136 0
M  V30 9395 O 883 -5.21112 3.01208 0
M  V30 9396 H 886.826 -1.98124 2.30175 0
M  V30 9397 H 884.411 -0.923887 1.17408 0
M  V30 9398 H 886.293 -4.08394 1.03886 0
M  V30 9399 H 884.968 -3.23076 0.200868 0
M  V30 9400 H 883.875 -2.80238 2.47825 0
M  V30 9401 H 885.208 -3.70008 3.24584 0
M  V30 9402 N 886.86 -1.21182 -1.00761 0
M  V30 9403 C 888.106 -1.02898 -1.74756 0
M  V30 9404 C 888.439 0.436774 -1.89225 0
M  V30 9405 O 887.714 1.32415 -1.42466 0
M  V30 9406 C 887.997 -1.72372 -3.16164 0
M  V30 9407 C 887.85 -3.2645 -3.09435 0
M  V30 9408 C 889.169 -1.46415 -4.15031 0
M  V30 9409 H 886.288 -0.375214 -0.634337 0
M  V30 9410 H 888.93 -1.49321 -1.17487 0
M  V30 9411 H 887.08 -1.32906 -3.65059 0
M  V30 9412 H 888.752 -3.75269 -2.68274 0
M  V30 9413 H 886.995 -3.56889 -2.46603 0
M  V30 9414 H 887.666 -3.70226 -4.09435 0
M  V30 9415 H 890.142 -1.80671 -3.7483 0
M  V30 9416 H 889.018 -1.97544 -5.12121 0
M  V30 9417 H 889.279 -0.39361 -4.40344 0
M  V30 9418 N 888.338 1.20213 -1.01915 0
M  V30 9419 C 889.568 1.93341 -0.728197 0
M  V30 9420 C 889.976 1.75151 0.715454 0
M  V30 9421 O 889.319 1.06437 1.49722 0
M  V30 9422 C 889.381 3.45677 -0.9873 0
M  V30 9423 C 889.045 3.8763 -2.42057 0
M  V30 9424 C 890.042 3.93184 -3.40151 0
M  V30 9425 C 887.727 4.19547 -2.76199 0
M  V30 9426 C 889.721 4.30069 -4.70446 0
M  V30 9427 C 887.408 4.56106 -4.06707 0
M  V30 9428 C 888.406 4.6134 -5.03641 0
M  V30 9429 O 888.094 4.97059 -6.31813 0
M  V30 9430 H 887.826 0.621258 -0.266485 0
M  V30 9431 H 890.38 1.53577 -1.36393 0
M  V30 9432 H 888.61 3.85578 -0.294405 0
M  V30 9433 H 890.299 4.00035 -0.687536 0
M  V30 9434 H 891.065 3.68687 -3.15111 0
M  V30 9435 H 886.944 4.14663 -2.01434 0
M  V30 9436 H 890.488 4.34069 -5.46105 0
M  V30 9437 H 886.385 4.80059 -4.31525 0
M  V30 9438 H 887.153 5.15043 -6.36139 0
M  V30 9439 N 889.816 0.795718 1.36037 0
M  V30 9440 C 891.062 0.371574 1.99367 0
M  V30 9441 C 891.395 -1.0557 1.62999 0
M  V30 9442 O 890.67 -1.73051 0.887895 0
M  V30 9443 C 890.953 0.542622 3.55988 0
M  V30 9444 C 890.806 2.01404 4.0219 0
M  V30 9445 C 892.125 -0.0384527 4.40083 0
M  V30 9446 H 889.244 0.136483 0.724252 0
M  V30 9447 H 891.886 1.00323 1.61355 0
M  V30 9448 H 890.036 0.0049053 3.885 0
M  V30 9449 H 891.708 2.6133 3.80137 0
M  V30 9450 H 889.951 2.51439 3.53498 0
M  V30 9451 H 890.622 2.08466 5.11122 0
M  V30 9452 H 893.098 0.420634 4.13968 0
M  V30 9453 H 891.974 0.111214 5.48787 0
M  V30 9454 H 892.235 -1.13116 4.27384 0
M  V30 9455 N 891.294 -1.47756 0.548274 0
M  V30 9456 C 892.542 -2.02089 0.0208542 0
M  V30 9457 C 892.863 -1.42589 -1.33017 0
M  V30 9458 O 892.133 -0.597825 -1.86555 0
M  V30 9459 H 890.713 -0.746985 0.00472023 0
M  V30 9460 H 893.375 -1.81262 0.716257 0
M  V30 9461 H 892.471 -3.12012 -0.0739016 0
M  V30 9462 N 892.772 -0.284283 -1.55015 0
M  V30 9463 C 894.049 0.382125 -1.91831 0
M  V30 9464 C 894.429 1.73007 -1.20962 0
M  V30 9465 O 893.777 2.25962 -0.339594 0
M  V30 9466 C 893.987 0.513341 -3.45204 0
M  V30 9467 C 895.335 0.791989 -4.17148 0
M  V30 9468 O 896.359 0.597799 -3.51148 0
M  V30 9469 O 895.218 1.16394 -5.33961 0
M  V30 9470 H 892.312 0.210707 -0.799707 0
M  V30 9471 H 894.858 -0.331111 -1.66438 0
M  V30 9472 H 893.63 -0.434911 -3.88876 0
M  V30 9473 H 893.253 1.27569 -3.76579 0
M  V30 9474 N 894.251 1.57596 -0.0117121 0
M  V30 9475 C 895.161 2.12596 0.991964 0
M  V30 9476 C 896.177 1.07399 1.36899 0
M  V30 9477 O 897.353 1.39365 1.45394 0
M  V30 9478 C 894.418 2.62796 2.2614 0
M  V30 9479 C 893.479 3.8264 1.94642 0
M  V30 9480 C 892.712 4.30435 3.15533 0
M  V30 9481 O 892.935 3.77495 4.27614 0
M  V30 9482 O 891.869 5.22469 2.98847 0
M  V30 9483 H 895.695 2.98597 0.554371 0
M  V30 9484 H 893.28 1.47947 0.207839 0
M  V30 9485 H 895.162 2.9523 3.00695 0
M  V30 9486 H 893.837 1.79886 2.69114 0
M  V30 9487 H 892.744 3.5516 1.17526 0
M  V30 9488 H 894.077 4.66658 1.56496 0
M  V30 9489 N 895.729 -0.261212 1.5542 0
M  V30 9490 C 897.145 -0.609012 1.47524 0
M  V30 9491 C 897.345 -1.88986 0.699042 0
M  V30 9492 O 896.401 -2.51517 0.222628 0
M  V30 9493 C 897.714 -0.725025 2.91828 0
M  V30 9494 C 899.262 -0.818302 3.02114 0
M  V30 9495 C 899.737 -0.965996 4.47697 0
M  V30 9496 N 901.228 -1.03123 4.51575 0
M  V30 9497 C 901.963 -1.16451 5.6145 0
M  V30 9498 N 901.459 -1.26425 6.81167 0
M  V30 9499 N 903.252 -1.19655 5.49217 0
M  V30 9500 H 895.403 0.579807 2.04333 0
M  V30 9501 H 897.666 0.198072 0.927077 0
M  V30 9502 H 897.372 0.145871 3.51397 0
M  V30 9503 H 897.246 -1.60156 3.41511 0
M  V30 9504 H 899.633 -1.67966 2.42634 0
M  V30 9505 H 899.714 0.0830895 2.55665 0
M  V30 9506 H 899.358 -0.109251 5.07782 0
M  V30 9507 H 899.288 -1.88221 4.91813 0
M  V30 9508 H 901.779 -0.966072 3.65343 0
M  V30 9509 H 902.092 -1.36462 7.60656 0
M  V30 9510 H 900.437 -1.23408 6.83956 0
M  V30 9511 H 903.628 -1.11501 4.54626 0
M  V30 9512 H 903.801 -1.29698 6.34888 0
M  V30 9513 N 897.207 -1.48554 -0.526253 0
M  V30 9514 C 898.453 -1.56994 -1.28378 0
M  V30 9515 C 898.786 -0.244701 -1.92652 0
M  V30 9516 O 898.061 0.749636 -1.79473 0
M  V30 9517 C 898.344 -2.71092 -2.37026 0
M  V30 9518 C 898.197 -4.13331 -1.77418 0
M  V30 9519 C 899.516 -2.80934 -3.38769 0
M  V30 9520 H 896.635 -0.571466 -0.465398 0
M  V30 9521 H 899.277 -1.80742 -0.585861 0
M  V30 9522 H 897.427 -2.50973 -2.96555 0
M  V30 9523 H 899.099 -4.44899 -1.21912 0
M  V30 9524 H 897.342 -4.20158 -1.07936 0
M  V30 9525 H 898.013 -4.88994 -2.56104 0
M  V30 9526 H 900.489 -2.9917 -2.892 0
M  V30 9527 H 899.365 -3.62489 -4.12181 0
M  V30 9528 H 899.626 -1.89244 -3.99549 0
M  V30 9529 N 898.685 0.775411 -1.37205 0
M  V30 9530 C 899.648 1.8702 -1.325 0
M  V30 9531 C 900.648 1.5915 -0.229793 0
M  V30 9532 O 901.838 1.673 -0.485423 0
M  V30 9533 C 898.97 3.24085 -1.05745 0
M  V30 9534 H 900.163 1.92604 -2.29878 0
M  V30 9535 H 897.716 0.97476 -1.22181 0
M  V30 9536 H 898.451 3.24178 -0.0888371 0
M  V30 9537 H 898.236 3.45705 -1.85016 0
M  V30 9538 H 899.726 4.0416 -1.05094 0
M  V30 9539 N 900.163 1.21714 1.00117 0
M  V30 9540 C 901.388 1.06357 1.78054 0
M  V30 9541 C 901.813 -0.382075 1.84179 0
M  V30 9542 O 901.171 -1.27575 1.28819 0
M  V30 9543 C 901.219 1.66982 3.19608 0
M  V30 9544 O 900.323 0.917892 4.02055 0
M  V30 9545 H 899.664 0.374074 0.548602 0
M  V30 9546 H 902.194 1.61338 1.25822 0
M  V30 9547 H 902.204 1.71363 3.70268 0
M  V30 9548 H 900.879 2.72185 3.14465 0
M  V30 9549 H 899.456 0.949473 3.6061 0
M  V30 9550 N 901.641 -1.19671 1.02551 0
M  V30 9551 C 902.869 -1.93233 0.739513 0
M  V30 9552 C 903.284 -1.75298 -0.701158 0
M  V30 9553 O 902.641 -1.07269 -1.47647 0
M  V30 9554 C 902.692 -3.45085 1.07697 0
M  V30 9555 O 902.413 -3.62441 2.46106 0
M  V30 9556 C 903.914 -4.35776 0.813298 0
M  V30 9557 H 901.134 -0.613905 0.270853 0
M  V30 9558 H 903.678 -1.51909 1.36909 0
M  V30 9559 H 901.833 -3.84255 0.492635 0
M  V30 9560 H 902.247 -4.56337 2.58567 0
M  V30 9561 H 903.721 -5.40941 1.09941 0
M  V30 9562 H 904.198 -4.38474 -0.252359 0
M  V30 9563 H 904.804 -4.02282 1.38021 0
M  V30 9564 N 903.119 -0.802921 -1.35613 0
M  V30 9565 C 904.344 -0.392846 -2.03645 0
M  V30 9566 C 904.769 0.987075 -1.6012 0
M  V30 9567 O 904.127 1.63849 -0.776101 0
M  V30 9568 C 904.175 -0.480208 -3.57388 0
M  V30 9569 O 903.279 0.507751 -4.09262 0
M  V30 9570 H 902.62 -0.16464 -0.643265 0
M  V30 9571 H 905.15 -1.08779 -1.73287 0
M  V30 9572 H 905.16 -0.348683 -4.06507 0
M  V30 9573 H 903.835 -1.48675 -3.88418 0
M  V30 9574 H 902.412 0.336769 -3.71376 0
M  V30 9575 N 904.597 1.47463 -0.556102 0
M  V30 9576 C 905.529 2.28046 0.22968 0
M  V30 9577 C 906.542 1.3694 0.880409 0
M  V30 9578 O 907.731 1.61773 0.754447 0
M  V30 9579 C 904.831 3.11165 1.34273 0
M  V30 9580 C 904.004 4.30225 0.789004 0
M  V30 9581 C 903.063 4.94948 1.78641 0
M  V30 9582 O 902.089 5.53372 1.33297 0
M  V30 9583 N 903.291 4.89543 3.11974 0
M  V30 9584 H 906.056 2.96125 -0.461558 0
M  V30 9585 H 903.617 1.5708 -0.392105 0
M  V30 9586 H 905.609 3.51331 2.00869 0
M  V30 9587 H 904.179 2.45337 1.93722 0
M  V30 9588 H 903.399 3.94163 -0.0536971 0
M  V30 9589 H 904.687 5.07238 0.398378 0
M  V30 9590 H 904.085 4.43275 3.51459 0
M  V30 9591 H 902.642 5.33732 3.74131 0
M  V30 9592 N 906.075 0.2925 1.54862 0
M  V30 9593 C 906.985 -0.597036 2.26876 0
M  V30 9594 C 908.001 -1.15558 1.30086 0
M  V30 9595 O 909.177 -1.18217 1.63054 0
M  V30 9596 C 906.242 -1.75664 2.98903 0
M  V30 9597 C 905.303 -1.23303 4.11212 0
M  V30 9598 C 904.536 -2.33736 4.79795 0
M  V30 9599 O 904.759 -3.53459 4.47686 0
M  V30 9600 O 903.693 -2.00908 5.67379 0
M  V30 9601 H 907.519 -0.0131242 3.03697 0
M  V30 9602 H 905.104 0.0592642 1.49282 0
M  V30 9603 H 906.986 -2.43241 3.4411 0
M  V30 9604 H 905.661 -2.32731 2.24984 0
M  V30 9605 H 904.568 -0.523222 3.70423 0
M  V30 9606 H 905.901 -0.707887 4.87083 0
M  V30 9607 N 907.553 -1.57587 0.0200696 0
M  V30 9608 C 908.783 -1.95435 -0.669991 0
M  V30 9609 C 909.191 -0.894647 -1.66711 0
M  V30 9610 O 908.534 0.133009 -1.83218 0
M  V30 9611 C 908.596 -3.29379 -1.44047 0
M  V30 9612 C 908.26 -4.53008 -0.602691 0
M  V30 9613 C 909.257 -5.19766 0.118188 0
M  V30 9614 C 906.942 -4.99359 -0.542754 0
M  V30 9615 C 908.936 -6.31187 0.887774 0
M  V30 9616 C 906.623 -6.10665 0.230543 0
M  V30 9617 C 907.621 -6.76438 0.944522 0
M  V30 9618 O 907.309 -7.85608 1.70516 0
M  V30 9619 H 907.041 -0.648681 -0.190234 0
M  V30 9620 H 909.595 -2.05269 0.0733838 0
M  V30 9621 H 907.825 -3.1601 -2.22878 0
M  V30 9622 H 909.514 -3.52194 -2.01777 0
M  V30 9623 H 910.28 -4.84932 0.0811604 0
M  V30 9624 H 906.159 -4.47976 -1.08804 0
M  V30 9625 H 909.703 -6.82458 1.44558 0
M  V30 9626 H 905.6 -6.44938 0.26932 0
M  V30 9627 H 906.368 -8.02228 1.62398 0
M  V30 9628 N 909.032 0.252966 -1.55557 0
M  V30 9629 C 910.309 1.00432 -1.67847 0
M  V30 9630 C 910.689 2.03587 -0.55816 0
M  V30 9631 O 910.037 2.24239 0.439197 0
M  V30 9632 C 910.247 1.64313 -3.079 0
M  V30 9633 C 911.595 2.14726 -3.66303 0
M  V30 9634 O 912.619 1.74264 -3.10661 0
M  V30 9635 O 911.478 2.89 -4.63833 0
M  V30 9636 H 908.572 0.467102 -0.682455 0
M  V30 9637 H 911.118 0.247233 -1.67889 0
M  V30 9638 H 909.89 0.896681 -3.80888 0
M  V30 9639 H 909.513 2.46657 -3.11843 0
M  V30 9640 N 910.51 1.48831 0.518367 0
M  V30 9641 C 911.457 1.64216 1.62178 0
M  V30 9642 C 912.427 0.483942 1.58894 0
M  V30 9643 O 913.612 0.708857 1.77144 0
M  V30 9644 C 910.752 1.69867 3.00399 0
M  V30 9645 C 909.865 2.96875 3.1383 0
M  V30 9646 C 909 2.93613 4.42679 0
M  V30 9647 C 908.039 4.15276 4.4968 0
M  V30 9648 N 907.176 4.10024 5.69934 0
M  V30 9649 H 912.016 2.58439 1.48368 0
M  V30 9650 H 909.553 1.28154 0.722152 0
M  V30 9651 H 911.511 1.71124 3.8049 0
M  V30 9652 H 910.141 0.791249 3.12952 0
M  V30 9653 H 909.193 3.0531 2.26914 0
M  V30 9654 H 910.505 3.86863 3.14863 0
M  V30 9655 H 909.659 2.93337 5.31073 0
M  V30 9656 H 908.398 2.01375 4.44184 0
M  V30 9657 H 907.403 4.15816 3.59691 0
M  V30 9658 H 908.628 5.08687 4.49904 0
M  V30 9659 H 906.574 3.20613 5.72314 0
M  V30 9660 H 906.491 4.93728 5.72511 0
M  V30 9661 H 907.759 4.13824 6.60583 0
M  V30 9662 N 911.988 -0.768124 1.37614 0
M  V30 9663 C 912.921 -1.88894 1.2804 0
M  V30 9664 C 913.899 -1.61809 0.160226 0
M  V30 9665 O 915.083 -1.85498 0.33506 0
M  V30 9666 C 912.21 -3.24197 0.980523 0
M  V30 9667 C 911.256 -3.70188 2.11808 0
M  V30 9668 S 912.089 -3.83433 3.73817 0
M  V30 9669 C 913.245 -5.21578 3.45987 0
M  V30 9670 H 913.478 -1.96726 2.22904 0
M  V30 9671 H 911.011 -0.929602 1.23279 0
M  V30 9672 H 912.969 -4.02342 0.814331 0
M  V30 9673 H 911.63 -3.14061 0.0493122 0
M  V30 9674 H 910.823 -4.6829 1.86335 0
M  V30 9675 H 910.425 -2.99155 2.2446 0
M  V30 9676 H 912.717 -6.06865 3.012 0
M  V30 9677 H 913.66 -5.52065 4.43429 0
M  V30 9678 H 914.068 -4.89687 2.80832 0
M  V30 9679 N 913.466 -1.22244 -0.994698 0
M  V30 9680 C 914.882 -0.982006 -1.25813 0
M  V30 9681 C 915.082 0.325488 -1.98854 0
M  V30 9682 O 914.138 1.04857 -2.29698 0
M  V30 9683 C 915.451 -2.1795 -2.07167 0
M  V30 9684 C 916.999 -2.22287 -2.20358 0
M  V30 9685 C 917.474 -3.41583 -3.05098 0
M  V30 9686 N 918.965 -3.41734 -3.12686 0
M  V30 9687 C 919.7 -4.30692 -3.78539 0
M  V30 9688 N 919.196 -5.29865 -4.46335 0
M  V30 9689 N 920.989 -4.18473 -3.75283 0
M  V30 9690 H 913.14 -2.0631 -0.504963 0
M  V30 9691 H 915.403 -0.90395 -0.285618 0
M  V30 9692 H 915.109 -3.12758 -1.60858 0
M  V30 9693 H 914.983 -2.17862 -3.07922 0
M  V30 9694 H 917.37 -1.28028 -2.65881 0
M  V30 9695 H 917.451 -2.26414 -1.19039 0
M  V30 9696 H 917.095 -4.36141 -2.60275 0
M  V30 9697 H 917.025 -3.34695 -4.06555 0
M  V30 9698 H 919.516 -2.69969 -2.64433 0
M  V30 9699 H 919.829 -5.94027 -4.9432 0
M  V30 9700 H 918.174 -5.3378 -4.45089 0
M  V30 9701 H 921.365 -3.40249 -3.21478 0
M  V30 9702 H 921.538 -4.88007 -4.26326 0
M  V30 9703 N 914.944 1.19125 -1.03184 0
M  V30 9704 C 916.221 1.84674 -0.644574 0
M  V30 9705 C 916.601 1.92042 0.876534 0
M  V30 9706 O 915.949 1.43965 1.77444 0
M  V30 9707 C 916.159 3.23477 -1.3101 0
M  V30 9708 C 917.507 3.99608 -1.43524 0
M  V30 9709 O 918.531 3.32886 -1.2675 0
M  V30 9710 O 917.39 5.19132 -1.70776 0
M  V30 9711 H 914.484 0.795968 -0.22442 0
M  V30 9712 H 917.03 1.2659 -1.13018 0
M  V30 9713 H 915.802 3.12967 -2.34878 0
M  V30 9714 H 915.425 3.89209 -0.812547 0
M  V30 9715 N 916.422 0.810101 1.35185 0
M  V30 9716 C 917.669 0.392117 1.98667 0
M  V30 9717 C 917.997 -1.0416 1.64259 0
M  V30 9718 O 917.252 -1.73795 0.899647 0
M  V30 9719 C 917.551 0.526561 3.535 0
M  V30 9720 C 917.217 1.92411 4.07785 0
M  V30 9721 C 915.879 2.30644 4.22323 0
M  V30 9722 C 918.231 2.83827 4.37141 0
M  V30 9723 C 915.559 3.59655 4.63536 0
M  V30 9724 C 917.911 4.12287 4.79794 0
M  V30 9725 C 916.575 4.50515 4.92536 0
M  V30 9726 H 915.845 0.143486 0.726975 0
M  V30 9727 H 918.492 1.03157 1.61341 0
M  V30 9728 H 916.797 -0.19633 3.91308 0
M  V30 9729 H 918.494 0.183871 4.00578 0
M  V30 9730 H 915.084 1.61707 3.96924 0
M  V30 9731 H 919.268 2.55536 4.25459 0
M  V30 9732 H 914.524 3.89117 4.71591 0
M  V30 9733 H 918.698 4.83221 5.01468 0
M  V30 9734 H 916.325 5.50535 5.24229 0
M  V30 9735 N 917.9 -1.47166 0.563914 0
M  V30 9736 C 918.847 -2.30097 -0.180013 0
M  V30 9737 C 919.817 -1.39473 -0.902019 0
M  V30 9738 O 921.002 -1.68432 -0.896396 0
M  V30 9739 C 918.142 -3.23573 -1.19978 0
M  V30 9740 C 917.255 -4.2929 -0.483149 0
M  V30 9741 C 916.39 -5.0991 -1.48879 0
M  V30 9742 C 915.429 -6.07395 -0.757513 0
M  V30 9743 N 914.566 -6.8095 -1.71031 0
M  V30 9744 H 919.406 -2.93189 0.53329 0
M  V30 9745 H 916.943 -1.4451 0.274814 0
M  V30 9746 H 918.901 -3.76196 -1.80368 0
M  V30 9747 H 917.531 -2.6233 -1.88103 0
M  V30 9748 H 916.583 -3.79671 0.235414 0
M  V30 9749 H 917.895 -4.9872 0.0894075 0
M  V30 9750 H 917.049 -5.66717 -2.16603 0
M  V30 9751 H 915.788 -4.40397 -2.09527 0
M  V30 9752 H 914.793 -5.4976 -0.0663841 0
M  V30 9753 H 916.018 -6.78919 -0.156685 0
M  V30 9754 H 913.964 -6.14162 -2.30524 0
M  V30 9755 H 913.881 -7.46574 -1.19007 0
M  V30 9756 H 915.149 -7.42326 -2.37849 0
M  V30 9757 N 919.378 -0.300708 -1.54705 0
M  V30 9758 C 920.627 0.309428 -1.99312 0
M  V30 9759 C 920.94 1.55027 -1.19272 0
M  V30 9760 O 922.146 2.23498 -1.54146 0
M  V30 9761 C 920.602 0.601856 -3.54832 0
M  V30 9762 C 920.21 -0.620636 -4.4368 0
M  V30 9763 C 921.954 1.1732 -4.07966 0
M  V30 9764 C 919.861 -0.301376 -5.90632 0
M  V30 9765 H 918.791 0.119395 -0.744487 0
M  V30 9766 H 921.442 -0.409368 -1.78875 0
M  V30 9767 H 919.824 1.38024 -3.71168 0
M  V30 9768 H 920.998 -1.39685 -4.39118 0
M  V30 9769 H 919.313 -1.1106 -4.01316 0
M  V30 9770 H 921.91 1.42631 -5.15326 0
M  V30 9771 H 922.253 2.11537 -3.5855 0
M  V30 9772 H 922.786 0.456534 -3.95172 0
M  V30 9773 H 919.525 -1.21209 -6.44196 0
M  V30 9774 H 919.045 0.437574 -5.98202 0
M  V30 9775 H 920.724 0.097164 -6.46927 0
M  V30 9776 N 920.856 1.57574 -0.0284266 0
M  V30 9777 C 921.766 2.13637 0.96936 0
M  V30 9778 C 922.782 1.08845 1.35752 0
M  V30 9779 O 923.958 1.40899 1.43908 0
M  V30 9780 C 921.023 2.65179 2.2334 0
M  V30 9781 C 920.084 3.84683 1.90572 0
M  V30 9782 C 919.317 4.33758 3.1095 0
M  V30 9783 O 919.54 3.82009 4.23586 0
M  V30 9784 O 918.474 5.2561 2.93288 0
M  V30 9785 H 922.3 2.99169 0.52267 0
M  V30 9786 H 919.885 1.48159 0.192135 0
M  V30 9787 H 921.767 2.98402 2.97547 0
M  V30 9788 H 920.442 1.82731 2.67191 0
M  V30 9789 H 919.349 3.56386 1.13753 0
M  V30 9790 H 920.682 4.68292 1.51538 0
M  V30 9791 N 922.334 -0.244713 1.55689 0
M  V30 9792 C 923.611 -0.995407 1.68378 0
M  V30 9793 C 923.991 -2.03288 0.568949 0
M  V30 9794 O 923.339 -2.24469 -0.427299 0
M  V30 9795 C 923.549 -1.62678 3.08767 0
M  V30 9796 C 924.897 -2.1278 3.67437 0
M  V30 9797 O 925.921 -1.72614 3.11581 0
M  V30 9798 O 924.78 -2.86536 4.65359 0
M  V30 9799 H 921.874 -0.463476 0.684923 0
M  V30 9800 H 924.42 -0.238326 1.68018 0
M  V30 9801 H 923.192 -0.876469 3.81358 0
M  V30 9802 H 922.815 -2.45 3.13146 0
M  V30 9803 N 923.813 -1.49104 -0.510467 0
M  V30 9804 C 925.061 -1.578 -1.26268 0
M  V30 9805 C 925.382 -0.262349 -1.93227 0
M  V30 9806 O 924.652 0.717624 -1.82283 0
M  V30 9807 H 923.232 -0.581387 -0.46904 0
M  V30 9808 H 925.894 -1.85678 -0.592423 0
M  V30 9809 H 924.99 -2.36919 -2.03165 0
M  V30 9810 N 925.291 0.760815 -1.38019 0
M  V30 9811 C 926.238 1.8744 -1.34666 0
M  V30 9812 C 927.208 1.64762 -0.210386 0
M  V30 9813 O 928.393 1.86528 -0.401479 0
M  V30 9814 C 925.533 3.24648 -1.17037 0
M  V30 9815 C 924.646 3.59206 -2.3999 0
M  V30 9816 C 923.781 4.8568 -2.15148 0
M  V30 9817 C 922.82 5.13002 -3.3391 0
M  V30 9818 N 921.957 6.30668 -3.08549 0
M  V30 9819 H 926.797 1.8964 -2.29871 0
M  V30 9820 H 924.334 0.927004 -1.14215 0
M  V30 9821 H 926.292 4.03814 -1.04834 0
M  V30 9822 H 924.922 3.21793 -0.254758 0
M  V30 9823 H 923.974 2.74939 -2.62893 0
M  V30 9824 H 925.286 3.75328 -3.28527 0
M  V30 9825 H 924.44 5.72773 -2.00039 0
M  V30 9826 H 923.179 4.71682 -1.23965 0
M  V30 9827 H 922.184 4.2438 -3.49545 0
M  V30 9828 H 923.409 5.28901 -4.25958 0
M  V30 9829 H 921.355 6.18008 -2.20006 0
M  V30 9830 H 921.272 6.47257 -3.90633 0
M  V30 9831 H 922.54 7.20669 -2.9708 0
M  V30 9832 N 926.769 1.22769 0.988202 0
M  V30 9833 C 927.732 1.00325 2.06076 0
M  V30 9834 C 928.732 -0.0320618 1.60768 0
M  V30 9835 O 929.922 0.206912 1.72967 0
M  V30 9836 C 927.054 0.516376 3.36966 0
M  V30 9837 H 928.247 1.95499 2.27421 0
M  V30 9838 H 925.8 1.04704 1.16047 0
M  V30 9839 H 926.535 -0.439498 3.21308 0
M  V30 9840 H 926.32 1.26337 3.71189 0
M  V30 9841 H 927.81 0.37974 4.1587 0
M  V30 9842 N 928.247 -1.18576 1.03814 0
M  V30 9843 C 929.493 -1.88773 0.741132 0
M  V30 9844 C 929.826 -1.79993 -0.729127 0
M  V30 9845 O 929.101 -1.19851 -1.53186 0
M  V30 9846 C 929.384 -3.39352 1.20468 0
M  V30 9847 C 929.237 -3.56955 2.73684 0
M  V30 9848 C 930.556 -4.32901 0.792741 0
M  V30 9849 H 927.675 -0.685482 0.270708 0
M  V30 9850 H 930.317 -1.39523 1.2897 0
M  V30 9851 H 928.467 -3.81427 0.737974 0
M  V30 9852 H 930.139 -3.2399 3.28372 0
M  V30 9853 H 928.382 -2.99696 3.13632 0
M  V30 9854 H 929.053 -4.62598 3.01176 0
M  V30 9855 H 931.529 -3.98592 1.1943 0
M  V30 9856 H 930.405 -5.36828 1.14486 0
M  V30 9857 H 930.666 -4.41052 -0.304295 0
M  V30 9858 N 929.725 -0.817259 -1.34754 0
M  V30 9859 C 930.974 -0.39908 -1.97713 0
M  V30 9860 C 931.287 1.04203 -1.65533 0
M  V30 9861 O 932.493 1.56384 -2.21937 0
M  V30 9862 C 930.949 -0.662634 -3.53747 0
M  V30 9863 C 930.557 -2.11699 -3.94826 0
M  V30 9864 C 932.301 -0.31034 -4.23364 0
M  V30 9865 C 930.208 -2.32573 -5.4375 0
M  V30 9866 H 929.138 -0.145488 -0.739831 0
M  V30 9867 H 931.789 -1.00282 -1.53674 0
M  V30 9868 H 930.171 0.0111972 -3.95998 0
M  V30 9869 H 931.345 -2.82951 -3.63697 0
M  V30 9870 H 929.66 -2.43017 -3.3813 0
M  V30 9871 H 932.257 -0.44421 -5.32852 0
M  V30 9872 H 932.6 0.744594 -4.09587 0
M  V30 9873 H 933.133 -0.938518 -3.8657 0
M  V30 9874 H 929.872 -3.36551 -5.62507 0
M  V30 9875 H 929.392 -1.65858 -5.76412 0
M  V30 9876 H 931.071 -2.14651 -6.10356 0
M  V30 9877 N 931.203 1.46865 -0.571711 0
M  V30 9878 C 932.614 1.86158 -0.142181 0
M  V30 9879 C 932.965 1.47663 1.2919 0
M  V30 9880 O 932.09 0.886393 1.97413 0
M  V30 9881 C 932.685 3.37867 -0.251256 0
M  V30 9882 C 931.244 3.76198 0.123329 0
M  V30 9883 C 930.391 2.70902 -0.592232 0
M  V30 9884 H 933.342 1.38176 -0.780587 0
M  V30 9885 H 933.363 3.76842 0.526331 0
M  V30 9886 H 932.875 3.65853 -1.2951 0
M  V30 9887 H 930.976 3.53829 1.16773 0
M  V30 9888 H 931.089 4.78471 -0.24533 0
M  V30 9889 H 929.453 2.54678 -0.0336927 0
M  V30 9890 H 930.236 3.01729 -1.63751 0
M  V30 9891 N 932.681 0.308908 1.54543 0
M  V30 9892 C 933.611 -0.556657 2.26768 0
M  V30 9893 C 934.592 -1.13145 1.27013 0
M  V30 9894 O 935.777 -1.15931 1.558 0
M  V30 9895 C 932.907 -1.72481 3.01443 0
M  V30 9896 C 931.861 -1.28001 4.08411 0
M  V30 9897 C 931.187 -2.53395 4.70845 0
M  V30 9898 C 932.487 -0.405497 5.20724 0
M  V30 9899 H 934.181 0.0457618 2.99365 0
M  V30 9900 H 931.727 0.0234495 1.43981 0
M  V30 9901 H 933.68 -2.3365 3.50693 0
M  V30 9902 H 932.404 -2.35359 2.26437 0
M  V30 9903 H 931.063 -0.69133 3.60022 0
M  V30 9904 H 930.711 -3.14604 3.92471 0
M  V30 9905 H 930.411 -2.2433 5.43093 0
M  V30 9906 H 931.935 -3.15352 5.22863 0
M  V30 9907 H 933.349 -0.923076 5.6582 0
M  V30 9908 H 931.746 -0.208282 5.99738 0
M  V30 9909 H 932.816 0.567412 4.81569 0
M  V30 9910 N 934.159 -1.57557 0.0367827 0
M  V30 9911 C 935.407 -1.91735 -0.63892 0
M  V30 9912 C 935.728 -0.914515 -1.72226 0
M  V30 9913 O 934.998 0.0428248 -1.95853 0
M  V30 9914 H 933.578 -0.707738 -0.23899 0
M  V30 9915 H 936.24 -1.94708 0.0863931 0
M  V30 9916 H 935.336 -2.92568 -1.08676 0
M  V30 9917 N 935.637 0.236453 -1.55816 0
M  V30 9918 C 936.883 0.964439 -1.784 0
M  V30 9919 C 937.216 1.84573 -0.603868 0
M  V30 9920 O 936.491 1.90395 0.397473 0
M  V30 9921 C 936.774 1.81608 -3.10951 0
M  V30 9922 C 936.627 0.962283 -4.39386 0
M  V30 9923 C 937.946 2.79665 -3.39817 0
M  V30 9924 H 935.065 0.349192 -0.649026 0
M  V30 9925 H 937.707 0.234247 -1.8855 0
M  V30 9926 H 935.857 2.43864 -3.02428 0
M  V30 9927 H 937.529 0.35762 -4.59912 0
M  V30 9928 H 935.772 0.267062 -4.32977 0
M  V30 9929 H 936.443 1.59222 -5.28538 0
M  V30 9930 H 938.919 2.27546 -3.4837 0
M  V30 9931 H 937.795 3.36367 -4.33761 0
M  V30 9932 H 938.056 3.56657 -2.61244 0
M  V30 9933 N 937.115 1.49373 0.502552 0
M  V30 9934 C 938.343 1.62488 1.28084 0
M  V30 9935 C 938.758 0.295667 1.86471 0
M  V30 9936 O 938.115 -0.718664 1.67754 0
M  V30 9937 C 938.166 2.69249 2.4122 0
M  V30 9938 O 937.887 3.97014 1.85234 0
M  V30 9939 C 939.388 2.93054 3.32617 0
M  V30 9940 H 936.608 0.547068 0.388533 0
M  V30 9941 H 939.152 1.95394 0.603452 0
M  V30 9942 H 937.307 2.39125 3.04792 0
M  V30 9943 H 937.721 4.55809 2.59496 0
M  V30 9944 H 939.195 3.71493 4.08285 0
M  V30 9945 H 939.672 2.02911 3.89517 0
M  V30 9946 H 940.278 3.24589 2.74813 0
M  V30 9947 N 938.594 -0.753485 1.38421 0
M  V30 9948 C 939.84 -1.51485 1.34834 0
M  V30 9949 C 940.173 -1.94102 -0.0615381 0
M  V30 9950 O 939.448 -1.65439 -1.02274 0
M  V30 9951 C 939.731 -2.76736 2.30411 0
M  V30 9952 C 939.584 -2.40256 3.80259 0
M  V30 9953 C 940.903 -3.7876 2.24119 0
M  V30 9954 H 938.022 -0.549534 0.491102 0
M  V30 9955 H 940.664 -0.863006 1.6927 0
M  V30 9956 H 938.814 -3.32357 2.01175 0
M  V30 9957 H 940.486 -1.90409 4.20169 0
M  V30 9958 H 938.729 -1.72714 3.97935 0
M  V30 9959 H 939.4 -3.29869 4.42595 0
M  V30 9960 H 941.876 -3.32679 2.49928 0
M  V30 9961 H 940.752 -4.64092 2.93104 0
M  V30 9962 H 941.013 -4.24352 1.24006 0
M  V30 9963 N 940.072 -1.23292 -0.981677 0
M  V30 9964 C 941.004 -0.970782 -2.07626 0
M  V30 9965 C 942.017 0.0547506 -1.62708 0
M  V30 9966 O 943.206 -0.180623 -1.77584 0
M  V30 9967 C 940.306 -0.44055 -3.36024 0
M  V30 9968 C 939.479 -1.52595 -4.09919 0
M  V30 9969 C 938.538 -1.00082 -5.16595 0
M  V30 9970 O 937.564 -1.68951 -5.43548 0
M  V30 9971 N 938.766 0.172017 -5.80245 0
M  V30 9972 H 941.531 -1.91316 -2.30691 0
M  V30 9973 H 939.092 -1.14133 -1.14828 0
M  V30 9974 H 941.084 -0.0743111 -4.04632 0
M  V30 9975 H 939.654 0.407211 -3.09936 0
M  V30 9976 H 938.874 -2.06501 -3.35784 0
M  V30 9977 H 940.162 -2.2559 -4.56055 0
M  V30 9978 H 939.56 0.748129 -5.60731 0
M  V30 9979 H 938.117 0.479532 -6.50034 0
M  V30 9980 N 941.55 1.18024 -1.04442 0
M  V30 9981 C 942.798 1.87727 -0.74854 0
M  V30 9982 C 943.119 1.80975 0.726156 0
M  V30 9983 O 942.389 1.23061 1.52423 0
M  V30 9984 H 940.969 0.694974 -0.273897 0
M  V30 9985 H 943.631 1.43213 -1.32197 0
M  V30 9986 H 942.727 2.93665 -1.05674 0
M  V30 9987 N 943.028 0.824394 1.34319 0
M  V30 9988 C 944.305 0.335692 1.92698 0
M  V30 9989 C 944.685 -1.17715 1.75232 0
M  V30 9990 O 944.033 -1.98493 1.13194 0
M  V30 9991 C 944.243 0.766647 3.40475 0
M  V30 9992 C 945.591 0.766323 4.17627 0
M  V30 9993 O 946.615 0.709321 3.49066 0
M  V30 9994 O 945.474 0.840856 5.39992 0
M  V30 9995 H 942.568 0.0919996 0.821867 0
M  V30 9996 H 945.114 0.909282 1.43283 0
M  V30 9997 H 943.886 1.80859 3.46995 0
M  V30 9998 H 943.509 0.168833 3.97241 0
M  V30 9999 N 944.506 -1.46559 0.579492 0
M  V30 10000 C 945.752 -2.02699 0.0639363 0
M  V30 10001 C 946.085 -1.4504 -1.29139 0
M  V30 10002 O 945.36 -0.614284 -1.84545 0
M  V30 10003 C 945.643 -3.601 -0.00528618 0
M  V30 10004 C 945.496 -4.28149 1.37871 0
M  V30 10005 C 946.815 -4.34375 -0.707537 0
M  V30 10006 H 943.934 -0.736586 0.0247085 0
M  V30 10007 H 946.576 -1.74739 0.746071 0
M  V30 10008 H 944.726 -3.84052 -0.586206 0
M  V30 10009 H 946.398 -4.1547 2.00455 0
M  V30 10010 H 944.641 -3.87636 1.94732 0
M  V30 10011 H 945.312 -5.36888 1.28278 0
M  V30 10012 H 947.788 -4.15549 -0.214064 0
M  V30 10013 H 946.664 -5.44091 -0.724992 0
M  V30 10014 H 946.925 -4.052 -1.7682 0
M  V30 10015 N 945.984 -0.3171 -1.54377 0
M  V30 10016 C 946.914 0.544623 -2.2706 0
M  V30 10017 C 947.895 1.12469 -1.27611 0
M  V30 10018 O 949.08 1.15103 -1.56413 0
M  V30 10019 C 946.21 1.70879 -3.02353 0
M  V30 10020 C 945.164 1.25833 -4.09084 0
M  V30 10021 C 944.49 2.50894 -4.72182 0
M  V30 10022 C 945.79 0.377876 -5.20931 0
M  V30 10023 H 947.484 -0.0616372 -2.99337 0
M  V30 10024 H 945.03 -0.0310848 -1.43966 0
M  V30 10025 H 946.983 2.31787 -3.51927 0
M  V30 10026 H 945.707 2.34155 -2.27682 0
M  V30 10027 H 944.366 0.672228 -3.60384 0
M  V30 10028 H 944.014 3.12518 -3.94134 0
M  V30 10029 H 943.714 2.21447 -5.44275 0
M  V30 10030 H 945.238 3.12575 -5.24528 0
M  V30 10031 H 946.652 0.893056 -5.66302 0
M  V30 10032 H 945.049 0.176474 -5.9984 0
M  V30 10033 H 946.119 -0.592943 -4.81261 0
M  V30 10034 N 947.462 1.57535 -0.0451378 0
M  V30 10035 C 948.711 1.91628 0.629415 0
M  V30 10036 C 949.024 0.924754 1.72359 0
M  V30 10037 O 950.23 1.15751 2.45589 0
M  V30 10038 C 948.686 3.40322 1.17084 0
M  V30 10039 C 948.294 4.47867 0.109101 0
M  V30 10040 C 950.038 3.83458 1.82099 0
M  V30 10041 C 947.945 5.87671 0.663072 0
M  V30 10042 H 946.875 0.715163 0.238868 0
M  V30 10043 H 949.526 1.83151 -0.113046 0
M  V30 10044 H 947.908 3.43783 1.96543 0
M  V30 10045 H 949.082 4.55988 -0.664201 0
M  V30 10046 H 947.397 4.14034 -0.443227 0
M  V30 10047 H 949.994 4.85273 2.2453 0
M  V30 10048 H 950.337 3.19379 2.67026 0
M  V30 10049 H 950.87 3.82488 1.09305 0
M  V30 10050 H 947.609 6.55332 -0.148423 0
M  V30 10051 H 947.129 5.83124 1.4045 0
M  V30 10052 H 948.808 6.36737 1.14785 0
M  V30 10053 N 948.94 -0.228186 1.55939 0
M  V30 10054 C 950.186 -0.954964 1.78909 0
M  V30 10055 C 950.519 -1.8425 0.613648 0
M  V30 10056 O 949.794 -1.90604 -0.38737 0
M  V30 10057 C 950.077 -1.79957 3.1191 0
M  V30 10058 C 949.93 -0.938968 4.3989 0
M  V30 10059 C 951.249 -2.77859 3.41295 0
M  V30 10060 H 948.368 -0.345745 0.650868 0
M  V30 10061 H 951.01 -0.224244 1.88672 0
M  V30 10062 H 949.16 -2.42256 3.03717 0
M  V30 10063 H 950.832 -0.333225 4.60095 0
M  V30 10064 H 949.075 -0.244096 4.33113 0
M  V30 10065 H 949.746 -1.56416 5.29375 0
M  V30 10066 H 952.222 -2.25695 3.49572 0
M  V30 10067 H 951.098 -3.34062 4.35538 0
M  V30 10068 H 951.359 -3.55266 2.63132 0
M  V30 10069 N 950.418 -1.49637 -0.494624 0
M  V30 10070 C 951.667 -1.58691 -1.24499 0
M  V30 10071 C 951.98 -0.281763 -1.9356 0
M  V30 10072 O 953.186 -0.250925 -2.70338 0
M  V30 10073 C 951.642 -2.8002 -2.26091 0
M  V30 10074 C 951.25 -4.17318 -1.6294 0
M  V30 10075 C 952.994 -2.98407 -3.01916 0
M  V30 10076 C 950.901 -5.29862 -2.62679 0
M  V30 10077 H 949.831 -0.590888 -0.468367 0
M  V30 10078 H 952.482 -1.76034 -0.518112 0
M  V30 10079 H 950.864 -2.56185 -3.01969 0
M  V30 10080 H 952.038 -4.51315 -0.930108 0
M  V30 10081 H 950.353 -4.04342 -0.994819 0
M  V30 10082 H 952.95 -3.79658 -3.76516 0
M  V30 10083 H 953.293 -2.09214 -3.5991 0
M  V30 10084 H 953.826 -3.22312 -2.33152 0
M  V30 10085 H 950.565 -6.21134 -2.09458 0
M  V30 10086 H 950.085 -5.00311 -3.3083 0
M  V30 10087 H 951.764 -5.59461 -3.2498 0
M  V30 10088 N 951.896 0.746133 -1.38819 0
M  V30 10089 C 953.126 1.53316 -1.38484 0
M  V30 10090 C 953.534 1.89183 0.0253332 0
M  V30 10091 O 952.877 1.5382 1.00424 0
M  V30 10092 C 952.939 2.85623 -2.18311 0
M  V30 10093 C 952.603 2.72253 -3.67052 0
M  V30 10094 C 953.6 2.41547 -4.60381 0
M  V30 10095 C 951.285 2.89472 -4.10501 0
M  V30 10096 C 953.279 2.28226 -5.9514 0
M  V30 10097 C 950.966 2.7577 -5.45338 0
M  V30 10098 C 951.964 2.45191 -6.37472 0
M  V30 10099 O 951.652 2.31561 -7.69828 0
M  V30 10100 H 951.384 0.480763 -0.475229 0
M  V30 10101 H 953.938 0.93057 -1.83111 0
M  V30 10102 H 952.168 3.481 -1.68414 0
M  V30 10103 H 953.857 3.47178 -2.10291 0
M  V30 10104 H 954.623 2.27905 -4.28117 0
M  V30 10105 H 950.502 3.12269 -3.3913 0
M  V30 10106 H 954.046 2.04279 -6.6702 0
M  V30 10107 H 949.943 2.88987 -5.77197 0
M  V30 10108 H 950.711 2.46716 -7.80432 0
M  V30 10109 N 953.375 1.23811 0.975125 0
M  V30 10110 C 954.325 0.991036 2.05335 0
M  V30 10111 C 955.309 -0.0648793 1.60769 0
M  V30 10112 O 956.501 0.147917 1.76381 0
M  V30 10113 C 953.63 0.589822 3.38195 0
M  V30 10114 C 952.716 1.68142 3.89344 0
M  V30 10115 N 953.107 2.91274 4.13513 0
M  V30 10116 C 951.405 1.55722 4.17931 0
M  V30 10117 C 952.106 3.61987 4.55347 0
M  V30 10118 N 951.082 2.8952 4.60086 0
M  V30 10119 H 954.884 1.92612 2.21986 0
M  V30 10120 H 952.398 1.13827 1.15832 0
M  V30 10121 H 954.395 0.394075 4.15033 0
M  V30 10122 H 953.055 -0.338157 3.22934 0
M  V30 10123 H 954.066 3.27528 4.01181 0
M  V30 10124 H 950.743 0.696732 4.11645 0
M  V30 10125 H 952.133 4.67572 4.8252 0
M  V30 10126 N 954.853 -1.17469 1.05066 0
M  V30 10127 C 955.816 -2.19648 0.654793 0
M  V30 10128 C 956.816 -1.58107 -0.293063 0
M  V30 10129 O 958.006 -1.74029 -0.077106 0
M  V30 10130 C 955.138 -3.40878 -0.0384437 0
M  V30 10131 H 956.331 -2.56184 1.55915 0
M  V30 10132 H 953.884 -1.31528 0.844396 0
M  V30 10133 H 954.619 -3.09885 -0.956133 0
M  V30 10134 H 954.404 -3.86792 0.642961 0
M  V30 10135 H 955.894 -4.1651 -0.301568 0
M  V30 10136 N 956.331 -0.831506 -1.3388 0
M  V30 10137 C 957.747 -0.518349 -1.50948 0
M  V30 10138 C 957.947 0.955807 -1.77388 0
M  V30 10139 O 957.003 1.73993 -1.82983 0
M  V30 10140 C 958.316 -1.38531 -2.66889 0
M  V30 10141 C 959.864 -1.38332 -2.80772 0
M  V30 10142 C 960.339 -2.23497 -3.99766 0
M  V30 10143 N 961.83 -2.21167 -4.06988 0
M  V30 10144 C 962.565 -2.83805 -4.98239 0
M  V30 10145 N 962.061 -3.55468 -5.94655 0
M  V30 10146 N 963.854 -2.73314 -4.91178 0
M  V30 10147 H 956.005 -1.78588 -1.14978 0
M  V30 10148 H 958.268 -0.761508 -0.564633 0
M  V30 10149 H 957.974 -2.43255 -2.54007 0
M  V30 10150 H 957.848 -1.05611 -3.62114 0
M  V30 10151 H 960.235 -0.343832 -2.9309 0
M  V30 10152 H 960.316 -1.75256 -1.86331 0
M  V30 10153 H 959.96 -3.27501 -3.88208 0
M  V30 10154 H 959.89 -1.83919 -4.93438 0
M  V30 10155 H 962.381 -1.69046 -3.37982 0
M  V30 10156 H 962.694 -4.00487 -6.60931 0
M  V30 10157 H 961.039 -3.59575 -5.94753 0
M  V30 10158 H 964.23 -2.16897 -4.14817 0
M  V30 10159 H 964.403 -3.22416 -5.62096 0
M  V30 10160 N 957.809 1.4625 -0.587256 0
M  V30 10161 C 959.034 2.07252 -0.0784517 0
M  V30 10162 C 959.459 1.43239 1.21919 0
M  V30 10163 O 958.817 0.517791 1.73749 0
M  V30 10164 C 958.865 3.60534 0.0691037 0
M  V30 10165 O 957.969 3.96773 1.12448 0
M  V30 10166 H 957.31 0.660825 -0.064859 0
M  V30 10167 H 959.84 1.87819 -0.811491 0
M  V30 10168 H 959.85 4.0708 0.273826 0
M  V30 10169 H 958.525 4.06516 -0.878514 0
M  V30 10170 H 957.102 3.6193 0.897852 0
M  V30 10171 N 959.287 0.325282 1.54207 0
M  V30 10172 C 960.515 -0.27869 2.05014 0
M  V30 10173 C 960.93 -1.45649 1.20133 0
M  V30 10174 O 960.287 -1.81014 0.232398 0
M  V30 10175 C 960.338 -0.711486 3.54429 0
M  V30 10176 O 960.059 0.419458 4.36087 0
M  V30 10177 C 961.56 -1.37809 4.21336 0
M  V30 10178 H 958.78 -0.0570388 0.668571 0
M  V30 10179 H 961.324 0.47197 1.98979 0
M  V30 10180 H 959.479 -1.41212 3.60746 0
M  V30 10181 H 959.893 0.0781037 5.24442 0
M  V30 10182 H 961.367 -1.63184 5.27328 0
M  V30 10183 H 961.844 -2.32593 3.72555 0
M  V30 10184 H 962.45 -0.719987 4.19161 0
M  V30 10185 N 960.765 -1.57509 0.0534917 0
M  V30 10186 C 961.695 -2.14698 -0.917999 0
M  V30 10187 C 962.676 -1.06924 -1.32292 0
M  V30 10188 O 963.861 -1.34875 -1.39723 0
M  V30 10189 C 960.991 -2.69383 -2.19203 0
M  V30 10190 C 959.945 -3.82161 -1.9271 0
M  V30 10191 C 959.271 -4.23373 -3.26587 0
M  V30 10192 C 960.571 -5.07199 -1.24686 0
M  V30 10193 H 962.265 -2.96125 -0.44165 0
M  V30 10194 H 959.811 -1.42446 -0.210993 0
M  V30 10195 H 961.764 -3.08031 -2.87567 0
M  V30 10196 H 960.488 -1.85151 -2.69048 0
M  V30 10197 H 959.147 -3.43989 -1.26757 0
M  V30 10198 H 958.795 -3.36089 -3.74237 0
M  V30 10199 H 958.495 -4.99385 -3.09658 0
M  V30 10200 H 960.019 -4.64623 -3.96178 0
M  V30 10201 H 961.433 -5.43279 -1.83088 0
M  V30 10202 H 959.83 -5.88369 -1.18076 0
M  V30 10203 H 960.9 -4.84386 -0.223227 0
M  V30 10204 N 962.243 0.219913 -1.56058 0
M  V30 10205 C 963.491 0.942199 -1.78793 0
M  V30 10206 C 963.812 1.84804 -0.622284 0
M  V30 10207 O 963.082 1.9255 0.360735 0
M  V30 10208 H 961.662 0.350895 -0.659455 0
M  V30 10209 H 964.324 0.231376 -1.93522 0
M  V30 10210 H 963.42 1.54804 -2.71002 0
M  V30 10211 N 963.721 1.49897 0.486681 0
M  V30 10212 C 964.969 1.59789 1.23742 0
M  V30 10213 C 965.29 0.293056 1.92785 0
M  V30 10214 O 964.56 -0.688534 1.83401 0
M  V30 10215 H 963.14 0.588775 0.459731 0
M  V30 10216 H 965.802 1.86597 0.562808 0
M  V30 10217 H 964.898 2.40121 1.9937 0
M  V30 10218 N 965.199 -0.738761 1.39212 0
M  V30 10219 C 966.615 -1.04381 1.20734 0
M  V30 10220 C 966.815 -2.01391 0.0663082 0
M  V30 10221 O 965.871 -2.45672 -0.583229 0
M  V30 10222 C 967.184 -1.6097 2.53987 0
M  V30 10223 C 968.732 -1.73069 2.60799 0
M  V30 10224 C 969.207 -2.33067 3.94264 0
M  V30 10225 N 970.698 -2.40481 3.95883 0
M  V30 10226 C 971.433 -2.87834 4.95923 0
M  V30 10227 N 970.929 -3.35111 6.0636 0
M  V30 10228 N 972.722 -2.87009 4.83304 0
M  V30 10229 H 964.873 -0.0952996 2.12186 0
M  V30 10230 H 967.136 -0.104902 0.942178 0
M  V30 10231 H 966.842 -0.971548 3.38015 0
M  V30 10232 H 966.716 -2.59829 2.73439 0
M  V30 10233 H 969.103 -2.36007 1.77157 0
M  V30 10234 H 969.184 -0.728728 2.452 0
M  V30 10235 H 968.828 -1.70758 4.78335 0
M  V30 10236 H 968.758 -3.33933 4.07181 0
M  V30 10237 H 971.249 -2.07061 3.16123 0
M  V30 10238 H 971.562 -3.69742 6.78609 0
M  V30 10239 H 969.907 -3.33129 6.09959 0
M  V30 10240 H 973.098 -2.49395 3.96131 0
M  V30 10241 H 973.271 -3.23598 5.61416 0
M  V30 10242 N 966.677 -1.24326 -0.968545 0
M  V30 10243 C 967.607 -1.05951 -2.08079 0
M  V30 10244 C 968.588 0.0272666 -1.70078 0
M  V30 10245 O 969.773 -0.139644 -1.93697 0
M  V30 10246 C 966.903 -0.662623 -3.4092 0
M  V30 10247 C 965.857 -1.69807 -3.92873 0
M  V30 10248 C 965.183 -1.15628 -5.22048 0
M  V30 10249 C 966.483 -3.09383 -4.20808 0
M  V30 10250 H 968.177 -1.98984 -2.23709 0
M  V30 10251 H 965.723 -0.958112 -1.075 0
M  V30 10252 H 967.676 -0.521071 -4.18166 0
M  V30 10253 H 966.4 0.303399 -3.25188 0
M  V30 10254 H 965.059 -1.82783 -3.17783 0
M  V30 10255 H 964.707 -0.180888 -5.02675 0
M  V30 10256 H 964.407 -1.84822 -5.57776 0
M  V30 10257 H 965.931 -1.02683 -6.01904 0
M  V30 10258 H 967.345 -2.99642 -4.88761 0
M  V30 10259 H 965.742 -3.75923 -4.67763 0
M  V30 10260 H 966.812 -3.57486 -3.27616 0
M  V30 10261 N 968.156 1.1691 -1.05688 0
M  V30 10262 C 969.088 2.20648 -0.620237 0
M  V30 10263 C 970.101 1.59652 0.318604 0
M  V30 10264 O 971.29 1.78157 0.110553 0
M  V30 10265 C 968.39 3.38716 0.111729 0
M  V30 10266 C 967.563 4.29277 -0.839062 0
M  V30 10267 C 966.622 5.25993 -0.147453 0
M  V30 10268 O 965.648 5.63787 -0.783151 0
M  V30 10269 N 966.85 5.69725 1.11327 0
M  V30 10270 H 969.615 2.58731 -1.51256 0
M  V30 10271 H 967.176 1.31858 -0.939412 0
M  V30 10272 H 969.168 4.00455 0.584657 0
M  V30 10273 H 967.738 2.99189 0.905784 0
M  V30 10274 H 966.958 3.64894 -1.4915 0
M  V30 10275 H 968.246 4.86669 -1.48428 0
M  V30 10276 H 967.644 5.41103 1.64999 0
M  V30 10277 H 966.201 6.33584 1.53018 0
M  V30 10278 N 969.634 0.838594 1.33437 0
M  V30 10279 C 970.597 0.276843 2.27522 0
M  V30 10280 C 971.597 -0.554275 1.50945 0
M  V30 10281 O 972.787 -0.368107 1.70266 0
M  V30 10282 C 969.919 -0.610036 3.35397 0
M  V30 10283 H 971.112 1.10705 2.78719 0
M  V30 10284 H 968.665 0.611657 1.43835 0
M  V30 10285 H 969.4 -1.46269 2.89441 0
M  V30 10286 H 969.185 -0.0153615 3.92097 0
M  V30 10287 H 970.675 -0.996368 4.05539 0
M  V30 10288 N 971.112 -1.45937 0.595003 0
M  V30 10289 C 972.059 -2.30427 -0.131165 0
M  V30 10290 C 973.029 -1.41355 -0.872232 0
M  V30 10291 O 974.214 -1.70296 -0.860467 0
M  V30 10292 C 971.354 -3.26045 -1.13087 0
M  V30 10293 C 970.467 -4.30218 -0.391982 0
M  V30 10294 C 969.602 -5.12953 -1.3803 0
M  V30 10295 C 968.641 -6.08865 -0.628505 0
M  V30 10296 N 967.778 -6.84425 -1.56548 0
M  V30 10297 H 972.618 -2.91992 0.595359 0
M  V30 10298 H 970.155 -1.43895 0.305405 0
M  V30 10299 H 972.113 -3.79937 -1.72348 0
M  V30 10300 H 970.743 -2.66261 -1.82496 0
M  V30 10301 H 969.795 -3.79086 0.315895 0
M  V30 10302 H 971.107 -4.98418 0.195173 0
M  V30 10303 H 970.261 -5.71184 -2.04534 0
M  V30 10304 H 969 -4.44743 -2.00138 0
M  V30 10305 H 968.005 -5.49777 0.0502431 0
M  V30 10306 H 969.23 -6.79099 -0.012641 0
M  V30 10307 H 967.176 -6.18913 -2.17444 0
M  V30 10308 H 967.093 -7.48931 -1.03145 0
M  V30 10309 H 968.361 -7.47204 -2.22049 0
M  V30 10310 N 972.59 -0.333456 -1.54032 0
M  V30 10311 C 973.523 0.570776 -2.20947 0
M  V30 10312 C 974.501 1.10811 -1.18994 0
M  V30 10313 O 975.685 1.17027 -1.47773 0
M  V30 10314 C 972.812 1.7842 -2.87896 0
M  V30 10315 C 971.858 1.37722 -4.03652 0
M  V30 10316 S 972.691 0.405548 -5.33962 0
M  V30 10317 C 973.847 1.62603 -6.0441 0
M  V30 10318 H 974.08 0.0023936 -2.973 0
M  V30 10319 H 971.613 -0.117531 -1.53952 0
M  V30 10320 H 973.571 2.48038 -3.27089 0
M  V30 10321 H 972.232 2.32378 -2.11327 0
M  V30 10322 H 971.425 2.28167 -4.49395 0
M  V30 10323 H 971.027 0.760628 -3.66184 0
M  V30 10324 H 973.319 2.56202 -6.2719 0
M  V30 10325 H 974.262 1.21058 -6.97675 0
M  V30 10326 H 974.67 1.8175 -5.34441 0
M  V30 10327 N 974.068 1.57479 -0.061844 0
M  V30 10328 C 975.031 2.1104 0.894127 0
M  V30 10329 C 976.031 1.03227 1.23292 0
M  V30 10330 O 977.221 1.29256 1.16784 0
M  V30 10331 C 974.353 2.6035 2.20069 0
M  V30 10332 H 975.546 2.96807 0.429619 0
M  V30 10333 H 973.099 1.55181 0.18672 0
M  V30 10334 H 973.834 1.78008 2.71079 0
M  V30 10335 H 973.619 3.39146 1.9678 0
M  V30 10336 H 975.109 3.019 2.88525 0
M  V30 10337 N 975.546 -0.211634 1.56173 0
M  V30 10338 C 976.771 -0.955324 1.84088 0
M  V30 10339 C 977.196 -1.76754 0.643407 0
M  V30 10340 O 976.554 -1.76653 -0.407842 0
M  V30 10341 C 976.602 -1.84063 3.10085 0
M  V30 10342 O 975.706 -2.9373 2.89476 0
M  V30 10343 H 975.047 -0.26996 0.606645 0
M  V30 10344 H 977.577 -0.221947 2.03393 0
M  V30 10345 H 977.587 -2.24852 3.40449 0
M  V30 10346 H 976.262 -1.24373 3.96868 0
M  V30 10347 H 974.839 -2.56816 2.7037 0
M  V30 10348 N 977.024 -1.50153 -0.478725 0
M  V30 10349 C 977.957 -1.63089 -1.59616 0
M  V30 10350 C 978.935 -0.479211 -1.55378 0
M  V30 10351 O 980.119 -0.697715 -1.75112 0
M  V30 10352 C 977.246 -1.60643 -2.9818 0
M  V30 10353 C 976.292 -2.81279 -3.206 0
M  V30 10354 S 977.125 -4.42681 -3.0132 0
M  V30 10355 C 978.281 -4.42915 -4.42241 0
M  V30 10356 H 978.514 -2.57612 -1.48402 0
M  V30 10357 H 976.047 -1.39321 -0.665513 0
M  V30 10358 H 978.005 -1.59917 -3.7807 0
M  V30 10359 H 976.666 -0.673684 -3.0679 0
M  V30 10360 H 975.859 -2.7585 -4.21809 0
M  V30 10361 H 975.461 -2.79533 -2.4847 0
M  V30 10362 H 977.753 -4.16007 -5.34737 0
M  V30 10363 H 978.696 -5.44477 -4.52715 0
M  V30 10364 H 979.104 -3.72715 -4.23962 0
M  V30 10365 N 978.502 0.731368 -1.39602 0
M  V30 10366 C 979.449 1.84541 -1.38612 0
M  V30 10367 C 980.419 1.64279 -0.245287 0
M  V30 10368 O 981.604 1.85635 -0.440954 0
M  V30 10369 C 978.744 3.22092 -1.23897 0
M  V30 10370 C 977.857 3.54034 -2.47555 0
M  V30 10371 C 976.992 4.81007 -2.25402 0
M  V30 10372 C 976.031 5.05804 -3.44716 0
M  V30 10373 N 975.168 6.23981 -3.21857 0
M  V30 10374 H 980.008 1.84722 -2.33841 0
M  V30 10375 H 977.545 0.902569 -1.16156 0
M  V30 10376 H 979.503 4.01499 -1.13376 0
M  V30 10377 H 978.133 3.2118 -0.322958 0
M  V30 10378 H 977.185 2.69301 -2.68665 0
M  V30 10379 H 978.497 3.68275 -3.36415 0
M  V30 10380 H 977.651 5.68401 -2.12143 0
M  V30 10381 H 976.39 4.68946 -1.33943 0
M  V30 10382 H 975.395 4.1687 -3.58468 0
M  V30 10383 H 976.62 5.19747 -4.37081 0
M  V30 10384 H 974.566 6.13202 -2.33065 0
M  V30 10385 H 974.483 6.38826 -4.04274 0
M  V30 10386 H 975.751 7.14205 -3.123 0
M  V30 10387 N 979.98 1.24838 0.961938 0
M  V30 10388 C 980.913 0.989041 2.05653 0
M  V30 10389 C 981.891 -0.079199 1.62407 0
M  V30 10390 O 983.075 0.0589397 1.88408 0
M  V30 10391 C 980.202 0.493661 3.35083 0
M  V30 10392 C 979.248 1.55132 3.97286 0
M  V30 10393 S 980.081 3.13438 4.34185 0
M  V30 10394 C 981.237 2.65617 5.66744 0
M  V30 10395 H 981.47 1.91588 2.27335 0
M  V30 10396 H 979.003 1.08287 1.10061 0
M  V30 10397 H 980.961 0.214482 4.09939 0
M  V30 10398 H 979.622 -0.412559 3.11379 0
M  V30 10399 H 978.815 1.15525 4.90581 0
M  V30 10400 H 978.417 1.78081 3.28882 0
M  V30 10401 H 980.709 2.08788 6.44526 0
M  V30 10402 H 981.652 3.57524 6.11214 0
M  V30 10403 H 982.06 2.05853 5.25628 0
M  V30 10404 N 981.458 -1.16348 1.06306 0
M  V30 10405 C 982.705 -1.86881 0.779852 0
M  V30 10406 C 983.033 -1.8171 -0.693668 0
M  V30 10407 O 982.288 -1.22769 -1.52401 0
M  V30 10408 C 982.587 -3.35936 1.21991 0
M  V30 10409 C 982.253 -3.61307 2.69756 0
M  V30 10410 C 980.915 -3.6794 3.10119 0
M  V30 10411 C 983.267 -3.71871 3.65187 0
M  V30 10412 C 980.595 -3.82639 4.44752 0
M  V30 10413 C 982.947 -3.88091 4.99568 0
M  V30 10414 C 981.611 -3.92967 5.39568 0
M  V30 10415 H 980.881 -0.683847 0.285368 0
M  V30 10416 H 983.528 -1.37569 1.33218 0
M  V30 10417 H 981.833 -3.87381 0.586774 0
M  V30 10418 H 983.53 -3.88895 0.977821 0
M  V30 10419 H 980.12 -3.56777 2.37504 0
M  V30 10420 H 984.304 -3.66057 3.35136 0
M  V30 10421 H 979.56 -3.84666 4.75228 0
M  V30 10422 H 983.734 -3.95207 5.73397 0
M  V30 10423 H 981.361 -4.04109 6.43895 0
M  V30 10424 N 982.937 -0.845659 -1.3299 0
M  V30 10425 C 983.869 -0.241097 -2.27928 0
M  V30 10426 C 984.882 0.582048 -1.5204 0
M  V30 10427 O 986.071 0.408008 -1.73774 0
M  V30 10428 C 983.171 0.678652 -3.32035 0
M  V30 10429 C 982.344 -0.106652 -4.3727 0
M  V30 10430 C 981.403 0.737478 -5.21006 0
M  V30 10431 O 980.429 0.174231 -5.68933 0
M  V30 10432 N 981.631 2.05372 -5.42957 0
M  V30 10433 H 984.396 -1.05685 -2.80448 0
M  V30 10434 H 981.957 -0.704771 -1.45755 0
M  V30 10435 H 983.949 1.24849 -3.84961 0
M  V30 10436 H 982.519 1.3951 -2.79742 0
M  V30 10437 H 981.739 -0.857897 -3.84752 0
M  V30 10438 H 983.027 -0.646386 -5.04677 0
M  V30 10439 H 982.425 2.53478 -5.05733 0
M  V30 10440 H 980.982 2.5719 -5.98913 0
M  V30 10441 N 984.415 1.45619 -0.602734 0
M  V30 10442 C 985.664 2.01483 -0.0936395 0
M  V30 10443 C 985.977 1.47753 1.28173 0
M  V30 10444 O 987.183 1.95562 1.88329 0
M  V30 10445 C 985.639 3.59711 -0.116738 0
M  V30 10446 C 985.247 4.22437 -1.49166 0
M  V30 10447 C 986.991 4.23157 0.337368 0
M  V30 10448 C 984.898 5.72803 -1.47141 0
M  V30 10449 H 983.828 0.753353 -0.0312382 0
M  V30 10450 H 986.479 1.67142 -0.757347 0
M  V30 10451 H 984.861 3.91218 0.613529 0
M  V30 10452 H 986.035 4.02511 -2.24325 0
M  V30 10453 H 984.35 3.71166 -1.88746 0
M  V30 10454 H 986.947 5.33407 0.371628 0
M  V30 10455 H 987.29 3.93491 1.35906 0
M  V30 10456 H 987.823 3.96349 -0.339474 0
M  V30 10457 H 984.562 6.07161 -2.47055 0
M  V30 10458 H 984.082 5.94936 -0.762329 0
M  V30 10459 H 985.761 6.35907 -1.19294 0
M  V30 10460 N 985.893 0.34162 1.53853 0
M  V30 10461 C 986.825 -0.550383 2.22494 0
M  V30 10462 C 987.838 -1.0655 1.23089 0
M  V30 10463 O 989.027 -0.975985 1.49455 0
M  V30 10464 C 986.127 -1.76995 2.89009 0
M  V30 10465 C 985.3 -1.39045 4.14711 0
M  V30 10466 C 984.359 -2.46947 4.64654 0
M  V30 10467 O 983.385 -2.10336 5.28912 0
M  V30 10468 N 984.587 -3.7817 4.40418 0
M  V30 10469 H 987.352 0.037456 2.99677 0
M  V30 10470 H 984.913 0.165654 1.6105 0
M  V30 10471 H 986.905 -2.48608 3.19337 0
M  V30 10472 H 985.475 -2.2652 2.15424 0
M  V30 10473 H 984.695 -0.505161 3.9095 0
M  V30 10474 H 985.983 -1.11284 4.96481 0
M  V30 10475 H 985.381 -4.10704 3.89023 0
M  V30 10476 H 983.938 -4.45959 4.75356 0
M  V30 10477 N 987.371 -1.57444 0.0701946 0
M  V30 10478 C 988.618 -1.93429 -0.59929 0
M  V30 10479 C 988.946 -0.9501 -1.69715 0
M  V30 10480 O 988.201 0.0345377 -1.9567 0
M  V30 10481 C 988.5 -3.36044 -1.21694 0
M  V30 10482 C 988.166 -4.50232 -0.245374 0
M  V30 10483 C 986.828 -4.81195 0.0219161 0
M  V30 10484 C 989.18 -5.1951 0.419396 0
M  V30 10485 C 986.508 -5.78775 0.96109 0
M  V30 10486 C 988.86 -6.18095 1.34688 0
M  V30 10487 C 987.524 -6.47477 1.62265 0
M  V30 10488 H 986.794 -0.707807 -0.219296 0
M  V30 10489 H 989.441 -1.90982 0.14073 0
M  V30 10490 H 987.746 -3.34948 -2.03265 0
M  V30 10491 H 989.443 -3.61176 -1.74221 0
M  V30 10492 H 986.033 -4.26082 -0.463887 0
M  V30 10493 H 990.217 -4.95785 0.226009 0
M  V30 10494 H 985.473 -5.99865 1.18202 0
M  V30 10495 H 989.647 -6.7088 1.86795 0
M  V30 10496 H 987.274 -7.229 2.352 0
M  V30 10497 N 988.849 0.203349 -1.56283 0
M  V30 10498 C 989.799 1.25595 -1.90289 0
M  V30 10499 C 990.783 1.41403 -0.767732 0
M  V30 10500 O 991.975 1.43912 -1.03046 0
M  V30 10501 C 989.104 2.60255 -2.23881 0
M  V30 10502 C 988.19 2.48274 -3.43833 0
M  V30 10503 N 988.581 2.05963 -4.61966 0
M  V30 10504 C 986.879 2.79188 -3.47808 0
M  V30 10505 C 987.58 2.05674 -5.44126 0
M  V30 10506 N 986.556 2.46862 -4.84314 0
M  V30 10507 H 990.358 0.920016 -2.79129 0
M  V30 10508 H 987.872 0.411829 -1.57091 0
M  V30 10509 H 989.869 3.36274 -2.46425 0
M  V30 10510 H 988.529 2.94678 -1.36363 0
M  V30 10511 H 989.54 1.76803 -4.86787 0
M  V30 10512 H 986.217 3.17863 -2.70684 0
M  V30 10513 H 987.607 1.74932 -6.48728 0
M  V30 10514 N 990.327 1.50405 0.470755 0
M  V30 10515 C 991.555 1.65168 1.24608 0
M  V30 10516 C 991.97 0.335153 1.85801 0
M  V30 10517 O 991.327 -0.682919 1.69241 0
M  V30 10518 C 991.378 2.74305 2.35455 0
M  V30 10519 O 991.099 4.00854 1.76771 0
M  V30 10520 C 992.6 3.00044 3.26326 0
M  V30 10521 H 989.82 0.555186 0.376842 0
M  V30 10522 H 992.364 1.9663 0.56187 0
M  V30 10523 H 990.519 2.45536 2.99651 0
M  V30 10524 H 990.933 4.61211 2.49769 0
M  V30 10525 H 992.407 3.8007 4.00313 0
M  V30 10526 H 992.884 2.11128 3.85126 0
M  V30 10527 H 993.49 3.30345 2.67866 0
M  V30 10528 N 991.805 -0.723954 1.39988 0
M  V30 10529 C 993.053 -1.48078 1.3754 0
M  V30 10530 C 993.374 -1.94985 -0.0243358 0
M  V30 10531 O 992.644 -1.69764 -0.977602 0
M  V30 10532 H 991.224 -0.549354 0.506181 0
M  V30 10533 H 993.886 -0.858746 1.74962 0
M  V30 10534 H 992.982 -2.35763 2.04505 0
M  V30 10535 N 993.283 -1.25346 -0.955304 0
M  V30 10536 C 994.53 -1.10055 -1.69983 0
M  V30 10537 C 994.858 0.358586 -1.91166 0
M  V30 10538 O 994.113 1.28071 -1.47974 0
M  V30 10539 C 994.412 -1.7993 -3.08804 0
M  V30 10540 C 994.078 -3.29851 -3.07424 0
M  V30 10541 C 992.74 -3.7075 -3.06754 0
M  V30 10542 C 995.092 -4.25636 -3.00805 0
M  V30 10543 C 992.42 -5.05847 -2.97214 0
M  V30 10544 C 994.772 -5.60756 -2.92806 0
M  V30 10545 C 993.436 -6.00984 -2.90472 0
M  V30 10546 H 992.706 -0.402718 -0.622012 0
M  V30 10547 H 995.353 -1.5561 -1.11614 0
M  V30 10548 H 993.658 -1.26803 -3.70713 0
M  V30 10549 H 995.355 -1.65551 -3.65231 0
M  V30 10550 H 991.945 -2.97308 -3.08716 0
M  V30 10551 H 996.129 -3.9503 -3.00441 0
M  V30 10552 H 991.385 -5.36196 -2.93775 0
M  V30 10553 H 995.559 -6.34671 -2.86645 0
M  V30 10554 H 993.186 -7.05626 -2.82835 0
M  V30 10555 N 994.761 1.15782 -1.06922 0
M  V30 10556 C 996.007 1.86741 -0.790922 0
M  V30 10557 C 996.34 1.81863 0.681149 0
M  V30 10558 O 995.615 1.23871 1.49954 0
M  V30 10559 C 995.898 3.36038 -1.29422 0
M  V30 10560 C 995.751 3.49573 -2.83052 0
M  V30 10561 C 997.07 4.30647 -0.907239 0
M  V30 10562 H 994.189 0.678064 -0.288787 0
M  V30 10563 H 996.831 1.36054 -1.32624 0
M  V30 10564 H 994.981 3.79336 -0.838843 0
M  V30 10565 H 996.653 3.1517 -3.36847 0
M  V30 10566 H 994.896 2.91275 -3.21467 0
M  V30 10567 H 995.567 4.5445 -3.13335 0
M  V30 10568 H 998.043 3.95286 -1.29956 0
M  V30 10569 H 996.919 5.33604 -1.28679 0
M  V30 10570 H 997.18 4.41703 0.187251 0
M  V30 10571 N 996.239 0.8527 1.3254 0
M  V30 10572 C 997.65 0.510012 1.79599 0
M  V30 10573 C 998.001 -0.972002 1.70431 0
M  V30 10574 O 997.126 -1.7581 1.26173 0
M  V30 10575 C 997.721 0.918986 3.26098 0
M  V30 10576 C 996.28 0.628227 3.7112 0
M  V30 10577 C 995.427 1.11979 2.53685 0
M  V30 10578 H 998.378 1.04009 1.19866 0
M  V30 10579 H 998.399 0.234577 3.79776 0
M  V30 10580 H 997.911 1.99765 3.32739 0
M  V30 10581 H 996.012 -0.4398 3.69995 0
M  V30 10582 H 996.125 1.19315 4.64005 0
M  V30 10583 H 994.489 0.540133 2.48907 0
M  V30 10584 H 995.272 2.20552 2.63081 0
M  V30 10585 N 997.718 -1.45297 0.610449 0
M  V30 10586 C 999.134 -1.57225 0.274332 0
M  V30 10587 C 999.334 -1.60136 -1.22306 0
M  V30 10588 O 998.39 -1.5332 -2.00622 0
M  V30 10589 C 999.703 -2.85365 0.948028 0
M  V30 10590 C 1001.25 -2.99044 0.924216 0
M  V30 10591 C 1001.73 -4.29958 1.57798 0
M  V30 10592 N 1003.22 -4.36723 1.5436 0
M  V30 10593 C 1003.95 -5.36695 2.01857 0
M  V30 10594 N 1003.45 -6.43187 2.57453 0
M  V30 10595 N 1005.24 -5.28071 1.92608 0
M  V30 10596 H 997.392 -1.41651 1.58268 0
M  V30 10597 H 999.655 -0.67744 0.663158 0
M  V30 10598 H 999.361 -2.89125 2.00249 0
M  V30 10599 H 999.235 -3.74222 0.473062 0
M  V30 10600 H 1001.62 -2.94849 -0.121709 0
M  V30 10601 H 1001.7 -2.1159 1.43748 0
M  V30 10602 H 1001.35 -4.34912 2.62325 0
M  V30 10603 H 1001.28 -5.16234 1.03972 0
M  V30 10604 H 1003.77 -3.60374 1.13749 0
M  V30 10605 H 1004.08 -7.15722 2.91482 0
M  V30 10606 H 1002.43 -6.4393 2.61493 0
M  V30 10607 H 1005.62 -4.43783 1.48912 0
M  V30 10608 H 1005.79 -6.05832 2.29938 0
M  V30 10609 N 999.196 -0.349774 -1.5367 0
M  V30 10610 C 1000.14 0.519396 -2.26727 0
M  V30 10611 C 1001.14 1.09673 -1.29105 0
M  V30 10612 O 1002.34 1.04176 -1.46791 0
M  V30 10613 H 998.719 0.186192 -0.728585 0
M  V30 10614 H 1000.69 -0.118736 -2.98164 0
M  V30 10615 C 999.439 1.65535 -3.05767 0
M  V30 10616 H 998.762 1.22038 -3.80719 0
M  V30 10617 H 1000.2 2.23856 -3.6009 0
M  V30 10618 C 998.661 2.58844 -2.15642 0
M  V30 10619 O 999.191 3.61254 -1.75665 0
M  V30 10620 N 997.397 2.27671 -1.80595 0
M  V30 10621 H 996.944 1.44429 -2.13302 0
M  V30 10622 H 996.902 2.90359 -1.20577 0
M  V30 10623 N 1000.67 1.57404 -0.0785433 0
M  V30 10624 C 1001.64 2.11977 0.871693 0
M  V30 10625 C 1002.64 1.04529 1.2219 0
M  V30 10626 O 1003.83 1.30488 1.15406 0
M  V30 10627 C 1000.96 2.6267 2.17296 0
M  V30 10628 H 1002.15 2.97246 0.398115 0
M  V30 10629 H 999.705 1.5537 0.170251 0
M  V30 10630 H 1000.44 1.80873 2.69175 0
M  V30 10631 H 1000.22 3.41214 1.93171 0
M  V30 10632 H 1001.71 3.04943 2.85306 0
M  V30 10633 N 1002.15 -0.195058 1.56388 0
M  V30 10634 C 1003.38 -0.931642 1.84738 0
M  V30 10635 C 1003.79 -1.76849 0.661046 0
M  V30 10636 O 1003.15 -1.78705 -0.370241 0
M  V30 10637 C 1003.2 -1.82777 3.11889 0
M  V30 10638 O 1002.92 -1.02471 4.25948 0
M  V30 10639 C 1004.42 -2.67603 3.53417 0
M  V30 10640 H 1001.64 -0.271821 0.613477 0
M  V30 10641 H 1004.19 -0.202299 2.03497 0
M  V30 10642 H 1002.34 -2.51074 2.95027 0
M  V30 10643 H 1002.76 -1.63539 4.98353 0
M  V30 10644 H 1004.23 -3.26138 4.45352 0
M  V30 10645 H 1004.71 -3.41314 2.76408 0
M  V30 10646 H 1005.31 -2.04678 3.7281 0
M  V30 10647 N 1003.63 -1.50653 -0.462772 0
M  V30 10648 C 1004.86 -1.65826 -1.23731 0
M  V30 10649 C 1005.27 -0.345002 -1.85621 0
M  V30 10650 O 1004.63 0.673935 -1.69601 0
M  V30 10651 C 1004.68 -2.7555 -2.33997 0
M  V30 10652 O 1004.4 -4.01785 -1.74643 0
M  V30 10653 C 1005.9 -3.0177 -3.2473 0
M  V30 10654 H 1003.12 -0.557177 -0.373892 0
M  V30 10655 H 1005.67 -1.96925 -0.551434 0
M  V30 10656 H 1003.82 -2.47122 -2.98345 0
M  V30 10657 H 1004.24 -4.62529 -2.4732 0
M  V30 10658 H 1005.71 -3.82188 -3.98292 0
M  V30 10659 H 1006.19 -2.13167 -3.84001 0
M  V30 10660 H 1006.79 -3.31761 -2.66111 0
M  V30 10661 N 1005.11 0.71652 -1.4037 0
M  V30 10662 C 1006.35 1.47857 -1.38803 0
M  V30 10663 C 1006.69 1.94197 0.0100536 0
M  V30 10664 O 1005.96 1.68093 0.978521 0
M  V30 10665 C 1006.25 2.7053 -2.37667 0
M  V30 10666 C 1006.1 2.3009 -3.86496 0
M  V30 10667 C 1007.42 3.72684 -2.34082 0
M  V30 10668 H 1004.54 0.53632 -0.505499 0
M  V30 10669 H 1007.18 0.817824 -1.71498 0
M  V30 10670 H 1005.33 3.26906 -2.09916 0
M  V30 10671 H 1007 1.79202 -4.2507 0
M  V30 10672 H 1005.24 1.62102 -4.02375 0
M  V30 10673 H 1005.91 3.18018 -4.51186 0
M  V30 10674 H 1008.39 3.25935 -2.58661 0
M  V30 10675 H 1007.27 4.56157 -3.05306 0
M  V30 10676 H 1007.53 4.20916 -1.35213 0
M  V30 10677 N 1006.59 1.25851 0.948643 0
M  V30 10678 C 1007.53 1.06759 2.04625 0
M  V30 10679 C 1008.5 -0.0251144 1.66081 0
M  V30 10680 O 1009.69 0.133221 1.90334 0
M  V30 10681 C 1006.83 0.698724 3.37952 0
M  V30 10682 C 1005.94 1.8669 3.89578 0
M  V30 10683 C 1005.08 1.44184 5.11258 0
M  V30 10684 C 1004.12 2.57878 5.55126 0
M  V30 10685 N 1003.25 2.16106 6.68014 0
M  V30 10686 H 1008.09 2.00691 2.20289 0
M  V30 10687 H 1005.63 0.999327 1.07944 0
M  V30 10688 H 1007.59 0.465788 4.14592 0
M  V30 10689 H 1006.22 -0.203618 3.22157 0
M  V30 10690 H 1005.27 2.21298 3.09405 0
M  V30 10691 H 1006.58 2.72051 4.18079 0
M  V30 10692 H 1005.74 1.16891 5.95333 0
M  V30 10693 H 1004.47 0.559035 4.84485 0
M  V30 10694 H 1003.48 2.85909 4.69612 0
M  V30 10695 H 1004.7 3.46747 5.83904 0
M  V30 10696 H 1002.65 1.3025 6.42939 0
M  V30 10697 H 1002.57 2.95012 6.96063 0
M  V30 10698 H 1003.84 1.92005 7.55483 0
M  V30 10699 N 1008.06 -1.15214 1.07534 0
M  V30 10700 C 1009.31 -1.86043 0.799629 0
M  V30 10701 C 1009.64 -1.82435 -0.674356 0
M  V30 10702 O 1008.89 -1.24379 -1.51091 0
M  V30 10703 C 1009.19 -3.34623 1.25547 0
M  V30 10704 C 1008.86 -3.58425 2.73573 0
M  V30 10705 C 1007.52 -3.6463 3.14004 0
M  V30 10706 C 1009.87 -3.67977 3.6911 0
M  V30 10707 C 1007.2 -3.779 4.48786 0
M  V30 10708 C 1009.55 -3.82771 5.03656 0
M  V30 10709 C 1008.22 -3.87222 5.43705 0
M  V30 10710 H 1007.49 -0.680781 0.292605 0
M  V30 10711 H 1010.13 -1.36149 1.34669 0
M  V30 10712 H 1008.44 -3.86737 0.627828 0
M  V30 10713 H 1010.14 -3.87836 1.01901 0
M  V30 10714 H 1006.73 -3.54238 2.41275 0
M  V30 10715 H 1010.91 -3.62482 3.39 0
M  V30 10716 H 1006.17 -3.79604 4.79281 0
M  V30 10717 H 1010.34 -3.89104 5.77556 0
M  V30 10718 H 1007.97 -3.97256 6.48145 0
M  V30 10719 N 1009.54 -0.859717 -1.32086 0
M  V30 10720 C 1010.51 -0.313005 -2.27053 0
M  V30 10721 C 1011.51 0.530191 -1.51808 0
M  V30 10722 O 1012.7 0.340972 -1.7083 0
M  V30 10723 C 1009.83 0.5566 -3.36325 0
M  V30 10724 H 1011.02 -1.15125 -2.76923 0
M  V30 10725 H 1008.57 -0.634463 -1.42843 0
M  V30 10726 H 1009.31 1.41645 -2.91731 0
M  V30 10727 H 1009.09 -0.0470197 -3.92072 0
M  V30 10728 H 1010.58 0.931725 -4.07073 0
M  V30 10729 N 1011.02 1.44971 -0.618145 0
M  V30 10730 C 1011.97 2.30606 0.09449 0
M  V30 10731 C 1012.94 1.42725 0.849633 0
M  V30 10732 O 1014.12 1.71643 0.833266 0
M  V30 10733 C 1011.26 3.27803 1.07886 0
M  V30 10734 C 1010.38 4.30787 0.323488 0
M  V30 10735 C 1009.51 5.15085 1.29851 0
M  V30 10736 C 1008.55 6.09788 0.531561 0
M  V30 10737 N 1007.69 6.86829 1.4564 0
M  V30 10738 H 1012.53 2.91008 -0.641738 0
M  V30 10739 H 1010.06 1.43391 -0.328259 0
M  V30 10740 H 1012.02 3.82631 1.66281 0
M  V30 10741 H 1010.65 2.69131 1.78237 0
M  V30 10742 H 1009.7 3.78536 -0.376164 0
M  V30 10743 H 1011.02 4.98044 -0.274443 0
M  V30 10744 H 1010.17 5.74365 1.95421 0
M  V30 10745 H 1008.91 4.4787 1.93037 0
M  V30 10746 H 1007.91 5.49628 -0.137702 0
M  V30 10747 H 1009.14 6.79033 -0.0953993 0
M  V30 10748 H 1007.08 6.22295 2.07571 0
M  V30 10749 H 1007 7.50477 0.912167 0
M  V30 10750 H 1008.27 7.50642 2.10134 0
M  V30 10751 N 1012.5 0.357919 1.53482 0
M  V30 10752 C 1013.73 -0.234799 2.05261 0
M  V30 10753 C 1014.14 -1.43618 1.23169 0
M  V30 10754 O 1013.48 -1.81801 0.263435 0
M  V30 10755 C 1013.54 -0.699748 3.52624 0
M  V30 10756 C 1013.21 0.383905 4.55385 0
M  V30 10757 C 1014.2 1.23129 5.05109 0
M  V30 10758 C 1011.89 0.541953 4.99368 0
M  V30 10759 C 1013.88 2.22214 5.97411 0
M  V30 10760 C 1011.57 1.53618 5.91477 0
M  V30 10761 C 1012.57 2.37471 6.40388 0
M  V30 10762 O 1012.25 3.35199 7.30682 0
M  V30 10763 H 1011.99 -0.0465364 0.674396 0
M  V30 10764 H 1014.54 0.512355 1.98907 0
M  V30 10765 H 1012.77 -1.49838 3.5649 0
M  V30 10766 H 1014.46 -1.21461 3.87301 0
M  V30 10767 H 1015.23 1.12035 4.71883 0
M  V30 10768 H 1011.1 -0.100929 4.6089 0
M  V30 10769 H 1014.65 2.87702 6.35511 0
M  V30 10770 H 1010.55 1.64763 6.24118 0
M  V30 10771 H 1011.31 3.30838 7.48658 0
M  V30 10772 N 1013.98 -1.5736 0.0868897 0
M  V30 10773 C 1015.25 -1.85495 -0.620561 0
M  V30 10774 C 1015.63 -0.982218 -1.86857 0
M  V30 10775 O 1014.98 -0.0524529 -2.2844 0
M  V30 10776 C 1015.19 -3.35996 -0.943798 0
M  V30 10777 C 1016.54 -4.03861 -1.31079 0
M  V30 10778 O 1017.56 -3.4083 -1.03507 0
M  V30 10779 O 1016.42 -5.15062 -1.82683 0
M  V30 10780 H 1013.52 -0.766822 -0.309697 0
M  V30 10781 H 1016.06 -1.69282 0.118966 0
M  V30 10782 H 1014.83 -3.91257 -0.0580628 0
M  V30 10783 H 1014.46 -3.57525 -1.73958 0
M  V30 10784 N 1015.45 0.186762 -1.56489 0
M  V30 10785 C 1016.38 1.23395 -1.98232 0
M  V30 10786 C 1017.37 1.4702 -0.855526 0
M  V30 10787 O 1018.55 1.58616 -1.12048 0
M  V30 10788 C 1015.68 2.57635 -2.32898 0
M  V30 10789 C 1014.63 2.48607 -3.48394 0
M  V30 10790 C 1013.96 3.87196 -3.68759 0
M  V30 10791 C 1015.26 2.00398 -4.82325 0
M  V30 10792 H 1016.95 0.887026 -2.85958 0
M  V30 10793 H 1014.5 0.42525 -1.37578 0
M  V30 10794 H 1016.45 3.31082 -2.60696 0
M  V30 10795 H 1015.18 2.94084 -1.42064 0
M  V30 10796 H 1013.84 1.77615 -3.207 0
M  V30 10797 H 1013.48 4.21012 -2.75241 0
M  V30 10798 H 1013.18 3.82029 -4.46462 0
M  V30 10799 H 1014.71 4.62253 -3.98941 0
M  V30 10800 H 1016.12 2.6361 -5.091 0
M  V30 10801 H 1014.52 2.06214 -5.63556 0
M  V30 10802 H 1015.59 0.957562 -4.75351 0
M  V30 10803 N 1016.93 1.50896 0.454776 0
M  V30 10804 C 1018.21 1.53227 1.21576 0
M  V30 10805 C 1018.59 0.286358 2.09149 0
M  V30 10806 O 1017.94 -0.729469 2.16543 0
M  V30 10807 C 1018.15 2.83693 2.03271 0
M  V30 10808 C 1019.5 3.34981 2.60908 0
M  V30 10809 O 1020.52 2.85126 2.13499 0
M  V30 10810 O 1019.38 4.21929 3.4733 0
M  V30 10811 H 1016.47 0.615306 0.552564 0
M  V30 10812 H 1019.02 1.63197 0.465266 0
M  V30 10813 H 1017.79 3.65839 1.38843 0
M  V30 10814 H 1017.41 2.76803 2.85422 0
M  V30 10815 N 1018.41 -0.709066 1.40748 0
M  V30 10816 C 1019.37 -1.80485 1.41272 0
M  V30 10817 C 1020.37 -1.57872 0.305463 0
M  V30 10818 O 1021.56 -1.64793 0.564691 0
M  V30 10819 C 1018.7 -3.1867 1.21087 0
M  V30 10820 H 1019.89 -1.81417 2.38805 0
M  V30 10821 H 1017.44 -0.915356 1.26692 0
M  V30 10822 H 1018.18 -3.23385 0.243406 0
M  V30 10823 H 1017.96 -3.36484 2.01299 0
M  V30 10824 H 1019.45 -3.98685 1.24257 0
M  V30 10825 N 1019.89 -1.26353 -0.941956 0
M  V30 10826 C 1021.13 -1.13071 -1.70277 0
M  V30 10827 C 1021.49 0.320699 -1.89303 0
M  V30 10828 O 1022.69 0.575624 -2.62564 0
M  V30 10829 C 1020.97 -1.87777 -3.04096 0
M  V30 10830 S 1022.52 -1.9054 -3.95272 0
M  V30 10831 H 1019.34 -0.403912 -0.585129 0
M  V30 10832 H 1021.94 -1.6006 -1.12254 0
M  V30 10833 H 1020.65 -2.92447 -2.87929 0
M  V30 10834 H 1020.18 -1.41226 -3.67177 0
M  V30 10835 H 1022.19 -0.991548 -4.86192 0
M  V30 10836 N 1021.37 1.14642 -1.08144 0
M  V30 10837 C 1022.64 1.81774 -0.72232 0
M  V30 10838 C 1023.02 1.95587 0.794294 0
M  V30 10839 O 1022.37 1.51361 1.71178 0
M  V30 10840 C 1022.58 3.1763 -1.44611 0
M  V30 10841 C 1023.93 3.93161 -1.60343 0
M  V30 10842 O 1024.95 3.2721 -1.40755 0
M  V30 10843 O 1023.81 5.11422 -1.9264 0
M  V30 10844 H 1020.91 0.785733 -0.257978 0
M  V30 10845 H 1023.45 1.21683 -1.18285 0
M  V30 10846 H 1022.23 3.02723 -2.4794 0
M  V30 10847 H 1021.85 3.85412 -0.976892 0
M  V30 10848 N 1022.85 0.866709 1.31628 0
M  V30 10849 C 1024.09 0.472185 1.96095 0
M  V30 10850 C 1024.41 -0.979873 1.69286 0
M  V30 10851 O 1025.61 -1.48039 2.27589 0
M  V30 10852 C 1024.07 0.793468 3.51044 0
M  V30 10853 C 1023.68 2.26206 3.86697 0
M  V30 10854 C 1025.42 0.467255 4.21921 0
M  V30 10855 C 1023.33 2.52593 5.34743 0
M  V30 10856 H 1022.26 0.172846 0.733921 0
M  V30 10857 H 1024.91 1.05916 1.49847 0
M  V30 10858 H 1023.29 0.135783 3.95767 0
M  V30 10859 H 1024.47 2.96254 3.52945 0
M  V30 10860 H 1022.78 2.55399 3.28877 0
M  V30 10861 H 1025.38 0.641669 5.30836 0
M  V30 10862 H 1025.72 -0.592065 4.12068 0
M  V30 10863 H 1026.25 1.08134 3.82821 0
M  V30 10864 H 1022.99 3.57196 5.49628 0
M  V30 10865 H 1022.51 1.87136 5.6986 0
M  V30 10866 H 1024.19 2.37156 6.01968 0
M  V30 10867 N 1024.32 -1.44642 0.625825 0
M  V30 10868 C 1025.26 -2.28882 -0.120614 0
M  V30 10869 C 1026.27 -1.40985 -0.81407 0
M  V30 10870 O 1027.46 -1.65188 -0.676404 0
M  V30 10871 C 1024.56 -3.17217 -1.19274 0
M  V30 10872 C 1023.73 -4.33499 -0.582839 0
M  V30 10873 C 1022.79 -5.02908 -1.54823 0
M  V30 10874 O 1021.82 -5.59102 -1.06743 0
M  V30 10875 N 1023.02 -5.0387 -2.88262 0
M  V30 10876 H 1025.78 -2.93585 0.602318 0
M  V30 10877 H 1023.34 -1.5503 0.466604 0
M  V30 10878 H 1025.34 -3.60515 -1.83878 0
M  V30 10879 H 1023.91 -2.54301 -1.81797 0
M  V30 10880 H 1023.13 -3.93458 0.241696 0
M  V30 10881 H 1024.41 -5.08561 -0.155914 0
M  V30 10882 H 1023.81 -4.59539 -3.2991 0
M  V30 10883 H 1022.37 -5.50974 -3.4824 0
M  V30 10884 N 1025.8 -0.366053 -1.5329 0
M  V30 10885 C 1026.71 0.488111 -2.29466 0
M  V30 10886 C 1027.73 1.09219 -1.35452 0
M  V30 10887 O 1028.9 1.10303 -1.68509 0
M  V30 10888 C 1025.97 1.61202 -3.06944 0
M  V30 10889 C 1025.03 1.03543 -4.16626 0
M  V30 10890 C 1024.26 2.10578 -4.904 0
M  V30 10891 O 1024.49 3.31697 -4.6404 0
M  V30 10892 O 1023.42 1.73609 -5.76319 0
M  V30 10893 H 1027.25 -0.131789 -3.03414 0
M  V30 10894 H 1024.83 -0.130421 -1.4883 0
M  V30 10895 H 1026.71 2.26546 -3.55324 0
M  V30 10896 H 1025.39 2.21732 -2.35832 0
M  V30 10897 H 1024.29 0.345892 -3.72498 0
M  V30 10898 H 1025.63 0.474687 -4.89906 0
M  V30 10899 N 1027.28 1.57312 -0.0952337 0
M  V30 10900 C 1028.23 2.14032 0.863657 0
M  V30 10901 C 1029.2 1.0589 1.27971 0
M  V30 10902 O 1030.38 1.33678 1.36143 0
M  V30 10903 C 1027.52 2.72513 2.11733 0
M  V30 10904 C 1026.63 3.94887 1.7518 0
M  V30 10905 C 1025.77 4.41533 2.95334 0
M  V30 10906 C 1024.81 5.56496 2.54908 0
M  V30 10907 N 1023.95 5.97993 3.67897 0
M  V30 10908 H 1028.79 2.95655 0.373115 0
M  V30 10909 H 1026.32 1.46085 0.172497 0
M  V30 10910 H 1028.28 3.04539 2.85153 0
M  V30 10911 H 1026.91 1.93618 2.58287 0
M  V30 10912 H 1025.96 3.69175 0.917279 0
M  V30 10913 H 1027.27 4.78322 1.41455 0
M  V30 10914 H 1026.43 4.75343 3.77007 0
M  V30 10915 H 1025.17 3.56999 3.3227 0
M  V30 10916 H 1024.17 5.22314 1.71662 0
M  V30 10917 H 1025.4 6.42779 2.19117 0
M  V30 10918 H 1023.34 5.16405 4.04551 0
M  V30 10919 H 1023.26 6.76225 3.38018 0
M  V30 10920 H 1024.53 6.36434 4.5008 0
M  V30 10921 N 1028.76 -0.17846 1.56586 0
M  V30 10922 C 1029.99 -0.910674 1.85446 0
M  V30 10923 C 1030.4 -1.76647 0.677675 0
M  V30 10924 O 1029.74 -1.80086 -0.362584 0
M  V30 10925 C 1029.8 -1.84363 3.08627 0
M  V30 10926 C 1029.46 -1.16814 4.41818 0
M  V30 10927 C 1030.46 -0.53703 5.17119 0
M  V30 10928 C 1028.15 -1.16703 4.88555 0
M  V30 10929 C 1030.14 0.0861778 6.37342 0
M  V30 10930 C 1027.83 -0.539992 6.0871 0
M  V30 10931 C 1028.83 0.0855135 6.82946 0
M  V30 10932 O 1028.51 0.70268 8.00823 0
M  V30 10933 H 1028.25 -0.270377 0.619574 0
M  V30 10934 H 1030.8 -0.185591 2.0456 0
M  V30 10935 H 1029.03 -2.60884 2.85441 0
M  V30 10936 H 1030.72 -2.44506 3.23993 0
M  V30 10937 H 1031.48 -0.529915 4.82096 0
M  V30 10938 H 1027.36 -1.64329 4.30717 0
M  V30 10939 H 1030.91 0.575011 6.95226 0
M  V30 10940 H 1026.8 -0.544666 6.43198 0
M  V30 10941 H 1027.57 0.601224 8.16289 0
M  V30 10942 N 1030.24 -1.51135 -0.446768 0
M  V30 10943 C 1031.65 -1.55919 -1.02694 0
M  V30 10944 C 1032 -0.377038 -1.92543 0
M  V30 10945 O 1031.12 0.507295 -2.1037 0
M  V30 10946 C 1031.72 -2.8257 -1.86922 0
M  V30 10947 C 1030.28 -2.89956 -2.40005 0
M  V30 10948 C 1029.42 -2.50482 -1.18971 0
M  V30 10949 H 1032.37 -1.57048 -0.228403 0
M  V30 10950 H 1032.4 -2.65799 -2.7227 0
M  V30 10951 H 1031.91 -3.6859 -1.21502 0
M  V30 10952 H 1030.01 -2.08343 -3.08907 0
M  V30 10953 H 1030.12 -3.93399 -2.73448 0
M  V30 10954 H 1028.49 -2.03466 -1.53211 0
M  V30 10955 H 1029.27 -3.38837 -0.551762 0
M  V30 10956 N 1031.71 0.701592 -1.41122 0
M  V30 10957 C 1032.99 1.45569 -1.30648 0
M  V30 10958 C 1033.37 2.10988 0.068744 0
M  V30 10959 O 1032.72 2.01228 1.08257 0
M  V30 10960 C 1032.93 2.48003 -2.45551 0
M  V30 10961 C 1034.28 3.13431 -2.86437 0
M  V30 10962 O 1035.3 2.58327 -2.45247 0
M  V30 10963 O 1034.16 4.13221 -3.57646 0
M  V30 10964 H 1031.25 0.648 -0.513834 0
M  V30 10965 H 1033.8 0.73258 -1.53073 0
M  V30 10966 H 1032.57 1.98276 -3.37346 0
M  V30 10967 H 1032.19 3.27832 -2.24971 0
M  V30 10968 N 1033.19 1.2685 0.935242 0
M  V30 10969 C 1034.12 1.1143 2.05196 0
M  V30 10970 C 1035.1 0.0178362 1.70091 0
M  V30 10971 O 1036.29 0.190951 1.93259 0
M  V30 10972 C 1033.42 0.752779 3.39044 0
M  V30 10973 C 1032.37 1.80164 3.88233 0
M  V30 10974 C 1031.7 1.29428 5.18799 0
M  V30 10975 C 1033 3.20431 4.12457 0
M  V30 10976 H 1034.69 2.04845 2.18355 0
M  V30 10977 H 1032.24 0.986276 1.04922 0
M  V30 10978 H 1034.19 0.631757 4.16637 0
M  V30 10979 H 1032.91 -0.217075 3.25878 0
M  V30 10980 H 1031.57 1.91144 3.12825 0
M  V30 10981 H 1031.22 0.3141 5.02018 0
M  V30 10982 H 1030.92 1.99546 5.5268 0
M  V30 10983 H 1032.45 1.18605 5.9897 0
M  V30 10984 H 1033.86 3.12495 4.80645 0
M  V30 10985 H 1032.26 3.88193 4.57631 0
M  V30 10986 H 1033.33 3.66046 3.18023 0
M  V30 10987 N 1034.67 -1.14067 1.0875 0
M  V30 10988 C 1035.92 -1.85185 0.819317 0
M  V30 10989 C 1036.25 -1.8314 -0.654969 0
M  V30 10990 O 1035.5 -1.25974 -1.49763 0
M  V30 10991 C 1035.8 -3.33273 1.29089 0
M  V30 10992 C 1035.47 -3.55504 2.77359 0
M  V30 10993 C 1034.13 -3.61279 3.17853 0
M  V30 10994 C 1036.48 -3.64041 3.72992 0
M  V30 10995 C 1033.81 -3.73119 4.52768 0
M  V30 10996 C 1036.16 -3.77407 5.07687 0
M  V30 10997 C 1034.82 -3.81433 5.47782 0
M  V30 10998 H 1034.09 -0.67764 0.299809 0
M  V30 10999 H 1036.74 -1.34713 1.36106 0
M  V30 11000 H 1035.05 -3.86049 0.668811 0
M  V30 11001 H 1036.74 -3.86734 1.06009 0
M  V30 11002 H 1033.33 -3.51659 2.45019 0
M  V30 11003 H 1037.52 -3.58866 3.42825 0
M  V30 11004 H 1032.77 -3.74499 4.83281 0
M  V30 11005 H 1036.95 -3.82956 5.81651 0
M  V30 11006 H 1034.57 -3.9036 6.52321 0
M  V30 11007 N 1036.15 -0.873678 -1.31166 0
M  V30 11008 C 1037.08 -0.289389 -2.27366 0
M  V30 11009 C 1038.09 0.549667 -1.5324 0
M  V30 11010 O 1039.28 0.371056 -1.74601 0
M  V30 11011 C 1036.38 0.60807 -3.334 0
M  V30 11012 C 1035.56 -0.199379 -4.36945 0
M  V30 11013 C 1034.61 0.626798 -5.22454 0
M  V30 11014 O 1033.64 0.0535121 -5.69175 0
M  V30 11015 N 1034.84 1.93809 -5.47191 0
M  V30 11016 H 1037.61 -1.1161 -2.78143 0
M  V30 11017 H 1035.17 -0.735529 -1.44228 0
M  V30 11018 H 1037.16 1.16656 -3.87522 0
M  V30 11019 H 1035.73 1.33545 -2.82638 0
M  V30 11020 H 1034.95 -0.939316 -3.82845 0
M  V30 11021 H 1036.24 -0.75329 -5.03193 0
M  V30 11022 H 1035.64 2.42693 -5.10995 0
M  V30 11023 H 1034.19 2.44428 -6.04234 0
M  V30 11024 N 1037.63 1.44308 -0.633487 0
M  V30 11025 C 1038.87 2.02322 -0.139123 0
M  V30 11026 C 1039.21 1.49733 1.23667 0
M  V30 11027 O 1038.48 0.682353 1.82138 0
M  V30 11028 C 1038.76 3.59871 -0.128366 0
M  V30 11029 C 1038.62 4.22737 -1.53667 0
M  V30 11030 C 1039.94 4.36702 0.545834 0
M  V30 11031 H 1037.05 0.735161 -0.0520293 0
M  V30 11032 H 1039.7 1.7185 -0.810411 0
M  V30 11033 H 1037.85 3.85963 0.443263 0
M  V30 11034 H 1039.52 4.07744 -2.15737 0
M  V30 11035 H 1037.76 3.80142 -2.08985 0
M  V30 11036 H 1038.43 5.31757 -1.48116 0
M  V30 11037 H 1040.91 4.16057 0.0596879 0
M  V30 11038 H 1039.78 5.46407 0.522557 0
M  V30 11039 H 1040.05 4.11483 1.6166 0
M  V30 11040 N 1039.1 0.374177 1.53094 0
M  V30 11041 C 1040.05 -0.48326 2.27524 0
M  V30 11042 C 1041.05 -1.07606 1.30833 0
M  V30 11043 O 1042.25 -1.01827 1.48429 0
M  V30 11044 H 1038.63 -0.174578 0.731455 0
M  V30 11045 H 1040.6 0.166156 2.97937 0
M  V30 11046 C 1039.35 -1.6065 3.08362 0
M  V30 11047 H 1038.67 -1.15966 3.82612 0
M  V30 11048 H 1040.11 -2.18099 3.63606 0
M  V30 11049 C 1038.57 -2.55381 2.19732 0
M  V30 11050 O 1039.1 -3.58414 1.8139 0
M  V30 11051 N 1037.31 -2.24769 1.84194 0
M  V30 11052 H 1036.85 -1.41018 2.15573 0
M  V30 11053 H 1036.81 -2.88404 1.25181 0
M  V30 11054 N 1040.58 -1.57259 0.103575 0
M  V30 11055 C 1041.51 -2.17509 -0.84923 0
M  V30 11056 C 1042.49 -1.11079 -1.28824 0
M  V30 11057 O 1043.68 -1.39252 -1.35361 0
M  V30 11058 C 1040.81 -2.76221 -2.10522 0
M  V30 11059 C 1039.76 -3.88098 -1.80454 0
M  V30 11060 C 1039.09 -4.33549 -3.12952 0
M  V30 11061 C 1040.39 -5.10909 -1.08486 0
M  V30 11062 H 1042.08 -2.9738 -0.347217 0
M  V30 11063 H 1039.63 -1.43045 -0.165568 0
M  V30 11064 H 1041.58 -3.17024 -2.77621 0
M  V30 11065 H 1040.31 -1.93617 -2.63021 0
M  V30 11066 H 1038.96 -3.47847 -1.15749 0
M  V30 11067 H 1038.61 -3.47825 -3.63355 0
M  V30 11068 H 1038.31 -5.08984 -2.93614 0
M  V30 11069 H 1039.84 -4.76992 -3.81196 0
M  V30 11070 H 1041.25 -5.48828 -1.65711 0
M  V30 11071 H 1039.65 -5.91828 -0.992973 0
M  V30 11072 H 1040.72 -4.84851 -0.0690108 0
M  V30 11073 N 1042.06 0.170153 -1.56679 0
M  V30 11074 C 1042.97 1.23057 -1.99735 0
M  V30 11075 C 1043.99 1.48374 -0.908912 0
M  V30 11076 O 1045.16 1.60499 -1.21663 0
M  V30 11077 C 1042.23 2.54944 -2.34956 0
M  V30 11078 C 1041.29 2.3748 -3.57634 0
M  V30 11079 C 1040.52 3.63078 -3.91165 0
M  V30 11080 O 1040.74 4.68304 -3.2565 0
M  V30 11081 O 1039.68 3.57119 -4.8451 0
M  V30 11082 H 1043.5 0.895104 -2.9021 0
M  V30 11083 H 1041.09 0.377109 -1.44562 0
M  V30 11084 H 1042.97 3.32742 -2.58574 0
M  V30 11085 H 1041.65 2.88068 -1.47643 0
M  V30 11086 H 1040.55 1.57709 -3.39232 0
M  V30 11087 H 1041.89 2.0928 -4.45491 0
M  V30 11088 N 1043.54 1.5137 0.438746 0
M  V30 11089 C 1044.78 1.64211 1.19006 0
M  V30 11090 C 1045.12 0.356607 1.90898 0
M  V30 11091 O 1044.39 -0.643722 1.83539 0
M  V30 11092 C 1044.68 2.8445 2.20817 0
M  V30 11093 C 1044.53 4.22972 1.53018 0
M  V30 11094 C 1045.85 3.00207 3.21813 0
M  V30 11095 H 1042.97 0.597628 0.431288 0
M  V30 11096 H 1045.61 1.8385 0.479487 0
M  V30 11097 H 1043.76 2.67836 2.81418 0
M  V30 11098 H 1045.43 4.5125 0.957654 0
M  V30 11099 H 1043.67 4.25736 0.832556 0
M  V30 11100 H 1044.34 5.03094 2.27158 0
M  V30 11101 H 1046.82 3.15522 2.71266 0
M  V30 11102 H 1045.7 3.85904 3.90345 0
M  V30 11103 H 1045.96 2.12216 3.87836 0
M  V30 11104 N 1045.02 -0.694098 1.41492 0
M  V30 11105 C 1045.93 -1.83778 1.45818 0
M  V30 11106 C 1046.94 -1.70471 0.348639 0
M  V30 11107 O 1048.12 -1.92361 0.596588 0
M  V30 11108 C 1045.18 -3.19771 1.33967 0
M  V30 11109 C 1044.24 -3.45175 2.5525 0
M  V30 11110 C 1043.48 -4.74681 2.43955 0
M  V30 11111 O 1043.7 -5.51268 1.46491 0
M  V30 11112 O 1042.63 -5.00901 3.33739 0
M  V30 11113 H 1046.46 -1.83084 2.42309 0
M  V30 11114 H 1044.05 -0.847349 1.23046 0
M  V30 11115 H 1045.93 -4.00961 1.29648 0
M  V30 11116 H 1044.6 -3.21145 0.405926 0
M  V30 11117 H 1043.51 -2.6391 2.65146 0
M  V30 11118 H 1044.84 -3.48617 3.47458 0
M  V30 11119 N 1046.49 -1.27344 -0.928501 0
M  V30 11120 C 1047.74 -1.13804 -1.67859 0
M  V30 11121 C 1048.07 0.31555 -1.91619 0
M  V30 11122 O 1047.35 1.23087 -1.50599 0
M  V30 11123 C 1047.63 -1.9213 -3.04562 0
M  V30 11124 C 1047.48 -3.45468 -2.88048 0
M  V30 11125 C 1048.8 -1.72513 -4.04879 0
M  V30 11126 H 1045.92 -0.414796 -0.609191 0
M  V30 11127 H 1048.56 -1.5649 -1.07753 0
M  V30 11128 H 1046.71 -1.55853 -3.55868 0
M  V30 11129 H 1048.39 -3.9157 -2.43865 0
M  V30 11130 H 1046.63 -3.71849 -2.23407 0
M  V30 11131 H 1047.3 -3.95515 -3.85061 0
M  V30 11132 H 1049.78 -2.04143 -3.62581 0
M  V30 11133 H 1048.65 -2.29713 -4.98521 0
M  V30 11134 H 1048.91 -0.672856 -4.3695 0
M  V30 11135 N 1047.97 1.13488 -1.09353 0
M  V30 11136 C 1048.88 2.2248 -0.744307 0
M  V30 11137 C 1049.9 1.72145 0.253404 0
M  V30 11138 O 1051.07 2.01176 0.0949339 0
M  V30 11139 C 1048.14 3.46286 -0.16928 0
M  V30 11140 C 1047.2 4.11516 -1.22284 0
M  V30 11141 C 1046.43 5.29412 -0.675161 0
M  V30 11142 O 1046.66 5.68185 0.502182 0
M  V30 11143 O 1045.59 5.8467 -1.42983 0
M  V30 11144 H 1049.42 2.54723 -1.65378 0
M  V30 11145 H 1047 1.21607 -0.867879 0
M  V30 11146 H 1048.88 4.2114 0.14811 0
M  V30 11147 H 1047.56 3.15745 0.713214 0
M  V30 11148 H 1046.47 3.38492 -1.59292 0
M  V30 11149 H 1047.8 4.46186 -2.07796 0
M  V30 11150 N 1049.45 0.880621 1.30701 0
M  V30 11151 C 1050.86 0.547993 1.78477 0
M  V30 11152 C 1051.21 -0.935633 1.72454 0
M  V30 11153 O 1050.34 -1.73094 1.29874 0
M  V30 11154 C 1050.93 0.98795 3.24076 0
M  V30 11155 C 1049.49 0.706805 3.69704 0
M  V30 11156 C 1048.64 1.17335 2.51252 0
M  V30 11157 H 1051.59 1.06528 1.17633 0
M  V30 11158 H 1051.61 0.31508 3.79193 0
M  V30 11159 H 1051.12 2.06778 3.28427 0
M  V30 11160 H 1049.22 -0.36122 3.70845 0
M  V30 11161 H 1049.34 1.2913 4.6137 0
M  V30 11162 H 1047.7 0.592808 2.47705 0
M  V30 11163 H 1048.48 2.26083 2.58343 0
M  V30 11164 N 1050.93 -1.4397 0.641131 0
M  V30 11165 C 1052.35 -1.56607 0.30762 0
M  V30 11166 C 1052.55 -1.62694 -1.18882 0
M  V30 11167 O 1051.6 -1.57541 -1.97325 0
M  V30 11168 C 1052.91 -2.83289 1.00834 0
M  V30 11169 C 1054.46 -2.97016 0.98744 0
M  V30 11170 C 1054.94 -4.26514 1.66882 0
M  V30 11171 N 1056.43 -4.33351 1.63589 0
M  V30 11172 C 1057.16 -5.32292 2.13196 0
M  V30 11173 N 1056.66 -6.37582 2.71038 0
M  V30 11174 N 1058.45 -5.23866 2.03766 0
M  V30 11175 H 1050.6 -1.38262 1.61237 0
M  V30 11176 H 1052.87 -0.663221 0.677378 0
M  V30 11177 H 1052.57 -2.84812 2.06337 0
M  V30 11178 H 1052.45 -3.73134 0.552333 0
M  V30 11179 H 1054.83 -2.95041 -0.0591395 0
M  V30 11180 H 1054.91 -2.08493 1.48203 0
M  V30 11181 H 1054.56 -4.2925 2.71491 0
M  V30 11182 H 1054.49 -5.13912 1.14898 0
M  V30 11183 H 1056.98 -3.5788 1.21368 0
M  V30 11184 H 1057.29 -7.09378 3.06597 0
M  V30 11185 H 1055.64 -6.38239 2.75093 0
M  V30 11186 H 1058.83 -4.40524 1.58291 0
M  V30 11187 H 1059 -6.00819 2.42737 0
M  V30 11188 N 1052.41 -0.382291 -1.52893 0
M  V30 11189 C 1053.68 0.259354 -1.93873 0
M  V30 11190 C 1054.06 1.64964 -1.3172 0
M  V30 11191 O 1053.41 2.23345 -0.482611 0
M  V30 11192 C 1053.62 0.292765 -3.4777 0
M  V30 11193 C 1054.97 0.525095 -4.21341 0
M  V30 11194 O 1055.99 0.373272 -3.54239 0
M  V30 11195 O 1054.85 0.822004 -5.40283 0
M  V30 11196 H 1051.95 0.159422 -0.811489 0
M  V30 11197 H 1054.49 -0.436289 -1.63996 0
M  V30 11198 H 1053.27 -0.681341 -3.85323 0
M  V30 11199 H 1052.89 1.03362 -3.8393 0
M  V30 11200 N 1053.89 1.57202 -0.111913 0
M  V30 11201 C 1055.3 1.57713 0.244702 0
M  V30 11202 C 1055.5 1.12419 1.67225 0
M  V30 11203 O 1054.56 0.808329 2.39212 0
M  V30 11204 C 1055.87 3.00695 0.0178289 0
M  V30 11205 C 1057.42 3.12887 0.0842781 0
M  V30 11206 C 1057.89 4.57856 -0.114812 0
M  V30 11207 N 1059.38 4.6316 -0.0605423 0
M  V30 11208 C 1060.12 5.73086 -0.189594 0
M  V30 11209 N 1059.62 6.91787 -0.37442 0
M  V30 11210 N 1061.41 5.6195 -0.12967 0
M  V30 11211 H 1053.56 1.84947 -1.04443 0
M  V30 11212 H 1055.82 0.854418 -0.4107 0
M  V30 11213 H 1055.53 3.38093 -0.968802 0
M  V30 11214 H 1055.4 3.69611 0.752815 0
M  V30 11215 H 1057.79 2.7535 1.06143 0
M  V30 11216 H 1057.87 2.46528 -0.682474 0
M  V30 11217 H 1057.51 4.9609 -1.0889 0
M  V30 11218 H 1057.44 5.22297 0.671839 0
M  V30 11219 H 1059.94 3.77817 0.0790856 0
M  V30 11220 H 1060.25 7.71406 -0.463948 0
M  V30 11221 H 1058.59 6.93788 -0.410303 0
M  V30 11222 H 1061.78 4.68098 0.0137115 0
M  V30 11223 H 1061.96 6.47578 -0.233688 0
M  V30 11224 N 1055.36 -0.161842 1.56767 0
M  V30 11225 C 1056.77 -0.723385 1.72116 0
M  V30 11226 C 1057.13 -1.82355 0.723961 0
M  V30 11227 O 1056.25 -2.16107 -0.112643 0
M  V30 11228 C 1056.85 -1.31895 3.12072 0
M  V30 11229 C 1055.4 -1.82722 3.29074 0
M  V30 11230 C 1054.55 -0.709863 2.6806 0
M  V30 11231 H 1057.5 0.0636647 1.58572 0
M  V30 11232 H 1057.52 -2.18871 3.11249 0
M  V30 11233 H 1057.04 -0.51801 3.84627 0
M  V30 11234 H 1055.14 -2.6543 2.61491 0
M  V30 11235 H 1055.25 -1.96614 4.36898 0
M  V30 11236 H 1053.61 -1.13273 2.28126 0
M  V30 11237 H 1054.4 0.0793884 3.43208 0
M  V30 11238 N 1056.84 -1.516 -0.430713 0
M  V30 11239 C 1058.07 -1.687 -1.20644 0
M  V30 11240 C 1058.49 -0.386555 -1.84085 0
M  V30 11241 O 1057.85 0.653952 -1.69095 0
M  V30 11242 C 1057.9 -2.80887 -2.2613 0
M  V30 11243 O 1057 -2.44952 -3.31772 0
M  V30 11244 H 1056.34 -0.562289 -0.353167 0
M  V30 11245 H 1058.87 -1.98198 -0.507807 0
M  V30 11246 H 1058.88 -3.05167 -2.70809 0
M  V30 11247 H 1057.56 -3.75249 -1.79334 0
M  V30 11248 H 1056.13 -2.31267 -2.92523 0
M  V30 11249 N 1058.32 0.686584 -1.41858 0
M  V30 11250 C 1059.74 0.998283 -1.24525 0
M  V30 11251 C 1059.94 2.01006 -0.141007 0
M  V30 11252 O 1058.99 2.47667 0.491648 0
M  V30 11253 C 1060.3 1.51432 -2.59786 0
M  V30 11254 C 1061.85 1.6327 -2.67043 0
M  V30 11255 C 1062.33 2.18274 -4.02642 0
M  V30 11256 N 1063.82 2.25622 -4.04535 0
M  V30 11257 C 1064.55 2.69229 -5.06264 0
M  V30 11258 N 1064.05 3.12375 -6.1838 0
M  V30 11259 N 1065.84 2.68873 -4.93623 0
M  V30 11260 H 1057.99 0.0164825 -2.12394 0
M  V30 11261 H 1060.26 0.0698613 -0.945422 0
M  V30 11262 H 1059.96 0.845426 -3.41388 0
M  V30 11263 H 1059.84 2.49502 -2.82894 0
M  V30 11264 H 1062.22 2.29269 -1.85794 0
M  V30 11265 H 1062.3 0.637221 -2.47736 0
M  V30 11266 H 1061.95 1.52887 -4.84343 0
M  V30 11267 H 1061.88 3.18591 -4.19294 0
M  V30 11268 H 1064.37 1.95186 -3.23591 0
M  V30 11269 H 1064.68 3.44301 -6.91864 0
M  V30 11270 H 1063.03 3.10262 -6.21902 0
M  V30 11271 H 1066.22 2.34521 -4.05114 0
M  V30 11272 H 1066.39 3.02539 -5.7304 0
M  V30 11273 N 1059.8 1.27835 0.921735 0
M  V30 11274 C 1060.71 1.12904 2.05645 0
M  V30 11275 C 1061.72 0.0575704 1.73905 0
M  V30 11276 O 1062.9 0.265261 1.99645 0
M  V30 11277 C 1059.96 0.783957 3.3772 0
M  V30 11278 C 1059.03 1.93694 3.8312 0
M  V30 11279 C 1058.26 1.60823 5.08893 0
M  V30 11280 O 1058.48 0.518873 5.68035 0
M  V30 11281 O 1057.42 2.44932 5.49811 0
M  V30 11282 H 1061.24 2.08143 2.21157 0
M  V30 11283 H 1058.83 1.07078 1.04185 0
M  V30 11284 H 1060.71 0.605107 4.17033 0
M  V30 11285 H 1059.38 -0.138849 3.23402 0
M  V30 11286 H 1058.29 2.17089 3.04669 0
M  V30 11287 H 1059.62 2.84016 4.0199 0
M  V30 11288 N 1061.28 -1.12907 1.09954 0
M  V30 11289 C 1062.24 -2.16673 0.747364 0
M  V30 11290 C 1063.24 -1.59208 -0.225741 0
M  V30 11291 O 1064.43 -1.742 -0.00322482 0
M  V30 11292 C 1061.56 -3.40735 0.106169 0
M  V30 11293 H 1062.75 -2.49341 1.6664 0
M  V30 11294 H 1060.31 -1.27828 0.899421 0
M  V30 11295 H 1061.04 -3.13661 -0.82384 0
M  V30 11296 H 1060.83 -3.83717 0.806434 0
M  V30 11297 H 1062.32 -4.17414 -0.12464 0
M  V30 11298 N 1062.75 -0.88754 -1.30232 0
M  V30 11299 C 1064.16 -0.55745 -1.78184 0
M  V30 11300 C 1064.52 0.926474 -1.72948 0
M  V30 11301 O 1063.64 1.72403 -1.3079 0
M  V30 11302 C 1064.24 -1.00512 -3.23547 0
M  V30 11303 C 1062.79 -0.726402 -3.69324 0
M  V30 11304 C 1061.94 -1.18666 -2.50627 0
M  V30 11305 H 1064.89 -1.07151 -1.17066 0
M  V30 11306 H 1064.91 -0.335185 -3.79021 0
M  V30 11307 H 1064.43 -2.08517 -3.27326 0
M  V30 11308 H 1062.53 0.341548 -3.71031 0
M  V30 11309 H 1062.64 -1.31575 -4.60679 0
M  V30 11310 H 1061 -0.605936 -2.47387 0
M  V30 11311 H 1061.79 -2.2745 -2.57141 0
M  V30 11312 N 1064.23 1.43628 -0.648757 0
M  V30 11313 C 1065.64 1.85142 -0.24066 0
M  V30 11314 C 1065.99 1.54304 1.21181 0
M  V30 11315 O 1065.12 0.989792 1.92437 0
M  V30 11316 C 1065.71 3.3606 -0.429999 0
M  V30 11317 C 1064.27 3.76323 -0.0762588 0
M  V30 11318 C 1063.42 2.67382 -0.734999 0
M  V30 11319 H 1066.37 1.33844 -0.852734 0
M  V30 11320 H 1066.39 3.79102 0.325836 0
M  V30 11321 H 1065.9 3.58474 -1.48721 0
M  V30 11322 H 1064.01 3.59521 0.978529 0
M  V30 11323 H 1064.12 4.76498 -0.498612 0
M  V30 11324 H 1062.48 2.54141 -0.168644 0
M  V30 11325 H 1063.27 2.92625 -1.79515 0
M  V30 11326 N 1065.71 0.390394 1.52688 0
M  V30 11327 C 1066.96 -0.184195 2.02564 0
M  V30 11328 C 1067.31 -1.44379 1.27171 0
M  V30 11329 O 1066.6 -1.88112 0.36395 0
M  V30 11330 C 1066.8 -0.50468 3.53819 0
M  V30 11331 C 1066.63 0.722304 4.43861 0
M  V30 11332 C 1065.4 1.24189 4.89801 0
M  V30 11333 C 1067.6 1.59494 4.88944 0
M  V30 11334 N 1065.58 2.42631 5.63918 0
M  V30 11335 C 1066.95 2.62577 5.61652 0
M  V30 11336 C 1069 1.61491 4.70983 0
M  V30 11337 C 1067.71 3.67544 6.18307 0
M  V30 11338 C 1069.73 2.65365 5.28522 0
M  V30 11339 C 1069.09 3.6717 6.01137 0
M  V30 11340 H 1065.19 -0.0294605 0.781445 0
M  V30 11341 H 1067.78 0.54053 1.87046 0
M  V30 11342 H 1065.95 -1.19846 3.69448 0
M  V30 11343 H 1067.68 -1.06652 3.90394 0
M  V30 11344 H 1064.44 0.802731 4.66747 0
M  V30 11345 H 1064.86 3.02564 6.05627 0
M  V30 11346 H 1069.5 0.841291 4.14345 0
M  V30 11347 H 1067.22 4.45773 6.74027 0
M  V30 11348 H 1070.81 2.67795 5.16505 0
M  V30 11349 H 1069.69 4.46228 6.44864 0
M  V30 11350 N 1067.19 -1.57141 0.120249 0
M  V30 11351 C 1068.1 -2.18925 -0.843155 0
M  V30 11352 C 1069.11 -1.16575 -1.29175 0
M  V30 11353 O 1070.29 -1.4905 -1.35448 0
M  V30 11354 C 1067.36 -2.7775 -2.075 0
M  V30 11355 C 1066.42 -3.95139 -1.6782 0
M  V30 11356 C 1065.65 -4.51149 -2.85132 0
M  V30 11357 O 1065.87 -4.06056 -4.00593 0
M  V30 11358 O 1064.81 -5.41815 -2.62145 0
M  V30 11359 H 1068.63 -3.01707 -0.347357 0
M  V30 11360 H 1066.22 -1.49028 -0.105427 0
M  V30 11361 H 1068.1 -3.15243 -2.79643 0
M  V30 11362 H 1066.77 -1.97998 -2.56083 0
M  V30 11363 H 1065.68 -3.62412 -0.927807 0
M  V30 11364 H 1067.01 -4.7633 -1.23977 0
M  V30 11365 N 1068.67 0.153526 -1.5685 0
M  V30 11366 C 1069.61 1.20896 -1.98713 0
M  V30 11367 C 1070.61 1.44839 -0.878529 0
M  V30 11368 O 1071.81 1.45208 -1.0637 0
M  V30 11369 H 1068.19 0.406797 -0.632472 0
M  V30 11370 H 1070.16 0.829145 -2.86649 0
M  V30 11371 C 1068.91 2.53642 -2.37825 0
M  V30 11372 H 1068.23 2.36047 -3.22679 0
M  V30 11373 H 1069.67 3.26136 -2.70946 0
M  V30 11374 C 1068.13 3.13706 -1.22841 0
M  V30 11375 O 1068.66 3.98246 -0.525626 0
M  V30 11376 N 1066.87 2.73059 -0.99435 0
M  V30 11377 H 1066.41 2.0441 -1.56761 0
M  V30 11378 H 1066.37 3.1358 -0.226883 0
M  V30 11379 N 1070.14 1.51827 0.422667 0
M  V30 11380 C 1071.37 1.69337 1.19748 0
M  V30 11381 C 1071.79 0.396312 1.83878 0
M  V30 11382 O 1071.15 -0.644976 1.6944 0
M  V30 11383 C 1071.2 2.82082 2.24637 0
M  V30 11384 O 1070.3 2.46708 3.30468 0
M  V30 11385 H 1069.65 0.564154 0.35018 0
M  V30 11386 H 1072.18 1.98465 0.497289 0
M  V30 11387 H 1072.19 3.06599 2.69186 0
M  V30 11388 H 1070.86 3.76195 1.77341 0
M  V30 11389 H 1069.44 2.32815 2.91293 0
M  V30 11390 N 1071.62 -0.679052 1.4222 0
M  V30 11391 C 1072.85 -1.47248 1.46058 0
M  V30 11392 C 1073.27 -1.87962 0.0720987 0
M  V30 11393 O 1072.63 -1.5572 -0.928488 0
M  V30 11394 C 1072.68 -2.70067 2.38948 0
M  V30 11395 O 1071.78 -3.68178 1.85791 0
M  V30 11396 H 1071.12 -0.442533 0.495036 0
M  V30 11397 H 1073.65 -0.833263 1.86863 0
M  V30 11398 H 1073.66 -3.18187 2.55385 0
M  V30 11399 H 1072.34 -2.39773 3.39826 0
M  V30 11400 H 1070.92 -3.2719 1.78889 0
M  V30 11401 N 1073.1 -1.28322 -0.914942 0
M  V30 11402 C 1074.03 -1.06469 -2.01841 0
M  V30 11403 C 1075.01 0.0188681 -1.62589 0
M  V30 11404 O 1076.2 -0.128825 -1.88059 0
M  V30 11405 C 1073.32 -0.617685 -3.3302 0
M  V30 11406 C 1072.37 -1.6977 -3.91255 0
M  V30 11407 S 1073.2 -3.29337 -4.22253 0
M  V30 11408 C 1074.36 -2.86468 -5.56495 0
M  V30 11409 H 1074.59 -1.99893 -2.20068 0
M  V30 11410 H 1072.12 -1.12297 -1.05966 0
M  V30 11411 H 1074.08 -0.366481 -4.08861 0
M  V30 11412 H 1072.74 0.296709 -3.12695 0
M  V30 11413 H 1071.94 -1.33653 -4.85956 0
M  V30 11414 H 1071.54 -1.90164 -3.22046 0
M  V30 11415 H 1073.83 -2.32565 -6.36333 0
M  V30 11416 H 1074.77 -3.79962 -5.97523 0
M  V30 11417 H 1075.18 -2.2522 -5.17626 0
M  V30 11418 N 1074.58 1.12322 -1.10551 0
M  V30 11419 C 1075.99 1.35858 -0.837543 0
M  V30 11420 C 1076.19 1.94062 0.54241 0
M  V30 11421 O 1075.25 2.1676 1.29505 0
M  V30 11422 C 1076.56 2.299 -1.9382 0
M  V30 11423 C 1078.11 2.43488 -1.96679 0
M  V30 11424 C 1078.59 3.40846 -3.05922 0
M  V30 11425 N 1080.08 3.48404 -3.05236 0
M  V30 11426 C 1080.81 4.2365 -3.86405 0
M  V30 11427 N 1080.31 5.01951 -4.77512 0
M  V30 11428 N 1082.1 4.19068 -3.74618 0
M  V30 11429 H 1074.25 0.729002 -1.99498 0
M  V30 11430 H 1076.52 0.38339 -0.867016 0
M  V30 11431 H 1076.22 1.94309 -2.9315 0
M  V30 11432 H 1076.1 3.30033 -1.82641 0
M  V30 11433 H 1078.48 2.78359 -0.979813 0
M  V30 11434 H 1078.56 1.43239 -2.11934 0
M  V30 11435 H 1078.21 3.06704 -4.04839 0
M  V30 11436 H 1078.14 4.40927 -2.87907 0
M  V30 11437 H 1080.63 2.92545 -2.39219 0
M  V30 11438 H 1080.94 5.56707 -5.36002 0
M  V30 11439 H 1079.29 5.01143 -4.8154 0
M  V30 11440 H 1082.48 3.5698 -3.02792 0
M  V30 11441 H 1082.65 4.77455 -4.38111 0
M  V30 11442 N 1076.06 0.894434 1.2976 0
M  V30 11443 C 1077.3 0.516646 1.95385 0
M  V30 11444 C 1077.63 -0.939141 1.70895 0
M  V30 11445 O 1076.9 -1.66153 1.03778 0
M  V30 11446 H 1075.48 0.188072 0.722937 0
M  V30 11447 H 1078.14 1.13958 1.58113 0
M  V30 11448 H 1077.23 0.694819 3.04267 0
M  V30 11449 N 1077.53 -1.43282 0.656365 0
M  V30 11450 C 1078.46 -2.33492 -0.0196962 0
M  V30 11451 C 1079.45 -1.49647 -0.80868 0
M  V30 11452 O 1080.63 -1.78303 -0.769529 0
M  V30 11453 C 1077.76 -3.33052 -0.984574 0
M  V30 11454 C 1076.71 -4.26908 -0.305483 0
M  V30 11455 C 1076.04 -5.16531 -1.38202 0
M  V30 11456 C 1077.34 -5.16073 0.804081 0
M  V30 11457 H 1079.03 -2.90272 0.733661 0
M  V30 11458 H 1076.58 -1.39574 0.354259 0
M  V30 11459 H 1078.53 -3.9506 -1.46647 0
M  V30 11460 H 1077.26 -2.74535 -1.76913 0
M  V30 11461 H 1075.92 -3.66268 0.155995 0
M  V30 11462 H 1075.56 -4.54351 -2.1581 0
M  V30 11463 H 1075.26 -5.80148 -0.932878 0
M  V30 11464 H 1076.79 -5.81414 -1.86522 0
M  V30 11465 H 1078.2 -5.71873 0.404212 0
M  V30 11466 H 1076.6 -5.88427 1.17789 0
M  V30 11467 H 1077.67 -4.55574 1.66073 0
M  V30 11468 N 1079.01 -0.398486 -1.52479 0
M  V30 11469 C 1079.96 0.447001 -2.28264 0
M  V30 11470 C 1080.96 1.05511 -1.32529 0
M  V30 11471 O 1082.16 0.994528 -1.5003 0
M  V30 11472 H 1078.54 0.162919 -0.73414 0
M  V30 11473 H 1080.51 -0.213534 -2.97635 0
M  V30 11474 C 1079.26 1.55724 -3.10879 0
M  V30 11475 H 1078.58 1.09864 -3.84409 0
M  V30 11476 H 1080.02 2.12286 -3.67029 0
M  V30 11477 C 1078.48 2.51853 -2.23768 0
M  V30 11478 O 1079.01 3.55483 -1.87069 0
M  V30 11479 N 1077.21 2.2181 -1.87746 0
M  V30 11480 H 1076.76 1.3757 -2.17789 0
M  V30 11481 H 1076.72 2.86376 -1.29753 0
M  V30 11482 N 1080.49 1.57075 -0.12858 0
M  V30 11483 C 1081.9 1.82468 0.39526 0
M  V30 11484 C 1082.25 1.0463 1.65973 0
M  V30 11485 O 1081.38 0.285835 2.14504 0
M  V30 11486 C 1081.97 3.30976 0.723889 0
M  V30 11487 C 1080.53 3.57016 1.19232 0
M  V30 11488 C 1079.68 2.76534 0.205907 0
M  V30 11489 H 1082.63 1.54711 -0.353571 0
M  V30 11490 H 1082.65 3.46127 1.58039 0
M  V30 11491 H 1082.16 3.87602 -0.196595 0
M  V30 11492 H 1080.26 3.05758 2.12938 0
M  V30 11493 H 1080.38 4.65558 1.13103 0
M  V30 11494 H 1078.74 2.45038 0.694872 0
M  V30 11495 H 1079.52 3.35923 -0.707842 0
M  V30 11496 N 1081.97 -0.145205 1.5693 0
M  V30 11497 C 1082.92 -1.17923 1.98401 0
M  V30 11498 C 1083.89 -1.42591 0.851885 0
M  V30 11499 O 1085.07 -1.54896 1.11409 0
M  V30 11500 C 1082.21 -2.50727 2.37128 0
M  V30 11501 C 1081.32 -2.33218 3.63639 0
M  V30 11502 C 1080.46 -3.5907 3.91462 0
M  V30 11503 C 1079.5 -3.36605 5.11237 0
M  V30 11504 N 1078.64 -4.54592 5.35061 0
M  V30 11505 H 1083.48 -0.818573 2.86537 0
M  V30 11506 H 1081.01 -0.392739 1.4176 0
M  V30 11507 H 1082.97 -3.28165 2.57611 0
M  V30 11508 H 1081.6 -2.84736 1.52069 0
M  V30 11509 H 1080.65 -1.46826 3.50922 0
M  V30 11510 H 1081.96 -2.12579 4.51234 0
M  V30 11511 H 1081.12 -4.44936 4.12453 0
M  V30 11512 H 1079.86 -3.82715 3.02293 0
M  V30 11513 H 1078.86 -2.49127 4.90118 0
M  V30 11514 H 1080.09 -3.14357 6.01961 0
M  V30 11515 H 1078.03 -4.78406 4.48847 0
M  V30 11516 H 1077.95 -4.36962 6.16928 0
M  V30 11517 H 1079.22 -5.41666 5.60551 0
M  V30 11518 N 1083.45 -1.52049 -0.414609 0
M  V30 11519 C 1084.7 -1.65067 -1.15912 0
M  V30 11520 C 1085.01 -0.383969 -1.91794 0
M  V30 11521 O 1086.22 -0.393872 -2.68628 0
M  V30 11522 C 1084.67 -2.91611 -2.1093 0
M  V30 11523 C 1084.28 -4.25369 -1.4059 0
M  V30 11524 C 1086.02 -3.13992 -2.85674 0
M  V30 11525 C 1083.93 -5.43041 -2.34223 0
M  V30 11526 H 1082.86 -0.614884 -0.436387 0
M  V30 11527 H 1085.51 -1.78533 -0.424072 0
M  V30 11528 H 1083.89 -2.71831 -2.87965 0
M  V30 11529 H 1085.07 -4.55611 -0.689568 0
M  V30 11530 H 1083.38 -4.09047 -0.779088 0
M  V30 11531 H 1085.98 -3.99082 -3.55861 0
M  V30 11532 H 1086.32 -2.27998 -3.48314 0
M  V30 11533 H 1086.86 -3.34217 -2.1574 0
M  V30 11534 H 1083.59 -6.31364 -1.76238 0
M  V30 11535 H 1083.11 -5.17144 -3.03845 0
M  V30 11536 H 1084.79 -5.75901 -2.94868 0
M  V30 11537 N 1084.93 0.6715 -1.42579 0
M  V30 11538 C 1085.86 1.79693 -1.49107 0
M  V30 11539 C 1086.84 1.66516 -0.347338 0
M  V30 11540 O 1088.02 1.85887 -0.562094 0
M  V30 11541 C 1085.15 3.1801 -1.39596 0
M  V30 11542 C 1084.11 3.45926 -2.5203 0
M  V30 11543 C 1083.43 4.83852 -2.27577 0
M  V30 11544 C 1084.73 3.4249 -3.94333 0
M  V30 11545 H 1086.43 1.74486 -2.433 0
M  V30 11546 H 1083.97 0.838042 -1.17102 0
M  V30 11547 H 1085.92 3.96478 -1.42771 0
M  V30 11548 H 1084.65 3.23901 -0.418989 0
M  V30 11549 H 1083.31 2.6982 -2.48178 0
M  V30 11550 H 1082.96 4.86398 -1.28165 0
M  V30 11551 H 1082.66 5.03493 -3.02934 0
M  V30 11552 H 1084.18 5.646 -2.32506 0
M  V30 11553 H 1085.59 4.10922 -3.9977 0
M  V30 11554 H 1083.99 3.73666 -4.69568 0
M  V30 11555 H 1085.06 2.41002 -4.20768 0
M  V30 11556 N 1086.4 1.28806 0.908124 0
M  V30 11557 C 1087.65 1.16287 1.65781 0
M  V30 11558 C 1087.98 -0.287389 1.92365 0
M  V30 11559 O 1087.23 -1.22491 1.52625 0
M  V30 11560 C 1087.53 1.91267 3.01914 0
M  V30 11561 C 1087.2 3.41033 2.9497 0
M  V30 11562 C 1085.86 3.81879 2.92783 0
M  V30 11563 C 1088.21 4.36507 2.848 0
M  V30 11564 C 1085.54 5.16529 2.78235 0
M  V30 11565 C 1087.89 5.71237 2.71792 0
M  V30 11566 C 1086.56 6.11351 2.67967 0
M  V30 11567 H 1085.83 0.425526 0.606637 0
M  V30 11568 H 1088.47 1.59646 1.05762 0
M  V30 11569 H 1086.78 1.40474 3.65752 0
M  V30 11570 H 1088.48 1.78992 3.58835 0
M  V30 11571 H 1085.07 3.08561 2.97469 0
M  V30 11572 H 1089.25 4.05909 2.85573 0
M  V30 11573 H 1084.51 5.4673 2.73672 0
M  V30 11574 H 1088.68 6.44872 2.62892 0
M  V30 11575 H 1086.31 7.15637 2.56451 0
M  V30 11576 N 1087.88 -1.11734 1.11145 0
M  V30 11577 C 1089.11 -1.87755 0.881062 0
M  V30 11578 C 1089.53 -1.79461 -0.563496 0
M  V30 11579 O 1088.89 -1.15481 -1.39763 0
M  V30 11580 C 1088.94 -3.34641 1.34342 0
M  V30 11581 O 1088.04 -4.09195 0.513157 0
M  V30 11582 H 1087.38 -0.583111 0.317613 0
M  V30 11583 H 1089.91 -1.41256 1.48013 0
M  V30 11584 H 1089.92 -3.85486 1.33658 0
M  V30 11585 H 1088.6 -3.39994 2.39534 0
M  V30 11586 H 1087.17 -3.68269 0.585833 0
M  V30 11587 N 1089.36 -0.901303 -1.29284 0
M  V30 11588 C 1090.58 -0.542823 -2.0017 0
M  V30 11589 C 1091.01 0.865583 -1.67001 0
M  V30 11590 O 1090.37 1.5764 -0.895502 0
M  V30 11591 C 1090.42 -0.743987 -3.52842 0
M  V30 11592 O 1089.52 0.202771 -4.11901 0
M  V30 11593 H 1088.86 -0.211903 -0.62928 0
M  V30 11594 H 1091.39 -1.21333 -1.64741 0
M  V30 11595 H 1091.4 -0.64926 -4.02801 0
M  V30 11596 H 1090.08 -1.77077 -3.7632 0
M  V30 11597 H 1088.65 0.0603637 -3.72851 0
M  V30 11598 N 1090.84 1.42931 -0.663954 0
M  V30 11599 C 1092.25 1.56098 -0.332496 0
M  V30 11600 C 1092.45 1.64564 1.16279 0
M  V30 11601 O 1091.51 1.6066 1.94794 0
M  V30 11602 C 1092.82 2.81649 -1.05329 0
M  V30 11603 C 1094.37 2.95408 -1.03457 0
M  V30 11604 C 1094.85 4.23805 -1.73647 0
M  V30 11605 N 1096.34 4.30693 -1.70462 0
M  V30 11606 C 1097.07 5.28833 -2.21637 0
M  V30 11607 N 1096.57 6.33189 -2.81147 0
M  V30 11608 N 1098.36 5.20558 -2.12075 0
M  V30 11609 H 1090.51 1.3568 -1.63416 0
M  V30 11610 H 1092.77 0.652361 -0.687844 0
M  V30 11611 H 1092.48 2.81494 -2.10842 0
M  V30 11612 H 1092.35 3.72208 -0.611626 0
M  V30 11613 H 1094.74 2.95097 0.0121936 0
M  V30 11614 H 1094.82 2.06109 -1.51502 0
M  V30 11615 H 1094.47 4.24876 -2.78285 0
M  V30 11616 H 1094.4 5.12019 -1.2306 0
M  V30 11617 H 1096.89 3.55904 -1.27046 0
M  V30 11618 H 1097.2 7.04411 -3.17844 0
M  V30 11619 H 1095.55 6.33781 -2.85212 0
M  V30 11620 H 1098.74 4.3795 -1.6528 0
M  V30 11621 H 1098.91 5.96881 -2.52264 0
M  V30 11622 N 1092.32 0.406567 1.52266 0
M  V30 11623 C 1093.23 -0.4271 2.30679 0
M  V30 11624 C 1094.24 -1.0559 1.383 0
M  V30 11625 O 1095.42 -1.05797 1.71374 0
M  V30 11626 C 1092.48 -1.53008 3.1111 0
M  V30 11627 C 1091.54 -0.924604 4.19225 0
M  V30 11628 C 1090.78 -1.97502 4.95811 0
M  V30 11629 O 1091 -3.19277 4.72671 0
M  V30 11630 O 1089.93 -1.58268 5.80719 0
M  V30 11631 H 1093.76 0.212187 3.02958 0
M  V30 11632 H 1091.34 0.169835 1.48432 0
M  V30 11633 H 1093.23 -2.17046 3.61205 0
M  V30 11634 H 1091.9 -2.15401 2.41628 0
M  V30 11635 H 1090.81 -0.247009 3.73284 0
M  V30 11636 H 1092.14 -0.34463 4.90992 0
M  V30 11637 N 1093.79 -1.57004 0.136909 0
M  V30 11638 C 1094.7 -2.19807 -0.819887 0
M  V30 11639 C 1095.72 -1.17939 -1.27932 0
M  V30 11640 O 1096.9 -1.50478 -1.3386 0
M  V30 11641 C 1093.96 -2.79935 -2.04542 0
M  V30 11642 C 1093.02 -3.96897 -1.6362 0
M  V30 11643 C 1092.26 -4.54148 -2.80331 0
M  V30 11644 O 1092.48 -4.10282 -3.96264 0
M  V30 11645 O 1091.41 -5.44565 -2.56384 0
M  V30 11646 H 1095.24 -3.02058 -0.315337 0
M  V30 11647 H 1092.82 -1.49131 -0.0896151 0
M  V30 11648 H 1094.71 -3.18191 -2.76283 0
M  V30 11649 H 1093.38 -2.00703 -2.53969 0
M  V30 11650 H 1092.29 -3.63376 -0.889316 0
M  V30 11651 H 1093.62 -4.77618 -1.18918 0
M  V30 11652 N 1095.27 0.136881 -1.57004 0
M  V30 11653 C 1096.2 1.19402 -1.95642 0
M  V30 11654 C 1097.22 1.38635 -0.853478 0
M  V30 11655 O 1098.41 1.38027 -1.13185 0
M  V30 11656 C 1095.51 2.55716 -2.22402 0
M  V30 11657 C 1094.68 2.57325 -3.53698 0
M  V30 11658 C 1093.74 3.75253 -3.68879 0
M  V30 11659 O 1092.76 3.5966 -4.41173 0
M  V30 11660 N 1093.97 4.93112 -3.06302 0
M  V30 11661 H 1096.73 0.865504 -2.8693 0
M  V30 11662 H 1094.29 0.326346 -1.58577 0
M  V30 11663 H 1096.28 3.33135 -2.29789 0
M  V30 11664 H 1094.85 2.80819 -1.37329 0
M  V30 11665 H 1094.07 1.65749 -3.5766 0
M  V30 11666 H 1095.36 2.55441 -4.40031 0
M  V30 11667 H 1094.76 5.08684 -2.47502 0
M  V30 11668 H 1093.32 5.68271 -3.19236 0
M  V30 11669 N 1096.75 1.52266 0.40654 0
M  V30 11670 C 1097.68 1.72025 1.51459 0
M  V30 11671 C 1098.7 0.600667 1.51314 0
M  V30 11672 O 1099.88 0.875894 1.55532 0
M  V30 11673 C 1096.98 1.7479 2.90348 0
M  V30 11674 C 1096.16 3.03826 3.14656 0
M  V30 11675 C 1095.22 2.98369 4.33431 0
M  V30 11676 O 1094.24 3.7227 4.30586 0
M  V30 11677 N 1095.44 2.16338 5.38682 0
M  V30 11678 H 1098.21 2.67622 1.34903 0
M  V30 11679 H 1095.77 1.50536 0.595867 0
M  V30 11680 H 1097.76 1.68667 3.67877 0
M  V30 11681 H 1096.33 0.86656 3.00349 0
M  V30 11682 H 1095.55 3.23577 2.25148 0
M  V30 11683 H 1096.84 3.89182 3.27742 0
M  V30 11684 H 1096.24 1.55731 5.43842 0
M  V30 11685 H 1094.8 2.1607 6.14945 0
M  V30 11686 N 1098.23 -0.663929 1.42933 0
M  V30 11687 C 1099.51 -1.42054 1.34462 0
M  V30 11688 C 1099.89 -2.11096 -0.0127801 0
M  V30 11689 O 1099.23 -2.04027 -1.02884 0
M  V30 11690 C 1099.44 -2.41406 2.5204 0
M  V30 11691 C 1100.79 -3.05726 2.94647 0
M  V30 11692 O 1101.82 -2.51733 2.52009 0
M  V30 11693 O 1100.67 -4.03593 3.68477 0
M  V30 11694 H 1097.77 -0.634149 0.530834 0
M  V30 11695 H 1100.31 -0.691738 1.54962 0
M  V30 11696 H 1099.09 -1.89263 3.42484 0
M  V30 11697 H 1098.71 -3.21752 2.33584 0
M  V30 11698 N 1099.71 -1.29285 -0.901281 0
M  V30 11699 C 1100.96 -1.16538 -1.64626 0
M  V30 11700 C 1101.27 0.282623 -1.93547 0
M  V30 11701 O 1102.47 0.531396 -2.66249 0
M  V30 11702 C 1100.93 -2.03809 -2.96631 0
M  V30 11703 C 1100.54 -3.53423 -2.75311 0
M  V30 11704 C 1102.28 -1.99782 -3.7455 0
M  V30 11705 C 1100.19 -4.32804 -4.03032 0
M  V30 11706 H 1099.12 -0.432561 -0.617581 0
M  V30 11707 H 1101.77 -1.53912 -0.999159 0
M  V30 11708 H 1100.15 -1.59302 -3.62545 0
M  V30 11709 H 1101.33 -4.05971 -2.18 0
M  V30 11710 H 1099.64 -3.59106 -2.10789 0
M  V30 11711 H 1102.24 -2.5635 -4.69243 0
M  V30 11712 H 1102.58 -0.97743 -4.04663 0
M  V30 11713 H 1103.11 -2.42324 -3.15474 0
M  V30 11714 H 1099.85 -5.35473 -3.78086 0
M  V30 11715 H 1099.37 -3.85025 -4.59909 0
M  V30 11716 H 1101.05 -4.43383 -4.71191 0
M  V30 11717 N 1101.18 1.11143 -1.11736 0
M  V30 11718 C 1102.11 2.19339 -0.800795 0
M  V30 11719 C 1103.1 1.68508 0.23221 0
M  V30 11720 O 1104.28 1.93967 0.0950063 0
M  V30 11721 C 1101.41 3.46424 -0.246579 0
M  V30 11722 C 1100.36 4.10487 -1.21181 0
M  V30 11723 C 1099.69 5.32183 -0.518158 0
M  V30 11724 C 1100.99 4.55052 -2.56368 0
M  V30 11725 H 1102.68 2.46077 -1.70548 0
M  V30 11726 H 1100.23 1.18271 -0.821454 0
M  V30 11727 H 1102.18 4.21398 -0.0128889 0
M  V30 11728 H 1100.91 3.19154 0.693415 0
M  V30 11729 H 1099.57 3.3751 -1.43118 0
M  V30 11730 H 1099.21 5.01187 0.426742 0
M  V30 11731 H 1098.91 5.75997 -1.16196 0
M  V30 11732 H 1100.44 6.09895 -0.293333 0
M  V30 11733 H 1101.85 5.21335 -2.38501 0
M  V30 11734 H 1100.25 5.0969 -3.16758 0
M  V30 11735 H 1101.32 3.68343 -3.1536 0
M  V30 11736 N 1102.66 0.908147 1.28804 0
M  V30 11737 C 1103.89 0.553431 1.9988 0
M  V30 11738 C 1104.31 -0.856714 1.67458 0
M  V30 11739 O 1103.67 -1.57163 0.903849 0
M  V30 11740 C 1103.72 0.762688 3.52442 0
M  V30 11741 O 1102.82 -0.180924 4.12003 0
M  V30 11742 H 1102.16 0.215237 0.628147 0
M  V30 11743 H 1104.69 1.22205 1.64095 0
M  V30 11744 H 1104.7 0.670612 4.02451 0
M  V30 11745 H 1103.38 1.79071 3.75375 0
M  V30 11746 H 1101.96 -0.0405897 3.72878 0
M  V30 11747 N 1104.14 -1.42577 0.671525 0
M  V30 11748 C 1105.09 -2.30798 -0.00883676 0
M  V30 11749 C 1106.06 -1.4578 -0.796076 0
M  V30 11750 O 1107.24 -1.74617 -0.768987 0
M  V30 11751 C 1104.38 -3.31581 -0.956452 0
M  V30 11752 C 1103.5 -4.31691 -0.163381 0
M  V30 11753 C 1102.63 -5.19549 -1.10645 0
M  V30 11754 C 1101.67 -6.1134 -0.304876 0
M  V30 11755 N 1100.81 -6.91761 -1.20048 0
M  V30 11756 H 1105.65 -2.88426 0.749301 0
M  V30 11757 H 1103.18 -1.42074 0.381251 0
M  V30 11758 H 1105.14 -3.88539 -1.51966 0
M  V30 11759 H 1103.77 -2.75561 -1.68126 0
M  V30 11760 H 1102.82 -3.76879 0.516396 0
M  V30 11761 H 1104.14 -4.96683 0.459099 0
M  V30 11762 H 1103.29 -5.81223 -1.73969 0
M  V30 11763 H 1102.03 -4.54726 -1.76282 0
M  V30 11764 H 1101.03 -5.48738 0.341597 0
M  V30 11765 H 1102.26 -6.78211 0.347352 0
M  V30 11766 H 1100.2 -6.2957 -1.84331 0
M  V30 11767 H 1100.12 -7.53345 -0.633003 0
M  V30 11768 H 1101.39 -7.57924 -1.82129 0
M  V30 11769 N 1105.62 -0.414636 -1.52048 0
M  V30 11770 C 1106.87 0.159349 -2.01872 0
M  V30 11771 C 1107.19 1.44674 -1.29999 0
M  V30 11772 O 1106.45 1.91641 -0.396511 0
M  V30 11773 C 1106.75 0.448327 -3.54577 0
M  V30 11774 C 1106.41 -0.75052 -4.4461 0
M  V30 11775 C 1105.08 -1.07935 -4.68939 0
M  V30 11776 C 1107.43 -1.55134 -4.97577 0
M  V30 11777 C 1104.76 -2.21008 -5.43482 0
M  V30 11778 C 1107.11 -2.67288 -5.73358 0
M  V30 11779 C 1105.77 -3.00651 -5.95958 0
M  V30 11780 H 1105.04 0.05831 -0.738702 0
M  V30 11781 H 1107.69 -0.557184 -1.83215 0
M  V30 11782 H 1105.99 1.24649 -3.71443 0
M  V30 11783 H 1107.69 0.90549 -3.90643 0
M  V30 11784 H 1104.28 -0.484257 -4.25856 0
M  V30 11785 H 1108.46 -1.31052 -4.78685 0
M  V30 11786 H 1103.72 -2.47197 -5.59199 0
M  V30 11787 H 1107.89 -3.29725 -6.13396 0
M  V30 11788 H 1105.52 -3.88384 -6.535 0
M  V30 11789 N 1107.1 1.56929 -0.145233 0
M  V30 11790 C 1108.34 1.95681 0.50532 0
M  V30 11791 C 1108.67 1.03098 1.65516 0
M  V30 11792 O 1107.94 0.0921961 1.95683 0
M  V30 11793 H 1106.52 0.72252 0.189668 0
M  V30 11794 H 1109.18 1.93651 -0.220318 0
M  V30 11795 H 1108.27 2.99359 0.882631 0
M  V30 11796 N 1108.58 -0.128553 1.57075 0
M  V30 11797 C 1109.52 -1.15812 1.9964 0
M  V30 11798 C 1110.49 -1.41679 0.86696 0
M  V30 11799 O 1111.68 -1.53705 1.13046 0
M  V30 11800 C 1108.82 -2.48198 2.39774 0
M  V30 11801 C 1107.93 -2.29348 3.66092 0
M  V30 11802 C 1107.07 -3.54898 3.95248 0
M  V30 11803 C 1106.1 -3.31164 5.14779 0
M  V30 11804 N 1105.24 -4.48891 5.39853 0
M  V30 11805 H 1110.08 -0.788136 2.87389 0
M  V30 11806 H 1107.62 -0.377682 1.42169 0
M  V30 11807 H 1109.58 -3.25414 2.61077 0
M  V30 11808 H 1108.21 -2.83108 1.5508 0
M  V30 11809 H 1107.26 -1.43095 3.5246 0
M  V30 11810 H 1108.57 -2.07781 4.53463 0
M  V30 11811 H 1107.72 -4.40536 4.17148 0
M  V30 11812 H 1106.46 -3.79487 3.06335 0
M  V30 11813 H 1105.47 -2.43915 4.92733 0
M  V30 11814 H 1106.69 -3.07954 6.05261 0
M  V30 11815 H 1104.64 -4.73619 4.53895 0
M  V30 11816 H 1104.56 -4.30394 6.21528 0
M  V30 11817 H 1105.82 -5.35691 5.66265 0
M  V30 11818 N 1110.05 -1.5248 -0.398459 0
M  V30 11819 C 1111.46 -1.59107 -0.976817 0
M  V30 11820 C 1111.82 -0.438104 -1.91246 0
M  V30 11821 O 1110.94 0.440111 -2.11877 0
M  V30 11822 C 1111.54 -2.88373 -1.77838 0
M  V30 11823 C 1110.09 -2.97445 -2.30659 0
M  V30 11824 C 1109.24 -2.5414 -1.10942 0
M  V30 11825 H 1112.19 -1.57695 -0.178324 0
M  V30 11826 H 1112.21 -2.74327 -2.63676 0
M  V30 11827 H 1111.73 -3.72269 -1.09714 0
M  V30 11828 H 1109.83 -2.18066 -3.02123 0
M  V30 11829 H 1109.94 -4.019 -2.60794 0
M  V30 11830 H 1108.3 -2.08237 -1.46661 0
M  V30 11831 H 1109.09 -3.40421 -0.443684 0
M  V30 11832 N 1111.53 0.65634 -1.43283 0
M  V30 11833 C 1112.44 1.79847 -1.50639 0
M  V30 11834 C 1113.46 1.69487 -0.393714 0
M  V30 11835 O 1114.63 1.90712 -0.647379 0
M  V30 11836 C 1111.7 3.16107 -1.42398 0
M  V30 11837 C 1110.76 3.38287 -2.64312 0
M  V30 11838 C 1109.99 4.68046 -2.56454 0
M  V30 11839 O 1110.22 5.4719 -1.61056 0
M  V30 11840 O 1109.15 4.91877 -3.46902 0
M  V30 11841 H 1112.98 1.76596 -2.47078 0
M  V30 11842 H 1110.56 0.814428 -1.25249 0
M  V30 11843 H 1112.44 3.97382 -1.40233 0
M  V30 11844 H 1111.12 3.19956 -0.490929 0
M  V30 11845 H 1110.02 2.56788 -2.72049 0
M  V30 11846 H 1111.36 3.39282 -3.56579 0
M  V30 11847 N 1113.01 1.29761 0.894412 0
M  V30 11848 C 1113.94 1.17902 2.01547 0
M  V30 11849 C 1114.92 0.0719402 1.69948 0
M  V30 11850 O 1116.11 0.252338 1.92554 0
M  V30 11851 C 1113.24 0.860262 3.36477 0
M  V30 11852 C 1112.19 1.92424 3.82305 0
M  V30 11853 C 1111.52 1.45868 5.14419 0
M  V30 11854 C 1112.82 3.33391 4.02054 0
M  V30 11855 H 1114.51 2.11688 2.11727 0
M  V30 11856 H 1112.06 1.01916 1.01731 0
M  V30 11857 H 1114.01 0.763987 4.14417 0
M  V30 11858 H 1112.73 -0.113289 3.26403 0
M  V30 11859 H 1111.39 2.00999 3.06586 0
M  V30 11860 H 1111.04 0.473654 5.00765 0
M  V30 11861 H 1110.74 2.17028 5.46052 0
M  V30 11862 H 1112.26 1.37601 5.94894 0
M  V30 11863 H 1113.68 3.27628 4.7046 0
M  V30 11864 H 1112.07 4.02555 4.4505 0
M  V30 11865 H 1113.14 3.75978 3.06216 0
M  V30 11866 N 1114.49 -1.10549 1.12324 0
M  V30 11867 C 1115.9 -1.63991 0.892402 0
M  V30 11868 C 1116.25 -1.87631 -0.573506 0
M  V30 11869 O 1115.37 -1.6174 -1.43768 0
M  V30 11870 C 1115.97 -2.97914 1.61347 0
M  V30 11871 C 1114.53 -3.48227 1.42881 0
M  V30 11872 C 1113.68 -2.22857 1.65015 0
M  V30 11873 H 1116.63 -0.94065 1.27818 0
M  V30 11874 H 1116.65 -3.65326 1.06382 0
M  V30 11875 H 1116.16 -2.80677 2.68034 0
M  V30 11876 H 1114.26 -3.70611 0.384441 0
M  V30 11877 H 1114.37 -4.26419 2.18413 0
M  V30 11878 H 1112.74 -2.30941 1.07417 0
M  V30 11879 H 1113.52 -2.08152 2.72997 0
M  V30 11880 N 1115.97 -0.914965 -1.28321 0
M  V30 11881 C 1117.38 -0.613297 -1.47346 0
M  V30 11882 C 1117.58 0.84106 -1.83108 0
M  V30 11883 O 1116.64 1.62004 -1.93678 0
M  V30 11884 C 1117.95 -1.55224 -2.57538 0
M  V30 11885 C 1119.5 -1.55909 -2.71407 0
M  V30 11886 C 1119.97 -2.48468 -3.84744 0
M  V30 11887 N 1121.46 -2.46602 -3.92099 0
M  V30 11888 C 1122.2 -3.14917 -4.79182 0
M  V30 11889 N 1121.7 -3.92566 -5.70845 0
M  V30 11890 N 1123.49 -3.03998 -4.72802 0
M  V30 11891 H 1115.64 -1.85539 -1.03388 0
M  V30 11892 H 1117.9 -0.795875 -0.515061 0
M  V30 11893 H 1117.61 -2.58917 -2.38023 0
M  V30 11894 H 1117.48 -1.28426 -3.54664 0
M  V30 11895 H 1119.87 -0.52953 -2.9031 0
M  V30 11896 H 1119.95 -1.86751 -1.74808 0
M  V30 11897 H 1119.59 -3.51526 -3.66595 0
M  V30 11898 H 1119.52 -2.14928 -4.80743 0
M  V30 11899 H 1122.02 -1.90199 -3.26547 0
M  V30 11900 H 1122.33 -4.41709 -6.34123 0
M  V30 11901 H 1120.67 -3.96671 -5.70681 0
M  V30 11902 H 1123.86 -2.42839 -4.00184 0
M  V30 11903 H 1124.04 -3.57511 -5.40454 0
M  V30 11904 N 1117.44 1.42219 -0.679077 0
M  V30 11905 C 1118.38 2.29172 0.035583 0
M  V30 11906 C 1119.39 1.43909 0.761183 0
M  V30 11907 O 1120.58 1.67584 0.61463 0
M  V30 11908 C 1117.68 3.21426 1.07419 0
M  V30 11909 C 1116.85 4.35364 0.421547 0
M  V30 11910 C 1115.91 5.08307 1.36051 0
M  V30 11911 O 1114.94 5.62678 0.859186 0
M  V30 11912 N 1116.14 5.14222 2.69362 0
M  V30 11913 H 1118.9 2.91147 -0.710865 0
M  V30 11914 H 1116.46 1.53192 -0.523821 0
M  V30 11915 H 1118.46 3.67091 1.70371 0
M  V30 11916 H 1117.03 2.60873 1.72233 0
M  V30 11917 H 1116.25 3.9229 -0.387559 0
M  V30 11918 H 1117.53 5.08789 -0.0329421 0
M  V30 11919 H 1116.93 4.71467 3.12627 0
M  V30 11920 H 1115.49 5.63519 3.27551 0
M  V30 11921 N 1118.92 0.422693 1.51826 0
M  V30 11922 C 1120.33 -0.0438129 1.86649 0
M  V30 11923 C 1120.68 -1.43246 1.34071 0
M  V30 11924 O 1119.81 -2.05256 0.685501 0
M  V30 11925 C 1120.4 -0.0862802 3.3869 0
M  V30 11926 C 1118.96 -0.497157 3.73102 0
M  V30 11927 C 1118.11 0.319655 2.75451 0
M  V30 11928 H 1121.06 0.639181 1.45259 0
M  V30 11929 H 1121.08 -0.8988 3.69732 0
M  V30 11930 H 1120.59 0.924525 3.76927 0
M  V30 11931 H 1118.69 -1.51411 3.40449 0
M  V30 11932 H 1118.81 -0.232125 4.78537 0
M  V30 11933 H 1117.17 -0.219963 2.53748 0
M  V30 11934 H 1117.95 1.32906 3.16529 0
M  V30 11935 N 1120.4 -1.5685 0.153553 0
M  V30 11936 C 1121.65 -1.95946 -0.494936 0
M  V30 11937 C 1121.97 -1.03975 -1.64967 0
M  V30 11938 O 1121.24 -0.102572 -1.95631 0
M  V30 11939 H 1119.82 -0.723516 -0.185833 0
M  V30 11940 H 1122.48 -1.93531 0.230585 0
M  V30 11941 H 1121.58 -2.99823 -0.866743 0
M  V30 11942 N 1121.88 0.120221 -1.57141 0
M  V30 11943 C 1123.1 0.84637 -1.89344 0
M  V30 11944 C 1123.53 1.72702 -0.745365 0
M  V30 11945 O 1122.89 1.7873 0.304155 0
M  V30 11946 C 1122.93 1.65671 -3.20289 0
M  V30 11947 O 1122.04 2.76353 -3.06109 0
M  V30 11948 H 1121.38 0.234132 -0.621352 0
M  V30 11949 H 1123.91 0.102986 -2.04341 0
M  V30 11950 H 1123.92 2.04621 -3.52979 0
M  V30 11951 H 1122.59 1.01023 -4.03444 0
M  V30 11952 H 1121.17 2.40615 -2.84884 0
M  V30 11953 N 1123.36 1.52689 0.390367 0
M  V30 11954 C 1124.58 1.71541 1.15678 0
M  V30 11955 C 1125 0.433171 1.83764 0
M  V30 11956 O 1124.36 -0.592248 1.72623 0
M  V30 11957 C 1124.41 2.864 2.20584 0
M  V30 11958 O 1124.13 4.0966 1.55274 0
M  V30 11959 C 1125.63 3.1692 3.09962 0
M  V30 11960 H 1122.85 0.574381 0.346883 0
M  V30 11961 H 1125.39 1.99332 0.456851 0
M  V30 11962 H 1123.55 2.61075 2.86214 0
M  V30 11963 H 1123.96 4.73802 2.2497 0
M  V30 11964 H 1125.44 4.00755 3.79604 0
M  V30 11965 H 1125.91 2.31245 3.73393 0
M  V30 11966 H 1126.52 3.4408 2.49979 0
M  V30 11967 N 1124.83 -0.648732 1.43629 0
M  V30 11968 C 1125.8 -1.74331 1.488 0
M  V30 11969 C 1126.8 -1.56434 0.372147 0
M  V30 11970 O 1127.99 -1.6225 0.634078 0
M  V30 11971 C 1125.12 -3.13248 1.34494 0
M  V30 11972 H 1126.31 -1.71125 2.46285 0
M  V30 11973 H 1123.87 -0.860798 1.30461 0
M  V30 11974 H 1124.6 -3.22062 0.380345 0
M  V30 11975 H 1124.39 -3.27643 2.15389 0
M  V30 11976 H 1125.88 -3.93056 1.41055 0
M  V30 11977 N 1126.31 -1.30234 -0.887518 0
M  V30 11978 C 1127.24 -1.12212 -1.99853 0
M  V30 11979 C 1128.26 -0.0660929 -1.62666 0
M  V30 11980 O 1129.45 -0.311853 -1.75755 0
M  V30 11981 C 1126.55 -0.688591 -3.31831 0
M  V30 11982 C 1125.72 -1.82581 -3.97471 0
M  V30 11983 C 1124.78 -1.38126 -5.07748 0
M  V30 11984 O 1123.8 -2.08805 -5.29518 0
M  V30 11985 N 1125.01 -0.258868 -5.79923 0
M  V30 11986 H 1127.77 -2.07901 -2.15864 0
M  V30 11987 H 1125.33 -1.22336 -1.06045 0
M  V30 11988 H 1127.32 -0.374252 -4.02966 0
M  V30 11989 H 1125.89 0.176185 -3.12103 0
M  V30 11990 H 1125.11 -2.3084 -3.19541 0
M  V30 11991 H 1126.4 -2.58798 -4.38065 0
M  V30 11992 H 1125.8 0.330131 -5.64736 0
M  V30 11993 H 1124.36 -0.00396813 -6.518 0
M  V30 11994 N 1127.79 1.09952 -1.12909 0
M  V30 11995 C 1129.02 1.8552 -0.909163 0
M  V30 11996 C 1129.43 1.81173 0.545253 0
M  V30 11997 O 1128.77 1.20223 1.38896 0
M  V30 11998 C 1128.83 3.34693 -1.31228 0
M  V30 11999 C 1128.5 3.62794 -2.77902 0
M  V30 12000 C 1129.49 3.58973 -3.76078 0
M  V30 12001 C 1127.18 3.91311 -3.1493 0
M  V30 12002 C 1129.17 3.83271 -5.09296 0
M  V30 12003 C 1126.86 4.15265 -4.48328 0
M  V30 12004 C 1127.86 4.11236 -5.4532 0
M  V30 12005 O 1127.55 4.34576 -6.76313 0
M  V30 12006 H 1127.28 0.59303 -0.324486 0
M  V30 12007 H 1129.83 1.39878 -1.5041 0
M  V30 12008 H 1128.06 3.81016 -0.660573 0
M  V30 12009 H 1129.75 3.9166 -1.06569 0
M  V30 12010 H 1130.52 3.36974 -3.48817 0
M  V30 12011 H 1126.4 3.93575 -2.40041 0
M  V30 12012 H 1129.94 3.80041 -5.84991 0
M  V30 12013 H 1125.84 4.36743 -4.75316 0
M  V30 12014 H 1126.61 4.52065 -6.82334 0
M  V30 12015 N 1129.27 0.921757 1.27833 0
M  V30 12016 C 1130.55 0.477706 1.89677 0
M  V30 12017 C 1130.93 -1.04392 1.83481 0
M  V30 12018 O 1130.27 -1.89549 1.27606 0
M  V30 12019 C 1130.48 1.01709 3.33851 0
M  V30 12020 C 1131.83 1.074 4.10792 0
M  V30 12021 O 1132.86 0.966295 3.42843 0
M  V30 12022 O 1131.71 1.23909 5.32268 0
M  V30 12023 H 1128.81 0.15271 0.812778 0
M  V30 12024 H 1131.35 1.01306 1.36144 0
M  V30 12025 H 1130.13 2.061 3.32623 0
M  V30 12026 H 1129.75 0.463031 3.94895 0
M  V30 12027 N 1130.75 -1.41857 0.686609 0
M  V30 12028 C 1131.71 -2.29187 0.0247022 0
M  V30 12029 C 1132.71 -1.43926 -0.717069 0
M  V30 12030 O 1133.9 -1.65179 -0.5533 0
M  V30 12031 C 1131.03 -3.26644 -0.975537 0
M  V30 12032 H 1132.22 -2.89212 0.793503 0
M  V30 12033 H 1129.78 -1.49694 0.449605 0
M  V30 12034 H 1130.51 -2.7158 -1.77242 0
M  V30 12035 H 1130.3 -3.89545 -0.446892 0
M  V30 12036 H 1131.79 -3.92107 -1.43673 0
M  V30 12037 N 1132.22 -0.430739 -1.51599 0
M  V30 12038 C 1133.47 0.137657 -2.01631 0
M  V30 12039 C 1133.79 1.43787 -1.31721 0
M  V30 12040 O 1133.06 1.90668 -0.449717 0
M  V30 12041 H 1131.64 0.0538611 -0.745056 0
M  V30 12042 H 1134.31 -0.571935 -1.86319 0
M  V30 12043 H 1133.4 0.318305 -3.10473 0
M  V30 12044 N 1133.7 1.56767 -0.161869 0
M  V30 12045 C 1134.67 2.16299 0.758104 0
M  V30 12046 C 1135.67 1.10859 1.16478 0
M  V30 12047 O 1136.86 1.36422 1.08327 0
M  V30 12048 C 1133.99 2.73819 2.03067 0
M  V30 12049 H 1135.18 2.98938 0.239992 0
M  V30 12050 H 1132.73 1.56054 0.0876532 0
M  V30 12051 H 1133.47 1.94887 2.59209 0
M  V30 12052 H 1133.25 3.50974 1.74813 0
M  V30 12053 H 1134.74 3.19638 2.68741 0
M  V30 12054 N 1135.18 -0.111886 1.57202 0
M  V30 12055 C 1136.43 -0.816794 1.84859 0
M  V30 12056 C 1136.75 -1.80079 0.748113 0
M  V30 12057 O 1136.02 -1.94578 -0.227235 0
M  V30 12058 H 1134.6 -0.304633 0.682061 0
M  V30 12059 H 1137.26 -0.097513 1.94656 0
M  V30 12060 H 1136.36 -1.35768 2.81022 0
M  V30 12061 N 1136.66 -1.52894 -0.382264 0
M  V30 12062 C 1137.88 -1.72453 -1.15216 0
M  V30 12063 C 1138.31 -0.444925 -1.82762 0
M  V30 12064 O 1137.67 0.599825 -1.7109 0
M  V30 12065 C 1137.71 -2.87939 -2.17079 0
M  V30 12066 O 1136.82 -2.55383 -3.23811 0
M  V30 12067 H 1136.16 -0.57324 -0.335099 0
M  V30 12068 H 1138.69 -1.99713 -0.444495 0
M  V30 12069 H 1138.7 -3.13628 -2.60963 0
M  V30 12070 H 1137.37 -3.80765 -1.67305 0
M  V30 12071 H 1135.95 -2.40457 -2.85018 0
M  V30 12072 N 1138.14 0.641106 -1.43971 0
M  V30 12073 C 1139.55 1.22254 -1.41106 0
M  V30 12074 C 1139.9 1.95825 -0.121284 0
M  V30 12075 O 1139.02 2.01901 0.77879 0
M  V30 12076 C 1139.62 2.22364 -2.55617 0
M  V30 12077 C 1138.18 2.75957 -2.55978 0
M  V30 12078 C 1137.33 1.50792 -2.32717 0
M  V30 12079 H 1140.28 0.432381 -1.52696 0
M  V30 12080 H 1140.3 3.04775 -2.27799 0
M  V30 12081 H 1139.81 1.68789 -3.49474 0
M  V30 12082 H 1137.91 3.33562 -1.66034 0
M  V30 12083 H 1138.02 3.22676 -3.54142 0
M  V30 12084 H 1136.39 1.7857 -1.81617 0
M  V30 12085 H 1137.17 0.991343 -3.28675 0
M  V30 12086 N 1139.62 1.30703 0.880598 0
M  V30 12087 C 1140.53 1.19389 2.01949 0
M  V30 12088 C 1141.54 0.112868 1.73634 0
M  V30 12089 O 1142.72 0.328643 1.98701 0
M  V30 12090 C 1139.78 0.891004 3.35055 0
M  V30 12091 C 1138.84 2.05784 3.76764 0
M  V30 12092 C 1138.08 1.76931 5.03519 0
M  V30 12093 O 1138.3 0.699326 5.66097 0
M  V30 12094 O 1137.23 2.623 5.4174 0
M  V30 12095 H 1141.06 2.15073 2.14423 0
M  V30 12096 H 1138.64 1.10339 1.00726 0
M  V30 12097 H 1140.53 0.737476 4.14897 0
M  V30 12098 H 1139.2 -0.0358909 3.2368 0
M  V30 12099 H 1138.11 2.26672 2.97608 0
M  V30 12100 H 1139.44 2.96661 3.9275 0
M  V30 12101 N 1141.09 -1.09351 1.1349 0
M  V30 12102 C 1142.06 -2.14185 0.815919 0
M  V30 12103 C 1143.06 -1.59845 -0.174976 0
M  V30 12104 O 1144.25 -1.74122 0.0521971 0
M  V30 12105 C 1141.38 -3.40224 0.214517 0
M  V30 12106 H 1142.57 -2.43913 1.74489 0
M  V30 12107 H 1140.12 -1.24902 0.939634 0
M  V30 12108 H 1140.86 -3.16123 -0.723634 0
M  V30 12109 H 1140.64 -3.80958 0.928102 0
M  V30 12110 H 1142.13 -4.17599 0.00821999 0
M  V30 12111 N 1142.57 -0.928524 -1.27343 0
M  V30 12112 C 1143.48 -0.433901 -2.30553 0
M  V30 12113 C 1144.5 0.485832 -1.6708 0
M  V30 12114 O 1145.67 0.36844 -1.98001 0
M  V30 12115 C 1142.74 0.304617 -3.45359 0
M  V30 12116 C 1141.8 -0.650131 -4.24349 0
M  V30 12117 C 1141.03 0.0532372 -5.33673 0
M  V30 12118 O 1141.26 1.27246 -5.56026 0
M  V30 12119 O 1140.19 -0.619009 -5.98709 0
M  V30 12120 H 1144.02 -1.2909 -2.74899 0
M  V30 12121 H 1141.6 -0.693903 -1.32308 0
M  V30 12122 H 1143.48 0.721137 -4.15184 0
M  V30 12123 H 1142.16 1.13721 -3.03066 0
M  V30 12124 H 1141.06 -1.11635 -3.57055 0
M  V30 12125 H 1142.4 -1.44996 -4.70358 0
M  V30 12126 N 1144.05 1.41491 -0.694123 0
M  V30 12127 C 1145.46 1.84283 -0.299439 0
M  V30 12128 C 1145.81 1.58081 1.16211 0
M  V30 12129 O 1144.94 1.05051 1.89191 0
M  V30 12130 C 1145.53 3.34522 -0.536696 0
M  V30 12131 C 1144.09 3.7589 -0.195944 0
M  V30 12132 C 1143.24 2.64908 -0.819692 0
M  V30 12133 H 1146.19 1.31063 -0.894884 0
M  V30 12134 H 1146.21 3.79947 0.205062 0
M  V30 12135 H 1145.72 3.53561 -1.6005 0
M  V30 12136 H 1143.82 3.62452 0.863655 0
M  V30 12137 H 1143.94 4.74671 -0.649954 0
M  V30 12138 H 1142.3 2.53476 -0.249412 0
M  V30 12139 H 1143.08 2.86765 -1.88734 0
M  V30 12140 N 1145.53 0.438773 1.51369 0
M  V30 12141 C 1146.76 -0.125847 2.06517 0
M  V30 12142 C 1147.17 -1.36336 1.30606 0
M  V30 12143 O 1146.53 -1.78792 0.36603 0
M  V30 12144 C 1146.58 -0.446619 3.5873 0
M  V30 12145 O 1146.3 0.741781 4.31775 0
M  V30 12146 C 1147.8 -1.06175 4.30397 0
M  V30 12147 H 1145.02 -0.00728868 0.67096 0
M  V30 12148 H 1147.56 0.618267 1.9493 0
M  V30 12149 H 1145.72 -1.14064 3.70227 0
M  V30 12150 H 1146.13 0.466907 5.22418 0
M  V30 12151 H 1147.61 -1.23619 5.3798 0
M  V30 12152 H 1148.08 -2.04317 3.88782 0
M  V30 12153 H 1148.69 -0.40708 4.23347 0
M  V30 12154 N 1147.01 -1.56678 0.170181 0
M  V30 12155 C 1148.28 -1.88524 -0.521362 0
M  V30 12156 C 1148.66 -1.07989 -1.81388 0
M  V30 12157 O 1148.01 -0.17347 -2.27841 0
M  V30 12158 C 1148.22 -3.40527 -0.764367 0
M  V30 12159 C 1149.57 -4.10241 -1.09487 0
M  V30 12160 O 1150.59 -3.45837 -0.852945 0
M  V30 12161 O 1149.45 -5.24022 -1.55124 0
M  V30 12162 H 1146.55 -0.782161 -0.268614 0
M  V30 12163 H 1149.09 -1.68414 0.208531 0
M  V30 12164 H 1147.86 -3.91015 0.149416 0
M  V30 12165 H 1147.49 -3.66244 -1.54762 0
M  V30 12166 N 1148.48 0.103547 -1.57259 0
M  V30 12167 C 1149.71 0.82624 -1.90232 0
M  V30 12168 C 1150.13 1.71902 -0.763641 0
M  V30 12169 O 1149.49 1.79043 0.285181 0
M  V30 12170 C 1149.54 1.62265 -3.22029 0
M  V30 12171 O 1148.64 2.73091 -3.09023 0
M  V30 12172 H 1147.98 0.227528 -0.6238 0
M  V30 12173 H 1150.51 0.081307 -2.04438 0
M  V30 12174 H 1150.52 2.00865 -3.5513 0
M  V30 12175 H 1149.2 0.967383 -4.04493 0
M  V30 12176 H 1147.78 2.3758 -2.8742 0
M  V30 12177 N 1149.96 1.53094 0.37415 0
M  V30 12178 C 1151.24 1.59456 1.13283 0
M  V30 12179 C 1151.62 0.396821 2.07337 0
M  V30 12180 O 1150.97 -0.613659 2.20106 0
M  V30 12181 C 1151.18 2.94069 1.87948 0
M  V30 12182 C 1152.52 3.4834 2.42785 0
M  V30 12183 O 1153.55 2.96042 1.98085 0
M  V30 12184 O 1152.41 4.39747 3.24477 0
M  V30 12185 H 1149.5 0.643731 0.519171 0
M  V30 12186 H 1152.05 1.65434 0.378105 0
M  V30 12187 H 1150.82 3.72685 1.19255 0
M  V30 12188 H 1150.44 2.91544 2.70348 0
M  V30 12189 N 1151.44 -0.633461 1.44309 0
M  V30 12190 C 1152.66 -1.42527 1.50668 0
M  V30 12191 C 1153.09 -1.87637 0.131861 0
M  V30 12192 O 1152.45 -1.58595 -0.878477 0
M  V30 12193 C 1152.5 -2.62328 2.47419 0
M  V30 12194 O 1151.6 -3.62081 1.97411 0
M  V30 12195 H 1150.94 -0.426559 0.508864 0
M  V30 12196 H 1153.47 -0.773392 1.8942 0
M  V30 12197 H 1153.48 -3.09901 2.65378 0
M  V30 12198 H 1152.16 -2.2884 3.47283 0
M  V30 12199 H 1150.73 -3.21333 1.89208 0
M  V30 12200 N 1152.92 -1.31168 -0.873655 0
M  V30 12201 C 1154.33 -1.18584 -1.44203 0
M  V30 12202 C 1154.68 0.209114 -1.95082 0
M  V30 12203 O 1153.81 1.10662 -1.85965 0
M  V30 12204 C 1154.4 -2.14668 -2.62112 0
M  V30 12205 C 1152.96 -2.06029 -3.15006 0
M  V30 12206 C 1152.11 -2.04106 -1.87712 0
M  V30 12207 H 1155.06 -1.43273 -0.682536 0
M  V30 12208 H 1155.08 -1.73413 -3.38686 0
M  V30 12209 H 1154.59 -3.16186 -2.25051 0
M  V30 12210 H 1152.69 -1.07693 -3.56697 0
M  V30 12211 H 1152.8 -2.9496 -3.77539 0
M  V30 12212 H 1151.17 -1.49069 -2.0652 0
M  V30 12213 H 1151.95 -3.07373 -1.52894 0
M  V30 12214 N 1154.4 1.08748 -1.14068 0
M  V30 12215 C 1155.81 1.62551 -0.918379 0
M  V30 12216 C 1156.16 1.8852 0.543583 0
M  V30 12217 O 1155.28 1.64007 1.41176 0
M  V30 12218 C 1155.88 2.95309 -1.66066 0
M  V30 12219 C 1154.44 3.4591 -1.48403 0
M  V30 12220 C 1153.58 2.20204 -1.6854 0
M  V30 12221 H 1156.54 0.920196 -1.29298 0
M  V30 12222 H 1156.56 3.63587 -1.12181 0
M  V30 12223 H 1156.07 2.76377 -2.72465 0
M  V30 12224 H 1154.17 3.69953 -0.443353 0
M  V30 12225 H 1154.28 4.2289 -2.25169 0
M  V30 12226 H 1152.65 2.29203 -1.11077 0
M  V30 12227 H 1153.43 2.03783 -2.76274 0
M  V30 12228 N 1155.87 0.935264 1.26849 0
M  V30 12229 C 1157.1 0.595704 1.98661 0
M  V30 12230 C 1157.52 -0.821001 1.69237 0
M  V30 12231 O 1156.88 -1.55211 0.936982 0
M  V30 12232 C 1156.93 0.837275 3.50745 0
M  V30 12233 O 1156.03 -0.0934914 4.12294 0
M  V30 12234 H 1155.38 0.228512 0.623441 0
M  V30 12235 H 1157.91 1.25658 1.61466 0
M  V30 12236 H 1157.92 0.755827 4.00938 0
M  V30 12237 H 1156.59 1.86993 3.71492 0
M  V30 12238 H 1155.17 0.0385124 3.7288 0
M  V30 12239 N 1157.35 -1.41121 0.701616 0
M  V30 12240 C 1158.58 -2.05973 0.242896 0
M  V30 12241 C 1159 -1.52474 -1.10151 0
M  V30 12242 O 1158.36 -0.654224 -1.69085 0
M  V30 12243 C 1158.41 -3.59943 0.217614 0
M  V30 12244 O 1157.51 -4.04454 -0.805629 0
M  V30 12245 H 1156.85 -0.653581 0.117166 0
M  V30 12246 H 1159.38 -1.80777 0.958175 0
M  V30 12247 H 1159.39 -4.07969 0.0505267 0
M  V30 12248 H 1158.07 -3.98249 1.19877 0
M  V30 12249 H 1156.65 -3.6792 -0.607404 0
M  V30 12250 N 1158.83 -0.446794 -1.51134 0
M  V30 12251 C 1160.06 0.117242 -2.07068 0
M  V30 12252 C 1160.48 1.34877 -1.3111 0
M  V30 12253 O 1159.84 1.77856 -0.35172 0
M  V30 12254 C 1159.89 0.408616 -3.58277 0
M  V30 12255 O 1158.99 1.49345 -3.84408 0
M  V30 12256 H 1158.33 -0.00228458 -0.663996 0
M  V30 12257 H 1160.86 -0.63085 -1.94632 0
M  V30 12258 H 1160.87 0.656298 -4.02687 0
M  V30 12259 H 1159.55 -0.491444 -4.12986 0
M  V30 12260 H 1158.12 1.23499 -3.51856 0
M  V30 12261 N 1160.31 1.56586 -0.178487 0
M  V30 12262 C 1161.27 2.17091 0.73512 0
M  V30 12263 C 1162.27 1.12088 1.15295 0
M  V30 12264 O 1163.46 1.37563 1.06874 0
M  V30 12265 C 1160.59 2.75957 2.00151 0
M  V30 12266 H 1161.79 2.99176 0.208272 0
M  V30 12267 H 1159.34 1.56138 0.0710967 0
M  V30 12268 H 1160.07 1.97626 2.57127 0
M  V30 12269 H 1159.86 3.52809 1.7108 0
M  V30 12270 H 1161.35 3.2247 2.65335 0
M  V30 12271 N 1161.79 -0.095206 1.57312 0
M  V30 12272 C 1163.06 -0.830388 1.77099 0
M  V30 12273 C 1163.44 -1.9694 0.760121 0
M  V30 12274 O 1162.79 -2.2752 -0.211403 0
M  V30 12275 C 1163 -1.32507 3.22867 0
M  V30 12276 C 1164.35 -1.7679 3.86045 0
M  V30 12277 O 1165.37 -1.42131 3.26615 0
M  V30 12278 O 1164.23 -2.40876 4.90552 0
M  V30 12279 H 1161.33 -0.396083 0.72598 0
M  V30 12280 H 1163.87 -0.0770965 1.69525 0
M  V30 12281 H 1162.64 -0.508992 3.87975 0
M  V30 12282 H 1162.27 -2.14037 3.35073 0
M  V30 12283 N 1163.26 -1.53291 -0.366026 0
M  V30 12284 C 1164.23 -1.79025 -1.43117 0
M  V30 12285 C 1165.23 -0.660676 -1.46601 0
M  V30 12286 O 1166.42 -0.928875 -1.47369 0
M  V30 12287 C 1163.55 -1.91192 -2.82238 0
M  V30 12288 H 1164.74 -2.74154 -1.21572 0
M  V30 12289 H 1162.3 -1.44361 -0.599132 0
M  V30 12290 H 1163.03 -0.98129 -3.09097 0
M  V30 12291 H 1162.82 -2.7335 -2.81109 0
M  V30 12292 H 1164.31 -2.12696 -3.59375 0
M  V30 12293 N 1164.74 0.6258 -1.44643 0
M  V30 12294 C 1165.97 1.41726 -1.51422 0
M  V30 12295 C 1166.39 1.87565 -0.14181 0
M  V30 12296 O 1165.75 1.59059 0.870054 0
M  V30 12297 C 1165.8 2.61012 -2.48807 0
M  V30 12298 O 1164.9 3.61029 -1.99328 0
M  V30 12299 H 1164.24 0.423855 -0.511119 0
M  V30 12300 H 1166.77 0.763336 -1.89827 0
M  V30 12301 H 1166.78 3.08489 -2.67018 0
M  V30 12302 H 1165.46 2.26995 -3.48491 0
M  V30 12303 H 1164.04 3.20325 -1.90909 0
M  V30 12304 N 1166.22 1.31629 0.866686 0
M  V30 12305 C 1167.64 1.10358 1.15296 0
M  V30 12306 C 1167.84 -0.123807 2.01119 0
M  V30 12307 O 1166.89 -0.81219 2.39081 0
M  V30 12308 C 1168.21 2.37684 1.84193 0
M  V30 12309 C 1169.75 2.43326 1.9688 0
M  V30 12310 C 1170.23 3.70541 2.69191 0
M  V30 12311 N 1171.72 3.71454 2.76724 0
M  V30 12312 C 1172.45 4.66585 3.33295 0
M  V30 12313 N 1171.95 5.72075 3.90771 0
M  V30 12314 N 1173.74 4.541 3.31284 0
M  V30 12315 H 1165.89 2.10343 0.29487 0
M  V30 12316 H 1168.16 0.928096 0.193239 0
M  V30 12317 H 1167.86 3.27352 1.28582 0
M  V30 12318 H 1167.74 2.47731 2.84445 0
M  V30 12319 H 1170.12 1.54124 2.51654 0
M  V30 12320 H 1170.21 2.3724 0.956596 0
M  V30 12321 H 1169.85 4.60111 2.15083 0
M  V30 12322 H 1169.78 3.73894 3.70825 0
M  V30 12323 H 1172.27 2.952 2.35936 0
M  V30 12324 H 1172.58 6.40738 4.32058 0
M  V30 12325 H 1170.93 5.75844 3.89138 0
M  V30 12326 H 1174.12 3.70861 2.85622 0
M  V30 12327 H 1174.29 5.28416 3.75074 0
M  V30 12328 N 1167.7 -1.08142 1.14644 0
M  V30 12329 C 1168.95 -1.80582 0.916327 0
M  V30 12330 C 1169.27 -1.86355 -0.556969 0
M  V30 12331 O 1168.53 -1.33736 -1.42875 0
M  V30 12332 C 1168.83 -3.25962 1.46573 0
M  V30 12333 C 1168.49 -3.40302 2.95814 0
M  V30 12334 C 1167.16 -3.43922 3.36557 0
M  V30 12335 C 1169.51 -3.43758 3.91765 0
M  V30 12336 C 1166.84 -3.48594 4.7191 0
M  V30 12337 C 1169.19 -3.49965 5.26979 0
M  V30 12338 C 1167.85 -3.5186 5.67231 0
M  V30 12339 H 1167.12 -0.660795 0.335308 0
M  V30 12340 H 1169.77 -1.27309 1.43055 0
M  V30 12341 H 1168.07 -3.81961 0.872507 0
M  V30 12342 H 1169.77 -3.80571 1.2636 0
M  V30 12343 H 1166.36 -3.38176 2.63315 0
M  V30 12344 H 1170.55 -3.40189 3.61366 0
M  V30 12345 H 1165.8 -3.48355 5.02453 0
M  V30 12346 H 1169.98 -3.51585 6.01133 0
M  V30 12347 H 1167.6 -3.55233 6.72097 0
M  V30 12348 N 1169.18 -0.941978 -1.26351 0
M  V30 12349 C 1170.11 -0.469913 -2.28723 0
M  V30 12350 C 1171.09 0.477218 -1.63269 0
M  V30 12351 O 1172.27 0.378902 -1.90468 0
M  V30 12352 C 1169.4 0.264971 -3.46288 0
M  V30 12353 C 1168.36 -0.595682 -4.23834 0
M  V30 12354 C 1167.68 0.269208 -5.34022 0
M  V30 12355 C 1168.98 -1.86743 -4.87775 0
M  V30 12356 H 1170.68 -1.32551 -2.6846 0
M  V30 12357 H 1168.22 -0.638809 -1.29055 0
M  V30 12358 H 1170.18 0.606259 -4.17016 0
M  V30 12359 H 1168.9 1.15471 -3.05506 0
M  V30 12360 H 1167.56 -0.919875 -3.54872 0
M  V30 12361 H 1167.21 1.15832 -4.89481 0
M  V30 12362 H 1166.91 -0.30325 -5.86817 0
M  V30 12363 H 1168.43 0.605748 -6.07588 0
M  V30 12364 H 1169.85 -1.59333 -5.50714 0
M  V30 12365 H 1168.24 -2.38452 -5.50691 0
M  V30 12366 H 1169.31 -2.57831 -4.10671 0
M  V30 12367 N 1170.66 1.40747 -0.709091 0
M  V30 12368 C 1171.61 2.27982 -0.0289269 0
M  V30 12369 C 1172.59 1.42917 0.739164 0
M  V30 12370 O 1173.78 1.66067 0.612433 0
M  V30 12371 C 1170.91 3.31378 0.896856 0
M  V30 12372 C 1170 4.23918 0.124296 0
M  V30 12373 N 1170.39 4.97925 -0.889043 0
M  V30 12374 C 1168.69 4.44562 0.357808 0
M  V30 12375 C 1169.39 5.65754 -1.35268 0
M  V30 12376 N 1168.36 5.3938 -0.676047 0
M  V30 12377 H 1172.16 2.82641 -0.805676 0
M  V30 12378 H 1169.68 1.5312 -0.541105 0
M  V30 12379 H 1171.68 3.92712 1.39939 0
M  V30 12380 H 1170.34 2.78279 1.67305 0
M  V30 12381 H 1171.35 5.02095 -1.2697 0
M  V30 12382 H 1168.02 4.02451 1.11084 0
M  V30 12383 H 1169.41 6.35058 -2.19432 0
M  V30 12384 N 1172.13 0.454803 1.50895 0
M  V30 12385 C 1173.36 -0.103936 2.06639 0
M  V30 12386 C 1173.78 -1.34943 1.32044 0
M  V30 12387 O 1173.13 -1.78393 0.384972 0
M  V30 12388 C 1173.18 -0.408546 3.59184 0
M  V30 12389 O 1172.91 0.787535 4.30963 0
M  V30 12390 C 1174.41 -1.01605 4.31499 0
M  V30 12391 H 1171.63 -0.000171839 0.671 0
M  V30 12392 H 1174.17 0.638907 1.94263 0
M  V30 12393 H 1172.33 -1.1013 3.71416 0
M  V30 12394 H 1172.74 0.52229 5.21893 0
M  V30 12395 H 1174.21 -1.17906 5.39261 0
M  V30 12396 H 1174.69 -2.00182 3.90927 0
M  V30 12397 H 1175.3 -0.362155 4.23755 0
M  V30 12398 N 1173.61 -1.56489 0.186789 0
M  V30 12399 C 1174.54 -2.21705 -0.732739 0
M  V30 12400 C 1175.52 -1.17751 -1.22755 0
M  V30 12401 O 1176.71 -1.46231 -1.27789 0
M  V30 12402 C 1173.84 -2.86992 -1.95584 0
M  V30 12403 C 1172.79 -3.97118 -1.59628 0
M  V30 12404 C 1172.12 -4.49529 -2.89531 0
M  V30 12405 C 1173.42 -5.15941 -0.812518 0
M  V30 12406 H 1175.11 -2.98802 -0.189094 0
M  V30 12407 H 1172.66 -1.43722 -0.0895099 0
M  V30 12408 H 1174.61 -3.31295 -2.60426 0
M  V30 12409 H 1173.33 -2.07287 -2.52388 0
M  V30 12410 H 1171.99 -3.53494 -0.971475 0
M  V30 12411 H 1171.64 -3.66596 -3.44407 0
M  V30 12412 H 1171.34 -5.23832 -2.66221 0
M  V30 12413 H 1172.87 -4.96528 -3.55376 0
M  V30 12414 H 1174.28 -5.56841 -1.36386 0
M  V30 12415 H 1172.68 -5.96259 -0.677862 0
M  V30 12416 H 1173.75 -4.84535 0.188095 0
M  V30 12417 N 1175.09 0.086862 -1.5736 0
M  V30 12418 C 1176.37 0.820984 -1.77537 0
M  V30 12419 C 1176.75 1.96534 -0.770554 0
M  V30 12420 O 1176.09 2.27629 0.199334 0
M  V30 12421 C 1176.3 1.30793 -3.23565 0
M  V30 12422 C 1177.65 1.7474 -3.86977 0
M  V30 12423 O 1178.68 1.40396 -3.27364 0
M  V30 12424 O 1177.54 2.38271 -4.91822 0
M  V30 12425 H 1174.63 0.392228 -0.72807 0
M  V30 12426 H 1177.18 0.0681051 -1.69563 0
M  V30 12427 H 1175.95 0.488409 -3.8824 0
M  V30 12428 H 1175.57 2.12258 -3.36203 0
M  V30 12429 N 1176.57 1.53483 0.357892 0
M  V30 12430 C 1177.81 1.71233 1.09776 0
M  V30 12431 C 1178.17 0.462401 1.86761 0
M  V30 12432 O 1177.46 -0.544746 1.83693 0
M  V30 12433 C 1177.66 2.90654 2.07978 0
M  V30 12434 C 1177.48 4.27141 1.40644 0
M  V30 12435 C 1176.25 4.91868 1.15732 0
M  V30 12436 C 1178.45 5.07392 0.840118 0
M  V30 12437 N 1176.43 6.12261 0.448282 0
M  V30 12438 C 1177.81 6.19451 0.260863 0
M  V30 12439 C 1179.86 4.92377 0.739558 0
M  V30 12440 C 1178.56 7.18135 -0.409153 0
M  V30 12441 C 1180.59 5.91341 0.0833084 0
M  V30 12442 C 1179.95 7.02728 -0.485038 0
M  V30 12443 H 1176.05 0.679764 0.386582 0
M  V30 12444 H 1178.63 1.90893 0.383158 0
M  V30 12445 H 1176.81 2.7252 2.76744 0
M  V30 12446 H 1178.54 2.97192 2.74698 0
M  V30 12447 H 1175.29 4.51157 1.44064 0
M  V30 12448 H 1175.72 6.76912 0.108905 0
M  V30 12449 H 1180.36 4.06441 1.16472 0
M  V30 12450 H 1178.08 8.03657 -0.846247 0
M  V30 12451 H 1181.66 5.818 0.00632482 0
M  V30 12452 H 1180.54 7.77992 -0.984802 0
M  V30 12453 N 1178.05 -0.61812 1.44973 0
M  V30 12454 C 1178.98 -1.74299 1.48837 0
M  V30 12455 C 1179.99 -1.58296 0.38028 0
M  V30 12456 O 1181.18 -1.66371 0.646757 0
M  V30 12457 C 1178.28 -3.12179 1.31901 0
M  V30 12458 C 1177.45 -3.54519 2.56193 0
M  V30 12459 C 1176.51 -4.71324 2.33966 0
M  V30 12460 O 1175.54 -4.78975 3.07525 0
M  V30 12461 N 1176.74 -5.63894 1.37854 0
M  V30 12462 H 1179.5 -1.7145 2.45815 0
M  V30 12463 H 1177.07 -0.803087 1.40578 0
M  V30 12464 H 1179.06 -3.88059 1.14858 0
M  V30 12465 H 1177.63 -3.09595 0.43239 0
M  V30 12466 H 1176.85 -2.68711 2.88423 0
M  V30 12467 H 1178.14 -3.79563 3.38835 0
M  V30 12468 H 1177.53 -5.60418 0.771273 0
M  V30 12469 H 1176.09 -6.3935 1.26787 0
M  V30 12470 N 1179.52 -1.32087 -0.859693 0
M  V30 12471 C 1180.43 -1.22587 -2.00024 0
M  V30 12472 C 1181.45 -0.140477 -1.73432 0
M  V30 12473 O 1182.63 -0.360213 -1.98153 0
M  V30 12474 C 1179.69 -0.944195 -3.33595 0
M  V30 12475 C 1178.75 -2.11752 -3.73443 0
M  V30 12476 C 1177.98 -1.84919 -5.0064 0
M  V30 12477 O 1178.21 -0.789299 -5.64913 0
M  V30 12478 O 1177.14 -2.70885 -5.37499 0
M  V30 12479 H 1180.97 -2.18457 -2.10974 0
M  V30 12480 H 1178.55 -1.11927 -0.989577 0
M  V30 12481 H 1180.43 -0.803389 -4.13671 0
M  V30 12482 H 1179.11 -0.0156083 -3.23696 0
M  V30 12483 H 1178.02 -2.31378 -2.93965 0
M  V30 12484 H 1179.35 -3.02872 -3.87981 0
M  V30 12485 N 1181 1.07532 -1.15215 0
M  V30 12486 C 1181.91 2.18222 -0.861192 0
M  V30 12487 C 1182.93 1.73246 0.161798 0
M  V30 12488 O 1184.1 2.01397 -0.0118386 0
M  V30 12489 C 1181.17 3.44902 -0.352601 0
M  V30 12490 C 1180.23 4.04455 -1.43926 0
M  V30 12491 C 1179.46 5.25089 -0.954841 0
M  V30 12492 O 1179.69 5.70048 0.200294 0
M  V30 12493 O 1178.62 5.76269 -1.73774 0
M  V30 12494 H 1182.45 2.45599 -1.78648 0
M  V30 12495 H 1180.03 1.16835 -0.93112 0
M  V30 12496 H 1181.91 4.21333 -0.0753347 0
M  V30 12497 H 1180.59 3.19082 0.544841 0
M  V30 12498 H 1179.49 3.29573 -1.7701 0
M  V30 12499 H 1180.83 4.34544 -2.31155 0
M  V30 12500 N 1182.48 0.948665 1.2585 0
M  V30 12501 C 1183.43 0.462904 2.2611 0
M  V30 12502 C 1184.4 -0.481433 1.5897 0
M  V30 12503 O 1185.58 -0.395997 1.86645 0
M  V30 12504 C 1182.72 -0.258808 3.44128 0
M  V30 12505 C 1181.84 0.722072 4.25923 0
M  V30 12506 C 1180.97 -0.0215958 5.31196 0
M  V30 12507 C 1180.01 0.950612 6.04673 0
M  V30 12508 N 1179.15 0.238209 7.01696 0
M  V30 12509 H 1183.99 1.32279 2.67032 0
M  V30 12510 H 1181.52 0.663485 1.31287 0
M  V30 12511 H 1183.48 -0.693759 4.11391 0
M  V30 12512 H 1182.11 -1.08278 3.04098 0
M  V30 12513 H 1181.16 1.27552 3.58378 0
M  V30 12514 H 1182.48 1.46421 4.76825 0
M  V30 12515 H 1181.63 -0.51547 6.04506 0
M  V30 12516 H 1180.37 -0.796563 4.81151 0
M  V30 12517 H 1179.37 1.45554 5.30183 0
M  V30 12518 H 1180.6 1.72571 6.56808 0
M  V30 12519 H 1178.54 -0.518129 6.53951 0
M  V30 12520 H 1178.46 0.919542 7.50387 0
M  V30 12521 H 1179.73 -0.234325 7.79148 0
M  V30 12522 N 1183.96 -1.40369 0.716545 0
M  V30 12523 C 1184.87 -2.34508 0.065658 0
M  V30 12524 C 1185.88 -1.57352 -0.742723 0
M  V30 12525 O 1187.06 -1.89735 -0.675456 0
M  V30 12526 C 1184.13 -3.36262 -0.844337 0
M  V30 12527 C 1183.19 -4.29292 -0.0257971 0
M  V30 12528 C 1182.42 -5.26185 -0.892452 0
M  V30 12529 O 1182.64 -5.29071 -2.13166 0
M  V30 12530 O 1181.58 -6.0099 -0.330933 0
M  V30 12531 H 1185.4 -2.91789 0.842184 0
M  V30 12532 H 1182.99 -1.41579 0.477034 0
M  V30 12533 H 1184.87 -3.98661 -1.36555 0
M  V30 12534 H 1183.54 -2.81393 -1.59999 0
M  V30 12535 H 1182.45 -3.70175 0.540512 0
M  V30 12536 H 1183.78 -4.87316 0.69166 0
M  V30 12537 N 1185.44 -0.462799 -1.50652 0
M  V30 12538 C 1186.4 0.324264 -2.26895 0
M  V30 12539 C 1187.4 0.927687 -1.31342 0
M  V30 12540 O 1188.59 0.798159 -1.54839 0
M  V30 12541 C 1185.72 1.46113 -3.08 0
M  V30 12542 H 1186.91 -0.344266 -2.97917 0
M  V30 12543 H 1184.47 -0.216631 -1.54791 0
M  V30 12544 H 1185.2 2.16496 -2.41454 0
M  V30 12545 H 1184.99 1.03433 -3.78212 0
M  V30 12546 H 1186.48 2.01655 -3.65684 0
M  V30 12547 N 1186.91 1.56388 -0.195085 0
M  V30 12548 C 1187.82 2.22698 0.737743 0
M  V30 12549 C 1188.84 1.22605 1.23466 0
M  V30 12550 O 1190.02 1.55342 1.28183 0
M  V30 12551 C 1187.08 2.87333 1.94011 0
M  V30 12552 C 1186.14 4.02696 1.48776 0
M  V30 12553 C 1185.38 4.64239 2.63282 0
M  V30 12554 O 1185.6 4.24706 3.80763 0
M  V30 12555 O 1184.53 5.53705 2.35996 0
M  V30 12556 H 1188.36 3.03021 0.203013 0
M  V30 12557 H 1185.94 1.49361 0.0342044 0
M  V30 12558 H 1187.83 3.28226 2.64284 0
M  V30 12559 H 1186.5 2.0999 2.46345 0
M  V30 12560 H 1185.41 3.66426 0.753839 0
M  V30 12561 H 1186.74 4.81703 1.01109 0
M  V30 12562 N 1188.39 -0.0785156 1.57404 0
M  V30 12563 C 1189.62 -0.792042 1.9114 0
M  V30 12564 C 1190.04 -1.71458 0.790408 0
M  V30 12565 O 1189.39 -1.80959 -0.236662 0
M  V30 12566 C 1189.44 -1.59138 3.24588 0
M  V30 12567 O 1189.16 -0.705931 4.32375 0
M  V30 12568 C 1190.67 -2.4065 3.72293 0
M  V30 12569 H 1187.89 -0.225566 0.63195 0
M  V30 12570 H 1190.43 -0.0507929 2.04437 0
M  V30 12571 H 1188.58 -2.28498 3.12838 0
M  V30 12572 H 1189 -1.26121 5.09111 0
M  V30 12573 H 1190.47 -2.92204 4.68317 0
M  V30 12574 H 1190.95 -3.1987 3.00965 0
M  V30 12575 H 1191.56 -1.7646 3.86965 0
M  V30 12576 N 1189.87 -1.5367 -0.349747 0
M  V30 12577 C 1191.12 -1.70281 -1.08853 0
M  V30 12578 C 1191.44 -0.465438 -1.89364 0
M  V30 12579 O 1190.71 0.520615 -1.88856 0
M  V30 12580 H 1189.29 -0.627775 -0.404854 0
M  V30 12581 H 1191.95 -1.90906 -0.392523 0
M  V30 12582 H 1191.05 -2.57096 -1.76941 0
M  V30 12583 N 1191.35 0.610423 -1.45298 0
M  V30 12584 C 1192.31 1.70324 -1.5337 0
M  V30 12585 C 1193.31 1.55393 -0.413492 0
M  V30 12586 O 1194.5 1.60512 -0.676872 0
M  V30 12587 C 1191.63 3.09572 -1.42752 0
M  V30 12588 H 1192.83 1.64535 -2.50736 0
M  V30 12589 H 1190.38 0.825906 -1.32697 0
M  V30 12590 H 1191.11 3.2094 -0.465601 0
M  V30 12591 H 1190.9 3.21817 -2.24 0
M  V30 12592 H 1192.39 3.89178 -1.51427 0
M  V30 12593 N 1192.83 1.32541 0.852676 0
M  V30 12594 C 1193.74 1.23646 1.99371 0
M  V30 12595 C 1194.75 0.149673 1.73355 0
M  V30 12596 O 1195.93 0.370716 1.97959 0
M  V30 12597 C 1192.99 0.961873 3.3309 0
M  V30 12598 C 1192.05 2.1373 3.72315 0
M  V30 12599 C 1191.29 1.87572 4.99652 0
M  V30 12600 O 1191.51 0.819247 5.64486 0
M  V30 12601 O 1190.44 2.73732 5.36054 0
M  V30 12602 H 1194.27 2.19573 2.09813 0
M  V30 12603 H 1191.86 1.12451 0.983627 0
M  V30 12604 H 1193.74 0.825316 4.13239 0
M  V30 12605 H 1192.41 0.0327745 3.23683 0
M  V30 12606 H 1191.32 2.32933 2.92733 0
M  V30 12607 H 1192.65 3.04925 3.86369 0
M  V30 12608 N 1194.3 -1.0692 1.15784 0
M  V30 12609 C 1195.25 -2.16335 0.854506 0
M  V30 12610 C 1196.25 -1.68505 -0.173868 0
M  V30 12611 O 1197.45 -1.79977 -0.0284722 0
M  V30 12612 H 1193.83 -0.706103 0.258694 0
M  V30 12613 H 1195.8 -2.39135 1.78486 0
M  V30 12614 C 1194.55 -3.45778 0.365042 0
M  V30 12615 H 1193.87 -3.82971 1.14776 0
M  V30 12616 H 1195.31 -4.23567 0.191504 0
M  V30 12617 C 1193.77 -3.24258 -0.914253 0
M  V30 12618 O 1194.3 -3.49236 -1.98487 0
M  V30 12619 N 1192.51 -2.77722 -0.855501 0
M  V30 12620 H 1192.05 -2.57595 0.0159233 0
M  V30 12621 H 1192.01 -2.63702 -1.71198 0
M  V30 12622 N 1195.78 -0.955326 -1.25345 0
M  V30 12623 C 1196.75 -0.480564 -2.24105 0
M  V30 12624 C 1197.75 0.416123 -1.55322 0
M  V30 12625 O 1198.94 0.213315 -1.72889 0
M  V30 12626 C 1196.07 0.305589 -3.39528 0
M  V30 12627 H 1197.26 -1.35349 -2.6762 0
M  V30 12628 H 1194.81 -0.738673 -1.37744 0
M  V30 12629 H 1195.55 1.19615 -3.01434 0
M  V30 12630 H 1195.33 -0.337719 -3.90643 0
M  V30 12631 H 1196.82 0.627201 -4.12863 0
M  V30 12632 N 1197.26 1.39987 -0.723979 0
M  V30 12633 C 1198.49 2.0556 -0.275634 0
M  V30 12634 C 1198.91 1.54207 1.07711 0
M  V30 12635 O 1198.27 0.681041 1.68022 0
M  V30 12636 C 1198.32 3.59551 -0.27485 0
M  V30 12637 O 1197.42 4.05685 0.741182 0
M  V30 12638 H 1196.76 0.651634 -0.12755 0
M  V30 12639 H 1199.29 1.79229 -0.986814 0
M  V30 12640 H 1199.3 4.07837 -0.115425 0
M  V30 12641 H 1197.98 3.96291 -1.26198 0
M  V30 12642 H 1196.55 3.6884 0.548795 0
M  V30 12643 N 1198.74 0.470782 1.50404 0
M  V30 12644 C 1199.96 -0.084284 2.07229 0
M  V30 12645 C 1200.39 -1.32774 1.33239 0
M  V30 12646 O 1199.75 -1.77274 0.379971 0
M  V30 12647 C 1199.8 -0.351565 3.58882 0
M  V30 12648 O 1198.9 -1.43211 3.86736 0
M  V30 12649 H 1198.24 0.0128479 0.663876 0
M  V30 12650 H 1200.77 0.661735 1.93603 0
M  V30 12651 H 1200.78 -0.592151 4.0368 0
M  V30 12652 H 1199.46 0.557084 4.12152 0
M  V30 12653 H 1198.03 -1.17886 3.53776 0
M  V30 12654 N 1200.22 -1.56282 0.203376 0
M  V30 12655 C 1201.16 -2.19473 -0.714164 0
M  V30 12656 C 1202.13 -1.14454 -1.20372 0
M  V30 12657 O 1203.32 -1.42739 -1.26611 0
M  V30 12658 C 1200.46 -2.86451 -1.92457 0
M  V30 12659 C 1199.57 -4.06017 -1.47561 0
M  V30 12660 C 1198.71 -4.60829 -2.64216 0
M  V30 12661 C 1197.75 -5.72734 -2.15967 0
M  V30 12662 N 1196.88 -6.21916 -3.25829 0
M  V30 12663 H 1201.72 -2.97523 -0.168558 0
M  V30 12664 H 1199.26 -1.46926 -0.0714525 0
M  V30 12665 H 1201.22 -3.23459 -2.63496 0
M  V30 12666 H 1199.85 -2.10951 -2.44335 0
M  V30 12667 H 1198.9 -3.74617 -0.660784 0
M  V30 12668 H 1200.21 -4.8693 -1.08168 0
M  V30 12669 H 1199.37 -5.00185 -3.43366 0
M  V30 12670 H 1198.11 -3.7904 -3.06887 0
M  V30 12671 H 1197.11 -5.32899 -1.35273 0
M  V30 12672 H 1198.34 -6.56346 -1.74316 0
M  V30 12673 H 1196.28 -5.43047 -3.68016 0
M  V30 12674 H 1196.2 -6.97904 -2.90631 0
M  V30 12675 H 1197.47 -6.65927 -4.05168 0
M  V30 12676 N 1201.7 0.070167 -1.57444 0
M  V30 12677 C 1202.61 1.10106 -2.07157 0
M  V30 12678 C 1203.62 1.42293 -1.00143 0
M  V30 12679 O 1204.8 1.52437 -1.31624 0
M  V30 12680 C 1201.86 2.39486 -2.50694 0
M  V30 12681 C 1200.92 2.14255 -3.72012 0
M  V30 12682 C 1200.16 3.37466 -4.13464 0
M  V30 12683 O 1200.38 4.46645 -3.54773 0
M  V30 12684 O 1199.31 3.25583 -5.0624 0
M  V30 12685 H 1203.14 0.70873 -2.95315 0
M  V30 12686 H 1200.72 0.28441 -1.46668 0
M  V30 12687 H 1202.61 3.15625 -2.79212 0
M  V30 12688 H 1201.28 2.78095 -1.65664 0
M  V30 12689 H 1200.19 1.35816 -3.48575 0
M  V30 12690 H 1201.52 1.80525 -4.57899 0
M  V30 12691 N 1203.17 1.53854 0.341593 0
M  V30 12692 C 1204.4 1.75447 1.10604 0
M  V30 12693 C 1204.82 0.493225 1.81518 0
M  V30 12694 O 1204.18 -0.554253 1.7262 0
M  V30 12695 C 1204.23 2.93593 2.09369 0
M  V30 12696 O 1203.33 2.63878 3.16926 0
M  V30 12697 H 1202.67 0.581923 0.319783 0
M  V30 12698 H 1205.2 2.00822 0.391388 0
M  V30 12699 H 1205.21 3.20437 2.52556 0
M  V30 12700 H 1203.89 3.85067 1.57151 0
M  V30 12701 H 1202.47 2.47929 2.78542 0
M  V30 12702 N 1204.65 -0.602709 1.4562 0
M  V30 12703 C 1205.56 -1.74132 1.5721 0
M  V30 12704 C 1206.58 -1.67909 0.456347 0
M  V30 12705 O 1207.75 -1.88178 0.717714 0
M  V30 12706 C 1204.82 -3.10604 1.54032 0
M  V30 12707 C 1203.88 -3.28244 2.76685 0
M  V30 12708 C 1203.11 -4.58205 2.73649 0
M  V30 12709 O 1203.34 -5.40836 1.81254 0
M  V30 12710 O 1202.27 -4.78663 3.64919 0
M  V30 12711 H 1206.1 -1.67304 2.53462 0
M  V30 12712 H 1203.68 -0.767381 1.28186 0
M  V30 12713 H 1205.56 -3.91904 1.54885 0
M  V30 12714 H 1204.24 -3.17913 0.60934 0
M  V30 12715 H 1203.14 -2.46514 2.81393 0
M  V30 12716 H 1204.48 -3.25814 3.68925 0
M  V30 12717 N 1206.13 -1.32992 -0.845635 0
M  V30 12718 C 1207.35 -1.27231 -1.6379 0
M  V30 12719 C 1207.78 0.155141 -1.87459 0
M  V30 12720 O 1207.14 1.10953 -1.43384 0
M  V30 12721 C 1207.19 -2.04629 -2.96916 0
M  V30 12722 O 1206.29 -1.40027 -3.879 0
M  V30 12723 H 1205.63 -0.438045 -0.499011 0
M  V30 12724 H 1208.16 -1.75448 -1.05257 0
M  V30 12725 H 1208.17 -2.15141 -3.46667 0
M  V30 12726 H 1206.85 -3.08425 -2.79011 0
M  V30 12727 H 1205.42 -1.38118 -3.46378 0
M  V30 12728 N 1207.61 1.06304 -1.1635 0
M  V30 12729 C 1208.57 2.11947 -0.872419 0
M  V30 12730 C 1209.57 1.60253 0.132534 0
M  V30 12731 O 1210.76 1.73922 -0.0983441 0
M  V30 12732 C 1207.89 3.39536 -0.304646 0
M  V30 12733 H 1209.09 2.39201 -1.80894 0
M  V30 12734 H 1206.64 1.22367 -0.972419 0
M  V30 12735 H 1207.37 3.17931 0.639565 0
M  V30 12736 H 1207.16 3.78363 -1.02878 0
M  V30 12737 H 1208.65 4.17431 -0.118936 0
M  V30 12738 N 1209.09 0.96196 1.24836 0
M  V30 12739 C 1210.02 0.506241 2.27946 0
M  V30 12740 C 1211 -0.451183 1.64007 0
M  V30 12741 O 1212.18 -0.348552 1.91046 0
M  V30 12742 C 1209.31 -0.209846 3.46665 0
M  V30 12743 C 1208.27 0.663035 4.22833 0
M  V30 12744 C 1207.59 -0.184216 5.34383 0
M  V30 12745 C 1208.89 1.94479 4.84742 0
M  V30 12746 H 1210.59 1.36805 2.66317 0
M  V30 12747 H 1208.13 0.65926 1.28023 0
M  V30 12748 H 1210.08 -0.539838 4.17928 0
M  V30 12749 H 1208.81 -1.10596 3.07305 0
M  V30 12750 H 1207.47 0.976216 3.53363 0
M  V30 12751 H 1207.12 -1.08031 4.91262 0
M  V30 12752 H 1206.82 0.39657 5.8626 0
M  V30 12753 H 1208.34 -0.509009 6.08475 0
M  V30 12754 H 1209.75 1.68074 5.48109 0
M  V30 12755 H 1208.15 2.47183 5.46828 0
M  V30 12756 H 1209.22 2.64332 4.06517 0
M  V30 12757 N 1210.56 -1.39601 0.731392 0
M  V30 12758 C 1211.5 -2.28169 0.0378735 0
M  V30 12759 C 1212.47 -1.44195 -0.751434 0
M  V30 12760 O 1213.66 -1.7359 -0.734753 0
M  V30 12761 C 1210.79 -3.24999 -0.953589 0
M  V30 12762 C 1209.83 -4.25748 -0.253203 0
M  V30 12763 S 1210.66 -5.25496 1.03025 0
M  V30 12764 C 1211.82 -6.25886 0.0412927 0
M  V30 12765 H 1212.05 -2.8664 0.788973 0
M  V30 12766 H 1209.59 -1.45271 0.523044 0
M  V30 12767 H 1211.54 -3.81308 -1.52035 0
M  V30 12768 H 1210.21 -2.65554 -1.6775 0
M  V30 12769 H 1209.4 -4.93913 -1.00328 0
M  V30 12770 H 1209 -3.7322 0.241426 0
M  V30 12771 H 1211.29 -6.72757 -0.800305 0
M  V30 12772 H 1212.24 -7.0473 0.68999 0
M  V30 12773 H 1212.64 -5.63538 -0.329495 0
M  V30 12774 N 1212.04 -0.478751 -1.50152 0
M  V30 12775 C 1212.95 0.316554 -2.32455 0
M  V30 12776 C 1213.97 0.98871 -1.4318 0
M  V30 12777 O 1215.14 0.974998 -1.76226 0
M  V30 12778 C 1212.21 1.3799 -3.18056 0
M  V30 12779 C 1211.27 0.723534 -4.23159 0
M  V30 12780 C 1210.5 1.73621 -5.0467 0
M  V30 12781 O 1210.73 2.96362 -4.87366 0
M  V30 12782 O 1209.66 1.30381 -5.87609 0
M  V30 12783 H 1213.49 -0.356491 -3.016 0
M  V30 12784 H 1211.07 -0.24046 -1.47452 0
M  V30 12785 H 1212.95 1.99565 -3.71149 0
M  V30 12786 H 1211.63 2.03627 -2.5163 0
M  V30 12787 H 1210.54 0.0686296 -3.74037 0
M  V30 12788 H 1211.87 0.109979 -4.92077 0
M  V30 12789 N 1213.52 1.56172 -0.211661 0
M  V30 12790 C 1214.8 1.8984 0.471195 0
M  V30 12791 C 1215.18 1.1276 1.78461 0
M  V30 12792 O 1214.53 0.233817 2.27301 0
M  V30 12793 C 1214.74 3.42434 0.673814 0
M  V30 12794 C 1216.08 4.13 0.985719 0
M  V30 12795 O 1217.11 3.47977 0.760953 0
M  V30 12796 O 1215.97 5.2795 1.41176 0
M  V30 12797 H 1213.06 0.789008 0.247782 0
M  V30 12798 H 1215.61 1.67802 -0.25311 0
M  V30 12799 H 1214.38 3.90481 -0.253034 0
M  V30 12800 H 1214 3.70218 1.44997 0
M  V30 12801 N 1215 -0.0618163 1.57479 0
M  V30 12802 C 1216.41 -0.416827 1.54061 0
M  V30 12803 C 1216.61 -1.78584 0.933277 0
M  V30 12804 O 1215.67 -2.46656 0.54009 0
M  V30 12805 C 1216.98 -0.348728 2.98671 0
M  V30 12806 C 1218.53 -0.428194 3.10057 0
M  V30 12807 C 1219.01 -0.389898 4.56337 0
M  V30 12808 N 1220.5 -0.449677 4.61012 0
M  V30 12809 C 1221.23 -0.442418 5.71691 0
M  V30 12810 N 1220.73 -0.389381 6.91705 0
M  V30 12811 N 1222.52 -0.489719 5.59963 0
M  V30 12812 H 1214.67 0.834487 1.9532 0
M  V30 12813 H 1216.94 0.314149 0.894435 0
M  V30 12814 H 1216.64 0.590738 3.46703 0
M  V30 12815 H 1216.52 -1.15511 3.59078 0
M  V30 12816 H 1218.9 -1.35808 2.61992 0
M  V30 12817 H 1218.98 0.406946 2.52542 0
M  V30 12818 H 1218.63 0.536186 5.05062 0
M  V30 12819 H 1218.56 -1.24271 5.11727 0
M  V30 12820 H 1221.05 -0.49451 3.74651 0
M  V30 12821 H 1221.36 -0.388042 7.71825 0
M  V30 12822 H 1219.71 -0.355918 6.94088 0
M  V30 12823 H 1222.9 -0.528915 4.65102 0
M  V30 12824 H 1223.07 -0.480592 6.46215 0
M  V30 12825 N 1216.48 -1.54033 -0.333429 0
M  V30 12826 C 1217.75 -1.62404 -1.09015 0
M  V30 12827 C 1218.13 -0.451653 -2.06212 0
M  V30 12828 O 1217.48 0.555086 -2.21655 0
M  V30 12829 C 1217.69 -2.98949 -1.80085 0
M  V30 12830 C 1219.04 -3.54655 -2.33464 0
M  V30 12831 O 1220.06 -3.0119 -1.90166 0
M  V30 12832 O 1218.92 -4.48195 -3.12703 0
M  V30 12833 H 1216.02 -0.65727 -0.501921 0
M  V30 12834 H 1218.56 -1.66378 -0.33411 0
M  V30 12835 H 1217.33 -3.75716 -1.09332 0
M  V30 12836 H 1216.96 -2.98609 -2.62523 0
M  V30 12837 N 1217.95 0.594978 -1.45938 0
M  V30 12838 C 1218.86 1.73296 -1.58132 0
M  V30 12839 C 1219.88 1.67665 -0.465245 0
M  V30 12840 O 1221.06 1.87794 -0.727684 0
M  V30 12841 C 1218.12 3.09783 -1.55677 0
M  V30 12842 C 1217.18 3.26772 -2.78422 0
M  V30 12843 C 1216.42 4.56748 -2.76075 0
M  V30 12844 O 1216.64 5.39867 -1.84119 0
M  V30 12845 O 1215.57 4.76721 -3.67452 0
M  V30 12846 H 1219.4 1.65957 -2.54346 0
M  V30 12847 H 1216.98 0.760572 -1.28591 0
M  V30 12848 H 1218.87 3.91077 -1.56961 0
M  V30 12849 H 1217.54 3.17585 -0.626191 0
M  V30 12850 H 1216.45 2.45018 -2.82696 0
M  V30 12851 H 1217.78 3.23853 -3.70648 0
M  V30 12852 N 1219.43 1.33438 0.838571 0
M  V30 12853 C 1220.66 1.28097 1.63113 0
M  V30 12854 C 1221.08 -0.145197 1.87539 0
M  V30 12855 O 1220.44 -1.10191 1.43971 0
M  V30 12856 C 1220.49 2.06201 2.95827 0
M  V30 12857 O 1219.59 1.42082 3.87152 0
M  V30 12858 H 1218.93 0.440685 0.496681 0
M  V30 12859 H 1221.46 1.76004 1.04325 0
M  V30 12860 H 1221.47 2.16977 3.45521 0
M  V30 12861 H 1220.15 3.099 2.77371 0
M  V30 12862 H 1218.73 1.39953 3.45641 0
M  V30 12863 N 1220.91 -1.05686 1.16912 0
M  V30 12864 C 1221.82 -2.16824 0.8958 0
M  V30 12865 C 1222.84 -1.73482 -0.134215 0
M  V30 12866 O 1224.01 -2.01352 0.0438776 0
M  V30 12867 C 1221.08 -3.44298 0.407427 0
M  V30 12868 C 1220.14 -4.02114 1.50342 0
M  V30 12869 C 1219.37 -5.23503 1.03826 0
M  V30 12870 O 1219.59 -5.70295 -0.109579 0
M  V30 12871 O 1218.53 -5.73432 1.8292 0
M  V30 12872 H 1222.35 -2.42725 1.82533 0
M  V30 12873 H 1219.94 -1.15339 0.949589 0
M  V30 12874 H 1221.82 -4.21159 0.142356 0
M  V30 12875 H 1220.5 -3.19908 -0.494009 0
M  V30 12876 H 1219.4 -3.26715 1.82231 0
M  V30 12877 H 1220.74 -4.30811 2.38039 0
M  V30 12878 N 1222.39 -0.968567 -1.24324 0
M  V30 12879 C 1223.63 -0.631863 -1.92705 0
M  V30 12880 C 1223.97 0.83096 -1.75524 0
M  V30 12881 O 1223.24 1.59795 -1.10887 0
M  V30 12882 C 1223.53 -1.00845 -3.45691 0
M  V30 12883 C 1223.38 -2.52803 -3.72036 0
M  V30 12884 C 1224.7 -0.543647 -4.36729 0
M  V30 12885 H 1221.82 -0.231027 -0.699854 0
M  V30 12886 H 1224.46 -1.20773 -1.46676 0
M  V30 12887 H 1222.61 -0.518434 -3.85025 0
M  V30 12888 H 1224.28 -3.09289 -3.42255 0
M  V30 12889 H 1222.52 -2.95963 -3.17157 0
M  V30 12890 H 1223.19 -2.74203 -4.79079 0
M  V30 12891 H 1225.67 -0.964182 -4.04775 0
M  V30 12892 H 1224.55 -0.8357 -5.42501 0
M  V30 12893 H 1224.81 0.556256 -4.38587 0
M  V30 12894 N 1223.87 1.39211 -0.738786 0
M  V30 12895 C 1225.09 2.05256 -0.297421 0
M  V30 12896 C 1225.52 1.55341 1.06069 0
M  V30 12897 O 1224.87 0.698823 1.67291 0
M  V30 12898 C 1224.92 3.59239 -0.312969 0
M  V30 12899 O 1224.03 4.06448 0.698112 0
M  V30 12900 H 1223.37 0.650245 -0.134454 0
M  V30 12901 H 1225.9 1.78173 -1.00577 0
M  V30 12902 H 1225.91 4.07691 -0.158675 0
M  V30 12903 H 1224.58 3.94931 -1.30394 0
M  V30 12904 H 1223.16 3.69401 0.509643 0
M  V30 12905 N 1225.34 0.486708 1.49896 0
M  V30 12906 C 1226.62 -0.125183 1.95199 0
M  V30 12907 C 1227 -1.55498 1.42771 0
M  V30 12908 O 1226.35 -2.1949 0.635322 0
M  V30 12909 C 1226.56 -0.0524982 3.48961 0
M  V30 12910 C 1227.91 -0.233595 4.23957 0
M  V30 12911 O 1228.93 -0.128357 3.55969 0
M  V30 12912 O 1227.79 -0.447862 5.44662 0
M  V30 12913 H 1224.88 -0.103141 0.820543 0
M  V30 12914 H 1227.43 0.548226 1.60601 0
M  V30 12915 H 1226.2 0.945163 3.79714 0
M  V30 12916 H 1225.83 -0.766683 3.90138 0
M  V30 12917 N 1226.82 -1.56058 0.219941 0
M  V30 12918 C 1227.73 -2.23844 -0.70222 0
M  V30 12919 C 1228.75 -1.24554 -1.215 0
M  V30 12920 O 1229.93 -1.57362 -1.25695 0
M  V30 12921 C 1226.99 -2.90384 -1.89416 0
M  V30 12922 C 1226.05 -4.05012 -1.42351 0
M  V30 12923 C 1225.28 -4.68369 -2.55863 0
M  V30 12924 O 1225.51 -4.3071 -3.73958 0
M  V30 12925 O 1224.44 -5.5739 -2.27157 0
M  V30 12926 H 1228.27 -3.03305 -0.15478 0
M  V30 12927 H 1225.85 -1.49396 -0.010438 0
M  V30 12928 H 1227.73 -3.32389 -2.59028 0
M  V30 12929 H 1226.41 -2.13883 -2.42973 0
M  V30 12930 H 1225.32 -3.67579 -0.695448 0
M  V30 12931 H 1226.65 -4.83251 -0.934332 0
M  V30 12932 N 1228.3 0.053464 -1.57509 0
M  V30 12933 C 1229.55 0.747622 -1.87763 0
M  V30 12934 C 1229.87 1.77178 -0.814433 0
M  V30 12935 O 1229.14 1.95287 0.154862 0
M  V30 12936 H 1227.72 0.279109 -0.692898 0
M  V30 12937 H 1230.38 0.0252006 -1.94884 0
M  V30 12938 H 1229.48 1.25244 -2.85868 0
M  V30 12939 N 1229.78 1.54207 0.325255 0
M  V30 12940 C 1231.03 1.71991 1.0613 0
M  V30 12941 C 1231.35 0.495505 1.88599 0
M  V30 12942 O 1230.62 -0.490504 1.8966 0
M  V30 12943 H 1229.2 0.634137 0.394816 0
M  V30 12944 H 1231.86 1.91507 0.362101 0
M  V30 12945 H 1230.96 2.59878 1.72829 0
M  V30 12946 N 1231.26 -0.58723 1.46251 0
M  V30 12947 C 1232.48 -1.37661 1.55126 0
M  V30 12948 C 1232.91 -1.87123 0.191489 0
M  V30 12949 O 1232.27 -1.6131 -0.827576 0
M  V30 12950 C 1232.31 -2.54324 2.5564 0
M  V30 12951 O 1231.42 -3.55617 2.0883 0
M  V30 12952 H 1230.76 -0.410154 0.522178 0
M  V30 12953 H 1233.29 -0.712738 1.91784 0
M  V30 12954 H 1233.3 -3.01301 2.75103 0
M  V30 12955 H 1231.97 -2.17675 3.54387 0
M  V30 12956 H 1230.55 -3.15151 1.99335 0
M  V30 12957 N 1232.74 -1.33881 -0.831482 0
M  V30 12958 C 1234.15 -1.23112 -1.40358 0
M  V30 12959 C 1234.5 0.146944 -1.95649 0
M  V30 12960 O 1233.62 1.04689 -1.89391 0
M  V30 12961 C 1234.22 -2.22899 -2.5515 0
M  V30 12962 C 1232.78 -2.15946 -3.08292 0
M  V30 12963 C 1231.92 -2.09975 -1.81124 0
M  V30 12964 H 1234.87 -1.45372 -0.63661 0
M  V30 12965 H 1234.9 -1.841 -3.32997 0
M  V30 12966 H 1234.41 -3.23186 -2.14878 0
M  V30 12967 H 1232.51 -1.18987 -3.53091 0
M  V30 12968 H 1232.62 -3.06822 -3.67964 0
M  V30 12969 H 1230.99 -1.55564 -2.01673 0
M  V30 12970 H 1231.77 -3.12082 -1.43037 0
M  V30 12971 N 1234.21 1.05064 -1.1747 0
M  V30 12972 C 1235.46 1.77481 -0.958301 0
M  V30 12973 C 1235.78 1.88725 0.51401 0
M  V30 12974 O 1236.98 2.57895 0.848657 0
M  V30 12975 C 1235.44 3.19048 -1.66543 0
M  V30 12976 C 1235.05 3.1593 -3.17636 0
M  V30 12977 C 1236.79 3.95912 -1.53146 0
M  V30 12978 C 1234.7 4.52293 -3.81032 0
M  V30 12979 H 1233.63 0.665247 -0.354913 0
M  V30 12980 H 1236.28 1.17751 -1.40737 0
M  V30 12981 H 1234.66 3.79113 -1.1441 0
M  V30 12982 H 1235.83 2.65375 -3.76713 0
M  V30 12983 H 1234.15 2.52564 -3.31059 0
M  V30 12984 H 1236.75 4.96737 -1.9788 0
M  V30 12985 H 1237.09 4.13498 -0.482203 0
M  V30 12986 H 1237.62 3.42399 -2.02504 0
M  V30 12987 H 1234.36 4.39913 -4.8596 0
M  V30 12988 H 1233.88 5.02991 -3.26741 0
M  V30 12989 H 1235.56 5.2123 -3.83312 0
M  V30 12990 N 1235.69 0.975146 1.23809 0
M  V30 12991 C 1236.92 0.658605 1.96665 0
M  V30 12992 C 1237.34 -0.766744 1.71763 0
M  V30 12993 O 1236.7 -1.52151 0.985887 0
M  V30 12994 C 1236.75 0.948438 3.47904 0
M  V30 12995 O 1235.85 0.0377241 4.12383 0
M  V30 12996 H 1235.19 0.248231 0.615855 0
M  V30 12997 H 1237.72 1.30732 1.57386 0
M  V30 12998 H 1237.73 0.883 3.9833 0
M  V30 12999 H 1236.41 1.98717 3.65355 0
M  V30 13000 H 1234.98 0.157122 3.72569 0
M  V30 13001 N 1237.17 -1.38817 0.746158 0
M  V30 13002 C 1238.39 -2.05096 0.308302 0
M  V30 13003 C 1238.82 -1.55902 -1.05244 0
M  V30 13004 O 1238.18 -0.707685 -1.66918 0
M  V30 13005 C 1238.23 -3.59068 0.332016 0
M  V30 13006 O 1237.33 -4.06813 -0.676547 0
M  V30 13007 H 1236.67 -0.649523 0.1379 0
M  V30 13008 H 1239.2 -1.77637 1.0152 0
M  V30 13009 H 1239.21 -4.07601 0.180293 0
M  V30 13010 H 1237.89 -3.94234 1.32487 0
M  V30 13011 H 1236.46 -3.69666 -0.490046 0
M  V30 13012 N 1238.65 -0.49465 -1.49636 0
M  V30 13013 C 1239.56 0.291881 -2.32777 0
M  V30 13014 C 1240.57 0.973468 -1.44221 0
M  V30 13015 O 1241.75 0.956252 -1.77251 0
M  V30 13016 C 1238.81 1.34609 -3.19502 0
M  V30 13017 C 1237.88 0.678611 -4.23903 0
M  V30 13018 C 1237.11 1.68259 -5.06483 0
M  V30 13019 O 1237.33 2.91176 -4.90482 0
M  V30 13020 O 1236.27 1.24141 -5.88959 0
M  V30 13021 H 1240.09 -0.388459 -3.01205 0
M  V30 13022 H 1237.68 -0.256086 -1.47189 0
M  V30 13023 H 1239.56 1.95617 -3.73245 0
M  V30 13024 H 1238.23 2.00947 -2.53775 0
M  V30 13025 H 1237.14 0.0289541 -3.74089 0
M  V30 13026 H 1238.47 0.0577817 -4.92166 0
M  V30 13027 N 1240.13 1.55939 -0.228214 0
M  V30 13028 C 1241.37 1.98084 0.400884 0
M  V30 13029 C 1241.69 1.11727 1.59819 0
M  V30 13030 O 1240.96 0.195794 1.94919 0
M  V30 13031 H 1239.54 0.731558 0.151102 0
M  V30 13032 H 1242.21 1.92211 -0.322659 0
M  V30 13033 H 1241.3 3.03617 0.722706 0
M  V30 13034 N 1241.6 -0.0451101 1.57535 0
M  V30 13035 C 1242.54 -1.07792 2.02271 0
M  V30 13036 C 1243.55 -1.33423 0.932854 0
M  V30 13037 O 1244.74 -1.31193 1.2104 0
M  V30 13038 C 1241.84 -2.42314 2.36933 0
M  V30 13039 C 1241.01 -2.36266 3.68099 0
M  V30 13040 C 1240.07 -3.53108 3.9013 0
M  V30 13041 O 1239.1 -3.33327 4.61391 0
M  V30 13042 N 1240.3 -4.74415 3.3453 0
M  V30 13043 H 1243.06 -0.696744 2.91489 0
M  V30 13044 H 1240.62 -0.233336 1.6021 0
M  V30 13045 H 1242.62 -3.19171 2.48821 0
M  V30 13046 H 1241.19 -2.72335 1.53468 0
M  V30 13047 H 1240.41 -1.44615 3.66715 0
M  V30 13048 H 1241.69 -2.29351 4.54175 0
M  V30 13049 H 1241.09 -4.93388 2.76739 0
M  V30 13050 H 1239.65 -5.48692 3.51825 0
M  V30 13051 N 1243.08 -1.54377 -0.317073 0
M  V30 13052 C 1243.99 -1.87247 -1.41335 0
M  V30 13053 C 1245.01 -0.765017 -1.5628 0
M  V30 13054 O 1246.18 -1.05994 -1.71252 0
M  V30 13055 C 1243.25 -2.0988 -2.75955 0
M  V30 13056 C 1242.31 -3.33658 -2.70131 0
M  V30 13057 C 1241.54 -3.55202 -3.9833 0
M  V30 13058 O 1241.77 -2.80061 -4.96913 0
M  V30 13059 O 1240.7 -4.48693 -4.01196 0
M  V30 13060 H 1244.53 -2.80481 -1.16465 0
M  V30 13061 H 1242.11 -1.40364 -0.511687 0
M  V30 13062 H 1243.99 -2.2606 -3.55633 0
M  V30 13063 H 1242.67 -1.19834 -3.00702 0
M  V30 13064 H 1241.58 -3.22857 -1.88981 0
M  V30 13065 H 1242.91 -4.23782 -2.50338 0
M  V30 13066 N 1244.56 0.579466 -1.4656 0
M  V30 13067 C 1245.97 1.1616 -1.46164 0
M  V30 13068 C 1246.32 1.95134 -0.20423 0
M  V30 13069 O 1245.45 2.05022 0.692457 0
M  V30 13070 C 1246.04 2.11322 -2.64818 0
M  V30 13071 C 1244.6 2.64852 -2.67452 0
M  V30 13072 C 1243.75 1.40786 -2.38903 0
M  V30 13073 H 1246.7 0.367229 -1.54393 0
M  V30 13074 H 1246.72 2.94839 -2.4052 0
M  V30 13075 H 1246.23 1.53815 -3.56318 0
M  V30 13076 H 1244.33 3.26219 -1.80032 0
M  V30 13077 H 1244.45 3.07366 -3.67509 0
M  V30 13078 H 1242.81 1.70707 -1.89027 0
M  V30 13079 H 1243.59 0.851049 -3.32584 0
M  V30 13080 N 1246.04 1.3432 0.824371 0
M  V30 13081 C 1247.45 1.1397 1.11727 0
M  V30 13082 C 1247.65 -0.0597597 2.01411 0
M  V30 13083 O 1246.71 -0.735717 2.41544 0
M  V30 13084 C 1248.02 2.43423 1.76538 0
M  V30 13085 C 1249.57 2.49466 1.89039 0
M  V30 13086 C 1250.05 3.78917 2.57266 0
M  V30 13087 N 1251.54 3.8007 2.64767 0
M  V30 13088 C 1252.27 4.76953 3.18282 0
M  V30 13089 N 1251.77 5.84217 3.72373 0
M  V30 13090 N 1253.56 4.6441 3.1667 0
M  V30 13091 H 1245.71 2.11175 0.227802 0
M  V30 13092 H 1247.98 0.933774 0.163615 0
M  V30 13093 H 1247.68 3.31278 1.18102 0
M  V30 13094 H 1247.56 2.56655 2.7642 0
M  V30 13095 H 1249.94 1.62052 2.46623 0
M  V30 13096 H 1250.02 2.40163 0.880635 0
M  V30 13097 H 1249.67 4.6672 2.00336 0
M  V30 13098 H 1249.6 3.85502 3.58742 0
M  V30 13099 H 1252.09 3.02556 2.26425 0
M  V30 13100 H 1252.4 6.54159 4.11455 0
M  V30 13101 H 1250.75 5.87933 3.70621 0
M  V30 13102 H 1253.94 3.7976 2.73678 0
M  V30 13103 H 1254.11 5.40081 3.58073 0
M  V30 13104 N 1247.52 -1.0444 1.18026 0
M  V30 13105 C 1248.48 -2.10532 0.906028 0
M  V30 13106 C 1249.48 -1.60443 -0.107022 0
M  V30 13107 O 1250.67 -1.73744 0.126001 0
M  V30 13108 C 1247.8 -3.39008 0.358625 0
M  V30 13109 H 1248.99 -2.36293 1.84677 0
M  V30 13110 H 1246.55 -1.20805 0.991763 0
M  V30 13111 H 1247.28 -3.18908 -0.588904 0
M  V30 13112 H 1247.07 -3.76678 1.08884 0
M  V30 13113 H 1248.56 -4.17189 0.185331 0
M  V30 13114 N 1248.99 -0.981699 -1.2329 0
M  V30 13115 C 1250.27 -0.567659 -1.87182 0
M  V30 13116 C 1250.65 0.955194 -1.88253 0
M  V30 13117 O 1250 1.83245 -1.36504 0
M  V30 13118 C 1250.21 -1.17522 -3.28618 0
M  V30 13119 C 1251.56 -1.26877 -4.052 0
M  V30 13120 O 1252.58 -1.12877 -3.37842 0
M  V30 13121 O 1251.44 -1.49163 -5.2575 0
M  V30 13122 H 1248.53 -0.191315 -0.804567 0
M  V30 13123 H 1251.08 -1.07686 -1.31155 0
M  V30 13124 H 1249.85 -2.21735 -3.22411 0
M  V30 13125 H 1249.48 -0.650913 -3.92236 0
M  V30 13126 N 1250.47 1.3842 -0.753509 0
M  V30 13127 C 1251.88 1.82847 -0.377331 0
M  V30 13128 C 1252.23 1.62867 1.09401 0
M  V30 13129 O 1251.36 1.12981 1.84565 0
M  V30 13130 C 1251.95 3.31945 -0.678095 0
M  V30 13131 C 1250.51 3.7472 -0.355196 0
M  V30 13132 C 1249.66 2.61193 -0.931311 0
M  V30 13133 H 1252.61 1.2715 -0.949667 0
M  V30 13134 H 1252.63 3.80475 0.0437292 0
M  V30 13135 H 1252.14 3.46455 -1.74902 0
M  V30 13136 H 1250.25 3.65789 0.70915 0
M  V30 13137 H 1250.36 4.71487 -0.850693 0
M  V30 13138 H 1248.72 2.5219 -0.356695 0
M  V30 13139 H 1249.51 2.78503 -2.00727 0
M  V30 13140 N 1251.95 0.502579 1.49372 0
M  V30 13141 C 1252.86 -0.279532 2.32929 0
M  V30 13142 C 1253.88 -0.965806 1.44735 0
M  V30 13143 O 1255.05 -0.946839 1.77755 0
M  V30 13144 C 1252.12 -1.32913 3.20211 0
M  V30 13145 C 1251.18 -0.656121 4.24256 0
M  V30 13146 C 1250.41 -1.65571 5.07368 0
M  V30 13147 O 1250.63 -2.88571 4.92019 0
M  V30 13148 O 1249.57 -1.21016 5.89609 0
M  V30 13149 H 1253.39 0.404427 3.00995 0
M  V30 13150 H 1250.98 0.263888 1.47051 0
M  V30 13151 H 1252.86 -1.93635 3.74277 0
M  V30 13152 H 1251.54 -1.99598 2.54837 0
M  V30 13153 H 1250.44 -0.00911489 3.74099 0
M  V30 13154 H 1251.78 -0.0316802 4.9219 0
M  V30 13155 N 1253.43 -1.55816 0.23648 0
M  V30 13156 C 1254.84 -1.84757 -0.268622 0
M  V30 13157 C 1255.19 -1.15815 -1.58371 0
M  V30 13158 O 1254.32 -0.432923 -2.12025 0
M  V30 13159 C 1254.91 -3.35177 -0.494167 0
M  V30 13160 C 1253.47 -3.64382 -0.943551 0
M  V30 13161 C 1252.62 -2.77296 -0.0149191 0
M  V30 13162 H 1255.57 -1.51908 0.459308 0
M  V30 13163 H 1255.59 -3.56192 -1.3382 0
M  V30 13164 H 1255.1 -3.85327 0.463138 0
M  V30 13165 H 1253.2 -3.19701 -1.91369 0
M  V30 13166 H 1253.31 -4.72244 -0.807626 0
M  V30 13167 H 1251.68 -2.49243 -0.524419 0
M  V30 13168 H 1252.46 -3.30249 0.937571 0
M  V30 13169 N 1254.91 0.036755 -1.57557 0
M  V30 13170 C 1256.32 0.584324 -1.7732 0
M  V30 13171 C 1256.67 1.76025 -0.86658 0
M  V30 13172 O 1255.79 2.16318 -0.059443 0
M  V30 13173 C 1256.39 1.06679 -3.21566 0
M  V30 13174 C 1254.95 1.55994 -3.42553 0
M  V30 13175 C 1254.09 0.494604 -2.72853 0
M  V30 13176 H 1257.05 -0.189473 -1.57565 0
M  V30 13177 H 1257.07 1.93446 -3.27657 0
M  V30 13178 H 1256.58 0.210727 -3.87527 0
M  V30 13179 H 1254.68 2.43811 -2.81757 0
M  V30 13180 H 1254.79 1.61274 -4.5114 0
M  V30 13181 H 1253.16 0.947865 -2.36406 0
M  V30 13182 H 1253.94 -0.351868 -3.41492 0
M  V30 13183 N 1256.39 1.54543 0.308881 0
M  V30 13184 C 1257.63 1.73107 1.043 0
M  V30 13185 C 1257.95 0.515481 1.88063 0
M  V30 13186 O 1257.22 -0.47036 1.90169 0
M  V30 13187 H 1255.8 0.638289 0.388068 0
M  V30 13188 H 1258.47 1.9188 0.341769 0
M  V30 13189 H 1257.56 2.61697 1.70063 0
M  V30 13190 N 1257.86 -0.571685 1.46866 0
M  V30 13191 C 1258.79 -1.68994 1.61131 0
M  V30 13192 C 1259.77 -1.63728 0.461222 0
M  V30 13193 O 1260.96 -1.81574 0.688813 0
M  V30 13194 C 1258.09 -3.07638 1.61172 0
M  V30 13195 C 1257.04 -3.27742 2.75262 0
M  V30 13196 C 1256.37 -4.67025 2.60368 0
M  V30 13197 C 1257.67 -3.14511 4.16989 0
M  V30 13198 H 1259.36 -1.57311 2.54742 0
M  V30 13199 H 1256.91 -0.755382 1.22597 0
M  V30 13200 H 1258.86 -3.857 1.69744 0
M  V30 13201 H 1257.59 -3.20245 0.641122 0
M  V30 13202 H 1256.25 -2.52083 2.66176 0
M  V30 13203 H 1255.89 -4.76413 1.61368 0
M  V30 13204 H 1255.59 -4.81428 3.36899 0
M  V30 13205 H 1257.12 -5.47242 2.70848 0
M  V30 13206 H 1258.53 -3.82407 4.27128 0
M  V30 13207 H 1256.93 -3.40431 4.94193 0
M  V30 13208 H 1258 -2.11443 4.36371 0
M  V30 13209 N 1259.34 -1.34755 -0.817236 0
M  V30 13210 C 1260.3 -1.26687 -1.91006 0
M  V30 13211 C 1261.3 -0.180745 -1.59781 0
M  V30 13212 O 1262.49 -0.433748 -1.68714 0
M  V30 13213 C 1259.63 -0.957293 -3.27183 0
M  V30 13214 H 1260.82 -2.23846 -1.99582 0
M  V30 13215 H 1258.37 -1.19125 -1.01187 0
M  V30 13216 H 1259.11 0.0108917 -3.24298 0
M  V30 13217 H 1258.89 -1.74297 -3.5123 0
M  V30 13218 H 1260.38 -0.926161 -4.072 0
M  V30 13219 N 1260.82 1.03812 -1.18578 0
M  V30 13220 C 1261.78 2.10049 -0.91718 0
M  V30 13221 C 1262.78 1.60498 0.0985122 0
M  V30 13222 O 1263.97 1.73674 -0.135213 0
M  V30 13223 C 1261.1 3.38813 -0.376599 0
M  V30 13224 H 1262.3 2.3531 -1.85927 0
M  V30 13225 H 1259.85 1.20277 -0.998156 0
M  V30 13226 H 1260.59 3.19216 0.571983 0
M  V30 13227 H 1260.37 3.76096 -1.10881 0
M  V30 13228 H 1261.86 4.17084 -0.207453 0
M  V30 13229 N 1262.3 0.988223 1.22768 0
M  V30 13230 C 1263.55 0.660154 1.91014 0
M  V30 13231 C 1263.87 -0.809788 1.77391 0
M  V30 13232 O 1263.14 -1.57998 1.15817 0
M  V30 13233 H 1261.72 0.24118 0.706995 0
M  V30 13234 H 1264.38 1.25372 1.49224 0
M  V30 13235 H 1263.47 0.918603 2.98275 0
M  V30 13236 N 1263.78 -1.38018 0.760839 0
M  V30 13237 C 1264.71 -2.32995 0.153557 0
M  V30 13238 C 1265.69 -1.55234 -0.695448 0
M  V30 13239 O 1266.87 -1.8352 -0.635148 0
M  V30 13240 C 1264 -3.39437 -0.734811 0
M  V30 13241 C 1262.96 -4.27998 0.0120287 0
M  V30 13242 C 1262.28 -5.25359 -0.995067 0
M  V30 13243 C 1263.58 -5.08687 1.18468 0
M  V30 13244 H 1265.28 -2.8403 0.946956 0
M  V30 13245 H 1262.82 -1.36562 0.456816 0
M  V30 13246 H 1264.77 -4.0485 -1.16938 0
M  V30 13247 H 1263.5 -2.86901 -1.56061 0
M  V30 13248 H 1262.16 -3.64102 0.427254 0
M  V30 13249 H 1261.81 -4.69108 -1.81512 0
M  V30 13250 H 1261.51 -5.85469 -0.499969 0
M  V30 13251 H 1263.03 -5.93648 -1.4288 0
M  V30 13252 H 1264.44 -5.67299 0.8273 0
M  V30 13253 H 1262.84 -5.78068 1.61112 0
M  V30 13254 H 1263.91 -4.42 1.99409 0
M  V30 13255 N 1265.25 -0.510493 -1.49103 0
M  V30 13256 C 1266.5 0.030689 -2.02777 0
M  V30 13257 C 1266.83 1.35765 -1.38858 0
M  V30 13258 O 1266.11 1.87209 -0.527528 0
M  V30 13259 C 1266.39 0.173261 -3.59683 0
M  V30 13260 C 1266.24 -1.17749 -4.34114 0
M  V30 13261 C 1267.56 0.909395 -4.30602 0
M  V30 13262 H 1264.68 0.0096789 -0.736936 0
M  V30 13263 H 1267.32 -0.663746 -1.78029 0
M  V30 13264 H 1265.47 0.764721 -3.80899 0
M  V30 13265 H 1267.15 -1.80856 -4.24369 0
M  V30 13266 H 1265.39 -1.76438 -3.96298 0
M  V30 13267 H 1266.06 -1.03094 -5.42287 0
M  V30 13268 H 1268.54 0.407677 -4.14098 0
M  V30 13269 H 1267.41 0.978012 -5.40117 0
M  V30 13270 H 1267.67 1.9553 -3.96511 0
M  V30 13271 N 1266.73 1.55688 -0.24474 0
M  V30 13272 C 1267.66 2.18616 0.68844 0
M  V30 13273 C 1268.68 1.16185 1.14039 0
M  V30 13274 O 1269.87 1.43059 1.06754 0
M  V30 13275 C 1266.97 2.77375 1.94721 0
M  V30 13276 C 1266.14 4.05204 1.64706 0
M  V30 13277 C 1265.2 4.48302 2.75521 0
M  V30 13278 O 1264.22 5.14723 2.42999 0
M  V30 13279 N 1265.43 4.15907 4.04971 0
M  V30 13280 H 1268.19 2.99324 0.150018 0
M  V30 13281 H 1265.75 1.61771 -0.0646183 0
M  V30 13282 H 1267.74 3.03165 2.68091 0
M  V30 13283 H 1266.31 2.00837 2.39548 0
M  V30 13284 H 1265.53 3.87026 0.74865 0
M  V30 13285 H 1266.82 4.8855 1.42114 0
M  V30 13286 H 1266.22 3.62579 4.34227 0
M  V30 13287 H 1264.78 4.46538 4.74813 0
M  V30 13288 N 1268.21 -0.0283989 1.57574 0
M  V30 13289 C 1269.14 -1.05641 2.03403 0
M  V30 13290 C 1270.15 -1.32426 0.946953 0
M  V30 13291 O 1271.34 -1.29902 1.22425 0
M  V30 13292 C 1268.44 -2.39788 2.39489 0
M  V30 13293 C 1267.62 -2.32348 3.70585 0
M  V30 13294 C 1266.68 -3.4895 3.93853 0
M  V30 13295 O 1265.7 -3.28414 4.64901 0
M  V30 13296 N 1266.9 -4.7084 3.39543 0
M  V30 13297 H 1269.67 -0.665788 2.92211 0
M  V30 13298 H 1267.23 -0.21633 1.60448 0
M  V30 13299 H 1269.22 -3.16514 2.52193 0
M  V30 13300 H 1267.79 -2.70692 1.56348 0
M  V30 13301 H 1267.01 -1.40717 3.68229 0
M  V30 13302 H 1268.3 -2.24521 4.56582 0
M  V30 13303 H 1267.7 -4.90425 2.81956 0
M  V30 13304 H 1266.25 -5.44929 3.57625 0
M  V30 13305 N 1269.69 -1.54705 -0.300681 0
M  V30 13306 C 1270.96 -1.6468 -1.05546 0
M  V30 13307 C 1271.34 -0.495292 -2.05207 0
M  V30 13308 O 1270.69 0.507944 -2.22783 0
M  V30 13309 C 1270.9 -3.02702 -1.73703 0
M  V30 13310 C 1272.25 -3.59527 -2.25888 0
M  V30 13311 O 1273.27 -3.05156 -1.83735 0
M  V30 13312 O 1272.13 -4.54727 -3.03126 0
M  V30 13313 H 1269.23 -0.667769 -0.487867 0
M  V30 13314 H 1271.77 -1.6705 -0.298743 0
M  V30 13315 H 1270.55 -3.7795 -1.01338 0
M  V30 13316 H 1270.17 -3.0411 -2.5613 0
M  V30 13317 N 1271.17 0.563888 -1.47167 0
M  V30 13318 C 1272.1 1.68137 -1.62025 0
M  V30 13319 C 1273.08 1.63481 -0.469899 0
M  V30 13320 O 1274.26 1.81206 -0.698432 0
M  V30 13321 C 1271.39 3.06779 -1.62801 0
M  V30 13322 C 1270.35 3.26278 -2.76996 0
M  V30 13323 C 1269.67 4.65638 -2.62841 0
M  V30 13324 C 1270.97 3.12295 -4.18651 0
M  V30 13325 H 1272.67 1.55958 -2.55573 0
M  V30 13326 H 1270.21 0.74887 -1.22996 0
M  V30 13327 H 1272.17 3.84795 -1.71787 0
M  V30 13328 H 1270.89 3.19901 -0.658097 0
M  V30 13329 H 1269.55 2.50668 -2.67509 0
M  V30 13330 H 1269.2 4.75551 -1.63892 0
M  V30 13331 H 1268.9 4.79635 -3.39447 0
M  V30 13332 H 1270.42 5.45798 -2.73746 0
M  V30 13333 H 1271.83 3.80136 -4.2915 0
M  V30 13334 H 1270.23 3.37805 -4.95992 0
M  V30 13335 H 1271.3 2.09126 -4.37486 0
M  V30 13336 N 1272.64 1.35187 0.810078 0
M  V30 13337 C 1273.89 1.28454 1.56931 0
M  V30 13338 C 1274.22 -0.141747 1.93682 0
M  V30 13339 O 1273.5 -1.09028 1.61069 0
M  V30 13340 C 1273.78 2.18771 2.86027 0
M  V30 13341 C 1273.63 3.69999 2.55774 0
M  V30 13342 C 1274.95 2.08265 3.87703 0
M  V30 13343 H 1272.07 0.467959 0.569371 0
M  V30 13344 H 1274.71 1.65556 0.932262 0
M  V30 13345 H 1272.86 1.8726 3.40391 0
M  V30 13346 H 1274.54 4.11936 2.07621 0
M  V30 13347 H 1272.78 3.90453 1.89021 0
M  V30 13348 H 1273.45 4.28577 3.47888 0
M  V30 13349 H 1275.93 2.35958 3.42729 0
M  V30 13350 H 1274.8 2.73663 4.75815 0
M  V30 13351 H 1275.06 1.06352 4.29117 0
M  V30 13352 N 1274.12 -1.03182 1.19127 0
M  V30 13353 C 1275.37 -1.76533 0.992093 0
M  V30 13354 C 1275.7 -1.88549 -0.477429 0
M  V30 13355 O 1274.95 -1.39675 -1.37074 0
M  V30 13356 C 1275.25 -3.19452 1.60267 0
M  V30 13357 C 1274.92 -3.27449 3.09981 0
M  V30 13358 C 1273.58 -3.29338 3.50841 0
M  V30 13359 C 1275.93 -3.26833 4.05992 0
M  V30 13360 C 1273.26 -3.28265 4.86271 0
M  V30 13361 C 1275.61 -3.27299 5.41348 0
M  V30 13362 C 1274.28 -3.27485 5.81644 0
M  V30 13363 H 1273.55 -0.645979 0.363033 0
M  V30 13364 H 1276.19 -1.21127 1.48326 0
M  V30 13365 H 1274.5 -3.77917 1.03372 0
M  V30 13366 H 1276.19 -3.74869 1.42388 0
M  V30 13367 H 1272.78 -3.26704 2.77421 0
M  V30 13368 H 1276.97 -3.24556 3.75469 0
M  V30 13369 H 1272.22 -3.26731 5.16775 0
M  V30 13370 H 1276.4 -3.25773 6.15504 0
M  V30 13371 H 1274.03 -3.26407 6.86558 0
M  V30 13372 N 1275.6 -0.99472 -1.22242 0
M  V30 13373 C 1276.51 -0.555502 -2.27928 0
M  V30 13374 C 1277.53 0.396584 -1.6942 0
M  V30 13375 O 1278.7 0.262965 -1.99676 0
M  V30 13376 C 1275.77 0.121121 -3.46488 0
M  V30 13377 C 1274.83 -0.874155 -4.20306 0
M  V30 13378 C 1274.06 -0.229726 -5.33205 0
M  V30 13379 O 1274.28 0.975935 -5.61989 0
M  V30 13380 O 1273.22 -0.935501 -5.94586 0
M  V30 13381 H 1277.04 -1.4348 -2.6767 0
M  V30 13382 H 1274.63 -0.763061 -1.28444 0
M  V30 13383 H 1276.51 0.500043 -4.18423 0
M  V30 13384 H 1275.19 0.974959 -3.08668 0
M  V30 13385 H 1274.09 -1.30404 -3.50636 0
M  V30 13386 H 1275.43 -1.69725 -4.62011 0
M  V30 13387 N 1277.08 1.37613 -0.768148 0
M  V30 13388 C 1278.32 2.00075 -0.331331 0
M  V30 13389 C 1278.66 1.60839 1.08833 0
M  V30 13390 O 1277.93 0.852849 1.74805 0
M  V30 13391 C 1278.22 3.57009 -0.470789 0
M  V30 13392 C 1278.07 4.06166 -1.9326 0
M  V30 13393 C 1279.39 4.39916 0.127111 0
M  V30 13394 H 1276.51 0.726855 -0.121864 0
M  V30 13395 H 1279.15 1.63343 -0.970518 0
M  V30 13396 H 1277.3 3.88431 0.0733688 0
M  V30 13397 H 1278.97 3.85325 -2.53618 0
M  V30 13398 H 1277.21 3.58492 -2.44266 0
M  V30 13399 H 1277.88 5.15219 -1.98125 0
M  V30 13400 H 1280.36 4.14732 -0.337144 0
M  V30 13401 H 1279.24 5.489 -0.000624226 0
M  V30 13402 H 1279.5 4.25018 1.21704 0
M  V30 13403 N 1278.56 0.518393 1.4883 0
M  V30 13404 C 1279.47 -0.254811 2.33212 0
M  V30 13405 C 1280.48 -0.950401 1.45751 0
M  V30 13406 O 1281.66 -0.927932 1.78749 0
M  V30 13407 C 1278.72 -1.29509 3.21603 0
M  V30 13408 C 1277.78 -0.611086 4.24928 0
M  V30 13409 C 1277.02 -1.6018 5.09095 0
M  V30 13410 O 1277.24 -2.83336 4.95052 0
M  V30 13411 O 1276.17 -1.14756 5.90859 0
M  V30 13412 H 1280 0.436329 3.00549 0
M  V30 13413 H 1277.59 0.27947 1.46763 0
M  V30 13414 H 1279.47 -1.89654 3.7631 0
M  V30 13415 H 1278.14 -1.96884 2.5694 0
M  V30 13416 H 1277.05 0.0305638 3.74088 0
M  V30 13417 H 1278.38 0.0205249 4.92196 0
M  V30 13418 N 1280.03 -1.55556 0.252993 0
M  V30 13419 C 1281.26 -2.03491 -0.374022 0
M  V30 13420 C 1281.68 -1.13208 -1.51094 0
M  V30 13421 O 1281.03 -0.147705 -1.81901 0
M  V30 13422 C 1281.09 -3.50724 -0.876047 0
M  V30 13423 O 1280.81 -4.37569 0.215574 0
M  V30 13424 C 1282.31 -4.14448 -1.57313 0
M  V30 13425 H 1279.53 -0.665183 -0.0881644 0
M  V30 13426 H 1282.07 -2.00964 0.378636 0
M  V30 13427 H 1280.23 -3.53766 -1.57886 0
M  V30 13428 H 1280.64 -5.24235 -0.166625 0
M  V30 13429 H 1282.11 -5.19142 -1.87606 0
M  V30 13430 H 1282.59 -3.61299 -2.49719 0
M  V30 13431 H 1283.2 -4.15346 -0.914735 0
M  V30 13432 N 1281.51 0.0200419 -1.57587 0
M  V30 13433 C 1282.92 0.565484 -1.7793 0
M  V30 13434 C 1283.27 1.75096 -0.885201 0
M  V30 13435 O 1282.4 2.16243 -0.0823831 0
M  V30 13436 C 1282.99 1.03263 -3.2268 0
M  V30 13437 C 1281.55 1.52352 -3.44189 0
M  V30 13438 C 1280.7 0.465637 -2.73363 0
M  V30 13439 H 1283.65 -0.206174 -1.57355 0
M  V30 13440 H 1283.67 1.89959 -3.2969 0
M  V30 13441 H 1283.18 0.169613 -3.87729 0
M  V30 13442 H 1281.29 2.40809 -2.84327 0
M  V30 13443 H 1281.4 1.5648 -4.52825 0
M  V30 13444 H 1279.76 0.922738 -2.37398 0
M  V30 13445 H 1280.55 -0.388068 -3.411 0
M  V30 13446 N 1282.99 1.54862 0.292472 0
M  V30 13447 C 1283.95 1.8565 1.34413 0
M  V30 13448 C 1284.95 0.729868 1.43281 0
M  V30 13449 O 1286.14 0.998128 1.42769 0
M  V30 13450 C 1283.28 2.0444 2.72795 0
M  V30 13451 H 1284.47 2.79642 1.08354 0
M  V30 13452 H 1282.02 1.47055 0.529574 0
M  V30 13453 H 1282.76 1.12765 3.04063 0
M  V30 13454 H 1282.54 2.86451 2.67747 0
M  V30 13455 H 1284.03 2.296 3.48817 0
M  V30 13456 N 1284.47 -0.556076 1.47464 0
M  V30 13457 C 1285.71 -1.31515 1.54375 0
M  V30 13458 C 1286.05 -1.93106 0.205837 0
M  V30 13459 O 1285.32 -1.77927 -0.785643 0
M  V30 13460 C 1285.61 -2.4244 2.66261 0
M  V30 13461 C 1285.46 -1.8571 4.09673 0
M  V30 13462 C 1286.78 -3.4436 2.74051 0
M  V30 13463 H 1283.9 -0.476817 0.561974 0
M  V30 13464 H 1286.54 -0.622157 1.79525 0
M  V30 13465 H 1284.69 -3.01551 2.44948 0
M  V30 13466 H 1286.36 -1.30851 4.42353 0
M  V30 13467 H 1284.6 -1.16379 4.17898 0
M  V30 13468 H 1285.27 -2.65904 4.83735 0
M  V30 13469 H 1287.75 -2.95169 2.93282 0
M  V30 13470 H 1286.63 -4.194 3.54111 0
M  V30 13471 H 1286.89 -4.03281 1.81155 0
M  V30 13472 N 1285.95 -1.35615 -0.802897 0
M  V30 13473 C 1286.88 -1.31506 -1.92947 0
M  V30 13474 C 1287.86 -0.188843 -1.69048 0
M  V30 13475 O 1289.04 -0.384384 -1.90358 0
M  V30 13476 C 1286.17 -1.09001 -3.29752 0
M  V30 13477 C 1285.13 -2.18303 -3.68141 0
M  V30 13478 C 1284.45 -1.80959 -5.03148 0
M  V30 13479 C 1285.75 -3.60296 -3.78132 0
M  V30 13480 H 1287.45 -2.25771 -1.96642 0
M  V30 13481 H 1284.99 -1.08682 -0.944685 0
M  V30 13482 H 1286.95 -1.04766 -4.08169 0
M  V30 13483 H 1285.67 -0.111832 -3.26408 0
M  V30 13484 H 1284.33 -2.21642 -2.92011 0
M  V30 13485 H 1283.98 -0.817495 -4.96312 0
M  V30 13486 H 1283.68 -2.54129 -5.29804 0
M  V30 13487 H 1285.2 -1.78255 -5.84001 0
M  V30 13488 H 1286.62 -3.59259 -4.46773 0
M  V30 13489 H 1285.01 -4.32258 -4.16261 0
M  V30 13490 H 1286.08 -3.9618 -2.79588 0
M  V30 13491 N 1287.43 1.02549 -1.19673 0
M  V30 13492 C 1288.84 1.57454 -1.00325 0
M  V30 13493 C 1289.19 1.91136 0.442889 0
M  V30 13494 O 1288.31 1.7126 1.32284 0
M  V30 13495 C 1288.91 2.86091 -1.81486 0
M  V30 13496 C 1287.47 3.37557 -1.6653 0
M  V30 13497 C 1286.61 2.1096 -1.79975 0
M  V30 13498 H 1289.56 0.850364 -1.33994 0
M  V30 13499 H 1289.59 3.5713 -1.31296 0
M  V30 13500 H 1289.1 2.61546 -2.86733 0
M  V30 13501 H 1287.2 3.67083 -0.638834 0
M  V30 13502 H 1287.31 4.1036 -2.47269 0
M  V30 13503 H 1285.68 2.22993 -1.23071 0
M  V30 13504 H 1286.46 1.88852 -2.86688 0
M  V30 13505 N 1288.9 1.00119 1.21713 0
M  V30 13506 C 1289.81 0.567582 2.27631 0
M  V30 13507 C 1290.83 -0.387593 1.69628 0
M  V30 13508 O 1292.01 -0.252372 1.99813 0
M  V30 13509 C 1289.07 -0.102745 3.46548 0
M  V30 13510 C 1288.13 0.896433 4.19836 0
M  V30 13511 C 1287.36 0.258 5.33076 0
M  V30 13512 O 1287.59 -0.946118 5.62499 0
M  V30 13513 O 1286.52 0.967021 5.94081 0
M  V30 13514 H 1290.35 1.44898 2.66905 0
M  V30 13515 H 1287.93 0.769862 1.28037 0
M  V30 13516 H 1289.81 -0.477846 4.18682 0
M  V30 13517 H 1288.49 -0.958576 3.09181 0
M  V30 13518 H 1287.4 1.32262 3.49939 0
M  V30 13519 H 1288.73 1.72173 4.61104 0
M  V30 13520 N 1290.38 -1.37203 0.775435 0
M  V30 13521 C 1291.79 -1.82224 0.406372 0
M  V30 13522 C 1292.14 -1.64587 -1.06796 0
M  V30 13523 O 1291.27 -1.15903 -1.82744 0
M  V30 13524 C 1291.86 -3.30824 0.730819 0
M  V30 13525 C 1290.42 -3.74108 0.414766 0
M  V30 13526 C 1289.57 -2.59679 0.972747 0
M  V30 13527 H 1292.52 -1.25623 0.969775 0
M  V30 13528 H 1292.54 -3.80496 0.0168066 0
M  V30 13529 H 1292.05 -3.43628 1.80392 0
M  V30 13530 H 1290.15 -3.66871 -0.650866 0
M  V30 13531 H 1290.27 -4.70074 0.925595 0
M  V30 13532 H 1288.63 -2.51591 0.396772 0
M  V30 13533 H 1289.41 -2.75274 2.05132 0
M  V30 13534 N 1291.86 -0.526279 -1.48553 0
M  V30 13535 C 1293.11 0.00918008 -2.02798 0
M  V30 13536 C 1293.44 1.34284 -1.4029 0
M  V30 13537 O 1292.71 1.86639 -0.547355 0
M  V30 13538 C 1293 0.135102 -3.59846 0
M  V30 13539 C 1292.85 -1.22347 -4.32841 0
M  V30 13540 C 1294.17 0.863673 -4.31542 0
M  V30 13541 H 1291.29 0.00186216 -0.736998 0
M  V30 13542 H 1293.93 -0.682591 -1.77315 0
M  V30 13543 H 1292.08 0.724279 -3.81689 0
M  V30 13544 H 1293.75 -1.85347 -4.22427 0
M  V30 13545 H 1291.99 -1.80631 -3.94405 0
M  V30 13546 H 1292.67 -1.08839 -5.41164 0
M  V30 13547 H 1295.14 0.363734 -4.14507 0
M  V30 13548 H 1294.02 0.92067 -5.41124 0
M  V30 13549 H 1294.28 1.91313 -3.98562 0
M  V30 13550 N 1293.34 1.5542 -0.261239 0
M  V30 13551 C 1294.75 1.85161 0.239195 0
M  V30 13552 C 1295.1 1.18319 1.56509 0
M  V30 13553 O 1294.22 0.4666 2.1131 0
M  V30 13554 C 1294.82 3.3592 0.440781 0
M  V30 13555 C 1293.38 3.65837 0.885461 0
M  V30 13556 C 1292.53 2.77285 -0.0291982 0
M  V30 13557 H 1295.48 1.51158 -0.483417 0
M  V30 13558 H 1295.5 3.58276 1.28136 0
M  V30 13559 H 1295.01 3.84541 -0.524382 0
M  V30 13560 H 1293.11 3.22705 1.86259 0
M  V30 13561 H 1293.22 4.73469 0.732394 0
M  V30 13562 H 1291.59 2.50045 0.484701 0
M  V30 13563 H 1292.37 3.28716 -0.989992 0
M  V30 13564 N 1294.82 -0.0116844 1.57596 0
M  V30 13565 C 1295.75 -1.03477 2.04512 0
M  V30 13566 C 1296.76 -1.31414 0.960945 0
M  V30 13567 O 1297.95 -1.28596 1.23796 0
M  V30 13568 C 1295.05 -2.37234 2.42019 0
M  V30 13569 C 1294.22 -2.28405 3.73028 0
M  V30 13570 C 1293.28 -3.44753 3.97532 0
M  V30 13571 O 1292.31 -3.23465 4.68358 0
M  V30 13572 N 1293.51 -4.67212 3.44518 0
M  V30 13573 H 1296.27 -0.634758 2.92901 0
M  V30 13574 H 1293.84 -0.1993 1.60669 0
M  V30 13575 H 1295.83 -3.13821 2.55535 0
M  V30 13576 H 1294.4 -2.69018 1.5921 0
M  V30 13577 H 1293.62 -1.36804 3.697 0
M  V30 13578 H 1294.91 -2.19666 4.58938 0
M  V30 13579 H 1294.3 -4.87407 2.87142 0
M  V30 13580 H 1292.86 -5.41105 3.63384 0
M  V30 13581 N 1296.29 -1.55015 -0.284256 0
M  V30 13582 C 1297.2 -1.90203 -1.37332 0
M  V30 13583 C 1298.22 -0.797994 -1.54622 0
M  V30 13584 O 1299.4 -1.09602 -1.68965 0
M  V30 13585 C 1296.46 -2.15687 -2.71441 0
M  V30 13586 C 1295.52 -3.39313 -2.62993 0
M  V30 13587 C 1294.75 -3.63571 -3.90707 0
M  V30 13588 O 1294.98 -2.90538 -4.9086 0
M  V30 13589 O 1293.91 -4.57102 -3.91589 0
M  V30 13590 H 1297.74 -2.82888 -1.1049 0
M  V30 13591 H 1295.32 -1.41418 -0.481798 0
M  V30 13592 H 1297.2 -2.33553 -3.50758 0
M  V30 13593 H 1295.88 -1.26185 -2.98092 0
M  V30 13594 H 1294.79 -3.26793 -1.82091 0
M  V30 13595 H 1296.12 -4.28997 -2.41293 0
M  V30 13596 N 1297.77 0.548248 -1.47757 0
M  V30 13597 C 1299.05 1.3092 -1.45325 0
M  V30 13598 C 1299.43 2.1053 -0.155008 0
M  V30 13599 O 1298.78 2.11558 0.863455 0
M  V30 13600 C 1298.99 2.20614 -2.70426 0
M  V30 13601 C 1300.33 2.81345 -3.18009 0
M  V30 13602 O 1301.36 2.30911 -2.71216 0
M  V30 13603 O 1300.22 3.73036 -3.99383 0
M  V30 13604 H 1297.31 0.58996 -0.579548 0
M  V30 13605 H 1299.86 0.56641 -1.59968 0
M  V30 13606 H 1298.63 1.61449 -3.56441 0
M  V30 13607 H 1298.25 3.02173 -2.58413 0
M  V30 13608 N 1299.25 1.36039 0.795694 0
M  V30 13609 C 1300.5 1.29663 1.55023 0
M  V30 13610 C 1300.82 -0.125588 1.94595 0
M  V30 13611 O 1300.09 -1.06447 1.64456 0
M  V30 13612 H 1298.67 0.476962 0.574906 0
M  V30 13613 H 1301.33 1.70265 0.948471 0
M  V30 13614 H 1300.43 1.91982 2.46068 0
M  V30 13615 N 1300.73 -1.01913 1.20215 0
M  V30 13616 C 1301.97 -1.7573 1.01226 0
M  V30 13617 C 1302.31 -1.88799 -0.45481 0
M  V30 13618 O 1301.58 -1.41196 -1.33768 0
M  V30 13619 C 1301.87 -3.17795 1.69348 0
M  V30 13620 C 1301.72 -3.12536 3.23483 0
M  V30 13621 C 1303.04 -4.16409 1.42448 0
M  V30 13622 H 1300.16 -0.637889 0.369144 0
M  V30 13623 H 1302.8 -1.18907 1.48193 0
M  V30 13624 H 1300.95 -3.66311 1.29416 0
M  V30 13625 H 1302.62 -2.71843 3.72692 0
M  V30 13626 H 1300.86 -2.49997 3.54519 0
M  V30 13627 H 1301.53 -4.12949 3.66302 0
M  V30 13628 H 1304.01 -3.76537 1.77086 0
M  V30 13629 H 1302.89 -5.13983 1.92648 0
M  V30 13630 H 1303.15 -4.407 0.351574 0
M  V30 13631 N 1302.21 -1.00763 -1.2118 0
M  V30 13632 C 1303.48 -0.607236 -1.85935 0
M  V30 13633 C 1303.86 0.915048 -1.90237 0
M  V30 13634 O 1303.21 1.80308 -1.40361 0
M  V30 13635 C 1303.42 -1.24466 -3.26051 0
M  V30 13636 C 1304.77 -1.35443 -4.02418 0
M  V30 13637 O 1305.79 -1.20018 -3.35372 0
M  V30 13638 O 1304.65 -1.60282 -5.22467 0
M  V30 13639 H 1301.75 -0.208338 -0.800328 0
M  V30 13640 H 1304.29 -1.10444 -1.28842 0
M  V30 13641 H 1303.06 -2.28524 -3.17635 0
M  V30 13642 H 1302.69 -0.733966 -3.90767 0
M  V30 13643 N 1303.68 1.3679 -0.7827 0
M  V30 13644 C 1304.61 2.32721 -0.190604 0
M  V30 13645 C 1305.6 1.56321 0.670663 0
M  V30 13646 O 1306.78 1.84507 0.605871 0
M  V30 13647 C 1303.91 3.40564 0.680717 0
M  V30 13648 C 1302.86 4.27925 -0.080118 0
M  V30 13649 C 1302.19 5.26876 0.911361 0
M  V30 13650 C 1303.49 5.06738 -1.26545 0
M  V30 13651 H 1305.18 2.82488 -0.992023 0
M  V30 13652 H 1302.73 1.35818 -0.478484 0
M  V30 13653 H 1304.68 4.06659 1.10482 0
M  V30 13654 H 1303.41 2.89348 1.51477 0
M  V30 13655 H 1302.07 3.63376 -0.485125 0
M  V30 13656 H 1301.71 4.71936 1.74026 0
M  V30 13657 H 1301.41 5.8619 0.406762 0
M  V30 13658 H 1302.94 5.95846 1.33418 0
M  V30 13659 H 1304.35 5.65911 -0.917448 0
M  V30 13660 H 1302.75 5.75432 -1.70289 0
M  V30 13661 H 1303.82 4.38772 -2.06415 0
M  V30 13662 N 1305.16 0.53415 1.48272 0
M  V30 13663 C 1306.09 -0.215037 2.32508 0
M  V30 13664 C 1307.07 -0.931083 1.42355 0
M  V30 13665 O 1308.26 -0.916051 1.71237 0
M  V30 13666 C 1305.39 -1.25985 3.23643 0
M  V30 13667 C 1304.34 -0.661692 4.22854 0
M  V30 13668 C 1303.67 -1.80946 5.03153 0
M  V30 13669 C 1304.97 0.369358 5.20992 0
M  V30 13670 H 1306.66 0.488158 2.95394 0
M  V30 13671 H 1304.21 0.236206 1.4205 0
M  V30 13672 H 1306.16 -1.79195 3.81402 0
M  V30 13673 H 1304.89 -1.99268 2.58766 0
M  V30 13674 H 1303.54 -0.151082 3.66289 0
M  V30 13675 H 1303.19 -2.53077 4.34696 0
M  V30 13676 H 1302.89 -1.41513 5.70305 0
M  V30 13677 H 1304.42 -2.34526 5.63764 0
M  V30 13678 H 1305.83 -0.0758076 5.7325 0
M  V30 13679 H 1304.23 0.681301 5.9622 0
M  V30 13680 H 1305.3 1.27363 4.67875 0
M  V30 13681 N 1306.64 -1.55279 0.269478 0
M  V30 13682 C 1307.89 -1.99077 -0.348224 0
M  V30 13683 C 1308.21 -1.15925 -1.568 0
M  V30 13684 O 1307.48 -0.247404 -1.94331 0
M  V30 13685 H 1306.06 -0.735307 -0.131653 0
M  V30 13686 H 1308.72 -1.91288 0.373506 0
M  V30 13687 H 1307.82 -3.05427 -0.641953 0
M  V30 13688 N 1308.12 0.00332656 -1.576 0
M  V30 13689 C 1309.05 0.994803 -2.11248 0
M  V30 13690 C 1310.03 1.36061 -1.02085 0
M  V30 13691 O 1311.21 1.44494 -1.2975 0
M  V30 13692 C 1308.34 2.28772 -2.61306 0
M  V30 13693 C 1307.3 2.06362 -3.74965 0
M  V30 13694 C 1306.62 3.41638 -4.11324 0
M  V30 13695 C 1307.92 1.4289 -5.02374 0
M  V30 13696 H 1309.62 0.548119 -2.9434 0
M  V30 13697 H 1307.16 0.262208 -1.41593 0
M  V30 13698 H 1309.12 2.98485 -2.97464 0
M  V30 13699 H 1307.84 2.75547 -1.75332 0
M  V30 13700 H 1306.5 1.39076 -3.39195 0
M  V30 13701 H 1306.15 3.8611 -3.22379 0
M  V30 13702 H 1305.85 3.2746 -4.87897 0
M  V30 13703 H 1307.37 4.12671 -4.50039 0
M  V30 13704 H 1308.79 2.02555 -5.36325 0
M  V30 13705 H 1307.18 1.3921 -5.8373 0
M  V30 13706 H 1308.25 0.397708 -4.83266 0
M  V30 13707 N 1309.6 1.55164 0.276031 0
M  V30 13708 C 1310.55 1.84223 1.34335 0
M  V30 13709 C 1311.53 0.700934 1.4483 0
M  V30 13710 O 1312.72 0.962204 1.48562 0
M  V30 13711 C 1309.85 2.11496 2.70415 0
M  V30 13712 C 1308.94 3.31877 2.64043 0
M  V30 13713 N 1309.33 4.51856 2.27289 0
M  V30 13714 C 1307.63 3.34406 2.95108 0
M  V30 13715 C 1308.33 5.33939 2.30833 0
M  V30 13716 N 1307.3 4.72271 2.69186 0
M  V30 13717 H 1311.11 2.74533 1.04922 0
M  V30 13718 H 1308.62 1.54999 0.484661 0
M  V30 13719 H 1310.62 2.3047 3.47404 0
M  V30 13720 H 1309.28 1.22468 3.00719 0
M  V30 13721 H 1310.29 4.78009 1.99318 0
M  V30 13722 H 1306.96 2.55561 3.30144 0
M  V30 13723 H 1308.35 6.39862 2.05004 0
M  V30 13724 N 1311.07 -0.540404 1.48045 0
M  V30 13725 C 1312.3 -1.32656 1.59427 0
M  V30 13726 C 1312.72 -1.86419 0.250924 0
M  V30 13727 O 1312.08 -1.63861 -0.775838 0
M  V30 13728 C 1312.13 -2.46062 2.63602 0
M  V30 13729 O 1311.23 -3.48794 2.20038 0
M  V30 13730 H 1310.58 -0.393334 0.534962 0
M  V30 13731 H 1313.11 -0.651363 1.93955 0
M  V30 13732 H 1313.12 -2.92396 2.84549 0
M  V30 13733 H 1311.79 -2.06291 3.61133 0
M  V30 13734 H 1310.37 -3.0865 2.0926 0
M  V30 13735 N 1312.55 -1.36459 -0.788468 0
M  V30 13736 C 1313.46 -1.33017 -1.93245 0
M  V30 13737 C 1314.48 -0.232212 -1.72444 0
M  V30 13738 O 1315.65 -0.464743 -1.95965 0
M  V30 13739 C 1312.72 -1.1197 -3.28121 0
M  V30 13740 C 1311.78 -2.3125 -3.61693 0
M  V30 13741 C 1311.01 -2.11197 -4.90134 0
M  V30 13742 O 1311.24 -1.08764 -5.59934 0
M  V30 13743 O 1310.17 -2.98996 -5.22384 0
M  V30 13744 H 1314 -2.29333 -1.99098 0
M  V30 13745 H 1311.58 -1.17016 -0.928856 0
M  V30 13746 H 1313.46 -1.02154 -4.08831 0
M  V30 13747 H 1312.14 -0.187171 -3.23158 0
M  V30 13748 H 1311.05 -2.46635 -2.81286 0
M  V30 13749 H 1312.38 -3.23012 -3.71381 0
M  V30 13750 N 1314.03 1.01274 -1.20754 0
M  V30 13751 C 1315.28 1.75191 -1.02156 0
M  V30 13752 C 1315.61 1.89038 0.444791 0
M  V30 13753 O 1314.88 1.41903 1.33018 0
M  V30 13754 C 1315.17 3.16892 -1.71031 0
M  V30 13755 C 1315.02 3.10816 -3.25136 0
M  V30 13756 C 1316.34 4.15648 -1.44654 0
M  V30 13757 H 1313.46 0.635922 -0.372521 0
M  V30 13758 H 1316.1 1.18119 -1.48822 0
M  V30 13759 H 1314.25 3.6562 -1.31357 0
M  V30 13760 H 1315.92 2.69863 -3.74128 0
M  V30 13761 H 1314.17 2.48113 -3.5584 0
M  V30 13762 H 1314.84 4.11001 -3.68487 0
M  V30 13763 H 1317.31 3.75592 -1.7908 0
M  V30 13764 H 1316.19 5.12954 -1.95371 0
M  V30 13765 H 1316.45 4.40507 -0.37494 0
M  V30 13766 N 1315.51 1.01404 1.20644 0
M  V30 13767 C 1316.76 0.700523 1.89571 0
M  V30 13768 C 1317.08 -0.771978 1.79068 0
M  V30 13769 O 1316.35 -1.55506 1.19142 0
M  V30 13770 H 1314.93 0.256122 0.70172 0
M  V30 13771 H 1317.59 1.28509 1.46531 0
M  V30 13772 H 1316.69 0.981665 2.9626 0
M  V30 13773 N 1316.99 -1.36373 0.789944 0
M  V30 13774 C 1317.95 -2.28372 0.194639 0
M  V30 13775 C 1318.95 -1.48849 -0.608332 0
M  V30 13776 O 1320.14 -1.68829 -0.42925 0
M  V30 13777 C 1317.27 -3.3298 -0.730553 0
M  V30 13778 H 1318.47 -2.82529 1.00585 0
M  V30 13779 H 1316.02 -1.45946 0.559406 0
M  V30 13780 H 1316.75 -2.8398 -1.56608 0
M  V30 13781 H 1316.54 -3.91787 -0.156706 0
M  V30 13782 H 1318.03 -4.01684 -1.14192 0
M  V30 13783 N 1318.47 -0.542005 -1.47987 0
M  V30 13784 C 1319.71 -0.0122873 -2.02096 0
M  V30 13785 C 1320.03 1.3362 -1.42024 0
M  V30 13786 O 1319.3 1.86807 -0.589911 0
M  V30 13787 H 1317.88 -0.00155365 -0.746998 0
M  V30 13788 H 1320.55 -0.708566 -1.81564 0
M  V30 13789 H 1319.64 0.0871275 -3.11978 0
M  V30 13790 N 1319.94 1.55134 -0.277709 0
M  V30 13791 C 1321.35 1.85405 0.219543 0
M  V30 13792 C 1321.71 1.19973 1.55245 0
M  V30 13793 O 1320.83 0.488986 2.10803 0
M  V30 13794 C 1321.43 3.36369 0.405127 0
M  V30 13795 C 1319.98 3.66755 0.846609 0
M  V30 13796 C 1319.13 2.77238 -0.0586063 0
M  V30 13797 H 1322.08 1.50637 -0.499422 0
M  V30 13798 H 1322.1 3.59615 1.24329 0
M  V30 13799 H 1321.62 3.83963 -0.565138 0
M  V30 13800 H 1319.72 3.24662 1.82825 0
M  V30 13801 H 1319.83 4.74219 0.682135 0
M  V30 13802 H 1318.19 2.50546 0.458153 0
M  V30 13803 H 1318.98 3.27647 -1.0248 0
M  V30 13804 N 1321.42 0.00503138 1.57599 0
M  V30 13805 C 1322.38 -0.969628 2.0768 0
M  V30 13806 C 1323.38 -1.26933 0.987148 0
M  V30 13807 O 1324.57 -1.21368 1.24962 0
M  V30 13808 C 1321.71 -2.29312 2.52247 0
M  V30 13809 H 1322.9 -0.536342 2.95065 0
M  V30 13810 H 1320.45 -0.242543 1.54407 0
M  V30 13811 H 1321.19 -2.7732 1.6812 0
M  V30 13812 H 1320.97 -2.08878 3.31832 0
M  V30 13813 H 1322.46 -2.99221 2.91302 0
M  V30 13814 N 1322.9 -1.55308 -0.267798 0
M  V30 13815 C 1324.15 -1.7642 -1.00019 0
M  V30 13816 C 1324.48 -0.566559 -1.85752 0
M  V30 13817 O 1323.75 0.435752 -1.89556 0
M  V30 13818 C 1324.04 -3.07229 -1.87836 0
M  V30 13819 C 1323.89 -4.37358 -1.05061 0
M  V30 13820 C 1325.21 -3.34113 -2.86455 0
M  V30 13821 H 1322.33 -0.641859 -0.362197 0
M  V30 13822 H 1324.97 -1.8804 -0.272188 0
M  V30 13823 H 1323.12 -2.97454 -2.49907 0
M  V30 13824 H 1324.79 -4.59098 -0.450208 0
M  V30 13825 H 1323.03 -4.32351 -0.354242 0
M  V30 13826 H 1323.71 -5.25223 -1.69838 0
M  V30 13827 H 1326.18 -3.43715 -2.34519 0
M  V30 13828 H 1325.06 -4.26896 -3.45038 0
M  V30 13829 H 1325.32 -2.54005 -3.61848 0
M  V30 13830 N 1324.38 0.532545 -1.4833 0
M  V30 13831 C 1325.79 1.11451 -1.49785 0
M  V30 13832 C 1326.14 1.94386 -0.266207 0
M  V30 13833 O 1325.26 2.07121 0.62688 0
M  V30 13834 C 1325.86 2.0279 -2.71407 0
M  V30 13835 C 1324.42 2.56209 -2.75742 0
M  V30 13836 C 1323.57 1.33114 -2.43261 0
M  V30 13837 H 1326.52 0.317924 -1.55483 0
M  V30 13838 H 1326.54 2.87038 -2.49779 0
M  V30 13839 H 1326.05 1.42401 -3.61031 0
M  V30 13840 H 1324.15 3.20327 -1.9032 0
M  V30 13841 H 1324.26 2.95518 -3.77102 0
M  V30 13842 H 1322.63 1.64607 -1.94362 0
M  V30 13843 H 1323.41 0.744809 -3.35123 0
M  V30 13844 N 1325.86 1.36875 0.78122 0
M  V30 13845 C 1327.27 1.28236 1.35692 0
M  V30 13846 C 1327.62 -0.0742286 1.9606 0
M  V30 13847 O 1326.74 -0.97588 1.93146 0
M  V30 13848 C 1327.34 2.32215 2.46702 0
M  V30 13849 C 1325.9 2.2724 3.00065 0
M  V30 13850 C 1325.04 2.16553 1.73206 0
M  V30 13851 H 1327.99 1.47634 0.582217 0
M  V30 13852 H 1328.02 1.96333 3.25935 0
M  V30 13853 H 1327.53 3.30938 2.02735 0
M  V30 13854 H 1325.63 1.3201 3.48431 0
M  V30 13855 H 1325.74 3.20267 3.56323 0
M  V30 13856 H 1324.11 1.62941 1.95761 0
M  V30 13857 H 1324.89 3.17176 1.31356 0
M  V30 13858 N 1327.33 -1.00632 1.21289 0
M  V30 13859 C 1328.27 -2.0954 0.928753 0
M  V30 13860 C 1329.28 -1.62565 -0.0875212 0
M  V30 13861 O 1330.47 -1.77912 0.144808 0
M  V30 13862 C 1327.57 -3.36844 0.37276 0
M  V30 13863 C 1326.74 -4.1291 1.44305 0
M  V30 13864 C 1325.8 -5.18506 0.896534 0
M  V30 13865 O 1324.83 -5.46841 1.57966 0
M  V30 13866 N 1326.03 -5.79781 -0.288888 0
M  V30 13867 H 1328.79 -2.34499 1.86629 0
M  V30 13868 H 1326.35 -1.17104 1.11796 0
M  V30 13869 H 1328.35 -4.04699 -0.00722737 0
M  V30 13870 H 1326.92 -3.09053 -0.469572 0
M  V30 13871 H 1326.14 -3.39876 1.99694 0
M  V30 13872 H 1327.42 -4.60508 2.16356 0
M  V30 13873 H 1326.82 -5.5911 -0.860951 0
M  V30 13874 H 1325.38 -6.48936 -0.6104 0
M  V30 13875 N 1328.81 -1.02043 -1.20104 0
M  V30 13876 C 1329.77 -0.598682 -2.21243 0
M  V30 13877 C 1330.77 0.333205 -1.5731 0
M  V30 13878 O 1331.96 0.12137 -1.73777 0
M  V30 13879 C 1329.1 0.125183 -3.4067 0
M  V30 13880 H 1330.29 -1.49345 -2.60069 0
M  V30 13881 H 1327.84 -0.810649 -1.33634 0
M  V30 13882 H 1328.58 1.03469 -3.07351 0
M  V30 13883 H 1328.36 -0.544316 -3.88304 0
M  V30 13884 H 1329.85 0.407469 -4.15607 0
M  V30 13885 N 1330.29 1.35952 -0.797165 0
M  V30 13886 C 1331.53 2.00862 -0.378652 0
M  V30 13887 C 1331.89 1.61886 1.03233 0
M  V30 13888 O 1333.1 2.19444 1.55234 0
M  V30 13889 C 1331.37 3.53207 -0.545845 0
M  V30 13890 S 1332.93 4.38266 -0.216358 0
M  V30 13891 H 1329.74 0.69621 -0.144268 0
M  V30 13892 H 1332.35 1.65708 -1.03735 0
M  V30 13893 H 1331.05 3.79062 -1.57291 0
M  V30 13894 H 1330.58 3.9319 0.128514 0
M  V30 13895 H 1332.6 4.86439 0.979344 0
M  V30 13896 N 1331.77 0.549846 1.47697 0
M  V30 13897 C 1332.72 -0.201961 2.29915 0
M  V30 13898 C 1333.69 -0.915287 1.38606 0
M  V30 13899 O 1334.87 -0.912427 1.67569 0
M  V30 13900 C 1332.01 -1.2306 3.22413 0
M  V30 13901 C 1331.12 -0.524091 4.28809 0
M  V30 13902 C 1330.26 -1.53738 5.08466 0
M  V30 13903 C 1329.3 -0.815437 6.06644 0
M  V30 13904 N 1328.43 -1.77521 6.79287 0
M  V30 13905 H 1333.27 0.505289 2.93685 0
M  V30 13906 H 1330.81 0.261012 1.44766 0
M  V30 13907 H 1332.77 -1.83949 3.74458 0
M  V30 13908 H 1331.4 -1.90597 2.60523 0
M  V30 13909 H 1330.45 0.199174 3.79878 0
M  V30 13910 H 1331.76 0.0418145 4.98782 0
M  V30 13911 H 1330.92 -2.22001 5.64624 0
M  V30 13912 H 1329.66 -2.1372 4.38378 0
M  V30 13913 H 1328.66 -0.11884 5.49672 0
M  V30 13914 H 1329.89 -0.221462 6.78739 0
M  V30 13915 H 1327.83 -2.36374 6.11934 0
M  V30 13916 H 1327.75 -1.26126 7.45405 0
M  V30 13917 H 1329.02 -2.44921 7.40023 0
M  V30 13918 N 1333.25 -1.54984 0.285932 0
M  V30 13919 C 1334.21 -2.2164 -0.583824 0
M  V30 13920 C 1335.21 -1.19764 -1.073 0
M  V30 13921 O 1336.4 -1.44598 -0.971439 0
M  V30 13922 C 1333.53 -2.8909 -1.80665 0
M  V30 13923 H 1334.72 -2.999 -0.00168109 0
M  V30 13924 H 1332.28 -1.56257 0.0366325 0
M  V30 13925 H 1333.01 -2.14869 -2.42903 0
M  V30 13926 H 1332.8 -3.63756 -1.4637 0
M  V30 13927 H 1334.29 -3.39982 -2.42491 0
M  V30 13928 N 1334.72 -0.0133892 -1.57594 0
M  V30 13929 C 1336.14 0.527615 -1.7909 0
M  V30 13930 C 1336.49 1.73179 -0.922142 0
M  V30 13931 O 1335.61 2.1602 -0.128233 0
M  V30 13932 C 1336.21 0.963949 -3.24798 0
M  V30 13933 C 1334.77 1.45017 -3.47343 0
M  V30 13934 C 1333.91 0.407548 -2.74289 0
M  V30 13935 H 1336.86 -0.239505 -1.56882 0
M  V30 13936 H 1336.88 1.82924 -3.33645 0
M  V30 13937 H 1336.4 0.0873315 -3.88002 0
M  V30 13938 H 1334.5 2.34724 -2.89371 0
M  V30 13939 H 1334.61 1.4684 -4.56043 0
M  V30 13940 H 1332.97 0.872174 -2.39301 0
M  V30 13941 H 1333.76 -0.460333 -3.402 0
M  V30 13942 N 1336.2 1.55448 0.259558 0
M  V30 13943 C 1337.43 1.81063 1.01148 0
M  V30 13944 C 1337.85 0.58875 1.78649 0
M  V30 13945 O 1337.21 -0.461971 1.75315 0
M  V30 13946 C 1337.26 3.04279 1.93512 0
M  V30 13947 O 1336.36 2.80307 3.02493 0
M  V30 13948 H 1335.7 0.598056 0.288487 0
M  V30 13949 H 1338.23 2.02614 0.284387 0
M  V30 13950 H 1338.24 3.33373 2.35215 0
M  V30 13951 H 1336.92 3.92856 1.36518 0
M  V30 13952 H 1335.5 2.62345 2.65008 0
M  V30 13953 N 1337.68 -0.524672 1.4861 0
M  V30 13954 C 1338.91 -1.30958 1.60825 0
M  V30 13955 C 1339.33 -1.86142 0.270682 0
M  V30 13956 O 1338.69 -1.64675 -0.758415 0
M  V30 13957 C 1338.74 -2.43252 2.66197 0
M  V30 13958 O 1337.84 -3.4644 2.23725 0
M  V30 13959 H 1337.18 -0.387638 0.539104 0
M  V30 13960 H 1339.71 -0.630755 1.94635 0
M  V30 13961 H 1339.72 -2.89362 2.87635 0
M  V30 13962 H 1338.4 -2.02449 3.63301 0
M  V30 13963 H 1336.97 -3.06413 2.12522 0
M  V30 13964 N 1339.16 -1.37287 -0.77395 0
M  V30 13965 C 1340.11 -1.32955 -1.90855 0
M  V30 13966 C 1341.1 -0.218695 -1.67982 0
M  V30 13967 O 1342.31 -0.386594 -1.75799 0
M  V30 13968 H 1338.68 -0.414289 -0.62759 0
M  V30 13969 H 1340.65 -2.2874 -1.91626 0
M  V30 13970 C 1339.4 -1.15121 -3.28089 0
M  V30 13971 H 1338.72 -1.99852 -3.46264 0
M  V30 13972 H 1340.16 -1.1614 -4.07784 0
M  V30 13973 C 1338.62 0.14327 -3.36595 0
M  V30 13974 O 1339.15 1.12763 -3.85548 0
M  V30 13975 N 1337.36 0.193219 -2.89957 0
M  V30 13976 H 1336.91 -0.608471 -2.50311 0
M  V30 13977 H 1336.86 1.05897 -2.96029 0
M  V30 13978 N 1340.64 0.999871 -1.21821 0
M  V30 13979 C 1341.86 1.77405 -1.06467 0
M  V30 13980 C 1342.28 1.84828 0.385227 0
M  V30 13981 O 1341.64 1.31338 1.26714 0
M  V30 13982 C 1341.69 3.21062 -1.66137 0
M  V30 13983 O 1341.41 3.14054 -3.05454 0
M  V30 13984 C 1342.91 4.14958 -1.55963 0
M  V30 13985 H 1340.13 0.557368 -0.373607 0
M  V30 13986 H 1342.67 1.2575 -1.61267 0
M  V30 13987 H 1340.83 3.69808 -1.15416 0
M  V30 13988 H 1341.24 4.04346 -3.34073 0
M  V30 13989 H 1342.72 5.13536 -2.02448 0
M  V30 13990 H 1343.19 4.36171 -0.514949 0
M  V30 13991 H 1343.8 3.72105 -2.05956 0
M  V30 13992 N 1342.11 1.02678 1.19562 0
M  V30 13993 C 1343.39 0.63674 1.84946 0
M  V30 13994 C 1343.77 -0.884667 1.91669 0
M  V30 13995 O 1343.12 -1.78053 1.43211 0
M  V30 13996 C 1343.33 1.29637 3.2403 0
M  V30 13997 C 1344.68 1.41828 4.00212 0
M  V30 13998 O 1345.7 1.25338 3.3342 0
M  V30 13999 O 1344.56 1.68573 5.19851 0
M  V30 14000 H 1341.65 0.221044 0.796912 0
M  V30 14001 H 1344.2 1.1248 1.27068 0
M  V30 14002 H 1342.97 2.33549 3.1396 0
M  V30 14003 H 1342.6 0.796041 3.8955 0
M  V30 14004 N 1343.59 -1.35528 0.804364 0
M  V30 14005 C 1344.52 -2.32388 0.227604 0
M  V30 14006 C 1345.5 -1.57368 -0.645709 0
M  V30 14007 O 1346.69 -1.85448 -0.576441 0
M  V30 14008 C 1343.82 -3.41603 -0.62645 0
M  V30 14009 C 1342.77 -4.27743 0.148187 0
M  V30 14010 C 1342.1 -5.28259 -0.827425 0
M  V30 14011 C 1343.4 -5.04661 1.34591 0
M  V30 14012 H 1345.09 -2.80874 1.03684 0
M  V30 14013 H 1342.64 -1.3504 0.500031 0
M  V30 14014 H 1344.59 -4.08365 -1.03999 0
M  V30 14015 H 1343.32 -2.91721 -1.46855 0
M  V30 14016 H 1341.97 -3.62558 0.542874 0
M  V30 14017 H 1341.62 -4.74645 -1.66496 0
M  V30 14018 H 1341.32 -5.86763 -0.313453 0
M  V30 14019 H 1342.85 -5.97893 -1.23921 0
M  V30 14020 H 1344.26 -5.6438 1.00736 0
M  V30 14021 H 1342.66 -5.7265 1.79422 0
M  V30 14022 H 1343.73 -4.35432 2.1337 0
M  V30 14023 N 1345.07 -0.557671 -1.47404 0
M  V30 14024 C 1346 0.178019 -2.3282 0
M  V30 14025 C 1346.98 0.908318 -1.43818 0
M  V30 14026 O 1348.17 0.888693 -1.72673 0
M  V30 14027 C 1345.3 1.2082 -3.25607 0
M  V30 14028 C 1344.25 0.594335 -4.23853 0
M  V30 14029 C 1343.58 1.72919 -5.05968 0
M  V30 14030 C 1344.88 -0.452196 -5.20339 0
M  V30 14031 H 1346.57 -0.535091 -2.9458 0
M  V30 14032 H 1344.12 -0.258775 -1.41656 0
M  V30 14033 H 1346.07 1.73104 -3.84204 0
M  V30 14034 H 1344.79 1.95126 -2.61903 0
M  V30 14035 H 1343.45 0.0927898 -3.66483 0
M  V30 14036 H 1343.1 2.4613 -4.38668 0
M  V30 14037 H 1342.8 1.32422 -5.72484 0
M  V30 14038 H 1344.33 2.25527 -5.67424 0
M  V30 14039 H 1345.74 -0.0154011 -5.73298 0
M  V30 14040 H 1344.14 -0.776068 -5.95061 0
M  V30 14041 H 1345.21 -1.34791 -4.65789 0
M  V30 14042 N 1346.55 1.54831 -0.294147 0
M  V30 14043 C 1347.77 2.04873 0.32276 0
M  V30 14044 C 1348.2 1.17034 1.47257 0
M  V30 14045 O 1347.56 0.172949 1.80473 0
M  V30 14046 C 1347.61 3.52431 0.76319 0
M  V30 14047 O 1346.71 3.67635 1.86865 0
M  V30 14048 H 1346.05 0.660926 0.0638162 0
M  V30 14049 H 1348.58 1.99944 -0.433995 0
M  V30 14050 H 1348.59 3.94155 1.05385 0
M  V30 14051 H 1347.27 4.15827 -0.0779464 0
M  V30 14052 H 1345.84 3.37816 1.57907 0
M  V30 14053 N 1348.03 0.0217466 1.57585 0
M  V30 14054 C 1349.27 -0.662733 1.93358 0
M  V30 14055 C 1349.63 -1.69715 0.897829 0
M  V30 14056 O 1350.83 -2.43358 1.14151 0
M  V30 14057 C 1349.1 -1.26973 3.34085 0
M  V30 14058 S 1350.66 -1.97631 3.91775 0
M  V30 14059 H 1347.48 -0.218386 0.67663 0
M  V30 14060 H 1350.08 0.0836466 1.95321 0
M  V30 14061 H 1348.79 -0.504339 4.07289 0
M  V30 14062 H 1348.32 -2.05357 3.35547 0
M  V30 14063 H 1350.33 -3.25393 3.74612 0
M  V30 14064 N 1349.51 -1.55583 -0.251311 0
M  V30 14065 C 1350.44 -1.9296 -1.31486 0
M  V30 14066 C 1351.42 -0.794001 -1.50431 0
M  V30 14067 O 1352.6 -1.05393 -1.63113 0
M  V30 14068 C 1349.73 -2.22046 -2.67045 0
M  V30 14069 C 1348.69 -3.37816 -2.62801 0
M  V30 14070 C 1348.01 -3.52433 -4.02113 0
M  V30 14071 C 1349.31 -4.73626 -2.20171 0
M  V30 14072 H 1351.01 -2.82046 -1.00451 0
M  V30 14073 H 1348.55 -1.35702 -0.481775 0
M  V30 14074 H 1350.5 -2.46783 -3.41579 0
M  V30 14075 H 1349.23 -1.29782 -2.99707 0
M  V30 14076 H 1347.89 -3.13081 -1.90724 0
M  V30 14077 H 1347.54 -2.57597 -4.32034 0
M  V30 14078 H 1347.24 -4.30283 -4.00163 0
M  V30 14079 H 1348.76 -3.79486 -4.78354 0
M  V30 14080 H 1350.17 -4.97764 -2.84436 0
M  V30 14081 H 1348.57 -5.54547 -2.29341 0
M  V30 14082 H 1349.64 -4.70985 -1.1533 0
M  V30 14083 N 1350.98 0.516783 -1.48886 0
M  V30 14084 C 1351.91 1.62897 -1.67292 0
M  V30 14085 C 1352.89 1.61903 -0.521671 0
M  V30 14086 O 1354.08 1.78892 -0.755728 0
M  V30 14087 C 1351.21 3.01444 -1.72478 0
M  V30 14088 C 1350.16 3.173 -2.87236 0
M  V30 14089 C 1349.49 4.5704 -2.77522 0
M  V30 14090 C 1350.79 2.98818 -4.28375 0
M  V30 14091 H 1352.48 1.47748 -2.60405 0
M  V30 14092 H 1350.03 0.709361 -1.25316 0
M  V30 14093 H 1351.98 3.79135 -1.83942 0
M  V30 14094 H 1350.71 3.17645 -0.759538 0
M  V30 14095 H 1349.37 2.4203 -2.75349 0
M  V30 14096 H 1349.01 4.70096 -1.78938 0
M  V30 14097 H 1348.71 4.68593 -3.54534 0
M  V30 14098 H 1350.24 5.36813 -2.90972 0
M  V30 14099 H 1351.65 3.66291 -4.41026 0
M  V30 14100 H 1350.05 3.21854 -5.06488 0
M  V30 14101 H 1351.12 1.95102 -4.43918 0
M  V30 14102 N 1352.46 1.37696 0.766659 0
M  V30 14103 C 1353.71 1.32922 1.52237 0
M  V30 14104 C 1354.03 -0.0842833 1.94818 0
M  V30 14105 O 1353.3 -1.02934 1.66677 0
M  V30 14106 H 1351.88 0.489049 0.564659 0
M  V30 14107 H 1354.54 1.72238 0.912142 0
M  V30 14108 H 1353.64 1.97158 2.4194 0
M  V30 14109 N 1353.94 -0.993397 1.22349 0
M  V30 14110 C 1355.35 -1.54739 1.04465 0
M  V30 14111 C 1355.7 -1.92243 -0.392057 0
M  V30 14112 O 1354.83 -1.74707 -1.27697 0
M  V30 14113 C 1355.42 -2.81179 1.89007 0
M  V30 14114 C 1353.98 -3.33023 1.75421 0
M  V30 14115 C 1353.13 -2.06114 1.85505 0
M  V30 14116 H 1356.08 -0.814539 1.36202 0
M  V30 14117 H 1356.1 -3.53523 1.40718 0
M  V30 14118 H 1355.61 -2.53851 2.93566 0
M  V30 14119 H 1353.71 -3.6526 0.735935 0
M  V30 14120 H 1353.83 -4.03659 2.58062 0
M  V30 14121 H 1352.19 -2.19651 1.2894 0
M  V30 14122 H 1352.97 -1.81184 2.91594 0
M  V30 14123 N 1355.42 -1.03311 -1.19015 0
M  V30 14124 C 1356.83 -0.761079 -1.70483 0
M  V30 14125 C 1357.18 0.718851 -1.82557 0
M  V30 14126 O 1356.3 1.56006 -1.4997 0
M  V30 14127 C 1356.9 -1.37492 -3.09647 0
M  V30 14128 C 1355.46 -1.15138 -3.58358 0
M  V30 14129 C 1354.61 -1.47034 -2.35109 0
M  V30 14130 H 1357.56 -1.2005 -1.03797 0
M  V30 14131 H 1357.58 -0.774115 -3.72542 0
M  V30 14132 H 1357.09 -2.45203 -3.00828 0
M  V30 14133 H 1355.19 -0.0926822 -3.72485 0
M  V30 14134 H 1355.3 -1.84307 -4.4223 0
M  V30 14135 H 1353.67 -0.889794 -2.38652 0
M  V30 14136 H 1354.45 -2.55837 -2.28916 0
M  V30 14137 N 1356.9 1.35099 -0.81154 0
M  V30 14138 C 1357.81 2.33499 -0.22705 0
M  V30 14139 C 1358.82 1.62095 0.632562 0
M  V30 14140 O 1360 1.93938 0.543147 0
M  V30 14141 C 1357.06 3.41279 0.610687 0
M  V30 14142 C 1356.12 4.2845 -0.269994 0
M  V30 14143 C 1355.36 5.31083 0.527854 0
M  V30 14144 O 1355.58 5.42499 1.76213 0
M  V30 14145 O 1354.51 6.01842 -0.083862 0
M  V30 14146 H 1358.34 2.85294 -1.04119 0
M  V30 14147 H 1355.92 1.37957 -0.573432 0
M  V30 14148 H 1357.81 4.07121 1.08768 0
M  V30 14149 H 1356.48 2.91746 1.40235 0
M  V30 14150 H 1355.39 3.65572 -0.794234 0
M  V30 14151 H 1356.72 4.81394 -1.02572 0
M  V30 14152 N 1358.37 0.56548 1.47106 0
M  V30 14153 C 1359.34 -0.167191 2.28589 0
M  V30 14154 C 1360.34 -0.835005 1.3742 0
M  V30 14155 O 1361.53 -0.689598 1.59969 0
M  V30 14156 C 1358.66 -1.24548 3.17333 0
M  V30 14157 H 1359.85 0.548677 2.94838 0
M  V30 14158 H 1357.4 0.322749 1.52931 0
M  V30 14159 H 1358.14 -1.99348 2.55794 0
M  V30 14160 H 1357.92 -0.771335 3.84438 0
M  V30 14161 H 1359.41 -1.75985 3.78707 0
M  V30 14162 N 1359.85 -1.54672 0.302354 0
M  V30 14163 C 1360.82 -2.22246 -0.560283 0
M  V30 14164 C 1361.82 -1.20895 -1.06023 0
M  V30 14165 O 1363.01 -1.45621 -0.956047 0
M  V30 14166 C 1360.14 -2.9099 -1.77589 0
M  V30 14167 H 1361.33 -2.99885 0.0301274 0
M  V30 14168 H 1358.88 -1.56209 0.0532036 0
M  V30 14169 H 1359.62 -2.17433 -2.4061 0
M  V30 14170 H 1359.4 -3.65288 -1.42503 0
M  V30 14171 H 1360.89 -3.42535 -2.38871 0
M  V30 14172 N 1361.33 -0.0301034 -1.57571 0
M  V30 14173 C 1362.56 0.662045 -1.9655 0
M  V30 14174 C 1362.98 1.64811 -0.906581 0
M  V30 14175 O 1362.34 1.80816 0.132415 0
M  V30 14176 C 1362.39 1.34389 -3.34622 0
M  V30 14177 O 1361.49 2.45919 -3.31056 0
M  V30 14178 H 1360.83 0.173842 -0.640839 0
M  V30 14179 H 1363.36 -0.092248 -2.04392 0
M  V30 14180 H 1363.37 1.70045 -3.70875 0
M  V30 14181 H 1362.05 0.621092 -4.11236 0
M  V30 14182 H 1360.62 2.12367 -3.06521 0
M  V30 14183 N 1362.81 1.55714 0.243056 0
M  V30 14184 C 1363.74 1.87093 1.32396 0
M  V30 14185 C 1364.75 0.757482 1.44104 0
M  V30 14186 O 1365.94 1.03563 1.45386 0
M  V30 14187 C 1363.04 2.04546 2.70212 0
M  V30 14188 C 1362.22 3.3543 2.80723 0
M  V30 14189 C 1361.27 3.42578 3.99408 0
M  V30 14190 O 1360.3 4.15762 3.88755 0
M  V30 14191 N 1361.5 2.7215 5.12752 0
M  V30 14192 H 1364.27 2.80399 1.05813 0
M  V30 14193 H 1361.83 1.55998 0.433151 0
M  V30 14194 H 1363.82 2.06665 3.47954 0
M  V30 14195 H 1362.39 1.17966 2.89487 0
M  V30 14196 H 1361.61 3.45594 1.89626 0
M  V30 14197 H 1362.9 4.21692 2.84698 0
M  V30 14198 H 1362.3 2.1243 5.24299 0
M  V30 14199 H 1360.85 2.79957 5.88615 0
M  V30 14200 N 1364.29 -0.50888 1.49158 0
M  V30 14201 C 1365.53 -1.261 1.57934 0
M  V30 14202 C 1365.86 -1.93199 0.264405 0
M  V30 14203 O 1365.13 -1.82359 -0.715684 0
M  V30 14204 H 1363.71 -0.468421 0.581886 0
M  V30 14205 H 1366.37 -0.590447 1.85741 0
M  V30 14206 H 1365.46 -2.02913 2.37135 0
M  V30 14207 N 1365.76 -1.381 -0.759346 0
M  V30 14208 C 1367.18 -1.30379 -1.33635 0
M  V30 14209 C 1367.53 0.0430279 -1.96153 0
M  V30 14210 O 1366.65 0.945029 -1.94675 0
M  V30 14211 C 1367.25 -2.3611 -2.42976 0
M  V30 14212 C 1365.81 -2.31985 -2.96412 0
M  V30 14213 C 1364.95 -2.19281 -1.69739 0
M  V30 14214 H 1367.9 -1.48542 -0.558656 0
M  V30 14215 H 1367.92 -2.01493 -3.22771 0
M  V30 14216 H 1367.44 -3.34122 -1.97445 0
M  V30 14217 H 1365.54 -1.37536 -3.46287 0
M  V30 14218 H 1365.65 -3.25895 -3.51183 0
M  V30 14219 H 1364.01 -1.66035 -1.93144 0
M  V30 14220 H 1364.8 -3.19225 -1.26293 0
M  V30 14221 N 1367.24 0.986894 -1.22875 0
M  V30 14222 C 1368.65 1.54182 -1.05284 0
M  V30 14223 C 1369 1.92448 0.381856 0
M  V30 14224 O 1368.13 1.75381 1.26769 0
M  V30 14225 C 1368.72 2.80173 -1.90496 0
M  V30 14226 C 1367.28 3.32088 -1.77185 0
M  V30 14227 C 1366.43 2.05128 -1.86596 0
M  V30 14228 H 1369.38 0.807304 -1.36632 0
M  V30 14229 H 1369.4 3.52772 -1.42591 0
M  V30 14230 H 1368.91 2.52291 -2.94908 0
M  V30 14231 H 1367.02 3.64864 -0.755295 0
M  V30 14232 H 1367.13 4.02285 -2.60199 0
M  V30 14233 H 1365.49 2.18964 -1.30103 0
M  V30 14234 H 1366.28 1.79635 -2.92551 0
M  V30 14235 N 1368.72 1.0394 1.18466 0
M  V30 14236 C 1369.63 0.639714 2.2571 0
M  V30 14237 C 1370.65 -0.333431 1.70775 0
M  V30 14238 O 1371.82 -0.188676 2.00514 0
M  V30 14239 C 1368.89 0.007559 3.46699 0
M  V30 14240 C 1367.95 1.02955 4.16772 0
M  V30 14241 C 1367.18 0.427464 5.31985 0
M  V30 14242 O 1367.4 -0.766684 5.65224 0
M  V30 14243 O 1366.34 1.15553 5.90704 0
M  V30 14244 H 1370.16 1.53316 2.6216 0
M  V30 14245 H 1367.75 0.810206 1.25523 0
M  V30 14246 H 1369.63 -0.344404 4.1999 0
M  V30 14247 H 1368.31 -0.859727 3.12074 0
M  V30 14248 H 1367.21 1.43328 3.45554 0
M  V30 14249 H 1368.55 1.86756 4.55393 0
M  V30 14250 N 1370.2 -1.34667 0.818693 0
M  V30 14251 C 1371.48 -1.92838 0.327521 0
M  V30 14252 C 1371.86 -1.74732 -1.18457 0
M  V30 14253 O 1371.2 -1.12352 -1.98971 0
M  V30 14254 C 1371.41 -3.40797 0.752207 0
M  V30 14255 C 1372.76 -4.17948 0.748613 0
M  V30 14256 O 1373.79 -3.49364 0.694517 0
M  V30 14257 O 1372.64 -5.40344 0.817958 0
M  V30 14258 H 1369.74 -0.822249 0.0885148 0
M  V30 14259 H 1372.28 -1.43668 0.9032 0
M  V30 14260 H 1371.06 -3.47759 1.79387 0
M  V30 14261 H 1370.68 -3.97309 0.151992 0
M  V30 14262 N 1371.68 -0.573274 -1.46804 0
M  V30 14263 C 1372.61 0.153316 -2.32996 0
M  V30 14264 C 1373.59 0.893013 -1.44773 0
M  V30 14265 O 1374.77 0.870329 -1.73606 0
M  V30 14266 C 1371.9 1.1736 -3.2687 0
M  V30 14267 C 1370.86 0.549347 -4.2446 0
M  V30 14268 C 1370.18 1.67542 -5.07773 0
M  V30 14269 C 1371.48 -0.50736 -5.1983 0
M  V30 14270 H 1373.18 -0.566305 -2.93995 0
M  V30 14271 H 1370.72 -0.273785 -1.41373 0
M  V30 14272 H 1372.68 1.6902 -3.86019 0
M  V30 14273 H 1371.4 1.92337 -2.63958 0
M  V30 14274 H 1370.06 0.0539142 -3.6656 0
M  V30 14275 H 1369.71 2.41463 -4.41253 0
M  V30 14276 H 1369.41 1.26343 -5.73856 0
M  V30 14277 H 1370.93 2.19496 -5.69784 0
M  V30 14278 H 1372.34 -0.0762061 -5.73249 0
M  V30 14279 H 1370.74 -0.839139 -5.94204 0
M  V30 14280 H 1371.81 -1.39723 -4.64333 0
M  V30 14281 N 1373.15 1.5451 -0.310553 0
M  V30 14282 C 1374.08 2.26827 0.554243 0
M  V30 14283 C 1375.07 1.27133 1.13009 0
M  V30 14284 O 1376.25 1.55923 1.15765 0
M  V30 14285 C 1373.38 3.01626 1.7216 0
M  V30 14286 C 1372.33 4.08547 1.27566 0
M  V30 14287 C 1371.66 4.71115 2.52893 0
M  V30 14288 C 1372.96 5.20766 0.399955 0
M  V30 14289 H 1374.65 2.9936 -0.0489475 0
M  V30 14290 H 1372.2 1.43978 -0.0249817 0
M  V30 14291 H 1374.15 3.50942 2.33276 0
M  V30 14292 H 1372.88 2.26688 2.35118 0
M  V30 14293 H 1371.54 3.60096 0.687499 0
M  V30 14294 H 1371.18 3.92805 3.14186 0
M  V30 14295 H 1370.88 5.43331 2.23752 0
M  V30 14296 H 1372.41 5.23198 3.14796 0
M  V30 14297 H 1373.82 5.65918 0.917054 0
M  V30 14298 H 1372.22 5.9976 0.2019 0
M  V30 14299 H 1373.29 4.81508 -0.572537 0
M  V30 14300 N 1374.63 0.0384594 1.57553 0
M  V30 14301 C 1375.86 -0.651613 1.96898 0
M  V30 14302 C 1376.28 -1.64328 0.915308 0
M  V30 14303 O 1375.64 -1.80883 -0.122824 0
M  V30 14304 C 1375.69 -1.32613 3.3533 0
M  V30 14305 O 1374.79 -2.44159 3.32355 0
M  V30 14306 H 1374.13 -0.170441 0.641752 0
M  V30 14307 H 1376.66 0.103086 2.0434 0
M  V30 14308 H 1376.67 -1.68076 3.71772 0
M  V30 14309 H 1375.35 -0.599275 4.1156 0
M  V30 14310 H 1373.93 -2.10738 3.07642 0
M  V30 14311 N 1376.11 -1.55841 -0.234795 0
M  V30 14312 C 1377.02 -1.94476 -1.31211 0
M  V30 14313 C 1378.04 -0.846782 -1.52005 0
M  V30 14314 O 1379.21 -1.14922 -1.65393 0
M  V30 14315 C 1376.28 -2.24213 -2.64442 0
M  V30 14316 C 1375.34 -3.47508 -2.52065 0
M  V30 14317 C 1374.57 -3.75817 -3.78942 0
M  V30 14318 O 1374.8 -3.06007 -4.81369 0
M  V30 14319 O 1373.73 -4.69328 -3.76848 0
M  V30 14320 H 1377.56 -2.8626 -1.01434 0
M  V30 14321 H 1375.14 -1.42879 -0.436563 0
M  V30 14322 H 1377.02 -2.44594 -3.4315 0
M  V30 14323 H 1375.7 -1.35605 -2.93927 0
M  V30 14324 H 1374.6 -3.32421 -1.71602 0
M  V30 14325 H 1375.94 -4.36457 -2.27523 0
M  V30 14326 N 1377.59 0.500963 -1.49426 0
M  V30 14327 C 1378.87 1.26231 -1.49416 0
M  V30 14328 C 1379.25 2.0993 -0.221908 0
M  V30 14329 O 1378.59 2.14198 0.795712 0
M  V30 14330 C 1378.8 2.11899 -2.77308 0
M  V30 14331 C 1380.15 2.71086 -3.26799 0
M  V30 14332 O 1381.18 2.22166 -2.78425 0
M  V30 14333 O 1380.04 3.60141 -4.11049 0
M  V30 14334 H 1377.13 0.571224 -0.598024 0
M  V30 14335 H 1379.68 0.51523 -1.61689 0
M  V30 14336 H 1378.45 1.50027 -3.61397 0
M  V30 14337 H 1378.07 2.93799 -2.67896 0
M  V30 14338 N 1379.07 1.38501 0.752011 0
M  V30 14339 C 1380.48 1.31086 1.32941 0
M  V30 14340 C 1380.83 -0.0326248 1.96173 0
M  V30 14341 O 1379.95 -0.934692 1.95173 0
M  V30 14342 C 1380.55 2.37395 2.41721 0
M  V30 14343 C 1379.11 2.33553 2.95177 0
M  V30 14344 C 1378.26 2.20178 1.68573 0
M  V30 14345 H 1381.21 1.48836 0.550771 0
M  V30 14346 H 1381.23 2.03202 3.21697 0
M  V30 14347 H 1380.74 3.35164 1.9567 0
M  V30 14348 H 1378.84 1.39371 3.45553 0
M  V30 14349 H 1378.95 3.27753 3.49449 0
M  V30 14350 H 1377.32 1.67057 1.9226 0
M  V30 14351 H 1378.1 3.19891 1.24599 0
M  V30 14352 N 1380.55 -0.980364 1.23396 0
M  V30 14353 C 1381.48 -2.0908 1.0396 0
M  V30 14354 C 1382.46 -1.70044 -0.0434946 0
M  V30 14355 O 1383.64 -1.93822 0.121155 0
M  V30 14356 C 1380.77 -3.41537 0.630061 0
M  V30 14357 C 1379.73 -3.94476 1.66051 0
M  V30 14358 C 1379.05 -5.23128 1.10641 0
M  V30 14359 C 1380.35 -4.23741 3.05354 0
M  V30 14360 H 1382.05 -2.25598 1.9684 0
M  V30 14361 H 1379.59 -1.08409 0.94781 0
M  V30 14362 H 1381.54 -4.18644 0.481145 0
M  V30 14363 H 1380.27 -3.24883 -0.334416 0
M  V30 14364 H 1378.93 -3.19513 1.79742 0
M  V30 14365 H 1378.58 -5.02824 0.132913 0
M  V30 14366 H 1378.28 -5.59515 1.79492 0
M  V30 14367 H 1379.8 -6.02857 0.969344 0
M  V30 14368 H 1381.21 -4.91598 2.94964 0
M  V30 14369 H 1379.61 -4.71329 3.71442 0
M  V30 14370 H 1380.68 -3.31012 3.54343 0
M  V30 14371 N 1382.02 -1.04567 -1.17913 0
M  V30 14372 C 1382.95 -0.662066 -2.23917 0
M  V30 14373 C 1383.93 0.33713 -1.66726 0
M  V30 14374 O 1385.12 0.216116 -1.92994 0
M  V30 14375 C 1382.25 -0.029463 -3.47288 0
M  V30 14376 C 1381.2 -0.95274 -4.17261 0
M  V30 14377 C 1380.53 -0.184347 -5.34382 0
M  V30 14378 C 1381.83 -2.2741 -4.70194 0
M  V30 14379 H 1383.52 -1.54826 -2.5626 0
M  V30 14380 H 1381.07 -0.745886 -1.23177 0
M  V30 14381 H 1383.02 0.250654 -4.20654 0
M  V30 14382 H 1381.75 0.891638 -3.14193 0
M  V30 14383 H 1380.41 -1.21732 -3.45799 0
M  V30 14384 H 1380.05 0.73932 -4.97537 0
M  V30 14385 H 1379.75 -0.79949 -5.82136 0
M  V30 14386 H 1381.28 0.0886344 -6.10536 0
M  V30 14387 H 1382.69 -2.05433 -5.35229 0
M  V30 14388 H 1381.09 -2.84265 -5.28501 0
M  V30 14389 H 1382.16 -2.91708 -3.87342 0
M  V30 14390 N 1383.5 1.34231 -0.825823 0
M  V30 14391 C 1384.43 2.31997 -0.264546 0
M  V30 14392 C 1385.41 1.58375 0.620592 0
M  V30 14393 O 1386.6 1.86341 0.546865 0
M  V30 14394 C 1383.73 3.42557 0.572025 0
M  V30 14395 C 1382.68 4.27454 -0.216219 0
M  V30 14396 C 1382.01 5.29509 0.743279 0
M  V30 14397 C 1383.31 5.02456 -1.42603 0
M  V30 14398 H 1385 2.79189 -1.08139 0
M  V30 14399 H 1382.55 1.34227 -0.521451 0
M  V30 14400 H 1384.5 4.09968 0.974889 0
M  V30 14401 H 1383.22 2.94021 1.42195 0
M  V30 14402 H 1381.88 3.61649 -0.600485 0
M  V30 14403 H 1381.53 4.77234 1.58924 0
M  V30 14404 H 1381.23 5.87188 0.220064 0
M  V30 14405 H 1382.76 5.99789 1.14394 0
M  V30 14406 H 1384.17 5.62706 -1.09702 0
M  V30 14407 H 1382.57 5.69723 -1.88509 0
M  V30 14408 H 1383.64 4.31983 -2.2027 0
M  V30 14409 N 1384.98 0.581051 1.46498 0
M  V30 14410 C 1385.94 -0.142937 2.28754 0
M  V30 14411 C 1386.94 -0.820383 1.38298 0
M  V30 14412 O 1388.13 -0.672592 1.60692 0
M  V30 14413 C 1385.26 -1.21176 3.18637 0
M  V30 14414 H 1386.46 0.579918 2.9424 0
M  V30 14415 H 1384.01 0.338951 1.52581 0
M  V30 14416 H 1384.75 -1.96624 2.57894 0
M  V30 14417 H 1384.53 -0.730517 3.85235 0
M  V30 14418 H 1386.02 -1.71958 3.80552 0
M  V30 14419 N 1386.46 -1.54343 0.318742 0
M  V30 14420 C 1387.68 -2.05361 -0.290126 0
M  V30 14421 C 1388.11 -1.19362 -1.45376 0
M  V30 14422 O 1387.47 -0.201639 -1.80175 0
M  V30 14423 C 1387.51 -3.53601 -0.707025 0
M  V30 14424 O 1386.62 -3.70561 -1.80992 0
M  V30 14425 H 1385.96 -0.661858 -0.0532933 0
M  V30 14426 H 1388.49 -1.99228 0.46575 0
M  V30 14427 H 1388.5 -3.95782 -0.991005 0
M  V30 14428 H 1387.17 -4.1565 0.144091 0
M  V30 14429 H 1385.75 -3.40286 -1.52513 0
M  V30 14430 N 1387.94 -0.0468143 -1.5753 0
M  V30 14431 C 1389.35 0.489509 -1.80169 0
M  V30 14432 C 1389.7 1.71184 -0.958669 0
M  V30 14433 O 1388.82 2.15699 -0.174025 0
M  V30 14434 C 1389.42 0.894838 -3.26769 0
M  V30 14435 C 1387.98 1.37617 -3.50341 0
M  V30 14436 C 1387.12 0.349275 -2.75092 0
M  V30 14437 H 1390.07 -0.272728 -1.56339 0
M  V30 14438 H 1390.1 1.75805 -3.3745 0
M  V30 14439 H 1389.61 0.00501096 -3.881 0
M  V30 14440 H 1387.71 2.28533 -2.94285 0
M  V30 14441 H 1387.82 1.37133 -4.59055 0
M  V30 14442 H 1386.19 0.821219 -2.41098 0
M  V30 14443 H 1386.97 -0.532391 -3.39147 0
M  V30 14444 N 1389.41 1.55964 0.226527 0
M  V30 14445 C 1390.38 1.91184 1.26418 0
M  V30 14446 C 1391.38 0.789982 1.40057 0
M  V30 14447 O 1392.57 1.05778 1.38407 0
M  V30 14448 C 1389.7 2.15826 2.63878 0
M  V30 14449 H 1390.89 2.83986 0.963956 0
M  V30 14450 H 1388.45 1.49169 0.466726 0
M  V30 14451 H 1389.18 1.2556 2.99007 0
M  V30 14452 H 1388.97 2.97549 2.55356 0
M  V30 14453 H 1390.46 2.44188 3.38765 0
M  V30 14454 N 1390.89 -0.493031 1.4969 0
M  V30 14455 C 1392.3 -1.0744 1.52688 0
M  V30 14456 C 1392.65 -1.93612 0.317652 0
M  V30 14457 O 1391.78 -2.0871 -0.571745 0
M  V30 14458 C 1392.37 -1.95523 2.76688 0
M  V30 14459 C 1390.93 -2.48808 2.82438 0
M  V30 14460 C 1390.08 -1.26617 2.46705 0
M  V30 14461 H 1393.03 -0.276589 1.56271 0
M  V30 14462 H 1393.05 -2.80315 2.57301 0
M  V30 14463 H 1392.56 -1.32779 3.6468 0
M  V30 14464 H 1390.67 -3.15168 1.98746 0
M  V30 14465 H 1390.78 -2.85416 3.84805 0
M  V30 14466 H 1389.14 -1.59396 1.98658 0
M  V30 14467 H 1389.93 -0.655695 3.3698 0
M  V30 14468 N 1392.37 -1.38898 -0.744656 0
M  V30 14469 C 1393.78 -1.31789 -1.32244 0
M  V30 14470 C 1394.13 0.0222208 -1.96187 0
M  V30 14471 O 1393.26 0.924328 -1.95666 0
M  V30 14472 C 1393.85 -2.38674 -2.40458 0
M  V30 14473 C 1392.41 -2.35116 -2.93935 0
M  V30 14474 C 1391.56 -2.21069 -1.67403 0
M  V30 14475 H 1394.51 -1.49126 -0.54287 0
M  V30 14476 H 1394.53 -2.04905 -3.20615 0
M  V30 14477 H 1394.04 -3.36197 -1.9389 0
M  V30 14478 H 1392.14 -1.41201 -3.44809 0
M  V30 14479 H 1392.26 -3.29602 -3.47706 0
M  V30 14480 H 1390.62 -1.68074 -1.91372 0
M  V30 14481 H 1391.4 -3.20547 -1.229 0
M  V30 14482 N 1393.85 0.973806 -1.23914 0
M  V30 14483 C 1394.78 2.08526 -1.05068 0
M  V30 14484 C 1395.76 1.70065 0.0344761 0
M  V30 14485 O 1396.94 1.93755 -0.131432 0
M  V30 14486 C 1394.07 3.41198 -0.648165 0
M  V30 14487 C 1393.03 3.9359 -1.6814 0
M  V30 14488 C 1392.35 5.22534 -1.13414 0
M  V30 14489 C 1393.65 4.22116 -3.07597 0
M  V30 14490 H 1395.35 2.24551 -1.98034 0
M  V30 14491 H 1392.89 1.07905 -0.953546 0
M  V30 14492 H 1394.85 4.18383 -0.50334 0
M  V30 14493 H 1393.57 3.25056 0.317182 0
M  V30 14494 H 1392.23 3.18555 -1.81434 0
M  V30 14495 H 1391.88 5.02747 -0.159578 0
M  V30 14496 H 1391.58 5.58555 -1.82456 0
M  V30 14497 H 1393.1 6.02334 -1.0013 0
M  V30 14498 H 1394.52 4.90027 -2.97567 0
M  V30 14499 H 1392.91 4.69352 -3.73937 0
M  V30 14500 H 1393.98 3.29128 -3.56094 0
M  V30 14501 N 1395.33 1.05191 1.17357 0
M  V30 14502 C 1396.55 0.782343 1.92079 0
M  V30 14503 C 1396.98 -0.655957 1.76292 0
M  V30 14504 O 1396.33 -1.45573 1.08065 0
M  V30 14505 C 1396.38 1.16777 3.41168 0
M  V30 14506 O 1395.49 0.299908 4.11308 0
M  V30 14507 H 1394.83 0.286894 0.598822 0
M  V30 14508 H 1397.36 1.40476 1.48754 0
M  V30 14509 H 1397.37 1.13454 3.91909 0
M  V30 14510 H 1396.04 2.2155 3.51978 0
M  V30 14511 H 1394.62 0.393744 3.70815 0
M  V30 14512 N 1396.8 -1.33791 0.83293 0
M  V30 14513 C 1398.05 -1.98266 0.426412 0
M  V30 14514 C 1398.38 -1.65848 -1.01035 0
M  V30 14515 O 1397.66 -0.93528 -1.70537 0
M  V30 14516 C 1397.94 -3.54356 0.640586 0
M  V30 14517 C 1397.79 -3.96482 2.12419 0
M  V30 14518 C 1399.11 -4.40022 0.0829237 0
M  V30 14519 H 1396.23 -0.720213 0.156404 0
M  V30 14520 H 1398.87 -1.58527 1.04735 0
M  V30 14521 H 1397.02 -3.88338 0.11204 0
M  V30 14522 H 1398.7 -3.72786 2.71714 0
M  V30 14523 H 1396.94 -3.46429 2.61092 0
M  V30 14524 H 1397.61 -5.05179 2.22482 0
M  V30 14525 H 1400.09 -4.12651 0.534634 0
M  V30 14526 H 1398.96 -5.48272 0.262511 0
M  V30 14527 H 1399.22 -4.30341 -1.01287 0
M  V30 14528 N 1398.28 -0.588812 -1.46187 0
M  V30 14529 C 1399.21 0.178825 -2.28501 0
M  V30 14530 C 1400.23 0.849686 -1.38867 0
M  V30 14531 O 1401.42 0.718224 -1.63413 0
M  V30 14532 C 1398.52 1.27309 -3.14079 0
M  V30 14533 C 1397.69 0.692974 -4.31876 0
M  V30 14534 C 1396.75 1.67572 -4.98805 0
M  V30 14535 O 1395.77 1.20937 -5.56204 0
M  V30 14536 N 1396.98 3.00992 -4.96371 0
M  V30 14537 H 1399.74 -0.527407 -2.95023 0
M  V30 14538 H 1397.3 -0.426998 -1.56168 0
M  V30 14539 H 1399.29 1.92993 -3.55719 0
M  V30 14540 H 1397.86 1.88209 -2.49592 0
M  V30 14541 H 1397.08 -0.141485 -3.93946 0
M  V30 14542 H 1398.37 0.28529 -5.08 0
M  V30 14543 H 1397.77 3.41498 -4.50994 0
M  V30 14544 H 1396.33 3.62149 -5.41933 0
M  V30 14545 N 1399.76 1.54172 -0.326923 0
M  V30 14546 C 1400.99 2.05512 0.279231 0
M  V30 14547 C 1401.41 1.20131 1.44741 0
M  V30 14548 O 1400.77 0.211191 1.80066 0
M  V30 14549 C 1400.82 3.53971 0.688263 0
M  V30 14550 O 1399.92 3.71516 1.79025 0
M  V30 14551 H 1399.26 0.662131 0.0497826 0
M  V30 14552 H 1401.79 1.98979 -0.476309 0
M  V30 14553 H 1401.8 3.96302 0.970002 0
M  V30 14554 H 1400.48 4.15568 -0.166132 0
M  V30 14555 H 1399.05 3.4109 1.50706 0
M  V30 14556 N 1401.24 0.0551678 1.57503 0
M  V30 14557 C 1402.47 -0.6272 1.97164 0
M  V30 14558 C 1402.88 -1.64143 0.932876 0
M  V30 14559 O 1402.24 -1.82314 -0.0824465 0
M  V30 14560 C 1402.29 -1.31057 3.36907 0
M  V30 14561 O 1402.01 -0.336951 4.36802 0
M  V30 14562 C 1403.51 -2.08232 3.91349 0
M  V30 14563 H 1400.73 -0.171196 0.648793 0
M  V30 14564 H 1403.28 0.122651 2.04132 0
M  V30 14565 H 1401.43 -2.01162 3.31078 0
M  V30 14566 H 1401.84 -0.825204 5.17968 0
M  V30 14567 H 1403.32 -2.51463 4.91397 0
M  V30 14568 H 1403.8 -2.93212 3.26991 0
M  V30 14569 H 1404.4 -1.43029 4.00528 0
M  V30 14570 N 1402.72 -1.56081 -0.218252 0
M  V30 14571 C 1404.13 -1.69397 -0.784964 0
M  V30 14572 C 1404.48 -0.65775 -1.84846 0
M  V30 14573 O 1403.6 0.190478 -2.1556 0
M  V30 14574 C 1404.2 -3.07114 -1.4306 0
M  V30 14575 C 1402.76 -3.22273 -1.94466 0
M  V30 14576 C 1401.9 -2.65327 -0.80604 0
M  V30 14577 H 1404.86 -1.58699 0.0064566 0
M  V30 14578 H 1404.88 -3.03156 -2.2995 0
M  V30 14579 H 1404.39 -3.8251 -0.656335 0
M  V30 14580 H 1402.49 -2.51752 -2.74684 0
M  V30 14581 H 1402.6 -4.29526 -2.12237 0
M  V30 14582 H 1400.97 -2.23894 -1.21423 0
M  V30 14583 H 1401.75 -3.43271 -0.0443928 0
M  V30 14584 N 1404.2 0.485086 -1.49949 0
M  V30 14585 C 1405.61 0.817651 -1.37064 0
M  V30 14586 C 1405.81 1.9716 -0.415949 0
M  V30 14587 O 1404.87 2.52074 0.146567 0
M  V30 14588 C 1406.18 1.14288 -2.78134 0
M  V30 14589 C 1407.73 1.25016 -2.8695 0
M  V30 14590 C 1408.2 1.60859 -4.28822 0
M  V30 14591 N 1409.69 1.67878 -4.31707 0
M  V30 14592 C 1410.43 1.97089 -5.38464 0
M  V30 14593 N 1409.93 2.24415 -6.55446 0
M  V30 14594 N 1411.72 1.98474 -5.25894 0
M  V30 14595 H 1403.87 -0.275606 -2.10604 0
M  V30 14596 H 1406.13 -0.0607486 -0.946052 0
M  V30 14597 H 1405.84 0.36817 -3.49768 0
M  V30 14598 H 1405.71 2.0825 -3.14502 0
M  V30 14599 H 1408.1 2.01556 -2.15544 0
M  V30 14600 H 1408.18 0.290664 -2.54143 0
M  V30 14601 H 1407.82 0.848639 -5.0076 0
M  V30 14602 H 1407.75 2.57936 -4.59104 0
M  V30 14603 H 1410.25 1.48856 -3.47347 0
M  V30 14604 H 1410.56 2.45938 -7.32622 0
M  V30 14605 H 1408.9 2.21837 -6.58645 0
M  V30 14606 H 1412.09 1.76612 -4.33504 0
M  V30 14607 H 1412.27 2.20904 -6.09184 0
M  V30 14608 N 1405.67 1.39291 0.737279 0
M  V30 14609 C 1406.92 1.36121 1.49384 0
M  V30 14610 C 1407.24 -0.0429406 1.94953 0
M  V30 14611 O 1406.51 -0.993756 1.68823 0
M  V30 14612 H 1405.09 0.500916 0.554159 0
M  V30 14613 H 1407.75 1.74134 0.875402 0
M  V30 14614 H 1406.85 2.02246 2.37704 0
M  V30 14615 N 1407.15 -0.967221 1.24429 0
M  V30 14616 C 1408.4 -1.70688 1.08213 0
M  V30 14617 C 1408.72 -1.91268 -0.379693 0
M  V30 14618 O 1407.99 -1.49077 -1.27094 0
M  V30 14619 H 1406.57 -0.632489 0.39745 0
M  V30 14620 H 1409.23 -1.16356 1.56356 0
M  V30 14621 H 1408.33 -2.69119 1.58055 0
M  V30 14622 N 1408.63 -1.05812 -1.16797 0
M  V30 14623 C 1410.04 -0.79707 -1.6883 0
M  V30 14624 C 1410.39 0.679967 -1.8404 0
M  V30 14625 O 1409.52 1.5279 -1.53245 0
M  V30 14626 C 1410.11 -1.44029 -3.06661 0
M  V30 14627 C 1408.67 -1.22714 -3.55835 0
M  V30 14628 C 1407.82 -1.51988 -2.31937 0
M  V30 14629 H 1410.77 -1.22224 -1.01227 0
M  V30 14630 H 1410.79 -0.852962 -3.70816 0
M  V30 14631 H 1410.3 -2.51529 -2.95559 0
M  V30 14632 H 1408.4 -0.171671 -3.72204 0
M  V30 14633 H 1408.52 -1.93646 -4.38221 0
M  V30 14634 H 1406.88 -0.940215 -2.36711 0
M  V30 14635 H 1407.66 -2.60635 -2.23438 0
M  V30 14636 N 1410.11 1.33347 -0.840014 0
M  V30 14637 C 1411.52 1.80077 -0.492851 0
M  V30 14638 C 1411.87 1.69495 0.988221 0
M  V30 14639 O 1410.99 1.2449 1.77006 0
M  V30 14640 C 1411.59 3.2696 -0.887827 0
M  V30 14641 C 1410.15 3.71703 -0.592785 0
M  V30 14642 C 1409.3 2.54742 -1.09554 0
M  V30 14643 H 1412.25 1.20853 -1.02861 0
M  V30 14644 H 1412.27 3.79983 -0.198327 0
M  V30 14645 H 1411.78 3.3463 -1.96581 0
M  V30 14646 H 1409.88 3.69559 0.475086 0
M  V30 14647 H 1409.99 4.65123 -1.14882 0
M  V30 14648 H 1408.36 2.49411 -0.516357 0
M  V30 14649 H 1409.14 2.65173 -2.18032 0
M  V30 14650 N 1411.59 0.596556 1.45873 0
M  V30 14651 C 1412.55 -0.118666 2.28893 0
M  V30 14652 C 1413.55 -0.805668 1.3916 0
M  V30 14653 O 1414.74 -0.655511 1.61396 0
M  V30 14654 C 1411.87 -1.17789 3.19904 0
M  V30 14655 H 1413.06 0.611093 2.93608 0
M  V30 14656 H 1410.62 0.355115 1.52212 0
M  V30 14657 H 1411.35 -1.93878 2.59965 0
M  V30 14658 H 1411.14 -0.689616 3.85988 0
M  V30 14659 H 1412.63 -1.67912 3.82355 0
M  V30 14660 N 1413.06 -1.53996 0.335095 0
M  V30 14661 C 1414.03 -2.23385 -0.513015 0
M  V30 14662 C 1415.03 -1.23117 -1.03435 0
M  V30 14663 O 1416.22 -1.47616 -0.924944 0
M  V30 14664 C 1413.35 -2.94691 -1.71377 0
M  V30 14665 H 1414.54 -2.99753 0.0937306 0
M  V30 14666 H 1412.09 -1.56061 0.086326 0
M  V30 14667 H 1412.83 -2.22488 -2.35944 0
M  V30 14668 H 1412.61 -3.68228 -1.34723 0
M  V30 14669 H 1414.1 -3.47525 -2.31552 0
M  V30 14670 N 1414.54 -0.0635198 -1.57472 0
M  V30 14671 C 1415.5 0.891881 -2.11135 0
M  V30 14672 C 1416.5 1.23182 -1.03358 0
M  V30 14673 O 1417.69 1.16646 -1.2938 0
M  V30 14674 C 1414.83 2.19792 -2.60584 0
M  V30 14675 H 1416.02 0.426461 -2.96852 0
M  V30 14676 H 1413.57 0.185069 -1.552 0
M  V30 14677 H 1414.31 2.70889 -1.78297 0
M  V30 14678 H 1414.09 1.96419 -3.39355 0
M  V30 14679 H 1415.58 2.88203 -3.02206 0
M  V30 14680 N 1416.02 1.56195 0.209972 0
M  V30 14681 C 1417.3 1.70553 0.957653 0
M  V30 14682 C 1417.68 0.614091 2.01971 0
M  V30 14683 O 1417.02 -0.377192 2.25365 0
M  V30 14684 C 1417.23 3.12314 1.55759 0
M  V30 14685 C 1418.58 3.72085 2.04543 0
M  V30 14686 O 1419.61 3.15349 1.65631 0
M  V30 14687 O 1418.47 4.71627 2.76099 0
M  V30 14688 H 1415.56 0.695077 0.448104 0
M  V30 14689 H 1418.11 1.68507 0.20084 0
M  V30 14690 H 1416.88 3.83215 0.791302 0
M  V30 14691 H 1416.5 3.18526 2.37964 0
M  V30 14692 N 1417.5 -0.477127 1.50204 0
M  V30 14693 C 1418.91 -1.05815 1.53819 0
M  V30 14694 C 1419.26 -1.93264 0.338169 0
M  V30 14695 O 1418.38 -2.09305 -0.549576 0
M  V30 14696 C 1418.98 -1.92577 2.78746 0
M  V30 14697 C 1417.54 -2.45799 2.85061 0
M  V30 14698 C 1416.69 -1.23994 2.48034 0
M  V30 14699 H 1419.64 -0.259998 1.56556 0
M  V30 14700 H 1419.66 -2.7757 2.6026 0
M  V30 14701 H 1419.17 -1.28904 3.66068 0
M  V30 14702 H 1417.27 -3.13042 2.02077 0
M  V30 14703 H 1417.38 -2.81318 3.8781 0
M  V30 14704 H 1415.75 -1.5728 2.00338 0
M  V30 14705 H 1416.53 -0.619917 3.37657 0
M  V30 14706 N 1418.98 -1.3968 -0.729882 0
M  V30 14707 C 1420.22 -1.37182 -1.48954 0
M  V30 14708 C 1420.55 0.0305728 -1.94476 0
M  V30 14709 O 1419.81 1.0124 -1.67478 0
M  V30 14710 C 1420.11 -2.29499 -2.7398 0
M  V30 14711 C 1419.77 -3.77034 -2.47298 0
M  V30 14712 C 1418.43 -4.17232 -2.39731 0
M  V30 14713 C 1420.79 -4.70325 -2.24597 0
M  V30 14714 C 1418.11 -5.48777 -2.07511 0
M  V30 14715 C 1420.47 -6.02153 -1.93893 0
M  V30 14716 C 1419.13 -6.41409 -1.84798 0
M  V30 14717 H 1418.4 -0.501985 -0.545061 0
M  V30 14718 H 1421.05 -1.72226 -0.837294 0
M  V30 14719 H 1419.35 -1.87592 -3.43972 0
M  V30 14720 H 1421.05 -2.24857 -3.32024 0
M  V30 14721 H 1417.64 -3.45177 -2.54069 0
M  V30 14722 H 1421.82 -4.40097 -2.29408 0
M  V30 14723 H 1417.08 -5.78109 -1.98996 0
M  V30 14724 H 1421.25 -6.73966 -1.75337 0
M  V30 14725 H 1418.88 -7.43258 -1.59598 0
M  V30 14726 N 1420.45 0.960609 -1.2494 0
M  V30 14727 C 1421.7 1.70111 -1.09117 0
M  V30 14728 C 1422.02 1.91466 0.369544 0
M  V30 14729 O 1421.29 1.49749 1.26302 0
M  V30 14730 H 1419.87 0.630372 -0.400799 0
M  V30 14731 H 1422.54 1.15525 -1.56971 0
M  V30 14732 H 1421.63 2.68277 -1.5948 0
M  V30 14733 N 1421.93 1.0643 1.16234 0
M  V30 14734 C 1423.34 0.806012 1.68405 0
M  V30 14735 C 1423.69 -0.670197 1.84398 0
M  V30 14736 O 1422.82 -1.51975 1.54054 0
M  V30 14737 C 1423.41 1.45654 3.05893 0
M  V30 14738 C 1421.97 1.24599 3.55179 0
M  V30 14739 C 1421.12 1.53216 2.31128 0
M  V30 14740 H 1424.07 1.22759 1.00578 0
M  V30 14741 H 1424.09 0.872616 3.70359 0
M  V30 14742 H 1423.6 2.53092 2.94221 0
M  V30 14743 H 1421.71 0.191407 3.72108 0
M  V30 14744 H 1421.82 1.95967 4.37188 0
M  V30 14745 H 1420.18 0.952755 2.36209 0
M  V30 14746 H 1420.97 2.61816 2.22052 0
M  V30 14747 N 1423.41 -1.329 0.847073 0
M  V30 14748 C 1424.34 -2.31546 0.301422 0
M  V30 14749 C 1425.32 -1.59342 -0.595317 0
M  V30 14750 O 1426.51 -1.87188 -0.517151 0
M  V30 14751 C 1423.64 -3.43423 -0.517454 0
M  V30 14752 C 1422.59 -4.27055 0.284195 0
M  V30 14753 C 1421.92 -5.30624 -0.658944 0
M  V30 14754 C 1423.22 -5.00123 1.50578 0
M  V30 14755 H 1424.91 -2.77433 1.12567 0
M  V30 14756 H 1422.46 -1.3338 0.542739 0
M  V30 14757 H 1424.41 -4.11467 -0.909543 0
M  V30 14758 H 1423.13 -2.96246 -1.37499 0
M  V30 14759 H 1421.79 -3.60648 0.657944 0
M  V30 14760 H 1421.44 -4.79702 -1.51311 0
M  V30 14761 H 1421.14 -5.87464 -0.12662 0
M  V30 14762 H 1422.66 -6.01533 -1.04837 0
M  V30 14763 H 1424.08 -5.6089 1.18641 0
M  V30 14764 H 1422.48 -5.66652 1.97549 0
M  V30 14765 H 1423.55 -4.28424 2.27115 0
M  V30 14766 N 1424.89 -0.604284 -1.45555 0
M  V30 14767 C 1425.82 0.103859 -2.33269 0
M  V30 14768 C 1426.8 0.862104 -1.46635 0
M  V30 14769 O 1427.98 0.833308 -1.75413 0
M  V30 14770 C 1425.11 1.104 -3.29286 0
M  V30 14771 C 1424.07 0.459189 -4.2553 0
M  V30 14772 C 1423.39 1.56734 -5.11213 0
M  V30 14773 C 1424.69 -0.617509 -5.18637 0
M  V30 14774 H 1426.39 -0.628538 -2.92728 0
M  V30 14775 H 1423.93 -0.303711 -1.40761 0
M  V30 14776 H 1425.89 1.60794 -3.89517 0
M  V30 14777 H 1424.61 1.86695 -2.67979 0
M  V30 14778 H 1423.27 -0.0238508 -3.66592 0
M  V30 14779 H 1422.92 2.32049 -4.46276 0
M  V30 14780 H 1422.62 1.14142 -5.76407 0
M  V30 14781 H 1424.14 2.07361 -5.74312 0
M  V30 14782 H 1425.56 -0.197784 -5.72959 0
M  V30 14783 H 1423.95 -0.96499 -5.9229 0
M  V30 14784 H 1425.02 -1.49541 -4.61265 0
M  V30 14785 N 1426.37 1.53816 -0.343257 0
M  V30 14786 C 1427.78 1.86169 0.140709 0
M  V30 14787 C 1428.13 1.26449 1.50017 0
M  V30 14788 O 1427.25 0.577955 2.08539 0
M  V30 14789 C 1427.85 3.37785 0.262097 0
M  V30 14790 C 1426.41 3.70016 0.690294 0
M  V30 14791 C 1425.55 2.7674 -0.17614 0
M  V30 14792 H 1428.51 1.48383 -0.562863 0
M  V30 14793 H 1428.53 3.64564 1.08964 0
M  V30 14794 H 1428.04 3.81221 -0.727481 0
M  V30 14795 H 1426.14 3.32124 1.68891 0
M  V30 14796 H 1426.25 4.76686 0.480388 0
M  V30 14797 H 1424.62 2.52263 0.351476 0
M  V30 14798 H 1425.4 3.23006 -1.16285 0
M  V30 14799 N 1427.84 0.0718701 1.57436 0
M  V30 14800 C 1429.07 -0.609701 1.98236 0
M  V30 14801 C 1429.49 -1.6235 0.949959 0
M  V30 14802 O 1428.85 -1.81103 -0.0844281 0
M  V30 14803 C 1428.9 -1.2547 3.38068 0
M  V30 14804 O 1428 -2.37055 3.37459 0
M  V30 14805 H 1427.35 -0.15679 0.645223 0
M  V30 14806 H 1429.88 0.146407 2.04076 0
M  V30 14807 H 1429.89 -1.60152 3.75254 0
M  V30 14808 H 1428.56 -0.511842 4.12738 0
M  V30 14809 H 1427.14 -2.04165 3.12043 0
M  V30 14810 N 1429.32 -1.56304 -0.201686 0
M  V30 14811 C 1430.55 -1.84692 -0.943583 0
M  V30 14812 C 1430.97 -0.654649 -1.7634 0
M  V30 14813 O 1430.33 0.396586 -1.76909 0
M  V30 14814 C 1430.38 -3.11251 -1.82085 0
M  V30 14815 O 1429.48 -2.9134 -2.91881 0
M  V30 14816 H 1428.82 -0.608351 -0.266092 0
M  V30 14817 H 1431.35 -2.0353 -0.208992 0
M  V30 14818 H 1431.36 -3.41874 -2.2268 0
M  V30 14819 H 1430.04 -3.97652 -1.21844 0
M  V30 14820 H 1428.62 -2.72 -2.55089 0
M  V30 14821 N 1430.8 0.469154 -1.50455 0
M  V30 14822 C 1432.05 1.21868 -1.61222 0
M  V30 14823 C 1432.37 1.9243 -0.315535 0
M  V30 14824 O 1431.64 1.84192 0.667083 0
M  V30 14825 H 1430.22 0.452828 -0.594101 0
M  V30 14826 H 1432.88 0.540993 -1.87241 0
M  V30 14827 H 1431.98 1.96554 -2.42431 0
M  V30 14828 N 1432.28 1.40065 0.722464 0
M  V30 14829 C 1433.23 1.39947 1.85789 0
M  V30 14830 C 1434.22 0.28089 1.67055 0
M  V30 14831 O 1435.43 0.451575 1.74244 0
M  V30 14832 H 1431.8 0.437296 0.611781 0
M  V30 14833 H 1433.77 2.35695 1.83004 0
M  V30 14834 C 1432.52 1.27218 3.2359 0
M  V30 14835 H 1431.84 2.12566 3.38609 0
M  V30 14836 H 1433.28 1.31194 4.03192 0
M  V30 14837 C 1431.74 -0.0182466 3.36895 0
M  V30 14838 O 1432.27 -0.983761 3.89468 0
M  V30 14839 N 1430.48 -0.0854707 2.90474 0
M  V30 14840 H 1430.03 0.700953 2.4788 0
M  V30 14841 H 1429.98 -0.948367 2.99755 0
M  V30 14842 N 1433.76 -0.95397 1.25448 0
M  V30 14843 C 1434.71 -2.07206 1.05681 0
M  V30 14844 C 1435.7 -1.69395 -0.0124672 0
M  V30 14845 O 1436.91 -1.79429 0.143201 0
M  V30 14846 H 1433.28 -0.678231 0.324817 0
M  V30 14847 H 1435.25 -2.21034 2.00466 0
M  V30 14848 C 1434 -3.40725 0.692955 0
M  V30 14849 H 1433.32 -3.70287 1.50756 0
M  V30 14850 H 1434.76 -4.19814 0.594351 0
M  V30 14851 C 1433.22 -3.31495 -0.601028 0
M  V30 14852 O 1433.75 -3.66565 -1.64296 0
M  V30 14853 N 1431.96 -2.84612 -0.586899 0
M  V30 14854 H 1431.51 -2.56271 0.261375 0
M  V30 14855 H 1431.46 -2.78819 -1.45284 0
M  V30 14856 N 1435.24 -1.07045 -1.15668 0
M  V30 14857 C 1436.46 -0.812802 -1.9081 0
M  V30 14858 C 1436.89 0.627827 -1.77313 0
M  V30 14859 O 1436.24 1.43836 -1.10368 0
M  V30 14860 C 1436.29 -1.2219 -3.39267 0
M  V30 14861 O 1435.4 -0.365305 -4.10779 0
M  V30 14862 H 1434.74 -0.296385 -0.594182 0
M  V30 14863 H 1437.27 -1.42825 -1.465 0
M  V30 14864 H 1437.28 -1.19674 -3.90054 0
M  V30 14865 H 1435.95 -2.27121 -3.48409 0
M  V30 14866 H 1434.53 -0.452687 -3.70142 0
M  V30 14867 N 1436.71 1.32449 -0.85411 0
M  V30 14868 C 1437.65 2.2777 -0.255605 0
M  V30 14869 C 1438.66 1.52407 0.572355 0
M  V30 14870 O 1439.85 1.74031 0.396935 0
M  V30 14871 C 1436.95 3.32461 0.657496 0
M  V30 14872 C 1436.12 4.37193 -0.134492 0
M  V30 14873 C 1435.18 5.21465 0.704288 0
M  V30 14874 O 1434.21 5.69033 0.138001 0
M  V30 14875 N 1435.41 5.44254 2.01911 0
M  V30 14876 H 1438.17 2.79769 -1.07468 0
M  V30 14877 H 1435.73 1.45304 -0.714038 0
M  V30 14878 H 1437.73 3.85748 1.22396 0
M  V30 14879 H 1436.3 2.80625 1.37726 0
M  V30 14880 H 1435.52 3.84198 -0.882378 0
M  V30 14881 H 1436.8 5.04256 -0.678508 0
M  V30 14882 H 1436.2 5.07336 2.50252 0
M  V30 14883 H 1434.76 6.00538 2.53371 0
M  V30 14884 N 1438.19 0.611994 1.45232 0
M  V30 14885 C 1439.6 0.193464 1.85695 0
M  V30 14886 C 1439.95 -1.25069 1.5117 0
M  V30 14887 O 1439.08 -1.94894 0.940497 0
M  V30 14888 C 1439.67 0.344334 3.37046 0
M  V30 14889 C 1438.23 -0.0195378 3.76395 0
M  V30 14890 C 1437.38 0.666714 2.69166 0
M  V30 14891 H 1440.33 0.818395 1.35971 0
M  V30 14892 H 1440.35 -0.422209 3.7815 0
M  V30 14893 H 1439.86 1.3955 3.62143 0
M  V30 14894 H 1437.96 -1.06971 3.56915 0
M  V30 14895 H 1438.08 0.377184 4.77613 0
M  V30 14896 H 1436.44 0.103912 2.54488 0
M  V30 14897 H 1437.22 1.7201 2.97099 0
M  V30 14898 N 1439.67 -1.53632 0.351409 0
M  V30 14899 C 1440.91 -2.02951 -0.242935 0
M  V30 14900 C 1441.27 -1.23346 -1.47138 0
M  V30 14901 O 1442.47 -1.62602 -2.14042 0
M  V30 14902 C 1440.75 -3.53272 -0.541633 0
M  V30 14903 S 1442.3 -4.24485 -1.11167 0
M  V30 14904 H 1439.12 -0.707367 -0.071784 0
M  V30 14905 H 1441.72 -1.89234 0.490993 0
M  V30 14906 H 1440.43 -4.08817 0.360137 0
M  V30 14907 H 1439.96 -3.71124 -1.30502 0
M  V30 14908 H 1441.97 -4.34469 -2.39689 0
M  V30 14909 N 1441.15 -0.0802183 -1.57396 0
M  V30 14910 C 1442.37 0.599179 -1.98556 0
M  V30 14911 C 1442.8 1.61844 -0.958555 0
M  V30 14912 O 1442.16 1.81146 0.0748226 0
M  V30 14913 C 1442.2 1.23675 -3.38728 0
M  V30 14914 O 1441.31 2.35262 -3.38712 0
M  V30 14915 H 1440.65 0.153366 -0.646045 0
M  V30 14916 H 1443.18 -0.157227 -2.03995 0
M  V30 14917 H 1443.19 1.5816 -3.76098 0
M  V30 14918 H 1441.86 0.489946 -4.13004 0
M  V30 14919 H 1440.44 2.02507 -3.13122 0
M  V30 14920 N 1442.63 1.56409 0.193394 0
M  V30 14921 C 1443.57 1.95572 1.25914 0
M  V30 14922 C 1444.57 0.841384 1.47028 0
M  V30 14923 O 1445.77 1.0264 1.47868 0
M  V30 14924 H 1442.15 0.621914 0.422761 0
M  V30 14925 H 1444.12 2.84446 0.901827 0
M  V30 14926 C 1442.87 2.31293 2.59613 0
M  V30 14927 H 1442.19 3.16568 2.44182 0
M  V30 14928 H 1443.63 2.62558 3.32926 0
M  V30 14929 C 1442.09 1.14818 3.16731 0
M  V30 14930 O 1442.62 0.424105 3.99455 0
M  V30 14931 N 1440.83 0.924536 2.75501 0
M  V30 14932 H 1440.37 1.51509 2.08334 0
M  V30 14933 H 1440.33 0.147006 3.14056 0
M  V30 14934 N 1444.1 -0.461169 1.50702 0
M  V30 14935 C 1445.51 -1.04177 1.54932 0
M  V30 14936 C 1445.87 -1.92894 0.358648 0
M  V30 14937 O 1444.99 -2.09876 -0.527346 0
M  V30 14938 C 1445.59 -1.8961 2.80773 0
M  V30 14939 C 1444.14 -2.42761 2.87652 0
M  V30 14940 C 1443.29 -1.21356 2.49335 0
M  V30 14941 H 1446.24 -0.243379 1.56823 0
M  V30 14942 H 1446.26 -2.74794 2.63189 0
M  V30 14943 H 1445.78 -1.25014 3.67414 0
M  V30 14944 H 1443.88 -3.10881 2.05386 0
M  V30 14945 H 1443.99 -2.77189 3.90772 0
M  V30 14946 H 1442.35 -1.55146 2.01995 0
M  V30 14947 H 1443.14 -0.584069 3.38295 0
M  V30 14948 N 1445.58 -1.40446 -0.715026 0
M  V30 14949 C 1446.86 -1.29253 -1.4681 0
M  V30 14950 C 1447.24 0.0888738 -2.10913 0
M  V30 14951 O 1446.59 1.10172 -2.00186 0
M  V30 14952 C 1446.8 -2.43173 -2.50335 0
M  V30 14953 C 1448.14 -2.83433 -3.1615 0
M  V30 14954 O 1449.17 -2.4277 -2.60655 0
M  V30 14955 O 1448.03 -3.53687 -4.16615 0
M  V30 14956 H 1445.12 -0.507627 -0.652873 0
M  V30 14957 H 1447.67 -1.52367 -0.747153 0
M  V30 14958 H 1446.44 -3.35438 -2.01486 0
M  V30 14959 H 1446.06 -2.21832 -3.29964 0
M  V30 14960 N 1447.06 0.947303 -1.25952 0
M  V30 14961 C 1447.99 2.0625 -1.09467 0
M  V30 14962 C 1448.97 1.701 -0.00160498 0
M  V30 14963 O 1450.16 1.93432 -0.172501 0
M  V30 14964 C 1447.29 3.39746 -0.720392 0
M  V30 14965 C 1446.24 3.89935 -1.76451 0
M  V30 14966 C 1445.57 5.2001 -1.24472 0
M  V30 14967 C 1446.87 4.15496 -3.16481 0
M  V30 14968 H 1448.56 2.203 -2.02752 0
M  V30 14969 H 1446.11 1.05858 -0.97622 0
M  V30 14970 H 1448.06 4.17221 -0.591972 0
M  V30 14971 H 1446.78 3.25656 0.248161 0
M  V30 14972 H 1445.44 3.14635 -1.8815 0
M  V30 14973 H 1445.09 5.02295 -0.266182 0
M  V30 14974 H 1444.79 5.54559 -1.94263 0
M  V30 14975 H 1446.31 6.00075 -1.12884 0
M  V30 14976 H 1447.73 4.83605 -3.07894 0
M  V30 14977 H 1446.12 4.61315 -3.83808 0
M  V30 14978 H 1447.19 3.21501 -3.62995 0
M  V30 14979 N 1448.54 1.07657 1.15099 0
M  V30 14980 C 1449.79 0.801609 1.85958 0
M  V30 14981 C 1450.11 -0.672415 1.82507 0
M  V30 14982 O 1449.37 -1.50958 1.2454 0
M  V30 14983 C 1449.67 1.25903 3.3449 0
M  V30 14984 C 1449.33 2.73954 3.58134 0
M  V30 14985 C 1448 3.14392 3.64296 0
M  V30 14986 C 1450.35 3.69502 3.67584 0
M  V30 14987 C 1447.68 4.49187 3.77422 0
M  V30 14988 C 1450.03 5.04063 3.82235 0
M  V30 14989 C 1448.69 5.44117 3.86643 0
M  V30 14990 H 1447.96 0.293329 0.68047 0
M  V30 14991 H 1450.61 1.34814 1.36005 0
M  V30 14992 H 1448.91 0.631943 3.8667 0
M  V30 14993 H 1450.61 1.02314 3.87728 0
M  V30 14994 H 1447.2 2.41652 3.53981 0
M  V30 14995 H 1451.38 3.39385 3.62121 0
M  V30 14996 H 1446.64 4.79685 3.79094 0
M  V30 14997 H 1450.81 5.7797 3.88489 0
M  V30 14998 H 1448.44 6.48567 3.96567 0
M  V30 14999 N 1450.02 -1.31994 0.861122 0
M  V30 15000 C 1451.26 -1.96636 0.466754 0
M  V30 15001 C 1451.59 -1.6845 -0.982328 0
M  V30 15002 O 1450.86 -0.995157 -1.68741 0
M  V30 15003 H 1449.44 -0.727489 0.169613 0
M  V30 15004 H 1452.1 -1.60962 1.09897 0
M  V30 15005 H 1451.19 -3.05937 0.61716 0
M  V30 15006 N 1451.49 -0.619688 -1.44906 0
M  V30 15007 C 1452.4 0.0935512 -2.34413 0
M  V30 15008 C 1453.42 0.847738 -1.51952 0
M  V30 15009 O 1454.6 0.802591 -1.84717 0
M  V30 15010 C 1451.66 1.07047 -3.2976 0
M  V30 15011 C 1450.72 0.31691 -4.28129 0
M  V30 15012 C 1449.96 1.24729 -5.1892 0
M  V30 15013 O 1450.18 2.4856 -5.13395 0
M  V30 15014 O 1449.11 0.737799 -5.97361 0
M  V30 15015 H 1452.94 -0.642335 -2.96829 0
M  V30 15016 H 1450.52 -0.379908 -1.44489 0
M  V30 15017 H 1452.41 1.63281 -3.88481 0
M  V30 15018 H 1451.08 1.78717 -2.69893 0
M  V30 15019 H 1449.99 -0.288192 -3.72988 0
M  V30 15020 H 1451.32 -0.359539 -4.90885 0
M  V30 15021 N 1452.97 1.53444 -0.359552 0
M  V30 15022 C 1454.22 2.01166 0.232022 0
M  V30 15023 C 1454.55 1.24699 1.49266 0
M  V30 15024 O 1453.8 0.327164 1.92946 0
M  V30 15025 C 1454.1 3.5273 0.575863 0
M  V30 15026 C 1453.77 4.47027 -0.589746 0
M  V30 15027 C 1452.43 4.72525 -0.909587 0
M  V30 15028 C 1454.78 5.02846 -1.37095 0
M  V30 15029 C 1452.11 5.51096 -2.01271 0
M  V30 15030 C 1454.46 5.82622 -2.46444 0
M  V30 15031 C 1453.13 6.06409 -2.7897 0
M  V30 15032 H 1452.4 0.73612 0.084903 0
M  V30 15033 H 1455.04 1.85105 -0.490771 0
M  V30 15034 H 1453.35 3.66708 1.37959 0
M  V30 15035 H 1455.04 3.87125 1.04573 0
M  V30 15036 H 1451.63 4.27324 -0.330418 0
M  V30 15037 H 1455.82 4.83098 -1.1371 0
M  V30 15038 H 1451.07 5.67747 -2.26877 0
M  V30 15039 H 1455.25 6.24884 -3.07398 0
M  V30 15040 H 1452.88 6.67077 -3.64572 0
M  V30 15041 N 1454.45 0.0885642 1.57351 0
M  V30 15042 C 1455.38 -0.869946 2.16689 0
M  V30 15043 C 1456.36 -1.29878 1.09844 0
M  V30 15044 O 1457.55 -1.36684 1.37954 0
M  V30 15045 C 1454.68 -2.13148 2.74199 0
M  V30 15046 C 1453.63 -1.84149 3.86359 0
M  V30 15047 C 1452.96 -3.17075 4.30543 0
M  V30 15048 C 1454.26 -1.13357 5.09851 0
M  V30 15049 H 1455.95 -0.375578 2.97035 0
M  V30 15050 H 1453.5 -0.17921 1.42881 0
M  V30 15051 H 1455.45 -2.80634 3.14361 0
M  V30 15052 H 1454.17 -2.64856 1.91098 0
M  V30 15053 H 1452.83 -1.19063 3.46727 0
M  V30 15054 H 1452.48 -3.66658 3.44342 0
M  V30 15055 H 1452.18 -2.98457 5.06159 0
M  V30 15056 H 1453.7 -3.85731 4.73333 0
M  V30 15057 H 1455.12 -1.70941 5.47222 0
M  V30 15058 H 1453.52 -1.0494 5.90853 0
M  V30 15059 H 1454.59 -0.115273 4.84763 0
M  V30 15060 N 1455.93 -1.56509 -0.185096 0
M  V30 15061 C 1456.88 -1.96237 -1.24875 0
M  V30 15062 C 1457.87 -0.849169 -1.46579 0
M  V30 15063 O 1459.08 -1.03422 -1.47322 0
M  V30 15064 H 1455.45 -0.624147 -0.419457 0
M  V30 15065 H 1457.42 -2.8492 -0.88673 0
M  V30 15066 C 1456.17 -2.32667 -2.58382 0
M  V30 15067 H 1455.49 -3.17858 -2.425 0
M  V30 15068 H 1456.93 -2.6432 -3.31528 0
M  V30 15069 C 1455.39 -1.16496 -3.16118 0
M  V30 15070 O 1455.92 -0.445283 -3.99224 0
M  V30 15071 N 1454.13 -0.939133 -2.75007 0
M  V30 15072 H 1453.68 -1.52611 -2.07527 0
M  V30 15073 H 1453.63 -0.163659 -3.13974 0
M  V30 15074 N 1457.41 0.45317 -1.50944 0
M  V30 15075 C 1458.63 1.23136 -1.6689 0
M  V30 15076 C 1459.06 1.84639 -0.359185 0
M  V30 15077 O 1458.41 1.68106 0.678983 0
M  V30 15078 C 1458.46 2.30275 -2.77499 0
M  V30 15079 O 1457.57 3.35371 -2.39999 0
M  V30 15080 H 1456.91 0.361475 -0.556984 0
M  V30 15081 H 1459.44 0.537174 -1.97422 0
M  V30 15082 H 1459.45 2.75309 -3.01113 0
M  V30 15083 H 1458.12 1.84885 -3.72546 0
M  V30 15084 H 1456.7 2.95924 -2.26899 0
M  V30 15085 N 1458.88 1.40823 0.707568 0
M  V30 15086 C 1460.16 1.3003 1.46122 0
M  V30 15087 C 1460.54 -0.0776873 2.10957 0
M  V30 15088 O 1459.89 -1.09109 2.00767 0
M  V30 15089 C 1460.1 2.44498 2.49042 0
M  V30 15090 C 1461.45 2.85106 3.14642 0
M  V30 15091 O 1462.47 2.44149 2.59364 0
M  V30 15092 O 1461.33 3.55892 4.14733 0
M  V30 15093 H 1458.42 0.511082 0.650172 0
M  V30 15094 H 1460.97 1.52761 0.739062 0
M  V30 15095 H 1459.74 3.36502 1.99705 0
M  V30 15096 H 1459.37 2.23579 3.28783 0
M  V30 15097 N 1460.36 -0.94061 1.26453 0
M  V30 15098 C 1461.59 -1.72654 1.14914 0
M  V30 15099 C 1462.01 -1.85823 -0.291789 0
M  V30 15100 O 1461.37 -1.34888 -1.2114 0
M  V30 15101 C 1461.42 -3.11083 1.82372 0
M  V30 15102 O 1460.52 -3.971 1.1129 0
M  V30 15103 H 1459.86 -0.529704 0.400387 0
M  V30 15104 H 1462.39 -1.17803 1.67283 0
M  V30 15105 H 1462.4 -3.6147 1.89219 0
M  V30 15106 H 1461.08 -3.00815 2.87199 0
M  V30 15107 H 1459.66 -3.5555 1.12423 0
M  V30 15108 N 1461.84 -1.08266 -1.14527 0
M  V30 15109 C 1463.09 -0.812661 -1.85805 0
M  V30 15110 C 1463.42 0.659878 -1.82645 0
M  V30 15111 O 1462.69 1.48498 -1.25612 0
M  V30 15112 C 1462.98 -1.33335 -3.34505 0
M  V30 15113 C 1462.83 -2.87113 -3.46246 0
M  V30 15114 C 1464.15 -0.957435 -4.29559 0
M  V30 15115 H 1461.27 -0.296681 -0.674648 0
M  V30 15116 H 1463.91 -1.34203 -1.34497 0
M  V30 15117 H 1462.06 -0.883056 -3.78331 0
M  V30 15118 H 1463.73 -3.40502 -3.11217 0
M  V30 15119 H 1461.98 -3.24845 -2.87504 0
M  V30 15120 H 1462.65 -3.18618 -4.50762 0
M  V30 15121 H 1465.12 -1.3456 -3.93742 0
M  V30 15122 H 1464 -1.34897 -5.32066 0
M  V30 15123 H 1464.26 0.135689 -4.41892 0
M  V30 15124 N 1463.32 1.31536 -0.86811 0
M  V30 15125 C 1464.55 2.00952 -0.492529 0
M  V30 15126 C 1464.96 1.65174 0.914487 0
M  V30 15127 O 1464.32 0.880002 1.59882 0
M  V30 15128 C 1464.37 3.55829 -0.637798 0
M  V30 15129 O 1464.09 3.90326 -1.9894 0
M  V30 15130 C 1465.59 4.42519 -0.262986 0
M  V30 15131 H 1462.81 0.642913 -0.192105 0
M  V30 15132 H 1465.36 1.6781 -1.16876 0
M  V30 15133 H 1463.51 3.87399 -0.0091406 0
M  V30 15134 H 1463.93 4.85043 -1.99583 0
M  V30 15135 H 1465.4 5.50433 -0.415591 0
M  V30 15136 H 1465.88 4.31895 0.797705 0
M  V30 15137 H 1466.48 4.16363 -0.867268 0
M  V30 15138 N 1464.8 0.627364 1.44575 0
M  V30 15139 C 1466.04 0.130545 2.02379 0
M  V30 15140 C 1466.38 -1.24301 1.49208 0
M  V30 15141 O 1465.65 -1.82425 0.674626 0
M  V30 15142 C 1465.93 0.11311 3.59922 0
M  V30 15143 C 1465.79 1.51874 4.23385 0
M  V30 15144 C 1467.11 -0.564341 4.36467 0
M  V30 15145 H 1464.23 0.0489125 0.735375 0
M  V30 15146 H 1466.87 0.803118 1.72192 0
M  V30 15147 H 1465.02 -0.459621 3.85772 0
M  V30 15148 H 1466.69 2.14007 4.08655 0
M  V30 15149 H 1464.93 2.07371 3.81024 0
M  V30 15150 H 1465.6 1.4586 5.3238 0
M  V30 15151 H 1468.08 -0.0773244 4.16028 0
M  V30 15152 H 1466.96 -0.545715 5.46181 0
M  V30 15153 H 1467.22 -1.63403 4.10794 0
M  V30 15154 N 1466.28 -1.53251 0.367684 0
M  V30 15155 C 1467.69 -1.86369 -0.111073 0
M  V30 15156 C 1468.04 -1.2882 -1.47986 0
M  V30 15157 O 1467.16 -0.611058 -2.07593 0
M  V30 15158 C 1467.76 -3.38159 -0.208325 0
M  V30 15159 C 1466.32 -3.71067 -0.63134 0
M  V30 15160 C 1465.46 -2.76425 0.220144 0
M  V30 15161 H 1468.41 -1.47469 0.586398 0
M  V30 15162 H 1468.44 -3.66252 -1.03151 0
M  V30 15163 H 1467.95 -3.80015 0.788038 0
M  V30 15164 H 1466.05 -3.34769 -1.63586 0
M  V30 15165 H 1466.16 -4.77389 -0.404491 0
M  V30 15166 H 1464.53 -2.5279 -0.311298 0
M  V30 15167 H 1465.31 -3.21115 1.21409 0
M  V30 15168 N 1467.75 -0.0969077 -1.57302 0
M  V30 15169 C 1469.16 0.431942 -1.81635 0
M  V30 15170 C 1469.52 1.68047 -1.01264 0
M  V30 15171 O 1468.64 2.15036 -0.24256 0
M  V30 15172 C 1469.24 0.790426 -3.29451 0
M  V30 15173 C 1467.79 1.26401 -3.54542 0
M  V30 15174 C 1466.94 0.26158 -2.76063 0
M  V30 15175 H 1469.89 -0.322328 -1.55392 0
M  V30 15176 H 1469.91 1.64981 -3.42873 0
M  V30 15177 H 1469.43 -0.118463 -3.87919 0
M  V30 15178 H 1467.53 2.19055 -3.01406 0
M  V30 15179 H 1467.64 1.22459 -4.63185 0
M  V30 15180 H 1466 0.7441 -2.43588 0
M  V30 15181 H 1466.79 -0.640018 -3.37281 0
M  V30 15182 N 1469.23 1.56605 0.176793 0
M  V30 15183 C 1470.46 1.8617 0.91408 0
M  V30 15184 C 1470.88 0.68262 1.75277 0
M  V30 15185 O 1470.24 -0.368391 1.77518 0
M  V30 15186 C 1470.29 3.14109 1.7711 0
M  V30 15187 O 1469.39 2.95947 2.87209 0
M  V30 15188 H 1468.73 0.612507 0.25638 0
M  V30 15189 H 1471.26 2.03837 0.176586 0
M  V30 15190 H 1471.27 3.45373 2.17213 0
M  V30 15191 H 1469.95 3.9954 1.15502 0
M  V30 15192 H 1468.52 2.76024 2.50729 0
M  V30 15193 N 1470.71 -0.445159 1.51182 0
M  V30 15194 C 1471.96 -1.19524 1.63463 0
M  V30 15195 C 1472.28 -1.91377 0.347136 0
M  V30 15196 O 1471.54 -1.83932 -0.668408 0
M  V30 15197 C 1471.84 -2.24274 2.78273 0
M  V30 15198 C 1471.5 -1.6949 4.17833 0
M  V30 15199 C 1470.17 -1.54271 4.558 0
M  V30 15200 C 1472.52 -1.29128 5.04951 0
M  V30 15201 C 1469.85 -0.971532 5.786 0
M  V30 15202 C 1472.2 -0.734426 6.28322 0
M  V30 15203 C 1470.86 -0.569079 6.6507 0
M  V30 15204 H 1470.13 -0.437369 0.598155 0
M  V30 15205 H 1472.78 -0.48742 1.85193 0
M  V30 15206 H 1471.08 -3.01065 2.50734 0
M  V30 15207 H 1472.78 -2.82117 2.84975 0
M  V30 15208 H 1469.37 -1.82309 3.87894 0
M  V30 15209 H 1473.56 -1.39709 4.7623 0
M  V30 15210 H 1468.81 -0.831117 6.05725 0
M  V30 15211 H 1472.99 -0.413133 6.95173 0
M  V30 15212 H 1470.61 -0.124355 7.60098 0
M  V30 15213 N 1472.19 -1.41197 -0.700089 0
M  V30 15214 C 1473.6 -1.3593 -1.27985 0
M  V30 15215 C 1473.95 -0.0402059 -1.96159 0
M  V30 15216 O 1473.07 0.861611 -1.98508 0
M  V30 15217 C 1473.67 -2.46203 -2.32743 0
M  V30 15218 C 1472.23 -2.44348 -2.86306 0
M  V30 15219 C 1471.38 -2.26283 -1.60285 0
M  V30 15220 H 1474.33 -1.50778 -0.495152 0
M  V30 15221 H 1474.35 -2.15001 -3.13934 0
M  V30 15222 H 1473.86 -3.42195 -1.83096 0
M  V30 15223 H 1471.96 -1.521 -3.40142 0
M  V30 15224 H 1472.07 -3.40497 -3.37044 0
M  V30 15225 H 1470.44 -1.74078 -1.85928 0
M  V30 15226 H 1471.22 -3.24295 -1.1264 0
M  V30 15227 N 1473.67 0.933891 -1.2695 0
M  V30 15228 C 1474.89 1.72042 -1.15828 0
M  V30 15229 C 1475.32 1.85975 0.28193 0
M  V30 15230 O 1474.67 1.35528 1.20423 0
M  V30 15231 C 1474.72 3.10112 -1.84019 0
M  V30 15232 O 1473.83 3.96504 -1.13394 0
M  V30 15233 H 1473.17 0.527573 -0.40319 0
M  V30 15234 H 1475.7 1.16914 -1.67905 0
M  V30 15235 H 1475.71 3.60461 -1.91133 0
M  V30 15236 H 1474.38 2.99287 -2.8879 0
M  V30 15237 H 1472.96 3.54948 -1.14307 0
M  V30 15238 N 1475.14 1.08871 1.13951 0
M  V30 15239 C 1476.11 0.726655 2.17376 0
M  V30 15240 C 1477.11 -0.240922 1.58985 0
M  V30 15241 O 1478.3 -0.0198472 1.74189 0
M  V30 15242 C 1475.43 0.0736505 3.4082 0
M  V30 15243 H 1476.62 1.64254 2.5092 0
M  V30 15244 H 1474.17 0.887183 1.28681 0
M  V30 15245 H 1474.91 -0.853733 3.12861 0
M  V30 15246 H 1474.69 0.769782 3.84469 0
M  V30 15247 H 1476.18 -0.164465 4.17276 0
M  V30 15248 N 1476.62 -1.31073 0.875073 0
M  V30 15249 C 1477.57 -2.25936 0.306104 0
M  V30 15250 C 1478.56 -1.50848 -0.559782 0
M  V30 15251 O 1479.75 -1.72285 -0.405824 0
M  V30 15252 C 1476.88 -3.39828 -0.486995 0
M  V30 15253 C 1475.96 -4.22281 0.392421 0
M  V30 15254 N 1476.35 -4.83409 1.48828 0
M  V30 15255 C 1474.65 -4.45613 0.185762 0
M  V30 15256 C 1475.35 -5.45092 2.031 0
M  V30 15257 N 1474.33 -5.27147 1.3273 0
M  V30 15258 H 1478.13 -2.70738 1.14359 0
M  V30 15259 H 1475.64 -1.45399 0.72339 0
M  V30 15260 H 1477.64 -4.06821 -0.911171 0
M  V30 15261 H 1476.3 -2.96568 -1.32203 0
M  V30 15262 H 1477.31 -4.82915 1.87118 0
M  V30 15263 H 1473.99 -4.12977 -0.61291 0
M  V30 15264 H 1475.38 -6.03641 2.95071 0
M  V30 15265 N 1478.1 -0.635022 -1.4424 0
M  V30 15266 C 1479.33 -0.146549 -2.06882 0
M  V30 15267 C 1479.75 1.17143 -1.4717 0
M  V30 15268 O 1479.11 1.71952 -0.574636 0
M  V30 15269 C 1479.16 -0.0494694 -3.60566 0
M  V30 15270 O 1478.26 0.993423 -4.00256 0
M  V30 15271 H 1477.6 -0.0865505 -0.658335 0
M  V30 15272 H 1480.13 -0.872803 -1.85049 0
M  V30 15273 H 1480.14 0.139839 -4.0776 0
M  V30 15274 H 1478.82 -1.01169 -4.03407 0
M  V30 15275 H 1477.39 0.778372 -3.64686 0
M  V30 15276 N 1479.58 1.53054 -0.375806 0
M  V30 15277 C 1480.54 2.24666 0.453608 0
M  V30 15278 C 1481.54 1.25816 1.00135 0
M  V30 15279 O 1482.73 1.50016 0.885481 0
M  V30 15280 C 1479.86 2.99131 1.63503 0
M  V30 15281 H 1481.06 2.994 -0.173172 0
M  V30 15282 H 1478.61 1.55778 -0.127673 0
M  V30 15283 H 1479.34 2.28666 2.29962 0
M  V30 15284 H 1479.13 3.71671 1.24913 0
M  V30 15285 H 1480.62 3.53542 2.22256 0
M  V30 15286 N 1481.06 0.105248 1.57248 0
M  V30 15287 C 1482.47 -0.422304 1.81861 0
M  V30 15288 C 1482.82 -1.67508 1.02154 0
M  V30 15289 O 1481.94 -2.14905 0.253961 0
M  V30 15290 C 1482.54 -0.772943 3.29865 0
M  V30 15291 C 1481.1 -1.24519 3.55207 0
M  V30 15292 C 1480.24 -0.246936 2.76198 0
M  V30 15293 H 1483.2 0.330565 1.55219 0
M  V30 15294 H 1483.22 -1.6316 3.43743 0
M  V30 15295 H 1482.73 0.139033 3.87851 0
M  V30 15296 H 1480.83 -2.17453 3.02564 0
M  V30 15297 H 1480.94 -1.20001 4.63828 0
M  V30 15298 H 1479.31 -0.731171 2.43979 0
M  V30 15299 H 1480.09 0.657896 3.36937 0
M  V30 15300 N 1482.53 -1.56697 -0.168486 0
M  V30 15301 C 1483.95 -1.71808 -0.730674 0
M  V30 15302 C 1484.3 -0.716224 -1.8266 0
M  V30 15303 O 1483.42 0.121803 -2.16057 0
M  V30 15304 C 1484.02 -3.1151 -1.33217 0
M  V30 15305 C 1482.58 -3.28297 -1.84115 0
M  V30 15306 C 1481.72 -2.67757 -0.72122 0
M  V30 15307 H 1484.67 -1.58598 0.0569421 0
M  V30 15308 H 1484.69 -3.10318 -2.20189 0
M  V30 15309 H 1484.21 -3.84404 -0.53431 0
M  V30 15310 H 1482.31 -2.60364 -2.66536 0
M  V30 15311 H 1482.42 -4.3606 -1.98464 0
M  V30 15312 H 1480.78 -2.27644 -1.14239 0
M  V30 15313 H 1481.57 -3.43239 0.0648388 0
M  V30 15314 N 1484.01 0.437135 -1.51416 0
M  V30 15315 C 1485.42 1.01699 -1.5657 0
M  V30 15316 C 1485.77 1.92299 -0.389291 0
M  V30 15317 O 1484.9 2.10689 0.49389 0
M  V30 15318 C 1485.49 1.85119 -2.83754 0
M  V30 15319 C 1484.05 2.38154 -2.91478 0
M  V30 15320 C 1483.2 1.17374 -2.51234 0
M  V30 15321 H 1486.15 0.218399 -1.5719 0
M  V30 15322 H 1486.17 2.70572 -2.67528 0
M  V30 15323 H 1485.68 1.19153 -3.69357 0
M  V30 15324 H 1483.79 3.07575 -2.10306 0
M  V30 15325 H 1483.9 2.70937 -3.95133 0
M  V30 15326 H 1482.26 1.51913 -2.04437 0
M  V30 15327 H 1483.05 0.530176 -3.39181 0
M  V30 15328 N 1485.49 1.41566 0.692592 0
M  V30 15329 C 1486.72 1.44646 1.48635 0
M  V30 15330 C 1487.14 0.0541597 1.88022 0
M  V30 15331 O 1486.5 -0.943305 1.54827 0
M  V30 15332 C 1486.55 2.3636 2.72335 0
M  V30 15333 O 1485.65 1.8227 3.69934 0
M  V30 15334 H 1484.99 0.490791 0.447236 0
M  V30 15335 H 1487.52 1.8606 0.851056 0
M  V30 15336 H 1487.53 2.52337 3.20609 0
M  V30 15337 H 1486.21 3.37523 2.43004 0
M  V30 15338 H 1484.78 1.75759 3.28882 0
M  V30 15339 N 1486.97 -0.927146 1.27443 0
M  V30 15340 C 1488.21 -1.68946 1.15051 0
M  V30 15341 C 1488.57 -1.89664 -0.298585 0
M  V30 15342 O 1489.77 -2.63218 -0.544943 0
M  V30 15343 C 1488.04 -3.01884 1.91313 0
M  V30 15344 S 1489.6 -3.93021 1.9514 0
M  V30 15345 H 1486.42 -0.580376 0.410713 0
M  V30 15346 H 1489.02 -1.10378 1.61359 0
M  V30 15347 H 1487.73 -2.84496 2.95787 0
M  V30 15348 H 1487.26 -3.65504 1.45501 0
M  V30 15349 H 1489.27 -4.85002 1.04822 0
M  V30 15350 N 1488.45 -1.09474 -1.13372 0
M  V30 15351 C 1489.67 -0.853093 -1.89043 0
M  V30 15352 C 1490.1 0.590075 -1.78605 0
M  V30 15353 O 1489.45 1.41462 -1.13394 0
M  V30 15354 C 1489.5 -1.29359 -3.36599 0
M  V30 15355 O 1488.61 -0.452355 -4.09912 0
M  V30 15356 H 1487.95 -0.308922 -0.587761 0
M  V30 15357 H 1490.48 -1.459 -1.43437 0
M  V30 15358 H 1490.49 -1.27921 -3.87428 0
M  V30 15359 H 1489.16 -2.3446 -3.43513 0
M  V30 15360 H 1487.74 -0.531098 -3.69099 0
M  V30 15361 N 1489.92 1.30607 -0.882012 0
M  V30 15362 C 1490.89 2.26489 -0.351498 0
M  V30 15363 C 1491.89 1.52686 0.504348 0
M  V30 15364 O 1493.08 1.71385 0.311928 0
M  V30 15365 C 1490.21 3.37222 0.499435 0
M  V30 15366 H 1491.4 2.74929 -1.19809 0
M  V30 15367 H 1488.96 1.41746 -0.658616 0
M  V30 15368 H 1489.69 2.94093 1.36673 0
M  V30 15369 H 1489.48 3.91936 -0.11356 0
M  V30 15370 H 1490.97 4.08596 0.862497 0
M  V30 15371 N 1491.4 0.642663 1.43901 0
M  V30 15372 C 1492.68 0.0821715 1.95427 0
M  V30 15373 C 1493.06 -1.3951 1.58431 0
M  V30 15374 O 1492.41 -2.11531 0.864118 0
M  V30 15375 C 1492.62 0.317229 3.47555 0
M  V30 15376 C 1493.97 0.216547 4.24047 0
M  V30 15377 O 1494.99 0.249216 3.55327 0
M  V30 15378 O 1493.85 0.131269 5.46342 0
M  V30 15379 H 1490.94 -0.0156936 0.826851 0
M  V30 15380 H 1493.49 0.715168 1.53894 0
M  V30 15381 H 1492.26 1.34184 3.67574 0
M  V30 15382 H 1491.88 -0.349348 3.96062 0
M  V30 15383 N 1492.88 -1.52852 0.383918 0
M  V30 15384 C 1494.13 -2.0151 -0.199989 0
M  V30 15385 C 1494.46 -1.27058 -1.47263 0
M  V30 15386 O 1493.71 -0.357819 -1.92401 0
M  V30 15387 C 1494.01 -3.53602 -0.519674 0
M  V30 15388 C 1493.68 -4.46032 0.660789 0
M  V30 15389 C 1492.34 -4.71018 0.984646 0
M  V30 15390 C 1494.69 -5.00602 1.45077 0
M  V30 15391 C 1492.02 -5.47824 2.10013 0
M  V30 15392 C 1494.37 -5.78627 2.55682 0
M  V30 15393 C 1493.03 -6.01894 2.88582 0
M  V30 15394 H 1492.3 -0.737377 -0.0731812 0
M  V30 15395 H 1494.95 -1.843 0.520157 0
M  V30 15396 H 1493.26 -3.68856 -1.32108 0
M  V30 15397 H 1494.95 -3.88739 -0.984011 0
M  V30 15398 H 1491.54 -4.26745 0.398359 0
M  V30 15399 H 1495.73 -4.81228 1.21381 0
M  V30 15400 H 1490.98 -5.64066 2.3588 0
M  V30 15401 H 1495.16 -6.19914 3.173 0
M  V30 15402 H 1492.78 -6.61192 3.75138 0
M  V30 15403 N 1494.36 -0.113586 -1.5719 0
M  V30 15404 C 1495.29 0.835363 -2.18046 0
M  V30 15405 C 1496.27 1.28114 -1.11897 0
M  V30 15406 O 1497.46 1.34472 -1.40111 0
M  V30 15407 C 1494.59 2.08759 -2.77556 0
M  V30 15408 C 1493.54 1.77979 -3.8924 0
M  V30 15409 C 1492.87 3.10185 -4.35533 0
M  V30 15410 C 1494.17 1.05231 -5.11589 0
M  V30 15411 H 1495.86 0.328275 -2.97595 0
M  V30 15412 H 1493.41 0.156456 -1.43148 0
M  V30 15413 H 1495.36 2.75597 -3.18785 0
M  V30 15414 H 1494.08 2.61783 -1.95288 0
M  V30 15415 H 1492.74 1.13532 -3.48577 0
M  V30 15416 H 1492.39 3.61133 -3.50131 0
M  V30 15417 H 1492.09 2.90367 -5.10843 0
M  V30 15418 H 1493.61 3.78151 -4.7941 0
M  V30 15419 H 1495.03 1.62213 -5.49872 0
M  V30 15420 H 1493.42 0.955269 -5.92448 0
M  V30 15421 H 1494.49 0.038137 -4.84885 0
M  V30 15422 N 1495.84 1.56784 0.160173 0
M  V30 15423 C 1496.79 1.9368 1.203 0
M  V30 15424 C 1497.77 0.806435 1.39232 0
M  V30 15425 O 1498.96 1.06975 1.41015 0
M  V30 15426 C 1496.09 2.30972 2.53982 0
M  V30 15427 C 1495.18 3.50549 2.38697 0
M  V30 15428 N 1495.57 4.6747 1.93145 0
M  V30 15429 C 1493.87 3.55375 2.6949 0
M  V30 15430 C 1494.57 5.49591 1.9059 0
M  V30 15431 N 1493.54 4.90938 2.33412 0
M  V30 15432 H 1497.35 2.8156 0.842691 0
M  V30 15433 H 1494.86 1.58167 0.368351 0
M  V30 15434 H 1496.86 2.55604 3.29351 0
M  V30 15435 H 1495.52 1.44437 2.90806 0
M  V30 15436 H 1496.53 4.91477 1.63312 0
M  V30 15437 H 1493.21 2.79346 3.10277 0
M  V30 15438 H 1494.6 6.53306 1.56976 0
M  V30 15439 N 1497.32 -0.429099 1.51646 0
M  V30 15440 C 1498.25 -1.52867 1.76505 0
M  V30 15441 C 1499.23 -1.58586 0.615178 0
M  V30 15442 O 1500.41 -1.74182 0.858742 0
M  V30 15443 C 1497.54 -2.90875 1.8976 0
M  V30 15444 C 1496.5 -3.00014 3.05247 0
M  V30 15445 C 1495.82 -4.40082 3.03696 0
M  V30 15446 C 1497.12 -2.73334 4.45068 0
M  V30 15447 H 1498.82 -1.32315 2.68576 0
M  V30 15448 H 1496.36 -0.635091 1.29238 0
M  V30 15449 H 1498.31 -3.67765 2.05734 0
M  V30 15450 H 1497.04 -3.12677 0.943442 0
M  V30 15451 H 1495.7 -2.25565 2.88991 0
M  V30 15452 H 1495.35 -4.58864 2.06042 0
M  V30 15453 H 1495.05 -4.47125 3.81252 0
M  V30 15454 H 1496.57 -5.18935 3.21774 0
M  V30 15455 H 1497.98 -3.39954 4.61632 0
M  V30 15456 H 1496.38 -2.91777 5.24391 0
M  V30 15457 H 1497.45 -1.68889 4.54538 0
M  V30 15458 N 1498.79 -1.41931 -0.685074 0
M  V30 15459 C 1500.04 -1.41571 -1.44229 0
M  V30 15460 C 1500.36 -0.0294445 -1.94978 0
M  V30 15461 O 1499.63 0.930414 -1.72395 0
M  V30 15462 H 1498.21 -0.521138 -0.535186 0
M  V30 15463 H 1500.87 -1.77263 -0.81017 0
M  V30 15464 H 1499.97 -2.10929 -2.30034 0
M  V30 15465 N 1500.27 0.920374 -1.27933 0
M  V30 15466 C 1501.55 1.64765 -1.05413 0
M  V30 15467 C 1501.93 2.07106 0.408717 0
M  V30 15468 O 1501.28 1.81094 1.39346 0
M  V30 15469 C 1501.49 2.84417 -2.02257 0
M  V30 15470 C 1502.83 3.5559 -2.32036 0
M  V30 15471 O 1503.86 2.94555 -2.00289 0
M  V30 15472 O 1502.72 4.65574 -2.86187 0
M  V30 15473 H 1499.81 0.722503 -0.402391 0
M  V30 15474 H 1502.36 0.970263 -1.39226 0
M  V30 15475 H 1501.13 2.50174 -3.0088 0
M  V30 15476 H 1500.75 3.59872 -1.6905 0
M  V30 15477 N 1501.75 1.10074 1.1279 0
M  V30 15478 C 1502.68 0.768146 2.20503 0
M  V30 15479 C 1503.66 -0.257199 1.68144 0
M  V30 15480 O 1504.85 -0.12379 1.93805 0
M  V30 15481 C 1501.98 0.195125 3.46751 0
M  V30 15482 C 1500.93 1.15074 4.1224 0
M  V30 15483 C 1500.26 0.439098 5.32894 0
M  V30 15484 C 1501.56 2.49584 4.58808 0
M  V30 15485 H 1503.25 1.66876 2.48581 0
M  V30 15486 H 1500.8 0.803806 1.19478 0
M  V30 15487 H 1502.75 -0.0496695 4.21371 0
M  V30 15488 H 1501.47 -0.740717 3.1809 0
M  V30 15489 H 1500.13 1.38092 3.39597 0
M  V30 15490 H 1499.78 -0.501096 5.00498 0
M  V30 15491 H 1499.48 1.07632 5.77658 0
M  V30 15492 H 1501 0.202761 6.10263 0
M  V30 15493 H 1502.42 2.30736 5.24818 0
M  V30 15494 H 1500.81 3.09157 5.14336 0
M  V30 15495 H 1501.88 3.09857 3.72984 0
M  V30 15496 N 1503.23 -1.30138 0.888926 0
M  V30 15497 C 1504.64 -1.78124 0.559346 0
M  V30 15498 C 1504.99 -1.73046 -0.924633 0
M  V30 15499 O 1504.11 -1.30974 -1.72264 0
M  V30 15500 C 1504.71 -3.2344 1.00856 0
M  V30 15501 C 1503.27 -3.69247 0.730332 0
M  V30 15502 C 1502.42 -2.505 1.18933 0
M  V30 15503 H 1505.37 -1.16952 1.07275 0
M  V30 15504 H 1505.39 -3.78985 0.339219 0
M  V30 15505 H 1504.9 -3.27104 2.08865 0
M  V30 15506 H 1503 -3.71067 -0.337599 0
M  V30 15507 H 1503.11 -4.60538 1.32066 0
M  V30 15508 H 1501.48 -2.47323 0.608568 0
M  V30 15509 H 1502.26 -2.56899 2.27724 0
M  V30 15510 N 1504.71 -0.650285 -1.43559 0
M  V30 15511 C 1505.95 -0.162164 -2.01448 0
M  V30 15512 C 1506.27 1.22717 -1.51544 0
M  V30 15513 O 1505.54 1.81917 -0.726855 0
M  V30 15514 H 1504.12 -0.0569599 -0.744825 0
M  V30 15515 H 1506.79 -0.841294 -1.75807 0
M  V30 15516 H 1505.88 -0.144531 -3.11765 0
M  V30 15517 N 1506.18 1.52647 -0.392018 0
M  V30 15518 C 1507.09 2.30261 0.449093 0
M  V30 15519 C 1508.11 1.37286 1.06905 0
M  V30 15520 O 1509.29 1.70357 1.07427 0
M  V30 15521 C 1506.35 3.09636 1.55969 0
M  V30 15522 C 1505.41 4.18324 0.964566 0
M  V30 15523 C 1504.64 4.93904 2.02224 0
M  V30 15524 O 1504.87 4.69603 3.23773 0
M  V30 15525 O 1503.8 5.79183 1.63802 0
M  V30 15526 H 1507.63 3.03147 -0.183269 0
M  V30 15527 H 1505.21 1.48587 -0.155664 0
M  V30 15528 H 1507.09 3.59118 2.20482 0
M  V30 15529 H 1505.77 2.39561 2.17697 0
M  V30 15530 H 1504.68 3.73031 0.282618 0
M  V30 15531 H 1506.01 4.90641 0.391466 0
M  V30 15532 N 1507.66 0.121921 1.57128 0
M  V30 15533 C 1509.07 -0.402991 1.82299 0
M  V30 15534 C 1509.42 -1.66415 1.03925 0
M  V30 15535 O 1508.55 -2.14623 0.27674 0
M  V30 15536 C 1509.14 -0.737913 3.30666 0
M  V30 15537 C 1507.7 -1.20745 3.56508 0
M  V30 15538 C 1506.85 -0.217628 2.76445 0
M  V30 15539 H 1509.8 0.347009 1.5486 0
M  V30 15540 H 1509.82 -1.59505 3.45454 0
M  V30 15541 H 1509.33 0.180162 3.87682 0
M  V30 15542 H 1507.44 -2.14232 3.04853 0
M  V30 15543 H 1507.55 -1.15075 4.65075 0
M  V30 15544 H 1505.91 -0.705253 2.44741 0
M  V30 15545 H 1506.7 0.693596 3.3622 0
M  V30 15546 N 1509.14 -1.56867 -0.151857 0
M  V30 15547 C 1510.37 -1.87601 -0.884347 0
M  V30 15548 C 1510.79 -0.710419 -1.74168 0
M  V30 15549 O 1510.15 0.340103 -1.78081 0
M  V30 15550 C 1510.2 -3.16887 -1.72091 0
M  V30 15551 O 1509.3 -3.00479 -2.82464 0
M  V30 15552 H 1508.64 -0.616509 -0.246603 0
M  V30 15553 H 1511.17 -2.04092 -0.144135 0
M  V30 15554 H 1511.18 -3.48785 -2.11691 0
M  V30 15555 H 1509.86 -4.01327 -1.09131 0
M  V30 15556 H 1508.43 -2.79978 -2.46306 0
M  V30 15557 N 1510.62 0.421051 -1.51871 0
M  V30 15558 C 1511.57 1.5122 -1.74359 0
M  V30 15559 C 1512.54 1.55432 -0.585667 0
M  V30 15560 O 1513.72 1.7219 -0.821912 0
M  V30 15561 C 1510.86 2.88787 -1.88935 0
M  V30 15562 C 1509.97 2.93977 -3.16546 0
M  V30 15563 C 1509.11 4.22768 -3.21622 0
M  V30 15564 C 1508.15 4.21888 -4.43483 0
M  V30 15565 N 1507.28 5.4223 -4.46017 0
M  V30 15566 H 1512.12 1.31348 -2.67492 0
M  V30 15567 H 1509.66 0.637779 -1.32555 0
M  V30 15568 H 1511.62 3.68629 -1.95368 0
M  V30 15569 H 1510.25 3.07181 -0.991942 0
M  V30 15570 H 1509.3 2.06699 -3.19343 0
M  V30 15571 H 1510.61 2.8919 -4.06412 0
M  V30 15572 H 1509.77 5.10995 -3.27061 0
M  V30 15573 H 1508.51 4.30234 -2.29674 0
M  V30 15574 H 1507.51 3.32052 -4.38202 0
M  V30 15575 H 1508.74 4.16072 -5.36713 0
M  V30 15576 H 1506.68 5.50386 -3.56947 0
M  V30 15577 H 1506.6 5.39389 -5.29713 0
M  V30 15578 H 1507.87 6.32443 -4.55671 0
M  V30 15579 N 1512.1 1.42293 0.677538 0
M  V30 15580 C 1513.03 1.39986 1.8022 0
M  V30 15581 C 1514.01 0.264513 1.60434 0
M  V30 15582 O 1515.19 0.454299 1.82944 0
M  V30 15583 C 1512.32 1.18809 3.17178 0
M  V30 15584 C 1511.36 2.35301 3.55719 0
M  V30 15585 S 1512.2 3.97827 3.5846 0
M  V30 15586 C 1513.35 3.78987 4.98116 0
M  V30 15587 H 1513.59 2.35157 1.81902 0
M  V30 15588 H 1511.12 1.29032 0.847947 0
M  V30 15589 H 1513.08 1.07277 3.96235 0
M  V30 15590 H 1511.74 0.252276 3.13085 0
M  V30 15591 H 1510.93 2.16224 4.55262 0
M  V30 15592 H 1510.53 2.43333 2.84016 0
M  V30 15593 H 1512.83 3.39808 5.8612 0
M  V30 15594 H 1513.77 4.78197 5.22239 0
M  V30 15595 H 1514.18 3.11906 4.70505 0
M  V30 15596 N 1513.57 -0.913576 1.28419 0
M  V30 15597 C 1514.8 -1.69649 1.18435 0
M  V30 15598 C 1515.22 -1.87043 -0.256987 0
M  V30 15599 O 1514.57 -1.39755 -1.17366 0
M  V30 15600 C 1514.63 -3.08855 1.87859 0
M  V30 15601 O 1514.35 -2.92265 3.26363 0
M  V30 15602 C 1515.85 -4.03229 1.84178 0
M  V30 15603 H 1513.07 -0.530307 0.411115 0
M  V30 15604 H 1515.61 -1.14342 1.69547 0
M  V30 15605 H 1513.77 -3.60979 1.40617 0
M  V30 15606 H 1514.18 -3.80372 3.61134 0
M  V30 15607 H 1515.65 -4.98369 2.37344 0
M  V30 15608 H 1516.13 -4.31587 0.814195 0
M  V30 15609 H 1516.74 -3.57033 2.311 0
M  V30 15610 N 1515.05 -1.1067 -1.12204 0
M  V30 15611 C 1516.02 -0.761145 -2.16193 0
M  V30 15612 C 1517.02 0.215599 -1.59348 0
M  V30 15613 O 1518.21 -0.00786723 -1.74198 0
M  V30 15614 C 1515.34 -0.127863 -3.4066 0
M  V30 15615 H 1516.53 -1.68225 -2.48275 0
M  V30 15616 H 1514.08 -0.907542 -1.27253 0
M  V30 15617 H 1514.82 0.803851 -3.14179 0
M  V30 15618 H 1514.6 -0.83085 -3.83196 0
M  V30 15619 H 1516.09 0.0980593 -4.17485 0
M  V30 15620 N 1516.53 1.29665 -0.895815 0
M  V30 15621 C 1517.76 2.00399 -0.534333 0
M  V30 15622 C 1518.18 1.66632 0.872654 0
M  V30 15623 O 1517.54 0.888811 1.58018 0
M  V30 15624 C 1517.59 3.53154 -0.729023 0
M  V30 15625 O 1516.69 4.11812 0.22023 0
M  V30 15626 H 1516.03 0.630173 -0.209233 0
M  V30 15627 H 1518.56 1.65253 -1.20634 0
M  V30 15628 H 1518.57 4.03073 -0.632179 0
M  V30 15629 H 1517.25 3.77067 -1.75481 0
M  V30 15630 H 1515.82 3.72822 0.0761687 0
M  V30 15631 N 1518.01 0.657889 1.43212 0
M  V30 15632 C 1519.23 0.179444 2.06622 0
M  V30 15633 C 1519.66 -1.14787 1.49015 0
M  V30 15634 O 1519.02 -1.71016 0.60192 0
M  V30 15635 C 1519.06 0.106826 3.60442 0
M  V30 15636 O 1518.17 -0.92962 4.01786 0
M  V30 15637 H 1517.51 0.0970131 0.656875 0
M  V30 15638 H 1520.04 0.902132 1.83638 0
M  V30 15639 H 1520.05 -0.07495 4.07931 0
M  V30 15640 H 1518.72 1.07574 4.01747 0
M  V30 15641 H 1517.3 -0.720255 3.65878 0
M  V30 15642 N 1519.49 -1.52437 0.400108 0
M  V30 15643 C 1520.71 -2.0661 -0.180861 0
M  V30 15644 C 1521.14 -1.269 -1.38845 0
M  V30 15645 O 1520.49 -0.296862 -1.78853 0
M  V30 15646 C 1520.54 -3.56851 -0.518595 0
M  V30 15647 O 1519.65 -3.79634 -1.61095 0
M  V30 15648 H 1518.99 -0.663752 -0.0181348 0
M  V30 15649 H 1521.52 -1.96479 0.570702 0
M  V30 15650 H 1521.53 -4.00478 -0.779817 0
M  V30 15651 H 1520.2 -4.14302 0.364216 0
M  V30 15652 H 1518.78 -3.47892 -1.3426 0
M  V30 15653 N 1520.96 -0.130252 -1.57061 0
M  V30 15654 C 1521.91 0.832998 -2.17173 0
M  V30 15655 C 1522.91 1.26735 -1.12403 0
M  V30 15656 O 1524.11 1.23778 -1.30686 0
M  V30 15657 H 1520.49 0.286777 -0.695171 0
M  V30 15658 H 1522.46 0.301639 -2.96872 0
M  V30 15659 C 1521.21 2.06879 -2.79457 0
M  V30 15660 H 1520.53 1.74352 -3.5978 0
M  V30 15661 H 1521.97 2.72258 -3.25041 0
M  V30 15662 C 1520.43 2.86591 -1.77108 0
M  V30 15663 O 1520.96 3.82363 -1.2313 0
M  V30 15664 N 1519.17 2.508 -1.46792 0
M  V30 15665 H 1518.71 1.72984 -1.90878 0
M  V30 15666 H 1518.67 3.04428 -0.785566 0
M  V30 15667 N 1522.44 1.56945 0.143535 0
M  V30 15668 C 1523.85 1.72949 0.703249 0
M  V30 15669 C 1524.21 0.745193 1.81497 0
M  V30 15670 O 1523.33 -0.0874144 2.16223 0
M  V30 15671 C 1523.93 3.1359 1.28244 0
M  V30 15672 C 1522.48 3.31184 1.78869 0
M  V30 15673 C 1521.63 2.6887 0.678531 0
M  V30 15674 H 1524.58 1.58487 -0.0821664 0
M  V30 15675 H 1524.6 3.13782 2.15224 0
M  V30 15676 H 1524.12 3.85206 0.473087 0
M  V30 15677 H 1522.22 2.64571 2.6236 0
M  V30 15678 H 1522.33 4.39163 1.91502 0
M  V30 15679 H 1520.69 2.29432 1.10603 0
M  V30 15680 H 1521.48 3.43092 -0.119437 0
M  V30 15681 N 1523.92 -0.412991 1.52093 0
M  V30 15682 C 1525.2 -1.17304 1.56522 0
M  V30 15683 C 1525.58 -2.0828 0.343926 0
M  V30 15684 O 1524.93 -2.18473 -0.669475 0
M  V30 15685 C 1525.14 -1.95371 2.89191 0
M  V30 15686 C 1526.48 -2.51571 3.42048 0
M  V30 15687 O 1527.51 -2.05555 2.90905 0
M  V30 15688 O 1526.37 -3.35563 4.31347 0
M  V30 15689 H 1523.46 -0.535386 0.63031 0
M  V30 15690 H 1526.01 -0.420084 1.64418 0
M  V30 15691 H 1524.78 -1.28701 3.69529 0
M  V30 15692 H 1524.4 -2.7768 2.84569 0
M  V30 15693 N 1525.4 -1.4265 -0.669982 0
M  V30 15694 C 1526.33 -1.49298 -1.79534 0
M  V30 15695 C 1527.31 -0.34911 -1.66479 0
M  V30 15696 O 1528.5 -0.564072 -1.85828 0
M  V30 15697 C 1525.63 -1.39935 -3.17861 0
M  V30 15698 C 1524.58 -2.52398 -3.45657 0
M  V30 15699 C 1523.91 -2.28092 -4.8361 0
M  V30 15700 C 1525.21 -3.94697 -3.4207 0
M  V30 15701 H 1526.9 -2.43486 -1.74227 0
M  V30 15702 H 1524.45 -1.17191 -0.836796 0
M  V30 15703 H 1526.4 -1.43193 -3.96325 0
M  V30 15704 H 1525.12 -0.422436 -3.23857 0
M  V30 15705 H 1523.78 -2.48465 -2.69556 0
M  V30 15706 H 1523.43 -1.28683 -4.86261 0
M  V30 15707 H 1523.13 -3.03469 -5.0317 0
M  V30 15708 H 1524.65 -2.33107 -5.64352 0
M  V30 15709 H 1526.07 -4.00207 -4.10496 0
M  V30 15710 H 1524.46 -4.69965 -3.73166 0
M  V30 15711 H 1525.53 -4.21025 -2.40554 0
M  V30 15712 N 1526.88 0.906753 -1.28902 0
M  V30 15713 C 1527.81 2.02663 -1.15974 0
M  V30 15714 C 1528.79 1.70009 -0.0557202 0
M  V30 15715 O 1529.97 1.92786 -0.233952 0
M  V30 15716 C 1527.1 3.37283 -0.828115 0
M  V30 15717 C 1526.06 3.84123 -1.88767 0
M  V30 15718 C 1525.38 5.15787 -1.40953 0
M  V30 15719 C 1526.68 4.05217 -3.2954 0
M  V30 15720 H 1528.38 2.13738 -2.09658 0
M  V30 15721 H 1525.92 1.02699 -1.0094 0
M  V30 15722 H 1527.88 4.15127 -0.724408 0
M  V30 15723 H 1526.6 3.2628 0.14443 0
M  V30 15724 H 1525.26 3.0849 -1.98065 0
M  V30 15725 H 1524.91 5.01194 -0.425848 0
M  V30 15726 H 1524.61 5.48098 -2.11807 0
M  V30 15727 H 1526.13 5.9618 -1.31918 0
M  V30 15728 H 1527.55 4.73565 -3.23124 0
M  V30 15729 H 1525.94 4.48871 -3.9829 0
M  V30 15730 H 1527.01 3.0979 -3.73039 0
M  V30 15731 N 1528.36 1.11264 1.11616 0
M  V30 15732 C 1529.6 0.858664 1.82952 0
M  V30 15733 C 1529.92 -0.617439 1.84967 0
M  V30 15734 O 1529.19 -1.44849 1.31893 0
M  V30 15735 H 1527.77 0.314671 0.677489 0
M  V30 15736 H 1530.44 1.40466 1.35113 0
M  V30 15737 H 1529.53 1.22921 2.86874 0
M  V30 15738 N 1529.83 -1.29188 0.902679 0
M  V30 15739 C 1531.08 -1.95052 0.529076 0
M  V30 15740 C 1531.4 -1.7149 -0.92824 0
M  V30 15741 O 1530.67 -1.04834 -1.65489 0
M  V30 15742 H 1529.25 -0.721725 0.192671 0
M  V30 15743 H 1531.91 -1.57384 1.14962 0
M  V30 15744 H 1531.01 -3.03819 0.714179 0
M  V30 15745 N 1531.31 -0.665475 -1.42861 0
M  V30 15746 C 1532.56 -0.192802 -2.02484 0
M  V30 15747 C 1532.91 1.18429 -1.51632 0
M  V30 15748 O 1532.21 1.78164 -0.704859 0
M  V30 15749 C 1532.4 -0.156963 -3.57055 0
M  V30 15750 C 1532.23 -1.52904 -4.22907 0
M  V30 15751 C 1531 -2.12449 -4.58469 0
M  V30 15752 C 1533.2 -2.46989 -4.51111 0
M  V30 15753 N 1531.18 -3.42535 -5.09454 0
M  V30 15754 C 1532.55 -3.6172 -5.03546 0
M  V30 15755 C 1534.6 -2.45637 -4.3309 0
M  V30 15756 C 1533.31 -4.75339 -5.39856 0
M  V30 15757 C 1535.33 -3.58346 -4.7047 0
M  V30 15758 C 1534.7 -4.71803 -5.2305 0
M  V30 15759 H 1530.79 -0.115261 -0.773459 0
M  V30 15760 H 1533.38 -0.87644 -1.73858 0
M  V30 15761 H 1531.55 0.496057 -3.85219 0
M  V30 15762 H 1533.28 0.327722 -4.03371 0
M  V30 15763 H 1530.04 -1.65033 -4.43916 0
M  V30 15764 H 1530.46 -4.09135 -5.39386 0
M  V30 15765 H 1535.1 -1.59152 -3.91702 0
M  V30 15766 H 1532.82 -5.62508 -5.80182 0
M  V30 15767 H 1536.41 -3.58516 -4.58211 0
M  V30 15768 H 1535.29 -5.57573 -5.51436 0
M  V30 15769 N 1532.79 1.52222 -0.408187 0
M  V30 15770 C 1533.75 2.25578 0.405851 0
M  V30 15771 C 1534.75 1.27912 0.974434 0
M  V30 15772 O 1535.94 1.51861 0.853461 0
M  V30 15773 C 1533.07 3.02532 1.57122 0
M  V30 15774 H 1534.27 2.98965 -0.23664 0
M  V30 15775 H 1531.82 1.55472 -0.160687 0
M  V30 15776 H 1532.56 2.33492 2.2506 0
M  V30 15777 H 1532.34 3.74237 1.17001 0
M  V30 15778 H 1533.83 3.58177 2.14707 0
M  V30 15779 N 1534.27 0.138579 1.5699 0
M  V30 15780 C 1535.23 -0.79013 2.1515 0
M  V30 15781 C 1536.23 -1.1811 1.09117 0
M  V30 15782 O 1537.42 -1.1034 1.34798 0
M  V30 15783 C 1534.55 -2.07109 2.70774 0
M  V30 15784 H 1535.75 -0.284343 2.98549 0
M  V30 15785 H 1533.3 -0.11081 1.55907 0
M  V30 15786 H 1534.03 -2.62074 1.91018 0
M  V30 15787 H 1533.82 -1.80004 3.4834 0
M  V30 15788 H 1535.31 -2.73456 3.15613 0
M  V30 15789 N 1535.75 -1.57019 -0.13521 0
M  V30 15790 C 1536.99 -1.85146 -0.842178 0
M  V30 15791 C 1537.35 -0.724176 -1.78251 0
M  V30 15792 O 1536.64 0.277042 -1.89586 0
M  V30 15793 C 1536.83 -3.17358 -1.64373 0
M  V30 15794 C 1536.66 -4.42839 -0.782516 0
M  V30 15795 C 1535.43 -5.03349 -0.443581 0
M  V30 15796 C 1537.63 -5.14188 -0.107475 0
M  V30 15797 N 1535.61 -6.12392 0.429998 0
M  V30 15798 C 1536.98 -6.16834 0.62576 0
M  V30 15799 C 1539.04 -4.97891 -0.0293703 0
M  V30 15800 C 1537.74 -7.04947 1.42974 0
M  V30 15801 C 1539.77 -5.86478 0.761385 0
M  V30 15802 C 1539.13 -6.88615 1.48286 0
M  V30 15803 H 1535.23 -0.727972 -0.285624 0
M  V30 15804 H 1537.81 -1.94407 -0.106834 0
M  V30 15805 H 1535.98 -3.09223 -2.35023 0
M  V30 15806 H 1537.72 -3.33349 -2.29478 0
M  V30 15807 H 1534.47 -4.67098 -0.782098 0
M  V30 15808 H 1534.89 -6.71539 0.85816 0
M  V30 15809 H 1539.54 -4.18902 -0.572813 0
M  V30 15810 H 1537.25 -7.83356 1.9844 0
M  V30 15811 H 1540.84 -5.75936 0.823965 0
M  V30 15812 H 1539.72 -7.55977 2.08491 0
M  V30 15813 N 1537.22 0.404919 -1.52309 0
M  V30 15814 C 1538.45 1.17309 -1.70429 0
M  V30 15815 C 1538.87 1.84169 -0.415617 0
M  V30 15816 O 1538.22 1.7205 0.608693 0
M  V30 15817 C 1538.28 2.23306 -2.84282 0
M  V30 15818 O 1538 1.59176 -4.0816 0
M  V30 15819 C 1539.5 3.12972 -3.13948 0
M  V30 15820 H 1536.72 0.352348 -0.571045 0
M  V30 15821 H 1539.26 0.475851 -1.98887 0
M  V30 15822 H 1537.42 2.88693 -2.58332 0
M  V30 15823 H 1537.83 2.29481 -4.71634 0
M  V30 15824 H 1539.3 3.83411 -3.97115 0
M  V30 15825 H 1539.78 3.75582 -2.27672 0
M  V30 15826 H 1540.39 2.53251 -3.41678 0
M  V30 15827 N 1538.7 1.43003 0.662408 0
M  V30 15828 C 1539.61 1.49876 1.80484 0
M  V30 15829 C 1540.63 0.386526 1.69653 0
M  V30 15830 O 1541.8 0.639289 1.90984 0
M  V30 15831 C 1538.87 1.41057 3.16708 0
M  V30 15832 C 1537.93 2.62875 3.39404 0
M  V30 15833 C 1537.16 2.54468 4.69129 0
M  V30 15834 O 1537.39 1.58735 5.47868 0
M  V30 15835 O 1536.32 3.44814 4.93343 0
M  V30 15836 H 1540.15 2.46327 1.77641 0
M  V30 15837 H 1537.73 1.24903 0.81973 0
M  V30 15838 H 1539.61 1.38547 3.97973 0
M  V30 15839 H 1538.29 0.477361 3.20161 0
M  V30 15840 H 1537.2 2.70958 2.57939 0
M  V30 15841 H 1538.53 3.55137 3.40791 0
M  V30 15842 N 1540.18 -0.899904 1.29381 0
M  V30 15843 C 1541.41 -1.68383 1.20227 0
M  V30 15844 C 1541.82 -1.87305 -0.237135 0
M  V30 15845 O 1541.18 -1.40992 -1.15877 0
M  V30 15846 C 1541.23 -3.06845 1.91124 0
M  V30 15847 O 1540.95 -2.88787 3.29444 0
M  V30 15848 C 1542.45 -4.01253 1.88444 0
M  V30 15849 H 1539.67 -0.525917 0.416717 0
M  V30 15850 H 1542.22 -1.12537 1.7075 0
M  V30 15851 H 1540.37 -3.59467 1.44438 0
M  V30 15852 H 1540.79 -3.7652 3.65148 0
M  V30 15853 H 1542.26 -4.95824 2.42616 0
M  V30 15854 H 1542.74 -4.30699 0.859925 0
M  V30 15855 H 1543.34 -3.54562 2.34874 0
M  V30 15856 N 1541.66 -1.11854 -1.11024 0
M  V30 15857 C 1542.62 -0.784033 -2.15373 0
M  V30 15858 C 1543.62 0.198686 -1.59568 0
M  V30 15859 O 1544.81 -0.0263428 -1.7418 0
M  V30 15860 C 1541.94 -0.163987 -3.40505 0
M  V30 15861 H 1543.14 -1.70849 -2.46477 0
M  V30 15862 H 1540.69 -0.920988 -1.26283 0
M  V30 15863 H 1541.42 0.770483 -3.15014 0
M  V30 15864 H 1541.21 -0.871447 -3.82293 0
M  V30 15865 H 1542.7 0.0537739 -4.17565 0
M  V30 15866 N 1543.14 1.28707 -0.909517 0
M  V30 15867 C 1544.1 2.25692 -0.39946 0
M  V30 15868 C 1545.1 1.53721 0.471848 0
M  V30 15869 O 1546.29 1.72008 0.275504 0
M  V30 15870 C 1543.42 3.38205 0.427793 0
M  V30 15871 H 1544.61 2.72326 -1.25613 0
M  V30 15872 H 1542.17 1.40317 -0.688535 0
M  V30 15873 H 1542.9 2.96926 1.30404 0
M  V30 15874 H 1542.69 3.91606 -0.19667 0
M  V30 15875 H 1544.18 4.10334 0.775634 0
M  V30 15876 N 1544.61 0.673042 1.42506 0
M  V30 15877 C 1545.84 0.201349 2.0642 0
M  V30 15878 C 1546.26 -1.132 1.50224 0
M  V30 15879 O 1545.62 -1.70368 0.620024 0
M  V30 15880 C 1545.67 0.14505 3.60308 0
M  V30 15881 O 1544.77 -0.886953 4.02749 0
M  V30 15882 H 1544.12 0.103975 0.655809 0
M  V30 15883 H 1546.65 0.921559 1.8267 0
M  V30 15884 H 1546.66 -0.0316792 4.07988 0
M  V30 15885 H 1545.33 1.11829 4.00583 0
M  V30 15886 H 1543.91 -0.681408 3.66621 0
M  V30 15887 N 1546.09 -1.52004 0.416254 0
M  V30 15888 C 1547.06 -2.2579 -0.393882 0
M  V30 15889 C 1548.06 -1.28427 -0.967637 0
M  V30 15890 O 1549.25 -1.52311 -0.845396 0
M  V30 15891 C 1546.38 -3.03361 -1.55515 0
M  V30 15892 H 1547.57 -2.98835 0.252492 0
M  V30 15893 H 1545.12 -1.55384 0.168929 0
M  V30 15894 H 1545.86 -2.34682 -2.23818 0
M  V30 15895 H 1545.64 -3.74852 -1.15015 0
M  V30 15896 H 1547.13 -3.5931 -2.12805 0
M  V30 15897 N 1547.57 -0.146903 -1.56914 0
M  V30 15898 C 1548.82 0.504981 -1.96412 0
M  V30 15899 C 1549.15 1.64522 -1.0318 0
M  V30 15900 O 1548.42 1.94359 -0.0741728 0
M  V30 15901 C 1548.71 1.01125 -3.45609 0
M  V30 15902 C 1548.56 -0.127493 -4.49619 0
M  V30 15903 C 1549.88 1.89306 -3.97305 0
M  V30 15904 H 1547 0.182088 -0.714152 0
M  V30 15905 H 1549.64 -0.22811 -1.88626 0
M  V30 15906 H 1547.79 1.63595 -3.52376 0
M  V30 15907 H 1549.46 -0.763829 -4.54932 0
M  V30 15908 H 1547.71 -0.786649 -4.26608 0
M  V30 15909 H 1548.38 0.268453 -5.51347 0
M  V30 15910 H 1550.85 1.36664 -3.93017 0
M  V30 15911 H 1549.73 2.21638 -5.02163 0
M  V30 15912 H 1549.99 2.82996 -3.39655 0
M  V30 15913 N 1549.05 1.57088 0.126881 0
M  V30 15914 C 1550.01 1.98836 1.14003 0
M  V30 15915 C 1551.01 0.877454 1.34749 0
M  V30 15916 O 1552.2 1.14366 1.314 0
M  V30 15917 C 1549.33 2.32171 2.49618 0
M  V30 15918 H 1550.53 2.89541 0.7814 0
M  V30 15919 H 1548.08 1.51835 0.370915 0
M  V30 15920 H 1548.81 1.44321 2.90417 0
M  V30 15921 H 1548.6 3.13187 2.35916 0
M  V30 15922 H 1550.09 2.65238 3.2255 0
M  V30 15923 N 1550.53 -0.396836 1.52522 0
M  V30 15924 C 1551.94 -0.975124 1.59211 0
M  V30 15925 C 1552.29 -1.91199 0.440138 0
M  V30 15926 O 1551.41 -2.11924 -0.437856 0
M  V30 15927 C 1552.01 -1.77531 2.88562 0
M  V30 15928 C 1550.57 -2.30343 2.9769 0
M  V30 15929 C 1549.71 -1.10671 2.54258 0
M  V30 15930 H 1552.67 -0.176646 1.57714 0
M  V30 15931 H 1552.69 -2.63384 2.74607 0
M  V30 15932 H 1552.2 -1.09318 3.72386 0
M  V30 15933 H 1550.3 -3.01891 2.18387 0
M  V30 15934 H 1550.41 -2.60366 4.02177 0
M  V30 15935 H 1548.78 -1.46439 2.08393 0
M  V30 15936 H 1549.56 -0.440061 3.40468 0
M  V30 15937 N 1552.01 -1.43353 -0.654814 0
M  V30 15938 C 1553.23 -1.48322 -1.4425 0
M  V30 15939 C 1553.65 -0.100608 -1.88532 0
M  V30 15940 O 1553.01 0.888831 -1.59393 0
M  V30 15941 C 1553.06 -2.42769 -2.67853 0
M  V30 15942 O 1552.78 -3.75653 -2.25424 0
M  V30 15943 C 1554.28 -2.56964 -3.61226 0
M  V30 15944 H 1551.5 -0.503805 -0.443195 0
M  V30 15945 H 1554.04 -1.88078 -0.802916 0
M  V30 15946 H 1552.2 -2.06212 -3.27956 0
M  V30 15947 H 1552.61 -4.26427 -3.05386 0
M  V30 15948 H 1554.09 -3.27129 -4.44624 0
M  V30 15949 H 1554.56 -1.61404 -4.08467 0
M  V30 15950 H 1555.17 -2.94325 -3.07006 0
M  V30 15951 N 1553.48 0.89303 -1.29857 0
M  V30 15952 C 1554.89 1.45948 -1.16431 0
M  V30 15953 C 1555.25 1.94751 0.238051 0
M  V30 15954 O 1554.37 1.84302 1.1341 0
M  V30 15955 C 1554.97 2.6527 -2.10754 0
M  V30 15956 C 1553.52 3.1803 -2.0133 0
M  V30 15957 C 1552.67 1.90721 -2.01297 0
M  V30 15958 H 1555.62 0.70373 -1.42244 0
M  V30 15959 H 1555.64 3.41223 -1.68366 0
M  V30 15960 H 1555.16 2.2972 -3.1281 0
M  V30 15961 H 1553.26 3.58257 -1.02386 0
M  V30 15962 H 1553.37 3.81876 -2.89323 0
M  V30 15963 H 1551.73 2.0871 -1.45987 0
M  V30 15964 H 1552.52 1.5744 -3.0507 0
M  V30 15965 N 1554.96 1.12442 1.10429 0
M  V30 15966 C 1555.92 0.795443 2.14954 0
M  V30 15967 C 1556.92 -0.19022 1.59671 0
M  V30 15968 O 1558.11 0.0355797 1.74164 0
M  V30 15969 C 1555.25 0.182043 3.40414 0
M  V30 15970 H 1556.44 1.72153 2.45567 0
M  V30 15971 H 1553.99 0.927672 1.25793 0
M  V30 15972 H 1554.73 -0.753766 3.15419 0
M  V30 15973 H 1554.51 0.891708 3.81826 0
M  V30 15974 H 1556 -0.0316286 4.17588 0
M  V30 15975 N 1556.44 -1.28223 0.91633 0
M  V30 15976 C 1557.67 -1.98986 0.566772 0
M  V30 15977 C 1558.08 -1.68455 -0.852553 0
M  V30 15978 O 1557.44 -0.938734 -1.56506 0
M  V30 15979 C 1557.49 -3.53217 0.769423 0
M  V30 15980 O 1557.21 -3.82674 2.1329 0
M  V30 15981 C 1558.71 -4.41238 0.427043 0
M  V30 15982 H 1555.93 -0.63534 0.215834 0
M  V30 15983 H 1558.48 -1.63357 1.23024 0
M  V30 15984 H 1556.63 -3.87098 0.152915 0
M  V30 15985 H 1557.05 -4.77302 2.17448 0
M  V30 15986 H 1558.52 -5.48512 0.619594 0
M  V30 15987 H 1559 -4.34558 -0.63686 0
M  V30 15988 H 1559.6 -4.12858 1.0212 0
M  V30 15989 N 1557.92 -0.68059 -1.42147 0
M  V30 15990 C 1558.83 -0.00595573 -2.34599 0
M  V30 15991 C 1559.84 0.782528 -1.55411 0
M  V30 15992 O 1561.02 0.723524 -1.87955 0
M  V30 15993 C 1558.08 0.92964 -3.34004 0
M  V30 15994 C 1557.15 0.135041 -4.29088 0
M  V30 15995 C 1556.38 1.02607 -5.23744 0
M  V30 15996 O 1556.6 2.26562 -5.23475 0
M  V30 15997 O 1555.54 0.483774 -5.99953 0
M  V30 15998 H 1559.36 -0.767652 -2.93838 0
M  V30 15999 H 1556.95 -0.440849 -1.42748 0
M  V30 16000 H 1558.83 1.46657 -3.95057 0
M  V30 16001 H 1557.5 1.67109 -2.7723 0
M  V30 16002 H 1556.41 -0.44613 -3.7143 0
M  V30 16003 H 1557.74 -0.567417 -4.88918 0
M  V30 16004 N 1559.4 1.51781 -0.424309 0
M  V30 16005 C 1560.64 2.0157 0.146203 0
M  V30 16006 C 1560.96 1.3111 1.44344 0
M  V30 16007 O 1560.23 0.441631 1.90857 0
M  V30 16008 H 1558.81 0.744821 0.057019 0
M  V30 16009 H 1561.48 1.8656 -0.564031 0
M  V30 16010 H 1560.57 3.10335 0.331464 0
M  V30 16011 N 1560.87 0.155222 1.56834 0
M  V30 16012 C 1562.28 -0.364232 1.83113 0
M  V30 16013 C 1562.64 -1.64173 1.07432 0
M  V30 16014 O 1561.76 -2.13988 0.322202 0
M  V30 16015 C 1562.36 -0.667608 3.32157 0
M  V30 16016 C 1560.91 -1.13156 3.58989 0
M  V30 16017 C 1560.06 -0.158941 2.76844 0
M  V30 16018 H 1563.01 0.379779 1.54089 0
M  V30 16019 H 1563.03 -1.52141 3.4876 0
M  V30 16020 H 1562.55 0.262355 3.87212 0
M  V30 16021 H 1560.65 -2.07717 3.09329 0
M  V30 16022 H 1560.76 -1.05184 4.67411 0
M  V30 16023 H 1559.12 -0.653181 2.46182 0
M  V30 16024 H 1559.91 0.764757 3.34674 0
M  V30 16025 N 1562.35 -1.57153 -0.118549 0
M  V30 16026 C 1563.28 -2.03409 -1.1466 0
M  V30 16027 C 1564.26 -0.918636 -1.43161 0
M  V30 16028 O 1565.45 -1.18838 -1.53594 0
M  V30 16029 C 1562.58 -2.43879 -2.47265 0
M  V30 16030 C 1561.53 -3.58873 -2.33225 0
M  V30 16031 C 1560.86 -3.85244 -3.70798 0
M  V30 16032 C 1562.16 -4.90582 -1.79239 0
M  V30 16033 H 1563.85 -2.89545 -0.761862 0
M  V30 16034 H 1561.4 -1.39296 -0.365034 0
M  V30 16035 H 1563.35 -2.74844 -3.19435 0
M  V30 16036 H 1562.07 -1.54715 -2.8763 0
M  V30 16037 H 1560.73 -3.28119 -1.63504 0
M  V30 16038 H 1560.38 -2.93285 -4.08648 0
M  V30 16039 H 1560.08 -4.62649 -3.62257 0
M  V30 16040 H 1561.61 -4.18661 -4.44472 0
M  V30 16041 H 1563.02 -5.20079 -2.41227 0
M  V30 16042 H 1561.42 -5.71989 -1.81518 0
M  V30 16043 H 1562.49 -4.79065 -0.74999 0
M  V30 16044 N 1563.83 0.388742 -1.5273 0
M  V30 16045 C 1565.08 1.13375 -1.67787 0
M  V30 16046 C 1565.4 1.89957 -0.417925 0
M  V30 16047 O 1564.66 1.86286 0.599682 0
M  V30 16048 C 1564.96 2.13792 -2.86405 0
M  V30 16049 C 1564.62 1.53865 -4.23835 0
M  V30 16050 C 1563.29 1.37248 -4.61212 0
M  V30 16051 C 1565.64 1.10298 -5.09395 0
M  V30 16052 C 1562.97 0.756119 -5.81807 0
M  V30 16053 C 1565.32 0.500723 -6.30615 0
M  V30 16054 C 1563.98 0.321851 -6.66724 0
M  V30 16055 H 1563.25 0.414868 -0.613975 0
M  V30 16056 H 1565.9 0.418351 -1.86874 0
M  V30 16057 H 1564.2 2.91551 -2.61735 0
M  V30 16058 H 1565.9 2.71346 -2.95249 0
M  V30 16059 H 1562.49 1.67787 -3.94393 0
M  V30 16060 H 1566.68 1.21938 -4.81087 0
M  V30 16061 H 1561.93 0.605734 -6.08392 0
M  V30 16062 H 1566.11 0.154839 -6.96228 0
M  V30 16063 H 1563.73 -0.157836 -7.60036 0
M  V30 16064 N 1565.31 1.43698 0.647203 0
M  V30 16065 C 1566.53 1.49301 1.43958 0
M  V30 16066 C 1566.96 0.11395 1.87755 0
M  V30 16067 O 1566.32 -0.893571 1.5775 0
M  V30 16068 C 1566.36 2.44905 2.64677 0
M  V30 16069 O 1565.47 1.93947 3.63948 0
M  V30 16070 H 1564.81 0.504771 0.431396 0
M  V30 16071 H 1567.34 1.88673 0.791432 0
M  V30 16072 H 1567.35 2.62409 3.12419 0
M  V30 16073 H 1566.02 3.45083 2.32143 0
M  V30 16074 H 1564.6 1.86133 3.23124 0
M  V30 16075 N 1566.79 -0.886131 1.30328 0
M  V30 16076 C 1568.2 -1.45328 1.17203 0
M  V30 16077 C 1568.55 -1.94874 -0.227719 0
M  V30 16078 O 1567.67 -1.84901 -1.12431 0
M  V30 16079 C 1568.27 -2.64149 2.12157 0
M  V30 16080 C 1566.83 -3.16958 2.03014 0
M  V30 16081 C 1565.97 -1.89651 2.02306 0
M  V30 16082 H 1568.93 -0.696177 1.42615 0
M  V30 16083 H 1568.95 -3.40325 1.70173 0
M  V30 16084 H 1568.46 -2.28058 3.14024 0
M  V30 16085 H 1566.56 -3.57709 1.04285 0
M  V30 16086 H 1566.67 -3.80336 2.91344 0
M  V30 16087 H 1565.04 -2.07933 1.47091 0
M  V30 16088 H 1565.82 -1.5582 3.05901 0
M  V30 16089 N 1568.26 -1.13026 -1.09832 0
M  V30 16090 C 1569.51 -0.887662 -1.81563 0
M  V30 16091 C 1569.83 0.587935 -1.85926 0
M  V30 16092 O 1569.1 1.42732 -1.3418 0
M  V30 16093 H 1567.68 -0.32541 -0.672397 0
M  V30 16094 H 1570.35 -1.42597 -1.32861 0
M  V30 16095 H 1569.44 -1.2747 -2.84882 0
M  V30 16096 N 1569.74 1.27735 -0.923117 0
M  V30 16097 C 1570.99 1.94185 -0.56004 0
M  V30 16098 C 1571.31 1.72945 0.90084 0
M  V30 16099 O 1570.58 1.07453 1.63801 0
M  V30 16100 H 1569.16 0.718568 -0.204129 0
M  V30 16101 H 1571.82 1.55535 -1.17451 0
M  V30 16102 H 1570.92 3.02644 -0.762424 0
M  V30 16103 N 1571.22 0.688118 1.41784 0
M  V30 16104 C 1572.15 -0.02099 2.2919 0
M  V30 16105 C 1573.17 -0.752005 1.44391 0
M  V30 16106 O 1574.35 -0.603947 1.67972 0
M  V30 16107 C 1571.45 -1.0537 3.22103 0
M  V30 16108 C 1570.63 -0.393817 4.35624 0
M  V30 16109 C 1569.69 -1.32812 5.09163 0
M  V30 16110 O 1568.71 -0.823341 5.63214 0
M  V30 16111 N 1569.91 -2.66083 5.15927 0
M  V30 16112 H 1572.68 0.729389 2.90689 0
M  V30 16113 H 1570.24 0.533564 1.52855 0
M  V30 16114 H 1572.23 -1.6803 3.68169 0
M  V30 16115 H 1570.8 -1.70568 2.61964 0
M  V30 16116 H 1570.02 0.41253 3.92035 0
M  V30 16117 H 1571.31 0.065338 5.08758 0
M  V30 16118 H 1570.71 -3.09619 4.73448 0
M  V30 16119 H 1569.27 -3.23956 5.65593 0
M  V30 16120 N 1572.7 -1.51554 0.432352 0
M  V30 16121 C 1574.11 -1.86673 -0.0319274 0
M  V30 16122 C 1574.46 -1.34981 -1.42389 0
M  V30 16123 O 1573.59 -0.698556 -2.04815 0
M  V30 16124 C 1574.18 -3.38738 -0.0647127 0
M  V30 16125 C 1572.74 -3.73411 -0.47339 0
M  V30 16126 C 1571.89 -2.75242 0.337187 0
M  V30 16127 H 1574.84 -1.44849 0.648417 0
M  V30 16128 H 1574.86 -3.70297 -0.875239 0
M  V30 16129 H 1574.37 -3.76331 0.948507 0
M  V30 16130 H 1572.47 -3.41406 -1.4924 0
M  V30 16131 H 1572.58 -4.78675 -0.20165 0
M  V30 16132 H 1570.95 -2.53883 -0.203801 0
M  V30 16133 H 1571.73 -3.15677 1.34919 0
M  V30 16134 N 1574.18 -0.163538 -1.56749 0
M  V30 16135 C 1575.14 0.755801 -2.1638 0
M  V30 16136 C 1576.14 1.16359 -1.10982 0
M  V30 16137 O 1577.33 1.08182 -1.36537 0
M  V30 16138 C 1574.46 2.02775 -2.74035 0
M  V30 16139 H 1575.65 0.23681 -2.98964 0
M  V30 16140 H 1573.21 0.0859925 -1.56063 0
M  V30 16141 H 1573.94 2.59002 -1.95163 0
M  V30 16142 H 1573.73 1.74439 -3.5116 0
M  V30 16143 H 1575.22 2.684 -3.19923 0
M  V30 16144 N 1575.65 1.57214 0.110213 0
M  V30 16145 C 1577.07 1.74402 0.666405 0
M  V30 16146 C 1577.42 0.783524 1.79876 0
M  V30 16147 O 1576.54 -0.0415306 2.1636 0
M  V30 16148 C 1577.14 3.1624 1.21564 0
M  V30 16149 C 1575.7 3.34904 1.71804 0
M  V30 16150 C 1574.84 2.70249 0.621347 0
M  V30 16151 H 1577.79 1.58277 -0.115765 0
M  V30 16152 H 1577.81 3.18276 2.0852 0
M  V30 16153 H 1577.33 3.86123 0.391273 0
M  V30 16154 H 1575.43 2.70077 2.56689 0
M  V30 16155 H 1575.54 4.43126 1.82143 0
M  V30 16156 H 1573.9 2.31727 1.05711 0
M  V30 16157 H 1574.69 3.42762 -0.192185 0
M  V30 16158 N 1577.13 -0.380637 1.52934 0
M  V30 16159 C 1578.37 -1.13369 1.70079 0
M  V30 16160 C 1578.74 -1.86994 0.435592 0
M  V30 16161 O 1579.94 -2.64416 0.483515 0
M  V30 16162 C 1578.21 -2.07933 2.90686 0
M  V30 16163 S 1579.77 -2.90962 3.28461 0
M  V30 16164 H 1576.59 -0.383638 0.598617 0
M  V30 16165 H 1579.19 -0.416966 1.91002 0
M  V30 16166 H 1577.89 -1.52581 3.80982 0
M  V30 16167 H 1577.42 -2.84101 2.72121 0
M  V30 16168 H 1579.44 -4.10129 2.793 0
M  V30 16169 N 1578.61 -1.44039 -0.639573 0
M  V30 16170 C 1579.86 -1.46088 -1.39652 0
M  V30 16171 C 1580.18 -0.0914602 -1.94785 0
M  V30 16172 O 1579.45 0.875097 -1.75268 0
M  V30 16173 H 1578.03 -0.537901 -0.518335 0
M  V30 16174 H 1580.69 -1.79751 -0.753365 0
M  V30 16175 H 1579.79 -2.1814 -2.23207 0
M  V30 16176 N 1580.09 0.879207 -1.30796 0
M  V30 16177 C 1581.31 1.66975 -1.23021 0
M  V30 16178 C 1581.74 1.87004 0.202798 0
M  V30 16179 O 1581.1 1.40514 1.14566 0
M  V30 16180 C 1581.14 3.02028 -1.97007 0
M  V30 16181 O 1580.25 3.91338 -1.30109 0
M  V30 16182 H 1579.59 0.509998 -0.425204 0
M  V30 16183 H 1582.12 1.09688 -1.72713 0
M  V30 16184 H 1582.13 3.5203 -2.06249 0
M  V30 16185 H 1580.8 2.8677 -3.01224 0
M  V30 16186 H 1579.38 3.49781 -1.29258 0
M  V30 16187 N 1581.57 1.13606 1.09231 0
M  V30 16188 C 1582.5 0.77306 2.15769 0
M  V30 16189 C 1583.51 -0.206148 1.6149 0
M  V30 16190 O 1584.7 0.014338 1.78494 0
M  V30 16191 C 1581.8 0.125475 3.38668 0
M  V30 16192 C 1580.97 1.13728 4.22356 0
M  V30 16193 C 1580.03 0.515021 5.23674 0
M  V30 16194 O 1579.06 1.1756 5.56928 0
M  V30 16195 N 1580.26 -0.712028 5.76117 0
M  V30 16196 H 1583.03 1.68984 2.47517 0
M  V30 16197 H 1580.59 1.02935 1.24964 0
M  V30 16198 H 1582.58 -0.303109 4.03563 0
M  V30 16199 H 1581.15 -0.694284 3.04792 0
M  V30 16200 H 1580.37 1.74309 3.53568 0
M  V30 16201 H 1581.66 1.82106 4.75094 0
M  V30 16202 H 1581.06 -1.26745 5.51319 0
M  V30 16203 H 1579.61 -1.08324 6.42736 0
M  V30 16204 N 1583.05 -1.27244 0.929878 0
M  V30 16205 C 1584.01 -2.25028 0.435315 0
M  V30 16206 C 1585.01 -1.54453 -0.447332 0
M  V30 16207 O 1586.2 -1.72424 -0.248105 0
M  V30 16208 C 1583.33 -3.38843 -0.373933 0
M  V30 16209 H 1584.52 -2.70293 1.2993 0
M  V30 16210 H 1582.08 -1.39204 0.710771 0
M  V30 16211 H 1582.81 -2.98963 -1.25664 0
M  V30 16212 H 1582.6 -3.91244 0.258946 0
M  V30 16213 H 1584.09 -4.11516 -0.710255 0
M  V30 16214 N 1584.52 -0.695628 -1.41417 0
M  V30 16215 C 1585.75 -0.234163 -2.06074 0
M  V30 16216 C 1586.17 1.10796 -1.52006 0
M  V30 16217 O 1585.53 1.6936 -0.64705 0
M  V30 16218 C 1585.58 -0.202353 -3.60032 0
M  V30 16219 O 1584.68 0.822767 -4.04109 0
M  V30 16220 H 1584.02 -0.114395 -0.654072 0
M  V30 16221 H 1586.55 -0.950503 -1.81181 0
M  V30 16222 H 1586.56 -0.0332321 -4.07986 0
M  V30 16223 H 1585.24 -1.18188 -3.98754 0
M  V30 16224 H 1583.82 0.622995 -3.67659 0
M  V30 16225 N 1586 1.51322 -0.440383 0
M  V30 16226 C 1587.25 2.0306 0.117497 0
M  V30 16227 C 1587.6 1.31849 1.4012 0
M  V30 16228 O 1586.9 0.4256 1.86813 0
M  V30 16229 C 1587.09 3.55287 0.388079 0
M  V30 16230 C 1586.92 4.41247 -0.867845 0
M  V30 16231 C 1585.69 4.85453 -1.40226 0
M  V30 16232 C 1587.89 4.83436 -1.75483 0
M  V30 16233 N 1585.87 5.55636 -2.61041 0
M  V30 16234 C 1587.24 5.52716 -2.80901 0
M  V30 16235 C 1589.29 4.65419 -1.76888 0
M  V30 16236 C 1588 6.05889 -3.87674 0
M  V30 16237 C 1590.02 5.19511 -2.82598 0
M  V30 16238 C 1589.39 5.8874 -3.86736 0
M  V30 16239 H 1585.48 0.781991 0.00375238 0
M  V30 16240 H 1588.07 1.85168 -0.601734 0
M  V30 16241 H 1586.24 3.73188 1.07635 0
M  V30 16242 H 1587.97 3.93689 0.937586 0
M  V30 16243 H 1584.73 4.63856 -0.955753 0
M  V30 16244 H 1585.15 5.95352 -3.22312 0
M  V30 16245 H 1589.79 4.11355 -0.977064 0
M  V30 16246 H 1587.51 6.59007 -4.67692 0
M  V30 16247 H 1591.1 5.07421 -2.84631 0
M  V30 16248 H 1589.98 6.29845 -4.67189 0
M  V30 16249 N 1587.48 0.171848 1.5666 0
M  V30 16250 C 1588.71 -0.479221 2.01274 0
M  V30 16251 C 1589.12 -1.56771 1.05206 0
M  V30 16252 O 1588.48 -1.82423 0.0530164 0
M  V30 16253 C 1588.53 -1.05705 3.457 0
M  V30 16254 O 1588.25 -0.0120133 4.38098 0
M  V30 16255 C 1589.75 -1.78629 4.05717 0
M  V30 16256 H 1586.97 -0.122598 0.659705 0
M  V30 16257 H 1589.52 0.273733 2.0266 0
M  V30 16258 H 1587.67 -1.7605 3.45087 0
M  V30 16259 H 1588.09 -0.438714 5.22662 0
M  V30 16260 H 1589.56 -2.14319 5.08696 0
M  V30 16261 H 1590.04 -2.68149 3.4784 0
M  V30 16262 H 1590.64 -1.12925 4.10034 0
M  V30 16263 N 1588.96 -1.5727 -0.101874 0
M  V30 16264 C 1589.9 -2.01577 -1.12406 0
M  V30 16265 C 1590.87 -0.890883 -1.40187 0
M  V30 16266 O 1592.06 -1.15638 -1.51764 0
M  V30 16267 C 1589.2 -2.43952 -2.44093 0
M  V30 16268 C 1588.31 -3.69932 -2.23101 0
M  V30 16269 C 1587.45 -4.01215 -3.48138 0
M  V30 16270 C 1586.49 -5.20325 -3.22379 0
M  V30 16271 N 1585.62 -5.47394 -4.39664 0
M  V30 16272 H 1590.46 -2.88685 -0.739244 0
M  V30 16273 H 1588 -1.42789 -0.353497 0
M  V30 16274 H 1589.96 -2.66563 -3.20936 0
M  V30 16275 H 1588.59 -1.59863 -2.80435 0
M  V30 16276 H 1587.64 -3.54838 -1.37092 0
M  V30 16277 H 1588.95 -4.56924 -2.00054 0
M  V30 16278 H 1588.11 -4.24566 -4.33392 0
M  V30 16279 H 1586.85 -3.12732 -3.74233 0
M  V30 16280 H 1585.85 -4.96802 -2.35517 0
M  V30 16281 H 1587.08 -6.10401 -2.97637 0
M  V30 16282 H 1585.02 -4.61869 -4.65847 0
M  V30 16283 H 1584.94 -6.28743 -4.19783 0
M  V30 16284 H 1586.21 -5.75276 -5.26002 0
M  V30 16285 N 1590.44 0.372521 -1.53134 0
M  V30 16286 C 1591.66 1.14116 -1.73183 0
M  V30 16287 C 1592.09 1.82475 -0.456553 0
M  V30 16288 O 1591.44 1.71468 0.588919 0
M  V30 16289 C 1591.49 2.15241 -2.89316 0
M  V30 16290 O 1590.6 3.22178 -2.57439 0
M  V30 16291 H 1589.94 0.331442 -0.575362 0
M  V30 16292 H 1592.47 0.431769 -1.99992 0
M  V30 16293 H 1592.48 2.58961 -3.15283 0
M  V30 16294 H 1591.15 1.64877 -3.81822 0
M  V30 16295 H 1589.73 2.83481 -2.42267 0
M  V30 16296 N 1591.91 1.44376 0.631925 0
M  V30 16297 C 1592.85 1.47167 1.75711 0
M  V30 16298 C 1593.86 0.365158 1.58652 0
M  V30 16299 O 1595.05 0.630852 1.66981 0
M  V30 16300 C 1592.15 1.28916 3.13423 0
M  V30 16301 C 1591.32 2.52798 3.56948 0
M  V30 16302 C 1590.38 2.29458 4.73535 0
M  V30 16303 O 1589.41 3.02941 4.81887 0
M  V30 16304 N 1590.61 1.32467 5.65184 0
M  V30 16305 H 1593.37 2.44168 1.73788 0
M  V30 16306 H 1590.93 1.39805 0.816465 0
M  V30 16307 H 1592.93 1.1115 3.89137 0
M  V30 16308 H 1591.5 0.402828 3.09994 0
M  V30 16309 H 1590.72 2.85846 2.71451 0
M  V30 16310 H 1592 3.35198 3.82779 0
M  V30 16311 H 1591.4 0.717762 5.61128 0
M  V30 16312 H 1589.96 1.2068 6.40531 0
M  V30 16313 N 1593.39 -0.872258 1.31261 0
M  V30 16314 C 1594.34 -2.00065 1.18645 0
M  V30 16315 C 1595.33 -1.69132 0.0952872 0
M  V30 16316 O 1596.54 -1.78156 0.257022 0
M  V30 16317 H 1592.91 -0.656201 0.367293 0
M  V30 16318 H 1594.89 -2.07837 2.14117 0
M  V30 16319 C 1593.63 -3.35628 0.908241 0
M  V30 16320 H 1592.96 -3.5995 1.74 0
M  V30 16321 H 1594.4 -4.15184 0.860134 0
M  V30 16322 C 1592.86 -3.34647 -0.388993 0
M  V30 16323 O 1593.39 -3.76271 -1.40651 0
M  V30 16324 N 1591.59 -2.87768 -0.404708 0
M  V30 16325 H 1591.14 -2.5409 0.423824 0
M  V30 16326 H 1591.1 -2.87494 -1.27258 0
M  V30 16327 N 1594.87 -1.14184 -1.08627 0
M  V30 16328 C 1596.28 -0.920108 -1.62453 0
M  V30 16329 C 1596.63 0.541577 -1.88577 0
M  V30 16330 O 1595.76 1.41002 -1.64157 0
M  V30 16331 C 1596.35 -1.6638 -2.95132 0
M  V30 16332 C 1594.91 -1.48771 -3.45752 0
M  V30 16333 C 1594.06 -1.68774 -2.20024 0
M  V30 16334 H 1597.01 -1.29396 -0.91882 0
M  V30 16335 H 1597.03 -1.12568 -3.63468 0
M  V30 16336 H 1596.54 -2.72759 -2.76087 0
M  V30 16337 H 1594.64 -0.44729 -3.69905 0
M  V30 16338 H 1594.76 -2.25619 -4.2265 0
M  V30 16339 H 1593.12 -1.11321 -2.29084 0
M  V30 16340 H 1593.9 -2.76491 -2.03489 0
M  V30 16341 N 1596.35 1.26749 -0.936613 0
M  V30 16342 C 1597.63 1.89106 -0.49981 0
M  V30 16343 C 1598.01 1.84687 1.02244 0
M  V30 16344 O 1597.35 1.2981 1.88047 0
M  V30 16345 C 1597.56 3.32641 -1.05598 0
M  V30 16346 C 1598.91 4.09511 -1.12187 0
M  V30 16347 O 1599.94 3.41692 -1.00624 0
M  V30 16348 O 1598.79 5.30785 -1.30113 0
M  V30 16349 H 1595.89 0.810941 -0.162185 0
M  V30 16350 H 1598.43 1.34952 -1.02888 0
M  V30 16351 H 1597.21 3.30196 -2.09968 0
M  V30 16352 H 1596.83 3.94327 -0.509086 0
M  V30 16353 N 1597.83 0.703118 1.41046 0
M  V30 16354 C 1599.24 0.311167 1.84089 0
M  V30 16355 C 1599.59 -1.15202 1.58818 0
M  V30 16356 O 1598.71 -1.88518 1.06254 0
M  V30 16357 C 1599.31 0.557986 3.34174 0
M  V30 16358 C 1597.87 0.219875 3.75757 0
M  V30 16359 C 1597.01 0.836543 2.64381 0
M  V30 16360 H 1599.97 0.903211 1.30491 0
M  V30 16361 H 1599.99 -0.180865 3.8007 0
M  V30 16362 H 1599.5 1.62298 3.52535 0
M  V30 16363 H 1597.6 -0.840559 3.62995 0
M  V30 16364 H 1597.71 0.680165 4.74247 0
M  V30 16365 H 1596.08 0.265547 2.53312 0
M  V30 16366 H 1596.86 1.90556 2.85558 0
M  V30 16367 N 1599.3 -1.51086 0.448402 0
M  V30 16368 C 1600.55 -2.02177 -0.114342 0
M  V30 16369 C 1600.88 -1.3319 -1.41742 0
M  V30 16370 O 1600.13 -0.439101 -1.9071 0
M  V30 16371 C 1600.43 -3.55488 -0.369232 0
M  V30 16372 C 1600.1 -4.42828 0.849372 0
M  V30 16373 C 1598.76 -4.66418 1.18354 0
M  V30 16374 C 1601.11 -4.93998 1.66179 0
M  V30 16375 C 1598.44 -5.38424 2.33059 0
M  V30 16376 C 1600.79 -5.67262 2.79994 0
M  V30 16377 C 1599.46 -5.89113 3.13851 0
M  V30 16378 H 1598.73 -0.739818 -0.0418407 0
M  V30 16379 H 1601.37 -1.81928 0.597857 0
M  V30 16380 H 1599.68 -3.74127 -1.16344 0
M  V30 16381 H 1601.38 -3.92563 -0.818248 0
M  V30 16382 H 1597.97 -4.24671 0.578998 0
M  V30 16383 H 1602.15 -4.75647 1.41683 0
M  V30 16384 H 1597.41 -5.53554 2.59592 0
M  V30 16385 H 1601.58 -6.05899 3.43307 0
M  V30 16386 H 1599.21 -6.44686 4.02844 0
M  V30 16387 N 1600.78 -0.180154 -1.56567 0
M  V30 16388 C 1601.75 0.732809 -2.17169 0
M  V30 16389 C 1602.75 1.15176 -1.1221 0
M  V30 16390 O 1603.94 1.06728 -1.37677 0
M  V30 16391 C 1601.07 1.99857 -2.7617 0
M  V30 16392 H 1602.26 0.205088 -2.99198 0
M  V30 16393 H 1599.81 0.0694351 -1.56146 0
M  V30 16394 H 1600.55 2.56917 -1.97899 0
M  V30 16395 H 1600.33 1.70705 -3.5299 0
M  V30 16396 H 1601.82 2.64992 -3.22752 0
M  V30 16397 N 1602.26 1.57322 0.0935319 0
M  V30 16398 C 1603.54 1.77187 0.828503 0
M  V30 16399 C 1603.92 0.762216 1.96859 0
M  V30 16400 O 1603.27 -0.208982 2.27542 0
M  V30 16401 C 1603.48 3.23007 1.32163 0
M  V30 16402 C 1604.82 3.86233 1.76379 0
M  V30 16403 O 1605.85 3.26766 1.41783 0
M  V30 16404 O 1604.71 4.90808 2.40354 0
M  V30 16405 H 1601.8 0.726401 0.395311 0
M  V30 16406 H 1604.35 1.69533 0.0752924 0
M  V30 16407 H 1603.12 3.88029 0.504863 0
M  V30 16408 H 1602.74 3.353 2.13681 0
M  V30 16409 N 1603.74 -0.364395 1.53329 0
M  V30 16410 C 1604.67 -1.45243 1.8283 0
M  V30 16411 C 1605.65 -1.55834 0.681886 0
M  V30 16412 O 1606.83 -1.70383 0.931845 0
M  V30 16413 C 1603.96 -2.82565 2.01926 0
M  V30 16414 C 1602.92 -2.86797 3.17697 0
M  V30 16415 C 1602.24 -4.26806 3.22089 0
M  V30 16416 C 1603.54 -2.54212 4.56261 0
M  V30 16417 H 1605.24 -1.20804 2.73946 0
M  V30 16418 H 1602.78 -0.579705 1.31816 0
M  V30 16419 H 1604.74 -3.58709 2.21147 0
M  V30 16420 H 1603.46 -3.08394 1.07521 0
M  V30 16421 H 1602.12 -2.13105 2.98298 0
M  V30 16422 H 1601.77 -4.49712 2.25318 0
M  V30 16423 H 1601.47 -4.30553 3.99873 0
M  V30 16424 H 1602.99 -5.04821 3.43495 0
M  V30 16425 H 1604.41 -3.20069 4.75635 0
M  V30 16426 H 1602.8 -2.69273 5.36295 0
M  V30 16427 H 1603.87 -1.49458 4.61292 0
M  V30 16428 N 1605.22 -1.44709 -0.62426 0
M  V30 16429 C 1606.46 -1.47561 -1.38094 0
M  V30 16430 C 1606.79 -0.112115 -1.94677 0
M  V30 16431 O 1606.06 0.856458 -1.76186 0
M  V30 16432 H 1604.64 -0.543368 -0.512601 0
M  V30 16433 H 1607.3 -1.8054 -0.734258 0
M  V30 16434 H 1606.39 -2.20496 -2.2088 0
M  V30 16435 N 1606.69 0.865285 -1.31722 0
M  V30 16436 C 1607.97 1.60146 -1.12306 0
M  V30 16437 C 1608.35 2.08653 0.320508 0
M  V30 16438 O 1607.7 1.86841 1.31539 0
M  V30 16439 C 1607.91 2.75583 -2.14138 0
M  V30 16440 C 1609.26 3.45429 -2.46909 0
M  V30 16441 O 1610.28 2.85795 -2.12602 0
M  V30 16442 O 1609.14 4.53017 -3.05676 0
M  V30 16443 H 1606.23 0.704786 -0.432673 0
M  V30 16444 H 1608.78 0.910339 -1.43216 0
M  V30 16445 H 1607.55 2.37187 -3.1122 0
M  V30 16446 H 1607.18 3.52378 -1.84161 0
M  V30 16447 N 1608.17 1.14759 1.0802 0
M  V30 16448 C 1609.1 0.860977 2.17047 0
M  V30 16449 C 1610.08 -0.185652 1.69084 0
M  V30 16450 O 1611.27 -0.0414797 1.94156 0
M  V30 16451 C 1608.4 0.342018 3.45612 0
M  V30 16452 C 1607.35 1.32455 4.06989 0
M  V30 16453 C 1606.68 0.664721 5.30552 0
M  V30 16454 C 1607.98 2.68819 4.4781 0
M  V30 16455 H 1609.67 1.77269 2.4128 0
M  V30 16456 H 1607.22 0.853757 1.15961 0
M  V30 16457 H 1609.17 0.129093 4.21202 0
M  V30 16458 H 1607.9 -0.605138 3.20945 0
M  V30 16459 H 1606.55 1.52371 3.33435 0
M  V30 16460 H 1606.2 -0.288367 5.02173 0
M  V30 16461 H 1605.9 1.32036 5.72573 0
M  V30 16462 H 1607.43 0.461412 6.08854 0
M  V30 16463 H 1608.84 2.52787 5.14559 0
M  V30 16464 H 1607.24 3.30694 5.00761 0
M  V30 16465 H 1608.31 3.25398 3.59506 0
M  V30 16466 N 1609.65 -1.26251 0.943322 0
M  V30 16467 C 1610.88 -1.98278 0.608341 0
M  V30 16468 C 1611.3 -1.69756 -0.810208 0
M  V30 16469 O 1610.66 -0.946846 -1.54611 0
M  V30 16470 C 1610.71 -3.50205 0.859591 0
M  V30 16471 O 1609.81 -4.12345 -0.0672371 0
M  V30 16472 H 1609.15 -0.621973 0.232477 0
M  V30 16473 H 1611.68 -1.60662 1.26684 0
M  V30 16474 H 1611.69 -4.00449 0.781341 0
M  V30 16475 H 1610.37 -3.70294 1.89354 0
M  V30 16476 H 1608.94 -3.72848 0.0622543 0
M  V30 16477 N 1611.13 -0.710588 -1.40671 0
M  V30 16478 C 1612.35 -0.256007 -2.05814 0
M  V30 16479 C 1612.78 1.09178 -1.53173 0
M  V30 16480 O 1612.14 1.68665 -0.664977 0
M  V30 16481 C 1612.19 -0.240528 -3.59797 0
M  V30 16482 O 1611.29 0.779859 -4.04959 0
M  V30 16483 H 1610.63 -0.121326 -0.652822 0
M  V30 16484 H 1613.16 -0.969667 -1.80163 0
M  V30 16485 H 1613.17 -0.0765027 -4.07928 0
M  V30 16486 H 1611.85 -1.22411 -3.97478 0
M  V30 16487 H 1610.42 0.583965 -3.68299 0
M  V30 16488 N 1612.61 1.50847 -0.456408 0
M  V30 16489 C 1613.86 2.01835 0.103414 0
M  V30 16490 C 1614.18 1.34142 1.4153 0
M  V30 16491 O 1613.45 0.482015 1.89877 0
M  V30 16492 H 1612.03 0.745863 0.0412074 0
M  V30 16493 H 1614.69 1.85322 -0.603477 0
M  V30 16494 H 1613.78 3.10968 0.265562 0
M  V30 16495 N 1614.09 0.188454 1.56469 0
M  V30 16496 C 1615.02 -0.730379 2.21783 0
M  V30 16497 C 1616 -1.22629 1.17882 0
M  V30 16498 O 1617.18 -1.27634 1.46367 0
M  V30 16499 C 1614.31 -1.95278 2.872 0
M  V30 16500 C 1613.27 -1.59205 3.97288 0
M  V30 16501 C 1612.59 -2.89052 4.49836 0
M  V30 16502 C 1613.89 -0.807027 5.16027 0
M  V30 16503 H 1615.59 -0.185914 2.98822 0
M  V30 16504 H 1613.13 -0.0879804 1.43731 0
M  V30 16505 H 1615.08 -2.60074 3.31571 0
M  V30 16506 H 1613.81 -2.52167 2.07556 0
M  V30 16507 H 1612.47 -0.967713 3.53597 0
M  V30 16508 H 1612.12 -3.44017 3.66963 0
M  V30 16509 H 1611.82 -2.65663 5.24115 0
M  V30 16510 H 1613.34 -3.54847 4.96906 0
M  V30 16511 H 1614.75 -1.35794 5.56986 0
M  V30 16512 H 1613.15 -0.671516 5.96331 0
M  V30 16513 H 1614.22 0.193251 4.84515 0
M  V30 16514 N 1615.56 -1.5737 -0.0851874 0
M  V30 16515 C 1616.5 -1.99462 -1.12905 0
M  V30 16516 C 1617.51 -0.898597 -1.35754 0
M  V30 16517 O 1618.7 -1.17662 -1.34231 0
M  V30 16518 C 1615.8 -2.30689 -2.48266 0
M  V30 16519 C 1614.97 -3.61967 -2.45557 0
M  V30 16520 C 1614.03 -3.81017 -3.62922 0
M  V30 16521 O 1613.06 -4.52759 -3.44961 0
M  V30 16522 N 1614.26 -3.22348 -4.82775 0
M  V30 16523 H 1617.02 -2.89621 -0.7707 0
M  V30 16524 H 1614.58 -1.59564 -0.274033 0
M  V30 16525 H 1616.58 -2.40618 -3.254 0
M  V30 16526 H 1615.15 -1.46488 -2.76152 0
M  V30 16527 H 1614.37 -3.62916 -1.539 0
M  V30 16528 H 1615.65 -4.48191 -2.40836 0
M  V30 16529 H 1615.05 -2.64093 -5.00271 0
M  V30 16530 H 1613.61 -3.37747 -5.57468 0
M  V30 16531 N 1617.04 0.356258 -1.53521 0
M  V30 16532 C 1618.29 1.09573 -1.69818 0
M  V30 16533 C 1618.61 1.89559 -0.457406 0
M  V30 16534 O 1617.88 1.88633 0.528616 0
M  V30 16535 H 1616.46 0.407512 -0.626054 0
M  V30 16536 H 1619.12 0.400612 -1.90738 0
M  V30 16537 H 1618.22 1.7803 -2.56343 0
M  V30 16538 N 1618.52 1.45038 0.616577 0
M  V30 16539 C 1619.74 1.52321 1.40759 0
M  V30 16540 C 1620.17 0.15375 1.87471 0
M  V30 16541 O 1619.53 -0.859908 1.5961 0
M  V30 16542 C 1619.58 2.50464 2.59423 0
M  V30 16543 O 1618.68 2.01623 3.59753 0
M  V30 16544 H 1618.02 0.513808 0.420592 0
M  V30 16545 H 1620.55 1.90309 0.751234 0
M  V30 16546 H 1620.56 2.68977 3.06783 0
M  V30 16547 H 1619.24 3.4993 2.24771 0
M  V30 16548 H 1617.81 1.92945 3.19103 0
M  V30 16549 N 1620 -0.858287 1.32179 0
M  V30 16550 C 1621.41 -1.4281 1.20259 0
M  V30 16551 C 1621.76 -1.95313 -0.186332 0
M  V30 16552 O 1620.88 -1.87244 -1.08484 0
M  V30 16553 C 1621.48 -2.59589 2.17713 0
M  V30 16554 C 1620.04 -3.1258 2.09691 0
M  V30 16555 C 1619.19 -1.85317 2.06283 0
M  V30 16556 H 1622.14 -0.665769 1.4406 0
M  V30 16557 H 1622.16 -3.36639 1.77354 0
M  V30 16558 H 1621.67 -2.21346 3.18791 0
M  V30 16559 H 1619.77 -3.55416 1.11849 0
M  V30 16560 H 1619.88 -3.74071 2.99346 0
M  V30 16561 H 1618.25 -2.04766 1.51469 0
M  V30 16562 H 1619.03 -1.49296 3.09137 0
M  V30 16563 N 1621.48 -1.1533 -1.07409 0
M  V30 16564 C 1622.44 -0.852155 -2.1277 0
M  V30 16565 C 1623.44 0.14782 -1.60119 0
M  V30 16566 O 1624.63 -0.0817436 -1.74008 0
M  V30 16567 C 1621.76 -0.272233 -3.39811 0
M  V30 16568 H 1622.95 -1.78604 -2.40917 0
M  V30 16569 H 1620.51 -0.960698 -1.23289 0
M  V30 16570 H 1621.24 0.669873 -3.17306 0
M  V30 16571 H 1621.03 -0.992629 -3.79327 0
M  V30 16572 H 1622.52 -0.0790986 -4.17525 0
M  V30 16573 N 1622.95 1.25748 -0.950004 0
M  V30 16574 C 1624.2 1.92954 -0.601104 0
M  V30 16575 C 1624.52 1.74817 0.863953 0
M  V30 16576 O 1623.79 1.10904 1.61484 0
M  V30 16577 H 1622.37 0.714077 -0.219325 0
M  V30 16578 H 1625.03 1.53009 -1.20724 0
M  V30 16579 H 1624.13 3.00959 -0.826447 0
M  V30 16580 N 1624.43 0.718038 1.40292 0
M  V30 16581 C 1625.68 0.258603 2.00842 0
M  V30 16582 C 1626.01 -1.14894 1.56938 0
M  V30 16583 O 1625.26 -1.79414 0.781606 0
M  V30 16584 C 1625.56 0.289374 3.56227 0
M  V30 16585 C 1625.23 1.64756 4.19722 0
M  V30 16586 C 1623.89 2.01934 4.36779 0
M  V30 16587 C 1626.24 2.54008 4.55115 0
M  V30 16588 C 1623.57 3.27905 4.86513 0
M  V30 16589 C 1625.92 3.79334 5.06249 0
M  V30 16590 C 1624.58 4.16626 5.21516 0
M  V30 16591 H 1623.85 0.0946296 0.734933 0
M  V30 16592 H 1626.5 0.921552 1.67868 0
M  V30 16593 H 1624.81 -0.457147 3.89124 0
M  V30 16594 H 1626.5 -0.0839832 4.00912 0
M  V30 16595 H 1623.09 1.34846 4.06835 0
M  V30 16596 H 1627.28 2.2656 4.4157 0
M  V30 16597 H 1622.53 3.56763 4.96518 0
M  V30 16598 H 1626.71 4.48663 5.32611 0
M  V30 16599 H 1624.33 5.14306 5.59815 0
M  V30 16600 N 1625.91 -1.50602 0.464402 0
M  V30 16601 C 1627.32 -1.86698 0.00767586 0
M  V30 16602 C 1627.67 -1.37971 -1.39494 0
M  V30 16603 O 1626.8 -0.741843 -2.03287 0
M  V30 16604 C 1627.39 -3.38799 0.00715323 0
M  V30 16605 C 1625.95 -3.74331 -0.394077 0
M  V30 16606 C 1625.1 -2.74465 0.395495 0
M  V30 16607 H 1628.05 -1.43441 0.678996 0
M  V30 16608 H 1628.07 -3.7207 -0.796497 0
M  V30 16609 H 1627.58 -3.74234 1.02812 0
M  V30 16610 H 1625.68 -3.44495 -1.41964 0
M  V30 16611 H 1625.8 -4.78995 -0.10007 0
M  V30 16612 H 1624.16 -2.54258 -0.149903 0
M  V30 16613 H 1624.94 -3.12744 1.41585 0
M  V30 16614 N 1627.39 -0.19675 -1.56367 0
M  V30 16615 C 1628.8 0.315555 -1.84014 0
M  V30 16616 C 1629.15 1.61267 -1.11747 0
M  V30 16617 O 1628.28 2.13058 -0.378824 0
M  V30 16618 C 1628.87 0.579307 -3.33811 0
M  V30 16619 C 1627.43 1.03598 -3.61862 0
M  V30 16620 C 1626.58 0.0854845 -2.77168 0
M  V30 16621 H 1629.53 -0.4205 -1.53028 0
M  V30 16622 H 1629.55 1.42841 -3.52671 0
M  V30 16623 H 1629.06 -0.364925 -3.86381 0
M  V30 16624 H 1627.16 1.99443 -3.14727 0
M  V30 16625 H 1627.27 0.927547 -4.70035 0
M  V30 16626 H 1625.64 0.58768 -2.47827 0
M  V30 16627 H 1626.42 -0.853221 -3.32528 0
M  V30 16628 N 1628.87 1.57413 0.0768405 0
M  V30 16629 C 1630.11 1.86633 0.775414 0
M  V30 16630 C 1630.44 0.788041 1.78367 0
M  V30 16631 O 1629.71 -0.183835 1.95036 0
M  V30 16632 H 1628.29 0.688678 0.289365 0
M  V30 16633 H 1630.95 1.94825 0.0541285 0
M  V30 16634 H 1630.04 2.83977 1.29474 0
M  V30 16635 N 1630.34 -0.348112 1.53707 0
M  V30 16636 C 1631.59 -1.08671 1.70396 0
M  V30 16637 C 1631.91 -1.89314 0.467453 0
M  V30 16638 O 1631.18 -1.88911 -0.518605 0
M  V30 16639 H 1629.76 -0.404186 0.628206 0
M  V30 16640 H 1632.43 -0.390491 1.90948 0
M  V30 16641 H 1631.52 -1.76668 2.57284 0
M  V30 16642 N 1631.82 -1.45363 -0.608876 0
M  V30 16643 C 1633.07 -1.49313 -1.36792 0
M  V30 16644 C 1633.4 -0.134357 -1.94035 0
M  V30 16645 O 1632.65 0.866819 -1.75456 0
M  V30 16646 C 1632.95 -2.51893 -2.53544 0
M  V30 16647 C 1632.62 -3.96636 -2.14455 0
M  V30 16648 C 1631.28 -4.36048 -2.03508 0
M  V30 16649 C 1633.63 -4.87668 -1.83929 0
M  V30 16650 C 1630.96 -5.64389 -1.60256 0
M  V30 16651 C 1633.31 -6.16419 -1.42163 0
M  V30 16652 C 1631.98 -6.54763 -1.29774 0
M  V30 16653 H 1631.25 -0.546373 -0.500557 0
M  V30 16654 H 1633.89 -1.78702 -0.68832 0
M  V30 16655 H 1632.2 -2.16068 -3.26836 0
M  V30 16656 H 1633.89 -2.52187 -3.11773 0
M  V30 16657 H 1630.48 -3.65467 -2.23901 0
M  V30 16658 H 1634.67 -4.57956 -1.91284 0
M  V30 16659 H 1629.92 -5.92894 -1.49285 0
M  V30 16660 H 1634.1 -6.86401 -1.17588 0
M  V30 16661 H 1631.73 -7.5411 -0.960322 0
M  V30 16662 N 1633.3 0.851265 -1.32632 0
M  V30 16663 C 1634.55 1.60057 -1.22738 0
M  V30 16664 C 1634.86 1.94485 0.208525 0
M  V30 16665 O 1636.07 2.68083 0.429361 0
M  V30 16666 C 1634.52 2.88634 -2.14985 0
M  V30 16667 C 1634.13 2.61617 -3.63676 0
M  V30 16668 C 1635.88 3.6665 -2.13935 0
M  V30 16669 C 1633.78 3.86215 -4.47875 0
M  V30 16670 H 1632.71 0.600617 -0.455824 0
M  V30 16671 H 1635.36 0.939671 -1.57615 0
M  V30 16672 H 1633.75 3.56199 -1.73027 0
M  V30 16673 H 1634.92 2.02342 -4.13998 0
M  V30 16674 H 1633.24 1.96926 -3.66891 0
M  V30 16675 H 1635.83 4.59114 -2.74078 0
M  V30 16676 H 1636.18 4.00636 -1.13121 0
M  V30 16677 H 1636.71 3.05993 -2.54192 0
M  V30 16678 H 1633.45 3.57367 -5.49517 0
M  V30 16679 H 1632.97 4.44874 -4.02302 0
M  V30 16680 H 1634.65 4.5392 -4.61049 0
M  V30 16681 N 1634.78 1.15898 1.06796 0
M  V30 16682 C 1636.19 0.945837 1.60968 0
M  V30 16683 C 1636.54 -0.511507 1.89415 0
M  V30 16684 O 1635.67 -1.38372 1.66379 0
M  V30 16685 C 1636.26 1.71054 2.92448 0
M  V30 16686 C 1634.82 1.54252 3.43341 0
M  V30 16687 C 1633.97 1.72253 2.17311 0
M  V30 16688 H 1636.92 1.30842 0.898118 0
M  V30 16689 H 1636.94 1.18336 3.61631 0
M  V30 16690 H 1636.45 2.77117 2.71712 0
M  V30 16691 H 1634.55 0.506082 3.69147 0
M  V30 16692 H 1634.66 2.32314 4.19007 0
M  V30 16693 H 1633.03 1.14952 2.27284 0
M  V30 16694 H 1633.81 2.79693 1.99064 0
M  V30 16695 N 1636.26 -1.25243 0.956659 0
M  V30 16696 C 1637.2 -2.25811 0.477292 0
M  V30 16697 C 1638.17 -1.59273 -0.471301 0
M  V30 16698 O 1639.36 -1.86894 -0.384105 0
M  V30 16699 C 1636.5 -3.44286 -0.236891 0
M  V30 16700 C 1635.61 -4.25454 0.749177 0
M  V30 16701 C 1634.75 -5.31199 0.012228 0
M  V30 16702 C 1633.79 -6.04056 0.989094 0
M  V30 16703 N 1632.92 -7.0153 0.282883 0
M  V30 16704 H 1637.76 -2.66185 1.33977 0
M  V30 16705 H 1635.3 -1.30862 0.671832 0
M  V30 16706 H 1637.26 -4.11825 -0.66755 0
M  V30 16707 H 1635.89 -3.04781 -1.06339 0
M  V30 16708 H 1634.94 -3.57558 1.29831 0
M  V30 16709 H 1636.25 -4.75883 1.49454 0
M  V30 16710 H 1635.41 -6.04822 -0.476968 0
M  V30 16711 H 1634.14 -4.81648 -0.76591 0
M  V30 16712 H 1633.15 -5.29245 1.48927 0
M  V30 16713 H 1634.37 -6.55695 1.76749 0
M  V30 16714 H 1632.32 -6.54267 -0.476479 0
M  V30 16715 H 1632.24 -7.49786 0.967304 0
M  V30 16716 H 1633.51 -7.79281 -0.184709 0
M  V30 16717 N 1637.73 -0.725468 -1.3991 0
M  V30 16718 C 1638.96 -0.279202 -2.05007 0
M  V30 16719 C 1639.38 1.08257 -1.5468 0
M  V30 16720 O 1638.73 1.68224 -0.707585 0
M  V30 16721 C 1638.79 -0.261347 -3.60554 0
M  V30 16722 O 1638.51 -1.56935 -4.09027 0
M  V30 16723 C 1640.01 0.202259 -4.42838 0
M  V30 16724 H 1637.23 -0.123664 -0.659506 0
M  V30 16725 H 1639.77 -0.986447 -1.79135 0
M  V30 16726 H 1637.93 0.396936 -3.85361 0
M  V30 16727 H 1638.34 -1.47647 -5.0329 0
M  V30 16728 H 1639.81 0.163598 -5.51758 0
M  V30 16729 H 1640.29 1.24597 -4.21156 0
M  V30 16730 H 1640.9 -0.426108 -4.2316 0
M  V30 16731 N 1639.21 1.50354 -0.472382 0
M  V30 16732 C 1640.18 2.27096 0.30981 0
M  V30 16733 C 1641.18 1.3193 0.919306 0
M  V30 16734 O 1642.37 1.55344 0.788284 0
M  V30 16735 C 1639.5 3.08924 1.44149 0
M  V30 16736 H 1640.69 2.97692 -0.363228 0
M  V30 16737 H 1638.24 1.5465 -0.226483 0
M  V30 16738 H 1638.98 2.42828 2.14954 0
M  V30 16739 H 1638.76 3.78862 1.01023 0
M  V30 16740 H 1640.25 3.66961 1.99323 0
M  V30 16741 N 1640.69 0.205039 1.56261 0
M  V30 16742 C 1641.92 -0.43642 2.02245 0
M  V30 16743 C 1642.33 -1.54504 1.08508 0
M  V30 16744 O 1641.69 -1.82269 0.0916991 0
M  V30 16745 C 1641.74 -0.983483 3.47865 0
M  V30 16746 O 1641.46 0.0809166 4.38025 0
M  V30 16747 C 1642.96 -1.69983 4.09415 0
M  V30 16748 H 1640.18 -0.108577 0.662157 0
M  V30 16749 H 1642.73 0.316659 2.02033 0
M  V30 16750 H 1640.88 -1.6869 3.48744 0
M  V30 16751 H 1641.3 -0.327751 5.23475 0
M  V30 16752 H 1642.77 -2.03481 5.13127 0
M  V30 16753 H 1643.25 -2.60711 3.5345 0
M  V30 16754 H 1643.85 -1.04202 4.12337 0
M  V30 16755 N 1642.17 -1.57451 -0.0684915 0
M  V30 16756 C 1643.4 -1.9164 -0.779855 0
M  V30 16757 C 1643.81 -0.801309 -1.70952 0
M  V30 16758 O 1643.17 0.225134 -1.81106 0
M  V30 16759 C 1643.22 -3.25594 -1.57068 0
M  V30 16760 O 1642.94 -4.32816 -0.678385 0
M  V30 16761 C 1644.44 -3.73818 -2.38275 0
M  V30 16762 H 1641.66 -0.633374 -0.221537 0
M  V30 16763 H 1644.21 -2.04465 -0.0377746 0
M  V30 16764 H 1642.36 -3.14287 -2.26501 0
M  V30 16765 H 1642.78 -5.09903 -1.22877 0
M  V30 16766 H 1644.25 -4.70168 -2.89216 0
M  V30 16767 H 1644.73 -3.02995 -3.17947 0
M  V30 16768 H 1645.33 -3.88081 -1.73992 0
M  V30 16769 N 1643.65 0.339955 -1.5389 0
M  V30 16770 C 1645.06 0.915362 -1.62721 0
M  V30 16771 C 1645.41 1.89434 -0.510798 0
M  V30 16772 O 1644.53 2.13403 0.3589 0
M  V30 16773 C 1645.13 1.66699 -2.94953 0
M  V30 16774 C 1643.69 2.19135 -3.06034 0
M  V30 16775 C 1642.84 1.01159 -2.5819 0
M  V30 16776 H 1645.79 0.11799 -1.58261 0
M  V30 16777 H 1645.81 2.53011 -2.84193 0
M  V30 16778 H 1645.32 0.954219 -3.76186 0
M  V30 16779 H 1643.42 2.93577 -2.29441 0
M  V30 16780 H 1643.53 2.4526 -4.11563 0
M  V30 16781 H 1641.9 1.38604 -2.13685 0
M  V30 16782 H 1642.68 0.313396 -3.41867 0
M  V30 16783 N 1645.13 1.45684 0.601159 0
M  V30 16784 C 1646.07 1.54846 1.71147 0
M  V30 16785 C 1647.04 0.393914 1.61361 0
M  V30 16786 O 1648.23 0.608222 1.80846 0
M  V30 16787 C 1645.37 1.52723 3.09467 0
M  V30 16788 C 1644.48 2.78776 3.30012 0
M  V30 16789 C 1643.62 2.68281 4.58474 0
M  V30 16790 C 1642.65 3.89358 4.72299 0
M  V30 16791 N 1641.79 3.77359 5.92068 0
M  V30 16792 H 1646.63 2.49696 1.62653 0
M  V30 16793 H 1644.17 1.23894 0.793006 0
M  V30 16794 H 1646.13 1.49479 3.89502 0
M  V30 16795 H 1644.76 0.614189 3.16903 0
M  V30 16796 H 1643.81 2.9208 2.43708 0
M  V30 16797 H 1645.12 3.68563 3.36099 0
M  V30 16798 H 1644.27 2.63039 5.46713 0
M  V30 16799 H 1643.01 1.76103 4.54795 0
M  V30 16800 H 1642.02 3.94952 3.82482 0
M  V30 16801 H 1643.24 4.82609 4.77771 0
M  V30 16802 H 1641.19 2.87955 5.89422 0
M  V30 16803 H 1641.11 4.60786 5.99343 0
M  V30 16804 H 1642.37 3.76061 6.82787 0
M  V30 16805 N 1646.6 -0.84422 1.33082 0
M  V30 16806 C 1647.85 -1.59596 1.2399 0
M  V30 16807 C 1648.17 -1.94016 -0.19566 0
M  V30 16808 O 1647.44 -1.60512 -1.12306 0
M  V30 16809 H 1646.02 -0.591727 0.455926 0
M  V30 16810 H 1648.68 -1.00924 1.66735 0
M  V30 16811 H 1647.78 -2.52829 1.82986 0
M  V30 16812 N 1648.08 -1.16463 -1.0618 0
M  V30 16813 C 1649.31 -0.97159 -1.83235 0
M  V30 16814 C 1649.73 0.475295 -1.81996 0
M  V30 16815 O 1649.09 1.33964 -1.22161 0
M  V30 16816 C 1649.14 -1.50504 -3.2769 0
M  V30 16817 O 1648.24 -0.712128 -4.06205 0
M  V30 16818 H 1647.58 -0.345676 -0.566925 0
M  V30 16819 H 1650.11 -1.54727 -1.33868 0
M  V30 16820 H 1650.12 -1.52301 -3.78508 0
M  V30 16821 H 1648.8 -2.55832 -3.27907 0
M  V30 16822 H 1647.37 -0.764756 -3.64974 0
M  V30 16823 N 1649.56 1.24734 -0.963288 0
M  V30 16824 C 1650.78 1.97285 -0.639808 0
M  V30 16825 C 1651.21 1.71024 0.783099 0
M  V30 16826 O 1650.57 0.971324 1.53085 0
M  V30 16827 C 1650.62 3.48793 -0.915197 0
M  V30 16828 O 1649.72 4.124 0.00162805 0
M  V30 16829 H 1649.06 0.618196 -0.242343 0
M  V30 16830 H 1651.59 1.58627 -1.29224 0
M  V30 16831 H 1651.6 3.99155 -0.84495 0
M  V30 16832 H 1650.28 3.67235 -1.95221 0
M  V30 16833 H 1648.85 3.72702 -0.121563 0
M  V30 16834 N 1651.04 0.732878 1.39523 0
M  V30 16835 C 1652.26 0.288717 2.05381 0
M  V30 16836 C 1652.69 -1.06727 1.5489 0
M  V30 16837 O 1652.05 -1.67585 0.691726 0
M  V30 16838 C 1652.09 0.297738 3.59369 0
M  V30 16839 O 1651.2 -0.715335 4.06149 0
M  V30 16840 H 1650.54 0.131696 0.650809 0
M  V30 16841 H 1653.07 0.998206 1.78597 0
M  V30 16842 H 1653.08 0.141391 4.07755 0
M  V30 16843 H 1651.75 1.28719 3.9548 0
M  V30 16844 H 1650.33 -0.525298 3.69182 0
M  V30 16845 N 1652.52 -1.50101 0.480349 0
M  V30 16846 C 1653.76 -2.033 -0.0636175 0
M  V30 16847 C 1654.12 -1.35518 -1.36575 0
M  V30 16848 O 1653.41 -0.474981 -1.85619 0
M  V30 16849 C 1653.6 -3.56191 -0.293745 0
M  V30 16850 C 1653.43 -4.38791 0.984529 0
M  V30 16851 C 1652.2 -4.81565 1.53048 0
M  V30 16852 C 1654.4 -4.78613 1.88239 0
M  V30 16853 N 1652.38 -5.48519 2.75681 0
M  V30 16854 C 1653.75 -5.45074 2.95456 0
M  V30 16855 C 1655.81 -4.60566 1.89166 0
M  V30 16856 C 1654.51 -5.95398 4.03601 0
M  V30 16857 C 1656.54 -5.11836 2.96273 0
M  V30 16858 C 1655.9 -5.78279 4.02209 0
M  V30 16859 H 1652 -0.781816 0.016982 0
M  V30 16860 H 1654.58 -1.83508 0.650617 0
M  V30 16861 H 1652.75 -3.75911 -0.977023 0
M  V30 16862 H 1654.49 -3.96037 -0.832876 0
M  V30 16863 H 1651.24 -4.61159 1.0784 0
M  V30 16864 H 1651.66 -5.86597 3.37983 0
M  V30 16865 H 1656.31 -4.0862 1.08578 0
M  V30 16866 H 1654.02 -6.46375 4.85 0
M  V30 16867 H 1657.61 -4.99696 2.97985 0
M  V30 16868 H 1656.49 -6.17237 4.83724 0
M  V30 16869 N 1653.99 -0.213323 -1.5615 0
M  V30 16870 C 1654.93 0.732346 -2.17185 0
M  V30 16871 C 1655.94 1.16357 -1.13864 0
M  V30 16872 O 1657.13 1.09614 -1.40879 0
M  V30 16873 C 1654.23 2.0027 -2.73395 0
M  V30 16874 C 1653.4 1.72836 -4.01804 0
M  V30 16875 C 1652.46 2.84497 -4.4266 0
M  V30 16876 O 1651.49 2.5332 -5.09723 0
M  V30 16877 N 1652.69 4.13268 -4.07663 0
M  V30 16878 H 1655.45 0.210294 -2.98961 0
M  V30 16879 H 1653.01 -0.0320124 -1.61868 0
M  V30 16880 H 1655.01 2.74145 -2.97702 0
M  V30 16881 H 1653.58 2.43546 -1.9597 0
M  V30 16882 H 1652.8 0.826474 -3.85439 0
M  V30 16883 H 1654.08 1.51928 -4.85588 0
M  V30 16884 H 1653.48 4.41444 -3.53756 0
M  V30 16885 H 1652.04 4.83713 -4.36881 0
M  V30 16886 N 1655.47 1.57485 0.0601405 0
M  V30 16887 C 1656.7 1.92051 0.769681 0
M  V30 16888 C 1657.12 0.810364 1.70524 0
M  V30 16889 O 1656.47 -0.215527 1.81223 0
M  V30 16890 C 1656.52 3.26423 1.55339 0
M  V30 16891 O 1656.24 4.3317 0.655423 0
M  V30 16892 C 1657.75 3.75076 2.36289 0
M  V30 16893 H 1654.97 0.63454 0.218175 0
M  V30 16894 H 1657.51 2.04482 0.0269308 0
M  V30 16895 H 1655.66 3.15483 2.24831 0
M  V30 16896 H 1656.08 5.10548 1.20171 0
M  V30 16897 H 1657.55 4.71695 2.86719 0
M  V30 16898 H 1658.03 3.04677 3.16336 0
M  V30 16899 H 1658.64 3.88998 1.71932 0
M  V30 16900 N 1656.95 -0.331789 1.54068 0
M  V30 16901 C 1658.18 -1.09484 1.76148 0
M  V30 16902 C 1658.6 -1.81201 0.504772 0
M  V30 16903 O 1657.96 -1.7297 -0.54325 0
M  V30 16904 C 1658.01 -2.07495 2.94921 0
M  V30 16905 O 1657.11 -3.15239 2.65891 0
M  V30 16906 H 1656.45 -0.316071 0.583948 0
M  V30 16907 H 1658.98 -0.378593 2.01067 0
M  V30 16908 H 1658.99 -2.5051 3.22038 0
M  V30 16909 H 1657.67 -1.54696 3.8606 0
M  V30 16910 H 1656.24 -2.76958 2.49697 0
M  V30 16911 N 1658.43 -1.46001 -0.593424 0
M  V30 16912 C 1659.84 -1.30719 -0.915678 0
M  V30 16913 C 1660.04 -0.270679 -1.99674 0
M  V30 16914 O 1659.1 0.330482 -2.50328 0
M  V30 16915 C 1660.41 -2.69034 -1.34318 0
M  V30 16916 C 1661.96 -2.77041 -1.45662 0
M  V30 16917 C 1662.44 -4.15913 -1.91783 0
M  V30 16918 N 1663.93 -4.18277 -1.98994 0
M  V30 16919 C 1664.66 -5.22612 -2.35932 0
M  V30 16920 N 1664.16 -6.37283 -2.71738 0
M  V30 16921 N 1665.95 -5.09975 -2.36394 0
M  V30 16922 H 1658.1 -2.12056 0.120882 0
M  V30 16923 H 1660.37 -0.947961 -0.00858574 0
M  V30 16924 H 1660.07 -3.4614 -0.622922 0
M  V30 16925 H 1659.95 -2.98434 -2.30688 0
M  V30 16926 H 1662.33 -2.0023 -2.16776 0
M  V30 16927 H 1662.41 -2.51338 -0.475706 0
M  V30 16928 H 1662.06 -4.93215 -1.2125 0
M  V30 16929 H 1661.99 -4.39016 -2.90813 0
M  V30 16930 H 1664.48 -3.35534 -1.73855 0
M  V30 16931 H 1664.79 -7.12679 -2.98846 0
M  V30 16932 H 1663.14 -6.40662 -2.69401 0
M  V30 16933 H 1666.33 -4.1943 -2.07836 0
M  V30 16934 H 1666.5 -5.91402 -2.64854 0
M  V30 16935 N 1659.91 0.83715 -1.33527 0
M  V30 16936 C 1661.32 1.40878 -1.22516 0
M  V30 16937 C 1661.67 1.95585 0.155236 0
M  V30 16938 O 1660.79 1.88946 1.05491 0
M  V30 16939 C 1661.39 2.56093 -2.21815 0
M  V30 16940 C 1659.95 3.09205 -2.14638 0
M  V30 16941 C 1659.09 1.82012 -2.09205 0
M  V30 16942 H 1662.05 0.642766 -1.45101 0
M  V30 16943 H 1662.07 3.33775 -1.82687 0
M  V30 16944 H 1661.58 2.16246 -3.22272 0
M  V30 16945 H 1659.68 3.53592 -1.17489 0
M  V30 16946 H 1659.79 3.69261 -3.05259 0
M  V30 16947 H 1658.16 2.02331 -1.54707 0
M  V30 16948 H 1658.94 1.44359 -3.11473 0
M  V30 16949 N 1661.38 1.17024 1.05561 0
M  V30 16950 C 1662.8 0.962856 1.59956 0
M  V30 16951 C 1663.15 -0.491388 1.89947 0
M  V30 16952 O 1662.27 -1.366 1.67838 0
M  V30 16953 C 1662.87 1.74146 2.90617 0
M  V30 16954 C 1661.43 1.57885 3.41686 0
M  V30 16955 C 1660.57 1.74548 2.15472 0
M  V30 16956 H 1663.52 1.31787 0.88419 0
M  V30 16957 H 1663.54 1.22165 3.60355 0
M  V30 16958 H 1663.06 2.79984 2.68758 0
M  V30 16959 H 1661.16 0.545207 3.6859 0
M  V30 16960 H 1661.27 2.36745 4.16519 0
M  V30 16961 H 1659.63 1.17356 2.26052 0
M  V30 16962 H 1660.42 2.81789 1.96087 0
M  V30 16963 N 1662.86 -1.24221 0.969889 0
M  V30 16964 C 1663.83 -2.23529 0.506686 0
M  V30 16965 C 1664.83 -1.55797 -0.397968 0
M  V30 16966 O 1666.02 -1.73126 -0.193124 0
M  V30 16967 C 1663.15 -3.39861 -0.265943 0
M  V30 16968 H 1664.34 -2.66022 1.38463 0
M  V30 16969 H 1661.89 -1.36872 0.754698 0
M  V30 16970 H 1662.63 -3.0281 -1.16089 0
M  V30 16971 H 1662.41 -3.90222 0.383286 0
M  V30 16972 H 1663.9 -4.13567 -0.578975 0
M  V30 16973 N 1664.34 -0.740267 -1.39132 0
M  V30 16974 C 1665.27 -0.064087 -2.2911 0
M  V30 16975 C 1666.29 0.697897 -1.47082 0
M  V30 16976 O 1667.47 0.541189 -1.70098 0
M  V30 16977 C 1664.57 0.933426 -3.25792 0
M  V30 16978 C 1663.75 0.231867 -4.36785 0
M  V30 16979 C 1662.81 1.13823 -5.13742 0
M  V30 16980 O 1661.83 0.613741 -5.65881 0
M  V30 16981 N 1663.03 2.46751 -5.25447 0
M  V30 16982 H 1665.8 -0.836774 -2.87781 0
M  V30 16983 H 1663.36 -0.589928 -1.5077 0
M  V30 16984 H 1665.35 1.5425 -3.74151 0
M  V30 16985 H 1663.92 1.60728 -2.68114 0
M  V30 16986 H 1663.14 -0.557747 -3.90234 0
M  V30 16987 H 1664.43 -0.254115 -5.08165 0
M  V30 16988 H 1663.83 2.91834 -4.84613 0
M  V30 16989 H 1662.39 3.02741 -5.77227 0
M  V30 16990 N 1665.82 1.49844 -0.488302 0
M  V30 16991 C 1667.07 2.02009 0.0605782 0
M  V30 16992 C 1667.39 1.37114 1.38653 0
M  V30 16993 O 1666.66 0.522182 1.88812 0
M  V30 16994 H 1665.24 0.746569 0.0253773 0
M  V30 16995 H 1667.9 1.84 -0.64265 0
M  V30 16996 H 1667 3.11461 0.199542 0
M  V30 16997 N 1667.3 0.221601 1.56034 0
M  V30 16998 C 1668.26 -0.674973 2.19036 0
M  V30 16999 C 1669.26 -1.1216 1.15225 0
M  V30 17000 O 1670.45 -1.0304 1.40458 0
M  V30 17001 C 1667.58 -1.92465 2.81372 0
M  V30 17002 H 1668.77 -0.125689 2.99637 0
M  V30 17003 H 1666.33 -0.0280114 1.56275 0
M  V30 17004 H 1667.06 -2.5158 2.04641 0
M  V30 17005 H 1666.85 -1.61286 3.57392 0
M  V30 17006 H 1668.34 -2.56342 3.29664 0
M  V30 17007 N 1668.77 -1.57515 -0.0517878 0
M  V30 17008 C 1670 -1.92845 -0.763249 0
M  V30 17009 C 1670.42 -0.819745 -1.69298 0
M  V30 17010 O 1669.78 0.226161 -1.79884 0
M  V30 17011 C 1669.83 -3.27189 -1.5159 0
M  V30 17012 O 1668.93 -3.17834 -2.62783 0
M  V30 17013 H 1668.28 -0.630944 -0.206896 0
M  V30 17014 H 1670.81 -2.04595 -0.0140481 0
M  V30 17015 H 1670.82 -3.61542 -1.89081 0
M  V30 17016 H 1669.49 -4.07455 -0.833871 0
M  V30 17017 H 1668.07 -2.95075 -2.28002 0
M  V30 17018 N 1670.25 0.323614 -1.54242 0
M  V30 17019 C 1671.5 1.05935 -1.73636 0
M  V30 17020 C 1671.85 1.85684 -0.503888 0
M  V30 17021 O 1671.15 1.84861 0.503692 0
M  V30 17022 C 1671.34 2.01452 -2.95215 0
M  V30 17023 C 1671.17 1.31094 -4.30168 0
M  V30 17024 C 1669.94 1.04747 -4.94324 0
M  V30 17025 C 1672.14 0.726886 -5.09137 0
M  V30 17026 N 1670.12 0.311788 -6.13108 0
M  V30 17027 C 1671.49 0.122813 -6.19878 0
M  V30 17028 C 1673.55 0.629696 -4.93902 0
M  V30 17029 C 1672.25 -0.569019 -7.17046 0
M  V30 17030 C 1674.28 -0.0484359 -5.9138 0
M  V30 17031 C 1673.64 -0.641453 -7.01473 0
M  V30 17032 H 1669.74 0.371344 -0.688206 0
M  V30 17033 H 1672.32 0.340541 -1.91699 0
M  V30 17034 H 1670.49 2.70605 -2.78617 0
M  V30 17035 H 1672.22 2.6801 -3.03237 0
M  V30 17036 H 1668.98 1.33979 -4.54254 0
M  V30 17037 H 1669.4 -0.0419069 -6.76987 0
M  V30 17038 H 1674.04 1.0739 -4.08934 0
M  V30 17039 H 1671.76 -1.02505 -8.01572 0
M  V30 17040 H 1675.35 -0.123275 -5.81669 0
M  V30 17041 H 1674.23 -1.15786 -7.75605 0
M  V30 17042 N 1671.73 1.46313 0.585673 0
M  V30 17043 C 1673.14 1.4567 1.16778 0
M  V30 17044 C 1673.49 0.195957 1.95219 0
M  V30 17045 O 1672.62 -0.701142 2.04727 0
M  V30 17046 C 1673.21 2.6392 2.12443 0
M  V30 17047 C 1671.77 2.66327 2.65983 0
M  V30 17048 C 1670.92 2.38304 1.41797 0
M  V30 17049 H 1673.87 1.54236 0.37377 0
M  V30 17050 H 1673.89 2.39268 2.95856 0
M  V30 17051 H 1673.4 3.55663 1.55324 0
M  V30 17052 H 1671.5 1.78648 3.2698 0
M  V30 17053 H 1671.62 3.66203 3.08921 0
M  V30 17054 H 1669.98 1.88302 1.71507 0
M  V30 17055 H 1670.76 3.3222 0.86514 0
M  V30 17056 N 1673.21 -0.830057 1.33969 0
M  V30 17057 C 1674.62 -1.40227 1.23261 0
M  V30 17058 C 1674.97 -1.95664 -0.144862 0
M  V30 17059 O 1674.1 -1.89503 -1.04488 0
M  V30 17060 C 1674.69 -2.54913 2.2317 0
M  V30 17061 C 1673.25 -3.08062 2.16274 0
M  V30 17062 C 1672.4 -1.809 2.10168 0
M  V30 17063 H 1675.35 -0.635062 1.4544 0
M  V30 17064 H 1675.37 -3.32801 1.84455 0
M  V30 17065 H 1674.88 -2.14534 3.23414 0
M  V30 17066 H 1672.98 -3.52964 1.19362 0
M  V30 17067 H 1673.1 -3.67637 3.07213 0
M  V30 17068 H 1671.46 -2.01508 1.55778 0
M  V30 17069 H 1672.24 -1.42705 3.12234 0
M  V30 17070 N 1674.69 -1.17582 -1.04939 0
M  V30 17071 C 1675.62 -0.852608 -2.12752 0
M  V30 17072 C 1676.63 0.14607 -1.62143 0
M  V30 17073 O 1677.82 -0.0805751 -1.78318 0
M  V30 17074 C 1674.92 -0.251083 -3.37969 0
M  V30 17075 C 1674.09 -1.29325 -4.17844 0
M  V30 17076 C 1673.15 -0.709025 -5.21401 0
M  V30 17077 O 1672.18 -1.38149 -5.52181 0
M  V30 17078 N 1673.38 0.497716 -5.78362 0
M  V30 17079 H 1676.15 -1.78054 -2.41074 0
M  V30 17080 H 1673.71 -1.07502 -1.21058 0
M  V30 17081 H 1675.7 0.15312 -4.0441 0
M  V30 17082 H 1674.27 0.580684 -3.07159 0
M  V30 17083 H 1673.49 -1.87311 -3.46855 0
M  V30 17084 H 1674.78 -1.99614 -4.68008 0
M  V30 17085 H 1674.18 1.06196 -5.55643 0
M  V30 17086 H 1672.73 0.843951 -6.46313 0
M  V30 17087 N 1676.17 1.23705 -0.976463 0
M  V30 17088 C 1677.13 2.23257 -0.518533 0
M  V30 17089 C 1678.13 1.56006 0.3897 0
M  V30 17090 O 1679.32 1.73226 0.18394 0
M  V30 17091 C 1676.45 3.39997 0.247916 0
M  V30 17092 H 1677.64 2.65284 -1.39872 0
M  V30 17093 H 1675.2 1.3647 -0.761946 0
M  V30 17094 H 1675.93 3.03421 1.14482 0
M  V30 17095 H 1675.72 3.90013 -0.403975 0
M  V30 17096 H 1677.21 4.13868 0.557034 0
M  V30 17097 N 1677.64 0.747635 1.38738 0
M  V30 17098 C 1678.59 0.11597 2.30508 0
M  V30 17099 C 1679.56 -0.716088 1.49871 0
M  V30 17100 O 1680.75 -0.673446 1.7852 0
M  V30 17101 C 1677.89 -0.775765 3.36268 0
M  V30 17102 C 1677 0.070275 4.31943 0
M  V30 17103 C 1676.13 -0.823908 5.24772 0
M  V30 17104 C 1675.17 0.0261249 6.12094 0
M  V30 17105 N 1674.31 -0.824688 6.9724 0
M  V30 17106 H 1679.15 0.904158 2.83952 0
M  V30 17107 H 1676.69 0.457513 1.39804 0
M  V30 17108 H 1678.64 -1.30735 3.96187 0
M  V30 17109 H 1677.27 -1.5298 2.84248 0
M  V30 17110 H 1676.33 0.719421 3.73535 0
M  V30 17111 H 1677.64 0.726987 4.93474 0
M  V30 17112 H 1676.79 -1.42287 5.89779 0
M  V30 17113 H 1675.53 -1.51437 4.63593 0
M  V30 17114 H 1674.54 0.637803 5.46088 0
M  V30 17115 H 1675.76 0.713556 6.75341 0
M  V30 17116 H 1673.71 -1.50021 6.38616 0
M  V30 17117 H 1673.62 -0.22474 7.55666 0
M  V30 17118 H 1674.89 -1.40882 7.66663 0
M  V30 17119 N 1679.12 -1.49583 0.496242 0
M  V30 17120 C 1680.53 -1.8664 0.0472756 0
M  V30 17121 C 1680.88 -1.40898 -1.36536 0
M  V30 17122 O 1680.01 -0.784796 -2.01668 0
M  V30 17123 C 1680.6 -3.38708 0.079016 0
M  V30 17124 C 1679.16 -3.75083 -0.314587 0
M  V30 17125 C 1678.31 -2.73565 0.453624 0
M  V30 17126 H 1681.26 -1.41969 0.709269 0
M  V30 17127 H 1681.28 -3.73676 -0.717396 0
M  V30 17128 H 1680.79 -3.71969 1.10727 0
M  V30 17129 H 1678.89 -3.47429 -1.34625 0
M  V30 17130 H 1679.01 -4.791 0.00155427 0
M  V30 17131 H 1677.37 -2.54519 -0.095937 0
M  V30 17132 H 1678.15 -3.0967 1.48186 0
M  V30 17133 N 1680.6 -0.229873 -1.55915 0
M  V30 17134 C 1682.01 0.276452 -1.84642 0
M  V30 17135 C 1682.36 1.58861 -1.15142 0
M  V30 17136 O 1681.49 2.12207 -0.423932 0
M  V30 17137 C 1682.08 0.508371 -3.34964 0
M  V30 17138 C 1680.64 0.958989 -3.63979 0
M  V30 17139 C 1679.79 0.0266738 -2.77287 0
M  V30 17140 H 1682.74 -0.452864 -1.52101 0
M  V30 17141 H 1682.76 1.35328 -3.55621 0
M  V30 17142 H 1682.27 -0.4468 -3.8552 0
M  V30 17143 H 1680.37 1.92722 -3.18887 0
M  V30 17144 H 1680.49 0.827637 -4.71897 0
M  V30 17145 H 1678.85 0.53498 -2.49018 0
M  V30 17146 H 1679.63 -0.923563 -3.30644 0
M  V30 17147 N 1682.08 1.5754 0.0434337 0
M  V30 17148 C 1683.49 1.77071 0.591836 0
M  V30 17149 C 1683.84 0.85911 1.76391 0
M  V30 17150 O 1682.96 0.0502725 2.16342 0
M  V30 17151 C 1683.56 3.21111 1.08041 0
M  V30 17152 C 1682.12 3.41889 1.57445 0
M  V30 17153 C 1681.27 2.72641 0.506166 0
M  V30 17154 H 1684.22 1.57644 -0.182792 0
M  V30 17155 H 1684.24 3.26834 1.94833 0
M  V30 17156 H 1683.75 3.87435 0.227153 0
M  V30 17157 H 1681.85 2.80721 2.45003 0
M  V30 17158 H 1681.96 4.50452 1.63185 0
M  V30 17159 H 1680.33 2.36002 0.957878 0
M  V30 17160 H 1681.11 3.41638 -0.337389 0
M  V30 17161 N 1683.56 -0.31543 1.54411 0
M  V30 17162 C 1684.5 -1.3885 1.84362 0
M  V30 17163 C 1685.47 -1.51028 0.69135 0
M  V30 17164 O 1686.66 -1.66119 0.938577 0
M  V30 17165 C 1683.8 -2.75085 2.0838 0
M  V30 17166 C 1682.91 -2.71473 3.36045 0
M  V30 17167 C 1682.05 -3.99608 3.49981 0
M  V30 17168 C 1681.08 -3.90335 4.71492 0
M  V30 17169 N 1680.22 -5.10216 4.82311 0
M  V30 17170 H 1685.06 -1.12609 2.75905 0
M  V30 17171 H 1682.6 -0.54495 1.36633 0
M  V30 17172 H 1684.56 -3.54295 2.20298 0
M  V30 17173 H 1683.19 -2.99618 1.2012 0
M  V30 17174 H 1682.24 -1.84209 3.32823 0
M  V30 17175 H 1683.55 -2.60507 4.25368 0
M  V30 17176 H 1682.7 -4.8725 3.61486 0
M  V30 17177 H 1681.44 -4.1339 2.58766 0
M  V30 17178 H 1680.45 -3.01077 4.60036 0
M  V30 17179 H 1681.67 -3.78111 5.641 0
M  V30 17180 H 1679.62 -5.24489 3.94014 0
M  V30 17181 H 1679.54 -5.01617 5.65612 0
M  V30 17182 H 1680.8 -5.99551 4.98156 0
M  V30 17183 N 1685.03 -1.46622 -0.577906 0
M  V30 17184 C 1686 -1.57126 -1.66865 0
M  V30 17185 C 1687 -0.448004 -1.54433 0
M  V30 17186 O 1688.19 -0.712459 -1.58964 0
M  V30 17187 C 1685.32 -1.49612 -3.06315 0
M  V30 17188 H 1686.51 -2.54338 -1.58909 0
M  V30 17189 H 1684.07 -1.34504 -0.796142 0
M  V30 17190 H 1684.8 -0.536976 -3.19823 0
M  V30 17191 H 1684.59 -2.31113 -3.16748 0
M  V30 17192 H 1686.08 -1.60058 -3.85709 0
M  V30 17193 N 1686.51 0.822941 -1.34408 0
M  V30 17194 C 1687.75 1.59269 -1.28112 0
M  V30 17195 C 1688.12 1.91437 0.146924 0
M  V30 17196 O 1689.32 2.66716 0.334053 0
M  V30 17197 C 1687.59 2.85727 -2.14698 0
M  V30 17198 S 1689.15 3.76272 -2.25754 0
M  V30 17199 H 1685.97 0.545903 -0.455534 0
M  V30 17200 H 1688.57 0.972069 -1.6962 0
M  V30 17201 H 1687.27 2.60092 -3.17459 0
M  V30 17202 H 1686.8 3.52786 -1.74086 0
M  V30 17203 H 1688.82 4.75138 -1.43031 0
M  V30 17204 N 1687.99 1.18137 1.04314 0
M  V30 17205 C 1689.22 1.00002 1.81128 0
M  V30 17206 C 1689.63 -0.451609 1.83319 0
M  V30 17207 O 1688.99 -1.31367 1.26685 0
M  V30 17208 C 1689.04 1.54454 3.26843 0
M  V30 17209 O 1688.76 2.93933 3.24861 0
M  V30 17210 C 1690.26 1.40902 4.20311 0
M  V30 17211 H 1687.48 0.35327 0.570475 0
M  V30 17212 H 1690.03 1.56629 1.31482 0
M  V30 17213 H 1688.18 1.02009 3.73728 0
M  V30 17214 H 1688.6 3.19279 4.16127 0
M  V30 17215 H 1690.07 1.83803 5.205 0
M  V30 17216 H 1690.55 0.357371 4.37744 0
M  V30 17217 H 1691.15 1.92407 3.79288 0
M  V30 17218 N 1689.47 -1.23186 0.98301 0
M  V30 17219 C 1690.4 -2.24044 0.483426 0
M  V30 17220 C 1691.41 -1.57392 -0.416143 0
M  V30 17221 O 1692.6 -1.77141 -0.219861 0
M  V30 17222 C 1689.7 -3.37388 -0.319733 0
M  V30 17223 C 1688.88 -4.33623 0.57359 0
M  V30 17224 C 1687.93 -5.25905 -0.176165 0
M  V30 17225 O 1686.96 -5.67535 0.435099 0
M  V30 17226 N 1688.16 -5.61804 -1.46139 0
M  V30 17227 H 1690.93 -2.67539 1.35066 0
M  V30 17228 H 1688.49 -1.37384 0.856579 0
M  V30 17229 H 1690.48 -3.96103 -0.829719 0
M  V30 17230 H 1689.05 -2.93056 -1.08799 0
M  V30 17231 H 1688.27 -3.73373 1.26437 0
M  V30 17232 H 1689.56 -4.94873 1.18231 0
M  V30 17233 H 1688.96 -5.29936 -1.97949 0
M  V30 17234 H 1687.51 -6.22979 -1.91676 0
M  V30 17235 N 1690.95 -0.754982 -1.38339 0
M  V30 17236 C 1692.36 -0.379276 -1.82807 0
M  V30 17237 C 1692.71 1.09228 -1.62984 0
M  V30 17238 O 1691.83 1.84445 -1.13177 0
M  V30 17239 C 1692.43 -0.681628 -3.31872 0
M  V30 17240 C 1690.99 -0.359183 -3.74682 0
M  V30 17241 C 1690.13 -0.93409 -2.61094 0
M  V30 17242 H 1693.09 -0.951019 -1.27048 0
M  V30 17243 H 1693.11 0.0396803 -3.80479 0
M  V30 17244 H 1692.62 -1.75271 -3.46268 0
M  V30 17245 H 1690.72 0.705257 -3.65865 0
M  V30 17246 H 1690.83 -0.85571 -4.71396 0
M  V30 17247 H 1689.2 -0.359379 -2.52152 0
M  V30 17248 H 1689.98 -2.01023 -2.78289 0
M  V30 17249 N 1692.42 1.49318 -0.504168 0
M  V30 17250 C 1693.84 1.58793 -0.160331 0
M  V30 17251 C 1694.04 1.50906 1.33527 0
M  V30 17252 O 1693.1 1.38466 2.11148 0
M  V30 17253 C 1694.41 2.91454 -0.739945 0
M  V30 17254 C 1695.96 3.04926 -0.706338 0
M  V30 17255 C 1696.43 4.4021 -1.26407 0
M  V30 17256 N 1697.92 4.46711 -1.22491 0
M  V30 17257 C 1698.66 5.49844 -1.62661 0
M  V30 17258 N 1698.15 6.60066 -2.10439 0
M  V30 17259 N 1699.95 5.40576 -1.54058 0
M  V30 17260 H 1692.1 1.52687 -1.4765 0
M  V30 17261 H 1694.36 0.723463 -0.612622 0
M  V30 17262 H 1694.07 3.02802 -1.78896 0
M  V30 17263 H 1693.94 3.76658 -0.202187 0
M  V30 17264 H 1696.33 2.93206 0.333845 0
M  V30 17265 H 1696.41 2.21398 -1.28128 0
M  V30 17266 H 1696.05 4.52683 -2.30305 0
M  V30 17267 H 1695.98 5.22384 -0.665041 0
M  V30 17268 H 1698.47 3.67634 -0.874869 0
M  V30 17269 H 1698.79 7.34865 -2.39153 0
M  V30 17270 H 1697.13 6.61098 -2.14415 0
M  V30 17271 H 1700.32 4.53359 -1.16548 0
M  V30 17272 H 1700.5 6.20826 -1.85687 0
M  V30 17273 N 1693.9 0.238138 1.5579 0
M  V30 17274 C 1695.31 -0.266656 1.84786 0
M  V30 17275 C 1695.66 -1.58248 1.15983 0
M  V30 17276 O 1694.79 -2.11979 0.43518 0
M  V30 17277 C 1695.38 -0.4906 3.35229 0
M  V30 17278 C 1693.94 -0.939672 3.64482 0
M  V30 17279 C 1693.09 -0.0119682 2.77297 0
M  V30 17280 H 1696.04 0.460924 1.51859 0
M  V30 17281 H 1696.06 -1.3344 3.56334 0
M  V30 17282 H 1695.57 0.467239 3.85277 0
M  V30 17283 H 1693.68 -1.91029 3.19904 0
M  V30 17284 H 1693.79 -0.8026 4.72329 0
M  V30 17285 H 1692.15 -0.521767 2.49298 0
M  V30 17286 H 1692.94 0.941085 3.30149 0
M  V30 17287 N 1695.38 -1.57561 -0.0350783 0
M  V30 17288 C 1696.33 -2.07246 -1.05602 0
M  V30 17289 C 1697.32 -0.985013 -1.37818 0
M  V30 17290 O 1698.53 -1.16993 -1.36794 0
M  V30 17291 H 1694.9 -0.661286 -0.358057 0
M  V30 17292 H 1696.87 -2.92075 -0.611124 0
M  V30 17293 C 1695.62 -2.56235 -2.3503 0
M  V30 17294 H 1694.95 -3.39525 -2.111 0
M  V30 17295 H 1696.39 -2.94716 -3.04826 0
M  V30 17296 C 1694.85 -1.46096 -3.03575 0
M  V30 17297 O 1695.38 -0.823772 -3.93163 0
M  V30 17298 N 1693.58 -1.19698 -2.64803 0
M  V30 17299 H 1693.13 -1.71697 -1.92036 0
M  V30 17300 H 1693.09 -0.462174 -3.10984 0
M  V30 17301 N 1696.86 0.307236 -1.54576 0
M  V30 17302 C 1698.09 1.06079 -1.77287 0
M  V30 17303 C 1698.5 1.81643 -0.529395 0
M  V30 17304 O 1697.84 1.76474 0.510149 0
M  V30 17305 C 1697.9 2.09234 -2.92338 0
M  V30 17306 C 1697.57 1.52922 -4.30655 0
M  V30 17307 C 1698.56 0.962487 -5.10913 0
M  V30 17308 C 1696.25 1.56673 -4.77241 0
M  V30 17309 C 1698.24 0.44075 -6.35874 0
M  V30 17310 C 1695.93 1.04112 -6.02166 0
M  V30 17311 C 1696.93 0.479095 -6.81318 0
M  V30 17312 O 1696.61 -0.0385602 -8.03891 0
M  V30 17313 H 1696.35 0.320647 -0.595114 0
M  V30 17314 H 1698.9 0.353984 -2.02327 0
M  V30 17315 H 1697.13 2.83578 -2.62908 0
M  V30 17316 H 1698.82 2.70441 -3.02682 0
M  V30 17317 H 1699.59 0.926457 -4.76069 0
M  V30 17318 H 1695.46 1.99357 -4.15665 0
M  V30 17319 H 1699.01 0.00141848 -6.976 0
M  V30 17320 H 1694.91 1.07428 -6.36498 0
M  V30 17321 H 1695.67 0.0753282 -8.18465 0
M  V30 17322 N 1698.34 1.46926 0.570122 0
M  V30 17323 C 1699.3 1.58009 1.6603 0
M  V30 17324 C 1700.3 0.456188 1.54193 0
M  V30 17325 O 1701.49 0.720879 1.58584 0
M  V30 17326 C 1698.62 1.51235 3.05517 0
M  V30 17327 H 1699.81 2.55178 1.57558 0
M  V30 17328 H 1697.37 1.34924 0.788998 0
M  V30 17329 H 1698.1 0.553929 3.19534 0
M  V30 17330 H 1697.89 2.3279 3.15518 0
M  V30 17331 H 1699.38 1.62101 3.84854 0
M  V30 17332 N 1699.82 -0.815801 1.34842 0
M  V30 17333 C 1701.04 -1.60915 1.30848 0
M  V30 17334 C 1701.47 -1.87758 -0.113345 0
M  V30 17335 O 1700.82 -1.4582 -1.07732 0
M  V30 17336 C 1700.87 -2.92284 2.11192 0
M  V30 17337 O 1699.98 -3.84685 1.48632 0
M  V30 17338 H 1699.32 -0.48913 0.449052 0
M  V30 17339 H 1701.85 -1.01322 1.7775 0
M  V30 17340 H 1701.86 -3.41789 2.2281 0
M  V30 17341 H 1700.53 -2.72071 3.14563 0
M  V30 17342 H 1699.11 -3.43215 1.458 0
M  V30 17343 N 1701.29 -1.18689 -1.03686 0
M  V30 17344 C 1702.24 -0.91384 -2.13897 0
M  V30 17345 C 1703.24 0.127333 -1.68921 0
M  V30 17346 O 1704.44 -0.0211711 -1.79988 0
M  V30 17347 H 1700.82 -0.278067 -0.698701 0
M  V30 17348 H 1702.79 -1.85013 -2.34122 0
M  V30 17349 C 1701.54 -0.460259 -3.4464 0
M  V30 17350 H 1700.86 -1.25294 -3.7966 0
M  V30 17351 H 1702.3 -0.308239 -4.22878 0
M  V30 17352 C 1700.76 0.824485 -3.26656 0
M  V30 17353 O 1701.29 1.8878 -3.54577 0
M  V30 17354 N 1699.49 0.778588 -2.79976 0
M  V30 17355 H 1699.04 -0.0869543 -2.57453 0
M  V30 17356 H 1699 1.6386 -2.68323 0
M  V30 17357 N 1702.77 1.22662 -0.989529 0
M  V30 17358 C 1704.02 1.91322 -0.663497 0
M  V30 17359 C 1704.35 1.77102 0.804057 0
M  V30 17360 O 1703.6 1.13169 1.5966 0
M  V30 17361 C 1703.9 3.428 -1.01109 0
M  V30 17362 C 1703.57 3.77206 -2.47035 0
M  V30 17363 C 1702.23 3.86308 -2.86914 0
M  V30 17364 C 1704.58 3.93617 -3.41636 0
M  V30 17365 C 1701.91 4.09255 -4.20389 0
M  V30 17366 C 1704.26 4.18067 -4.74766 0
M  V30 17367 C 1702.92 4.25392 -5.14391 0
M  V30 17368 H 1702.19 0.700095 -0.242791 0
M  V30 17369 H 1704.84 1.45498 -1.24509 0
M  V30 17370 H 1703.15 3.90256 -0.347533 0
M  V30 17371 H 1704.84 3.94171 -0.736909 0
M  V30 17372 H 1701.43 3.70702 -2.15123 0
M  V30 17373 H 1705.62 3.85966 -3.12 0
M  V30 17374 H 1700.87 4.13152 -4.50683 0
M  V30 17375 H 1705.05 4.29708 -5.48018 0
M  V30 17376 H 1702.67 4.42926 -6.17835 0
M  V30 17377 N 1704.25 0.762308 1.37937 0
M  V30 17378 C 1705.47 0.332217 2.04722 0
M  V30 17379 C 1705.9 -1.03417 1.57119 0
M  V30 17380 O 1705.26 -1.6608 0.727117 0
M  V30 17381 C 1705.31 0.373899 3.58656 0
M  V30 17382 O 1704.41 -0.629024 4.07575 0
M  V30 17383 H 1703.75 0.145471 0.647869 0
M  V30 17384 H 1706.28 1.03586 1.7644 0
M  V30 17385 H 1706.29 0.22785 4.07363 0
M  V30 17386 H 1704.97 1.37079 3.92661 0
M  V30 17387 H 1703.54 -0.446871 3.70213 0
M  V30 17388 N 1705.73 -1.49049 0.51208 0
M  V30 17389 C 1706.97 -2.0278 -0.0285311 0
M  V30 17390 C 1707.31 -1.39003 -1.35617 0
M  V30 17391 O 1706.58 -0.52952 -1.87153 0
M  V30 17392 C 1706.86 -3.59701 -0.169433 0
M  V30 17393 C 1706.72 -4.33989 1.18211 0
M  V30 17394 C 1708.04 -4.30698 -0.904812 0
M  V30 17395 H 1705.16 -0.736946 -0.00889467 0
M  V30 17396 H 1707.8 -1.77959 0.66564 0
M  V30 17397 H 1705.95 -3.8098 -0.760667 0
M  V30 17398 H 1707.62 -4.24176 1.81307 0
M  V30 17399 H 1705.86 -3.9611 1.76859 0
M  V30 17400 H 1706.53 -5.42177 1.03671 0
M  V30 17401 H 1709.01 -4.14141 -0.40327 0
M  V30 17402 H 1707.89 -5.40221 -0.972264 0
M  V30 17403 H 1708.15 -3.96718 -1.95108 0
M  V30 17404 N 1707.21 -0.246397 -1.55662 0
M  V30 17405 C 1708.45 0.378973 -1.98108 0
M  V30 17406 C 1708.77 1.59106 -1.13775 0
M  V30 17407 O 1709.97 2.28754 -1.46232 0
M  V30 17408 C 1708.43 0.725634 -3.52509 0
M  V30 17409 C 1708.04 -0.465024 -4.4558 0
M  V30 17410 C 1709.78 1.31522 -4.03611 0
M  V30 17411 C 1707.69 -0.0945447 -5.91324 0
M  V30 17412 H 1706.62 0.14537 -0.739854 0
M  V30 17413 H 1709.27 -0.346533 -1.80198 0
M  V30 17414 H 1707.65 1.50925 -3.66111 0
M  V30 17415 H 1708.83 -1.24236 -4.43736 0
M  V30 17416 H 1707.14 -0.969507 -4.04956 0
M  V30 17417 H 1709.74 1.60573 -5.1002 0
M  V30 17418 H 1710.08 2.23952 -3.50929 0
M  V30 17419 H 1710.61 0.594515 -3.93332 0
M  V30 17420 H 1707.35 -0.985965 -6.48042 0
M  V30 17421 H 1706.87 0.646601 -5.96305 0
M  V30 17422 H 1708.55 0.323447 -6.46191 0
M  V30 17423 N 1708.68 1.57577 0.026722 0
M  V30 17424 C 1709.93 1.89005 0.715645 0
M  V30 17425 C 1710.25 0.844388 1.7577 0
M  V30 17426 O 1709.52 -0.121693 1.95522 0
M  V30 17427 H 1708.1 0.697535 0.267308 0
M  V30 17428 H 1710.76 1.94898 -0.00788096 0
M  V30 17429 H 1709.86 2.87952 1.20374 0
M  V30 17430 N 1710.16 -0.299034 1.54737 0
M  V30 17431 C 1711.12 -1.35199 1.85078 0
M  V30 17432 C 1712.12 -1.4359 0.723788 0
M  V30 17433 O 1713.31 -1.43191 0.992067 0
M  V30 17434 C 1710.45 -2.73659 2.03282 0
M  V30 17435 H 1711.64 -1.09538 2.7918 0
M  V30 17436 H 1709.19 -0.535803 1.46829 0
M  V30 17437 H 1709.93 -3.04539 1.11475 0
M  V30 17438 H 1709.71 -2.68959 2.85313 0
M  V30 17439 H 1711.2 -3.49787 2.28119 0
M  V30 17440 N 1711.64 -1.47227 -0.562322 0
M  V30 17441 C 1713.06 -1.32632 -0.887745 0
M  V30 17442 C 1713.26 -0.312972 -1.99055 0
M  V30 17443 O 1712.31 0.277309 -2.50973 0
M  V30 17444 C 1713.62 -2.71822 -1.28581 0
M  V30 17445 C 1715.17 -2.80068 -1.39753 0
M  V30 17446 C 1715.65 -4.19887 -1.82917 0
M  V30 17447 N 1717.14 -4.22404 -1.90077 0
M  V30 17448 C 1717.87 -5.27499 -2.24793 0
M  V30 17449 N 1717.37 -6.42904 -2.58159 0
M  V30 17450 N 1719.16 -5.14874 -2.25523 0
M  V30 17451 H 1711.31 -2.11752 0.165835 0
M  V30 17452 H 1713.58 -0.94793 0.0115238 0
M  V30 17453 H 1713.28 -3.47383 -0.549361 0
M  V30 17454 H 1713.16 -3.0326 -2.24306 0
M  V30 17455 H 1715.54 -2.04783 -2.1248 0
M  V30 17456 H 1715.62 -2.5229 -0.422286 0
M  V30 17457 H 1715.27 -4.95676 -1.10761 0
M  V30 17458 H 1715.2 -4.45086 -2.81436 0
M  V30 17459 H 1717.69 -3.39146 -1.66698 0
M  V30 17460 H 1718 -7.18857 -2.83662 0
M  V30 17461 H 1716.35 -6.46232 -2.55751 0
M  V30 17462 H 1719.54 -4.23745 -1.98892 0
M  V30 17463 H 1719.71 -5.96887 -2.5225 0
M  V30 17464 N 1713.12 0.808639 -1.35273 0
M  V30 17465 C 1714.03 1.95198 -1.30134 0
M  V30 17466 C 1715.04 1.72769 -0.206587 0
M  V30 17467 O 1716.22 1.96633 -0.4356 0
M  V30 17468 C 1713.28 3.29747 -1.07087 0
M  V30 17469 C 1712.35 3.65086 -2.25855 0
M  V30 17470 C 1711.58 4.93215 -2.03898 0
M  V30 17471 O 1711.8 5.61487 -1.00439 0
M  V30 17472 O 1710.74 5.26765 -2.91208 0
M  V30 17473 H 1714.56 2.0248 -2.26353 0
M  V30 17474 H 1712.15 0.946124 -1.15624 0
M  V30 17475 H 1714.03 4.10302 -0.960734 0
M  V30 17476 H 1712.7 3.23401 -0.139177 0
M  V30 17477 H 1711.61 2.84917 -2.42432 0
M  V30 17478 H 1712.94 3.76135 -3.17464 0
M  V30 17479 N 1714.6 1.19237 1.03055 0
M  V30 17480 C 1715.51 0.943876 2.14775 0
M  V30 17481 C 1716.52 -0.0955384 1.73738 0
M  V30 17482 O 1717.7 0.0887187 2.01204 0
M  V30 17483 C 1714.76 0.48402 3.43305 0
M  V30 17484 C 1713.82 1.59262 3.98665 0
M  V30 17485 C 1713.06 1.15461 5.21061 0
M  V30 17486 O 1713.28 0.0174841 5.70397 0
M  V30 17487 O 1712.21 1.95648 5.69215 0
M  V30 17488 H 1716.04 1.87894 2.38599 0
M  V30 17489 H 1713.63 0.975046 1.13195 0
M  V30 17490 H 1715.51 0.236135 4.20738 0
M  V30 17491 H 1714.18 -0.422626 3.20929 0
M  V30 17492 H 1713.09 1.89464 3.22574 0
M  V30 17493 H 1714.42 2.47576 4.25402 0
M  V30 17494 N 1716.07 -1.22136 0.99602 0
M  V30 17495 C 1717.49 -1.43072 0.707285 0
M  V30 17496 C 1717.69 -1.88163 -0.720906 0
M  V30 17497 O 1716.75 -2.03747 -1.49142 0
M  V30 17498 C 1718.06 -2.46963 1.71551 0
M  V30 17499 C 1719.61 -2.60758 1.73131 0
M  V30 17500 C 1720.08 -3.67873 2.72825 0
M  V30 17501 N 1721.57 -3.75334 2.71438 0
M  V30 17502 C 1722.31 -4.57817 3.45241 0
M  V30 17503 N 1721.8 -5.44268 4.28654 0
M  V30 17504 N 1723.6 -4.52157 3.33932 0
M  V30 17505 H 1715.75 -0.911751 1.91836 0
M  V30 17506 H 1718.01 -0.462523 0.827512 0
M  V30 17507 H 1717.72 -2.20784 2.73765 0
M  V30 17508 H 1717.59 -3.45618 1.51089 0
M  V30 17509 H 1719.98 -2.86279 0.716132 0
M  V30 17510 H 1720.06 -1.62367 1.97663 0
M  V30 17511 H 1719.7 -3.43098 3.74494 0
M  V30 17512 H 1719.63 -4.6584 2.45562 0
M  V30 17513 H 1722.12 -3.13566 2.10915 0
M  V30 17514 H 1722.44 -6.04236 4.81786 0
M  V30 17515 H 1720.78 -5.43839 4.3274 0
M  V30 17516 H 1723.97 -3.83645 2.68206 0
M  V30 17517 H 1724.15 -5.16207 3.91707 0
M  V30 17518 N 1717.55 -0.769612 -1.37531 0
M  V30 17519 C 1718.8 -0.332309 -1.99349 0
M  V30 17520 C 1719.12 1.09432 -1.61399 0
M  V30 17521 O 1718.39 1.75102 -0.878415 0
M  V30 17522 H 1716.97 -0.119879 -0.737318 0
M  V30 17523 H 1719.63 -0.987265 -1.68045 0
M  V30 17524 H 1718.73 -0.408233 -3.09419 0
M  V30 17525 N 1719.03 1.48775 -0.519977 0
M  V30 17526 C 1720.28 2.02792 0.0177768 0
M  V30 17527 C 1720.61 1.3972 1.34878 0
M  V30 17528 O 1719.88 0.539438 1.8687 0
M  V30 17529 C 1720.17 3.59786 0.150355 0
M  V30 17530 C 1720.02 4.33356 -1.20511 0
M  V30 17531 C 1721.34 4.31172 0.881959 0
M  V30 17532 H 1718.46 0.736983 0.00498634 0
M  V30 17533 H 1721.1 1.77603 -0.675069 0
M  V30 17534 H 1719.25 3.81378 0.740452 0
M  V30 17535 H 1720.92 4.23209 -1.83554 0
M  V30 17536 H 1719.17 3.95167 -1.78957 0
M  V30 17537 H 1719.84 5.4162 -1.06544 0
M  V30 17538 H 1722.31 4.14349 0.381302 0
M  V30 17539 H 1721.19 5.40729 0.943601 0
M  V30 17540 H 1721.45 3.97747 1.93001 0
M  V30 17541 N 1720.51 0.254649 1.55529 0
M  V30 17542 C 1721.92 -0.100019 1.59286 0
M  V30 17543 C 1722.12 -1.56289 1.27185 0
M  V30 17544 O 1721.18 -2.30854 1.02287 0
M  V30 17545 C 1722.49 0.256158 2.99607 0
M  V30 17546 C 1724.04 0.201091 3.12353 0
M  V30 17547 C 1724.52 0.531411 4.54907 0
M  V30 17548 N 1726.01 0.482199 4.60683 0
M  V30 17549 C 1726.74 0.710848 5.68977 0
M  V30 17550 N 1726.24 1.00304 6.85501 0
M  V30 17551 N 1728.03 0.641029 5.58433 0
M  V30 17552 H 1720.18 1.20856 1.74664 0
M  V30 17553 H 1722.45 0.486824 0.813453 0
M  V30 17554 H 1722.15 1.27275 3.27863 0
M  V30 17555 H 1722.03 -0.412994 3.74932 0
M  V30 17556 H 1724.41 -0.806189 2.83874 0
M  V30 17557 H 1724.49 0.904206 2.39286 0
M  V30 17558 H 1724.14 1.53628 4.84108 0
M  V30 17559 H 1724.07 -0.193269 5.26245 0
M  V30 17560 H 1726.56 0.265409 3.76967 0
M  V30 17561 H 1726.87 1.16472 7.63973 0
M  V30 17562 H 1725.22 1.04059 6.87166 0
M  V30 17563 H 1728.41 0.412751 4.66277 0
M  V30 17564 H 1728.58 0.822617 6.42757 0
M  V30 17565 N 1721.99 -1.57589 -0.0183649 0
M  V30 17566 C 1722.95 -2.06217 -1.00035 0
M  V30 17567 C 1723.95 -0.968195 -1.28385 0
M  V30 17568 O 1725.14 -1.23147 -1.23209 0
M  V30 17569 C 1722.27 -2.48815 -2.33032 0
M  V30 17570 H 1723.46 -2.94236 -0.580085 0
M  V30 17571 H 1721.02 -1.5403 -0.265438 0
M  V30 17572 H 1721.75 -1.63985 -2.79785 0
M  V30 17573 H 1721.54 -3.28694 -2.13781 0
M  V30 17574 H 1723.03 -2.86828 -3.03512 0
M  V30 17575 N 1723.46 0.290824 -1.54893 0
M  V30 17576 C 1724.88 0.86313 -1.6555 0
M  V30 17577 C 1725.23 1.87713 -0.570806 0
M  V30 17578 O 1724.35 2.14437 0.290826 0
M  V30 17579 C 1724.95 1.57231 -3.00107 0
M  V30 17580 C 1723.51 2.09288 -3.1285 0
M  V30 17581 C 1722.65 0.928933 -2.61278 0
M  V30 17582 H 1725.6 0.0675807 -1.58556 0
M  V30 17583 H 1725.62 2.43841 -2.92099 0
M  V30 17584 H 1725.14 0.834055 -3.79032 0
M  V30 17585 H 1723.24 2.86129 -2.38665 0
M  V30 17586 H 1723.35 2.32042 -4.19158 0
M  V30 17587 H 1721.71 1.31735 -2.17986 0
M  V30 17588 H 1722.5 0.204475 -3.42691 0
M  V30 17589 N 1724.94 1.47523 0.554506 0
M  V30 17590 C 1726.17 1.58154 1.34172 0
M  V30 17591 C 1726.59 0.233124 1.8665 0
M  V30 17592 O 1725.95 -0.791439 1.63113 0
M  V30 17593 C 1726 2.61242 2.48566 0
M  V30 17594 O 1725.1 2.167 3.50877 0
M  V30 17595 H 1724.44 0.531184 0.398421 0
M  V30 17596 H 1726.97 1.93324 0.669841 0
M  V30 17597 H 1726.98 2.81746 2.95098 0
M  V30 17598 H 1725.66 3.59148 2.09727 0
M  V30 17599 H 1724.24 2.06305 3.10632 0
M  V30 17600 N 1726.42 -0.801453 1.357 0
M  V30 17601 C 1727.67 -1.55879 1.2926 0
M  V30 17602 C 1728 -1.94055 -0.131552 0
M  V30 17603 O 1727.25 -1.61993 -1.09803 0
M  V30 17604 C 1727.55 -2.85531 2.14957 0
M  V30 17605 C 1727.22 -2.6655 3.63679 0
M  V30 17606 C 1725.88 -2.61081 4.04216 0
M  V30 17607 C 1728.23 -2.48725 4.58023 0
M  V30 17608 C 1725.56 -2.35737 5.37257 0
M  V30 17609 C 1727.91 -2.2491 5.91268 0
M  V30 17610 C 1726.57 -2.17867 6.30944 0
M  V30 17611 H 1725.84 -0.570401 0.472994 0
M  V30 17612 H 1728.49 -0.925627 1.67644 0
M  V30 17613 H 1726.8 -3.53252 1.69471 0
M  V30 17614 H 1728.49 -3.43256 2.07307 0
M  V30 17615 H 1725.08 -2.71656 3.31513 0
M  V30 17616 H 1729.27 -2.51959 4.27587 0
M  V30 17617 H 1724.52 -2.28758 5.66992 0
M  V30 17618 H 1728.7 -2.1011 6.63948 0
M  V30 17619 H 1726.32 -1.97991 7.33964 0
M  V30 17620 N 1727.9 -1.19782 -1.02421 0
M  V30 17621 C 1728.86 -0.941631 -2.08964 0
M  V30 17622 C 1729.86 0.0797747 -1.60602 0
M  V30 17623 O 1731.05 -0.155473 -1.73505 0
M  V30 17624 C 1728.18 -0.416114 -3.38351 0
M  V30 17625 H 1729.38 -1.88661 -2.33125 0
M  V30 17626 H 1726.93 -1.01212 -1.19104 0
M  V30 17627 H 1727.66 0.53469 -3.19862 0
M  V30 17628 H 1727.45 -1.15262 -3.74776 0
M  V30 17629 H 1728.94 -0.256114 -4.16814 0
M  V30 17630 N 1729.38 1.21606 -1.00248 0
M  V30 17631 C 1730.31 2.23246 -0.519009 0
M  V30 17632 C 1731.32 1.58034 0.391051 0
M  V30 17633 O 1732.51 1.77468 0.191652 0
M  V30 17634 C 1729.61 3.37854 0.266017 0
M  V30 17635 C 1728.78 4.32655 -0.642503 0
M  V30 17636 C 1727.84 5.26119 0.0924758 0
M  V30 17637 O 1726.87 5.66771 -0.525333 0
M  V30 17638 N 1728.07 5.64058 1.37183 0
M  V30 17639 H 1730.84 2.65357 -1.39305 0
M  V30 17640 H 1728.4 1.36004 -0.878327 0
M  V30 17641 H 1730.39 3.97373 0.766598 0
M  V30 17642 H 1728.96 2.94749 1.04123 0
M  V30 17643 H 1728.18 3.71314 -1.32361 0
M  V30 17644 H 1729.47 4.92929 -1.26089 0
M  V30 17645 H 1728.87 5.33018 1.89493 0
M  V30 17646 H 1727.42 6.2595 1.81741 0
M  V30 17647 N 1730.86 0.776895 1.37121 0
M  V30 17648 C 1731.8 0.164838 2.30211 0
M  V30 17649 C 1732.77 -0.684137 1.51356 0
M  V30 17650 O 1733.96 -0.635428 1.79908 0
M  V30 17651 C 1731.1 -0.704263 3.37837 0
M  V30 17652 C 1730.21 0.161881 4.31697 0
M  V30 17653 C 1729.35 -0.712411 5.26401 0
M  V30 17654 C 1728.38 0.155953 6.11901 0
M  V30 17655 N 1727.52 -0.676607 6.98832 0
M  V30 17656 H 1732.36 0.964185 2.81971 0
M  V30 17657 H 1729.9 0.487065 1.38802 0
M  V30 17658 H 1731.86 -1.22302 3.98871 0
M  V30 17659 H 1730.49 -1.46916 2.87429 0
M  V30 17660 H 1729.54 0.798491 3.71925 0
M  V30 17661 H 1730.85 0.831496 4.91821 0
M  V30 17662 H 1730 -1.29745 5.92664 0
M  V30 17663 H 1728.74 -1.41569 4.66701 0
M  V30 17664 H 1727.75 0.753493 5.44612 0
M  V30 17665 H 1728.97 0.856645 6.73675 0
M  V30 17666 H 1726.92 -1.36441 6.41654 0
M  V30 17667 H 1726.84 -0.0644017 7.55973 0
M  V30 17668 H 1728.1 -1.24588 7.69479 0
M  V30 17669 N 1732.33 -1.48497 0.527859 0
M  V30 17670 C 1733.74 -1.86498 0.0868541 0
M  V30 17671 C 1734.1 -1.43763 -1.33517 0
M  V30 17672 O 1733.22 -0.827397 -1.99958 0
M  V30 17673 C 1733.82 -3.38464 0.150843 0
M  V30 17674 C 1732.37 -3.75666 -0.234956 0
M  V30 17675 C 1731.52 -2.72541 0.511549 0
M  V30 17676 H 1734.47 -1.40432 0.739223 0
M  V30 17677 H 1734.49 -3.75114 -0.637972 0
M  V30 17678 H 1734.01 -3.69537 1.18592 0
M  V30 17679 H 1732.11 -3.50206 -1.27225 0
M  V30 17680 H 1732.22 -4.78989 0.103178 0
M  V30 17681 H 1730.58 -2.54665 -0.0419281 0
M  V30 17682 H 1731.37 -3.06457 1.54722 0
M  V30 17683 N 1733.81 -0.262893 -1.55392 0
M  V30 17684 C 1734.76 0.629853 -2.22039 0
M  V30 17685 C 1735.73 1.15915 -1.18966 0
M  V30 17686 O 1736.91 1.21069 -1.47468 0
M  V30 17687 C 1734.05 1.8138 -2.9359 0
M  V30 17688 C 1733.17 1.31952 -4.11355 0
M  V30 17689 C 1732.3 2.4643 -4.7058 0
M  V30 17690 C 1731.34 1.93944 -5.80562 0
M  V30 17691 N 1730.48 3.01848 -6.33902 0
M  V30 17692 H 1735.32 0.0548473 -2.9795 0
M  V30 17693 H 1732.85 0.0153072 -1.47092 0
M  V30 17694 H 1734.81 2.50955 -3.33283 0
M  V30 17695 H 1733.44 2.36103 -2.20125 0
M  V30 17696 H 1732.49 0.517281 -3.76866 0
M  V30 17697 H 1733.81 0.894993 -4.90705 0
M  V30 17698 H 1732.96 3.2402 -5.12929 0
M  V30 17699 H 1731.7 2.92193 -3.9048 0
M  V30 17700 H 1730.7 1.1483 -5.37675 0
M  V30 17701 H 1731.93 1.49132 -6.62523 0
M  V30 17702 H 1729.88 3.47015 -5.56701 0
M  V30 17703 H 1729.79 2.63775 -7.08491 0
M  V30 17704 H 1731.06 3.79449 -6.8091 0
M  V30 17705 N 1735.29 1.57597 0.0100073 0
M  V30 17706 C 1736.54 1.90411 0.697968 0
M  V30 17707 C 1736.87 0.862924 1.73975 0
M  V30 17708 O 1736.14 -0.119646 1.94132 0
M  V30 17709 C 1736.43 3.33828 1.35022 0
M  V30 17710 C 1736.28 4.48656 0.320659 0
M  V30 17711 C 1737.6 3.7649 2.27911 0
M  V30 17712 H 1734.72 0.692482 0.252266 0
M  V30 17713 H 1737.36 1.89959 -0.0392325 0
M  V30 17714 H 1735.51 3.34343 1.97856 0
M  V30 17715 H 1737.18 4.60276 -0.30723 0
M  V30 17716 H 1735.42 4.32319 -0.358128 0
M  V30 17717 H 1736.1 5.45937 0.815891 0
M  V30 17718 H 1738.57 3.77463 1.75104 0
M  V30 17719 H 1737.45 4.77609 2.70519 0
M  V30 17720 H 1737.71 3.09801 3.15398 0
M  V30 17721 N 1736.77 -0.282606 1.55045 0
M  V30 17722 C 1737.99 -1.03825 1.79542 0
M  V30 17723 C 1738.42 -1.79503 0.562165 0
M  V30 17724 O 1737.78 -1.7461 -0.487946 0
M  V30 17725 C 1737.82 -1.98007 3.01373 0
M  V30 17726 O 1736.93 -3.06621 2.75785 0
M  V30 17727 H 1736.27 -0.297333 0.593708 0
M  V30 17728 H 1738.8 -0.314434 2.02169 0
M  V30 17729 H 1738.81 -2.40138 3.29845 0
M  V30 17730 H 1737.48 -1.42335 3.90786 0
M  V30 17731 H 1736.06 -2.68874 2.58382 0
M  V30 17732 N 1738.25 -1.47815 -0.546675 0
M  V30 17733 C 1739.16 -1.63744 -1.68003 0
M  V30 17734 C 1740.17 -0.520118 -1.66044 0
M  V30 17735 O 1741.35 -0.789033 -1.853 0
M  V30 17736 C 1738.41 -1.65778 -3.04497 0
M  V30 17737 C 1737.47 -2.89015 -3.17441 0
M  V30 17738 C 1736.71 -2.90943 -4.47424 0
M  V30 17739 O 1736.93 -2.01769 -5.33522 0
M  V30 17740 O 1735.86 -3.82927 -4.64382 0
M  V30 17741 H 1739.69 -2.59665 -1.57505 0
M  V30 17742 H 1737.27 -1.31022 -0.717883 0
M  V30 17743 H 1739.16 -1.69734 -3.85705 0
M  V30 17744 H 1737.83 -0.730268 -3.15355 0
M  V30 17745 H 1736.74 -2.90599 -2.35591 0
M  V30 17746 H 1738.07 -3.81095 -3.11492 0
M  V30 17747 N 1739.72 0.794246 -1.36123 0
M  V30 17748 C 1740.67 1.92808 -1.30108 0
M  V30 17749 C 1741.67 1.68289 -0.193734 0
M  V30 17750 O 1742.87 1.76354 -0.360454 0
M  V30 17751 H 1739.25 0.633671 -0.404926 0
M  V30 17752 H 1741.22 1.95 -2.2587 0
M  V30 17753 C 1739.97 3.29762 -1.10238 0
M  V30 17754 H 1739.29 3.49193 -1.9469 0
M  V30 17755 H 1740.73 4.09463 -1.10073 0
M  V30 17756 C 1739.19 3.36345 0.193222 0
M  V30 17757 O 1739.72 3.83832 1.18474 0
M  V30 17758 N 1737.92 2.89638 0.236243 0
M  V30 17759 H 1737.47 2.51186 -0.571245 0
M  V30 17760 H 1737.43 2.94424 1.1028 0
M  V30 17761 N 1741.2 1.20323 1.01785 0
M  V30 17762 C 1742.48 0.921703 1.72522 0
M  V30 17763 C 1742.86 -0.569838 2.03264 0
M  V30 17764 O 1742.21 -1.53115 1.69611 0
M  V30 17765 C 1742.42 1.79335 2.99399 0
M  V30 17766 C 1743.76 2.03442 3.72688 0
M  V30 17767 O 1744.79 1.76578 3.09352 0
M  V30 17768 O 1743.65 2.48803 4.86579 0
M  V30 17769 H 1740.74 0.344505 0.751828 0
M  V30 17770 H 1743.29 1.31191 1.07644 0
M  V30 17771 H 1742.06 2.80339 2.72994 0
M  V30 17772 H 1741.68 1.40314 3.72018 0
M  V30 17773 N 1742.68 -1.21073 1.00892 0
M  V30 17774 C 1743.93 -1.90242 0.693851 0
M  V30 17775 C 1744.25 -1.78359 -0.77578 0
M  V30 17776 O 1743.51 -1.15694 -1.57839 0
M  V30 17777 C 1743.81 -3.41148 1.0655 0
M  V30 17778 C 1743.47 -3.73228 2.53005 0
M  V30 17779 C 1742.14 -3.81694 2.93024 0
M  V30 17780 C 1744.49 -3.88132 3.47855 0
M  V30 17781 C 1741.82 -4.02515 4.26847 0
M  V30 17782 C 1744.17 -4.10461 4.81357 0
M  V30 17783 C 1742.83 -4.17155 5.21093 0
M  V30 17784 H 1742.1 -0.696144 0.253898 0
M  V30 17785 H 1744.75 -1.43499 1.26808 0
M  V30 17786 H 1743.05 -3.89653 0.409575 0
M  V30 17787 H 1744.75 -3.92949 0.799525 0
M  V30 17788 H 1741.34 -3.67233 2.20994 0
M  V30 17789 H 1745.53 -3.80954 3.18101 0
M  V30 17790 H 1740.78 -4.0593 4.57199 0
M  V30 17791 H 1744.96 -4.20935 5.54785 0
M  V30 17792 H 1742.58 -4.33041 6.24804 0
M  V30 17793 N 1744.16 -0.784156 -1.36707 0
M  V30 17794 C 1745.07 -0.179959 -2.33909 0
M  V30 17795 C 1746.08 0.665092 -1.60787 0
M  V30 17796 O 1747.26 0.582111 -1.92804 0
M  V30 17797 C 1744.33 0.679323 -3.3998 0
M  V30 17798 C 1743.39 -0.183618 -4.28907 0
M  V30 17799 C 1742.62 0.634747 -5.29912 0
M  V30 17800 O 1742.84 1.87107 -5.38839 0
M  V30 17801 O 1741.78 0.0374113 -6.01888 0
M  V30 17802 H 1745.6 -0.983499 -2.87334 0
M  V30 17803 H 1743.19 -0.545521 -1.39084 0
M  V30 17804 H 1745.07 1.16948 -4.04847 0
M  V30 17805 H 1743.74 1.46084 -2.88862 0
M  V30 17806 H 1742.65 -0.720419 -3.67098 0
M  V30 17807 H 1743.98 -0.928522 -4.83363 0
M  V30 17808 N 1745.64 1.48215 -0.535727 0
M  V30 17809 C 1746.91 1.95505 0.0609376 0
M  V30 17810 C 1747.29 1.47806 1.5072 0
M  V30 17811 O 1746.64 0.707142 2.17283 0
M  V30 17812 C 1746.85 3.48944 -0.0622609 0
M  V30 17813 C 1748.2 4.24496 0.0940805 0
M  V30 17814 O 1749.22 3.56198 0.0112532 0
M  V30 17815 O 1748.08 5.4584 0.268547 0
M  V30 17816 H 1745.18 0.82349 0.0761079 0
M  V30 17817 H 1747.72 1.58711 -0.600732 0
M  V30 17818 H 1746.49 3.76401 -1.06949 0
M  V30 17819 H 1746.12 3.92448 0.637999 0
M  V30 17820 N 1747.11 0.27113 1.5525 0
M  V30 17821 C 1748.04 -0.61179 2.25343 0
M  V30 17822 C 1749.03 -1.16208 1.24216 0
M  V30 17823 O 1750.21 -1.19696 1.52927 0
M  V30 17824 C 1747.34 -1.7978 2.97147 0
M  V30 17825 C 1746.29 -1.37922 4.05169 0
M  V30 17826 C 1745.62 -2.64801 4.64526 0
M  V30 17827 C 1746.92 -0.532357 5.1958 0
M  V30 17828 H 1748.61 -0.0272538 2.99388 0
M  V30 17829 H 1746.16 -0.0116681 1.43995 0
M  V30 17830 H 1748.11 -2.42132 3.44891 0
M  V30 17831 H 1746.84 -2.40811 2.20631 0
M  V30 17832 H 1745.5 -0.778918 3.5823 0
M  V30 17833 H 1745.14 -3.24081 3.84682 0
M  V30 17834 H 1744.84 -2.37507 5.37461 0
M  V30 17835 H 1746.37 -3.28009 5.15017 0
M  V30 17836 H 1747.78 -1.06078 5.63401 0
M  V30 17837 H 1746.18 -0.35447 5.99052 0
M  V30 17838 H 1747.25 0.44981 4.82809 0
M  V30 17839 N 1748.59 -1.576 -0.00164943 0
M  V30 17840 C 1749.52 -2.11354 -0.992554 0
M  V30 17841 C 1750.5 -1.0223 -1.35952 0
M  V30 17842 O 1751.69 -1.29904 -1.44356 0
M  V30 17843 C 1748.82 -2.61549 -2.28494 0
M  V30 17844 C 1747.77 -3.75185 -2.05962 0
M  V30 17845 C 1747.1 -4.11688 -3.412 0
M  V30 17846 C 1748.4 -5.02526 -1.42355 0
M  V30 17847 H 1750.09 -2.94398 -0.544986 0
M  V30 17848 H 1747.64 -1.4162 -0.260702 0
M  V30 17849 H 1749.59 -2.97782 -2.98168 0
M  V30 17850 H 1748.32 -1.75625 -2.75361 0
M  V30 17851 H 1746.97 -3.39343 -1.38714 0
M  V30 17852 H 1746.62 -3.22789 -3.85767 0
M  V30 17853 H 1746.32 -4.88246 -3.2694 0
M  V30 17854 H 1747.85 -4.50478 -4.12192 0
M  V30 17855 H 1749.26 -5.3654 -2.01984 0
M  V30 17856 H 1747.66 -5.83878 -1.38589 0
M  V30 17857 H 1748.73 -4.83308 -0.392565 0
M  V30 17858 N 1750.07 0.274379 -1.55193 0
M  V30 17859 C 1751.3 1.02871 -1.8009 0
M  V30 17860 C 1751.72 1.79202 -0.571676 0
M  V30 17861 O 1751.08 1.74867 0.478679 0
M  V30 17862 C 1751.13 1.96406 -3.02418 0
M  V30 17863 O 1750.23 3.05154 -2.77408 0
M  V30 17864 H 1749.57 0.294181 -0.595276 0
M  V30 17865 H 1752.1 0.303708 -2.02333 0
M  V30 17866 H 1752.11 2.38385 -3.31114 0
M  V30 17867 H 1750.79 1.40261 -3.91535 0
M  V30 17868 H 1749.36 2.675 -2.59805 0
M  V30 17869 N 1751.55 1.48103 0.538828 0
M  V30 17870 C 1752.5 1.62398 1.66522 0
M  V30 17871 C 1753.49 0.490669 1.62138 0
M  V30 17872 O 1754.7 0.669098 1.67102 0
M  V30 17873 H 1751.07 0.511415 0.551324 0
M  V30 17874 H 1753.04 2.57018 1.51606 0
M  V30 17875 C 1751.79 1.67264 3.04824 0
M  V30 17876 H 1751.11 2.53828 3.08887 0
M  V30 17877 H 1752.55 1.81312 3.83278 0
M  V30 17878 C 1751.01 0.409539 3.34402 0
M  V30 17879 O 1751.54 -0.481433 3.98805 0
M  V30 17880 N 1749.75 0.283934 2.8921 0
M  V30 17881 H 1749.3 1.00993 2.36977 0
M  V30 17882 H 1749.25 -0.560201 3.09369 0
M  V30 17883 N 1753.03 -0.787016 1.36542 0
M  V30 17884 C 1753.96 -1.90844 1.26931 0
M  V30 17885 C 1754.97 -1.61707 0.188293 0
M  V30 17886 O 1756.16 -1.7291 0.443205 0
M  V30 17887 C 1753.26 -3.25709 0.936305 0
M  V30 17888 C 1752.43 -3.82607 2.11969 0
M  V30 17889 C 1751.49 -4.95916 1.75937 0
M  V30 17890 O 1750.52 -5.12307 2.48053 0
M  V30 17891 N 1751.72 -5.76331 0.694461 0
M  V30 17892 H 1754.49 -1.9961 2.23553 0
M  V30 17893 H 1752.05 -0.965401 1.29968 0
M  V30 17894 H 1754.04 -3.99008 0.676378 0
M  V30 17895 H 1752.61 -3.12544 0.0591364 0
M  V30 17896 H 1751.83 -3.01267 2.54227 0
M  V30 17897 H 1753.12 -4.17352 2.91024 0
M  V30 17898 H 1752.51 -5.65619 0.0957046 0
M  V30 17899 H 1751.07 -6.49923 0.494363 0
M  V30 17900 N 1754.5 -1.20861 -1.01145 0
M  V30 17901 C 1755.75 -1.0199 -1.74478 0
M  V30 17902 C 1756.07 0.4484 -1.89775 0
M  V30 17903 O 1755.34 1.32386 -1.44398 0
M  V30 17904 H 1753.92 -0.37439 -0.646406 0
M  V30 17905 H 1756.59 -1.5206 -1.21917 0
M  V30 17906 H 1755.68 -1.48251 -2.74642 0
M  V30 17907 N 1755.98 1.20536 -1.01532 0
M  V30 17908 C 1757.23 1.89871 -0.70393 0
M  V30 17909 C 1757.56 1.78768 0.76631 0
M  V30 17910 O 1756.81 1.1653 1.57224 0
M  V30 17911 C 1757.11 3.40578 -1.08358 0
M  V30 17912 C 1756.78 3.71881 -2.54981 0
M  V30 17913 C 1755.44 3.80135 -2.95044 0
M  V30 17914 C 1757.79 3.86282 -3.49909 0
M  V30 17915 C 1755.12 4.00246 -4.28976 0
M  V30 17916 C 1757.47 4.07902 -4.83527 0
M  V30 17917 C 1756.14 4.14385 -5.23298 0
M  V30 17918 H 1755.41 0.694788 -0.257586 0
M  V30 17919 H 1758.05 1.42825 -1.27567 0
M  V30 17920 H 1756.36 3.89431 -0.430234 0
M  V30 17921 H 1758.05 3.92519 -0.820353 0
M  V30 17922 H 1754.64 3.66055 -2.22938 0
M  V30 17923 H 1758.83 3.79261 -3.20117 0
M  V30 17924 H 1754.08 4.03499 -4.59345 0
M  V30 17925 H 1758.26 4.17987 -5.5701 0
M  V30 17926 H 1755.89 4.29721 -6.27092 0
M  V30 17927 N 1757.46 0.791395 1.36289 0
M  V30 17928 C 1758.69 0.375566 2.03971 0
M  V30 17929 C 1759.11 -1.00061 1.59277 0
M  V30 17930 O 1758.47 -1.64501 0.762182 0
M  V30 17931 C 1758.52 0.449891 3.57783 0
M  V30 17932 O 1757.62 -0.54243 4.08817 0
M  V30 17933 H 1756.96 0.159181 0.644637 0
M  V30 17934 H 1759.49 1.07306 1.74203 0
M  V30 17935 H 1759.5 0.314206 4.06788 0
M  V30 17936 H 1758.18 1.45377 3.89665 0
M  V30 17937 H 1756.75 -0.368243 3.71077 0
M  V30 17938 N 1758.94 -1.47929 0.54358 0
M  V30 17939 C 1760.16 -2.07393 0.0168905 0
M  V30 17940 C 1760.59 -1.39557 -1.26117 0
M  V30 17941 O 1759.95 -0.465983 -1.75209 0
M  V30 17942 C 1760 -3.6017 -0.176105 0
M  V30 17943 O 1759.1 -3.9326 -1.24178 0
M  V30 17944 H 1758.44 -0.662459 0.0452126 0
M  V30 17945 H 1760.97 -1.90145 0.755376 0
M  V30 17946 H 1760.98 -4.06088 -0.394555 0
M  V30 17947 H 1759.66 -4.08944 0.757445 0
M  V30 17948 H 1758.23 -3.59105 -1.0049 0
M  V30 17949 N 1760.42 -0.27936 -1.55104 0
M  V30 17950 C 1761.83 0.074665 -1.59425 0
M  V30 17951 C 1762.03 1.54246 -1.29655 0
M  V30 17952 O 1761.09 2.29197 -1.05947 0
M  V30 17953 C 1762.4 -0.30379 -2.99162 0
M  V30 17954 C 1763.95 -0.250758 -3.11994 0
M  V30 17955 C 1764.43 -0.603715 -4.54004 0
M  V30 17956 N 1765.92 -0.555428 -4.59858 0
M  V30 17957 C 1766.65 -0.801278 -5.67774 0
M  V30 17958 N 1766.15 -1.11197 -6.83818 0
M  V30 17959 N 1767.94 -0.72979 -5.57342 0
M  V30 17960 H 1760.09 -1.23619 -1.7272 0
M  V30 17961 H 1762.35 -0.499704 -0.805606 0
M  V30 17962 H 1762.06 -1.32475 -3.25796 0
M  V30 17963 H 1761.93 0.353294 -3.75542 0
M  V30 17964 H 1764.32 0.760925 -2.85121 0
M  V30 17965 H 1764.4 -0.94216 -2.37817 0
M  V30 17966 H 1764.05 -1.6131 -4.81603 0
M  V30 17967 H 1763.98 0.109523 -5.26486 0
M  V30 17968 H 1766.47 -0.325348 -3.76497 0
M  V30 17969 H 1766.78 -1.28611 -7.62023 0
M  V30 17970 H 1765.13 -1.14978 -6.85423 0
M  V30 17971 H 1768.32 -0.48688 -4.65561 0
M  V30 17972 H 1768.49 -0.92477 -6.41367 0
M  V30 17973 N 1761.9 1.57599 -0.0067085 0
M  V30 17974 C 1763.12 1.95545 0.69115 0
M  V30 17975 C 1763.55 0.882014 1.66139 0
M  V30 17976 O 1762.9 -0.159242 1.80599 0
M  V30 17977 C 1762.95 3.3259 1.39342 0
M  V30 17978 O 1762.06 3.27368 2.50806 0
M  V30 17979 H 1761.4 0.638188 0.183336 0
M  V30 17980 H 1763.93 2.04506 -0.0618957 0
M  V30 17981 H 1763.94 3.6831 1.75532 0
M  V30 17982 H 1762.61 4.10269 0.682072 0
M  V30 17983 H 1761.19 3.03334 2.16894 0
M  V30 17984 N 1763.37 -0.266145 1.55336 0
M  V30 17985 C 1764.65 -1.01852 1.6699 0
M  V30 17986 C 1765.03 -2.04053 0.54088 0
M  V30 17987 O 1764.38 -2.23859 -0.458193 0
M  V30 17988 C 1764.59 -1.66917 3.06496 0
M  V30 17989 C 1765.94 -2.17824 3.64469 0
M  V30 17990 O 1766.96 -1.76892 3.09173 0
M  V30 17991 O 1765.82 -2.92922 4.61367 0
M  V30 17992 H 1762.91 -0.472871 0.67847 0
M  V30 17993 H 1765.46 -0.261458 1.67674 0
M  V30 17994 H 1764.23 -0.928941 3.80114 0
M  V30 17995 H 1763.85 -2.49292 3.0974 0
M  V30 17996 N 1764.85 -1.48386 -0.530967 0
M  V30 17997 C 1765.8 -1.62835 -1.63564 0
M  V30 17998 C 1766.77 -0.470453 -1.59298 0
M  V30 17999 O 1767.95 -0.693813 -1.77738 0
M  V30 18000 C 1765.09 -1.67314 -3.01828 0
M  V30 18001 C 1764.21 -2.94204 -3.16335 0
M  V30 18002 C 1763.34 -2.8985 -4.45152 0
M  V30 18003 C 1762.38 -4.11449 -4.53185 0
M  V30 18004 N 1761.52 -4.05178 -5.7339 0
M  V30 18005 H 1766.36 -2.57172 -1.50554 0
M  V30 18006 H 1763.89 -1.27537 -0.732991 0
M  V30 18007 H 1765.85 -1.67892 -3.81927 0
M  V30 18008 H 1764.48 -0.764688 -3.13612 0
M  V30 18009 H 1763.53 -3.03375 -2.29495 0
M  V30 18010 H 1764.85 -3.84179 -3.18132 0
M  V30 18011 H 1764 -2.88824 -5.33541 0
M  V30 18012 H 1762.74 -1.97602 -4.45875 0
M  V30 18013 H 1761.74 -4.12751 -3.63203 0
M  V30 18014 H 1762.97 -5.04855 -4.54201 0
M  V30 18015 H 1760.92 -3.15749 -5.75012 0
M  V30 18016 H 1760.83 -4.88857 -5.76676 0
M  V30 18017 H 1762.1 -4.08209 -6.64067 0
M  V30 18018 N 1766.33 0.779763 -1.36958 0
M  V30 18019 C 1767.28 1.89278 -1.32071 0
M  V30 18020 C 1768.25 1.65037 -0.18766 0
M  V30 18021 O 1769.43 1.87064 -0.375736 0
M  V30 18022 C 1766.57 3.2623 -1.12552 0
M  V30 18023 C 1765.68 3.62479 -2.35017 0
M  V30 18024 C 1764.82 4.88599 -2.08434 0
M  V30 18025 C 1763.86 5.17555 -3.26808 0
M  V30 18026 N 1763 6.3486 -2.99828 0
M  V30 18027 H 1767.84 1.9279 -2.27235 0
M  V30 18028 H 1765.37 0.942656 -1.12927 0
M  V30 18029 H 1767.33 4.0522 -0.992595 0
M  V30 18030 H 1765.96 3.22114 -0.210387 0
M  V30 18031 H 1765.01 2.78536 -2.59079 0
M  V30 18032 H 1766.32 3.7982 -3.23324 0
M  V30 18033 H 1765.48 5.75476 -1.92127 0
M  V30 18034 H 1764.22 4.73346 -1.17453 0
M  V30 18035 H 1763.22 4.29156 -3.43664 0
M  V30 18036 H 1764.45 5.34721 -4.18629 0
M  V30 18037 H 1762.39 6.20981 -2.11468 0
M  V30 18038 H 1762.31 6.52579 -3.81676 0
M  V30 18039 H 1763.58 7.24695 -2.8712 0
M  V30 18040 N 1767.81 1.21396 1.00503 0
M  V30 18041 C 1769.06 1.02913 1.73935 0
M  V30 18042 C 1769.38 -0.438329 1.9001 0
M  V30 18043 O 1768.65 -1.31618 1.45098 0
M  V30 18044 H 1767.23 0.377813 0.644412 0
M  V30 18045 H 1769.89 1.52704 1.21109 0
M  V30 18046 H 1768.98 1.49705 2.73852 0
M  V30 18047 N 1769.29 -1.19996 1.0217 0
M  V30 18048 C 1770.7 -1.71202 0.744777 0
M  V30 18049 C 1771.05 -1.81862 -0.736238 0
M  V30 18050 O 1770.17 -1.48475 -1.5743 0
M  V30 18051 C 1770.77 -3.10945 1.34531 0
M  V30 18052 C 1769.33 -3.5944 1.11714 0
M  V30 18053 C 1768.47 -2.36501 1.44784 0
M  V30 18054 H 1771.42 -1.04938 1.19054 0
M  V30 18055 H 1771.45 -3.73264 0.738531 0
M  V30 18056 H 1770.96 -3.03154 2.42321 0
M  V30 18057 H 1769.06 -3.72556 0.0571346 0
M  V30 18058 H 1769.17 -4.43969 1.80079 0
M  V30 18059 H 1767.54 -2.3949 0.866981 0
M  V30 18060 H 1768.32 -2.31347 2.53641 0
M  V30 18061 N 1770.76 -0.798611 -1.35867 0
M  V30 18062 C 1771.71 -0.201442 -2.29919 0
M  V30 18063 C 1772.68 0.659971 -1.52426 0
M  V30 18064 O 1773.87 0.606726 -1.80896 0
M  V30 18065 C 1771.01 0.650427 -3.38915 0
M  V30 18066 C 1770.12 -0.230539 -4.31384 0
M  V30 18067 C 1769.25 0.628575 -5.27468 0
M  V30 18068 C 1768.29 -0.253282 -6.11576 0
M  V30 18069 N 1767.43 0.565343 -6.9982 0
M  V30 18070 H 1772.27 -1.00892 -2.80401 0
M  V30 18071 H 1769.81 -0.509085 -1.3801 0
M  V30 18072 H 1771.76 1.15941 -4.00766 0
M  V30 18073 H 1770.39 1.42325 -2.8973 0
M  V30 18074 H 1769.45 -0.85756 -3.70608 0
M  V30 18075 H 1770.76 -0.909635 -4.90436 0
M  V30 18076 H 1769.91 1.203 -5.94653 0
M  V30 18077 H 1768.65 1.34127 -4.68894 0
M  V30 18078 H 1767.66 -0.84004 -5.43345 0
M  V30 18079 H 1768.88 -0.963713 -6.72227 0
M  V30 18080 H 1766.83 1.26216 -6.43743 0
M  V30 18081 H 1766.74 -0.0558752 -7.55979 0
M  V30 18082 H 1768.01 1.1233 -7.71364 0
M  V30 18083 N 1772.24 1.47639 -0.551417 0
M  V30 18084 C 1773.47 2.06878 -0.0298904 0
M  V30 18085 C 1773.88 1.40493 1.26123 0
M  V30 18086 O 1773.24 0.499513 1.75531 0
M  V30 18087 C 1773.29 3.61074 0.175449 0
M  V30 18088 O 1773.01 4.2497 -1.06454 0
M  V30 18089 C 1774.51 4.37166 0.734919 0
M  V30 18090 H 1771.73 0.669607 -0.0432142 0
M  V30 18091 H 1774.28 1.89726 -0.763178 0
M  V30 18092 H 1772.43 3.7776 0.858848 0
M  V30 18093 H 1772.85 5.17424 -0.858644 0
M  V30 18094 H 1774.32 5.45756 0.827915 0
M  V30 18095 H 1774.8 4.03052 1.74486 0
M  V30 18096 H 1775.4 4.2521 0.0874045 0
M  V30 18097 N 1773.72 0.287581 1.54954 0
M  V30 18098 C 1774.97 -0.326315 1.99043 0
M  V30 18099 C 1775.28 -1.56033 1.17954 0
M  V30 18100 O 1776.49 -2.24797 1.52246 0
M  V30 18101 C 1774.94 -0.631918 3.54309 0
M  V30 18102 C 1774.55 0.582998 4.4419 0
M  V30 18103 C 1776.3 -1.20775 4.06957 0
M  V30 18104 C 1774.2 0.251291 5.90866 0
M  V30 18105 H 1773.13 -0.125703 0.743448 0
M  V30 18106 H 1775.78 0.394188 1.79216 0
M  V30 18107 H 1774.17 -1.41166 3.69984 0
M  V30 18108 H 1775.34 1.35957 4.40287 0
M  V30 18109 H 1773.66 1.07653 4.02243 0
M  V30 18110 H 1776.25 -1.46995 5.14098 0
M  V30 18111 H 1776.6 -2.14569 3.56743 0
M  V30 18112 H 1777.13 -0.490021 3.9477 0
M  V30 18113 H 1773.87 1.15744 6.452 0
M  V30 18114 H 1773.39 -0.488274 5.97809 0
M  V30 18115 H 1775.07 -0.152008 6.46821 0
M  V30 18116 N 1775.2 -1.57593 0.0150662 0
M  V30 18117 C 1776.16 -2.08293 -0.956385 0
M  V30 18118 C 1777.16 -0.99521 -1.26302 0
M  V30 18119 O 1778.35 -1.25732 -1.2057 0
M  V30 18120 C 1775.48 -2.53702 -2.27701 0
M  V30 18121 H 1776.68 -2.95401 -0.517543 0
M  V30 18122 H 1774.23 -1.54558 -0.232706 0
M  V30 18123 H 1774.96 -1.69882 -2.76244 0
M  V30 18124 H 1774.75 -3.33155 -2.06761 0
M  V30 18125 H 1776.24 -2.93201 -2.9736 0
M  V30 18126 N 1776.68 0.257904 -1.55475 0
M  V30 18127 C 1777.59 1.34084 -1.92506 0
M  V30 18128 C 1778.6 1.53246 -0.824123 0
M  V30 18129 O 1779.78 1.67081 -1.12455 0
M  V30 18130 C 1776.84 2.67741 -2.20263 0
M  V30 18131 C 1775.9 2.57196 -3.43728 0
M  V30 18132 C 1775.14 3.84479 -3.7015 0
M  V30 18133 O 1775.36 4.85858 -2.98827 0
M  V30 18134 O 1774.29 3.83774 -4.63682 0
M  V30 18135 H 1778.12 1.05672 -2.84723 0
M  V30 18136 H 1775.71 0.457726 -1.42215 0
M  V30 18137 H 1777.59 3.46743 -2.39473 0
M  V30 18138 H 1776.26 2.95907 -1.31227 0
M  V30 18139 H 1775.17 1.76518 -3.29837 0
M  V30 18140 H 1776.5 2.33977 -4.33031 0
M  V30 18141 N 1778.15 1.48666 0.52309 0
M  V30 18142 C 1779.09 1.58279 1.64387 0
M  V30 18143 C 1780.07 0.432873 1.56732 0
M  V30 18144 O 1781.25 0.645422 1.77106 0
M  V30 18145 C 1778.38 1.5172 3.02818 0
M  V30 18146 C 1777.42 2.71637 3.28809 0
M  V30 18147 S 1778.26 4.3354 3.14329 0
M  V30 18148 C 1779.41 4.29591 4.55195 0
M  V30 18149 H 1779.64 2.53093 1.55984 0
M  V30 18150 H 1777.18 1.37284 0.70658 0
M  V30 18151 H 1779.14 1.48623 3.82651 0
M  V30 18152 H 1777.8 0.582311 3.08655 0
M  V30 18153 H 1776.99 2.63206 4.29812 0
M  V30 18154 H 1776.59 2.72033 2.56659 0
M  V30 18155 H 1778.88 3.99949 5.46852 0
M  V30 18156 H 1779.83 5.30797 4.68679 0
M  V30 18157 H 1780.23 3.59964 4.3484 0
M  V30 18158 N 1779.63 -0.772489 1.37369 0
M  V30 18159 C 1781.05 -1.07294 1.18153 0
M  V30 18160 C 1781.25 -2.01493 0.0171782 0
M  V30 18161 O 1780.3 -2.44177 -0.642964 0
M  V30 18162 C 1781.62 -1.67116 2.49986 0
M  V30 18163 C 1783.17 -1.79377 2.56501 0
M  V30 18164 C 1783.64 -2.42612 3.88463 0
M  V30 18165 N 1785.13 -2.50063 3.89901 0
M  V30 18166 C 1785.87 -2.99841 4.88756 0
M  V30 18167 N 1785.36 -3.49798 5.98008 0
M  V30 18168 N 1787.16 -2.98709 4.76161 0
M  V30 18169 H 1779.31 -0.147014 2.11891 0
M  V30 18170 H 1781.57 -0.127846 0.93934 0
M  V30 18171 H 1781.28 -1.05369 3.35545 0
M  V30 18172 H 1781.15 -2.6642 2.67021 0
M  V30 18173 H 1783.54 -2.40257 1.71349 0
M  V30 18174 H 1783.62 -0.788304 2.4335 0
M  V30 18175 H 1783.26 -1.82372 4.74029 0
M  V30 18176 H 1783.19 -3.43763 3.98917 0
M  V30 18177 H 1785.68 -2.14709 3.1098 0
M  V30 18178 H 1786 -3.86181 6.69391 0
M  V30 18179 H 1784.34 -3.47905 6.01654 0
M  V30 18180 H 1787.53 -2.5898 3.89932 0
M  V30 18181 H 1787.7 -3.37193 5.53358 0
M  V30 18182 N 1781.11 -1.21927 -0.998575 0
M  V30 18183 C 1782.06 -0.984283 -2.08759 0
M  V30 18184 C 1783.03 0.0920029 -1.65845 0
M  V30 18185 O 1784.21 -0.0564334 -1.90717 0
M  V30 18186 C 1781.35 -0.562006 -3.40493 0
M  V30 18187 C 1780.47 -1.70844 -3.96783 0
M  V30 18188 C 1779.6 -1.2347 -5.16651 0
M  V30 18189 C 1778.64 -2.35305 -5.65065 0
M  V30 18190 N 1777.78 -1.89018 -6.76178 0
M  V30 18191 H 1782.62 -1.91653 -2.28195 0
M  V30 18192 H 1780.15 -0.955028 -1.11882 0
M  V30 18193 H 1782.11 -0.298383 -4.16132 0
M  V30 18194 H 1780.74 0.33324 -3.21075 0
M  V30 18195 H 1779.79 -2.08653 -3.18069 0
M  V30 18196 H 1781.11 -2.54987 -4.28699 0
M  V30 18197 H 1780.26 -0.928121 -5.99559 0
M  V30 18198 H 1779 -0.363397 -4.86344 0
M  V30 18199 H 1778 -2.66758 -4.8075 0
M  V30 18200 H 1779.23 -3.22941 -5.97399 0
M  V30 18201 H 1777.17 -1.04242 -6.47665 0
M  V30 18202 H 1777.09 -2.66731 -7.07383 0
M  V30 18203 H 1778.36 -1.61413 -7.62605 0
M  V30 18204 N 1782.59 1.19452 -1.02805 0
M  V30 18205 C 1783.52 2.22095 -0.566246 0
M  V30 18206 C 1784.53 1.58828 0.357442 0
M  V30 18207 O 1785.72 1.77835 0.153965 0
M  V30 18208 C 1782.82 3.38343 0.194294 0
M  V30 18209 C 1782 4.31195 -0.734131 0
M  V30 18210 C 1781.05 5.26197 -0.0191426 0
M  V30 18211 O 1780.08 5.65529 -0.645436 0
M  V30 18212 N 1781.28 5.66841 1.25187 0
M  V30 18213 H 1784.05 2.62342 -1.44902 0
M  V30 18214 H 1781.61 1.3411 -0.906978 0
M  V30 18215 H 1783.6 3.9891 0.682136 0
M  V30 18216 H 1782.17 2.96892 0.978474 0
M  V30 18217 H 1781.39 3.68423 -1.40208 0
M  V30 18218 H 1782.68 4.90144 -1.36516 0
M  V30 18219 H 1782.08 5.36918 1.78145 0
M  V30 18220 H 1780.63 6.29664 1.68423 0
M  V30 18221 N 1784.07 0.805805 1.35442 0
M  V30 18222 C 1785.34 0.309105 1.93142 0
M  V30 18223 C 1785.72 -1.20119 1.73593 0
M  V30 18224 O 1785.07 -2.00034 1.10448 0
M  V30 18225 C 1785.28 0.719653 3.415 0
M  V30 18226 C 1786.63 0.708697 4.18644 0
M  V30 18227 O 1787.65 0.661148 3.5001 0
M  V30 18228 O 1786.51 0.76636 5.411 0
M  V30 18229 H 1783.61 0.0806647 0.823057 0
M  V30 18230 H 1786.15 0.88945 1.44523 0
M  V30 18231 H 1784.92 1.7606 3.49455 0
M  V30 18232 H 1784.55 0.114073 3.97436 0
M  V30 18233 N 1785.54 -1.47344 0.559239 0
M  V30 18234 C 1786.47 -2.32839 -0.175542 0
M  V30 18235 C 1787.46 -1.43914 -0.906787 0
M  V30 18236 O 1788.64 -1.72767 -0.886855 0
M  V30 18237 C 1785.77 -3.25735 -1.20474 0
M  V30 18238 C 1784.72 -4.23916 -0.589825 0
M  V30 18239 C 1784.05 -5.06151 -1.7238 0
M  V30 18240 C 1785.35 -5.2029 0.457733 0
M  V30 18241 H 1787.04 -2.94522 0.538225 0
M  V30 18242 H 1784.59 -1.41628 0.260282 0
M  V30 18243 H 1786.54 -3.84388 -1.72695 0
M  V30 18244 H 1785.27 -2.62111 -1.94847 0
M  V30 18245 H 1783.93 -3.66492 -0.0888897 0
M  V30 18246 H 1783.57 -4.38929 -2.45663 0
M  V30 18247 H 1783.27 -5.72625 -1.31813 0
M  V30 18248 H 1784.8 -5.67663 -2.24923 0
M  V30 18249 H 1786.21 -5.73296 0.0215019 0
M  V30 18250 H 1784.61 -5.94978 0.7824 0
M  V30 18251 H 1785.68 -4.65645 1.35286 0
M  V30 18252 N 1787.02 -0.295795 -1.54799 0
M  V30 18253 C 1787.99 0.569699 -2.22007 0
M  V30 18254 C 1788.99 1.06535 -1.20445 0
M  V30 18255 O 1790.18 0.962212 -1.45214 0
M  V30 18256 C 1787.31 1.78821 -2.90234 0
M  V30 18257 H 1788.5 -0.0174148 -2.99895 0
M  V30 18258 H 1786.05 -0.0465813 -1.56231 0
M  V30 18259 H 1786.79 2.4153 -2.16412 0
M  V30 18260 H 1786.57 1.44051 -3.6468 0
M  V30 18261 H 1788.06 2.40321 -3.41519 0
M  V30 18262 N 1788.5 1.57583 -0.0234236 0
M  V30 18263 C 1789.45 2.09872 0.960327 0
M  V30 18264 C 1790.42 0.999466 1.32665 0
M  V30 18265 O 1791.6 1.27332 1.42095 0
M  V30 18266 C 1788.74 2.62578 2.23935 0
M  V30 18267 C 1787.86 3.86491 1.92999 0
M  V30 18268 C 1786.99 4.27611 3.15154 0
M  V30 18269 C 1786.03 5.44298 2.80011 0
M  V30 18270 N 1785.17 5.80601 3.94775 0
M  V30 18271 H 1790.01 2.93647 0.507502 0
M  V30 18272 H 1787.54 1.45147 0.238911 0
M  V30 18273 H 1789.5 2.91223 2.98739 0
M  V30 18274 H 1788.13 1.81643 2.66844 0
M  V30 18275 H 1787.18 3.6461 1.08462 0
M  V30 18276 H 1788.5 4.71377 1.63112 0
M  V30 18277 H 1787.65 4.57663 3.98284 0
M  V30 18278 H 1786.39 3.41481 3.48198 0
M  V30 18279 H 1785.39 5.13946 1.95293 0
M  V30 18280 H 1786.62 6.32122 2.4819 0
M  V30 18281 H 1784.57 4.97427 4.27671 0
M  V30 18282 H 1784.48 6.60113 3.68492 0
M  V30 18283 H 1785.75 6.15255 4.78624 0
M  V30 18284 N 1789.98 -0.249655 1.5561 0
M  V30 18285 C 1791.26 -1.00075 1.68061 0
M  V30 18286 C 1791.64 -2.03468 0.562492 0
M  V30 18287 O 1790.98 -2.24332 -0.434424 0
M  V30 18288 C 1791.19 -1.63657 3.08249 0
M  V30 18289 C 1792.54 -2.13946 3.66759 0
M  V30 18290 O 1793.57 -1.73603 3.11031 0
M  V30 18291 O 1792.43 -2.88012 4.64447 0
M  V30 18292 H 1789.52 -0.465648 0.683448 0
M  V30 18293 H 1792.07 -0.243659 1.67942 0
M  V30 18294 H 1790.84 -0.888572 3.81078 0
M  V30 18295 H 1790.46 -2.45993 3.12367 0
M  V30 18296 N 1791.46 -1.48941 -0.515198 0
M  V30 18297 C 1792.69 -1.61396 -1.29457 0
M  V30 18298 C 1793.1 -0.279847 -1.86714 0
M  V30 18299 O 1792.46 0.732861 -1.67139 0
M  V30 18300 C 1792.51 -2.67194 -2.43494 0
M  V30 18301 O 1792.23 -3.95429 -1.88593 0
M  V30 18302 C 1793.73 -2.90224 -3.35089 0
M  V30 18303 H 1790.95 -0.543754 -0.393157 0
M  V30 18304 H 1793.49 -1.94875 -0.619996 0
M  V30 18305 H 1791.65 -2.36532 -3.06808 0
M  V30 18306 H 1792.06 -4.53593 -2.63351 0
M  V30 18307 H 1793.54 -3.68018 -4.1142 0
M  V30 18308 H 1794.01 -1.99601 -3.91224 0
M  V30 18309 H 1794.62 -3.22247 -2.77555 0
M  V30 18310 N 1792.94 0.765193 -1.37777 0
M  V30 18311 C 1794.21 1.51374 -1.23876 0
M  V30 18312 C 1794.59 2.10455 0.164852 0
M  V30 18313 O 1793.94 1.96084 1.17318 0
M  V30 18314 C 1794.15 2.58939 -2.33991 0
M  V30 18315 C 1795.5 3.26162 -2.71852 0
M  V30 18316 O 1796.52 2.69238 -2.33216 0
M  V30 18317 O 1795.38 4.29094 -3.38438 0
M  V30 18318 H 1792.48 0.670749 -0.48376 0
M  V30 18319 H 1795.02 0.801597 -1.49574 0
M  V30 18320 H 1793.79 2.13448 -3.27957 0
M  V30 18321 H 1793.42 3.37747 -2.09793 0
M  V30 18322 N 1794.41 1.22455 0.992094 0
M  V30 18323 C 1795.82 1.04629 1.54627 0
M  V30 18324 C 1796.18 -0.390011 1.92285 0
M  V30 18325 O 1795.3 -1.27511 1.74842 0
M  V30 18326 C 1795.9 1.89306 2.80978 0
M  V30 18327 C 1794.45 1.75775 3.32836 0
M  V30 18328 C 1793.6 1.85724 2.05917 0
M  V30 18329 H 1796.55 1.36288 0.813089 0
M  V30 18330 H 1796.57 1.41095 3.53373 0
M  V30 18331 H 1796.09 2.93836 2.53539 0
M  V30 18332 H 1794.19 0.739821 3.65181 0
M  V30 18333 H 1794.3 2.58491 4.03385 0
M  V30 18334 H 1792.66 1.29173 2.19514 0
M  V30 18335 H 1793.45 2.91787 1.80874 0
M  V30 18336 N 1795.89 -1.18905 1.03437 0
M  V30 18337 C 1796.82 -2.24539 0.640669 0
M  V30 18338 C 1797.8 -1.66396 -0.353024 0
M  V30 18339 O 1798.99 -1.92779 -0.234522 0
M  V30 18340 C 1796.12 -3.473 -0.00367731 0
M  V30 18341 C 1795.07 -4.18151 0.912881 0
M  V30 18342 C 1794.4 -5.34534 0.133347 0
M  V30 18343 C 1795.7 -4.72342 2.22913 0
M  V30 18344 H 1797.39 -2.57726 1.52374 0
M  V30 18345 H 1794.94 -1.23883 0.734098 0
M  V30 18346 H 1796.89 -4.20396 -0.290783 0
M  V30 18347 H 1795.61 -3.13328 -0.921578 0
M  V30 18348 H 1794.27 -3.46945 1.18427 0
M  V30 18349 H 1793.92 -4.96809 -0.786762 0
M  V30 18350 H 1793.62 -5.82872 0.743905 0
M  V30 18351 H 1795.15 -6.10423 -0.146889 0
M  V30 18352 H 1796.56 -5.37165 2.00317 0
M  V30 18353 H 1794.96 -5.31189 2.79209 0
M  V30 18354 H 1796.03 -3.90108 2.87999 0
M  V30 18355 N 1797.37 -0.812977 -1.35013 0
M  V30 18356 C 1798.32 -0.225816 -2.29693 0
M  V30 18357 C 1799.29 0.643767 -1.53117 0
M  V30 18358 O 1800.47 0.587505 -1.8153 0
M  V30 18359 C 1797.61 0.614444 -3.39586 0
M  V30 18360 C 1796.72 -0.276281 -4.31116 0
M  V30 18361 C 1795.86 0.572595 -5.28105 0
M  V30 18362 C 1794.9 -0.318133 -6.11273 0
M  V30 18363 N 1794.04 0.491086 -7.0038 0
M  V30 18364 H 1798.88 -1.03861 -2.79315 0
M  V30 18365 H 1796.41 -0.523695 -1.37462 0
M  V30 18366 H 1798.37 1.11683 -4.01973 0
M  V30 18367 H 1797 1.39244 -2.91223 0
M  V30 18368 H 1796.05 -0.89682 -3.69677 0
M  V30 18369 H 1797.36 -0.961601 -4.89443 0
M  V30 18370 H 1796.52 1.13986 -5.95896 0
M  V30 18371 H 1795.26 1.29146 -4.7029 0
M  V30 18372 H 1794.26 -0.897622 -5.42423 0
M  V30 18373 H 1795.49 -1.03496 -6.71167 0
M  V30 18374 H 1793.43 1.19381 -6.45046 0
M  V30 18375 H 1793.35 -0.136054 -7.55878 0
M  V30 18376 H 1794.62 1.04143 -7.72512 0
M  V30 18377 N 1798.85 1.47045 -0.567045 0
M  V30 18378 C 1799.78 2.32929 0.163191 0
M  V30 18379 C 1800.76 1.44393 0.899142 0
M  V30 18380 O 1801.94 1.73235 0.87768 0
M  V30 18381 C 1799.07 3.26369 1.18745 0
M  V30 18382 C 1798.03 4.24223 0.567335 0
M  V30 18383 C 1797.35 5.07058 1.69693 0
M  V30 18384 C 1798.65 5.2004 -0.485319 0
M  V30 18385 H 1800.35 2.94233 -0.553837 0
M  V30 18386 H 1797.89 1.41488 -0.267789 0
M  V30 18387 H 1799.85 3.85299 1.70654 0
M  V30 18388 H 1798.57 2.6314 1.93455 0
M  V30 18389 H 1797.23 3.66534 0.0694525 0
M  V30 18390 H 1796.88 4.40226 2.43331 0
M  V30 18391 H 1796.58 5.73316 1.28774 0
M  V30 18392 H 1798.1 5.68848 2.2191 0
M  V30 18393 H 1799.52 5.73277 -0.0519049 0
M  V30 18394 H 1797.91 5.94554 -0.813942 0
M  V30 18395 H 1798.98 4.64921 -1.37754 0
M  V30 18396 N 1800.33 0.304 1.5464 0
M  V30 18397 C 1801.27 -0.570762 2.23631 0
M  V30 18398 C 1802.24 -1.1272 1.21998 0
M  V30 18399 O 1803.43 -1.17117 1.50626 0
M  V30 18400 C 1800.57 -1.73533 2.98296 0
M  V30 18401 C 1799.68 -1.21 4.14708 0
M  V30 18402 C 1798.82 -2.33867 4.76948 0
M  V30 18403 C 1797.85 -1.78483 5.855 0
M  V30 18404 N 1796.99 -2.84935 6.41682 0
M  V30 18405 H 1801.83 0.024168 2.9799 0
M  V30 18406 H 1799.37 0.023697 1.47081 0
M  V30 18407 H 1801.33 -2.42031 3.39819 0
M  V30 18408 H 1799.96 -2.30184 2.26308 0
M  V30 18409 H 1799.01 -0.41718 3.78105 0
M  V30 18410 H 1800.32 -0.764576 4.92905 0
M  V30 18411 H 1799.47 -3.10306 5.21339 0
M  V30 18412 H 1798.21 -2.81737 3.9809 0
M  V30 18413 H 1797.22 -1.00534 5.4053 0
M  V30 18414 H 1798.44 -1.31513 6.66244 0
M  V30 18415 H 1796.39 -3.32133 5.65706 0
M  V30 18416 H 1796.31 -2.44898 7.15235 0
M  V30 18417 H 1797.57 -3.61263 6.90731 0
M  V30 18418 N 1801.8 -1.57568 0.0317802 0
M  V30 18419 C 1802.73 -2.13412 -0.947499 0
M  V30 18420 C 1803.71 -1.05091 -1.33753 0
M  V30 18421 O 1804.9 -1.32936 -1.41568 0
M  V30 18422 C 1802.03 -2.66337 -2.22895 0
M  V30 18423 C 1800.98 -3.79469 -1.97958 0
M  V30 18424 C 1800.31 -4.18833 -3.3239 0
M  V30 18425 C 1801.61 -5.05432 -1.31664 0
M  V30 18426 H 1803.3 -2.95488 -0.482417 0
M  V30 18427 H 1800.85 -1.42142 -0.230603 0
M  V30 18428 H 1802.8 -3.04039 -2.91784 0
M  V30 18429 H 1801.53 -1.81426 -2.71574 0
M  V30 18430 H 1800.19 -3.42209 -1.31485 0
M  V30 18431 H 1799.83 -3.30899 -3.78833 0
M  V30 18432 H 1799.53 -4.95071 -3.16511 0
M  V30 18433 H 1801.06 -4.5912 -4.02544 0
M  V30 18434 H 1802.47 -5.40704 -1.90558 0
M  V30 18435 H 1800.87 -5.86686 -1.26173 0
M  V30 18436 H 1801.94 -4.84032 -0.28996 0
M  V30 18437 N 1803.28 0.241399 -1.5574 0
M  V30 18438 C 1804.21 1.30255 -1.93793 0
M  V30 18439 C 1805.19 1.49923 -0.803563 0
M  V30 18440 O 1806.38 1.62439 -1.06429 0
M  V30 18441 C 1803.51 2.65625 -2.23742 0
M  V30 18442 C 1802.46 2.60645 -3.39483 0
M  V30 18443 C 1801.79 3.99861 -3.54986 0
M  V30 18444 C 1803.09 2.17151 -4.75019 0
M  V30 18445 H 1804.78 0.986532 -2.8268 0
M  V30 18446 H 1802.33 0.473125 -1.36006 0
M  V30 18447 H 1804.28 3.40001 -2.48953 0
M  V30 18448 H 1803.01 2.98874 -1.31688 0
M  V30 18449 H 1801.66 1.88727 -3.14289 0
M  V30 18450 H 1801.31 4.30385 -2.60342 0
M  V30 18451 H 1801.01 3.97415 -4.32822 0
M  V30 18452 H 1802.54 4.75928 -3.82524 0
M  V30 18453 H 1803.95 2.8126 -4.99565 0
M  V30 18454 H 1802.35 2.25805 -5.55996 0
M  V30 18455 H 1803.42 1.12329 -4.7171 0
M  V30 18456 N 1804.76 1.49212 0.507292 0
M  V30 18457 C 1806.04 1.4888 1.26863 0
M  V30 18458 C 1806.42 0.213007 2.10023 0
M  V30 18459 O 1805.77 -0.804785 2.13858 0
M  V30 18460 C 1805.98 2.76407 2.13073 0
M  V30 18461 C 1807.32 3.25647 2.72468 0
M  V30 18462 O 1808.35 2.77481 2.23344 0
M  V30 18463 O 1807.21 4.09518 3.6188 0
M  V30 18464 H 1804.3 0.595597 0.573754 0
M  V30 18465 H 1806.85 1.6147 0.52208 0
M  V30 18466 H 1805.62 3.60758 1.51558 0
M  V30 18467 H 1805.24 2.66648 2.94932 0
M  V30 18468 N 1806.24 -0.757876 1.38181 0
M  V30 18469 C 1807.48 -1.51822 1.35358 0
M  V30 18470 C 1807.84 -1.92314 -0.0574579 0
M  V30 18471 O 1807.13 -1.62246 -1.01916 0
M  V30 18472 C 1807.33 -2.78548 2.23933 0
M  V30 18473 C 1807.16 -2.50444 3.73508 0
M  V30 18474 C 1805.93 -2.43877 4.42552 0
M  V30 18475 C 1808.12 -2.17507 4.66042 0
M  V30 18476 N 1806.11 -2.08003 5.77588 0
M  V30 18477 C 1807.48 -1.91888 5.89558 0
M  V30 18478 C 1809.53 -2.0378 4.54288 0
M  V30 18479 C 1808.23 -1.53928 7.02637 0
M  V30 18480 C 1810.26 -1.67221 5.67266 0
M  V30 18481 C 1809.62 -1.42472 6.89841 0
M  V30 18482 H 1805.72 -0.555312 0.550593 0
M  V30 18483 H 1808.31 -0.882923 1.7353 0
M  V30 18484 H 1806.48 -3.39893 1.87956 0
M  V30 18485 H 1808.21 -3.44565 2.12267 0
M  V30 18486 H 1804.96 -2.60203 3.95716 0
M  V30 18487 H 1805.39 -1.92723 6.48989 0
M  V30 18488 H 1810.03 -2.21592 3.60079 0
M  V30 18489 H 1807.75 -1.34856 7.96768 0
M  V30 18490 H 1811.33 -1.57238 5.60149 0
M  V30 18491 H 1810.21 -1.14602 7.75781 0
M  V30 18492 N 1807.72 -1.22979 -0.985586 0
M  V30 18493 C 1808.97 -1.05286 -1.7204 0
M  V30 18494 C 1809.28 0.411213 -1.91229 0
M  V30 18495 O 1810.48 0.70797 -2.62107 0
M  V30 18496 C 1808.94 -1.8355 -3.09576 0
M  V30 18497 C 1808.55 -3.34254 -2.98293 0
M  V30 18498 C 1810.29 -1.74329 -3.87052 0
M  V30 18499 C 1808.2 -4.0493 -4.31029 0
M  V30 18500 H 1807.13 -0.390364 -0.645083 0
M  V30 18501 H 1809.78 -1.46898 -1.09969 0
M  V30 18502 H 1808.16 -1.34741 -3.72372 0
M  V30 18503 H 1809.34 -3.90511 -2.44618 0
M  V30 18504 H 1807.65 -3.44231 -2.34294 0
M  V30 18505 H 1810.25 -2.24449 -4.85311 0
M  V30 18506 H 1810.59 -0.705078 -4.10286 0
M  V30 18507 H 1811.12 -2.20721 -3.30949 0
M  V30 18508 H 1807.86 -5.09035 -4.12993 0
M  V30 18509 H 1807.38 -3.5346 -4.84588 0
M  V30 18510 H 1809.06 -4.10935 -4.99742 0
M  V30 18511 N 1809.19 1.18355 -1.04066 0
M  V30 18512 C 1810.1 2.25641 -0.642115 0
M  V30 18513 C 1811.12 1.70811 0.331614 0
M  V30 18514 O 1812.3 2.00534 0.186542 0
M  V30 18515 C 1809.36 3.46698 -0.0112485 0
M  V30 18516 C 1808.42 4.16662 -1.03398 0
M  V30 18517 C 1807.66 5.3194 -0.433125 0
M  V30 18518 O 1807.88 5.65305 0.760669 0
M  V30 18519 O 1806.81 5.90581 -1.16182 0
M  V30 18520 H 1810.64 2.61997 -1.53595 0
M  V30 18521 H 1808.22 1.25437 -0.811542 0
M  V30 18522 H 1810.11 4.20027 0.339934 0
M  V30 18523 H 1808.78 3.12166 0.856405 0
M  V30 18524 H 1807.69 3.45402 -1.43696 0
M  V30 18525 H 1809.02 4.55194 -1.8724 0
M  V30 18526 N 1810.67 0.820125 1.3458 0
M  V30 18527 C 1811.92 0.406067 1.97979 0
M  V30 18528 C 1812.24 -1.03366 1.65349 0
M  V30 18529 O 1811.51 -1.71721 0.942798 0
M  V30 18530 H 1810.09 0.147162 0.732361 0
M  V30 18531 H 1812.75 1.04895 1.64265 0
M  V30 18532 H 1811.85 0.52279 3.0769 0
M  V30 18533 N 1812.15 -1.46743 0.574835 0
M  V30 18534 C 1813.1 -2.30224 -0.162908 0
M  V30 18535 C 1814.07 -1.4014 -0.891629 0
M  V30 18536 O 1815.25 -1.69094 -0.883854 0
M  V30 18537 C 1812.39 -3.24456 -1.1757 0
M  V30 18538 C 1811.51 -4.29637 -0.451233 0
M  V30 18539 C 1810.64 -5.11003 -1.45085 0
M  V30 18540 C 1809.68 -6.07941 -0.712353 0
M  V30 18541 N 1808.82 -6.82202 -1.65965 0
M  V30 18542 H 1813.66 -2.92785 0.555063 0
M  V30 18543 H 1811.19 -1.44302 0.285546 0
M  V30 18544 H 1813.15 -3.77526 -1.77567 0
M  V30 18545 H 1811.78 -2.63721 -1.86148 0
M  V30 18546 H 1810.83 -3.79485 0.263623 0
M  V30 18547 H 1812.15 -4.9864 0.126468 0
M  V30 18548 H 1811.3 -5.68311 -2.12386 0
M  V30 18549 H 1810.04 -4.41942 -2.06248 0
M  V30 18550 H 1809.04 -5.49794 -0.0255266 0
M  V30 18551 H 1810.27 -6.79017 -0.106227 0
M  V30 18552 H 1808.21 -6.15858 -2.25953 0
M  V30 18553 H 1808.13 -7.47438 -1.13456 0
M  V30 18554 H 1809.4 -7.44073 -2.32325 0
M  V30 18555 N 1813.63 -0.312197 -1.54477 0
M  V30 18556 C 1814.54 0.568096 -2.27618 0
M  V30 18557 C 1815.55 1.13892 -1.31547 0
M  V30 18558 O 1816.73 1.16131 -1.64546 0
M  V30 18559 C 1813.8 1.71843 -3.01116 0
M  V30 18560 C 1812.86 1.18056 -4.12748 0
M  V30 18561 C 1812.09 2.27607 -4.82733 0
M  V30 18562 O 1812.31 3.4773 -4.52151 0
M  V30 18563 O 1811.25 1.93667 -5.69892 0
M  V30 18564 H 1815.07 -0.0255513 -3.03689 0
M  V30 18565 H 1812.66 -0.0782698 -1.49195 0
M  V30 18566 H 1814.54 2.38839 -3.4718 0
M  V30 18567 H 1813.21 2.29847 -2.2793 0
M  V30 18568 H 1812.12 0.476007 -3.71059 0
M  V30 18569 H 1813.45 0.645802 -4.87945 0
M  V30 18570 N 1815.11 1.57549 -0.040136 0
M  V30 18571 C 1816.52 1.56434 0.316341 0
M  V30 18572 C 1816.72 1.04679 1.72176 0
M  V30 18573 O 1815.78 0.698444 2.42648 0
M  V30 18574 C 1817.09 3.00301 0.154883 0
M  V30 18575 C 1818.64 3.12177 0.226821 0
M  V30 18576 C 1819.11 4.57903 0.0940219 0
M  V30 18577 N 1820.61 4.62955 0.150654 0
M  V30 18578 C 1821.34 5.73355 0.0718466 0
M  V30 18579 N 1820.84 6.92775 -0.0586777 0
M  V30 18580 N 1822.63 5.61957 0.126632 0
M  V30 18581 H 1814.78 1.89516 -0.959032 0
M  V30 18582 H 1817.04 0.872251 -0.371324 0
M  V30 18583 H 1816.75 3.42158 -0.813674 0
M  V30 18584 H 1816.62 3.65795 0.920521 0
M  V30 18585 H 1819.01 2.70225 1.18584 0
M  V30 18586 H 1819.09 2.49383 -0.569384 0
M  V30 18587 H 1818.74 5.00538 -0.861629 0
M  V30 18588 H 1818.67 5.18691 0.909231 0
M  V30 18589 H 1821.16 3.77064 0.251232 0
M  V30 18590 H 1821.47 7.72719 -0.111818 0
M  V30 18591 H 1819.81 6.94937 -0.0936119 0
M  V30 18592 H 1823.01 4.67549 0.227081 0
M  V30 18593 H 1823.18 6.47971 0.0617551 0
M  V30 18594 N 1816.58 -0.233136 1.55866 0
M  V30 18595 C 1817.53 -1.3085 1.92304 0
M  V30 18596 C 1818.53 -1.49121 0.803693 0
M  V30 18597 O 1819.73 -1.50433 0.988433 0
M  V30 18598 H 1816.11 -0.438451 0.610954 0
M  V30 18599 H 1818.08 -0.973925 2.82059 0
M  V30 18600 C 1816.83 -2.65415 2.24611 0
M  V30 18601 H 1816.15 -2.5216 3.10251 0
M  V30 18602 H 1817.59 -3.395 2.54 0
M  V30 18603 C 1816.05 -3.1955 1.0672 0
M  V30 18604 O 1816.58 -4.00405 0.322308 0
M  V30 18605 N 1814.79 -2.77764 0.854123 0
M  V30 18606 H 1814.33 -2.12122 1.46157 0
M  V30 18607 H 1814.29 -3.14329 0.0670326 0
M  V30 18608 N 1818.06 -1.49479 -0.499372 0
M  V30 18609 C 1819.31 -1.58295 -1.25003 0
M  V30 18610 C 1819.63 -0.275616 -1.93648 0
M  V30 18611 O 1820.83 -0.24234 -2.70416 0
M  V30 18612 C 1819.29 -2.793 -2.26979 0
M  V30 18613 C 1818.9 -4.16799 -1.64264 0
M  V30 18614 C 1820.64 -2.97447 -3.02862 0
M  V30 18615 C 1818.55 -5.29025 -2.6436 0
M  V30 18616 H 1817.48 -0.589398 -0.470241 0
M  V30 18617 H 1820.13 -1.75868 -0.523698 0
M  V30 18618 H 1818.51 -2.55225 -3.02781 0
M  V30 18619 H 1819.68 -4.51018 -0.944432 0
M  V30 18620 H 1818 -4.04024 -1.00765 0
M  V30 18621 H 1820.6 -3.78461 -3.77719 0
M  V30 18622 H 1820.94 -2.08071 -3.60572 0
M  V30 18623 H 1821.47 -3.2157 -2.34175 0
M  V30 18624 H 1818.21 -6.20466 -2.11429 0
M  V30 18625 H 1817.73 -4.99258 -3.32417 0
M  V30 18626 H 1819.41 -5.58427 -3.26755 0
M  V30 18627 N 1819.54 0.750537 -1.38581 0
M  V30 18628 C 1820.96 1.05401 -1.19845 0
M  V30 18629 C 1821.16 2.0144 -0.0492317 0
M  V30 18630 O 1820.21 2.45169 0.604037 0
M  V30 18631 C 1821.53 1.63117 -2.52613 0
M  V30 18632 C 1823.07 1.75274 -2.59322 0
M  V30 18633 C 1823.55 2.36401 -3.92273 0
M  V30 18634 N 1825.04 2.43829 -3.9383 0
M  V30 18635 C 1825.78 2.92028 -4.93465 0
M  V30 18636 N 1825.27 3.4024 -6.03497 0
M  V30 18637 N 1827.06 2.91096 -4.80853 0
M  V30 18638 H 1819.22 0.113286 -2.12098 0
M  V30 18639 H 1821.48 0.112886 -0.941255 0
M  V30 18640 H 1821.18 1.00017 -3.37179 0
M  V30 18641 H 1821.06 2.62138 -2.71226 0
M  V30 18642 H 1823.45 2.375 -1.7515 0
M  V30 18643 H 1823.53 0.74949 -2.44574 0
M  V30 18644 H 1823.17 1.74807 -4.7687 0
M  V30 18645 H 1823.1 3.37373 -4.04335 0
M  V30 18646 H 1825.59 2.09734 -3.14357 0
M  V30 18647 H 1825.9 3.75482 -6.7545 0
M  V30 18648 H 1824.25 3.38289 -6.07113 0
M  V30 18649 H 1827.44 2.52744 -3.94003 0
M  V30 18650 H 1827.61 3.28346 -5.58653 0
M  V30 18651 N 1821.02 1.235 0.979051 0
M  V30 18652 C 1821.98 1.01854 2.05325 0
M  V30 18653 C 1822.98 -0.0201133 1.60787 0
M  V30 18654 O 1824.17 0.219761 1.72808 0
M  V30 18655 C 1821.3 0.541404 3.36573 0
M  V30 18656 H 1822.5 1.97183 2.25962 0
M  V30 18657 H 1820.05 1.05563 1.15265 0
M  V30 18658 H 1820.79 -0.415607 3.21626 0
M  V30 18659 H 1820.57 1.29092 3.7024 0
M  V30 18660 H 1822.06 0.410635 4.15576 0
M  V30 18661 N 1822.5 -1.17802 1.04693 0
M  V30 18662 C 1823.43 -2.23847 0.664448 0
M  V30 18663 C 1824.41 -1.66761 -0.335356 0
M  V30 18664 O 1825.59 -1.93017 -0.214062 0
M  V30 18665 C 1822.72 -3.47284 0.0331587 0
M  V30 18666 C 1821.68 -4.1716 0.95718 0
M  V30 18667 C 1821 -5.34362 0.190034 0
M  V30 18668 C 1822.3 -4.69951 2.2791 0
M  V30 18669 H 1824 -2.56095 1.55099 0
M  V30 18670 H 1821.54 -1.23097 0.747196 0
M  V30 18671 H 1823.5 -4.2068 -0.246178 0
M  V30 18672 H 1822.22 -3.14288 -0.888294 0
M  V30 18673 H 1820.88 -3.45669 1.221 0
M  V30 18674 H 1820.53 -4.97615 -0.734025 0
M  V30 18675 H 1820.23 -5.8205 0.805684 0
M  V30 18676 H 1821.75 -6.10545 -0.0821372 0
M  V30 18677 H 1823.17 -5.3501 2.06003 0
M  V30 18678 H 1821.56 -5.28198 2.84828 0
M  V30 18679 H 1822.63 -3.87032 2.9212 0
M  V30 18680 N 1823.98 -0.827251 -1.34143 0
M  V30 18681 C 1824.91 -0.267015 -2.31968 0
M  V30 18682 C 1825.89 0.618906 -1.58441 0
M  V30 18683 O 1827.07 0.544882 -1.86399 0
M  V30 18684 C 1824.2 0.568379 -3.42617 0
M  V30 18685 C 1823.16 -0.220767 -4.2743 0
M  V30 18686 C 1822.48 0.737643 -5.29587 0
M  V30 18687 C 1823.78 -1.43137 -5.02304 0
M  V30 18688 H 1825.48 -1.08436 -2.79073 0
M  V30 18689 H 1823.02 -0.522879 -1.34171 0
M  V30 18690 H 1824.97 0.970525 -4.10072 0
M  V30 18691 H 1823.7 1.41882 -2.94172 0
M  V30 18692 H 1822.36 -0.604333 -3.61585 0
M  V30 18693 H 1822.01 1.58416 -4.77403 0
M  V30 18694 H 1821.71 0.213815 -5.87211 0
M  V30 18695 H 1823.23 1.13755 -5.9991 0
M  V30 18696 H 1824.64 -1.10301 -5.62589 0
M  V30 18697 H 1823.04 -1.89115 -5.69522 0
M  V30 18698 H 1824.11 -2.2073 -4.31748 0
M  V30 18699 N 1825.45 1.46436 -0.582609 0
M  V30 18700 C 1826.68 2.07275 -0.0718712 0
M  V30 18701 C 1827.1 1.42851 1.22373 0
M  V30 18702 O 1826.46 0.512272 1.73912 0
M  V30 18703 C 1826.51 3.6051 0.08055 0
M  V30 18704 O 1825.61 3.96414 1.13707 0
M  V30 18705 H 1824.95 0.661027 -0.0627607 0
M  V30 18706 H 1827.48 1.88076 -0.805524 0
M  V30 18707 H 1827.49 4.06991 0.286749 0
M  V30 18708 H 1826.17 4.06792 -0.865603 0
M  V30 18709 H 1824.75 3.61643 0.909338 0
M  V30 18710 N 1826.93 0.320385 1.54309 0
M  V30 18711 C 1828.16 -0.285197 2.04925 0
M  V30 18712 C 1828.57 -1.46029 1.1967 0
M  V30 18713 O 1827.93 -1.81087 0.22665 0
M  V30 18714 C 1827.98 -0.722736 3.54202 0
M  V30 18715 O 1827.7 0.40561 4.36218 0
M  V30 18716 C 1829.2 -1.39146 4.20896 0
M  V30 18717 H 1826.42 -0.0591612 0.668387 0
M  V30 18718 H 1828.97 0.46565 1.99128 0
M  V30 18719 H 1827.12 -1.42356 3.60296 0
M  V30 18720 H 1827.54 0.0614526 5.24464 0
M  V30 18721 H 1829.01 -1.64858 5.26807 0
M  V30 18722 H 1829.49 -2.33774 3.71815 0
M  V30 18723 H 1830.09 -0.733291 4.18931 0
M  V30 18724 N 1828.41 -1.57525 0.0484906 0
M  V30 18725 C 1829.34 -2.14405 -0.924811 0
M  V30 18726 C 1830.32 -1.06503 -1.32631 0
M  V30 18727 O 1831.51 -1.3443 -1.4015 0
M  V30 18728 C 1828.64 -2.68686 -2.20057 0
M  V30 18729 C 1827.59 -3.81547 -1.93922 0
M  V30 18730 C 1826.92 -4.22334 -3.27929 0
M  V30 18731 C 1828.22 -5.06801 -1.26295 0
M  V30 18732 H 1829.91 -2.95983 -0.45105 0
M  V30 18733 H 1827.46 -1.42378 -0.215514 0
M  V30 18734 H 1829.41 -3.07117 -2.88543 0
M  V30 18735 H 1828.13 -1.84296 -2.69634 0
M  V30 18736 H 1826.79 -3.43585 -1.27848 0
M  V30 18737 H 1826.44 -3.34899 -3.75302 0
M  V30 18738 H 1826.14 -4.984 -3.11242 0
M  V30 18739 H 1827.66 -4.63363 -3.97652 0
M  V30 18740 H 1829.08 -5.42695 -1.84812 0
M  V30 18741 H 1827.47 -5.87991 -1.19943 0
M  V30 18742 H 1828.54 -4.84313 -0.238605 0
M  V30 18743 N 1829.89 0.224867 -1.55988 0
M  V30 18744 C 1830.84 1.28206 -1.8854 0
M  V30 18745 C 1831.82 1.42447 -0.748172 0
M  V30 18746 O 1833.01 1.45318 -1.01053 0
M  V30 18747 C 1830.14 2.63315 -2.20273 0
M  V30 18748 C 1829.23 2.52988 -3.40379 0
M  V30 18749 N 1829.62 2.1231 -4.59084 0
M  V30 18750 C 1827.92 2.83954 -3.43927 0
M  V30 18751 C 1828.62 2.13153 -5.4124 0
M  V30 18752 N 1827.59 2.53513 -4.80866 0
M  V30 18753 H 1831.4 0.958396 -2.77834 0
M  V30 18754 H 1828.91 0.433439 -1.56509 0
M  V30 18755 H 1830.91 3.39639 -2.41767 0
M  V30 18756 H 1829.57 2.9653 -1.32289 0
M  V30 18757 H 1830.58 1.83495 -4.84304 0
M  V30 18758 H 1827.26 3.21563 -2.66277 0
M  V30 18759 H 1828.65 1.83856 -6.46256 0
M  V30 18760 N 1831.37 1.49742 0.491438 0
M  V30 18761 C 1832.59 1.63435 1.26873 0
M  V30 18762 C 1833.01 0.309516 1.86246 0
M  V30 18763 O 1832.37 -0.706178 1.68284 0
M  V30 18764 C 1832.42 2.71034 2.39213 0
M  V30 18765 O 1832.14 3.98379 1.82278 0
M  V30 18766 C 1833.64 2.95518 3.3043 0
M  V30 18767 H 1830.86 0.54994 0.384457 0
M  V30 18768 H 1833.4 1.95837 0.588914 0
M  V30 18769 H 1831.56 2.41384 3.03006 0
M  V30 18770 H 1831.97 4.57725 2.56101 0
M  V30 18771 H 1833.45 3.74517 4.05513 0
M  V30 18772 H 1833.92 2.058 3.87999 0
M  V30 18773 H 1834.53 3.26622 2.72393 0
M  V30 18774 N 1832.84 -0.743177 1.38977 0
M  V30 18775 C 1834.09 -1.50479 1.35956 0
M  V30 18776 C 1834.42 -1.94143 -0.0471116 0
M  V30 18777 O 1833.7 -1.66195 -1.01042 0
M  V30 18778 C 1833.98 -2.75016 2.32461 0
M  V30 18779 C 1833.83 -2.37423 3.82034 0
M  V30 18780 C 1835.15 -3.77084 2.26927 0
M  V30 18781 H 1832.27 -0.545869 0.495172 0
M  V30 18782 H 1834.91 -0.850403 1.69906 0
M  V30 18783 H 1833.06 -3.30852 2.03639 0
M  V30 18784 H 1834.74 -1.87282 4.21572 0
M  V30 18785 H 1832.98 -1.69752 3.99208 0
M  V30 18786 H 1833.65 -3.2657 4.45035 0
M  V30 18787 H 1836.13 -3.30812 2.52394 0
M  V30 18788 H 1835 -4.61901 2.96545 0
M  V30 18789 H 1835.26 -4.23419 1.27156 0
M  V30 18790 N 1834.32 -1.24018 -0.972487 0
M  V30 18791 C 1835.25 -1.0529 -2.08414 0
M  V30 18792 C 1836.23 0.0326663 -1.70069 0
M  V30 18793 O 1837.42 -0.133494 -1.93741 0
M  V30 18794 C 1834.55 -0.651796 -3.41129 0
M  V30 18795 C 1833.5 -1.68559 -3.9341 0
M  V30 18796 C 1832.83 -1.1397 -5.22413 0
M  V30 18797 C 1834.13 -3.08046 -4.21788 0
M  V30 18798 H 1835.82 -1.98272 -2.2434 0
M  V30 18799 H 1833.37 -0.954694 -1.07804 0
M  V30 18800 H 1835.32 -0.507792 -4.18329 0
M  V30 18801 H 1834.05 0.313722 -3.2509 0
M  V30 18802 H 1832.7 -1.81773 -3.18362 0
M  V30 18803 H 1832.35 -0.164928 -5.0273 0
M  V30 18804 H 1832.05 -1.83051 -5.5836 0
M  V30 18805 H 1833.58 -1.00771 -6.02227 0
M  V30 18806 H 1834.99 -2.98088 -4.8971 0
M  V30 18807 H 1833.39 -3.74436 -4.68954 0
M  V30 18808 H 1834.46 -3.56444 -3.28749 0
M  V30 18809 N 1835.8 1.17245 -1.05316 0
M  V30 18810 C 1837.05 1.88061 -0.774904 0
M  V30 18811 C 1837.4 1.79577 0.690631 0
M  V30 18812 O 1836.69 1.19378 1.49865 0
M  V30 18813 C 1836.89 3.36958 -1.19138 0
M  V30 18814 C 1836.72 3.59935 -2.69586 0
M  V30 18815 C 1835.49 3.76587 -3.36913 0
M  V30 18816 C 1837.69 3.59476 -3.67806 0
M  V30 18817 N 1835.67 3.8742 -4.76213 0
M  V30 18818 C 1837.04 3.76175 -4.92841 0
M  V30 18819 C 1839.09 3.42633 -3.61257 0
M  V30 18820 C 1837.8 3.77773 -6.12111 0
M  V30 18821 C 1839.82 3.45521 -4.79968 0
M  V30 18822 C 1839.18 3.62728 -6.03827 0
M  V30 18823 H 1835.28 0.706228 -0.335807 0
M  V30 18824 H 1837.87 1.40743 -1.34535 0
M  V30 18825 H 1836.04 3.82941 -0.648876 0
M  V30 18826 H 1837.77 3.95395 -0.862828 0
M  V30 18827 H 1834.53 3.76494 -2.87314 0
M  V30 18828 H 1834.95 3.9663 -5.48647 0
M  V30 18829 H 1839.59 3.28265 -2.66462 0
M  V30 18830 H 1837.31 3.90926 -7.0725 0
M  V30 18831 H 1840.9 3.33745 -4.76556 0
M  V30 18832 H 1839.78 3.64869 -6.94147 0
M  V30 18833 N 1837.28 0.834353 1.33702 0
M  V30 18834 C 1838.56 0.350003 1.92443 0
M  V30 18835 C 1838.94 -1.1641 1.76102 0
M  V30 18836 O 1838.28 -1.97646 1.14666 0
M  V30 18837 C 1838.49 0.791928 3.39896 0
M  V30 18838 C 1839.84 0.797338 4.17046 0
M  V30 18839 O 1840.87 0.735242 3.48529 0
M  V30 18840 O 1839.72 0.880963 5.39353 0
M  V30 18841 H 1836.82 0.0981048 0.82116 0
M  V30 18842 H 1839.36 0.919905 1.42604 0
M  V30 18843 H 1838.14 1.83433 3.45641 0
M  V30 18844 H 1837.76 0.198349 3.97105 0
M  V30 18845 N 1838.76 -1.46125 0.590367 0
M  V30 18846 C 1840 -2.01947 0.0787256 0
M  V30 18847 C 1840.33 -1.4634 -1.28878 0
M  V30 18848 O 1839.6 -0.651011 -1.84767 0
M  V30 18849 H 1838.18 -0.746543 0.0261125 0
M  V30 18850 H 1840.84 -1.79136 0.767877 0
M  V30 18851 H 1839.93 -3.12096 0.0154914 0
M  V30 18852 N 1840.23 -0.328564 -1.54137 0
M  V30 18853 C 1841.14 0.543922 -2.28207 0
M  V30 18854 C 1842.16 1.1249 -1.32748 0
M  V30 18855 O 1843.34 1.1438 -1.65769 0
M  V30 18856 C 1840.4 1.6864 -3.02922 0
M  V30 18857 C 1839.46 1.13672 -4.13977 0
M  V30 18858 C 1838.7 2.22474 -4.85119 0
M  V30 18859 O 1838.92 3.42914 -4.55813 0
M  V30 18860 O 1837.85 1.87611 -5.71914 0
M  V30 18861 H 1841.68 -0.0577601 -3.03645 0
M  V30 18862 H 1839.26 -0.0940895 -1.49103 0
M  V30 18863 H 1841.15 2.35143 -3.49693 0
M  V30 18864 H 1839.82 2.27417 -2.30355 0
M  V30 18865 H 1838.73 0.436625 -3.71543 0
M  V30 18866 H 1840.06 0.594012 -4.88602 0
M  V30 18867 N 1841.71 1.57497 -0.0568439 0
M  V30 18868 C 1842.94 1.97645 0.628589 0
M  V30 18869 C 1843.36 0.934424 1.63249 0
M  V30 18870 O 1842.72 -0.101706 1.81015 0
M  V30 18871 C 1842.77 3.36855 1.2869 0
M  V30 18872 O 1841.87 3.35182 2.40264 0
M  V30 18873 H 1841.21 0.643698 0.16294 0
M  V30 18874 H 1843.74 2.04206 -0.126927 0
M  V30 18875 H 1843.75 3.73708 1.63726 0
M  V30 18876 H 1842.43 4.12231 0.551203 0
M  V30 18877 H 1841.01 3.10081 2.07133 0
M  V30 18878 N 1843.19 -0.216591 1.56105 0
M  V30 18879 C 1844.61 -0.56651 1.49207 0
M  V30 18880 C 1844.81 -1.86906 0.752882 0
M  V30 18881 O 1843.86 -2.50776 0.294573 0
M  V30 18882 C 1845.18 -0.641146 2.93785 0
M  V30 18883 C 1846.72 -0.731439 3.04334 0
M  V30 18884 C 1847.2 -0.837376 4.5028 0
M  V30 18885 N 1848.69 -0.901468 4.54343 0
M  V30 18886 C 1849.42 -1.00323 5.64555 0
M  V30 18887 N 1848.92 -1.06864 6.84509 0
M  V30 18888 N 1850.71 -1.03876 5.52419 0
M  V30 18889 H 1842.86 0.638091 2.02589 0
M  V30 18890 H 1845.13 0.224543 0.921024 0
M  V30 18891 H 1844.83 0.246454 3.50835 0
M  V30 18892 H 1844.71 -1.5031 3.45958 0
M  V30 18893 H 1847.09 -1.60948 2.47346 0
M  V30 18894 H 1847.18 0.15628 2.55322 0
M  V30 18895 H 1846.82 0.0362262 5.07887 0
M  V30 18896 H 1846.75 -1.74058 4.97002 0
M  V30 18897 H 1849.24 -0.861039 3.6796 0
M  V30 18898 H 1849.55 -1.1462 7.64253 0
M  V30 18899 H 1847.9 -1.03768 6.8721 0
M  V30 18900 H 1851.09 -0.984348 4.57633 0
M  V30 18901 H 1851.26 -1.11461 6.38342 0
M  V30 18902 N 1844.67 -1.5 -0.48349 0
M  V30 18903 C 1845.91 -1.61577 -1.2355 0
M  V30 18904 C 1846.27 -0.3065 -1.89943 0
M  V30 18905 O 1845.56 0.694667 -1.78564 0
M  V30 18906 C 1845.76 -2.72475 -2.31283 0
M  V30 18907 C 1845.59 -4.14059 -1.75457 0
M  V30 18908 C 1844.36 -4.80623 -1.55979 0
M  V30 18909 C 1846.55 -4.98715 -1.2565 0
M  V30 18910 N 1844.54 -6.06463 -0.952659 0
M  V30 18911 C 1845.91 -6.15177 -0.771821 0
M  V30 18912 C 1847.96 -4.84582 -1.14388 0
M  V30 18913 C 1846.66 -7.1906 -0.185638 0
M  V30 18914 C 1848.69 -5.88631 -0.571647 0
M  V30 18915 C 1848.05 -7.04333 -0.097282 0
M  V30 18916 H 1844.15 -0.645496 -0.441428 0
M  V30 18917 H 1846.74 -1.87074 -0.539582 0
M  V30 18918 H 1844.91 -2.48721 -2.98316 0
M  V30 18919 H 1846.64 -2.73477 -2.98316 0
M  V30 18920 H 1843.39 -4.3771 -1.8085 0
M  V30 18921 H 1843.82 -6.73698 -0.667863 0
M  V30 18922 H 1848.46 -3.95427 -1.49658 0
M  V30 18923 H 1846.18 -8.07901 0.179294 0
M  V30 18924 H 1849.76 -5.79758 -0.487042 0
M  V30 18925 H 1848.64 -7.83469 0.338582 0
M  V30 18926 N 1846.15 0.735796 -1.39369 0
M  V30 18927 C 1847.37 1.52504 -1.39822 0
M  V30 18928 C 1847.79 1.88799 0.00747346 0
M  V30 18929 O 1847.15 1.54044 0.978611 0
M  V30 18930 C 1847.2 2.8131 -2.27039 0
M  V30 18931 O 1846.92 2.46557 -3.62134 0
M  V30 18932 C 1848.42 3.75343 -2.35866 0
M  V30 18933 H 1845.64 0.471306 -0.47761 0
M  V30 18934 H 1848.18 0.909257 -1.83174 0
M  V30 18935 H 1846.34 3.39222 -1.87102 0
M  V30 18936 H 1846.75 3.29294 -4.08247 0
M  V30 18937 H 1848.23 4.6262 -3.01142 0
M  V30 18938 H 1848.7 4.17036 -1.37758 0
M  V30 18939 H 1849.31 3.2335 -2.7627 0
M  V30 18940 N 1847.63 1.24532 0.965897 0
M  V30 18941 C 1849.04 1.07886 1.52373 0
M  V30 18942 C 1849.39 -0.349136 1.93069 0
M  V30 18943 O 1848.51 -1.23774 1.77508 0
M  V30 18944 C 1849.11 1.95224 2.76899 0
M  V30 18945 C 1847.67 1.82796 3.29033 0
M  V30 18946 C 1846.81 1.9005 2.01931 0
M  V30 18947 H 1849.76 1.37982 0.783997 0
M  V30 18948 H 1849.79 1.48558 3.50301 0
M  V30 18949 H 1849.3 2.99148 2.47249 0
M  V30 18950 H 1847.4 0.817115 3.6353 0
M  V30 18951 H 1847.51 2.66989 3.97811 0
M  V30 18952 H 1845.88 1.338 2.16725 0
M  V30 18953 H 1846.66 2.95558 1.74644 0
M  V30 18954 N 1849.1 -1.16685 1.05936 0
M  V30 18955 C 1850.35 -1.87405 0.775061 0
M  V30 18956 C 1850.68 -1.81279 -0.696543 0
M  V30 18957 O 1849.96 -1.22595 -1.50999 0
M  V30 18958 C 1850.24 -3.37124 1.26569 0
M  V30 18959 C 1850.09 -3.5196 2.80078 0
M  V30 18960 C 1851.41 -4.31401 0.870695 0
M  V30 18961 H 1848.53 -0.680488 0.283028 0
M  V30 18962 H 1851.17 -1.37174 1.31466 0
M  V30 18963 H 1849.32 -3.80033 0.806653 0
M  V30 18964 H 1851 -3.18014 3.34163 0
M  V30 18965 H 1849.24 -2.9399 3.18986 0
M  V30 18966 H 1849.91 -4.5709 3.09471 0
M  V30 18967 H 1852.39 -3.96373 1.266 0
M  V30 18968 H 1851.26 -5.34676 1.2415 0
M  V30 18969 H 1851.52 -4.41529 -0.224692 0
M  V30 18970 N 1850.58 -0.841432 -1.33258 0
M  V30 18971 C 1851.83 -0.437512 -1.97307 0
M  V30 18972 C 1852.15 1.00723 -1.66973 0
M  V30 18973 O 1851.42 1.70199 -0.969998 0
M  V30 18974 H 1850 -0.158794 -0.729927 0
M  V30 18975 H 1852.66 -1.07495 -1.62575 0
M  V30 18976 H 1851.76 -0.571675 -3.0682 0
M  V30 18977 N 1852.06 1.4581 -0.598108 0
M  V30 18978 C 1852.99 2.27529 0.174933 0
M  V30 18979 C 1853.97 1.36565 0.882546 0
M  V30 18980 O 1855.15 1.65987 0.893332 0
M  V30 18981 C 1852.28 3.14698 1.25232 0
M  V30 18982 C 1851.33 4.21535 0.648877 0
M  V30 18983 S 1852.16 5.3281 -0.53603 0
M  V30 18984 C 1853.32 6.23547 0.542182 0
M  V30 18985 H 1853.55 2.92745 -0.518405 0
M  V30 18986 H 1851.08 1.49513 -0.385382 0
M  V30 18987 H 1853.04 3.65479 1.86909 0
M  V30 18988 H 1851.7 2.48764 1.91768 0
M  V30 18989 H 1850.89 4.82414 1.45922 0
M  V30 18990 H 1850.5 3.73846 0.107447 0
M  V30 18991 H 1852.79 6.6237 1.4238 0
M  V30 18992 H 1853.73 7.08094 -0.0302138 0
M  V30 18993 H 1854.14 5.58014 0.85325 0
M  V30 18994 N 1853.54 0.336733 1.53961 0
M  V30 18995 C 1854.5 -0.510638 2.23439 0
M  V30 18996 C 1855.5 -1.03304 1.23227 0
M  V30 18997 O 1856.69 -0.923373 1.47714 0
M  V30 18998 C 1853.82 -1.71063 2.94873 0
M  V30 18999 H 1855.02 0.0969205 2.99743 0
M  V30 19000 H 1852.57 0.0879867 1.56052 0
M  V30 19001 H 1853.3 -2.35707 2.22739 0
M  V30 19002 H 1853.09 -1.34331 3.68371 0
M  V30 19003 H 1854.58 -2.31182 3.47771 0
M  V30 19004 N 1855.02 -1.57465 0.0651956 0
M  V30 19005 C 1856.29 -1.84622 -0.646065 0
M  V30 19006 C 1856.67 -0.956374 -1.88193 0
M  V30 19007 O 1856.02 -0.0209666 -2.2849 0
M  V30 19008 C 1856.23 -3.34664 -0.990013 0
M  V30 19009 C 1857.58 -4.02016 -1.36632 0
M  V30 19010 O 1858.6 -3.39371 -1.08194 0
M  V30 19011 O 1857.46 -5.12496 -1.89764 0
M  V30 19012 H 1854.56 -0.762482 -0.320236 0
M  V30 19013 H 1857.1 -1.6943 0.0956254 0
M  V30 19014 H 1855.87 -3.9114 -0.111977 0
M  V30 19015 H 1855.5 -3.55094 -1.78869 0
M  V30 19016 N 1856.49 0.20831 -1.56217 0
M  V30 19017 C 1857.42 1.26115 -1.96513 0
M  V30 19018 C 1858.4 1.48185 -0.835183 0
M  V30 19019 O 1859.59 1.60145 -1.09851 0
M  V30 19020 C 1856.72 2.6082 -2.29326 0
M  V30 19021 C 1855.67 2.53385 -3.44935 0
M  V30 19022 C 1855 3.92241 -3.63388 0
M  V30 19023 C 1856.3 2.07026 -4.79518 0
M  V30 19024 H 1857.99 0.92635 -2.84709 0
M  V30 19025 H 1855.54 0.444169 -1.36979 0
M  V30 19026 H 1857.49 3.34644 -2.56109 0
M  V30 19027 H 1856.22 2.96014 -1.37997 0
M  V30 19028 H 1854.88 1.82018 -3.18222 0
M  V30 19029 H 1854.52 4.24766 -2.69413 0
M  V30 19030 H 1854.22 3.88145 -4.41154 0
M  V30 19031 H 1855.75 4.67707 -3.92533 0
M  V30 19032 H 1857.16 2.70601 -5.05419 0
M  V30 19033 H 1855.56 2.13961 -5.60661 0
M  V30 19034 H 1856.63 1.02298 -4.73986 0
M  V30 19035 N 1857.97 1.50255 0.475528 0
M  V30 19036 C 1859.22 1.61261 1.22975 0
M  V30 19037 C 1859.55 0.309949 1.91711 0
M  V30 19038 O 1858.83 -0.688288 1.81914 0
M  V30 19039 C 1859.11 2.7898 2.27688 0
M  V30 19040 C 1858.96 4.19115 1.63287 0
M  V30 19041 C 1860.28 2.9227 3.29038 0
M  V30 19042 H 1857.4 0.586933 0.445734 0
M  V30 19043 H 1860.04 1.82626 0.524177 0
M  V30 19044 H 1858.19 2.60894 2.87865 0
M  V30 19045 H 1859.86 4.48781 1.06741 0
M  V30 19046 H 1858.11 4.23579 0.936127 0
M  V30 19047 H 1858.78 4.97405 2.39359 0
M  V30 19048 H 1861.25 3.08813 2.78879 0
M  V30 19049 H 1860.13 3.7627 3.9964 0
M  V30 19050 H 1860.39 2.02696 3.92895 0
M  V30 19051 N 1859.45 -0.728395 1.39758 0
M  V30 19052 C 1860.41 -1.82415 1.38772 0
M  V30 19053 C 1861.41 -1.58278 0.283678 0
M  V30 19054 O 1862.6 -1.65556 0.541927 0
M  V30 19055 C 1859.73 -3.20309 1.16684 0
M  V30 19056 H 1860.93 -1.8469 2.36283 0
M  V30 19057 H 1858.48 -0.932729 1.25419 0
M  V30 19058 H 1859.22 -3.2369 0.198817 0
M  V30 19059 H 1859 -3.39226 1.96643 0
M  V30 19060 H 1860.49 -4.0036 1.18751 0
M  V30 19061 N 1860.93 -1.25042 -0.959279 0
M  V30 19062 C 1862.34 -1.08692 -1.51799 0
M  V30 19063 C 1862.69 0.338893 -1.93251 0
M  V30 19064 O 1861.81 1.22831 -1.78162 0
M  V30 19065 C 1862.41 -1.9669 -2.7586 0
M  V30 19066 C 1860.97 -1.84538 -3.28059 0
M  V30 19067 C 1860.12 -1.91119 -2.0092 0
M  V30 19068 H 1863.07 -1.38396 -0.776669 0
M  V30 19069 H 1863.09 -1.50414 -3.49508 0
M  V30 19070 H 1862.6 -3.00455 -2.45659 0
M  V30 19071 H 1860.7 -0.836383 -3.63091 0
M  V30 19072 H 1860.81 -2.69095 -3.96389 0
M  V30 19073 H 1859.18 -1.34948 -2.16012 0
M  V30 19074 H 1859.96 -2.9648 -1.73074 0
M  V30 19075 N 1862.41 1.16121 -1.06553 0
M  V30 19076 C 1863.32 2.24229 -0.689833 0
M  V30 19077 C 1864.33 1.71476 0.295308 0
M  V30 19078 O 1865.51 2.00885 0.143964 0
M  V30 19079 C 1862.57 3.46596 -0.0847857 0
M  V30 19080 C 1861.63 4.14375 -1.12213 0
M  V30 19081 C 1860.87 5.30901 -0.54586 0
M  V30 19082 O 1861.09 5.66792 0.640588 0
M  V30 19083 O 1860.02 5.87983 -1.28683 0
M  V30 19084 H 1863.85 2.5868 -1.59117 0
M  V30 19085 H 1861.44 1.23687 -0.837966 0
M  V30 19086 H 1863.32 4.20653 0.250764 0
M  V30 19087 H 1861.99 3.13912 0.789998 0
M  V30 19088 H 1860.9 3.42276 -1.5099 0
M  V30 19089 H 1862.23 4.5112 -1.96853 0
M  V30 19090 N 1863.88 0.848487 1.3281 0
M  V30 19091 C 1864.82 0.245947 2.27877 0
M  V30 19092 C 1865.83 -0.578811 1.52163 0
M  V30 19093 O 1867.02 -0.404308 1.73861 0
M  V30 19094 C 1864.12 -0.671584 3.32179 0
M  V30 19095 C 1863.29 0.115958 4.37246 0
M  V30 19096 C 1862.35 -0.726387 5.21162 0
M  V30 19097 O 1861.38 -0.162121 5.68969 0
M  V30 19098 N 1862.58 -2.04216 5.43393 0
M  V30 19099 H 1865.34 1.06281 2.80222 0
M  V30 19100 H 1862.9 0.707872 1.45605 0
M  V30 19101 H 1864.9 -1.2403 3.85225 0
M  V30 19102 H 1863.47 -1.38914 2.80039 0
M  V30 19103 H 1862.69 0.866084 3.84568 0
M  V30 19104 H 1863.97 0.657126 5.04539 0
M  V30 19105 H 1863.37 -2.52401 5.06271 0
M  V30 19106 H 1861.93 -2.55914 5.99459 0
M  V30 19107 N 1865.36 -1.4549 0.605832 0
M  V30 19108 C 1866.61 -2.02551 0.100487 0
M  V30 19109 C 1866.94 -1.47346 -1.26502 0
M  V30 19110 O 1866.22 -0.647471 -1.83407 0
M  V30 19111 C 1866.5 -3.60051 0.0596664 0
M  V30 19112 C 1866.35 -4.25592 1.45572 0
M  V30 19113 C 1867.67 -4.35581 -0.629073 0
M  V30 19114 H 1864.79 -0.73602 0.0379904 0
M  V30 19115 H 1867.43 -1.73365 0.777468 0
M  V30 19116 H 1865.58 -3.85047 -0.516838 0
M  V30 19117 H 1867.25 -4.11787 2.07916 0
M  V30 19118 H 1865.5 -3.84061 2.01692 0
M  V30 19119 H 1866.17 -5.34487 1.37941 0
M  V30 19120 H 1868.64 -4.15868 -0.139076 0
M  V30 19121 H 1867.52 -5.4531 -0.626735 0
M  V30 19122 H 1867.78 -4.08323 -1.69483 0
M  V30 19123 N 1866.84 -0.344893 -1.5378 0
M  V30 19124 C 1867.79 0.511269 -2.25066 0
M  V30 19125 C 1868.76 1.09446 -1.24944 0
M  V30 19126 O 1869.94 1.13082 -1.53679 0
M  V30 19127 C 1867.08 1.65563 -3.02792 0
M  V30 19128 C 1866.2 1.09962 -4.17771 0
M  V30 19129 C 1865.33 2.21139 -4.82981 0
M  V30 19130 C 1864.37 1.62897 -5.90026 0
M  V30 19131 N 1863.51 2.67822 -6.49011 0
M  V30 19132 H 1868.35 -0.103166 -2.97821 0
M  V30 19133 H 1865.88 -0.0626846 -1.46966 0
M  V30 19134 H 1867.84 2.32936 -3.46117 0
M  V30 19135 H 1866.47 2.24103 -2.32331 0
M  V30 19136 H 1865.52 0.316786 -3.79079 0
M  V30 19137 H 1866.84 0.633622 -4.94759 0
M  V30 19138 H 1865.99 2.96375 -5.29383 0
M  V30 19139 H 1864.73 2.71083 -4.0542 0
M  V30 19140 H 1863.73 0.861672 -5.43006 0
M  V30 19141 H 1864.96 1.13803 -6.69497 0
M  V30 19142 H 1862.9 3.17018 -5.74313 0
M  V30 19143 H 1862.82 2.25848 -7.21477 0
M  V30 19144 H 1864.09 3.42822 -7.00066 0
M  V30 19145 N 1868.32 1.57428 -0.0735454 0
M  V30 19146 C 1869.27 2.12821 0.893071 0
M  V30 19147 C 1870.24 1.04117 1.29418 0
M  V30 19148 O 1871.42 1.31789 1.37972 0
M  V30 19149 C 1868.56 2.69569 2.15468 0
M  V30 19150 C 1867.67 3.92436 1.80605 0
M  V30 19151 C 1866.81 4.37421 3.01391 0
M  V30 19152 C 1865.85 5.52931 2.62553 0
M  V30 19153 N 1864.98 5.92866 3.76104 0
M  V30 19154 H 1869.82 2.95113 0.413823 0
M  V30 19155 H 1867.36 1.45834 0.192613 0
M  V30 19156 H 1869.32 3.0058 2.89323 0
M  V30 19157 H 1867.95 1.9004 2.6093 0
M  V30 19158 H 1867 3.67876 0.968068 0
M  V30 19159 H 1868.31 4.76327 1.48033 0
M  V30 19160 H 1867.47 4.70102 3.83522 0
M  V30 19161 H 1866.21 3.52386 3.37158 0
M  V30 19162 H 1865.21 5.19899 1.78844 0
M  V30 19163 H 1866.44 6.39698 2.27954 0
M  V30 19164 H 1864.38 5.10781 4.11629 0
M  V30 19165 H 1864.3 6.71502 3.47305 0
M  V30 19166 H 1865.57 6.30171 4.58808 0
M  V30 19167 N 1869.8 -0.200022 1.56326 0
M  V30 19168 C 1870.75 -1.2519 1.90556 0
M  V30 19169 C 1871.73 -1.41239 0.77074 0
M  V30 19170 O 1872.92 -1.43692 1.03352 0
M  V30 19171 C 1870.05 -2.59777 2.24434 0
M  V30 19172 C 1869.14 -2.47541 3.4436 0
M  V30 19173 N 1869.53 -2.04979 4.62404 0
M  V30 19174 C 1867.83 -2.78447 3.48401 0
M  V30 19175 C 1868.53 -2.04515 5.44562 0
M  V30 19176 N 1867.5 -2.45831 4.84838 0
M  V30 19177 H 1871.31 -0.914073 2.79324 0
M  V30 19178 H 1868.82 -0.408485 1.57179 0
M  V30 19179 H 1870.82 -3.35749 2.4714 0
M  V30 19180 H 1869.48 -2.94387 1.3699 0
M  V30 19181 H 1870.49 -1.75766 4.87162 0
M  V30 19182 H 1867.16 -3.17286 2.71359 0
M  V30 19183 H 1868.55 -1.73551 6.49099 0
M  V30 19184 N 1871.27 -1.50505 -0.467553 0
M  V30 19185 C 1872.5 -1.65193 -1.24076 0
M  V30 19186 C 1872.91 -0.336102 -1.86191 0
M  V30 19187 O 1872.26 0.692299 -1.70156 0
M  V30 19188 C 1872.32 -2.68798 -2.38721 0
M  V30 19189 C 1871.98 -4.12256 -1.97216 0
M  V30 19190 C 1872.98 -4.98012 -1.49267 0
M  V30 19191 C 1870.66 -4.58192 -2.05829 0
M  V30 19192 C 1872.66 -6.27753 -1.10477 0
M  V30 19193 C 1870.34 -5.87938 -1.66651 0
M  V30 19194 C 1871.34 -6.72544 -1.19053 0
M  V30 19195 O 1871.03 -7.99867 -0.804197 0
M  V30 19196 H 1870.76 -0.55823 -0.381254 0
M  V30 19197 H 1873.32 -1.97502 -0.564089 0
M  V30 19198 H 1871.55 -2.31739 -3.09571 0
M  V30 19199 H 1873.24 -2.7267 -3.00675 0
M  V30 19200 H 1874 -4.63737 -1.42031 0
M  V30 19201 H 1869.88 -3.92482 -2.41825 0
M  V30 19202 H 1873.42 -6.93743 -0.732554 0
M  V30 19203 H 1869.32 -6.21733 -1.73546 0
M  V30 19204 H 1870.09 -8.13168 -0.932733 0
M  V30 19205 N 1872.75 0.720973 -1.40142 0
M  V30 19206 C 1874.17 1.02835 -1.22054 0
M  V30 19207 C 1874.37 2.0129 -0.091949 0
M  V30 19208 O 1873.42 2.46395 0.551897 0
M  V30 19209 C 1874.74 1.57722 -2.56016 0
M  V30 19210 C 1876.29 1.69734 -2.62982 0
M  V30 19211 C 1876.76 2.28027 -3.972 0
M  V30 19212 N 1878.25 2.3542 -3.98913 0
M  V30 19213 C 1878.99 2.81495 -4.99548 0
M  V30 19214 N 1878.48 3.27362 -6.10578 0
M  V30 19215 N 1880.28 2.80831 -4.86919 0
M  V30 19216 H 1872.43 0.068271 -2.1229 0
M  V30 19217 H 1874.69 0.0928952 -0.943438 0
M  V30 19218 H 1874.4 0.928424 -3.39224 0
M  V30 19219 H 1874.27 2.56326 -2.76725 0
M  V30 19220 H 1876.66 2.33732 -1.80148 0
M  V30 19221 H 1876.74 0.697443 -2.46108 0
M  V30 19222 H 1876.38 1.64653 -4.80471 0
M  V30 19223 H 1876.31 3.28721 -4.114 0
M  V30 19224 H 1878.8 2.03019 -3.18735 0
M  V30 19225 H 1879.12 3.61071 -6.83263 0
M  V30 19226 H 1877.46 3.25335 -6.14152 0
M  V30 19227 H 1880.65 2.4433 -3.99275 0
M  V30 19228 H 1880.82 3.16423 -5.65492 0
M  V30 19229 N 1874.23 1.25549 0.952634 0
M  V30 19230 C 1875.65 1.02414 1.22407 0
M  V30 19231 C 1875.85 -0.257807 1.99844 0
M  V30 19232 O 1874.9 -0.969999 2.33125 0
M  V30 19233 C 1876.22 2.24856 1.9965 0
M  V30 19234 C 1877.76 2.29638 2.12686 0
M  V30 19235 C 1878.24 3.51742 2.93329 0
M  V30 19236 N 1879.73 3.5215 3.00907 0
M  V30 19237 C 1880.46 4.43292 3.63703 0
M  V30 19238 N 1879.96 5.44709 4.28094 0
M  V30 19239 N 1881.75 4.30969 3.60863 0
M  V30 19240 H 1873.9 2.07905 0.434647 0
M  V30 19241 H 1876.17 0.913124 0.254772 0
M  V30 19242 H 1875.87 3.18037 1.5015 0
M  V30 19243 H 1875.75 2.28188 3.0035 0
M  V30 19244 H 1878.13 1.36978 2.61383 0
M  V30 19245 H 1878.22 2.30324 1.11285 0
M  V30 19246 H 1877.86 4.44724 2.45322 0
M  V30 19247 H 1877.79 3.48301 3.9496 0
M  V30 19248 H 1880.28 2.78789 2.55118 0
M  V30 19249 H 1880.59 6.10462 4.73873 0
M  V30 19250 H 1878.94 5.48579 4.26715 0
M  V30 19251 H 1882.13 3.50964 3.09745 0
M  V30 19252 H 1882.3 5.02196 4.09516 0
M  V30 19253 N 1875.71 -1.15554 1.07168 0
M  V30 19254 C 1876.67 -2.18431 0.694305 0
M  V30 19255 C 1877.67 -1.5861 -0.264497 0
M  V30 19256 O 1878.86 -1.7414 -0.0457035 0
M  V30 19257 C 1875.99 -3.40892 0.0230473 0
M  V30 19258 H 1877.19 -2.53331 1.60511 0
M  V30 19259 H 1874.74 -1.29984 0.867982 0
M  V30 19260 H 1875.47 -3.11559 -0.900083 0
M  V30 19261 H 1875.26 -3.8557 0.712622 0
M  V30 19262 H 1876.75 -4.16986 -0.226392 0
M  V30 19263 N 1877.19 -0.855519 -1.32358 0
M  V30 19264 C 1878.43 -0.460002 -1.97514 0
M  V30 19265 C 1878.77 0.982052 -1.67539 0
M  V30 19266 O 1878.04 1.68925 -0.964091 0
M  V30 19267 C 1878.32 -0.70064 -3.53218 0
M  V30 19268 C 1878.18 -2.19118 -3.9282 0
M  V30 19269 C 1879.5 -0.157597 -4.39818 0
M  V30 19270 H 1876.62 -0.168606 -0.717455 0
M  V30 19271 H 1879.26 -1.0741 -1.56726 0
M  V30 19272 H 1877.41 -0.177937 -3.88092 0
M  V30 19273 H 1879.08 -2.78002 -3.6812 0
M  V30 19274 H 1877.32 -2.66934 -3.41948 0
M  V30 19275 H 1877.99 -2.31024 -5.0133 0
M  V30 19276 H 1880.47 -0.604597 -4.11684 0
M  V30 19277 H 1879.35 -0.355532 -5.47747 0
M  V30 19278 H 1879.61 0.939679 -4.31998 0
M  V30 19279 N 1878.67 1.45167 -0.61354 0
M  V30 19280 C 1879.6 2.3333 0.089004 0
M  V30 19281 C 1880.58 1.47181 0.85275 0
M  V30 19282 O 1881.76 1.7594 0.822122 0
M  V30 19283 C 1878.89 3.29982 1.08301 0
M  V30 19284 C 1877.85 4.25813 0.432084 0
M  V30 19285 C 1877.17 5.122 1.53476 0
M  V30 19286 C 1878.47 5.18233 -0.65052 0
M  V30 19287 H 1880.17 2.92322 -0.647165 0
M  V30 19288 H 1877.71 1.40565 -0.312667 0
M  V30 19289 H 1879.66 3.90533 1.5831 0
M  V30 19290 H 1878.39 2.69162 1.84985 0
M  V30 19291 H 1877.05 3.6657 -0.0471927 0
M  V30 19292 H 1876.7 4.47744 2.29203 0
M  V30 19293 H 1876.4 5.77122 1.10469 0
M  V30 19294 H 1877.92 5.7562 2.037 0
M  V30 19295 H 1879.33 5.72821 -0.234262 0
M  V30 19296 H 1877.73 5.91664 -1.00268 0
M  V30 19297 H 1878.8 4.60304 -1.52475 0
M  V30 19298 N 1880.14 0.353044 1.53595 0
M  V30 19299 C 1881.11 -0.48691 2.23968 0
M  V30 19300 C 1882.11 -1.01991 1.24316 0
M  V30 19301 O 1883.3 -0.907654 1.48685 0
M  V30 19302 C 1880.43 -1.67926 2.96671 0
M  V30 19303 H 1881.62 0.128707 2.99624 0
M  V30 19304 H 1879.17 0.104533 1.5595 0
M  V30 19305 H 1879.91 -2.33331 2.25227 0
M  V30 19306 H 1879.69 -1.30417 3.69776 0
M  V30 19307 H 1881.18 -2.2748 3.50203 0
M  V30 19308 N 1881.62 -1.57387 0.0818932 0
M  V30 19309 C 1882.87 -1.94156 -0.585765 0
M  V30 19310 C 1883.2 -0.962889 -1.68648 0
M  V30 19311 O 1882.48 0.00625819 -1.94499 0
M  V30 19312 C 1882.76 -3.41132 -1.15329 0
M  V30 19313 C 1882.61 -4.49762 -0.0585349 0
M  V30 19314 C 1883.93 -3.89137 -2.05573 0
M  V30 19315 H 1881.05 -0.706012 -0.211463 0
M  V30 19316 H 1883.69 -1.89408 0.149918 0
M  V30 19317 H 1881.84 -3.4531 -1.78026 0
M  V30 19318 H 1883.51 -4.57702 0.575061 0
M  V30 19319 H 1881.76 -4.29496 0.609574 0
M  V30 19320 H 1882.43 -5.49765 -0.496206 0
M  V30 19321 H 1884.9 -3.87029 -1.52798 0
M  V30 19322 H 1883.78 -4.92569 -2.42213 0
M  V30 19323 H 1884.04 -3.27663 -2.96799 0
M  V30 19324 N 1883.1 0.191729 -1.56429 0
M  V30 19325 C 1884.05 1.24177 -1.91217 0
M  V30 19326 C 1885.03 1.40828 -0.778219 0
M  V30 19327 O 1886.23 1.43142 -1.04112 0
M  V30 19328 C 1883.35 2.58584 -2.25808 0
M  V30 19329 C 1882.44 2.45712 -3.45668 0
M  V30 19330 N 1882.83 2.02524 -4.63484 0
M  V30 19331 C 1881.13 2.76595 -3.49873 0
M  V30 19332 C 1881.83 2.01625 -5.45639 0
M  V30 19333 N 1880.81 2.43256 -4.86135 0
M  V30 19334 H 1884.61 0.899247 -2.79805 0
M  V30 19335 H 1882.12 0.400144 -1.57393 0
M  V30 19336 H 1884.12 3.34434 -2.48917 0
M  V30 19337 H 1882.78 2.93657 -1.38549 0
M  V30 19338 H 1883.79 1.7318 -4.88087 0
M  V30 19339 H 1880.47 3.15842 -2.73038 0
M  V30 19340 H 1881.86 1.70106 -6.5001 0
M  V30 19341 N 1884.58 1.50751 0.459565 0
M  V30 19342 C 1885.99 1.55043 1.04012 0
M  V30 19343 C 1886.34 0.360701 1.92856 0
M  V30 19344 O 1885.46 -0.525112 2.09932 0
M  V30 19345 C 1886.06 2.80975 1.89311 0
M  V30 19346 C 1884.62 2.87911 2.42455 0
M  V30 19347 C 1883.77 2.49464 1.2109 0
M  V30 19348 H 1886.72 1.56849 0.24171 0
M  V30 19349 H 1886.74 2.63482 2.74514 0
M  V30 19350 H 1886.25 3.67547 1.24623 0
M  V30 19351 H 1884.35 2.05717 3.10663 0
M  V30 19352 H 1884.46 3.91067 2.76773 0
M  V30 19353 H 1882.83 2.0216 1.54931 0
M  V30 19354 H 1883.61 3.38357 0.580469 0
M  V30 19355 N 1886.06 -0.713531 1.40522 0
M  V30 19356 C 1887.33 -1.46672 1.29409 0
M  V30 19357 C 1887.71 -2.10922 -0.0866293 0
M  V30 19358 O 1887.06 -2.00303 -1.09959 0
M  V30 19359 C 1887.27 -2.50076 2.4344 0
M  V30 19360 C 1888.62 -3.15848 2.8377 0
M  V30 19361 O 1889.64 -2.60396 2.43048 0
M  V30 19362 O 1888.5 -4.16238 3.5413 0
M  V30 19363 H 1885.6 -0.652333 0.508322 0
M  V30 19364 H 1888.14 -0.745531 1.52446 0
M  V30 19365 H 1886.91 -2.01129 3.35653 0
M  V30 19366 H 1886.54 -3.29728 2.22183 0
M  V30 19367 N 1887.53 -1.26053 -0.945962 0
M  V30 19368 C 1888.48 -1.07194 -2.04397 0
M  V30 19369 C 1889.45 0.0215796 -1.66086 0
M  V30 19370 O 1890.64 -0.137272 -1.90306 0
M  V30 19371 C 1887.78 -0.705915 -3.37803 0
M  V30 19372 C 1886.89 -1.87519 -3.89179 0
M  V30 19373 C 1886.02 -1.45272 -5.1095 0
M  V30 19374 C 1885.06 -2.59059 -5.54576 0
M  V30 19375 N 1884.2 -2.17527 -6.67552 0
M  V30 19376 H 1889.04 -2.01159 -2.19861 0
M  V30 19377 H 1886.58 -1.00162 -1.07731 0
M  V30 19378 H 1888.53 -0.474611 -4.14492 0
M  V30 19379 H 1887.16 0.196761 -3.222 0
M  V30 19380 H 1886.22 -2.21956 -3.08933 0
M  V30 19381 H 1887.53 -2.7294 -4.17499 0
M  V30 19382 H 1886.68 -1.18158 -5.95083 0
M  V30 19383 H 1885.42 -0.569345 -4.84365 0
M  V30 19384 H 1884.43 -2.86908 -4.69003 0
M  V30 19385 H 1885.65 -3.47989 -5.83164 0
M  V30 19386 H 1883.6 -1.31618 -6.42661 0
M  V30 19387 H 1883.51 -2.96493 -6.95433 0
M  V30 19388 H 1884.78 -1.93612 -7.55073 0
M  V30 19389 N 1889.01 1.14984 -1.07779 0
M  V30 19390 C 1889.97 2.1806 -0.705879 0
M  V30 19391 C 1890.97 1.58748 0.256082 0
M  V30 19392 O 1892.16 1.74162 0.0364678 0
M  V30 19393 C 1889.3 3.40875 -0.0411253 0
M  V30 19394 H 1890.49 2.52476 -1.61852 0
M  V30 19395 H 1888.04 1.29522 -0.874863 0
M  V30 19396 H 1888.78 3.12032 0.883548 0
M  V30 19397 H 1888.56 3.85186 -0.73306 0
M  V30 19398 H 1890.05 4.171 0.204275 0
M  V30 19399 N 1890.49 0.862526 1.31902 0
M  V30 19400 C 1891.45 0.317836 2.26986 0
M  V30 19401 C 1892.45 -0.526959 1.5192 0
M  V30 19402 O 1893.64 -0.337336 1.70903 0
M  V30 19403 C 1890.77 -0.549441 3.36443 0
M  V30 19404 H 1891.97 1.15714 2.76677 0
M  V30 19405 H 1889.52 0.637501 1.42708 0
M  V30 19406 H 1890.26 -1.41024 2.92032 0
M  V30 19407 H 1890.04 0.0553642 3.92061 0
M  V30 19408 H 1891.53 -0.923059 4.07271 0
M  V30 19409 N 1891.97 -1.4484 0.62123 0
M  V30 19410 C 1893.22 -2.01734 0.121544 0
M  V30 19411 C 1893.54 -1.49041 -1.25745 0
M  V30 19412 O 1892.81 -0.690056 -1.83344 0
M  V30 19413 H 1891.39 -0.745822 0.0419419 0
M  V30 19414 H 1894.05 -1.77467 0.805702 0
M  V30 19415 H 1893.15 -3.11993 0.0816882 0
M  V30 19416 N 1893.45 -0.361184 -1.53405 0
M  V30 19417 C 1894.38 0.522004 -2.23177 0
M  V30 19418 C 1895.39 1.04974 -1.24436 0
M  V30 19419 O 1896.58 0.956873 -1.50686 0
M  V30 19420 C 1893.68 1.733 -2.91239 0
M  V30 19421 C 1892.85 1.33752 -4.16448 0
M  V30 19422 C 1891.91 2.4101 -4.67761 0
M  V30 19423 O 1890.94 2.03583 -5.31547 0
M  V30 19424 N 1892.14 3.72531 -4.45198 0
M  V30 19425 H 1894.91 -0.0756154 -2.99605 0
M  V30 19426 H 1892.47 -0.18615 -1.60826 0
M  V30 19427 H 1894.46 2.44522 -3.22477 0
M  V30 19428 H 1893.03 2.23759 -2.18291 0
M  V30 19429 H 1892.25 0.455335 -3.91561 0
M  V30 19430 H 1893.54 1.04953 -4.97858 0
M  V30 19431 H 1892.93 4.05716 -3.94222 0
M  V30 19432 H 1891.49 4.3987 -4.80997 0
M  V30 19433 N 1894.92 1.57341 -0.0902386 0
M  V30 19434 C 1896.34 1.8145 0.439638 0
M  V30 19435 C 1896.69 1.00551 1.68475 0
M  V30 19436 O 1895.81 0.233442 2.15137 0
M  V30 19437 C 1896.41 3.29113 0.804384 0
M  V30 19438 C 1894.97 3.54003 1.27903 0
M  V30 19439 C 1894.11 2.7595 0.27328 0
M  V30 19440 H 1897.06 1.55527 -0.315738 0
M  V30 19441 H 1897.08 3.4217 1.66432 0
M  V30 19442 H 1896.6 3.87966 -0.102017 0
M  V30 19443 H 1894.7 3.00475 2.20331 0
M  V30 19444 H 1894.81 4.62662 1.24422 0
M  V30 19445 H 1893.17 2.43271 0.754419 0
M  V30 19446 H 1893.96 3.3755 -0.625715 0
M  V30 19447 N 1896.4 -0.183431 1.56529 0
M  V30 19448 C 1897.63 -0.916557 1.85156 0
M  V30 19449 C 1898.04 -1.76861 0.672063 0
M  V30 19450 O 1897.38 -1.7997 -0.3683 0
M  V30 19451 C 1897.45 -1.85342 3.0804 0
M  V30 19452 C 1897.11 -1.18216 4.41445 0
M  V30 19453 C 1898.11 -0.553445 5.16946 0
M  V30 19454 C 1895.79 -1.18253 4.88182 0
M  V30 19455 C 1897.79 0.0659422 6.37366 0
M  V30 19456 C 1895.47 -0.559316 6.08535 0
M  V30 19457 C 1896.47 0.0638301 6.8297 0
M  V30 19458 O 1896.16 0.677251 8.01042 0
M  V30 19459 H 1895.89 -0.272343 0.618713 0
M  V30 19460 H 1898.44 -0.192085 2.045 0
M  V30 19461 H 1896.67 -2.61789 2.84611 0
M  V30 19462 H 1898.36 -2.45533 3.23215 0
M  V30 19463 H 1899.13 -0.545219 4.81926 0
M  V30 19464 H 1895.01 -1.65696 4.30193 0
M  V30 19465 H 1898.55 0.552935 6.95405 0
M  V30 19466 H 1894.45 -0.565084 6.43022 0
M  V30 19467 H 1895.22 0.575305 8.16476 0
M  V30 19468 N 1897.88 -1.50992 -0.451564 0
M  V30 19469 C 1898.79 -1.74097 -1.5725 0
M  V30 19470 C 1899.81 -0.624663 -1.62401 0
M  V30 19471 O 1900.98 -0.90528 -1.79907 0
M  V30 19472 C 1898.05 -1.84808 -2.93338 0
M  V30 19473 C 1897.11 -3.08618 -2.98418 0
M  V30 19474 C 1896.34 -3.18808 -4.28015 0
M  V30 19475 O 1896.56 -2.35291 -5.1961 0
M  V30 19476 O 1895.5 -4.11685 -4.39089 0
M  V30 19477 H 1899.32 -2.69156 -1.40673 0
M  V30 19478 H 1896.91 -1.35322 -0.633105 0
M  V30 19479 H 1898.79 -1.9392 -3.7413 0
M  V30 19480 H 1897.47 -0.929344 -3.10072 0
M  V30 19481 H 1896.37 -3.04993 -2.16633 0
M  V30 19482 H 1897.71 -4.00133 -2.86625 0
M  V30 19483 N 1899.36 0.706069 -1.40899 0
M  V30 19484 C 1900.29 1.83119 -1.37841 0
M  V30 19485 C 1901.3 1.60335 -0.282253 0
M  V30 19486 O 1902.49 1.70032 -0.543263 0
M  V30 19487 C 1899.59 3.19696 -1.12461 0
M  V30 19488 C 1898.77 3.69598 -2.33915 0
M  V30 19489 C 1897.82 4.84815 -2.04551 0
M  V30 19490 O 1896.85 4.96973 -2.775 0
M  V30 19491 N 1898.05 5.71302 -1.0293 0
M  V30 19492 H 1900.82 1.86237 -2.34811 0
M  V30 19493 H 1898.38 0.887984 -1.35375 0
M  V30 19494 H 1900.37 3.94386 -0.90786 0
M  V30 19495 H 1898.94 3.11668 -0.241258 0
M  V30 19496 H 1898.16 2.85933 -2.7136 0
M  V30 19497 H 1899.45 3.99674 -3.14862 0
M  V30 19498 H 1898.85 5.64099 -0.425314 0
M  V30 19499 H 1897.4 6.45935 -0.872446 0
M  V30 19500 N 1900.84 1.26553 0.939264 0
M  V30 19501 C 1901.79 1.04944 2.02412 0
M  V30 19502 C 1902.77 -0.0188072 1.60889 0
M  V30 19503 O 1903.96 0.198373 1.75885 0
M  V30 19504 C 1901.09 0.686442 3.36367 0
M  V30 19505 C 1900.18 1.79224 3.84369 0
M  V30 19506 N 1900.57 3.02998 4.05001 0
M  V30 19507 C 1898.87 1.67628 4.133 0
M  V30 19508 C 1899.57 3.7488 4.44792 0
M  V30 19509 N 1898.54 3.02578 4.51605 0
M  V30 19510 H 1902.35 1.98891 2.16379 0
M  V30 19511 H 1899.86 1.17098 1.12525 0
M  V30 19512 H 1901.86 0.512782 4.13734 0
M  V30 19513 H 1900.52 -0.245528 3.2377 0
M  V30 19514 H 1901.53 3.38883 3.91636 0
M  V30 19515 H 1898.2 0.814344 4.09481 0
M  V30 19516 H 1899.59 4.812 4.68931 0
M  V30 19517 N 1902.31 -1.14411 1.08387 0
M  V30 19518 C 1903.28 -2.17682 0.717433 0
M  V30 19519 C 1904.28 -1.58881 -0.24766 0
M  V30 19520 O 1905.47 -1.74179 -0.027231 0
M  V30 19521 C 1902.6 -3.40849 0.0592022 0
M  V30 19522 H 1903.79 -2.51614 1.63188 0
M  V30 19523 H 1901.35 -1.29056 0.88172 0
M  V30 19524 H 1902.08 -3.12496 -0.866987 0
M  V30 19525 H 1901.87 -3.84792 0.753477 0
M  V30 19526 H 1903.36 -4.17203 -0.182152 0
M  V30 19527 N 1903.79 -0.869509 -1.31443 0
M  V30 19528 C 1904.74 -0.323034 -2.28528 0
M  V30 19529 C 1905.71 0.578245 -1.5571 0
M  V30 19530 O 1906.89 0.509983 -1.83858 0
M  V30 19531 C 1904.03 0.469861 -3.41886 0
M  V30 19532 C 1903.15 -0.458883 -4.29556 0
M  V30 19533 C 1902.28 0.348092 -5.30058 0
M  V30 19534 C 1901.32 -0.577109 -6.09373 0
M  V30 19535 N 1900.46 0.193589 -7.01833 0
M  V30 19536 H 1905.3 -1.15614 -2.74659 0
M  V30 19537 H 1902.84 -0.581526 -1.35117 0
M  V30 19538 H 1904.79 0.945338 -4.06349 0
M  V30 19539 H 1903.42 1.26767 -2.96867 0
M  V30 19540 H 1902.48 -1.05281 -3.65541 0
M  V30 19541 H 1903.79 -1.16833 -4.84924 0
M  V30 19542 H 1902.94 0.886098 -6.00194 0
M  V30 19543 H 1901.68 1.09083 -4.75344 0
M  V30 19544 H 1900.69 -1.12687 -5.38128 0
M  V30 19545 H 1901.91 -1.31869 -6.66174 0
M  V30 19546 H 1899.86 0.919147 -6.49529 0
M  V30 19547 H 1899.77 -0.456525 -7.5462 0
M  V30 19548 H 1901.04 0.71284 -7.76234 0
M  V30 19549 N 1905.27 1.44508 -0.628902 0
M  V30 19550 C 1906.2 2.27848 0.126632 0
M  V30 19551 C 1907.18 1.38406 0.85338 0
M  V30 19552 O 1908.37 1.67845 0.857923 0
M  V30 19553 C 1905.49 3.17283 1.18529 0
M  V30 19554 C 1904.54 4.22817 0.559317 0
M  V30 19555 S 1905.37 5.31554 -0.648926 0
M  V30 19556 C 1906.53 6.24557 0.409797 0
M  V30 19557 H 1906.76 2.9158 -0.580384 0
M  V30 19558 H 1904.29 1.48662 -0.417009 0
M  V30 19559 H 1906.25 3.69362 1.79115 0
M  V30 19560 H 1904.91 2.52776 1.86449 0
M  V30 19561 H 1904.11 4.854 1.35656 0
M  V30 19562 H 1903.71 3.73989 0.0281246 0
M  V30 19563 H 1906 6.65241 1.28298 0
M  V30 19564 H 1906.94 7.0787 -0.180404 0
M  V30 19565 H 1907.35 5.59699 0.734695 0
M  V30 19566 N 1906.75 0.369315 1.53212 0
M  V30 19567 C 1908 -0.220348 2.00493 0
M  V30 19568 C 1908.31 -1.49561 1.26059 0
M  V30 19569 O 1909.52 -2.1641 1.63947 0
M  V30 19570 C 1907.97 -0.443218 3.5716 0
M  V30 19571 C 1907.58 0.817634 4.40476 0
M  V30 19572 C 1909.33 -0.990333 4.12786 0
M  V30 19573 C 1907.23 0.564143 5.88703 0
M  V30 19574 H 1906.16 -0.0861173 0.749066 0
M  V30 19575 H 1908.81 0.488632 1.76875 0
M  V30 19576 H 1907.2 -1.21355 3.76947 0
M  V30 19577 H 1908.37 1.59105 4.32461 0
M  V30 19578 H 1906.68 1.28824 3.95971 0
M  V30 19579 H 1909.28 -1.19537 5.21167 0
M  V30 19580 H 1909.62 -1.95357 3.67616 0
M  V30 19581 H 1910.16 -0.280073 3.96813 0
M  V30 19582 H 1906.9 1.49782 6.38158 0
M  V30 19583 H 1906.42 -0.170702 5.99557 0
M  V30 19584 H 1908.1 0.191072 6.46718 0
M  V30 19585 N 1908.23 -1.57291 0.0985816 0
M  V30 19586 C 1909.47 -1.94478 -0.564304 0
M  V30 19587 C 1909.8 -0.980557 -1.67974 0
M  V30 19588 O 1909.06 -0.000761176 -1.957 0
M  V30 19589 C 1909.36 -3.38184 -1.15613 0
M  V30 19590 C 1909.02 -4.50601 -0.164125 0
M  V30 19591 C 1907.68 -4.81077 0.108706 0
M  V30 19592 C 1910.04 -5.18669 0.513033 0
M  V30 19593 C 1907.36 -5.76947 1.06533 0
M  V30 19594 C 1909.72 -6.15565 1.45815 0
M  V30 19595 C 1908.38 -6.44445 1.73918 0
M  V30 19596 H 1907.65 -0.711647 -0.206493 0
M  V30 19597 H 1910.3 -1.90697 0.175155 0
M  V30 19598 H 1908.6 -3.3856 -1.97191 0
M  V30 19599 H 1910.3 -3.6426 -1.67678 0
M  V30 19600 H 1906.89 -4.2685 -0.386958 0
M  V30 19601 H 1911.07 -4.95297 0.315398 0
M  V30 19602 H 1906.33 -5.97636 1.29002 0
M  V30 19603 H 1910.5 -6.67402 1.98865 0
M  V30 19604 H 1908.13 -7.1854 2.48201 0
M  V30 19605 N 1909.71 0.175127 -1.56624 0
M  V30 19606 C 1910.64 1.24553 -1.91211 0
M  V30 19607 C 1911.62 1.42971 -0.774469 0
M  V30 19608 O 1912.8 1.58039 -1.02741 0
M  V30 19609 C 1909.93 2.60909 -2.15972 0
M  V30 19610 C 1908.97 2.59248 -3.38663 0
M  V30 19611 S 1909.81 2.08707 -4.93155 0
M  V30 19612 C 1910.96 3.46847 -5.21006 0
M  V30 19613 H 1911.2 0.950294 -2.81703 0
M  V30 19614 H 1908.73 0.379524 -1.49663 0
M  V30 19615 H 1910.69 3.39391 -2.30919 0
M  V30 19616 H 1909.35 2.87635 -1.26195 0
M  V30 19617 H 1908.54 3.59558 -3.53177 0
M  V30 19618 H 1908.14 1.8886 -3.22812 0
M  V30 19619 H 1910.43 4.42824 -5.1275 0
M  V30 19620 H 1911.38 3.37211 -6.22651 0
M  V30 19621 H 1911.79 3.42683 -4.48585 0
M  V30 19622 N 1911.18 1.5123 0.44355 0
M  V30 19623 C 1912.09 1.74928 1.56324 0
M  V30 19624 C 1913.11 0.633267 1.62067 0
M  V30 19625 O 1914.29 0.914808 1.79425 0
M  V30 19626 C 1911.35 1.86361 2.92354 0
M  V30 19627 C 1910.41 3.10196 2.96778 0
M  V30 19628 C 1909.64 3.21073 4.26319 0
M  V30 19629 O 1909.87 2.38043 5.18355 0
M  V30 19630 O 1908.8 4.14008 4.369 0
M  V30 19631 H 1912.63 2.69898 1.39243 0
M  V30 19632 H 1910.21 1.35656 0.62592 0
M  V30 19633 H 1912.09 1.95901 3.73096 0
M  V30 19634 H 1910.77 0.945775 3.09575 0
M  V30 19635 H 1909.68 3.06138 2.15013 0
M  V30 19636 H 1911.01 4.01648 2.84499 0
M  V30 19637 N 1912.66 -0.698586 1.41271 0
M  V30 19638 C 1913.59 -1.82505 1.4565 0
M  V30 19639 C 1914.57 -1.67149 0.315497 0
M  V30 19640 O 1915.76 -1.86926 0.526518 0
M  V30 19641 C 1912.89 -3.20616 1.33502 0
M  V30 19642 C 1911.84 -3.50672 2.45383 0
M  V30 19643 C 1911.17 -4.88107 2.18302 0
M  V30 19644 C 1912.47 -3.49952 3.87725 0
M  V30 19645 H 1914.16 -1.79098 2.39926 0
M  V30 19646 H 1911.71 -0.860237 1.15481 0
M  V30 19647 H 1913.66 -3.9913 1.35179 0
M  V30 19648 H 1912.38 -3.24642 0.357101 0
M  V30 19649 H 1911.04 -2.74507 2.42984 0
M  V30 19650 H 1910.69 -4.88755 1.1886 0
M  V30 19651 H 1910.39 -5.09182 2.9327 0
M  V30 19652 H 1911.92 -5.68934 2.21689 0
M  V30 19653 H 1913.33 -4.18476 3.91855 0
M  V30 19654 H 1911.73 -3.82559 4.62351 0
M  V30 19655 H 1912.8 -2.48988 4.16093 0
M  V30 19656 N 1914.14 -1.27049 -0.93254 0
M  V30 19657 C 1915.09 -1.09183 -2.05382 0
M  V30 19658 C 1916.08 -0.0162863 -1.69392 0
M  V30 19659 O 1917.29 -0.173635 -1.79161 0
M  V30 19660 H 1913.66 -0.336282 -0.67262 0
M  V30 19661 H 1915.63 -2.04189 -2.17599 0
M  V30 19662 C 1914.38 -0.750687 -3.395 0
M  V30 19663 H 1913.71 -1.57019 -3.67675 0
M  V30 19664 H 1915.15 -0.665521 -4.18744 0
M  V30 19665 C 1913.6 0.544676 -3.32468 0
M  V30 19666 O 1914.13 1.58051 -3.69301 0
M  V30 19667 N 1912.34 0.538506 -2.85567 0
M  V30 19668 H 1911.89 -0.304834 -2.5579 0
M  V30 19669 H 1911.85 1.4053 -2.81245 0
M  V30 19670 N 1915.62 1.13835 -1.08993 0
M  V30 19671 C 1916.89 1.81232 -0.735809 0
M  V30 19672 C 1917.27 1.96172 0.779737 0
M  V30 19673 O 1916.62 1.52629 1.70049 0
M  V30 19674 C 1916.83 3.16546 -1.46968 0
M  V30 19675 C 1918.18 3.91958 -1.6326 0
M  V30 19676 O 1919.2 3.26155 -1.43183 0
M  V30 19677 O 1918.06 5.09976 -1.96435 0
M  V30 19678 H 1915.16 0.783794 -0.26381 0
M  V30 19679 H 1917.7 1.20801 -1.19186 0
M  V30 19680 H 1916.48 3.00872 -2.50183 0
M  V30 19681 H 1916.1 3.84676 -1.00551 0
M  V30 19682 N 1917.1 0.876467 1.3098 0
M  V30 19683 C 1918.06 0.341893 2.26636 0
M  V30 19684 C 1919.06 -0.510816 1.52471 0
M  V30 19685 O 1920.25 -0.31919 1.71251 0
M  V30 19686 C 1917.38 -0.513725 3.37007 0
M  V30 19687 H 1918.57 1.18642 2.75434 0
M  V30 19688 H 1916.13 0.652602 1.42024 0
M  V30 19689 H 1916.86 -1.37919 2.93511 0
M  V30 19690 H 1916.65 0.0969443 3.9198 0
M  V30 19691 H 1918.14 -0.87981 4.08227 0
M  V30 19692 N 1918.57 -1.44173 0.636557 0
M  V30 19693 C 1919.82 -2.02832 0.151967 0
M  V30 19694 C 1920.17 -1.49215 -1.2146 0
M  V30 19695 O 1919.47 -0.66882 -1.79548 0
M  V30 19696 C 1919.66 -3.57299 0.0849933 0
M  V30 19697 C 1919.49 -4.25902 1.44353 0
M  V30 19698 C 1918.26 -4.62656 2.03169 0
M  V30 19699 C 1920.46 -4.55995 2.3785 0
M  V30 19700 N 1918.44 -5.16251 3.32201 0
M  V30 19701 C 1919.81 -5.10732 3.51501 0
M  V30 19702 C 1921.87 -4.37951 2.36861 0
M  V30 19703 C 1920.57 -5.49324 4.64366 0
M  V30 19704 C 1922.6 -4.77594 3.48794 0
M  V30 19705 C 1921.96 -5.32449 4.61169 0
M  V30 19706 H 1918.06 -0.775624 0.0996548 0
M  V30 19707 H 1920.64 -1.75589 0.841234 0
M  V30 19708 H 1918.81 -3.84142 -0.573568 0
M  V30 19709 H 1920.54 -4.02629 -0.408925 0
M  V30 19710 H 1917.3 -4.47151 1.56055 0
M  V30 19711 H 1917.72 -5.4752 3.98185 0
M  V30 19712 H 1922.36 -3.94829 1.51227 0
M  V30 19713 H 1920.08 -5.91397 5.50704 0
M  V30 19714 H 1923.67 -4.65341 3.49211 0
M  V30 19715 H 1922.55 -5.62558 5.4635 0
M  V30 19716 N 1920.05 -0.377435 -1.53014 0
M  V30 19717 C 1921.28 0.211512 -2.06319 0
M  V30 19718 C 1921.7 1.40713 -1.24825 0
M  V30 19719 O 1921.06 1.79274 -0.270279 0
M  V30 19720 C 1921.11 0.571512 -3.56042 0
M  V30 19721 O 1920.21 1.66713 -3.77201 0
M  V30 19722 H 1919.55 0.0279862 -0.66341 0
M  V30 19723 H 1922.08 -0.541471 -1.97305 0
M  V30 19724 H 1922.09 0.839182 -3.99277 0
M  V30 19725 H 1920.77 -0.302672 -4.14797 0
M  V30 19726 H 1919.34 1.3941 -3.4586 0
M  V30 19727 N 1921.53 1.57237 -0.106922 0
M  V30 19728 C 1922.44 2.18202 0.861685 0
M  V30 19729 C 1923.46 1.15476 1.30159 0
M  V30 19730 O 1924.63 1.47896 1.36707 0
M  V30 19731 C 1921.7 2.7598 2.09847 0
M  V30 19732 C 1920.76 3.93702 1.71164 0
M  V30 19733 C 1919.99 4.48716 2.88946 0
M  V30 19734 O 1920.21 4.02645 4.04021 0
M  V30 19735 O 1919.15 5.39573 2.66729 0
M  V30 19736 H 1922.97 3.01402 0.372924 0
M  V30 19737 H 1920.56 1.48933 0.118058 0
M  V30 19738 H 1922.44 3.12861 2.82305 0
M  V30 19739 H 1921.12 1.9582 2.57753 0
M  V30 19740 H 1920.02 3.61613 0.958499 0
M  V30 19741 H 1921.36 4.75262 1.28011 0
M  V30 19742 N 1923.01 -0.166818 1.56715 0
M  V30 19743 C 1924.26 -0.882715 1.82248 0
M  V30 19744 C 1924.58 -1.82049 0.684716 0
M  V30 19745 O 1923.84 -1.92937 -0.327717 0
M  V30 19746 C 1924.14 -1.70734 3.13982 0
M  V30 19747 C 1923.8 -0.918095 4.41454 0
M  V30 19748 C 1922.47 -0.700286 4.76077 0
M  V30 19749 C 1924.82 -0.364791 5.19922 0
M  V30 19750 C 1922.15 0.081855 5.86643 0
M  V30 19751 C 1924.5 0.404286 6.31307 0
M  V30 19752 C 1923.16 0.632854 6.64493 0
M  V30 19753 H 1922.43 -0.323008 0.666893 0
M  V30 19754 H 1925.08 -0.147401 1.90932 0
M  V30 19755 H 1923.38 -2.51218 3.0066 0
M  V30 19756 H 1925.08 -2.26437 3.30949 0
M  V30 19757 H 1921.67 -1.0979 4.14299 0
M  V30 19758 H 1925.85 -0.520394 4.93564 0
M  V30 19759 H 1921.11 0.268637 6.1081 0
M  V30 19760 H 1925.28 0.840259 6.91312 0
M  V30 19761 H 1922.91 1.24079 7.50006 0
M  V30 19762 N 1924.49 -1.51463 -0.435524 0
M  V30 19763 C 1925.4 -1.75755 -1.55394 0
M  V30 19764 C 1926.41 -0.641853 -1.61729 0
M  V30 19765 O 1927.59 -0.924311 -1.78937 0
M  V30 19766 C 1924.65 -1.87908 -2.91361 0
M  V30 19767 C 1923.71 -3.11766 -2.95128 0
M  V30 19768 C 1922.95 -3.2333 -4.2461 0
M  V30 19769 O 1923.17 -2.40789 -5.17085 0
M  V30 19770 O 1922.1 -4.16319 -4.34698 0
M  V30 19771 H 1925.93 -2.70633 -1.3781 0
M  V30 19772 H 1923.52 -1.35986 -0.618717 0
M  V30 19773 H 1925.4 -1.97877 -3.72052 0
M  V30 19774 H 1924.07 -0.962179 -3.09069 0
M  V30 19775 H 1922.98 -3.07274 -2.13386 0
M  V30 19776 H 1924.31 -4.03151 -2.82365 0
M  V30 19777 N 1925.96 0.691085 -1.4164 0
M  V30 19778 C 1926.91 1.82625 -1.44051 0
M  V30 19779 C 1927.91 1.66388 -0.318032 0
M  V30 19780 O 1929.11 1.73194 -0.490276 0
M  V30 19781 H 1925.49 0.601889 -0.450815 0
M  V30 19782 H 1927.46 1.77709 -2.39713 0
M  V30 19783 C 1926.21 3.20676 -1.34395 0
M  V30 19784 H 1925.53 3.3379 -2.20056 0
M  V30 19785 H 1926.97 4.0017 -1.40143 0
M  V30 19786 C 1925.43 3.36852 -0.0568027 0
M  V30 19787 O 1925.96 3.91562 0.896762 0
M  V30 19788 N 1924.17 2.90593 0.0207452 0
M  V30 19789 H 1923.71 2.46257 -0.755995 0
M  V30 19790 H 1923.67 3.01794 0.88136 0
M  V30 19791 N 1927.44 1.27542 0.925789 0
M  V30 19792 C 1928.37 1.06229 2.03096 0
M  V30 19793 C 1929.39 0.0177734 1.6279 0
M  V30 19794 O 1930.58 0.259539 1.76603 0
M  V30 19795 C 1927.68 0.589777 3.33729 0
M  V30 19796 C 1926.85 1.70701 4.02716 0
M  V30 19797 C 1925.91 1.22991 5.11624 0
M  V30 19798 O 1924.93 1.92993 5.35483 0
M  V30 19799 N 1926.14 0.086593 5.80435 0
M  V30 19800 H 1928.9 2.01401 2.21941 0
M  V30 19801 H 1926.46 1.19134 1.0963 0
M  V30 19802 H 1928.45 0.254459 4.03899 0
M  V30 19803 H 1927.02 -0.268762 3.11443 0
M  V30 19804 H 1926.24 2.21252 3.26253 0
M  V30 19805 H 1927.53 2.45679 4.45555 0
M  V30 19806 H 1926.93 -0.497638 5.63507 0
M  V30 19807 H 1925.49 -0.189533 6.51524 0
M  V30 19808 N 1928.92 -1.13255 1.09595 0
M  V30 19809 C 1930.17 -1.84206 0.831411 0
M  V30 19810 C 1930.49 -1.8403 -0.64483 0
M  V30 19811 O 1929.76 -1.29728 -1.46791 0
M  V30 19812 H 1928.34 -0.682085 0.304579 0
M  V30 19813 H 1931 -1.37183 1.38444 0
M  V30 19814 H 1930.1 -2.88667 1.18649 0
M  V30 19815 N 1930.4 -0.883401 -1.30514 0
M  V30 19816 C 1931.62 -0.515186 -2.00899 0
M  V30 19817 C 1932.05 0.888515 -1.65792 0
M  V30 19818 O 1931.41 1.58859 -0.873692 0
M  V30 19819 C 1931.45 -0.695291 -3.53833 0
M  V30 19820 O 1930.56 0.259516 -4.11583 0
M  V30 19821 H 1929.9 -0.20321 -0.63214 0
M  V30 19822 H 1932.43 -1.19051 -1.66397 0
M  V30 19823 H 1932.44 -0.593688 -4.03657 0
M  V30 19824 H 1931.11 -1.71874 -3.78724 0
M  V30 19825 H 1929.69 0.111741 -3.72733 0
M  V30 19826 N 1931.88 1.43833 -0.644194 0
M  V30 19827 C 1933.29 1.56542 -0.310952 0
M  V30 19828 C 1933.49 1.62946 1.18536 0
M  V30 19829 O 1932.55 1.57961 1.96989 0
M  V30 19830 C 1933.86 2.83074 -1.01437 0
M  V30 19831 C 1935.41 2.96805 -0.993759 0
M  V30 19832 C 1935.88 4.26158 -1.6779 0
M  V30 19833 N 1937.38 4.33002 -1.64511 0
M  V30 19834 C 1938.11 5.31837 -2.14328 0
M  V30 19835 N 1937.61 6.37003 -2.72394 0
M  V30 19836 N 1939.4 5.23431 -2.04881 0
M  V30 19837 H 1931.55 1.37919 -1.61531 0
M  V30 19838 H 1933.81 0.661778 -0.678789 0
M  V30 19839 H 1933.52 2.84372 -2.06943 0
M  V30 19840 H 1933.39 3.73016 -0.560273 0
M  V30 19841 H 1935.78 2.95053 0.0528599 0
M  V30 19842 H 1935.86 2.08177 -1.48647 0
M  V30 19843 H 1935.51 4.28671 -2.72404 0
M  V30 19844 H 1935.44 5.13667 -1.15992 0
M  V30 19845 H 1937.93 3.57621 -1.22129 0
M  V30 19846 H 1938.24 7.08724 -3.08107 0
M  V30 19847 H 1936.58 6.37652 -2.76451 0
M  V30 19848 H 1939.78 4.40186 -1.59229 0
M  V30 19849 H 1939.95 6.00301 -2.44015 0
M  V30 19850 N 1933.35 0.385544 1.52811 0
M  V30 19851 C 1934.77 -0.0893152 1.86486 0
M  V30 19852 C 1935.12 -1.46473 1.30538 0
M  V30 19853 O 1934.24 -2.06866 0.635244 0
M  V30 19854 C 1934.84 -0.168846 3.38379 0
M  V30 19855 C 1933.4 -0.587992 3.71779 0
M  V30 19856 C 1932.54 0.252389 2.76149 0
M  V30 19857 H 1935.49 0.603569 1.46774 0
M  V30 19858 H 1935.51 -0.988694 3.6743 0
M  V30 19859 H 1935.03 0.832334 3.7907 0
M  V30 19860 H 1933.13 -1.59668 3.36656 0
M  V30 19861 H 1933.24 -0.34875 4.77829 0
M  V30 19862 H 1931.6 -0.281775 2.53137 0
M  V30 19863 H 1932.39 1.25148 3.19676 0
M  V30 19864 N 1934.83 -1.57178 0.115259 0
M  V30 19865 C 1935.76 -2.18134 -0.833042 0
M  V30 19866 C 1936.74 -1.12033 -1.27995 0
M  V30 19867 O 1937.93 -1.40254 -1.34323 0
M  V30 19868 C 1935.06 -2.77778 -2.08463 0
M  V30 19869 C 1934.01 -3.89429 -1.77565 0
M  V30 19870 C 1933.34 -4.35863 -3.09722 0
M  V30 19871 C 1934.64 -5.11701 -1.04687 0
M  V30 19872 H 1936.33 -2.9763 -0.325107 0
M  V30 19873 H 1933.88 -1.43164 -0.154933 0
M  V30 19874 H 1935.83 -3.19079 -2.75258 0
M  V30 19875 H 1934.56 -1.95566 -2.61575 0
M  V30 19876 H 1933.21 -3.48698 -1.13161 0
M  V30 19877 H 1932.86 -3.50515 -3.6076 0
M  V30 19878 H 1932.56 -5.11152 -2.89823 0
M  V30 19879 H 1934.09 -4.79812 -3.77641 0
M  V30 19880 H 1935.5 -5.50045 -1.61628 0
M  V30 19881 H 1933.9 -5.92549 -0.948964 0
M  V30 19882 H 1934.97 -4.84889 -0.032977 0
M  V30 19883 N 1936.31 0.158505 -1.56801 0
M  V30 19884 C 1937.56 0.873038 -1.82714 0
M  V30 19885 C 1937.89 1.81683 -0.694361 0
M  V30 19886 O 1937.14 1.93108 0.31748 0
M  V30 19887 C 1937.44 1.69067 -3.14883 0
M  V30 19888 C 1937.11 0.894671 -4.41935 0
M  V30 19889 C 1935.77 0.675029 -4.76442 0
M  V30 19890 C 1938.12 0.337213 -5.20108 0
M  V30 19891 C 1935.45 -0.112965 -5.86591 0
M  V30 19892 C 1937.8 -0.43776 -6.31084 0
M  V30 19893 C 1936.46 -0.668085 -6.64148 0
M  V30 19894 H 1935.73 0.319467 -0.668597 0
M  V30 19895 H 1938.38 0.137273 -1.91007 0
M  V30 19896 H 1936.69 2.4962 -3.01988 0
M  V30 19897 H 1938.38 2.24679 -3.32145 0
M  V30 19898 H 1934.97 1.07592 -4.14876 0
M  V30 19899 H 1939.16 0.494212 -4.93833 0
M  V30 19900 H 1934.41 -0.301026 -6.10658 0
M  V30 19901 H 1938.59 -0.876909 -6.90857 0
M  V30 19902 H 1936.21 -1.28055 -7.49337 0
M  V30 19903 O 1937.83 1.58626 0.303339 0
M  V30 19904 H 1938.52 1.68771 0.950579 0
M  V30 END ATOM
M  V30 BEGIN BOND
M  V30 END BOND
M  V30 END CTAB
M  END
$$$$
