drugbank_target|P42766 60S ribosomal protein L35 (DB11638)
 OpenBabel12092121093D

  0  0  0     0  0            999 V3000
M  V30 BEGIN CTAB
M  V30 COUNTS 2183 2191 0 0 0
M  V30 BEGIN ATOM
M  V30 1 H -0.908 1.98254 -0.117106 0
M  V30 2 N 0 1.576 0 0
M  V30 3 C 0.933 2.03868 1.02534 0
M  V30 4 C 1.911 0.928543 1.3348 0
M  V30 5 O 3.095 1.19667 1.45644 0
M  V30 6 C 0.222 2.43627 2.35294 0
M  V30 7 C -0.732 3.65373 2.2001 0
M  V30 8 S 0.101 5.13292 1.52614 0
M  V30 9 C 1.257 5.56322 2.86805 0
M  V30 10 H 1.49 2.90518 0.631377 0
M  V30 11 H -0.977 1.52953 0.210867 0
M  V30 12 H 0.981 2.67203 3.11629 0
M  V30 13 H -0.358 1.57376 2.7183 0
M  V30 14 H -1.165 3.90944 3.18086 0
M  V30 15 H -1.563 3.418 1.51819 0
M  V30 16 H 0.729 5.58782 3.83104 0
M  V30 17 H 1.672 6.56266 2.65933 0
M  V30 18 H 2.08 4.83886 2.90714 0
M  V30 19 N 1.4781 -0.272755 1.55222 0
M  V30 20 C 2.4411 -1.32041 1.87344 0
M  V30 21 C 3.4411 -1.42342 0.74803 0
M  V30 22 O 4.6311 -1.41488 1.0162 0
M  V30 23 C 1.7631 -2.70173 2.07893 0
M  V30 24 H 2.9561 -1.04789 2.80997 0
M  V30 25 H 0.5091 -0.51083 1.47717 0
M  V30 26 H 1.2441 -3.02605 1.16622 0
M  V30 27 H 1.0291 -2.64082 2.89833 0
M  V30 28 H 2.5191 -3.45869 2.34017 0
M  V30 29 N 2.9562 -1.48159 -0.537278 0
M  V30 30 C 3.9032 -1.62138 -1.64256 0
M  V30 31 C 4.8732 -0.463668 -1.59497 0
M  V30 32 O 6.0582 -0.686241 -1.78032 0
M  V30 33 C 3.1982 -1.66028 -3.02537 0
M  V30 34 C 2.3112 -2.92855 -3.17585 0
M  V30 35 C 1.4462 -2.87952 -4.46382 0
M  V30 36 C 0.4852 -4.09516 -4.54932 0
M  V30 37 N -0.3778 -4.02733 -5.75109 0
M  V30 38 H 4.4622 -2.56529 -1.51647 0
M  V30 39 H 1.9992 -1.27224 -0.738414 0
M  V30 40 H 3.9572 -1.66265 -3.82638 0
M  V30 41 H 2.5872 -0.751331 -3.13934 0
M  V30 42 H 1.6392 -3.02395 -2.30784 0
M  V30 43 H 2.9512 -3.82822 -3.19764 0
M  V30 44 H 2.1052 -2.8655 -5.34765 0
M  V30 45 H 0.8442 -1.95702 -4.46712 0
M  V30 46 H -0.1508 -4.11201 -3.64957 0
M  V30 47 H 1.0742 -5.02917 -4.56346 0
M  V30 48 H -0.9798 -3.13299 -5.76351 0
M  V30 49 H -1.0628 -4.86397 -5.78752 0
M  V30 50 H 0.2052 -4.05379 -6.65799 0
M  V30 51 N 4.4343 0.785586 -1.36625 0
M  V30 52 C 5.6833 1.53883 -1.30396 0
M  V30 53 C 5.9963 1.95271 0.113452 0
M  V30 54 O 7.2023 2.69858 0.298142 0
M  V30 55 C 5.6583 2.77808 -2.28802 0
M  V30 56 C 5.2663 2.43574 -3.75999 0
M  V30 57 C 7.0103 3.55783 -2.31558 0
M  V30 58 C 4.9173 3.63919 -4.66173 0
M  V30 59 H 3.8473 0.577678 -0.484566 0
M  V30 60 H 6.4983 0.861705 -1.62009 0
M  V30 61 H 4.8803 3.47339 -1.90188 0
M  V30 62 H 6.0543 1.81916 -4.23371 0
M  V30 63 H 4.3693 1.78803 -3.76056 0
M  V30 64 H 6.9663 4.45205 -2.96137 0
M  V30 65 H 7.3093 3.94644 -1.3252 0
M  V30 66 H 7.8423 2.93235 -2.68809 0
M  V30 67 H 4.5813 3.3015 -5.66287 0
M  V30 68 H 4.1013 4.2473 -4.23515 0
M  V30 69 H 5.7803 4.30901 -4.82632 0
M  V30 70 N 5.9124 1.20967 1.01018 0
M  V30 71 C 6.8594 0.964281 2.09691 0
M  V30 72 C 7.8294 -0.107853 1.65749 0
M  V30 73 O 9.0144 0.0381987 1.90762 0
M  V30 74 C 6.1544 0.52943 3.41015 0
M  V30 75 C 5.2674 1.67043 3.98398 0
M  V30 76 C 4.4024 1.18525 5.17808 0
M  V30 77 C 3.4414 2.29892 5.67288 0
M  V30 78 N 2.5784 1.82546 6.77954 0
M  V30 79 H 7.4184 1.89463 2.30017 0
M  V30 80 H 4.9554 0.944289 1.1279 0
M  V30 81 H 6.9134 0.258588 4.16398 0
M  V30 82 H 5.5434 -0.363919 3.20742 0
M  V30 83 H 4.5954 2.05603 3.20049 0
M  V30 84 H 5.9074 2.50877 4.31117 0
M  V30 85 H 5.0614 0.870762 6.00419 0
M  V30 86 H 3.8004 0.316887 4.86669 0
M  V30 87 H 2.8054 2.6215 4.83278 0
M  V30 88 H 4.0304 3.17216 6.00459 0
M  V30 89 H 1.9764 0.980454 6.48632 0
M  V30 90 H 1.8934 2.59956 7.09901 0
M  V30 91 H 3.1614 1.54115 7.64113 0
M  V30 92 N 7.3905 -1.2043 1.01659 0
M  V30 93 C 8.3535 -2.21433 0.591616 0
M  V30 94 C 9.3535 -1.57203 -0.338226 0
M  V30 95 O 10.5435 -1.73737 -0.126918 0
M  V30 96 C 7.6755 -3.40628 -0.136058 0
M  V30 97 H 8.8685 -2.60545 1.48514 0
M  V30 98 H 6.4215 -1.33893 0.806379 0
M  V30 99 H 7.1565 -3.07019 -1.04449 0
M  V30 100 H 6.9415 -3.88475 0.531917 0
M  V30 101 H 8.4315 -4.15475 -0.420735 0
M  V30 102 N 8.8686 -0.792821 -1.36206 0
M  V30 103 C 10.2846 -0.474903 -1.52371 0
M  V30 104 C 10.4846 1.00622 -1.74578 0
M  V30 105 O 9.5406 1.79162 -1.77924 0
M  V30 106 C 10.8536 -1.3083 -2.70747 0
M  V30 107 C 12.4016 -1.30234 -2.84619 0
M  V30 108 C 12.8766 -2.11956 -4.06004 0
M  V30 109 N 14.3676 -2.09419 -4.13156 0
M  V30 110 C 15.1026 -2.69419 -5.06163 0
M  V30 111 N 14.5986 -3.3829 -6.04592 0
M  V30 112 N 16.3916 -2.59134 -4.98804 0
M  V30 113 H 8.5426 -1.75222 -1.20046 0
M  V30 114 H 10.8056 -0.745024 -0.586211 0
M  V30 115 H 10.5116 -2.35881 -2.6087 0
M  V30 116 H 10.3856 -0.95196 -3.6499 0
M  V30 117 H 12.7726 -0.259748 -2.93955 0
M  V30 118 H 12.8536 -1.69847 -1.91274 0
M  V30 119 H 12.4976 -3.16248 -3.97429 0
M  V30 120 H 12.4276 -1.69711 -4.98503 0
M  V30 121 H 14.9186 -1.59297 -3.42685 0
M  V30 122 H 15.2316 -3.81394 -6.7213 0
M  V30 123 H 13.5766 -3.42393 -6.04807 0
M  V30 124 H 16.7676 -2.04927 -4.20859 0
M  V30 125 H 16.9406 -3.06185 -5.711 0
M  V30 126 N 10.3467 1.47872 -0.545128 0
M  V30 127 C 11.6237 1.9554 0.0485222 0
M  V30 128 C 12.0037 1.4876 1.49779 0
M  V30 129 O 11.3517 0.720925 2.16829 0
M  V30 130 C 11.5617 3.48898 -0.084417 0
M  V30 131 C 12.9097 4.24547 0.0671239 0
M  V30 132 O 13.9337 3.56198 -0.0113649 0
M  V30 133 O 12.7927 5.45999 0.233882 0
M  V30 134 H 9.8867 0.823957 0.0708773 0
M  V30 135 H 12.4327 1.58327 -0.610798 0
M  V30 136 H 11.2047 3.75714 -1.09337 0
M  V30 137 H 10.8277 3.92845 0.613066 0
M  V30 138 N 11.8248 0.280983 1.55075 0
M  V30 139 C 12.7548 -0.597469 2.25727 0
M  V30 140 C 13.7358 -1.15417 1.24952 0
M  V30 141 O 14.9208 -1.18722 1.53684 0
M  V30 142 C 12.0508 -1.7789 2.98283 0
M  V30 143 C 11.0048 -1.35347 4.06036 0
M  V30 144 C 10.3308 -2.61846 4.66198 0
M  V30 145 C 11.6308 -0.499354 5.19907 0
M  V30 146 H 13.3248 -0.00824265 2.99399 0
M  V30 147 H 10.8708 -0.0025244 1.44 0
M  V30 148 H 12.8238 -2.39937 3.46422 0
M  V30 149 H 11.5478 -2.39405 2.22155 0
M  V30 150 H 10.2068 -0.756156 3.58717 0
M  V30 151 H 9.8548 -3.21632 3.86732 0
M  V30 152 H 9.5548 -2.3409 5.38958 0
M  V30 153 H 11.0788 -3.24732 5.1709 0
M  V30 154 H 12.4928 -1.02498 5.64063 0
M  V30 155 H 10.8898 -0.316424 5.99265 0
M  V30 156 H 11.9598 0.480459 4.82514 0
M  V30 157 N 13.3029 -1.57598 0.00835791 0
M  V30 158 C 14.7189 -1.55764 -0.347822 0
M  V30 159 C 14.9189 -1.01186 -1.74252 0
M  V30 160 O 13.9749 -0.649371 -2.44007 0
M  V30 161 C 15.2879 -2.99927 -0.215407 0
M  V30 162 C 16.8359 -3.11656 -0.289725 0
M  V30 163 C 17.3109 -4.57621 -0.18634 0
M  V30 164 N 18.8019 -4.62557 -0.243978 0
M  V30 165 C 19.5369 -5.73094 -0.18745 0
M  V30 166 N 19.0329 -6.92753 -0.0810331 0
M  V30 167 N 20.8259 -5.61588 -0.239925 0
M  V30 168 H 12.9769 -1.91411 0.92062 0
M  V30 169 H 15.2399 -0.879562 0.353659 0
M  V30 170 H 14.9459 -3.43729 0.744512 0
M  V30 171 H 14.8199 -3.63865 -0.994097 0
M  V30 172 H 17.2069 -2.67779 -1.24009 0
M  V30 173 H 17.2879 -2.5048 0.51898 0
M  V30 174 H 16.9319 -5.02174 0.760519 0
M  V30 175 H 16.8619 -5.16752 -1.01364 0
M  V30 176 H 19.3529 -3.76481 -0.327217 0
M  V30 177 H 19.6659 -7.72787 -0.0440241 0
M  V30 178 H 18.0109 -6.94984 -0.0465419 0
M  V30 179 H 21.2019 -4.66996 -0.321317 0
M  V30 180 H 21.3749 -6.47714 -0.192407 0
M  V30 181 N 14.781 0.264519 -1.55364 0
M  V30 182 C 16.029 0.993021 -1.76021 0
M  V30 183 C 16.35 1.86511 -0.569099 0
M  V30 184 O 15.62 1.91438 0.415735 0
M  V30 185 H 14.2 0.369639 -0.649135 0
M  V30 186 H 16.862 0.286707 -1.9278 0
M  V30 187 H 15.958 1.62502 -2.66457 0
M  V30 188 N 16.2591 1.48442 0.529413 0
M  V30 189 C 17.2061 1.63007 1.63394 0
M  V30 190 C 18.1761 0.47212 1.59249 0
M  V30 191 O 19.3611 0.695673 1.77666 0
M  V30 192 C 16.5011 1.6763 3.01653 0
M  V30 193 C 15.6141 2.94535 3.16027 0
M  V30 194 C 14.7491 2.90316 4.44849 0
M  V30 195 C 13.7881 4.11923 4.52754 0
M  V30 196 N 12.9251 4.05777 5.72965 0
M  V30 197 H 17.7651 2.5733 1.50285 0
M  V30 198 H 15.3021 1.27613 0.731656 0
M  V30 199 H 17.2601 1.68292 3.81751 0
M  V30 200 H 15.8901 0.76797 3.13532 0
M  V30 201 H 14.9421 3.03615 2.29177 0
M  V30 202 H 16.2541 3.84512 3.17729 0
M  V30 203 H 15.4081 2.89382 5.33238 0
M  V30 204 H 14.1471 1.98068 4.45668 0
M  V30 205 H 13.1521 4.13131 3.62771 0
M  V30 206 H 14.3771 5.0533 4.53672 0
M  V30 207 H 12.3231 3.16351 5.74681 0
M  V30 208 H 12.2401 4.8946 5.76164 0
M  V30 209 H 13.5081 4.08904 6.6364 0
M  V30 210 N 17.7372 -0.778329 1.37039 0
M  V30 211 C 18.6842 -1.89139 1.32269 0
M  V30 212 C 19.6542 -1.65017 0.189387 0
M  V30 213 O 20.8392 -1.87024 0.377693 0
M  V30 214 C 17.9792 -3.26112 1.12894 0
M  V30 215 C 17.0922 -3.62233 2.35396 0
M  V30 216 C 16.2272 -4.8838 2.08946 0
M  V30 217 C 15.2662 -5.17212 3.2735 0
M  V30 218 N 14.4032 -6.34546 3.00492 0
M  V30 219 H 19.2432 -1.92552 2.27437 0
M  V30 220 H 16.7802 -0.941473 1.13025 0
M  V30 221 H 18.7382 -4.05116 0.996835 0
M  V30 222 H 17.3682 -3.22091 0.213758 0
M  V30 223 H 16.4202 -2.78265 2.5937 0
M  V30 224 H 17.7322 -3.79481 3.23721 0
M  V30 225 H 16.8862 -5.75274 1.92729 0
M  V30 226 H 15.6252 -4.73222 1.17949 0
M  V30 227 H 14.6302 -4.28796 3.44113 0
M  V30 228 H 15.8552 -5.34283 4.19188 0
M  V30 229 H 13.8012 -6.20759 2.12118 0
M  V30 230 H 13.7182 -6.52179 3.82358 0
M  V30 231 H 14.9862 -7.24394 2.87879 0
M  V30 232 N 19.2153 -1.21501 -1.00376 0
M  V30 233 C 20.1623 -0.975387 -2.09177 0
M  V30 234 C 21.1323 0.0990615 -1.65804 0
M  V30 235 O 22.3173 -0.0483147 -1.90739 0
M  V30 236 C 19.4573 -0.547507 -3.40729 0
M  V30 237 C 18.5703 -1.69153 -3.97506 0
M  V30 238 C 17.7053 -1.2127 -5.17172 0
M  V30 239 C 16.7443 -2.32897 -5.66061 0
M  V30 240 N 15.8813 -1.86138 -6.76976 0
M  V30 241 H 20.7213 -1.9068 -2.29009 0
M  V30 242 H 18.2583 -0.950257 -1.12288 0
M  V30 243 H 20.2163 -0.280667 -4.16255 0
M  V30 244 H 18.8463 0.346904 -3.20931 0
M  V30 245 H 17.8983 -2.07298 -3.18954 0
M  V30 246 H 19.2103 -2.5316 -4.29781 0
M  V30 247 H 18.3643 -0.902591 -5.99948 0
M  V30 248 H 17.1033 -0.342692 -4.86495 0
M  V30 249 H 16.1083 -2.64709 -4.81881 0
M  V30 250 H 17.3333 -3.20396 -5.98768 0
M  V30 251 H 15.2793 -1.01484 -6.48103 0
M  V30 252 H 15.1963 -2.63717 -7.08512 0
M  V30 253 H 16.4643 -1.58165 -7.63285 0
M  V30 254 N 20.6934 1.19889 -1.02296 0
M  V30 255 C 21.6034 2.26571 -0.608508 0
M  V30 256 C 22.6194 1.70299 0.356964 0
M  V30 257 O 23.7954 2.00235 0.216326 0
M  V30 258 C 20.8604 3.46677 0.0402814 0
M  V30 259 C 19.9214 4.18153 -0.97194 0
M  V30 260 C 19.1544 5.32525 -0.354016 0
M  V30 261 O 19.3774 5.64112 0.844604 0
M  V30 262 O 18.3114 5.92242 -1.07391 0
M  V30 263 H 22.1374 2.64251 -1.49684 0
M  V30 264 H 19.7224 1.26629 -0.792809 0
M  V30 265 H 21.6044 4.19475 0.402324 0
M  V30 266 H 20.2794 3.10858 0.902707 0
M  V30 267 H 19.1864 3.47499 -1.38546 0
M  V30 268 H 20.5194 4.57927 -1.80454 0
M  V30 269 N 22.1715 0.800033 1.35784 0
M  V30 270 C 23.0815 0.207204 2.33683 0
M  V30 271 C 24.0975 -0.64631 1.61551 0
M  V30 272 O 25.2735 -0.559604 1.93469 0
M  V30 273 C 22.3385 -0.639659 3.40748 0
M  V30 274 C 21.3995 0.233585 4.28664 0
M  V30 275 C 20.6325 -0.572954 5.30616 0
M  V30 276 O 20.8555 -1.80816 5.40982 0
M  V30 277 O 19.7895 0.0327285 6.01891 0
M  V30 278 H 23.6155 1.01692 2.86169 0
M  V30 279 H 21.2005 0.561691 1.38439 0
M  V30 280 H 23.0825 -1.12223 4.06182 0
M  V30 281 H 21.7575 -1.42708 2.90544 0
M  V30 282 H 20.6645 0.763147 3.66233 0
M  V30 283 H 21.9975 0.984784 4.82248 0
M  V30 284 N 23.6496 -1.47581 0.552962 0
M  V30 285 C 24.5796 -2.32762 -0.185451 0
M  V30 286 C 25.5606 -1.43527 -0.912905 0
M  V30 287 O 26.7456 -1.72388 -0.894201 0
M  V30 288 C 23.8756 -3.25219 -1.21859 0
M  V30 289 C 22.8296 -4.23661 -0.607864 0
M  V30 290 C 22.1556 -5.05413 -1.74533 0
M  V30 291 C 23.4556 -5.20481 0.435582 0
M  V30 292 H 25.1496 -2.94749 0.525684 0
M  V30 293 H 22.6956 -1.41738 0.254251 0
M  V30 294 H 24.6486 -3.8365 -1.7433 0
M  V30 295 H 23.3726 -2.61279 -1.95961 0
M  V30 296 H 22.0316 -3.66451 -0.104489 0
M  V30 297 H 21.6796 -4.3788 -2.47529 0
M  V30 298 H 21.3796 -5.72059 -1.34249 0
M  V30 299 H 22.9036 -5.66701 -2.27338 0
M  V30 300 H 24.3176 -5.733 -0.00290157 0
M  V30 301 H 22.7146 -5.95305 0.757067 0
M  V30 302 H 23.7846 -4.66217 1.33303 0
M  V30 303 N 25.1277 -0.289203 -1.54924 0
M  V30 304 C 26.0577 0.58549 -2.2604 0
M  V30 305 C 27.0387 1.14753 -1.25562 0
M  V30 306 O 28.2237 1.17906 -1.54311 0
M  V30 307 C 25.3537 1.76305 -2.99222 0
M  V30 308 C 24.3077 1.33191 -4.06748 0
M  V30 309 C 23.6337 2.5937 -4.6758 0
M  V30 310 C 24.9337 0.471775 -5.20165 0
M  V30 311 H 26.6277 -0.00763532 -2.99399 0
M  V30 312 H 24.1737 -0.00511229 -1.43999 0
M  V30 313 H 26.1267 2.38097 -3.47689 0
M  V30 314 H 24.8507 2.38223 -2.23422 0
M  V30 315 H 23.5097 0.737121 -3.59113 0
M  V30 316 H 23.1577 3.19576 -3.88433 0
M  V30 317 H 22.8577 2.31228 -5.40192 0
M  V30 318 H 24.3817 3.21985 -5.18804 0
M  V30 319 H 25.7957 0.995056 -5.64599 0
M  V30 320 H 24.1927 0.284639 -5.99425 0
M  V30 321 H 25.2627 -0.506041 -4.82252 0
M  V30 322 N 26.6058 1.57591 -0.0167156 0
M  V30 323 C 27.5528 2.09462 0.969251 0
M  V30 324 C 28.5228 0.99381 1.33089 0
M  V30 325 O 29.7078 1.26726 1.42636 0
M  V30 326 C 26.8478 2.61622 2.25051 0
M  V30 327 C 25.9608 3.85666 1.94642 0
M  V30 328 C 25.0958 4.26266 3.16972 0
M  V30 329 C 24.1348 5.43101 2.82326 0
M  V30 330 N 23.2718 5.78915 3.97243 0
M  V30 331 H 28.1118 2.93428 0.519997 0
M  V30 332 H 25.6488 1.45044 0.245087 0
M  V30 333 H 27.6068 2.89949 2.99976 0
M  V30 334 H 26.2368 1.80505 2.67615 0
M  V30 335 H 25.2888 3.64145 1.10013 0
M  V30 336 H 26.6008 4.70678 1.65117 0
M  V30 337 H 25.7548 4.55963 4.00228 0
M  V30 338 H 24.4938 3.39996 3.49648 0
M  V30 339 H 23.4988 5.1311 1.97479 0
M  V30 340 H 24.7238 6.3106 2.50879 0
M  V30 341 H 22.6698 4.95602 4.29785 0
M  V30 342 H 22.5868 6.58539 3.71299 0
M  V30 343 H 23.8548 6.13212 4.81239 0
M  V30 344 N 28.0839 -0.256276 1.55502 0
M  V30 345 C 29.0159 -1.33981 1.85962 0
M  V30 346 C 30.0289 -1.44743 0.745212 0
M  V30 347 O 31.2179 -1.4626 1.02324 0
M  V30 348 C 28.3179 -2.7194 2.02242 0
M  V30 349 C 27.4909 -2.83562 3.33033 0
M  V30 350 C 26.5499 -4.02304 3.39172 0
M  V30 351 O 25.5759 -3.92273 4.12444 0
M  V30 352 N 26.7779 -5.15045 2.67784 0
M  V30 353 H 29.5429 -1.08191 2.7949 0
M  V30 354 H 27.1039 -0.446388 1.55624 0
M  V30 355 H 29.0959 -3.49697 2.03701 0
M  V30 356 H 27.6659 -2.90479 1.15502 0
M  V30 357 H 26.8859 -1.92555 3.43971 0
M  V30 358 H 28.1739 -2.88271 4.19258 0
M  V30 359 H 27.5719 -5.26085 2.07968 0
M  V30 360 H 26.1289 -5.90972 2.74947 0
M  V30 361 N 29.562 -1.4872 -0.521534 0
M  V30 362 C 30.492 -1.66771 -1.63431 0
M  V30 363 C 31.473 -0.516499 -1.62069 0
M  V30 364 O 32.658 -0.750013 -1.79132 0
M  V30 365 C 29.788 -1.71515 -3.01993 0
M  V30 366 C 28.742 -2.86222 -3.18216 0
M  V30 367 C 28.068 -2.76061 -4.57924 0
M  V30 368 C 29.368 -4.27419 -3.00184 0
M  V30 369 H 31.062 -2.59932 -1.48579 0
M  V30 370 H 28.608 -1.25089 -0.713358 0
M  V30 371 H 30.561 -1.82731 -3.7972 0
M  V30 372 H 29.285 -0.749393 -3.17886 0
M  V30 373 H 27.944 -2.74575 -2.42908 0
M  V30 374 H 27.592 -1.77437 -4.70665 0
M  V30 375 H 27.292 -3.53037 -4.69722 0
M  V30 376 H 28.816 -2.89256 -5.37739 0
M  V30 377 H 30.23 -4.39855 -3.67697 0
M  V30 378 H 28.627 -5.05458 -3.2347 0
M  V30 379 H 29.697 -4.43293 -1.96518 0
M  V30 380 N 31.0401 0.771051 -1.3745 0
M  V30 381 C 32.3171 1.519 -1.23231 0
M  V30 382 C 32.6971 2.10383 0.173809 0
M  V30 383 O 32.0451 1.95583 1.18151 0
M  V30 384 C 32.2551 2.59933 -2.32886 0
M  V30 385 C 33.6031 3.27316 -2.70461 0
M  V30 386 O 34.6271 2.70228 -2.32068 0
M  V30 387 O 33.4861 4.30531 -3.36608 0
M  V30 388 H 30.5801 0.672803 -0.480901 0
M  V30 389 H 33.1261 0.807957 -1.49232 0
M  V30 390 H 31.8981 2.14842 -3.27045 0
M  V30 391 H 31.5211 3.38637 -2.08353 0
M  V30 392 N 32.5182 1.22032 0.997298 0
M  V30 393 C 33.7952 0.950823 1.70935 0
M  V30 394 C 34.1752 -0.535292 2.042 0
M  V30 395 O 33.5232 -1.50217 1.72183 0
M  V30 396 C 33.7332 1.84386 2.96315 0
M  V30 397 C 35.0812 2.09732 3.69185 0
M  V30 398 O 36.1052 1.81798 3.06314 0
M  V30 399 O 34.9642 2.57018 4.82291 0
M  V30 400 H 32.0582 0.357204 0.745878 0
M  V30 401 H 34.6042 1.32997 1.05404 0
M  V30 402 H 33.3762 2.84928 2.68201 0
M  V30 403 H 32.9992 1.46602 3.69586 0
M  V30 404 N 33.9963 -1.19345 1.0293 0
M  V30 405 C 34.9263 -2.2481 0.631105 0
M  V30 406 C 35.9073 -1.66245 -0.360104 0
M  V30 407 O 37.0923 -1.92677 -0.242726 0
M  V30 408 C 34.2223 -3.47295 -0.0184607 0
M  V30 409 C 33.1763 -4.18536 0.895073 0
M  V30 410 C 32.5023 -5.34586 0.110592 0
M  V30 411 C 33.8023 -4.73287 2.209 0
M  V30 412 H 35.4963 -2.58372 1.51275 0
M  V30 413 H 33.0423 -1.24194 0.728818 0
M  V30 414 H 34.9953 -4.20268 -0.308675 0
M  V30 415 H 33.7193 -3.12933 -0.934907 0
M  V30 416 H 32.3783 -3.47446 1.16949 0
M  V30 417 H 32.0263 -4.96469 -0.807902 0
M  V30 418 H 31.7263 -5.83183 0.719087 0
M  V30 419 H 33.2503 -6.10355 -0.172871 0
M  V30 420 H 34.6643 -5.38013 1.98028 0
M  V30 421 H 33.0613 -5.32373 2.76946 0
M  V30 422 H 34.1313 -3.91331 2.86336 0
M  V30 423 N 35.4744 -0.807222 -1.35358 0
M  V30 424 C 36.4214 -0.216037 -2.29787 0
M  V30 425 C 37.3914 0.650278 -1.52842 0
M  V30 426 O 38.5764 0.595227 -1.81278 0
M  V30 427 C 35.7164 0.628893 -3.39321 0
M  V30 428 C 34.8294 -0.257927 -4.31229 0
M  V30 429 C 33.9644 0.595069 -5.27856 0
M  V30 430 C 33.0034 -0.292111 -6.11403 0
M  V30 431 N 32.1404 0.520895 -7.00165 0
M  V30 432 H 36.9804 -1.02671 -2.79755 0
M  V30 433 H 34.5174 -0.517839 -1.37684 0
M  V30 434 H 36.4754 1.13393 -4.01494 0
M  V30 435 H 35.1054 1.40482 -2.90628 0
M  V30 436 H 34.1574 -0.881076 -3.70056 0
M  V30 437 H 35.4694 -0.940759 -4.89848 0
M  V30 438 H 34.6234 1.16522 -5.95405 0
M  V30 439 H 33.3624 1.31146 -4.69736 0
M  V30 440 H 32.3674 -0.874525 -5.428 0
M  V30 441 H 33.5924 -1.00638 -6.71602 0
M  V30 442 H 31.5384 1.22125 -6.44532 0
M  V30 443 H 31.4554 -0.103877 -7.55929 0
M  V30 444 H 32.7234 1.0743 -7.72062 0
M  V30 445 N 36.9525 1.47285 -0.560781 0
M  V30 446 C 38.1985 2.02764 -0.0381184 0
M  V30 447 C 38.5315 1.43384 1.30976 0
M  V30 448 O 37.8065 0.590733 1.85312 0
M  V30 449 C 38.0895 3.60064 0.0511427 0
M  V30 450 C 37.9425 4.2987 -1.32408 0
M  V30 451 C 39.2615 4.33439 0.762795 0
M  V30 452 H 36.3805 0.736841 -0.0153264 0
M  V30 453 H 39.0225 1.75675 -0.723759 0
M  V30 454 H 37.1725 3.83274 0.635065 0
M  V30 455 H 38.8445 4.17989 -1.95148 0
M  V30 456 H 37.0875 3.90085 -1.8978 0
M  V30 457 H 37.7585 5.38478 -1.21431 0
M  V30 458 H 40.2345 4.15243 0.266965 0
M  V30 459 H 39.1105 5.43124 0.794221 0
M  V30 460 H 39.3715 4.02915 1.81966 0
M  V30 461 N 38.4306 0.297415 1.54768 0
M  V30 462 C 39.3406 -0.58983 2.27064 0
M  V30 463 C 40.3566 -1.15144 1.30453 0
M  V30 464 O 41.5326 -1.17699 1.63428 0
M  V30 465 C 38.5976 -1.74714 2.9946 0
M  V30 466 C 37.6586 -1.21997 4.11601 0
M  V30 467 C 36.8916 -2.32212 4.80535 0
M  V30 468 O 37.1146 -3.52036 4.48806 0
M  V30 469 O 36.0486 -1.99106 5.68014 0
M  V30 470 H 39.8746 -0.00348199 3.037 0
M  V30 471 H 37.4596 0.0640035 1.49263 0
M  V30 472 H 39.3416 -2.42147 3.44881 0
M  V30 473 H 38.0166 -2.32016 2.25722 0
M  V30 474 H 36.9236 -0.511458 3.70587 0
M  V30 475 H 38.2566 -0.692419 4.87305 0
M  V30 476 N 39.9087 -1.5758 0.0250728 0
M  V30 477 C 40.8387 -2.13007 -0.956575 0
M  V30 478 C 41.8197 -1.0452 -1.342 0
M  V30 479 O 43.0047 -1.32332 -1.42133 0
M  V30 480 C 40.1347 -2.65386 -2.24026 0
M  V30 481 C 39.0887 -3.78623 -1.99571 0
M  V30 482 C 38.4147 -4.17414 -3.3417 0
M  V30 483 C 39.7147 -5.04867 -1.33814 0
M  V30 484 H 41.4087 -2.9528 -0.494991 0
M  V30 485 H 38.9547 -1.42042 -0.236651 0
M  V30 486 H 40.9077 -3.02794 -2.93076 0
M  V30 487 H 39.6317 -1.80268 -2.72343 0
M  V30 488 H 38.2907 -3.41646 -1.32941 0
M  V30 489 H 37.9387 -3.29284 -3.80238 0
M  V30 490 H 37.6387 -4.93719 -3.18615 0
M  V30 491 H 39.1627 -4.57402 -4.04495 0
M  V30 492 H 40.5767 -5.39888 -1.92857 0
M  V30 493 H 38.9737 -5.86144 -1.28669 0
M  V30 494 H 40.0437 -4.83904 -0.310561 0
M  V30 495 N 41.3868 0.248026 -1.55636 0
M  V30 496 C 42.6118 0.998028 -1.81808 0
M  V30 497 C 43.0368 1.78207 -0.601979 0
M  V30 498 O 42.3948 1.75653 0.448961 0
M  V30 499 C 42.4428 1.9125 -3.05705 0
M  V30 500 O 41.5468 3.00406 -2.82542 0
M  V30 501 H 40.8878 0.284045 -0.600179 0
M  V30 502 H 43.4178 0.269357 -2.02819 0
M  V30 503 H 43.4278 2.32737 -3.35108 0
M  V30 504 H 42.1028 1.33602 -3.93857 0
M  V30 505 H 40.6798 2.63056 -2.64303 0
M  V30 506 N 42.8649 1.48995 0.513639 0
M  V30 507 C 43.7969 1.60836 1.63293 0
M  V30 508 C 44.8099 0.491701 1.55197 0
M  V30 509 O 45.9989 0.763238 1.6136 0
M  V30 510 C 43.0989 1.53731 3.02027 0
M  V30 511 C 42.2719 2.80715 3.35437 0
M  V30 512 C 41.3309 2.66837 4.53525 0
M  V30 513 O 40.3569 3.40753 4.55934 0
M  V30 514 N 41.5589 1.77539 5.52684 0
M  V30 515 H 44.3239 2.57366 1.53566 0
M  V30 516 H 41.8849 1.45925 0.701259 0
M  V30 517 H 43.8769 1.42118 3.78926 0
M  V30 518 H 42.4469 0.651092 3.05744 0
M  V30 519 H 41.6669 3.06772 2.47557 0
M  V30 520 H 42.9549 3.64927 3.54551 0
M  V30 521 H 42.3529 1.16719 5.53528 0
M  V30 522 H 40.9099 1.71856 6.28736 0
M  V30 523 N 44.343 -0.763751 1.37857 0
M  V30 524 C 45.273 -1.89103 1.36975 0
M  V30 525 C 46.254 -1.68439 0.237152 0
M  V30 526 O 47.439 -1.8918 0.438713 0
M  V30 527 C 44.569 -3.26496 1.18395 0
M  V30 528 C 43.523 -3.61741 2.28751 0
M  V30 529 C 42.849 -4.97762 1.95286 0
M  V30 530 C 44.149 -3.67665 3.70972 0
M  V30 531 H 45.843 -1.90099 2.31307 0
M  V30 532 H 43.389 -0.91319 1.11341 0
M  V30 533 H 45.342 -4.05003 1.16406 0
M  V30 534 H 44.066 -3.25955 0.205215 0
M  V30 535 H 42.725 -2.85547 2.29909 0
M  V30 536 H 42.373 -4.93769 0.959221 0
M  V30 537 H 42.073 -5.22313 2.69189 0
M  V30 538 H 43.597 -5.7866 1.94898 0
M  V30 539 H 45.011 -4.36307 3.719 0
M  V30 540 H 43.408 -4.03718 4.43995 0
M  V30 541 H 44.478 -2.68134 4.0402 0
M  V30 542 N 45.8211 -1.22559 -0.990812 0
M  V30 543 C 47.2371 -0.985996 -1.255 0
M  V30 544 C 47.4371 0.319173 -1.98956 0
M  V30 545 O 46.4931 1.04127 -2.3003 0
M  V30 546 C 47.8061 -2.18607 -2.06474 0
M  V30 547 C 49.3541 -2.22985 -2.19651 0
M  V30 548 C 49.8291 -3.4255 -3.04012 0
M  V30 549 N 51.3201 -3.42725 -3.11599 0
M  V30 550 C 52.0551 -4.31892 -3.7717 0
M  V30 551 N 51.5511 -5.31279 -4.44651 0
M  V30 552 N 53.3441 -4.19662 -3.73952 0
M  V30 553 H 45.4951 -2.06469 -0.49841 0
M  V30 554 H 47.7581 -0.904853 -0.282747 0
M  V30 555 H 47.4641 -3.13267 -1.59865 0
M  V30 556 H 47.3381 -2.18838 -3.07229 0
M  V30 557 H 49.7251 -1.28871 -2.65474 0
M  V30 558 H 49.8061 -2.26791 -1.18319 0
M  V30 559 H 49.4501 -4.36965 -2.58889 0
M  V30 560 H 49.3801 -3.35984 -4.0549 0
M  V30 561 H 51.8711 -2.70807 -2.63575 0
M  V30 562 H 52.1841 -5.95593 -4.92431 0
M  V30 563 H 50.5291 -5.3519 -4.43392 0
M  V30 564 H 53.7201 -3.41268 -3.20396 0
M  V30 565 H 53.8931 -4.89358 -4.24774 0
M  V30 566 N 47.2992 1.18797 -1.03562 0
M  V30 567 C 48.5452 1.8893 -0.737113 0
M  V30 568 C 48.8782 1.79837 0.732956 0
M  V30 569 O 48.1532 1.19525 1.5344 0
M  V30 570 C 48.4362 3.39607 -1.19745 0
M  V30 571 C 48.2892 3.57537 -2.72924 0
M  V30 572 C 49.6082 4.33069 -0.783526 0
M  V30 573 H 46.7272 0.686057 -0.269249 0
M  V30 574 H 49.3692 1.39797 -1.28673 0
M  V30 575 H 47.5192 3.81583 -0.729855 0
M  V30 576 H 49.1912 3.24688 -3.27682 0
M  V30 577 H 47.4342 3.00363 -3.12993 0
M  V30 578 H 48.1052 4.63238 -3.00191 0
M  V30 579 H 50.5812 3.98846 -1.18581 0
M  V30 580 H 49.4572 5.3707 -1.13343 0
M  V30 581 H 49.7182 4.40986 0.313681 0
M  V30 582 N 48.7773 0.814389 1.34928 0
M  V30 583 C 49.7403 0.235759 2.27984 0
M  V30 584 C 50.7403 -0.581412 1.49921 0
M  V30 585 O 51.9303 -0.398758 1.69575 0
M  V30 586 C 49.0623 -0.670433 3.34242 0
M  V30 587 H 50.2553 1.05659 2.80671 0
M  V30 588 H 47.8083 0.585614 1.44915 0
M  V30 589 H 48.5433 -1.51466 2.86755 0
M  V30 590 H 48.3283 -0.0860822 3.92005 0
M  V30 591 H 49.8183 -1.06935 4.03676 0
M  V30 592 N 50.2554 -1.46986 0.568584 0
M  V30 593 C 51.2024 -2.30153 -0.172707 0
M  V30 594 C 52.1724 -1.39759 -0.897586 0
M  V30 595 O 53.3574 -1.68716 -0.891044 0
M  V30 596 C 50.4974 -3.23952 -1.1895 0
M  V30 597 C 49.6104 -4.29441 -0.469517 0
M  V30 598 C 48.7454 -5.1038 -1.47259 0
M  V30 599 C 47.7844 -6.07632 -0.738225 0
M  V30 600 N 46.9214 -6.8149 -1.68868 0
M  V30 601 H 51.7614 -2.93019 0.542596 0
M  V30 602 H 49.2984 -1.44422 0.279401 0
M  V30 603 H 51.2564 -3.76767 -1.79173 0
M  V30 604 H 49.8864 -2.62926 -1.87269 0
M  V30 605 H 48.9384 -3.79594 0.247467 0
M  V30 606 H 50.2504 -4.98689 0.105241 0
M  V30 607 H 49.4044 -5.67402 -2.14803 0
M  V30 608 H 48.1434 -4.4106 -2.08128 0
M  V30 609 H 47.1484 -5.49778 -0.0489293 0
M  V30 610 H 48.3734 -6.78966 -0.135129 0
M  V30 611 H 46.3194 -6.14891 -2.28573 0
M  V30 612 H 46.2364 -7.46948 -1.16636 0
M  V30 613 H 47.5044 -7.43078 -2.3549 0
M  V30 614 N 51.7335 -0.305618 -1.54608 0
M  V30 615 C 52.9795 0.302746 -2.00528 0
M  V30 616 C 53.3125 1.53184 -1.19367 0
M  V30 617 O 52.5875 1.92598 -0.271321 0
M  V30 618 C 52.8705 0.654756 -3.54097 0
M  V30 619 C 52.7235 -0.583793 -4.45995 0
M  V30 620 C 54.0425 1.47947 -4.14487 0
M  V30 621 H 51.1615 0.108564 -0.72896 0
M  V30 622 H 53.8035 -0.418634 -1.85331 0
M  V30 623 H 51.9535 1.26935 -3.67178 0
M  V30 624 H 53.6255 -1.22224 -4.44814 0
M  V30 625 H 51.8685 -1.21615 -4.16404 0
M  V30 626 H 52.5395 -0.293287 -5.5122 0
M  V30 627 H 55.0155 0.96013 -4.04871 0
M  V30 628 H 53.8915 1.69454 -5.22088 0
M  V30 629 H 54.1525 2.47011 -3.66658 0
M  V30 630 N 53.2116 1.57565 -0.0334293 0
M  V30 631 C 54.4396 1.9628 0.654347 0
M  V30 632 C 54.8546 0.910138 1.65414 0
M  V30 633 O 54.2116 -0.107595 1.82183 0
M  V30 634 C 54.2626 3.35067 1.35693 0
M  V30 635 O 53.9836 4.36296 0.397191 0
M  V30 636 C 55.4846 3.88439 2.13613 0
M  V30 637 H 52.7046 0.646369 0.180132 0
M  V30 638 H 55.2486 2.04282 -0.0944721 0
M  V30 639 H 53.4036 3.2827 2.05712 0
M  V30 640 H 53.8176 5.1678 0.896597 0
M  V30 641 H 55.2916 4.8788 2.58219 0
M  V30 642 H 55.7686 3.22914 2.97696 0
M  V30 643 H 56.3746 3.98516 1.48543 0
M  V30 644 N 54.6897 -0.239769 1.55765 0
M  V30 645 C 55.9377 -0.964892 1.77579 0
M  V30 646 C 56.2587 -1.85582 0.598699 0
M  V30 647 O 55.5287 -1.92075 -0.385226 0
M  V30 648 H 54.1087 -0.359265 0.654933 0
M  V30 649 H 56.7707 -0.256001 1.93211 0
M  V30 650 H 55.8667 -1.58243 2.69009 0
M  V30 651 N 56.1678 -1.49265 -0.50573 0
M  V30 652 C 57.4158 -1.582 -1.25766 0
M  V30 653 C 57.7368 -0.268482 -1.93143 0
M  V30 654 O 57.0068 0.711833 -1.8251 0
M  V30 655 H 55.5868 -0.582873 -0.467191 0
M  V30 656 H 58.2488 -1.85865 -0.586525 0
M  V30 657 H 57.3448 -2.37563 -2.02412 0
M  V30 658 N 57.6459 0.756429 -1.3826 0
M  V30 659 C 58.6089 1.85176 -1.35065 0
M  V30 660 C 59.6089 1.58818 -0.251703 0
M  V30 661 O 60.7989 1.66615 -0.508433 0
M  V30 662 C 57.9309 3.22596 -1.10201 0
M  V30 663 H 59.1239 1.89417 -2.3251 0
M  V30 664 H 56.6769 0.95783 -1.23512 0
M  V30 665 H 57.4119 3.24025 -0.133504 0
M  V30 666 H 57.1969 3.43122 -1.89762 0
M  V30 667 H 58.6869 4.02673 -1.10654 0
M  V30 668 N 59.124 1.23083 0.984299 0
M  V30 669 C 60.087 1.00979 2.05757 0
M  V30 670 C 61.087 -0.0269573 1.60777 0
M  V30 671 O 62.277 0.212403 1.729 0
M  V30 672 C 59.409 0.527072 3.36801 0
M  V30 673 H 60.602 1.9622 2.26799 0
M  V30 674 H 58.155 1.05072 1.15714 0
M  V30 675 H 58.89 -0.429294 3.21446 0
M  V30 676 H 58.675 1.27515 3.70786 0
M  V30 677 H 60.165 0.392942 4.15747 0
M  V30 678 N 60.6021 -1.18246 1.0419 0
M  V30 679 C 61.8271 -1.92736 0.765996 0
M  V30 680 C 62.2521 -1.75728 -0.67091 0
M  V30 681 O 61.6101 -1.06825 -1.46486 0
M  V30 682 C 61.6581 -3.42148 1.13875 0
M  V30 683 O 60.7621 -4.11548 0.264954 0
M  V30 684 H 60.1031 -0.601238 0.281797 0
M  V30 685 H 62.6331 -1.49942 1.39207 0
M  V30 686 H 62.6431 -3.92858 1.1012 0
M  V30 687 H 61.3181 -3.53848 2.18551 0
M  V30 688 H 59.8951 -3.71137 0.362226 0
M  V30 689 N 62.0802 -0.821533 -1.34494 0
M  V30 690 C 63.0272 -0.240397 -2.29545 0
M  V30 691 C 63.9972 0.634031 -1.53523 0
M  V30 692 O 65.1822 0.575966 -1.81899 0
M  V30 693 C 62.3222 0.592869 -3.39969 0
M  V30 694 C 61.4352 -0.30365 -4.30932 0
M  V30 695 C 60.5702 0.539049 -5.28458 0
M  V30 696 C 59.6092 -0.356942 -6.11058 0
M  V30 697 N 58.7462 0.446603 -7.00678 0
M  V30 698 H 63.5862 -1.05632 -2.7865 0
M  V30 699 H 61.1232 -0.532413 -1.37127 0
M  V30 700 H 63.0812 1.09129 -4.02675 0
M  V30 701 H 61.7112 1.37392 -2.92102 0
M  V30 702 H 60.7632 -0.920276 -3.691 0
M  V30 703 H 62.0752 -0.992661 -4.88823 0
M  V30 704 H 61.2292 1.102 -5.96608 0
M  V30 705 H 59.9682 1.26157 -4.71101 0
M  V30 706 H 58.9732 -0.932047 -5.41842 0
M  V30 707 H 60.1982 -1.07755 -6.70497 0
M  V30 708 H 58.1442 1.15282 -6.45791 0
M  V30 709 H 58.0612 -0.184048 -7.55776 0
M  V30 710 H 59.3292 0.992352 -7.73158 0
M  V30 711 N 63.5583 1.46682 -0.576371 0
M  V30 712 C 64.4883 2.33028 0.148397 0
M  V30 713 C 65.4693 1.44961 0.889956 0
M  V30 714 O 66.6543 1.73789 0.866662 0
M  V30 715 C 63.7843 3.27117 1.1667 0
M  V30 716 C 62.7383 4.24575 0.540386 0
M  V30 717 C 62.0643 5.08126 1.6647 0
M  V30 718 C 63.3643 5.19722 -0.518331 0
M  V30 719 H 65.0583 2.93875 -0.572509 0
M  V30 720 H 62.6043 1.41315 -0.276768 0
M  V30 721 H 64.5573 3.86374 1.68204 0
M  V30 722 H 63.2813 2.64364 1.9178 0
M  V30 723 H 61.9403 3.66571 0.0461769 0
M  V30 724 H 61.5883 4.41762 2.40531 0
M  V30 725 H 61.2883 5.74122 1.25131 0
M  V30 726 H 62.8123 5.70246 2.18293 0
M  V30 727 H 64.2263 5.73232 -0.0883058 0
M  V30 728 H 62.6233 5.94026 -0.851679 0
M  V30 729 H 63.6933 4.64037 -1.40703 0
M  V30 730 N 65.0364 0.313813 1.54444 0
M  V30 731 C 66.2614 -0.296681 2.05267 0
M  V30 732 C 66.6864 -1.45757 1.18897 0
M  V30 733 O 66.0444 -1.80239 0.195886 0
M  V30 734 C 66.0924 -0.71831 3.53373 0
M  V30 735 O 65.1964 -1.82175 3.69981 0
M  V30 736 H 64.5374 -0.0554061 0.661684 0
M  V30 737 H 67.0674 0.459387 1.99376 0
M  V30 738 H 67.0774 -1.00364 3.95463 0
M  V30 739 H 65.7524 0.130821 4.15694 0
M  V30 740 H 64.3294 -1.53598 3.39797 0
M  V30 741 N 66.5145 -1.57545 0.0417849 0
M  V30 742 C 67.4615 -2.10977 -0.935805 0
M  V30 743 C 68.4315 -1.01486 -1.31491 0
M  V30 744 O 69.6165 -1.2898 -1.40602 0
M  V30 745 C 66.7565 -2.65169 -2.2086 0
M  V30 746 C 65.8695 -3.88714 -1.88482 0
M  V30 747 C 65.0045 -4.31254 -3.1015 0
M  V30 748 C 64.0435 -5.47524 -2.7365 0
M  V30 749 N 63.1805 -5.85162 -3.87982 0
M  V30 750 H 68.0205 -2.94218 -0.473249 0
M  V30 751 H 65.5575 -1.45415 -0.221981 0
M  V30 752 H 67.5155 -2.94685 -2.95325 0
M  V30 753 H 66.1455 -1.8474 -2.64709 0
M  V30 754 H 65.1975 -3.65849 -1.04205 0
M  V30 755 H 66.5095 -4.73245 -1.57608 0
M  V30 756 H 65.6635 -4.62273 -3.92923 0
M  V30 757 H 64.4025 -3.45516 -3.44195 0
M  V30 758 H 63.4075 -5.16187 -1.89291 0
M  V30 759 H 64.6325 -6.34971 -2.40807 0
M  V30 760 H 62.5785 -5.02377 -4.21846 0
M  V30 761 H 62.4955 -6.64362 -3.60775 0
M  V30 762 H 63.7635 -6.20791 -4.71422 0
M  V30 763 N 67.9926 0.231505 -1.5589 0
M  V30 764 C 69.2416 0.955346 -1.7764 0
M  V30 765 C 69.5546 1.85893 -0.608546 0
M  V30 766 O 70.7606 2.62067 -0.70943 0
M  V30 767 C 69.2166 1.74886 -3.14552 0
M  V30 768 C 68.8246 0.891915 -4.39032 0
M  V30 769 C 70.5686 2.46452 -3.45633 0
M  V30 770 C 68.4756 1.68221 -5.66971 0
M  V30 771 H 67.4056 0.360446 -0.662265 0
M  V30 772 H 70.0566 0.209516 -1.823 0
M  V30 773 H 68.4386 2.53723 -3.04041 0
M  V30 774 H 69.6126 0.144793 -4.60572 0
M  V30 775 H 67.9276 0.288863 -4.15397 0
M  V30 776 H 70.5246 3.06061 -4.38441 0
M  V30 777 H 70.8676 3.18841 -2.67668 0
M  V30 778 H 71.4006 1.74613 -3.57428 0
M  V30 779 H 68.1396 1.00178 -6.478 0
M  V30 780 H 67.6596 2.4042 -5.49507 0
M  V30 781 H 69.3386 2.24544 -6.06786 0
M  V30 782 N 69.4707 1.49531 0.497807 0
M  V30 783 C 70.8867 1.36365 0.829266 0
M  V30 784 C 71.0867 0.399184 1.97506 0
M  V30 785 O 70.1427 -0.167977 2.51941 0
M  V30 786 C 71.4557 2.77153 1.16647 0
M  V30 787 C 73.0037 2.85877 1.27449 0
M  V30 788 C 73.4787 4.2744 1.64497 0
M  V30 789 N 74.9697 4.30265 1.7154 0
M  V30 790 C 75.7047 5.3677 2.01656 0
M  V30 791 N 75.2007 6.53516 2.29976 0
M  V30 792 N 76.9937 5.24189 2.02934 0
M  V30 793 H 69.1447 2.10831 -0.257703 0
M  V30 794 H 71.4077 0.946534 -0.0527091 0
M  V30 795 H 71.1137 3.49442 0.397872 0
M  V30 796 H 70.9877 3.12722 2.10915 0
M  V30 797 H 73.3747 2.13824 2.0338 0
M  V30 798 H 73.4557 2.53887 0.312244 0
M  V30 799 H 73.0997 5.00021 0.891151 0
M  V30 800 H 73.0297 4.56896 2.61827 0
M  V30 801 H 75.5207 3.4607 1.51802 0
M  V30 802 H 75.8337 7.30506 2.52153 0
M  V30 803 H 74.1787 6.56737 2.27425 0
M  V30 804 H 77.3697 4.31988 1.80289 0
M  V30 805 H 77.5427 6.07286 2.26071 0
M  V30 806 N 70.9488 -0.749086 1.3866 0
M  V30 807 C 72.1948 -1.51056 1.35314 0
M  V30 808 C 72.5278 -1.94121 -0.0553751 0
M  V30 809 O 71.8028 -1.65763 -1.01749 0
M  V30 810 C 72.0858 -2.76003 2.31288 0
M  V30 811 C 71.9388 -2.39047 3.8102 0
M  V30 812 C 73.2578 -3.78046 2.2532 0
M  V30 813 H 70.3768 -0.547972 0.492844 0
M  V30 814 H 73.0188 -0.857628 1.69543 0
M  V30 815 H 71.1688 -3.31716 2.02229 0
M  V30 816 H 72.8408 -1.89074 4.20771 0
M  V30 817 H 71.0838 -1.71449 3.98482 0
M  V30 818 H 71.7548 -3.28462 4.4364 0
M  V30 819 H 74.2308 -3.31884 2.50983 0
M  V30 820 H 73.1068 -4.63159 2.94576 0
M  V30 821 H 73.3678 -4.23957 1.25352 0
M  V30 822 N 72.4269 -1.23603 -0.977757 0
M  V30 823 C 73.6729 -1.07129 -1.72195 0
M  V30 824 C 74.0059 0.390501 -1.90233 0
M  V30 825 O 73.2809 1.28902 -1.45653 0
M  V30 826 C 73.5639 -1.80031 -3.11867 0
M  V30 827 C 73.4169 -3.33899 -3.01383 0
M  V30 828 C 74.7359 -1.56492 -4.11337 0
M  V30 829 H 71.8549 -0.390571 -0.624999 0
M  V30 830 H 74.4969 -1.52142 -1.13811 0
M  V30 831 H 72.6469 -1.41768 -3.6171 0
M  V30 832 H 74.3189 -3.81699 -2.59043 0
M  V30 833 H 72.5619 -3.62796 -2.37827 0
M  V30 834 H 73.2329 -3.801 -4.00285 0
M  V30 835 H 75.7089 -1.89757 -3.70313 0
M  V30 836 H 74.5849 -2.09973 -5.07151 0
M  V30 837 H 74.8459 -0.500874 -4.39254 0
M  V30 838 N 73.905 1.17692 -1.04816 0
M  V30 839 C 75.321 1.39863 -0.768794 0
M  V30 840 C 75.521 1.91118 0.638451 0
M  V30 841 O 74.577 2.10036 1.40146 0
M  V30 842 C 75.89 2.39274 -1.82122 0
M  V30 843 C 77.438 2.52987 -1.843 0
M  V30 844 C 77.913 3.55669 -2.88555 0
M  V30 845 N 79.404 3.63183 -2.87493 0
M  V30 846 C 80.139 4.42381 -3.64811 0
M  V30 847 N 79.635 5.25125 -4.51903 0
M  V30 848 N 81.428 4.37217 -3.53267 0
M  V30 849 H 73.579 0.82752 -1.95617 0
M  V30 850 H 75.842 0.426123 -0.846831 0
M  V30 851 H 75.548 2.08678 -2.83102 0
M  V30 852 H 75.422 3.38725 -1.65967 0
M  V30 853 H 77.809 2.82896 -0.839869 0
M  V30 854 H 77.89 1.53623 -2.04532 0
M  V30 855 H 77.534 3.26499 -3.89051 0
M  V30 856 H 77.464 4.54728 -2.65575 0
M  V30 857 H 79.955 3.04103 -2.24343 0
M  V30 858 H 80.268 5.82728 -5.07591 0
M  V30 859 H 78.613 5.24519 -4.55966 0
M  V30 860 H 81.804 3.71626 -2.84625 0
M  V30 861 H 81.977 4.98696 -4.13771 0
M  V30 862 N 75.3831 0.828654 1.34056 0
M  V30 863 C 76.3301 0.252567 2.29414 0
M  V30 864 C 77.3001 -0.62588 1.53857 0
M  V30 865 O 78.4851 -0.566312 1.82202 0
M  V30 866 C 75.6251 -0.574831 3.40279 0
M  V30 867 C 74.7381 0.326499 4.30764 0
M  V30 868 C 73.8731 -0.511016 5.28736 0
M  V30 869 C 72.9121 0.389342 6.1086 0
M  V30 870 N 72.0491 -0.409439 7.00905 0
M  V30 871 H 76.8891 1.07108 2.78086 0
M  V30 872 H 74.4261 0.539677 1.36843 0
M  V30 873 H 76.3841 -1.06992 4.03248 0
M  V30 874 H 75.0141 -1.35841 2.92826 0
M  V30 875 H 74.0661 0.939837 3.68607 0
M  V30 876 H 75.3781 1.01857 4.88289 0
M  V30 877 H 74.5321 -1.07035 5.97184 0
M  V30 878 H 73.2711 -1.23657 4.71763 0
M  V30 879 H 72.2761 0.960769 5.4134 0
M  V30 880 H 73.5011 1.1131 6.69916 0
M  V30 881 H 71.4471 -1.11856 6.46393 0
M  V30 882 H 71.3641 0.224126 7.55668 0
M  V30 883 H 72.6321 -0.951336 7.73673 0
M  V30 884 N 76.8612 -1.46375 0.584142 0
M  V30 885 C 78.0862 -2.07268 0.0740405 0
M  V30 886 C 78.5112 -1.42979 -1.22223 0
M  V30 887 O 77.8692 -0.514092 -1.73859 0
M  V30 888 C 77.9172 -3.60518 -0.0767769 0
M  V30 889 O 77.0212 -3.96533 -1.13292 0
M  V30 890 H 76.3622 -0.660961 0.0634524 0
M  V30 891 H 78.8922 -1.87991 0.807492 0
M  V30 892 H 78.9022 -4.07021 -0.282489 0
M  V30 893 H 77.5772 -4.06702 0.86986 0
M  V30 894 H 76.1542 -3.61738 -0.905553 0
M  V30 895 N 78.3393 -0.321999 -1.54275 0
M  V30 896 C 79.5883 0.281931 -1.9972 0
M  V30 897 C 79.9013 1.53369 -1.21397 0
M  V30 898 O 81.1073 2.21352 -1.57211 0
M  V30 899 C 79.5633 0.5529 -3.55628 0
M  V30 900 C 79.1713 -0.681721 -4.42783 0
M  V30 901 C 80.9153 1.11687 -4.09544 0
M  V30 902 C 78.8223 -0.382742 -5.9016 0
M  V30 903 H 77.7523 0.109124 -0.746062 0
M  V30 904 H 80.4033 -0.43398 -1.78294 0
M  V30 905 H 78.7853 1.32896 -3.73035 0
M  V30 906 H 79.9593 -1.45723 -4.37151 0
M  V30 907 H 78.2743 -1.1658 -3.99748 0
M  V30 908 H 80.8713 1.35515 -5.17242 0
M  V30 909 H 81.2143 2.06575 -3.61431 0
M  V30 910 H 81.7473 0.402032 -3.95763 0
M  V30 911 H 78.4863 -1.30076 -6.42464 0
M  V30 912 H 78.0063 0.355094 -5.98748 0
M  V30 913 H 79.6853 0.00800157 -6.47 0
M  V30 914 N 79.8174 1.5752 -0.0501392 0
M  V30 915 C 80.7804 2.1037 0.909786 0
M  V30 916 C 81.7804 1.02308 1.24056 0
M  V30 917 O 82.9704 1.28385 1.17741 0
M  V30 918 C 80.1024 2.58708 2.21998 0
M  V30 919 H 81.2954 2.96479 0.451665 0
M  V30 920 H 78.8484 1.55038 0.198248 0
M  V30 921 H 79.5834 1.75989 2.72394 0
M  V30 922 H 79.3684 3.37675 1.99295 0
M  V30 923 H 80.8584 2.99747 2.9076 0
M  V30 924 N 81.2955 -0.223234 1.56011 0
M  V30 925 C 82.7115 -0.572856 1.48965 0
M  V30 926 C 82.9115 -1.87225 0.74492 0
M  V30 927 O 81.9675 -2.50899 0.283896 0
M  V30 928 C 83.2805 -0.653646 2.9351 0
M  V30 929 C 84.8285 -0.744386 3.0402 0
M  V30 930 C 85.3035 -0.856535 4.49919 0
M  V30 931 N 86.7945 -0.9208 4.53955 0
M  V30 932 C 87.5295 -1.02726 5.64123 0
M  V30 933 N 87.0255 -1.09777 6.84047 0
M  V30 934 N 88.8185 -1.06226 5.51971 0
M  V30 935 H 80.9695 0.629462 2.02858 0
M  V30 936 H 83.2325 0.220621 0.921971 0
M  V30 937 H 82.9385 0.231518 3.50937 0
M  V30 938 H 82.8125 -1.51781 3.45315 0
M  V30 939 H 85.1995 -1.61999 2.46658 0
M  V30 940 H 85.2805 0.14541 2.55386 0
M  V30 941 H 84.9245 0.0146069 5.07898 0
M  V30 942 H 84.8545 -1.76172 4.96257 0
M  V30 943 H 87.3455 -0.876694 3.6759 0
M  V30 944 H 87.6585 -1.17872 7.63758 0
M  V30 945 H 86.0035 -1.06693 6.86762 0
M  V30 946 H 89.1945 -1.00382 4.5721 0
M  V30 947 H 89.3675 -1.14177 6.37862 0
M  V30 948 N 82.7736 -1.49793 -0.48987 0
M  V30 949 C 84.0196 -1.60078 -1.24511 0
M  V30 950 C 84.3526 -0.291608 -1.91998 0
M  V30 951 O 83.6276 0.705647 -1.81248 0
M  V30 952 C 83.9106 -2.76791 -2.30345 0
M  V30 953 C 83.7636 -4.17535 -1.67286 0
M  V30 954 C 85.0826 -2.89111 -3.31817 0
M  V30 955 H 82.2016 -0.582645 -0.451324 0
M  V30 956 H 84.8436 -1.82117 -0.541612 0
M  V30 957 H 82.9936 -2.5813 -2.90346 0
M  V30 958 H 84.6656 -4.4774 -1.11026 0
M  V30 959 H 82.9086 -4.22665 -0.976577 0
M  V30 960 H 83.5796 -4.95094 -2.44103 0
M  V30 961 H 86.0556 -3.06133 -2.81819 0
M  V30 962 H 84.9316 -3.72433 -4.03219 0
M  V30 963 H 85.1926 -1.9893 -3.94815 0
M  V30 964 N 84.2517 0.741722 -1.39055 0
M  V30 965 C 85.1817 1.869 -1.39966 0
M  V30 966 C 86.1627 1.6804 -0.26392 0
M  V30 967 O 87.3477 1.88458 -0.468755 0
M  V30 968 C 84.4777 3.24572 -1.23574 0
M  V30 969 C 83.4317 3.58056 -2.34477 0
M  V30 970 C 82.7577 4.94593 -2.0318 0
M  V30 971 C 84.0577 3.61716 -3.76774 0
M  V30 972 H 85.7517 1.86395 -2.34302 0
M  V30 973 H 83.2977 0.895361 -1.1278 0
M  V30 974 H 85.2507 4.031 -1.22834 0
M  V30 975 H 83.9747 3.25587 -0.257045 0
M  V30 976 H 82.6337 2.81854 -2.34423 0
M  V30 977 H 82.2817 4.92181 -1.03765 0
M  V30 978 H 81.9817 5.17964 -2.77465 0
M  V30 979 H 83.5057 5.75486 -2.04079 0
M  V30 980 H 84.9197 4.30335 -3.78794 0
M  V30 981 H 83.3167 3.96603 -4.50362 0
M  V30 982 H 84.3867 2.61672 -4.08235 0
M  V30 983 N 85.7298 1.2412 0.971189 0
M  V30 984 C 86.9578 1.10575 1.74874 0
M  V30 985 C 87.3728 -0.342017 1.85676 0
M  V30 986 O 86.7298 -1.23617 1.34258 0
M  V30 987 C 86.7808 1.73579 3.171 0
M  V30 988 O 86.5018 3.12695 3.06844 0
M  V30 989 C 88.0028 1.65598 4.11208 0
M  V30 990 H 85.2228 0.386504 0.548503 0
M  V30 991 H 87.7668 1.64156 1.21955 0
M  V30 992 H 85.9218 1.24009 3.67016 0
M  V30 993 H 86.3358 3.43412 3.96445 0
M  V30 994 H 87.8098 2.1437 5.08674 0
M  V30 995 H 88.2868 0.616532 4.34851 0
M  V30 996 H 88.8928 2.14578 3.67201 0
M  V30 997 N 87.2079 -1.17134 1.05439 0
M  V30 998 C 88.4539 -1.87733 0.767077 0
M  V30 999 C 88.7869 -1.8098 -0.704253 0
M  V30 1000 O 88.0619 -1.21951 -1.5152 0
M  V30 1001 C 88.3449 -3.37659 1.25133 0
M  V30 1002 C 88.1979 -3.53149 2.78578 0
M  V30 1003 C 89.5169 -4.31768 0.852324 0
M  V30 1004 H 86.6359 -0.681687 0.280129 0
M  V30 1005 H 89.2779 -1.37732 1.30881 0
M  V30 1006 H 87.4279 -3.80373 0.790469 0
M  V30 1007 H 89.0999 -3.19434 3.32806 0
M  V30 1008 H 87.3429 -2.95345 3.17732 0
M  V30 1009 H 88.0139 -4.58403 3.07523 0
M  V30 1010 H 90.4899 -3.96909 1.24911 0
M  V30 1011 H 89.3659 -5.35199 1.21873 0
M  V30 1012 H 89.6269 -4.41429 -0.243485 0
M  V30 1013 N 88.686 -0.835752 -1.33615 0
M  V30 1014 C 89.935 -0.426289 -1.97144 0
M  V30 1015 C 90.248 1.01912 -1.66953 0
M  V30 1016 O 91.454 1.53311 -2.24072 0
M  V30 1017 C 89.91 -0.711321 -3.52801 0
M  V30 1018 C 89.518 -2.1712 -3.91871 0
M  V30 1019 C 91.262 -0.368654 -4.22896 0
M  V30 1020 C 89.169 -2.40044 -5.40493 0
M  V30 1021 H 88.099 -0.15567 -0.737755 0
M  V30 1022 H 90.75 -1.0239 -1.52278 0
M  V30 1023 H 89.132 -0.0433766 -3.95976 0
M  V30 1024 H 90.306 -2.87936 -3.59763 0
M  V30 1025 H 88.621 -2.47654 -3.34749 0
M  V30 1026 H 91.218 -0.517601 -5.32189 0
M  V30 1027 H 91.561 0.688078 -4.10574 0
M  V30 1028 H 92.094 -0.991702 -3.8524 0
M  V30 1029 H 88.833 -3.44271 -5.57815 0
M  V30 1030 H 88.353 -1.73785 -5.74072 0
M  V30 1031 H 90.032 -2.23042 -6.0734 0
M  V30 1032 N 90.1641 1.46063 -0.591896 0
M  V30 1033 C 91.1121 2.32124 0.148739 0
M  V30 1034 C 92.1061 1.45035 0.875286 0
M  V30 1035 O 93.3121 1.61609 0.792632 0
M  V30 1036 H 89.6871 0.749024 0.066832 0
M  V30 1037 H 91.6581 2.92392 -0.595783 0
M  V30 1038 C 90.4071 3.28373 1.1431 0
M  V30 1039 H 89.7301 3.95371 0.59346 0
M  V30 1040 H 91.1701 3.91352 1.63155 0
M  V30 1041 C 89.6291 2.54393 2.20875 0
M  V30 1042 O 90.1591 2.31373 3.28374 0
M  V30 1043 N 88.3651 2.14797 1.95731 0
M  V30 1044 H 87.9121 2.33719 1.08319 0
M  V30 1045 H 87.8701 1.65619 2.67241 0
M  V30 1046 N 91.6422 0.330177 1.54103 0
M  V30 1047 C 92.5742 -0.566902 2.22079 0
M  V30 1048 C 93.5872 -1.07462 1.22294 0
M  V30 1049 O 94.7762 -0.987065 1.48726 0
M  V30 1050 C 91.8762 -1.79138 2.87685 0
M  V30 1051 C 91.0492 -1.42123 4.13666 0
M  V30 1052 C 90.1082 -2.50394 4.62806 0
M  V30 1053 O 89.1342 -2.14261 5.27334 0
M  V30 1054 N 90.3362 -3.81433 4.37595 0
M  V30 1055 H 93.1012 0.0151844 2.99696 0
M  V30 1056 H 90.6622 0.153681 1.61169 0
M  V30 1057 H 92.6542 -2.50975 3.1748 0
M  V30 1058 H 91.2242 -2.28115 2.13734 0
M  V30 1059 H 90.4442 -0.534201 3.90564 0
M  V30 1060 H 91.7322 -1.14971 4.9564 0
M  V30 1061 H 91.1302 -4.13584 3.8596 0
M  V30 1062 H 89.6872 -4.4948 4.72029 0
M  V30 1063 N 93.1203 -1.57491 0.0584922 0
M  V30 1064 C 94.3483 -1.97296 -0.623037 0
M  V30 1065 C 94.7633 -0.936338 -1.63946 0
M  V30 1066 O 94.1203 0.0785981 -1.82331 0
M  V30 1067 C 94.1713 -3.37183 -1.30345 0
M  V30 1068 O 93.8923 -4.36872 -0.32773 0
M  V30 1069 C 95.3933 -3.91788 -2.07406 0
M  V30 1070 H 92.6133 -0.649153 -0.169826 0
M  V30 1071 H 95.1573 -2.04106 0.12696 0
M  V30 1072 H 93.3123 -3.31502 -2.00463 0
M  V30 1073 H 93.7263 -5.18141 -0.814269 0
M  V30 1074 H 95.2003 -4.91926 -2.50425 0
M  V30 1075 H 95.6773 -3.27609 -2.92521 0
M  V30 1076 H 96.2833 -4.00829 -1.42184 0
M  V30 1077 N 94.5984 0.214957 -1.56127 0
M  V30 1078 C 95.5304 1.29004 -1.89448 0
M  V30 1079 C 96.5434 1.42716 -0.783326 0
M  V30 1080 O 97.7324 1.43496 -1.06166 0
M  V30 1081 C 94.8324 2.66482 -2.09381 0
M  V30 1082 C 94.0054 2.74633 -3.40434 0
M  V30 1083 C 93.0644 3.9317 -3.49719 0
M  V30 1084 O 92.0904 3.812 -4.227 0
M  V30 1085 N 93.2924 5.07765 -2.81346 0
M  V30 1086 H 96.0574 1.00743 -2.82261 0
M  V30 1087 H 93.6184 0.40497 -1.56753 0
M  V30 1088 H 95.6104 3.44173 -2.12901 0
M  V30 1089 H 94.1804 2.87314 -1.23163 0
M  V30 1090 H 93.4004 1.83368 -3.48955 0
M  V30 1091 H 94.6884 2.77054 -4.26754 0
M  V30 1092 H 94.0864 5.20386 -2.21843 0
M  V30 1093 H 92.6434 5.83474 -2.90519 0
M  V30 1094 N 96.0765 1.50051 0.48192 0
M  V30 1095 C 97.0235 1.68122 1.58125 0
M  V30 1096 C 97.9935 0.522545 1.57666 0
M  V30 1097 O 99.1785 0.751844 1.75362 0
M  V30 1098 C 96.3185 1.77142 2.96167 0
M  V30 1099 C 95.4315 3.0444 3.06497 0
M  V30 1100 C 94.5665 3.04321 4.35387 0
M  V30 1101 C 93.6055 4.26118 4.3942 0
M  V30 1102 N 92.7425 4.238 5.59766 0
M  V30 1103 H 97.5825 2.6198 1.42022 0
M  V30 1104 H 95.1195 1.29877 0.690687 0
M  V30 1105 H 97.0775 1.80352 3.76203 0
M  V30 1106 H 95.7075 0.867329 3.1093 0
M  V30 1107 H 94.7595 3.10752 2.19402 0
M  V30 1108 H 96.0715 3.94426 3.05336 0
M  V30 1109 H 95.2255 3.062 5.23762 0
M  V30 1110 H 93.9645 2.12147 4.39141 0
M  V30 1111 H 92.9695 4.24463 3.49444 0
M  V30 1112 H 94.1945 5.19507 4.37366 0
M  V30 1113 H 92.1405 3.34474 5.64326 0
M  V30 1114 H 92.0575 5.07542 5.60301 0
M  V30 1115 H 93.3255 4.2981 6.50295 0
M  V30 1116 N 97.5546 -0.734337 1.39446 0
M  V30 1117 C 98.4646 -1.87879 1.40495 0
M  V30 1118 C 99.4806 -1.714 0.299672 0
M  V30 1119 O 100.657 -1.93991 0.541249 0
M  V30 1120 C 97.7216 -3.23477 1.24754 0
M  V30 1121 C 96.7826 -3.52344 2.45259 0
M  V30 1122 C 96.0156 -4.81473 2.30259 0
M  V30 1123 O 96.2386 -5.55237 1.30643 0
M  V30 1124 O 95.1726 -5.10254 3.19256 0
M  V30 1125 H 98.9986 -1.89949 2.36966 0
M  V30 1126 H 96.5836 -0.882243 1.20569 0
M  V30 1127 H 98.4656 -4.04509 1.18111 0
M  V30 1128 H 97.1406 -3.22176 0.313781 0
M  V30 1129 H 96.0476 -2.71396 2.57478 0
M  V30 1130 H 97.3806 -3.58426 3.37331 0
M  V30 1131 N 99.0327 -1.24633 -0.964593 0
M  V30 1132 C 99.9807 -1.03917 -2.08096 0
M  V30 1133 C 100.975 0.0268581 -1.69379 0
M  V30 1134 O 102.181 -0.127952 -1.79545 0
M  V30 1135 H 98.5557 -0.319044 -0.680966 0
M  V30 1136 H 100.527 -1.98581 -2.22729 0
M  V30 1137 C 99.2757 -0.663983 -3.41301 0
M  V30 1138 H 98.5987 -1.47605 -3.71555 0
M  V30 1139 H 100.039 -0.558663 -4.20303 0
M  V30 1140 C 98.4977 0.629169 -3.30973 0
M  V30 1141 O 99.0277 1.67404 -3.65156 0
M  V30 1142 N 97.2337 0.611057 -2.84103 0
M  V30 1143 H 96.7807 -0.239593 -2.56483 0
M  V30 1144 H 96.7387 1.47647 -2.77575 0
M  V30 1145 N 100.511 1.16574 -1.06058 0
M  V30 1146 C 101.441 2.23057 -0.690488 0
M  V30 1147 C 102.422 1.67141 0.315901 0
M  V30 1148 O 103.607 1.93253 0.191556 0
M  V30 1149 C 100.737 3.47222 -0.073625 0
M  V30 1150 C 99.6908 4.16016 -1.00573 0
M  V30 1151 C 99.0168 5.34104 -0.252289 0
M  V30 1152 C 100.317 4.67264 -2.33371 0
M  V30 1153 H 102.011 2.54271 -1.58072 0
M  V30 1154 H 99.5568 1.22218 -0.76149 0
M  V30 1155 H 101.51 4.20939 0.19714 0
M  V30 1156 H 100.234 3.15302 0.85161 0
M  V30 1157 H 98.8928 3.44223 -1.2612 0
M  V30 1158 H 98.5408 4.98437 0.675988 0
M  V30 1159 H 98.2408 5.81072 -0.873455 0
M  V30 1160 H 99.7648 6.10599 0.0109857 0
M  V30 1161 H 101.179 5.32573 -2.12223 0
M  V30 1162 H 99.5758 5.24843 -2.90963 0
M  V30 1163 H 100.646 3.83602 -2.96611 0
M  V30 1164 N 101.989 0.842826 1.3317 0
M  V30 1165 C 103.405 0.531128 1.50503 0
M  V30 1166 C 103.605 -0.940734 1.78192 0
M  V30 1167 O 102.661 -1.72436 1.84451 0
M  V30 1168 C 103.974 1.40789 2.65705 0
M  V30 1169 C 105.522 1.40708 2.79589 0
M  V30 1170 C 105.997 2.26878 3.97857 0
M  V30 1171 N 107.488 2.24609 4.05099 0
M  V30 1172 C 108.223 2.88019 4.95815 0
M  V30 1173 N 107.719 3.60496 5.9162 0
M  V30 1174 N 109.512 2.77469 4.88843 0
M  V30 1175 H 101.663 1.79557 1.1346 0
M  V30 1176 H 103.926 0.766267 0.558156 0
M  V30 1177 H 103.632 2.454 2.51936 0
M  V30 1178 H 103.506 1.08677 3.61205 0
M  V30 1179 H 105.893 0.368668 2.92788 0
M  V30 1180 H 105.974 1.76829 1.84838 0
M  V30 1181 H 105.618 3.3078 3.85418 0
M  V30 1182 H 105.548 1.88096 4.91861 0
M  V30 1183 H 108.039 1.71906 3.36536 0
M  V30 1184 H 108.352 4.06076 6.57512 0
M  V30 1185 H 106.697 3.64604 5.91683 0
M  V30 1186 H 109.888 2.20406 4.12963 0
M  V30 1187 H 110.061 3.2717 5.59342 0
M  V30 1188 N 103.467 -1.45747 0.599634 0
M  V30 1189 C 104.414 -2.30467 -0.123849 0
M  V30 1190 C 105.384 -1.41632 -0.86774 0
M  V30 1191 O 106.569 -1.70568 -0.855056 0
M  V30 1192 C 103.709 -3.26402 -1.12051 0
M  V30 1193 C 102.822 -4.3034 -0.37832 0
M  V30 1194 C 101.957 -5.13389 -1.364 0
M  V30 1195 C 100.996 -6.09061 -0.609171 0
M  V30 1196 N 100.133 -6.84918 -1.54374 0
M  V30 1197 H 104.973 -2.91802 0.604627 0
M  V30 1198 H 102.51 -1.43797 0.309972 0
M  V30 1199 H 104.468 -3.80482 -1.7114 0
M  V30 1200 H 103.098 -2.66839 -1.8165 0
M  V30 1201 H 102.15 -3.78984 0.327929 0
M  V30 1202 H 103.462 -4.98354 0.210997 0
M  V30 1203 H 102.616 -5.7183 -2.02719 0
M  V30 1204 H 101.355 -4.45376 -1.98725 0
M  V30 1205 H 100.36 -5.49758 0.0676979 0
M  V30 1206 H 101.585 -6.79099 0.00891991 0
M  V30 1207 H 99.531 -6.19601 -2.15478 0
M  V30 1208 H 99.448 -7.49254 -1.00766 0
M  V30 1209 H 100.716 -7.47906 -2.19676 0
M  V30 1210 N 104.945 -0.338344 -1.53925 0
M  V30 1211 C 106.192 0.259758 -2.00827 0
M  V30 1212 C 106.52 1.50973 -1.22628 0
M  V30 1213 O 105.775 1.93379 -0.300509 0
M  V30 1214 C 106.074 0.62448 -3.51902 0
M  V30 1215 C 105.74 -0.528006 -4.47798 0
M  V30 1216 C 104.402 -0.844298 -4.73735 0
M  V30 1217 C 106.754 -1.30143 -5.0469 0
M  V30 1218 C 104.082 -1.93648 -5.53821 0
M  V30 1219 C 106.434 -2.38382 -5.85967 0
M  V30 1220 C 105.098 -2.70576 -6.10201 0
M  V30 1221 H 104.368 0.0950523 -0.734878 0
M  V30 1222 H 107.015 -0.465182 -1.85764 0
M  V30 1223 H 105.32 1.43006 -3.64769 0
M  V30 1224 H 107.017 1.09905 -3.85645 0
M  V30 1225 H 103.607 -0.271421 -4.2774 0
M  V30 1226 H 107.791 -1.07033 -4.84621 0
M  V30 1227 H 103.047 -2.19021 -5.70824 0
M  V30 1228 H 107.221 -2.98746 -6.29066 0
M  V30 1229 H 104.848 -3.55333 -6.72044 0
M  V30 1230 N 106.423 1.57458 -0.0668435 0
M  V30 1231 C 107.653 1.97337 0.611677 0
M  V30 1232 C 108.061 0.943744 1.63982 0
M  V30 1233 O 107.404 -0.0785584 1.83532 0
M  V30 1234 C 107.466 3.33511 1.34205 0
M  V30 1235 C 107.13 4.54598 0.467941 0
M  V30 1236 C 108.127 5.19186 -0.272439 0
M  V30 1237 C 105.812 5.0075 0.39427 0
M  V30 1238 C 107.806 6.28274 -1.07476 0
M  V30 1239 C 105.493 6.09711 -0.411729 0
M  V30 1240 C 106.491 6.73335 -1.14492 0
M  V30 1241 O 106.179 7.80199 -1.93763 0
M  V30 1242 H 105.911 0.654042 0.170893 0
M  V30 1243 H 108.465 2.04961 -0.134289 0
M  V30 1244 H 106.695 3.22487 2.13398 0
M  V30 1245 H 108.384 3.58029 1.91233 0
M  V30 1246 H 109.15 4.84477 -0.225086 0
M  V30 1247 H 105.029 4.51009 0.954569 0
M  V30 1248 H 108.573 6.77866 -1.64755 0
M  V30 1249 H 104.47 6.43854 -0.460664 0
M  V30 1250 H 105.238 7.97053 -1.86142 0
M  V30 1251 N 107.901 -0.206675 1.56239 0
M  V30 1252 C 108.848 -1.25617 1.93621 0
M  V30 1253 C 109.818 -1.45824 0.795274 0
M  V30 1254 O 111.003 -1.59148 1.05245 0
M  V30 1255 C 108.143 -2.59839 2.27107 0
M  V30 1256 C 107.256 -2.47308 3.54207 0
M  V30 1257 C 106.391 -3.74155 3.7707 0
M  V30 1258 C 105.43 -3.56407 4.97635 0
M  V30 1259 N 104.567 -4.75238 5.1681 0
M  V30 1260 H 109.407 -0.930383 2.83104 0
M  V30 1261 H 106.944 -0.448065 1.4011 0
M  V30 1262 H 108.902 -3.38021 2.44535 0
M  V30 1263 H 107.532 -2.90485 1.40778 0
M  V30 1264 H 106.584 -1.60483 3.4489 0
M  V30 1265 H 107.896 -2.30122 4.42544 0
M  V30 1266 H 107.05 -4.60778 3.94675 0
M  V30 1267 H 105.789 -3.94282 2.87042 0
M  V30 1268 H 104.794 -2.68168 4.79964 0
M  V30 1269 H 106.019 -3.37736 5.89161 0
M  V30 1270 H 103.965 -4.95651 4.29728 0
M  V30 1271 H 103.882 -4.60835 5.99306 0
M  V30 1272 H 105.15 -5.63246 5.38864 0
M  V30 1273 N 109.379 -1.50304 -0.473955 0
M  V30 1274 C 110.627 -1.60832 -1.22382 0
M  V30 1275 C 110.948 -0.30939 -1.9253 0
M  V30 1276 O 110.218 0.67296 -1.83978 0
M  V30 1277 H 108.798 -0.592652 -0.454723 0
M  V30 1278 H 111.46 -1.87068 -0.546968 0
M  V30 1279 H 110.556 -2.41803 -1.97327 0
M  V30 1280 N 110.857 0.726932 -1.39834 0
M  V30 1281 C 111.804 1.841 -1.39197 0
M  V30 1282 C 112.774 1.642 -0.250502 0
M  V30 1283 O 113.959 1.85494 -0.446846 0
M  V30 1284 C 111.099 3.21697 -1.24919 0
M  V30 1285 C 110.212 3.53247 -2.48678 0
M  V30 1286 C 109.347 4.80289 -2.26928 0
M  V30 1287 C 108.386 5.04707 -3.4632 0
M  V30 1288 N 107.523 6.22956 -3.23836 0
M  V30 1289 H 112.363 1.83979 -2.34427 0
M  V30 1290 H 109.9 0.898876 -1.16442 0
M  V30 1291 H 111.858 4.01137 -1.1465 0
M  V30 1292 H 110.488 3.21076 -0.333153 0
M  V30 1293 H 109.54 2.68447 -2.69519 0
M  V30 1294 H 110.852 3.67205 -3.37582 0
M  V30 1295 H 110.006 5.67725 -2.13947 0
M  V30 1296 H 108.745 4.68519 -1.35431 0
M  V30 1297 H 107.75 4.1573 -3.5979 0
M  V30 1298 H 108.975 5.18357 -4.38729 0
M  V30 1299 H 106.921 6.12459 -2.35011 0
M  V30 1300 H 106.838 6.37539 -4.063 0
M  V30 1301 H 108.106 7.1321 -3.14566 0
M  V30 1302 N 112.336 1.25143 0.95797 0
M  V30 1303 C 113.283 1.05235 2.05412 0
M  V30 1304 C 114.253 -0.0374561 1.66058 0
M  V30 1305 O 115.438 0.119073 1.90428 0
M  V30 1306 C 112.578 0.673589 3.38462 0
M  V30 1307 C 111.691 1.8379 3.90954 0
M  V30 1308 C 110.826 1.40381 5.12315 0
M  V30 1309 C 109.865 2.53746 5.57027 0
M  V30 1310 N 109.002 2.11136 6.69601 0
M  V30 1311 H 113.842 1.99048 2.21774 0
M  V30 1312 H 111.379 0.991277 1.08683 0
M  V30 1313 H 113.337 0.434964 4.14926 0
M  V30 1314 H 111.967 -0.227554 3.21997 0
M  V30 1315 H 111.019 2.18992 3.11041 0
M  V30 1316 H 112.331 2.68937 4.20089 0
M  V30 1317 H 111.485 1.12464 5.96185 0
M  V30 1318 H 110.224 0.523015 4.84887 0
M  V30 1319 H 109.229 2.82412 4.71724 0
M  V30 1320 H 110.454 3.42398 5.86464 0
M  V30 1321 H 108.4 1.25468 6.4389 0
M  V30 1322 H 108.317 2.89832 6.98236 0
M  V30 1323 H 109.585 1.86385 7.56889 0
M  V30 1324 N 113.814 -1.1601 1.06675 0
M  V30 1325 C 115.044 -1.90251 0.805497 0
M  V30 1326 C 115.452 -1.77891 -0.64431 0
M  V30 1327 O 114.795 -1.12383 -1.45313 0
M  V30 1328 C 114.857 -3.41419 1.12576 0
M  V30 1329 C 114.521 -3.77564 2.57477 0
M  V30 1330 C 115.518 -3.79161 3.55715 0
M  V30 1331 C 113.203 -4.08079 2.92877 0
M  V30 1332 C 115.197 -4.10767 4.8739 0
M  V30 1333 C 112.884 -4.39351 4.24751 0
M  V30 1334 C 113.882 -4.40675 5.21818 0
M  V30 1335 O 113.57 -4.71202 6.51325 0
M  V30 1336 H 113.302 -0.610018 0.291297 0
M  V30 1337 H 115.856 -1.47958 1.4247 0
M  V30 1338 H 114.086 -3.84079 0.449503 0
M  V30 1339 H 115.775 -3.9694 0.84814 0
M  V30 1340 H 116.541 -3.55693 3.29708 0
M  V30 1341 H 112.42 -4.06211 2.17976 0
M  V30 1342 H 115.964 -4.11715 5.63148 0
M  V30 1343 H 111.861 -4.62285 4.50514 0
M  V30 1344 H 112.629 -4.88996 6.56373 0
M  V30 1345 N 115.292 -0.849877 -1.32721 0
M  V30 1346 C 116.239 -0.289033 -2.28983 0
M  V30 1347 C 117.209 0.601324 -1.54833 0
M  V30 1348 O 118.394 0.537253 -1.8308 0
M  V30 1349 C 115.534 0.520623 -3.4115 0
M  V30 1350 C 114.647 -0.394989 -4.3019 0
M  V30 1351 C 113.782 0.426834 -5.29482 0
M  V30 1352 C 112.821 -0.486476 -6.10164 0
M  V30 1353 N 111.958 0.297879 -7.01468 0
M  V30 1354 H 116.798 -1.11519 -2.76347 0
M  V30 1355 H 114.335 -0.56138 -1.35967 0
M  V30 1356 H 116.293 1.00563 -4.04899 0
M  V30 1357 H 114.923 1.31165 -2.9495 0
M  V30 1358 H 113.975 -0.99836 -3.67065 0
M  V30 1359 H 115.287 -1.09612 -4.86607 0
M  V30 1360 H 114.441 0.975205 -5.98811 0
M  V30 1361 H 113.18 1.16136 -4.73671 0
M  V30 1362 H 112.185 -1.04677 -5.39743 0
M  V30 1363 H 113.41 -1.21953 -6.6806 0
M  V30 1364 H 111.356 1.01558 -6.48091 0
M  V30 1365 H 111.273 -0.344318 -7.55216 0
M  V30 1366 H 112.541 0.828131 -7.75089 0
M  V30 1367 N 116.77 1.45427 -0.607355 0
M  V30 1368 C 118.181 1.85756 -0.187535 0
M  V30 1369 C 118.532 1.5077 1.25551 0
M  V30 1370 O 117.657 0.93427 1.95193 0
M  V30 1371 C 118.252 3.37154 -0.333572 0
M  V30 1372 C 116.811 3.76387 0.0315542 0
M  V30 1373 C 115.958 2.69377 -0.658117 0
M  V30 1374 H 118.909 1.36231 -0.81405 0
M  V30 1375 H 118.93 3.78014 0.43428 0
M  V30 1376 H 118.442 3.62586 -1.38393 0
M  V30 1377 H 116.543 3.56571 1.0811 0
M  V30 1378 H 116.656 4.77731 -0.361935 0
M  V30 1379 H 115.02 2.5452 -0.0957873 0
M  V30 1380 H 115.803 2.97646 -1.7106 0
M  V30 1381 N 118.248 0.346503 1.53744 0
M  V30 1382 C 119.178 -0.501193 2.28058 0
M  V30 1383 C 120.159 -1.10014 1.29734 0
M  V30 1384 O 121.344 -1.12097 1.58581 0
M  V30 1385 C 118.474 -1.65078 3.05559 0
M  V30 1386 C 117.428 -1.18003 4.11411 0
M  V30 1387 C 116.754 -2.41837 4.76884 0
M  V30 1388 C 118.054 -0.278394 5.21558 0
M  V30 1389 H 119.748 0.11875 2.99164 0
M  V30 1390 H 117.294 0.0585531 1.43881 0
M  V30 1391 H 119.247 -2.25028 3.56287 0
M  V30 1392 H 117.971 -2.29767 2.32109 0
M  V30 1393 H 116.63 -0.603331 3.61601 0
M  V30 1394 H 116.278 -3.0494 4.00026 0
M  V30 1395 H 115.978 -2.1102 5.48402 0
M  V30 1396 H 117.502 -3.02508 5.30397 0
M  V30 1397 H 118.916 -0.784823 5.67903 0
M  V30 1398 H 117.313 -0.0619707 6.00068 0
M  V30 1399 H 118.383 0.684677 4.80042 0
M  V30 1400 N 119.726 -1.57421 0.075193 0
M  V30 1401 C 121.003 -1.85029 -0.634329 0
M  V30 1402 C 121.383 -0.968305 -1.87582 0
M  V30 1403 O 120.731 -0.0354749 -2.28472 0
M  V30 1404 C 120.941 -3.35286 -0.968742 0
M  V30 1405 C 122.289 -4.02875 -1.34077 0
M  V30 1406 O 123.313 -3.40051 -1.06037 0
M  V30 1407 O 122.172 -5.13691 -1.86506 0
M  V30 1408 H 119.266 -0.7645 -0.315387 0
M  V30 1409 H 121.812 -1.69366 0.106382 0
M  V30 1410 H 120.584 -3.91203 -0.0871376 0
M  V30 1411 H 120.207 -3.56223 -1.7661 0
M  V30 1412 N 121.204 0.198386 -1.56346 0
M  V30 1413 C 122.134 1.24865 -1.9731 0
M  V30 1414 C 123.115 1.47651 -0.844576 0
M  V30 1415 O 124.3 1.59444 -1.10866 0
M  V30 1416 C 121.43 2.59358 -2.30977 0
M  V30 1417 C 120.384 2.5119 -3.46537 0
M  V30 1418 C 119.71 3.89926 -3.65871 0
M  V30 1419 C 121.01 2.03977 -4.80823 0
M  V30 1420 H 122.704 0.908252 -2.85291 0
M  V30 1421 H 120.25 0.435462 -1.37258 0
M  V30 1422 H 122.203 3.33011 -2.58228 0
M  V30 1423 H 120.927 2.95132 -1.39874 0
M  V30 1424 H 119.586 1.79993 -3.19371 0
M  V30 1425 H 119.234 4.23046 -2.72105 0
M  V30 1426 H 118.934 3.85336 -4.4361 0
M  V30 1427 H 120.458 4.65205 -3.95495 0
M  V30 1428 H 121.872 2.67386 -5.07127 0
M  V30 1429 H 120.269 2.10397 -5.62008 0
M  V30 1430 H 121.339 0.992861 -4.74626 0
M  V30 1431 N 122.682 1.50554 0.465978 0
M  V30 1432 C 124.098 1.38093 0.800154 0
M  V30 1433 C 124.298 0.440988 1.96615 0
M  V30 1434 O 123.354 -0.114499 2.5224 0
M  V30 1435 C 124.667 2.79565 1.10742 0
M  V30 1436 C 126.215 2.88516 1.21357 0
M  V30 1437 C 126.69 4.30833 1.55393 0
M  V30 1438 N 128.181 4.33807 1.62375 0
M  V30 1439 C 128.916 5.40927 1.90225 0
M  V30 1440 N 128.412 6.58247 2.16062 0
M  V30 1441 N 130.205 5.28376 1.9177 0
M  V30 1442 H 122.356 2.10237 -0.302366 0
M  V30 1443 H 124.619 0.945203 -0.0727746 0
M  V30 1444 H 124.325 3.50208 0.323661 0
M  V30 1445 H 124.199 3.17125 2.04234 0
M  V30 1446 H 126.586 2.1809 1.98799 0
M  V30 1447 H 126.667 2.54492 0.258321 0
M  V30 1448 H 126.311 5.01799 0.784889 0
M  V30 1449 H 126.241 4.62347 2.52076 0
M  V30 1450 H 128.732 3.49212 1.44427 0
M  V30 1451 H 129.045 7.3569 2.36601 0
M  V30 1452 H 127.39 6.61413 2.13444 0
M  V30 1453 H 130.581 4.35715 1.71085 0
M  V30 1454 H 130.754 6.11944 2.13139 0
M  V30 1455 N 124.16 -0.719506 1.40217 0
M  V30 1456 C 125.571 -1.29848 1.34151 0
M  V30 1457 C 125.922 -1.96196 0.0131349 0
M  V30 1458 O 125.047 -1.973 -0.88892 0
M  V30 1459 C 125.642 -2.36118 2.42968 0
M  V30 1460 C 124.201 -2.8965 2.40374 0
M  V30 1461 C 123.348 -1.63393 2.24049 0
M  V30 1462 H 126.299 -0.51591 1.5008 0
M  V30 1463 H 126.32 -3.16871 2.10649 0
M  V30 1464 H 125.832 -1.878 3.39636 0
M  V30 1465 H 123.933 -3.42208 1.47392 0
M  V30 1466 H 124.046 -3.4171 3.35814 0
M  V30 1467 H 122.41 -1.88312 1.71495 0
M  V30 1468 H 123.193 -1.17104 3.2271 0
M  V30 1469 N 125.638 -1.25649 -0.95132 0
M  V30 1470 C 126.585 -1.06323 -2.04851 0
M  V30 1471 C 127.555 0.0286491 -1.66075 0
M  V30 1472 O 128.74 -0.12917 -1.90362 0
M  V30 1473 C 125.88 -0.691529 -3.381 0
M  V30 1474 C 124.993 -1.85861 -3.89974 0
M  V30 1475 C 124.128 -1.43096 -5.11563 0
M  V30 1476 C 123.167 -2.56696 -5.55674 0
M  V30 1477 N 122.304 -2.14684 -6.68472 0
M  V30 1478 H 127.144 -2.00222 -2.20715 0
M  V30 1479 H 124.681 -0.997027 -1.08156 0
M  V30 1480 H 126.639 -0.456963 -4.1469 0
M  V30 1481 H 125.269 0.210474 -3.22113 0
M  V30 1482 H 124.321 -2.20639 -3.09875 0
M  V30 1483 H 125.633 -2.71161 -4.18657 0
M  V30 1484 H 124.787 -1.15624 -5.9558 0
M  V30 1485 H 123.526 -0.548722 -4.84603 0
M  V30 1486 H 122.531 -2.84909 -4.7022 0
M  V30 1487 H 123.756 -3.45503 -5.8464 0
M  V30 1488 H 121.702 -1.28881 -6.43215 0
M  V30 1489 H 121.619 -2.9353 -6.96689 0
M  V30 1490 H 122.887 -1.90397 -7.5589 0
M  V30 1491 N 127.117 1.15442 -1.07289 0
M  V30 1492 C 128.064 2.20161 -0.692653 0
M  V30 1493 C 129.034 1.63073 0.31564 0
M  V30 1494 O 130.219 1.89725 0.202235 0
M  V30 1495 C 127.359 3.44967 -0.0959509 0
M  V30 1496 C 126.472 4.16256 -1.15564 0
M  V30 1497 C 125.607 5.28609 -0.524011 0
M  V30 1498 C 124.646 5.91715 -1.56653 0
M  V30 1499 N 123.783 6.9554 -0.957531 0
M  V30 1500 H 128.623 2.52037 -1.59002 0
M  V30 1501 H 126.16 1.2378 -0.794798 0
M  V30 1502 H 128.118 4.16341 0.267628 0
M  V30 1503 H 126.748 3.1361 0.764772 0
M  V30 1504 H 125.8 3.43385 -1.6368 0
M  V30 1505 H 127.112 4.59268 -1.94613 0
M  V30 1506 H 126.266 6.06604 -0.108032 0
M  V30 1507 H 125.005 4.86787 0.29825 0
M  V30 1508 H 124.01 5.12433 -1.9923 0
M  V30 1509 H 125.235 6.35614 -2.39107 0
M  V30 1510 H 123.181 6.55814 -0.156162 0
M  V30 1511 H 123.098 7.36977 -1.68526 0
M  V30 1512 H 124.366 7.77435 -0.567032 0
M  V30 1513 N 128.595 0.856903 1.32268 0
M  V30 1514 C 129.823 0.475439 2.01363 0
M  V30 1515 C 130.238 -0.928486 1.64392 0
M  V30 1516 O 129.595 -1.60624 0.866387 0
M  V30 1517 C 129.646 0.607545 3.56358 0
M  V30 1518 O 129.367 1.95617 3.92002 0
M  V30 1519 C 130.868 0.225382 4.42727 0
M  V30 1520 H 128.088 0.186636 0.644521 0
M  V30 1521 H 130.632 1.15446 1.68797 0
M  V30 1522 H 128.787 -0.0237719 3.87393 0
M  V30 1523 H 129.201 1.95455 4.86721 0
M  V30 1524 H 130.675 0.368813 5.50767 0
M  V30 1525 H 131.152 -0.834369 4.31202 0
M  V30 1526 H 131.758 0.831864 4.17085 0
M  V30 1527 N 130.073 -1.45103 0.615059 0
M  V30 1528 C 131.489 -1.57137 0.279322 0
M  V30 1529 C 131.689 -1.60523 -1.21797 0
M  V30 1530 O 130.745 -1.53956 -2.00134 0
M  V30 1531 C 132.058 -2.85062 0.957083 0
M  V30 1532 C 133.606 -2.98749 0.933706 0
M  V30 1533 C 134.081 -4.29455 1.59162 0
M  V30 1534 N 135.572 -4.36231 1.55746 0
M  V30 1535 C 136.307 -5.36051 2.0356 0
M  V30 1536 N 135.803 -6.42367 2.59494 0
M  V30 1537 N 137.596 -5.27456 1.94284 0
M  V30 1538 H 129.747 -1.41148 1.58717 0
M  V30 1539 H 132.01 -0.675331 0.665306 0
M  V30 1540 H 131.716 -2.88488 2.01166 0
M  V30 1541 H 131.59 -3.7407 0.48494 0
M  V30 1542 H 133.977 -2.94886 -0.112347 0
M  V30 1543 H 134.058 -2.11132 1.44419 0
M  V30 1544 H 133.702 -4.34077 2.63704 0
M  V30 1545 H 133.632 -5.15901 1.0561 0
M  V30 1546 H 136.123 -3.60011 1.14893 0
M  V30 1547 H 136.436 -7.14793 2.93752 0
M  V30 1548 H 134.781 -6.43097 2.63537 0
M  V30 1549 H 137.972 -4.43308 1.5032 0
M  V30 1550 H 138.145 -6.05099 2.3186 0
M  V30 1551 N 131.551 -0.354651 -1.53558 0
M  V30 1552 C 132.514 0.484566 -2.24019 0
M  V30 1553 C 133.514 1.01861 -1.24422 0
M  V30 1554 O 134.704 0.906097 -1.4878 0
M  V30 1555 C 131.836 1.67615 -2.96847 0
M  V30 1556 H 133.029 -0.131843 -2.9961 0
M  V30 1557 H 130.582 -0.106165 -1.55939 0
M  V30 1558 H 131.317 2.33095 -2.25471 0
M  V30 1559 H 131.102 1.30029 -3.69912 0
M  V30 1560 H 132.592 2.27114 -3.50441 0
M  V30 1561 N 133.029 1.57378 -0.0835403 0
M  V30 1562 C 133.962 2.09016 0.915833 0
M  V30 1563 C 134.94 0.997993 1.2837 0
M  V30 1564 O 136.124 1.27219 1.39096 0
M  V30 1565 C 133.251 2.55757 2.22049 0
M  V30 1566 C 132.297 3.76522 2.00333 0
M  V30 1567 S 133.13 5.20661 1.25191 0
M  V30 1568 C 134.286 5.70743 2.56912 0
M  V30 1569 H 134.519 2.93457 0.476492 0
M  V30 1570 H 132.052 1.53856 0.129493 0
M  V30 1571 H 134.01 2.83346 2.97027 0
M  V30 1572 H 132.671 1.71564 2.63106 0
M  V30 1573 H 131.864 4.07256 2.96916 0
M  V30 1574 H 131.466 3.49367 1.33488 0
M  V30 1575 H 133.758 5.78304 3.52946 0
M  V30 1576 H 134.701 6.6944 2.30772 0
M  V30 1577 H 135.109 4.98616 2.64655 0
M  V30 1578 N 134.507 -0.190092 1.56449 0
M  V30 1579 C 135.923 -0.54113 1.50146 0
M  V30 1580 C 136.123 -1.85603 0.784465 0
M  V30 1581 O 135.179 -2.5024 0.337051 0
M  V30 1582 C 136.492 -0.591241 2.9483 0
M  V30 1583 C 138.04 -0.679732 3.0553 0
M  V30 1584 C 138.515 -0.760908 4.51635 0
M  V30 1585 N 140.006 -0.824302 4.55806 0
M  V30 1586 C 140.741 -0.907365 5.66175 0
M  V30 1587 N 140.237 -0.952422 6.86222 0
M  V30 1588 N 142.03 -0.94494 5.541 0
M  V30 1589 H 134.181 0.67235 2.01478 0
M  V30 1590 H 136.444 0.240127 0.917084 0
M  V30 1591 H 136.15 0.305905 3.50367 0
M  V30 1592 H 136.024 -1.44422 3.48457 0
M  V30 1593 H 138.411 -1.56731 2.50039 0
M  V30 1594 H 138.492 0.199549 2.5502 0
M  V30 1595 H 138.136 0.122336 5.07753 0
M  V30 1596 H 138.066 -1.65606 4.99882 0
M  V30 1597 H 140.557 -0.798526 3.69367 0
M  V30 1598 H 140.87 -1.01645 7.66086 0
M  V30 1599 H 139.215 -0.921014 6.8887 0
M  V30 1600 H 142.406 -0.906612 4.59236 0
M  V30 1601 H 142.579 -1.00622 6.4014 0
M  V30 1602 N 135.985 -1.50799 -0.457987 0
M  V30 1603 C 137.401 -1.38515 -0.792819 0
M  V30 1604 C 137.601 -0.451409 -1.96379 0
M  V30 1605 O 136.657 0.10112 -2.52297 0
M  V30 1606 C 137.97 -2.80149 -1.09258 0
M  V30 1607 C 139.518 -2.89156 -1.19825 0
M  V30 1608 C 139.993 -4.31651 -1.53106 0
M  V30 1609 N 141.484 -4.34662 -1.60072 0
M  V30 1610 C 142.219 -5.41928 -1.87354 0
M  V30 1611 N 141.715 -6.59384 -2.12568 0
M  V30 1612 N 143.508 -5.29385 -1.88965 0
M  V30 1613 H 135.659 -2.10073 0.313511 0
M  V30 1614 H 137.922 -0.944803 0.0777862 0
M  V30 1615 H 137.628 -3.50374 -0.305084 0
M  V30 1616 H 137.502 -3.18204 -2.02549 0
M  V30 1617 H 139.889 -2.19141 -1.97639 0
M  V30 1618 H 139.97 -2.54626 -0.244821 0
M  V30 1619 H 139.614 -5.02208 -0.758266 0
M  V30 1620 H 139.544 -4.63678 -2.49621 0
M  V30 1621 H 142.035 -3.49973 -1.42573 0
M  V30 1622 H 142.348 -7.36934 -2.32696 0
M  V30 1623 H 140.693 -6.62535 -2.09933 0
M  V30 1624 H 143.884 -4.36616 -1.68772 0
M  V30 1625 H 144.057 -6.13066 -2.09891 0
M  V30 1626 N 137.463 0.71206 -1.40597 0
M  V30 1627 C 138.879 1.02058 -1.22704 0
M  V30 1628 C 139.079 2.01228 -0.104729 0
M  V30 1629 O 138.135 2.4674 0.53624 0
M  V30 1630 C 139.448 1.56094 -2.57012 0
M  V30 1631 C 140.996 1.6806 -2.64054 0
M  V30 1632 C 141.471 2.25501 -3.9864 0
M  V30 1633 N 142.962 2.32882 -4.004 0
M  V30 1634 C 143.697 2.78317 -5.01325 0
M  V30 1635 N 143.193 3.23478 -6.12645 0
M  V30 1636 N 144.986 2.77733 -4.88693 0
M  V30 1637 H 137.137 0.0547896 -2.12329 0
M  V30 1638 H 139.4 0.0869027 -0.944008 0
M  V30 1639 H 139.106 0.906865 -3.39807 0
M  V30 1640 H 138.98 2.54564 -2.78347 0
M  V30 1641 H 141.367 2.32583 -1.81629 0
M  V30 1642 H 141.448 0.681802 -2.46546 0
M  V30 1643 H 141.092 1.61598 -4.81506 0
M  V30 1644 H 141.022 3.26102 -4.13479 0
M  V30 1645 H 143.513 2.00991 -3.20017 0
M  V30 1646 H 143.826 3.56725 -6.85542 0
M  V30 1647 H 142.171 3.21429 -6.16205 0
M  V30 1648 H 145.362 2.4179 -4.00818 0
M  V30 1649 H 145.535 3.12826 -5.67489 0
M  V30 1650 N 138.941 1.26152 0.944643 0
M  V30 1651 C 139.871 1.09902 2.06019 0
M  V30 1652 C 140.852 0.00519538 1.70099 0
M  V30 1653 O 142.037 0.176583 1.93396 0
M  V30 1654 C 139.167 0.727562 3.39594 0
M  V30 1655 C 138.121 1.77274 3.89561 0
M  V30 1656 C 137.447 1.25569 5.19747 0
M  V30 1657 C 138.747 3.17357 4.14827 0
M  V30 1658 H 140.441 2.03217 2.19871 0
M  V30 1659 H 137.987 0.978452 1.05652 0
M  V30 1660 H 139.94 0.600777 4.17095 0
M  V30 1661 H 138.664 -0.241287 3.25707 0
M  V30 1662 H 137.323 1.88814 3.14237 0
M  V30 1663 H 136.971 0.276783 5.02238 0
M  V30 1664 H 136.671 1.95433 5.54148 0
M  V30 1665 H 138.195 1.1415 5.99835 0
M  V30 1666 H 139.609 3.08914 4.82954 0
M  V30 1667 H 138.006 3.84781 4.60504 0
M  V30 1668 H 139.076 3.63673 3.20734 0
M  V30 1669 N 140.419 -1.14872 1.07899 0
M  V30 1670 C 141.367 -2.21857 0.698727 0
M  V30 1671 C 142.361 -1.66845 -0.293086 0
M  V30 1672 O 143.567 -1.79321 -0.156204 0
M  V30 1673 H 139.942 -0.722691 0.207899 0
M  V30 1674 H 141.913 -2.51205 1.61054 0
M  V30 1675 C 140.662 -3.47498 0.11858 0
M  V30 1676 H 139.985 -3.90154 0.872914 0
M  V30 1677 H 141.425 -4.23858 -0.109759 0
M  V30 1678 C 139.884 -3.16947 -1.1422 0
M  V30 1679 O 140.414 -3.3426 -2.22785 0
M  V30 1680 N 138.62 -2.70946 -1.05055 0
M  V30 1681 H 138.167 -2.57058 -0.167038 0
M  V30 1682 H 138.125 -2.50879 -1.89491 0
M  V30 1683 N 141.898 -0.863906 -1.31812 0
M  V30 1684 C 142.845 -0.313303 -2.28664 0
M  V30 1685 C 143.815 0.584868 -1.55462 0
M  V30 1686 O 145 0.517805 -1.83639 0
M  V30 1687 C 142.14 0.48441 -3.41683 0
M  V30 1688 C 141.253 -0.440594 -4.29747 0
M  V30 1689 C 140.388 0.370652 -5.29905 0
M  V30 1690 C 139.427 -0.551164 -6.09613 0
M  V30 1691 N 138.564 0.223462 -7.01744 0
M  V30 1692 H 143.404 -1.14444 -2.75148 0
M  V30 1693 H 140.941 -0.575769 -1.35364 0
M  V30 1694 H 142.899 0.962627 -4.05943 0
M  V30 1695 H 141.529 1.28029 -2.96325 0
M  V30 1696 H 140.581 -1.03724 -3.65986 0
M  V30 1697 H 141.893 -1.14767 -4.85417 0
M  V30 1698 H 141.047 0.911638 -5.99812 0
M  V30 1699 H 139.786 1.11105 -4.74876 0
M  V30 1700 H 138.791 -1.10396 -5.38603 0
M  V30 1701 H 140.016 -1.29032 -6.66729 0
M  V30 1702 H 137.962 0.946787 -6.49132 0
M  V30 1703 H 137.879 -0.424399 -7.54808 0
M  V30 1704 H 139.147 0.745876 -7.75923 0
M  V30 1705 N 143.376 1.44774 -0.622745 0
M  V30 1706 C 144.326 2.2774 0.108889 0
M  V30 1707 C 145.31 1.38189 0.824175 0
M  V30 1708 O 146.502 1.62063 0.711664 0
M  V30 1709 C 143.631 3.25353 1.09546 0
M  V30 1710 C 142.717 4.22392 0.380232 0
M  V30 1711 N 143.108 5.02388 -0.586535 0
M  V30 1712 C 141.406 4.41588 0.625792 0
M  V30 1713 C 142.107 5.72894 -1.00834 0
M  V30 1714 N 141.083 5.42479 -0.348878 0
M  V30 1715 H 144.885 2.86993 -0.63341 0
M  V30 1716 H 142.399 1.5611 -0.447589 0
M  V30 1717 H 144.396 3.83538 1.63414 0
M  V30 1718 H 143.056 2.6766 1.83815 0
M  V30 1719 H 144.067 5.0885 -0.963975 0
M  V30 1720 H 140.744 3.95003 1.352 0
M  V30 1721 H 142.134 6.47158 -1.80656 0
M  V30 1722 N 144.854 0.36279 1.53368 0
M  V30 1723 C 145.764 -0.492994 2.29362 0
M  V30 1724 C 146.78 -1.09507 1.35219 0
M  V30 1725 O 147.956 -1.10662 1.68273 0
M  V30 1726 C 145.021 -1.61855 3.066 0
M  V30 1727 C 144.082 -1.04429 4.16405 0
M  V30 1728 C 143.315 -2.11621 4.89951 0
M  V30 1729 O 143.538 -3.32684 4.63333 0
M  V30 1730 O 142.472 -1.74835 5.75948 0
M  V30 1731 H 146.298 0.125331 3.03441 0
M  V30 1732 H 143.883 0.127253 1.48857 0
M  V30 1733 H 145.765 -2.27302 3.54841 0
M  V30 1734 H 144.44 -2.22233 2.3536 0
M  V30 1735 H 143.347 -0.353819 3.72423 0
M  V30 1736 H 144.68 -0.485113 4.89804 0
M  V30 1737 N 146.332 -1.57332 0.0918853 0
M  V30 1738 C 147.242 -2.17368 -0.882505 0
M  V30 1739 C 148.258 -1.14226 -1.31257 0
M  V30 1740 O 149.434 -1.46582 -1.38115 0
M  V30 1741 C 146.499 -2.73962 -2.12476 0
M  V30 1742 C 145.56 -3.92048 -1.7492 0
M  V30 1743 C 144.793 -4.45933 -2.93223 0
M  V30 1744 O 145.016 -3.98764 -4.07852 0
M  V30 1745 O 143.95 -5.36999 -2.71875 0
M  V30 1746 H 147.776 -3.01031 -0.40172 0
M  V30 1747 H 145.361 -1.48813 -0.132291 0
M  V30 1748 H 147.243 -3.10147 -2.85283 0
M  V30 1749 H 145.918 -1.93347 -2.59613 0
M  V30 1750 H 144.825 -3.6068 -0.993025 0
M  V30 1751 H 146.158 -4.74017 -1.32548 0
M  V30 1752 N 147.81 0.181792 -1.56548 0
M  V30 1753 C 148.758 1.24461 -1.965 0
M  V30 1754 C 149.752 1.464 -0.852261 0
M  V30 1755 O 150.958 1.47103 -1.03733 0
M  V30 1756 H 147.333 0.418138 -0.625031 0
M  V30 1757 H 149.304 0.880714 -2.85107 0
M  V30 1758 C 148.053 2.57891 -2.33212 0
M  V30 1759 H 147.376 2.41829 -3.18369 0
M  V30 1760 H 148.816 3.3097 -2.65019 0
M  V30 1761 C 147.275 3.15871 -1.17163 0
M  V30 1762 O 147.805 3.9913 -0.453708 0
M  V30 1763 N 146.011 2.74808 -0.944936 0
M  V30 1764 H 145.558 2.07205 -1.53049 0
M  V30 1765 H 145.516 3.13939 -0.170286 0
M  V30 1766 N 149.288 1.51039 0.449983 0
M  V30 1767 C 150.218 1.74379 1.55288 0
M  V30 1768 C 151.199 0.593236 1.5942 0
M  V30 1769 O 152.384 0.834625 1.7535 0
M  V30 1770 C 149.514 1.85728 2.93466 0
M  V30 1771 C 148.468 3.01078 3.04197 0
M  V30 1772 C 147.794 2.97595 4.44231 0
M  V30 1773 C 149.094 4.41254 2.7945 0
M  V30 1774 H 150.788 2.66725 1.36008 0
M  V30 1775 H 148.334 1.2835 0.652864 0
M  V30 1776 H 150.287 2.0064 3.70569 0
M  V30 1777 H 149.011 0.900207 3.13949 0
M  V30 1778 H 147.67 2.85851 2.29531 0
M  V30 1779 H 147.318 1.99691 4.61663 0
M  V30 1780 H 147.018 3.75046 4.52343 0
M  V30 1781 H 148.542 3.14583 5.23326 0
M  V30 1782 H 149.956 4.56897 3.46292 0
M  V30 1783 H 148.353 5.20315 2.98985 0
M  V30 1784 H 149.423 4.52164 1.75144 0
M  V30 1785 N 150.766 -0.704594 1.40972 0
M  V30 1786 C 151.713 -1.81862 1.42109 0
M  V30 1787 C 152.683 -1.63781 0.276593 0
M  V30 1788 O 153.868 -1.84759 0.4763 0
M  V30 1789 C 151.008 -3.19669 1.30022 0
M  V30 1790 C 150.121 -3.49246 2.54267 0
M  V30 1791 C 149.256 -4.76618 2.3454 0
M  V30 1792 C 148.295 -4.99133 3.54306 0
M  V30 1793 N 147.432 -6.17726 3.33706 0
M  V30 1794 H 152.272 -1.80226 2.37324 0
M  V30 1795 H 149.809 -0.880238 1.17857 0
M  V30 1796 H 151.767 -3.99263 1.21018 0
M  V30 1797 H 150.397 -3.20506 0.384192 0
M  V30 1798 H 149.449 -2.64125 2.73756 0
M  V30 1799 H 150.761 -3.61788 3.43381 0
M  V30 1800 H 149.915 -5.64249 2.22952 0
M  V30 1801 H 148.654 -4.66305 1.42867 0
M  V30 1802 H 147.659 -4.09953 3.66359 0
M  V30 1803 H 148.884 -5.11311 4.4692 0
M  V30 1804 H 146.83 -6.08642 2.44725 0
M  V30 1805 H 146.747 -6.30995 4.16391 0
M  V30 1806 H 148.015 -7.08115 3.25873 0
M  V30 1807 N 152.244 -1.26651 -0.937939 0
M  V30 1808 C 153.472 -1.15173 -1.7188 0
M  V30 1809 C 153.887 0.292668 -1.86518 0
M  V30 1810 O 153.244 1.20014 -1.37488 0
M  V30 1811 C 153.295 -1.81925 -3.12387 0
M  V30 1812 O 153.016 -3.2072 -2.98446 0
M  V30 1813 C 154.517 -1.76442 -4.06673 0
M  V30 1814 H 151.737 -0.400911 -0.538063 0
M  V30 1815 H 154.281 -1.67332 -1.1756 0
M  V30 1816 H 152.436 -1.33696 -3.63599 0
M  V30 1817 H 152.85 -3.53802 -3.872 0
M  V30 1818 H 154.324 -2.27781 -5.02812 0
M  V30 1819 H 154.801 -0.731608 -4.33064 0
M  V30 1820 H 155.407 -2.24238 -3.61382 0
M  V30 1821 N 153.722 1.14298 -1.08507 0
M  V30 1822 C 154.669 2.19414 -0.715965 0
M  V30 1823 C 155.639 1.63399 0.298326 0
M  V30 1824 O 156.824 1.89929 0.182101 0
M  V30 1825 C 153.964 3.44845 -0.132534 0
M  V30 1826 C 153.077 4.15007 -1.19973 0
M  V30 1827 C 152.212 5.28024 -0.580048 0
M  V30 1828 C 151.251 5.9002 -1.62921 0
M  V30 1829 N 150.388 6.94485 -1.03125 0
M  V30 1830 H 155.228 2.50336 -1.61666 0
M  V30 1831 H 152.765 1.2293 -0.807882 0
M  V30 1832 H 154.723 4.16601 0.223454 0
M  V30 1833 H 153.353 3.14403 0.731467 0
M  V30 1834 H 152.405 3.41629 -1.67313 0
M  V30 1835 H 153.717 4.57178 -1.99473 0
M  V30 1836 H 152.871 6.06455 -0.172364 0
M  V30 1837 H 151.61 4.87076 0.246603 0
M  V30 1838 H 150.615 5.10291 -2.04654 0
M  V30 1839 H 151.84 6.33042 -2.45835 0
M  V30 1840 H 149.786 6.55612 -0.225711 0
M  V30 1841 H 149.703 7.35148 -1.76334 0
M  V30 1842 H 150.971 7.7679 -0.649458 0
M  V30 1843 N 155.201 0.870884 1.31352 0
M  V30 1844 C 156.148 0.325425 2.28494 0
M  V30 1845 C 157.118 -0.576615 1.5577 0
M  V30 1846 O 158.303 -0.508059 1.83911 0
M  V30 1847 C 155.443 -0.466283 3.41935 0
M  V30 1848 C 154.556 0.463378 4.29508 0
M  V30 1849 C 153.691 -0.342544 5.30094 0
M  V30 1850 C 152.73 0.583486 6.09313 0
M  V30 1851 N 151.867 -0.186244 7.01853 0
M  V30 1852 H 156.707 1.15901 2.74538 0
M  V30 1853 H 154.244 0.58294 1.35056 0
M  V30 1854 H 156.202 -0.941085 4.06447 0
M  V30 1855 H 154.832 -1.26456 2.97 0
M  V30 1856 H 153.884 1.05663 3.65431 0
M  V30 1857 H 155.196 1.1734 4.84802 0
M  V30 1858 H 154.35 -0.879816 6.00287 0
M  V30 1859 H 153.089 -1.08585 4.75458 0
M  V30 1860 H 152.094 1.13251 5.3801 0
M  V30 1861 H 153.319 1.32566 6.66035 0
M  V30 1862 H 151.265 -0.912348 6.49625 0
M  V30 1863 H 151.182 0.464422 7.54572 0
M  V30 1864 H 152.45 -0.704716 7.76308 0
M  V30 1865 N 156.679 -1.44442 0.630414 0
M  V30 1866 C 157.611 -2.2892 -0.113347 0
M  V30 1867 C 158.624 -1.41243 -0.80959 0
M  V30 1868 O 159.813 -1.65402 -0.671156 0
M  V30 1869 C 156.913 -3.17594 -1.18266 0
M  V30 1870 C 156.086 -4.33682 -0.569073 0
M  V30 1871 C 155.145 -5.03397 -1.53226 0
M  V30 1872 O 154.171 -5.59438 -1.04967 0
M  V30 1873 N 155.373 -5.04783 -2.86661 0
M  V30 1874 H 158.138 -2.93392 0.611636 0
M  V30 1875 H 155.699 -1.54881 0.471523 0
M  V30 1876 H 157.691 -3.61097 -1.82732 0
M  V30 1877 H 156.261 -2.54876 -1.80988 0
M  V30 1878 H 155.481 -3.9338 0.254187 0
M  V30 1879 H 156.769 -5.08608 -0.139767 0
M  V30 1880 H 156.167 -4.60584 -3.28449 0
M  V30 1881 H 154.724 -5.52077 -3.46489 0
M  V30 1882 N 158.157 -0.370918 -1.53173 0
M  V30 1883 C 159.089 0.507823 -2.23503 0
M  V30 1884 C 160.102 1.04182 -1.251 0
M  V30 1885 O 161.291 0.947286 -1.5129 0
M  V30 1886 C 158.391 1.71447 -2.92334 0
M  V30 1887 C 157.564 1.31105 -4.17289 0
M  V30 1888 C 156.623 2.38035 -4.69282 0
M  V30 1889 O 155.649 2.00204 -5.32829 0
M  V30 1890 N 156.851 3.69697 -4.47554 0
M  V30 1891 H 159.616 -0.0946382 -2.99551 0
M  V30 1892 H 157.177 -0.196358 -1.60705 0
M  V30 1893 H 159.169 2.42469 -3.24023 0
M  V30 1894 H 157.739 2.22368 -2.19707 0
M  V30 1895 H 156.959 0.430462 -3.91843 0
M  V30 1896 H 158.247 1.0179 -4.98514 0
M  V30 1897 H 157.645 4.03205 -3.9679 0
M  V30 1898 H 156.202 4.36807 -4.8378 0
M  V30 1899 N 159.635 1.57281 -0.100228 0
M  V30 1900 C 161.051 1.57527 0.256416 0
M  V30 1901 C 161.251 1.11173 1.68056 0
M  V30 1902 O 160.307 0.79053 2.39806 0
M  V30 1903 C 161.62 3.00673 0.0401747 0
M  V30 1904 C 163.168 3.12815 0.107528 0
M  V30 1905 C 163.643 4.57929 -0.0807834 0
M  V30 1906 N 165.134 4.63193 -0.0261207 0
M  V30 1907 C 165.869 5.73212 -0.146999 0
M  V30 1908 N 165.365 6.92047 -0.322999 0
M  V30 1909 N 167.158 5.62031 -0.0879044 0
M  V30 1910 H 159.309 1.85718 -1.03065 0
M  V30 1911 H 161.572 0.857446 -0.404339 0
M  V30 1912 H 161.278 3.38804 -0.943649 0
M  V30 1913 H 161.152 3.69042 0.780262 0
M  V30 1914 H 163.539 2.74554 1.08186 0
M  V30 1915 H 163.62 2.47028 -0.664134 0
M  V30 1916 H 163.264 4.96886 -1.05201 0
M  V30 1917 H 163.194 5.21783 0.710635 0
M  V30 1918 H 165.685 3.77748 0.107161 0
M  V30 1919 H 165.998 7.7173 -0.406608 0
M  V30 1920 H 164.343 6.94074 -0.358733 0
M  V30 1921 H 167.534 4.68075 0.048498 0
M  V30 1922 H 167.707 6.47734 -0.185557 0
M  V30 1923 N 161.113 -0.173488 1.56642 0
M  V30 1924 C 162.06 -1.21482 1.96242 0
M  V30 1925 C 163.03 -1.44104 0.826027 0
M  V30 1926 O 164.215 -1.5688 1.08597 0
M  V30 1927 C 161.355 -2.54964 2.32567 0
M  V30 1928 C 160.468 -2.39739 3.59373 0
M  V30 1929 C 159.603 -3.66072 3.84921 0
M  V30 1930 C 158.642 -3.45771 5.05083 0
M  V30 1931 N 157.779 -4.64169 5.26775 0
M  V30 1932 H 162.619 -0.870123 2.85014 0
M  V30 1933 H 160.156 -0.418245 1.41029 0
M  V30 1934 H 162.114 -3.32758 2.5165 0
M  V30 1935 H 160.744 -2.87433 1.46908 0
M  V30 1936 H 159.796 -1.53131 3.48217 0
M  V30 1937 H 161.108 -2.20683 4.47326 0
M  V30 1938 H 160.262 -4.52303 4.0436 0
M  V30 1939 H 159.001 -3.88105 2.9534 0
M  V30 1940 H 158.006 -2.57927 4.85545 0
M  V30 1941 H 159.231 -3.25163 5.96193 0
M  V30 1942 H 157.177 -4.86425 4.40144 0
M  V30 1943 H 157.094 -4.48019 6.08946 0
M  V30 1944 H 158.362 -5.51689 5.5069 0
M  V30 1945 N 162.591 -1.51276 -0.441967 0
M  V30 1946 C 163.501 -1.75092 -1.56141 0
M  V30 1947 C 164.517 -0.634963 -1.62001 0
M  V30 1948 O 165.693 -0.916686 -1.79329 0
M  V30 1949 C 162.758 -1.86666 -2.92158 0
M  V30 1950 C 161.819 -3.10506 -2.96453 0
M  V30 1951 C 161.052 -3.21519 -4.25982 0
M  V30 1952 O 161.275 -2.38586 -5.18105 0
M  V30 1953 O 160.209 -4.14465 -4.36466 0
M  V30 1954 H 164.035 -2.70044 -1.38961 0
M  V30 1955 H 161.62 -1.35722 -0.624499 0
M  V30 1956 H 163.502 -1.96292 -3.72891 0
M  V30 1957 H 162.177 -0.949014 -3.09476 0
M  V30 1958 H 161.084 -3.06363 -2.14692 0
M  V30 1959 H 162.417 -4.01945 -2.84079 0
M  V30 1960 N 164.069 0.697108 -1.41344 0
M  V30 1961 C 165.485 1.00751 -1.2378 0
M  V30 1962 C 165.685 2.01105 -0.126066 0
M  V30 1963 O 164.741 2.47295 0.51004 0
M  V30 1964 C 166.054 1.53359 -2.58653 0
M  V30 1965 C 167.602 1.6525 -2.65822 0
M  V30 1966 C 168.077 2.2126 -4.01009 0
M  V30 1967 N 169.568 2.28622 -4.02847 0
M  V30 1968 C 170.303 2.72984 -5.04249 0
M  V30 1969 N 169.799 3.16962 -6.16041 0
M  V30 1970 N 171.592 2.72534 -4.91611 0
M  V30 1971 H 163.743 0.0322662 -2.12375 0
M  V30 1972 H 166.006 0.0768853 -0.944877 0
M  V30 1973 H 165.712 0.870773 -3.4075 0
M  V30 1974 H 165.586 2.51597 -2.81032 0
M  V30 1975 H 167.973 2.30644 -1.84086 0
M  V30 1976 H 168.054 0.655614 -2.47256 0
M  V30 1977 H 167.698 1.56482 -4.83193 0
M  V30 1978 H 167.628 3.21698 -4.16915 0
M  V30 1979 H 170.119 1.97585 -3.22131 0
M  V30 1980 H 170.432 3.49434 -6.89287 0
M  V30 1981 H 168.777 3.14875 -6.1958 0
M  V30 1982 H 171.968 2.37525 -4.0336 0
M  V30 1983 H 172.141 3.06789 -5.70775 0
M  V30 1984 N 165.547 1.27147 0.931209 0
M  V30 1985 C 166.477 1.12081 2.04842 0
M  V30 1986 C 167.458 0.0232364 1.70084 0
M  V30 1987 O 168.643 0.197085 1.93197 0
M  V30 1988 C 165.773 0.76354 3.38803 0
M  V30 1989 C 164.727 1.81396 3.87659 0
M  V30 1990 C 164.053 1.31075 5.18385 0
M  V30 1991 C 165.353 3.21739 4.11438 0
M  V30 1992 H 167.047 2.05537 2.17703 0
M  V30 1993 H 164.593 0.989603 1.04608 0
M  V30 1994 H 166.546 0.644982 4.16435 0
M  V30 1995 H 165.27 -0.206727 3.25945 0
M  V30 1996 H 163.929 1.92136 3.12217 0
M  V30 1997 H 163.577 0.330037 5.01916 0
M  V30 1998 H 163.277 2.013 5.52044 0
M  V30 1999 H 164.801 1.20506 5.98591 0
M  V30 2000 H 166.215 3.14019 4.79651 0
M  V30 2001 H 164.612 3.89644 4.56397 0
M  V30 2002 H 165.682 3.67054 3.16859 0
M  V30 2003 N 167.025 -1.13721 1.09112 0
M  V30 2004 C 168.255 -1.88499 0.845671 0
M  V30 2005 C 168.663 -1.79218 -0.606432 0
M  V30 2006 O 168.006 -1.1544 -1.42896 0
M  V30 2007 C 168.068 -3.38954 1.19793 0
M  V30 2008 C 167.732 -3.72018 2.65428 0
M  V30 2009 C 168.729 -3.7153 3.63677 0
M  V30 2010 C 166.414 -4.01775 3.01467 0
M  V30 2011 C 168.408 -4.00336 4.95994 0
M  V30 2012 C 166.095 -4.30243 4.33975 0
M  V30 2013 C 167.093 -4.29508 5.31048 0
M  V30 2014 O 166.781 -4.5728 6.61173 0
M  V30 2015 H 166.513 -0.603702 0.304171 0
M  V30 2016 H 169.067 -1.44903 1.45576 0
M  V30 2017 H 167.297 -3.83039 0.530871 0
M  V30 2018 H 168.986 -3.95052 0.932146 0
M  V30 2019 H 169.752 -3.4862 3.37179 0
M  V30 2020 H 165.631 -4.01496 2.26544 0
M  V30 2021 H 169.175 -3.99678 5.71755 0
M  V30 2022 H 165.072 -4.52625 4.60219 0
M  V30 2023 H 165.84 -4.74964 6.66597 0
M  V30 2024 N 168.503 -0.877838 -1.30888 0
M  V30 2025 C 169.914 -0.544193 -1.78593 0
M  V30 2026 C 170.265 0.939301 -1.72254 0
M  V30 2027 O 169.39 1.7337 -1.29505 0
M  V30 2028 C 169.985 -0.98105 -3.24285 0
M  V30 2029 C 168.544 -0.698935 -3.69854 0
M  V30 2030 C 167.691 -1.168 -2.51502 0
M  V30 2031 H 170.642 -1.06278 -1.17859 0
M  V30 2032 H 170.663 -0.307009 -3.79259 0
M  V30 2033 H 170.175 -2.06079 -3.28866 0
M  V30 2034 H 168.276 0.369112 -3.70767 0
M  V30 2035 H 168.389 -1.28148 -4.61644 0
M  V30 2036 H 166.753 -0.587535 -2.47831 0
M  V30 2037 H 167.536 -2.25533 -2.58824 0
M  V30 2038 N 169.982 1.44106 -0.638065 0
M  V30 2039 C 170.912 2.33448 0.0494287 0
M  V30 2040 C 171.893 1.48606 0.827672 0
M  V30 2041 O 173.078 1.77308 0.792173 0
M  V30 2042 C 170.208 3.31771 1.02691 0
M  V30 2043 C 169.162 4.26485 0.359823 0
M  V30 2044 C 168.488 5.14729 1.44769 0
M  V30 2045 C 169.788 5.17056 -0.738296 0
M  V30 2046 H 171.482 2.91183 -0.696636 0
M  V30 2047 H 169.028 1.40014 -0.336456 0
M  V30 2048 H 170.981 3.93161 1.51666 0
M  V30 2049 H 169.705 2.7226 1.80395 0
M  V30 2050 H 168.364 3.66437 -0.10934 0
M  V30 2051 H 168.012 4.51566 2.21578 0
M  V30 2052 H 167.712 5.78913 1.00668 0
M  V30 2053 H 169.236 5.78991 1.93911 0
M  V30 2054 H 170.65 5.72342 -0.331354 0
M  V30 2055 H 169.047 5.89879 -1.10286 0
M  V30 2056 H 170.117 4.57652 -1.60258 0
M  V30 2057 N 171.46 0.379036 1.52974 0
M  V30 2058 C 172.876 0.0285448 1.59574 0
M  V30 2059 C 173.076 -1.45542 1.39355 0
M  V30 2060 O 172.132 -2.2187 1.20541 0
M  V30 2061 C 173.445 0.496535 2.96572 0
M  V30 2062 C 174.993 0.451909 3.0972 0
M  V30 2063 C 175.468 0.895924 4.49152 0
M  V30 2064 N 176.959 0.851522 4.55306 0
M  V30 2065 C 177.694 1.16661 5.61407 0
M  V30 2066 N 177.19 1.55166 6.752 0
M  V30 2067 N 178.983 1.08853 5.51459 0
M  V30 2068 H 171.134 1.34525 1.64367 0
M  V30 2069 H 173.397 0.550733 0.771619 0
M  V30 2070 H 173.103 1.53258 3.16552 0
M  V30 2071 H 172.977 -0.109802 3.7704 0
M  V30 2072 H 175.364 -0.575029 2.89443 0
M  V30 2073 H 175.445 1.09392 2.3123 0
M  V30 2074 H 175.089 1.92104 4.70168 0
M  V30 2075 H 175.019 0.23103 5.26093 0
M  V30 2076 H 177.51 0.568038 3.73606 0
M  V30 2077 H 177.823 1.776 7.52116 0
M  V30 2078 H 176.168 1.59044 6.76557 0
M  V30 2079 H 179.359 0.786803 4.6144 0
M  V30 2080 H 179.532 1.33742 6.34048 0
M  V30 2081 N 172.938 -1.57226 0.108567 0
M  V30 2082 C 173.885 -2.14756 -0.845481 0
M  V30 2083 C 174.855 -1.06971 -1.27068 0
M  V30 2084 O 176.04 -1.34827 -1.35005 0
M  V30 2085 C 173.18 -2.74298 -2.09415 0
M  V30 2086 C 172.293 -3.96358 -1.71826 0
M  V30 2087 C 171.428 -4.44021 -2.9158 0
M  V30 2088 C 170.467 -5.58637 -2.50181 0
M  V30 2089 N 169.604 -6.01091 -3.62814 0
M  V30 2090 H 174.444 -2.95961 -0.348035 0
M  V30 2091 H 171.981 -1.46226 -0.160106 0
M  V30 2092 H 173.939 -3.06945 -2.82561 0
M  V30 2093 H 172.569 -1.95801 -2.56636 0
M  V30 2094 H 171.621 -3.69939 -0.885947 0
M  V30 2095 H 172.933 -4.79504 -1.37394 0
M  V30 2096 H 172.087 -4.78522 -3.72963 0
M  V30 2097 H 170.826 -3.59803 -3.29231 0
M  V30 2098 H 169.831 -5.23751 -1.67228 0
M  V30 2099 H 171.056 -6.44613 -2.13659 0
M  V30 2100 H 169.002 -5.19817 -4.00158 0
M  V30 2101 H 168.919 -6.79066 -3.32273 0
M  V30 2102 H 170.187 -6.40227 -4.44668 0
M  V30 2103 N 174.416 0.165178 -1.56732 0
M  V30 2104 C 175.646 0.894919 -1.86212 0
M  V30 2105 C 176.054 1.76066 -0.692627 0
M  V30 2106 O 175.397 1.80387 0.347303 0
M  V30 2107 C 175.459 1.8174 -3.10179 0
M  V30 2108 C 175.123 1.13064 -4.42793 0
M  V30 2109 C 176.12 0.493169 -5.17556 0
M  V30 2110 C 173.805 1.12556 -4.89527 0
M  V30 2111 C 175.799 -0.140209 -6.37246 0
M  V30 2112 C 173.486 0.488366 -6.09145 0
M  V30 2113 C 174.484 -0.143411 -6.82849 0
M  V30 2114 O 174.172 -0.77055 -8.00199 0
M  V30 2115 H 173.904 0.265114 -0.621844 0
M  V30 2116 H 176.458 0.168242 -2.0471 0
M  V30 2117 H 174.688 2.58455 -2.87642 0
M  V30 2118 H 176.377 2.4175 -3.26055 0
M  V30 2119 H 177.143 0.489023 -4.82528 0
M  V30 2120 H 173.022 1.60672 -4.32094 0
M  V30 2121 H 176.566 -0.633932 -6.94714 0
M  V30 2122 H 172.463 0.490116 -6.43637 0
M  V30 2123 H 173.231 -0.670408 -8.1575 0
M  V30 2124 N 175.894 1.51508 0.433938 0
M  V30 2125 C 176.857 1.72473 1.50949 0
M  V30 2126 C 177.857 0.594725 1.49398 0
M  V30 2127 O 179.047 0.862315 1.5136 0
M  V30 2128 C 176.179 1.78431 2.90474 0
M  V30 2129 H 177.372 2.68467 1.33662 0
M  V30 2130 H 174.925 1.41549 0.662836 0
M  V30 2131 H 175.66 0.842645 3.13161 0
M  V30 2132 H 175.445 2.60558 2.93005 0
M  V30 2133 H 176.935 1.96479 3.68491 0
M  V30 2134 N 177.372 -0.689602 1.41712 0
M  V30 2135 C 178.618 -1.45181 1.41599 0
M  V30 2136 C 178.951 -1.94181 0.0270081 0
M  V30 2137 O 178.226 -1.6993 -0.946265 0
M  V30 2138 C 178.509 -2.65945 2.42787 0
M  V30 2139 C 178.362 -2.22672 3.90816 0
M  V30 2140 C 179.681 -3.68149 2.41151 0
M  V30 2141 H 176.8 -0.526576 0.515642 0
M  V30 2142 H 179.442 -0.784947 1.73028 0
M  V30 2143 H 177.592 -3.2284 2.16116 0
M  V30 2144 H 179.264 -1.71058 4.28412 0
M  V30 2145 H 177.507 -1.54394 4.05395 0
M  V30 2146 H 178.178 -3.0935 4.57172 0
M  V30 2147 H 180.654 -3.2094 2.64834 0
M  V30 2148 H 179.53 -4.50248 3.13955 0
M  V30 2149 H 179.791 -4.18259 1.43221 0
M  V30 2150 N 178.85 -1.27639 -0.924453 0
M  V30 2151 C 179.797 -1.10644 -2.0255 0
M  V30 2152 C 180.767 -0.00658438 -1.66099 0
M  V30 2153 O 181.952 -0.16952 -1.90045 0
M  V30 2154 C 179.092 -0.76309 -3.36557 0
M  V30 2155 C 178.205 -1.94091 -3.85944 0
M  V30 2156 C 177.34 -1.53914 -5.08413 0
M  V30 2157 C 176.379 -2.68425 -5.50104 0
M  V30 2158 N 175.516 -2.28815 -6.63768 0
M  V30 2159 H 180.356 -2.04858 -2.16419 0
M  V30 2160 H 177.893 -1.01974 -1.06017 0
M  V30 2161 H 179.851 -0.544822 -4.13627 0
M  V30 2162 H 178.481 0.142102 -3.22487 0
M  V30 2163 H 177.533 -2.27162 -3.05125 0
M  V30 2164 H 178.845 -2.7998 -4.12811 0
M  V30 2165 H 177.999 -1.28231 -5.92994 0
M  V30 2166 H 176.738 -0.651391 -4.8333 0
M  V30 2167 H 175.743 -2.94819 -4.64071 0
M  V30 2168 H 176.968 -3.57826 -5.7718 0
M  V30 2169 H 174.914 -1.42495 -6.40337 0
M  V30 2170 H 174.831 -3.08242 -6.90306 0
M  V30 2171 H 176.099 -2.06387 -7.51681 0
M  V30 2172 N 180.328 1.1314 -1.09713 0
M  V30 2173 C 181.291 2.16831 -0.742751 0
M  V30 2174 C 182.291 1.59159 0.229129 0
M  V30 2175 O 183.481 1.74199 0.00693237 0
M  V30 2176 C 180.613 3.40756 -0.0989168 0
M  V30 2177 H 181.806 2.49695 -1.66109 0
M  V30 2178 H 179.359 1.2802 -0.896699 0
M  V30 2179 H 180.094 3.13485 0.830514 0
M  V30 2180 H 179.879 3.83888 -0.798265 0
M  V30 2181 H 181.369 4.17386 0.133524 0
M  V30 2182 O 181.845 1.01778 1.25393 0
M  V30 2183 H 182.536 0.678396 1.81432 0
M  V30 END ATOM
M  V30 BEGIN BOND
M  V30 END BOND
M  V30 END CTAB
M  END
$$$$
