drugbank_target|Q70Z44 5-hydroxytryptamine receptor 3D (DB00715; DB01049; DB01239; DB09304; DB11273; DB12141; DB13025; DB13345)
 OpenBabel12092120593D

  0  0  0     0  0            999 V3000
M  V30 BEGIN CTAB
M  V30 COUNTS 7053 7153 0 0 0
M  V30 BEGIN ATOM
M  V30 1 H -0.908 1.98254 -0.117106 0
M  V30 2 N 0 1.576 0 0
M  V30 3 C 0.933 2.03868 1.02534 0
M  V30 4 C 1.911 0.928543 1.3348 0
M  V30 5 O 3.095 1.19667 1.45644 0
M  V30 6 C 0.222 2.43627 2.35294 0
M  V30 7 C -0.732 3.65373 2.2001 0
M  V30 8 S 0.101 5.13292 1.52614 0
M  V30 9 C 1.257 5.56322 2.86805 0
M  V30 10 H 1.49 2.90518 0.631377 0
M  V30 11 H -0.977 1.52953 0.210867 0
M  V30 12 H 0.981 2.67203 3.11629 0
M  V30 13 H -0.358 1.57376 2.7183 0
M  V30 14 H -1.165 3.90944 3.18086 0
M  V30 15 H -1.563 3.418 1.51819 0
M  V30 16 H 0.729 5.58782 3.83104 0
M  V30 17 H 1.672 6.56266 2.65933 0
M  V30 18 H 2.08 4.83886 2.90714 0
M  V30 19 N 1.4781 -0.272755 1.55222 0
M  V30 20 C 2.4101 -1.35946 1.8453 0
M  V30 21 C 3.4231 -1.45525 0.729818 0
M  V30 22 O 4.6121 -1.47337 1.00767 0
M  V30 23 C 1.7121 -2.74069 1.99347 0
M  V30 24 C 0.8851 -2.87079 3.30007 0
M  V30 25 C -0.0559 -4.05879 3.34886 0
M  V30 26 O -1.0299 -3.96626 4.08261 0
M  V30 27 N 0.1721 -5.17857 2.62307 0
M  V30 28 H 2.9371 -1.11149 2.78327 0
M  V30 29 H 0.4981 -0.462869 1.55142 0
M  V30 30 H 2.4901 -3.51838 1.99981 0
M  V30 31 H 1.0601 -2.91688 1.12415 0
M  V30 32 H 0.2801 -1.96193 3.41909 0
M  V30 33 H 1.5681 -2.92701 4.16177 0
M  V30 34 H 0.9661 -5.28261 2.02377 0
M  V30 35 H -0.4769 -5.93855 2.68663 0
M  V30 36 N 2.9562 -1.48159 -0.537278 0
M  V30 37 C 3.9032 -1.62138 -1.64256 0
M  V30 38 C 4.8732 -0.463668 -1.59497 0
M  V30 39 O 6.0582 -0.686241 -1.78032 0
M  V30 40 C 3.1982 -1.66028 -3.02537 0
M  V30 41 C 2.3112 -2.92855 -3.17585 0
M  V30 42 C 1.4462 -2.87952 -4.46382 0
M  V30 43 C 0.4852 -4.09516 -4.54932 0
M  V30 44 N -0.3778 -4.02733 -5.75109 0
M  V30 45 H 4.4622 -2.56529 -1.51647 0
M  V30 46 H 1.9992 -1.27224 -0.738414 0
M  V30 47 H 3.9572 -1.66265 -3.82638 0
M  V30 48 H 2.5872 -0.751331 -3.13934 0
M  V30 49 H 1.6392 -3.02395 -2.30784 0
M  V30 50 H 2.9512 -3.82822 -3.19764 0
M  V30 51 H 2.1052 -2.8655 -5.34765 0
M  V30 52 H 0.8442 -1.95702 -4.46712 0
M  V30 53 H -0.1508 -4.11201 -3.64957 0
M  V30 54 H 1.0742 -5.02917 -4.56346 0
M  V30 55 H -0.9798 -3.13299 -5.76351 0
M  V30 56 H -1.0628 -4.86397 -5.78752 0
M  V30 57 H 0.2052 -4.05379 -6.65799 0
M  V30 58 N 4.4343 0.785586 -1.36625 0
M  V30 59 C 5.3843 1.88822 -1.27789 0
M  V30 60 C 6.3683 1.60014 -0.168579 0
M  V30 61 O 7.5603 1.72381 -0.401737 0
M  V30 62 C 4.6893 3.26092 -1.07327 0
M  V30 63 C 3.7753 3.60897 -2.22743 0
M  V30 64 N 4.1663 3.66982 -3.48077 0
M  V30 65 C 2.4643 3.90981 -2.14593 0
M  V30 66 C 3.1653 3.98137 -4.24101 0
M  V30 67 N 2.1413 4.13319 -3.53084 0
M  V30 68 H 5.9433 1.91759 -2.22723 0
M  V30 69 H 3.4573 0.981311 -1.29399 0
M  V30 70 H 5.4543 4.04954 -0.990842 0
M  V30 71 H 4.1143 3.24428 -0.132977 0
M  V30 72 H 5.1253 3.49531 -3.82163 0
M  V30 73 H 1.8023 3.9722 -1.2854 0
M  V30 74 H 3.1923 4.09737 -5.32509 0
M  V30 75 N 5.9124 1.20967 1.01018 0
M  V30 76 C 7.1374 1.0503 1.78839 0
M  V30 77 C 7.5624 -0.395752 1.8389 0
M  V30 78 O 6.9204 -1.28529 1.27867 0
M  V30 79 C 6.9684 1.64602 3.2084 0
M  V30 80 O 6.0724 0.887988 4.02726 0
M  V30 81 H 5.4134 0.369987 0.551367 0
M  V30 82 H 7.9434 1.60399 1.27018 0
M  V30 83 H 7.9534 1.68607 3.71532 0
M  V30 84 H 6.6284 2.69841 3.16479 0
M  V30 85 H 5.2054 0.922648 3.61305 0
M  V30 86 N 7.3905 -1.2043 1.01659 0
M  V30 87 C 8.8015 -1.71517 0.737482 0
M  V30 88 C 9.1525 -1.81547 -0.743973 0
M  V30 89 O 8.2775 -1.47803 -1.58061 0
M  V30 90 C 8.8725 -3.11515 1.33206 0
M  V30 91 C 7.4315 -3.59912 1.10183 0
M  V30 92 C 6.5785 -2.37116 1.43776 0
M  V30 93 H 9.5295 -1.05444 1.18606 0
M  V30 94 H 9.5505 -3.73575 0.722636 0
M  V30 95 H 9.0625 -3.04182 2.41028 0
M  V30 96 H 7.1635 -3.72577 0.0412756 0
M  V30 97 H 7.2765 -4.44731 1.78188 0
M  V30 98 H 5.6405 -2.39857 0.856778 0
M  V30 99 H 6.4235 -2.32424 2.52654 0
M  V30 100 N 8.8686 -0.792821 -1.36206 0
M  V30 101 C 10.1166 -0.366062 -1.98757 0
M  V30 102 C 10.4376 1.0668 -1.63231 0
M  V30 103 O 9.7076 1.73587 -0.907978 0
M  V30 104 H 8.2876 -0.132364 -0.735179 0
M  V30 105 H 10.9496 -1.01562 -1.66347 0
M  V30 106 H 10.0456 -0.460638 -3.08682 0
M  V30 107 N 10.3467 1.47872 -0.545128 0
M  V30 108 C 11.7577 1.86384 -0.108581 0
M  V30 109 C 12.1087 1.45309 1.31832 0
M  V30 110 O 11.2337 0.850641 1.9898 0
M  V30 111 C 11.8287 3.38265 -0.190274 0
M  V30 112 C 10.3877 3.75914 0.191164 0
M  V30 113 C 9.5347 2.71926 -0.543273 0
M  V30 114 H 12.4857 1.39561 -0.755537 0
M  V30 115 H 12.5067 3.75831 0.594217 0
M  V30 116 H 12.0187 3.6813 -1.2289 0
M  V30 117 H 10.1197 3.51665 1.23136 0
M  V30 118 H 10.2327 4.78836 -0.158987 0
M  V30 119 H 8.5967 2.54697 0.0122495 0
M  V30 120 H 9.3797 3.04634 -1.58282 0
M  V30 121 N 11.8248 0.280983 1.55075 0
M  V30 122 C 13.2358 -0.215629 1.85451 0
M  V30 123 C 13.5868 -1.54991 1.203 0
M  V30 124 O 12.7118 -2.10699 0.493435 0
M  V30 125 C 13.3068 -0.398026 3.36454 0
M  V30 126 C 11.8658 -0.838866 3.66933 0
M  V30 127 C 11.0128 0.064458 2.77225 0
M  V30 128 H 13.9638 0.502601 1.50531 0
M  V30 129 H 13.9848 -1.23569 3.59876 0
M  V30 130 H 13.4968 0.573241 3.83843 0
M  V30 131 H 11.5978 -1.8214 3.25048 0
M  V30 132 H 11.7108 -0.672123 4.74362 0
M  V30 133 H 10.0748 -0.452863 2.50642 0
M  V30 134 H 10.8578 1.03172 3.2743 0
M  V30 135 N 13.3029 -1.57598 0.00835791 0
M  V30 136 C 14.2659 -2.07884 -0.965242 0
M  V30 137 C 15.2659 -0.989825 -1.26725 0
M  V30 138 O 16.4559 -1.25218 -1.21104 0
M  V30 139 C 13.5879 -2.52731 -2.28779 0
M  V30 140 H 14.7809 -2.95178 -0.530112 0
M  V30 141 H 12.3339 -1.54458 -0.239283 0
M  V30 142 H 13.0689 -1.68705 -2.76964 0
M  V30 143 H 12.8539 -3.32272 -2.08177 0
M  V30 144 H 14.3439 -2.91933 -2.98605 0
M  V30 145 N 14.781 0.264519 -1.55364 0
M  V30 146 C 15.711 1.33121 -1.91836 0
M  V30 147 C 16.692 1.51101 -0.781192 0
M  V30 148 O 17.877 1.64003 -1.04003 0
M  V30 149 C 15.007 2.68921 -2.19769 0
M  V30 150 C 13.961 2.65661 -3.35571 0
M  V30 151 C 13.287 4.05093 -3.49004 0
M  V30 152 C 14.587 2.24187 -4.71739 0
M  V30 153 H 16.281 1.02844 -2.81182 0
M  V30 154 H 13.827 0.493286 -1.35287 0
M  V30 155 H 15.78 3.43663 -2.43872 0
M  V30 156 H 14.504 3.00799 -1.27231 0
M  V30 157 H 13.163 1.93377 -3.1145 0
M  V30 158 H 12.811 4.34206 -2.53917 0
M  V30 159 H 12.511 4.03804 -4.26868 0
M  V30 160 H 14.035 4.81561 -3.75408 0
M  V30 161 H 15.449 2.88654 -4.9533 0
M  V30 162 H 13.846 2.34044 -5.52579 0
M  V30 163 H 14.916 1.19327 -4.69988 0
M  V30 164 N 16.2591 1.48442 0.529413 0
M  V30 165 C 17.2221 1.62524 1.61612 0
M  V30 166 C 18.2221 0.498509 1.52877 0
M  V30 167 O 19.4121 0.76431 1.56537 0
M  V30 168 C 16.5441 1.59597 3.01233 0
M  V30 169 H 17.7371 2.59423 1.50465 0
M  V30 170 H 15.2901 1.37047 0.751514 0
M  V30 171 H 16.0251 0.641781 3.17886 0
M  V30 172 H 15.8101 2.41397 3.08982 0
M  V30 173 H 17.3001 1.72646 3.80241 0
M  V30 174 N 17.7372 -0.778329 1.37039 0
M  V30 175 C 18.6672 -1.90546 1.34962 0
M  V30 176 C 19.6482 -1.68681 0.219274 0
M  V30 177 O 20.8332 -1.89634 0.418624 0
M  V30 178 C 17.9632 -3.27734 1.14925 0
M  V30 179 C 16.9172 -3.64147 2.24902 0
M  V30 180 C 16.2432 -4.99806 1.89996 0
M  V30 181 C 17.5432 -3.71579 3.67051 0
M  V30 182 H 19.2372 -1.92541 2.29277 0
M  V30 183 H 16.7832 -0.924948 1.10366 0
M  V30 184 H 18.7362 -4.06215 1.12104 0
M  V30 185 H 17.4602 -3.26154 0.170631 0
M  V30 186 H 16.1192 -2.8797 2.26868 0
M  V30 187 H 15.7672 -4.94759 0.906796 0
M  V30 188 H 15.4672 -5.25139 2.63634 0
M  V30 189 H 16.9912 -5.80694 1.88749 0
M  V30 190 H 18.4052 -4.40227 3.67251 0
M  V30 191 H 16.8022 -4.08405 4.39688 0
M  V30 192 H 17.8722 -2.72404 4.01154 0
M  V30 193 N 19.2153 -1.21501 -1.00376 0
M  V30 194 C 20.1453 -0.999478 -2.11028 0
M  V30 195 C 21.1263 0.0759671 -1.6993 0
M  V30 196 O 22.3113 -0.0841106 -1.94018 0
M  V30 197 C 19.4413 -0.564709 -3.42678 0
M  V30 198 C 18.3953 -1.58486 -3.97576 0
M  V30 199 C 17.7213 -1.00628 -5.25146 0
M  V30 200 C 19.0213 -2.97204 -4.29496 0
M  V30 201 H 20.7153 -1.92495 -2.29317 0
M  V30 202 H 18.2613 -0.92693 -1.102 0
M  V30 203 H 20.2143 -0.401091 -4.19487 0
M  V30 204 H 18.9383 0.396411 -3.24185 0
M  V30 205 H 17.5973 -1.73606 -3.22888 0
M  V30 206 H 17.2453 -0.0368439 -5.02987 0
M  V30 207 H 16.9453 -1.68771 -5.62841 0
M  V30 208 H 18.4693 -0.854015 -6.04598 0
M  V30 209 H 19.8833 -2.8552 -4.97143 0
M  V30 210 H 18.2803 -3.62372 -4.78338 0
M  V30 211 H 19.3503 -3.47956 -3.3772 0
M  V30 212 N 20.6934 1.19889 -1.02296 0
M  V30 213 C 21.9184 1.9393 -0.735237 0
M  V30 214 C 22.3434 1.74639 0.698782 0
M  V30 215 O 21.7014 1.04481 1.48167 0
M  V30 216 C 21.7494 3.43916 -1.08417 0
M  V30 217 O 20.8534 4.11917 -0.199446 0
M  V30 218 H 20.1944 0.605645 -0.272196 0
M  V30 219 H 22.7244 1.52137 -1.36804 0
M  V30 220 H 22.7344 3.9456 -1.03856 0
M  V30 221 H 21.4094 3.5728 -2.12894 0
M  V30 222 H 19.9864 3.71666 -0.303136 0
M  V30 223 N 22.1715 0.800033 1.35784 0
M  V30 224 C 23.1035 0.163596 2.28615 0
M  V30 225 C 24.1165 -0.633317 1.49976 0
M  V30 226 O 25.3055 -0.466754 1.72289 0
M  V30 227 C 22.4055 -0.790958 3.29541 0
M  V30 228 C 21.5785 -0.0418255 4.3738 0
M  V30 229 C 20.6375 -0.91389 5.18203 0
M  V30 230 O 19.6635 -0.367234 5.68014 0
M  V30 231 N 20.8655 -2.23682 5.35674 0
M  V30 232 H 23.6305 0.96105 2.83873 0
M  V30 233 H 21.1915 0.654894 1.48063 0
M  V30 234 H 23.1835 -1.37844 3.80501 0
M  V30 235 H 21.7535 -1.48925 2.74846 0
M  V30 236 H 20.9735 0.726813 3.87442 0
M  V30 237 H 22.2615 0.474719 5.06581 0
M  V30 238 H 21.6595 -2.70497 4.96838 0
M  V30 239 H 20.2165 -2.77369 5.89839 0
M  V30 240 N 23.6496 -1.47581 0.552962 0
M  V30 241 C 24.8746 -2.07378 0.0300593 0
M  V30 242 C 25.2996 -1.40355 -1.25229 0
M  V30 243 O 24.6576 -0.477099 -1.7491 0
M  V30 244 C 24.7056 -3.60274 -0.153231 0
M  V30 245 O 23.8096 -3.94041 -1.21678 0
M  V30 246 H 23.1506 -0.662158 0.0494182 0
M  V30 247 H 25.6806 -1.89662 0.767434 0
M  V30 248 H 25.6906 -4.0633 -0.368761 0
M  V30 249 H 24.3656 -4.08455 0.783397 0
M  V30 250 H 22.9426 -3.59735 -0.982079 0
M  V30 251 N 25.1277 -0.289203 -1.54924 0
M  V30 252 C 26.0577 0.58549 -2.2604 0
M  V30 253 C 27.0387 1.14753 -1.25562 0
M  V30 254 O 28.2237 1.17906 -1.54311 0
M  V30 255 C 25.3537 1.76305 -2.99222 0
M  V30 256 C 24.3077 1.33191 -4.06748 0
M  V30 257 C 23.6337 2.5937 -4.6758 0
M  V30 258 C 24.9337 0.471775 -5.20165 0
M  V30 259 H 26.6277 -0.00763532 -2.99399 0
M  V30 260 H 24.1737 -0.00511229 -1.43999 0
M  V30 261 H 26.1267 2.38097 -3.47689 0
M  V30 262 H 24.8507 2.38223 -2.23422 0
M  V30 263 H 23.5097 0.737121 -3.59113 0
M  V30 264 H 23.1577 3.19576 -3.88433 0
M  V30 265 H 22.8577 2.31228 -5.40192 0
M  V30 266 H 24.3817 3.21985 -5.18804 0
M  V30 267 H 25.7957 0.995056 -5.64599 0
M  V30 268 H 24.1927 0.284639 -5.99425 0
M  V30 269 H 25.2627 -0.506041 -4.82252 0
M  V30 270 N 26.6058 1.57591 -0.0167156 0
M  V30 271 C 27.5358 2.12496 0.967858 0
M  V30 272 C 28.5168 1.03807 1.34752 0
M  V30 273 O 29.7018 1.31577 1.42833 0
M  V30 274 C 26.8318 2.64194 2.25431 0
M  V30 275 C 25.7858 3.77559 2.01576 0
M  V30 276 C 25.1118 4.15636 3.36379 0
M  V30 277 C 26.4118 5.04151 1.36489 0
M  V30 278 H 28.1058 2.95013 0.510643 0
M  V30 279 H 25.6518 1.41915 0.244181 0
M  V30 280 H 27.6048 3.01236 2.94678 0
M  V30 281 H 26.3288 1.78821 2.73296 0
M  V30 282 H 24.9878 3.40937 1.34751 0
M  V30 283 H 24.6358 3.27263 3.81979 0
M  V30 284 H 24.3358 4.92022 3.21229 0
M  V30 285 H 25.8598 4.5525 4.06915 0
M  V30 286 H 27.2738 5.38857 1.95718 0
M  V30 287 H 25.6708 5.85453 1.31776 0
M  V30 288 H 26.7408 4.83733 0.336219 0
M  V30 289 N 28.0839 -0.256276 1.55502 0
M  V30 290 C 29.3119 -1.00342 1.8094 0
M  V30 291 C 29.7269 -1.79307 0.59114 0
M  V30 292 O 29.0839 -1.77114 -0.440081 0
M  V30 293 C 29.1349 -1.94875 3.04476 0
M  V30 294 O 28.8559 -1.19107 4.21598 0
M  V30 295 C 30.3569 -2.81266 3.42644 0
M  V30 296 H 27.5769 -0.295685 0.602338 0
M  V30 297 H 30.1209 -0.281998 2.02546 0
M  V30 298 H 28.2759 -2.62457 2.84947 0
M  V30 299 H 28.6899 -1.82969 4.91551 0
M  V30 300 H 30.1639 -3.43362 4.32211 0
M  V30 301 H 30.6409 -3.51897 2.62802 0
M  V30 302 H 31.2469 -2.1915 3.64491 0
M  V30 303 N 29.562 -1.4872 -0.521534 0
M  V30 304 C 30.79 -1.60843 -1.30142 0
M  V30 305 C 31.205 -0.271897 -1.86832 0
M  V30 306 O 30.562 0.739969 -1.66825 0
M  V30 307 C 30.613 -2.66155 -2.4463 0
M  V30 308 O 30.334 -3.94623 -1.90275 0
M  V30 309 C 31.835 -2.88795 -3.36322 0
M  V30 310 H 29.055 -0.542075 -0.395468 0
M  V30 311 H 31.599 -1.94609 -0.628285 0
M  V30 312 H 29.754 -2.35224 -3.07812 0
M  V30 313 H 30.168 -4.52468 -2.65279 0
M  V30 314 H 31.642 -3.66264 -4.12983 0
M  V30 315 H 32.119 -1.97934 -3.9207 0
M  V30 316 H 32.725 -3.21063 -2.78924 0
M  V30 317 N 31.0401 0.771051 -1.3745 0
M  V30 318 C 32.2881 1.52661 -1.32435 0
M  V30 319 C 32.6091 1.9479 0.0905024 0
M  V30 320 O 31.8791 1.66348 1.03466 0
M  V30 321 H 30.4591 0.566218 -0.487244 0
M  V30 322 H 33.1211 0.917636 -1.71946 0
M  V30 323 H 32.2171 2.42568 -1.96385 0
M  V30 324 N 32.5182 1.22032 0.997298 0
M  V30 325 C 33.4662 0.983634 2.10778 0
M  V30 326 C 34.4602 -0.0717564 1.69248 0
M  V30 327 O 35.6662 0.080304 1.79821 0
M  V30 328 H 32.0412 0.300877 0.689186 0
M  V30 329 H 34.0122 1.92606 2.27916 0
M  V30 330 C 32.7612 0.57326 3.42942 0
M  V30 331 H 32.0842 1.37702 3.75338 0
M  V30 332 H 33.5242 0.447031 4.21637 0
M  V30 333 C 31.9832 -0.7167 3.29188 0
M  V30 334 O 32.5132 -1.77027 3.60589 0
M  V30 335 N 30.7192 -0.686167 2.82383 0
M  V30 336 H 30.2662 0.171507 2.57028 0
M  V30 337 H 30.2242 -1.54955 2.73562 0
M  V30 338 N 33.9963 -1.19345 1.0293 0
M  V30 339 C 35.2443 -1.88665 0.724574 0
M  V30 340 C 35.5653 -1.80036 -0.749144 0
M  V30 341 O 34.8353 -1.2111 -1.53978 0
M  V30 342 H 33.4153 -0.698406 0.265025 0
M  V30 343 H 36.0773 -1.44885 1.30362 0
M  V30 344 H 35.1733 -2.94987 1.01926 0
M  V30 345 N 35.4744 -0.807222 -1.35358 0
M  V30 346 C 36.7514 -0.311126 -1.9311 0
M  V30 347 C 37.1314 1.19937 -1.73719 0
M  V30 348 O 36.4794 1.99918 -1.10657 0
M  V30 349 C 36.6894 -0.723226 -3.41424 0
M  V30 350 C 38.0374 -0.713078 -4.18569 0
M  V30 351 O 39.0614 -0.664811 -3.49941 0
M  V30 352 O 37.9204 -0.772022 -5.41019 0
M  V30 353 H 35.0144 -0.081526 -0.822972 0
M  V30 354 H 37.5604 -0.890962 -1.4443 0
M  V30 355 H 36.3324 -1.76426 -3.4927 0
M  V30 356 H 35.9554 -0.118232 -3.97424 0
M  V30 357 N 36.9525 1.47285 -0.560781 0
M  V30 358 C 38.1805 2.06855 -0.0430262 0
M  V30 359 C 38.5955 1.41291 1.25229 0
M  V30 360 O 37.9525 0.510648 1.7521 0
M  V30 361 C 38.0035 3.61178 0.152518 0
M  V30 362 O 37.7245 4.24285 -1.0915 0
M  V30 363 C 39.2255 4.37624 0.707145 0
M  V30 364 H 36.4455 0.669319 -0.0474652 0
M  V30 365 H 38.9895 1.89237 -0.77521 0
M  V30 366 H 37.1445 3.78298 0.834843 0
M  V30 367 H 37.5585 5.16868 -0.891482 0
M  V30 368 H 39.0325 5.46271 0.793244 0
M  V30 369 H 39.5095 4.04152 1.71923 0
M  V30 370 H 40.1155 4.25257 0.0604027 0
M  V30 371 N 38.4306 0.297415 1.54768 0
M  V30 372 C 39.3606 -0.573494 2.26348 0
M  V30 373 C 40.3416 -1.14085 1.26169 0
M  V30 374 O 41.5266 -1.17086 1.54934 0
M  V30 375 C 38.6566 -1.74716 3.00153 0
M  V30 376 C 37.6106 -1.31032 4.07449 0
M  V30 377 C 36.9366 -2.56887 4.68949 0
M  V30 378 C 38.2366 -0.444183 5.20408 0
M  V30 379 H 39.9306 0.0235131 2.99391 0
M  V30 380 H 37.4766 0.0127488 1.43994 0
M  V30 381 H 39.4296 -2.3625 3.48947 0
M  V30 382 H 38.1536 -2.37035 2.24682 0
M  V30 383 H 36.8126 -0.718066 3.59499 0
M  V30 384 H 36.4606 -3.17512 3.90122 0
M  V30 385 H 36.1606 -2.2836 5.41411 0
M  V30 386 H 37.6846 -3.19229 5.20505 0
M  V30 387 H 39.0986 -0.9651 5.65118 0
M  V30 388 H 37.4956 -0.252846 5.99567 0
M  V30 389 H 38.5656 0.531609 4.81977 0
M  V30 390 N 39.9087 -1.5758 0.0250728 0
M  V30 391 C 41.1577 -1.90811 -0.653767 0
M  V30 392 C 41.4707 -0.90273 -1.73523 0
M  V30 393 O 42.6767 -1.12614 -2.47043 0
M  V30 394 C 41.1327 -3.38804 -1.21409 0
M  V30 395 C 40.7407 -4.47692 -0.166126 0
M  V30 396 C 42.4847 -3.81108 -1.86967 0
M  V30 397 C 40.3917 -5.86779 -0.737856 0
M  V30 398 H 39.3217 -0.712063 -0.247956 0
M  V30 399 H 41.9727 -1.83281 0.0897137 0
M  V30 400 H 40.3547 -3.41252 -2.00905 0
M  V30 401 H 41.5287 -4.56797 0.606079 0
M  V30 402 H 39.8437 -4.14565 0.390466 0
M  V30 403 H 42.4407 -4.82375 -2.30692 0
M  V30 404 H 42.7837 -3.15953 -2.71071 0
M  V30 405 H 43.3167 -3.81065 -1.14167 0
M  V30 406 H 40.0557 -6.55468 0.0649577 0
M  V30 407 H 39.5757 -5.81288 -1.47864 0
M  V30 408 H 41.2547 -6.35223 -1.22884 0
M  V30 409 N 41.3868 0.248026 -1.55636 0
M  V30 410 C 42.6358 0.974134 -1.76617 0
M  V30 411 C 42.9488 1.86528 -0.588796 0
M  V30 412 O 44.1548 2.62805 -0.681594 0
M  V30 413 C 42.6108 1.78213 -3.12679 0
M  V30 414 C 42.2188 0.93843 -4.38061 0
M  V30 415 C 43.9628 2.50104 -3.42999 0
M  V30 416 C 41.8698 1.74225 -5.65155 0
M  V30 417 H 40.7998 0.36745 -0.658405 0
M  V30 418 H 43.4508 0.22884 -1.82067 0
M  V30 419 H 41.8328 2.56933 -3.01333 0
M  V30 420 H 43.0068 0.193635 -4.60393 0
M  V30 421 H 41.3218 0.332905 -4.15067 0
M  V30 422 H 43.9188 3.10694 -4.3517 0
M  V30 423 H 44.2618 3.21662 -2.64271 0
M  V30 424 H 44.7948 1.78395 -3.55556 0
M  V30 425 H 41.5338 1.07043 -6.46701 0
M  V30 426 H 41.0538 2.46235 -5.46926 0
M  V30 427 H 42.7328 2.30967 -6.0437 0
M  V30 428 N 42.8649 1.48995 0.513639 0
M  V30 429 C 43.8129 1.65199 1.63744 0
M  V30 430 C 44.8069 0.51809 1.61283 0
M  V30 431 O 46.0129 0.697335 1.65943 0
M  V30 432 H 42.3879 0.52069 0.542574 0
M  V30 433 H 44.3589 2.59552 1.47226 0
M  V30 434 C 43.1079 1.72409 3.01945 0
M  V30 435 H 42.4309 2.59029 3.04539 0
M  V30 436 H 43.8709 1.87785 3.80148 0
M  V30 437 C 42.3299 0.46618 3.33659 0
M  V30 438 O 42.8599 -0.413744 3.99564 0
M  V30 439 N 41.0659 0.332931 2.88687 0
M  V30 440 H 40.6129 1.04996 2.35231 0
M  V30 441 H 40.5709 -0.507665 3.10274 0
M  V30 442 N 44.343 -0.763751 1.37857 0
M  V30 443 C 45.583 -1.53551 1.34913 0
M  V30 444 C 45.947 -1.91895 -0.0635882 0
M  V30 445 O 47.148 -2.67916 -0.217825 0
M  V30 446 C 45.419 -2.76126 2.26912 0
M  V30 447 S 46.978 -3.66105 2.41893 0
M  V30 448 H 43.796 -0.52559 0.478828 0
M  V30 449 H 46.398 -0.897435 1.73685 0
M  V30 450 H 45.102 -2.4605 3.28463 0
M  V30 451 H 44.633 -3.44887 1.89253 0
M  V30 452 H 46.648 -4.68473 1.63545 0
M  V30 453 N 45.8211 -1.22559 -0.990812 0
M  V30 454 C 47.2321 -1.04791 -1.54518 0
M  V30 455 C 47.5831 0.387998 -1.92325 0
M  V30 456 O 46.7081 1.27328 -1.74976 0
M  V30 457 C 47.3031 -1.896 -2.80779 0
M  V30 458 C 45.8621 -1.76124 -3.32652 0
M  V30 459 C 45.0091 -1.8594 -2.05722 0
M  V30 460 H 47.9601 -1.36374 -0.811662 0
M  V30 461 H 47.9811 -1.41464 -3.53225 0
M  V30 462 H 47.4931 -2.94101 -2.53231 0
M  V30 463 H 45.5941 -0.743643 -3.65104 0
M  V30 464 H 45.7071 -2.58913 -4.03114 0
M  V30 465 H 44.0711 -1.29403 -2.19379 0
M  V30 466 H 44.8541 -2.91976 -1.80568 0
M  V30 467 N 47.2992 1.18797 -1.03562 0
M  V30 468 C 48.5472 1.88278 -0.734569 0
M  V30 469 C 48.8682 1.8043 0.739586 0
M  V30 470 O 48.1382 1.21925 1.53333 0
M  V30 471 H 46.7182 0.696991 -0.268725 0
M  V30 472 H 49.3802 1.44192 -1.31129 0
M  V30 473 H 48.4762 2.94443 -1.03489 0
M  V30 474 N 48.7773 0.814389 1.34928 0
M  V30 475 C 50.0243 0.398423 1.98542 0
M  V30 476 C 50.3523 -1.03638 1.64589 0
M  V30 477 O 49.6073 -1.73509 0.90516 0
M  V30 478 C 49.9063 0.537781 3.53331 0
M  V30 479 C 49.5723 1.93704 4.07172 0
M  V30 480 C 48.2343 2.31984 4.21589 0
M  V30 481 C 50.5863 2.85213 4.36237 0
M  V30 482 C 47.9143 3.61125 4.62391 0
M  V30 483 C 50.2663 4.13809 4.78482 0
M  V30 484 C 48.9303 4.52077 4.91104 0
M  V30 485 H 48.2003 0.145793 0.726516 0
M  V30 486 H 50.8473 1.03669 1.61012 0
M  V30 487 H 49.1523 -0.183906 3.91368 0
M  V30 488 H 50.8493 0.196588 4.00518 0
M  V30 489 H 47.4393 1.62966 3.96409 0
M  V30 490 H 51.6233 2.56885 4.24645 0
M  V30 491 H 46.8793 3.90612 4.70353 0
M  V30 492 H 51.0533 4.84811 4.99932 0
M  V30 493 H 48.6803 5.52196 5.22478 0
M  V30 494 N 50.2554 -1.46986 0.568584 0
M  V30 495 C 51.5034 -2.02041 0.0487022 0
M  V30 496 C 51.8244 -1.44408 -1.31039 0
M  V30 497 O 51.0944 -0.623477 -1.85714 0
M  V30 498 H 49.6744 -0.746849 0.015014 0
M  V30 499 H 52.3364 -1.80257 0.741168 0
M  V30 500 H 51.4324 -3.12085 -0.0308961 0
M  V30 501 N 51.7335 -0.305618 -1.54608 0
M  V30 502 C 52.6655 0.602161 -2.21149 0
M  V30 503 C 53.6785 1.09394 -1.20569 0
M  V30 504 O 54.8675 1.0106 -1.47136 0
M  V30 505 C 51.9675 1.83692 -2.84799 0
M  V30 506 C 51.1405 1.48686 -4.11353 0
M  V30 507 C 50.1995 2.57725 -4.58764 0
M  V30 508 O 49.2255 2.22623 -5.23858 0
M  V30 509 N 50.4275 3.88346 -4.31471 0
M  V30 510 H 53.1925 0.0324966 -2.99682 0
M  V30 511 H 50.7535 -0.128021 -1.61393 0
M  V30 512 H 52.7455 2.55994 -3.13448 0
M  V30 513 H 51.3155 2.31486 -2.10078 0
M  V30 514 H 50.5355 0.596269 -3.89664 0
M  V30 515 H 51.8235 1.22842 -4.93748 0
M  V30 516 H 51.2215 4.19671 -3.79331 0
M  V30 517 H 49.7785 4.56932 -4.64818 0
M  V30 518 N 53.2116 1.57565 -0.0334293 0
M  V30 519 C 54.1616 2.06978 0.956237 0
M  V30 520 C 55.1456 0.971193 1.28283 0
M  V30 521 O 56.3376 1.23471 1.26822 0
M  V30 522 C 53.4666 2.60393 2.23719 0
M  V30 523 C 52.5526 3.7719 1.93877 0
M  V30 524 N 52.9436 4.87639 1.34321 0
M  V30 525 C 51.2416 3.85758 2.23845 0
M  V30 526 C 51.9426 5.68825 1.21709 0
M  V30 527 N 50.9186 5.1587 1.71404 0
M  V30 528 H 54.7206 2.89773 0.490815 0
M  V30 529 H 52.2346 1.61492 0.171478 0
M  V30 530 H 54.2316 2.94088 2.95496 0
M  V30 531 H 52.8916 1.79031 2.70884 0
M  V30 532 H 53.9026 5.07803 1.01767 0
M  V30 533 H 50.5796 3.1531 2.73653 0
M  V30 534 H 51.9696 6.67631 0.75621 0
M  V30 535 N 54.6897 -0.239769 1.55765 0
M  V30 536 C 56.1057 -0.588624 1.48349 0
M  V30 537 C 56.3057 -1.88005 0.72502 0
M  V30 538 O 55.3617 -2.51186 0.257269 0
M  V30 539 C 56.6747 -0.68474 2.928 0
M  V30 540 C 58.2227 -0.77659 3.03213 0
M  V30 541 C 58.6977 -0.904207 4.48986 0
M  V30 542 N 60.1887 -0.968896 4.52953 0
M  V30 543 C 60.9237 -1.08703 5.63002 0
M  V30 544 N 60.4197 -1.17026 6.82845 0
M  V30 545 N 62.2127 -1.12074 5.50814 0
M  V30 546 H 54.3637 0.607911 2.03515 0
M  V30 547 H 56.6267 0.21083 0.924259 0
M  V30 548 H 56.3327 0.194284 3.51163 0
M  V30 549 H 56.2067 -1.55435 3.43686 0
M  V30 550 H 58.5937 -1.64606 2.44926 0
M  V30 551 H 58.6747 0.118315 2.55526 0
M  V30 552 H 58.3187 -0.0392633 5.07885 0
M  V30 553 H 58.2487 -1.81426 4.9436 0
M  V30 554 H 60.7397 -0.915633 3.6664 0
M  V30 555 H 61.0527 -1.25966 7.62465 0
M  V30 556 H 59.3977 -1.13971 6.85591 0
M  V30 557 H 62.5887 -1.05226 4.5612 0
M  V30 558 H 62.7617 -1.20936 6.36615 0
M  V30 559 N 56.1678 -1.49265 -0.50573 0
M  V30 560 C 57.4138 -1.58748 -1.26202 0
M  V30 561 C 57.7468 -0.271227 -1.92297 0
M  V30 562 O 57.0218 0.724831 -1.80489 0
M  V30 563 C 57.3048 -2.74332 -2.33268 0
M  V30 564 C 57.1578 -4.15737 -1.71705 0
M  V30 565 C 58.4768 -2.85576 -3.34865 0
M  V30 566 H 55.5958 -0.577826 -0.457478 0
M  V30 567 H 58.2378 -1.81532 -0.560897 0
M  V30 568 H 56.3878 -2.55036 -2.93068 0
M  V30 569 H 58.0598 -4.46537 -1.15769 0
M  V30 570 H 56.3028 -4.21605 -1.02135 0
M  V30 571 H 56.9738 -4.92477 -2.49341 0
M  V30 572 H 59.4498 -3.03127 -2.8505 0
M  V30 573 H 58.3258 -3.68135 -4.07146 0
M  V30 574 H 58.5868 -1.94732 -3.96903 0
M  V30 575 N 57.6459 0.756429 -1.3826 0
M  V30 576 C 58.9229 1.50584 -1.24835 0
M  V30 577 C 59.3029 2.10556 0.151485 0
M  V30 578 O 58.6509 1.96825 1.1607 0
M  V30 579 C 58.8609 2.57448 -2.3563 0
M  V30 580 C 60.2089 3.24429 -2.73917 0
M  V30 581 O 61.2329 2.67751 -2.34921 0
M  V30 582 O 60.0919 4.26937 -3.41156 0
M  V30 583 H 57.1859 0.667664 -0.48801 0
M  V30 584 H 59.7319 0.792083 -1.5008 0
M  V30 585 H 58.5039 2.11362 -3.29305 0
M  V30 586 H 58.1269 3.36408 -2.11933 0
M  V30 587 N 59.124 1.23083 0.984299 0
M  V30 588 C 60.535 1.05609 1.5396 0
M  V30 589 C 60.886 -0.377793 1.92528 0
M  V30 590 O 60.011 -1.26398 1.75649 0
M  V30 591 C 60.606 1.91087 2.7977 0
M  V30 592 C 59.165 1.77885 3.31713 0
M  V30 593 C 58.312 1.87028 2.04733 0
M  V30 594 H 61.263 1.36802 0.804419 0
M  V30 595 H 61.284 1.43336 3.5247 0
M  V30 596 H 60.796 2.9544 2.51668 0
M  V30 597 H 58.897 0.762995 3.64704 0
M  V30 598 H 59.01 2.61047 4.01735 0
M  V30 599 H 57.374 1.30565 2.18689 0
M  V30 600 H 58.157 2.92929 1.79017 0
M  V30 601 N 60.6021 -1.18246 1.0419 0
M  V30 602 C 61.5651 -2.20128 0.638452 0
M  V30 603 C 62.5651 -1.57885 -0.304805 0
M  V30 604 O 63.7551 -1.73967 -0.0900369 0
M  V30 605 C 60.8871 -3.4084 -0.0637751 0
M  V30 606 H 62.0801 -2.57336 1.54007 0
M  V30 607 H 59.6331 -1.32152 0.834598 0
M  V30 608 H 60.3681 -3.09166 -0.979136 0
M  V30 609 H 60.1531 -3.8726 0.614198 0
M  V30 610 H 61.6431 -4.16274 -0.332512 0
M  V30 611 N 62.0802 -0.821533 -1.34494 0
M  V30 612 C 63.0432 -0.247847 -2.27856 0
M  V30 613 C 64.0432 0.573453 -1.50227 0
M  V30 614 O 65.2332 0.389759 -1.69784 0
M  V30 615 C 62.3652 0.652698 -3.34593 0
M  V30 616 H 63.5582 -1.07146 -2.80107 0
M  V30 617 H 61.1112 -0.593291 -1.44602 0
M  V30 618 H 61.8462 1.49943 -2.87555 0
M  V30 619 H 61.6312 0.065292 -3.92046 0
M  V30 620 H 63.1212 1.04793 -4.04238 0
M  V30 621 N 63.5583 1.46682 -0.576371 0
M  V30 622 C 64.8053 2.02412 -0.0595339 0
M  V30 623 C 65.1333 1.44859 1.29793 0
M  V30 624 O 64.3883 0.601099 1.8624 0
M  V30 625 C 64.6873 3.57345 0.062886 0
M  V30 626 C 64.3533 4.33908 -1.22616 0
M  V30 627 C 63.0153 4.54544 -1.57933 0
M  V30 628 C 65.3673 4.77919 -2.07948 0
M  V30 629 C 62.6953 5.16444 -2.78393 0
M  V30 630 C 65.0473 5.41149 -3.27629 0
M  V30 631 C 63.7113 5.60014 -3.63236 0
M  V30 632 H 62.9813 0.74068 -0.021785 0
M  V30 633 H 65.6283 1.76128 -0.751735 0
M  V30 634 H 63.9333 3.82729 0.838178 0
M  V30 635 H 65.6303 3.98136 0.478439 0
M  V30 636 H 62.2203 4.18138 -0.941202 0
M  V30 637 H 66.4043 4.61738 -1.81967 0
M  V30 638 H 61.6603 5.29242 -3.06126 0
M  V30 639 H 65.8343 5.74211 -3.94023 0
M  V30 640 H 63.4613 6.07748 -4.56669 0
M  V30 641 N 65.0364 0.313813 1.54444 0
M  V30 642 C 65.9684 -0.590425 2.21465 0
M  V30 643 C 66.9814 -1.08753 1.21147 0
M  V30 644 O 68.1704 -1.00278 1.4767 0
M  V30 645 C 65.2704 -1.82179 2.85769 0
M  V30 646 C 64.4434 -1.46502 4.12136 0
M  V30 647 C 63.5024 -2.55288 4.60124 0
M  V30 648 O 62.5284 -2.19842 5.25032 0
M  V30 649 N 63.7304 -3.86053 4.33525 0
M  V30 650 H 66.4954 -0.0166033 2.99695 0
M  V30 651 H 64.0564 0.136578 1.61323 0
M  V30 652 H 66.0484 -2.54328 3.14801 0
M  V30 653 H 64.6184 -2.30369 2.11303 0
M  V30 654 H 63.8384 -0.575595 3.89975 0
M  V30 655 H 65.1264 -1.20221 4.94393 0
M  V30 656 H 64.5244 -4.17654 3.81552 0
M  V30 657 H 63.0814 -4.54461 4.67235 0
M  V30 658 N 66.5145 -1.57545 0.0417849 0
M  V30 659 C 67.4775 -2.09885 -0.92093 0
M  V30 660 C 68.4775 -1.01648 -1.24596 0
M  V30 661 O 69.6675 -1.27759 -1.1842 0
M  V30 662 C 66.7995 -2.57527 -2.23367 0
M  V30 663 H 67.9925 -2.96236 -0.467382 0
M  V30 664 H 65.5455 -1.5493 -0.206467 0
M  V30 665 H 66.2805 -1.74542 -2.73323 0
M  V30 666 H 66.0655 -3.36613 -2.01083 0
M  V30 667 H 67.5555 -2.98201 -2.92346 0
M  V30 668 N 67.9926 0.231505 -1.5589 0
M  V30 669 C 69.2386 0.95877 -1.78705 0
M  V30 670 C 69.5716 1.8438 -0.609725 0
M  V30 671 O 68.8466 1.90521 0.391426 0
M  V30 672 C 69.1296 1.8062 -3.11526 0
M  V30 673 C 68.9826 0.948328 -4.39689 0
M  V30 674 C 70.3016 2.78585 -3.40703 0
M  V30 675 H 67.4206 0.347129 -0.650131 0
M  V30 676 H 70.0626 0.228259 -1.88624 0
M  V30 677 H 68.2126 2.42902 -3.03201 0
M  V30 678 H 69.8846 0.343016 -4.60023 0
M  V30 679 H 68.1276 0.253314 -4.3306 0
M  V30 680 H 68.7986 1.57543 -5.29041 0
M  V30 681 H 71.2746 2.26439 -3.49091 0
M  V30 682 H 70.1506 3.34988 -4.34826 0
M  V30 683 H 70.4116 3.55825 -2.62375 0
M  V30 684 N 69.4707 1.49531 0.497807 0
M  V30 685 C 70.7177 1.59179 1.25173 0
M  V30 686 C 71.0457 0.279932 1.92475 0
M  V30 687 O 70.3007 -0.732383 1.81479 0
M  V30 688 C 70.5997 2.70252 2.33878 0
M  V30 689 C 70.2657 4.11644 1.84012 0
M  V30 690 C 68.9277 4.50121 1.70132 0
M  V30 691 C 71.2797 5.00121 1.46725 0
M  V30 692 C 68.6077 5.74845 1.17348 0
M  V30 693 C 70.9597 6.25366 0.95392 0
M  V30 694 C 69.6237 6.6267 0.801538 0
M  V30 695 H 68.8937 0.582478 0.45804 0
M  V30 696 H 71.5407 1.83373 0.551948 0
M  V30 697 H 69.8457 2.40041 3.09657 0
M  V30 698 H 71.5427 2.74925 2.9192 0
M  V30 699 H 68.1327 3.81274 1.95775 0
M  V30 700 H 72.3167 4.71048 1.56294 0
M  V30 701 H 67.5727 6.02444 1.04264 0
M  V30 702 H 71.7467 6.93301 0.656225 0
M  V30 703 H 69.3737 7.59197 0.390351 0
M  V30 704 N 70.9488 -0.749086 1.3866 0
M  V30 705 C 72.2258 -1.4992 1.25632 0
M  V30 706 C 72.6058 -2.10633 -0.140317 0
M  V30 707 O 71.9538 -1.97437 -1.15025 0
M  V30 708 C 72.1638 -2.56195 2.36992 0
M  V30 709 C 73.5118 -3.22972 2.75634 0
M  V30 710 O 74.5358 -2.66502 2.36337 0
M  V30 711 O 73.3948 -4.25122 3.43415 0
M  V30 712 H 70.4888 -0.665067 0.491544 0
M  V30 713 H 73.0348 -0.784113 1.50498 0
M  V30 714 H 71.8068 -2.09612 3.30422 0
M  V30 715 H 71.4298 -3.35279 2.13714 0
M  V30 716 N 72.4269 -1.23603 -0.977757 0
M  V30 717 C 73.8429 -0.999251 -1.24447 0
M  V30 718 C 74.0429 0.298053 -1.99283 0
M  V30 719 O 73.0989 1.01681 -2.31122 0
M  V30 720 C 74.4119 -2.20784 -2.04144 0
M  V30 721 C 75.9599 -2.25303 -2.17273 0
M  V30 722 C 76.4349 -3.45755 -3.00362 0
M  V30 723 N 77.9259 -3.4601 -3.07947 0
M  V30 724 C 78.6609 -4.35868 -3.72568 0
M  V30 725 N 78.1569 -5.35966 -4.38991 0
M  V30 726 N 79.9499 -4.23605 -3.6948 0
M  V30 727 H 72.1009 -2.06986 -0.476483 0
M  V30 728 H 74.3639 -0.907801 -0.273134 0
M  V30 729 H 74.0699 -3.14945 -1.56533 0
M  V30 730 H 73.9439 -2.22085 -3.04891 0
M  V30 731 H 76.3309 -1.3168 -2.64092 0
M  V30 732 H 76.4119 -2.28033 -1.15907 0
M  V30 733 H 76.0559 -4.39687 -2.5424 0
M  V30 734 H 75.9859 -3.40266 -4.01904 0
M  V30 735 H 78.4769 -2.73588 -2.60688 0
M  V30 736 H 78.7899 -6.00783 -4.86086 0
M  V30 737 H 77.1349 -5.39863 -4.37691 0
M  V30 738 H 80.3259 -3.44647 -3.16759 0
M  V30 739 H 80.4989 -4.93836 -4.1956 0
M  V30 740 N 73.905 1.17692 -1.04816 0
M  V30 741 C 74.852 2.21581 -0.645797 0
M  V30 742 C 75.822 1.62367 0.350159 0
M  V30 743 O 77.007 1.89254 0.242433 0
M  V30 744 C 74.147 3.45092 -0.0227568 0
M  V30 745 C 73.26 4.18613 -1.06709 0
M  V30 746 C 72.395 5.29602 -0.411767 0
M  V30 747 C 71.434 5.94904 -1.44067 0
M  V30 748 N 70.571 6.97414 -0.809781 0
M  V30 749 H 75.411 2.55353 -1.5362 0
M  V30 750 H 72.948 1.25438 -0.768364 0
M  V30 751 H 74.906 4.15679 0.35588 0
M  V30 752 H 73.536 3.11917 0.831122 0
M  V30 753 H 72.588 3.46779 -1.5636 0
M  V30 754 H 73.9 4.63293 -1.84827 0
M  V30 755 H 73.054 6.06696 0.0206623 0
M  V30 756 H 71.793 4.86045 0.401438 0
M  V30 757 H 70.798 5.16544 -1.88316 0
M  V30 758 H 72.023 6.40542 -2.25571 0
M  V30 759 H 69.969 6.55998 -0.0170186 0
M  V30 760 H 69.886 7.40386 -1.52856 0
M  V30 761 H 71.154 7.78463 -0.401999 0
M  V30 762 N 75.3831 0.828654 1.34056 0
M  V30 763 C 76.3461 0.259927 2.27721 0
M  V30 764 C 77.3461 -0.565478 1.50529 0
M  V30 765 O 78.5361 -0.38075 1.69988 0
M  V30 766 C 75.6681 -0.634944 3.34935 0
M  V30 767 H 76.8611 1.0863 2.79534 0
M  V30 768 H 74.4141 0.600951 1.44285 0
M  V30 769 H 75.1491 -1.48416 2.88346 0
M  V30 770 H 74.9341 -0.0444999 3.92075 0
M  V30 771 H 76.4241 -1.02648 4.04788 0
M  V30 772 N 76.8612 -1.46375 0.584142 0
M  V30 773 C 78.1102 -2.01585 0.0679741 0
M  V30 774 C 78.4232 -1.46109 -1.30045 0
M  V30 775 O 79.6292 -1.93148 -1.90804 0
M  V30 776 C 78.0852 -3.5983 0.0709207 0
M  V30 777 C 77.6932 -4.24303 1.43775 0
M  V30 778 C 79.4372 -4.22693 -0.391228 0
M  V30 779 C 77.3442 -5.74631 1.39834 0
M  V30 780 H 76.2742 -0.753689 0.0216421 0
M  V30 781 H 78.9252 -1.68093 0.736001 0
M  V30 782 H 77.3072 -3.90405 -0.663299 0
M  V30 783 H 78.4812 -4.05335 2.19181 0
M  V30 784 H 76.7962 -3.73539 1.84004 0
M  V30 785 H 79.3932 -5.3289 -0.439524 0
M  V30 786 H 79.7362 -3.91728 -1.40906 0
M  V30 787 H 80.2692 -3.96749 0.288974 0
M  V30 788 H 77.0082 -6.10258 2.39303 0
M  V30 789 H 76.5282 -5.95858 0.686505 0
M  V30 790 H 78.2072 -6.37375 1.11187 0
M  V30 791 N 78.3393 -0.321999 -1.54275 0
M  V30 792 C 79.5873 0.280489 -2.00144 0
M  V30 793 C 79.9083 1.52777 -1.21178 0
M  V30 794 O 79.1783 1.9338 -0.313187 0
M  V30 795 H 77.7583 0.106632 -0.73935 0
M  V30 796 H 80.4203 -0.438184 -1.8991 0
M  V30 797 H 79.5163 0.537972 -3.07428 0
M  V30 798 N 79.8174 1.5752 -0.0501392 0
M  V30 799 C 81.2284 1.80271 0.485705 0
M  V30 800 C 81.5794 0.96228 1.70981 0
M  V30 801 O 80.7044 0.178578 2.15662 0
M  V30 802 C 81.2994 3.26957 0.887938 0
M  V30 803 C 79.8584 3.5063 1.36877 0
M  V30 804 C 79.0054 2.75165 0.343468 0
M  V30 805 H 81.9564 1.56281 -0.276028 0
M  V30 806 H 81.9774 3.37821 1.75093 0
M  V30 807 H 81.4894 3.881 -0.0031809 0
M  V30 808 H 79.5904 2.94766 2.27911 0
M  V30 809 H 79.7034 4.59343 1.36164 0
M  V30 810 H 78.0674 2.4127 0.816128 0
M  V30 811 H 78.8504 3.39034 -0.539548 0
M  V30 812 N 81.2955 -0.223234 1.56011 0
M  V30 813 C 82.5415 -0.949279 1.79211 0
M  V30 814 C 82.8745 -1.84054 0.619494 0
M  V30 815 O 82.1495 -1.90726 -0.381317 0
M  V30 816 C 82.4325 -1.78965 3.12479 0
M  V30 817 C 82.2855 -0.924997 4.40186 0
M  V30 818 C 83.6045 -2.76774 3.42175 0
M  V30 819 H 80.7235 -0.343676 0.651963 0
M  V30 820 H 83.3655 -0.218253 1.88742 0
M  V30 821 H 81.5155 -2.41291 3.04485 0
M  V30 822 H 83.1875 -0.318615 4.60198 0
M  V30 823 H 81.4305 -0.230344 4.33188 0
M  V30 824 H 82.1015 -1.54735 5.29869 0
M  V30 825 H 84.5775 -2.24584 3.50287 0
M  V30 826 H 83.4535 -3.32678 4.36597 0
M  V30 827 H 83.7145 -3.54429 2.64258 0
M  V30 828 N 82.7736 -1.49793 -0.48987 0
M  V30 829 C 84.0016 -1.63568 -1.26701 0
M  V30 830 C 84.4166 -0.311465 -1.86213 0
M  V30 831 O 83.7736 0.704416 -1.68357 0
M  V30 832 C 83.8246 -2.71284 -2.38929 0
M  V30 833 O 83.5456 -3.9857 -1.81861 0
M  V30 834 C 85.0466 -2.95864 -3.3012 0
M  V30 835 H 82.2666 -0.550342 -0.383881 0
M  V30 836 H 84.8106 -1.95898 -0.586864 0
M  V30 837 H 82.9656 -2.417 -3.02753 0
M  V30 838 H 83.3796 -4.57993 -2.55622 0
M  V30 839 H 84.8536 -3.74941 -4.05121 0
M  V30 840 H 85.3306 -2.06206 -3.87783 0
M  V30 841 H 85.9366 -3.26907 -2.72051 0
M  V30 842 N 84.2517 0.741722 -1.39055 0
M  V30 843 C 85.1997 1.87702 -1.3737 0
M  V30 844 C 86.1937 1.67427 -0.257812 0
M  V30 845 O 87.3997 1.7485 -0.427489 0
M  V30 846 H 83.7747 0.617757 -0.428812 0
M  V30 847 H 85.7457 1.86239 -2.33147 0
M  V30 848 C 84.4947 3.25315 -1.22741 0
M  V30 849 H 83.8177 3.41509 -2.07873 0
M  V30 850 H 85.2577 4.04964 -1.25618 0
M  V30 851 C 83.7167 3.36838 0.0647316 0
M  V30 852 O 84.2467 3.88073 1.03741 0
M  V30 853 N 82.4527 2.90329 0.125544 0
M  V30 854 H 81.9997 2.48823 -0.666682 0
M  V30 855 H 81.9577 2.98418 0.989639 0
M  V30 856 N 85.7298 1.2412 0.971189 0
M  V30 857 C 86.9598 1.10415 1.7462 0
M  V30 858 C 87.3678 -0.346462 1.86001 0
M  V30 859 O 86.7108 -1.25104 1.34517 0
M  V30 860 C 86.7728 1.66596 3.18568 0
M  V30 861 C 86.4368 3.15446 3.3067 0
M  V30 862 C 87.4338 4.12636 3.16271 0
M  V30 863 C 85.1188 3.55337 3.55022 0
M  V30 864 C 87.1128 5.47699 3.26044 0
M  V30 865 C 84.7998 4.90542 3.64434 0
M  V30 866 C 85.7978 5.86532 3.49956 0
M  V30 867 O 85.4858 7.19279 3.59017 0
M  V30 868 H 85.2178 0.386616 0.55453 0
M  V30 869 H 87.7718 1.64633 1.22821 0
M  V30 870 H 86.0018 1.06808 3.71657 0
M  V30 871 H 87.6908 1.48232 3.77865 0
M  V30 872 H 88.4568 3.8316 2.97344 0
M  V30 873 H 84.3358 2.8113 3.65359 0
M  V30 874 H 87.8798 6.22603 3.14661 0
M  V30 875 H 83.7768 5.19691 3.82873 0
M  V30 876 H 84.5448 7.27153 3.75754 0
M  V30 877 N 87.2079 -1.17134 1.05439 0
M  V30 878 C 88.4329 -1.91913 0.786396 0
M  V30 879 C 88.8579 -1.7643 -0.652234 0
M  V30 880 O 88.2159 -1.08372 -1.45345 0
M  V30 881 C 88.2639 -3.40921 1.17497 0
M  V30 882 O 87.3679 -4.11244 0.308589 0
M  V30 883 H 86.7089 -0.598215 0.288158 0
M  V30 884 H 89.2389 -1.48457 1.4079 0
M  V30 885 H 89.2489 -3.91668 1.14281 0
M  V30 886 H 87.9239 -3.5151 2.22292 0
M  V30 887 H 86.5009 -3.70731 0.40157 0
M  V30 888 N 88.686 -0.835752 -1.33615 0
M  V30 889 C 89.932 -0.430596 -1.98176 0
M  V30 890 C 90.265 1.00684 -1.66061 0
M  V30 891 O 89.54 1.70339 -0.938877 0
M  V30 892 C 89.823 -0.648065 -3.5422 0
M  V30 893 C 89.676 -2.13255 -3.96033 0
M  V30 894 C 90.995 -0.0922113 -4.40003 0
M  V30 895 H 88.114 -0.157924 -0.719881 0
M  V30 896 H 90.756 -1.05069 -1.58305 0
M  V30 897 H 88.906 -0.120237 -3.88314 0
M  V30 898 H 90.578 -2.725 -3.72211 0
M  V30 899 H 88.821 -2.61823 -3.45878 0
M  V30 900 H 89.492 -2.23547 -5.04708 0
M  V30 901 H 91.968 -0.543343 -4.12537 0
M  V30 902 H 90.844 -0.274083 -5.48215 0
M  V30 903 H 91.105 1.00378 -4.30554 0
M  V30 904 N 90.1641 1.46063 -0.591896 0
M  V30 905 C 91.1271 2.28854 0.125973 0
M  V30 906 C 92.1271 1.38903 0.810107 0
M  V30 907 O 93.3171 1.61186 0.66066 0
M  V30 908 C 90.4491 3.19526 1.1881 0
M  V30 909 H 91.6421 2.93802 -0.601717 0
M  V30 910 H 89.1951 1.52325 -0.350254 0
M  V30 911 H 89.9301 2.59345 1.94707 0
M  V30 912 H 89.7151 3.85766 0.701936 0
M  V30 913 H 91.2051 3.81817 1.69132 0
M  V30 914 N 91.6422 0.330177 1.54103 0
M  V30 915 C 92.8702 -0.272179 2.05102 0
M  V30 916 C 93.2852 -1.45267 1.20595 0
M  V30 917 O 92.6422 -1.8094 0.238144 0
M  V30 918 C 92.6932 -0.70023 3.54653 0
M  V30 919 O 92.4142 0.433301 4.35952 0
M  V30 920 C 93.9152 -1.3647 4.21771 0
M  V30 921 H 91.1352 -0.0549159 0.668749 0
M  V30 922 H 93.6792 0.478285 1.98828 0
M  V30 923 H 91.8342 -1.40066 3.61193 0
M  V30 924 H 92.2482 0.0947539 5.24414 0
M  V30 925 H 93.7222 -1.61509 5.27843 0
M  V30 926 H 94.1992 -2.31409 3.73292 0
M  V30 927 H 94.8052 -0.706675 4.19388 0
M  V30 928 N 93.1203 -1.57491 0.0584922 0
M  V30 929 C 94.0703 -2.08474 -0.923188 0
M  V30 930 C 95.0543 -0.991479 -1.26722 0
M  V30 931 O 96.2463 -1.25473 -1.24842 0
M  V30 932 C 93.3753 -2.6392 -2.19548 0
M  V30 933 C 92.4613 -3.80227 -1.87852 0
M  V30 934 N 92.8523 -4.89714 -1.26546 0
M  V30 935 C 91.1503 -3.89271 -2.17679 0
M  V30 936 C 91.8513 -5.70689 -1.12644 0
M  V30 937 N 90.8273 -5.18531 -1.63176 0
M  V30 938 H 94.6293 -2.90517 -0.444653 0
M  V30 939 H 92.1433 -1.61745 -0.145764 0
M  V30 940 H 94.1403 -2.98752 -2.9078 0
M  V30 941 H 92.8003 -1.83318 -2.68001 0
M  V30 942 H 93.8113 -5.09358 -0.936757 0
M  V30 943 H 90.4883 -3.19623 -2.68602 0
M  V30 944 H 91.8783 -6.6875 -0.6499 0
M  V30 945 N 94.5984 0.214957 -1.56127 0
M  V30 946 C 95.8444 0.939762 -1.79712 0
M  V30 947 C 96.1774 1.83723 -0.629247 0
M  V30 948 O 95.4524 1.90925 0.371197 0
M  V30 949 C 95.7354 1.77306 -3.13424 0
M  V30 950 C 95.5884 0.90164 -4.40671 0
M  V30 951 C 96.9074 2.74956 -3.43638 0
M  V30 952 H 94.0264 0.340214 -0.653776 0
M  V30 953 H 96.6684 0.20824 -1.88855 0
M  V30 954 H 94.8184 2.39673 -3.0576 0
M  V30 955 H 96.4904 0.294206 -4.60361 0
M  V30 956 H 94.7334 0.207368 -4.33304 0
M  V30 957 H 95.4044 1.51923 -5.30682 0
M  V30 958 H 97.8804 2.22724 -3.51473 0
M  V30 959 H 96.7564 3.30358 -4.38355 0
M  V30 960 H 97.0174 3.53023 -2.66134 0
M  V30 961 N 96.0765 1.50051 0.48192 0
M  V30 962 C 97.0245 1.68635 1.60203 0
M  V30 963 C 98.0185 0.552184 1.60148 0
M  V30 964 O 99.2245 0.732377 1.64427 0
M  V30 965 H 95.5995 0.532081 0.531407 0
M  V30 966 H 97.5705 2.62616 1.41688 0
M  V30 967 C 96.3195 1.78775 2.9822 0
M  V30 968 H 95.6425 2.6543 2.98976 0
M  V30 969 H 97.0825 1.95806 3.7608 0
M  V30 970 C 95.5415 0.536849 3.32595 0
M  V30 971 O 96.0715 -0.328897 4.00351 0
M  V30 972 N 94.2775 0.394091 2.87915 0
M  V30 973 H 93.8245 1.09962 2.32951 0
M  V30 974 H 93.7825 -0.441737 3.11281 0
M  V30 975 N 97.5546 -0.734337 1.39446 0
M  V30 976 C 98.8036 -1.48937 1.36017 0
M  V30 977 C 99.1166 -1.95557 -0.0409005 0
M  V30 978 O 100.323 -2.70779 -0.19778 0
M  V30 979 C 98.7786 -2.69125 2.38955 0
M  V30 980 C 98.3866 -2.29452 3.8478 0
M  V30 981 C 100.131 -3.46944 2.44603 0
M  V30 982 C 98.0376 -3.46366 4.79358 0
M  V30 983 H 96.9676 -0.559296 0.505672 0
M  V30 984 H 99.6186 -0.800983 1.65095 0
M  V30 985 H 98.0006 -3.40041 2.02948 0
M  V30 986 H 99.1746 -1.66077 4.29831 0
M  V30 987 H 97.4896 -1.64723 3.82433 0
M  V30 988 H 100.087 -4.33907 3.12456 0
M  V30 989 H 100.43 -3.89454 1.47076 0
M  V30 990 H 100.963 -2.83056 2.79507 0
M  V30 991 H 97.7016 -3.08905 5.78151 0
M  V30 992 H 97.2216 -4.08719 4.38986 0
M  V30 993 H 98.9006 -4.12691 4.98292 0
M  V30 994 N 99.0327 -1.24633 -0.964593 0
M  V30 995 C 100.258 -1.11596 -1.74818 0
M  V30 996 C 100.683 0.32723 -1.85232 0
M  V30 997 O 100.041 1.23695 -1.32549 0
M  V30 998 C 100.089 -1.76397 -3.1451 0
M  V30 999 O 99.1927 -1.03685 -3.99153 0
M  V30 1000 H 98.5337 -0.390196 -0.537255 0
M  V30 1001 H 101.064 -1.65002 -1.20977 0
M  V30 1002 H 101.074 -1.8228 -3.65018 0
M  V30 1003 H 99.7487 -2.81401 -3.06246 0
M  V30 1004 H 98.3257 -1.05611 -3.57632 0
M  V30 1005 N 100.511 1.16574 -1.06058 0
M  V30 1006 C 101.758 1.87047 -0.775873 0
M  V30 1007 C 102.086 1.81562 0.697534 0
M  V30 1008 O 101.341 1.22445 1.52662 0
M  V30 1009 C 101.64 3.36195 -1.21275 0
M  V30 1010 C 101.306 3.6188 -2.68986 0
M  V30 1011 C 99.9678 3.68599 -3.09335 0
M  V30 1012 C 102.32 3.72648 -3.64394 0
M  V30 1013 C 99.6478 3.83584 -4.43937 0
M  V30 1014 C 102 3.89154 -4.98741 0
M  V30 1015 C 100.664 3.94114 -5.3873 0
M  V30 1016 H 99.9338 0.684452 -0.283912 0
M  V30 1017 H 102.581 1.37853 -1.32925 0
M  V30 1018 H 100.886 3.87505 -0.578528 0
M  V30 1019 H 102.583 3.89103 -0.969542 0
M  V30 1020 H 99.1728 3.57281 -2.36744 0
M  V30 1021 H 103.357 3.66769 -3.34356 0
M  V30 1022 H 98.6128 3.85677 -4.74409 0
M  V30 1023 H 102.787 3.96427 -5.72554 0
M  V30 1024 H 100.414 4.05478 -6.43033 0
M  V30 1025 N 101.989 0.842826 1.3317 0
M  V30 1026 C 103.217 0.454055 2.01856 0
M  V30 1027 C 103.632 -0.94587 1.63397 0
M  V30 1028 O 102.989 -1.61534 0.849302 0
M  V30 1029 C 103.04 0.569715 3.56982 0
M  V30 1030 O 102.761 1.91448 3.94055 0
M  V30 1031 C 104.262 0.178412 4.42941 0
M  V30 1032 H 101.482 0.17979 0.646465 0
M  V30 1033 H 104.026 1.1365 1.70012 0
M  V30 1034 H 102.181 -0.0648587 3.87346 0
M  V30 1035 H 102.595 1.90282 4.88767 0
M  V30 1036 H 104.069 0.310376 5.51127 0
M  V30 1037 H 104.546 -0.880056 4.30293 0
M  V30 1038 H 105.152 0.787579 4.17944 0
M  V30 1039 N 103.467 -1.45747 0.599634 0
M  V30 1040 C 104.397 -2.33235 -0.111306 0
M  V30 1041 C 105.378 -1.46359 -0.866781 0
M  V30 1042 O 106.563 -1.75146 -0.838904 0
M  V30 1043 C 103.693 -3.28932 -1.11451 0
M  V30 1044 C 102.647 -4.25381 -0.472772 0
M  V30 1045 C 101.973 -5.1071 -1.58365 0
M  V30 1046 C 103.273 -5.18831 0.600948 0
M  V30 1047 H 104.967 -2.92927 0.61919 0
M  V30 1048 H 102.513 -1.40857 0.299215 0
M  V30 1049 H 104.466 -3.89002 -1.62036 0
M  V30 1050 H 103.19 -2.67381 -1.8755 0
M  V30 1051 H 101.849 -3.66598 0.0121472 0
M  V30 1052 H 101.497 -4.45533 -2.33473 0
M  V30 1053 H 101.197 -5.7604 -1.15982 0
M  V30 1054 H 102.721 -5.73647 -2.09194 0
M  V30 1055 H 104.135 -5.73019 0.179491 0
M  V30 1056 H 102.532 -5.92595 0.946076 0
M  V30 1057 H 103.602 -4.6174 1.48068 0
M  V30 1058 N 104.945 -0.338344 -1.53925 0
M  V30 1059 C 106.17 0.263987 -2.05713 0
M  V30 1060 C 106.595 1.43847 -1.21201 0
M  V30 1061 O 105.953 1.79904 -0.224535 0
M  V30 1062 C 106.001 0.662 -3.54471 0
M  V30 1063 O 105.105 1.76265 -3.72833 0
M  V30 1064 H 104.446 0.0448722 -0.662482 0
M  V30 1065 H 106.976 -0.491048 -1.9862 0
M  V30 1066 H 106.986 0.940594 -3.9701 0
M  V30 1067 H 105.661 -0.196937 -4.15433 0
M  V30 1068 H 104.238 1.48173 -3.42198 0
M  V30 1069 N 106.423 1.57458 -0.0668435 0
M  V30 1070 C 107.386 2.11323 0.887422 0
M  V30 1071 C 108.386 1.03618 1.22964 0
M  V30 1072 O 109.576 1.29626 1.16373 0
M  V30 1073 C 106.708 2.61048 2.19242 0
M  V30 1074 H 107.901 2.96942 0.420194 0
M  V30 1075 H 105.454 1.55239 0.181793 0
M  V30 1076 H 106.189 1.78868 2.70512 0
M  V30 1077 H 105.974 3.39769 1.95702 0
M  V30 1078 H 107.464 3.02814 2.87565 0
M  V30 1079 N 107.901 -0.206675 1.56239 0
M  V30 1080 C 109.15 -0.926964 1.79138 0
M  V30 1081 C 109.463 -1.84901 0.638043 0
M  V30 1082 O 110.669 -2.60906 0.751033 0
M  V30 1083 C 109.125 -1.6986 3.17294 0
M  V30 1084 C 108.733 -0.821956 4.40395 0
M  V30 1085 C 110.477 -2.40922 3.4951 0
M  V30 1086 C 108.384 -1.59179 5.69575 0
M  V30 1087 H 107.314 -0.349864 0.667915 0
M  V30 1088 H 109.965 -0.180487 1.8261 0
M  V30 1089 H 108.347 -2.48853 3.08039 0
M  V30 1090 H 109.521 -0.0715019 4.60745 0
M  V30 1091 H 107.836 -0.222741 4.15804 0
M  V30 1092 H 110.433 -2.99047 4.43255 0
M  V30 1093 H 110.776 -3.14542 2.72707 0
M  V30 1094 H 111.309 -1.68905 3.60161 0
M  V30 1095 H 108.048 -0.898589 6.49312 0
M  V30 1096 H 107.568 -2.31648 5.53262 0
M  V30 1097 H 109.247 -2.14862 6.10281 0
M  V30 1098 N 109.379 -1.50304 -0.473955 0
M  V30 1099 C 110.625 -1.62358 -1.22521 0
M  V30 1100 C 110.98 -0.318555 -1.89745 0
M  V30 1101 O 110.273 0.683315 -1.79001 0
M  V30 1102 C 110.467 -2.73938 -2.29549 0
M  V30 1103 C 110.296 -4.15165 -1.72825 0
M  V30 1104 C 109.066 -4.81604 -1.52924 0
M  V30 1105 C 111.264 -4.99503 -1.22481 0
M  V30 1106 N 109.246 -6.07056 -0.91413 0
M  V30 1107 C 110.617 -6.15655 -0.732743 0
M  V30 1108 C 112.672 -4.85299 -1.11308 0
M  V30 1109 C 111.375 -7.19164 -0.139976 0
M  V30 1110 C 113.401 -5.88982 -0.534258 0
M  V30 1111 C 112.763 -7.0438 -0.0525562 0
M  V30 1112 H 108.862 -0.648286 -0.437321 0
M  V30 1113 H 111.446 -1.87413 -0.527692 0
M  V30 1114 H 109.617 -2.50611 -2.9673 0
M  V30 1115 H 111.349 -2.75366 -2.96573 0
M  V30 1116 H 108.104 -4.3885 -1.78067 0
M  V30 1117 H 108.528 -6.74108 -0.625071 0
M  V30 1118 H 113.17 -3.96369 -1.47144 0
M  V30 1119 H 110.888 -8.07771 0.230591 0
M  V30 1120 H 114.474 -5.80055 -0.450219 0
M  V30 1121 H 113.354 -7.83238 0.388324 0
M  V30 1122 N 110.857 0.726932 -1.39834 0
M  V30 1123 C 111.805 1.86235 -1.39353 0
M  V30 1124 C 112.799 1.67144 -0.275555 0
M  V30 1125 O 114.005 1.74387 -0.44601 0
M  V30 1126 H 110.38 0.613174 -0.43534 0
M  V30 1127 H 112.351 1.83756 -2.35109 0
M  V30 1128 C 111.1 3.23995 -1.26185 0
M  V30 1129 H 110.423 3.39285 -2.11484 0
M  V30 1130 H 111.863 4.03609 -1.29907 0
M  V30 1131 C 110.322 3.36888 0.0290018 0
M  V30 1132 O 110.852 3.89152 0.99619 0
M  V30 1133 N 109.058 2.90446 0.0947437 0
M  V30 1134 H 108.605 2.48102 -0.693035 0
M  V30 1135 H 108.563 2.99451 0.957932 0
M  V30 1136 N 112.336 1.25143 0.95797 0
M  V30 1137 C 113.576 1.10893 1.71703 0
M  V30 1138 C 113.94 -0.34478 1.88879 0
M  V30 1139 O 115.141 -0.609014 2.6181 0
M  V30 1140 C 113.412 1.83889 3.06463 0
M  V30 1141 S 114.971 1.85491 3.97666 0
M  V30 1142 H 111.789 0.396428 0.590226 0
M  V30 1143 H 114.391 1.58618 1.14283 0
M  V30 1144 H 113.095 2.88756 2.9163 0
M  V30 1145 H 112.626 1.36538 3.68946 0
M  V30 1146 H 114.641 0.929553 4.87415 0
M  V30 1147 N 113.814 -1.1601 1.06675 0
M  V30 1148 C 115.044 -1.90251 0.805497 0
M  V30 1149 C 115.452 -1.77891 -0.64431 0
M  V30 1150 O 114.795 -1.12383 -1.45313 0
M  V30 1151 C 114.857 -3.41419 1.12576 0
M  V30 1152 C 114.521 -3.77564 2.57477 0
M  V30 1153 C 115.518 -3.79161 3.55715 0
M  V30 1154 C 113.203 -4.08079 2.92877 0
M  V30 1155 C 115.197 -4.10767 4.8739 0
M  V30 1156 C 112.884 -4.39351 4.24751 0
M  V30 1157 C 113.882 -4.40675 5.21818 0
M  V30 1158 O 113.57 -4.71202 6.51325 0
M  V30 1159 H 113.302 -0.610018 0.291297 0
M  V30 1160 H 115.856 -1.47958 1.4247 0
M  V30 1161 H 114.086 -3.84079 0.449503 0
M  V30 1162 H 115.775 -3.9694 0.84814 0
M  V30 1163 H 116.541 -3.55693 3.29708 0
M  V30 1164 H 112.42 -4.06211 2.17976 0
M  V30 1165 H 115.964 -4.11715 5.63148 0
M  V30 1166 H 111.861 -4.62285 4.50514 0
M  V30 1167 H 112.629 -4.88996 6.56373 0
M  V30 1168 N 115.292 -0.849877 -1.32721 0
M  V30 1169 C 116.517 -0.463856 -2.02146 0
M  V30 1170 C 116.942 0.930449 -1.63476 0
M  V30 1171 O 116.3 1.61033 -0.832952 0
M  V30 1172 C 116.348 -0.604955 -3.55489 0
M  V30 1173 O 115.452 0.36425 -4.10788 0
M  V30 1174 H 114.793 -0.187046 -0.637111 0
M  V30 1175 H 117.323 -1.14775 -1.69375 0
M  V30 1176 H 117.333 -0.490696 -4.05038 0
M  V30 1177 H 116.008 -1.62174 -3.82978 0
M  V30 1178 H 114.585 0.206628 -3.72327 0
M  V30 1179 N 116.77 1.45427 -0.607355 0
M  V30 1180 C 118.186 1.57283 -0.270985 0
M  V30 1181 C 118.386 1.59875 1.22647 0
M  V30 1182 O 117.442 1.52893 2.00948 0
M  V30 1183 C 118.755 2.85566 -0.941952 0
M  V30 1184 C 120.303 2.9924 -0.917849 0
M  V30 1185 C 120.778 4.30293 -1.56882 0
M  V30 1186 N 122.269 4.37051 -1.5343 0
M  V30 1187 C 123.004 5.37123 -2.00715 0
M  V30 1188 N 122.5 6.43734 -2.56084 0
M  V30 1189 N 124.293 5.28479 -1.91484 0
M  V30 1190 H 116.444 1.41988 -1.57966 0
M  V30 1191 H 118.707 0.67885 -0.661715 0
M  V30 1192 H 118.413 2.8955 -1.99633 0
M  V30 1193 H 118.287 3.74322 -0.465096 0
M  V30 1194 H 120.674 2.94822 0.127984 0
M  V30 1195 H 120.755 2.11895 -1.43297 0
M  V30 1196 H 120.399 4.35469 -2.61398 0
M  V30 1197 H 120.329 5.16454 -1.02873 0
M  V30 1198 H 122.82 3.60615 -1.12982 0
M  V30 1199 H 123.133 7.16341 -2.89958 0
M  V30 1200 H 121.478 6.44485 -2.60122 0
M  V30 1201 H 124.669 4.44098 -1.47967 0
M  V30 1202 H 124.842 6.0632 -2.28648 0
M  V30 1203 N 118.248 0.346503 1.53744 0
M  V30 1204 C 119.497 -0.250122 2.00143 0
M  V30 1205 C 119.81 -1.51418 1.23822 0
M  V30 1206 O 121.016 -2.18823 1.60713 0
M  V30 1207 C 119.472 -0.496252 3.56462 0
M  V30 1208 C 119.08 0.752077 4.41642 0
M  V30 1209 C 120.824 -1.05157 4.11269 0
M  V30 1210 C 118.731 0.476583 5.89477 0
M  V30 1211 H 117.661 -0.0972409 0.747703 0
M  V30 1212 H 120.312 0.46229 1.77581 0
M  V30 1213 H 118.694 -1.26944 3.75102 0
M  V30 1214 H 119.868 1.5266 4.34778 0
M  V30 1215 H 118.183 1.22925 3.97842 0
M  V30 1216 H 120.78 -1.27269 5.19333 0
M  V30 1217 H 121.123 -2.00799 3.64672 0
M  V30 1218 H 121.656 -0.339019 3.96353 0
M  V30 1219 H 118.395 1.4028 6.40314 0
M  V30 1220 H 117.915 -0.259794 5.99237 0
M  V30 1221 H 119.594 0.0949315 6.4693 0
M  V30 1222 N 119.726 -1.57421 0.075193 0
M  V30 1223 C 120.676 -2.09441 -0.901025 0
M  V30 1224 C 121.66 -1.00486 -1.25663 0
M  V30 1225 O 122.852 -1.2679 -1.23504 0
M  V30 1226 C 119.981 -2.66233 -2.16737 0
M  V30 1227 C 119.067 -3.82198 -1.83808 0
M  V30 1228 N 119.458 -4.91028 -1.21345 0
M  V30 1229 C 117.756 -3.91558 -2.13538 0
M  V30 1230 C 118.457 -5.71852 -1.06585 0
M  V30 1231 N 117.433 -5.20233 -1.57667 0
M  V30 1232 H 121.235 -2.90972 -0.413815 0
M  V30 1233 H 118.749 -1.6189 -0.128601 0
M  V30 1234 H 120.746 -3.01819 -2.87595 0
M  V30 1235 H 119.406 -1.8615 -2.66042 0
M  V30 1236 H 120.417 -5.10323 -0.88268 0
M  V30 1237 H 117.094 -3.22454 -2.65197 0
M  V30 1238 H 118.484 -6.69401 -0.578933 0
M  V30 1239 N 121.204 0.198386 -1.56346 0
M  V30 1240 C 122.432 0.935572 -1.84539 0
M  V30 1241 C 122.847 1.76989 -0.657281 0
M  V30 1242 O 122.204 1.78626 0.374043 0
M  V30 1243 C 122.255 1.8344 -3.11499 0
M  V30 1244 O 121.976 1.03377 -4.25728 0
M  V30 1245 C 123.477 2.68355 -3.52846 0
M  V30 1246 H 120.697 0.273126 -0.612897 0
M  V30 1247 H 123.241 0.20663 -2.03453 0
M  V30 1248 H 121.396 2.51701 -2.94492 0
M  V30 1249 H 121.81 1.64599 -4.98003 0
M  V30 1250 H 123.284 3.27085 -4.44657 0
M  V30 1251 H 123.761 3.41901 -2.75681 0
M  V30 1252 H 124.367 2.05471 -3.72373 0
M  V30 1253 N 122.682 1.50554 0.465978 0
M  V30 1254 C 123.929 1.61798 1.21768 0
M  V30 1255 C 124.257 0.320696 1.91838 0
M  V30 1256 O 123.512 -0.693724 1.82992 0
M  V30 1257 C 123.811 2.75152 2.28093 0
M  V30 1258 C 123.477 4.15454 1.75239 0
M  V30 1259 C 122.139 4.53628 1.60546 0
M  V30 1260 C 124.491 5.03121 1.36083 0
M  V30 1261 C 121.819 5.77204 1.05128 0
M  V30 1262 C 124.171 6.27249 0.821056 0
M  V30 1263 C 122.835 6.64221 0.660795 0
M  V30 1264 H 122.105 0.592063 0.445582 0
M  V30 1265 H 124.752 1.84503 0.512927 0
M  V30 1266 H 123.057 2.46556 3.04496 0
M  V30 1267 H 124.754 2.81055 2.86023 0
M  V30 1268 H 121.344 3.85341 1.87644 0
M  V30 1269 H 125.528 4.74257 1.46267 0
M  V30 1270 H 120.784 6.0452 0.91462 0
M  V30 1271 H 124.958 6.94537 0.509018 0
M  V30 1272 H 122.585 7.59854 0.229226 0
M  V30 1273 N 124.16 -0.719506 1.40217 0
M  V30 1274 C 125.108 -1.85493 1.40339 0
M  V30 1275 C 126.102 -1.66995 0.284415 0
M  V30 1276 O 127.308 -1.74148 0.455252 0
M  V30 1277 H 123.683 -0.610857 0.438586 0
M  V30 1278 H 125.654 -1.82506 2.36081 0
M  V30 1279 C 124.403 -3.23321 1.27901 0
M  V30 1280 H 123.726 -3.38159 2.1328 0
M  V30 1281 H 125.166 -4.02914 1.32045 0
M  V30 1282 C 123.625 -3.36898 -0.0111355 0
M  V30 1283 O 124.155 -3.89674 -0.975538 0
M  V30 1284 N 122.361 -2.90492 -0.0793393 0
M  V30 1285 H 121.908 -2.47731 0.706183 0
M  V30 1286 H 121.866 -2.99955 -0.942038 0
M  V30 1287 N 125.638 -1.25649 -0.95132 0
M  V30 1288 C 126.878 -1.11802 -1.71113 0
M  V30 1289 C 127.242 0.334758 -1.89059 0
M  V30 1290 O 128.443 0.595121 -2.62129 0
M  V30 1291 C 126.714 -1.85512 -3.05483 0
M  V30 1292 S 128.273 -1.87597 -3.96677 0
M  V30 1293 H 125.091 -0.399552 -0.588115 0
M  V30 1294 H 127.693 -1.59222 -1.1344 0
M  V30 1295 H 126.397 -2.90299 -2.90094 0
M  V30 1296 H 125.928 -1.38493 -3.68216 0
M  V30 1297 H 127.943 -0.955389 -4.86916 0
M  V30 1298 N 127.117 1.15442 -1.07289 0
M  V30 1299 C 128.067 2.18164 -0.662467 0
M  V30 1300 C 129.051 1.57845 0.312074 0
M  V30 1301 O 130.243 1.76552 0.125905 0
M  V30 1302 C 127.372 3.43246 -0.0611295 0
M  V30 1303 C 126.458 4.1062 -1.06077 0
M  V30 1304 N 126.849 4.53491 -2.24008 0
M  V30 1305 C 125.147 4.36949 -0.893964 0
M  V30 1306 C 125.848 5.05731 -2.87422 0
M  V30 1307 N 124.824 4.99236 -2.15091 0
M  V30 1308 H 128.626 2.49038 -1.56068 0
M  V30 1309 H 126.14 1.32003 -0.945988 0
M  V30 1310 H 128.137 4.16145 0.250792 0
M  V30 1311 H 126.797 3.13854 0.832207 0
M  V30 1312 H 127.808 4.46898 -2.6173 0
M  V30 1313 H 124.485 4.17466 -0.0534693 0
M  V30 1314 H 125.875 5.48865 -3.87553 0
M  V30 1315 N 128.595 0.856903 1.32268 0
M  V30 1316 C 129.545 0.274899 2.26337 0
M  V30 1317 C 130.529 -0.580543 1.50062 0
M  V30 1318 O 131.721 -0.429559 1.71708 0
M  V30 1319 C 128.85 -0.533841 3.39124 0
M  V30 1320 C 127.936 0.334114 4.22782 0
M  V30 1321 N 128.327 1.42143 4.85416 0
M  V30 1322 C 126.625 0.124256 4.45827 0
M  V30 1323 C 127.326 1.95559 5.47843 0
M  V30 1324 N 126.302 1.25444 5.28928 0
M  V30 1325 H 130.104 1.10612 2.72291 0
M  V30 1326 H 127.618 0.703258 1.46383 0
M  V30 1327 H 129.615 -0.96722 4.05525 0
M  V30 1328 H 128.275 -1.36283 2.94715 0
M  V30 1329 H 129.286 1.80436 4.85451 0
M  V30 1330 H 125.963 -0.669837 4.12092 0
M  V30 1331 H 127.353 2.86714 6.07655 0
M  V30 1332 N 130.073 -1.45103 0.615059 0
M  V30 1333 C 131.036 -2.29025 -0.0895485 0
M  V30 1334 C 132.036 -1.40174 -0.787906 0
M  V30 1335 O 133.226 -1.62217 -0.634933 0
M  V30 1336 C 130.358 -3.21376 -1.13711 0
M  V30 1337 H 131.551 -2.92807 0.648382 0
M  V30 1338 H 129.104 -1.51749 0.374444 0
M  V30 1339 H 129.839 -2.6241 -1.90556 0
M  V30 1340 H 129.624 -3.86834 -0.640475 0
M  V30 1341 H 131.114 -3.84459 -1.63036 0
M  V30 1342 N 131.551 -0.354651 -1.53558 0
M  V30 1343 C 132.967 -0.00315426 -1.596 0
M  V30 1344 C 133.167 1.47741 -1.37021 0
M  V30 1345 O 132.223 2.23759 -1.16996 0
M  V30 1346 C 133.536 -0.44929 -2.97325 0
M  V30 1347 C 135.084 -0.402578 -3.104 0
M  V30 1348 C 135.559 -0.824355 -4.5052 0
M  V30 1349 N 137.05 -0.778979 -4.56603 0
M  V30 1350 C 137.785 -1.07715 -5.63192 0
M  V30 1351 N 137.281 -1.44405 -6.77583 0
M  V30 1352 N 139.074 -1.00066 -5.53121 0
M  V30 1353 H 131.225 -1.31893 -1.66487 0
M  V30 1354 H 133.488 -0.538388 -0.780284 0
M  V30 1355 H 133.194 -1.48202 -3.1895 0
M  V30 1356 H 133.068 0.169772 -3.76818 0
M  V30 1357 H 135.455 0.621004 -2.88492 0
M  V30 1358 H 135.536 -1.05699 -2.32941 0
M  V30 1359 H 135.18 -1.846 -4.73165 0
M  V30 1360 H 135.11 -0.147304 -5.26394 0
M  V30 1361 H 137.601 -0.508528 -3.74463 0
M  V30 1362 H 137.914 -1.65612 -7.54846 0
M  V30 1363 H 136.259 -1.4826 -6.79002 0
M  V30 1364 H 139.45 -0.713293 -4.62633 0
M  V30 1365 H 139.623 -1.23638 -6.36096 0
M  V30 1366 N 133.029 1.57378 -0.0835403 0
M  V30 1367 C 134.44 1.81261 0.447358 0
M  V30 1368 C 134.791 0.998331 1.68902 0
M  V30 1369 O 133.916 0.224282 2.15235 0
M  V30 1370 C 134.511 3.28767 0.818386 0
M  V30 1371 C 133.07 3.53455 1.29409 0
M  V30 1372 C 132.217 2.75831 0.285024 0
M  V30 1373 H 135.168 1.5566 -0.309115 0
M  V30 1374 H 135.189 3.41459 1.67887 0
M  V30 1375 H 134.701 3.88006 -0.0855019 0
M  V30 1376 H 132.802 2.99534 2.21608 0
M  V30 1377 H 132.915 4.62128 1.2639 0
M  V30 1378 H 131.279 2.42947 0.764767 0
M  V30 1379 H 132.062 3.37813 -0.611341 0
M  V30 1380 N 134.507 -0.190092 1.56449 0
M  V30 1381 C 135.753 -0.906472 1.82084 0
M  V30 1382 C 136.108 -1.80677 0.661335 0
M  V30 1383 O 135.401 -1.88501 -0.343237 0
M  V30 1384 C 135.595 -1.75382 3.1141 0
M  V30 1385 C 135.424 -0.937053 4.39829 0
M  V30 1386 C 134.194 -0.619507 5.01488 0
M  V30 1387 C 136.392 -0.2874 5.13496 0
M  V30 1388 N 134.374 0.215367 6.13522 0
M  V30 1389 C 135.745 0.409454 6.18646 0
M  V30 1390 C 137.8 -0.203639 4.97483 0
M  V30 1391 C 136.503 1.1821 7.0952 0
M  V30 1392 C 138.529 0.555622 5.88784 0
M  V30 1393 C 137.891 1.24091 6.93384 0
M  V30 1394 H 133.99 -0.310931 0.717528 0
M  V30 1395 H 136.574 -0.174821 1.93914 0
M  V30 1396 H 134.745 -2.45703 3.00806 0
M  V30 1397 H 136.477 -2.41006 3.25112 0
M  V30 1398 H 133.232 -0.945126 4.64074 0
M  V30 1399 H 133.656 0.622562 6.74131 0
M  V30 1400 H 138.298 -0.719099 4.1664 0
M  V30 1401 H 136.016 1.70897 7.89823 0
M  V30 1402 H 139.602 0.621854 5.78467 0
M  V30 1403 H 138.482 1.81901 7.62812 0
M  V30 1404 N 135.985 -1.50799 -0.457987 0
M  V30 1405 C 136.935 -1.67003 -1.55222 0
M  V30 1406 C 137.919 -0.52434 -1.52117 0
M  V30 1407 O 139.111 -0.779345 -1.58919 0
M  V30 1408 C 136.24 -1.77956 -2.93576 0
M  V30 1409 C 135.326 -2.98243 -3.01516 0
M  V30 1410 N 135.717 -4.21732 -2.79241 0
M  V30 1411 C 134.015 -2.97072 -3.32662 0
M  V30 1412 C 134.716 -5.02817 -2.92489 0
M  V30 1413 N 133.692 -4.37038 -3.23262 0
M  V30 1414 H 137.494 -2.60163 -1.36721 0
M  V30 1415 H 135.008 -1.48163 -0.664952 0
M  V30 1416 H 137.005 -1.87671 -3.72271 0
M  V30 1417 H 135.665 -0.859634 -3.13114 0
M  V30 1418 H 136.676 -4.51016 -2.54567 0
M  V30 1419 H 133.353 -2.14631 -3.58106 0
M  V30 1420 H 134.743 -6.11054 -2.79396 0
M  V30 1421 N 137.463 0.71206 -1.40597 0
M  V30 1422 C 138.411 1.84746 -1.41321 0
M  V30 1423 C 139.405 1.66842 -0.293268 0
M  V30 1424 O 140.611 1.73904 -0.464481 0
M  V30 1425 H 136.986 0.608522 -0.441819 0
M  V30 1426 H 138.957 1.81252 -2.37045 0
M  V30 1427 C 137.706 3.22638 -1.29614 0
M  V30 1428 H 137.029 3.37023 -2.15071 0
M  V30 1429 H 138.469 4.02209 -1.3418 0
M  V30 1430 C 136.928 3.36899 -0.00673121 0
M  V30 1431 O 137.458 3.90186 0.954859 0
M  V30 1432 N 135.664 2.9053 0.0639327 0
M  V30 1433 H 135.211 2.47353 -0.719311 0
M  V30 1434 H 135.169 3.0045 0.926118 0
M  V30 1435 N 138.941 1.26152 0.944643 0
M  V30 1436 C 139.873 1.03199 2.04652 0
M  V30 1437 C 140.886 -0.00642356 1.62799 0
M  V30 1438 O 142.075 0.233263 1.76969 0
M  V30 1439 C 139.175 0.540111 3.34568 0
M  V30 1440 C 138.348 1.64697 4.05208 0
M  V30 1441 C 137.407 1.15374 5.13396 0
M  V30 1442 O 136.433 1.85013 5.38293 0
M  V30 1443 N 137.635 0.00031529 5.805 0
M  V30 1444 H 140.4 1.9808 2.2491 0
M  V30 1445 H 137.961 1.17491 1.11389 0
M  V30 1446 H 139.953 0.194401 4.04233 0
M  V30 1447 H 138.523 -0.315021 3.11009 0
M  V30 1448 H 137.743 2.16379 3.29506 0
M  V30 1449 H 139.031 2.3903 4.49157 0
M  V30 1450 H 138.429 -0.581336 5.62705 0
M  V30 1451 H 136.986 -0.286346 6.51171 0
M  V30 1452 N 140.419 -1.14872 1.07899 0
M  V30 1453 C 141.666 -1.85789 0.805532 0
M  V30 1454 C 141.994 -1.82649 -0.668561 0
M  V30 1455 O 141.249 -1.24858 -1.50695 0
M  V30 1456 C 141.548 -3.34223 1.26609 0
M  V30 1457 C 141.214 -3.57555 2.74709 0
M  V30 1458 C 139.876 -3.63631 3.1516 0
M  V30 1459 C 142.228 -3.66803 3.70277 0
M  V30 1460 C 139.556 -3.76473 4.49983 0
M  V30 1461 C 141.908 -3.8117 5.04869 0
M  V30 1462 C 140.572 -3.85494 5.44932 0
M  V30 1463 H 139.842 -0.679849 0.294765 0
M  V30 1464 H 142.489 -1.3572 1.35101 0
M  V30 1465 H 140.794 -3.86536 0.640103 0
M  V30 1466 H 142.491 -3.87511 1.03132 0
M  V30 1467 H 139.081 -3.5347 2.42398 0
M  V30 1468 H 143.265 -3.61404 3.40149 0
M  V30 1469 H 138.521 -3.7808 4.80484 0
M  V30 1470 H 142.695 -3.87268 5.78789 0
M  V30 1471 H 140.322 -3.95197 6.49403 0
M  V30 1472 N 141.898 -0.863906 -1.31812 0
M  V30 1473 C 143.144 -0.472535 -1.97218 0
M  V30 1474 C 143.477 0.971394 -1.68159 0
M  V30 1475 O 142.752 1.68309 -0.974798 0
M  V30 1476 C 143.035 -0.723054 -3.52766 0
M  V30 1477 C 142.888 -2.21608 -3.91421 0
M  V30 1478 C 144.207 -0.185522 -4.39709 0
M  V30 1479 H 141.326 -0.173158 -0.71637 0
M  V30 1480 H 143.968 -1.08403 -1.56041 0
M  V30 1481 H 142.118 -0.202577 -3.87971 0
M  V30 1482 H 143.79 -2.80334 -3.66347 0
M  V30 1483 H 142.033 -2.691 -3.40246 0
M  V30 1484 H 142.704 -2.34203 -4.99853 0
M  V30 1485 H 145.18 -0.630726 -4.11292 0
M  V30 1486 H 144.056 -0.390306 -5.47511 0
M  V30 1487 H 144.317 0.912229 -4.32586 0
M  V30 1488 N 143.376 1.44774 -0.622745 0
M  V30 1489 C 144.308 2.28856 0.125485 0
M  V30 1490 C 145.321 1.40811 0.817069 0
M  V30 1491 O 146.51 1.65044 0.679918 0
M  V30 1492 C 143.61 3.16963 1.19949 0
M  V30 1493 C 142.783 4.33374 0.592064 0
M  V30 1494 C 141.842 5.02577 1.55893 0
M  V30 1495 O 140.868 5.58873 1.07933 0
M  V30 1496 N 142.07 5.03256 2.89334 0
M  V30 1497 H 144.835 2.93713 -0.596068 0
M  V30 1498 H 142.396 1.55129 -0.463303 0
M  V30 1499 H 144.388 3.60123 1.84644 0
M  V30 1500 H 142.958 2.53913 1.82337 0
M  V30 1501 H 142.178 3.93509 -0.233322 0
M  V30 1502 H 143.466 5.08527 0.166738 0
M  V30 1503 H 142.864 4.58836 3.30887 0
M  V30 1504 H 141.421 5.50232 3.49412 0
M  V30 1505 N 144.854 0.36279 1.53368 0
M  V30 1506 C 146.1 -0.220702 2.02199 0
M  V30 1507 C 146.455 -1.46649 1.24546 0
M  V30 1508 O 145.748 -1.88737 0.32996 0
M  V30 1509 C 145.942 -0.568417 3.52851 0
M  V30 1510 C 145.771 0.642126 4.45092 0
M  V30 1511 C 144.541 1.15335 4.91961 0
M  V30 1512 C 146.739 1.50649 4.91741 0
M  V30 1513 N 144.721 2.3242 5.68202 0
M  V30 1514 C 146.092 2.52404 5.66297 0
M  V30 1515 C 148.147 1.52969 4.73819 0
M  V30 1516 C 146.85 3.56331 6.24836 0
M  V30 1517 C 148.876 2.55789 5.33222 0
M  V30 1518 C 148.238 3.56268 6.07662 0
M  V30 1519 H 144.337 -0.0435508 0.780786 0
M  V30 1520 H 146.921 0.506704 1.87991 0
M  V30 1521 H 145.092 -1.2649 3.67226 0
M  V30 1522 H 146.824 -1.13676 3.88407 0
M  V30 1523 H 143.579 0.718412 4.68119 0
M  V30 1524 H 144.003 2.91591 6.10986 0
M  V30 1525 H 148.645 0.766418 4.15795 0
M  V30 1526 H 146.363 4.33543 6.81958 0
M  V30 1527 H 149.949 2.58435 5.21251 0
M  V30 1528 H 148.829 4.34524 6.52808 0
M  V30 1529 N 146.332 -1.57332 0.0918853 0
M  V30 1530 C 147.28 -2.15075 -0.885747 0
M  V30 1531 C 148.274 -1.09277 -1.29441 0
M  V30 1532 O 149.48 -1.27627 -1.26931 0
M  V30 1533 H 145.855 -0.687966 -0.303656 0
M  V30 1534 H 147.826 -2.96047 -0.373995 0
M  V30 1535 C 146.575 -2.74325 -2.13638 0
M  V30 1536 H 145.898 -3.55418 -1.8308 0
M  V30 1537 H 147.338 -3.183 -2.80109 0
M  V30 1538 C 145.797 -1.70062 -2.90827 0
M  V30 1539 O 146.327 -1.13763 -3.85254 0
M  V30 1540 N 144.533 -1.40628 -2.54307 0
M  V30 1541 H 144.08 -1.866 -1.7759 0
M  V30 1542 H 144.038 -0.711043 -3.06254 0
M  V30 1543 N 147.81 0.181792 -1.56548 0
M  V30 1544 C 149.221 0.745244 -1.71181 0
M  V30 1545 C 149.572 1.83262 -0.70068 0
M  V30 1546 O 148.697 2.15946 0.140154 0
M  V30 1547 C 149.292 1.35859 -3.10367 0
M  V30 1548 C 147.851 1.86898 -3.2672 0
M  V30 1549 C 146.998 0.743942 -2.67134 0
M  V30 1550 H 149.949 -0.0434661 -1.5864 0
M  V30 1551 H 149.97 2.22817 -3.08436 0
M  V30 1552 H 149.482 0.566948 -3.83937 0
M  V30 1553 H 147.583 2.68738 -2.5809 0
M  V30 1554 H 147.696 2.02162 -4.34359 0
M  V30 1555 H 146.06 1.16169 -2.26665 0
M  V30 1556 H 146.843 -0.035676 -3.43281 0
M  V30 1557 N 149.288 1.51039 0.449983 0
M  V30 1558 C 150.565 1.53612 1.21089 0
M  V30 1559 C 150.945 0.292997 2.09057 0
M  V30 1560 O 150.293 -0.72259 2.16774 0
M  V30 1561 C 150.503 2.84337 2.0237 0
M  V30 1562 C 151.851 3.35807 2.59843 0
M  V30 1563 O 152.875 2.85802 2.12593 0
M  V30 1564 O 151.734 4.23029 3.45989 0
M  V30 1565 H 148.828 0.617057 0.550608 0
M  V30 1566 H 151.374 1.63344 0.460082 0
M  V30 1567 H 150.146 3.66278 1.37681 0
M  V30 1568 H 149.769 2.77708 2.84542 0
M  V30 1569 N 150.766 -0.704594 1.40972 0
M  V30 1570 C 151.676 -1.84856 1.44448 0
M  V30 1571 C 152.692 -1.70726 0.335961 0
M  V30 1572 O 153.868 -1.92799 0.582276 0
M  V30 1573 C 150.933 -3.20758 1.31587 0
M  V30 1574 C 149.994 -3.47063 2.52677 0
M  V30 1575 C 149.227 -4.76481 2.4042 0
M  V30 1576 O 149.45 -5.52341 1.42391 0
M  V30 1577 O 148.384 -5.03367 3.30007 0
M  V30 1578 H 152.21 -1.8488 2.40942 0
M  V30 1579 H 149.795 -0.85647 1.22413 0
M  V30 1580 H 151.677 -4.01913 1.26665 0
M  V30 1581 H 150.352 -3.21438 0.382049 0
M  V30 1582 H 149.259 -2.65873 2.63177 0
M  V30 1583 H 150.592 -3.5119 3.44858 0
M  V30 1584 N 152.244 -1.26651 -0.937939 0
M  V30 1585 C 153.484 -1.13611 -1.69917 0
M  V30 1586 C 153.848 0.314687 -1.89404 0
M  V30 1587 O 155.049 0.567285 -2.62746 0
M  V30 1588 C 153.32 -1.88742 -3.03498 0
M  V30 1589 S 154.879 -1.91794 -3.94665 0
M  V30 1590 H 151.697 -0.405767 -0.583844 0
M  V30 1591 H 154.299 -1.60416 -1.11745 0
M  V30 1592 H 153.003 -2.9336 -2.86999 0
M  V30 1593 H 152.534 -1.42391 -3.66727 0
M  V30 1594 H 154.549 -1.00698 -4.85875 0
M  V30 1595 N 153.722 1.14298 -1.08507 0
M  V30 1596 C 154.97 1.84993 -0.813763 0
M  V30 1597 C 155.291 1.83405 0.662393 0
M  V30 1598 O 154.561 1.28319 1.48024 0
M  V30 1599 H 153.141 0.684966 -0.298045 0
M  V30 1600 H 155.803 1.385 -1.37126 0
M  V30 1601 H 154.899 2.89788 -1.15884 0
M  V30 1602 N 155.201 0.870884 1.31352 0
M  V30 1603 C 156.449 0.48132 1.96285 0
M  V30 1604 C 156.77 -0.969813 1.69173 0
M  V30 1605 O 156.04 -1.67998 1.00764 0
M  V30 1606 H 154.62 0.175002 0.726212 0
M  V30 1607 H 157.282 1.11087 1.60143 0
M  V30 1608 H 156.378 0.639825 3.05471 0
M  V30 1609 N 156.679 -1.44442 0.630414 0
M  V30 1610 C 157.928 -2.01267 0.132073 0
M  V30 1611 C 158.241 -1.50172 -1.25331 0
M  V30 1612 O 159.447 -1.9912 -1.84562 0
M  V30 1613 C 157.903 -3.59422 0.185362 0
M  V30 1614 C 157.511 -4.19514 1.57201 0
M  V30 1615 C 159.255 -4.23724 -0.256553 0
M  V30 1616 C 157.162 -5.69891 1.58045 0
M  V30 1617 H 156.092 -0.752619 0.0456092 0
M  V30 1618 H 158.743 -1.65666 0.789106 0
M  V30 1619 H 157.125 -3.92318 -0.538759 0
M  V30 1620 H 158.299 -3.98156 2.31966 0
M  V30 1621 H 156.614 -3.67496 1.95795 0
M  V30 1622 H 159.211 -5.34019 -0.269767 0
M  V30 1623 H 159.554 -3.96013 -1.28372 0
M  V30 1624 H 160.087 -3.95629 0.41505 0
M  V30 1625 H 156.826 -6.02336 2.58597 0
M  V30 1626 H 156.346 -5.93373 0.875725 0
M  V30 1627 H 158.025 -6.33515 1.31408 0
M  V30 1628 N 158.157 -0.370918 -1.53173 0
M  V30 1629 C 159.104 0.473035 -2.259 0
M  V30 1630 C 160.074 1.07311 -1.26781 0
M  V30 1631 O 161.259 1.1046 -1.55574 0
M  V30 1632 C 158.399 1.60405 -3.05556 0
M  V30 1633 C 157.512 1.02863 -4.19575 0
M  V30 1634 C 156.647 2.12918 -4.86661 0
M  V30 1635 C 155.686 1.52869 -5.92704 0
M  V30 1636 N 154.823 2.56779 -6.53459 0
M  V30 1637 H 159.663 -0.153649 -2.97604 0
M  V30 1638 H 157.2 -0.0875946 -1.46839 0
M  V30 1639 H 159.158 2.27034 -3.50016 0
M  V30 1640 H 157.788 2.20131 -2.36097 0
M  V30 1641 H 156.84 0.252465 -3.79561 0
M  V30 1642 H 158.152 0.549642 -4.95762 0
M  V30 1643 H 157.306 2.87356 -5.34333 0
M  V30 1644 H 156.045 2.6417 -4.09958 0
M  V30 1645 H 155.05 0.769479 -5.44389 0
M  V30 1646 H 156.275 1.02435 -6.7133 0
M  V30 1647 H 154.221 3.07235 -5.79606 0
M  V30 1648 H 154.138 2.13583 -7.25202 0
M  V30 1649 H 155.406 3.30903 -7.05779 0
M  V30 1650 N 159.635 1.57281 -0.100228 0
M  V30 1651 C 160.582 2.14305 0.856858 0
M  V30 1652 C 161.552 1.06296 1.27634 0
M  V30 1653 O 162.737 1.34109 1.35718 0
M  V30 1654 C 159.877 2.73184 2.10866 0
M  V30 1655 C 158.99 3.95442 1.73925 0
M  V30 1656 C 158.125 4.42468 2.93931 0
M  V30 1657 C 157.164 5.57303 2.5314 0
M  V30 1658 N 156.301 5.99158 3.65997 0
M  V30 1659 H 161.141 2.95772 0.363726 0
M  V30 1660 H 158.678 1.46139 0.167858 0
M  V30 1661 H 160.636 3.05442 2.84185 0
M  V30 1662 H 159.266 1.94437 2.57671 0
M  V30 1663 H 158.318 3.69464 0.905554 0
M  V30 1664 H 159.63 4.78769 1.39935 0
M  V30 1665 H 158.784 4.76537 3.75496 0
M  V30 1666 H 157.523 3.58052 3.31134 0
M  V30 1667 H 156.528 5.22857 1.70003 0
M  V30 1668 H 157.753 6.43471 2.17075 0
M  V30 1669 H 155.699 5.17687 4.02909 0
M  V30 1670 H 155.616 6.77295 3.35869 0
M  V30 1671 H 156.884 6.3786 4.48057 0
M  V30 1672 N 161.113 -0.173488 1.56642 0
M  V30 1673 C 162.338 -0.910149 1.86363 0
M  V30 1674 C 162.763 -1.75132 0.686318 0
M  V30 1675 O 162.121 -1.77595 -0.364643 0
M  V30 1676 C 162.169 -1.76447 3.14482 0
M  V30 1677 O 161.273 -2.86584 2.96553 0
M  V30 1678 H 160.614 -0.255086 0.613047 0
M  V30 1679 H 163.144 -0.172283 2.03873 0
M  V30 1680 H 163.154 -2.16483 3.45831 0
M  V30 1681 H 161.829 -1.14658 3.99783 0
M  V30 1682 H 160.406 -2.50146 2.76553 0
M  V30 1683 N 162.591 -1.51276 -0.441967 0
M  V30 1684 C 163.839 -1.63392 -1.18943 0
M  V30 1685 C 164.16 -0.350159 -1.9183 0
M  V30 1686 O 163.43 0.633784 -1.85364 0
M  V30 1687 H 162.01 -0.602164 -0.442049 0
M  V30 1688 H 164.672 -1.88186 -0.507165 0
M  V30 1689 H 163.768 -2.45934 -1.92154 0
M  V30 1690 N 164.069 0.697108 -1.41344 0
M  V30 1691 C 165.002 1.82134 -1.37486 0
M  V30 1692 C 165.98 1.60784 -0.242351 0
M  V30 1693 O 167.164 1.83553 -0.429012 0
M  V30 1694 C 164.291 3.18788 -1.14421 0
M  V30 1695 C 163.337 3.58932 -2.3037 0
M  V30 1696 S 164.17 3.63916 -3.92843 0
M  V30 1697 C 165.326 5.03298 -3.72078 0
M  V30 1698 H 165.559 1.85129 -2.32625 0
M  V30 1699 H 163.092 0.865671 -1.2785 0
M  V30 1700 H 165.05 3.97677 -1.018 0
M  V30 1701 H 163.711 3.13404 -0.20905 0
M  V30 1702 H 162.904 4.58202 -2.09922 0
M  V30 1703 H 162.506 2.87347 -2.39391 0
M  V30 1704 H 164.798 5.90753 -3.31688 0
M  V30 1705 H 165.741 5.28788 -4.70945 0
M  V30 1706 H 166.149 4.74764 -3.05384 0
M  V30 1707 N 165.547 1.27147 0.931209 0
M  V30 1708 C 166.51 1.09615 2.01289 0
M  V30 1709 C 167.51 0.0412581 1.60747 0
M  V30 1710 O 168.7 0.285545 1.71844 0
M  V30 1711 C 165.832 0.669447 3.34262 0
M  V30 1712 H 167.025 2.05662 2.18273 0
M  V30 1713 H 164.578 1.09885 1.11153 0
M  V30 1714 H 165.313 -0.292572 3.22978 0
M  V30 1715 H 165.098 1.43127 3.65044 0
M  V30 1716 H 166.588 0.568921 4.13706 0
M  V30 1717 N 167.025 -1.13721 1.09112 0
M  V30 1718 C 168.253 -1.88773 0.846899 0
M  V30 1719 C 168.668 -1.7896 -0.601572 0
M  V30 1720 O 168.025 -1.15394 -1.41388 0
M  V30 1721 C 168.076 -3.3849 1.26913 0
M  V30 1722 O 167.797 -3.48043 2.66079 0
M  V30 1723 C 169.298 -4.30518 1.05682 0
M  V30 1724 H 166.518 -0.59772 0.304914 0
M  V30 1725 H 169.062 -1.43977 1.45227 0
M  V30 1726 H 167.217 -3.80881 0.707723 0
M  V30 1727 H 167.631 -4.4109 2.83795 0
M  V30 1728 H 169.105 -5.3391 1.40156 0
M  V30 1729 H 169.582 -4.392 -0.00563416 0
M  V30 1730 H 170.188 -3.93893 1.60402 0
M  V30 1731 N 168.503 -0.877838 -1.30888 0
M  V30 1732 C 169.413 -0.343096 -2.32078 0
M  V30 1733 C 170.429 0.551022 -1.65045 0
M  V30 1734 O 171.605 0.445854 -1.96403 0
M  V30 1735 C 168.67 0.439905 -3.43898 0
M  V30 1736 C 167.731 -0.483111 -4.26573 0
M  V30 1737 C 166.964 0.262616 -5.33053 0
M  V30 1738 O 167.187 1.48967 -5.50604 0
M  V30 1739 O 166.121 -0.383593 -6.00676 0
M  V30 1740 H 169.947 -1.18203 -2.79753 0
M  V30 1741 H 167.532 -0.64145 -1.34929 0
M  V30 1742 H 169.414 0.883504 -4.12034 0
M  V30 1743 H 168.089 1.25526 -2.98371 0
M  V30 1744 H 166.996 -0.975374 -3.61161 0
M  V30 1745 H 168.329 -1.26427 -4.75686 0
M  V30 1746 N 169.982 1.44106 -0.638065 0
M  V30 1747 C 170.93 2.3248 0.0748149 0
M  V30 1748 C 171.924 1.47746 0.828702 0
M  V30 1749 O 173.13 1.64049 0.740816 0
M  V30 1750 H 169.505 0.750771 0.0429686 0
M  V30 1751 H 171.476 2.90348 -0.688504 0
M  V30 1752 C 170.225 3.31843 1.03805 0
M  V30 1753 H 169.548 3.97059 0.467375 0
M  V30 1754 H 170.988 3.96345 1.50622 0
M  V30 1755 C 169.447 2.61291 2.1267 0
M  V30 1756 O 169.977 2.41702 3.20847 0
M  V30 1757 N 168.183 2.20915 1.88798 0
M  V30 1758 H 167.73 2.37047 1.00829 0
M  V30 1759 H 167.688 1.74038 2.61836 0
M  V30 1760 N 171.46 0.379036 1.52974 0
M  V30 1761 C 172.39 -0.452706 2.29069 0
M  V30 1762 C 173.371 -1.07237 1.32039 0
M  V30 1763 O 174.556 -1.08708 1.60923 0
M  V30 1764 C 171.686 -1.5856 3.08992 0
M  V30 1765 C 170.64 -1.0925 4.13822 0
M  V30 1766 C 169.966 -2.31668 4.81907 0
M  V30 1767 C 171.266 -0.167702 5.22031 0
M  V30 1768 H 172.96 0.182181 2.98845 0
M  V30 1769 H 170.506 0.0890592 1.43724 0
M  V30 1770 H 172.459 -2.1742 3.6098 0
M  V30 1771 H 171.183 -2.24792 2.36931 0
M  V30 1772 H 169.842 -0.526494 3.628 0
M  V30 1773 H 169.49 -2.96386 4.06404 0
M  V30 1774 H 169.19 -1.9934 5.52754 0
M  V30 1775 H 170.714 -2.91189 5.36695 0
M  V30 1776 H 172.128 -0.664186 5.6944 0
M  V30 1777 H 170.525 0.0653265 6.00064 0
M  V30 1778 H 171.595 0.786347 4.78482 0
M  V30 1779 N 172.938 -1.57226 0.108567 0
M  V30 1780 C 174.184 -1.95919 -0.546564 0
M  V30 1781 C 174.539 -0.990417 -1.6495 0
M  V30 1782 O 173.832 -0.0186593 -1.91591 0
M  V30 1783 C 174.026 -3.38911 -1.13463 0
M  V30 1784 C 173.855 -4.4961 -0.0901926 0
M  V30 1785 C 172.625 -5.04168 0.338008 0
M  V30 1786 C 174.823 -5.09693 0.686808 0
M  V30 1787 N 172.805 -5.98434 1.36931 0
M  V30 1788 C 174.176 -5.99804 1.56958 0
M  V30 1789 C 176.231 -4.92388 0.738846 0
M  V30 1790 C 174.934 -6.74463 2.49983 0
M  V30 1791 C 176.96 -5.67719 1.65676 0
M  V30 1792 C 176.322 -6.57507 2.52713 0
M  V30 1793 H 172.421 -0.763312 -0.169936 0
M  V30 1794 H 175.005 -1.93728 0.194264 0
M  V30 1795 H 173.176 -3.41769 -1.84522 0
M  V30 1796 H 174.908 -3.64752 -1.75322 0
M  V30 1797 H 171.663 -4.73571 -0.0523673 0
M  V30 1798 H 172.087 -6.5027 1.88356 0
M  V30 1799 H 176.729 -4.22724 0.080084 0
M  V30 1800 H 174.447 -7.4338 3.16878 0
M  V30 1801 H 178.033 -5.56338 1.70233 0
M  V30 1802 H 176.913 -7.14778 3.22586 0
M  V30 1803 N 174.416 0.165178 -1.56732 0
M  V30 1804 C 175.346 1.20651 -1.99914 0
M  V30 1805 C 176.327 1.45827 -0.875705 0
M  V30 1806 O 177.512 1.57057 -1.14223 0
M  V30 1807 C 174.642 2.54401 -2.36427 0
M  V30 1808 C 173.596 2.43782 -3.51787 0
M  V30 1809 C 172.922 3.82078 -3.7406 0
M  V30 1810 C 174.222 1.93732 -4.85041 0
M  V30 1811 H 175.916 0.847534 -2.87154 0
M  V30 1812 H 173.462 0.40625 -1.38151 0
M  V30 1813 H 175.415 3.27458 -2.65234 0
M  V30 1814 H 174.139 2.92098 -1.46103 0
M  V30 1815 H 172.798 1.73178 -3.23117 0
M  V30 1816 H 172.446 4.17179 -2.81017 0
M  V30 1817 H 172.146 3.7584 -4.51684 0
M  V30 1818 H 173.67 4.56712 -4.05274 0
M  V30 1819 H 175.084 2.56569 -5.12684 0
M  V30 1820 H 173.481 1.98428 -5.66345 0
M  V30 1821 H 174.551 0.891962 -4.76626 0
M  V30 1822 N 175.894 1.51508 0.433938 0
M  V30 1823 C 177.119 1.68443 1.21003 0
M  V30 1824 C 177.544 0.382636 1.84167 0
M  V30 1825 O 176.902 -0.65755 1.68956 0
M  V30 1826 C 176.95 2.80405 2.26727 0
M  V30 1827 O 176.054 2.44245 3.32292 0
M  V30 1828 H 175.395 0.561536 0.354363 0
M  V30 1829 H 177.925 1.9809 0.512024 0
M  V30 1830 H 177.935 3.0459 2.71457 0
M  V30 1831 H 176.61 3.74867 1.80132 0
M  V30 1832 H 175.187 2.30644 2.93015 0
M  V30 1833 N 177.372 -0.689602 1.41712 0
M  V30 1834 C 178.649 -1.44457 1.31877 0
M  V30 1835 C 179.029 -2.11039 -0.0508537 0
M  V30 1836 O 178.377 -2.02138 -1.06547 0
M  V30 1837 C 178.587 -2.45913 2.47645 0
M  V30 1838 C 179.935 -3.10991 2.89084 0
M  V30 1839 O 180.959 -2.56238 2.47428 0
M  V30 1840 O 179.818 -4.10174 3.61137 0
M  V30 1841 H 176.912 -0.64362 0.519309 0
M  V30 1842 H 179.458 -0.719576 1.53689 0
M  V30 1843 H 178.23 -1.95409 3.39015 0
M  V30 1844 H 177.853 -3.25913 2.27742 0
M  V30 1845 N 178.85 -1.27639 -0.924453 0
M  V30 1846 C 180.096 -1.14336 -1.67497 0
M  V30 1847 C 180.429 0.309465 -1.91718 0
M  V30 1848 O 179.704 1.22608 -1.50989 0
M  V30 1849 C 179.987 -1.93096 -3.0395 0
M  V30 1850 C 179.84 -3.46381 -2.8695 0
M  V30 1851 C 181.159 -1.73798 -4.0433 0
M  V30 1852 H 178.278 -0.416728 -0.607871 0
M  V30 1853 H 180.92 -1.56832 -1.07256 0
M  V30 1854 H 179.07 -1.56982 -3.55372 0
M  V30 1855 H 180.742 -3.92343 -2.42621 0
M  V30 1856 H 178.985 -3.72557 -2.22225 0
M  V30 1857 H 179.656 -3.96735 -3.83804 0
M  V30 1858 H 182.132 -2.05293 -3.61931 0
M  V30 1859 H 181.008 -2.31294 -4.97789 0
M  V30 1860 H 181.269 -0.686725 -4.36734 0
M  V30 1861 N 180.328 1.1314 -1.09713 0
M  V30 1862 C 181.575 1.84484 -0.834987 0
M  V30 1863 C 181.903 1.83689 0.639418 0
M  V30 1864 O 181.158 1.2724 1.4869 0
M  V30 1865 C 181.457 3.32167 -1.3191 0
M  V30 1866 C 181.123 3.53139 -2.80363 0
M  V30 1867 C 179.785 3.58571 -3.20905 0
M  V30 1868 C 182.137 3.60866 -3.76065 0
M  V30 1869 C 179.465 3.69267 -4.55916 0
M  V30 1870 C 181.817 3.73089 -5.10869 0
M  V30 1871 C 180.481 3.76775 -5.50996 0
M  V30 1872 H 179.751 0.675073 -0.305544 0
M  V30 1873 H 182.398 1.33554 -1.37243 0
M  V30 1874 H 180.703 3.85469 -0.701517 0
M  V30 1875 H 182.4 3.85821 -1.09284 0
M  V30 1876 H 178.99 3.49569 -2.47991 0
M  V30 1877 H 183.174 3.55946 -3.45855 0
M  V30 1878 H 178.43 3.70388 -4.86438 0
M  V30 1879 H 182.604 3.78011 -5.84877 0
M  V30 1880 H 180.231 3.84815 -6.55608 0
M  V30 1881 N 181.806 0.884767 1.30421 0
M  V30 1882 C 183.055 0.499164 1.95426 0
M  V30 1883 C 183.368 -0.95645 1.70621 0
M  V30 1884 O 184.574 -1.44889 2.29607 0
M  V30 1885 C 183.03 0.84177 3.49917 0
M  V30 1886 C 182.638 2.31514 3.83543 0
M  V30 1887 C 184.382 0.525355 4.21237 0
M  V30 1888 C 182.289 2.59939 5.31212 0
M  V30 1889 H 181.219 0.182944 0.73147 0
M  V30 1890 H 183.87 1.07971 1.48373 0
M  V30 1891 H 182.252 0.190311 3.95542 0
M  V30 1892 H 183.426 3.0109 3.48829 0
M  V30 1893 H 181.741 2.59907 3.25326 0
M  V30 1894 H 184.338 0.714762 5.29901 0
M  V30 1895 H 184.681 -0.535222 4.12845 0
M  V30 1896 H 185.214 1.134 3.81294 0
M  V30 1897 H 181.953 3.64736 5.44654 0
M  V30 1898 H 181.473 1.94972 5.67227 0
M  V30 1899 H 183.152 2.45429 5.98643 0
M  V30 1900 N 183.284 -1.43765 0.645699 0
M  V30 1901 C 184.194 -2.34544 -0.0512957 0
M  V30 1902 C 185.21 -1.53455 -0.82022 0
M  V30 1903 O 186.386 -1.86133 -0.769176 0
M  V30 1904 C 183.451 -3.31636 -1.01087 0
M  V30 1905 C 182.512 -4.2863 -0.239712 0
M  V30 1906 C 181.745 -5.21084 -1.15358 0
M  V30 1907 O 181.968 -5.1779 -2.39269 0
M  V30 1908 O 180.902 -5.98593 -0.630038 0
M  V30 1909 H 184.728 -2.95624 0.695718 0
M  V30 1910 H 182.313 -1.43781 0.405882 0
M  V30 1911 H 184.195 -3.9136 -1.56254 0
M  V30 1912 H 182.87 -2.73069 -1.73824 0
M  V30 1913 H 181.777 -3.72408 0.355356 0
M  V30 1914 H 183.11 -4.90157 0.447936 0
M  V30 1915 N 184.763 -0.387143 -1.52771 0
M  V30 1916 C 185.673 0.456442 -2.30117 0
M  V30 1917 C 186.689 1.07342 -1.36944 0
M  V30 1918 O 187.865 1.07971 -1.70013 0
M  V30 1919 C 184.93 1.56957 -3.09136 0
M  V30 1920 C 183.991 0.977916 -4.18014 0
M  V30 1921 C 183.224 2.038 -4.93256 0
M  V30 1922 O 183.447 3.25271 -4.68567 0
M  V30 1923 O 182.381 1.6565 -5.78657 0
M  V30 1924 H 186.207 -0.17359 -3.03203 0
M  V30 1925 H 183.792 -0.150919 -1.48636 0
M  V30 1926 H 185.674 2.21628 -3.58412 0
M  V30 1927 H 184.349 2.18461 -2.38865 0
M  V30 1928 H 183.256 0.294525 -3.72939 0
M  V30 1929 H 184.589 0.407128 -4.90513 0
M  V30 1930 N 186.241 1.57166 -0.116904 0
M  V30 1931 C 187.466 1.999 0.55271 0
M  V30 1932 C 187.891 0.996039 1.59564 0
M  V30 1933 O 187.249 -0.032556 1.81271 0
M  V30 1934 C 187.297 3.4152 1.15742 0
M  V30 1935 O 186.401 3.44106 2.27299 0
M  V30 1936 H 185.742 0.649447 0.138258 0
M  V30 1937 H 188.272 2.03573 -0.204759 0
M  V30 1938 H 188.282 3.79684 1.49346 0
M  V30 1939 H 186.957 4.14034 0.393493 0
M  V30 1940 H 185.534 3.17759 1.9515 0
M  V30 1941 N 187.719 -0.156864 1.56817 0
M  V30 1942 C 188.965 -0.872416 1.83076 0
M  V30 1943 C 189.298 -1.81261 0.697001 0
M  V30 1944 O 188.573 -1.92171 -0.30008 0
M  V30 1945 C 188.856 -1.65551 3.19789 0
M  V30 1946 C 188.709 -0.737467 4.43713 0
M  V30 1947 C 190.028 -2.62012 3.53606 0
M  V30 1948 H 187.147 -0.315715 0.665953 0
M  V30 1949 H 189.789 -0.138004 1.89498 0
M  V30 1950 H 187.939 -2.28159 3.14445 0
M  V30 1951 H 189.611 -0.123143 4.61136 0
M  V30 1952 H 187.854 -0.0464067 4.33775 0
M  V30 1953 H 188.525 -1.32122 5.35955 0
M  V30 1954 H 191.001 -2.09525 3.59497 0
M  V30 1955 H 189.877 -3.13861 4.50314 0
M  V30 1956 H 190.138 -3.42902 2.79053 0
M  V30 1957 N 189.197 -1.51736 -0.425897 0
M  V30 1958 C 190.474 -1.55519 -1.1863 0
M  V30 1959 C 190.854 -0.326219 -2.08564 0
M  V30 1960 O 190.202 0.688012 -2.17896 0
M  V30 1961 C 190.412 -2.87521 -1.9782 0
M  V30 1962 C 191.76 -3.39899 -2.54468 0
M  V30 1963 O 192.784 -2.89148 -2.08019 0
M  V30 1964 O 191.643 -4.2848 -3.39215 0
M  V30 1965 H 188.737 -0.625739 -0.540721 0
M  V30 1966 H 191.283 -1.64055 -0.434038 0
M  V30 1967 H 190.055 -3.68422 -1.31836 0
M  V30 1968 H 189.678 -2.822 -2.80088 0
M  V30 1969 N 190.675 0.682077 -1.42076 0
M  V30 1970 C 191.607 1.80755 -1.40926 0
M  V30 1971 C 192.62 1.59833 -0.309398 0
M  V30 1972 O 193.809 1.69087 -0.572014 0
M  V30 1973 C 190.909 3.17744 -1.17865 0
M  V30 1974 C 190.082 3.65578 -2.40149 0
M  V30 1975 C 189.141 4.81277 -2.12742 0
M  V30 1976 O 188.167 4.92197 -2.85887 0
M  V30 1977 N 189.369 5.69474 -1.12602 0
M  V30 1978 H 192.134 1.82229 -2.37935 0
M  V30 1979 H 189.695 0.864903 -1.36861 0
M  V30 1980 H 191.687 3.9279 -0.9746 0
M  V30 1981 H 190.257 3.11214 -0.294068 0
M  V30 1982 H 189.477 2.81291 -2.76169 0
M  V30 1983 H 190.765 3.94278 -3.21593 0
M  V30 1984 H 190.163 5.63297 -0.520899 0
M  V30 1985 H 188.72 6.44363 -0.981842 0
M  V30 1986 N 192.153 1.28127 0.917671 0
M  V30 1987 C 193.381 1.17892 1.70026 0
M  V30 1988 C 193.796 -0.262958 1.8696 0
M  V30 1989 O 193.153 -1.17811 1.3938 0
M  V30 1990 C 193.204 1.86872 3.09453 0
M  V30 1991 O 192.925 3.25428 2.93306 0
M  V30 1992 C 194.426 1.8289 4.03815 0
M  V30 1993 H 191.646 0.40942 0.531617 0
M  V30 1994 H 194.19 1.69181 1.14883 0
M  V30 1995 H 192.345 1.39464 3.61426 0
M  V30 1996 H 192.759 3.59918 3.81523 0
M  V30 1997 H 194.233 2.35751 4.99125 0
M  V30 1998 H 194.71 0.800412 4.31845 0
M  V30 1999 H 195.316 2.29959 3.57769 0
M  V30 2000 N 193.631 -1.12557 1.10312 0
M  V30 2001 C 195.042 -1.65574 0.862678 0
M  V30 2002 C 195.393 -1.86566 -0.607256 0
M  V30 2003 O 194.518 -1.59121 -1.46662 0
M  V30 2004 C 195.113 -3.00776 1.55947 0
M  V30 2005 C 193.672 -3.50748 1.36576 0
M  V30 2006 C 192.819 -2.25797 1.60968 0
M  V30 2007 H 195.77 -0.963552 1.26101 0
M  V30 2008 H 195.791 -3.67185 0.997753 0
M  V30 2009 H 195.303 -2.85465 2.62928 0
M  V30 2010 H 193.404 -3.71245 0.317531 0
M  V30 2011 H 193.517 -4.30289 2.10686 0
M  V30 2012 H 191.881 -2.32841 1.03234 0
M  V30 2013 H 192.664 -2.13043 2.69198 0
M  V30 2014 N 195.109 -0.891671 -1.2995 0
M  V30 2015 C 196.072 -0.36828 -2.26222 0
M  V30 2016 C 197.072 0.493014 -1.53056 0
M  V30 2017 O 198.262 0.299213 -1.71611 0
M  V30 2018 C 195.394 0.47442 -3.37583 0
M  V30 2019 H 196.587 -1.21844 -2.74033 0
M  V30 2020 H 194.14 -0.669107 -1.41254 0
M  V30 2021 H 194.875 1.34489 -2.95099 0
M  V30 2022 H 194.66 -0.142615 -3.91841 0
M  V30 2023 H 196.15 0.83218 -4.09224 0
M  V30 2024 N 196.587 1.43421 -0.653314 0
M  V30 2025 C 197.835 2.01414 -0.166415 0
M  V30 2026 C 198.156 1.51803 1.22397 0
M  V30 2027 O 197.426 0.730693 1.81763 0
M  V30 2028 H 196.006 0.744703 -0.0585319 0
M  V30 2029 H 198.668 1.75629 -0.845003 0
M  V30 2030 H 197.764 3.11734 -0.151111 0
M  V30 2031 N 198.065 0.39524 1.52563 0
M  V30 2032 C 198.995 -0.428384 2.29537 0
M  V30 2033 C 199.976 -1.05831 1.33169 0
M  V30 2034 O 201.161 -1.06995 1.62067 0
M  V30 2035 C 198.291 -1.55274 3.10656 0
M  V30 2036 C 197.245 -1.04855 4.14957 0
M  V30 2037 C 196.571 -2.26543 4.84337 0
M  V30 2038 C 197.871 -0.112324 5.22179 0
M  V30 2039 H 199.565 0.213867 2.98635 0
M  V30 2040 H 197.111 0.104298 1.43622 0
M  V30 2041 H 199.064 -2.1358 3.63265 0
M  V30 2042 H 197.788 -2.22266 2.39302 0
M  V30 2043 H 196.447 -0.487985 3.63338 0
M  V30 2044 H 196.095 -2.92059 4.09525 0
M  V30 2045 H 195.795 -1.93466 5.54837 0
M  V30 2046 H 197.319 -2.85481 5.39753 0
M  V30 2047 H 198.733 -0.603752 5.70112 0
M  V30 2048 H 197.13 0.128968 5.99961 0
M  V30 2049 H 198.2 0.837052 4.77621 0
M  V30 2050 N 199.544 -1.57102 0.125237 0
M  V30 2051 C 200.477 -2.11371 -0.860094 0
M  V30 2052 C 201.455 -1.03168 -1.25679 0
M  V30 2053 O 202.639 -1.30862 -1.35674 0
M  V30 2054 C 199.766 -2.61555 -2.1519 0
M  V30 2055 C 198.812 -3.81701 -1.9028 0
M  V30 2056 S 199.645 -5.23797 -1.11343 0
M  V30 2057 C 200.801 -5.77353 -2.41689 0
M  V30 2058 H 201.034 -2.94617 -0.39852 0
M  V30 2059 H 198.567 -1.54145 -0.0886555 0
M  V30 2060 H 200.525 -2.91122 -2.89411 0
M  V30 2061 H 199.186 -1.78479 -2.58465 0
M  V30 2062 H 198.379 -4.14985 -2.86014 0
M  V30 2063 H 197.981 -3.52783 -1.24178 0
M  V30 2064 H 200.273 -5.87458 -3.37489 0
M  V30 2065 H 201.216 -6.75323 -2.12942 0
M  V30 2066 H 201.624 -5.05457 -2.51342 0
M  V30 2067 N 201.022 0.148545 -1.56898 0
M  V30 2068 C 201.985 1.16736 -1.97244 0
M  V30 2069 C 202.985 1.35947 -0.858777 0
M  V30 2070 O 204.175 1.32966 -1.12542 0
M  V30 2071 C 201.307 2.52798 -2.28705 0
M  V30 2072 H 202.5 0.821279 -2.88435 0
M  V30 2073 H 200.053 0.391831 -1.51309 0
M  V30 2074 H 200.788 2.92381 -1.403 0
M  V30 2075 H 200.573 2.40216 -3.09901 0
M  V30 2076 H 202.063 3.26179 -2.60762 0
M  V30 2077 N 202.5 1.5196 0.417844 0
M  V30 2078 C 203.725 1.69717 1.1921 0
M  V30 2079 C 204.15 0.402148 1.83751 0
M  V30 2080 O 203.508 -0.639593 1.69643 0
M  V30 2081 C 203.556 2.82794 2.2374 0
M  V30 2082 O 202.66 2.47756 3.29683 0
M  V30 2083 H 202.001 0.565263 0.348387 0
M  V30 2084 H 204.531 1.98621 0.490985 0
M  V30 2085 H 204.541 3.07452 2.68212 0
M  V30 2086 H 203.216 3.76756 1.76146 0
M  V30 2087 H 201.793 2.33739 2.90552 0
M  V30 2088 N 203.978 -0.674533 1.42435 0
M  V30 2089 C 204.911 -1.79924 1.40366 0
M  V30 2090 C 205.889 -1.60378 0.267899 0
M  V30 2091 O 207.073 -1.82847 0.458159 0
M  V30 2092 C 204.2 -3.16927 1.19478 0
M  V30 2093 C 203.246 -3.55221 2.36051 0
M  V30 2094 S 204.079 -3.5762 3.98583 0
M  V30 2095 C 205.235 -4.97315 3.80038 0
M  V30 2096 H 205.468 -1.81405 2.35541 0
M  V30 2097 H 203.001 -0.845221 1.29211 0
M  V30 2098 H 204.959 -3.96007 1.08114 0
M  V30 2099 H 203.62 -3.13031 0.258883 0
M  V30 2100 H 202.813 -4.54804 2.17185 0
M  V30 2101 H 202.415 -2.83502 2.43932 0
M  V30 2102 H 204.707 -5.85401 3.41045 0
M  V30 2103 H 205.65 -5.21228 4.79298 0
M  V30 2104 H 206.058 -4.69845 3.12899 0
M  V30 2105 N 205.456 -1.28612 -0.910864 0
M  V30 2106 C 206.681 -1.1891 -1.69927 0
M  V30 2107 C 207.106 0.248372 -1.86453 0
M  V30 2108 O 206.464 1.17961 -1.37676 0
M  V30 2109 C 206.512 -1.89578 -3.06745 0
M  V30 2110 O 205.616 -1.20521 -3.94396 0
M  V30 2111 H 204.957 -0.412632 -0.520222 0
M  V30 2112 H 207.487 -1.69985 -1.1387 0
M  V30 2113 H 207.497 -1.97597 -3.56958 0
M  V30 2114 H 206.172 -2.94136 -2.94035 0
M  V30 2115 H 204.749 -1.20684 -3.52831 0
M  V30 2116 N 206.934 1.1197 -1.10907 0
M  V30 2117 C 208.183 1.82947 -0.849302 0
M  V30 2118 C 208.496 1.85275 0.627112 0
M  V30 2119 O 209.702 2.52296 1.00295 0
M  V30 2120 C 208.158 3.28529 -1.46959 0
M  V30 2121 C 207.766 3.34546 -2.97965 0
M  V30 2122 C 209.51 4.04443 -1.28942 0
M  V30 2123 C 207.417 4.74491 -3.53004 0
M  V30 2124 H 206.347 0.685477 -0.314065 0
M  V30 2125 H 208.998 1.2604 -1.33365 0
M  V30 2126 H 207.38 3.85333 -0.912917 0
M  V30 2127 H 208.554 2.87654 -3.59989 0
M  V30 2128 H 206.869 2.72108 -3.15192 0
M  V30 2129 H 209.466 5.07787 -1.67502 0
M  V30 2130 H 209.809 4.15656 -0.231456 0
M  V30 2131 H 210.342 3.5401 -1.81443 0
M  V30 2132 H 207.081 4.68474 -4.58489 0
M  V30 2133 H 206.601 5.21816 -2.9575 0
M  V30 2134 H 208.28 5.4344 -3.51115 0
M  V30 2135 N 208.412 0.89855 1.29475 0
M  V30 2136 C 209.658 0.524658 1.95896 0
M  V30 2137 C 209.991 -0.926468 1.70676 0
M  V30 2138 O 209.266 -1.65665 1.01908 0
M  V30 2139 C 209.549 0.81633 3.50725 0
M  V30 2140 C 209.402 2.31907 3.85408 0
M  V30 2141 C 210.721 0.302038 4.39062 0
M  V30 2142 H 207.84 0.19209 0.711527 0
M  V30 2143 H 210.482 1.12502 1.53112 0
M  V30 2144 H 208.632 0.305369 3.87298 0
M  V30 2145 H 210.304 2.89949 3.58786 0
M  V30 2146 H 208.547 2.78027 3.32992 0
M  V30 2147 H 209.218 2.47373 4.93468 0
M  V30 2148 H 211.694 0.739551 4.09475 0
M  V30 2149 H 210.57 0.535331 5.46283 0
M  V30 2150 H 210.831 -0.797216 4.34853 0
M  V30 2151 N 209.89 -1.43072 0.660911 0
M  V30 2152 C 210.837 -2.30785 -0.0259884 0
M  V30 2153 C 211.807 -1.45184 -0.806888 0
M  V30 2154 O 212.992 -1.74041 -0.781943 0
M  V30 2155 C 210.132 -3.30861 -0.981067 0
M  V30 2156 C 209.245 -4.31558 -0.195458 0
M  V30 2157 C 208.38 -5.18712 -1.14503 0
M  V30 2158 C 207.419 -6.11097 -0.350299 0
M  V30 2159 N 206.556 -6.90849 -1.25186 0
M  V30 2160 H 211.396 -2.88975 0.727846 0
M  V30 2161 H 208.933 -1.42353 0.370682 0
M  V30 2162 H 210.891 -3.87399 -1.54849 0
M  V30 2163 H 209.521 -2.74304 -1.70169 0
M  V30 2164 H 208.573 -3.77252 0.488374 0
M  V30 2165 H 209.885 -4.9701 0.422176 0
M  V30 2166 H 209.039 -5.79914 -1.78284 0
M  V30 2167 H 207.778 -4.53404 -1.79656 0
M  V30 2168 H 206.783 -5.48976 0.300808 0
M  V30 2169 H 208.008 -6.7845 0.296941 0
M  V30 2170 H 205.954 -6.28182 -1.89005 0
M  V30 2171 H 205.871 -7.52854 -0.688971 0
M  V30 2172 H 207.139 -7.5655 -1.87757 0
M  V30 2173 N 211.368 -0.403325 -1.52352 0
M  V30 2174 C 212.331 0.413051 -2.25447 0
M  V30 2175 C 213.331 0.978513 -1.276 0
M  V30 2176 O 214.521 0.858305 -1.51587 0
M  V30 2177 C 211.653 1.58087 -3.02029 0
M  V30 2178 H 212.846 -0.227094 -2.99039 0
M  V30 2179 H 210.399 -0.155722 -1.55522 0
M  V30 2180 H 211.134 2.25804 -2.32772 0
M  V30 2181 H 210.919 1.18195 -3.73861 0
M  V30 2182 H 212.409 2.1585 -3.57489 0
M  V30 2183 N 212.846 1.57033 -0.133567 0
M  V30 2184 C 214.074 2.00044 0.528195 0
M  V30 2185 C 214.489 1.01349 1.59291 0
M  V30 2186 O 213.846 0.00848369 1.82498 0
M  V30 2187 C 213.897 3.43018 1.1411 0
M  V30 2188 O 213.618 4.37939 0.11892 0
M  V30 2189 C 215.119 4.01237 1.88477 0
M  V30 2190 H 212.339 0.656517 0.138661 0
M  V30 2191 H 214.883 2.03267 -0.224196 0
M  V30 2192 H 213.038 3.40688 1.84418 0
M  V30 2193 H 213.452 5.21436 0.56613 0
M  V30 2194 H 214.926 5.03314 2.26669 0
M  V30 2195 H 215.403 3.41193 2.76558 0
M  V30 2196 H 216.009 4.07156 1.22898 0
M  V30 2197 N 214.325 -0.140222 1.56975 0
M  V30 2198 C 215.55 -0.870414 1.88251 0
M  V30 2199 C 215.975 -1.73637 0.723312 0
M  V30 2200 O 215.333 -1.78329 -0.32689 0
M  V30 2201 C 215.381 -1.69737 3.18154 0
M  V30 2202 O 214.485 -2.80229 3.02565 0
M  V30 2203 H 213.826 -0.242025 0.61832 0
M  V30 2204 H 216.356 -0.128999 2.04193 0
M  V30 2205 H 216.366 -2.09099 3.50345 0
M  V30 2206 H 215.041 -1.06152 4.02125 0
M  V30 2207 H 213.618 -2.44224 2.81796 0
M  V30 2208 N 215.803 -1.52179 -0.40978 0
M  V30 2209 C 216.751 -1.76086 -1.51975 0
M  V30 2210 C 217.745 -0.627964 -1.57331 0
M  V30 2211 O 218.951 -0.809993 -1.60745 0
M  V30 2212 H 215.326 -0.556829 -0.505416 0
M  V30 2213 H 217.297 -2.69077 -1.28996 0
M  V30 2214 C 216.046 -1.92799 -2.8935 0
M  V30 2215 H 215.369 -2.79392 -2.85972 0
M  V30 2216 H 216.809 -2.13527 -3.66309 0
M  V30 2217 C 215.268 -0.694923 -3.29655 0
M  V30 2218 O 215.798 0.13751 -4.01465 0
M  V30 2219 N 214.004 -0.53101 -2.85707 0
M  V30 2220 H 213.551 -1.20952 -2.27439 0
M  V30 2221 H 213.509 0.292718 -3.13034 0
M  V30 2222 N 217.281 0.66697 -1.42791 0
M  V30 2223 C 218.509 1.45505 -1.47091 0
M  V30 2224 C 218.924 1.8861 -0.0845873 0
M  V30 2225 O 218.281 1.58632 0.90234 0
M  V30 2226 C 218.332 2.69906 -2.40485 0
M  V30 2227 O 218.053 2.28608 -3.73725 0
M  V30 2228 C 219.554 3.63396 -2.53886 0
M  V30 2229 H 216.774 0.447459 -0.500022 0
M  V30 2230 H 219.318 0.818866 -1.8739 0
M  V30 2231 H 217.473 3.29696 -2.03419 0
M  V30 2232 H 217.887 3.08997 -4.23817 0
M  V30 2233 H 219.361 4.47387 -3.2334 0
M  V30 2234 H 219.838 4.09824 -1.57927 0
M  V30 2235 H 220.444 3.09495 -2.91706 0
M  V30 2236 N 218.759 1.29093 0.90403 0
M  V30 2237 C 220.008 1.16187 1.64874 0
M  V30 2238 C 220.321 -0.286742 1.93487 0
M  V30 2239 O 221.527 -0.537062 2.66135 0
M  V30 2240 C 219.983 2.03177 2.97064 0
M  V30 2241 C 219.591 3.52836 2.76062 0
M  V30 2242 C 221.335 1.98984 3.74974 0
M  V30 2243 C 219.242 4.31945 4.03952 0
M  V30 2244 H 218.172 0.431246 0.618501 0
M  V30 2245 H 220.823 1.53699 1.00243 0
M  V30 2246 H 219.205 1.5853 3.62883 0
M  V30 2247 H 220.379 4.05507 2.18863 0
M  V30 2248 H 218.694 3.58656 2.11553 0
M  V30 2249 H 221.291 2.55351 4.69787 0
M  V30 2250 H 221.634 0.968815 4.0487 0
M  V30 2251 H 222.167 2.41652 3.15989 0
M  V30 2252 H 218.906 5.34667 3.79225 0
M  V30 2253 H 218.426 3.84045 4.60727 0
M  V30 2254 H 220.105 4.42379 4.72133 0
M  V30 2255 N 220.237 -1.11381 1.11499 0
M  V30 2256 C 221.462 -1.87475 0.887019 0
M  V30 2257 C 221.887 -1.79639 -0.557796 0
M  V30 2258 O 221.245 -1.15924 -1.39396 0
M  V30 2259 C 221.293 -3.34213 1.35403 0
M  V30 2260 O 220.397 -4.0903 0.526146 0
M  V30 2261 H 219.738 -0.582099 0.319463 0
M  V30 2262 H 222.268 -1.40785 1.48461 0
M  V30 2263 H 222.278 -3.8506 1.34881 0
M  V30 2264 H 220.953 -3.39232 2.40612 0
M  V30 2265 H 219.53 -3.68082 0.597522 0
M  V30 2266 N 221.715 -0.905404 -1.28997 0
M  V30 2267 C 222.647 -0.344748 -2.26592 0
M  V30 2268 C 223.66 0.512135 -1.54535 0
M  V30 2269 O 224.849 0.328368 -1.75454 0
M  V30 2270 C 221.949 0.526587 -3.34784 0
M  V30 2271 C 221.122 -0.305871 -4.36329 0
M  V30 2272 C 220.181 0.499209 -5.23827 0
M  V30 2273 O 219.207 -0.0853004 -5.69136 0
M  V30 2274 N 220.409 1.80408 -5.51755 0
M  V30 2275 H 223.174 -1.18359 -2.75338 0
M  V30 2276 H 220.735 -0.770481 -1.42391 0
M  V30 2277 H 222.727 1.07171 -3.90252 0
M  V30 2278 H 221.297 1.26613 -2.85811 0
M  V30 2279 H 220.517 -1.0324 -3.80441 0
M  V30 2280 H 221.805 -0.875773 -5.01206 0
M  V30 2281 H 221.203 2.3016 -5.16762 0
M  V30 2282 H 219.76 2.29621 -6.10014 0
M  V30 2283 N 223.193 1.4272 -0.668489 0
M  V30 2284 C 224.433 2.03497 -0.19194 0
M  V30 2285 C 224.797 1.51684 1.17712 0
M  V30 2286 O 225.998 2.04205 1.74796 0
M  V30 2287 C 224.269 3.56734 -0.218032 0
M  V30 2288 S 225.828 4.38395 0.188438 0
M  V30 2289 H 222.646 0.706542 -0.0794959 0
M  V30 2290 H 225.248 1.74563 -0.880235 0
M  V30 2291 H 223.952 3.91943 -1.2169 0
M  V30 2292 H 223.483 3.90333 0.490303 0
M  V30 2293 H 225.498 4.75345 1.42345 0
M  V30 2294 N 224.671 0.411399 1.52136 0
M  V30 2295 C 225.919 -0.163322 2.01439 0
M  V30 2296 C 226.24 -1.45453 1.29879 0
M  V30 2297 O 225.51 -1.91225 0.4254 0
M  V30 2298 H 224.09 -0.0633447 0.744309 0
M  V30 2299 H 226.752 0.548161 1.87033 0
M  V30 2300 H 225.848 -0.357817 3.10042 0
M  V30 2301 N 226.149 -1.5696 0.141893 0
M  V30 2302 C 227.395 -1.97034 -0.504884 0
M  V30 2303 C 227.75 -1.02518 -1.62812 0
M  V30 2304 O 227.043 -0.0592943 -1.91508 0
M  V30 2305 C 227.237 -3.41242 -1.06249 0
M  V30 2306 C 227.066 -4.497 0.00519653 0
M  V30 2307 C 225.836 -5.03338 0.444873 0
M  V30 2308 C 228.034 -5.08122 0.794767 0
M  V30 2309 N 226.016 -5.95395 1.49593 0
M  V30 2310 C 227.387 -5.96339 1.69645 0
M  V30 2311 C 229.442 -4.9071 0.843122 0
M  V30 2312 C 228.145 -6.69009 2.64233 0
M  V30 2313 C 230.171 -5.64077 1.77681 0
M  V30 2314 C 229.533 -6.51999 2.66603 0
M  V30 2315 H 225.632 -0.766745 -0.153707 0
M  V30 2316 H 228.216 -1.93273 0.235313 0
M  V30 2317 H 226.387 -3.45606 -1.77231 0
M  V30 2318 H 228.119 -3.68389 -1.67546 0
M  V30 2319 H 224.874 -4.73576 0.0480959 0
M  V30 2320 H 225.298 -6.46128 2.02107 0
M  V30 2321 H 229.94 -4.22459 0.169732 0
M  V30 2322 H 227.658 -7.36492 3.32575 0
M  V30 2323 H 231.244 -5.52602 1.81996 0
M  V30 2324 H 230.124 -7.07775 3.37675 0
M  V30 2325 N 227.627 0.131896 -1.57047 0
M  V30 2326 C 228.852 0.860418 -1.8871 0
M  V30 2327 C 229.277 1.73251 -0.73251 0
M  V30 2328 O 228.635 1.785 0.317429 0
M  V30 2329 C 228.683 1.68047 -3.19049 0
M  V30 2330 O 227.787 2.7862 -3.04047 0
M  V30 2331 H 227.128 0.238743 -0.619595 0
M  V30 2332 H 229.658 0.118169 -2.04258 0
M  V30 2333 H 229.668 2.07238 -3.51449 0
M  V30 2334 H 228.343 1.04018 -4.02682 0
M  V30 2335 H 226.92 2.42726 -2.83088 0
M  V30 2336 N 229.106 1.52395 0.401703 0
M  V30 2337 C 230.069 1.75636 1.47257 0
M  V30 2338 C 231.069 0.62628 1.48103 0
M  V30 2339 O 232.259 0.894227 1.49497 0
M  V30 2340 C 229.391 1.84553 2.86624 0
M  V30 2341 H 230.584 2.71241 1.27938 0
M  V30 2342 H 228.137 1.42923 0.632662 0
M  V30 2343 H 228.872 0.908882 3.11303 0
M  V30 2344 H 228.657 2.66715 2.87412 0
M  V30 2345 H 230.147 2.04251 3.64241 0
M  V30 2346 N 230.584 -0.659388 1.43143 0
M  V30 2347 C 231.809 -1.45221 1.48073 0
M  V30 2348 C 232.234 -1.87845 0.097995 0
M  V30 2349 O 231.592 -1.56985 -0.90694 0
M  V30 2350 C 231.64 -2.66748 2.42647 0
M  V30 2351 O 230.744 -3.65583 1.90848 0
M  V30 2352 H 230.085 -0.435669 0.501088 0
M  V30 2353 H 232.615 -0.807432 1.87994 0
M  V30 2354 H 232.625 -3.14637 2.59745 0
M  V30 2355 H 231.3 -2.35067 3.43098 0
M  V30 2356 H 229.877 -3.24693 1.83381 0
M  V30 2357 N 232.062 -1.29571 -0.897171 0
M  V30 2358 C 233.025 -1.14913 -1.98312 0
M  V30 2359 C 234.025 -0.0838629 -1.60581 0
M  V30 2360 O 235.215 -0.331006 -1.71026 0
M  V30 2361 C 232.347 -0.757835 -3.3237 0
M  V30 2362 H 233.54 -2.11377 -2.12743 0
M  V30 2363 H 231.093 -1.12793 -1.08201 0
M  V30 2364 H 231.828 0.206837 -3.2364 0
M  V30 2365 H 231.613 -1.52755 -3.61121 0
M  V30 2366 H 233.103 -0.678408 -4.12053 0
M  V30 2367 N 233.54 1.10788 -1.12088 0
M  V30 2368 C 234.488 2.19111 -0.780587 0
M  V30 2369 C 235.482 1.67818 0.230961 0
M  V30 2370 O 236.688 1.79777 0.0895427 0
M  V30 2371 H 233.063 0.714477 -0.234578 0
M  V30 2372 H 235.034 2.45055 -1.70266 0
M  V30 2373 C 233.783 3.46818 -0.24747 0
M  V30 2374 H 233.106 3.86646 -1.01712 0
M  V30 2375 H 234.546 4.23973 -0.0476291 0
M  V30 2376 C 233.005 3.20968 1.02378 0
M  V30 2377 O 233.535 3.42298 2.10226 0
M  V30 2378 N 231.741 2.74658 0.949271 0
M  V30 2379 H 231.288 2.57501 0.0715173 0
M  V30 2380 H 231.246 2.57739 1.80049 0
M  V30 2381 N 235.018 0.912232 1.28515 0
M  V30 2382 C 236.264 0.554851 1.95686 0
M  V30 2383 C 236.619 -0.89138 1.70506 0
M  V30 2384 O 235.912 -1.62529 1.01464 0
M  V30 2385 C 236.106 0.798392 3.48368 0
M  V30 2386 C 235.935 2.26674 3.88393 0
M  V30 2387 C 234.705 2.91657 4.12631 0
M  V30 2388 C 236.903 3.24303 3.99164 0
M  V30 2389 N 234.885 4.28805 4.39317 0
M  V30 2390 C 236.256 4.4661 4.30046 0
M  V30 2391 C 238.311 3.19723 3.81683 0
M  V30 2392 C 237.014 5.64915 4.45268 0
M  V30 2393 C 239.04 4.37325 3.98121 0
M  V30 2394 C 238.402 5.58406 4.29375 0
M  V30 2395 H 234.501 0.252876 0.739985 0
M  V30 2396 H 237.085 1.17565 1.55199 0
M  V30 2397 H 235.256 0.20688 3.87849 0
M  V30 2398 H 236.988 0.405193 4.02666 0
M  V30 2399 H 233.743 2.42393 4.06869 0
M  V30 2400 H 234.167 4.99712 4.56746 0
M  V30 2401 H 238.809 2.27191 3.56573 0
M  V30 2402 H 236.527 6.57927 4.6921 0
M  V30 2403 H 240.113 4.35282 3.86033 0
M  V30 2404 H 238.993 6.47889 4.41825 0
M  V30 2405 N 236.496 -1.42363 0.676048 0
M  V30 2406 C 237.724 -2.05859 0.207268 0
M  V30 2407 C 238.139 -1.50796 -1.13605 0
M  V30 2408 O 237.496 -0.648265 -1.70598 0
M  V30 2409 C 237.547 -3.61248 0.134975 0
M  V30 2410 O 237.268 -4.1427 1.42521 0
M  V30 2411 C 238.769 -4.41859 -0.357151 0
M  V30 2412 H 235.989 -0.663431 0.100503 0
M  V30 2413 H 238.533 -1.82479 0.923136 0
M  V30 2414 H 236.688 -3.83735 -0.531588 0
M  V30 2415 H 237.102 -5.0815 1.29939 0
M  V30 2416 H 238.576 -5.50847 -0.356641 0
M  V30 2417 H 239.053 -4.16536 -1.39264 0
M  V30 2418 H 239.659 -4.24392 0.27772 0
M  V30 2419 N 237.974 -0.419461 -1.51915 0
M  V30 2420 C 239.385 0.0477853 -1.86639 0
M  V30 2421 C 239.736 1.43531 -1.33766 0
M  V30 2422 O 238.861 2.05401 -0.68113 0
M  V30 2423 C 239.456 0.0934885 -3.38671 0
M  V30 2424 C 238.015 0.505097 -3.72996 0
M  V30 2425 C 237.162 -0.313792 -2.75519 0
M  V30 2426 H 240.113 -0.636088 -1.45395 0
M  V30 2427 H 240.134 0.906667 -3.6954 0
M  V30 2428 H 239.646 -0.916501 -3.77123 0
M  V30 2429 H 237.747 1.52135 -3.40126 0
M  V30 2430 H 237.86 0.242309 -4.78487 0
M  V30 2431 H 236.224 0.225363 -2.53701 0
M  V30 2432 H 237.007 -1.32232 -3.16812 0
M  V30 2433 N 239.452 1.56882 -0.150215 0
M  V30 2434 C 240.677 2.01027 0.510184 0
M  V30 2435 C 241.102 1.02966 1.57415 0
M  V30 2436 O 240.46 0.00590158 1.81299 0
M  V30 2437 C 240.508 3.43899 1.08472 0
M  V30 2438 O 239.612 3.4885 2.19948 0
M  V30 2439 H 238.953 0.652233 0.124451 0
M  V30 2440 H 241.483 2.03093 -0.247894 0
M  V30 2441 H 241.493 3.82766 1.41259 0
M  V30 2442 H 240.168 4.14776 0.305582 0
M  V30 2443 H 238.745 3.21827 1.88366 0
M  V30 2444 N 240.93 -0.123565 1.57115 0
M  V30 2445 C 242.179 -0.830704 1.83799 0
M  V30 2446 C 242.492 -1.81259 0.735158 0
M  V30 2447 O 243.698 -2.56558 0.888278 0
M  V30 2448 C 242.154 -1.52802 3.25852 0
M  V30 2449 C 241.762 -0.587356 4.44133 0
M  V30 2450 C 243.506 -2.22056 3.61789 0
M  V30 2451 C 241.413 -1.28764 5.77212 0
M  V30 2452 H 240.343 -0.313967 0.685522 0
M  V30 2453 H 242.994 -0.0834359 1.8331 0
M  V30 2454 H 241.376 -2.32175 3.20797 0
M  V30 2455 H 242.55 0.172829 4.60476 0
M  V30 2456 H 240.865 -0.00201892 4.164 0
M  V30 2457 H 243.462 -2.75131 4.58483 0
M  V30 2458 H 243.805 -2.99644 2.88997 0
M  V30 2459 H 244.338 -1.49576 3.68608 0
M  V30 2460 H 241.077 -0.55314 6.53162 0
M  V30 2461 H 240.597 -2.01995 5.64764 0
M  V30 2462 H 242.276 -1.8221 6.20813 0
M  V30 2463 N 242.408 -1.52605 -0.393616 0
M  V30 2464 C 243.633 -1.71592 -1.16495 0
M  V30 2465 C 244.058 -0.43133 -1.83088 0
M  V30 2466 O 243.416 0.612523 -1.7064 0
M  V30 2467 C 243.464 -2.86318 -2.19213 0
M  V30 2468 O 242.568 -2.52969 -3.257 0
M  V30 2469 H 241.909 -0.570734 -0.33935 0
M  V30 2470 H 244.439 -1.99377 -0.459324 0
M  V30 2471 H 244.449 -3.1168 -2.63286 0
M  V30 2472 H 243.124 -3.79511 -1.7013 0
M  V30 2473 H 241.701 -2.38332 -2.86797 0
M  V30 2474 N 243.887 0.651787 -1.4349 0
M  V30 2475 C 245.298 1.233 -1.40193 0
M  V30 2476 C 245.649 1.9591 -0.106727 0
M  V30 2477 O 244.774 2.01316 0.793773 0
M  V30 2478 C 245.369 2.24257 -2.53957 0
M  V30 2479 C 243.928 2.77852 -2.5392 0
M  V30 2480 C 243.075 1.52517 -2.3159 0
M  V30 2481 H 246.026 0.443717 -1.52371 0
M  V30 2482 H 246.047 3.0646 -2.25528 0
M  V30 2483 H 245.559 1.71382 -3.4821 0
M  V30 2484 H 243.66 3.34786 -1.63551 0
M  V30 2485 H 243.773 3.25299 -3.51735 0
M  V30 2486 H 242.137 1.79915 -1.80285 0
M  V30 2487 H 242.92 1.01574 -3.27929 0
M  V30 2488 N 245.365 1.30045 0.890287 0
M  V30 2489 C 246.59 1.21598 1.68014 0
M  V30 2490 C 247.015 -0.218678 1.86825 0
M  V30 2491 O 246.373 -1.15756 1.39536 0
M  V30 2492 C 246.421 1.94434 3.03691 0
M  V30 2493 O 245.525 1.2678 3.92429 0
M  V30 2494 H 244.866 0.420856 0.513592 0
M  V30 2495 H 247.396 1.71775 1.11151 0
M  V30 2496 H 247.406 2.03251 3.5377 0
M  V30 2497 H 246.081 2.98777 2.89318 0
M  V30 2498 H 244.658 1.26282 3.50866 0
M  V30 2499 N 246.843 -1.10192 1.12674 0
M  V30 2500 C 247.776 -2.15847 0.740625 0
M  V30 2501 C 248.754 -1.60352 -0.269421 0
M  V30 2502 O 249.938 -1.87796 -0.16278 0
M  V30 2503 C 247.065 -3.38562 0.096641 0
M  V30 2504 C 246.111 -4.12758 1.07391 0
M  V30 2505 S 246.944 -4.67997 2.60267 0
M  V30 2506 C 248.1 -5.94021 1.97206 0
M  V30 2507 H 248.333 -2.48266 1.63558 0
M  V30 2508 H 245.866 -1.22019 0.946087 0
M  V30 2509 H 247.824 -4.09621 -0.268535 0
M  V30 2510 H 246.485 -3.04377 -0.775462 0
M  V30 2511 H 245.678 -5.00755 0.570997 0
M  V30 2512 H 245.28 -3.47523 1.38216 0
M  V30 2513 H 247.572 -6.64589 1.31634 0
M  V30 2514 H 248.515 -6.48979 2.83253 0
M  V30 2515 H 248.923 -5.46169 1.42686 0
M  V30 2516 N 248.321 -0.919034 -1.28029 0
M  V30 2517 C 249.598 -0.473668 -1.89778 0
M  V30 2518 C 249.978 1.04783 -1.83259 0
M  V30 2519 O 249.326 1.8982 -1.27202 0
M  V30 2520 C 249.536 -1.00998 -3.34066 0
M  V30 2521 C 250.884 -1.06525 -4.1102 0
M  V30 2522 O 251.908 -0.958996 -3.43048 0
M  V30 2523 O 250.767 -1.22776 -5.3253 0
M  V30 2524 H 247.861 -0.15098 -0.813101 0
M  V30 2525 H 250.407 -1.01016 -1.36359 0
M  V30 2526 H 249.179 -2.05392 -3.33061 0
M  V30 2527 H 248.802 -0.454626 -3.94992 0
M  V30 2528 N 249.799 1.42003 -0.683588 0
M  V30 2529 C 251.215 1.55625 -0.353976 0
M  V30 2530 C 251.415 1.66151 1.14 0
M  V30 2531 O 250.471 1.63329 1.92561 0
M  V30 2532 C 251.784 2.80171 -1.092 0
M  V30 2533 C 253.332 2.93954 -1.07518 0
M  V30 2534 C 253.807 4.21372 -1.79471 0
M  V30 2535 N 255.298 4.28303 -1.76381 0
M  V30 2536 C 256.033 5.25729 -2.28904 0
M  V30 2537 N 255.529 6.29254 -2.89846 0
M  V30 2538 N 257.322 5.17586 -2.19228 0
M  V30 2539 H 249.473 1.33415 -1.6527 0
M  V30 2540 H 251.736 0.64282 -0.696769 0
M  V30 2541 H 251.442 2.78561 -2.14701 0
M  V30 2542 H 251.316 3.7133 -0.662862 0
M  V30 2543 H 253.703 2.95086 -0.028475 0
M  V30 2544 H 253.784 2.04002 -1.54328 0
M  V30 2545 H 253.428 4.21001 -2.84114 0
M  V30 2546 H 253.358 5.10275 -1.30104 0
M  V30 2547 H 255.849 3.54119 -1.31939 0
M  V30 2548 H 256.162 6.99964 -3.27522 0
M  V30 2549 H 254.507 6.29791 -2.93919 0
M  V30 2550 H 257.698 4.35631 -1.71299 0
M  V30 2551 H 257.871 5.93348 -2.60466 0
M  V30 2552 N 251.277 0.427512 1.51691 0
M  V30 2553 C 252.24 -0.377132 2.26076 0
M  V30 2554 C 253.24 -0.958089 1.29141 0
M  V30 2555 O 254.43 -0.83408 1.52934 0
M  V30 2556 C 251.562 -1.53262 3.04506 0
M  V30 2557 H 252.755 0.27464 2.9864 0
M  V30 2558 H 250.308 0.180445 1.55255 0
M  V30 2559 H 251.043 -2.22072 2.36335 0
M  V30 2560 H 250.828 -1.12232 3.75694 0
M  V30 2561 H 252.318 -2.10135 3.60878 0
M  V30 2562 N 252.755 -1.56801 0.158532 0
M  V30 2563 C 254.171 -1.5837 -0.197774 0
M  V30 2564 C 254.371 -1.17334 -1.63814 0
M  V30 2565 O 253.427 -0.878988 -2.36707 0
M  V30 2566 C 254.74 -3.00615 0.0714459 0
M  V30 2567 C 256.288 -3.12999 0.00864533 0
M  V30 2568 C 256.763 -4.57313 0.250685 0
M  V30 2569 N 258.254 -4.62777 0.198014 0
M  V30 2570 C 258.989 -5.72271 0.359642 0
M  V30 2571 N 258.485 -6.90371 0.579625 0
M  V30 2572 N 260.278 -5.61318 0.296438 0
M  V30 2573 H 252.429 -1.81765 1.09887 0
M  V30 2574 H 254.692 -0.841849 0.435884 0
M  V30 2575 H 254.398 -3.35068 1.06874 0
M  V30 2576 H 254.272 -3.71683 -0.642757 0
M  V30 2577 H 256.659 -2.7838 -0.979217 0
M  V30 2578 H 256.74 -2.44393 0.755359 0
M  V30 2579 H 256.384 -4.92639 1.2357 0
M  V30 2580 H 256.314 -5.24061 -0.516489 0
M  V30 2581 H 258.805 -3.77885 0.0331115 0
M  V30 2582 H 259.118 -7.69689 0.69275 0
M  V30 2583 H 257.463 -6.92264 0.616087 0
M  V30 2584 H 260.654 -4.67932 0.125258 0
M  V30 2585 H 260.827 -6.46599 0.425831 0
M  V30 2586 N 254.233 0.115231 -1.57178 0
M  V30 2587 C 255.196 1.12526 -1.99676 0
M  V30 2588 C 256.196 1.34095 -0.88742 0
M  V30 2589 O 257.386 1.30548 -1.15337 0
M  V30 2590 C 254.518 2.4789 -2.34015 0
M  V30 2591 H 255.711 0.759912 -2.90113 0
M  V30 2592 H 253.264 0.359648 -1.52106 0
M  V30 2593 H 253.999 2.89339 -1.4647 0
M  V30 2594 H 253.784 2.33588 -3.14927 0
M  V30 2595 H 255.274 3.20575 -2.67622 0
M  V30 2596 N 255.711 1.52812 0.385517 0
M  V30 2597 C 256.957 1.69225 1.12847 0
M  V30 2598 C 257.312 0.42864 1.87564 0
M  V30 2599 O 256.605 -0.57779 1.8268 0
M  V30 2600 C 256.799 2.86856 2.13187 0
M  V30 2601 C 256.628 4.24535 1.48325 0
M  V30 2602 C 255.398 4.89701 1.24585 0
M  V30 2603 C 257.596 5.05794 0.931501 0
M  V30 2604 N 255.578 6.11353 0.558644 0
M  V30 2605 C 256.949 6.1888 0.372552 0
M  V30 2606 C 259.004 4.90963 0.828248 0
M  V30 2607 C 257.707 7.18757 -0.279556 0
M  V30 2608 C 259.733 5.91095 0.189956 0
M  V30 2609 C 259.095 7.03489 -0.358207 0
M  V30 2610 H 255.194 0.67268 0.39878 0
M  V30 2611 H 257.778 1.9017 0.417528 0
M  V30 2612 H 255.949 2.67484 2.81614 0
M  V30 2613 H 257.681 2.92188 2.80014 0
M  V30 2614 H 254.436 4.48485 1.52178 0
M  V30 2615 H 254.86 6.76606 0.230983 0
M  V30 2616 H 259.502 4.04274 1.23784 0
M  V30 2617 H 257.22 8.05052 -0.701152 0
M  V30 2618 H 260.806 5.81694 0.111264 0
M  V30 2619 H 259.686 7.79642 -0.844314 0
M  V30 2620 N 257.189 -0.644168 1.43834 0
M  V30 2621 C 258.605 -0.960875 1.27434 0
M  V30 2622 C 258.805 -2.00499 0.200618 0
M  V30 2623 O 257.861 -2.49018 -0.417906 0
M  V30 2624 C 259.174 -1.43653 2.64167 0
M  V30 2625 C 260.722 -1.55271 2.71772 0
M  V30 2626 C 261.197 -2.06224 4.08944 0
M  V30 2627 N 262.688 -2.13513 4.11055 0
M  V30 2628 C 263.423 -2.54081 5.14033 0
M  V30 2629 N 262.919 -2.9388 6.27381 0
M  V30 2630 N 264.712 -2.54101 5.01387 0
M  V30 2631 H 256.863 0.0465779 2.12349 0
M  V30 2632 H 259.126 -0.0417638 0.94708 0
M  V30 2633 H 258.832 -0.743706 3.43747 0
M  V30 2634 H 258.706 -2.40993 2.90176 0
M  V30 2635 H 261.093 -2.23653 1.92519 0
M  V30 2636 H 261.174 -0.563395 2.49519 0
M  V30 2637 H 260.818 -1.38441 4.88668 0
M  V30 2638 H 260.748 -3.06003 4.28567 0
M  V30 2639 H 263.239 -1.85493 3.29242 0
M  V30 2640 H 263.552 -3.2361 7.01781 0
M  V30 2641 H 261.897 -2.91663 6.30839 0
M  V30 2642 H 265.088 -2.22391 4.11898 0
M  V30 2643 H 265.261 -2.85394 5.81768 0
M  V30 2644 N 258.668 -1.30515 -0.883378 0
M  V30 2645 C 260.084 -1.08881 -1.16692 0
M  V30 2646 C 260.284 0.149409 -2.00945 0
M  V30 2647 O 259.34 0.84257 -2.38027 0
M  V30 2648 C 260.653 -2.35319 -1.87204 0
M  V30 2649 C 262.201 -2.40799 -1.99962 0
M  V30 2650 C 262.676 -3.67083 -2.73887 0
M  V30 2651 N 264.167 -3.679 -2.81432 0
M  V30 2652 C 264.902 -4.62303 -3.3921 0
M  V30 2653 N 264.398 -5.67052 -3.98025 0
M  V30 2654 N 266.191 -4.49845 -3.3704 0
M  V30 2655 H 258.342 -2.09951 -0.321633 0
M  V30 2656 H 260.605 -0.92556 -0.205043 0
M  V30 2657 H 260.311 -3.25689 -1.3274 0
M  V30 2658 H 260.185 -2.44089 -2.87577 0
M  V30 2659 H 262.572 -1.50907 -2.53597 0
M  V30 2660 H 262.653 -2.36003 -0.98673 0
M  V30 2661 H 262.297 -4.57334 -2.20925 0
M  V30 2662 H 262.227 -3.69141 -3.75556 0
M  V30 2663 H 264.718 -2.92171 -2.39676 0
M  V30 2664 H 265.031 -6.35184 -4.40183 0
M  V30 2665 H 263.376 -5.70842 -3.96439 0
M  V30 2666 H 266.567 -3.67194 -2.90321 0
M  V30 2667 H 266.74 -5.23597 -3.81772 0
M  V30 2668 N 260.146 1.09593 -1.13257 0
M  V30 2669 C 261.079 2.15451 -0.752061 0
M  V30 2670 C 262.057 1.60493 0.260913 0
M  V30 2671 O 263.241 1.8788 0.152819 0
M  V30 2672 C 260.368 3.38506 -0.114594 0
M  V30 2673 C 259.414 4.12183 -1.09579 0
M  V30 2674 S 260.247 4.6661 -2.62745 0
M  V30 2675 C 261.403 5.92966 -2.00354 0
M  V30 2676 H 261.636 2.47395 -1.64872 0
M  V30 2677 H 259.169 1.21515 -0.952545 0
M  V30 2678 H 261.127 4.09757 0.246808 0
M  V30 2679 H 259.788 3.04784 0.759309 0
M  V30 2680 H 258.981 5.00445 -0.597545 0
M  V30 2681 H 258.583 3.46785 -1.40057 0
M  V30 2682 H 260.875 6.63882 -1.35156 0
M  V30 2683 H 261.818 6.47467 -2.86691 0
M  V30 2684 H 262.226 5.45405 -1.4558 0
M  V30 2685 N 261.624 0.925811 1.2754 0
M  V30 2686 C 262.849 0.580924 1.99098 0
M  V30 2687 C 263.274 -0.833555 1.68622 0
M  V30 2688 O 262.632 -1.55903 0.925422 0
M  V30 2689 C 262.68 0.811186 3.51358 0
M  V30 2690 O 261.784 -0.124129 4.12213 0
M  V30 2691 H 261.125 0.223873 0.625122 0
M  V30 2692 H 263.655 1.24455 1.62395 0
M  V30 2693 H 263.665 0.72601 4.01489 0
M  V30 2694 H 262.34 1.84227 3.72872 0
M  V30 2695 H 260.917 0.0108006 3.72898 0
M  V30 2696 N 263.102 -1.41638 0.69111 0
M  V30 2697 C 264.518 -1.55435 0.362224 0
M  V30 2698 C 264.718 -1.66754 -1.13117 0
M  V30 2699 O 263.774 -1.64348 -1.91692 0
M  V30 2700 C 265.087 -2.79588 1.10684 0
M  V30 2701 C 266.635 -2.9338 1.09075 0
M  V30 2702 C 267.11 -4.20414 1.81703 0
M  V30 2703 N 268.601 -4.27362 1.7865 0
M  V30 2704 C 269.336 -5.24507 2.31689 0
M  V30 2705 N 268.832 -6.27708 2.93179 0
M  V30 2706 N 270.625 -5.16416 2.2197 0
M  V30 2707 H 262.776 -1.32536 1.65976 0
M  V30 2708 H 265.039 -0.639115 0.700168 0
M  V30 2709 H 264.745 -2.77419 2.16175 0
M  V30 2710 H 264.619 -3.70973 0.682545 0
M  V30 2711 H 267.006 -2.95067 0.0441238 0
M  V30 2712 H 267.087 -2.0318 1.55407 0
M  V30 2713 H 266.731 -4.19488 2.86343 0
M  V30 2714 H 266.661 -5.09578 1.32808 0
M  V30 2715 H 269.152 -3.53415 1.33815 0
M  V30 2716 H 269.465 -6.98217 3.31229 0
M  V30 2717 H 267.81 -6.28223 2.97255 0
M  V30 2718 H 271.001 -4.34716 1.73607 0
M  V30 2719 H 271.174 -5.91958 2.63609 0
M  V30 2720 N 264.58 -0.43555 -1.51462 0
M  V30 2721 C 265.805 0.132627 -2.06976 0
M  V30 2722 C 266.23 1.35848 -1.30104 0
M  V30 2723 O 265.588 1.78112 -0.338493 0
M  V30 2724 C 265.636 0.43523 -3.57964 0
M  V30 2725 O 264.74 1.52198 -3.83288 0
M  V30 2726 H 264.081 0.00265 -0.663995 0
M  V30 2727 H 266.611 -0.616369 -1.95095 0
M  V30 2728 H 266.621 0.686206 -4.02188 0
M  V30 2729 H 265.296 -0.460739 -4.1334 0
M  V30 2730 H 263.873 1.2611 -3.50928 0
M  V30 2731 N 266.058 1.56714 -0.166846 0
M  V30 2732 C 267.305 1.96747 0.479252 0
M  V30 2733 C 267.633 1.05263 1.63554 0
M  V30 2734 O 266.888 0.0858098 1.95512 0
M  V30 2735 C 267.187 3.42889 1.00806 0
M  V30 2736 C 266.853 4.50889 -0.0318574 0
M  V30 2737 C 265.515 4.8015 -0.317675 0
M  V30 2738 C 267.867 5.15949 -0.737956 0
M  V30 2739 C 265.195 5.71772 -1.31506 0
M  V30 2740 C 267.547 6.08647 -1.72429 0
M  V30 2741 C 266.211 6.36277 -2.0176 0
M  V30 2742 H 265.481 0.719949 0.175371 0
M  V30 2743 H 268.128 1.89756 -0.257864 0
M  V30 2744 H 266.433 3.4681 1.82291 0
M  V30 2745 H 268.13 3.71203 1.51689 0
M  V30 2746 H 264.72 4.28128 0.201088 0
M  V30 2747 H 268.904 4.93458 -0.530351 0
M  V30 2748 H 264.16 5.91465 -1.54853 0
M  V30 2749 H 268.334 6.58129 -2.27682 0
M  V30 2750 H 265.961 7.07075 -2.79194 0
M  V30 2751 N 267.536 -0.106894 1.57237 0
M  V30 2752 C 268.468 -1.15646 1.97885 0
M  V30 2753 C 269.481 -1.36981 0.879779 0
M  V30 2754 O 270.67 -1.35841 1.15799 0
M  V30 2755 C 267.77 -2.51425 2.27241 0
M  V30 2756 C 266.943 -2.50529 3.58545 0
M  V30 2757 C 266.002 -3.68145 3.75973 0
M  V30 2758 O 265.028 -3.51176 4.47956 0
M  V30 2759 N 266.23 -4.87177 3.15656 0
M  V30 2760 H 268.995 -0.81059 2.8853 0
M  V30 2761 H 266.556 -0.296024 1.59171 0
M  V30 2762 H 268.548 -3.28689 2.36105 0
M  V30 2763 H 267.118 -2.78147 1.42663 0
M  V30 2764 H 266.338 -1.58894 3.60758 0
M  V30 2765 H 267.626 -2.46997 4.44826 0
M  V30 2766 H 267.024 -5.03868 2.57165 0
M  V30 2767 H 265.581 -5.62075 3.30023 0
M  V30 2768 N 269.014 -1.53014 -0.377408 0
M  V30 2769 C 270.263 -1.67845 -1.11853 0
M  V30 2770 C 270.576 -0.430625 -1.90801 0
M  V30 2771 O 271.782 -0.459261 -2.67587 0
M  V30 2772 C 270.238 -2.96668 -2.03756 0
M  V30 2773 C 269.846 -4.28671 -1.30175 0
M  V30 2774 C 271.59 -3.20865 -2.77932 0
M  V30 2775 C 269.497 -5.48591 -2.20911 0
M  V30 2776 H 268.427 -0.625343 -0.421263 0
M  V30 2777 H 271.078 -1.79514 -0.380409 0
M  V30 2778 H 269.46 -2.78773 -2.8125 0
M  V30 2779 H 270.634 -4.57157 -0.578259 0
M  V30 2780 H 268.949 -4.10825 -0.679108 0
M  V30 2781 H 271.546 -4.07642 -3.46024 0
M  V30 2782 H 271.889 -2.36424 -3.4265 0
M  V30 2783 H 272.422 -3.39379 -2.07525 0
M  V30 2784 H 269.161 -6.35474 -1.6079 0
M  V30 2785 H 268.681 -5.244 -2.91144 0
M  V30 2786 H 270.36 -5.8292 -2.80736 0
M  V30 2787 N 270.492 0.636531 -1.44174 0
M  V30 2788 C 271.442 1.74233 -1.47061 0
M  V30 2789 C 272.426 1.57331 -0.337034 0
M  V30 2790 O 273.618 1.67159 -0.581973 0
M  V30 2791 C 270.747 3.12897 -1.41246 0
M  V30 2792 C 269.833 3.35288 -2.59698 0
M  V30 2793 N 270.224 3.2807 -3.84972 0
M  V30 2794 C 268.522 3.66065 -2.54778 0
M  V30 2795 C 269.223 3.51001 -4.63867 0
M  V30 2796 N 268.199 3.73616 -3.94857 0
M  V30 2797 H 272.001 1.67103 -2.41773 0
M  V30 2798 H 269.515 0.838806 -1.3906 0
M  V30 2799 H 271.512 3.92189 -1.41398 0
M  V30 2800 H 270.172 3.21197 -0.47569 0
M  V30 2801 H 271.183 3.07109 -4.17019 0
M  V30 2802 H 267.86 3.81379 -1.6987 0
M  V30 2803 H 269.25 3.51059 -5.72894 0
M  V30 2804 N 271.97 1.30982 0.876444 0
M  V30 2805 C 272.92 1.14688 1.97055 0
M  V30 2806 C 273.904 0.0596593 1.60789 0
M  V30 2807 O 275.096 0.283892 1.74708 0
M  V30 2808 C 272.225 0.849627 3.3262 0
M  V30 2809 C 271.311 1.97752 3.75173 0
M  V30 2810 N 271.702 3.22384 3.89746 0
M  V30 2811 C 270 1.8758 4.04635 0
M  V30 2812 C 270.701 3.96121 4.25985 0
M  V30 2813 N 269.677 3.24237 4.36315 0
M  V30 2814 H 273.479 2.09204 2.06424 0
M  V30 2815 H 270.993 1.22445 1.06682 0
M  V30 2816 H 272.99 0.713895 4.10742 0
M  V30 2817 H 271.65 -0.087376 3.24582 0
M  V30 2818 H 272.661 3.57575 3.74647 0
M  V30 2819 H 269.338 1.01303 4.05024 0
M  V30 2820 H 270.728 5.03491 4.44911 0
M  V30 2821 N 273.449 -1.08991 1.13837 0
M  V30 2822 C 274.865 -1.33312 0.877506 0
M  V30 2823 C 275.065 -1.95587 -0.48456 0
M  V30 2824 O 274.121 -2.20509 -1.23013 0
M  V30 2825 C 275.434 -2.24045 2.0056 0
M  V30 2826 C 276.982 -2.37542 2.03821 0
M  V30 2827 C 277.457 -3.31614 3.15905 0
M  V30 2828 N 278.948 -3.39189 3.15445 0
M  V30 2829 C 279.683 -4.11992 3.98811 0
M  V30 2830 N 279.179 -4.87553 4.92203 0
M  V30 2831 N 280.972 -4.07762 3.86894 0
M  V30 2832 H 273.123 -0.669456 2.01574 0
M  V30 2833 H 275.386 -0.357482 0.878015 0
M  V30 2834 H 275.092 -1.85521 2.98789 0
M  V30 2835 H 274.966 -3.24466 1.92359 0
M  V30 2836 H 277.353 -2.75327 1.06202 0
M  V30 2837 H 277.434 -1.36884 2.16093 0
M  V30 2838 H 277.078 -2.94551 4.13766 0
M  V30 2839 H 277.008 -4.32186 3.0087 0
M  V30 2840 H 279.499 -2.85314 2.47799 0
M  V30 2841 H 279.812 -5.40549 5.52292 0
M  V30 2842 H 278.157 -4.86627 4.96205 0
M  V30 2843 H 281.348 -3.47833 3.13257 0
M  V30 2844 H 281.521 -4.64238 4.52092 0
M  V30 2845 N 274.927 -0.932562 -1.27047 0
M  V30 2846 C 276.155 -0.592031 -1.98249 0
M  V30 2847 C 276.57 0.831062 -1.69525 0
M  V30 2848 O 275.927 1.55299 -0.958561 0
M  V30 2849 C 275.978 -0.814279 -3.5221 0
M  V30 2850 O 275.699 -2.18139 -3.7993 0
M  V30 2851 C 277.2 -0.483121 -4.4066 0
M  V30 2852 H 274.42 -0.223896 -0.632544 0
M  V30 2853 H 276.964 -1.25091 -1.61779 0
M  V30 2854 H 275.119 -0.20213 -3.86872 0
M  V30 2855 H 275.533 -2.235 -4.74498 0
M  V30 2856 H 277.007 -0.689298 -5.47679 0
M  V30 2857 H 277.484 0.581546 -4.35333 0
M  V30 2858 H 278.09 -1.07362 -4.11526 0
M  V30 2859 N 276.405 1.4127 -0.698611 0
M  V30 2860 C 277.63 2.06024 -0.238512 0
M  V30 2861 C 278.055 1.5224 1.10475 0
M  V30 2862 O 277.413 0.650623 1.69223 0
M  V30 2863 C 277.461 3.59988 -0.209952 0
M  V30 2864 O 276.565 4.04282 0.814235 0
M  V30 2865 H 275.906 0.653829 -0.115775 0
M  V30 2866 H 278.436 1.8098 -0.954326 0
M  V30 2867 H 278.446 4.07979 -0.0418436 0
M  V30 2868 H 277.121 3.98503 -1.1903 0
M  V30 2869 H 275.698 3.6779 0.615234 0
M  V30 2870 N 277.883 0.443576 1.51229 0
M  V30 2871 C 279.13 -0.120796 2.02139 0
M  V30 2872 C 279.458 -1.42166 1.32736 0
M  V30 2873 O 278.713 -1.90849 0.43301 0
M  V30 2874 C 279.012 -0.380579 3.55368 0
M  V30 2875 C 278.678 0.83523 4.43097 0
M  V30 2876 C 277.34 1.16864 4.66794 0
M  V30 2877 C 279.692 1.64601 4.94526 0
M  V30 2878 C 277.02 2.31339 5.39165 0
M  V30 2879 C 279.372 2.78181 5.68153 0
M  V30 2880 C 278.036 3.11969 5.90112 0
M  V30 2881 H 277.306 -0.0442023 0.73968 0
M  V30 2882 H 279.953 0.592046 1.82118 0
M  V30 2883 H 278.258 -1.17538 3.73754 0
M  V30 2884 H 279.955 -0.830777 3.923 0
M  V30 2885 H 276.545 0.565437 4.24854 0
M  V30 2886 H 280.729 1.40163 4.76097 0
M  V30 2887 H 275.985 2.57823 5.5438 0
M  V30 2888 H 280.159 3.41371 6.06992 0
M  V30 2889 H 277.786 4.00784 6.45969 0
M  V30 2890 N 279.361 -1.56624 0.175154 0
M  V30 2891 C 280.777 -1.58571 -0.180966 0
M  V30 2892 C 280.977 -1.19065 -1.6256 0
M  V30 2893 O 280.033 -0.904044 -2.35761 0
M  V30 2894 C 281.346 -3.00522 0.103326 0
M  V30 2895 C 282.894 -3.12972 0.0418426 0
M  V30 2896 C 283.369 -4.57022 0.299175 0
M  V30 2897 N 284.86 -4.62541 0.247086 0
M  V30 2898 C 285.595 -5.71857 0.420318 0
M  V30 2899 N 285.091 -6.89717 0.652816 0
M  V30 2900 N 286.884 -5.60972 0.355957 0
M  V30 2901 H 279.035 -1.80589 1.11809 0
M  V30 2902 H 281.298 -0.837178 0.444788 0
M  V30 2903 H 281.004 -3.33916 1.10422 0
M  V30 2904 H 280.878 -3.72344 -0.603299 0
M  V30 2905 H 283.265 -2.79403 -0.949636 0
M  V30 2906 H 283.346 -2.43578 0.781238 0
M  V30 2907 H 282.99 -4.913 1.28788 0
M  V30 2908 H 282.92 -5.24579 -0.460876 0
M  V30 2909 H 285.411 -3.77829 0.0731895 0
M  V30 2910 H 285.724 -7.68911 0.774347 0
M  V30 2911 H 284.069 -6.91572 0.689476 0
M  V30 2912 H 287.26 -4.67773 0.174882 0
M  V30 2913 H 287.433 -6.46111 0.494388 0
M  V30 2914 N 280.839 0.0985539 -1.57292 0
M  V30 2915 C 282.067 0.816318 -1.90115 0
M  V30 2916 C 282.482 1.72451 -0.768509 0
M  V30 2917 O 281.839 1.80643 0.259687 0
M  V30 2918 C 281.89 1.63259 -3.22535 0
M  V30 2919 O 281.611 0.760934 -4.31441 0
M  V30 2920 C 283.112 2.45372 -3.69199 0
M  V30 2921 H 280.332 0.233595 -0.629027 0
M  V30 2922 H 282.876 0.0768229 -2.04356 0
M  V30 2923 H 281.031 2.32463 -3.09903 0
M  V30 2924 H 281.445 1.32595 -5.07463 0
M  V30 2925 H 282.919 2.98144 -4.64558 0
M  V30 2926 H 283.396 3.23677 -2.96867 0
M  V30 2927 H 284.002 1.81373 -3.84687 0
M  V30 2928 N 282.317 1.53212 0.369288 0
M  V30 2929 C 283.733 1.42902 0.710712 0
M  V30 2930 C 283.933 0.565135 1.93413 0
M  V30 2931 O 282.989 0.0461484 2.52458 0
M  V30 2932 C 284.302 2.86042 0.927382 0
M  V30 2933 C 285.85 2.9565 1.02762 0
M  V30 2934 C 286.325 4.39843 1.27679 0
M  V30 2935 N 287.816 4.43256 1.34457 0
M  V30 2936 C 288.551 5.51929 1.55439 0
M  V30 2937 N 288.047 6.70655 1.73762 0
M  V30 2938 N 289.84 5.39502 1.57779 0
M  V30 2939 H 281.991 2.07888 -0.435457 0
M  V30 2940 H 284.254 0.938661 -0.132739 0
M  V30 2941 H 283.96 3.51557 0.100287 0
M  V30 2942 H 283.834 3.29472 1.83653 0
M  V30 2943 H 286.221 2.30291 1.84527 0
M  V30 2944 H 286.302 2.5562 0.0959504 0
M  V30 2945 H 285.946 5.05774 0.464175 0
M  V30 2946 H 285.876 4.77443 2.22162 0
M  V30 2947 H 288.367 3.5769 1.21926 0
M  V30 2948 H 288.68 7.49248 1.89335 0
M  V30 2949 H 287.025 6.73648 1.70948 0
M  V30 2950 H 290.216 4.45713 1.43029 0
M  V30 2951 H 290.389 6.2426 1.7379 0
M  V30 2952 N 283.795 -0.628877 1.44509 0
M  V30 2953 C 285.211 -0.947305 1.28446 0
M  V30 2954 C 285.411 -2.00275 0.221872 0
M  V30 2955 O 284.467 -2.49447 -0.391471 0
M  V30 2956 C 285.78 -1.40843 2.65676 0
M  V30 2957 C 287.328 -1.52379 2.73404 0
M  V30 2958 C 287.803 -2.01875 4.11109 0
M  V30 2959 N 289.294 -2.09142 4.13296 0
M  V30 2960 C 290.029 -2.48615 5.16699 0
M  V30 2961 N 289.525 -2.87209 6.30462 0
M  V30 2962 N 291.318 -2.48768 5.04054 0
M  V30 2963 H 283.469 0.0690977 2.12288 0
M  V30 2964 H 285.732 -0.0317164 0.947469 0
M  V30 2965 H 285.438 -0.707206 3.44516 0
M  V30 2966 H 285.312 -2.37902 2.92716 0
M  V30 2967 H 287.699 -2.21598 1.9488 0
M  V30 2968 H 287.78 -0.536898 2.50102 0
M  V30 2969 H 287.424 -1.3325 4.90109 0
M  V30 2970 H 287.354 -3.0144 4.31789 0
M  V30 2971 H 289.845 -1.81991 3.31191 0
M  V30 2972 H 290.158 -3.16149 7.05174 0
M  V30 2973 H 288.503 -2.84955 6.33897 0
M  V30 2974 H 291.694 -2.18009 4.14234 0
M  V30 2975 H 291.867 -2.79207 5.84763 0
M  V30 2976 N 285.273 -1.31445 -0.869486 0
M  V30 2977 C 286.183 -1.21097 -2.0093 0
M  V30 2978 C 287.199 -0.127584 -1.73532 0
M  V30 2979 O 288.375 -0.345477 -1.98415 0
M  V30 2980 C 285.44 -0.919378 -3.34288 0
M  V30 2981 C 284.501 -2.08971 -3.75006 0
M  V30 2982 C 283.734 -1.81194 -5.02001 0
M  V30 2983 O 283.957 -0.747296 -5.65484 0
M  V30 2984 O 282.891 -2.66883 -5.39497 0
M  V30 2985 H 286.717 -2.16883 -2.12592 0
M  V30 2986 H 284.302 -1.11189 -0.997868 0
M  V30 2987 H 286.184 -0.772625 -4.14257 0
M  V30 2988 H 284.859 0.00844772 -3.23699 0
M  V30 2989 H 283.766 -2.29187 -2.95676 0
M  V30 2990 H 285.099 -2.9998 -3.90221 0
M  V30 2991 N 286.751 1.08385 -1.14413 0
M  V30 2992 C 287.997 1.81212 -0.923793 0
M  V30 2993 C 288.352 1.84555 0.543814 0
M  V30 2994 O 287.645 1.31056 1.39767 0
M  V30 2995 C 287.839 3.26273 -1.45879 0
M  V30 2996 C 287.668 3.37063 -2.97689 0
M  V30 2997 C 286.438 3.4824 -3.66138 0
M  V30 2998 C 288.636 3.28698 -3.95553 0
M  V30 2999 N 286.618 3.47824 -5.05858 0
M  V30 3000 C 287.989 3.35276 -5.21527 0
M  V30 3001 C 290.044 3.12437 -3.8767 0
M  V30 3002 C 288.747 3.27267 -6.40538 0
M  V30 3003 C 290.773 3.05757 -5.06228 0
M  V30 3004 C 290.135 3.12938 -6.3107 0
M  V30 3005 H 286.234 0.6769 -0.391574 0
M  V30 3006 H 288.818 1.29455 -1.45429 0
M  V30 3007 H 286.989 3.76474 -0.95507 0
M  V30 3008 H 288.721 3.87165 -1.17835 0
M  V30 3009 H 285.476 3.52141 -3.16692 0
M  V30 3010 H 285.9 3.51171 -5.78798 0
M  V30 3011 H 290.542 3.05747 -2.92025 0
M  V30 3012 H 288.26 3.32718 -7.36427 0
M  V30 3013 H 291.846 2.94295 -5.01878 0
M  V30 3014 H 290.726 3.078 -7.21269 0
M  V30 3015 N 288.23 0.939286 1.26551 0
M  V30 3016 C 289.476 0.586715 1.94128 0
M  V30 3017 C 289.809 -0.8717 1.73537 0
M  V30 3018 O 289.084 -1.62339 1.07127 0
M  V30 3019 C 289.367 0.927497 3.4795 0
M  V30 3020 C 289.22 2.44052 3.77834 0
M  V30 3021 C 290.539 0.441569 4.37879 0
M  V30 3022 H 287.658 0.21463 0.705055 0
M  V30 3023 H 290.3 1.17316 1.49455 0
M  V30 3024 H 288.45 0.428431 3.8613 0
M  V30 3025 H 290.122 3.01216 3.4938 0
M  V30 3026 H 288.365 2.8848 3.23978 0
M  V30 3027 H 289.036 2.62947 4.85348 0
M  V30 3028 H 291.512 0.869448 4.06915 0
M  V30 3029 H 290.388 0.708856 5.44304 0
M  V30 3030 H 290.649 -0.658467 4.37169 0
M  V30 3031 N 289.708 -1.40897 0.706093 0
M  V30 3032 C 290.638 -2.33418 0.0620085 0
M  V30 3033 C 291.619 -1.52385 -0.755827 0
M  V30 3034 O 292.804 -1.80886 -0.706674 0
M  V30 3035 C 289.934 -3.36293 -0.867445 0
M  V30 3036 C 288.888 -4.27716 -0.155932 0
M  V30 3037 C 288.214 -5.2105 -1.20046 0
M  V30 3038 C 289.514 -5.12944 0.984149 0
M  V30 3039 H 291.208 -2.87527 0.83477 0
M  V30 3040 H 288.754 -1.38249 0.402875 0
M  V30 3041 H 290.707 -3.99949 -1.32735 0
M  V30 3042 H 289.431 -2.80556 -1.67199 0
M  V30 3043 H 288.09 -3.65498 0.284047 0
M  V30 3044 H 287.738 -4.61624 -1.99781 0
M  V30 3045 H 287.438 -5.83056 -0.729328 0
M  V30 3046 H 288.962 -5.87584 -1.66066 0
M  V30 3047 H 290.376 -5.70109 0.604048 0
M  V30 3048 H 288.773 -5.83945 1.38304 0
M  V30 3049 H 289.843 -4.49485 1.81911 0
M  V30 3050 N 291.186 -0.45159 -1.50991 0
M  V30 3051 C 292.116 0.342898 -2.30969 0
M  V30 3052 C 293.097 1.00815 -1.37005 0
M  V30 3053 O 294.282 1.00907 -1.65926 0
M  V30 3054 C 291.412 1.43637 -3.16205 0
M  V30 3055 C 290.366 0.893818 -4.18563 0
M  V30 3056 C 289.692 2.08411 -4.92411 0
M  V30 3057 C 290.992 -0.0815568 -5.22236 0
M  V30 3058 H 292.686 -0.324556 -2.97636 0
M  V30 3059 H 290.232 -0.157531 -1.43136 0
M  V30 3060 H 292.185 1.9995 -3.70942 0
M  V30 3061 H 290.909 2.13232 -2.47386 0
M  V30 3062 H 289.568 0.352798 -3.64898 0
M  V30 3063 H 289.216 2.76658 -4.20082 0
M  V30 3064 H 288.916 1.72741 -5.61636 0
M  V30 3065 H 290.44 2.65251 -5.49976 0
M  V30 3066 H 291.854 0.391742 -5.7196 0
M  V30 3067 H 290.251 -0.351551 -5.99069 0
M  V30 3068 H 291.321 -1.01374 -4.74185 0
M  V30 3069 N 292.664 1.56529 -0.183458 0
M  V30 3070 C 293.912 1.96855 0.457452 0
M  V30 3071 C 294.233 1.07104 1.62953 0
M  V30 3072 O 293.503 0.139887 1.954 0
M  V30 3073 H 292.083 0.72693 0.171992 0
M  V30 3074 H 294.745 1.93056 -0.267476 0
M  V30 3075 H 293.841 3.01423 0.809368 0
M  V30 3076 N 294.142 -0.090211 1.57342 0
M  V30 3077 C 295.391 -0.791531 1.8552 0
M  V30 3078 C 295.704 -1.79659 0.773441 0
M  V30 3079 O 296.91 -2.54616 0.942497 0
M  V30 3080 C 295.366 -1.45856 3.2902 0
M  V30 3081 C 294.974 -0.493017 4.45279 0
M  V30 3082 C 296.718 -2.14332 3.66418 0
M  V30 3083 C 294.625 -1.16491 5.79814 0
M  V30 3084 H 293.555 -0.299356 0.692027 0
M  V30 3085 H 296.206 -0.0445343 1.83446 0
M  V30 3086 H 294.588 -2.25318 3.2565 0
M  V30 3087 H 295.762 0.270464 4.60006 0
M  V30 3088 H 294.077 0.0863061 4.16311 0
M  V30 3089 H 296.674 -2.65344 4.64216 0
M  V30 3090 H 297.017 -2.93447 2.95287 0
M  V30 3091 H 297.55 -1.41724 3.71698 0
M  V30 3092 H 294.289 -0.41447 6.54188 0
M  V30 3093 H 293.809 -1.8997 5.68921 0
M  V30 3094 H 295.488 -1.69001 6.24538 0
M  V30 3095 N 295.62 -1.53406 -0.361157 0
M  V30 3096 C 296.552 -1.76446 -1.46286 0
M  V30 3097 C 297.565 -0.645322 -1.49464 0
M  V30 3098 O 298.754 -0.921681 -1.52864 0
M  V30 3099 C 295.854 -1.83332 -2.85031 0
M  V30 3100 C 295.027 -3.13033 -3.05498 0
M  V30 3101 C 294.086 -3.11104 -4.24383 0
M  V30 3102 O 293.112 -3.84888 -4.19344 0
M  V30 3103 N 294.314 -2.32234 -5.32022 0
M  V30 3104 H 297.079 -2.71508 -1.26899 0
M  V30 3105 H 294.64 -1.52238 -0.550915 0
M  V30 3106 H 296.632 -1.79514 -3.62708 0
M  V30 3107 H 295.202 -0.955342 -2.97644 0
M  V30 3108 H 294.422 -3.30119 -2.15442 0
M  V30 3109 H 295.71 -3.9874 -3.16044 0
M  V30 3110 H 295.108 -1.71807 -5.38979 0
M  V30 3111 H 293.665 -2.3423 -6.08259 0
M  V30 3112 N 297.098 0.621204 -1.44841 0
M  V30 3113 C 298.045 1.73267 -1.5247 0
M  V30 3114 C 299.015 1.6189 -0.371611 0
M  V30 3115 O 300.2 1.81668 -0.58321 0
M  V30 3116 C 297.34 3.11545 -1.48438 0
M  V30 3117 C 296.453 3.33827 -2.74196 0
M  V30 3118 C 295.588 4.62133 -2.61929 0
M  V30 3119 C 294.627 4.77627 -3.82804 0
M  V30 3120 N 293.764 5.97219 -3.69153 0
M  V30 3121 H 298.604 1.66082 -2.47428 0
M  V30 3122 H 296.141 0.810026 -1.22788 0
M  V30 3123 H 298.099 3.91528 -1.4409 0
M  V30 3124 H 296.729 3.1772 -0.570402 0
M  V30 3125 H 295.781 2.47715 -2.88689 0
M  V30 3126 H 297.093 3.41153 -3.6389 0
M  V30 3127 H 296.247 5.50291 -2.5547 0
M  V30 3128 H 294.986 4.57182 -1.69811 0
M  V30 3129 H 293.991 3.87896 -3.89637 0
M  V30 3130 H 295.216 4.84385 -4.75971 0
M  V30 3131 H 293.162 5.93339 -2.79794 0
M  V30 3132 H 293.079 6.05644 -4.52472 0
M  V30 3133 H 294.347 6.87912 -3.66603 0
M  V30 3134 N 298.576 1.31904 0.862503 0
M  V30 3135 C 299.992 1.10724 1.14945 0
M  V30 3136 C 300.192 -0.117421 2.01158 0
M  V30 3137 O 299.248 -0.804595 2.39338 0
M  V30 3138 C 300.561 2.38267 1.83437 0
M  V30 3139 C 302.109 2.43949 1.96106 0
M  V30 3140 C 302.584 3.71394 2.68013 0
M  V30 3141 N 304.075 3.72331 2.75543 0
M  V30 3142 C 304.81 4.67641 3.31812 0
M  V30 3143 N 304.306 5.73313 3.88953 0
M  V30 3144 N 306.099 4.5515 3.29841 0
M  V30 3145 H 298.25 2.10436 0.288191 0
M  V30 3146 H 300.513 0.928705 0.190292 0
M  V30 3147 H 300.219 3.27759 1.27542 0
M  V30 3148 H 300.093 2.48633 2.83657 0
M  V30 3149 H 302.48 1.54922 2.51164 0
M  V30 3150 H 302.561 2.37543 0.949059 0
M  V30 3151 H 302.205 4.60791 2.13621 0
M  V30 3152 H 302.135 3.75069 3.69636 0
M  V30 3153 H 304.626 2.95947 2.34997 0
M  V30 3154 H 304.939 6.42107 4.30022 0
M  V30 3155 H 303.284 5.77077 3.87308 0
M  V30 3156 H 306.475 3.71766 2.84443 0
M  V30 3157 H 306.648 5.29604 3.73394 0
M  V30 3158 N 300.054 -1.07777 1.14986 0
M  V30 3159 C 301.282 -1.84018 0.945773 0
M  V30 3160 C 301.697 -1.81897 -0.505863 0
M  V30 3161 O 301.054 -1.22726 -1.35072 0
M  V30 3162 C 301.105 -3.31287 1.44677 0
M  V30 3163 O 300.826 -3.33449 2.84154 0
M  V30 3164 C 302.327 -4.24311 1.28355 0
M  V30 3165 H 299.547 -0.580716 0.336169 0
M  V30 3166 H 302.091 -1.36077 1.52654 0
M  V30 3167 H 300.246 -3.76594 0.908625 0
M  V30 3168 H 300.66 -4.25427 3.06777 0
M  V30 3169 H 302.134 -5.2573 1.68261 0
M  V30 3170 H 302.611 -4.38612 0.227184 0
M  V30 3171 H 303.217 -3.84836 1.81056 0
M  V30 3172 N 301.532 -0.945985 -1.26051 0
M  V30 3173 C 302.781 -0.591836 -1.92822 0
M  V30 3174 C 303.094 0.873956 -1.7499 0
M  V30 3175 O 304.3 1.33769 -2.36259 0
M  V30 3176 C 302.756 -1.00776 -3.45503 0
M  V30 3177 C 302.364 -2.4955 -3.7206 0
M  V30 3178 C 304.108 -0.725735 -4.1825 0
M  V30 3179 C 302.015 -2.84988 -5.18205 0
M  V30 3180 H 300.945 -0.217635 -0.721908 0
M  V30 3181 H 303.596 -1.14927 -1.43052 0
M  V30 3182 H 301.978 -0.378812 -3.94184 0
M  V30 3183 H 303.152 -3.1739 -3.34066 0
M  V30 3184 H 301.467 -2.75133 -3.12555 0
M  V30 3185 H 304.064 -0.966771 -5.25887 0
M  V30 3186 H 304.407 0.337639 -4.14929 0
M  V30 3187 H 304.94 -1.31463 -3.7545 0
M  V30 3188 H 301.679 -3.90307 -5.26631 0
M  V30 3189 H 301.199 -2.21813 -5.57278 0
M  V30 3190 H 302.878 -2.73712 -5.86252 0
M  V30 3191 N 303.011 1.40521 -0.713556 0
M  V30 3192 C 303.958 2.30723 -0.059684 0
M  V30 3193 C 304.928 1.48079 0.752448 0
M  V30 3194 O 306.113 1.76823 0.71681 0
M  V30 3195 C 303.253 3.34274 0.857594 0
M  V30 3196 C 302.366 4.31986 0.0351536 0
M  V30 3197 C 301.501 5.22605 0.951724 0
M  V30 3198 C 300.54 6.11976 0.123253 0
M  V30 3199 N 299.677 6.9502 0.99459 0
M  V30 3200 H 304.517 2.86074 -0.834596 0
M  V30 3201 H 302.054 1.40879 -0.42326 0
M  V30 3202 H 304.012 3.92879 1.40364 0
M  V30 3203 H 302.642 2.8043 1.59871 0
M  V30 3204 H 301.694 3.7518 -0.628052 0
M  V30 3205 H 303.006 4.95101 -0.606347 0
M  V30 3206 H 302.16 5.86131 1.56638 0
M  V30 3207 H 300.899 4.59759 1.62705 0
M  V30 3208 H 299.904 5.47482 -0.50435 0
M  V30 3209 H 301.129 6.76881 -0.548539 0
M  V30 3210 H 299.075 6.34764 1.6556 0
M  V30 3211 H 298.992 7.54892 0.40908 0
M  V30 3212 H 300.26 7.62997 1.59549 0
M  V30 3213 N 304.489 0.459591 1.5075 0
M  V30 3214 C 305.735 -0.0994966 2.02556 0
M  V30 3215 C 306.068 -1.40399 1.3417 0
M  V30 3216 O 305.343 -1.88892 0.463683 0
M  V30 3217 C 305.626 -0.295242 3.58888 0
M  V30 3218 C 305.479 1.02947 4.37861 0
M  V30 3219 C 306.798 -1.05502 4.27267 0
M  V30 3220 H 303.917 -0.034686 0.736183 0
M  V30 3221 H 306.559 0.602938 1.8018 0
M  V30 3222 H 304.709 -0.893563 3.78084 0
M  V30 3223 H 306.381 1.66348 4.30263 0
M  V30 3224 H 304.624 1.62885 4.02058 0
M  V30 3225 H 305.295 0.846281 5.45474 0
M  V30 3226 H 307.771 -0.547993 4.12476 0
M  V30 3227 H 306.647 -1.16077 5.36486 0
M  V30 3228 H 306.908 -2.08875 3.89645 0
M  V30 3229 N 305.967 -1.56429 0.191757 0
M  V30 3230 C 307.195 -2.01867 -0.453586 0
M  V30 3231 C 307.61 -1.07191 -1.5542 0
M  V30 3232 O 306.967 -0.0762108 -1.82341 0
M  V30 3233 C 307.018 -3.47017 -1.013 0
M  V30 3234 O 306.739 -4.38078 0.0437005 0
M  V30 3235 C 308.24 -4.07956 -1.73456 0
M  V30 3236 H 305.46 -0.661211 -0.114199 0
M  V30 3237 H 308.004 -2.02295 0.299483 0
M  V30 3238 H 306.159 -3.47298 -1.71647 0
M  V30 3239 H 306.573 -5.23178 -0.372212 0
M  V30 3240 H 308.047 -5.1138 -2.07833 0
M  V30 3241 H 308.524 -3.51222 -2.63704 0
M  V30 3242 H 309.13 -4.11437 -1.07702 0
M  V30 3243 N 307.445 0.0818655 -1.57387 0
M  V30 3244 C 308.691 0.784074 -1.8703 0
M  V30 3245 C 309.024 1.77729 -0.782689 0
M  V30 3246 O 308.299 1.93384 0.208051 0
M  V30 3247 C 308.582 1.50105 -3.27323 0
M  V30 3248 C 308.435 0.524925 -4.46727 0
M  V30 3249 C 309.754 2.44843 -3.65705 0
M  V30 3250 H 306.873 0.283582 -0.680257 0
M  V30 3251 H 309.515 0.0474352 -1.89941 0
M  V30 3252 H 307.665 2.12897 -3.24972 0
M  V30 3253 H 309.337 -0.0970111 -4.61198 0
M  V30 3254 H 307.58 -0.160606 -4.33503 0
M  V30 3255 H 308.251 1.064 -5.41648 0
M  V30 3256 H 310.727 1.92135 -3.69085 0
M  V30 3257 H 309.603 2.92018 -4.64776 0
M  V30 3258 H 309.864 3.29197 -2.95096 0
M  V30 3259 N 308.923 1.53595 0.353017 0
M  V30 3260 C 309.886 1.80232 1.41594 0
M  V30 3261 C 310.886 0.673081 1.46035 0
M  V30 3262 O 312.076 0.941335 1.46576 0
M  V30 3263 C 309.208 1.93578 2.80607 0
M  V30 3264 H 310.401 2.75174 1.19244 0
M  V30 3265 H 307.954 1.44864 0.586872 0
M  V30 3266 H 308.689 1.00746 3.08254 0
M  V30 3267 H 308.474 2.75724 2.78781 0
M  V30 3268 H 309.964 2.15735 3.57558 0
M  V30 3269 N 310.401 -0.613514 1.45168 0
M  V30 3270 C 311.629 -1.39946 1.5239 0
M  V30 3271 C 312.044 -1.88167 0.154531 0
M  V30 3272 O 311.401 -1.61872 -0.842843 0
M  V30 3273 C 311.452 -2.60795 2.50337 0
M  V30 3274 O 311.173 -2.1458 3.81952 0
M  V30 3275 C 312.674 -3.53723 2.67198 0
M  V30 3276 H 309.894 -0.428593 0.516284 0
M  V30 3277 H 312.438 -0.748753 1.903 0
M  V30 3278 H 310.593 -3.21919 2.15515 0
M  V30 3279 H 311.007 -2.93055 4.34993 0
M  V30 3280 H 312.481 -4.35079 3.39721 0
M  V30 3281 H 312.958 -4.0368 1.73029 0
M  V30 3282 H 313.564 -2.98456 3.02992 0
M  V30 3283 N 311.879 -1.3236 -0.855495 0
M  V30 3284 C 312.827 -1.2118 -1.9854 0
M  V30 3285 C 313.821 -0.116788 -1.68997 0
M  V30 3286 O 315.027 -0.279657 -1.77814 0
M  V30 3287 H 311.402 -0.375608 -0.651477 0
M  V30 3288 H 313.373 -2.16743 -2.05098 0
M  V30 3289 C 312.122 -0.950849 -3.34446 0
M  V30 3290 H 311.445 -1.78563 -3.57708 0
M  V30 3291 H 312.885 -0.912863 -4.14057 0
M  V30 3292 C 311.344 0.346404 -3.35114 0
M  V30 3293 O 311.874 1.35855 -3.7803 0
M  V30 3294 N 310.08 0.36808 -2.88259 0
M  V30 3295 H 309.627 -0.456102 -2.5353 0
M  V30 3296 H 309.585 1.23591 -2.89089 0
M  V30 3297 N 313.357 1.07166 -1.15556 0
M  V30 3298 C 314.289 2.14341 -0.811815 0
M  V30 3299 C 315.302 1.61835 0.177015 0
M  V30 3300 O 316.491 1.78439 -0.0464996 0
M  V30 3301 C 313.591 3.38387 -0.186481 0
M  V30 3302 C 312.764 4.20238 -1.21321 0
M  V30 3303 C 311.823 5.2266 -0.609302 0
M  V30 3304 O 310.849 5.54719 -1.27576 0
M  V30 3305 N 312.051 5.77306 0.608099 0
M  V30 3306 H 314.816 2.44431 -1.73417 0
M  V30 3307 H 312.377 1.23089 -1.0517 0
M  V30 3308 H 314.369 4.04044 0.230339 0
M  V30 3309 H 312.939 3.05994 0.639249 0
M  V30 3310 H 312.159 3.50369 -1.80652 0
M  V30 3311 H 313.447 4.71736 -1.90638 0
M  V30 3312 H 312.845 5.53513 1.1679 0
M  V30 3313 H 311.402 6.44583 0.96725 0
M  V30 3314 N 314.835 0.952656 1.25548 0
M  V30 3315 C 316.065 0.622592 1.96996 0
M  V30 3316 C 316.473 -0.809112 1.71026 0
M  V30 3317 O 315.816 -1.55258 0.981861 0
M  V30 3318 C 315.878 0.798946 3.5051 0
M  V30 3319 C 315.542 2.20744 4.00151 0
M  V30 3320 C 316.539 3.18394 4.11001 0
M  V30 3321 C 314.224 2.5311 4.33867 0
M  V30 3322 C 316.218 4.46504 4.54877 0
M  V30 3323 C 313.905 3.8145 4.7743 0
M  V30 3324 C 314.903 4.77959 4.87897 0
M  V30 3325 O 314.591 6.04012 5.30494 0
M  V30 3326 H 314.323 0.232503 0.634758 0
M  V30 3327 H 316.877 1.2789 1.60728 0
M  V30 3328 H 315.107 0.0854903 3.86605 0
M  V30 3329 H 316.796 0.47023 4.03167 0
M  V30 3330 H 317.562 2.94715 3.85186 0
M  V30 3331 H 313.441 1.78719 4.24948 0
M  V30 3332 H 316.985 5.21835 4.62962 0
M  V30 3333 H 312.882 4.04936 5.0269 0
M  V30 3334 H 313.65 6.0736 5.48685 0
M  V30 3335 N 316.313 -1.40141 0.720998 0
M  V30 3336 C 317.223 -2.34486 0.0731031 0
M  V30 3337 C 318.239 -1.57587 -0.737723 0
M  V30 3338 O 319.415 -1.89949 -0.669429 0
M  V30 3339 C 316.48 -3.36528 -0.833656 0
M  V30 3340 C 315.541 -4.29298 -0.0121673 0
M  V30 3341 C 314.774 -5.26466 -0.875742 0
M  V30 3342 O 314.997 -5.29745 -2.11485 0
M  V30 3343 O 313.931 -6.01092 -0.31185 0
M  V30 3344 H 317.757 -2.9152 0.851444 0
M  V30 3345 H 315.342 -1.41427 0.481527 0
M  V30 3346 H 317.224 -3.99093 -1.35289 0
M  V30 3347 H 315.899 -2.81899 -1.59105 0
M  V30 3348 H 314.806 -3.70001 0.552262 0
M  V30 3349 H 316.139 -4.87094 0.707129 0
M  V30 3350 N 317.792 -0.46758 -1.50504 0
M  V30 3351 C 318.724 0.364655 -2.26281 0
M  V30 3352 C 319.737 0.960151 -1.31472 0
M  V30 3353 O 320.926 0.849153 -1.57008 0
M  V30 3354 C 318.026 1.52509 -3.02645 0
M  V30 3355 C 317.199 1.04302 -4.24782 0
M  V30 3356 C 316.258 2.07709 -4.8347 0
M  V30 3357 O 315.284 1.65913 -5.44483 0
M  V30 3358 N 316.486 3.40485 -4.70159 0
M  V30 3359 H 319.251 -0.28495 -2.98342 0
M  V30 3360 H 316.812 -0.298163 -1.59131 0
M  V30 3361 H 318.804 2.21371 -3.38787 0
M  V30 3362 H 317.374 2.07945 -2.33404 0
M  V30 3363 H 316.594 0.180393 -3.93787 0
M  V30 3364 H 317.882 0.698798 -5.03978 0
M  V30 3365 H 317.28 3.77155 -4.21629 0
M  V30 3366 H 315.837 4.05156 -5.1058 0
M  V30 3367 N 319.27 1.56325 -0.20005 0
M  V30 3368 C 320.233 2.18084 0.705132 0
M  V30 3369 C 321.233 1.13666 1.1374 0
M  V30 3370 O 322.423 1.39023 1.04968 0
M  V30 3371 C 319.555 2.78689 1.96329 0
M  V30 3372 H 320.748 2.99435 0.167023 0
M  V30 3373 H 318.301 1.56221 0.0495725 0
M  V30 3374 H 319.036 2.0115 2.5438 0
M  V30 3375 H 318.821 3.55133 1.66202 0
M  V30 3376 H 320.311 3.26096 2.60866 0
M  V30 3377 N 320.748 -0.0735177 1.57428 0
M  V30 3378 C 321.997 -0.771809 1.86349 0
M  V30 3379 C 322.31 -1.78828 0.792452 0
M  V30 3380 O 323.516 -2.53602 0.96945 0
M  V30 3381 C 321.972 -1.42358 3.30548 0
M  V30 3382 C 321.58 -0.445761 4.45777 0
M  V30 3383 C 323.324 -2.10434 3.6867 0
M  V30 3384 C 321.231 -1.10335 5.81016 0
M  V30 3385 H 320.161 -0.291999 0.695164 0
M  V30 3386 H 322.812 -0.0250749 1.83483 0
M  V30 3387 H 321.194 -2.21852 3.28021 0
M  V30 3388 H 322.368 0.319239 4.59693 0
M  V30 3389 H 320.683 0.130457 4.16196 0
M  V30 3390 H 323.28 -2.60405 4.67004 0
M  V30 3391 H 323.623 -2.90298 2.98383 0
M  V30 3392 H 324.156 -1.37773 3.7318 0
M  V30 3393 H 320.895 -0.345061 6.54591 0
M  V30 3394 H 320.415 -1.83925 5.70904 0
M  V30 3395 H 322.094 -1.62367 6.26295 0
M  V30 3396 N 322.226 -1.5378 -0.344866 0
M  V30 3397 C 323.473 -1.70963 -1.08526 0
M  V30 3398 C 323.801 -0.472126 -1.88683 0
M  V30 3399 O 323.056 0.546116 -1.87926 0
M  V30 3400 C 323.355 -2.92407 -2.05506 0
M  V30 3401 C 323.021 -4.28066 -1.41671 0
M  V30 3402 C 321.683 -4.64951 -1.2399 0
M  V30 3403 C 324.035 -5.12344 -0.956726 0
M  V30 3404 C 321.363 -5.83733 -0.589277 0
M  V30 3405 C 323.715 -6.3179 -0.320015 0
M  V30 3406 C 322.379 -6.67372 -0.130881 0
M  V30 3407 H 321.649 -0.625598 -0.397124 0
M  V30 3408 H 324.296 -1.87995 -0.36469 0
M  V30 3409 H 322.601 -2.69973 -2.8394 0
M  V30 3410 H 324.298 -3.02895 -2.62784 0
M  V30 3411 H 320.888 -3.99034 -1.56429 0
M  V30 3412 H 325.072 -4.8438 -1.08118 0
M  V30 3413 H 320.328 -6.09877 -0.431344 0
M  V30 3414 H 324.502 -6.96386 0.0445072 0
M  V30 3415 H 322.129 -7.59273 0.375318 0
M  V30 3416 N 323.704 0.605807 -1.45491 0
M  V30 3417 C 324.654 1.71074 -1.50724 0
M  V30 3418 C 325.638 1.5658 -0.37033 0
M  V30 3419 O 326.83 1.65887 -0.617299 0
M  V30 3420 C 323.959 3.0983 -1.47852 0
M  V30 3421 C 323.045 3.29704 -2.66751 0
M  V30 3422 N 323.436 3.19831 -3.91844 0
M  V30 3423 C 321.734 3.60579 -2.62486 0
M  V30 3424 C 322.435 3.41083 -4.71208 0
M  V30 3425 N 321.411 3.65157 -4.02693 0
M  V30 3426 H 325.213 1.61937 -2.45263 0
M  V30 3427 H 322.727 0.80912 -1.40808 0
M  V30 3428 H 324.724 3.89101 -1.49686 0
M  V30 3429 H 323.384 3.20115 -0.543714 0
M  V30 3430 H 324.395 2.98194 -4.23439 0
M  V30 3431 H 321.072 3.7769 -1.77922 0
M  V30 3432 H 322.462 3.38828 -5.80211 0
M  V30 3433 N 325.182 1.32811 0.848464 0
M  V30 3434 C 326.428 1.23907 1.60546 0
M  V30 3435 C 326.761 -0.197161 1.93197 0
M  V30 3436 O 326.036 -1.13596 1.5788 0
M  V30 3437 C 326.319 2.10489 2.92175 0
M  V30 3438 C 326.172 3.62522 2.66266 0
M  V30 3439 C 327.491 1.97075 3.93509 0
M  V30 3440 H 324.61 0.451459 0.58254 0
M  V30 3441 H 327.252 1.62818 0.979296 0
M  V30 3442 H 325.402 1.77434 3.45614 0
M  V30 3443 H 327.074 4.05821 2.19334 0
M  V30 3444 H 325.317 3.84879 2.00126 0
M  V30 3445 H 325.988 4.18437 3.6002 0
M  V30 3446 H 328.464 2.26045 3.49346 0
M  V30 3447 H 327.34 2.59923 4.83457 0
M  V30 3448 H 327.601 0.940186 4.31987 0
M  V30 3449 N 326.66 -1.06551 1.16123 0
M  V30 3450 C 327.623 -2.12132 0.867906 0
M  V30 3451 C 328.623 -1.60224 -0.135944 0
M  V30 3452 O 329.813 -1.73943 0.0946422 0
M  V30 3453 C 326.945 -3.396 0.297419 0
M  V30 3454 H 328.138 -2.39586 1.80385 0
M  V30 3455 H 325.691 -1.22574 0.969812 0
M  V30 3456 H 326.426 -3.17794 -0.64633 0
M  V30 3457 H 326.211 -3.78581 1.02073 0
M  V30 3458 H 327.701 -4.17455 0.110052 0
M  V30 3459 N 328.138 -0.959301 -1.25041 0
M  V30 3460 C 329.387 -0.612254 -1.92183 0
M  V30 3461 C 329.7 0.855347 -1.75907 0
M  V30 3462 O 330.906 1.31256 -2.37664 0
M  V30 3463 C 329.362 -1.04435 -3.44414 0
M  V30 3464 C 328.97 -2.53482 -3.69393 0
M  V30 3465 C 330.714 -0.770055 -4.17457 0
M  V30 3466 C 328.621 -2.90468 -5.15153 0
M  V30 3467 H 327.551 -0.225279 -0.719559 0
M  V30 3468 H 330.202 -1.16438 -1.41825 0
M  V30 3469 H 328.584 -0.4206 -3.9376 0
M  V30 3470 H 329.758 -3.20916 -3.30681 0
M  V30 3471 H 328.073 -2.78432 -3.0962 0
M  V30 3472 H 330.67 -1.02249 -5.24832 0
M  V30 3473 H 331.013 0.293611 -4.15263 0
M  V30 3474 H 331.546 -1.35437 -3.74034 0
M  V30 3475 H 328.285 -3.95871 -5.22462 0
M  V30 3476 H 327.805 -2.27711 -5.54894 0
M  V30 3477 H 329.484 -2.79914 -5.83315 0
M  V30 3478 N 329.616 1.39756 -0.72842 0
M  V30 3479 C 331.032 1.5442 -0.403308 0
M  V30 3480 C 331.232 1.69694 1.08656 0
M  V30 3481 O 330.288 1.69373 1.87267 0
M  V30 3482 C 331.601 2.76555 -1.18058 0
M  V30 3483 C 333.149 2.90384 -1.16815 0
M  V30 3484 C 333.624 4.15449 -1.92785 0
M  V30 3485 N 335.115 4.22475 -1.89918 0
M  V30 3486 C 335.85 5.1818 -2.45514 0
M  V30 3487 N 335.346 6.19714 -3.09719 0
M  V30 3488 N 337.139 5.1035 -2.35584 0
M  V30 3489 H 329.29 1.28089 -1.69431 0
M  V30 3490 H 331.553 0.620327 -0.716867 0
M  V30 3491 H 331.259 2.7159 -2.23455 0
M  V30 3492 H 331.133 3.69033 -0.780662 0
M  V30 3493 H 333.52 2.94846 -0.12234 0
M  V30 3494 H 333.601 1.98988 -1.6074 0
M  V30 3495 H 333.245 4.11749 -2.97364 0
M  V30 3496 H 333.175 5.05877 -1.46272 0
M  V30 3497 H 335.666 3.49743 -1.43138 0
M  V30 3498 H 335.979 6.8919 -3.49625 0
M  V30 3499 H 334.324 6.20121 -3.13807 0
M  V30 3500 H 337.515 4.2996 -1.85072 0
M  V30 3501 H 337.688 5.84761 -2.79211 0
M  V30 3502 N 331.094 0.475555 1.50254 0
M  V30 3503 C 332.51 0.12997 1.5907 0
M  V30 3504 C 332.71 -1.36385 1.48328 0
M  V30 3505 O 331.766 -2.13754 1.34407 0
M  V30 3506 C 333.079 0.684139 2.92814 0
M  V30 3507 C 334.627 0.647965 3.0622 0
M  V30 3508 C 335.102 1.17975 4.42545 0
M  V30 3509 N 336.593 1.13936 4.48969 0
M  V30 3510 C 337.328 1.52129 5.52851 0
M  V30 3511 N 336.824 1.97793 6.63965 0
M  V30 3512 N 338.617 1.43704 5.4342 0
M  V30 3513 H 330.768 1.44706 1.55479 0
M  V30 3514 H 333.031 0.598691 0.735033 0
M  V30 3515 H 332.737 1.73079 3.06164 0
M  V30 3516 H 332.611 0.130204 3.76975 0
M  V30 3517 H 334.998 -0.38979 2.92514 0
M  V30 3518 H 335.079 1.23876 2.23805 0
M  V30 3519 H 334.723 2.21616 4.57 0
M  V30 3520 H 334.653 0.565138 5.23559 0
M  V30 3521 H 337.144 0.804488 3.69238 0
M  V30 3522 H 337.457 2.25072 7.39299 0
M  V30 3523 H 335.802 2.01749 6.65073 0
M  V30 3524 H 338.993 1.07867 4.55502 0
M  V30 3525 H 339.166 1.73794 6.24259 0
M  V30 3526 N 332.573 -1.56217 0.208337 0
M  V30 3527 C 333.989 -1.58919 -0.14729 0
M  V30 3528 C 334.189 -1.22486 -1.59998 0
M  V30 3529 O 333.245 -0.953849 -2.3379 0
M  V30 3530 C 334.558 -3.00236 0.167048 0
M  V30 3531 C 336.106 -3.12813 0.108219 0
M  V30 3532 C 336.581 -4.56284 0.396049 0
M  V30 3533 N 338.072 -4.61912 0.345142 0
M  V30 3534 C 338.807 -5.70837 0.541523 0
M  V30 3535 N 338.303 -6.88178 0.798968 0
M  V30 3536 N 340.096 -5.60091 0.474867 0
M  V30 3537 H 332.247 -1.78177 1.15614 0
M  V30 3538 H 334.51 -0.827555 0.462446 0
M  V30 3539 H 334.216 -3.31499 1.1748 0
M  V30 3540 H 334.09 -3.7354 -0.524184 0
M  V30 3541 H 336.477 -2.81354 -0.890157 0
M  V30 3542 H 336.558 -2.41866 0.832729 0
M  V30 3543 H 336.202 -4.88458 1.3918 0
M  V30 3544 H 336.132 -5.25439 -0.349502 0
M  V30 3545 H 338.623 -3.77589 0.153316 0
M  V30 3546 H 338.936 -7.67095 0.93727 0
M  V30 3547 H 337.281 -6.89953 0.836013 0
M  V30 3548 H 340.472 -4.67297 0.274064 0
M  V30 3549 H 340.645 -6.44917 0.631326 0
M  V30 3550 N 334.051 0.0651679 -1.57465 0
M  V30 3551 C 335.291 0.768329 -1.8941 0
M  V30 3552 C 335.655 1.74406 -0.802894 0
M  V30 3553 O 336.856 2.49281 -1.0056 0
M  V30 3554 C 335.127 1.45199 -3.26576 0
M  V30 3555 S 336.686 2.1893 -3.80283 0
M  V30 3556 H 333.504 0.255359 -0.663561 0
M  V30 3557 H 336.106 0.024167 -1.95485 0
M  V30 3558 H 334.81 0.728123 -4.03889 0
M  V30 3559 H 334.341 2.23545 -3.23715 0
M  V30 3560 H 336.356 3.45551 -3.56102 0
M  V30 3561 N 335.529 1.53961 0.336706 0
M  V30 3562 C 336.945 1.44378 0.680241 0
M  V30 3563 C 337.145 0.606034 1.9217 0
M  V30 3564 O 336.201 0.099688 2.52303 0
M  V30 3565 C 337.514 2.87945 0.8665 0
M  V30 3566 C 339.062 2.97763 0.964682 0
M  V30 3567 C 339.537 4.42453 1.18321 0
M  V30 3568 N 341.028 4.46008 1.25025 0
M  V30 3569 C 341.763 5.55102 1.43697 0
M  V30 3570 N 341.259 6.7419 1.59498 0
M  V30 3571 N 343.052 5.42727 1.463 0
M  V30 3572 H 335.203 2.06918 -0.479455 0
M  V30 3573 H 337.466 0.935634 -0.152619 0
M  V30 3574 H 337.172 3.51691 0.0256937 0
M  V30 3575 H 337.046 3.33293 1.76623 0
M  V30 3576 H 339.433 2.34153 1.796 0
M  V30 3577 H 339.514 2.55766 0.041708 0
M  V30 3578 H 339.158 5.06645 0.356788 0
M  V30 3579 H 339.088 4.82048 2.11985 0
M  V30 3580 H 341.579 3.60196 1.14312 0
M  V30 3581 H 341.892 7.53095 1.734 0
M  V30 3582 H 340.237 6.77123 1.56621 0
M  V30 3583 H 343.428 4.48647 1.33543 0
M  V30 3584 H 343.601 6.27806 1.6051 0
M  V30 3585 N 337.007 -0.598083 1.45811 0
M  V30 3586 C 338.418 -1.18011 1.44673 0
M  V30 3587 C 338.769 -1.95378 0.179364 0
M  V30 3588 O 337.894 -2.04124 -0.718509 0
M  V30 3589 C 338.489 -2.14677 2.62105 0
M  V30 3590 C 337.048 -2.68236 2.64057 0
M  V30 3591 C 336.195 -1.43816 2.37091 0
M  V30 3592 H 339.146 -0.38686 1.53913 0
M  V30 3593 H 339.167 -2.97878 2.36746 0
M  V30 3594 H 338.679 -1.5834 3.5433 0
M  V30 3595 H 336.78 -3.28486 1.75864 0
M  V30 3596 H 336.893 -3.12021 3.63566 0
M  V30 3597 H 335.257 -1.731 1.86838 0
M  V30 3598 H 336.04 -0.893333 3.31473 0
M  V30 3599 N 338.485 -1.33259 -0.841409 0
M  V30 3600 C 339.71 -1.2775 -1.63385 0
M  V30 3601 C 340.135 0.149188 -1.87507 0
M  V30 3602 O 339.493 1.10498 -1.43736 0
M  V30 3603 C 339.541 -2.05571 -2.96265 0
M  V30 3604 O 338.645 -1.41257 -3.87453 0
M  V30 3605 H 337.986 -0.439627 -0.497618 0
M  V30 3606 H 340.516 -1.75782 -1.04699 0
M  V30 3607 H 340.526 -2.16241 -3.45982 0
M  V30 3608 H 339.201 -3.09309 -2.7803 0
M  V30 3609 H 337.778 -1.39217 -3.45938 0
M  V30 3610 N 339.963 1.05934 -1.16686 0
M  V30 3611 C 341.374 1.60263 -0.957745 0
M  V30 3612 C 341.725 1.89789 0.49745 0
M  V30 3613 O 340.85 1.67401 1.37135 0
M  V30 3614 C 341.445 2.91172 -1.73218 0
M  V30 3615 C 340.004 3.42188 -1.56794 0
M  V30 3616 C 339.151 2.16028 -1.73859 0
M  V30 3617 H 342.102 0.888392 -1.31504 0
M  V30 3618 H 342.123 3.60744 -1.21014 0
M  V30 3619 H 341.635 2.6965 -2.79124 0
M  V30 3620 H 339.736 3.68762 -0.533437 0
M  V30 3621 H 339.849 4.17273 -2.35414 0
M  V30 3622 H 338.213 2.26426 -1.16633 0
M  V30 3623 H 338.996 1.96985 -2.81161 0
M  V30 3624 N 341.441 0.965919 1.2453 0
M  V30 3625 C 342.671 0.643451 1.96324 0
M  V30 3626 C 343.079 -0.790927 1.71875 0
M  V30 3627 O 342.422 -1.54208 0.998273 0
M  V30 3628 C 342.484 0.836078 3.49643 0
M  V30 3629 C 342.148 2.24975 3.97788 0
M  V30 3630 C 343.145 3.22735 4.07601 0
M  V30 3631 C 340.83 2.57697 4.31158 0
M  V30 3632 C 342.824 4.51303 4.50116 0
M  V30 3633 C 340.511 3.86492 4.73357 0
M  V30 3634 C 341.509 4.83107 4.828 0
M  V30 3635 O 341.197 6.09605 5.24058 0
M  V30 3636 H 340.929 0.239223 0.632257 0
M  V30 3637 H 343.483 1.29587 1.59362 0
M  V30 3638 H 341.713 0.12649 3.86493 0
M  V30 3639 H 343.402 0.512965 4.02646 0
M  V30 3640 H 344.168 2.98783 3.82039 0
M  V30 3641 H 340.047 1.83216 4.23028 0
M  V30 3642 H 343.591 5.26716 4.57401 0
M  V30 3643 H 339.488 4.10245 4.98366 0
M  V30 3644 H 340.256 6.13146 5.42213 0
M  V30 3645 N 342.919 -1.39368 0.735821 0
M  V30 3646 C 344.165 -2.00794 0.284544 0
M  V30 3647 C 344.498 -1.58255 -1.12557 0
M  V30 3648 O 343.773 -0.811819 -1.76748 0
M  V30 3649 C 344.056 -3.58011 0.387337 0
M  V30 3650 C 343.909 -4.10566 1.83728 0
M  V30 3651 C 345.228 -4.395 -0.22975 0
M  V30 3652 H 342.347 -0.729501 0.104866 0
M  V30 3653 H 344.989 -1.65564 0.93213 0
M  V30 3654 H 343.139 -3.88154 -0.164006 0
M  V30 3655 H 344.811 -3.91139 2.44556 0
M  V30 3656 H 343.054 -3.64095 2.35833 0
M  V30 3657 H 343.725 -5.19702 1.86047 0
M  V30 3658 H 346.201 -4.15406 0.240257 0
M  V30 3659 H 345.077 -5.48752 -0.127485 0
M  V30 3660 H 345.338 -4.22062 -1.3159 0
M  V30 3661 N 344.397 -0.483516 -1.5 0
M  V30 3662 C 345.643 0.0672592 -2.02688 0
M  V30 3663 C 345.976 1.38247 -1.36387 0
M  V30 3664 O 345.251 1.88131 -0.493675 0
M  V30 3665 C 345.534 0.238109 -3.59312 0
M  V30 3666 C 345.387 -1.099 -4.36168 0
M  V30 3667 C 346.706 0.986916 -4.28892 0
M  V30 3668 H 343.825 0.0229696 -0.736642 0
M  V30 3669 H 346.467 -0.631527 -1.79197 0
M  V30 3670 H 344.617 0.8333 -3.79458 0
M  V30 3671 H 346.289 -1.73172 -4.27562 0
M  V30 3672 H 344.532 -1.69261 -3.99416 0
M  V30 3673 H 345.203 -0.932954 -5.44059 0
M  V30 3674 H 347.679 0.482302 -4.13295 0
M  V30 3675 H 346.555 1.07527 -5.38265 0
M  V30 3676 H 346.816 2.0265 -3.92919 0
M  V30 3677 N 345.875 1.56104 -0.216619 0
M  V30 3678 C 346.823 2.21434 0.712036 0
M  V30 3679 C 347.817 1.19218 1.20348 0
M  V30 3680 O 349.023 1.3731 1.16387 0
M  V30 3681 H 345.398 0.70992 0.248026 0
M  V30 3682 H 347.369 2.98083 0.137558 0
M  V30 3683 C 346.118 2.90434 1.91163 0
M  V30 3684 H 345.441 3.68842 1.54258 0
M  V30 3685 H 346.881 3.39552 2.5393 0
M  V30 3686 C 345.34 1.92635 2.76394 0
M  V30 3687 O 345.87 1.44017 3.74996 0
M  V30 3688 N 344.076 1.60392 2.42328 0
M  V30 3689 H 343.623 2.00122 1.622 0
M  V30 3690 H 343.581 0.952159 2.99635 0
M  V30 3691 N 347.353 -0.0568162 1.57498 0
M  V30 3692 C 348.6 -0.753104 1.87975 0
M  V30 3693 C 348.928 -1.76815 0.81035 0
M  V30 3694 O 348.183 -1.94756 -0.19199 0
M  V30 3695 C 348.482 -1.48359 3.25153 0
M  V30 3696 C 348.148 -0.60713 4.46794 0
M  V30 3697 C 346.81 -0.365642 4.79809 0
M  V30 3698 C 349.162 -0.000305978 5.212 0
M  V30 3699 C 346.49 0.491905 5.84634 0
M  V30 3700 C 348.842 0.844781 6.26934 0
M  V30 3701 C 347.506 1.096 6.58441 0
M  V30 3702 H 346.776 -0.27558 0.687849 0
M  V30 3703 H 349.423 -0.0135173 1.91495 0
M  V30 3704 H 347.728 -2.29577 3.17492 0
M  V30 3705 H 349.425 -2.02739 3.45974 0
M  V30 3706 H 346.015 -0.805487 4.20963 0
M  V30 3707 H 350.199 -0.173961 4.95995 0
M  V30 3708 H 345.455 0.695131 6.07436 0
M  V30 3709 H 349.629 1.32165 6.83744 0
M  V30 3710 H 347.256 1.76224 7.39492 0
M  V30 3711 N 348.832 -1.54138 -0.328536 0
M  V30 3712 C 349.762 -1.86167 -1.40939 0
M  V30 3713 C 350.743 -0.718044 -1.54202 0
M  V30 3714 O 351.928 -0.971328 -1.68163 0
M  V30 3715 C 349.058 -2.08461 -2.77779 0
M  V30 3716 C 348.012 -3.24299 -2.7931 0
M  V30 3717 C 347.338 -3.31955 -4.19178 0
M  V30 3718 C 348.638 -4.62065 -2.43502 0
M  V30 3719 H 350.332 -2.76689 -1.14383 0
M  V30 3720 H 347.878 -1.33132 -0.548806 0
M  V30 3721 H 349.831 -2.29453 -3.53454 0
M  V30 3722 H 348.555 -1.14684 -3.05802 0
M  V30 3723 H 347.214 -3.03187 -2.0609 0
M  V30 3724 H 346.862 -2.35745 -4.44335 0
M  V30 3725 H 346.562 -4.09805 -4.2111 0
M  V30 3726 H 348.086 -3.55175 -4.96672 0
M  V30 3727 H 349.5 -4.8297 -3.08889 0
M  V30 3728 H 347.897 -5.42429 -2.56693 0
M  V30 3729 H 348.967 -4.64652 -1.38659 0
M  V30 3730 N 350.31 0.590341 -1.46126 0
M  V30 3731 C 351.556 1.35082 -1.51264 0
M  V30 3732 C 351.889 1.93534 -0.160711 0
M  V30 3733 O 351.164 1.76045 0.826956 0
M  V30 3734 C 351.447 2.48588 -2.6053 0
M  V30 3735 C 351.3 1.95221 -4.05227 0
M  V30 3736 C 352.619 3.50662 -2.6594 0
M  V30 3737 H 349.738 0.489803 -0.550692 0
M  V30 3738 H 352.38 0.663887 -1.78024 0
M  V30 3739 H 350.53 3.07186 -2.37843 0
M  V30 3740 H 352.202 1.41139 -4.39178 0
M  V30 3741 H 350.445 1.26101 -4.15068 0
M  V30 3742 H 351.116 2.77121 -4.77397 0
M  V30 3743 H 353.592 3.01934 -2.86313 0
M  V30 3744 H 352.468 4.27551 -3.44226 0
M  V30 3745 H 352.729 4.07399 -1.71694 0
M  V30 3746 N 351.788 1.33704 0.83433 0
M  V30 3747 C 353.199 1.22813 1.4062 0
M  V30 3748 C 353.55 -0.151107 1.95617 0
M  V30 3749 O 352.675 -1.05092 1.89168 0
M  V30 3750 C 353.27 2.22355 2.55624 0
M  V30 3751 C 351.829 2.1529 3.08751 0
M  V30 3752 C 350.976 2.09589 1.8157 0
M  V30 3753 H 353.927 1.45236 0.639702 0
M  V30 3754 H 353.948 1.83391 3.33389 0
M  V30 3755 H 353.46 3.22728 2.15566 0
M  V30 3756 H 351.561 1.18235 3.53343 0
M  V30 3757 H 351.674 3.06038 3.68616 0
M  V30 3758 H 350.038 1.55134 2.02004 0
M  V30 3759 H 350.821 3.11777 1.43701 0
M  V30 3760 N 353.266 -1.05314 1.17247 0
M  V30 3761 C 354.491 -1.82509 0.985148 0
M  V30 3762 C 354.916 -1.82343 -0.461788 0
M  V30 3763 O 354.274 -1.23151 -1.33055 0
M  V30 3764 C 354.322 -3.26566 1.52929 0
M  V30 3765 O 353.426 -4.05666 0.742225 0
M  V30 3766 H 352.767 -0.564347 0.349869 0
M  V30 3767 H 355.297 -1.32718 1.55715 0
M  V30 3768 H 355.307 -3.77369 1.55103 0
M  V30 3769 H 353.982 -3.26001 2.58256 0
M  V30 3770 H 352.559 -3.64397 0.791794 0
M  V30 3771 N 354.744 -0.972509 -1.24016 0
M  V30 3772 C 355.992 -0.635776 -1.91839 0
M  V30 3773 C 356.313 0.832312 -1.76345 0
M  V30 3774 O 355.583 1.5946 -1.13795 0
M  V30 3775 H 354.163 -0.232157 -0.710009 0
M  V30 3776 H 356.825 -1.23462 -1.50809 0
M  V30 3777 H 355.921 -0.880545 -2.99421 0
M  V30 3778 N 356.222 1.38976 -0.743202 0
M  V30 3779 C 357.471 1.99581 -0.291592 0
M  V30 3780 C 357.784 1.59656 1.13001 0
M  V30 3781 O 358.99 2.13157 1.68156 0
M  V30 3782 C 357.446 3.56813 -0.470391 0
M  V30 3783 C 357.054 4.05695 -1.90041 0
M  V30 3784 C 358.798 4.24423 -0.0809709 0
M  V30 3785 C 356.705 5.5553 -2.02832 0
M  V30 3786 H 355.635 0.746615 -0.105272 0
M  V30 3787 H 358.286 1.58872 -0.918258 0
M  V30 3788 H 356.668 3.95359 0.225299 0
M  V30 3789 H 357.842 3.78464 -2.62872 0
M  V30 3790 H 356.157 3.50775 -2.24379 0
M  V30 3791 H 358.754 5.34474 -0.155445 0
M  V30 3792 H 359.097 4.04962 0.96497 0
M  V30 3793 H 359.63 3.9108 -0.728124 0
M  V30 3794 H 356.369 5.79881 -3.05643 0
M  V30 3795 H 355.889 5.84537 -1.34448 0
M  V30 3796 H 357.568 6.21069 -1.81335 0
M  V30 3797 N 357.7 0.491464 1.49741 0
M  V30 3798 C 358.63 -0.28154 2.31796 0
M  V30 3799 C 359.611 -0.971473 1.3963 0
M  V30 3800 O 360.796 -0.964719 1.68543 0
M  V30 3801 C 357.926 -1.35203 3.19902 0
M  V30 3802 C 356.88 -0.782529 4.20786 0
M  V30 3803 C 356.206 -1.95283 4.97764 0
M  V30 3804 C 357.506 0.21999 5.21837 0
M  V30 3805 H 359.2 0.403355 2.96671 0
M  V30 3806 H 356.746 0.195425 1.42668 0
M  V30 3807 H 358.699 -1.90045 3.76113 0
M  V30 3808 H 357.423 -2.06598 2.52953 0
M  V30 3809 H 356.082 -0.255928 3.65706 0
M  V30 3810 H 355.73 -2.65423 4.2727 0
M  V30 3811 H 355.43 -1.57789 5.66018 0
M  V30 3812 H 356.954 -2.50577 5.56816 0
M  V30 3813 H 358.368 -0.23996 5.72798 0
M  V30 3814 H 356.765 0.51026 5.97927 0
M  V30 3815 H 357.835 1.13911 4.7133 0
M  V30 3816 N 359.178 -1.55987 0.224894 0
M  V30 3817 C 360.427 -1.97566 -0.406273 0
M  V30 3818 C 360.74 -1.11569 -1.6066 0
M  V30 3819 O 361.946 -1.43062 -2.3075 0
M  V30 3820 C 360.402 -3.51474 -0.774207 0
M  V30 3821 C 360.01 -4.46179 0.403496 0
M  V30 3822 C 361.754 -4.01758 -1.37079 0
M  V30 3823 C 359.661 -5.91399 0.0129412 0
M  V30 3824 H 358.591 -0.737777 -0.155565 0
M  V30 3825 H 361.242 -1.80659 0.321635 0
M  V30 3826 H 359.624 -3.63994 -1.55963 0
M  V30 3827 H 360.798 -4.45409 1.18101 0
M  V30 3828 H 359.113 -4.06255 0.913536 0
M  V30 3829 H 361.71 -5.07756 -1.67596 0
M  V30 3830 H 362.053 -3.47805 -2.28773 0
M  V30 3831 H 362.586 -3.92475 -0.648733 0
M  V30 3832 H 359.325 -6.49341 0.896451 0
M  V30 3833 H 358.845 -5.95356 -0.728821 0
M  V30 3834 H 360.524 -6.45683 -0.412582 0
M  V30 3835 N 360.656 0.0484629 -1.57525 0
M  V30 3836 C 361.619 1.03956 -2.04269 0
M  V30 3837 C 362.619 1.30211 -0.943496 0
M  V30 3838 O 363.809 1.25539 -1.20771 0
M  V30 3839 C 360.941 2.37742 -2.44319 0
M  V30 3840 H 362.134 0.636182 -2.93075 0
M  V30 3841 H 359.687 0.294811 -1.53494 0
M  V30 3842 H 360.422 2.82866 -1.5861 0
M  V30 3843 H 360.207 2.20021 -3.24551 0
M  V30 3844 H 361.697 3.08936 -2.80978 0
M  V30 3845 N 362.134 1.5431 0.320358 0
M  V30 3846 C 363.383 1.7188 1.05546 0
M  V30 3847 C 363.696 0.501143 1.89071 0
M  V30 3848 O 364.902 0.558258 2.65699 0
M  V30 3849 C 363.358 3.04025 1.92605 0
M  V30 3850 C 362.966 4.33207 1.14176 0
M  V30 3851 C 364.71 3.30959 2.65832 0
M  V30 3852 C 362.617 5.56412 2.00399 0
M  V30 3853 H 361.547 0.640547 0.397763 0
M  V30 3854 H 364.198 1.80802 0.313522 0
M  V30 3855 H 362.58 2.89019 2.7071 0
M  V30 3856 H 363.754 4.58989 0.40819 0
M  V30 3857 H 362.069 4.13062 0.526165 0
M  V30 3858 H 364.666 4.20203 3.30656 0
M  V30 3859 H 365.009 2.48979 3.33639 0
M  V30 3860 H 365.542 3.46847 1.94787 0
M  V30 3861 H 362.281 6.41004 1.37094 0
M  V30 3862 H 361.801 5.34844 2.7148 0
M  V30 3863 H 363.48 5.92938 2.58908 0
M  V30 3864 N 363.613 -0.582584 1.46437 0
M  V30 3865 C 364.89 -1.34276 1.4223 0
M  V30 3866 C 365.27 -2.10835 0.10583 0
M  V30 3867 O 364.618 -2.09485 -0.912596 0
M  V30 3868 C 364.828 -2.26865 2.65204 0
M  V30 3869 C 366.176 -2.88691 3.11356 0
M  V30 3870 O 367.2 -2.37178 2.65753 0
M  V30 3871 O 366.059 -3.82255 3.90568 0
M  V30 3872 H 363.153 -0.603326 0.565621 0
M  V30 3873 H 365.699 -0.603591 1.58603 0
M  V30 3874 H 364.471 -1.69724 3.52576 0
M  V30 3875 H 364.094 -3.08122 2.5129 0
M  V30 3876 N 365.091 -1.34144 -0.827227 0
M  V30 3877 C 366.054 -1.25264 -1.91942 0
M  V30 3878 C 367.054 -0.168866 -1.59911 0
M  V30 3879 O 368.244 -0.421198 -1.69031 0
M  V30 3880 C 365.376 -0.932952 -3.27885 0
M  V30 3881 H 366.569 -2.22357 -2.0124 0
M  V30 3882 H 364.122 -1.1837 -1.0207 0
M  V30 3883 H 364.857 0.0349917 -3.24281 0
M  V30 3884 H 364.642 -1.71682 -3.52516 0
M  V30 3885 H 366.132 -0.895874 -4.07877 0
M  V30 3886 N 366.569 1.04691 -1.17803 0
M  V30 3887 C 367.499 2.14494 -0.92275 0
M  V30 3888 C 368.48 1.69546 0.137179 0
M  V30 3889 O 369.665 1.94195 -0.0141108 0
M  V30 3890 C 366.795 3.44491 -0.440803 0
M  V30 3891 C 365.749 4.03031 -1.4405 0
M  V30 3892 C 365.075 5.28432 -0.81631 0
M  V30 3893 C 366.375 4.39932 -2.81527 0
M  V30 3894 H 368.069 2.36107 -1.84103 0
M  V30 3895 H 365.615 1.1347 -0.886599 0
M  V30 3896 H 367.568 4.2066 -0.249602 0
M  V30 3897 H 366.292 3.22546 0.513025 0
M  V30 3898 H 364.951 3.28937 -1.61853 0
M  V30 3899 H 364.599 5.02792 0.144511 0
M  V30 3900 H 364.299 5.68559 -1.48371 0
M  V30 3901 H 365.823 6.07284 -0.635496 0
M  V30 3902 H 367.237 5.07113 -2.67412 0
M  V30 3903 H 365.634 4.9109 -3.44892 0
M  V30 3904 H 366.704 3.50045 -3.35554 0
M  V30 3905 N 368.047 0.979072 1.23499 0
M  V30 3906 C 369.272 0.664845 1.96455 0
M  V30 3907 C 369.697 -0.761287 1.72006 0
M  V30 3908 O 369.055 -1.51837 0.990713 0
M  V30 3909 C 369.103 0.959479 3.47601 0
M  V30 3910 O 368.207 0.0508168 4.12369 0
M  V30 3911 H 367.548 0.250185 0.615064 0
M  V30 3912 H 370.078 1.31231 1.5697 0
M  V30 3913 H 370.088 0.895642 3.98048 0
M  V30 3914 H 368.763 1.99876 3.64723 0
M  V30 3915 H 367.34 0.16895 3.72517 0
M  V30 3916 N 369.525 -1.3858 0.750561 0
M  V30 3917 C 370.772 -2.00184 0.305373 0
M  V30 3918 C 371.1 -1.59575 -1.11203 0
M  V30 3919 O 370.355 -0.823236 -1.77542 0
M  V30 3920 C 370.654 -3.55455 0.372373 0
M  V30 3921 C 370.32 -4.15765 1.745 0
M  V30 3922 C 368.982 -4.31951 2.12065 0
M  V30 3923 C 371.334 -4.49067 2.64553 0
M  V30 3924 C 368.662 -4.78734 3.39162 0
M  V30 3925 C 371.014 -4.97265 3.91038 0
M  V30 3926 C 369.678 -5.11658 4.28676 0
M  V30 3927 H 368.948 -0.732526 0.111744 0
M  V30 3928 H 371.595 -1.65673 0.960451 0
M  V30 3929 H 369.9 -3.90084 -0.366272 0
M  V30 3930 H 371.597 -4.00999 0.00953918 0
M  V30 3931 H 368.187 -4.03579 1.44297 0
M  V30 3932 H 372.371 -4.36166 2.36796 0
M  V30 3933 H 367.627 -4.88062 3.68246 0
M  V30 3934 H 371.801 -5.22003 4.60962 0
M  V30 3935 H 369.428 -5.47668 5.27222 0
M  V30 3936 N 371.003 -0.499398 -1.49478 0
M  V30 3937 C 372.233 0.0424839 -2.06556 0
M  V30 3938 C 372.641 1.31514 -1.36018 0
M  V30 3939 O 371.984 1.78555 -0.431718 0
M  V30 3940 C 372.046 0.368074 -3.57611 0
M  V30 3941 C 371.71 -0.806631 -4.49825 0
M  V30 3942 C 372.707 -1.69667 -4.91436 0
M  V30 3943 C 370.392 -1.00498 -4.92144 0
M  V30 3944 C 372.386 -2.76923 -5.74101 0
M  V30 3945 C 370.073 -2.08072 -5.74586 0
M  V30 3946 C 371.071 -2.96119 -6.15469 0
M  V30 3947 O 370.759 -4.01836 -6.96264 0
M  V30 3948 H 370.491 -0.0165165 -0.675798 0
M  V30 3949 H 373.045 -0.695497 -1.93267 0
M  V30 3950 H 371.275 1.15963 -3.68903 0
M  V30 3951 H 372.964 0.848381 -3.96935 0
M  V30 3952 H 373.73 -1.55524 -4.59388 0
M  V30 3953 H 369.609 -0.329036 -4.59824 0
M  V30 3954 H 373.153 -3.45676 -6.05932 0
M  V30 3955 H 369.05 -2.22211 -6.06047 0
M  V30 3956 H 369.818 -3.9917 -7.14567 0
M  V30 3957 N 372.481 1.55866 -0.233164 0
M  V30 3958 C 373.411 2.23783 0.666599 0
M  V30 3959 C 374.392 1.21343 1.19205 0
M  V30 3960 O 375.577 1.4996 1.23392 0
M  V30 3961 C 372.707 2.92671 1.86978 0
M  V30 3962 C 371.661 4.01682 1.47768 0
M  V30 3963 C 370.987 4.57926 2.76058 0
M  V30 3964 C 372.287 5.18126 0.658993 0
M  V30 3965 H 373.981 2.99232 0.100306 0
M  V30 3966 H 371.527 1.43924 0.046804 0
M  V30 3967 H 373.48 3.3888 2.50476 0
M  V30 3968 H 372.204 2.14688 2.46123 0
M  V30 3969 H 370.863 3.56222 0.866106 0
M  V30 3970 H 370.511 3.76659 3.33372 0
M  V30 3971 H 370.211 5.31505 2.50552 0
M  V30 3972 H 371.735 5.06859 3.40479 0
M  V30 3973 H 373.149 5.60644 1.19795 0
M  V30 3974 H 371.546 5.98009 0.500552 0
M  V30 3975 H 372.616 4.83763 -0.331856 0
M  V30 3976 N 373.959 -0.0401083 1.57549 0
M  V30 3977 C 375.37 -0.588097 1.77196 0
M  V30 3978 C 375.721 -1.76209 0.862832 0
M  V30 3979 O 374.846 -2.16331 0.0548389 0
M  V30 3980 C 375.441 -1.07363 3.21339 0
M  V30 3981 C 374 -1.56723 3.42221 0
M  V30 3982 C 373.147 -0.50041 2.72747 0
M  V30 3983 H 376.098 0.186119 1.57605 0
M  V30 3984 H 376.119 -1.94143 3.27244 0
M  V30 3985 H 375.631 -0.218975 3.87482 0
M  V30 3986 H 373.732 -2.4441 2.81237 0
M  V30 3987 H 373.845 -1.62234 4.50796 0
M  V30 3988 H 372.209 -0.952894 2.36203 0
M  V30 3989 H 372.992 0.344599 3.41566 0
M  V30 3990 N 375.437 -1.54477 -0.31217 0
M  V30 3991 C 376.367 -1.87652 -1.38957 0
M  V30 3992 C 377.348 -0.734358 -1.53431 0
M  V30 3993 O 378.533 -0.98911 -1.67123 0
M  V30 3994 C 375.663 -2.11396 -2.75552 0
M  V30 3995 C 374.617 -3.27243 -2.75855 0
M  V30 3996 C 373.943 -3.36382 -4.15633 0
M  V30 3997 C 375.243 -4.64622 -2.38587 0
M  V30 3998 H 376.937 -2.77887 -1.11442 0
M  V30 3999 H 374.483 -1.33707 -0.534655 0
M  V30 4000 H 376.436 -2.33189 -3.51 0
M  V30 4001 H 375.16 -1.17921 -3.04569 0
M  V30 4002 H 373.819 -3.05356 -2.02863 0
M  V30 4003 H 373.467 -2.40445 -4.41809 0
M  V30 4004 H 373.167 -4.14249 -4.1674 0
M  V30 4005 H 374.691 -3.60422 -4.92877 0
M  V30 4006 H 376.105 -4.86219 -3.03749 0
M  V30 4007 H 374.502 -5.45121 -2.50925 0
M  V30 4008 H 375.572 -4.66097 -1.33723 0
M  V30 4009 N 376.915 0.57481 -1.46744 0
M  V30 4010 C 377.825 1.711 -1.60505 0
M  V30 4011 C 378.841 1.67008 -0.488307 0
M  V30 4012 O 380.017 1.86774 -0.753495 0
M  V30 4013 C 377.082 3.07608 -1.59932 0
M  V30 4014 C 376.143 3.22904 -2.82898 0
M  V30 4015 C 375.376 4.529 -2.82343 0
M  V30 4016 O 375.599 5.37278 -1.91542 0
M  V30 4017 O 374.533 4.71611 -3.73987 0
M  V30 4018 H 378.359 1.62436 -2.56609 0
M  V30 4019 H 375.944 0.742779 -1.29627 0
M  V30 4020 H 377.826 3.88877 -1.62336 0
M  V30 4021 H 376.501 3.16692 -0.669898 0
M  V30 4022 H 375.408 2.41099 -2.86046 0
M  V30 4023 H 376.741 3.18715 -3.75076 0
M  V30 4024 N 378.394 1.34581 0.820102 0
M  V30 4025 C 379.619 1.30333 1.61332 0
M  V30 4026 C 380.044 -0.119339 1.87721 0
M  V30 4027 O 379.402 -1.08197 1.45475 0
M  V30 4028 C 379.45 2.10258 2.92957 0
M  V30 4029 O 378.554 1.47404 3.85157 0
M  V30 4030 H 377.895 0.447488 0.490561 0
M  V30 4031 H 380.425 1.77425 1.01889 0
M  V30 4032 H 380.435 2.21718 3.42498 0
M  V30 4033 H 379.11 3.13693 2.73074 0
M  V30 4034 H 377.687 1.44703 3.43679 0
M  V30 4035 N 379.872 -1.04064 1.18357 0
M  V30 4036 C 381.12 -1.76915 0.977013 0
M  V30 4037 C 381.441 -1.88624 -0.494577 0
M  V30 4038 O 380.711 -1.41125 -1.3587 0
M  V30 4039 H 379.291 -0.65535 0.358504 0
M  V30 4040 H 381.953 -1.25592 1.49039 0
M  V30 4041 H 381.049 -2.78178 1.41504 0
M  V30 4042 N 381.35 -0.985608 -1.22978 0
M  V30 4043 C 382.298 -0.522631 -2.26652 0
M  V30 4044 C 383.292 0.422998 -1.64034 0
M  V30 4045 O 384.498 0.296319 -1.77544 0
M  V30 4046 H 380.873 -0.150597 -0.736766 0
M  V30 4047 H 382.844 -1.40863 -2.63059 0
M  V30 4048 C 381.593 0.154238 -3.47358 0
M  V30 4049 H 380.916 -0.564329 -3.95797 0
M  V30 4050 H 382.356 0.441744 -4.21693 0
M  V30 4051 C 380.815 1.38719 -3.07016 0
M  V30 4052 O 381.345 2.48307 -3.15764 0
M  V30 4053 N 379.551 1.25975 -2.61875 0
M  V30 4054 H 379.098 0.368068 -2.54957 0
M  V30 4055 H 379.056 2.08578 -2.3525 0
M  V30 4056 N 382.828 1.3818 -0.7579 0
M  V30 4057 C 384.068 2.01864 -0.320968 0
M  V30 4058 C 384.432 1.58863 1.07827 0
M  V30 4059 O 385.633 2.14908 1.61456 0
M  V30 4060 C 383.904 3.54626 -0.44446 0
M  V30 4061 S 385.463 4.38706 -0.0907467 0
M  V30 4062 H 382.281 0.700056 -0.124268 0
M  V30 4063 H 384.883 1.68611 -0.989468 0
M  V30 4064 H 383.587 3.83411 -1.4637 0
M  V30 4065 H 383.118 3.92661 0.241073 0
M  V30 4066 H 385.133 4.83435 1.11826 0
M  V30 4067 N 384.306 0.507319 1.49211 0
M  V30 4068 C 385.269 -0.256763 2.27757 0
M  V30 4069 C 386.269 -0.888287 1.34038 0
M  V30 4070 O 387.459 -0.751841 1.5714 0
M  V30 4071 C 384.591 -1.36905 3.12202 0
M  V30 4072 H 385.784 0.432557 2.96764 0
M  V30 4073 H 383.337 0.262488 1.5408 0
M  V30 4074 H 384.072 -2.09233 2.47775 0
M  V30 4075 H 383.857 -0.921599 3.81115 0
M  V30 4076 H 385.347 -1.9071 3.7151 0
M  V30 4077 N 385.784 -1.5574 0.241426 0
M  V30 4078 C 387.195 -1.84842 -0.262755 0
M  V30 4079 C 387.546 -1.16317 -1.58003 0
M  V30 4080 O 386.671 -0.439653 -2.11887 0
M  V30 4081 C 387.266 -3.35332 -0.483523 0
M  V30 4082 C 385.825 -3.6468 -0.931977 0
M  V30 4083 C 384.972 -2.77299 -0.0061151 0
M  V30 4084 H 387.923 -1.51761 0.464129 0
M  V30 4085 H 387.944 -3.56615 -1.32688 0
M  V30 4086 H 387.456 -3.85178 0.47537 0
M  V30 4087 H 385.557 -3.20307 -1.90353 0
M  V30 4088 H 385.67 -4.72498 -0.792628 0
M  V30 4089 H 384.034 -2.49408 -0.516503 0
M  V30 4090 H 384.817 -3.2995 0.948052 0
M  V30 4091 N 387.262 0.0317525 -1.57568 0
M  V30 4092 C 388.509 0.723104 -1.89149 0
M  V30 4093 C 388.837 1.75504 -0.838377 0
M  V30 4094 O 388.092 1.95037 0.160982 0
M  V30 4095 C 388.391 1.43167 -3.27472 0
M  V30 4096 C 388.057 0.535972 -4.47703 0
M  V30 4097 C 386.719 0.289262 -4.8033 0
M  V30 4098 C 389.071 -0.0826125 -5.21135 0
M  V30 4099 C 386.399 -0.584853 -5.83778 0
M  V30 4100 C 388.751 -0.944414 -6.25511 0
M  V30 4101 C 387.415 -1.20061 -6.56614 0
M  V30 4102 H 386.685 0.264602 -0.692146 0
M  V30 4103 H 389.332 -0.0169496 -1.91492 0
M  V30 4104 H 387.637 2.24497 -3.21105 0
M  V30 4105 H 389.334 1.97209 -3.49155 0
M  V30 4106 H 385.924 0.738414 -4.22191 0
M  V30 4107 H 390.108 0.0950302 -4.96209 0
M  V30 4108 H 385.364 -0.79168 -6.06253 0
M  V30 4109 H 389.538 -1.43026 -6.81554 0
M  V30 4110 H 387.165 -1.87967 -7.36595 0
M  V30 4111 N 388.74 1.54641 0.303973 0
M  V30 4112 C 389.687 1.85386 1.37479 0
M  V30 4113 C 390.657 0.702528 1.50512 0
M  V30 4114 O 391.842 0.950867 1.65418 0
M  V30 4115 C 388.982 2.10413 2.73533 0
M  V30 4116 C 388.095 3.38049 2.68974 0
M  V30 4117 C 387.23 3.52934 3.97002 0
M  V30 4118 C 386.269 4.74373 3.86829 0
M  V30 4119 N 385.406 4.8608 5.06627 0
M  V30 4120 H 390.246 2.76732 1.1056 0
M  V30 4121 H 387.783 1.37034 0.534805 0
M  V30 4122 H 389.741 2.22919 3.52652 0
M  V30 4123 H 388.371 1.22338 2.98719 0
M  V30 4124 H 387.423 3.3418 1.81736 0
M  V30 4125 H 388.735 4.27288 2.57346 0
M  V30 4126 H 387.889 3.65088 4.84557 0
M  V30 4127 H 386.628 2.61824 4.1146 0
M  V30 4128 H 385.633 4.62255 2.97658 0
M  V30 4129 H 386.858 5.66888 3.73918 0
M  V30 4130 H 384.804 3.97891 5.21554 0
M  V30 4131 H 384.721 5.69315 4.9741 0
M  V30 4132 H 385.989 5.02587 5.95841 0
M  V30 4133 N 390.218 -0.567019 1.47046 0
M  V30 4134 C 391.151 -1.69016 1.53326 0
M  V30 4135 C 392.129 -1.57949 0.386126 0
M  V30 4136 O 393.313 -1.78945 0.592529 0
M  V30 4137 C 390.44 -3.07191 1.42658 0
M  V30 4138 C 389.486 -3.36733 2.6175 0
M  V30 4139 S 390.319 -3.27069 4.24012 0
M  V30 4140 C 391.475 -4.67755 4.1588 0
M  V30 4141 H 391.708 -1.63434 2.48348 0
M  V30 4142 H 389.241 -0.747048 1.35124 0
M  V30 4143 H 391.199 -3.86897 1.37191 0
M  V30 4144 H 389.86 -3.10249 0.490369 0
M  V30 4145 H 389.053 -4.37441 2.50323 0
M  V30 4146 H 388.655 -2.64627 2.64289 0
M  V30 4147 H 390.947 -5.58491 3.83529 0
M  V30 4148 H 391.89 -4.84239 5.16641 0
M  V30 4149 H 392.298 -4.45341 3.46889 0
M  V30 4150 N 391.696 -1.35014 -0.812953 0
M  V30 4151 C 392.924 -1.31031 -1.6012 0
M  V30 4152 C 393.339 0.113558 -1.88458 0
M  V30 4153 O 392.696 1.06363 -1.48301 0
M  V30 4154 C 392.747 -2.10872 -2.93624 0
M  V30 4155 O 392.468 -3.47706 -2.66518 0
M  V30 4156 C 393.969 -2.14401 -3.88004 0
M  V30 4157 H 391.189 -0.45037 -0.497401 0
M  V30 4158 H 393.733 -1.77775 -1.01076 0
M  V30 4159 H 391.888 -1.67744 -3.492 0
M  V30 4160 H 392.302 -3.89097 -3.51715 0
M  V30 4161 H 393.776 -2.74669 -4.78812 0
M  V30 4162 H 394.253 -1.14105 -4.24119 0
M  V30 4163 H 394.859 -2.57662 -3.38364 0
M  V30 4164 N 393.175 1.03435 -1.18907 0
M  V30 4165 C 394.421 1.77005 -0.989798 0
M  V30 4166 C 394.754 1.88205 0.478816 0
M  V30 4167 O 394.029 1.39481 1.35556 0
M  V30 4168 C 394.312 3.19925 -1.65287 0
M  V30 4169 C 394.165 3.1663 -3.19477 0
M  V30 4170 C 395.484 4.18189 -1.37134 0
M  V30 4171 H 392.603 0.642538 -0.360991 0
M  V30 4172 H 395.245 1.20784 -1.46667 0
M  V30 4173 H 393.395 3.67929 -1.24741 0
M  V30 4174 H 395.067 2.76567 -3.692 0
M  V30 4175 H 393.31 2.54491 -3.51307 0
M  V30 4176 H 393.981 4.1758 -3.61013 0
M  V30 4177 H 396.457 3.78761 -1.72276 0
M  V30 4178 H 395.333 5.16394 -1.86087 0
M  V30 4179 H 395.594 4.41112 -0.295424 0
M  V30 4180 N 394.653 0.992116 1.22453 0
M  V30 4181 C 395.583 0.561677 2.26644 0
M  V30 4182 C 396.564 -0.411055 1.65059 0
M  V30 4183 O 397.749 -0.301861 1.9184 0
M  V30 4184 C 394.879 -0.125247 3.47074 0
M  V30 4185 C 393.833 0.765948 4.21091 0
M  V30 4186 C 393.159 -0.0538484 5.34673 0
M  V30 4187 C 394.459 2.06242 4.79856 0
M  V30 4188 H 396.153 1.43259 2.62902 0
M  V30 4189 H 393.699 0.690283 1.26377 0
M  V30 4190 H 395.652 -0.437764 4.1912 0
M  V30 4191 H 394.376 -1.03069 3.0991 0
M  V30 4192 H 393.035 1.0621 3.50878 0
M  V30 4193 H 392.683 -0.960188 4.9375 0
M  V30 4194 H 392.383 0.539415 5.85119 0
M  V30 4195 H 393.907 -0.360477 6.09535 0
M  V30 4196 H 395.321 1.8139 5.43848 0
M  V30 4197 H 393.718 2.60444 5.40638 0
M  V30 4198 H 394.788 2.74167 3.99951 0
M  V30 4199 N 396.131 -1.37776 0.765217 0
M  V30 4200 C 397.061 -2.32945 0.160953 0
M  V30 4201 C 398.042 -1.55454 -0.690516 0
M  V30 4202 O 399.227 -1.83721 -0.629318 0
M  V30 4203 C 396.357 -3.39669 -0.724031 0
M  V30 4204 C 395.311 -4.27992 0.0256173 0
M  V30 4205 C 394.637 -5.25673 -0.978383 0
M  V30 4206 C 395.937 -5.08309 1.20082 0
M  V30 4207 H 397.631 -2.83728 0.955969 0
M  V30 4208 H 395.177 -1.36416 0.461149 0
M  V30 4209 H 397.13 -4.05219 -1.15652 0
M  V30 4210 H 395.854 -2.87396 -1.5515 0
M  V30 4211 H 394.513 -3.63964 0.438812 0
M  V30 4212 H 394.161 -4.69682 -1.80022 0
M  V30 4213 H 393.861 -5.85625 -0.481378 0
M  V30 4214 H 395.385 -5.94098 -1.40995 0
M  V30 4215 H 396.799 -5.67034 0.845307 0
M  V30 4216 H 395.196 -5.77554 1.62947 0
M  V30 4217 H 396.266 -4.41365 2.00811 0
M  V30 4218 N 397.609 -0.515225 -1.4894 0
M  V30 4219 C 398.857 0.0241671 -2.02086 0
M  V30 4220 C 399.178 1.3616 -1.3959 0
M  V30 4221 O 398.448 1.87841 -0.556121 0
M  V30 4222 H 397.028 0.0119203 -0.746905 0
M  V30 4223 H 399.69 -0.675702 -1.82812 0
M  V30 4224 H 398.786 0.143385 -3.1177 0
M  V30 4225 N 399.087 1.5561 -0.249682 0
M  V30 4226 C 400.317 2.03116 0.377803 0
M  V30 4227 C 400.725 1.12822 1.51881 0
M  V30 4228 O 400.068 0.13562 1.83199 0
M  V30 4229 C 400.13 3.46866 0.944693 0
M  V30 4230 C 399.794 4.56955 -0.0644259 0
M  V30 4231 C 400.791 5.12485 -0.874957 0
M  V30 4232 C 398.476 5.01936 -0.19132 0
M  V30 4233 C 400.47 6.11491 -1.79881 0
M  V30 4234 C 398.157 6.00773 -1.11868 0
M  V30 4235 C 399.155 6.5543 -1.92095 0
M  V30 4236 O 398.843 7.5234 -2.83267 0
M  V30 4237 H 398.575 0.669489 0.0935961 0
M  V30 4238 H 401.129 2.02004 -0.371966 0
M  V30 4239 H 399.359 3.45136 1.74407 0
M  V30 4240 H 401.048 3.77856 1.48255 0
M  V30 4241 H 401.814 4.78564 -0.787523 0
M  V30 4242 H 397.693 4.59055 0.423072 0
M  V30 4243 H 401.237 6.54078 -2.42543 0
M  V30 4244 H 397.134 6.34114 -1.20703 0
M  V30 4245 H 397.902 7.69966 -2.7766 0
M  V30 4246 N 400.565 -0.0233959 1.57583 0
M  V30 4247 C 401.79 -0.728376 1.94189 0
M  V30 4248 C 402.215 -1.67793 0.850119 0
M  V30 4249 O 401.573 -1.80262 -0.19371 0
M  V30 4250 C 401.621 -1.45669 3.29868 0
M  V30 4251 O 400.725 -2.57013 3.22518 0
M  V30 4252 H 400.066 -0.195493 0.63457 0
M  V30 4253 H 402.596 0.0228214 2.04587 0
M  V30 4254 H 402.606 -1.82535 3.6489 0
M  V30 4255 H 401.281 -0.760314 4.08891 0
M  V30 4256 H 399.858 -2.22648 2.99136 0
M  V30 4257 N 402.043 -1.548 -0.295768 0
M  V30 4258 C 403.289 -1.74588 -1.03184 0
M  V30 4259 C 403.622 -0.532962 -1.86744 0
M  V30 4260 O 402.897 0.469872 -1.88739 0
M  V30 4261 C 403.18 -3.03791 -1.93347 0
M  V30 4262 C 403.033 -4.35392 -1.12933 0
M  V30 4263 C 404.352 -3.28892 -2.92435 0
M  V30 4264 H 401.471 -0.635221 -0.373715 0
M  V30 4265 H 404.113 -1.87519 -0.30606 0
M  V30 4266 H 402.263 -2.92898 -2.55232 0
M  V30 4267 H 403.935 -4.58211 -0.532943 0
M  V30 4268 H 402.178 -4.31642 -0.432168 0
M  V30 4269 H 402.849 -5.22074 -1.79284 0
M  V30 4270 H 405.325 -3.39429 -2.4068 0
M  V30 4271 H 404.201 -4.20603 -3.52682 0
M  V30 4272 H 404.462 -2.47437 -3.6637 0
M  V30 4273 N 403.521 0.559213 -1.47345 0
M  V30 4274 C 404.768 1.31648 -1.53867 0
M  V30 4275 C 405.096 1.93468 -0.200104 0
M  V30 4276 O 404.351 1.78295 0.806799 0
M  V30 4277 C 404.65 2.44853 -2.6035 0
M  V30 4278 C 404.316 2.00876 -4.03683 0
M  V30 4279 C 402.978 1.88599 -4.42701 0
M  V30 4280 C 405.33 1.67279 -4.93626 0
M  V30 4281 C 402.658 1.41017 -5.69501 0
M  V30 4282 C 405.01 1.21169 -6.20887 0
M  V30 4283 C 403.674 1.07487 -6.58789 0
M  V30 4284 H 402.944 0.481734 -0.56304 0
M  V30 4285 H 405.591 0.627301 -1.80934 0
M  V30 4286 H 403.896 3.19318 -2.27032 0
M  V30 4287 H 405.593 3.03039 -2.62619 0
M  V30 4288 H 402.183 2.11374 -3.72853 0
M  V30 4289 H 406.367 1.75638 -4.64182 0
M  V30 4290 H 401.623 1.29086 -5.97618 0
M  V30 4291 H 405.797 0.942345 -6.89995 0
M  V30 4292 H 403.424 0.703946 -7.56934 0
M  V30 4293 N 404.999 1.35443 0.805782 0
M  V30 4294 C 405.929 1.31095 1.93226 0
M  V30 4295 C 406.91 0.185244 1.69088 0
M  V30 4296 O 408.095 0.380332 1.90439 0
M  V30 4297 C 405.225 1.08299 3.29983 0
M  V30 4298 C 404.179 2.17519 3.68605 0
M  V30 4299 C 403.505 1.79887 5.03532 0
M  V30 4300 C 404.805 3.5949 3.78898 0
M  V30 4301 H 406.499 2.25352 1.97122 0
M  V30 4302 H 404.045 1.0848 0.946996 0
M  V30 4303 H 405.998 1.03897 4.08391 0
M  V30 4304 H 404.722 0.104885 3.26432 0
M  V30 4305 H 403.381 2.2102 2.92482 0
M  V30 4306 H 403.029 0.80693 4.96485 0
M  V30 4307 H 402.729 2.53001 5.30344 0
M  V30 4308 H 404.253 1.77011 5.84379 0
M  V30 4309 H 405.667 3.58307 4.47536 0
M  V30 4310 H 404.064 4.31371 4.1718 0
M  V30 4311 H 405.134 3.95584 2.80431 0
M  V30 4312 N 406.477 -1.02803 1.19454 0
M  V30 4313 C 407.407 -2.12999 0.956758 0
M  V30 4314 C 408.388 -1.69743 -0.110188 0
M  V30 4315 O 409.573 -1.94148 0.0450038 0
M  V30 4316 C 406.703 -3.43746 0.495553 0
M  V30 4317 C 405.657 -4.00688 1.50443 0
M  V30 4318 C 404.983 -5.27067 0.900275 0
M  V30 4319 C 406.283 -4.35397 2.8849 0
M  V30 4320 H 407.977 -2.33148 1.87836 0
M  V30 4321 H 405.523 -1.12045 0.904539 0
M  V30 4322 H 407.476 -4.2021 0.316493 0
M  V30 4323 H 406.2 -3.23321 -0.461646 0
M  V30 4324 H 404.859 -3.2632 1.67065 0
M  V30 4325 H 404.507 -5.02959 -0.064503 0
M  V30 4326 H 404.207 -5.66127 1.57397 0
M  V30 4327 H 405.731 -6.06196 0.73203 0
M  V30 4328 H 407.145 -5.02795 2.75446 0
M  V30 4329 H 405.542 -4.85541 3.52661 0
M  V30 4330 H 406.612 -3.44662 3.41081 0
M  V30 4331 N 407.956 -0.998596 -1.21925 0
M  V30 4332 C 408.889 -0.498517 -2.22688 0
M  V30 4333 C 409.867 0.444301 -1.56412 0
M  V30 4334 O 411.051 0.368518 -1.84863 0
M  V30 4335 C 408.178 0.276639 -3.37568 0
M  V30 4336 C 407.224 -0.61302 -4.22071 0
M  V30 4337 S 408.057 -2.07168 -4.93803 0
M  V30 4338 C 409.213 -1.30617 -6.12119 0
M  V30 4339 H 409.446 -1.35234 -2.64762 0
M  V30 4340 H 406.979 -0.806018 -1.31692 0
M  V30 4341 H 408.937 0.717817 -4.04175 0
M  V30 4342 H 407.598 1.10581 -2.93991 0
M  V30 4343 H 406.791 -0.0162909 -5.03997 0
M  V30 4344 H 406.393 -0.991202 -3.60626 0
M  V30 4345 H 408.685 -0.57675 -6.75041 0
M  V30 4346 H 409.628 -2.10091 -6.76215 0
M  V30 4347 H 410.036 -0.816957 -5.58557 0
M  V30 4348 N 409.434 1.37368 -0.772513 0
M  V30 4349 C 410.367 2.27956 -0.105593 0
M  V30 4350 C 411.345 1.46362 0.708295 0
M  V30 4351 O 412.529 1.75695 0.682895 0
M  V30 4352 C 409.656 3.27687 0.856686 0
M  V30 4353 C 408.702 4.26312 0.1267 0
M  V30 4354 S 409.535 5.22206 -1.1858 0
M  V30 4355 C 410.691 6.25488 -0.227081 0
M  V30 4356 H 410.924 2.84171 -0.87372 0
M  V30 4357 H 408.457 1.43654 -0.565939 0
M  V30 4358 H 410.415 3.85653 1.40648 0
M  V30 4359 H 409.076 2.70417 1.59793 0
M  V30 4360 H 408.269 4.96674 0.856212 0
M  V30 4361 H 407.871 3.72339 -0.352117 0
M  V30 4362 H 410.163 6.74836 0.600231 0
M  V30 4363 H 411.106 7.02371 -0.898899 0
M  V30 4364 H 411.514 5.64267 0.162053 0
M  V30 4365 N 410.912 0.523116 1.48665 0
M  V30 4366 C 411.86 -0.256859 2.31177 0
M  V30 4367 C 412.854 -0.94199 1.40794 0
M  V30 4368 O 414.06 -0.867157 1.57735 0
M  V30 4369 H 410.435 -0.1017 0.745091 0
M  V30 4370 H 412.406 0.458739 2.94853 0
M  V30 4371 C 411.155 -1.29503 3.22683 0
M  V30 4372 H 410.478 -0.777248 3.92172 0
M  V30 4373 H 411.918 -1.81233 3.83315 0
M  V30 4374 C 410.377 -2.32501 2.43813 0
M  V30 4375 O 410.907 -3.3881 2.15803 0
M  V30 4376 N 409.113 -2.05538 2.05432 0
M  V30 4377 H 408.66 -1.19104 2.28412 0
M  V30 4378 H 408.618 -2.74676 1.52973 0
M  V30 4379 N 412.39 -1.55475 0.257931 0
M  V30 4380 C 413.667 -1.91155 -0.414629 0
M  V30 4381 C 414.047 -1.18008 -1.75035 0
M  V30 4382 O 413.395 -0.301193 -2.26506 0
M  V30 4383 C 413.605 -3.44283 -0.571859 0
M  V30 4384 C 414.953 -4.15744 -0.862678 0
M  V30 4385 O 415.977 -3.50083 -0.657314 0
M  V30 4386 O 414.836 -5.31909 -1.2544 0
M  V30 4387 H 411.93 -0.796016 -0.22425 0
M  V30 4388 H 414.476 -1.66976 0.302814 0
M  V30 4389 H 413.248 -3.89558 0.368844 0
M  V30 4390 H 412.871 -3.7436 -1.33943 0
M  V30 4391 N 413.868 0.0150385 -1.57593 0
M  V30 4392 C 414.798 1.01047 -2.10503 0
M  V30 4393 C 415.779 1.36816 -1.01071 0
M  V30 4394 O 416.964 1.45455 -1.28672 0
M  V30 4395 C 414.094 2.30708 -2.59598 0
M  V30 4396 C 413.048 2.09142 -3.73421 0
M  V30 4397 C 412.374 3.44685 -4.08774 0
M  V30 4398 C 413.674 1.46619 -5.01298 0
M  V30 4399 H 415.368 0.569978 -2.93925 0
M  V30 4400 H 412.914 0.272724 -1.41394 0
M  V30 4401 H 414.867 3.00687 -2.95238 0
M  V30 4402 H 413.591 2.76843 -1.73279 0
M  V30 4403 H 412.25 1.41592 -3.38153 0
M  V30 4404 H 411.898 3.88495 -3.195 0
M  V30 4405 H 411.598 3.31077 -4.8545 0
M  V30 4406 H 413.122 4.16004 -4.4696 0
M  V30 4407 H 414.536 2.06535 -5.34805 0
M  V30 4408 H 412.933 1.43544 -5.82679 0
M  V30 4409 H 414.003 0.433611 -4.82957 0
M  V30 4410 N 415.346 1.54954 0.287554 0
M  V30 4411 C 416.276 1.89839 1.35954 0
M  V30 4412 C 417.257 0.758675 1.52244 0
M  V30 4413 O 418.442 1.01557 1.65529 0
M  V30 4414 C 415.572 2.15753 2.72154 0
M  V30 4415 C 414.526 3.3159 2.70614 0
M  V30 4416 C 413.852 3.42952 4.10229 0
M  V30 4417 C 415.152 4.68359 2.31165 0
M  V30 4418 H 416.846 2.79625 1.07007 0
M  V30 4419 H 414.392 1.3454 0.513316 0
M  V30 4420 H 416.345 2.38743 3.47246 0
M  V30 4421 H 415.069 1.22752 3.02654 0
M  V30 4422 H 413.728 3.08545 1.97979 0
M  V30 4423 H 413.376 2.47443 4.37928 0
M  V30 4424 H 413.076 4.20826 4.10097 0
M  V30 4425 H 414.6 3.68218 4.87081 0
M  V30 4426 H 416.014 4.9099 2.95976 0
M  V30 4427 H 414.411 5.49044 2.42221 0
M  V30 4428 H 415.481 4.68165 1.26291 0
M  V30 4429 N 416.824 -0.551391 1.4764 0
M  V30 4430 C 418.235 -1.13349 1.48354 0
M  V30 4431 C 418.586 -1.94709 0.241432 0
M  V30 4432 O 417.711 -2.06306 -0.653205 0
M  V30 4433 C 418.306 -2.0623 2.68802 0
M  V30 4434 C 416.865 -2.597 2.72457 0
M  V30 4435 C 416.012 -1.36201 2.41546 0
M  V30 4436 H 418.963 -0.337698 1.55065 0
M  V30 4437 H 418.984 -2.90196 2.46103 0
M  V30 4438 H 418.496 -1.46987 3.59188 0
M  V30 4439 H 416.597 -3.22724 1.86225 0
M  V30 4440 H 416.71 -3.00296 3.73308 0
M  V30 4441 H 415.074 -1.67068 1.9225 0
M  V30 4442 H 415.857 -0.787425 3.34147 0
M  V30 4443 N 418.302 -1.35869 -0.798587 0
M  V30 4444 C 419.265 -1.29307 -1.89242 0
M  V30 4445 C 420.265 -0.202747 -1.59517 0
M  V30 4446 O 421.455 -0.456957 -1.681 0
M  V30 4447 C 418.587 -1.00229 -3.25833 0
M  V30 4448 H 419.78 -2.26576 -1.96478 0
M  V30 4449 H 417.333 -1.20509 -0.995358 0
M  V30 4450 H 418.068 -0.033801 -3.24282 0
M  V30 4451 H 417.853 -1.79121 -3.48795 0
M  V30 4452 H 419.343 -0.98219 -4.05885 0
M  V30 4453 N 419.78 1.02168 -1.19998 0
M  V30 4454 C 421.008 1.79296 -1.03249 0
M  V30 4455 C 421.423 1.84103 0.418502 0
M  V30 4456 O 420.78 1.29031 1.29063 0
M  V30 4457 C 420.831 3.24007 -1.60319 0
M  V30 4458 O 420.552 3.19512 -2.99739 0
M  V30 4459 C 422.053 4.17704 -1.48453 0
M  V30 4460 H 419.273 0.564016 -0.363493 0
M  V30 4461 H 421.817 1.28639 -1.58973 0
M  V30 4462 H 419.972 3.7183 -1.08727 0
M  V30 4463 H 420.386 4.10306 -3.26725 0
M  V30 4464 H 421.86 5.17104 -1.93153 0
M  V30 4465 H 422.337 4.37029 -0.436193 0
M  V30 4466 H 422.943 3.7576 -1.99211 0
M  V30 4467 N 421.258 1.00505 1.21394 0
M  V30 4468 C 422.483 0.706367 1.95001 0
M  V30 4469 C 422.908 -0.72463 1.73582 0
M  V30 4470 O 422.266 -1.49702 1.0227 0
M  V30 4471 C 422.314 1.03299 3.45487 0
M  V30 4472 O 421.418 0.138275 4.12168 0
M  V30 4473 H 420.759 0.263175 0.609619 0
M  V30 4474 H 423.289 1.34531 1.54151 0
M  V30 4475 H 423.299 0.979872 3.96059 0
M  V30 4476 H 421.974 2.07567 3.60401 0
M  V30 4477 H 420.551 0.247928 3.72075 0
M  V30 4478 N 422.737 -1.36956 0.779787 0
M  V30 4479 C 423.965 -2.03755 0.359398 0
M  V30 4480 C 424.38 -1.58807 -1.02106 0
M  V30 4481 O 423.737 -0.773024 -1.6532 0
M  V30 4482 C 423.788 -3.59251 0.402568 0
M  V30 4483 O 423.509 -4.02557 1.72858 0
M  V30 4484 C 425.01 -4.43291 -0.0284068 0
M  V30 4485 H 422.23 -0.654148 0.149437 0
M  V30 4486 H 424.774 -1.75128 1.05595 0
M  V30 4487 H 422.929 -3.86621 -0.245478 0
M  V30 4488 H 423.343 -4.97111 1.67275 0
M  V30 4489 H 424.817 -5.51975 0.0529466 0
M  V30 4490 H 425.294 -4.25719 -1.07982 0
M  V30 4491 H 425.9 -4.21163 0.591758 0
M  V30 4492 N 424.215 -0.530993 -1.48385 0
M  V30 4493 C 425.44 0.000729535 -2.074 0
M  V30 4494 C 425.865 1.27298 -1.3848 0
M  V30 4495 O 425.223 1.75599 -0.451081 0
M  V30 4496 C 425.271 0.206697 -3.60007 0
M  V30 4497 O 424.375 1.27514 -3.92191 0
M  V30 4498 H 423.716 -0.039583 -0.662819 0
M  V30 4499 H 426.246 -0.739194 -1.9078 0
M  V30 4500 H 426.256 0.42904 -4.05738 0
M  V30 4501 H 424.931 -0.722675 -4.09573 0
M  V30 4502 H 423.508 1.03537 -3.58238 0
M  V30 4503 N 425.693 1.55336 -0.266172 0
M  V30 4504 C 426.918 2.04258 0.359661 0
M  V30 4505 C 427.343 1.14359 1.49344 0
M  V30 4506 O 426.701 0.140369 1.80756 0
M  V30 4507 C 426.749 3.50997 0.826635 0
M  V30 4508 O 425.853 3.64204 1.93466 0
M  V30 4509 H 425.194 0.659668 0.075727 0
M  V30 4510 H 427.724 2.00694 -0.39786 0
M  V30 4511 H 427.734 3.9219 1.12477 0
M  V30 4512 H 426.409 4.159 -0.00293032 0
M  V30 4513 H 424.986 3.34913 1.63974 0
M  V30 4514 N 427.171 -0.0066808 1.57599 0
M  V30 4515 C 428.121 -1.0086 2.04478 0
M  V30 4516 C 429.105 -1.30714 0.938231 0
M  V30 4517 O 430.297 -1.29924 1.20203 0
M  V30 4518 C 427.426 -2.30273 2.54615 0
M  V30 4519 C 426.512 -2.03413 3.72134 0
M  V30 4520 N 426.903 -1.46688 4.84062 0
M  V30 4521 C 425.201 -2.33589 3.79937 0
M  V30 4522 C 425.902 -1.36146 5.65543 0
M  V30 4523 N 424.878 -1.84477 5.1134 0
M  V30 4524 H 428.68 -0.564402 2.8843 0
M  V30 4525 H 426.194 -0.212521 1.61003 0
M  V30 4526 H 428.191 -3.02885 2.86472 0
M  V30 4527 H 426.851 -2.75352 1.72079 0
M  V30 4528 H 427.862 -1.14658 5.05049 0
M  V30 4529 H 424.539 -2.81589 3.08243 0
M  V30 4530 H 425.929 -0.925873 6.6549 0
M  V30 4531 N 428.649 -1.55105 -0.279332 0
M  V30 4532 C 429.612 -1.86783 -1.32834 0
M  V30 4533 C 430.612 -0.74199 -1.42657 0
M  V30 4534 O 431.802 -1.0102 -1.41918 0
M  V30 4535 C 428.934 -2.06746 -2.71052 0
M  V30 4536 H 430.127 -2.8055 -1.05979 0
M  V30 4537 H 427.68 -1.47499 -0.517087 0
M  V30 4538 H 428.415 -1.15339 -3.03097 0
M  V30 4539 H 428.2 -2.88711 -2.65309 0
M  V30 4540 H 429.69 -2.32549 -3.46858 0
M  V30 4541 N 430.127 0.543554 -1.4793 0
M  V30 4542 C 431.352 1.32995 -1.59145 0
M  V30 4543 C 431.777 1.86472 -0.246956 0
M  V30 4544 O 431.135 1.63696 0.779324 0
M  V30 4545 C 431.183 2.46623 -2.63077 0
M  V30 4546 O 430.287 3.49261 -2.19295 0
M  V30 4547 H 429.628 0.394472 -0.534124 0
M  V30 4548 H 432.158 0.655489 -1.93816 0
M  V30 4549 H 432.168 2.93001 -2.83926 0
M  V30 4550 H 430.843 2.07059 -3.60693 0
M  V30 4551 H 429.42 3.09094 -2.08603 0
M  V30 4552 N 431.605 1.3629 0.791371 0
M  V30 4553 C 432.535 1.33137 1.91825 0
M  V30 4554 C 433.516 0.203168 1.68882 0
M  V30 4555 O 434.701 0.400509 1.90025 0
M  V30 4556 C 431.831 1.11793 3.28816 0
M  V30 4557 C 430.785 2.21417 3.66277 0
M  V30 4558 C 430.111 1.85218 5.01596 0
M  V30 4559 C 431.411 3.63489 3.75064 0
M  V30 4560 H 433.105 2.2743 1.9472 0
M  V30 4561 H 430.651 1.09479 0.935437 0
M  V30 4562 H 432.604 1.08222 4.07266 0
M  V30 4563 H 431.328 0.139501 3.26302 0
M  V30 4564 H 429.987 2.2411 2.90121 0
M  V30 4565 H 429.635 0.859544 4.95602 0
M  V30 4566 H 429.335 2.58611 5.27631 0
M  V30 4567 H 430.859 1.832 5.82469 0
M  V30 4568 H 432.273 3.63034 4.43711 0
M  V30 4569 H 430.67 4.35771 4.12582 0
M  V30 4570 H 431.74 3.98536 2.76219 0
M  V30 4571 N 433.083 -1.0153 1.20538 0
M  V30 4572 C 434.329 -1.75408 1.01783 0
M  V30 4573 C 434.662 -1.88943 -0.448814 0
M  V30 4574 O 433.937 -1.4162 -1.33319 0
M  V30 4575 C 434.22 -3.17255 1.70356 0
M  V30 4576 C 434.073 -3.11508 3.24473 0
M  V30 4577 C 435.392 -4.15955 1.43769 0
M  V30 4578 H 432.511 -0.636713 0.371167 0
M  V30 4579 H 435.153 -1.18436 1.4857 0
M  V30 4580 H 433.303 -3.65898 1.30578 0
M  V30 4581 H 434.975 -2.70658 3.73553 0
M  V30 4582 H 433.218 -2.4887 3.55311 0
M  V30 4583 H 433.889 -4.11784 3.67611 0
M  V30 4584 H 436.365 -3.75973 1.7828 0
M  V30 4585 H 435.241 -5.13368 1.94279 0
M  V30 4586 H 435.502 -4.40586 0.365564 0
M  V30 4587 N 434.561 -1.01147 -1.20859 0
M  V30 4588 C 435.524 -0.582224 -2.21682 0
M  V30 4589 C 436.524 0.344887 -1.57058 0
M  V30 4590 O 437.714 0.134281 -1.73682 0
M  V30 4591 C 434.846 0.150496 -3.40568 0
M  V30 4592 H 436.039 -1.47408 -2.61172 0
M  V30 4593 H 433.592 -0.800695 -1.34233 0
M  V30 4594 H 434.327 1.0575 -3.06574 0
M  V30 4595 H 434.112 -0.515444 -3.88697 0
M  V30 4596 H 435.602 0.438344 -4.15293 0
M  V30 4597 N 436.039 1.36541 -0.78704 0
M  V30 4598 C 437.45 1.81873 -0.421807 0
M  V30 4599 C 437.801 1.65487 1.05397 0
M  V30 4600 O 436.926 1.17448 1.81755 0
M  V30 4601 C 437.521 3.30192 -0.758841 0
M  V30 4602 C 436.08 3.73743 -0.446468 0
M  V30 4603 C 435.227 2.58844 -0.994728 0
M  V30 4604 H 438.178 1.24796 -0.98039 0
M  V30 4605 H 438.199 3.80468 -0.0490648 0
M  V30 4606 H 437.711 3.42087 -1.83299 0
M  V30 4607 H 435.812 3.6741 0.619739 0
M  V30 4608 H 435.925 4.69272 -0.965415 0
M  V30 4609 H 434.289 2.51245 -0.418087 0
M  V30 4610 H 435.072 2.73525 -2.07458 0
M  V30 4611 N 437.518 0.538854 1.48102 0
M  V30 4612 C 438.448 -0.207654 2.32575 0
M  V30 4613 C 439.429 -0.926559 1.4265 0
M  V30 4614 O 440.614 -0.91061 1.71527 0
M  V30 4615 C 437.744 -1.24957 3.24042 0
M  V30 4616 C 436.698 -0.648263 4.23062 0
M  V30 4617 C 436.024 -1.79348 5.03725 0
M  V30 4618 C 437.324 0.385897 5.20872 0
M  V30 4619 H 439.018 0.497534 2.95237 0
M  V30 4620 H 436.564 0.240715 1.41974 0
M  V30 4621 H 438.517 -1.77983 3.81969 0
M  V30 4622 H 437.241 -1.98446 2.59397 0
M  V30 4623 H 435.9 -0.139452 3.66335 0
M  V30 4624 H 435.548 -2.51696 4.35498 0
M  V30 4625 H 435.248 -1.39702 5.70751 0
M  V30 4626 H 436.772 -2.32735 5.64506 0
M  V30 4627 H 438.186 -0.057607 5.73271 0
M  V30 4628 H 436.583 0.700227 5.96001 0
M  V30 4629 H 437.653 1.28848 4.67468 0
M  V30 4630 N 438.996 -1.55193 0.274407 0
M  V30 4631 C 439.959 -2.212 -0.600279 0
M  V30 4632 C 440.959 -1.18963 -1.08187 0
M  V30 4633 O 442.149 -1.43873 -0.982158 0
M  V30 4634 C 439.281 -2.87739 -1.82809 0
M  V30 4635 H 440.474 -2.9989 -0.0239682 0
M  V30 4636 H 438.027 -1.5628 0.0250192 0
M  V30 4637 H 438.762 -2.13058 -2.44493 0
M  V30 4638 H 438.547 -3.62658 -1.49069 0
M  V30 4639 H 440.037 -3.38171 -2.45011 0
M  V30 4640 N 440.474 -0.00167713 -1.576 0
M  V30 4641 C 441.404 0.988091 -2.11563 0
M  V30 4642 C 442.385 1.35736 -1.02517 0
M  V30 4643 O 443.57 1.44082 -1.30208 0
M  V30 4644 C 440.7 2.27941 -2.62031 0
M  V30 4645 C 439.654 2.0517 -3.75619 0
M  V30 4646 C 438.98 3.4033 -4.12407 0
M  V30 4647 C 440.28 1.41294 -5.02825 0
M  V30 4648 H 441.974 0.538771 -2.94513 0
M  V30 4649 H 439.52 0.257712 -1.41675 0
M  V30 4650 H 441.473 2.97539 -2.9841 0
M  V30 4651 H 440.197 2.74989 -1.76205 0
M  V30 4652 H 438.856 1.37998 -3.39635 0
M  V30 4653 H 438.504 3.85085 -3.23603 0
M  V30 4654 H 438.204 3.25909 -4.88935 0
M  V30 4655 H 439.728 4.1124 -4.51347 0
M  V30 4656 H 441.142 2.00851 -5.36965 0
M  V30 4657 H 439.539 1.37356 -5.84169 0
M  V30 4658 H 440.609 0.382362 -4.8339 0
M  V30 4659 N 441.952 1.55251 0.271103 0
M  V30 4660 C 442.885 1.83191 1.36075 0
M  V30 4661 C 443.863 0.685091 1.47463 0
M  V30 4662 O 445.047 0.928292 1.64058 0
M  V30 4663 C 442.174 1.99521 2.73696 0
M  V30 4664 C 441.22 3.22081 2.79582 0
M  V30 4665 S 442.053 4.79388 2.38636 0
M  V30 4666 C 443.209 4.98693 3.78228 0
M  V30 4667 H 443.442 2.75327 1.12171 0
M  V30 4668 H 440.975 1.47046 0.470833 0
M  V30 4669 H 442.933 2.09613 3.52948 0
M  V30 4670 H 441.594 1.0827 2.9485 0
M  V30 4671 H 440.787 3.304 3.80594 0
M  V30 4672 H 440.389 3.10589 2.08352 0
M  V30 4673 H 442.681 4.84551 4.73515 0
M  V30 4674 H 443.624 6.00738 3.7486 0
M  V30 4675 H 444.032 4.26665 3.69618 0
M  V30 4676 N 443.43 -0.535701 1.48216 0
M  V30 4677 C 444.362 -1.65662 1.58394 0
M  V30 4678 C 445.375 -1.5591 0.468607 0
M  V30 4679 O 446.564 -1.62475 0.7392 0
M  V30 4680 C 443.664 -3.04276 1.4923 0
M  V30 4681 C 442.837 -3.39567 2.75705 0
M  V30 4682 C 441.896 -4.57436 2.60075 0
M  V30 4683 O 440.922 -4.60942 3.33948 0
M  V30 4684 N 442.124 -5.55259 1.69315 0
M  V30 4685 H 444.889 -1.5737 2.55058 0
M  V30 4686 H 442.45 -0.722845 1.44867 0
M  V30 4687 H 444.442 -3.80994 1.36477 0
M  V30 4688 H 443.012 -3.06677 0.605632 0
M  V30 4689 H 442.232 -2.52083 3.03064 0
M  V30 4690 H 443.52 -3.59929 3.59623 0
M  V30 4691 H 442.918 -5.552 1.08489 0
M  V30 4692 H 441.475 -6.31218 1.62504 0
M  V30 4693 N 444.908 -1.36708 -0.784132 0
M  V30 4694 C 446.136 -1.34398 -1.57305 0
M  V30 4695 C 446.551 0.0735577 -1.88657 0
M  V30 4696 O 445.908 1.03193 -1.50524 0
M  V30 4697 C 445.959 -2.17053 -2.89085 0
M  V30 4698 O 445.68 -3.53281 -2.59083 0
M  V30 4699 C 447.181 -2.22583 -3.83369 0
M  V30 4700 H 444.401 -0.460819 -0.487736 0
M  V30 4701 H 446.945 -1.79879 -0.972819 0
M  V30 4702 H 445.1 -1.75113 -3.45564 0
M  V30 4703 H 445.514 -3.9647 -3.43383 0
M  V30 4704 H 446.988 -2.84763 -4.72878 0
M  V30 4705 H 447.465 -1.23075 -4.21603 0
M  V30 4706 H 448.071 -2.64781 -3.32823 0
M  V30 4707 N 446.386 1.0089 -1.21074 0
M  V30 4708 C 447.797 1.56056 -1.02486 0
M  V30 4709 C 448.148 1.91728 0.416506 0
M  V30 4710 O 447.273 1.73066 1.29912 0
M  V30 4711 C 447.868 2.83563 -1.85411 0
M  V30 4712 C 446.427 3.3523 -1.71166 0
M  V30 4713 C 445.574 2.0846 -1.82865 0
M  V30 4714 H 448.525 0.831818 -1.35154 0
M  V30 4715 H 448.546 3.55286 -1.36205 0
M  V30 4716 H 448.058 2.57569 -2.9031 0
M  V30 4717 H 446.159 3.66167 -0.689361 0
M  V30 4718 H 446.272 4.06913 -2.52901 0
M  V30 4719 H 444.636 2.21275 -1.26132 0
M  V30 4720 H 445.419 1.84883 -2.89263 0
M  V30 4721 N 447.864 1.01787 1.20321 0
M  V30 4722 C 448.794 0.609625 2.25401 0
M  V30 4723 C 449.775 -0.375951 1.65893 0
M  V30 4724 O 450.96 -0.261101 1.92437 0
M  V30 4725 C 448.09 -0.0515995 3.47262 0
M  V30 4726 C 447.044 0.855095 4.19371 0
M  V30 4727 C 446.37 0.0595757 5.34667 0
M  V30 4728 C 447.67 2.16374 4.75373 0
M  V30 4729 H 449.364 1.48803 2.59804 0
M  V30 4730 H 446.91 0.716934 1.24884 0
M  V30 4731 H 448.863 -0.348764 4.19954 0
M  V30 4732 H 447.587 -0.964726 3.12027 0
M  V30 4733 H 446.246 1.13628 3.48546 0
M  V30 4734 H 445.894 -0.85524 4.95676 0
M  V30 4735 H 445.594 0.663406 5.83843 0
M  V30 4736 H 447.118 -0.231105 6.10162 0
M  V30 4737 H 448.532 1.92885 5.39878 0
M  V30 4738 H 446.929 2.71853 5.34991 0
M  V30 4739 H 447.999 2.82589 3.94045 0
M  V30 4740 N 449.342 -1.36122 0.79427 0
M  V30 4741 C 450.753 -1.81646 0.431446 0
M  V30 4742 C 451.104 -1.66043 -1.04518 0
M  V30 4743 O 450.229 -1.1841 -1.8113 0
M  V30 4744 C 450.824 -3.29785 0.776341 0
M  V30 4745 C 449.383 -3.73501 0.466282 0
M  V30 4746 C 448.53 -2.58313 1.00844 0
M  V30 4747 H 451.481 -1.24274 0.986995 0
M  V30 4748 H 451.502 -3.80437 0.0692413 0
M  V30 4749 H 451.014 -3.4111 1.8511 0
M  V30 4750 H 449.115 -3.67733 -0.600245 0
M  V30 4751 H 449.228 -4.68754 0.990288 0
M  V30 4752 H 447.592 -2.5102 0.431406 0
M  V30 4753 H 448.375 -2.72421 2.08906 0
M  V30 4754 N 450.82 -0.546701 -1.47814 0
M  V30 4755 C 451.783 0.196287 -2.28358 0
M  V30 4756 C 452.783 0.852437 -1.36346 0
M  V30 4757 O 453.973 0.709913 -1.59078 0
M  V30 4758 C 451.105 1.28579 -3.15722 0
M  V30 4759 H 452.298 -0.511086 -2.95513 0
M  V30 4760 H 449.851 -0.303248 -1.5333 0
M  V30 4761 H 450.586 2.0259 -2.53235 0
M  V30 4762 H 450.371 0.820229 -3.83425 0
M  V30 4763 H 451.861 1.80793 -3.76435 0
M  V30 4764 N 452.299 1.55045 -0.282633 0
M  V30 4765 C 453.547 1.99365 0.331334 0
M  V30 4766 C 453.868 1.1725 1.55812 0
M  V30 4767 O 453.138 0.263871 1.94115 0
M  V30 4768 H 451.718 0.736397 0.125414 0
M  V30 4769 H 454.38 1.90964 -0.389711 0
M  V30 4770 H 453.476 3.0596 0.616036 0
M  V30 4771 N 453.777 0.010035 1.57597 0
M  V30 4772 C 455.023 -0.673697 1.91283 0
M  V30 4773 C 455.356 -1.72863 0.884979 0
M  V30 4774 O 454.631 -1.94268 -0.0949487 0
M  V30 4775 C 454.914 -1.30766 3.35518 0
M  V30 4776 C 454.767 -0.263578 4.49027 0
M  V30 4777 C 456.086 -2.23105 3.79358 0
M  V30 4778 H 453.205 -0.243439 0.695634 0
M  V30 4779 H 455.847 0.0633864 1.89894 0
M  V30 4780 H 453.997 -1.93588 3.36832 0
M  V30 4781 H 455.669 0.365738 4.59848 0
M  V30 4782 H 453.912 0.413077 4.31829 0
M  V30 4783 H 454.583 -0.746398 5.4693 0
M  V30 4784 H 457.059 -1.70289 3.79659 0
M  V30 4785 H 455.935 -2.64424 4.81011 0
M  V30 4786 H 456.196 -3.11433 3.13787 0
M  V30 4787 N 455.255 -1.55392 -0.262866 0
M  V30 4788 C 456.485 -1.80251 -1.00961 0
M  V30 4789 C 456.893 -0.58117 -1.80053 0
M  V30 4790 O 456.236 0.459427 -1.77862 0
M  V30 4791 C 456.298 -2.98207 -2.00781 0
M  V30 4792 C 455.962 -4.34856 -1.40533 0
M  V30 4793 C 456.959 -5.13459 -0.815853 0
M  V30 4794 C 454.644 -4.8153 -1.42948 0
M  V30 4795 C 456.638 -6.36875 -0.258562 0
M  V30 4796 C 454.325 -6.04899 -0.868334 0
M  V30 4797 C 455.323 -6.8241 -0.283884 0
M  V30 4798 O 455.011 -8.03451 0.268644 0
M  V30 4799 H 454.743 -0.604049 -0.303482 0
M  V30 4800 H 457.297 -2.03257 -0.295926 0
M  V30 4801 H 455.527 -2.70917 -2.75936 0
M  V30 4802 H 457.216 -3.10299 -2.61667 0
M  V30 4803 H 457.982 -4.78526 -0.789812 0
M  V30 4804 H 453.861 -4.21201 -1.87378 0
M  V30 4805 H 457.405 -6.97318 0.198257 0
M  V30 4806 H 453.302 -6.39312 -0.891649 0
M  V30 4807 H 454.07 -8.18346 0.158974 0
M  V30 4808 N 456.733 0.527833 -1.48498 0
M  V30 4809 C 457.98 1.28354 -1.56625 0
M  V30 4810 C 458.308 1.93 -0.241096 0
M  V30 4811 O 457.563 1.79967 0.768798 0
M  V30 4812 C 457.862 2.39275 -2.65485 0
M  V30 4813 C 457.528 1.92268 -4.07853 0
M  V30 4814 C 456.19 1.79166 -4.46602 0
M  V30 4815 C 458.542 1.56771 -4.97064 0
M  V30 4816 C 455.87 1.28905 -5.72364 0
M  V30 4817 C 458.222 1.07972 -6.23318 0
M  V30 4818 C 456.886 0.934887 -6.60921 0
M  V30 4819 H 456.156 0.469682 -0.573131 0
M  V30 4820 H 458.803 0.588781 -1.82224 0
M  V30 4821 H 457.108 3.1443 -2.33754 0
M  V30 4822 H 458.805 2.974 -2.68988 0
M  V30 4823 H 455.395 2.03417 -3.77252 0
M  V30 4824 H 459.579 1.65753 -4.67803 0
M  V30 4825 H 454.835 1.16381 -6.00221 0
M  V30 4826 H 459.009 0.795775 -6.91838 0
M  V30 4827 H 456.636 0.543231 -7.58257 0
M  V30 4828 N 458.211 1.37122 0.776871 0
M  V30 4829 C 459.174 1.32301 1.8716 0
M  V30 4830 C 460.174 0.228099 1.59174 0
M  V30 4831 O 461.364 0.483642 1.67352 0
M  V30 4832 C 458.496 1.054 3.24197 0
M  V30 4833 H 459.689 2.29673 1.92848 0
M  V30 4834 H 457.242 1.22077 0.97606 0
M  V30 4835 H 457.977 0.0853872 3.24188 0
M  V30 4836 H 457.762 1.84648 3.45901 0
M  V30 4837 H 459.252 1.04664 4.04271 0
M  V30 4838 N 459.689 -1.00246 1.21608 0
M  V30 4839 C 460.619 -2.10921 1.00172 0
M  V30 4840 C 461.6 -1.69938 -0.0741587 0
M  V30 4841 O 462.785 -1.94009 0.0861753 0
M  V30 4842 C 459.915 -3.42618 0.568355 0
M  V30 4843 C 458.869 -3.97407 1.58909 0
M  V30 4844 C 458.195 -5.25038 1.01187 0
M  V30 4845 C 459.495 -4.2918 2.97661 0
M  V30 4846 H 461.189 -2.29112 1.92739 0
M  V30 4847 H 458.735 -1.10101 0.928102 0
M  V30 4848 H 460.688 -4.19444 0.405555 0
M  V30 4849 H 459.412 -3.24227 -0.392961 0
M  V30 4850 H 458.071 -3.22703 1.73949 0
M  V30 4851 H 457.719 -5.02982 0.0421965 0
M  V30 4852 H 457.419 -5.62661 1.6937 0
M  V30 4853 H 458.943 -6.04507 0.860448 0
M  V30 4854 H 460.357 -4.96839 2.86049 0
M  V30 4855 H 458.754 -4.77952 3.6288 0
M  V30 4856 H 459.824 -3.3735 3.48315 0
M  V30 4857 N 461.167 -1.02423 -1.1978 0
M  V30 4858 C 462.407 -0.726635 -1.91048 0
M  V30 4859 C 462.771 0.730947 -1.77542 0
M  V30 4860 O 463.972 1.14141 -2.43362 0
M  V30 4861 C 462.243 -1.15964 -3.38064 0
M  V30 4862 S 463.802 -0.985172 -4.27598 0
M  V30 4863 H 460.62 -0.264679 -0.659899 0
M  V30 4864 H 463.222 -1.31309 -1.44838 0
M  V30 4865 H 461.926 -2.21619 -3.45417 0
M  V30 4866 H 461.457 -0.566274 -3.89303 0
M  V30 4867 H 463.472 0.106946 -4.96085 0
M  V30 4868 N 462.645 1.35699 -0.801477 0
M  V30 4869 C 463.575 2.32436 -0.222658 0
M  V30 4870 C 464.556 1.5723 0.649057 0
M  V30 4871 O 465.741 1.85324 0.580387 0
M  V30 4872 C 462.871 3.41469 0.633719 0
M  V30 4873 C 461.825 4.27774 -0.139083 0
M  V30 4874 C 461.151 5.28082 0.838666 0
M  V30 4875 C 462.451 5.04946 -1.33517 0
M  V30 4876 H 464.145 2.81094 -1.03086 0
M  V30 4877 H 461.691 1.35146 -0.497155 0
M  V30 4878 H 463.644 4.08143 1.04868 0
M  V30 4879 H 462.368 2.91408 1.47475 0
M  V30 4880 H 461.027 3.62673 -0.535156 0
M  V30 4881 H 460.675 4.7429 1.67506 0
M  V30 4882 H 460.375 5.86695 0.32594 0
M  V30 4883 H 461.899 5.97628 1.25194 0
M  V30 4884 H 463.313 5.64593 -0.995349 0
M  V30 4885 H 461.71 5.7303 -1.78202 0
M  V30 4886 H 462.78 4.35886 -2.12442 0
M  V30 4887 N 464.123 0.554532 1.47522 0
M  V30 4888 C 465.348 0.0322661 2.07375 0
M  V30 4889 C 465.773 -1.25079 1.40488 0
M  V30 4890 O 465.131 -1.74859 0.47896 0
M  V30 4891 C 465.179 -0.149397 3.6029 0
M  V30 4892 O 464.283 -1.21259 3.9417 0
M  V30 4893 H 463.624 0.0501228 0.662106 0
M  V30 4894 H 466.154 0.769452 1.8958 0
M  V30 4895 H 466.164 -0.364437 4.06369 0
M  V30 4896 H 464.839 0.787743 4.08372 0
M  V30 4897 H 463.416 -0.97825 3.5984 0
M  V30 4898 N 465.601 -1.54893 0.290851 0
M  V30 4899 C 466.531 -2.26103 -0.583084 0
M  V30 4900 C 467.512 -1.25684 -1.14619 0
M  V30 4901 O 468.697 -1.54436 -1.17741 0
M  V30 4902 C 465.827 -2.99409 -1.75987 0
M  V30 4903 C 464.781 -4.0689 -1.32758 0
M  V30 4904 C 464.107 -4.67856 -2.58872 0
M  V30 4905 C 465.407 -5.20215 -0.46624 0
M  V30 4906 H 467.101 -2.99398 0.0108214 0
M  V30 4907 H 464.647 -1.43998 0.00664468 0
M  V30 4908 H 466.6 -3.47943 -2.37727 0
M  V30 4909 H 465.324 -2.23675 -2.37985 0
M  V30 4910 H 463.983 -3.59191 -0.733299 0
M  V30 4911 H 463.631 -3.88772 -3.19163 0
M  V30 4912 H 463.331 -5.40438 -2.30653 0
M  V30 4913 H 464.855 -5.19147 -3.21433 0
M  V30 4914 H 466.269 -5.64704 -0.989047 0
M  V30 4915 H 464.666 -5.99455 -0.27826 0
M  V30 4916 H 465.736 -4.82198 0.511173 0
M  V30 4917 N 467.08 -0.0183926 -1.57589 0
M  V30 4918 C 468.013 1.00148 -2.0505 0
M  V30 4919 C 468.991 1.32387 -0.944058 0
M  V30 4920 O 470.175 1.44237 -1.21358 0
M  V30 4921 C 467.302 2.32435 -2.46357 0
M  V30 4922 C 466.348 2.15731 -3.67916 0
M  V30 4923 S 467.181 1.46613 -5.15039 0
M  V30 4924 C 468.337 2.80293 -5.59631 0
M  V30 4925 H 468.57 0.597429 -2.91235 0
M  V30 4926 H 466.103 0.193002 -1.53189 0
M  V30 4927 H 468.061 3.0849 -2.70822 0
M  V30 4928 H 466.722 2.69975 -1.60537 0
M  V30 4929 H 465.915 3.13502 -3.9463 0
M  V30 4930 H 465.517 1.4782 -3.43548 0
M  V30 4931 H 467.809 3.76557 -5.63215 0
M  V30 4932 H 468.752 2.58256 -6.59325 0
M  V30 4933 H 469.16 2.85047 -4.87246 0
M  V30 4934 N 468.558 1.5553 0.254621 0
M  V30 4935 C 469.804 1.77262 0.985193 0
M  V30 4936 C 470.137 0.582286 1.85265 0
M  V30 4937 O 469.412 -0.419666 1.89919 0
M  V30 4938 C 469.695 3.0881 1.85225 0
M  V30 4939 C 469.548 4.38233 1.0135 0
M  V30 4940 C 470.867 3.3653 2.83612 0
M  V30 4941 H 467.986 0.644906 0.356742 0
M  V30 4942 H 470.628 1.88264 0.256236 0
M  V30 4943 H 468.778 2.99562 2.47376 0
M  V30 4944 H 470.45 4.59463 0.411269 0
M  V30 4945 H 468.693 4.32636 0.317574 0
M  V30 4946 H 469.364 5.26644 1.65379 0
M  V30 4947 H 471.84 3.45691 2.31596 0
M  V30 4948 H 470.716 4.29805 3.41407 0
M  V30 4949 H 470.977 2.57064 3.59681 0
M  V30 4950 N 470.036 -0.519951 1.48776 0
M  V30 4951 C 471.284 -1.2727 1.56993 0
M  V30 4952 C 471.605 -1.9339 0.25004 0
M  V30 4953 O 470.875 -1.81822 -0.729216 0
M  V30 4954 H 469.455 -0.472732 0.578389 0
M  V30 4955 H 472.117 -0.604234 1.85297 0
M  V30 4956 H 471.213 -2.04669 2.3562 0
M  V30 4957 N 471.514 -1.37532 -0.769588 0
M  V30 4958 C 472.739 -1.36231 -1.56384 0
M  V30 4959 C 473.164 0.0495849 -1.88035 0
M  V30 4960 O 472.522 1.02723 -1.49391 0
M  V30 4961 C 472.57 -2.20986 -2.84952 0
M  V30 4962 O 471.674 -1.61597 -3.79421 0
M  V30 4963 H 471.015 -0.465387 -0.473615 0
M  V30 4964 H 473.545 -1.81085 -0.952342 0
M  V30 4965 H 473.555 -2.34277 -3.34034 0
M  V30 4966 H 472.23 -3.23612 -2.61243 0
M  V30 4967 H 470.807 -1.57359 -3.38072 0
M  V30 4968 N 472.992 0.995999 -1.22138 0
M  V30 4969 C 473.922 2.10387 -1.01289 0
M  V30 4970 C 474.903 1.69975 0.0651454 0
M  V30 4971 O 476.088 1.9396 -0.0964628 0
M  V30 4972 C 473.218 3.42312 -0.586517 0
M  V30 4973 C 472.172 3.96558 -1.61014 0
M  V30 4974 C 471.498 5.24494 -1.0397 0
M  V30 4975 C 472.798 4.27595 -2.99933 0
M  V30 4976 H 474.492 2.28086 -1.93951 0
M  V30 4977 H 472.038 1.09607 -0.933928 0
M  V30 4978 H 473.991 4.19223 -0.427793 0
M  V30 4979 H 472.715 3.24431 0.375761 0
M  V30 4980 H 471.374 3.21776 -1.75658 0
M  V30 4981 H 471.022 5.02953 -0.0688703 0
M  V30 4982 H 470.722 5.61755 -1.72352 0
M  V30 4983 H 472.246 6.04042 -0.892494 0
M  V30 4984 H 473.66 4.95315 -2.8868 0
M  V30 4985 H 472.057 4.76021 -3.6541 0
M  V30 4986 H 473.127 3.35498 -3.50099 0
M  V30 4987 N 474.47 1.03057 1.19235 0
M  V30 4988 C 475.4 0.633497 2.24742 0
M  V30 4989 C 476.381 -0.358335 1.66283 0
M  V30 4990 O 477.566 -0.240676 1.92703 0
M  V30 4991 C 474.696 -0.0147648 3.47297 0
M  V30 4992 C 473.65 0.899527 4.18441 0
M  V30 4993 C 472.976 0.116281 5.34574 0
M  V30 4994 C 474.276 2.21404 4.73051 0
M  V30 4995 H 475.97 1.5155 2.58211 0
M  V30 4996 H 473.516 0.73014 1.24117 0
M  V30 4997 H 475.469 -0.304202 4.20301 0
M  V30 4998 H 474.193 -0.931577 3.13032 0
M  V30 4999 H 472.852 1.17319 3.47321 0
M  V30 5000 H 472.5 -0.802619 4.96555 0
M  V30 5001 H 472.2 0.725293 5.83107 0
M  V30 5002 H 473.724 -0.166376 6.10373 0
M  V30 5003 H 475.138 1.98601 5.37802 0
M  V30 5004 H 473.535 2.77512 5.32078 0
M  V30 5005 H 474.605 2.86752 3.91026 0
M  V30 5006 N 475.948 -1.35272 0.808662 0
M  V30 5007 C 476.858 -2.33546 0.222079 0
M  V30 5008 C 477.874 -1.6196 -0.636011 0
M  V30 5009 O 479.05 -1.93822 -0.547274 0
M  V30 5010 C 476.115 -3.41148 -0.61795 0
M  V30 5011 C 475.176 -4.28507 0.260875 0
M  V30 5012 C 474.409 -5.3097 -0.539156 0
M  V30 5013 O 474.632 -5.42123 -1.77367 0
M  V30 5014 O 473.566 -6.01858 0.0710526 0
M  V30 5015 H 477.392 -2.85515 1.03512 0
M  V30 5016 H 474.977 -1.38079 0.570495 0
M  V30 5017 H 476.859 -4.06889 -1.09634 0
M  V30 5018 H 475.534 -2.91447 -1.40855 0
M  V30 5019 H 474.441 -3.6574 0.786451 0
M  V30 5020 H 475.774 -4.81611 1.01547 0
M  V30 5021 N 477.426 -0.562348 -1.47226 0
M  V30 5022 C 478.654 -0.0452275 -2.06851 0
M  V30 5023 C 479.069 1.25078 -1.41424 0
M  V30 5024 O 478.426 1.75156 -0.512513 0
M  V30 5025 C 478.477 0.148674 -3.61194 0
M  V30 5026 O 478.198 -1.09602 -4.24169 0
M  V30 5027 C 479.699 0.702488 -4.37699 0
M  V30 5028 H 476.919 -0.0481775 -0.669268 0
M  V30 5029 H 479.463 -0.777223 -1.89155 0
M  V30 5030 H 477.618 0.830817 -3.78386 0
M  V30 5031 H 478.032 -0.896982 -5.16773 0
M  V30 5032 H 479.506 0.78743 -5.46355 0
M  V30 5033 H 479.983 1.71493 -4.04335 0
M  V30 5034 H 480.589 0.0558772 -4.25263 0
M  V30 5035 N 478.904 1.54736 -0.299062 0
M  V30 5036 C 480.153 1.99279 0.311549 0
M  V30 5037 C 480.466 1.19107 1.55154 0
M  V30 5038 O 481.672 1.53908 2.23662 0
M  V30 5039 C 480.128 3.54768 0.605632 0
M  V30 5040 C 479.736 4.43746 -0.615914 0
M  V30 5041 C 481.48 4.07841 1.17754 0
M  V30 5042 C 479.387 5.90663 -0.29509 0
M  V30 5043 H 478.317 0.744359 0.120187 0
M  V30 5044 H 480.968 1.78919 -0.407464 0
M  V30 5045 H 479.35 3.71021 1.38419 0
M  V30 5046 H 480.524 4.39267 -1.39218 0
M  V30 5047 H 478.839 4.01434 -1.10633 0
M  V30 5048 H 481.436 5.15174 1.43179 0
M  V30 5049 H 481.779 3.58324 2.11918 0
M  V30 5050 H 482.312 3.95123 0.460739 0
M  V30 5051 H 479.051 6.44325 -1.20524 0
M  V30 5052 H 478.571 5.98155 0.44394 0
M  V30 5053 H 480.25 6.46916 0.104048 0
M  V30 5054 N 480.382 0.0267497 1.57577 0
M  V30 5055 C 481.629 -0.652404 1.91703 0
M  V30 5056 C 481.957 -1.72271 0.902936 0
M  V30 5057 O 481.212 -1.955 -0.0884843 0
M  V30 5058 C 481.511 -1.30914 3.3256 0
M  V30 5059 C 481.177 -0.369441 4.49384 0
M  V30 5060 C 479.839 -0.110791 4.81072 0
M  V30 5061 C 482.191 0.275971 5.20469 0
M  V30 5062 C 479.519 0.801116 5.81205 0
M  V30 5063 C 481.871 1.17592 6.21575 0
M  V30 5064 C 480.535 1.44348 6.51705 0
M  V30 5065 H 479.805 -0.238732 0.70149 0
M  V30 5066 H 482.452 0.0880091 1.91298 0
M  V30 5067 H 480.757 -2.12425 3.29216 0
M  V30 5068 H 482.454 -1.84115 3.56234 0
M  V30 5069 H 479.044 -0.581211 4.24641 0
M  V30 5070 H 483.228 0.0892 4.9622 0
M  V30 5071 H 478.484 1.01614 6.02897 0
M  V30 5072 H 482.658 1.68223 6.75777 0
M  V30 5073 H 480.285 2.15176 7.29111 0
M  V30 5074 N 481.861 -1.55662 -0.24637 0
M  V30 5075 C 483.11 -1.7672 -0.972254 0
M  V30 5076 C 483.423 -0.59078 -1.86465 0
M  V30 5077 O 484.629 -0.684391 -2.62732 0
M  V30 5078 C 483.085 -3.12869 -1.7788 0
M  V30 5079 C 482.693 -4.38161 -0.933768 0
M  V30 5080 C 484.437 -3.43265 -2.49738 0
M  V30 5081 C 482.344 -5.6534 -1.73623 0
M  V30 5082 H 481.274 -0.658795 -0.366749 0
M  V30 5083 H 483.925 -1.82092 -0.226902 0
M  V30 5084 H 482.307 -3.01606 -2.56612 0
M  V30 5085 H 483.481 -4.60413 -0.188736 0
M  V30 5086 H 481.796 -4.15102 -0.328488 0
M  V30 5087 H 484.393 -4.35501 -3.10231 0
M  V30 5088 H 484.736 -2.64614 -3.2138 0
M  V30 5089 H 485.269 -3.55746 -1.78016 0
M  V30 5090 H 482.008 -6.46814 -1.06354 0
M  V30 5091 H 481.528 -5.47188 -2.45653 0
M  V30 5092 H 483.207 -6.04616 -2.30323 0
M  V30 5093 N 483.339 0.512053 -1.4905 0
M  V30 5094 C 484.567 1.29116 -1.61669 0
M  V30 5095 C 484.982 1.86655 -0.283787 0
M  V30 5096 O 484.339 1.67293 0.729331 0
M  V30 5097 C 484.39 2.4293 -2.67707 0
M  V30 5098 O 484.111 1.87758 -3.95826 0
M  V30 5099 C 485.612 3.34476 -2.90931 0
M  V30 5100 H 482.832 0.392009 -0.544583 0
M  V30 5101 H 485.376 0.615881 -1.95006 0
M  V30 5102 H 483.531 3.06308 -2.37179 0
M  V30 5103 H 483.945 2.62393 -4.54148 0
M  V30 5104 H 485.419 4.10642 -3.68886 0
M  V30 5105 H 485.896 3.90801 -2.00427 0
M  V30 5106 H 486.502 2.76874 -3.22832 0
M  V30 5107 N 484.817 1.37938 0.762283 0
M  V30 5108 C 485.767 1.30976 1.86626 0
M  V30 5109 C 486.751 0.195714 1.59705 0
M  V30 5110 O 487.943 0.430937 1.71674 0
M  V30 5111 C 485.072 1.12847 3.24223 0
M  V30 5112 C 484.158 2.28836 3.57064 0
M  V30 5113 N 484.549 3.54256 3.61022 0
M  V30 5114 C 482.847 2.21198 3.87282 0
M  V30 5115 C 483.548 4.30798 3.90881 0
M  V30 5116 N 482.524 3.60049 4.07266 0
M  V30 5117 H 486.326 2.25946 1.87951 0
M  V30 5118 H 483.84 1.31046 0.959206 0
M  V30 5119 H 485.837 1.05943 4.03214 0
M  V30 5120 H 484.497 0.188024 3.24155 0
M  V30 5121 H 485.508 3.8804 3.42995 0
M  V30 5122 H 482.185 1.35264 3.94981 0
M  V30 5123 H 483.575 5.39386 4.00639 0
M  V30 5124 N 486.295 -0.989507 1.22664 0
M  V30 5125 C 487.225 -2.09847 1.02404 0
M  V30 5126 C 488.206 -1.70007 -0.0561303 0
M  V30 5127 O 489.391 -1.93906 0.106748 0
M  V30 5128 C 486.521 -3.41996 0.604663 0
M  V30 5129 C 485.475 -3.95699 1.63115 0
M  V30 5130 C 484.801 -5.23936 1.0675 0
M  V30 5131 C 486.101 -4.25999 3.02196 0
M  V30 5132 H 487.795 -2.27054 1.95158 0
M  V30 5133 H 485.341 -1.09111 0.939727 0
M  V30 5134 H 487.294 -4.1899 0.45002 0
M  V30 5135 H 486.018 -3.24626 -0.35855 0
M  V30 5136 H 484.677 -3.2084 1.77362 0
M  V30 5137 H 484.325 -5.02909 0.0955422 0
M  V30 5138 H 484.025 -5.60833 1.75328 0
M  V30 5139 H 485.549 -6.0356 0.924516 0
M  V30 5140 H 486.963 -4.93777 2.91303 0
M  V30 5141 H 485.36 -4.74076 3.67929 0
M  V30 5142 H 486.43 -3.33636 3.51873 0
M  V30 5143 N 487.773 -1.03688 -1.18687 0
M  V30 5144 C 488.703 -0.645407 -2.24403 0
M  V30 5145 C 489.684 0.349511 -1.66471 0
M  V30 5146 O 490.869 0.230453 -1.92828 0
M  V30 5147 C 487.999 -0.00365337 -3.473 0
M  V30 5148 C 486.953 -0.921705 -4.17958 0
M  V30 5149 C 486.279 -0.144629 -5.34504 0
M  V30 5150 C 487.579 -2.23909 -4.71871 0
M  V30 5151 H 489.273 -1.52917 -2.57404 0
M  V30 5152 H 486.819 -0.736711 -1.23728 0
M  V30 5153 H 488.772 0.281908 -4.20456 0
M  V30 5154 H 487.496 0.914963 -3.13522 0
M  V30 5155 H 486.155 -1.19159 -3.46694 0
M  V30 5156 H 485.803 0.776274 -4.96974 0
M  V30 5157 H 485.503 -0.756206 -5.82714 0
M  V30 5158 H 487.027 0.134004 -6.10453 0
M  V30 5159 H 488.441 -2.0145 -5.36741 0
M  V30 5160 H 486.838 -2.8033 -5.30599 0
M  V30 5161 H 487.908 -2.88822 -3.895 0
M  V30 5162 N 489.251 1.34841 -0.815825 0
M  V30 5163 C 490.201 2.27075 -0.205169 0
M  V30 5164 C 491.185 1.48205 0.626414 0
M  V30 5165 O 492.377 1.70306 0.482157 0
M  V30 5166 C 489.506 3.37322 0.637871 0
M  V30 5167 C 488.592 4.23609 -0.203948 0
M  V30 5168 N 488.983 4.89558 -1.27149 0
M  V30 5169 C 487.281 4.45998 0.0128971 0
M  V30 5170 C 487.982 5.53597 -1.7862 0
M  V30 5171 N 486.958 5.32535 -1.0912 0
M  V30 5172 H 490.76 2.75563 -1.02187 0
M  V30 5173 H 488.274 1.48477 -0.657912 0
M  V30 5174 H 490.271 4.02359 1.09146 0
M  V30 5175 H 488.931 2.90385 1.45281 0
M  V30 5176 H 489.942 4.9077 -1.65423 0
M  V30 5177 H 486.619 4.09837 0.79624 0
M  V30 5178 H 488.009 6.16184 -2.67892 0
M  V30 5179 N 490.729 0.570148 1.46925 0
M  V30 5180 C 491.975 0.0510284 2.02736 0
M  V30 5181 C 492.308 -1.3006 1.44215 0
M  V30 5182 O 491.583 -1.84932 0.602521 0
M  V30 5183 C 491.866 -0.028215 3.60089 0
M  V30 5184 C 491.719 1.35142 4.29018 0
M  V30 5185 C 493.038 -0.735181 4.33916 0
M  V30 5186 H 490.157 0.0200178 0.736728 0
M  V30 5187 H 492.799 0.73493 1.75211 0
M  V30 5188 H 490.949 -0.610648 3.83671 0
M  V30 5189 H 492.621 1.97806 4.16738 0
M  V30 5190 H 490.864 1.9226 3.88868 0
M  V30 5191 H 491.535 1.24857 5.37694 0
M  V30 5192 H 494.011 -0.240519 4.15404 0
M  V30 5193 H 492.887 -0.759622 5.43618 0
M  V30 5194 H 493.148 -1.79397 4.04066 0
M  V30 5195 N 492.207 -1.54576 0.307264 0
M  V30 5196 C 493.17 -2.22423 -0.553224 0
M  V30 5197 C 494.17 -1.21231 -1.05639 0
M  V30 5198 O 495.36 -1.45923 -0.951419 0
M  V30 5199 C 492.492 -2.91552 -1.76664 0
M  V30 5200 H 493.685 -2.99874 0.0396484 0
M  V30 5201 H 491.238 -1.56192 0.0581629 0
M  V30 5202 H 491.973 -2.18196 -2.39918 0
M  V30 5203 H 491.758 -3.65738 -1.41343 0
M  V30 5204 H 493.248 -3.43292 -2.37783 0
M  V30 5205 N 493.685 -0.035106 -1.57561 0
M  V30 5206 C 494.913 0.652258 -1.9635 0
M  V30 5207 C 495.328 1.65317 -0.911897 0
M  V30 5208 O 494.685 1.82194 0.105657 0
M  V30 5209 C 494.736 1.35337 -3.35211 0
M  V30 5210 O 494.457 0.392548 -4.36338 0
M  V30 5211 C 495.958 2.13199 -3.88666 0
M  V30 5212 H 493.178 0.179444 -0.646561 0
M  V30 5213 H 495.722 -0.0966459 -2.04271 0
M  V30 5214 H 493.877 2.05362 -3.28489 0
M  V30 5215 H 494.291 0.891097 -5.16875 0
M  V30 5216 H 495.765 2.577 -4.88154 0
M  V30 5217 H 496.242 2.97353 -3.23231 0
M  V30 5218 H 496.848 1.48118 -3.98674 0
M  V30 5219 N 495.163 1.55791 0.238111 0
M  V30 5220 C 496.391 1.82098 0.982233 0
M  V30 5221 C 496.806 0.612025 1.78605 0
M  V30 5222 O 496.163 -0.419381 1.77616 0
M  V30 5223 C 496.214 3.0673 1.91309 0
M  V30 5224 O 495.935 4.2296 1.14179 0
M  V30 5225 C 497.436 3.45903 2.77248 0
M  V30 5226 H 494.656 0.605748 0.288635 0
M  V30 5227 H 497.2 2.02862 0.258341 0
M  V30 5228 H 495.355 2.87991 2.59114 0
M  V30 5229 H 495.769 4.93653 1.7722 0
M  V30 5230 H 497.243 4.36189 3.38295 0
M  V30 5231 H 497.72 2.66891 3.48806 0
M  V30 5232 H 498.326 3.67024 2.14881 0
M  V30 5233 N 496.642 -0.504142 1.49319 0
M  V30 5234 C 497.574 -1.62265 1.61872 0
M  V30 5235 C 498.587 -1.54881 0.501573 0
M  V30 5236 O 499.776 -1.6087 0.773497 0
M  V30 5237 C 496.876 -3.01042 1.55651 0
M  V30 5238 C 496.049 -3.33642 2.82845 0
M  V30 5239 C 495.108 -4.51816 2.69719 0
M  V30 5240 O 494.134 -4.53755 3.4365 0
M  V30 5241 N 495.336 -5.51543 1.81055 0
M  V30 5242 H 498.101 -1.51924 2.58339 0
M  V30 5243 H 495.662 -0.691954 1.46368 0
M  V30 5244 H 497.654 -3.78013 1.44528 0
M  V30 5245 H 496.224 -3.05323 0.670546 0
M  V30 5246 H 495.444 -2.45598 3.08343 0
M  V30 5247 H 496.732 -3.5222 3.67177 0
M  V30 5248 H 496.13 -5.52774 1.20241 0
M  V30 5249 H 494.687 -6.27629 1.75856 0
M  V30 5250 N 498.12 -1.38341 -0.754957 0
M  V30 5251 C 499.531 -1.30803 -1.3322 0
M  V30 5252 C 499.882 0.0368 -1.96165 0
M  V30 5253 O 499.007 0.938844 -1.94974 0
M  V30 5254 C 499.602 -2.3688 -2.42225 0
M  V30 5255 C 498.161 -2.32925 -2.95674 0
M  V30 5256 C 497.308 -2.19819 -1.69042 0
M  V30 5257 H 500.259 -1.48719 -0.553937 0
M  V30 5258 H 500.28 -2.02517 -3.22129 0
M  V30 5259 H 499.792 -3.34747 -1.96383 0
M  V30 5260 H 497.893 -1.38635 -3.45848 0
M  V30 5261 H 498.006 -3.27008 -3.50146 0
M  V30 5262 H 496.37 -1.66648 -1.92615 0
M  V30 5263 H 497.153 -3.19625 -1.25279 0
M  V30 5264 N 499.598 0.982988 -1.23187 0
M  V30 5265 C 500.528 2.09301 -1.03515 0
M  V30 5266 C 501.509 1.70035 0.0471136 0
M  V30 5267 O 502.694 1.93847 -0.117029 0
M  V30 5268 C 499.824 3.4167 -0.622791 0
M  V30 5269 C 498.778 3.94828 -1.65211 0
M  V30 5270 C 498.104 5.23362 -1.09527 0
M  V30 5271 C 499.404 4.2439 -3.04451 0
M  V30 5272 H 501.098 2.26016 -1.96359 0
M  V30 5273 H 498.644 1.08611 -0.945501 0
M  V30 5274 H 500.597 4.18746 -0.472233 0
M  V30 5275 H 499.321 3.24811 0.341329 0
M  V30 5276 H 497.98 3.19895 -1.79061 0
M  V30 5277 H 497.628 5.02852 -0.122211 0
M  V30 5278 H 497.328 5.59895 -1.783 0
M  V30 5279 H 498.852 6.03062 -0.956511 0
M  V30 5280 H 500.266 4.92225 -2.93917 0
M  V30 5281 H 498.663 4.72118 -3.70438 0
M  V30 5282 H 499.733 3.31765 -3.53638 0
M  V30 5283 N 501.076 1.04316 1.18135 0
M  V30 5284 C 502.487 0.775505 1.69832 0
M  V30 5285 C 502.838 -0.703348 1.8316 0
M  V30 5286 O 501.963 -1.54729 1.51287 0
M  V30 5287 C 502.558 1.40112 3.0847 0
M  V30 5288 C 501.117 1.18172 3.57368 0
M  V30 5289 C 500.264 1.49022 2.33854 0
M  V30 5290 H 503.215 1.20925 1.02775 0
M  V30 5291 H 503.236 0.805672 3.71873 0
M  V30 5292 H 502.748 2.47744 2.98738 0
M  V30 5293 H 500.849 0.124258 3.72393 0
M  V30 5294 H 500.962 1.8805 4.40652 0
M  V30 5295 H 499.326 0.909995 2.37889 0
M  V30 5296 H 500.109 2.57768 2.26738 0
M  V30 5297 N 502.554 -1.34406 0.822964 0
M  V30 5298 C 503.484 -2.32052 0.259608 0
M  V30 5299 C 504.465 -1.58243 -0.623961 0
M  V30 5300 O 505.65 -1.86224 -0.55083 0
M  V30 5301 C 502.78 -3.42434 -0.579314 0
M  V30 5302 C 501.734 -4.27499 0.20712 0
M  V30 5303 C 501.06 -5.29349 -0.754547 0
M  V30 5304 C 502.36 -5.02758 1.41533 0
M  V30 5305 H 504.054 -2.79418 1.07545 0
M  V30 5306 H 501.6 -1.34338 0.518593 0
M  V30 5307 H 503.553 -4.0976 -0.983612 0
M  V30 5308 H 502.277 -2.93717 -1.4282 0
M  V30 5309 H 500.936 -3.61776 0.592787 0
M  V30 5310 H 500.584 -4.76895 -1.59939 0
M  V30 5311 H 500.284 -5.8714 -0.232561 0
M  V30 5312 H 501.808 -5.99544 -1.1567 0
M  V30 5313 H 503.222 -5.62938 1.08504 0
M  V30 5314 H 501.619 -5.70123 1.87296 0
M  V30 5315 H 502.689 -4.32451 2.1935 0
M  V30 5316 N 504.032 -0.577932 -1.46621 0
M  V30 5317 C 505.443 -0.150071 -1.86096 0
M  V30 5318 C 505.794 1.28563 -1.48209 0
M  V30 5319 O 504.919 1.97036 -0.894754 0
M  V30 5320 C 505.514 -0.265576 -3.37758 0
M  V30 5321 C 504.073 0.10738 -3.76247 0
M  V30 5322 C 503.22 -0.603711 -2.70649 0
M  V30 5323 H 506.171 -0.786438 -1.37844 0
M  V30 5324 H 506.192 0.510352 -3.77062 0
M  V30 5325 H 505.704 -1.3106 -3.65301 0
M  V30 5326 H 503.805 1.15272 -3.54321 0
M  V30 5327 H 503.918 -0.26561 -4.78363 0
M  V30 5328 H 502.282 -0.0444884 -2.54661 0
M  V30 5329 H 503.065 -1.65029 -3.01032 0
M  V30 5330 N 505.51 1.54411 -0.315457 0
M  V30 5331 C 506.926 1.59556 0.037464 0
M  V30 5332 C 507.126 1.33217 1.5118 0
M  V30 5333 O 506.182 1.11264 2.26664 0
M  V30 5334 C 507.495 2.98372 -0.373477 0
M  V30 5335 C 509.043 3.11324 -0.323452 0
M  V30 5336 C 509.518 4.52472 -0.709433 0
M  V30 5337 N 511.009 4.58437 -0.662524 0
M  V30 5338 C 511.744 5.65751 -0.933474 0
M  V30 5339 N 511.24 6.81039 -1.27114 0
M  V30 5340 N 513.033 5.55489 -0.859573 0
M  V30 5341 H 505.184 1.6979 -1.27614 0
M  V30 5342 H 507.447 0.793732 -0.518356 0
M  V30 5343 H 507.153 3.22618 -1.40037 0
M  V30 5344 H 507.027 3.76264 0.265615 0
M  V30 5345 H 509.414 2.86818 0.694223 0
M  V30 5346 H 509.495 2.35555 -0.997367 0
M  V30 5347 H 509.139 4.7771 -1.72498 0
M  V30 5348 H 509.069 5.26598 -0.0132923 0
M  V30 5349 H 511.56 3.75636 -0.413065 0
M  V30 5350 H 511.873 7.58816 -1.46348 0
M  V30 5351 H 510.218 6.82555 -1.30932 0
M  V30 5352 H 513.409 4.64299 -0.595324 0
M  V30 5353 H 513.582 6.39036 -1.0741 0
M  V30 5354 N 506.988 0.0434614 1.5754 0
M  V30 5355 C 508.234 -0.627109 1.93491 0
M  V30 5356 C 508.589 -1.68904 0.921362 0
M  V30 5357 O 507.882 -1.91504 -0.0605799 0
M  V30 5358 C 508.076 -1.2738 3.3393 0
M  V30 5359 C 507.905 -0.27603 4.48852 0
M  V30 5360 C 506.675 0.129244 5.05135 0
M  V30 5361 C 508.873 0.475462 5.12098 0
M  V30 5362 N 506.855 1.12068 6.03584 0
M  V30 5363 C 508.226 1.32021 6.05781 0
M  V30 5364 C 510.281 0.534611 4.95022 0
M  V30 5365 C 508.984 2.2188 6.84223 0
M  V30 5366 C 511.01 1.42059 5.74085 0
M  V30 5367 C 510.372 2.25309 6.67394 0
M  V30 5368 H 506.471 -0.201354 0.755633 0
M  V30 5369 H 509.055 0.113991 1.94366 0
M  V30 5370 H 507.226 -1.98496 3.33847 0
M  V30 5371 H 508.958 -1.90255 3.57191 0
M  V30 5372 H 505.713 -0.248145 4.72949 0
M  V30 5373 H 506.137 1.61306 6.57502 0
M  V30 5374 H 510.779 -0.0947817 4.22694 0
M  V30 5375 H 508.497 2.85868 7.55847 0
M  V30 5376 H 512.083 1.47083 5.62901 0
M  V30 5377 H 510.963 2.92754 7.27506 0
M  V30 5378 N 508.466 -1.55915 -0.229846 0
M  V30 5379 C 509.396 -1.94754 -1.28815 0
M  V30 5380 C 510.377 -0.814657 -1.49323 0
M  V30 5381 O 511.562 -1.07631 -1.61645 0
M  V30 5382 C 508.692 -2.25705 -2.63959 0
M  V30 5383 C 507.646 -3.41406 -2.5812 0
M  V30 5384 C 506.972 -3.57941 -3.97218 0
M  V30 5385 C 508.272 -4.76616 -2.13623 0
M  V30 5386 H 509.966 -2.83404 -0.965547 0
M  V30 5387 H 507.512 -1.36353 -0.463028 0
M  V30 5388 H 509.465 -2.51467 -3.38146 0
M  V30 5389 H 508.189 -1.339 -2.9789 0
M  V30 5390 H 506.848 -3.1568 -1.86391 0
M  V30 5391 H 506.496 -2.63526 -4.28443 0
M  V30 5392 H 506.196 -4.35757 -3.94195 0
M  V30 5393 H 507.72 -3.86042 -4.73079 0
M  V30 5394 H 509.134 -5.01637 -2.77549 0
M  V30 5395 H 507.531 -5.57655 -2.21677 0
M  V30 5396 H 508.601 -4.7253 -1.08829 0
M  V30 5397 N 509.944 0.496216 -1.49584 0
M  V30 5398 C 510.894 1.59422 -1.62999 0
M  V30 5399 C 511.878 1.53402 -0.485457 0
M  V30 5400 O 513.07 1.60851 -0.738649 0
M  V30 5401 C 510.199 2.98009 -1.70427 0
M  V30 5402 C 509.285 3.09008 -2.90473 0
M  V30 5403 N 509.676 2.89884 -4.14489 0
M  V30 5404 C 507.974 3.40115 -2.8851 0
M  V30 5405 C 508.675 3.0519 -4.95211 0
M  V30 5406 N 507.651 3.3428 -4.2867 0
M  V30 5407 H 511.453 1.43297 -2.56599 0
M  V30 5408 H 508.967 0.702443 -1.46422 0
M  V30 5409 H 510.964 3.76926 -1.78136 0
M  V30 5410 H 509.624 3.152 -0.77967 0
M  V30 5411 H 510.635 2.65963 -4.44392 0
M  V30 5412 H 507.312 3.63452 -2.05448 0
M  V30 5413 H 508.702 2.94856 -6.03746 0
M  V30 5414 N 511.423 1.38739 0.74761 0
M  V30 5415 C 512.648 1.38702 1.54197 0
M  V30 5416 C 513.073 -0.019664 1.8809 0
M  V30 5417 O 512.431 -1.00333 1.51006 0
M  V30 5418 C 512.479 2.25492 2.814 0
M  V30 5419 O 511.583 1.67613 3.76802 0
M  V30 5420 H 510.924 0.472863 0.466151 0
M  V30 5421 H 513.454 1.82577 0.923413 0
M  V30 5422 H 513.464 2.39561 3.30264 0
M  V30 5423 H 512.139 3.27727 2.56062 0
M  V30 5424 H 510.716 1.62718 3.35526 0
M  V30 5425 N 512.901 -0.976442 1.23707 0
M  V30 5426 C 513.831 -2.08749 1.04624 0
M  V30 5427 C 514.812 -1.70057 -0.0380956 0
M  V30 5428 O 515.997 -1.93782 0.127308 0
M  V30 5429 C 513.127 -3.41335 0.640902 0
M  V30 5430 C 512.081 -3.93947 1.67302 0
M  V30 5431 C 511.407 -5.22774 1.12301 0
M  V30 5432 C 512.707 -4.22769 3.06697 0
M  V30 5433 H 514.401 -2.24972 1.97555 0
M  V30 5434 H 511.947 -1.08108 0.951247 0
M  V30 5435 H 513.9 -4.18489 0.494434 0
M  V30 5436 H 512.624 -3.24988 -0.324099 0
M  V30 5437 H 511.283 -3.18941 1.80755 0
M  V30 5438 H 510.931 -5.0278 0.148877 0
M  V30 5439 H 510.631 -5.58942 1.81267 0
M  V30 5440 H 512.155 -6.02546 0.988479 0
M  V30 5441 H 513.569 -4.90659 2.96524 0
M  V30 5442 H 511.966 -4.70147 3.72937 0
M  V30 5443 H 513.036 -3.29885 3.55392 0
M  V30 5444 N 514.379 -1.04941 -1.1758 0
M  V30 5445 C 515.309 -0.669172 -2.23706 0
M  V30 5446 C 516.29 0.331835 -1.66832 0
M  V30 5447 O 517.475 0.209988 -1.93061 0
M  V30 5448 C 514.605 -0.0404889 -3.47276 0
M  V30 5449 C 513.559 -0.965983 -4.16957 0
M  V30 5450 C 512.885 -0.201312 -5.34321 0
M  V30 5451 C 514.185 -2.28902 -4.69469 0
M  V30 5452 H 515.879 -1.55639 -2.55767 0
M  V30 5453 H 513.425 -0.749793 -1.22939 0
M  V30 5454 H 515.378 0.237298 -4.20731 0
M  V30 5455 H 514.102 0.881658 -3.14475 0
M  V30 5456 H 512.761 -1.22829 -3.45411 0
M  V30 5457 H 512.409 0.723519 -4.97769 0
M  V30 5458 H 512.109 -0.817968 -5.81879 0
M  V30 5459 H 513.633 0.0692499 -6.10561 0
M  V30 5460 H 515.047 -2.07132 -5.34574 0
M  V30 5461 H 513.444 -2.85942 -5.27596 0
M  V30 5462 H 514.514 -2.92937 -3.86414 0
M  V30 5463 N 515.857 1.33968 -0.830081 0
M  V30 5464 C 516.787 2.31911 -0.271911 0
M  V30 5465 C 517.768 1.58571 0.61556 0
M  V30 5466 O 518.953 1.86514 0.540946 0
M  V30 5467 C 516.083 3.42737 0.561146 0
M  V30 5468 C 515.037 4.27383 -0.229789 0
M  V30 5469 C 514.363 5.29742 0.726463 0
M  V30 5470 C 515.663 5.02 -1.44197 0
M  V30 5471 H 517.357 2.78844 -1.09025 0
M  V30 5472 H 514.903 1.34061 -0.52571 0
M  V30 5473 H 516.856 4.10276 0.961867 0
M  V30 5474 H 515.58 2.94471 1.41261 0
M  V30 5475 H 514.239 3.61456 -0.611964 0
M  V30 5476 H 513.887 4.77736 1.57408 0
M  V30 5477 H 513.587 5.87255 0.20142 0
M  V30 5478 H 515.111 6.00149 1.12489 0
M  V30 5479 H 516.525 5.62355 -1.11488 0
M  V30 5480 H 514.922 5.69122 -1.90317 0
M  V30 5481 H 515.992 4.31281 -2.2164 0
M  V30 5482 N 517.335 0.585699 1.46312 0
M  V30 5483 C 518.285 -0.166813 2.27389 0
M  V30 5484 C 519.269 -0.859076 1.36047 0
M  V30 5485 O 520.461 -0.752678 1.60199 0
M  V30 5486 C 517.59 -1.17791 3.2246 0
M  V30 5487 C 516.676 -0.487605 4.21288 0
M  V30 5488 N 517.067 0.45849 5.03718 0
M  V30 5489 C 515.365 -0.737971 4.39852 0
M  V30 5490 C 516.066 0.862213 5.75275 0
M  V30 5491 N 515.042 0.210707 5.43191 0
M  V30 5492 H 518.844 0.560167 2.88512 0
M  V30 5493 H 516.358 0.407715 1.57199 0
M  V30 5494 H 518.355 -1.73122 3.79255 0
M  V30 5495 H 517.015 -1.90568 2.62896 0
M  V30 5496 H 518.026 0.834163 5.11138 0
M  V30 5497 H 514.703 -1.45209 3.91434 0
M  V30 5498 H 516.093 1.64128 6.51546 0
M  V30 5499 N 518.813 -1.54241 0.323641 0
M  V30 5500 C 520.053 -2.0248 -0.279502 0
M  V30 5501 C 520.417 -1.20672 -1.49339 0
M  V30 5502 O 521.618 -1.58715 -2.1694 0
M  V30 5503 C 519.889 -3.52238 -0.605266 0
M  V30 5504 S 521.448 -4.22411 -1.18805 0
M  V30 5505 H 518.266 -0.705957 -0.0845313 0
M  V30 5506 H 520.868 -1.90089 0.456781 0
M  V30 5507 H 519.572 -4.094 0.286339 0
M  V30 5508 H 519.103 -3.6871 -1.37174 0
M  V30 5509 H 521.118 -4.30075 -2.47487 0
M  V30 5510 N 520.291 -0.0518155 -1.57515 0
M  V30 5511 C 521.519 0.631395 -1.9703 0
M  V30 5512 C 521.934 1.64341 -0.92938 0
M  V30 5513 O 521.291 1.82296 0.0863266 0
M  V30 5514 C 521.342 1.31774 -3.36627 0
M  V30 5515 O 521.063 0.346247 -4.3673 0
M  V30 5516 C 522.564 2.09065 -3.90905 0
M  V30 5517 H 519.784 0.172576 -0.648428 0
M  V30 5518 H 522.328 -0.118306 -2.04158 0
M  V30 5519 H 520.483 2.01867 -3.30649 0
M  V30 5520 H 520.897 0.836226 -5.17791 0
M  V30 5521 H 522.371 2.52508 -4.9086 0
M  V30 5522 H 522.848 2.93908 -3.26366 0
M  V30 5523 H 523.454 1.43882 -4.00223 0
M  V30 5524 N 521.769 1.56035 0.221574 0
M  V30 5525 C 523.017 1.78693 0.944102 0
M  V30 5526 C 523.338 0.620317 1.8487 0
M  V30 5527 O 522.608 -0.362784 1.92512 0
M  V30 5528 H 521.188 0.659082 0.351597 0
M  V30 5529 H 523.85 1.93497 0.233435 0
M  V30 5530 H 522.946 2.70837 1.55093 0
M  V30 5531 N 523.247 -0.488276 1.49845 0
M  V30 5532 C 524.179 -1.60539 1.63584 0
M  V30 5533 C 525.192 -1.5434 0.517972 0
M  V30 5534 O 526.381 -1.60041 0.790516 0
M  V30 5535 C 523.481 -2.99374 1.58835 0
M  V30 5536 C 522.654 -3.30624 2.86368 0
M  V30 5537 C 521.713 -4.4893 2.74496 0
M  V30 5538 O 520.739 -4.50085 3.48443 0
M  V30 5539 N 521.941 -5.49591 1.86894 0
M  V30 5540 H 524.706 -1.49176 2.59936 0
M  V30 5541 H 522.267 -0.67639 1.47094 0
M  V30 5542 H 524.259 -3.76459 1.48529 0
M  V30 5543 H 522.829 -3.04595 0.702892 0
M  V30 5544 H 522.049 -2.42314 3.1093 0
M  V30 5545 H 523.337 -3.48305 3.70892 0
M  V30 5546 H 522.735 -5.51467 1.26097 0
M  V30 5547 H 521.292 -6.25728 1.82503 0
M  V30 5548 N 524.725 -1.39134 -0.740242 0
M  V30 5549 C 525.973 -1.35803 -1.49673 0
M  V30 5550 C 526.294 0.0470897 -1.94943 0
M  V30 5551 O 525.564 0.997347 -1.68611 0
M  V30 5552 H 524.144 -0.499736 -0.555224 0
M  V30 5553 H 526.806 -1.73947 -0.879107 0
M  V30 5554 H 525.902 -2.0174 -2.38133 0
M  V30 5555 N 526.204 0.969867 -1.24223 0
M  V30 5556 C 527.62 1.23809 -1.00716 0
M  V30 5557 C 527.82 1.99469 0.285358 0
M  V30 5558 O 526.876 2.31764 1.00207 0
M  V30 5559 C 528.189 2.02734 -2.2208 0
M  V30 5560 C 529.737 2.15834 -2.26681 0
M  V30 5561 C 530.212 2.98154 -3.47661 0
M  V30 5562 N 531.703 3.05737 -3.47964 0
M  V30 5563 C 532.438 3.69785 -4.38231 0
M  V30 5564 N 531.934 4.35569 -5.3875 0
M  V30 5565 N 533.727 3.66775 -4.25949 0
M  V30 5566 H 525.878 0.463294 -2.07286 0
M  V30 5567 H 528.141 0.267348 -0.909521 0
M  V30 5568 H 527.847 1.54524 -3.15935 0
M  V30 5569 H 527.721 3.0347 -2.24021 0
M  V30 5570 H 530.108 2.63248 -1.33359 0
M  V30 5571 H 530.189 1.14453 -2.28767 0
M  V30 5572 H 529.833 2.51435 -4.41297 0
M  V30 5573 H 529.763 3.99729 -3.42818 0
M  V30 5574 H 532.254 2.58941 -2.75242 0
M  V30 5575 H 532.567 4.82251 -6.03866 0
M  V30 5576 H 530.912 4.34244 -5.42639 0
M  V30 5577 H 534.103 3.14558 -3.46657 0
M  V30 5578 H 534.276 4.16407 -4.96497 0
M  V30 5579 N 527.682 1.05563 1.17022 0
M  V30 5580 C 528.922 0.777033 1.89054 0
M  V30 5581 C 529.286 -0.683617 1.79418 0
M  V30 5582 O 530.487 -1.07648 2.46303 0
M  V30 5583 C 528.758 1.24886 3.34871 0
M  V30 5584 S 530.317 1.0982 4.24835 0
M  V30 5585 H 527.135 0.282082 0.652649 0
M  V30 5586 H 529.737 1.35103 1.41306 0
M  V30 5587 H 528.441 2.30699 3.3942 0
M  V30 5588 H 527.972 0.669292 3.87665 0
M  V30 5589 H 529.987 0.02462 4.96194 0
M  V30 5590 N 529.16 -1.33526 0.837174 0
M  V30 5591 C 530.4 -1.99649 0.438115 0
M  V30 5592 C 530.764 -1.64879 -0.983816 0
M  V30 5593 O 531.965 -2.23956 -1.48651 0
M  V30 5594 C 530.236 -3.51431 0.650461 0
M  V30 5595 S 531.795 -4.37431 0.346371 0
M  V30 5596 H 528.613 -0.69162 0.164872 0
M  V30 5597 H 531.215 -1.62556 1.08609 0
M  V30 5598 H 529.919 -3.74225 1.68475 0
M  V30 5599 H 529.45 -3.93398 -0.0117309 0
M  V30 5600 H 531.465 -4.89132 -0.834504 0
M  V30 5601 N 530.638 -0.59345 -1.46 0
M  V30 5602 C 532.049 -0.169801 -1.85926 0
M  V30 5603 C 532.4 1.26984 -1.49565 0
M  V30 5604 O 531.525 1.96076 -0.915602 0
M  V30 5605 C 532.12 -0.301385 -3.37457 0
M  V30 5606 C 530.679 0.0674684 -3.7634 0
M  V30 5607 C 529.826 -0.632383 -2.69993 0
M  V30 5608 H 532.777 -0.801014 -1.37002 0
M  V30 5609 H 532.798 0.470331 -3.77582 0
M  V30 5610 H 532.31 -1.34927 -3.63891 0
M  V30 5611 H 530.411 1.11507 -3.55523 0
M  V30 5612 H 530.524 -0.316332 -4.78055 0
M  V30 5613 H 528.888 -0.0714961 -2.546 0
M  V30 5614 H 529.671 -1.68212 -2.99265 0
M  V30 5615 N 532.116 1.54067 -0.331816 0
M  V30 5616 C 533.344 2.05131 0.269996 0
M  V30 5617 C 533.759 1.20749 1.45138 0
M  V30 5618 O 533.116 0.240069 1.80914 0
M  V30 5619 C 533.167 3.54728 0.696456 0
M  V30 5620 O 532.888 4.35906 -0.43794 0
M  V30 5621 C 534.389 4.21916 1.36021 0
M  V30 5622 H 531.609 0.668807 0.0542042 0
M  V30 5623 H 534.153 1.98777 -0.4804 0
M  V30 5624 H 532.308 3.61342 1.39681 0
M  V30 5625 H 532.722 5.24404 -0.100334 0
M  V30 5626 H 534.196 5.28015 1.60947 0
M  V30 5627 H 534.673 3.73538 2.31011 0
M  V30 5628 H 535.279 4.19463 0.702212 0
M  V30 5629 N 533.594 0.0601682 1.57485 0
M  V30 5630 C 534.557 -0.896373 2.10945 0
M  V30 5631 C 535.557 -1.23402 1.03095 0
M  V30 5632 O 536.747 -1.16921 1.29132 0
M  V30 5633 C 533.879 -2.20346 2.60116 0
M  V30 5634 H 535.072 -0.432778 2.96761 0
M  V30 5635 H 532.625 -0.188372 1.55161 0
M  V30 5636 H 533.36 -2.71268 1.7772 0
M  V30 5637 H 533.145 -1.9714 3.38937 0
M  V30 5638 H 534.635 -2.88846 3.01592 0
M  V30 5639 N 535.072 -1.5615 -0.213296 0
M  V30 5640 C 536.483 -1.69645 -0.779582 0
M  V30 5641 C 536.834 -0.663615 -1.84636 0
M  V30 5642 O 535.959 0.183633 -2.15619 0
M  V30 5643 C 536.554 -3.07567 -1.42084 0
M  V30 5644 C 535.113 -3.22889 -1.93442 0
M  V30 5645 C 534.26 -2.65581 -0.797612 0
M  V30 5646 H 537.211 -1.58696 0.0114951 0
M  V30 5647 H 537.232 -3.03884 -2.28986 0
M  V30 5648 H 536.744 -3.82716 -0.644187 0
M  V30 5649 H 534.845 -2.52623 -2.73884 0
M  V30 5650 H 534.958 -4.30197 -2.10872 0
M  V30 5651 H 533.322 -2.24278 -1.20712 0
M  V30 5652 H 534.105 -3.43284 -0.033494 0
M  V30 5653 N 536.55 0.480323 -1.50102 0
M  V30 5654 C 537.482 1.59669 -1.64433 0
M  V30 5655 C 538.495 1.54063 -0.52615 0
M  V30 5656 O 539.684 1.59619 -0.798992 0
M  V30 5657 C 536.784 2.98527 -1.6042 0
M  V30 5658 C 535.957 3.291 -2.88117 0
M  V30 5659 C 535.016 4.47468 -2.76873 0
M  V30 5660 O 534.042 4.4823 -3.50825 0
M  V30 5661 N 535.244 5.48593 -1.89806 0
M  V30 5662 H 538.009 1.47795 -2.60723 0
M  V30 5663 H 535.57 0.66858 -1.4745 0
M  V30 5664 H 537.562 3.75666 -1.50523 0
M  V30 5665 H 536.132 3.04218 -0.719036 0
M  V30 5666 H 535.352 2.40662 -3.12211 0
M  V30 5667 H 536.64 3.46334 -3.72734 0
M  V30 5668 H 536.038 5.50791 -1.2902 0
M  V30 5669 H 534.595 6.24752 -1.85819 0
M  V30 5670 N 538.028 1.39524 0.732853 0
M  V30 5671 C 538.975 1.38416 1.84688 0
M  V30 5672 C 539.945 0.243539 1.64305 0
M  V30 5673 O 541.13 0.438979 1.85681 0
M  V30 5674 C 538.27 1.23555 3.22224 0
M  V30 5675 C 537.383 2.47179 3.54298 0
M  V30 5676 C 536.518 2.2489 4.81246 0
M  V30 5677 C 535.557 3.44178 5.0617 0
M  V30 5678 N 534.694 3.21192 6.24323 0
M  V30 5679 H 539.534 2.33645 1.84971 0
M  V30 5680 H 537.071 1.16059 0.903804 0
M  V30 5681 H 539.029 1.12949 4.0162 0
M  V30 5682 H 537.659 0.31954 3.21215 0
M  V30 5683 H 536.711 2.68379 2.69587 0
M  V30 5684 H 538.023 3.36022 3.68633 0
M  V30 5685 H 537.177 2.11538 5.68627 0
M  V30 5686 H 535.916 1.33443 4.69089 0
M  V30 5687 H 534.921 3.58025 4.17251 0
M  V30 5688 H 536.146 4.36528 5.20212 0
M  V30 5689 H 534.092 2.32413 6.1345 0
M  V30 5690 H 534.009 4.03594 6.39256 0
M  V30 5691 H 535.277 3.1154 7.14537 0
M  V30 5692 N 539.506 -0.963266 1.24736 0
M  V30 5693 C 540.754 -1.70343 1.08755 0
M  V30 5694 C 541.075 -1.91387 -0.373619 0
M  V30 5695 O 540.345 -1.4948 -1.2662 0
M  V30 5696 H 538.925 -0.631224 0.399456 0
M  V30 5697 H 541.587 -1.15859 1.56725 0
M  V30 5698 H 540.683 -2.68616 1.58909 0
M  V30 5699 N 540.985 -1.06182 -1.16461 0
M  V30 5700 C 541.933 -0.665716 -2.2287 0
M  V30 5701 C 542.927 0.317822 -1.66392 0
M  V30 5702 O 544.133 0.182807 -1.79069 0
M  V30 5703 H 540.508 -0.197148 -0.725697 0
M  V30 5704 H 542.479 -1.57307 -2.53569 0
M  V30 5705 C 541.228 -0.0669803 -3.47635 0
M  V30 5706 H 540.551 -0.814899 -3.91407 0
M  V30 5707 H 541.991 0.172669 -4.23648 0
M  V30 5708 C 540.45 1.18913 -3.15216 0
M  V30 5709 O 540.98 2.27723 -3.30916 0
M  V30 5710 N 539.186 1.09066 -2.69357 0
M  V30 5711 H 538.733 0.20518 -2.56782 0
M  V30 5712 H 538.691 1.93195 -2.48039 0
M  V30 5713 N 542.463 1.3308 -0.844243 0
M  V30 5714 C 543.41 2.29104 -0.279323 0
M  V30 5715 C 544.38 1.54577 0.607882 0
M  V30 5716 O 545.565 1.8285 0.545009 0
M  V30 5717 C 542.705 3.40927 0.53508 0
M  V30 5718 C 541.818 4.30354 -0.376749 0
M  V30 5719 C 540.953 5.29297 0.449276 0
M  V30 5720 C 539.992 6.10365 -0.460606 0
M  V30 5721 N 539.129 7.01335 0.327612 0
M  V30 5722 H 543.969 2.76817 -1.10346 0
M  V30 5723 H 541.506 1.36203 -0.555611 0
M  V30 5724 H 543.464 4.04469 1.02278 0
M  V30 5725 H 542.094 2.94391 1.32414 0
M  V30 5726 H 541.146 3.67485 -0.982791 0
M  V30 5727 H 542.458 4.87067 -1.07549 0
M  V30 5728 H 541.612 5.98392 1.00058 0
M  V30 5729 H 540.351 4.73174 1.18143 0
M  V30 5730 H 539.356 5.40182 -1.02388 0
M  V30 5731 H 540.581 6.68571 -1.1912 0
M  V30 5732 H 538.527 6.47655 1.04305 0
M  V30 5733 H 538.444 7.55355 -0.3123 0
M  V30 5734 H 539.712 7.74731 0.86098 0
M  V30 5735 N 543.941 0.601185 1.45683 0
M  V30 5736 C 545.189 0.0936957 2.01883 0
M  V30 5737 C 545.51 -1.2779 1.47291 0
M  V30 5738 O 544.78 -1.84279 0.664691 0
M  V30 5739 H 543.36 0.0316466 0.746329 0
M  V30 5740 H 546.022 0.781137 1.78562 0
M  V30 5741 H 545.118 0.0386297 3.12076 0
M  V30 5742 N 545.419 -1.53889 0.339982 0
M  V30 5743 C 546.83 -1.86139 -0.144671 0
M  V30 5744 C 547.181 -1.2613 -1.50285 0
M  V30 5745 O 546.306 -0.573515 -2.08662 0
M  V30 5746 C 546.901 -3.37728 -0.269285 0
M  V30 5747 C 545.46 -3.69868 -0.698168 0
M  V30 5748 C 544.607 -2.76777 0.170249 0
M  V30 5749 H 547.558 -1.48503 0.559704 0
M  V30 5750 H 547.579 -3.64331 -1.0974 0
M  V30 5751 H 547.091 -3.81375 0.719366 0
M  V30 5752 H 545.192 -3.31764 -1.69597 0
M  V30 5753 H 545.305 -4.76582 -0.490533 0
M  V30 5754 H 543.669 -2.52188 -0.356844 0
M  V30 5755 H 544.452 -3.23253 1.15597 0
M  V30 5756 N 546.897 -0.0685191 -1.57451 0
M  V30 5757 C 548.145 0.60016 -1.92983 0
M  V30 5758 C 548.466 1.70348 -0.949028 0
M  V30 5759 O 547.736 1.959 0.00335647 0
M  V30 5760 H 546.316 0.224682 -0.712409 0
M  V30 5761 H 548.978 -0.125605 -1.94495 0
M  V30 5762 H 548.074 1.02759 -2.94698 0
M  V30 5763 N 548.375 1.56261 0.205012 0
M  V30 5764 C 549.305 1.96779 1.257 0
M  V30 5765 C 550.286 0.838309 1.48008 0
M  V30 5766 O 551.471 1.10189 1.59913 0
M  V30 5767 C 548.601 2.29876 2.60335 0
M  V30 5768 C 547.555 3.45469 2.52656 0
M  V30 5769 C 546.881 3.64215 3.91473 0
M  V30 5770 C 548.181 4.79954 2.06014 0
M  V30 5771 H 549.875 2.84904 0.920338 0
M  V30 5772 H 547.421 1.37072 0.441277 0
M  V30 5773 H 549.374 2.56814 3.34102 0
M  V30 5774 H 548.098 1.38622 2.95722 0
M  V30 5775 H 546.757 3.18605 1.81345 0
M  V30 5776 H 546.405 2.70309 4.24196 0
M  V30 5777 H 546.105 4.41973 3.87213 0
M  V30 5778 H 547.629 3.93519 4.66878 0
M  V30 5779 H 549.043 5.05989 2.69533 0
M  V30 5780 H 547.44 5.61111 2.12777 0
M  V30 5781 H 548.51 4.74201 1.01297 0
M  V30 5782 N 549.853 -0.472356 1.50355 0
M  V30 5783 C 551.081 -1.24784 1.65035 0
M  V30 5784 C 551.496 -1.85837 0.333176 0
M  V30 5785 O 550.853 -1.69168 -0.68472 0
M  V30 5786 C 550.904 -2.35747 2.74054 0
M  V30 5787 O 550.625 -1.77197 4.00665 0
M  V30 5788 C 552.126 -3.26645 2.99696 0
M  V30 5789 H 549.346 -0.377432 0.554785 0
M  V30 5790 H 551.89 -0.563962 1.9657 0
M  V30 5791 H 550.045 -2.99912 2.45217 0
M  V30 5792 H 550.459 -2.5026 4.60945 0
M  V30 5793 H 551.933 -4.00718 3.79644 0
M  V30 5794 H 552.41 -3.8535 2.10718 0
M  V30 5795 H 553.016 -2.68218 3.3006 0
M  V30 5796 N 551.331 -1.39911 -0.725443 0
M  V30 5797 C 552.742 -1.33599 -1.30415 0
M  V30 5798 C 553.093 -0.00481792 -1.96199 0
M  V30 5799 O 552.218 0.897275 -1.96921 0
M  V30 5800 C 552.813 -2.41965 -2.37146 0
M  V30 5801 C 551.372 -2.39144 -2.90667 0
M  V30 5802 C 550.519 -2.23355 -1.64341 0
M  V30 5803 H 553.47 -1.4986 -0.522267 0
M  V30 5804 H 553.491 -2.09304 -3.17761 0
M  V30 5805 H 553.003 -3.38837 -1.89238 0
M  V30 5806 H 551.104 -1.4594 -3.4283 0
M  V30 5807 H 551.217 -3.34362 -3.43131 0
M  V30 5808 H 549.581 -1.70696 -1.89037 0
M  V30 5809 H 550.364 -3.2221 -1.18471 0
M  V30 5810 N 552.809 0.956637 -1.25245 0
M  V30 5811 C 554.037 1.73571 -1.12608 0
M  V30 5812 C 554.452 1.86063 0.320324 0
M  V30 5813 O 553.809 1.35691 1.22042 0
M  V30 5814 C 553.86 3.15053 -1.77268 0
M  V30 5815 O 553.581 3.03174 -3.16255 0
M  V30 5816 C 555.082 4.09248 -1.70386 0
M  V30 5817 H 552.302 0.543955 -0.392879 0
M  V30 5818 H 554.846 1.20031 -1.65568 0
M  V30 5819 H 553.001 3.65543 -1.28284 0
M  V30 5820 H 553.415 3.9241 -3.48015 0
M  V30 5821 H 554.889 5.06138 -2.20291 0
M  V30 5822 H 555.366 4.34102 -0.667239 0
M  V30 5823 H 555.972 3.64672 -2.18849 0
M  V30 5824 N 554.287 1.06798 1.15896 0
M  V30 5825 C 555.237 0.653213 2.18443 0
M  V30 5826 C 556.221 -0.318763 1.57711 0
M  V30 5827 O 557.413 -0.133388 1.76497 0
M  V30 5828 C 554.542 0.0465785 3.43268 0
M  V30 5829 C 553.628 1.04336 4.11066 0
M  V30 5830 N 554.019 2.22084 4.54436 0
M  V30 5831 C 552.317 0.875433 4.37324 0
M  V30 5832 C 553.018 2.85276 5.06944 0
M  V30 5833 N 551.994 2.12973 5.00143 0
M  V30 5834 H 555.796 1.55011 2.49698 0
M  V30 5835 H 553.31 0.940384 1.32403 0
M  V30 5836 H 555.307 -0.26843 4.16035 0
M  V30 5837 H 553.967 -0.845504 3.13499 0
M  V30 5838 H 554.978 2.59833 4.48004 0
M  V30 5839 H 551.655 0.0357721 4.17485 0
M  V30 5840 H 553.045 3.85223 5.50503 0
M  V30 5841 N 555.766 -1.3263 0.851289 0
M  V30 5842 C 556.696 -2.31449 0.308771 0
M  V30 5843 C 557.677 -1.59531 -0.590255 0
M  V30 5844 O 558.862 -1.87351 -0.511205 0
M  V30 5845 C 555.992 -3.43586 -0.506548 0
M  V30 5846 C 554.946 -4.26963 0.297753 0
M  V30 5847 C 554.272 -5.30831 -0.642094 0
M  V30 5848 C 555.572 -4.99643 1.52166 0
M  V30 5849 H 557.266 -2.77074 1.13447 0
M  V30 5850 H 554.812 -1.33207 0.546971 0
M  V30 5851 H 556.765 -4.11754 -0.896474 0
M  V30 5852 H 555.489 -2.96681 -1.36558 0
M  V30 5853 H 554.148 -3.60437 0.669391 0
M  V30 5854 H 553.796 -4.8018 -1.49788 0
M  V30 5855 H 553.496 -5.87501 -0.107968 0
M  V30 5856 H 555.02 -6.01862 -1.02927 0
M  V30 5857 H 556.434 -5.6051 1.20421 0
M  V30 5858 H 554.831 -5.66022 1.99347 0
M  V30 5859 H 555.901 -4.27701 2.28474 0
M  V30 5860 N 557.244 -0.608902 -1.45362 0
M  V30 5861 C 558.655 -0.189511 -1.85736 0
M  V30 5862 C 559.006 1.2539 -1.50903 0
M  V30 5863 O 558.131 1.95094 -0.936347 0
M  V30 5864 C 558.726 -0.33716 -3.37118 0
M  V30 5865 C 557.285 0.0275487 -3.7639 0
M  V30 5866 C 556.432 -0.660983 -2.69307 0
M  V30 5867 H 559.383 -0.815499 -1.36144 0
M  V30 5868 H 559.404 0.430257 -3.7806 0
M  V30 5869 H 558.916 -1.38779 -3.62439 0
M  V30 5870 H 557.017 1.0773 -3.56686 0
M  V30 5871 H 557.13 -0.367018 -4.77692 0
M  V30 5872 H 555.494 -0.0984958 -2.54509 0
M  V30 5873 H 556.277 -1.71377 -2.97464 0
M  V30 5874 N 558.722 1.53707 -0.348139 0
M  V30 5875 C 559.97 2.00591 0.246478 0
M  V30 5876 C 560.291 1.23753 1.50699 0
M  V30 5877 O 559.561 0.345964 1.92821 0
M  V30 5878 H 558.141 0.741053 0.0940679 0
M  V30 5879 H 560.803 1.89139 -0.470354 0
M  V30 5880 H 559.899 3.08297 0.485714 0
M  V30 5881 N 560.2 0.0768682 1.57412 0
M  V30 5882 C 561.446 -0.591961 1.93968 0
M  V30 5883 C 561.779 -1.68954 0.9575 0
M  V30 5884 O 561.054 -1.94496 -0.0124675 0
M  V30 5885 C 561.337 -1.16418 3.40762 0
M  V30 5886 C 561.19 -0.0728933 4.49741 0
M  V30 5887 C 562.509 -2.06814 3.88479 0
M  V30 5888 H 559.628 -0.213716 0.705333 0
M  V30 5889 H 562.27 0.14387 1.89455 0
M  V30 5890 H 560.42 -1.79128 3.4474 0
M  V30 5891 H 562.092 0.560446 4.57883 0
M  V30 5892 H 560.335 0.595859 4.29688 0
M  V30 5893 H 561.006 -0.513755 5.49604 0
M  V30 5894 H 563.482 -1.54033 3.8654 0
M  V30 5895 H 562.358 -2.43785 4.91793 0
M  V30 5896 H 562.619 -2.97844 3.26713 0
M  V30 5897 N 561.678 -1.56367 -0.196722 0
M  V30 5898 C 562.625 -1.94417 -1.24382 0
M  V30 5899 C 563.595 -0.804543 -1.45315 0
M  V30 5900 O 564.78 -1.06256 -1.58475 0
M  V30 5901 C 561.92 -2.28757 -2.58388 0
M  V30 5902 C 561.033 -3.55775 -2.45047 0
M  V30 5903 C 560.168 -3.79445 -3.71746 0
M  V30 5904 C 559.207 -4.99894 -3.53231 0
M  V30 5905 N 558.344 -5.19826 -4.71938 0
M  V30 5906 H 563.184 -2.83691 -0.912338 0
M  V30 5907 H 560.721 -1.40392 -0.439135 0
M  V30 5908 H 562.679 -2.46682 -3.36457 0
M  V30 5909 H 561.309 -1.42625 -2.89582 0
M  V30 5910 H 560.361 -3.45905 -1.58284 0
M  V30 5911 H 561.673 -4.44 -2.27299 0
M  V30 5912 H 560.827 -3.97601 -4.58256 0
M  V30 5913 H 559.566 -2.89546 -3.92446 0
M  V30 5914 H 558.571 -4.81662 -2.65107 0
M  V30 5915 H 559.796 -5.913 -3.33978 0
M  V30 5916 H 557.742 -4.32875 -4.92905 0
M  V30 5917 H 557.659 -6.02228 -4.57009 0
M  V30 5918 H 558.927 -5.42439 -5.59803 0
M  V30 5919 N 563.156 0.464375 -1.50603 0
M  V30 5920 C 564.066 1.58723 -1.72754 0
M  V30 5921 C 565.082 1.62925 -0.610844 0
M  V30 5922 O 566.258 1.8067 -0.889963 0
M  V30 5923 C 563.323 2.94897 -1.82309 0
M  V30 5924 C 562.384 3.0103 -3.06071 0
M  V30 5925 C 561.617 4.30708 -3.1516 0
M  V30 5926 O 561.84 5.2159 -2.30868 0
M  V30 5927 O 560.774 4.42571 -4.0794 0
M  V30 5928 H 564.6 1.42954 -2.67951 0
M  V30 5929 H 562.185 0.644579 -1.3478 0
M  V30 5930 H 564.067 3.75764 -1.90735 0
M  V30 5931 H 562.742 3.10851 -0.902967 0
M  V30 5932 H 561.649 2.19217 -3.03142 0
M  V30 5933 H 562.982 2.90014 -3.97684 0
M  V30 5934 N 564.634 1.40294 0.718013 0
M  V30 5935 C 566.045 1.34289 1.29705 0
M  V30 5936 C 566.396 0.0152228 1.96194 0
M  V30 5937 O 565.521 -0.88682 1.97394 0
M  V30 5938 C 566.116 2.43219 2.3586 0
M  V30 5939 C 564.675 2.40682 2.89394 0
M  V30 5940 C 563.822 2.24223 1.63154 0
M  V30 5941 H 566.773 1.50135 0.514312 0
M  V30 5942 H 566.794 2.10986 3.16647 0
M  V30 5943 H 566.306 3.39836 1.87439 0
M  V30 5944 H 564.407 1.47756 3.42051 0
M  V30 5945 H 564.52 3.36177 3.41353 0
M  V30 5946 H 562.884 1.71696 1.88129 0
M  V30 5947 H 563.667 3.22834 1.16761 0
M  V30 5948 N 566.112 -0.949982 1.2575 0
M  V30 5949 C 567.022 -2.08109 1.08295 0
M  V30 5950 C 568.038 -1.7399 0.0188181 0
M  V30 5951 O 569.214 -2.00187 0.220724 0
M  V30 5952 C 566.279 -3.39383 0.708534 0
M  V30 5953 C 565.34 -3.8734 1.85111 0
M  V30 5954 C 564.573 -5.12349 1.49447 0
M  V30 5955 O 564.796 -5.6905 0.392212 0
M  V30 5956 O 563.73 -5.5513 2.32624 0
M  V30 5957 H 567.556 -2.25738 2.03165 0
M  V30 5958 H 565.141 -1.06545 1.04731 0
M  V30 5959 H 567.023 -4.18277 0.512061 0
M  V30 5960 H 565.698 -3.23013 -0.210854 0
M  V30 5961 H 564.605 -3.09429 2.10248 0
M  V30 5962 H 565.938 -4.08216 2.74991 0
M  V30 5963 N 567.59 -1.07411 -1.15328 0
M  V30 5964 C 568.836 -0.798831 -1.86404 0
M  V30 5965 C 569.169 0.673433 -1.8215 0
M  V30 5966 O 568.444 1.49428 -1.24505 0
M  V30 5967 C 568.727 -1.30846 -3.35487 0
M  V30 5968 C 568.58 -2.84532 -3.4837 0
M  V30 5969 C 569.899 -0.925486 -4.30259 0
M  V30 5970 H 567.018 -0.291659 -0.676834 0
M  V30 5971 H 569.66 -1.332 -1.35491 0
M  V30 5972 H 567.81 -0.854916 -3.78977 0
M  V30 5973 H 569.482 -3.3818 -3.13739 0
M  V30 5974 H 567.725 -3.22699 -2.8991 0
M  V30 5975 H 568.396 -3.15259 -4.53118 0
M  V30 5976 H 570.872 -1.3163 -3.94731 0
M  V30 5977 H 569.748 -1.3094 -5.33053 0
M  V30 5978 H 570.009 0.168525 -4.41779 0
M  V30 5979 N 569.068 1.32177 -0.85831 0
M  V30 5980 C 570.293 2.01847 -0.476718 0
M  V30 5981 C 570.718 1.64065 0.920021 0
M  V30 5982 O 570.076 0.843189 1.60499 0
M  V30 5983 C 570.124 3.55097 -0.627578 0
M  V30 5984 O 569.228 4.11012 0.338086 0
M  V30 5985 H 568.569 0.635907 -0.191099 0
M  V30 5986 H 571.099 1.68641 -1.15851 0
M  V30 5987 H 571.109 4.04718 -0.516476 0
M  V30 5988 H 569.784 3.81938 -1.64609 0
M  V30 5989 H 568.361 3.72451 0.182917 0
M  V30 5990 N 570.547 0.616602 1.45037 0
M  V30 5991 C 571.51 -0.0871112 2.29034 0
M  V30 5992 C 572.51 -0.786414 1.40258 0
M  V30 5993 O 573.7 -0.633207 1.62284 0
M  V30 5994 C 570.832 -1.13369 3.21497 0
M  V30 5995 H 572.025 0.651497 2.92738 0
M  V30 5996 H 569.578 0.376058 1.51709 0
M  V30 5997 H 570.313 -1.90277 2.62612 0
M  V30 5998 H 570.098 -0.636358 3.86902 0
M  V30 5999 H 571.588 -1.62627 3.84633 0
M  V30 6000 N 572.025 -1.5352 0.356285 0
M  V30 6001 C 573.273 -2.00719 -0.235837 0
M  V30 6002 C 573.594 -1.24551 -1.5004 0
M  V30 6003 O 572.864 -0.356185 -1.92635 0
M  V30 6004 H 571.444 -0.741542 -0.0901366 0
M  V30 6005 H 574.106 -1.88887 0.480378 0
M  V30 6006 H 573.202 -3.08551 -0.469357 0
M  V30 6007 N 573.503 -0.0852151 -1.57369 0
M  V30 6008 C 574.435 0.907099 -2.10486 0
M  V30 6009 C 575.448 1.25259 -1.03991 0
M  V30 6010 O 576.637 1.20743 -1.31467 0
M  V30 6011 C 573.737 2.21908 -2.56145 0
M  V30 6012 C 572.91 2.05042 -3.86363 0
M  V30 6013 C 571.969 3.19664 -4.17973 0
M  V30 6014 O 570.995 2.94062 -4.87356 0
M  V30 6015 N 572.197 4.45151 -3.72587 0
M  V30 6016 H 574.962 0.453505 -2.96249 0
M  V30 6017 H 572.523 0.100157 -1.6159 0
M  V30 6018 H 574.515 2.97519 -2.74343 0
M  V30 6019 H 573.085 2.58723 -1.75446 0
M  V30 6020 H 572.305 1.13819 -3.77411 0
M  V30 6021 H 573.593 1.91039 -4.71574 0
M  V30 6022 H 572.991 4.68834 -3.16561 0
M  V30 6023 H 571.548 5.17744 -3.9596 0
M  V30 6024 N 574.981 1.5647 0.188427 0
M  V30 6025 C 575.914 1.90146 1.26173 0
M  V30 6026 C 576.892 0.762294 1.43624 0
M  V30 6027 O 578.076 1.01395 1.58907 0
M  V30 6028 C 575.203 2.13748 2.62735 0
M  V30 6029 C 574.249 3.36448 2.62116 0
M  V30 6030 S 575.082 4.91364 2.12889 0
M  V30 6031 C 576.238 5.18041 3.51261 0
M  V30 6032 H 576.471 2.80886 0.974192 0
M  V30 6033 H 574.004 1.49335 0.392226 0
M  V30 6034 H 575.962 2.28028 3.41341 0
M  V30 6035 H 574.623 1.23747 2.88696 0
M  V30 6036 H 573.816 3.50109 3.62546 0
M  V30 6037 H 573.418 3.21196 1.91596 0
M  V30 6038 H 575.71 5.0897 4.47164 0
M  V30 6039 H 576.653 6.19764 3.42489 0
M  V30 6040 H 577.061 4.45657 3.46482 0
M  V30 6041 N 576.459 -0.456382 1.50847 0
M  V30 6042 C 577.87 -1.03685 1.55262 0
M  V30 6043 C 578.221 -1.92779 0.364771 0
M  V30 6044 O 577.346 -2.10043 -0.52068 0
M  V30 6045 C 577.941 -1.88718 2.81374 0
M  V30 6046 C 576.5 -2.41847 2.88422 0
M  V30 6047 C 575.647 -1.20564 2.49719 0
M  V30 6048 H 578.598 -0.238399 1.56899 0
M  V30 6049 H 578.619 -2.73957 2.6406 0
M  V30 6050 H 578.131 -1.23847 3.67809 0
M  V30 6051 H 576.232 -3.10228 2.06372 0
M  V30 6052 H 576.345 -2.75947 3.9165 0
M  V30 6053 H 574.709 -1.54504 2.02486 0
M  V30 6054 H 575.492 -0.573326 3.38479 0
M  V30 6055 N 577.937 -1.40673 -0.710563 0
M  V30 6056 C 579.185 -1.38947 -1.46759 0
M  V30 6057 C 579.506 0.00572879 -1.94999 0
M  V30 6058 O 578.776 0.961358 -1.70689 0
M  V30 6059 H 577.356 -0.5114 -0.544499 0
M  V30 6060 H 580.018 -1.75773 -0.842012 0
M  V30 6061 H 579.114 -2.06745 -2.33801 0
M  V30 6062 N 579.415 0.9433 -1.26252 0
M  V30 6063 C 580.826 1.50404 -1.10614 0
M  V30 6064 C 581.177 1.93666 0.31429 0
M  V30 6065 O 580.302 1.79709 1.20555 0
M  V30 6066 C 580.897 2.73336 -2.00182 0
M  V30 6067 C 579.456 3.25686 -1.88695 0
M  V30 6068 C 578.603 1.98474 -1.93658 0
M  V30 6069 H 581.554 0.759006 -1.39373 0
M  V30 6070 H 581.575 3.47567 -1.54847 0
M  V30 6071 H 581.087 2.41818 -3.03555 0
M  V30 6072 H 579.188 3.61998 -0.882489 0
M  V30 6073 H 579.301 3.92935 -2.74115 0
M  V30 6074 H 577.665 2.14278 -1.37684 0
M  V30 6075 H 578.448 1.6929 -2.98657 0
M  V30 6076 N 580.893 1.08022 1.14757 0
M  V30 6077 C 582.141 0.805913 1.85336 0
M  V30 6078 C 582.462 -0.670162 1.83122 0
M  V30 6079 O 581.732 -1.48567 1.2769 0
M  V30 6080 H 580.312 0.295138 0.686223 0
M  V30 6081 H 582.974 1.36538 1.3908 0
M  V30 6082 H 582.07 1.14655 2.90277 0
M  V30 6083 N 582.371 -1.3172 0.865308 0
M  V30 6084 C 583.281 -2.32394 0.320935 0
M  V30 6085 C 584.297 -1.64511 -0.566746 0
M  V30 6086 O 585.473 -1.95969 -0.464575 0
M  V30 6087 C 582.538 -3.43462 -0.472701 0
M  V30 6088 C 581.599 -4.27015 0.442385 0
M  V30 6089 C 580.832 -5.32779 -0.313469 0
M  V30 6090 O 581.055 -5.49158 -1.54214 0
M  V30 6091 O 579.989 -6.01015 0.326257 0
M  V30 6092 H 583.815 -2.80868 1.15528 0
M  V30 6093 H 581.4 -1.35535 0.628545 0
M  V30 6094 H 583.282 -4.11172 -0.922781 0
M  V30 6095 H 581.957 -2.97159 -1.28367 0
M  V30 6096 H 580.864 -3.62075 0.940866 0
M  V30 6097 H 582.197 -4.76871 1.21882 0
M  V30 6098 N 583.85 -0.624285 -1.44708 0
M  V30 6099 C 584.812 0.0749638 -2.29077 0
M  V30 6100 C 585.812 0.778965 -1.40673 0
M  V30 6101 O 587.003 0.624591 -1.62618 0
M  V30 6102 C 584.135 1.11663 -3.22094 0
M  V30 6103 H 585.327 -0.667013 -2.92388 0
M  V30 6104 H 582.88 -0.384098 -1.51507 0
M  V30 6105 H 583.615 1.88881 -2.63618 0
M  V30 6106 H 583.401 0.61583 -3.87234 0
M  V30 6107 H 584.891 1.60585 -3.8549 0
M  V30 6108 N 585.328 1.53329 -0.364422 0
M  V30 6109 C 586.238 2.29414 0.490552 0
M  V30 6110 C 587.254 1.35335 1.09363 0
M  V30 6111 O 588.43 1.68391 1.10483 0
M  V30 6112 C 585.495 3.06772 1.61529 0
M  V30 6113 C 584.556 4.16516 1.03986 0
M  V30 6114 C 583.789 4.90176 2.111 0
M  V30 6115 O 584.012 4.63687 3.32191 0
M  V30 6116 O 582.946 5.76134 1.74222 0
M  V30 6117 H 586.772 3.03428 -0.12856 0
M  V30 6118 H 584.357 1.48843 -0.128837 0
M  V30 6119 H 586.239 3.55082 2.26924 0
M  V30 6120 H 584.914 2.35596 2.21983 0
M  V30 6121 H 583.821 3.7246 0.349856 0
M  V30 6122 H 585.154 4.89855 0.4799 0
M  V30 6123 N 586.806 0.0935595 1.57322 0
M  V30 6124 C 587.736 -0.863062 2.16964 0
M  V30 6125 C 588.717 -1.29528 1.10256 0
M  V30 6126 O 589.902 -1.36245 1.38387 0
M  V30 6127 C 587.032 -2.12276 2.74875 0
M  V30 6128 C 585.986 -1.82921 3.86942 0
M  V30 6129 C 585.312 -3.15707 4.31548 0
M  V30 6130 C 586.612 -1.11737 5.10208 0
M  V30 6131 H 588.306 -0.366145 2.97153 0
M  V30 6132 H 585.852 -0.174673 1.42937 0
M  V30 6133 H 587.805 -2.79634 3.1525 0
M  V30 6134 H 586.529 -2.64248 1.91938 0
M  V30 6135 H 585.188 -1.17961 3.47103 0
M  V30 6136 H 584.836 -3.65563 3.45504 0
M  V30 6137 H 584.536 -2.96849 5.07104 0
M  V30 6138 H 586.06 -3.84226 4.74555 0
M  V30 6139 H 587.474 -1.69203 5.47762 0
M  V30 6140 H 585.871 -1.03064 5.91183 0
M  V30 6141 H 586.941 -0.0998818 4.84797 0
M  V30 6142 N 588.284 -1.56567 -0.180126 0
M  V30 6143 C 589.512 -1.85618 -0.913972 0
M  V30 6144 C 589.927 -0.677892 -1.7621 0
M  V30 6145 O 589.284 0.353171 -1.7905 0
M  V30 6146 C 589.335 -3.13619 -1.79793 0
M  V30 6147 O 589.056 -4.26906 -0.98402 0
M  V30 6148 C 590.557 -3.55954 -2.64219 0
M  V30 6149 H 587.777 -0.616043 -0.265954 0
M  V30 6150 H 590.321 -2.03681 -0.182872 0
M  V30 6151 H 588.476 -2.97409 -2.48247 0
M  V30 6152 H 588.89 -4.9989 -1.58776 0
M  V30 6153 H 590.364 -4.48444 -3.21873 0
M  V30 6154 H 590.841 -2.79653 -3.38661 0
M  V30 6155 H 591.447 -3.74746 -2.01111 0
M  V30 6156 N 589.762 0.448376 -1.51087 0
M  V30 6157 C 591.01 1.19635 -1.62886 0
M  V30 6158 C 591.331 1.91977 -0.342024 0
M  V30 6159 O 590.601 1.85094 0.641636 0
M  V30 6160 H 589.181 0.444598 -0.600285 0
M  V30 6161 H 591.843 0.515138 -1.87969 0
M  V30 6162 H 590.939 1.93194 -2.45117 0
M  V30 6163 N 591.24 1.41047 0.703093 0
M  V30 6164 C 592.488 1.39723 1.4602 0
M  V30 6165 C 592.809 0.00461257 1.94999 0
M  V30 6166 O 592.079 -0.952292 1.71196 0
M  V30 6167 H 590.659 0.514281 0.541779 0
M  V30 6168 H 593.321 1.76217 0.832678 0
M  V30 6169 H 592.417 2.07982 2.32701 0
M  V30 6170 N 592.718 -0.936591 1.26751 0
M  V30 6171 C 593.943 -1.72288 1.15462 0
M  V30 6172 C 594.368 -1.85915 -0.285887 0
M  V30 6173 O 593.726 -1.35272 -1.20711 0
M  V30 6174 C 593.774 -3.10503 1.83359 0
M  V30 6175 O 592.878 -3.96745 1.1255 0
M  V30 6176 H 592.219 -0.52843 0.402067 0
M  V30 6177 H 594.749 -1.17271 1.67656 0
M  V30 6178 H 594.759 -3.60867 1.90365 0
M  V30 6179 H 593.434 -2.99901 2.88153 0
M  V30 6180 H 592.011 -3.55191 1.13551 0
M  V30 6181 N 594.196 -1.08629 -1.14182 0
M  V30 6182 C 595.106 -0.730126 -2.22949 0
M  V30 6183 C 596.122 0.26436 -1.7198 0
M  V30 6184 O 597.298 0.107742 -2.01112 0
M  V30 6185 C 594.363 -0.147227 -3.46387 0
M  V30 6186 C 593.424 -1.19662 -4.12286 0
M  V30 6187 C 592.657 -0.641437 -5.29831 0
M  V30 6188 O 592.88 0.538351 -5.67854 0
M  V30 6189 O 591.814 -1.39257 -5.85569 0
M  V30 6190 H 595.64 -1.63753 -2.55771 0
M  V30 6191 H 593.225 -0.860118 -1.22157 0
M  V30 6192 H 595.107 0.174923 -4.21037 0
M  V30 6193 H 593.782 0.733304 -3.15285 0
M  V30 6194 H 592.689 -1.57133 -3.395 0
M  V30 6195 H 594.022 -2.0495 -4.475 0
M  V30 6196 N 595.674 1.31259 -0.872281 0
M  V30 6197 C 596.92 1.973 -0.494414 0
M  V30 6198 C 597.275 1.67684 0.94339 0
M  V30 6199 O 596.568 0.964186 1.65572 0
M  V30 6200 C 596.762 3.50659 -0.690889 0
M  V30 6201 C 596.591 3.95179 -2.14624 0
M  V30 6202 C 595.361 4.21405 -2.7883 0
M  V30 6203 C 597.559 4.08948 -3.11875 0
M  V30 6204 N 595.541 4.52295 -4.15093 0
M  V30 6205 C 596.912 4.43576 -4.33174 0
M  V30 6206 C 598.967 3.91334 -3.07835 0
M  V30 6207 C 597.67 4.62429 -5.50956 0
M  V30 6208 C 599.696 4.11381 -4.24876 0
M  V30 6209 C 599.058 4.46343 -5.44938 0
M  V30 6210 H 595.157 0.747411 -0.230002 0
M  V30 6211 H 597.741 1.58741 -1.12736 0
M  V30 6212 H 595.912 3.88301 -0.0875162 0
M  V30 6213 H 597.644 4.03722 -0.281179 0
M  V30 6214 H 594.399 4.14131 -2.29767 0
M  V30 6215 H 594.823 4.71897 -4.8543 0
M  V30 6216 H 599.465 3.6339 -2.16119 0
M  V30 6217 H 597.183 4.8922 -6.43187 0
M  V30 6218 H 600.769 3.99235 -4.23205 0
M  V30 6219 H 599.649 4.6154 -6.33996 0
M  V30 6220 N 597.152 0.631951 1.44375 0
M  V30 6221 C 598.38 0.143867 2.06399 0
M  V30 6222 C 598.795 -1.18188 1.47231 0
M  V30 6223 O 598.152 -1.72511 0.595498 0
M  V30 6224 C 598.203 0.0238253 3.61492 0
M  V30 6225 O 597.924 1.29715 4.18456 0
M  V30 6226 C 599.425 -0.492856 4.40552 0
M  V30 6227 H 596.645 0.0800542 0.666207 0
M  V30 6228 H 599.189 0.866586 1.85231 0
M  V30 6229 H 597.344 -0.649338 3.81919 0
M  V30 6230 H 597.758 1.14252 5.11905 0
M  V30 6231 H 599.232 -0.525861 5.49489 0
M  V30 6232 H 599.709 -1.52006 4.12057 0
M  V30 6233 H 600.315 0.147085 4.25046 0
M  V30 6234 N 598.631 -1.53133 0.372548 0
M  V30 6235 C 600.047 -1.59585 0.02178 0
M  V30 6236 C 600.247 -1.38736 -1.46132 0
M  V30 6237 O 599.303 -1.19599 -2.22379 0
M  V30 6238 C 600.616 -2.9678 0.483959 0
M  V30 6239 C 602.164 -3.09909 0.438775 0
M  V30 6240 C 602.639 -4.49527 0.876876 0
M  V30 6241 N 604.13 -4.55663 0.832214 0
M  V30 6242 C 604.865 -5.61896 1.14281 0
M  V30 6243 N 604.361 -6.75852 1.52303 0
M  V30 6244 N 606.154 -5.51916 1.06515 0
M  V30 6245 H 598.305 -1.64936 1.33827 0
M  V30 6246 H 600.568 -0.773947 0.547458 0
M  V30 6247 H 600.274 -3.17198 1.51915 0
M  V30 6248 H 600.148 -3.7699 -0.125784 0
M  V30 6249 H 602.535 -2.89197 -0.587294 0
M  V30 6250 H 602.616 -2.31691 1.0841 0
M  V30 6251 H 602.26 -4.70979 1.90109 0
M  V30 6252 H 602.19 -5.26186 0.208727 0
M  V30 6253 H 604.681 -3.73844 0.552195 0
M  V30 6254 H 604.994 -7.52862 1.7441 0
M  V30 6255 H 603.339 -6.77226 1.56175 0
M  V30 6256 H 606.53 -4.6177 0.767235 0
M  V30 6257 H 606.703 -6.34609 1.31053 0
M  V30 6258 N 600.109 -0.101901 -1.5727 0
M  V30 6259 C 601.072 0.840129 -2.13247 0
M  V30 6260 C 602.072 1.20625 -1.06331 0
M  V30 6261 O 603.262 1.13456 -1.32186 0
M  V30 6262 C 600.394 2.13372 -2.65867 0
M  V30 6263 H 601.587 0.353945 -2.97804 0
M  V30 6264 H 599.14 0.147167 -1.55606 0
M  V30 6265 H 599.875 2.66461 -1.84849 0
M  V30 6266 H 599.66 1.88085 -3.44044 0
M  V30 6267 H 601.15 2.80748 -3.09145 0
M  V30 6268 N 601.587 1.56661 0.17182 0
M  V30 6269 C 602.519 1.92934 1.2373 0
M  V30 6270 C 603.532 0.822385 1.40502 0
M  V30 6271 O 604.721 1.10083 1.40514 0
M  V30 6272 C 601.821 2.16651 2.60607 0
M  V30 6273 C 600.994 3.47878 2.6514 0
M  V30 6274 C 600.053 3.60429 3.83377 0
M  V30 6275 O 599.079 4.33051 3.69398 0
M  V30 6276 N 600.281 2.95241 4.99813 0
M  V30 6277 H 603.046 2.84931 0.929205 0
M  V30 6278 H 600.607 1.5781 0.361588 0
M  V30 6279 H 602.599 2.22312 3.38171 0
M  V30 6280 H 601.169 1.3104 2.83809 0
M  V30 6281 H 600.389 3.53879 1.73675 0
M  V30 6282 H 601.677 4.34232 2.6518 0
M  V30 6283 H 601.075 2.3611 5.14071 0
M  V30 6284 H 599.632 3.06499 5.75241 0
M  V30 6285 N 603.065 -0.440357 1.51323 0
M  V30 6286 C 604.481 -0.7766 1.39431 0
M  V30 6287 C 604.681 -1.95838 0.474296 0
M  V30 6288 O 603.737 -2.52398 -0.0716692 0
M  V30 6289 C 605.05 -1.05981 2.81405 0
M  V30 6290 C 606.598 -1.16442 2.90534 0
M  V30 6291 C 607.073 -1.48058 4.33408 0
M  V30 6292 N 608.564 -1.54988 4.36501 0
M  V30 6293 C 609.299 -1.81017 5.44078 0
M  V30 6294 N 608.795 -2.04858 6.61819 0
M  V30 6295 N 610.588 -1.82774 5.31554 0
M  V30 6296 H 602.739 0.338006 2.09693 0
M  V30 6297 H 605.002 0.0888072 0.943831 0
M  V30 6298 H 604.708 -0.264173 3.50706 0
M  V30 6299 H 604.582 -1.98822 3.20546 0
M  V30 6300 H 606.969 -1.95068 2.21432 0
M  V30 6301 H 607.05 -0.215088 2.54894 0
M  V30 6302 H 606.694 -0.699605 5.03059 0
M  V30 6303 H 606.624 -2.44192 4.66559 0
M  V30 6304 H 609.115 -1.38479 3.51613 0
M  V30 6305 H 609.428 -2.2408 7.396 0
M  V30 6306 H 607.773 -2.02187 6.6494 0
M  V30 6307 H 610.964 -1.63665 4.38556 0
M  V30 6308 H 611.137 -2.02722 6.15474 0
M  V30 6309 N 604.543 -1.41418 -0.695603 0
M  V30 6310 C 605.453 -1.45622 -1.83933 0
M  V30 6311 C 606.469 -0.346825 -1.70508 0
M  V30 6312 O 607.645 -0.59454 -1.92424 0
M  V30 6313 C 604.71 -1.33627 -3.19914 0
M  V30 6314 C 603.771 -2.54882 -3.45447 0
M  V30 6315 C 603.004 -2.43449 -4.7494 0
M  V30 6316 O 603.227 -1.45905 -5.51424 0
M  V30 6317 O 602.161 -3.33206 -5.01256 0
M  V30 6318 H 605.987 -2.42114 -1.83342 0
M  V30 6319 H 603.572 -1.22956 -0.848658 0
M  V30 6320 H 605.454 -1.29221 -4.01098 0
M  V30 6321 H 604.129 -0.402508 -3.21188 0
M  V30 6322 H 603.036 -2.64865 -2.64192 0
M  V30 6323 H 604.369 -3.47087 -3.48987 0
M  V30 6324 N 606.021 0.929856 -1.27246 0
M  V30 6325 C 606.971 2.01629 -1.06442 0
M  V30 6326 C 607.955 1.60899 0.00687842 0
M  V30 6327 O 609.147 1.75733 -0.211407 0
M  V30 6328 C 606.276 3.35849 -0.711361 0
M  V30 6329 C 605.362 3.8303 -1.82069 0
M  V30 6330 N 605.753 4.02743 -3.05993 0
M  V30 6331 C 604.051 4.12046 -1.70687 0
M  V30 6332 C 604.752 4.42001 -3.78167 0
M  V30 6333 N 603.728 4.4935 -3.05918 0
M  V30 6334 H 607.53 2.14898 -2.00489 0
M  V30 6335 H 605.044 1.11654 -1.17929 0
M  V30 6336 H 607.041 4.13343 -0.543442 0
M  V30 6337 H 605.701 3.23944 0.221517 0
M  V30 6338 H 606.712 3.89112 -3.41778 0
M  V30 6339 H 603.389 4.08866 -0.844681 0
M  V30 6340 H 604.779 4.6535 -4.84664 0
M  V30 6341 N 607.499 1.09233 1.13605 0
M  V30 6342 C 608.409 0.741939 2.22559 0
M  V30 6343 C 609.425 -0.255236 1.72118 0
M  V30 6344 O 610.601 -0.0970747 2.01166 0
M  V30 6345 C 607.666 0.165595 3.46304 0
M  V30 6346 C 606.727 1.21846 4.11645 0
M  V30 6347 C 605.96 0.669526 5.29484 0
M  V30 6348 O 606.183 -0.508228 5.68131 0
M  V30 6349 O 605.117 1.42361 5.84822 0
M  V30 6350 H 608.943 1.65107 2.54899 0
M  V30 6351 H 606.528 0.866584 1.21699 0
M  V30 6352 H 608.41 -0.152592 4.21124 0
M  V30 6353 H 607.085 -0.716573 3.15669 0
M  V30 6354 H 605.992 1.58931 3.38662 0
M  V30 6355 H 607.325 2.07321 4.46407 0
M  V30 6356 N 608.977 -1.30795 0.87923 0
M  V30 6357 C 609.94 -2.26563 0.346676 0
M  V30 6358 C 610.94 -1.52578 -0.507597 0
M  V30 6359 O 612.13 -1.71318 -0.315575 0
M  V30 6360 C 609.262 -3.37115 -0.506611 0
M  V30 6361 H 610.455 -2.75183 1.19223 0
M  V30 6362 H 608.008 -1.41886 0.655598 0
M  V30 6363 H 608.743 -2.93802 -1.37299 0
M  V30 6364 H 608.528 -3.91959 0.105218 0
M  V30 6365 H 610.018 -4.08412 -0.871192 0
M  V30 6366 N 610.455 -0.639598 -1.44038 0
M  V30 6367 C 611.387 0.0987684 -2.28987 0
M  V30 6368 C 612.4 0.80058 -1.41755 0
M  V30 6369 O 613.589 0.660611 -1.65826 0
M  V30 6370 C 610.689 1.16242 -3.18341 0
M  V30 6371 C 609.862 0.541447 -4.34036 0
M  V30 6372 C 608.921 1.50017 -5.04362 0
M  V30 6373 O 607.947 1.01403 -5.60095 0
M  V30 6374 N 609.149 2.83441 -5.06598 0
M  V30 6375 H 611.914 -0.630305 -2.92997 0
M  V30 6376 H 609.475 -0.481376 -1.54578 0
M  V30 6377 H 611.467 1.80429 -3.62253 0
M  V30 6378 H 610.037 1.79362 -2.56024 0
M  V30 6379 H 609.257 -0.27923 -3.9321 0
M  V30 6380 H 610.545 0.107379 -5.08687 0
M  V30 6381 H 609.943 3.2551 -4.62666 0
M  V30 6382 H 608.5 3.42966 -5.54272 0
M  V30 6383 N 611.933 1.52934 -0.380664 0
M  V30 6384 C 612.88 2.26197 0.458641 0
M  V30 6385 C 613.85 1.27462 1.06502 0
M  V30 6386 O 615.035 1.56274 1.09467 0
M  V30 6387 C 612.175 3.06571 1.58456 0
M  V30 6388 C 611.288 4.20222 1.00189 0
M  V30 6389 C 610.423 4.88007 2.09815 0
M  V30 6390 C 609.462 5.93665 1.49092 0
M  V30 6391 N 608.599 6.55081 2.52613 0
M  V30 6392 H 613.439 2.975 -0.172595 0
M  V30 6393 H 610.976 1.4678 -0.0969426 0
M  V30 6394 H 612.934 3.51455 2.24801 0
M  V30 6395 H 611.564 2.37494 2.18624 0
M  V30 6396 H 610.616 3.79714 0.228292 0
M  V30 6397 H 611.928 4.96102 0.518064 0
M  V30 6398 H 611.082 5.36151 2.83948 0
M  V30 6399 H 609.821 4.11632 2.61555 0
M  V30 6400 H 608.826 5.44868 0.7348 0
M  V30 6401 H 610.051 6.71969 0.981582 0
M  V30 6402 H 607.997 5.8155 3.03538 0
M  V30 6403 H 607.914 7.26548 2.08961 0
M  V30 6404 H 609.182 7.07871 3.26402 0
M  V30 6405 N 613.412 0.11024 1.57214 0
M  V30 6406 C 614.344 -0.873497 2.11902 0
M  V30 6407 C 615.357 -1.23588 1.05971 0
M  V30 6408 O 616.546 -1.18636 1.33371 0
M  V30 6409 C 613.646 -2.17805 2.59643 0
M  V30 6410 C 612.819 -1.98869 3.89576 0
M  V30 6411 C 611.878 -3.12974 4.23006 0
M  V30 6412 O 610.904 -2.86272 4.91973 0
M  V30 6413 N 612.106 -4.39167 3.79622 0
M  V30 6414 H 614.871 -0.406317 2.96933 0
M  V30 6415 H 612.432 -0.074437 1.61729 0
M  V30 6416 H 614.424 -2.93117 2.79042 0
M  V30 6417 H 612.994 -2.55899 1.7954 0
M  V30 6418 H 612.214 -1.078 3.79174 0
M  V30 6419 H 613.502 -1.83512 4.74553 0
M  V30 6420 H 612.9 -4.63739 3.2398 0
M  V30 6421 H 611.457 -5.11379 4.04147 0
M  V30 6422 N 614.89 -1.56749 -0.16351 0
M  V30 6423 C 615.84 -1.93424 -1.20712 0
M  V30 6424 C 616.824 -0.803469 -1.39403 0
M  V30 6425 O 618.016 -1.06675 -1.41243 0
M  V30 6426 C 615.145 -2.30431 -2.54473 0
M  V30 6427 C 614.231 -3.5004 -2.39443 0
M  V30 6428 N 614.622 -4.67058 -1.9414 0
M  V30 6429 C 612.92 -3.548 -2.70246 0
M  V30 6430 C 613.621 -5.49184 -1.9176 0
M  V30 6431 N 612.597 -4.9044 -2.34457 0
M  V30 6432 H 616.399 -2.8138 -0.848681 0
M  V30 6433 H 613.913 -1.58089 -0.371717 0
M  V30 6434 H 615.91 -2.54903 -3.29894 0
M  V30 6435 H 614.57 -1.43818 -2.91112 0
M  V30 6436 H 615.581 -4.91128 -1.64357 0
M  V30 6437 H 612.258 -2.78685 -3.10871 0
M  V30 6438 H 613.648 -6.5297 -1.58366 0
M  V30 6439 N 616.368 0.432326 -1.51554 0
M  V30 6440 C 617.593 1.20824 -1.68571 0
M  V30 6441 C 618.018 1.84126 -0.384596 0
M  V30 6442 O 617.376 1.69025 0.655751 0
M  V30 6443 C 617.424 2.26429 -2.80646 0
M  V30 6444 O 616.528 3.32032 -2.44598 0
M  V30 6445 H 615.869 0.353765 -0.561913 0
M  V30 6446 H 618.399 0.509916 -1.98144 0
M  V30 6447 H 618.409 2.71133 -3.04878 0
M  V30 6448 H 617.084 1.79733 -3.75058 0
M  V30 6449 H 615.661 2.92769 -2.30956 0
M  V30 6450 N 617.846 1.41785 0.688094 0
M  V30 6451 C 619.092 1.41753 1.4503 0
M  V30 6452 C 619.425 0.0290745 1.94178 0
M  V30 6453 O 618.7 -0.944456 1.7003 0
M  V30 6454 C 618.983 2.43069 2.65686 0
M  V30 6455 C 618.836 3.91053 2.22256 0
M  V30 6456 C 620.155 2.41543 3.67893 0
M  V30 6457 H 617.274 0.516202 0.526027 0
M  V30 6458 H 619.916 1.73111 0.783105 0
M  V30 6459 H 618.066 2.1646 3.2261 0
M  V30 6460 H 619.738 4.28594 1.70602 0
M  V30 6461 H 617.981 4.05559 1.53963 0
M  V30 6462 H 618.652 4.57501 3.08863 0
M  V30 6463 H 621.128 2.65175 3.20658 0
M  V30 6464 H 620.004 3.14434 4.49914 0
M  V30 6465 H 620.265 1.43666 4.18106 0
M  V30 6466 N 619.324 -0.923095 1.27737 0
M  V30 6467 C 620.234 -2.05765 1.12685 0
M  V30 6468 C 621.25 -1.73911 0.0557197 0
M  V30 6469 O 622.426 -1.99674 0.263137 0
M  V30 6470 C 619.491 -3.37804 0.780363 0
M  V30 6471 C 618.552 -3.83326 1.93286 0
M  V30 6472 C 617.785 -5.09064 1.60281 0
M  V30 6473 O 618.008 -5.6809 0.512828 0
M  V30 6474 O 616.942 -5.50071 2.44347 0
M  V30 6475 H 620.768 -2.21378 2.07907 0
M  V30 6476 H 618.353 -1.04299 1.06968 0
M  V30 6477 H 620.235 -4.17097 0.600668 0
M  V30 6478 H 618.91 -3.23387 -0.142291 0
M  V30 6479 H 617.817 -3.049 2.16764 0
M  V30 6480 H 619.15 -4.02292 2.83588 0
M  V30 6481 N 620.802 -1.09834 -1.13024 0
M  V30 6482 C 621.732 -0.763451 -2.20666 0
M  V30 6483 C 622.713 0.260778 -1.68089 0
M  V30 6484 O 623.898 0.127915 -1.93778 0
M  V30 6485 C 621.028 -0.187744 -3.46792 0
M  V30 6486 C 619.982 -1.14196 -4.12484 0
M  V30 6487 C 619.308 -0.427755 -5.32986 0
M  V30 6488 C 620.608 -2.48607 -4.59338 0
M  V30 6489 H 622.302 -1.66347 -2.48936 0
M  V30 6490 H 619.848 -0.801261 -1.19649 0
M  V30 6491 H 621.801 0.0586375 -4.21359 0
M  V30 6492 H 620.525 0.747485 -3.17931 0
M  V30 6493 H 619.184 -1.37369 -3.3989 0
M  V30 6494 H 618.832 0.511747 -5.0039 0
M  V30 6495 H 618.532 -1.06403 -5.77886 0
M  V30 6496 H 620.056 -0.189772 -6.10305 0
M  V30 6497 H 621.47 -2.29618 -5.25308 0
M  V30 6498 H 619.867 -3.08062 -5.14993 0
M  V30 6499 H 620.937 -3.09062 -3.73642 0
M  V30 6500 N 622.28 1.30327 -0.886154 0
M  V30 6501 C 623.526 1.96764 -0.515312 0
M  V30 6502 C 623.881 1.68675 0.925552 0
M  V30 6503 O 623.174 0.981693 1.6454 0
M  V30 6504 C 623.368 3.49906 -0.728042 0
M  V30 6505 C 623.197 3.92881 -2.18803 0
M  V30 6506 C 621.967 4.18424 -2.83284 0
M  V30 6507 C 624.165 4.05617 -3.16195 0
M  V30 6508 N 622.147 4.47867 -4.19867 0
M  V30 6509 C 623.518 4.38957 -4.37855 0
M  V30 6510 C 625.573 3.88047 -3.11968 0
M  V30 6511 C 624.276 4.56559 -5.55829 0
M  V30 6512 C 626.302 4.06851 -4.29215 0
M  V30 6513 C 625.664 4.40538 -5.49641 0
M  V30 6514 H 621.763 0.74493 -0.237916 0
M  V30 6515 H 624.347 1.57536 -1.14414 0
M  V30 6516 H 622.518 3.88187 -0.128696 0
M  V30 6517 H 624.25 4.03401 -0.323983 0
M  V30 6518 H 621.005 4.1167 -2.34146 0
M  V30 6519 H 621.429 4.66721 -4.90408 0
M  V30 6520 H 626.071 3.61078 -2.19961 0
M  V30 6521 H 623.789 4.8237 -6.4834 0
M  V30 6522 H 627.375 3.94724 -4.27416 0
M  V30 6523 H 626.255 4.54789 -6.38856 0
M  V30 6524 N 623.758 0.647228 1.43697 0
M  V30 6525 C 625.004 0.158422 2.0218 0
M  V30 6526 C 625.337 -1.22233 1.50907 0
M  V30 6527 O 624.612 -1.81478 0.699702 0
M  V30 6528 C 624.895 0.1627 3.59732 0
M  V30 6529 C 624.748 1.57694 4.21251 0
M  V30 6530 C 626.067 -0.504138 4.37203 0
M  V30 6531 H 623.186 0.059042 0.734631 0
M  V30 6532 H 625.828 0.826772 1.71069 0
M  V30 6533 H 623.978 -0.406414 3.86368 0
M  V30 6534 H 625.65 2.19618 4.05667 0
M  V30 6535 H 623.893 2.12603 3.7813 0
M  V30 6536 H 624.564 1.53183 5.3032 0
M  V30 6537 H 627.04 -0.0199841 4.16095 0
M  V30 6538 H 625.916 -0.470394 5.46881 0
M  V30 6539 H 626.177 -1.57726 4.13007 0
M  V30 6540 N 625.236 -1.5273 0.388769 0
M  V30 6541 C 626.168 -2.24081 -0.481704 0
M  V30 6542 C 627.181 -1.26307 -1.02715 0
M  V30 6543 O 628.37 -1.52386 -0.929565 0
M  V30 6544 C 625.47 -2.94315 -1.68024 0
M  V30 6545 C 624.643 -4.18791 -1.26226 0
M  V30 6546 C 623.702 -4.72028 -2.32542 0
M  V30 6547 O 622.728 -5.35129 -1.93972 0
M  V30 6548 N 623.93 -4.51838 -3.64448 0
M  V30 6549 H 626.695 -2.9942 0.129591 0
M  V30 6550 H 624.256 -1.60465 0.2151 0
M  V30 6551 H 626.248 -3.26831 -2.38671 0
M  V30 6552 H 624.818 -2.22287 -2.19789 0
M  V30 6553 H 624.038 -3.92318 -0.384703 0
M  V30 6554 H 625.326 -4.99668 -0.959647 0
M  V30 6555 H 624.724 -4.01468 -3.98547 0
M  V30 6556 H 623.281 -4.88845 -4.31131 0
M  V30 6557 N 626.714 -0.118576 -1.57153 0
M  V30 6558 C 627.961 0.539526 -1.9518 0
M  V30 6559 C 628.289 1.66714 -1.00184 0
M  V30 6560 O 627.544 1.95683 -0.0256482 0
M  V30 6561 C 627.843 1.11303 -3.39627 0
M  V30 6562 C 627.509 0.106809 -4.50773 0
M  V30 6563 C 626.171 -0.169876 -4.809 0
M  V30 6564 C 628.523 -0.57895 -5.17975 0
M  V30 6565 C 625.851 -1.13861 -5.75545 0
M  V30 6566 C 628.203 -1.53631 -6.13661 0
M  V30 6567 C 626.867 -1.82099 -6.42181 0
M  V30 6568 H 626.137 0.197427 -0.714215 0
M  V30 6569 H 628.784 -0.199391 -1.90459 0
M  V30 6570 H 627.089 1.92869 -3.4104 0
M  V30 6571 H 628.786 1.63032 -3.66363 0
M  V30 6572 H 625.376 0.332645 -4.27307 0
M  V30 6573 H 629.56 -0.378359 -4.94856 0
M  V30 6574 H 624.816 -1.36592 -5.95947 0
M  V30 6575 H 628.99 -2.07337 -6.64819 0
M  V30 6576 H 626.617 -2.57319 -7.15326 0
M  V30 6577 N 628.193 1.56834 0.155195 0
M  V30 6578 C 629.418 1.87412 0.888337 0
M  V30 6579 C 629.843 0.70671 1.74319 0
M  V30 6580 O 629.201 -0.343892 1.78009 0
M  V30 6581 C 629.249 3.1652 1.72765 0
M  V30 6582 O 628.353 2.99877 2.83103 0
M  V30 6583 H 627.694 0.615983 0.247914 0
M  V30 6584 H 630.224 2.04061 0.148478 0
M  V30 6585 H 630.234 3.48334 2.12433 0
M  V30 6586 H 628.909 4.01094 1.09985 0
M  V30 6587 H 627.486 2.79453 2.46902 0
M  V30 6588 N 629.671 -0.424282 1.51781 0
M  V30 6589 C 630.621 -1.51464 1.70419 0
M  V30 6590 C 631.605 -1.50911 0.558094 0
M  V30 6591 O 632.797 -1.57143 0.814552 0
M  V30 6592 C 629.926 -2.89539 1.84451 0
M  V30 6593 C 629.012 -2.94798 3.04886 0
M  V30 6594 N 629.403 -2.69778 4.27848 0
M  V30 6595 C 627.701 -3.25962 3.04408 0
M  V30 6596 C 628.402 -2.81216 5.09208 0
M  V30 6597 N 627.378 -3.13447 4.44131 0
M  V30 6598 H 631.18 -1.30892 2.63144 0
M  V30 6599 H 628.694 -0.631783 1.49607 0
M  V30 6600 H 630.691 -3.67998 1.95917 0
M  V30 6601 H 629.351 -3.11121 0.929168 0
M  V30 6602 H 630.362 -2.44458 4.56575 0
M  V30 6603 H 627.039 -3.53236 2.22555 0
M  V30 6604 H 628.429 -2.65715 6.17127 0
M  V30 6605 N 631.149 -1.42148 -0.680565 0
M  V30 6606 C 632.112 -1.4488 -1.77602 0
M  V30 6607 C 633.112 -0.337209 -1.57224 0
M  V30 6608 O 634.302 -0.597778 -1.63622 0
M  V30 6609 C 631.434 -1.27483 -3.16166 0
M  V30 6610 H 632.627 -2.42412 -1.76568 0
M  V30 6611 H 630.18 -1.28511 -0.889645 0
M  V30 6612 H 630.915 -0.30851 -3.22829 0
M  V30 6613 H 630.7 -2.08037 -3.3236 0
M  V30 6614 H 632.19 -1.32265 -3.96101 0
M  V30 6615 N 632.627 0.916307 -1.28225 0
M  V30 6616 C 633.56 2.01954 -1.06254 0
M  V30 6617 C 634.538 1.62587 0.0205983 0
M  V30 6618 O 635.722 1.88073 -0.126824 0
M  V30 6619 C 632.849 3.33086 -0.614141 0
M  V30 6620 C 631.895 3.91435 -1.69354 0
M  V30 6621 S 632.728 4.22603 -3.28887 0
M  V30 6622 C 633.884 5.568 -2.85876 0
M  V30 6623 H 634.117 2.20281 -1.99659 0
M  V30 6624 H 631.65 1.06085 -1.12184 0
M  V30 6625 H 633.608 4.089 -0.36213 0
M  V30 6626 H 632.269 3.12664 0.300036 0
M  V30 6627 H 631.462 4.86098 -1.33136 0
M  V30 6628 H 631.064 3.22248 -1.89821 0
M  V30 6629 H 633.356 6.3658 -2.31888 0
M  V30 6630 H 634.299 5.97927 -3.79326 0
M  V30 6631 H 634.707 5.17865 -2.24669 0
M  V30 6632 N 634.105 1.10431 1.1244 0
M  V30 6633 C 635.382 0.758797 1.80282 0
M  V30 6634 C 635.762 -0.754727 1.97147 0
M  V30 6635 O 635.11 -1.68094 1.54779 0
M  V30 6636 C 635.32 1.50982 3.14651 0
M  V30 6637 C 636.668 1.68232 3.8985 0
M  V30 6638 O 637.692 1.47319 3.24308 0
M  V30 6639 O 636.551 2.02905 5.07437 0
M  V30 6640 H 633.645 0.273756 0.780376 0
M  V30 6641 H 636.191 1.20713 1.19275 0
M  V30 6642 H 634.963 2.53989 2.97666 0
M  V30 6643 H 634.586 1.05435 3.83366 0
M  V30 6644 N 635.583 -1.29855 0.893053 0
M  V30 6645 C 636.546 -2.26183 0.370687 0
M  V30 6646 C 637.546 -1.53108 -0.491385 0
M  V30 6647 O 638.736 -1.71643 -0.297386 0
M  V30 6648 C 635.868 -3.37633 -0.470827 0
M  V30 6649 H 637.061 -2.73903 1.22135 0
M  V30 6650 H 634.614 -1.41183 0.67061 0
M  V30 6651 H 635.349 -2.95241 -1.34175 0
M  V30 6652 H 635.134 -3.91825 0.146784 0
M  V30 6653 H 636.624 -4.09313 -0.827825 0
M  V30 6654 N 637.061 -0.65484 -1.43351 0
M  V30 6655 C 637.991 0.0221809 -2.33489 0
M  V30 6656 C 638.972 0.810272 -1.49561 0
M  V30 6657 O 640.157 0.771426 -1.78221 0
M  V30 6658 C 637.287 0.988117 -3.32947 0
M  V30 6659 C 636.241 0.310026 -4.26876 0
M  V30 6660 C 635.567 1.38752 -5.16384 0
M  V30 6661 C 636.867 -0.798589 -5.16159 0
M  V30 6662 H 638.561 -0.730571 -2.9035 0
M  V30 6663 H 636.107 -0.352773 -1.39612 0
M  V30 6664 H 638.06 1.47067 -3.94904 0
M  V30 6665 H 636.784 1.77205 -2.74346 0
M  V30 6666 H 635.443 -0.152097 -3.66284 0
M  V30 6667 H 635.091 2.16293 -4.54121 0
M  V30 6668 H 634.791 0.939051 -5.80048 0
M  V30 6669 H 636.315 1.87141 -5.81215 0
M  V30 6670 H 637.729 -0.398126 -5.71916 0
M  V30 6671 H 636.126 -1.17163 -5.88552 0
M  V30 6672 H 637.196 -1.65588 -4.55751 0
M  V30 6673 N 638.539 1.52521 -0.396863 0
M  V30 6674 C 639.469 2.29582 0.425941 0
M  V30 6675 C 640.45 1.33281 1.05689 0
M  V30 6676 O 641.635 1.62181 1.06823 0
M  V30 6677 C 638.765 3.10821 1.54943 0
M  V30 6678 C 637.719 4.15069 1.04413 0
M  V30 6679 C 637.045 4.84578 2.26028 0
M  V30 6680 C 638.345 5.22191 0.106767 0
M  V30 6681 H 640.039 2.98612 -0.217045 0
M  V30 6682 H 637.585 1.43611 -0.105826 0
M  V30 6683 H 639.538 3.63492 2.13193 0
M  V30 6684 H 638.262 2.39538 2.22011 0
M  V30 6685 H 636.921 3.63389 0.484118 0
M  V30 6686 H 636.569 4.09835 2.91623 0
M  V30 6687 H 636.269 5.55043 1.92876 0
M  V30 6688 H 637.793 5.40056 2.84906 0
M  V30 6689 H 639.207 5.70176 0.597685 0
M  V30 6690 H 637.604 5.99947 -0.135352 0
M  V30 6691 H 638.674 4.77531 -0.842134 0
M  V30 6692 N 640.017 0.126909 1.57088 0
M  V30 6693 C 641.264 -0.529168 1.95464 0
M  V30 6694 C 641.592 -1.6618 1.01067 0
M  V30 6695 O 640.847 -1.95667 0.0360254 0
M  V30 6696 C 641.146 -1.095 3.40212 0
M  V30 6697 C 640.812 -0.0829015 4.50824 0
M  V30 6698 C 639.474 0.195377 4.80803 0
M  V30 6699 C 641.826 0.606411 5.1766 0
M  V30 6700 C 639.154 1.16912 5.74933 0
M  V30 6701 C 641.506 1.56884 6.12838 0
M  V30 6702 C 640.17 1.85502 6.41206 0
M  V30 6703 H 639.44 -0.193636 0.715252 0
M  V30 6704 H 642.087 0.209489 1.90351 0
M  V30 6705 H 640.392 -1.91058 3.42059 0
M  V30 6706 H 642.089 -1.61087 3.67222 0
M  V30 6707 H 638.679 -0.309979 4.27478 0
M  V30 6708 H 642.863 0.404597 4.94648 0
M  V30 6709 H 638.119 1.3975 5.95214 0
M  V30 6710 H 642.293 2.10859 6.6371 0
M  V30 6711 H 639.92 2.61109 7.13951 0
M  V30 6712 N 641.495 -1.56914 -0.146875 0
M  V30 6713 C 642.911 -1.51582 -0.499518 0
M  V30 6714 C 643.111 -0.83535 -1.83369 0
M  V30 6715 O 642.167 -0.405932 -2.49216 0
M  V30 6716 C 643.48 -2.96349 -0.509711 0
M  V30 6717 C 645.028 -3.07288 -0.595217 0
M  V30 6718 C 645.503 -4.53562 -0.636071 0
M  V30 6719 N 646.994 -4.57906 -0.69829 0
M  V30 6720 C 647.729 -5.68462 -0.750886 0
M  V30 6721 N 647.225 -6.88588 -0.76282 0
M  V30 6722 N 649.018 -5.56496 -0.791777 0
M  V30 6723 H 641.169 -1.99547 0.727656 0
M  V30 6724 H 643.432 -0.910113 0.265327 0
M  V30 6725 H 643.138 -3.4939 0.402409 0
M  V30 6726 H 643.012 -3.52307 -1.34758 0
M  V30 6727 H 645.399 -2.54266 -1.49776 0
M  V30 6728 H 645.48 -2.54373 0.2698 0
M  V30 6729 H 645.124 -5.07222 0.262313 0
M  V30 6730 H 645.054 -5.04259 -1.51758 0
M  V30 6731 H 647.545 -3.71429 -0.696362 0
M  V30 6732 H 647.858 -7.68598 -0.804804 0
M  V30 6733 H 646.203 -6.91148 -0.730694 0
M  V30 6734 H 649.394 -4.61562 -0.779624 0
M  V30 6735 H 649.567 -6.42671 -0.829301 0
M  V30 6736 N 642.974 0.416227 -1.52004 0
M  V30 6737 C 643.904 1.51365 -1.77795 0
M  V30 6738 C 644.885 1.58059 -0.628601 0
M  V30 6739 O 646.07 1.73447 -0.873478 0
M  V30 6740 C 643.2 2.89256 -1.92219 0
M  V30 6741 C 642.154 2.97415 -3.0778 0
M  V30 6742 C 641.48 4.37492 -3.07417 0
M  V30 6743 C 642.78 2.69551 -4.47369 0
M  V30 6744 H 644.474 1.30033 -2.69688 0
M  V30 6745 H 642.02 0.624112 -1.29772 0
M  V30 6746 H 643.973 3.66008 -2.08845 0
M  V30 6747 H 642.697 3.11866 -0.969917 0
M  V30 6748 H 641.356 2.23107 -2.90893 0
M  V30 6749 H 641.004 4.571 -2.09925 0
M  V30 6750 H 640.704 4.43877 -3.85029 0
M  V30 6751 H 642.228 5.16188 -3.26162 0
M  V30 6752 H 643.642 3.36028 -4.64497 0
M  V30 6753 H 642.039 2.87321 -5.26846 0
M  V30 6754 H 643.109 1.65029 -4.55953 0
M  V30 6755 N 644.452 1.42507 0.673017 0
M  V30 6756 C 645.682 1.46261 1.45916 0
M  V30 6757 C 646.09 0.0729724 1.89059 0
M  V30 6758 O 645.433 -0.922987 1.58829 0
M  V30 6759 C 645.495 2.32853 2.73898 0
M  V30 6760 C 645.159 3.80699 2.52819 0
M  V30 6761 C 646.156 4.72307 2.17306 0
M  V30 6762 C 643.841 4.24983 2.67758 0
M  V30 6763 C 645.835 6.06192 1.97003 0
M  V30 6764 C 643.522 5.58927 2.4707 0
M  V30 6765 C 644.52 6.49348 2.11746 0
M  V30 6766 O 644.208 7.80817 1.91259 0
M  V30 6767 H 643.94 0.499561 0.455428 0
M  V30 6768 H 646.494 1.87697 0.834196 0
M  V30 6769 H 644.724 1.86268 3.38882 0
M  V30 6770 H 646.413 2.28041 3.35786 0
M  V30 6771 H 647.179 4.39378 2.05359 0
M  V30 6772 H 643.058 3.54893 2.94231 0
M  V30 6773 H 646.602 6.76731 1.69355 0
M  V30 6774 H 642.499 5.91429 2.58615 0
M  V30 6775 H 643.267 7.92194 2.05843 0
M  V30 6776 N 645.93 -0.909495 1.28709 0
M  V30 6777 C 646.86 -2.0291 1.15542 0
M  V30 6778 C 647.841 -1.7002 0.0521017 0
M  V30 6779 O 649.026 -1.92835 0.229849 0
M  V30 6780 C 646.156 -3.37458 0.820935 0
M  V30 6781 C 645.11 -3.84524 1.87949 0
M  V30 6782 C 644.436 -5.16086 1.39854 0
M  V30 6783 C 645.736 -4.05918 3.28676 0
M  V30 6784 H 647.43 -2.14183 2.09203 0
M  V30 6785 H 644.976 -1.02913 1.00722 0
M  V30 6786 H 646.929 -4.1528 0.715571 0
M  V30 6787 H 645.653 -3.26249 -0.151374 0
M  V30 6788 H 644.312 -3.08911 1.97408 0
M  V30 6789 H 643.96 -5.01284 0.41518 0
M  V30 6790 H 643.66 -5.48547 2.1064 0
M  V30 6791 H 645.184 -5.96459 1.30649 0
M  V30 6792 H 646.598 -4.74252 3.22115 0
M  V30 6793 H 644.995 -4.49717 3.97334 0
M  V30 6794 H 646.065 -3.10583 3.72379 0
M  V30 6795 N 647.408 -1.11026 -1.11852 0
M  V30 6796 C 648.338 -0.786812 -2.19844 0
M  V30 6797 C 649.319 0.242935 -1.68356 0
M  V30 6798 O 650.504 0.107355 -1.93903 0
M  V30 6799 C 647.634 -0.224516 -3.46574 0
M  V30 6800 C 646.588 -1.18564 -4.1125 0
M  V30 6801 C 645.914 -0.484261 -5.32503 0
M  V30 6802 C 647.214 -2.53465 -4.56676 0
M  V30 6803 H 648.908 -1.68978 -2.47158 0
M  V30 6804 H 646.454 -0.813906 -1.18792 0
M  V30 6805 H 648.407 0.0139435 -4.21398 0
M  V30 6806 H 647.131 0.713722 -3.18706 0
M  V30 6807 H 645.79 -1.40966 -3.38414 0
M  V30 6808 H 645.438 0.458646 -5.00905 0
M  V30 6809 H 645.138 -1.12526 -5.76725 0
M  V30 6810 H 646.662 -0.254492 -6.10069 0
M  V30 6811 H 648.076 -2.35177 -5.22843 0
M  V30 6812 H 646.473 -3.13507 -5.11697 0
M  V30 6813 H 647.543 -3.13008 -3.70343 0
M  V30 6814 N 648.886 1.2938 -0.899927 0
M  V30 6815 C 650.133 1.9555 -0.525963 0
M  V30 6816 C 650.461 1.70945 0.927789 0
M  V30 6817 O 649.716 1.01545 1.67293 0
M  V30 6818 C 650.015 3.49114 -0.765113 0
M  V30 6819 C 649.681 3.93796 -2.19626 0
M  V30 6820 C 648.343 4.05707 -2.58758 0
M  V30 6821 C 650.695 4.16883 -3.12823 0
M  V30 6822 C 648.023 4.38074 -3.90267 0
M  V30 6823 C 650.375 4.50725 -4.4388 0
M  V30 6824 C 649.039 4.60845 -4.82885 0
M  V30 6825 H 648.309 0.715569 -0.192463 0
M  V30 6826 H 650.956 1.53972 -1.13863 0
M  V30 6827 H 649.261 3.91738 -0.069531 0
M  V30 6828 H 650.958 3.98409 -0.455144 0
M  V30 6829 H 647.548 3.85042 -1.88256 0
M  V30 6830 H 651.732 4.07147 -2.83804 0
M  V30 6831 H 646.988 4.44112 -4.20207 0
M  V30 6832 H 651.162 4.67538 -5.16121 0
M  V30 6833 H 648.789 4.85681 -5.84823 0
M  V30 6834 N 650.364 0.662433 1.43002 0
M  V30 6835 C 651.297 -0.073459 2.28082 0
M  V30 6836 C 652.275 -0.820869 1.40358 0
M  V30 6837 O 653.459 -0.818545 1.698 0
M  V30 6838 C 650.586 -1.11097 3.19961 0
M  V30 6839 C 649.632 -0.460557 4.24006 0
M  V30 6840 S 650.465 0.772717 5.29896 0
M  V30 6841 C 651.621 -0.264028 6.25343 0
M  V30 6842 H 651.854 0.648227 2.90147 0
M  V30 6843 H 649.387 0.451566 1.47649 0
M  V30 6844 H 651.345 -1.70452 3.73439 0
M  V30 6845 H 650.006 -1.80503 2.57056 0
M  V30 6846 H 649.199 -1.24299 4.88432 0
M  V30 6847 H 648.801 0.0591038 3.73953 0
M  V30 6848 H 651.093 -1.12748 6.68052 0
M  V30 6849 H 652.036 0.345443 7.07257 0
M  V30 6850 H 652.444 -0.603964 5.6126 0
M  V30 6851 N 651.842 -1.52309 0.404946 0
M  V30 6852 C 652.805 -2.25491 -0.410651 0
M  V30 6853 C 653.805 -1.27704 -0.977154 0
M  V30 6854 O 654.995 -1.51679 -0.856691 0
M  V30 6855 C 652.127 -3.02197 -1.57765 0
M  V30 6856 H 653.32 -2.99015 0.230277 0
M  V30 6857 H 650.873 -1.55506 0.157377 0
M  V30 6858 H 651.608 -2.33013 -2.25556 0
M  V30 6859 H 651.393 -3.73987 -1.17797 0
M  V30 6860 H 652.883 -3.57719 -2.15469 0
M  V30 6861 N 653.32 -0.135238 -1.57019 0
M  V30 6862 C 654.545 0.529343 -2.00531 0
M  V30 6863 C 654.97 1.58391 -1.01459 0
M  V30 6864 O 654.328 1.81296 0.0113986 0
M  V30 6865 C 654.376 1.11748 -3.42848 0
M  V30 6866 O 653.48 2.23267 -3.46736 0
M  V30 6867 H 652.821 0.130669 -0.651016 0
M  V30 6868 H 655.351 -0.228503 -2.0332 0
M  V30 6869 H 655.361 1.44905 -3.81401 0
M  V30 6870 H 654.036 0.345147 -4.14465 0
M  V30 6871 H 652.613 1.91428 -3.20015 0
M  V30 6872 N 654.798 1.5699 0.138552 0
M  V30 6873 C 656.023 1.88344 0.86841 0
M  V30 6874 C 656.448 0.725159 1.7356 0
M  V30 6875 O 655.806 -0.324992 1.78363 0
M  V30 6876 C 655.854 3.18334 1.69398 0
M  V30 6877 O 654.958 3.02863 2.79907 0
M  V30 6878 H 654.299 0.618577 0.241367 0
M  V30 6879 H 656.829 2.04207 0.126826 0
M  V30 6880 H 656.839 3.50567 2.08726 0
M  V30 6881 H 655.514 4.02238 1.05725 0
M  V30 6882 H 654.091 2.82056 2.43924 0
M  V30 6883 N 656.276 -0.40816 1.52223 0
M  V30 6884 C 657.525 -1.15212 1.65557 0
M  V30 6885 C 657.838 -1.9163 0.392096 0
M  V30 6886 O 659.044 -2.68458 0.405256 0
M  V30 6887 C 657.5 -2.09691 2.92502 0
M  V30 6888 C 657.108 -1.38785 4.25961 0
M  V30 6889 C 658.852 -2.8434 3.152 0
M  V30 6890 C 656.759 -2.31919 5.44029 0
M  V30 6891 H 655.689 -0.433776 0.616729 0
M  V30 6892 H 658.34 -0.4165 1.78711 0
M  V30 6893 H 656.722 -2.8681 2.7305 0
M  V30 6894 H 657.896 -0.670248 4.55899 0
M  V30 6895 H 656.211 -0.761741 4.09373 0
M  V30 6896 H 658.808 -3.54166 4.00587 0
M  V30 6897 H 659.151 -3.47344 2.29473 0
M  V30 6898 H 659.684 -2.14321 3.35129 0
M  V30 6899 H 656.423 -1.7356 6.32105 0
M  V30 6900 H 655.943 -3.0165 5.18428 0
M  V30 6901 H 657.622 -2.92424 5.77146 0
M  V30 6902 N 657.755 -1.42862 -0.66545 0
M  V30 6903 C 659.004 -1.43119 -1.42126 0
M  V30 6904 C 659.317 -0.0545297 -1.95524 0
M  V30 6905 O 660.523 0.0654747 -2.71421 0
M  V30 6906 C 658.979 -2.51797 -2.5715 0
M  V30 6907 C 658.587 -3.95514 -2.10411 0
M  V30 6908 C 660.331 -2.61233 -3.346 0
M  V30 6909 C 658.238 -4.95682 -3.22573 0
M  V30 6910 H 657.168 -0.532349 -0.533966 0
M  V30 6911 H 659.819 -1.68806 -0.719506 0
M  V30 6912 H 658.201 -2.19292 -3.29738 0
M  V30 6913 H 659.375 -4.3742 -1.44915 0
M  V30 6914 H 657.69 -3.90012 -1.45874 0
M  V30 6915 H 660.287 -3.33248 -4.18151 0
M  V30 6916 H 660.63 -1.65896 -3.81817 0
M  V30 6917 H 661.163 -2.9298 -2.69087 0
M  V30 6918 H 657.902 -5.92529 -2.80338 0
M  V30 6919 H 657.422 -4.58399 -3.86821 0
M  V30 6920 H 659.101 -5.17828 -3.87896 0
M  V30 6921 N 659.233 0.902656 -1.29189 0
M  V30 6922 C 660.461 1.68639 -1.19869 0
M  V30 6923 C 660.876 1.87254 0.241121 0
M  V30 6924 O 660.233 1.40745 1.16177 0
M  V30 6925 C 660.284 3.07251 -1.90471 0
M  V30 6926 O 660.005 2.89488 -3.28829 0
M  V30 6927 C 661.506 4.01653 -1.8759 0
M  V30 6928 H 658.726 0.526802 -0.415596 0
M  V30 6929 H 661.27 1.12901 -1.7051 0
M  V30 6930 H 659.425 3.59774 -1.43672 0
M  V30 6931 H 659.839 3.77296 -3.64346 0
M  V30 6932 H 661.313 4.96339 -2.4156 0
M  V30 6933 H 661.79 4.30881 -0.850756 0
M  V30 6934 H 662.396 3.55061 -2.34119 0
M  V30 6935 N 660.711 1.11618 1.11262 0
M  V30 6936 C 661.957 0.867463 1.83311 0
M  V30 6937 C 662.29 -0.605366 1.84524 0
M  V30 6938 O 661.565 -1.44704 1.29965 0
M  V30 6939 C 661.848 1.43207 3.30399 0
M  V30 6940 C 661.701 2.97265 3.3757 0
M  V30 6941 C 663.02 1.08454 4.26528 0
M  V30 6942 H 660.139 0.316578 0.665543 0
M  V30 6943 H 662.781 1.38137 1.30454 0
M  V30 6944 H 660.931 0.994982 3.75543 0
M  V30 6945 H 662.603 3.49591 3.00971 0
M  V30 6946 H 660.846 3.33237 2.77733 0
M  V30 6947 H 661.517 3.31859 4.41105 0
M  V30 6948 H 663.993 1.4619 3.89574 0
M  V30 6949 H 662.869 1.50633 5.27826 0
M  V30 6950 H 663.13 -0.00444568 4.421 0
M  V30 6951 N 662.189 -1.289 0.906776 0
M  V30 6952 C 663.438 -1.9455 0.532262 0
M  V30 6953 C 663.751 -1.72219 -0.927353 0
M  V30 6954 O 664.957 -2.32033 -1.40971 0
M  V30 6955 C 663.413 -3.48438 0.901041 0
M  V30 6956 C 663.021 -3.79558 2.37991 0
M  V30 6957 C 664.765 -4.20284 0.596777 0
M  V30 6958 C 662.672 -5.26723 2.68918 0
M  V30 6959 H 661.602 -0.728259 0.195333 0
M  V30 6960 H 664.253 -1.46519 1.10474 0
M  V30 6961 H 662.635 -3.95162 0.257419 0
M  V30 6962 H 663.809 -3.43668 3.06967 0
M  V30 6963 H 662.124 -3.20868 2.65391 0
M  V30 6964 H 664.721 -5.28612 0.8046 0
M  V30 6965 H 665.064 -4.13694 -0.465072 0
M  V30 6966 H 665.597 -3.79315 1.19855 0
M  V30 6967 H 662.336 -5.38384 3.73928 0
M  V30 6968 H 661.856 -5.63836 2.04571 0
M  V30 6969 H 663.535 -5.94391 2.55555 0
M  V30 6970 N 663.667 -0.670007 -1.42649 0
M  V30 6971 C 664.907 -0.194106 -2.03476 0
M  V30 6972 C 665.271 1.1755 -1.51809 0
M  V30 6973 O 666.472 1.74579 -2.04391 0
M  V30 6974 C 664.743 -0.221828 -3.56711 0
M  V30 6975 S 666.302 0.183772 -4.38415 0
M  V30 6976 H 663.12 -0.0802478 -0.706457 0
M  V30 6977 H 665.722 -0.882092 -1.74469 0
M  V30 6978 H 664.426 -1.22107 -3.91814 0
M  V30 6979 H 663.957 0.486149 -3.90385 0
M  V30 6980 H 665.972 1.41839 -4.75496 0
M  V30 6981 N 665.145 1.52092 -0.413018 0
M  V30 6982 C 666.075 2.30021 0.401567 0
M  V30 6983 C 667.056 1.34395 1.04269 0
M  V30 6984 O 668.241 1.63304 1.05097 0
M  V30 6985 C 665.371 3.12447 1.51638 0
M  V30 6986 C 664.325 4.16153 1.00005 0
M  V30 6987 C 663.651 4.86948 2.20875 0
M  V30 6988 C 664.951 5.22275 0.0513757 0
M  V30 6989 H 666.645 2.98365 -0.248704 0
M  V30 6990 H 664.191 1.4349 -0.121052 0
M  V30 6991 H 666.144 3.65733 2.09326 0
M  V30 6992 H 664.868 2.41879 2.19458 0
M  V30 6993 H 663.527 3.63882 0.445549 0
M  V30 6994 H 663.175 4.12905 2.8726 0
M  V30 6995 H 662.875 5.57057 1.86978 0
M  V30 6996 H 664.399 5.43048 2.79162 0
M  V30 6997 H 665.813 5.70778 0.537176 0
M  V30 6998 H 664.21 5.9977 -0.198977 0
M  V30 6999 H 665.28 4.76611 -0.892736 0
M  V30 7000 N 666.623 0.143563 1.56945 0
M  V30 7001 C 667.869 -0.502787 1.97088 0
M  V30 7002 C 668.224 -1.62703 1.02691 0
M  V30 7003 O 667.517 -1.91502 0.0613323 0
M  V30 7004 C 667.711 -1.05885 3.41355 0
M  V30 7005 C 667.54 0.00998209 4.49699 0
M  V30 7006 C 666.31 0.450229 5.0329 0
M  V30 7007 C 668.508 0.800174 5.08037 0
M  V30 7008 N 666.49 1.50227 5.95235 0
M  V30 7009 C 667.861 1.70279 5.96158 0
M  V30 7010 C 669.916 0.848344 4.9062 0
M  V30 7011 C 668.619 2.64945 6.68728 0
M  V30 7012 C 670.645 1.78281 5.63888 0
M  V30 7013 C 670.007 2.67296 6.51715 0
M  V30 7014 H 666.106 -0.152891 0.766908 0
M  V30 7015 H 668.69 0.23737 1.93248 0
M  V30 7016 H 666.861 -1.76863 3.45795 0
M  V30 7017 H 668.593 -1.67154 3.68567 0
M  V30 7018 H 665.348 0.0531355 4.7357 0
M  V30 7019 H 665.772 2.02795 6.45913 0
M  V30 7020 H 670.414 0.174228 4.22441 0
M  V30 7021 H 668.132 3.33358 7.36137 0
M  V30 7022 H 671.718 1.82584 5.52408 0
M  V30 7023 H 670.598 3.38428 7.07415 0
M  V30 7024 N 668.101 -1.57061 -0.130224 0
M  V30 7025 C 669.049 -2.00486 -1.17933 0
M  V30 7026 C 670.043 -0.899933 -1.43519 0
M  V30 7027 O 671.249 -1.08514 -1.43613 0
M  V30 7028 H 667.624 -0.638441 -0.397363 0
M  V30 7029 H 669.595 -2.87848 -0.786501 0
M  V30 7030 C 668.344 -2.41565 -2.50084 0
M  V30 7031 H 667.667 -3.26148 -2.31231 0
M  V30 7032 H 669.107 -2.75757 -3.22078 0
M  V30 7033 C 667.566 -1.27485 -3.11848 0
M  V30 7034 O 668.096 -0.584688 -3.97422 0
M  V30 7035 N 666.302 -1.03478 -2.71552 0
M  V30 7036 H 665.849 -1.59779 -2.02061 0
M  V30 7037 H 665.807 -0.27341 -3.13209 0
M  V30 7038 N 669.579 0.400081 -1.52437 0
M  V30 7039 C 670.807 1.16768 -1.70801 0
M  V30 7040 C 671.222 1.84036 -0.421462 0
M  V30 7041 O 670.579 1.72242 0.603228 0
M  V30 7042 C 670.63 2.22403 -2.8499 0
M  V30 7043 O 670.351 1.57879 -4.08663 0
M  V30 7044 C 671.852 3.11974 -3.1494 0
M  V30 7045 H 669.072 0.350533 -0.57216 0
M  V30 7046 H 671.616 0.469534 -1.99037 0
M  V30 7047 H 669.771 2.87871 -2.59247 0
M  V30 7048 H 670.185 2.27982 -4.7236 0
M  V30 7049 H 671.659 3.82148 -3.9833 0
M  V30 7050 H 672.136 3.74858 -2.28863 0
M  V30 7051 H 672.742 2.52165 -3.42481 0
M  V30 7052 O 671.096 1.51991 0.545992 0
M  V30 7053 H 671.787 1.51962 1.20114 0
M  V30 END ATOM
M  V30 BEGIN BOND
M  V30 END BOND
M  V30 END CTAB
M  END
$$$$
