drugbank_target|P16615 Sarcoplasmic/endoplasmic reticulum calcium ATPase 2 (DB06157)
 OpenBabel12092120333D

  0  0  0     0  0            999 V3000
M  V30 BEGIN CTAB
M  V30 COUNTS 16176 16330 0 0 0
M  V30 BEGIN ATOM
M  V30 1 H -0.908 1.98254 -0.117106 0
M  V30 2 N 0 1.576 0 0
M  V30 3 C 0.933 2.03868 1.02534 0
M  V30 4 C 1.911 0.928543 1.3348 0
M  V30 5 O 3.095 1.19667 1.45644 0
M  V30 6 C 0.222 2.43627 2.35294 0
M  V30 7 C -0.732 3.65373 2.2001 0
M  V30 8 S 0.101 5.13292 1.52614 0
M  V30 9 C 1.257 5.56322 2.86805 0
M  V30 10 H 1.49 2.90518 0.631377 0
M  V30 11 H -0.977 1.52953 0.210867 0
M  V30 12 H 0.981 2.67203 3.11629 0
M  V30 13 H -0.358 1.57376 2.7183 0
M  V30 14 H -1.165 3.90944 3.18086 0
M  V30 15 H -1.563 3.418 1.51819 0
M  V30 16 H 0.729 5.58782 3.83104 0
M  V30 17 H 1.672 6.56266 2.65933 0
M  V30 18 H 2.08 4.83886 2.90714 0
M  V30 19 N 1.4781 -0.272755 1.55222 0
M  V30 20 C 2.3881 -1.35918 1.91216 0
M  V30 21 C 3.4041 -1.54026 0.809436 0
M  V30 22 O 4.5801 -1.68148 1.10852 0
M  V30 23 C 1.6451 -2.69834 2.17693 0
M  V30 24 C 0.7061 -2.6047 3.41253 0
M  V30 25 C -0.0609 -3.88 3.66458 0
M  V30 26 O 0.1621 -4.88693 2.94169 0
M  V30 27 O -0.9039 -3.88189 4.59992 0
M  V30 28 H 2.9221 -1.0839 2.83699 0
M  V30 29 H 0.5071 -0.471301 1.41771 0
M  V30 30 H 2.3891 -3.49017 2.36147 0
M  V30 31 H 1.0641 -2.97148 1.28392 0
M  V30 32 H -0.0289 -1.79663 3.28134 0
M  V30 33 H 1.3041 -2.38106 4.30774 0
M  V30 34 N 2.9562 -1.48159 -0.537278 0
M  V30 35 C 3.9042 -1.62573 -1.66352 0
M  V30 36 C 4.8982 -0.492366 -1.62087 0
M  V30 37 O 6.1042 -0.670847 -1.67032 0
M  V30 38 H 2.4792 -0.511992 -0.550789 0
M  V30 39 H 4.4502 -2.57176 -1.51337 0
M  V30 40 C 3.1992 -1.67583 -3.04649 0
M  V30 41 H 2.5222 -2.54151 -3.08622 0
M  V30 42 H 3.9622 -1.81713 -3.83088 0
M  V30 43 C 2.4212 -0.413039 -3.34358 0
M  V30 44 O 2.9512 0.477259 -3.98855 0
M  V30 45 N 1.1572 -0.286961 -2.8918 0
M  V30 46 H 0.7042 -1.01241 -2.36871 0
M  V30 47 H 0.6622 0.556963 -3.09427 0
M  V30 48 N 4.4343 0.785586 -1.36625 0
M  V30 49 C 5.3973 1.87999 -1.31107 0
M  V30 50 C 6.3973 1.59316 -0.217959 0
M  V30 51 O 7.5873 1.67656 -0.472977 0
M  V30 52 C 4.7193 3.24861 -1.03334 0
M  V30 53 H 5.9123 1.94307 -2.2844 0
M  V30 54 H 3.4653 0.983813 -1.21453 0
M  V30 55 H 4.2003 3.24235 -0.0647432 0
M  V30 56 H 3.9853 3.4707 -1.82441 0
M  V30 57 H 5.4753 4.04929 -1.02088 0
M  V30 58 N 5.9124 1.20967 1.01018 0
M  V30 59 C 6.8624 0.93182 2.08089 0
M  V30 60 C 7.8464 -0.110898 1.60517 0
M  V30 61 O 9.0384 0.0973392 1.76732 0
M  V30 62 C 6.1674 0.492719 3.39746 0
M  V30 63 C 5.2534 1.56922 3.94 0
M  V30 64 N 5.6444 2.79312 4.21686 0
M  V30 65 C 3.9424 1.43688 4.2222 0
M  V30 66 C 4.6434 3.48797 4.65527 0
M  V30 67 N 3.6194 2.76224 4.68189 0
M  V30 68 H 7.4214 1.86175 2.27412 0
M  V30 69 H 4.9354 1.10463 1.19045 0
M  V30 70 H 6.9324 0.275044 4.15992 0
M  V30 71 H 5.5924 -0.430509 3.21833 0
M  V30 72 H 6.6034 3.15903 4.10397 0
M  V30 73 H 3.2804 0.578548 4.13472 0
M  V30 74 H 4.6704 4.53561 4.95714 0
M  V30 75 N 7.3905 -1.2043 1.01659 0
M  V30 76 C 8.6185 -1.93777 0.725132 0
M  V30 77 C 9.0335 -1.74772 -0.714166 0
M  V30 78 O 8.3905 -1.06169 -1.4844 0
M  V30 79 C 8.4415 -3.45876 1.05129 0
M  V30 80 O 8.1625 -3.6426 2.43406 0
M  V30 81 C 9.6635 -4.36368 0.780891 0
M  V30 82 H 6.8835 -0.615901 0.266284 0
M  V30 83 H 9.4275 -1.52922 1.35776 0
M  V30 84 H 7.5825 -3.8461 0.464065 0
M  V30 85 H 7.9965 -4.58246 2.55169 0
M  V30 86 H 9.4705 -5.41743 1.05918 0
M  V30 87 H 9.9475 -4.38275 -0.284937 0
M  V30 88 H 10.5535 -4.03296 1.35027 0
M  V30 89 N 8.8686 -0.792821 -1.36206 0
M  V30 90 C 9.8156 -0.191653 -2.30003 0
M  V30 91 C 10.7856 0.666453 -1.52143 0
M  V30 92 O 11.9706 0.61442 -1.80636 0
M  V30 93 C 9.1106 0.664848 -3.38635 0
M  V30 94 C 8.2236 -0.212175 -4.31479 0
M  V30 95 C 7.3586 0.651022 -5.27196 0
M  V30 96 C 6.3976 -0.227247 -6.11678 0
M  V30 97 N 5.5346 0.595127 -6.99573 0
M  V30 98 H 10.3746 -0.996978 -2.80828 0
M  V30 99 H 7.9116 -0.503206 -1.38225 0
M  V30 100 H 9.8696 1.17645 -4.00269 0
M  V30 101 H 8.4996 1.43557 -2.89122 0
M  V30 102 H 7.5516 -0.841777 -3.70969 0
M  V30 103 H 8.8636 -0.888751 -4.90818 0
M  V30 104 H 8.0176 1.2283 -5.94136 0
M  V30 105 H 6.7566 1.36121 -4.68319 0
M  V30 106 H 5.7616 -0.816904 -5.43697 0
M  V30 107 H 6.9866 -0.93509 -6.72631 0
M  V30 108 H 4.9326 1.28955 -6.432 0
M  V30 109 H 4.8496 -0.0236952 -7.55996 0
M  V30 110 H 6.1176 1.15613 -7.70879 0
M  V30 111 N 10.3467 1.47872 -0.545128 0
M  V30 112 C 11.5747 2.06889 -0.021084 0
M  V30 113 C 11.9897 1.39955 1.2672 0
M  V30 114 O 11.3467 0.492036 1.75742 0
M  V30 115 C 11.3977 3.60996 0.190817 0
M  V30 116 O 11.1187 4.25419 -1.04644 0
M  V30 117 C 12.6197 4.36849 0.753521 0
M  V30 118 H 9.8397 0.669785 -0.0403635 0
M  V30 119 H 12.3837 1.90049 -0.755095 0
M  V30 120 H 10.5387 3.77391 0.87492 0
M  V30 121 H 10.9527 5.17785 -0.836611 0
M  V30 122 H 12.4267 5.45399 0.851139 0
M  V30 123 H 12.9037 4.02306 1.762 0
M  V30 124 H 13.5097 4.25169 0.105503 0
M  V30 125 N 11.8248 0.280983 1.55075 0
M  V30 126 C 13.0708 -0.33461 2.00021 0
M  V30 127 C 13.4038 -1.55063 1.16915 0
M  V30 128 O 12.6788 -1.93006 0.240646 0
M  V30 129 C 12.9618 -0.711007 3.53011 0
M  V30 130 C 12.8148 0.512766 4.46868 0
M  V30 131 C 14.1338 -1.54522 4.12081 0
M  V30 132 H 11.2528 -0.120147 0.727141 0
M  V30 133 H 13.8948 0.389097 1.85973 0
M  V30 134 H 12.0448 -1.32761 3.65112 0
M  V30 135 H 13.7168 1.15131 4.46702 0
M  V30 136 H 11.9598 1.14975 4.18286 0
M  V30 137 H 12.6308 0.205556 5.51617 0
M  V30 138 H 15.1068 -1.02442 4.03293 0
M  V30 139 H 13.9828 -1.77739 5.19327 0
M  V30 140 H 14.2438 -2.52813 3.62682 0
M  V30 141 N 13.3029 -1.57598 0.00835791 0
M  V30 142 C 14.2129 -2.12385 -0.996487 0
M  V30 143 C 15.2289 -1.07108 -1.37127 0
M  V30 144 O 16.4049 -1.39055 -1.4569 0
M  V30 145 C 13.4699 -2.62314 -2.26699 0
M  V30 146 C 12.5309 -3.82225 -1.95456 0
M  V30 147 C 11.7639 -4.29763 -3.16449 0
M  V30 148 O 11.9869 -3.76584 -4.28416 0
M  V30 149 O 10.9209 -5.21832 -2.99958 0
M  V30 150 H 14.7469 -2.98479 -0.560725 0
M  V30 151 H 12.3319 -1.47903 -0.210987 0
M  V30 152 H 14.2139 -2.94589 -3.01322 0
M  V30 153 H 12.8889 -1.79313 -2.69497 0
M  V30 154 H 11.7959 -3.54909 -1.18282 0
M  V30 155 H 13.1289 -4.66324 -1.57489 0
M  V30 156 N 14.781 0.264519 -1.55364 0
M  V30 157 C 15.691 1.34902 -1.91934 0
M  V30 158 C 16.707 1.53595 -0.817593 0
M  V30 159 O 17.883 1.67558 -1.11742 0
M  V30 160 C 14.948 2.68676 -2.19121 0
M  V30 161 C 14.009 2.58657 -3.4263 0
M  V30 162 C 13.242 3.86051 -3.68511 0
M  V30 163 O 13.465 4.87126 -2.96757 0
M  V30 164 O 12.399 3.85744 -4.62045 0
M  V30 165 H 16.225 1.06883 -2.8427 0
M  V30 166 H 13.81 0.463775 -1.42019 0
M  V30 167 H 15.692 3.47759 -2.37995 0
M  V30 168 H 14.367 2.96463 -1.29966 0
M  V30 169 H 13.274 1.7792 -3.29082 0
M  V30 170 H 14.607 2.35818 -4.32031 0
M  V30 171 N 16.2591 1.48442 0.529413 0
M  V30 172 C 17.5051 1.5672 1.28711 0
M  V30 173 C 17.8381 0.2406 1.92704 0
M  V30 174 O 17.1131 -0.753454 1.79313 0
M  V30 175 C 17.3961 2.70587 2.37603 0
M  V30 176 C 17.2491 4.12953 1.78297 0
M  V30 177 C 18.5681 2.80212 3.39366 0
M  V30 178 H 15.6871 0.570474 0.466613 0
M  V30 179 H 18.3291 1.80617 0.589706 0
M  V30 180 H 16.4791 2.50342 2.97088 0
M  V30 181 H 18.1511 4.44639 1.22858 0
M  V30 182 H 16.3941 4.19927 1.0883 0
M  V30 183 H 17.0651 4.88448 2.57144 0
M  V30 184 H 19.5411 2.98553 2.89836 0
M  V30 185 H 18.4171 3.61611 4.12951 0
M  V30 186 H 18.6781 1.88393 3.99951 0
M  V30 187 N 17.7372 -0.778329 1.37039 0
M  V30 188 C 18.6672 -1.90546 1.34962 0
M  V30 189 C 19.6482 -1.68681 0.219274 0
M  V30 190 O 20.8332 -1.89634 0.418624 0
M  V30 191 C 17.9632 -3.27734 1.14925 0
M  V30 192 C 16.9172 -3.64147 2.24902 0
M  V30 193 C 16.2432 -4.99806 1.89996 0
M  V30 194 C 17.5432 -3.71579 3.67051 0
M  V30 195 H 19.2372 -1.92541 2.29277 0
M  V30 196 H 16.7832 -0.924948 1.10366 0
M  V30 197 H 18.7362 -4.06215 1.12104 0
M  V30 198 H 17.4602 -3.26154 0.170631 0
M  V30 199 H 16.1192 -2.8797 2.26868 0
M  V30 200 H 15.7672 -4.94759 0.906796 0
M  V30 201 H 15.4672 -5.25139 2.63634 0
M  V30 202 H 16.9912 -5.80694 1.88749 0
M  V30 203 H 18.4052 -4.40227 3.67251 0
M  V30 204 H 16.8022 -4.08405 4.39688 0
M  V30 205 H 17.8722 -2.72404 4.01154 0
M  V30 206 N 19.2153 -1.21501 -1.00376 0
M  V30 207 C 20.4633 -1.03095 -1.73827 0
M  V30 208 C 20.7843 0.436341 -1.90055 0
M  V30 209 O 20.0543 1.31466 -1.45236 0
M  V30 210 H 18.6343 -0.378487 -0.644016 0
M  V30 211 H 21.2963 -1.52831 -1.20949 0
M  V30 212 H 20.3923 -1.49991 -2.73695 0
M  V30 213 N 20.6934 1.19889 -1.02296 0
M  V30 214 C 21.6434 2.20777 -0.56934 0
M  V30 215 C 22.6274 1.56379 0.378741 0
M  V30 216 O 23.8194 1.75859 0.200673 0
M  V30 217 C 20.9484 3.43196 0.0845077 0
M  V30 218 C 20.0344 4.14749 -0.88566 0
M  V30 219 N 20.4254 4.62584 -2.04573 0
M  V30 220 C 18.7234 4.40347 -0.707835 0
M  V30 221 C 19.4244 5.17466 -2.65714 0
M  V30 222 N 18.4004 5.0791 -1.93723 0
M  V30 223 H 22.2024 2.55434 -1.45365 0
M  V30 224 H 19.7164 1.35897 -0.88915 0
M  V30 225 H 21.7134 4.14707 0.427067 0
M  V30 226 H 20.3734 3.10042 0.964574 0
M  V30 227 H 21.3844 4.57597 -2.4254 0
M  V30 228 H 18.0614 4.17317 0.12364 0
M  V30 229 H 19.4514 5.64808 -3.63925 0
M  V30 230 N 22.1715 0.800033 1.35784 0
M  V30 231 C 23.4185 0.377342 1.98953 0
M  V30 232 C 23.7465 -1.05378 1.6348 0
M  V30 233 O 23.0015 -1.74459 0.886707 0
M  V30 234 C 23.3005 0.500276 3.53881 0
M  V30 235 C 22.9665 1.89375 4.09204 0
M  V30 236 C 21.6285 2.27499 4.24025 0
M  V30 237 C 23.9805 2.8057 4.39238 0
M  V30 238 C 21.3085 3.562 4.66195 0
M  V30 239 C 23.6605 4.0871 4.82844 0
M  V30 240 C 22.3245 4.46843 4.95871 0
M  V30 241 H 21.5945 0.138079 0.728021 0
M  V30 242 H 24.2415 1.01955 1.62103 0
M  V30 243 H 22.5465 -0.225405 3.91151 0
M  V30 244 H 24.2435 0.154097 4.00704 0
M  V30 245 H 20.8335 1.58753 3.98115 0
M  V30 246 H 25.0175 2.52367 4.27346 0
M  V30 247 H 20.2735 3.85602 4.74469 0
M  V30 248 H 24.4475 4.79481 5.05046 0
M  V30 249 H 22.0745 5.46623 5.28306 0
M  V30 250 N 23.6496 -1.47581 0.552962 0
M  V30 251 C 24.8976 -2.02082 0.0272703 0
M  V30 252 C 25.2186 -1.4301 -1.32563 0
M  V30 253 O 24.4886 -0.603745 -1.86365 0
M  V30 254 H 23.0686 -0.746966 0.00709182 0
M  V30 255 H 25.7306 -1.81033 0.722008 0
M  V30 256 H 24.8266 -3.12034 -0.0639951 0
M  V30 257 N 25.1277 -0.289203 -1.54924 0
M  V30 258 C 26.3737 0.323998 -2.00195 0
M  V30 259 C 26.7067 1.54441 -1.17735 0
M  V30 260 O 25.9817 1.92875 -0.250878 0
M  V30 261 C 26.2647 0.692276 -3.53383 0
M  V30 262 C 26.1177 -0.536457 -4.46589 0
M  V30 263 C 27.4367 1.52335 -4.12895 0
M  V30 264 H 24.5557 0.116289 -0.727768 0
M  V30 265 H 27.1977 -0.398954 -1.85764 0
M  V30 266 H 25.3477 1.30822 -3.65811 0
M  V30 267 H 27.0197 -1.17499 -4.46085 0
M  V30 268 H 25.2627 -1.17192 -4.1767 0
M  V30 269 H 25.9337 -0.234806 -5.515 0
M  V30 270 H 28.4097 1.00302 -4.0383 0
M  V30 271 H 27.2857 1.74982 -5.20262 0
M  V30 272 H 27.5467 2.50886 -3.64018 0
M  V30 273 N 26.6058 1.57591 -0.0167156 0
M  V30 274 C 27.5538 2.10604 0.987353 0
M  V30 275 C 28.5478 1.02977 1.34507 0
M  V30 276 O 29.7538 1.21425 1.32875 0
M  V30 277 H 26.1288 0.672695 0.336134 0
M  V30 278 H 28.0998 2.93925 0.514817 0
M  V30 279 C 26.8488 2.6382 2.26483 0
M  V30 280 H 26.1718 3.46278 1.99829 0
M  V30 281 H 27.6118 3.04573 2.94977 0
M  V30 282 C 26.0708 1.55992 2.9861 0
M  V30 283 O 26.6008 0.952521 3.90243 0
M  V30 284 N 24.8068 1.28335 2.60727 0
M  V30 285 H 24.3538 1.77914 1.86291 0
M  V30 286 H 24.3118 0.564115 3.09298 0
M  V30 287 N 28.0839 -0.256276 1.55502 0
M  V30 288 C 28.9939 -1.33882 1.92647 0
M  V30 289 C 30.0099 -1.53159 0.825727 0
M  V30 290 O 31.1859 -1.66963 1.12629 0
M  V30 291 C 28.2509 -2.6751 2.20543 0
M  V30 292 C 27.3119 -2.56836 3.43997 0
M  V30 293 C 26.5449 -3.84092 3.70553 0
M  V30 294 O 26.7679 -4.85545 2.99336 0
M  V30 295 O 25.7019 -3.83288 4.64084 0
M  V30 296 H 29.5279 -1.05374 2.84833 0
M  V30 297 H 27.1129 -0.456237 1.42263 0
M  V30 298 H 28.9949 -3.46492 2.39835 0
M  V30 299 H 27.6699 -2.9577 1.31536 0
M  V30 300 H 26.5769 -1.76172 3.30021 0
M  V30 301 H 27.9099 -2.33523 4.33275 0
M  V30 302 N 29.562 -1.4872 -0.521534 0
M  V30 303 C 30.787 -1.61101 -1.30618 0
M  V30 304 C 31.212 -0.274611 -1.86085 0
M  V30 305 O 30.57 0.754937 -1.64834 0
M  V30 306 C 30.618 -2.66709 -2.4269 0
M  V30 307 O 29.722 -2.24456 -3.45967 0
M  V30 308 H 29.063 -0.539921 -0.386499 0
M  V30 309 H 31.593 -1.94767 -0.626645 0
M  V30 310 H 31.603 -2.88245 -2.88754 0
M  V30 311 H 30.278 -3.63727 -2.01682 0
M  V30 312 H 28.855 -2.13168 -3.05964 0
M  V30 313 N 31.0401 0.771051 -1.3745 0
M  V30 314 C 32.2681 1.56015 -1.35893 0
M  V30 315 C 32.6831 1.88718 0.0555523 0
M  V30 316 O 32.0401 1.51502 1.01752 0
M  V30 317 C 32.0911 2.87001 -2.19801 0
M  V30 318 O 31.8121 2.557 -3.55738 0
M  V30 319 C 33.3131 3.81228 -2.26231 0
M  V30 320 H 30.5331 0.483317 -0.465453 0
M  V30 321 H 33.0771 0.955611 -1.80799 0
M  V30 322 H 31.2321 3.43877 -1.78402 0
M  V30 323 H 31.6461 3.39584 -3.99729 0
M  V30 324 H 33.1201 4.70139 -2.89263 0
M  V30 325 H 33.5971 4.20409 -1.27093 0
M  V30 326 H 34.2031 3.30281 -2.67945 0
M  V30 327 N 32.5182 1.22032 0.997298 0
M  V30 328 C 33.7662 1.04016 1.73278 0
M  V30 329 C 34.0872 -0.426255 1.90284 0
M  V30 330 O 33.3572 -1.30694 1.45931 0
M  V30 331 H 31.9372 0.381897 0.642 0
M  V30 332 H 34.5992 1.5347 1.20137 0
M  V30 333 H 33.6952 1.51441 2.72896 0
M  V30 334 N 33.9963 -1.19345 1.0293 0
M  V30 335 C 34.9263 -2.2481 0.631105 0
M  V30 336 C 35.9073 -1.66245 -0.360104 0
M  V30 337 O 37.0923 -1.92677 -0.242726 0
M  V30 338 C 34.2223 -3.47295 -0.0184607 0
M  V30 339 C 33.1763 -4.18536 0.895073 0
M  V30 340 C 32.5023 -5.34586 0.110592 0
M  V30 341 C 33.8023 -4.73287 2.209 0
M  V30 342 H 35.4963 -2.58372 1.51275 0
M  V30 343 H 33.0423 -1.24194 0.728818 0
M  V30 344 H 34.9953 -4.20268 -0.308675 0
M  V30 345 H 33.7193 -3.12933 -0.934907 0
M  V30 346 H 32.3783 -3.47446 1.16949 0
M  V30 347 H 32.0263 -4.96469 -0.807902 0
M  V30 348 H 31.7263 -5.83183 0.719087 0
M  V30 349 H 33.2503 -6.10355 -0.172871 0
M  V30 350 H 34.6643 -5.38013 1.98028 0
M  V30 351 H 33.0613 -5.32373 2.76946 0
M  V30 352 H 34.1313 -3.91331 2.86336 0
M  V30 353 N 35.4744 -0.807222 -1.35358 0
M  V30 354 C 36.6994 -0.399309 -2.0352 0
M  V30 355 C 37.1244 0.981986 -1.60433 0
M  V30 356 O 36.4824 1.63601 -0.781299 0
M  V30 357 C 36.5304 -0.491552 -3.57234 0
M  V30 358 O 35.6344 0.494754 -4.09421 0
M  V30 359 H 34.9754 -0.166682 -0.642739 0
M  V30 360 H 37.5054 -1.09328 -1.72941 0
M  V30 361 H 37.5154 -0.361588 -4.06395 0
M  V30 362 H 36.1904 -1.49907 -3.87944 0
M  V30 363 H 34.7674 0.324977 -3.71481 0
M  V30 364 N 36.9525 1.47285 -0.560781 0
M  V30 365 C 37.8825 2.32857 0.173105 0
M  V30 366 C 38.8635 1.44009 0.905281 0
M  V30 367 O 40.0485 1.7286 0.885046 0
M  V30 368 C 37.1785 3.25861 1.20133 0
M  V30 369 C 36.1325 4.23978 0.585388 0
M  V30 370 C 35.4585 5.06332 1.7185 0
M  V30 371 C 36.7585 5.20242 -0.463178 0
M  V30 372 H 38.4525 2.94466 -0.541307 0
M  V30 373 H 35.9985 1.41601 -0.261764 0
M  V30 374 H 37.9515 3.84569 1.72293 0
M  V30 375 H 36.6755 2.62315 1.94573 0
M  V30 376 H 35.3345 3.66501 0.085054 0
M  V30 377 H 34.9825 4.39186 2.45203 0
M  V30 378 H 34.6825 5.72762 1.31213 0
M  V30 379 H 36.2065 5.67899 2.24329 0
M  V30 380 H 37.6205 5.73293 -0.027502 0
M  V30 381 H 36.0175 5.94896 -0.788627 0
M  V30 382 H 37.0875 4.65504 -1.35773 0
M  V30 383 N 38.4306 0.297415 1.54768 0
M  V30 384 C 39.3406 -0.58983 2.27064 0
M  V30 385 C 40.3566 -1.15144 1.30453 0
M  V30 386 O 41.5326 -1.17699 1.63428 0
M  V30 387 C 38.5976 -1.74714 2.9946 0
M  V30 388 C 37.6586 -1.21997 4.11601 0
M  V30 389 C 36.8916 -2.32212 4.80535 0
M  V30 390 O 37.1146 -3.52036 4.48806 0
M  V30 391 O 36.0486 -1.99106 5.68014 0
M  V30 392 H 39.8746 -0.00348199 3.037 0
M  V30 393 H 37.4596 0.0640035 1.49263 0
M  V30 394 H 39.3416 -2.42147 3.44881 0
M  V30 395 H 38.0166 -2.32016 2.25722 0
M  V30 396 H 36.9236 -0.511458 3.70587 0
M  V30 397 H 38.2566 -0.692419 4.87305 0
M  V30 398 N 39.9087 -1.5758 0.0250728 0
M  V30 399 C 40.8407 -2.06869 -0.986796 0
M  V30 400 C 41.8537 -0.991332 -1.29137 0
M  V30 401 O 43.0427 -1.26761 -1.25674 0
M  V30 402 C 40.1427 -2.47486 -2.31525 0
M  V30 403 C 39.3157 -3.78253 -2.19643 0
M  V30 404 C 38.3747 -4.05464 -3.35388 0
M  V30 405 O 37.4007 -4.75774 -3.12454 0
M  V30 406 N 38.6027 -3.55321 -4.59051 0
M  V30 407 H 41.3677 -2.94302 -0.566276 0
M  V30 408 H 38.9287 -1.6109 -0.161776 0
M  V30 409 H 40.9207 -2.62785 -3.07776 0
M  V30 410 H 39.4907 -1.65441 -2.65232 0
M  V30 411 H 38.7107 -3.7279 -1.28144 0
M  V30 412 H 39.9987 -4.63936 -2.08903 0
M  V30 413 H 39.3967 -2.98431 -4.80578 0
M  V30 414 H 37.9537 -3.75905 -5.32483 0
M  V30 415 N 41.3868 0.248026 -1.55636 0
M  V30 416 C 42.6328 0.97767 -1.77678 0
M  V30 417 C 42.9658 1.85016 -0.590135 0
M  V30 418 O 42.2408 1.90095 0.411611 0
M  V30 419 C 42.5238 1.83914 -3.09593 0
M  V30 420 C 42.3768 0.99491 -4.38659 0
M  V30 421 C 43.6958 2.82183 -3.37729 0
M  V30 422 H 40.8148 0.354005 -0.646413 0
M  V30 423 H 43.4568 0.248253 -1.88371 0
M  V30 424 H 41.6068 2.46104 -3.00608 0
M  V30 425 H 43.2788 0.391789 -4.59633 0
M  V30 426 H 41.5218 0.299231 -4.32767 0
M  V30 427 H 42.1928 1.63145 -5.2734 0
M  V30 428 H 44.6688 2.30129 -3.4667 0
M  V30 429 H 43.5448 3.39582 -4.31249 0
M  V30 430 H 43.8058 3.58588 -2.58586 0
M  V30 431 N 42.8649 1.48995 0.513639 0
M  V30 432 C 43.8119 1.6473 1.61656 0
M  V30 433 C 44.7819 0.488984 1.58739 0
M  V30 434 O 45.9669 0.714478 1.76918 0
M  V30 435 C 43.1069 1.7082 2.99858 0
M  V30 436 C 42.2199 2.9787 3.12885 0
M  V30 437 C 41.3549 2.95017 4.41744 0
M  V30 438 C 40.3939 4.16702 4.48359 0
M  V30 439 N 39.5309 4.11832 5.68629 0
M  V30 440 H 44.3709 2.58909 1.47547 0
M  V30 441 H 41.9079 1.28382 0.71808 0
M  V30 442 H 43.8659 1.72331 3.79944 0
M  V30 443 H 42.4959 0.801181 3.12699 0
M  V30 444 H 41.5479 3.06029 2.25944 0
M  V30 445 H 42.8599 3.8786 3.13633 0
M  V30 446 H 42.0139 2.95021 5.30139 0
M  V30 447 H 40.7529 2.02784 4.43542 0
M  V30 448 H 39.7579 4.16955 3.58369 0
M  V30 449 H 40.9829 5.10113 4.48287 0
M  V30 450 H 38.9289 3.22428 5.71293 0
M  V30 451 H 38.8459 4.95543 5.7094 0
M  V30 452 H 40.1139 4.1592 6.59266 0
M  V30 453 N 44.343 -0.763751 1.37857 0
M  V30 454 C 45.29 -1.87726 1.34267 0
M  V30 455 C 46.26 -1.64807 0.206879 0
M  V30 456 O 47.445 -1.86613 0.397508 0
M  V30 457 C 44.585 -3.24896 1.16346 0
M  V30 458 C 43.698 -3.59716 2.39225 0
M  V30 459 C 42.833 -4.86137 2.14114 0
M  V30 460 C 41.872 -5.13711 3.32817 0
M  V30 461 N 41.009 -6.31323 3.07206 0
M  V30 462 H 45.849 -1.90129 2.29466 0
M  V30 463 H 43.386 -0.929433 1.14017 0
M  V30 464 H 45.344 -4.04036 1.03975 0
M  V30 465 H 43.974 -3.21847 0.247909 0
M  V30 466 H 43.026 -2.75498 2.62307 0
M  V30 467 H 44.338 -3.76027 3.27728 0
M  V30 468 H 43.492 -5.73198 1.9882 0
M  V30 469 H 42.231 -4.71945 1.22961 0
M  V30 470 H 41.236 -4.25123 3.48641 0
M  V30 471 H 42.461 -5.29807 4.24832 0
M  V30 472 H 40.407 -6.18474 2.1869 0
M  V30 473 H 40.324 -6.48087 3.89254 0
M  V30 474 H 41.592 -7.213 2.95546 0
M  V30 475 N 45.8211 -1.22559 -0.990812 0
M  V30 476 C 46.7511 -1.0218 -2.09956 0
M  V30 477 C 47.7321 0.0579394 -1.70001 0
M  V30 478 O 48.9171 -0.104684 -1.93918 0
M  V30 479 C 46.0471 -0.601023 -3.4206 0
M  V30 480 C 45.0011 -1.62694 -3.95872 0
M  V30 481 C 44.3271 -1.06193 -5.24049 0
M  V30 482 C 45.6271 -3.01743 -4.2632 0
M  V30 483 H 47.3211 -1.94916 -2.27262 0
M  V30 484 H 44.8671 -0.938566 -1.09211 0
M  V30 485 H 46.8201 -0.445561 -4.19038 0
M  V30 486 H 45.5441 0.362005 -3.24588 0
M  V30 487 H 44.2031 -1.77021 -3.21028 0
M  V30 488 H 43.8511 -0.0901903 -5.02919 0
M  V30 489 H 43.5511 -1.74732 -5.61019 0
M  V30 490 H 45.0751 -0.918092 -6.03658 0
M  V30 491 H 46.4891 -2.90777 -4.94087 0
M  V30 492 H 44.8861 -3.67425 -4.74467 0
M  V30 493 H 45.9561 -3.51518 -3.34011 0
M  V30 494 N 47.2992 1.18797 -1.03562 0
M  V30 495 C 48.2462 2.22253 -0.622259 0
M  V30 496 C 49.2162 1.61987 0.36736 0
M  V30 497 O 50.4012 1.88986 0.262492 0
M  V30 498 C 47.5412 3.45097 0.0138462 0
M  V30 499 C 46.6542 4.19722 -1.02263 0
M  V30 500 C 45.7892 5.30009 -0.355573 0
M  V30 501 C 44.8282 5.96399 -1.37749 0
M  V30 502 N 43.9652 6.98234 -0.735766 0
M  V30 503 H 48.8052 2.56968 -1.50903 0
M  V30 504 H 46.3422 1.26245 -0.755017 0
M  V30 505 H 48.3002 4.15279 0.399948 0
M  V30 506 H 46.9302 3.11018 0.864158 0
M  V30 507 H 45.9822 3.48418 -1.52673 0
M  V30 508 H 47.2942 4.65227 -1.79903 0
M  V30 509 H 46.4482 6.0664 0.0850095 0
M  V30 510 H 45.1872 4.85592 0.452967 0
M  V30 511 H 44.1922 5.18512 -1.82826 0
M  V30 512 H 45.4172 6.42899 -2.18764 0
M  V30 513 H 43.3632 6.55979 0.0525597 0
M  V30 514 H 43.2802 7.41965 -1.44995 0
M  V30 515 H 44.5482 7.78845 -0.31941 0
M  V30 516 N 48.7773 0.814389 1.34928 0
M  V30 517 C 49.6873 0.231978 2.3345 0
M  V30 518 C 50.7033 -0.629139 1.62228 0
M  V30 519 O 51.8793 -0.539052 1.94052 0
M  V30 520 C 48.9443 -0.603482 3.41407 0
M  V30 521 C 48.0053 0.279037 4.28392 0
M  V30 522 C 47.2383 -0.516643 5.31193 0
M  V30 523 O 47.4613 -1.75068 5.4287 0
M  V30 524 O 46.3953 0.0965652 6.01823 0
M  V30 525 H 50.2213 1.04721 2.85074 0
M  V30 526 H 47.8063 0.576343 1.37836 0
M  V30 527 H 49.6883 -1.07908 4.0735 0
M  V30 528 H 48.3633 -1.39618 2.92042 0
M  V30 529 H 47.2703 0.801948 3.65403 0
M  V30 530 H 48.6033 1.03588 4.81176 0
M  V30 531 N 50.2554 -1.46986 0.568584 0
M  V30 532 C 51.6714 -1.57946 0.229189 0
M  V30 533 C 51.8714 -1.56567 -1.26843 0
M  V30 534 O 50.9274 -1.47511 -2.04931 0
M  V30 535 C 52.2404 -2.87963 0.865909 0
M  V30 536 C 53.7884 -3.01568 0.838188 0
M  V30 537 C 54.2634 -4.34301 1.45419 0
M  V30 538 N 55.7544 -4.40965 1.41788 0
M  V30 539 C 56.4894 -5.42256 1.86403 0
M  V30 540 N 55.9854 -6.50297 2.38926 0
M  V30 541 N 57.7784 -5.3337 1.77405 0
M  V30 542 H 49.9294 -1.46126 1.54146 0
M  V30 543 H 52.1924 -0.696156 0.643484 0
M  V30 544 H 51.8984 -2.94742 1.91886 0
M  V30 545 H 51.7724 -3.75423 0.365687 0
M  V30 546 H 54.1594 -2.94379 -0.206106 0
M  V30 547 H 54.2404 -2.1562 1.37629 0
M  V30 548 H 53.8844 -4.42247 2.49761 0
M  V30 549 H 53.8144 -5.19 0.891435 0
M  V30 550 H 56.3054 -3.63484 1.03381 0
M  V30 551 H 56.6184 -7.23777 2.70863 0
M  V30 552 H 54.9634 -6.51155 2.42944 0
M  V30 553 H 58.1544 -4.47865 1.3614 0
M  V30 554 H 58.3274 -6.12169 2.12492 0
M  V30 555 N 51.7335 -0.305618 -1.54608 0
M  V30 556 C 52.9795 0.295595 -2.01241 0
M  V30 557 C 53.3345 1.51171 -1.19018 0
M  V30 558 O 52.6275 1.89832 -0.259684 0
M  V30 559 C 52.8215 0.698983 -3.50498 0
M  V30 560 C 52.6505 -0.476491 -4.47168 0
M  V30 561 C 51.4205 -0.969963 -4.95903 0
M  V30 562 C 53.6185 -1.32294 -4.96994 0
M  V30 563 N 51.6005 -2.11172 -5.76437 0
M  V30 564 C 52.9715 -2.31212 -5.75275 0
M  V30 565 C 55.0265 -1.35278 -4.7917 0
M  V30 566 C 53.7295 -3.32896 -6.37631 0
M  V30 567 C 55.7555 -2.35823 -5.42348 0
M  V30 568 C 55.1175 -3.33469 -6.20466 0
M  V30 569 H 51.2165 0.0724992 -0.778632 0
M  V30 570 H 53.8005 -0.436583 -1.89742 0
M  V30 571 H 51.9715 1.40032 -3.62278 0
M  V30 572 H 53.7035 1.28013 -3.8392 0
M  V30 573 H 50.4585 -0.544178 -4.70463 0
M  V30 574 H 50.8825 -2.68714 -6.21387 0
M  V30 575 H 55.5245 -0.61157 -4.18354 0
M  V30 576 H 53.2425 -4.07933 -6.97579 0
M  V30 577 H 56.8285 -2.38911 -5.30484 0
M  V30 578 H 55.7085 -4.09996 -6.68485 0
M  V30 579 N 53.2116 1.57565 -0.0334293 0
M  V30 580 C 54.4596 1.91598 0.642999 0
M  V30 581 C 54.7806 0.910847 1.7242 0
M  V30 582 O 54.0506 -0.0469931 1.95844 0
M  V30 583 H 52.6306 0.707228 0.240496 0
M  V30 584 H 55.2926 1.94726 -0.0822488 0
M  V30 585 H 54.3886 2.92336 1.09298 0
M  V30 586 N 54.6897 -0.239769 1.55765 0
M  V30 587 C 55.9147 -0.988373 1.82335 0
M  V30 588 C 56.3397 -1.77886 0.611421 0
M  V30 589 O 55.6977 -1.75889 -0.439639 0
M  V30 590 C 55.7457 -1.89627 3.06715 0
M  V30 591 O 54.8497 -2.98904 2.84131 0
M  V30 592 H 54.1907 -0.280858 0.601677 0
M  V30 593 H 56.7207 -0.258597 2.02959 0
M  V30 594 H 56.7307 -2.30957 3.36338 0
M  V30 595 H 55.4057 -1.31511 3.9456 0
M  V30 596 H 53.9827 -2.61651 2.65694 0
M  V30 597 N 56.1678 -1.49265 -0.50573 0
M  V30 598 C 57.1158 -1.66065 -1.62866 0
M  V30 599 C 58.1098 -0.526636 -1.61006 0
M  V30 600 O 59.3158 -0.706126 -1.65571 0
M  V30 601 H 55.6908 -0.52356 -0.539805 0
M  V30 602 H 57.6618 -2.60329 -1.45848 0
M  V30 603 C 56.4108 -1.74008 -3.01026 0
M  V30 604 H 55.7338 -2.6064 -3.03161 0
M  V30 605 H 57.1738 -1.89798 -3.79147 0
M  V30 606 C 55.6328 -0.483868 -3.33407 0
M  V30 607 O 56.1628 0.392548 -3.99777 0
M  V30 608 N 54.3688 -0.348236 -2.88506 0
M  V30 609 H 53.9158 -1.06242 -2.34671 0
M  V30 610 H 53.8738 0.491204 -3.10539 0
M  V30 611 N 57.6459 0.756429 -1.3826 0
M  V30 612 C 58.5559 1.9009 -1.37488 0
M  V30 613 C 59.5719 1.71855 -0.272366 0
M  V30 614 O 60.7479 1.94827 -0.510318 0
M  V30 615 C 57.8129 3.25421 -1.19592 0
M  V30 616 C 56.8739 3.56202 -2.39622 0
M  V30 617 C 56.1069 4.85075 -2.2257 0
M  V30 618 O 56.3299 5.57246 -1.21793 0
M  V30 619 O 55.2639 5.15269 -3.11098 0
M  V30 620 H 59.0899 1.93695 -2.33914 0
M  V30 621 H 56.6749 0.901313 -1.1915 0
M  V30 622 H 58.5569 4.06337 -1.11661 0
M  V30 623 H 57.2319 3.22634 -0.262486 0
M  V30 624 H 56.1389 2.75458 -2.53128 0
M  V30 625 H 57.4719 3.63747 -3.31586 0
M  V30 626 N 59.124 1.23083 0.984299 0
M  V30 627 C 60.054 1.03292 2.09411 0
M  V30 628 C 61.035 -0.048923 1.7003 0
M  V30 629 O 62.22 0.114967 1.93859 0
M  V30 630 C 59.35 0.619155 3.41736 0
M  V30 631 C 58.304 1.64791 3.95004 0
M  V30 632 C 57.63 1.0897 5.23478 0
M  V30 633 C 58.93 3.03999 4.24714 0
M  V30 634 H 60.624 1.96119 2.26225 0
M  V30 635 H 58.17 0.944344 1.08711 0
M  V30 636 H 60.123 0.467777 4.18796 0
M  V30 637 H 58.847 -0.344786 3.24775 0
M  V30 638 H 57.506 1.78721 3.20085 0
M  V30 639 H 57.154 0.11686 5.02864 0
M  V30 640 H 56.854 1.77704 5.60085 0
M  V30 641 H 58.378 0.950093 6.03163 0
M  V30 642 H 59.792 2.93393 4.92538 0
M  V30 643 H 58.189 3.69936 4.72512 0
M  V30 644 H 59.259 3.53285 3.32142 0
M  V30 645 N 60.6021 -1.18246 1.0419 0
M  V30 646 C 62.0131 -1.69914 0.773698 0
M  V30 647 C 62.3641 -1.83085 -0.705297 0
M  V30 648 O 61.4891 -1.51123 -1.5489 0
M  V30 649 C 62.0841 -3.08619 1.39784 0
M  V30 650 C 60.6431 -3.57494 1.17792 0
M  V30 651 C 59.7901 -2.34013 1.48773 0
M  V30 652 H 62.7411 -1.02904 1.20816 0
M  V30 653 H 62.7621 -3.71958 0.801714 0
M  V30 654 H 62.2741 -2.99001 2.47426 0
M  V30 655 H 60.3751 -3.72406 0.120295 0
M  V30 656 H 60.4881 -4.40852 1.87581 0
M  V30 657 H 58.8521 -2.37986 0.907463 0
M  V30 658 H 59.6351 -2.27013 2.57527 0
M  V30 659 N 62.0802 -0.821533 -1.34494 0
M  V30 660 C 63.0432 -0.247847 -2.27856 0
M  V30 661 C 64.0432 0.573453 -1.50227 0
M  V30 662 O 65.2332 0.389759 -1.69784 0
M  V30 663 C 62.3652 0.652698 -3.34593 0
M  V30 664 H 63.5582 -1.07146 -2.80107 0
M  V30 665 H 61.1112 -0.593291 -1.44602 0
M  V30 666 H 61.8462 1.49943 -2.87555 0
M  V30 667 H 61.6312 0.065292 -3.92046 0
M  V30 668 H 63.1212 1.04793 -4.04238 0
M  V30 669 N 63.5583 1.46682 -0.576371 0
M  V30 670 C 64.4683 2.34032 0.163141 0
M  V30 671 C 65.4843 1.49367 0.892501 0
M  V30 672 O 66.6603 1.82252 0.857106 0
M  V30 673 C 63.7253 3.26435 1.16795 0
M  V30 674 C 62.7863 4.26998 0.443944 0
M  V30 675 C 62.0193 5.14986 1.40088 0
M  V30 676 O 62.2423 5.05785 2.637 0
M  V30 677 O 61.1763 5.94906 0.914917 0
M  V30 678 H 65.0023 2.98607 -0.55388 0
M  V30 679 H 62.5873 1.45554 -0.336821 0
M  V30 680 H 64.4693 3.83459 1.74748 0
M  V30 681 H 63.1443 2.64465 1.86655 0
M  V30 682 H 62.0513 3.7368 -0.177271 0
M  V30 683 H 63.3843 4.91736 -0.213566 0
M  V30 684 N 65.0364 0.313813 1.54444 0
M  V30 685 C 65.9464 -0.565714 2.27677 0
M  V30 686 C 66.9624 -1.13754 1.31666 0
M  V30 687 O 68.1384 -1.15959 1.64668 0
M  V30 688 C 65.2034 -1.71528 3.01296 0
M  V30 689 C 64.2644 -1.17624 4.12872 0
M  V30 690 C 63.4974 -2.27102 4.8297 0
M  V30 691 O 63.7204 -3.47256 4.52514 0
M  V30 692 O 62.6544 -1.9307 5.70094 0
M  V30 693 H 66.4804 0.0287296 3.03686 0
M  V30 694 H 64.0654 0.0798312 1.49187 0
M  V30 695 H 65.9474 -2.38476 3.4743 0
M  V30 696 H 64.6224 -2.29608 2.2817 0
M  V30 697 H 63.5294 -0.472124 3.71109 0
M  V30 698 H 64.8624 -0.640695 4.88012 0
M  V30 699 N 66.5145 -1.57545 0.0417849 0
M  V30 700 C 67.7625 -1.91937 -0.632829 0
M  V30 701 C 68.0835 -0.919978 -1.71934 0
M  V30 702 O 67.3535 0.0366064 -1.95866 0
M  V30 703 H 65.9335 -0.708493 -0.236742 0
M  V30 704 H 68.5955 -1.9468 0.0925745 0
M  V30 705 H 67.6915 -2.92912 -1.07746 0
M  V30 706 N 67.9926 0.231505 -1.5589 0
M  V30 707 C 68.9396 1.28682 -1.91598 0
M  V30 708 C 69.9096 1.47071 -0.771974 0
M  V30 709 O 71.0946 1.60802 -1.027 0
M  V30 710 C 68.2346 2.6342 -2.22944 0
M  V30 711 C 67.3476 2.52912 -3.50228 0
M  V30 712 C 66.4826 3.80106 -3.7107 0
M  V30 713 C 65.5216 3.64279 -4.91902 0
M  V30 714 N 64.6586 4.834 -5.09184 0
M  V30 715 H 69.4986 0.975305 -2.81588 0
M  V30 716 H 67.0356 0.470299 -1.39379 0
M  V30 717 H 68.9936 3.41869 -2.39126 0
M  V30 718 H 67.6236 2.92687 -1.36139 0
M  V30 719 H 66.6756 1.6595 -3.42294 0
M  V30 720 H 67.9876 2.37133 -4.38827 0
M  V30 721 H 67.1416 4.66999 -3.87295 0
M  V30 722 H 65.8806 3.98799 -2.80733 0
M  V30 723 H 64.8856 2.7577 -4.75637 0
M  V30 724 H 66.1106 3.47067 -5.83714 0
M  V30 725 H 64.0566 5.02425 -4.21788 0
M  V30 726 H 63.9736 4.70311 -5.91898 0
M  V30 727 H 65.2416 5.71747 -5.29835 0
M  V30 728 N 69.4707 1.49531 0.497807 0
M  V30 729 C 70.6987 1.62893 1.27567 0
M  V30 730 C 71.1137 0.301585 1.86376 0
M  V30 731 O 70.4707 -0.713335 1.67982 0
M  V30 732 C 70.5217 2.70013 2.40364 0
M  V30 733 O 70.2427 3.976 1.83972 0
M  V30 734 C 71.7437 2.94109 3.31685 0
M  V30 735 H 68.9637 0.548298 0.386794 0
M  V30 736 H 71.5077 1.95584 0.597245 0
M  V30 737 H 69.6627 2.40092 3.04031 0
M  V30 738 H 70.0767 4.56631 2.58047 0
M  V30 739 H 71.5507 3.72788 4.07104 0
M  V30 740 H 72.0277 2.04147 3.88871 0
M  V30 741 H 72.6337 3.2546 2.73781 0
M  V30 742 N 70.9488 -0.749086 1.3866 0
M  V30 743 C 71.8788 -1.8764 1.38973 0
M  V30 744 C 72.8598 -1.68178 0.255004 0
M  V30 745 O 74.0448 -1.88704 0.458754 0
M  V30 746 C 71.1748 -3.25222 1.21851 0
M  V30 747 C 70.1288 -3.59295 2.32575 0
M  V30 748 C 69.4548 -4.95663 2.00555 0
M  V30 749 C 70.7548 -3.63709 3.7485 0
M  V30 750 H 72.4488 -1.87635 2.3331 0
M  V30 751 H 69.9948 -0.901329 1.12303 0
M  V30 752 H 71.9478 -4.03746 1.20695 0
M  V30 753 H 70.6718 -3.25719 0.239775 0
M  V30 754 H 69.3308 -2.83093 2.32925 0
M  V30 755 H 68.9788 -4.92724 1.01154 0
M  V30 756 H 68.6788 -5.19429 2.74714 0
M  V30 757 H 70.2028 -5.7656 2.01024 0
M  V30 758 H 71.6168 -4.32338 3.76506 0
M  V30 759 H 70.0138 -3.98986 4.48252 0
M  V30 760 H 71.0838 -2.63834 4.06841 0
M  V30 761 N 72.4269 -1.23603 -0.977757 0
M  V30 762 C 73.3569 -1.04401 -2.0886 0
M  V30 763 C 74.3379 0.0399052 -1.70053 0
M  V30 764 O 75.5229 -0.125246 -1.93796 0
M  V30 765 C 72.6529 -0.637269 -3.41403 0
M  V30 766 C 71.6069 -1.66883 -3.94124 0
M  V30 767 C 70.9329 -1.11745 -5.22893 0
M  V30 768 C 72.2329 -3.06247 -4.23096 0
M  V30 769 H 73.9269 -1.97316 -2.25182 0
M  V30 770 H 71.4729 -0.950096 -1.08209 0
M  V30 771 H 73.4259 -0.48998 -4.18542 0
M  V30 772 H 72.1499 0.327557 -3.24953 0
M  V30 773 H 70.8089 -1.80416 -3.19133 0
M  V30 774 H 70.4569 -0.143527 -5.02795 0
M  V30 775 H 70.1569 -1.80672 -5.59134 0
M  V30 776 H 71.6809 -0.982067 -6.02651 0
M  V30 777 H 73.0949 -2.96001 -4.90975 0
M  V30 778 H 71.4919 -3.72436 -4.70544 0
M  V30 779 H 72.5619 -3.55041 -3.30263 0
M  V30 780 N 73.905 1.17692 -1.04816 0
M  V30 781 C 74.815 2.25229 -0.65643 0
M  V30 782 C 75.831 1.71018 0.320761 0
M  V30 783 O 77.007 2.00649 0.173805 0
M  V30 784 C 74.072 3.46684 -0.0332629 0
M  V30 785 C 73.133 4.15997 -1.06042 0
M  V30 786 C 72.366 5.31654 -0.466893 0
M  V30 787 O 72.589 5.65777 0.724758 0
M  V30 788 O 71.523 5.89831 -1.1993 0
M  V30 789 H 75.349 2.61016 -1.55255 0
M  V30 790 H 72.934 1.24919 -0.81949 0
M  V30 791 H 74.816 4.20234 0.313256 0
M  V30 792 H 73.491 3.12703 0.836566 0
M  V30 793 H 72.398 3.44482 -1.45886 0
M  V30 794 H 73.731 4.53996 -1.90127 0
M  V30 795 N 75.3831 0.828654 1.34056 0
M  V30 796 C 76.3131 0.269443 2.3194 0
M  V30 797 C 77.2941 -0.617247 1.58506 0
M  V30 798 O 78.4791 -0.542931 1.86456 0
M  V30 799 C 75.6091 -0.564793 3.42677 0
M  V30 800 C 74.5631 0.225241 4.27407 0
M  V30 801 C 73.8891 -0.7321 5.29664 0
M  V30 802 C 75.1891 1.43663 5.02154 0
M  V30 803 H 76.8831 1.08728 2.7896 0
M  V30 804 H 74.4291 0.524283 1.34117 0
M  V30 805 H 76.3821 -0.966233 4.10173 0
M  V30 806 H 75.1061 -1.41574 2.9432 0
M  V30 807 H 73.7651 0.608117 3.61521 0
M  V30 808 H 73.4131 -1.57916 4.77568 0
M  V30 809 H 73.1131 -0.20767 5.87233 0
M  V30 810 H 74.6371 -1.13128 6.00029 0
M  V30 811 H 76.0511 1.1089 5.62473 0
M  V30 812 H 74.4481 1.89711 5.69324 0
M  V30 813 H 75.5181 2.21181 4.31517 0
M  V30 814 N 76.8612 -1.46375 0.584142 0
M  V30 815 C 78.1072 -2.02678 0.0703716 0
M  V30 816 C 78.4402 -1.4545 -1.28678 0
M  V30 817 O 77.7152 -0.62014 -1.84349 0
M  V30 818 C 77.9982 -3.60099 0.00614674 0
M  V30 819 C 77.8512 -4.27709 1.3923 0
M  V30 820 C 79.1702 -4.34598 -0.693742 0
M  V30 821 H 76.2892 -0.736504 0.027047 0
M  V30 822 H 78.9312 -1.74501 0.751615 0
M  V30 823 H 77.0812 -3.84236 -0.574009 0
M  V30 824 H 78.7532 -4.14832 2.01773 0
M  V30 825 H 76.9962 -3.87016 1.95962 0
M  V30 826 H 77.6672 -5.36478 1.29982 0
M  V30 827 H 80.1432 -4.15615 -0.200869 0
M  V30 828 H 79.0192 -5.44318 -0.707714 0
M  V30 829 H 79.2802 -4.05759 -1.75533 0
M  V30 830 N 78.3393 -0.321999 -1.54275 0
M  V30 831 C 79.5883 0.281931 -1.9972 0
M  V30 832 C 79.9013 1.53369 -1.21397 0
M  V30 833 O 81.1073 2.21352 -1.57211 0
M  V30 834 C 79.5633 0.5529 -3.55628 0
M  V30 835 C 79.1713 -0.681721 -4.42783 0
M  V30 836 C 80.9153 1.11687 -4.09544 0
M  V30 837 C 78.8223 -0.382742 -5.9016 0
M  V30 838 H 77.7523 0.109124 -0.746062 0
M  V30 839 H 80.4033 -0.43398 -1.78294 0
M  V30 840 H 78.7853 1.32896 -3.73035 0
M  V30 841 H 79.9593 -1.45723 -4.37151 0
M  V30 842 H 78.2743 -1.1658 -3.99748 0
M  V30 843 H 80.8713 1.35515 -5.17242 0
M  V30 844 H 81.2143 2.06575 -3.61431 0
M  V30 845 H 81.7473 0.402032 -3.95763 0
M  V30 846 H 78.4863 -1.30076 -6.42464 0
M  V30 847 H 78.0063 0.355094 -5.98748 0
M  V30 848 H 79.6853 0.00800157 -6.47 0
M  V30 849 N 79.8174 1.5752 -0.0501392 0
M  V30 850 C 80.7274 2.14952 0.939827 0
M  V30 851 C 81.7434 1.10706 1.34239 0
M  V30 852 O 82.9194 1.42869 1.41952 0
M  V30 853 C 79.9844 2.68232 2.19665 0
M  V30 854 C 79.0454 3.87272 1.85253 0
M  V30 855 C 78.2784 4.38002 3.04943 0
M  V30 856 O 78.5014 3.87811 4.18281 0
M  V30 857 O 77.4354 5.29602 2.86017 0
M  V30 858 H 81.2614 2.9986 0.481392 0
M  V30 859 H 78.8464 1.4841 0.171699 0
M  V30 860 H 80.7284 3.02475 2.93406 0
M  V30 861 H 79.4034 1.86395 2.64648 0
M  V30 862 H 78.3104 3.5792 1.0883 0
M  V30 863 H 79.6434 4.70336 1.4507 0
M  V30 864 N 81.2955 -0.223234 1.56011 0
M  V30 865 C 82.2275 -1.30006 1.88762 0
M  V30 866 C 83.2405 -1.43129 0.775746 0
M  V30 867 O 84.4295 -1.44057 1.05403 0
M  V30 868 C 81.5295 -2.67589 2.07965 0
M  V30 869 C 80.7025 -2.76434 3.38973 0
M  V30 870 C 79.7615 -3.95019 3.47629 0
M  V30 871 O 78.7875 -3.83436 4.20672 0
M  V30 872 N 79.9895 -5.09249 2.78649 0
M  V30 873 H 82.7545 -1.02238 2.81722 0
M  V30 874 H 80.3155 -0.413278 1.56536 0
M  V30 875 H 82.3075 -3.45297 2.11073 0
M  V30 876 H 80.8775 -2.87964 1.21638 0
M  V30 877 H 80.0975 -1.85216 3.47978 0
M  V30 878 H 81.3855 -2.79313 4.25278 0
M  V30 879 H 80.7835 -5.21556 2.19081 0
M  V30 880 H 79.3405 -5.85007 2.8742 0
M  V30 881 N 82.7736 -1.49793 -0.48987 0
M  V30 882 C 84.0206 -1.59841 -1.24327 0
M  V30 883 C 84.3486 -0.290135 -1.92324 0
M  V30 884 O 83.6036 0.722749 -1.81865 0
M  V30 885 C 83.9026 -2.71488 -2.32441 0
M  V30 886 C 83.5686 -4.12614 -1.81826 0
M  V30 887 C 82.2306 -4.51017 -1.67742 0
M  V30 888 C 84.5826 -5.00892 -1.4407 0
M  V30 889 C 81.9106 -5.75459 -1.14297 0
M  V30 890 C 84.2626 -6.25863 -0.920742 0
M  V30 891 C 82.9266 -6.63086 -0.766383 0
M  V30 892 H 82.1966 -0.584899 -0.454944 0
M  V30 893 H 84.8436 -1.83663 -0.542215 0
M  V30 894 H 83.1486 -2.4168 -3.0838 0
M  V30 895 H 84.8456 -2.76469 -2.90458 0
M  V30 896 H 81.4356 -3.82307 -1.93751 0
M  V30 897 H 85.6196 -4.7187 -1.53794 0
M  V30 898 H 80.8756 -6.02989 -1.01068 0
M  V30 899 H 85.0496 -6.9364 -0.619448 0
M  V30 900 H 82.6766 -7.59393 -0.350083 0
M  V30 901 N 84.2517 0.741722 -1.39055 0
M  V30 902 C 85.1617 1.88621 -1.39496 0
M  V30 903 C 86.1777 1.71557 -0.290578 0
M  V30 904 O 87.3537 1.94275 -0.530954 0
M  V30 905 C 84.4187 3.24134 -1.23037 0
M  V30 906 C 83.4797 3.5364 -2.43387 0
M  V30 907 C 82.7127 4.82687 -2.27703 0
M  V30 908 O 82.9357 5.55922 -1.27696 0
M  V30 909 O 81.8697 5.1194 -3.16545 0
M  V30 910 H 85.6957 1.91203 -2.35956 0
M  V30 911 H 83.2807 0.888625 -1.20099 0
M  V30 912 H 85.1627 4.0513 -1.15964 0
M  V30 913 H 83.8377 3.22337 -0.296691 0
M  V30 914 H 82.7447 2.72758 -2.56035 0
M  V30 915 H 84.0777 3.60209 -3.35425 0
M  V30 916 N 85.7298 1.2412 0.971189 0
M  V30 917 C 87.0068 0.986867 1.6888 0
M  V30 918 C 87.3868 -0.491857 2.0529 0
M  V30 919 O 86.7348 -1.46531 1.75331 0
M  V30 920 C 86.9448 1.9063 2.92338 0
M  V30 921 C 88.2928 2.17515 3.64654 0
M  V30 922 O 89.3168 1.88254 3.02388 0
M  V30 923 O 88.1758 2.6719 4.7673 0
M  V30 924 H 85.2698 0.372944 0.738134 0
M  V30 925 H 87.8158 1.35203 1.02559 0
M  V30 926 H 86.5878 2.90552 2.62097 0
M  V30 927 H 86.2108 1.54408 3.66393 0
M  V30 928 N 87.2079 -1.17134 1.05439 0
M  V30 929 C 88.1379 -2.2342 0.678649 0
M  V30 930 C 89.1189 -1.66971 -0.32476 0
M  V30 931 O 90.3039 -1.93149 -0.201802 0
M  V30 932 C 87.4339 -3.47256 0.0552099 0
M  V30 933 C 86.3879 -4.16543 0.98365 0
M  V30 934 C 85.7139 -5.34231 0.223961 0
M  V30 935 C 87.0139 -4.68495 2.3089 0
M  V30 936 H 88.7079 -2.55105 1.56722 0
M  V30 937 H 86.2539 -1.2262 0.754998 0
M  V30 938 H 88.2069 -4.20828 -0.21946 0
M  V30 939 H 86.9309 -3.14846 -0.868319 0
M  V30 940 H 85.5899 -3.44887 1.24293 0
M  V30 941 H 85.2379 -4.98071 -0.702412 0
M  V30 942 H 84.9379 -5.81527 0.842627 0
M  V30 943 H 86.4619 -6.10585 -0.0433671 0
M  V30 944 H 87.8759 -5.33691 2.09396 0
M  V30 945 H 86.2729 -5.26379 2.88176 0
M  V30 946 H 87.3429 -3.85169 2.94572 0
M  V30 947 N 88.686 -0.835752 -1.33615 0
M  V30 948 C 89.616 -0.281739 -2.31794 0
M  V30 949 C 90.597 0.608833 -1.58831 0
M  V30 950 O 91.782 0.533035 -1.86741 0
M  V30 951 C 88.912 0.546612 -3.42971 0
M  V30 952 C 87.866 -0.247904 -4.27281 0
M  V30 953 C 87.192 0.704001 -5.30045 0
M  V30 954 C 88.492 -1.46324 -5.01385 0
M  V30 955 H 90.186 -1.10206 -2.78379 0
M  V30 956 H 87.732 -0.531388 -1.33837 0
M  V30 957 H 89.685 0.944467 -4.1068 0
M  V30 958 H 88.409 1.40011 -2.95067 0
M  V30 959 H 87.068 -0.627281 -3.61194 0
M  V30 960 H 86.716 1.55381 -4.78399 0
M  V30 961 H 86.416 0.176524 -5.87335 0
M  V30 962 H 87.94 1.09944 -6.0062 0
M  V30 963 H 89.354 -1.13871 -5.61877 0
M  V30 964 H 87.751 -1.92728 -5.6831 0
M  V30 965 H 88.821 -2.23467 -4.30338 0
M  V30 966 N 90.1641 1.46063 -0.591896 0
M  V30 967 C 91.4101 2.02638 -0.0811191 0
M  V30 968 C 91.7431 1.4613 1.27905 0
M  V30 969 O 91.0181 0.629908 1.84017 0
M  V30 970 C 91.3011 3.60091 -0.0252436 0
M  V30 971 C 91.1541 4.26965 -1.41496 0
M  V30 972 C 92.4731 4.3496 0.670685 0
M  V30 973 H 89.5921 0.73635 -0.0309524 0
M  V30 974 H 92.2341 1.741 -0.760859 0
M  V30 975 H 90.3841 3.84535 0.553624 0
M  V30 976 H 92.0561 4.13756 -2.0397 0
M  V30 977 H 90.2991 3.85971 -1.98011 0
M  V30 978 H 90.9701 5.35781 -1.32825 0
M  V30 979 H 93.4461 4.15716 0.178825 0
M  V30 980 H 92.3221 5.44686 0.678837 0
M  V30 981 H 92.5831 4.06685 1.73379 0
M  V30 982 N 91.6422 0.330177 1.54103 0
M  V30 983 C 93.0582 -0.0222371 1.59585 0
M  V30 984 C 93.2582 -1.49902 1.34654 0
M  V30 985 O 92.3142 -2.25592 1.13421 0
M  V30 986 C 93.6272 0.401932 2.98002 0
M  V30 987 C 95.1752 0.353145 3.11001 0
M  V30 988 C 95.6502 0.752576 4.51775 0
M  V30 989 N 97.1412 0.706239 4.57784 0
M  V30 990 C 97.8762 0.987417 5.64834 0
M  V30 991 N 97.3722 1.33607 6.79795 0
M  V30 992 N 99.1652 0.91254 5.54643 0
M  V30 993 H 91.3162 1.29228 1.68564 0
M  V30 994 H 93.5792 0.525906 0.78875 0
M  V30 995 H 93.2852 1.4311 3.21267 0
M  V30 996 H 93.1592 -0.229699 3.765 0
M  V30 997 H 95.5462 -0.666822 2.87467 0
M  V30 998 H 95.6272 1.0198 2.34593 0
M  V30 999 H 95.2712 1.77049 4.76042 0
M  V30 1000 H 95.2012 0.0635409 5.26562 0
M  V30 1001 H 97.6922 0.44889 3.75224 0
M  V30 1002 H 98.0052 1.53582 7.57385 0
M  V30 1003 H 96.3502 1.37439 6.81275 0
M  V30 1004 H 99.5412 0.639601 4.6371 0
M  V30 1005 H 99.7142 1.13503 6.37982 0
M  V30 1006 N 93.1203 -1.57491 0.0584922 0
M  V30 1007 C 94.3693 -1.92155 -0.613146 0
M  V30 1008 C 94.6823 -0.939334 -1.71569 0
M  V30 1009 O 95.8883 -1.17829 -2.44599 0
M  V30 1010 C 94.3443 -3.41303 -1.14195 0
M  V30 1011 C 93.9523 -4.47944 -0.0711265 0
M  V30 1012 C 95.6963 -3.84988 -1.78841 0
M  V30 1013 C 93.6033 -5.88212 -0.613225 0
M  V30 1014 H 92.5333 -0.717162 -0.232796 0
M  V30 1015 H 95.1843 -1.83049 0.12857 0
M  V30 1016 H 93.5663 -3.45437 -1.93621 0
M  V30 1017 H 94.7403 -4.55408 0.702836 0
M  V30 1018 H 93.0553 -4.13644 0.478313 0
M  V30 1019 H 95.6523 -4.87159 -2.20408 0
M  V30 1020 H 95.9953 -3.21632 -2.64308 0
M  V30 1021 H 96.5283 -3.83401 -1.06059 0
M  V30 1022 H 93.2673 -6.55183 0.203978 0
M  V30 1023 H 92.7873 -5.84294 -1.35501 0
M  V30 1024 H 94.4663 -6.37687 -1.09383 0
M  V30 1025 N 94.5984 0.214957 -1.56127 0
M  V30 1026 C 95.5284 1.2695 -1.95974 0
M  V30 1027 C 96.5094 1.48539 -0.828868 0
M  V30 1028 O 97.6944 1.60611 -1.09168 0
M  V30 1029 C 94.8244 2.61794 -2.28214 0
M  V30 1030 C 93.7784 2.54851 -3.43853 0
M  V30 1031 C 93.1044 3.93785 -3.61715 0
M  V30 1032 C 94.4044 2.09065 -4.78632 0
M  V30 1033 H 96.0984 0.93846 -2.84312 0
M  V30 1034 H 93.6444 0.449996 -1.36788 0
M  V30 1035 H 95.5974 3.35731 -2.54682 0
M  V30 1036 H 94.3214 2.96599 -1.36736 0
M  V30 1037 H 92.9804 1.8337 -3.17444 0
M  V30 1038 H 92.6284 4.25908 -2.67602 0
M  V30 1039 H 92.3284 3.90019 -4.39498 0
M  V30 1040 H 93.8524 4.69374 -3.90539 0
M  V30 1041 H 95.2664 2.7275 -5.04262 0
M  V30 1042 H 93.6634 2.16346 -5.59745 0
M  V30 1043 H 94.7334 1.04315 -4.73547 0
M  V30 1044 N 96.0765 1.50051 0.48192 0
M  V30 1045 C 97.0065 1.71046 1.58951 0
M  V30 1046 C 97.9875 0.559288 1.60642 0
M  V30 1047 O 99.1725 0.797243 1.77081 0
M  V30 1048 C 96.3025 1.79462 2.97339 0
M  V30 1049 C 95.2565 2.94558 3.10515 0
M  V30 1050 C 94.5825 2.88105 4.50444 0
M  V30 1051 C 95.8825 4.35227 2.88747 0
M  V30 1052 H 97.5765 2.6378 1.41635 0
M  V30 1053 H 95.1225 1.26936 0.679942 0
M  V30 1054 H 97.0755 1.92734 3.74742 0
M  V30 1055 H 95.7995 0.833412 3.15788 0
M  V30 1056 H 94.4585 2.80918 2.35543 0
M  V30 1057 H 94.1065 1.89853 4.65795 0
M  V30 1058 H 93.8065 3.65366 4.60197 0
M  V30 1059 H 95.3305 3.03412 5.29881 0
M  V30 1060 H 96.7445 4.49449 3.55905 0
M  V30 1061 H 95.1415 5.13856 3.09955 0
M  V30 1062 H 96.2115 4.48347 1.84696 0
M  V30 1063 N 97.5546 -0.734337 1.39446 0
M  V30 1064 C 98.4846 -1.86155 1.40955 0
M  V30 1065 C 99.4656 -1.67898 0.272827 0
M  V30 1066 O 100.651 -1.88207 0.478743 0
M  V30 1067 C 97.7806 -3.23912 1.25294 0
M  V30 1068 C 96.7346 -3.56808 2.36373 0
M  V30 1069 C 96.0606 -4.93508 2.058 0
M  V30 1070 C 97.3606 -3.59713 3.78687 0
M  V30 1071 H 99.0546 -1.8515 2.35287 0
M  V30 1072 H 96.6006 -0.889367 1.13253 0
M  V30 1073 H 98.5536 -4.02443 1.2497 0
M  V30 1074 H 97.2776 -3.25446 0.274308 0
M  V30 1075 H 95.9366 -2.80606 2.35914 0
M  V30 1076 H 95.5846 -4.91623 1.06374 0
M  V30 1077 H 95.2846 -5.16486 2.80208 0
M  V30 1078 H 96.8086 -5.74396 2.07128 0
M  V30 1079 H 98.2226 -4.2832 3.81071 0
M  V30 1080 H 96.6196 -3.94209 4.52459 0
M  V30 1081 H 97.6896 -2.59504 4.09617 0
M  V30 1082 N 99.0327 -1.24633 -0.964593 0
M  V30 1083 C 99.9957 -1.0424 -2.04124 0
M  V30 1084 C 100.996 0.00137563 -1.608 0
M  V30 1085 O 102.186 -0.239883 -1.7254 0
M  V30 1086 C 99.3177 -0.580588 -3.3592 0
M  V30 1087 H 100.511 -1.99803 -2.23649 0
M  V30 1088 H 98.0637 -1.06899 -1.14027 0
M  V30 1089 H 98.7987 0.3781 -3.22088 0
M  V30 1090 H 98.5837 -1.33398 -3.6871 0
M  V30 1091 H 100.074 -0.459034 -4.15069 0
M  V30 1092 N 100.511 1.16574 -1.06058 0
M  V30 1093 C 101.474 2.19085 -0.673392 0
M  V30 1094 C 102.474 1.5835 0.279648 0
M  V30 1095 O 103.664 1.74088 0.0623488 0
M  V30 1096 C 100.796 3.40899 0.00954234 0
M  V30 1097 H 101.989 2.54853 -1.58081 0
M  V30 1098 H 99.5418 1.30808 -0.855516 0
M  V30 1099 H 100.277 3.10684 0.929826 0
M  V30 1100 H 100.062 3.86233 -0.67573 0
M  V30 1101 H 101.552 4.1675 0.266245 0
M  V30 1102 N 101.989 0.842826 1.3317 0
M  V30 1103 C 103.229 0.446574 1.99462 0
M  V30 1104 C 103.593 -0.976818 1.65295 0
M  V30 1105 O 104.794 -1.477 2.24584 0
M  V30 1106 C 103.065 0.665353 3.51152 0
M  V30 1107 S 104.624 0.364911 4.3728 0
M  V30 1108 H 101.442 0.167803 0.690915 0
M  V30 1109 H 104.044 1.09297 1.62094 0
M  V30 1110 H 102.748 1.7006 3.73507 0
M  V30 1111 H 102.279 0.00494568 3.934 0
M  V30 1112 H 104.294 -0.813761 4.89482 0
M  V30 1113 N 103.467 -1.45747 0.599634 0
M  V30 1114 C 104.716 -2.01502 0.0893511 0
M  V30 1115 C 105.029 -1.4748 -1.28488 0
M  V30 1116 O 106.235 -1.95161 -1.88745 0
M  V30 1117 C 104.691 -3.59735 0.109082 0
M  V30 1118 C 104.299 -4.22754 1.48267 0
M  V30 1119 C 106.043 -4.23085 -0.346374 0
M  V30 1120 C 103.95 -5.73115 1.45921 0
M  V30 1121 H 102.88 -0.753417 0.0296347 0
M  V30 1122 H 105.531 -1.67303 0.753788 0
M  V30 1123 H 103.913 -3.91087 -0.621854 0
M  V30 1124 H 105.087 -4.02987 2.23468 0
M  V30 1125 H 103.402 -3.71567 1.87955 0
M  V30 1126 H 105.999 -5.33327 -0.38298 0
M  V30 1127 H 106.342 -3.93201 -1.36743 0
M  V30 1128 H 106.875 -3.9642 0.331038 0
M  V30 1129 H 103.614 -6.07685 2.45762 0
M  V30 1130 H 103.134 -5.95097 0.749665 0
M  V30 1131 H 104.813 -6.3616 1.17941 0
M  V30 1132 N 104.945 -0.338344 -1.53925 0
M  V30 1133 C 106.17 0.263987 -2.05713 0
M  V30 1134 C 106.595 1.43847 -1.21201 0
M  V30 1135 O 105.953 1.79904 -0.224535 0
M  V30 1136 C 106.001 0.662 -3.54471 0
M  V30 1137 O 105.105 1.76265 -3.72833 0
M  V30 1138 H 104.446 0.0448722 -0.662482 0
M  V30 1139 H 106.976 -0.491048 -1.9862 0
M  V30 1140 H 106.986 0.940594 -3.9701 0
M  V30 1141 H 105.661 -0.196937 -4.15433 0
M  V30 1142 H 104.238 1.48173 -3.42198 0
M  V30 1143 N 106.423 1.57458 -0.0668435 0
M  V30 1144 C 107.67 1.93301 0.603406 0
M  V30 1145 C 107.998 0.946486 1.69917 0
M  V30 1146 O 107.253 -0.0387021 1.95662 0
M  V30 1147 C 107.552 3.35784 1.22409 0
M  V30 1148 C 107.218 4.50179 0.254955 0
M  V30 1149 C 105.88 4.81199 -0.0116746 0
M  V30 1150 C 108.232 5.19598 -0.408338 0
M  V30 1151 C 105.56 5.78978 -0.94877 0
M  V30 1152 C 107.912 6.18381 -1.33372 0
M  V30 1153 C 106.576 6.47821 -1.60887 0
M  V30 1154 H 105.846 0.707338 0.220802 0
M  V30 1155 H 108.493 1.91012 -0.136665 0
M  V30 1156 H 106.798 3.34515 2.03978 0
M  V30 1157 H 108.495 3.60804 1.74989 0
M  V30 1158 H 105.085 4.25983 0.472954 0
M  V30 1159 H 109.269 4.95832 -0.215456 0
M  V30 1160 H 104.525 6.00115 -1.16925 0
M  V30 1161 H 108.699 6.71277 -1.85367 0
M  V30 1162 H 106.326 7.23399 -2.33661 0
M  V30 1163 N 107.901 -0.206675 1.56239 0
M  V30 1164 C 109.147 -0.930218 1.80208 0
M  V30 1165 C 109.48 -1.83387 0.638981 0
M  V30 1166 O 108.755 -1.91119 -0.361066 0
M  V30 1167 C 109.038 -1.75641 3.1436 0
M  V30 1168 C 108.891 -0.878257 4.41142 0
M  V30 1169 C 110.21 -2.73129 3.45092 0
M  V30 1170 H 107.329 -0.336742 0.655571 0
M  V30 1171 H 109.971 -0.198222 1.88963 0
M  V30 1172 H 108.121 -2.38048 3.07027 0
M  V30 1173 H 109.793 -0.269787 4.6051 0
M  V30 1174 H 108.036 -0.184385 4.33408 0
M  V30 1175 H 108.707 -1.49106 5.3148 0
M  V30 1176 H 111.183 -2.20856 3.52649 0
M  V30 1177 H 110.059 -3.28028 4.40101 0
M  V30 1178 H 110.32 -3.51606 2.68003 0
M  V30 1179 N 109.379 -1.50304 -0.473955 0
M  V30 1180 C 110.309 -1.71886 -1.58042 0
M  V30 1181 C 111.29 -0.567799 -1.60344 0
M  V30 1182 O 112.475 -0.806623 -1.76656 0
M  V30 1183 C 109.605 -1.81036 -2.96384 0
M  V30 1184 C 108.559 -2.962 -3.08949 0
M  V30 1185 C 107.885 -2.9049 -4.48909 0
M  V30 1186 C 109.185 -4.36752 -2.86434 0
M  V30 1187 H 110.879 -2.64527 -1.40234 0
M  V30 1188 H 108.425 -1.27295 -0.673201 0
M  V30 1189 H 110.378 -1.94719 -3.73714 0
M  V30 1190 H 109.102 -0.850147 -3.15341 0
M  V30 1191 H 107.761 -2.82164 -2.3405 0
M  V30 1192 H 107.409 -1.92321 -4.64781 0
M  V30 1193 H 107.109 -3.67802 -4.58253 0
M  V30 1194 H 108.633 -3.06218 -5.28264 0
M  V30 1195 H 110.047 -4.5133 -3.53517 0
M  V30 1196 H 108.444 -5.15493 -3.07225 0
M  V30 1197 H 109.514 -4.49321 -1.82316 0
M  V30 1198 N 110.857 0.726932 -1.39834 0
M  V30 1199 C 111.82 1.82269 -1.38962 0
M  V30 1200 C 112.82 1.58248 -0.285334 0
M  V30 1201 O 114.01 1.65499 -0.54366 0
M  V30 1202 C 111.142 3.20186 -1.17019 0
M  V30 1203 H 112.335 1.84443 -2.36476 0
M  V30 1204 H 109.888 0.931416 -1.25516 0
M  V30 1205 H 110.623 3.23669 -0.202204 0
M  V30 1206 H 110.408 3.3902 -1.96998 0
M  V30 1207 H 111.898 4.00235 -1.1917 0
M  V30 1208 N 112.336 1.25143 0.95797 0
M  V30 1209 C 113.582 1.10863 1.70531 0
M  V30 1210 C 113.937 -0.347391 1.89238 0
M  V30 1211 O 113.23 -1.25262 1.44983 0
M  V30 1212 C 113.424 1.79272 3.09187 0
M  V30 1213 C 113.253 3.31376 3.04006 0
M  V30 1214 C 112.023 4.0062 3.07948 0
M  V30 1215 C 114.221 4.27825 2.8543 0
M  V30 1216 N 112.203 5.39526 2.9289 0
M  V30 1217 C 113.574 5.53794 2.78769 0
M  V30 1218 C 115.629 4.1828 2.70085 0
M  V30 1219 C 114.332 6.7131 2.58331 0
M  V30 1220 C 116.358 5.35485 2.51017 0
M  V30 1221 C 115.72 6.60393 2.45073 0
M  V30 1222 H 111.819 0.460362 0.632132 0
M  V30 1223 H 114.403 1.58196 1.13499 0
M  V30 1224 H 112.574 1.34439 3.64391 0
M  V30 1225 H 114.306 1.57764 3.72683 0
M  V30 1226 H 111.061 3.51855 3.17009 0
M  V30 1227 H 111.485 6.12416 2.88574 0
M  V30 1228 H 116.127 3.22461 2.73457 0
M  V30 1229 H 113.845 7.67243 2.53701 0
M  V30 1230 H 117.431 5.29959 2.40073 0
M  V30 1231 H 116.311 7.49557 2.30509 0
M  V30 1232 N 113.814 -1.1601 1.06675 0
M  V30 1233 C 115.061 -1.86633 0.785781 0
M  V30 1234 C 115.389 -1.81929 -0.687896 0
M  V30 1235 O 114.644 -1.23253 -1.52011 0
M  V30 1236 C 114.943 -3.35547 1.23057 0
M  V30 1237 C 114.609 -3.60448 2.70902 0
M  V30 1238 C 113.271 -3.66954 3.11285 0
M  V30 1239 C 115.623 -3.7071 3.66365 0
M  V30 1240 C 112.951 -3.81225 4.45965 0
M  V30 1241 C 115.303 -3.86503 5.00797 0
M  V30 1242 C 113.967 -3.91252 5.40813 0
M  V30 1243 H 113.237 -0.682937 0.287538 0
M  V30 1244 H 115.884 -1.37146 1.33654 0
M  V30 1245 H 114.189 -3.87193 0.59907 0
M  V30 1246 H 115.886 -3.88583 0.990163 0
M  V30 1247 H 112.476 -3.56021 2.38636 0
M  V30 1248 H 116.66 -3.64991 3.36296 0
M  V30 1249 H 111.916 -3.83155 4.76447 0
M  V30 1250 H 116.09 -3.93385 5.74649 0
M  V30 1251 H 113.717 -4.02062 6.45174 0
M  V30 1252 N 115.292 -0.849877 -1.32721 0
M  V30 1253 C 116.202 -0.293791 -2.32753 0
M  V30 1254 C 117.218 0.585906 -1.63839 0
M  V30 1255 O 118.394 0.487413 -1.95413 0
M  V30 1256 C 115.459 0.512752 -3.42887 0
M  V30 1257 C 114.52 -0.39252 -4.27502 0
M  V30 1258 C 113.753 0.375625 -5.32377 0
M  V30 1259 O 113.976 1.60613 -5.4732 0
M  V30 1260 O 112.91 -0.256094 -6.01355 0
M  V30 1261 H 116.736 -1.12242 -2.82197 0
M  V30 1262 H 114.321 -0.612685 -1.36259 0
M  V30 1263 H 116.203 0.970704 -4.10067 0
M  V30 1264 H 114.878 1.31826 -2.95641 0
M  V30 1265 H 113.785 -0.898547 -3.63149 0
M  V30 1266 H 115.118 -1.16309 -4.7826 0
M  V30 1267 N 116.77 1.45427 -0.607355 0
M  V30 1268 C 117.68 2.34325 0.113463 0
M  V30 1269 C 118.696 1.51226 0.860617 0
M  V30 1270 O 119.872 1.84029 0.818255 0
M  V30 1271 C 116.937 3.28839 1.09844 0
M  V30 1272 C 115.998 4.27844 0.353271 0
M  V30 1273 C 115.231 5.17842 1.29133 0
M  V30 1274 O 115.454 5.11264 2.52913 0
M  V30 1275 O 114.388 5.96713 0.788523 0
M  V30 1276 H 118.214 2.97364 -0.617094 0
M  V30 1277 H 115.799 1.44807 -0.367619 0
M  V30 1278 H 117.681 3.8708 1.66575 0
M  V30 1279 H 116.356 2.68365 1.81003 0
M  V30 1280 H 115.263 3.7322 -0.256494 0
M  V30 1281 H 116.596 4.91173 -0.317822 0
M  V30 1282 N 118.248 0.346503 1.53744 0
M  V30 1283 C 119.496 -0.248612 2.00565 0
M  V30 1284 C 119.817 -1.5083 1.23593 0
M  V30 1285 O 119.087 -1.92858 0.343912 0
M  V30 1286 H 117.667 -0.0948564 0.740953 0
M  V30 1287 H 120.329 0.468341 1.89189 0
M  V30 1288 H 119.425 -0.488994 3.08245 0
M  V30 1289 N 119.726 -1.57421 0.075193 0
M  V30 1290 C 120.636 -2.1642 -0.905511 0
M  V30 1291 C 121.652 -1.12828 -1.32461 0
M  V30 1292 O 122.828 -1.45109 -1.39661 0
M  V30 1293 C 119.893 -2.71693 -2.15369 0
M  V30 1294 C 118.954 -3.90171 -1.79068 0
M  V30 1295 C 118.187 -4.42798 -2.97936 0
M  V30 1296 O 118.41 -3.94416 -4.12058 0
M  V30 1297 O 117.344 -5.34085 -2.77555 0
M  V30 1298 H 121.17 -3.00588 -0.433626 0
M  V30 1299 H 118.755 -1.48664 -0.148067 0
M  V30 1300 H 120.637 -3.07104 -2.88557 0
M  V30 1301 H 119.312 -1.90582 -2.61649 0
M  V30 1302 H 118.219 -3.59606 -1.03122 0
M  V30 1303 H 119.552 -4.72584 -1.37569 0
M  V30 1304 N 121.204 0.198386 -1.56346 0
M  V30 1305 C 122.114 1.2664 -1.97483 0
M  V30 1306 C 123.13 1.49989 -0.882002 0
M  V30 1307 O 124.306 1.62668 -1.18748 0
M  V30 1308 C 121.371 2.59141 -2.30319 0
M  V30 1309 C 120.432 2.43892 -3.53292 0
M  V30 1310 C 119.665 3.70074 -3.84553 0
M  V30 1311 O 119.888 4.74101 -3.1715 0
M  V30 1312 O 118.822 3.658 -4.7799 0
M  V30 1313 H 122.648 0.947304 -2.88548 0
M  V30 1314 H 120.233 0.403123 -1.43859 0
M  V30 1315 H 122.115 3.37352 -2.5253 0
M  V30 1316 H 120.79 2.90684 -1.42423 0
M  V30 1317 H 119.697 1.63803 -3.36332 0
M  V30 1318 H 121.03 2.17282 -4.41644 0
M  V30 1319 N 122.682 1.50554 0.465978 0
M  V30 1320 C 123.91 1.65563 1.24083 0
M  V30 1321 C 124.325 0.341051 1.85694 0
M  V30 1322 O 123.682 -0.677543 1.69457 0
M  V30 1323 C 123.733 2.75051 2.34583 0
M  V30 1324 O 123.454 4.01413 1.75497 0
M  V30 1325 C 124.955 3.01078 3.25372 0
M  V30 1326 H 122.175 0.55638 0.375077 0
M  V30 1327 H 124.719 1.96807 0.555624 0
M  V30 1328 H 122.874 2.46486 2.9887 0
M  V30 1329 H 123.288 4.62002 2.48303 0
M  V30 1330 H 124.762 3.81339 3.99105 0
M  V30 1331 H 125.239 2.12349 3.84453 0
M  V30 1332 H 125.845 3.31194 2.66816 0
M  V30 1333 N 124.16 -0.719506 1.40217 0
M  V30 1334 C 125.409 -1.47486 1.37589 0
M  V30 1335 C 125.722 -1.9559 -0.0201568 0
M  V30 1336 O 126.928 -2.70973 -0.169049 0
M  V30 1337 C 125.384 -2.66575 2.41796 0
M  V30 1338 C 124.992 -2.25358 3.87192 0
M  V30 1339 C 126.736 -3.4433 2.48269 0
M  V30 1340 C 124.643 -3.41262 4.83005 0
M  V30 1341 H 123.573 -0.553901 0.511576 0
M  V30 1342 H 126.224 -0.783427 1.65936 0
M  V30 1343 H 124.606 -3.3787 2.06543 0
M  V30 1344 H 125.78 -1.61509 4.31569 0
M  V30 1345 H 124.095 -1.60657 3.84159 0
M  V30 1346 H 126.692 -4.30569 3.17041 0
M  V30 1347 H 127.035 -3.87872 1.51198 0
M  V30 1348 H 127.568 -2.80076 2.82493 0
M  V30 1349 H 124.307 -3.02755 5.81394 0
M  V30 1350 H 123.827 -4.0404 4.43297 0
M  V30 1351 H 125.506 -4.07383 5.02641 0
M  V30 1352 N 125.638 -1.25649 -0.95132 0
M  V30 1353 C 126.866 -1.13343 -1.73092 0
M  V30 1354 C 127.281 0.312434 -1.86197 0
M  V30 1355 O 126.638 1.21465 -1.36207 0
M  V30 1356 C 126.689 -1.78602 -3.14299 0
M  V30 1357 O 126.41 -3.17537 -3.01831 0
M  V30 1358 C 127.911 -1.72119 -4.08522 0
M  V30 1359 H 125.131 -0.395181 -0.542285 0
M  V30 1360 H 127.675 -1.66076 -1.19328 0
M  V30 1361 H 125.83 -1.29832 -3.64996 0
M  V30 1362 H 126.244 -3.49676 -3.90931 0
M  V30 1363 H 127.718 -2.22435 -5.052 0
M  V30 1364 H 128.195 -0.685635 -4.33815 0
M  V30 1365 H 128.801 -2.20393 -3.63741 0
M  V30 1366 N 127.117 1.15442 -1.07289 0
M  V30 1367 C 128.08 2.18358 -0.696591 0
M  V30 1368 C 129.08 1.58637 0.262837 0
M  V30 1369 O 130.27 1.74145 0.0438809 0
M  V30 1370 C 127.402 3.4089 -0.0266151 0
M  V30 1371 H 128.595 2.53162 -1.60776 0
M  V30 1372 H 126.148 1.29893 -0.869342 0
M  V30 1373 H 126.883 3.11653 0.896822 0
M  V30 1374 H 126.668 3.85495 -0.716657 0
M  V30 1375 H 128.158 4.17009 0.222028 0
M  V30 1376 N 128.595 0.856903 1.32268 0
M  V30 1377 C 129.842 0.461386 1.97174 0
M  V30 1378 C 130.17 -0.983491 1.67803 0
M  V30 1379 O 129.425 -1.70541 0.959903 0
M  V30 1380 C 129.724 0.649919 3.51441 0
M  V30 1381 C 129.39 2.0656 4.00804 0
M  V30 1382 C 128.052 2.45279 4.13995 0
M  V30 1383 C 130.404 2.98947 4.26943 0
M  V30 1384 C 127.732 3.75653 4.50668 0
M  V30 1385 C 130.084 4.28822 4.65075 0
M  V30 1386 C 128.748 4.67472 4.76472 0
M  V30 1387 H 128.018 0.168833 0.72151 0
M  V30 1388 H 130.665 1.08739 1.57633 0
M  V30 1389 H 128.97 -0.0593018 3.91755 0
M  V30 1390 H 130.667 0.32391 3.9969 0
M  V30 1391 H 127.257 1.75495 3.91024 0
M  V30 1392 H 131.441 2.70265 4.16258 0
M  V30 1393 H 126.697 4.05379 4.57688 0
M  V30 1394 H 130.871 5.0047 4.84255 0
M  V30 1395 H 128.498 5.68539 5.04646 0
M  V30 1396 N 130.073 -1.45103 0.615059 0
M  V30 1397 C 131.319 -2.02483 0.113347 0
M  V30 1398 C 131.652 -1.48146 -1.25564 0
M  V30 1399 O 130.927 -0.659104 -1.82992 0
M  V30 1400 C 131.21 -3.60005 0.0825278 0
M  V30 1401 C 131.063 -4.2466 1.48271 0
M  V30 1402 C 132.382 -4.35972 -0.601401 0
M  V30 1403 H 129.501 -0.735764 0.0426632 0
M  V30 1404 H 132.143 -1.72868 0.788461 0
M  V30 1405 H 130.293 -3.85367 -0.492378 0
M  V30 1406 H 131.965 -4.10458 2.10527 0
M  V30 1407 H 130.208 -3.82772 2.04127 0
M  V30 1408 H 130.879 -5.336 1.41332 0
M  V30 1409 H 133.355 -4.15947 -0.112666 0
M  V30 1410 H 132.231 -5.45697 -0.592097 0
M  V30 1411 H 132.492 -4.09391 -1.66887 0
M  V30 1412 N 131.551 -0.354651 -1.53558 0
M  V30 1413 C 132.461 0.50515 -2.29097 0
M  V30 1414 C 133.477 1.10223 -1.34636 0
M  V30 1415 O 134.653 1.11553 -1.67684 0
M  V30 1416 C 131.718 1.63479 -3.05738 0
M  V30 1417 C 130.779 1.06636 -4.15845 0
M  V30 1418 C 130.012 2.14217 -4.88822 0
M  V30 1419 O 130.235 3.35137 -4.61562 0
M  V30 1420 O 129.169 1.77887 -5.75013 0
M  V30 1421 H 132.995 -0.109237 -3.03503 0
M  V30 1422 H 130.58 -0.119357 -1.48922 0
M  V30 1423 H 132.462 2.2918 -3.5363 0
M  V30 1424 H 131.137 2.23478 -2.34178 0
M  V30 1425 H 130.044 0.373565 -3.7223 0
M  V30 1426 H 131.377 0.511081 -4.89539 0
M  V30 1427 N 133.029 1.57378 -0.0835403 0
M  V30 1428 C 134.44 1.81261 0.447358 0
M  V30 1429 C 134.791 0.998331 1.68902 0
M  V30 1430 O 133.916 0.224282 2.15235 0
M  V30 1431 C 134.511 3.28767 0.818386 0
M  V30 1432 C 133.07 3.53455 1.29409 0
M  V30 1433 C 132.217 2.75831 0.285024 0
M  V30 1434 H 135.168 1.5566 -0.309115 0
M  V30 1435 H 135.189 3.41459 1.67887 0
M  V30 1436 H 134.701 3.88006 -0.0855019 0
M  V30 1437 H 132.802 2.99534 2.21608 0
M  V30 1438 H 132.915 4.62128 1.2639 0
M  V30 1439 H 131.279 2.42947 0.764767 0
M  V30 1440 H 132.062 3.37813 -0.611341 0
M  V30 1441 N 134.507 -0.190092 1.56449 0
M  V30 1442 C 135.754 -0.909705 1.80916 0
M  V30 1443 C 136.082 -1.83047 0.657583 0
M  V30 1444 O 135.337 -1.92428 -0.356356 0
M  V30 1445 C 135.636 -1.75382 3.1141 0
M  V30 1446 C 135.302 -0.983606 4.40041 0
M  V30 1447 C 133.964 -0.770967 4.74984 0
M  V30 1448 C 136.316 -0.442024 5.19322 0
M  V30 1449 C 133.644 -0.0053448 5.867 0
M  V30 1450 C 135.996 0.310412 6.31838 0
M  V30 1451 C 134.66 0.534023 6.6536 0
M  V30 1452 H 133.93 -0.332885 0.662019 0
M  V30 1453 H 136.577 -0.175762 1.90692 0
M  V30 1454 H 134.882 -2.55659 2.96893 0
M  V30 1455 H 136.579 -2.31331 3.27547 0
M  V30 1456 H 133.169 -1.15936 4.12622 0
M  V30 1457 H 137.353 -0.593693 4.92736 0
M  V30 1458 H 132.609 0.177825 6.11141 0
M  V30 1459 H 136.783 0.737419 6.92485 0
M  V30 1460 H 134.41 1.12918 7.51767 0
M  V30 1461 N 135.985 -1.50799 -0.457987 0
M  V30 1462 C 137.231 -1.62683 -1.21088 0
M  V30 1463 C 137.564 -0.332268 -1.91336 0
M  V30 1464 O 136.839 0.667043 -1.82704 0
M  V30 1465 C 137.122 -2.81615 -2.24422 0
M  V30 1466 C 136.975 -4.20989 -1.58392 0
M  V30 1467 C 138.294 -2.96085 -3.2561 0
M  V30 1468 H 135.413 -0.592087 -0.438864 0
M  V30 1469 H 138.055 -1.83225 -0.50286 0
M  V30 1470 H 136.205 -2.64231 -2.84806 0
M  V30 1471 H 137.877 -4.49994 -1.01504 0
M  V30 1472 H 136.12 -4.24641 -0.886704 0
M  V30 1473 H 136.791 -5.0016 -2.33547 0
M  V30 1474 H 139.267 -3.12042 -2.75262 0
M  V30 1475 H 138.143 -3.80902 -3.95228 0
M  V30 1476 H 138.404 -2.0726 -3.90507 0
M  V30 1477 N 137.463 0.71206 -1.40597 0
M  V30 1478 C 138.712 1.46754 -1.38369 0
M  V30 1479 C 139.025 1.95598 0.0097839 0
M  V30 1480 O 140.231 2.71059 0.154677 0
M  V30 1481 C 138.687 2.65289 -2.43207 0
M  V30 1482 C 138.295 2.23301 -3.88382 0
M  V30 1483 C 140.039 3.43008 -2.50091 0
M  V30 1484 C 137.946 3.38696 -4.84808 0
M  V30 1485 H 136.876 0.55118 -0.514506 0
M  V30 1486 H 139.527 0.774616 -1.66349 0
M  V30 1487 H 137.909 3.36769 -2.08332 0
M  V30 1488 H 139.083 1.59218 -4.32419 0
M  V30 1489 H 137.398 1.58618 -3.85006 0
M  V30 1490 H 139.995 4.28881 -3.1932 0
M  V30 1491 H 140.338 3.87065 -1.53253 0
M  V30 1492 H 140.871 2.78574 -2.83974 0
M  V30 1493 H 137.61 2.99668 -5.82992 0
M  V30 1494 H 137.13 4.01683 -4.45433 0
M  V30 1495 H 138.809 4.04712 -5.04794 0
M  V30 1496 N 138.941 1.26152 0.944643 0
M  V30 1497 C 139.871 1.09902 2.06019 0
M  V30 1498 C 140.852 0.00519538 1.70099 0
M  V30 1499 O 142.037 0.176583 1.93396 0
M  V30 1500 C 139.167 0.727562 3.39594 0
M  V30 1501 C 138.121 1.77274 3.89561 0
M  V30 1502 C 137.447 1.25569 5.19747 0
M  V30 1503 C 138.747 3.17357 4.14827 0
M  V30 1504 H 140.441 2.03217 2.19871 0
M  V30 1505 H 137.987 0.978452 1.05652 0
M  V30 1506 H 139.94 0.600777 4.17095 0
M  V30 1507 H 138.664 -0.241287 3.25707 0
M  V30 1508 H 137.323 1.88814 3.14237 0
M  V30 1509 H 136.971 0.276783 5.02238 0
M  V30 1510 H 136.671 1.95433 5.54148 0
M  V30 1511 H 138.195 1.1415 5.99835 0
M  V30 1512 H 139.609 3.08914 4.82954 0
M  V30 1513 H 138.006 3.84781 4.60504 0
M  V30 1514 H 139.076 3.63673 3.20734 0
M  V30 1515 N 140.419 -1.14872 1.07899 0
M  V30 1516 C 141.349 -2.2193 0.725887 0
M  V30 1517 C 142.33 -1.67622 -0.28927 0
M  V30 1518 O 143.515 -1.93533 -0.160787 0
M  V30 1519 C 140.645 -3.47061 0.128856 0
M  V30 1520 C 139.599 -4.14363 1.07178 0
M  V30 1521 C 138.925 -5.33636 0.337229 0
M  V30 1522 C 140.225 -4.63492 2.40775 0
M  V30 1523 H 141.919 -2.51724 1.62097 0
M  V30 1524 H 139.465 -1.20991 0.780838 0
M  V30 1525 H 141.418 -4.21199 -0.130147 0
M  V30 1526 H 140.142 -3.16617 -0.80134 0
M  V30 1527 H 138.801 -3.42173 1.3158 0
M  V30 1528 H 138.449 -4.99449 -0.596606 0
M  V30 1529 H 138.149 -5.79609 0.965788 0
M  V30 1530 H 139.673 -6.10539 0.0861567 0
M  V30 1531 H 141.087 -5.2913 2.20669 0
M  V30 1532 H 139.484 -5.20148 2.99276 0
M  V30 1533 H 140.554 -3.78834 3.02676 0
M  V30 1534 N 141.898 -0.863906 -1.31812 0
M  V30 1535 C 143.147 -0.46801 -1.96195 0
M  V30 1536 C 143.46 0.983474 -1.69077 0
M  V30 1537 O 144.666 1.48523 -2.27273 0
M  V30 1538 C 143.122 -0.785995 -3.51212 0
M  V30 1539 C 142.73 -2.25383 -3.87178 0
M  V30 1540 C 144.474 -0.458274 -4.22019 0
M  V30 1541 C 142.381 -2.51455 -5.3528 0
M  V30 1542 H 141.311 -0.171283 -0.734287 0
M  V30 1543 H 143.962 -1.05597 -1.50072 0
M  V30 1544 H 142.344 -0.127359 -3.95795 0
M  V30 1545 H 143.518 -2.95502 -3.53575 0
M  V30 1546 H 141.833 -2.54698 -3.2942 0
M  V30 1547 H 144.43 -0.630369 -5.30971 0
M  V30 1548 H 144.773 0.600834 -4.11941 0
M  V30 1549 H 145.306 -1.07319 -3.8305 0
M  V30 1550 H 142.045 -3.56025 -5.50387 0
M  V30 1551 H 141.565 -1.85923 -5.70257 0
M  V30 1552 H 143.244 -2.35874 -6.02472 0
M  V30 1553 N 143.376 1.44774 -0.622745 0
M  V30 1554 C 144.306 2.33382 0.0741861 0
M  V30 1555 C 145.287 1.47719 0.843387 0
M  V30 1556 O 146.472 1.76458 0.810934 0
M  V30 1557 C 143.602 3.30663 1.06204 0
M  V30 1558 C 142.556 4.26079 0.405037 0
M  V30 1559 C 141.882 5.13165 1.5022 0
M  V30 1560 C 143.182 5.1781 -0.683414 0
M  V30 1561 H 144.876 2.91905 -0.665713 0
M  V30 1562 H 142.422 1.40363 -0.321587 0
M  V30 1563 H 144.375 3.9153 1.55827 0
M  V30 1564 H 143.099 2.70331 1.83272 0
M  V30 1565 H 141.758 3.66532 -0.0704683 0
M  V30 1566 H 141.406 4.49191 2.26355 0
M  V30 1567 H 141.106 5.77812 1.06803 0
M  V30 1568 H 142.63 5.76902 2.00041 0
M  V30 1569 H 144.044 5.72661 -0.270631 0
M  V30 1570 H 142.441 5.91015 -1.04023 0
M  V30 1571 H 143.511 4.59326 -1.55395 0
M  V30 1572 N 144.854 0.36279 1.53368 0
M  V30 1573 C 146.1 -0.228113 2.01513 0
M  V30 1574 C 146.433 -1.48648 1.2497 0
M  V30 1575 O 145.708 -1.91459 0.342616 0
M  V30 1576 C 145.991 -0.522884 3.56284 0
M  V30 1577 C 145.844 0.74892 4.43521 0
M  V30 1578 C 147.163 -1.32461 4.19693 0
M  V30 1579 H 144.282 -0.0814343 0.732487 0
M  V30 1580 H 146.924 0.48713 1.83649 0
M  V30 1581 H 145.074 -1.1322 3.71636 0
M  V30 1582 H 146.746 1.38648 4.39971 0
M  V30 1583 H 144.989 1.36986 4.11603 0
M  V30 1584 H 145.66 0.497667 5.49752 0
M  V30 1585 H 148.136 -0.809203 4.08156 0
M  V30 1586 H 147.012 -1.49961 5.28018 0
M  V30 1587 H 147.273 -2.33232 3.75573 0
M  V30 1588 N 146.332 -1.57332 0.0918853 0
M  V30 1589 C 147.295 -2.12708 -0.85369 0
M  V30 1590 C 148.295 -1.05561 -1.213 0
M  V30 1591 O 149.485 -1.31461 -1.14296 0
M  V30 1592 C 146.617 -2.64503 -2.15061 0
M  V30 1593 H 147.81 -2.97573 -0.3729 0
M  V30 1594 H 145.363 -1.55509 -0.157072 0
M  V30 1595 H 146.098 -1.83149 -2.67632 0
M  V30 1596 H 145.883 -3.4284 -1.90272 0
M  V30 1597 H 147.373 -3.07351 -2.82711 0
M  V30 1598 N 147.81 0.181792 -1.56548 0
M  V30 1599 C 148.758 1.24461 -1.965 0
M  V30 1600 C 149.752 1.464 -0.852261 0
M  V30 1601 O 150.958 1.47103 -1.03733 0
M  V30 1602 H 147.333 0.418138 -0.625031 0
M  V30 1603 H 149.304 0.880714 -2.85107 0
M  V30 1604 C 148.053 2.57891 -2.33212 0
M  V30 1605 H 147.376 2.41829 -3.18369 0
M  V30 1606 H 148.816 3.3097 -2.65019 0
M  V30 1607 C 147.275 3.15871 -1.17163 0
M  V30 1608 O 147.805 3.9913 -0.453708 0
M  V30 1609 N 146.011 2.74808 -0.944936 0
M  V30 1610 H 145.558 2.07205 -1.53049 0
M  V30 1611 H 145.516 3.13939 -0.170286 0
M  V30 1612 N 149.288 1.51039 0.449983 0
M  V30 1613 C 150.251 1.70863 1.5277 0
M  V30 1614 C 151.251 0.578846 1.5002 0
M  V30 1615 O 152.441 0.846213 1.52266 0
M  V30 1616 C 149.573 1.75341 2.9235 0
M  V30 1617 H 150.766 2.67034 1.36502 0
M  V30 1618 H 148.319 1.40838 0.677812 0
M  V30 1619 H 149.054 0.809383 3.14037 0
M  V30 1620 H 148.839 2.57436 2.95752 0
M  V30 1621 H 150.329 1.92559 3.70555 0
M  V30 1622 N 150.766 -0.704594 1.40972 0
M  V30 1623 C 152.015 -1.46018 1.39146 0
M  V30 1624 C 152.328 -1.956 0.000589254 0
M  V30 1625 O 153.534 -2.71137 -0.1403 0
M  V30 1626 C 151.99 -2.63996 2.4461 0
M  V30 1627 C 151.598 -2.21238 3.89561 0
M  V30 1628 C 153.342 -3.41677 2.51907 0
M  V30 1629 C 151.249 -3.3612 4.86598 0
M  V30 1630 H 150.179 -0.548444 0.517422 0
M  V30 1631 H 152.83 -0.765784 1.66757 0
M  V30 1632 H 151.212 -3.3566 2.10115 0
M  V30 1633 H 152.386 -1.56923 4.33257 0
M  V30 1634 H 150.701 -1.56574 3.85841 0
M  V30 1635 H 153.298 -4.27182 3.2159 0
M  V30 1636 H 153.641 -3.86247 1.55303 0
M  V30 1637 H 154.174 -2.77064 2.85448 0
M  V30 1638 H 150.913 -2.96572 5.84573 0
M  V30 1639 H 150.433 -3.99315 4.47557 0
M  V30 1640 H 152.112 -4.02029 5.06934 0
M  V30 1641 N 152.244 -1.26651 -0.937939 0
M  V30 1642 C 153.49 -1.12553 -1.687 0
M  V30 1643 C 153.823 0.329782 -1.91379 0
M  V30 1644 O 153.098 1.24202 -1.4968 0
M  V30 1645 C 153.381 -1.89862 -3.05981 0
M  V30 1646 C 153.234 -3.43318 -2.90607 0
M  V30 1647 C 154.553 -1.69499 -4.0615 0
M  V30 1648 H 151.672 -0.410257 -0.612257 0
M  V30 1649 H 154.314 -1.55685 -1.08913 0
M  V30 1650 H 152.464 -1.53204 -3.57017 0
M  V30 1651 H 154.136 -3.89747 -2.46769 0
M  V30 1652 H 152.379 -3.70179 -2.26164 0
M  V30 1653 H 153.05 -3.92642 -3.8799 0
M  V30 1654 H 155.526 -2.01442 -3.64088 0
M  V30 1655 H 154.402 -2.26002 -5.00214 0
M  V30 1656 H 154.663 -0.640365 -4.37438 0
M  V30 1657 N 153.722 1.14298 -1.08507 0
M  V30 1658 C 154.97 1.84993 -0.813763 0
M  V30 1659 C 155.291 1.83405 0.662393 0
M  V30 1660 O 154.561 1.28319 1.48024 0
M  V30 1661 H 153.141 0.684966 -0.298045 0
M  V30 1662 H 155.803 1.385 -1.37126 0
M  V30 1663 H 154.899 2.89788 -1.15884 0
M  V30 1664 N 155.201 0.870884 1.31352 0
M  V30 1665 C 156.447 0.482987 1.96965 0
M  V30 1666 C 156.78 -0.962462 1.68672 0
M  V30 1667 O 156.055 -1.6779 0.98371 0
M  V30 1668 C 156.338 0.741752 3.52378 0
M  V30 1669 C 156.191 2.2368 3.9024 0
M  V30 1670 C 157.51 0.208838 4.39604 0
M  V30 1671 H 154.629 0.176955 0.715441 0
M  V30 1672 H 157.271 1.09229 1.55464 0
M  V30 1673 H 155.421 0.223149 3.87859 0
M  V30 1674 H 157.093 2.82273 3.64856 0
M  V30 1675 H 155.336 2.70901 3.38814 0
M  V30 1676 H 156.007 2.3685 4.98604 0
M  V30 1677 H 158.483 0.652529 4.10952 0
M  V30 1678 H 157.359 0.419336 5.47296 0
M  V30 1679 H 157.62 -0.889275 4.33064 0
M  V30 1680 N 156.679 -1.44442 0.630414 0
M  V30 1681 C 157.925 -2.02894 0.143332 0
M  V30 1682 C 158.28 -1.48697 -1.22094 0
M  V30 1683 O 157.573 -0.661171 -1.79831 0
M  V30 1684 C 157.767 -3.57332 0.0697835 0
M  V30 1685 C 157.596 -4.26512 1.42539 0
M  V30 1686 C 156.366 -4.63516 2.01198 0
M  V30 1687 C 158.564 -4.57004 2.35907 0
M  V30 1688 N 156.546 -5.17661 3.30001 0
M  V30 1689 C 157.917 -5.12223 3.49324 0
M  V30 1690 C 159.972 -4.38955 2.34995 0
M  V30 1691 C 158.675 -5.51295 4.62024 0
M  V30 1692 C 160.701 -4.79075 3.46758 0
M  V30 1693 C 160.063 -5.34407 4.58899 0
M  V30 1694 H 156.162 -0.776041 0.0963523 0
M  V30 1695 H 158.746 -1.75945 0.833752 0
M  V30 1696 H 156.917 -3.83894 -0.589915 0
M  V30 1697 H 158.649 -4.02451 -0.42606 0
M  V30 1698 H 155.404 -4.47811 1.54151 0
M  V30 1699 H 155.828 -5.4921 3.95851 0
M  V30 1700 H 160.47 -3.95469 1.49545 0
M  V30 1701 H 158.188 -5.93736 5.48182 0
M  V30 1702 H 161.774 -4.66824 3.47227 0
M  V30 1703 H 160.654 -5.64878 5.4395 0
M  V30 1704 N 158.157 -0.370918 -1.53173 0
M  V30 1705 C 159.089 0.507823 -2.23503 0
M  V30 1706 C 160.102 1.04182 -1.251 0
M  V30 1707 O 161.291 0.947286 -1.5129 0
M  V30 1708 C 158.391 1.71447 -2.92334 0
M  V30 1709 C 157.564 1.31105 -4.17289 0
M  V30 1710 C 156.623 2.38035 -4.69282 0
M  V30 1711 O 155.649 2.00204 -5.32829 0
M  V30 1712 N 156.851 3.69697 -4.47554 0
M  V30 1713 H 159.616 -0.0946382 -2.99551 0
M  V30 1714 H 157.177 -0.196358 -1.60705 0
M  V30 1715 H 159.169 2.42469 -3.24023 0
M  V30 1716 H 157.739 2.22368 -2.19707 0
M  V30 1717 H 156.959 0.430462 -3.91843 0
M  V30 1718 H 158.247 1.0179 -4.98514 0
M  V30 1719 H 157.645 4.03205 -3.9679 0
M  V30 1720 H 156.202 4.36807 -4.8378 0
M  V30 1721 N 159.635 1.57281 -0.100228 0
M  V30 1722 C 160.545 2.17833 0.870965 0
M  V30 1723 C 161.561 1.14921 1.30649 0
M  V30 1724 O 162.737 1.47313 1.37335 0
M  V30 1725 C 159.802 2.75085 2.1102 0
M  V30 1726 C 158.863 3.9297 1.72838 0
M  V30 1727 C 158.096 4.47482 2.90854 0
M  V30 1728 O 158.319 4.00922 4.05731 0
M  V30 1729 O 157.253 5.38433 2.69023 0
M  V30 1730 H 161.079 3.0124 0.38575 0
M  V30 1731 H 158.664 1.48881 0.124397 0
M  V30 1732 H 160.546 3.11656 2.83634 0
M  V30 1733 H 159.221 1.94721 2.58584 0
M  V30 1734 H 158.128 3.61201 0.973883 0
M  V30 1735 H 159.461 4.74713 1.30033 0
M  V30 1736 N 161.113 -0.173488 1.56642 0
M  V30 1737 C 162.529 -0.525174 1.50712 0
M  V30 1738 C 162.729 -1.8476 0.804107 0
M  V30 1739 O 161.785 -2.49869 0.363574 0
M  V30 1740 C 163.098 -0.559937 2.95441 0
M  V30 1741 C 164.646 -0.647288 3.06234 0
M  V30 1742 C 165.121 -0.712963 4.52417 0
M  V30 1743 N 166.612 -0.775911 4.56655 0
M  V30 1744 C 167.347 -0.847264 5.67106 0
M  V30 1745 N 166.843 -0.879585 6.87194 0
M  V30 1746 N 168.636 -0.886117 5.55071 0
M  V30 1747 H 160.787 0.693681 2.00753 0
M  V30 1748 H 163.05 0.249841 0.914485 0
M  V30 1749 H 162.756 0.343049 3.50023 0
M  V30 1750 H 162.63 -1.40718 3.49969 0
M  V30 1751 H 165.017 -1.5407 2.51687 0
M  V30 1752 H 165.098 0.226586 2.54794 0
M  V30 1753 H 164.742 0.176183 5.07594 0
M  V30 1754 H 164.672 -1.60295 5.0161 0
M  V30 1755 H 167.163 -0.759304 3.70193 0
M  V30 1756 H 167.476 -0.935144 7.67121 0
M  V30 1757 H 165.821 -0.847898 6.89808 0
M  V30 1758 H 169.012 -0.857853 4.60172 0
M  V30 1759 H 169.185 -0.938263 6.41171 0
M  V30 1760 N 162.591 -1.51276 -0.441967 0
M  V30 1761 C 163.539 -1.72823 -1.55676 0
M  V30 1762 C 164.533 -0.59445 -1.58627 0
M  V30 1763 O 165.739 -0.775715 -1.62427 0
M  V30 1764 H 162.114 -0.545983 -0.517113 0
M  V30 1765 H 164.085 -2.6628 -1.34675 0
M  V30 1766 C 162.834 -1.86619 -2.93375 0
M  V30 1767 H 162.157 -2.73264 -2.91834 0
M  V30 1768 H 163.597 -2.05709 -3.70756 0
M  V30 1769 C 162.056 -0.624842 -3.31055 0
M  V30 1770 O 162.586 0.222636 -4.01083 0
M  V30 1771 N 160.792 -0.470288 -2.86769 0
M  V30 1772 H 160.339 -1.161 -2.29953 0
M  V30 1773 H 160.297 0.359051 -3.12343 0
M  V30 1774 N 164.069 0.697108 -1.41344 0
M  V30 1775 C 165.032 1.79281 -1.42797 0
M  V30 1776 C 166.032 1.57607 -0.318837 0
M  V30 1777 O 167.222 1.64309 -0.578642 0
M  V30 1778 C 164.354 3.17632 -1.23785 0
M  V30 1779 H 165.547 1.79385 -2.40335 0
M  V30 1780 H 163.1 0.904582 -1.27464 0
M  V30 1781 H 163.835 3.23167 -0.270814 0
M  V30 1782 H 163.62 3.34765 -2.04144 0
M  V30 1783 H 165.11 3.97617 -1.27633 0
M  V30 1784 N 165.547 1.27147 0.931209 0
M  V30 1785 C 166.457 1.11372 2.06478 0
M  V30 1786 C 167.473 0.044645 1.73943 0
M  V30 1787 O 168.649 0.250417 1.99837 0
M  V30 1788 C 165.714 0.758838 3.38294 0
M  V30 1789 C 164.775 1.90841 3.84549 0
M  V30 1790 C 164.008 1.57036 5.10074 0
M  V30 1791 O 164.231 0.476645 5.68405 0
M  V30 1792 O 163.165 2.40839 5.51616 0
M  V30 1793 H 166.991 2.06493 2.22698 0
M  V30 1794 H 164.576 1.06301 1.04978 0
M  V30 1795 H 166.458 0.574098 4.17471 0
M  V30 1796 H 165.133 -0.162879 3.2329 0
M  V30 1797 H 164.04 2.14819 3.06274 0
M  V30 1798 H 165.373 2.81021 4.04089 0
M  V30 1799 N 167.025 -1.13721 1.09112 0
M  V30 1800 C 167.973 -2.21103 0.722219 0
M  V30 1801 C 168.967 -1.67147 -0.275374 0
M  V30 1802 O 170.173 -1.79477 -0.137176 0
M  V30 1803 H 166.548 -0.720445 0.215553 0
M  V30 1804 H 168.519 -2.49483 1.63709 0
M  V30 1805 C 167.268 -3.47352 0.15543 0
M  V30 1806 H 166.591 -3.89206 0.914246 0
M  V30 1807 H 168.031 -4.2395 -0.0647967 0
M  V30 1808 C 166.49 -3.1814 -1.10852 0
M  V30 1809 O 167.02 -3.36604 -2.19227 0
M  V30 1810 N 165.226 -2.72045 -1.02176 0
M  V30 1811 H 164.773 -2.57221 -0.139764 0
M  V30 1812 H 164.731 -2.52875 -1.8682 0
M  V30 1813 N 168.503 -0.877838 -1.30888 0
M  V30 1814 C 169.466 -0.344265 -2.266 0
M  V30 1815 C 170.466 0.50922 -1.52524 0
M  V30 1816 O 171.656 0.317398 -1.71284 0
M  V30 1817 C 168.788 0.510198 -3.37061 0
M  V30 1818 H 169.981 -1.1893 -2.7531 0
M  V30 1819 H 167.534 -0.654088 -1.41956 0
M  V30 1820 H 168.269 1.37612 -2.93655 0
M  V30 1821 H 168.054 -0.101047 -3.9197 0
M  V30 1822 H 169.544 0.875537 -4.08319 0
M  V30 1823 N 169.982 1.44106 -0.638065 0
M  V30 1824 C 171.231 2.01194 -0.142744 0
M  V30 1825 C 171.544 1.50835 1.24532 0
M  V30 1826 O 172.75 2.00096 1.83504 0
M  V30 1827 C 171.206 3.59319 -0.20442 0
M  V30 1828 C 170.814 4.18674 -1.59423 0
M  V30 1829 C 172.558 4.23854 0.234079 0
M  V30 1830 C 170.465 5.69045 -1.61065 0
M  V30 1831 H 169.395 0.752367 -0.0495998 0
M  V30 1832 H 172.046 1.65246 -0.797881 0
M  V30 1833 H 170.428 3.92598 0.517946 0
M  V30 1834 H 171.602 3.96921 -2.34074 0
M  V30 1835 H 169.917 3.66453 -1.97741 0
M  V30 1836 H 172.514 5.34155 0.241443 0
M  V30 1837 H 172.857 3.96688 1.2627 0
M  V30 1838 H 173.39 3.95403 -0.436025 0
M  V30 1839 H 170.129 6.00956 -2.61787 0
M  V30 1840 H 169.649 5.929 -0.90718 0
M  V30 1841 H 171.328 6.32809 -1.34766 0
M  V30 1842 N 171.46 0.379036 1.52974 0
M  V30 1843 C 172.37 -0.468639 2.29872 0
M  V30 1844 C 173.386 -1.08067 1.36373 0
M  V30 1845 O 174.562 -1.08871 1.69438 0
M  V30 1846 C 171.627 -1.58594 3.083 0
M  V30 1847 C 170.688 -1.00007 4.17489 0
M  V30 1848 C 169.921 -2.06413 4.92168 0
M  V30 1849 O 170.144 -3.27751 4.66835 0
M  V30 1850 O 169.078 -1.68717 5.7777 0
M  V30 1851 H 172.904 0.157508 3.03291 0
M  V30 1852 H 170.489 0.143035 1.48714 0
M  V30 1853 H 172.371 -2.23525 3.57232 0
M  V30 1854 H 171.046 -2.19724 2.37703 0
M  V30 1855 H 169.953 -0.314299 3.72777 0
M  V30 1856 H 171.286 -0.433135 4.90291 0
M  V30 1857 N 172.938 -1.57226 0.108567 0
M  V30 1858 C 173.901 -2.13602 -0.831082 0
M  V30 1859 C 174.901 -1.06841 -1.20173 0
M  V30 1860 O 176.091 -1.32666 -1.12895 0
M  V30 1861 C 173.223 -2.66769 -2.12243 0
M  V30 1862 H 174.416 -2.97951 -0.341317 0
M  V30 1863 H 171.969 -1.55667 -0.14057 0
M  V30 1864 H 172.704 -1.85977 -2.65675 0
M  V30 1865 H 172.489 -3.44839 -1.86625 0
M  V30 1866 H 173.979 -3.10332 -2.79435 0
M  V30 1867 N 174.416 0.165178 -1.56732 0
M  V30 1868 C 175.346 1.20651 -1.99914 0
M  V30 1869 C 176.327 1.45827 -0.875705 0
M  V30 1870 O 177.512 1.57057 -1.14223 0
M  V30 1871 C 174.642 2.54401 -2.36427 0
M  V30 1872 C 173.596 2.43782 -3.51787 0
M  V30 1873 C 172.922 3.82078 -3.7406 0
M  V30 1874 C 174.222 1.93732 -4.85041 0
M  V30 1875 H 175.916 0.847534 -2.87154 0
M  V30 1876 H 173.462 0.40625 -1.38151 0
M  V30 1877 H 175.415 3.27458 -2.65234 0
M  V30 1878 H 174.139 2.92098 -1.46103 0
M  V30 1879 H 172.798 1.73178 -3.23117 0
M  V30 1880 H 172.446 4.17179 -2.81017 0
M  V30 1881 H 172.146 3.7584 -4.51684 0
M  V30 1882 H 173.67 4.56712 -4.05274 0
M  V30 1883 H 175.084 2.56569 -5.12684 0
M  V30 1884 H 173.481 1.98428 -5.66345 0
M  V30 1885 H 174.551 0.891962 -4.76626 0
M  V30 1886 N 175.894 1.51508 0.433938 0
M  V30 1887 C 176.841 1.73068 1.52696 0
M  V30 1888 C 177.811 0.572441 1.55924 0
M  V30 1889 O 178.996 0.807253 1.72882 0
M  V30 1890 C 176.136 1.86474 2.90381 0
M  V30 1891 C 175.249 3.14037 2.96656 0
M  V30 1892 C 174.384 3.18019 4.25485 0
M  V30 1893 C 173.423 4.39882 4.2564 0
M  V30 1894 N 172.56 4.41394 5.45999 0
M  V30 1895 H 177.4 2.66366 1.33615 0
M  V30 1896 H 174.937 1.32008 0.649018 0
M  V30 1897 H 176.895 1.92229 3.70275 0
M  V30 1898 H 175.525 0.965809 3.08013 0
M  V30 1899 H 174.577 3.17575 2.09404 0
M  V30 1900 H 175.889 4.0394 2.92633 0
M  V30 1901 H 175.043 3.22708 5.13755 0
M  V30 1902 H 173.782 2.2601 4.3217 0
M  V30 1903 H 172.787 4.35366 3.35763 0
M  V30 1904 H 174.012 5.33159 4.20617 0
M  V30 1905 H 171.958 3.52258 5.53399 0
M  V30 1906 H 171.875 5.25111 5.4387 0
M  V30 1907 H 173.143 4.50281 6.36292 0
M  V30 1908 N 177.372 -0.689602 1.41712 0
M  V30 1909 C 178.282 -1.83314 1.46401 0
M  V30 1910 C 179.298 -1.7036 0.35405 0
M  V30 1911 O 180.474 -1.92171 0.602692 0
M  V30 1912 C 177.539 -3.19344 1.34982 0
M  V30 1913 C 176.6 -3.44363 2.56344 0
M  V30 1914 C 175.833 -4.73904 2.45461 0
M  V30 1915 O 176.056 -5.508 1.48241 0
M  V30 1916 O 174.99 -4.99839 3.35328 0
M  V30 1917 H 178.816 -1.82314 2.42889 0
M  V30 1918 H 176.401 -0.843438 1.23315 0
M  V30 1919 H 178.283 -4.00547 1.3092 0
M  V30 1920 H 176.958 -3.21014 0.41612 0
M  V30 1921 H 175.865 -2.63067 2.65982 0
M  V30 1922 H 177.198 -3.47512 3.48563 0
M  V30 1923 N 178.85 -1.27639 -0.924453 0
M  V30 1924 C 180.08 -1.16819 -1.70402 0
M  V30 1925 C 180.488 0.277191 -1.87158 0
M  V30 1926 O 179.831 1.20025 -1.39067 0
M  V30 1927 C 179.893 -1.78305 -3.12166 0
M  V30 1928 C 179.557 -3.27502 -3.18734 0
M  V30 1929 C 180.554 -4.2409 -3.00738 0
M  V30 1930 C 178.239 -3.68269 -3.4159 0
M  V30 1931 C 180.233 -5.59422 -3.05492 0
M  V30 1932 C 177.92 -5.0373 -3.45977 0
M  V30 1933 C 178.918 -5.99116 -3.27946 0
M  V30 1934 O 178.606 -7.32108 -3.32074 0
M  V30 1935 H 178.338 -0.406931 -0.539799 0
M  V30 1936 H 180.892 -1.69078 -1.16626 0
M  V30 1937 H 179.122 -1.20528 -3.67437 0
M  V30 1938 H 180.811 -1.62154 -3.72103 0
M  V30 1939 H 181.577 -3.93931 -2.82919 0
M  V30 1940 H 177.456 -2.94496 -3.54673 0
M  V30 1941 H 181 -6.33852 -2.91337 0
M  V30 1942 H 176.897 -5.33543 -3.63321 0
M  V30 1943 H 177.665 -7.40598 -3.48507 0
M  V30 1944 N 180.328 1.1314 -1.09713 0
M  V30 1945 C 181.238 2.22242 -0.751367 0
M  V30 1946 C 182.254 1.72224 0.247938 0
M  V30 1947 O 183.43 2.01205 0.0885463 0
M  V30 1948 C 180.495 3.46231 -0.180274 0
M  V30 1949 C 179.556 4.11125 -1.2359 0
M  V30 1950 C 178.789 5.29195 -0.691966 0
M  V30 1951 O 179.012 5.68342 0.48414 0
M  V30 1952 O 177.946 5.84214 -1.44838 0
M  V30 1953 H 181.772 2.54197 -1.66186 0
M  V30 1954 H 179.357 1.21331 -0.871735 0
M  V30 1955 H 181.239 4.21185 0.134739 0
M  V30 1956 H 179.914 3.1597 0.703185 0
M  V30 1957 H 178.821 3.37985 -1.60366 0
M  V30 1958 H 180.154 4.45524 -2.09211 0
M  V30 1959 N 181.806 0.884767 1.30421 0
M  V30 1960 C 183.217 0.553656 1.78302 0
M  V30 1961 C 183.568 -0.930153 1.7275 0
M  V30 1962 O 182.693 -1.72681 1.30423 0
M  V30 1963 C 183.288 0.998234 3.2376 0
M  V30 1964 C 181.847 0.71854 3.69478 0
M  V30 1965 C 180.994 1.18132 2.50879 0
M  V30 1966 H 183.945 1.06901 1.17294 0
M  V30 1967 H 183.966 0.327118 3.79091 0
M  V30 1968 H 183.478 2.0782 3.27769 0
M  V30 1969 H 181.579 -0.349444 3.70958 0
M  V30 1970 H 181.692 1.30595 4.60958 0
M  V30 1971 H 180.056 0.600669 2.47516 0
M  V30 1972 H 180.839 2.26902 2.57624 0
M  V30 1973 N 183.284 -1.43765 0.645699 0
M  V30 1974 C 184.194 -2.34544 -0.0512957 0
M  V30 1975 C 185.21 -1.53455 -0.82022 0
M  V30 1976 O 186.386 -1.86133 -0.769176 0
M  V30 1977 C 183.451 -3.31636 -1.01087 0
M  V30 1978 C 182.512 -4.2863 -0.239712 0
M  V30 1979 C 181.745 -5.21084 -1.15358 0
M  V30 1980 O 181.968 -5.1779 -2.39269 0
M  V30 1981 O 180.902 -5.98593 -0.630038 0
M  V30 1982 H 184.728 -2.95624 0.695718 0
M  V30 1983 H 182.313 -1.43781 0.405882 0
M  V30 1984 H 184.195 -3.9136 -1.56254 0
M  V30 1985 H 182.87 -2.73069 -1.73824 0
M  V30 1986 H 181.777 -3.72408 0.355356 0
M  V30 1987 H 183.11 -4.90157 0.447936 0
M  V30 1988 N 184.763 -0.387143 -1.52771 0
M  V30 1989 C 185.696 0.493123 -2.22808 0
M  V30 1990 C 186.674 1.0658 -1.22798 0
M  V30 1991 O 187.858 1.11785 -1.51777 0
M  V30 1992 C 184.985 1.68238 -2.93962 0
M  V30 1993 C 184.031 1.23515 -4.08223 0
M  V30 1994 S 184.864 0.21848 -5.35054 0
M  V30 1995 C 186.02 1.41357 -6.09729 0
M  V30 1996 H 186.253 -0.101625 -2.97126 0
M  V30 1997 H 183.786 -0.171323 -1.53447 0
M  V30 1998 H 185.744 2.36443 -3.35567 0
M  V30 1999 H 184.405 2.24842 -2.19328 0
M  V30 2000 H 183.598 2.12304 -4.57103 0
M  V30 2001 H 183.2 0.632044 -3.68621 0
M  V30 2002 H 185.492 2.34101 -6.3577 0
M  V30 2003 H 186.435 0.965736 -7.01484 0
M  V30 2004 H 186.843 1.6294 -5.40473 0
M  V30 2005 N 186.241 1.57166 -0.116904 0
M  V30 2006 C 187.489 1.94737 0.540533 0
M  V30 2007 C 187.81 1.00096 1.67349 0
M  V30 2008 O 187.08 0.0568854 1.95817 0
M  V30 2009 H 185.66 0.718981 0.202669 0
M  V30 2010 H 188.322 1.94017 -0.185353 0
M  V30 2011 H 187.418 2.97719 0.936483 0
M  V30 2012 N 187.719 -0.156864 1.56817 0
M  V30 2013 C 188.666 -1.19394 1.97519 0
M  V30 2014 C 189.636 -1.4322 0.841265 0
M  V30 2015 O 190.821 -1.55719 1.10255 0
M  V30 2016 C 187.961 -2.52483 2.35258 0
M  V30 2017 C 187.074 -2.35914 3.61896 0
M  V30 2018 C 186.209 -3.61969 3.88782 0
M  V30 2019 C 185.248 -3.40395 5.08722 0
M  V30 2020 N 184.385 -4.58556 5.31668 0
M  V30 2021 H 189.225 -0.839845 2.85921 0
M  V30 2022 H 186.762 -0.403264 1.41464 0
M  V30 2023 H 188.72 -3.30071 2.55165 0
M  V30 2024 H 187.35 -2.85859 1.49949 0
M  V30 2025 H 186.402 -1.49429 3.49821 0
M  V30 2026 H 187.714 -2.15926 4.49641 0
M  V30 2027 H 186.868 -4.47989 4.09135 0
M  V30 2028 H 185.607 -3.84951 2.9944 0
M  V30 2029 H 184.612 -2.52763 4.88253 0
M  V30 2030 H 185.837 -3.18822 5.99608 0
M  V30 2031 H 183.783 -4.81729 4.45279 0
M  V30 2032 H 183.7 -4.41535 6.13664 0
M  V30 2033 H 184.968 -5.45817 5.5651 0
M  V30 2034 N 189.197 -1.51736 -0.425897 0
M  V30 2035 C 190.443 -1.65214 -1.1761 0
M  V30 2036 C 190.776 -0.372778 -1.90589 0
M  V30 2037 O 190.051 0.628139 -1.84078 0
M  V30 2038 C 190.334 -2.86312 -2.18398 0
M  V30 2039 C 190.187 -4.24254 -1.49426 0
M  V30 2040 C 191.506 -3.02925 -3.19256 0
M  V30 2041 H 188.625 -0.601263 -0.426206 0
M  V30 2042 H 191.267 -1.8425 -0.463882 0
M  V30 2043 H 189.417 -2.70213 -2.79137 0
M  V30 2044 H 191.089 -4.52046 -0.919362 0
M  V30 2045 H 189.332 -4.26426 -0.796432 0
M  V30 2046 H 190.003 -5.05001 -2.22885 0
M  V30 2047 H 192.479 -3.1781 -2.68581 0
M  V30 2048 H 191.355 -3.89199 -3.8706 0
M  V30 2049 H 191.616 -2.15497 -3.86023 0
M  V30 2050 N 190.675 0.682077 -1.42076 0
M  V30 2051 C 191.905 1.46844 -1.45329 0
M  V30 2052 C 192.313 1.89102 -0.0609328 0
M  V30 2053 O 191.656 1.58238 0.933082 0
M  V30 2054 C 191.718 2.75375 -2.31104 0
M  V30 2055 C 191.382 2.55238 -3.79081 0
M  V30 2056 C 192.379 2.20309 -4.70914 0
M  V30 2057 C 190.064 2.70459 -4.2327 0
M  V30 2058 C 192.058 2.00859 -6.04925 0
M  V30 2059 C 189.745 2.50624 -5.57343 0
M  V30 2060 C 190.743 2.15876 -6.47986 0
M  V30 2061 O 190.431 1.96227 -7.79583 0
M  V30 2062 H 190.163 0.4586 -0.496651 0
M  V30 2063 H 192.717 0.846131 -1.87162 0
M  V30 2064 H 190.947 3.40061 -1.84107 0
M  V30 2065 H 192.636 3.37231 -2.25898 0
M  V30 2066 H 193.402 2.08153 -4.38061 0
M  V30 2067 H 189.281 2.96485 -3.53012 0
M  V30 2068 H 192.825 1.7366 -6.75639 0
M  V30 2069 H 188.722 2.62375 -5.89771 0
M  V30 2070 H 189.49 2.10883 -7.90867 0
M  V30 2071 N 192.153 1.28127 0.917671 0
M  V30 2072 C 193.569 1.05749 1.19538 0
M  V30 2073 C 193.769 -0.202633 2.00479 0
M  V30 2074 O 192.825 -0.905382 2.3571 0
M  V30 2075 C 194.138 2.30273 1.93378 0
M  V30 2076 C 195.686 2.35412 2.06277 0
M  V30 2077 C 196.161 3.59692 2.83524 0
M  V30 2078 N 197.652 3.60309 2.91087 0
M  V30 2079 C 198.387 4.53147 3.51348 0
M  V30 2080 N 197.883 5.563 4.12919 0
M  V30 2081 N 199.676 4.40751 3.48849 0
M  V30 2082 H 191.827 2.09024 0.377184 0
M  V30 2083 H 194.09 0.919798 0.22951 0
M  V30 2084 H 193.796 3.22055 1.41328 0
M  V30 2085 H 193.67 2.36378 2.93947 0
M  V30 2086 H 196.057 1.4413 2.57508 0
M  V30 2087 H 196.138 2.33304 1.04895 0
M  V30 2088 H 195.782 4.51316 2.32973 0
M  V30 2089 H 195.712 3.59054 3.85211 0
M  V30 2090 H 198.203 2.85714 2.47338 0
M  V30 2091 H 198.516 6.2329 4.56869 0
M  V30 2092 H 196.861 5.60131 4.11435 0
M  V30 2093 H 200.052 3.59367 2.99955 0
M  V30 2094 H 200.225 5.13291 3.9552 0
M  V30 2095 N 193.631 -1.12557 1.10312 0
M  V30 2096 C 194.563 -2.17971 0.708625 0
M  V30 2097 C 195.576 -1.60806 -0.254027 0
M  V30 2098 O 196.765 -1.78458 -0.0386891 0
M  V30 2099 C 193.865 -3.38891 0.0248198 0
M  V30 2100 C 193.038 -4.25548 1.01132 0
M  V30 2101 C 192.097 -5.24972 0.35924 0
M  V30 2102 O 191.123 -5.60174 1.00965 0
M  V30 2103 N 192.325 -5.73747 -0.882847 0
M  V30 2104 H 195.09 -2.52427 1.61557 0
M  V30 2105 H 192.651 -1.27967 0.991771 0
M  V30 2106 H 194.643 -4.02485 -0.422852 0
M  V30 2107 H 193.213 -3.02596 -0.784514 0
M  V30 2108 H 192.433 -3.58589 1.6373 0
M  V30 2109 H 193.721 -4.80294 1.67914 0
M  V30 2110 H 193.119 -5.4731 -1.43065 0
M  V30 2111 H 191.676 -6.39234 -1.27369 0
M  V30 2112 N 195.109 -0.891671 -1.2995 0
M  V30 2113 C 196.386 -0.433307 -1.9074 0
M  V30 2114 C 196.766 1.08646 -1.80995 0
M  V30 2115 O 196.114 1.92476 -1.23147 0
M  V30 2116 C 196.324 -0.938895 -3.36134 0
M  V30 2117 C 197.672 -0.977829 -4.13187 0
M  V30 2118 O 198.696 -0.886015 -3.45005 0
M  V30 2119 O 197.555 -1.11453 -5.35015 0
M  V30 2120 H 194.649 -0.133699 -0.816121 0
M  V30 2121 H 197.195 -0.981011 -1.38471 0
M  V30 2122 H 195.967 -1.98281 -3.37343 0
M  V30 2123 H 195.59 -0.37074 -3.95868 0
M  V30 2124 N 196.587 1.43421 -0.653314 0
M  V30 2125 C 198.003 1.56341 -0.320886 0
M  V30 2126 C 198.203 1.63696 1.17499 0
M  V30 2127 O 197.259 1.59208 1.95982 0
M  V30 2128 C 198.572 2.82424 -1.03233 0
M  V30 2129 C 200.12 2.96168 -1.01259 0
M  V30 2130 C 200.595 4.25084 -1.70492 0
M  V30 2131 N 202.086 4.31948 -1.67257 0
M  V30 2132 C 202.821 5.30466 -2.17701 0
M  V30 2133 N 202.317 6.35261 -2.76434 0
M  V30 2134 N 204.11 5.2212 -2.082 0
M  V30 2135 H 196.261 1.3689 -1.62403 0
M  V30 2136 H 198.524 0.657455 -0.682977 0
M  V30 2137 H 198.23 2.83053 -2.08744 0
M  V30 2138 H 198.104 3.72653 -0.583948 0
M  V30 2139 H 200.491 2.9508 0.0341235 0
M  V30 2140 H 200.572 2.07229 -1.49966 0
M  V30 2141 H 200.216 4.26932 -2.7512 0
M  V30 2142 H 200.146 5.1292 -1.19251 0
M  V30 2143 H 202.637 3.56838 -1.24398 0
M  V30 2144 H 202.95 7.06754 -3.12601 0
M  V30 2145 H 201.295 6.35884 -2.80495 0
M  V30 2146 H 204.486 4.39166 -1.62021 0
M  V30 2147 H 204.659 5.98739 -2.47822 0
M  V30 2148 N 198.065 0.39524 1.52563 0
M  V30 2149 C 199.012 -0.437036 2.26624 0
M  V30 2150 C 199.982 -1.05281 1.28472 0
M  V30 2151 O 201.167 -1.07971 1.57311 0
M  V30 2152 C 198.307 -1.55524 3.08069 0
M  V30 2153 C 197.42 -0.961745 4.21158 0
M  V30 2154 C 196.555 -2.05149 4.89987 0
M  V30 2155 C 195.594 -1.4342 5.95061 0
M  V30 2156 N 194.731 -2.46351 6.57462 0
M  V30 2157 H 199.571 0.200976 2.97322 0
M  V30 2158 H 197.108 0.110944 1.46681 0
M  V30 2159 H 199.066 -2.21437 3.53584 0
M  V30 2160 H 197.696 -2.16348 2.3957 0
M  V30 2161 H 196.748 -0.192048 3.79915 0
M  V30 2162 H 198.06 -0.470701 4.96574 0
M  V30 2163 H 197.214 -2.78819 5.38837 0
M  V30 2164 H 195.953 -2.57615 4.14109 0
M  V30 2165 H 194.958 -0.682774 5.45544 0
M  V30 2166 H 196.183 -0.917416 6.72875 0
M  V30 2167 H 194.129 -2.97975 5.8442 0
M  V30 2168 H 194.046 -2.02019 7.28508 0
M  V30 2169 H 195.314 -3.19633 7.10954 0
M  V30 2170 N 199.544 -1.57102 0.125237 0
M  V30 2171 C 200.769 -2.0019 -0.542101 0
M  V30 2172 C 201.194 -1.00449 -1.59034 0
M  V30 2173 O 200.552 0.0229423 -1.81285 0
M  V30 2174 C 200.6 -3.42129 -1.13929 0
M  V30 2175 O 199.704 -3.45307 -2.2547 0
M  V30 2176 H 199.045 -0.650171 -0.134812 0
M  V30 2177 H 201.575 -2.03461 0.215553 0
M  V30 2178 H 201.585 -3.80471 -1.4733 0
M  V30 2179 H 200.26 -4.14237 -0.371531 0
M  V30 2180 H 198.837 -3.1879 -1.93462 0
M  V30 2181 N 201.022 0.148545 -1.56898 0
M  V30 2182 C 202.268 0.862694 -1.83536 0
M  V30 2183 C 202.601 1.80889 -0.706604 0
M  V30 2184 O 201.876 1.92328 0.289885 0
M  V30 2185 C 202.159 1.63853 -3.20662 0
M  V30 2186 C 202.012 0.713925 -4.44098 0
M  V30 2187 C 203.331 2.60133 -3.54991 0
M  V30 2188 H 200.45 0.312179 -0.667618 0
M  V30 2189 H 203.092 0.127953 -1.89569 0
M  V30 2190 H 201.242 2.26489 -3.1565 0
M  V30 2191 H 202.914 0.098686 -4.61194 0
M  V30 2192 H 201.157 0.0234019 -4.33794 0
M  V30 2193 H 201.828 1.29278 -5.36648 0
M  V30 2194 H 204.304 2.07616 -3.60603 0
M  V30 2195 H 203.18 3.11468 -4.51972 0
M  V30 2196 H 203.441 3.41417 -2.80868 0
M  V30 2197 N 202.5 1.5196 0.417844 0
M  V30 2198 C 203.432 1.70895 1.52733 0
M  V30 2199 C 204.445 0.589405 1.51756 0
M  V30 2200 O 205.634 0.864312 1.56179 0
M  V30 2201 C 202.734 1.72627 2.91639 0
M  V30 2202 C 201.907 3.01479 3.16905 0
M  V30 2203 C 200.966 2.95139 4.35637 0
M  V30 2204 O 199.992 3.69059 4.3334 0
M  V30 2205 N 201.194 2.12328 5.40275 0
M  V30 2206 H 203.959 2.66612 1.36888 0
M  V30 2207 H 201.52 1.50089 0.607037 0
M  V30 2208 H 203.512 1.65928 3.6912 0
M  V30 2209 H 202.082 0.844216 3.00985 0
M  V30 2210 H 201.302 3.21895 2.27546 0
M  V30 2211 H 202.59 3.86736 3.30625 0
M  V30 2212 H 201.988 1.51685 5.44985 0
M  V30 2213 H 200.545 2.11494 6.16534 0
M  V30 2214 N 203.978 -0.674533 1.42435 0
M  V30 2215 C 205.394 -0.98769 1.25367 0
M  V30 2216 C 205.594 -2.00879 0.158044 0
M  V30 2217 O 204.65 -2.48075 -0.470633 0
M  V30 2218 C 205.963 -1.49224 2.6106 0
M  V30 2219 C 207.511 -1.61 2.68417 0
M  V30 2220 C 207.986 -2.14852 4.04478 0
M  V30 2221 N 209.477 -2.22185 4.06434 0
M  V30 2222 C 210.212 -2.64928 5.08528 0
M  V30 2223 N 209.708 -3.07121 6.21006 0
M  V30 2224 N 211.501 -2.64679 4.95885 0
M  V30 2225 H 203.652 0.00152503 2.124 0
M  V30 2226 H 205.915 -0.0618434 0.945981 0
M  V30 2227 H 205.621 -0.816453 3.42092 0
M  V30 2228 H 205.495 -2.47094 2.84999 0
M  V30 2229 H 207.882 -2.27686 1.87732 0
M  V30 2230 H 207.963 -0.616195 2.48267 0
M  V30 2231 H 207.607 -1.48775 4.85622 0
M  V30 2232 H 207.537 -3.15024 4.2198 0
M  V30 2233 H 210.028 -1.92435 3.25234 0
M  V30 2234 H 210.341 -3.38423 6.94759 0
M  V30 2235 H 208.686 -3.04978 6.24511 0
M  V30 2236 H 211.877 -2.31078 4.07088 0
M  V30 2237 H 212.05 -2.9767 5.75584 0
M  V30 2238 N 205.456 -1.28612 -0.910864 0
M  V30 2239 C 206.705 -1.15311 -1.65488 0
M  V30 2240 C 207.018 0.296999 -1.93332 0
M  V30 2241 O 208.224 0.551168 -2.65847 0
M  V30 2242 C 206.68 -2.01599 -2.98137 0
M  V30 2243 C 206.288 -3.51367 -2.7793 0
M  V30 2244 C 208.032 -1.96993 -3.76024 0
M  V30 2245 C 205.939 -4.29797 -4.06237 0
M  V30 2246 H 204.869 -0.42796 -0.620779 0
M  V30 2247 H 207.52 -1.53166 -1.01057 0
M  V30 2248 H 205.902 -1.56603 -3.63719 0
M  V30 2249 H 207.076 -4.0434 -2.21011 0
M  V30 2250 H 205.391 -3.57529 -2.13452 0
M  V30 2251 H 207.988 -2.52856 -4.71135 0
M  V30 2252 H 208.331 -0.94733 -4.05378 0
M  V30 2253 H 208.864 -2.39973 -3.17266 0
M  V30 2254 H 205.603 -5.32648 -3.82055 0
M  V30 2255 H 205.123 -3.81596 -4.62757 0
M  V30 2256 H 206.802 -4.39869 -4.74473 0
M  V30 2257 N 206.934 1.1197 -1.10907 0
M  V30 2258 C 207.881 2.17846 -0.762345 0
M  V30 2259 C 208.851 1.63995 0.263599 0
M  V30 2260 O 210.036 1.90273 0.141773 0
M  V30 2261 C 207.176 3.44487 -0.205651 0
M  V30 2262 C 206.289 4.12369 -1.28748 0
M  V30 2263 C 205.424 5.26674 -0.691919 0
M  V30 2264 C 204.463 5.86431 -1.75399 0
M  V30 2265 N 203.6 6.92142 -1.17833 0
M  V30 2266 H 208.44 2.46851 -1.6694 0
M  V30 2267 H 205.977 1.21188 -0.833776 0
M  V30 2268 H 207.935 4.16981 0.135037 0
M  V30 2269 H 206.565 3.15884 0.664613 0
M  V30 2270 H 205.617 3.38003 -1.74522 0
M  V30 2271 H 206.929 4.52844 -2.09125 0
M  V30 2272 H 206.083 6.05953 -0.300963 0
M  V30 2273 H 204.822 4.8749 0.143232 0
M  V30 2274 H 203.827 5.05835 -2.15432 0
M  V30 2275 H 205.052 6.27685 -2.59208 0
M  V30 2276 H 202.998 6.54985 -0.364725 0
M  V30 2277 H 202.915 7.31242 -1.91887 0
M  V30 2278 H 204.183 7.75237 -0.81408 0
M  V30 2279 N 208.412 0.89855 1.29475 0
M  V30 2280 C 209.375 0.380272 2.26023 0
M  V30 2281 C 210.375 -0.484891 1.53315 0
M  V30 2282 O 211.565 -0.290108 1.71767 0
M  V30 2283 C 208.697 -0.45651 3.3783 0
M  V30 2284 H 209.89 1.23295 2.73383 0
M  V30 2285 H 207.443 0.676589 1.40897 0
M  V30 2286 H 208.178 -1.32922 2.95808 0
M  V30 2287 H 207.963 0.163393 3.91759 0
M  V30 2288 H 209.453 -0.810466 4.0966 0
M  V30 2289 N 209.89 -1.43072 0.660911 0
M  V30 2290 C 210.837 -2.30785 -0.0259884 0
M  V30 2291 C 211.807 -1.45184 -0.806888 0
M  V30 2292 O 212.992 -1.74041 -0.781943 0
M  V30 2293 C 210.132 -3.30861 -0.981067 0
M  V30 2294 C 209.245 -4.31558 -0.195458 0
M  V30 2295 C 208.38 -5.18712 -1.14503 0
M  V30 2296 C 207.419 -6.11097 -0.350299 0
M  V30 2297 N 206.556 -6.90849 -1.25186 0
M  V30 2298 H 211.396 -2.88975 0.727846 0
M  V30 2299 H 208.933 -1.42353 0.370682 0
M  V30 2300 H 210.891 -3.87399 -1.54849 0
M  V30 2301 H 209.521 -2.74304 -1.70169 0
M  V30 2302 H 208.573 -3.77252 0.488374 0
M  V30 2303 H 209.885 -4.9701 0.422176 0
M  V30 2304 H 209.039 -5.79914 -1.78284 0
M  V30 2305 H 207.778 -4.53404 -1.79656 0
M  V30 2306 H 206.783 -5.48976 0.300808 0
M  V30 2307 H 208.008 -6.7845 0.296941 0
M  V30 2308 H 205.954 -6.28182 -1.89005 0
M  V30 2309 H 205.871 -7.52854 -0.688971 0
M  V30 2310 H 207.139 -7.5655 -1.87757 0
M  V30 2311 N 211.368 -0.403325 -1.52352 0
M  V30 2312 C 212.645 0.232611 -1.94212 0
M  V30 2313 C 213.025 1.63133 -1.33981 0
M  V30 2314 O 212.373 2.22659 -0.513344 0
M  V30 2315 C 212.583 0.244811 -3.4814 0
M  V30 2316 C 213.931 0.46698 -4.22024 0
M  V30 2317 O 214.955 0.324419 -3.5472 0
M  V30 2318 O 213.814 0.74747 -5.41364 0
M  V30 2319 H 210.908 0.148223 -0.813609 0
M  V30 2320 H 213.454 -0.458848 -1.63379 0
M  V30 2321 H 212.226 -0.734378 -3.84347 0
M  V30 2322 H 211.849 0.980611 -3.85318 0
M  V30 2323 N 212.846 1.57033 -0.133567 0
M  V30 2324 C 214.095 1.94861 0.520768 0
M  V30 2325 C 214.408 1.02012 1.66892 0
M  V30 2326 O 215.614 1.29365 2.38699 0
M  V30 2327 C 214.07 3.46362 0.977809 0
M  V30 2328 C 213.678 4.47773 -0.142674 0
M  V30 2329 C 215.422 3.93083 1.60269 0
M  V30 2330 C 213.329 5.90468 0.331883 0
M  V30 2331 H 212.259 0.727453 0.198315 0
M  V30 2332 H 214.91 1.82227 -0.215759 0
M  V30 2333 H 213.292 3.54282 1.7692 0
M  V30 2334 H 214.466 4.51536 -0.919317 0
M  V30 2335 H 212.781 4.10891 -0.675124 0
M  V30 2336 H 215.378 4.97121 1.96914 0
M  V30 2337 H 215.721 3.33876 2.48662 0
M  V30 2338 H 216.254 3.88025 0.876453 0
M  V30 2339 H 212.993 6.53463 -0.516341 0
M  V30 2340 H 212.513 5.90094 1.07469 0
M  V30 2341 H 214.192 6.42179 0.788332 0
M  V30 2342 N 214.325 -0.140222 1.56975 0
M  V30 2343 C 215.571 -0.852949 1.83991 0
M  V30 2344 C 215.904 -1.80512 0.716187 0
M  V30 2345 O 215.179 -1.92479 -0.279681 0
M  V30 2346 C 215.462 -1.6215 3.21527 0
M  V30 2347 C 215.315 -0.690363 4.4447 0
M  V30 2348 C 216.634 -2.58247 3.56366 0
M  V30 2349 H 213.753 -0.308634 0.669264 0
M  V30 2350 H 216.395 -0.117898 1.89634 0
M  V30 2351 H 214.545 -2.24812 3.16847 0
M  V30 2352 H 216.217 -0.0742264 4.6124 0
M  V30 2353 H 214.46 -0.000396433 4.338 0
M  V30 2354 H 215.131 -1.2643 5.37326 0
M  V30 2355 H 217.607 -2.05701 3.61699 0
M  V30 2356 H 216.483 -3.09067 4.53617 0
M  V30 2357 H 216.744 -3.39923 2.82674 0
M  V30 2358 N 215.803 -1.52179 -0.40978 0
M  V30 2359 C 217.214 -1.58377 -0.988615 0
M  V30 2360 C 217.565 -0.423879 -1.91566 0
M  V30 2361 O 216.69 0.455844 -2.11544 0
M  V30 2362 C 217.285 -2.87044 -1.79976 0
M  V30 2363 C 215.844 -2.95722 -2.32863 0
M  V30 2364 C 214.991 -2.53309 -1.12828 0
M  V30 2365 H 217.942 -1.57558 -0.190039 0
M  V30 2366 H 217.963 -2.7236 -2.65707 0
M  V30 2367 H 217.475 -3.71444 -1.12478 0
M  V30 2368 H 215.576 -2.15814 -3.03735 0
M  V30 2369 H 215.689 -3.99951 -2.63773 0
M  V30 2370 H 214.053 -2.07142 -1.48204 0
M  V30 2371 H 214.836 -3.40082 -0.46897 0
M  V30 2372 N 217.281 0.66697 -1.42791 0
M  V30 2373 C 218.529 1.42417 -1.43394 0
M  V30 2374 C 218.85 1.94925 -0.0542373 0
M  V30 2375 O 218.12 1.73564 0.908415 0
M  V30 2376 H 216.7 0.528515 -0.527902 0
M  V30 2377 H 219.362 0.787562 -1.78279 0
M  V30 2378 H 218.458 2.27333 -2.13837 0
M  V30 2379 N 218.759 1.29093 0.90403 0
M  V30 2380 C 220.036 1.075 1.63411 0
M  V30 2381 C 220.416 -0.382346 2.07609 0
M  V30 2382 O 219.764 -1.37031 1.82851 0
M  V30 2383 C 219.974 2.05858 2.81822 0
M  V30 2384 C 221.322 2.36539 3.52611 0
M  V30 2385 O 222.346 2.04019 2.91984 0
M  V30 2386 O 221.205 2.92085 4.61897 0
M  V30 2387 H 218.299 0.411547 0.717327 0
M  V30 2388 H 220.845 1.40449 0.952479 0
M  V30 2389 H 219.617 3.04037 2.46327 0
M  V30 2390 H 219.24 1.73613 3.57693 0
M  V30 2391 N 220.237 -1.11381 1.11499 0
M  V30 2392 C 221.486 -1.82494 0.858993 0
M  V30 2393 C 221.799 -1.85605 -0.617278 0
M  V30 2394 O 223.005 -2.52824 -0.989552 0
M  V30 2395 C 221.461 -3.27745 1.48699 0
M  V30 2396 C 221.069 -3.32961 2.99735 0
M  V30 2397 C 222.813 -4.03754 1.31085 0
M  V30 2398 C 220.72 -4.72612 3.55516 0
M  V30 2399 H 219.65 -0.683802 0.317696 0
M  V30 2400 H 222.301 -1.25331 1.34031 0
M  V30 2401 H 220.683 -3.84844 0.933339 0
M  V30 2402 H 221.857 -2.85741 3.61509 0
M  V30 2403 H 220.172 -2.70433 3.16631 0
M  V30 2404 H 222.769 -5.06891 1.70192 0
M  V30 2405 H 223.112 -4.15527 0.253496 0
M  V30 2406 H 223.645 -3.53043 1.83318 0
M  V30 2407 H 220.384 -4.66036 4.60967 0
M  V30 2408 H 219.904 -5.2024 2.98513 0
M  V30 2409 H 221.583 -5.4157 3.53992 0
M  V30 2410 N 221.715 -0.905404 -1.28997 0
M  V30 2411 C 222.961 -0.535039 -1.95615 0
M  V30 2412 C 223.294 0.917404 -1.71165 0
M  V30 2413 O 222.569 1.65123 -1.02785 0
M  V30 2414 C 222.852 -0.834918 -3.50287 0
M  V30 2415 C 222.705 -2.33948 -3.84172 0
M  V30 2416 C 224.024 -0.325318 -4.38896 0
M  V30 2417 H 221.143 -0.195861 -0.710498 0
M  V30 2418 H 223.785 -1.13313 -1.52513 0
M  V30 2419 H 221.935 -0.325904 -3.87131 0
M  V30 2420 H 223.607 -2.91847 -3.57243 0
M  V30 2421 H 221.85 -2.79789 -3.31513 0
M  V30 2422 H 222.521 -2.49987 -4.92149 0
M  V30 2423 H 224.997 -0.761256 -4.09077 0
M  V30 2424 H 223.873 -0.564295 -5.45992 0
M  V30 2425 H 224.134 0.774144 -4.35269 0
M  V30 2426 N 223.193 1.4272 -0.668489 0
M  V30 2427 C 224.103 2.34596 0.0139753 0
M  V30 2428 C 225.119 1.5474 0.795703 0
M  V30 2429 O 226.295 1.87334 0.739466 0
M  V30 2430 C 223.36 3.33202 0.957982 0
M  V30 2431 C 222.421 4.28957 0.17149 0
M  V30 2432 C 221.654 5.22853 1.07053 0
M  V30 2433 O 221.877 5.21531 2.31001 0
M  V30 2434 O 220.811 5.9952 0.534727 0
M  V30 2435 H 224.637 2.9448 -0.742661 0
M  V30 2436 H 222.222 1.43117 -0.428705 0
M  V30 2437 H 224.104 3.93796 1.50008 0
M  V30 2438 H 222.779 2.758 1.69458 0
M  V30 2439 H 221.686 3.71796 -0.414558 0
M  V30 2440 H 223.019 4.89383 -0.52586 0
M  V30 2441 N 224.671 0.411399 1.52136 0
M  V30 2442 C 225.92 -0.165009 2.01024 0
M  V30 2443 C 226.233 -1.4603 1.30133 0
M  V30 2444 O 227.439 -2.1181 1.69849 0
M  V30 2445 C 225.895 -0.344618 3.58246 0
M  V30 2446 C 225.503 0.938716 4.38055 0
M  V30 2447 C 227.247 -0.876195 4.15359 0
M  V30 2448 C 225.154 0.726172 5.86925 0
M  V30 2449 H 224.084 -0.0654407 0.751155 0
M  V30 2450 H 226.735 0.537192 1.75461 0
M  V30 2451 H 225.117 -1.10921 3.80148 0
M  V30 2452 H 226.291 1.70963 4.27912 0
M  V30 2453 H 224.606 1.39688 3.92271 0
M  V30 2454 H 227.203 -1.05128 5.24263 0
M  V30 2455 H 227.546 -1.85152 3.7286 0
M  V30 2456 H 228.079 -0.170607 3.97434 0
M  V30 2457 H 224.818 1.67312 6.33788 0
M  V30 2458 H 224.338 -0.00540283 5.998 0
M  V30 2459 H 226.017 0.369231 6.45946 0
M  V30 2460 N 226.149 -1.5696 0.141893 0
M  V30 2461 C 227.112 -2.15316 -0.785587 0
M  V30 2462 C 228.112 -1.09366 -1.1788 0
M  V30 2463 O 229.302 -1.35031 -1.10056 0
M  V30 2464 C 226.434 -2.71211 -2.06537 0
M  V30 2465 H 227.627 -2.98608 -0.278041 0
M  V30 2466 H 225.18 -1.5593 -0.107519 0
M  V30 2467 H 225.915 -1.91571 -2.6167 0
M  V30 2468 H 225.7 -3.4872 -1.79268 0
M  V30 2469 H 227.19 -3.16189 -2.72789 0
M  V30 2470 N 227.627 0.131896 -1.57047 0
M  V30 2471 C 228.873 0.843179 -1.84441 0
M  V30 2472 C 229.206 1.80129 -0.725749 0
M  V30 2473 O 228.481 1.92624 0.269469 0
M  V30 2474 C 228.764 1.60442 -3.22382 0
M  V30 2475 C 228.617 0.666782 -4.4483 0
M  V30 2476 C 229.936 2.56354 -3.5773 0
M  V30 2477 H 227.055 0.305081 -0.670891 0
M  V30 2478 H 229.697 0.107839 -1.89694 0
M  V30 2479 H 227.847 2.23128 -3.18035 0
M  V30 2480 H 229.519 0.0497646 -4.61273 0
M  V30 2481 H 227.762 -0.022609 -4.33794 0
M  V30 2482 H 228.433 1.23579 -5.37989 0
M  V30 2483 H 230.909 2.0378 -3.62785 0
M  V30 2484 H 229.785 3.06657 -4.5525 0
M  V30 2485 H 230.046 3.38419 -2.84473 0
M  V30 2486 N 229.106 1.52395 0.401703 0
M  V30 2487 C 230.354 1.66488 1.14569 0
M  V30 2488 C 230.675 0.400897 1.90835 0
M  V30 2489 O 229.945 -0.584415 1.8698 0
M  V30 2490 H 228.525 0.613672 0.425929 0
M  V30 2491 H 231.187 1.89464 0.457093 0
M  V30 2492 H 230.283 2.50942 1.85566 0
M  V30 2493 N 230.584 -0.659388 1.43143 0
M  V30 2494 C 231.861 -1.41627 1.34912 0
M  V30 2495 C 232.241 -2.11099 -0.00607785 0
M  V30 2496 O 231.589 -2.04353 -1.02236 0
M  V30 2497 C 231.799 -2.40604 2.52805 0
M  V30 2498 C 233.147 -3.04789 2.95616 0
M  V30 2499 O 234.171 -2.50932 2.52807 0
M  V30 2500 O 233.03 -4.02421 3.69756 0
M  V30 2501 H 230.124 -0.63246 0.532844 0
M  V30 2502 H 232.67 -0.686814 1.5518 0
M  V30 2503 H 231.442 -1.88174 3.43083 0
M  V30 2504 H 231.065 -3.21009 2.34604 0
M  V30 2505 N 232.062 -1.29571 -0.897171 0
M  V30 2506 C 233.009 -1.14916 -2.00158 0
M  V30 2507 C 233.979 -0.0418149 -1.66047 0
M  V30 2508 O 235.164 -0.209793 -1.89643 0
M  V30 2509 C 232.304 -0.834307 -3.34863 0
M  V30 2510 C 231.417 -2.02234 -3.8174 0
M  V30 2511 C 230.552 -1.64664 -5.05034 0
M  V30 2512 C 229.591 -2.80033 -5.44286 0
M  V30 2513 N 228.728 -2.42843 -6.58765 0
M  V30 2514 H 233.568 -2.09403 -2.12025 0
M  V30 2515 H 231.105 -1.042 -1.0383 0
M  V30 2516 H 233.063 -0.632436 -4.12379 0
M  V30 2517 H 231.693 0.0736656 -3.22716 0
M  V30 2518 H 230.745 -2.33583 -3.00238 0
M  V30 2519 H 232.057 -2.88673 -4.06779 0
M  V30 2520 H 231.211 -1.4078 -5.9014 0
M  V30 2521 H 229.95 -0.753766 -4.8184 0
M  V30 2522 H 228.955 -3.04596 -4.57713 0
M  V30 2523 H 230.18 -3.69989 -5.6946 0
M  V30 2524 H 228.126 -1.56046 -6.3717 0
M  V30 2525 H 228.043 -3.22815 -6.83613 0
M  V30 2526 H 229.311 -2.22285 -7.47134 0
M  V30 2527 N 233.54 1.10788 -1.12088 0
M  V30 2528 C 234.786 1.82942 -0.875226 0
M  V30 2529 C 235.119 1.84779 0.597538 0
M  V30 2530 O 234.394 1.30578 1.44152 0
M  V30 2531 C 234.677 3.29789 -1.44606 0
M  V30 2532 C 234.53 3.36307 -2.98693 0
M  V30 2533 C 235.849 4.26064 -1.10261 0
M  V30 2534 H 232.968 0.664195 -0.319397 0
M  V30 2535 H 235.61 1.29867 -1.38689 0
M  V30 2536 H 233.76 3.75118 -1.01089 0
M  V30 2537 H 235.432 2.99487 -3.50864 0
M  V30 2538 H 233.675 2.76318 -3.34411 0
M  V30 2539 H 234.346 4.39694 -3.33726 0
M  V30 2540 H 236.822 3.88951 -1.4784 0
M  V30 2541 H 235.698 5.27183 -1.52869 0
M  V30 2542 H 235.959 4.42098 -0.0142953 0
M  V30 2543 N 235.018 0.912232 1.28515 0
M  V30 2544 C 236.429 0.591352 1.77087 0
M  V30 2545 C 236.78 -0.8933 1.74684 0
M  V30 2546 O 235.905 -1.69876 1.34056 0
M  V30 2547 C 236.5 1.06668 3.2157 0
M  V30 2548 C 235.059 0.79675 3.67871 0
M  V30 2549 C 234.206 1.23427 2.48316 0
M  V30 2550 H 237.157 1.09365 1.15 0
M  V30 2551 H 237.178 0.407455 3.78312 0
M  V30 2552 H 236.69 2.14726 3.23287 0
M  V30 2553 H 234.791 -0.270679 3.71616 0
M  V30 2554 H 234.904 1.40343 4.58084 0
M  V30 2555 H 233.268 0.653036 2.46186 0
M  V30 2556 H 234.051 2.32316 2.52753 0
M  V30 2557 N 236.496 -1.42363 0.676048 0
M  V30 2558 C 237.459 -2.29199 0.00766941 0
M  V30 2559 C 238.459 -1.43389 -0.727745 0
M  V30 2560 O 239.649 -1.64764 -0.56556 0
M  V30 2561 C 236.781 -3.2591 -0.999785 0
M  V30 2562 H 237.974 -2.89794 0.771988 0
M  V30 2563 H 235.527 -1.50024 0.438468 0
M  V30 2564 H 236.262 -2.70256 -1.79255 0
M  V30 2565 H 236.047 -3.89202 -0.475829 0
M  V30 2566 H 237.537 -3.91028 -1.46583 0
M  V30 2567 N 237.974 -0.419461 -1.51915 0
M  V30 2568 C 239.251 0.211999 -1.94448 0
M  V30 2569 C 239.631 1.61703 -1.35703 0
M  V30 2570 O 238.979 2.22102 -0.536931 0
M  V30 2571 C 239.189 0.207872 -3.4838 0
M  V30 2572 C 240.537 0.422192 -4.22496 0
M  V30 2573 O 241.561 0.286778 -3.55044 0
M  V30 2574 O 240.42 0.690009 -5.42126 0
M  V30 2575 H 237.514 0.139586 -0.815135 0
M  V30 2576 H 240.06 -0.476151 -1.62883 0
M  V30 2577 H 238.832 -0.775102 -3.83546 0
M  V30 2578 H 238.455 0.939688 -3.86336 0
M  V30 2579 N 239.452 1.56882 -0.150215 0
M  V30 2580 C 240.701 1.95403 0.500071 0
M  V30 2581 C 241.014 1.03777 1.658 0
M  V30 2582 O 242.22 1.31889 2.37313 0
M  V30 2583 C 240.676 3.4738 0.941018 0
M  V30 2584 C 240.284 4.47596 -0.190158 0
M  V30 2585 C 242.028 3.9476 1.56091 0
M  V30 2586 C 239.935 5.90787 0.269237 0
M  V30 2587 H 238.865 0.729515 0.190588 0
M  V30 2588 H 241.516 1.81988 -0.235074 0
M  V30 2589 H 239.898 3.56138 1.73152 0
M  V30 2590 H 241.072 4.50536 -0.967157 0
M  V30 2591 H 239.387 4.10151 -0.718666 0
M  V30 2592 H 241.984 4.99181 1.9163 0
M  V30 2593 H 242.327 3.36494 2.45107 0
M  V30 2594 H 242.86 3.88932 0.835249 0
M  V30 2595 H 239.599 6.52879 -0.585621 0
M  V30 2596 H 239.119 5.912 1.01204 0
M  V30 2597 H 240.798 6.42979 0.720176 0
M  V30 2598 N 240.93 -0.123565 1.57115 0
M  V30 2599 C 242.346 -0.476961 1.52306 0
M  V30 2600 C 242.546 -1.82109 0.86248 0
M  V30 2601 O 241.602 -2.48586 0.442884 0
M  V30 2602 C 242.915 -0.465661 2.97073 0
M  V30 2603 C 244.463 -0.549534 3.08138 0
M  V30 2604 C 244.938 -0.568669 4.54456 0
M  V30 2605 N 246.429 -0.630237 4.58892 0
M  V30 2606 C 247.164 -0.666415 5.69514 0
M  V30 2607 N 246.66 -0.660514 6.89644 0
M  V30 2608 N 248.453 -0.709077 5.5761 0
M  V30 2609 H 240.604 0.757198 1.98445 0
M  V30 2610 H 242.867 0.278808 0.906074 0
M  V30 2611 H 242.573 0.454232 3.48754 0
M  V30 2612 H 242.447 -1.29513 3.54269 0
M  V30 2613 H 244.834 -1.45985 2.56461 0
M  V30 2614 H 244.915 0.307532 2.53945 0
M  V30 2615 H 244.559 0.337581 5.06777 0
M  V30 2616 H 244.489 -1.44256 5.06456 0
M  V30 2617 H 246.98 -0.641146 3.72421 0
M  V30 2618 H 247.293 -0.690616 7.69708 0
M  V30 2619 H 245.638 -0.628012 6.92157 0
M  V30 2620 H 248.829 -0.711019 4.62668 0
M  V30 2621 H 249.002 -0.733804 6.43832 0
M  V30 2622 N 242.408 -1.52605 -0.393616 0
M  V30 2623 C 243.338 -1.80022 -1.48709 0
M  V30 2624 C 244.319 -0.651995 -1.57108 0
M  V30 2625 O 245.504 -0.89913 -1.72132 0
M  V30 2626 C 242.634 -1.96492 -2.86371 0
M  V30 2627 C 241.588 -3.12161 -2.92813 0
M  V30 2628 C 240.914 -3.13877 -4.3288 0
M  V30 2629 C 242.214 -4.51322 -2.6288 0
M  V30 2630 H 243.908 -2.71589 -1.26015 0
M  V30 2631 H 241.454 -1.30684 -0.604778 0
M  V30 2632 H 243.407 -2.14255 -3.62867 0
M  V30 2633 H 242.131 -1.01611 -3.10391 0
M  V30 2634 H 240.79 -2.94173 -2.18764 0
M  V30 2635 H 240.438 -2.16687 -4.53933 0
M  V30 2636 H 240.138 -3.91576 -4.38112 0
M  V30 2637 H 241.662 -3.33789 -5.1129 0
M  V30 2638 H 243.076 -4.69435 -3.29096 0
M  V30 2639 H 241.473 -5.31053 -2.79468 0
M  V30 2640 H 242.543 -4.58353 -1.58242 0
M  V30 2641 N 243.887 0.651787 -1.4349 0
M  V30 2642 C 245.115 1.43937 -1.48626 0
M  V30 2643 C 245.53 1.8851 -0.104587 0
M  V30 2644 O 244.887 1.5958 0.885464 0
M  V30 2645 C 244.938 2.6734 -2.43334 0
M  V30 2646 O 244.659 2.24631 -3.76128 0
M  V30 2647 C 246.16 3.60683 -2.57726 0
M  V30 2648 H 243.38 0.44213 -0.504739 0
M  V30 2649 H 245.924 0.798944 -1.88248 0
M  V30 2650 H 244.079 3.2752 -2.06904 0
M  V30 2651 H 244.493 3.04485 -4.2707 0
M  V30 2652 H 245.967 4.43933 -3.28067 0
M  V30 2653 H 246.444 4.08126 -1.62265 0
M  V30 2654 H 247.05 3.06384 -2.94973 0
M  V30 2655 N 245.365 1.30045 0.890287 0
M  V30 2656 C 246.59 1.21598 1.68014 0
M  V30 2657 C 247.015 -0.218678 1.86825 0
M  V30 2658 O 246.373 -1.15756 1.39536 0
M  V30 2659 C 246.421 1.94434 3.03691 0
M  V30 2660 O 245.525 1.2678 3.92429 0
M  V30 2661 H 244.866 0.420856 0.513592 0
M  V30 2662 H 247.396 1.71775 1.11151 0
M  V30 2663 H 247.406 2.03251 3.5377 0
M  V30 2664 H 246.081 2.98777 2.89318 0
M  V30 2665 H 244.658 1.26282 3.50866 0
M  V30 2666 N 246.843 -1.10192 1.12674 0
M  V30 2667 C 248.092 -1.81573 0.8783 0
M  V30 2668 C 248.405 -1.86249 -0.597557 0
M  V30 2669 O 249.611 -2.5386 -0.962681 0
M  V30 2670 C 248.067 -3.26149 1.52167 0
M  V30 2671 C 247.675 -3.29763 3.03249 0
M  V30 2672 C 249.419 -4.0234 1.3536 0
M  V30 2673 C 247.326 -4.68815 3.60508 0
M  V30 2674 H 246.256 -0.680394 0.324931 0
M  V30 2675 H 248.907 -1.23902 1.35353 0
M  V30 2676 H 247.289 -3.83832 0.974104 0
M  V30 2677 H 248.463 -2.8189 3.6452 0
M  V30 2678 H 246.778 -2.67059 3.19481 0
M  V30 2679 H 249.375 -5.05058 1.75559 0
M  V30 2680 H 249.718 -4.15235 0.297554 0
M  V30 2681 H 250.251 -3.51079 1.87052 0
M  V30 2682 H 246.99 -4.61121 4.65884 0
M  V30 2683 H 246.51 -5.17045 3.04014 0
M  V30 2684 H 248.189 -5.37785 3.59717 0
M  V30 2685 N 248.321 -0.919034 -1.28029 0
M  V30 2686 C 249.268 -0.410005 -2.27129 0
M  V30 2687 C 250.238 0.518405 -1.57803 0
M  V30 2688 O 251.423 0.439451 -1.8567 0
M  V30 2689 C 248.563 0.339054 -3.4343 0
M  V30 2690 C 247.676 -0.622468 -4.27492 0
M  V30 2691 C 246.811 0.145567 -5.31001 0
M  V30 2692 C 245.85 -0.809226 -6.06727 0
M  V30 2693 N 244.987 -0.0743728 -7.02061 0
M  V30 2694 H 249.827 -1.26011 -2.70047 0
M  V30 2695 H 247.364 -0.632663 -1.328 0
M  V30 2696 H 249.322 0.789586 -4.0966 0
M  V30 2697 H 247.952 1.15346 -3.01488 0
M  V30 2698 H 247.004 -1.19153 -3.61257 0
M  V30 2699 H 248.316 -1.35252 -4.80113 0
M  V30 2700 H 247.47 0.656417 -6.03139 0
M  V30 2701 H 246.209 0.908643 -4.79161 0
M  V30 2702 H 245.214 -1.3314 -5.33436 0
M  V30 2703 H 246.439 -1.57194 -6.60656 0
M  V30 2704 H 244.385 0.670616 -6.52563 0
M  V30 2705 H 244.302 -0.744157 -7.52329 0
M  V30 2706 H 245.57 0.416109 -7.78389 0
M  V30 2707 N 249.799 1.42003 -0.683588 0
M  V30 2708 C 251.024 2.06265 -0.216647 0
M  V30 2709 C 251.449 1.51059 1.12083 0
M  V30 2710 O 250.807 0.632638 1.69904 0
M  V30 2711 C 250.855 3.60191 -0.171759 0
M  V30 2712 O 249.959 4.03396 0.857069 0
M  V30 2713 H 249.3 0.65502 -0.108834 0
M  V30 2714 H 251.83 1.81982 -0.935077 0
M  V30 2715 H 251.84 4.08 0.0014303 0
M  V30 2716 H 250.515 3.99743 -1.14796 0
M  V30 2717 H 249.092 3.67117 0.654208 0
M  V30 2718 N 251.277 0.427512 1.51691 0
M  V30 2719 C 252.505 -0.141191 2.06418 0
M  V30 2720 C 252.92 -1.37303 1.29589 0
M  V30 2721 O 252.277 -1.79059 0.352732 0
M  V30 2722 C 252.328 -0.473266 3.58389 0
M  V30 2723 O 252.049 0.709673 4.32314 0
M  V30 2724 C 253.55 -1.09371 4.29596 0
M  V30 2725 H 250.77 -0.0122747 0.670888 0
M  V30 2726 H 253.314 0.603764 1.95384 0
M  V30 2727 H 251.469 -1.16812 3.69369 0
M  V30 2728 H 251.883 0.42807 5.2275 0
M  V30 2729 H 253.357 -1.27613 5.37046 0
M  V30 2730 H 253.834 -2.072 3.87253 0
M  V30 2731 H 254.44 -0.43853 4.23033 0
M  V30 2732 N 252.755 -1.56801 0.158532 0
M  V30 2733 C 253.983 -2.00859 -0.496303 0
M  V30 2734 C 254.398 -1.03871 -1.57659 0
M  V30 2735 O 253.755 -0.0375165 -1.82461 0
M  V30 2736 C 253.806 -3.4479 -1.08638 0
M  V30 2737 O 253.527 -4.38072 -0.0492322 0
M  V30 2738 C 255.028 -4.04185 -1.8207 0
M  V30 2739 H 252.248 -0.65864 -0.128199 0
M  V30 2740 H 254.792 -2.02885 0.256506 0
M  V30 2741 H 252.947 -3.43579 -1.78975 0
M  V30 2742 H 253.361 -5.2227 -0.483102 0
M  V30 2743 H 254.835 -5.06857 -2.18633 0
M  V30 2744 H 255.312 -3.45549 -2.71095 0
M  V30 2745 H 255.918 -4.0906 -1.16405 0
M  V30 2746 N 254.233 0.115231 -1.57178 0
M  V30 2747 C 255.163 1.1423 -2.03651 0
M  V30 2748 C 256.144 1.42967 -0.921655 0
M  V30 2749 O 257.329 1.53343 -1.19162 0
M  V30 2750 C 254.459 2.4675 -2.44401 0
M  V30 2751 C 253.413 2.32467 -3.59365 0
M  V30 2752 C 252.739 3.69984 -3.86026 0
M  V30 2753 C 254.039 1.78203 -4.90959 0
M  V30 2754 H 255.733 0.755749 -2.89705 0
M  V30 2755 H 253.279 0.362093 -1.39373 0
M  V30 2756 H 255.232 3.18854 -2.75517 0
M  V30 2757 H 253.956 2.87302 -1.55322 0
M  V30 2758 H 252.615 1.62811 -3.28463 0
M  V30 2759 H 252.263 4.08028 -2.94147 0
M  V30 2760 H 251.963 3.61279 -4.63412 0
M  V30 2761 H 253.487 4.43587 -4.19599 0
M  V30 2762 H 254.901 2.40128 -5.20587 0
M  V30 2763 H 253.298 1.8031 -5.72371 0
M  V30 2764 H 254.368 0.739876 -4.79222 0
M  V30 2765 N 255.711 1.52812 0.385517 0
M  V30 2766 C 257.127 1.4214 0.725829 0
M  V30 2767 C 257.327 0.544589 1.94001 0
M  V30 2768 O 256.383 0.0193693 2.52493 0
M  V30 2769 C 257.696 2.85042 0.957668 0
M  V30 2770 C 259.244 2.94543 1.05892 0
M  V30 2771 C 259.719 4.38464 1.32337 0
M  V30 2772 N 261.21 4.41804 1.39151 0
M  V30 2773 C 261.945 5.5025 1.61285 0
M  V30 2774 N 261.441 6.68775 1.80866 0
M  V30 2775 N 263.234 5.37798 1.63492 0
M  V30 2776 H 255.385 2.08338 -0.413383 0
M  V30 2777 H 257.648 0.940016 -0.122775 0
M  V30 2778 H 257.354 3.51431 0.137568 0
M  V30 2779 H 257.228 3.27505 1.87137 0
M  V30 2780 H 259.615 2.28321 1.86959 0
M  V30 2781 H 259.696 2.55504 0.123057 0
M  V30 2782 H 259.34 5.05254 0.517793 0
M  V30 2783 H 259.27 4.75059 2.27214 0
M  V30 2784 H 261.761 3.56377 1.25713 0
M  V30 2785 H 262.074 7.47197 1.97271 0
M  V30 2786 H 260.419 6.71797 1.78083 0
M  V30 2787 H 263.61 4.44171 1.47749 0
M  V30 2788 H 263.783 6.22382 1.80402 0
M  V30 2789 N 257.189 -0.644168 1.43834 0
M  V30 2790 C 258.435 -1.40603 1.46146 0
M  V30 2791 C 258.768 -1.93997 0.0887717 0
M  V30 2792 O 258.043 -1.72854 -0.891724 0
M  V30 2793 C 258.326 -2.58086 2.51124 0
M  V30 2794 C 258.179 -2.10126 3.97702 0
M  V30 2795 C 259.498 -3.60291 2.52742 0
M  V30 2796 H 256.617 -0.509905 0.532134 0
M  V30 2797 H 259.259 -0.729502 1.75437 0
M  V30 2798 H 257.409 -3.15801 2.26278 0
M  V30 2799 H 259.081 -1.57342 4.33637 0
M  V30 2800 H 257.324 -1.41419 4.10101 0
M  V30 2801 H 257.995 -2.94649 4.66783 0
M  V30 2802 H 260.471 -3.12352 2.7491 0
M  V30 2803 H 259.347 -4.40032 3.28121 0
M  V30 2804 H 259.608 -4.1349 1.56455 0
M  V30 2805 N 258.668 -1.30515 -0.883378 0
M  V30 2806 C 259.945 -1.10086 -1.6168 0
M  V30 2807 C 260.325 0.349269 -2.08191 0
M  V30 2808 O 259.673 1.34105 -1.85008 0
M  V30 2809 C 259.883 -2.10315 -2.78511 0
M  V30 2810 C 261.231 -2.42119 -3.48803 0
M  V30 2811 O 262.255 -2.08638 -2.88702 0
M  V30 2812 O 261.114 -2.99396 -4.57192 0
M  V30 2813 H 258.208 -0.422907 -0.710689 0
M  V30 2814 H 260.754 -1.41947 -0.930015 0
M  V30 2815 H 259.526 -3.07917 -2.41459 0
M  V30 2816 H 259.149 -1.79282 -3.54886 0
M  V30 2817 N 260.146 1.09593 -1.13257 0
M  V30 2818 C 261.078 2.16015 -0.766167 0
M  V30 2819 C 262.091 1.61423 0.211303 0
M  V30 2820 O 263.28 1.78498 -0.00863946 0
M  V30 2821 C 260.38 3.38706 -0.114662 0
M  V30 2822 C 259.553 4.22717 -1.12379 0
M  V30 2823 C 258.612 5.23835 -0.498301 0
M  V30 2824 O 257.638 5.573 -1.15781 0
M  V30 2825 N 258.84 5.75886 0.730417 0
M  V30 2826 H 261.605 2.48055 -1.68193 0
M  V30 2827 H 259.166 1.25292 -1.02535 0
M  V30 2828 H 261.158 4.03464 0.315991 0
M  V30 2829 H 259.728 3.04569 0.704011 0
M  V30 2830 H 258.948 3.54122 -1.73179 0
M  V30 2831 H 260.236 4.75673 -1.80589 0
M  V30 2832 H 259.634 5.50911 1.28504 0
M  V30 2833 H 258.191 6.42387 1.10376 0
M  V30 2834 N 261.624 0.925811 1.2754 0
M  V30 2835 C 262.849 0.580924 1.99098 0
M  V30 2836 C 263.274 -0.833555 1.68622 0
M  V30 2837 O 262.632 -1.55903 0.925422 0
M  V30 2838 C 262.68 0.811186 3.51358 0
M  V30 2839 O 261.784 -0.124129 4.12213 0
M  V30 2840 H 261.125 0.223873 0.625122 0
M  V30 2841 H 263.655 1.24455 1.62395 0
M  V30 2842 H 263.665 0.72601 4.01489 0
M  V30 2843 H 262.34 1.84227 3.72872 0
M  V30 2844 H 260.917 0.0108006 3.72898 0
M  V30 2845 N 263.102 -1.41638 0.69111 0
M  V30 2846 C 264.351 -2.00526 0.217318 0
M  V30 2847 C 264.664 -1.55353 -1.18848 0
M  V30 2848 O 265.87 -2.06769 -1.75951 0
M  V30 2849 C 264.326 -3.58313 0.337639 0
M  V30 2850 C 263.934 -4.12469 1.74852 0
M  V30 2851 C 265.678 -4.24431 -0.0766066 0
M  V30 2852 C 263.585 -5.62675 1.82074 0
M  V30 2853 H 262.515 -0.750008 0.0774893 0
M  V30 2854 H 265.166 -1.6217 0.858661 0
M  V30 2855 H 263.548 -3.9425 -0.371879 0
M  V30 2856 H 264.722 -3.8796 2.48644 0
M  V30 2857 H 263.037 -3.58861 2.11205 0
M  V30 2858 H 265.634 -5.34683 -0.0430284 0
M  V30 2859 H 265.977 -4.01101 -1.1146 0
M  V30 2860 H 266.51 -3.93512 0.582476 0
M  V30 2861 H 263.249 -5.90826 2.83911 0
M  V30 2862 H 262.769 -5.89124 1.12661 0
M  V30 2863 H 264.448 -6.27371 1.58159 0
M  V30 2864 N 264.58 -0.43555 -1.51462 0
M  V30 2865 C 265.51 0.367376 -2.30592 0
M  V30 2866 C 266.491 1.02263 -1.35928 0
M  V30 2867 O 267.676 1.02661 -1.64847 0
M  V30 2868 C 264.806 1.46983 -3.14664 0
M  V30 2869 C 263.76 0.938161 -4.17591 0
M  V30 2870 C 263.086 2.13622 -4.90173 0
M  V30 2871 C 264.386 -0.0261621 -5.22293 0
M  V30 2872 H 266.08 -0.292969 -2.97963 0
M  V30 2873 H 263.626 -0.14234 -1.43295 0
M  V30 2874 H 265.579 2.03873 -3.688 0
M  V30 2875 H 264.303 2.15843 -2.4511 0
M  V30 2876 H 262.962 0.391481 -3.64504 0
M  V30 2877 H 262.61 2.81098 -4.17124 0
M  V30 2878 H 262.31 1.78688 -5.59772 0
M  V30 2879 H 263.834 2.7107 -5.47132 0
M  V30 2880 H 265.248 0.452384 -5.71512 0
M  V30 2881 H 263.645 -0.287992 -5.99409 0
M  V30 2882 H 264.715 -0.963391 -4.75233 0
M  V30 2883 N 266.058 1.56714 -0.166846 0
M  V30 2884 C 267.286 2.0112 0.485644 0
M  V30 2885 C 267.701 1.04705 1.57106 0
M  V30 2886 O 267.058 0.0471923 1.82439 0
M  V30 2887 C 267.109 3.45361 1.06808 0
M  V30 2888 O 266.83 4.38092 0.0259995 0
M  V30 2889 C 268.331 4.05145 1.79924 0
M  V30 2890 H 265.551 0.65931 0.124704 0
M  V30 2891 H 268.095 2.02746 -0.267262 0
M  V30 2892 H 266.25 3.44524 1.7715 0
M  V30 2893 H 266.664 5.22519 0.455398 0
M  V30 2894 H 268.138 5.08009 2.15942 0
M  V30 2895 H 268.615 3.46982 2.69258 0
M  V30 2896 H 269.221 4.09672 1.14234 0
M  V30 2897 N 267.536 -0.106894 1.57237 0
M  V30 2898 C 268.784 -0.810921 1.85117 0
M  V30 2899 C 269.105 -1.7984 0.753827 0
M  V30 2900 O 268.375 -1.94649 -0.221056 0
M  V30 2901 H 266.955 -0.302466 0.683025 0
M  V30 2902 H 269.617 -0.0913324 1.94686 0
M  V30 2903 H 268.713 -1.34875 2.81452 0
M  V30 2904 N 269.014 -1.53014 -0.377408 0
M  V30 2905 C 269.924 -1.81557 -1.48574 0
M  V30 2906 C 270.94 -0.703102 -1.59162 0
M  V30 2907 O 272.116 -0.99192 -1.75279 0
M  V30 2908 C 269.181 -1.9889 -2.83978 0
M  V30 2909 C 268.242 -3.22801 -2.83016 0
M  V30 2910 C 267.475 -3.39298 -4.11962 0
M  V30 2911 O 267.698 -2.60345 -5.0752 0
M  V30 2912 O 266.632 -4.32604 -4.18494 0
M  V30 2913 H 270.458 -2.75695 -1.27382 0
M  V30 2914 H 268.043 -1.38248 -0.566373 0
M  V30 2915 H 269.925 -2.11931 -3.6423 0
M  V30 2916 H 268.6 -1.07942 -3.05172 0
M  V30 2917 H 267.507 -3.15193 -2.01505 0
M  V30 2918 H 268.84 -4.13632 -2.66775 0
M  V30 2919 N 270.492 0.636531 -1.44174 0
M  V30 2920 C 271.717 1.42847 -1.50364 0
M  V30 2921 C 272.142 1.87665 -0.127867 0
M  V30 2922 O 271.5 1.58408 0.88185 0
M  V30 2923 C 271.548 2.62854 -2.4686 0
M  V30 2924 O 270.652 3.62501 -1.9664 0
M  V30 2925 H 269.993 0.427642 -0.507955 0
M  V30 2926 H 272.523 0.777422 -1.89255 0
M  V30 2927 H 272.533 3.10465 -2.64718 0
M  V30 2928 H 271.208 2.29578 -3.46795 0
M  V30 2929 H 269.785 3.21735 -1.88523 0
M  V30 2930 N 271.97 1.30982 0.876444 0
M  V30 2931 C 273.216 1.20474 1.63138 0
M  V30 2932 C 273.549 -0.238096 1.92735 0
M  V30 2933 O 272.824 -1.1692 1.55435 0
M  V30 2934 C 273.107 2.04244 2.96574 0
M  V30 2935 C 272.96 3.56793 2.73896 0
M  V30 2936 C 274.279 1.88684 3.97601 0
M  V30 2937 H 271.398 0.439001 0.591985 0
M  V30 2938 H 274.04 1.60704 1.01361 0
M  V30 2939 H 272.19 1.70063 3.493 0
M  V30 2940 H 273.862 4.01077 2.27892 0
M  V30 2941 H 272.105 3.80548 2.08245 0
M  V30 2942 H 272.776 4.10706 3.68815 0
M  V30 2943 H 275.252 2.18584 3.54062 0
M  V30 2944 H 274.128 2.4961 4.88862 0
M  V30 2945 H 274.389 0.848343 4.33884 0
M  V30 2946 N 273.449 -1.08991 1.13837 0
M  V30 2947 C 274.674 -1.85551 0.926585 0
M  V30 2948 C 275.099 -1.80782 -0.519566 0
M  V30 2949 O 274.457 -1.18855 -1.36906 0
M  V30 2950 C 274.505 -3.31266 1.42462 0
M  V30 2951 O 273.609 -4.07822 0.612789 0
M  V30 2952 H 272.95 -0.575192 0.331738 0
M  V30 2953 H 275.48 -1.37604 1.51414 0
M  V30 2954 H 275.49 -3.82112 1.43019 0
M  V30 2955 H 274.165 -3.34052 2.47754 0
M  V30 2956 H 272.742 -3.66731 0.675463 0
M  V30 2957 N 274.927 -0.932562 -1.27047 0
M  V30 2958 C 276.173 -0.576412 -1.94436 0
M  V30 2959 C 276.506 0.880891 -1.73072 0
M  V30 2960 O 275.781 1.62905 -1.06264 0
M  V30 2961 C 276.064 -0.909031 -3.48437 0
M  V30 2962 C 275.917 -2.42044 -3.79123 0
M  V30 2963 C 277.236 -0.418341 -4.38107 0
M  V30 2964 H 274.355 -0.210888 -0.706184 0
M  V30 2965 H 276.997 -1.16522 -1.50075 0
M  V30 2966 H 275.147 -0.407947 -3.86352 0
M  V30 2967 H 276.819 -2.99359 -3.50973 0
M  V30 2968 H 275.062 -2.86758 -3.25503 0
M  V30 2969 H 275.733 -2.6037 -4.86736 0
M  V30 2970 H 278.209 -0.847856 -4.0737 0
M  V30 2971 H 277.085 -0.679981 -5.44672 0
M  V30 2972 H 277.346 0.681642 -4.36814 0
M  V30 2973 N 276.405 1.4127 -0.698611 0
M  V30 2974 C 277.654 2.00408 -0.227949 0
M  V30 2975 C 277.967 1.55981 1.18023 0
M  V30 2976 O 279.173 2.07699 1.74852 0
M  V30 2977 C 277.629 3.58129 -0.356636 0
M  V30 2978 C 277.237 4.11536 -1.77037 0
M  V30 2979 C 278.981 4.24466 0.0540969 0
M  V30 2980 C 276.888 5.61701 -1.85055 0
M  V30 2981 H 275.818 0.749586 -0.0814657 0
M  V30 2982 H 278.469 1.61713 -0.867249 0
M  V30 2983 H 276.851 3.94442 0.350965 0
M  V30 2984 H 278.025 3.86636 -2.50698 0
M  V30 2985 H 276.34 3.57736 -2.13105 0
M  V30 2986 H 278.937 5.34698 0.0146723 0
M  V30 2987 H 279.28 4.01687 1.09332 0
M  V30 2988 H 279.813 3.93198 -0.603337 0
M  V30 2989 H 276.552 5.89312 -2.8704 0
M  V30 2990 H 276.072 5.88519 -1.15783 0
M  V30 2991 H 277.751 6.26524 -1.61484 0
M  V30 2992 N 277.883 0.443576 1.51229 0
M  V30 2993 C 278.83 -0.364716 2.279 0
M  V30 2994 C 279.8 -1.0114 1.31757 0
M  V30 2995 O 280.985 -1.02912 1.60667 0
M  V30 2996 C 278.125 -1.45644 3.12861 0
M  V30 2997 C 277.238 -0.827269 4.24005 0
M  V30 2998 C 276.373 -1.89456 4.96266 0
M  V30 2999 C 275.412 -1.24416 5.99322 0
M  V30 3000 N 274.549 -2.25309 6.64966 0
M  V30 3001 H 279.389 0.295464 2.96532 0
M  V30 3002 H 276.926 0.157554 1.46254 0
M  V30 3003 H 278.884 -2.10076 3.6045 0
M  V30 3004 H 277.514 -2.08616 2.46331 0
M  V30 3005 H 276.566 -0.0710839 3.80334 0
M  V30 3006 H 277.878 -0.312481 4.9782 0
M  V30 3007 H 277.032 -2.61535 5.47434 0
M  V30 3008 H 275.771 -2.4431 4.22095 0
M  V30 3009 H 274.776 -0.508868 5.4744 0
M  V30 3010 H 276.001 -0.702882 6.75453 0
M  V30 3011 H 273.947 -2.79231 5.93604 0
M  V30 3012 H 273.864 -1.78739 7.34567 0
M  V30 3013 H 275.132 -2.96853 7.20763 0
M  V30 3014 N 279.361 -1.56624 0.175154 0
M  V30 3015 C 280.311 -2.14747 -0.766004 0
M  V30 3016 C 281.295 -1.08275 -1.19018 0
M  V30 3017 O 282.487 -1.34388 -1.15191 0
M  V30 3018 C 279.616 -2.79478 -1.99366 0
M  V30 3019 C 278.702 -3.93114 -1.5913 0
M  V30 3020 N 279.093 -4.97752 -0.89872 0
M  V30 3021 C 277.391 -4.04345 -1.88204 0
M  V30 3022 C 278.092 -5.77473 -0.700012 0
M  V30 3023 N 277.068 -5.29207 -1.24263 0
M  V30 3024 H 280.87 -2.93015 -0.22793 0
M  V30 3025 H 278.384 -1.6238 -0.0253843 0
M  V30 3026 H 280.381 -3.19498 -2.67818 0
M  V30 3027 H 279.041 -2.02692 -2.53665 0
M  V30 3028 H 280.052 -5.14903 -0.556347 0
M  V30 3029 H 276.729 -3.38667 -2.44153 0
M  V30 3030 H 278.119 -6.71728 -0.152047 0
M  V30 3031 N 280.839 0.0985539 -1.57292 0
M  V30 3032 C 282.067 0.816318 -1.90115 0
M  V30 3033 C 282.482 1.72451 -0.768509 0
M  V30 3034 O 281.839 1.80643 0.259687 0
M  V30 3035 C 281.89 1.63259 -3.22535 0
M  V30 3036 O 281.611 0.760934 -4.31441 0
M  V30 3037 C 283.112 2.45372 -3.69199 0
M  V30 3038 H 280.332 0.233595 -0.629027 0
M  V30 3039 H 282.876 0.0768229 -2.04356 0
M  V30 3040 H 281.031 2.32463 -3.09903 0
M  V30 3041 H 281.445 1.32595 -5.07463 0
M  V30 3042 H 282.919 2.98144 -4.64558 0
M  V30 3043 H 283.396 3.23677 -2.96867 0
M  V30 3044 H 284.002 1.81373 -3.84687 0
M  V30 3045 N 282.317 1.53212 0.369288 0
M  V30 3046 C 283.594 1.59815 1.12776 0
M  V30 3047 C 283.974 0.403402 2.0721 0
M  V30 3048 O 283.322 -0.606667 2.20299 0
M  V30 3049 C 283.532 2.94664 1.87013 0
M  V30 3050 C 284.88 3.49109 2.41677 0
M  V30 3051 O 285.904 2.96669 1.97144 0
M  V30 3052 O 284.763 4.40775 3.23079 0
M  V30 3053 H 281.857 0.645376 0.517125 0
M  V30 3054 H 284.403 1.65553 0.37285 0
M  V30 3055 H 283.175 3.73061 1.18071 0
M  V30 3056 H 282.798 2.92401 2.69421 0
M  V30 3057 N 283.795 -0.628877 1.44509 0
M  V30 3058 C 285.206 -1.21054 1.42137 0
M  V30 3059 C 285.557 -1.95715 0.137881 0
M  V30 3060 O 284.682 -2.02554 -0.761645 0
M  V30 3061 C 285.277 -2.20189 2.57493 0
M  V30 3062 C 283.836 -2.73777 2.58308 0
M  V30 3063 C 282.983 -1.48813 2.33987 0
M  V30 3064 H 285.934 -0.41942 1.53057 0
M  V30 3065 H 285.955 -3.02833 2.30375 0
M  V30 3066 H 285.467 -1.6582 3.50892 0
M  V30 3067 H 283.568 -3.32142 1.68856 0
M  V30 3068 H 283.681 -3.19662 3.56865 0
M  V30 3069 H 282.045 -1.77024 1.83124 0
M  V30 3070 H 282.828 -0.963442 3.29504 0
M  V30 3071 N 285.273 -1.31445 -0.869486 0
M  V30 3072 C 286.519 -1.21337 -1.62496 0
M  V30 3073 C 286.852 0.227872 -1.92858 0
M  V30 3074 O 286.127 1.16094 -1.56053 0
M  V30 3075 C 286.41 -2.05814 -2.95487 0
M  V30 3076 C 286.263 -3.5824 -2.72 0
M  V30 3077 C 287.582 -1.9079 -3.96594 0
M  V30 3078 H 284.701 -0.442135 -0.589649 0
M  V30 3079 H 287.343 -1.6124 -1.00507 0
M  V30 3080 H 285.493 -1.71913 -3.48394 0
M  V30 3081 H 287.165 -4.0228 -2.25762 0
M  V30 3082 H 285.408 -3.81647 -2.06224 0
M  V30 3083 H 286.079 -4.12657 -3.66631 0
M  V30 3084 H 288.555 -2.20459 -3.52898 0
M  V30 3085 H 287.431 -2.52199 -4.87531 0
M  V30 3086 H 287.692 -0.871341 -4.33428 0
M  V30 3087 N 286.751 1.08385 -1.14413 0
M  V30 3088 C 288.162 1.62258 -0.923535 0
M  V30 3089 C 288.513 1.88691 0.537595 0
M  V30 3090 O 287.638 1.64454 1.40655 0
M  V30 3091 C 288.233 2.94781 -1.67002 0
M  V30 3092 C 286.792 3.45437 -1.495 0
M  V30 3093 C 285.939 2.19668 -1.69238 0
M  V30 3094 H 288.89 0.916086 -1.2959 0
M  V30 3095 H 288.911 3.63229 -1.13334 0
M  V30 3096 H 288.423 2.7551 -2.73342 0
M  V30 3097 H 286.524 3.6981 -0.455097 0
M  V30 3098 H 286.637 4.22173 -2.2651 0
M  V30 3099 H 285.001 2.28849 -1.11804 0
M  V30 3100 H 285.784 2.02905 -2.7692 0
M  V30 3101 N 288.23 0.939286 1.26551 0
M  V30 3102 C 289.507 0.5038 1.89001 0
M  V30 3103 C 289.887 -1.01854 1.84903 0
M  V30 3104 O 289.235 -1.87773 1.30206 0
M  V30 3105 C 289.445 1.063 3.32417 0
M  V30 3106 C 290.793 1.13051 4.09273 0
M  V30 3107 O 291.817 1.01345 3.41479 0
M  V30 3108 O 290.676 1.31233 5.30509 0
M  V30 3109 H 287.77 0.163897 0.810597 0
M  V30 3110 H 290.316 1.03173 1.34735 0
M  V30 3111 H 289.088 2.10665 3.29752 0
M  V30 3112 H 288.711 0.517408 3.94219 0
M  V30 3113 N 289.708 -1.40897 0.706093 0
M  V30 3114 C 291.119 -1.84023 0.315052 0
M  V30 3115 C 291.47 -1.5906 -1.14866 0
M  V30 3116 O 290.595 -1.06651 -1.88293 0
M  V30 3117 C 291.19 -3.34055 0.565038 0
M  V30 3118 C 289.749 -3.7571 0.227806 0
M  V30 3119 C 288.896 -2.64204 0.842122 0
M  V30 3120 H 291.847 -1.303 0.905963 0
M  V30 3121 H 291.868 -3.80107 -0.172843 0
M  V30 3122 H 291.38 -3.52192 1.63042 0
M  V30 3123 H 289.481 -3.63172 -0.832895 0
M  V30 3124 H 289.594 -4.74103 0.690174 0
M  V30 3125 H 287.958 -2.53255 0.270893 0
M  V30 3126 H 288.741 -2.85155 1.91158 0
M  V30 3127 N 291.186 -0.45159 -1.50991 0
M  V30 3128 C 292.602 -0.104647 -1.59257 0
M  V30 3129 C 292.802 1.38728 -1.4614 0
M  V30 3130 O 291.858 2.15866 -1.30989 0
M  V30 3131 C 293.171 -0.637468 -2.93865 0
M  V30 3132 C 294.719 -0.599166 -3.07212 0
M  V30 3133 C 295.194 -1.1092 -4.44366 0
M  V30 3134 N 296.685 -1.06778 -4.50725 0
M  V30 3135 C 297.42 -1.43314 -5.55201 0
M  V30 3136 N 296.916 -1.87204 -6.67028 0
M  V30 3137 N 298.709 -1.3504 -5.45638 0
M  V30 3138 H 290.86 -1.42214 -1.57762 0
M  V30 3139 H 293.123 -0.586921 -0.744465 0
M  V30 3140 H 292.829 -1.68187 -3.08879 0
M  V30 3141 H 292.703 -0.0702139 -3.77135 0
M  V30 3142 H 295.09 0.436277 -2.91857 0
M  V30 3143 H 295.171 -1.20299 -2.25747 0
M  V30 3144 H 294.815 -2.14318 -4.60467 0
M  V30 3145 H 294.745 -0.481773 -5.24392 0
M  V30 3146 H 297.236 -0.745643 -3.70471 0
M  V30 3147 H 297.549 -2.13282 -7.42786 0
M  V30 3148 H 295.894 -1.91142 -6.68199 0
M  V30 3149 H 299.085 -1.00607 -4.57161 0
M  V30 3150 H 299.258 -1.63841 -6.26945 0
M  V30 3151 N 292.664 1.56529 -0.183458 0
M  V30 3152 C 293.627 2.17324 0.728223 0
M  V30 3153 C 294.627 1.12453 1.14939 0
M  V30 3154 O 295.817 1.37902 1.06437 0
M  V30 3155 C 292.949 2.76591 1.99274 0
M  V30 3156 H 294.142 2.99241 0.198772 0
M  V30 3157 H 291.695 1.5616 0.0661391 0
M  V30 3158 H 292.43 1.98441 2.56499 0
M  V30 3159 H 292.215 3.5335 1.69959 0
M  V30 3160 H 293.705 3.23311 2.6431 0
M  V30 3161 N 294.142 -0.090211 1.57342 0
M  V30 3162 C 295.388 -0.793982 1.86611 0
M  V30 3163 C 295.721 -1.78142 0.773252 0
M  V30 3164 O 294.996 -1.93271 -0.218304 0
M  V30 3165 C 295.279 -1.51839 3.26523 0
M  V30 3166 C 295.132 -0.548609 4.46442 0
M  V30 3167 C 296.451 -2.46779 3.64401 0
M  V30 3168 H 293.57 -0.287186 0.678744 0
M  V30 3169 H 296.212 -0.0575076 1.89913 0
M  V30 3170 H 294.362 -2.14617 3.23839 0
M  V30 3171 H 296.034 0.0725513 4.61243 0
M  V30 3172 H 294.277 0.137614 4.33582 0
M  V30 3173 H 294.948 -1.09271 5.41076 0
M  V30 3174 H 297.424 -1.94089 3.68061 0
M  V30 3175 H 296.3 -2.94479 4.63221 0
M  V30 3176 H 296.561 -3.30758 2.93346 0
M  V30 3177 N 295.62 -1.53406 -0.361157 0
M  V30 3178 C 296.568 -1.80832 -1.46296 0
M  V30 3179 C 297.562 -0.677699 -1.55253 0
M  V30 3180 O 298.768 -0.860723 -1.58087 0
M  V30 3181 H 295.143 -0.572627 -0.487445 0
M  V30 3182 H 297.114 -2.73045 -1.20371 0
M  V30 3183 C 295.863 -2.01907 -2.8307 0
M  V30 3184 H 295.186 -2.88349 -2.76938 0
M  V30 3185 H 296.626 -2.25072 -3.59331 0
M  V30 3186 C 295.085 -0.799449 -3.27277 0
M  V30 3187 O 295.615 0.00971761 -4.01699 0
M  V30 3188 N 293.821 -0.621637 -2.83873 0
M  V30 3189 H 293.368 -1.28126 -2.23476 0
M  V30 3190 H 293.326 0.19298 -3.13807 0
M  V30 3191 N 297.098 0.621204 -1.44841 0
M  V30 3192 C 298.03 1.74615 -1.48466 0
M  V30 3193 C 299.043 1.58377 -0.37691 0
M  V30 3194 O 300.232 1.66508 -0.643215 0
M  V30 3195 C 297.332 3.12459 -1.31236 0
M  V30 3196 C 296.505 3.55064 -2.55438 0
M  V30 3197 C 295.564 4.71821 -2.32963 0
M  V30 3198 O 294.59 4.79628 -3.06505 0
M  V30 3199 N 295.792 5.64186 -1.36654 0
M  V30 3200 H 298.557 1.71973 -2.45449 0
M  V30 3201 H 296.118 0.806077 -1.40407 0
M  V30 3202 H 298.11 3.88302 -1.14032 0
M  V30 3203 H 296.68 3.09686 -0.4258 0
M  V30 3204 H 295.9 2.69324 -2.87851 0
M  V30 3205 H 297.188 3.80284 -3.38026 0
M  V30 3206 H 296.586 5.6058 -0.759344 0
M  V30 3207 H 295.143 6.39618 -1.25425 0
M  V30 3208 N 298.576 1.31904 0.862503 0
M  V30 3209 C 299.853 1.12644 1.59908 0
M  V30 3210 C 300.233 -0.316104 2.0872 0
M  V30 3211 O 299.581 -1.31145 1.87118 0
M  V30 3212 C 299.791 2.1472 2.7513 0
M  V30 3213 C 301.139 2.47637 3.44907 0
M  V30 3214 O 302.163 2.13205 2.85346 0
M  V30 3215 O 301.022 3.06632 4.52371 0
M  V30 3216 H 298.116 0.43416 0.703871 0
M  V30 3217 H 300.662 1.43408 0.907314 0
M  V30 3218 H 299.434 3.1172 2.3653 0
M  V30 3219 H 299.057 1.84905 3.51989 0
M  V30 3220 N 300.054 -1.07777 1.14986 0
M  V30 3221 C 301.001 -2.14867 0.842672 0
M  V30 3222 C 301.971 -1.6486 -0.202552 0
M  V30 3223 O 303.156 -1.90668 -0.0710568 0
M  V30 3224 C 300.296 -3.43486 0.333363 0
M  V30 3225 C 299.409 -4.07306 1.43965 0
M  V30 3226 C 298.544 -5.23744 0.886914 0
M  V30 3227 C 297.583 -5.79517 1.97043 0
M  V30 3228 N 296.72 -6.87291 1.4344 0
M  V30 3229 H 301.56 -2.40485 1.75986 0
M  V30 3230 H 299.097 -1.1801 0.878179 0
M  V30 3231 H 301.055 -4.17195 0.0198163 0
M  V30 3232 H 299.685 -3.18133 -0.546916 0
M  V30 3233 H 298.737 -3.31293 1.86946 0
M  V30 3234 H 300.049 -4.44771 2.25788 0
M  V30 3235 H 299.203 -6.04419 0.525651 0
M  V30 3236 H 297.942 -4.87685 0.0377957 0
M  V30 3237 H 296.947 -4.97491 2.34057 0
M  V30 3238 H 298.172 -6.17632 2.82325 0
M  V30 3239 H 296.118 -6.5318 0.607567 0
M  V30 3240 H 296.035 -7.23617 2.18895 0
M  V30 3241 H 297.303 -7.71682 1.10124 0
M  V30 3242 N 301.532 -0.945985 -1.26051 0
M  V30 3243 C 302.479 -0.45809 -2.26208 0
M  V30 3244 C 303.449 0.484816 -1.58867 0
M  V30 3245 O 304.634 0.399969 -1.86561 0
M  V30 3246 C 301.774 0.266131 -3.44072 0
M  V30 3247 C 300.887 -0.713005 -4.26075 0
M  V30 3248 C 300.022 0.0329013 -5.3119 0
M  V30 3249 C 299.061 -0.93774 -6.04874 0
M  V30 3250 N 298.198 -0.223274 -7.01745 0
M  V30 3251 H 303.038 -1.3171 -2.67313 0
M  V30 3252 H 300.575 -0.66069 -1.31428 0
M  V30 3253 H 302.533 0.702514 -4.11243 0
M  V30 3254 H 301.163 1.08925 -3.03867 0
M  V30 3255 H 300.215 -1.26789 -3.58648 0
M  V30 3256 H 301.527 -1.45406 -4.77136 0
M  V30 3257 H 300.681 0.528335 -6.04395 0
M  V30 3258 H 299.42 0.806801 -4.8098 0
M  V30 3259 H 298.425 -1.44425 -5.30492 0
M  V30 3260 H 299.65 -1.71172 -6.57173 0
M  V30 3261 H 297.596 0.532046 -6.53839 0
M  V30 3262 H 297.513 -0.90357 -7.50581 0
M  V30 3263 H 298.781 0.250907 -7.79096 0
M  V30 3264 N 303.011 1.40521 -0.713556 0
M  V30 3265 C 303.959 2.32549 -0.0485227 0
M  V30 3266 C 304.953 1.51931 0.74922 0
M  V30 3267 O 306.159 1.67745 0.652816 0
M  V30 3268 H 302.534 0.751994 0.00311138 0
M  V30 3269 H 304.505 2.86291 -0.841443 0
M  V30 3270 C 303.254 3.36879 0.860687 0
M  V30 3271 H 302.577 3.98978 0.256246 0
M  V30 3272 H 304.017 4.03772 1.294 0
M  V30 3273 C 302.476 2.72197 1.9852 0
M  V30 3274 O 303.006 2.5837 3.07584 0
M  V30 3275 N 301.212 2.30612 1.76823 0
M  V30 3276 H 300.759 2.42059 0.881217 0
M  V30 3277 H 300.717 1.87672 2.52243 0
M  V30 3278 N 304.489 0.459591 1.5075 0
M  V30 3279 C 305.422 -0.386257 2.24907 0
M  V30 3280 C 306.4 -1.006 1.27744 0
M  V30 3281 O 307.584 -1.04416 1.56938 0
M  V30 3282 C 304.711 -1.54021 3.01654 0
M  V30 3283 C 303.757 -1.03898 4.13651 0
M  V30 3284 S 304.59 0.0370501 5.35487 0
M  V30 3285 C 305.746 -1.12105 6.15779 0
M  V30 3286 H 305.979 0.243272 2.96303 0
M  V30 3287 H 303.512 0.244339 1.52454 0
M  V30 3288 H 305.47 -2.20163 3.46466 0
M  V30 3289 H 304.131 -2.14121 2.29806 0
M  V30 3290 H 303.324 -1.90254 4.66711 0
M  V30 3291 H 302.926 -0.45545 3.71216 0
M  V30 3292 H 305.218 -2.03501 6.46215 0
M  V30 3293 H 306.161 -0.62995 7.05292 0
M  V30 3294 H 306.569 -1.36967 5.47631 0
M  V30 3295 N 305.967 -1.56429 0.191757 0
M  V30 3296 C 306.897 -2.21937 -0.725696 0
M  V30 3297 C 307.878 -1.1814 -1.2238 0
M  V30 3298 O 309.063 -1.46636 -1.27325 0
M  V30 3299 C 306.193 -2.87611 -1.94672 0
M  V30 3300 C 305.147 -3.97623 -1.58366 0
M  V30 3301 C 304.473 -4.50446 -2.88102 0
M  V30 3302 C 305.773 -5.16197 -0.796133 0
M  V30 3303 H 307.467 -2.98861 -0.179606 0
M  V30 3304 H 305.013 -1.43749 -0.0849464 0
M  V30 3305 H 306.966 -3.3212 -2.59373 0
M  V30 3306 H 305.69 -2.08087 -2.51728 0
M  V30 3307 H 304.349 -3.53801 -0.960247 0
M  V30 3308 H 303.997 -3.67688 -3.43241 0
M  V30 3309 H 303.697 -5.24675 -2.64556 0
M  V30 3310 H 305.221 -4.97654 -3.53798 0
M  V30 3311 H 306.635 -5.57271 -1.34618 0
M  V30 3312 H 305.032 -5.96471 -0.658928 0
M  V30 3313 H 306.102 -4.84473 0.203478 0
M  V30 3314 N 307.445 0.0818655 -1.57387 0
M  V30 3315 C 308.692 0.782914 -1.86753 0
M  V30 3316 C 309.02 1.78082 -0.782118 0
M  V30 3317 O 308.275 1.94426 0.22295 0
M  V30 3318 C 308.574 1.53513 -3.22752 0
M  V30 3319 C 308.24 0.678134 -4.45771 0
M  V30 3320 C 306.902 0.441929 -4.79166 0
M  V30 3321 C 309.254 0.0832243 -5.21134 0
M  V30 3322 C 306.582 -0.398833 -5.85343 0
M  V30 3323 C 308.934 -0.744935 -6.28199 0
M  V30 3324 C 307.598 -0.991107 -6.60101 0
M  V30 3325 H 306.868 0.286489 -0.683378 0
M  V30 3326 H 309.515 0.0439808 -1.91449 0
M  V30 3327 H 307.82 2.34599 -3.138 0
M  V30 3328 H 309.517 2.08218 -3.42705 0
M  V30 3329 H 306.107 0.872357 -4.19628 0
M  V30 3330 H 310.291 0.252847 -4.95655 0
M  V30 3331 H 305.547 -0.598405 -6.08465 0
M  V30 3332 H 309.721 -1.21271 -6.8576 0
M  V30 3333 H 307.348 -1.64437 -7.42202 0
M  V30 3334 N 308.923 1.53595 0.353017 0
M  V30 3335 C 310.148 1.7462 1.11904 0
M  V30 3336 C 310.573 0.479721 1.8188 0
M  V30 3337 O 309.931 -0.567066 1.72204 0
M  V30 3338 C 309.979 2.92029 2.11545 0
M  V30 3339 O 309.083 2.61516 3.18878 0
M  V30 3340 H 308.424 0.579531 0.324099 0
M  V30 3341 H 310.954 2.00525 0.406301 0
M  V30 3342 H 310.964 3.18551 2.5493 0
M  V30 3343 H 309.639 3.83888 1.60008 0
M  V30 3344 H 308.216 2.45852 2.80377 0
M  V30 3345 N 310.401 -0.613514 1.45168 0
M  V30 3346 C 311.649 -1.36997 1.48581 0
M  V30 3347 C 311.97 -1.94589 0.126545 0
M  V30 3348 O 311.24 -1.76816 -0.843372 0
M  V30 3349 H 309.82 -0.508558 0.547154 0
M  V30 3350 H 312.482 -0.720853 1.81079 0
M  V30 3351 H 311.578 -2.1924 2.22127 0
M  V30 3352 N 311.879 -1.3236 -0.855495 0
M  V30 3353 C 313.107 -1.2587 -1.64208 0
M  V30 3354 C 313.522 0.173457 -1.88002 0
M  V30 3355 O 312.879 1.11027 -1.44842 0
M  V30 3356 C 312.93 -2.01424 -3.00184 0
M  V30 3357 O 312.651 -3.39051 -2.77445 0
M  V30 3358 C 314.152 -2.01948 -3.94629 0
M  V30 3359 H 311.372 -0.434318 -0.511477 0
M  V30 3360 H 313.916 -1.74469 -1.0668 0
M  V30 3361 H 312.071 -1.56549 -3.5436 0
M  V30 3362 H 312.485 -3.77711 -3.63916 0
M  V30 3363 H 313.959 -2.59297 -4.87308 0
M  V30 3364 H 314.436 -1.00554 -4.27534 0
M  V30 3365 H 315.042 -2.46767 -3.4639 0
M  V30 3366 N 313.357 1.07166 -1.15556 0
M  V30 3367 C 314.305 2.16517 -0.8499 0
M  V30 3368 C 315.299 1.68468 0.177454 0
M  V30 3369 O 316.505 1.79971 0.0323026 0
M  V30 3370 H 312.88 0.706652 -0.25719 0
M  V30 3371 H 314.851 2.39514 -1.77976 0
M  V30 3372 C 313.6 3.45855 -0.357682 0
M  V30 3373 H 312.923 3.83214 -1.13961 0
M  V30 3374 H 314.363 4.23607 -0.182489 0
M  V30 3375 C 312.822 3.24062 0.921152 0
M  V30 3376 O 313.352 3.48813 1.9923 0
M  V30 3377 N 311.558 2.77539 0.86141 0
M  V30 3378 H 311.105 2.57598 -0.0104408 0
M  V30 3379 H 311.063 2.63337 1.71758 0
M  V30 3380 N 314.835 0.952656 1.25548 0
M  V30 3381 C 316.084 0.602053 1.92505 0
M  V30 3382 C 316.397 -0.864663 1.75451 0
M  V30 3383 O 317.603 -1.32514 2.36965 0
M  V30 3384 C 316.059 1.02607 3.44963 0
M  V30 3385 C 315.667 2.51519 3.70732 0
M  V30 3386 C 317.411 0.747905 4.1786 0
M  V30 3387 C 315.318 2.87732 5.16686 0
M  V30 3388 H 314.248 0.22146 0.720744 0
M  V30 3389 H 316.899 1.15684 1.42441 0
M  V30 3390 H 315.281 0.399712 3.93978 0
M  V30 3391 H 316.455 3.19157 3.32378 0
M  V30 3392 H 314.77 2.76786 3.11092 0
M  V30 3393 H 317.367 0.994647 5.25367 0
M  V30 3394 H 317.71 -0.315629 4.15102 0
M  V30 3395 H 318.243 1.33452 3.74747 0
M  V30 3396 H 314.982 3.93095 5.24554 0
M  V30 3397 H 314.502 2.24765 5.56094 0
M  V30 3398 H 316.181 2.76817 5.84792 0
M  V30 3399 N 316.313 -1.40141 0.720998 0
M  V30 3400 C 317.276 -2.29058 0.0805834 0
M  V30 3401 C 318.276 -1.45632 -0.681758 0
M  V30 3402 O 319.466 -1.6648 -0.512856 0
M  V30 3403 C 316.598 -3.28925 -0.895593 0
M  V30 3404 H 317.791 -2.87191 0.863793 0
M  V30 3405 H 315.344 -1.48553 0.485975 0
M  V30 3406 H 316.079 -2.75822 -1.70566 0
M  V30 3407 H 315.864 -3.90519 -0.351766 0
M  V30 3408 H 317.354 -3.95494 -1.34069 0
M  V30 3409 N 317.792 -0.46758 -1.50504 0
M  V30 3410 C 318.755 0.317059 -2.26996 0
M  V30 3411 C 319.755 0.923513 -1.31635 0
M  V30 3412 O 320.945 0.793239 -1.55091 0
M  V30 3413 C 318.077 1.45134 -3.08462 0
M  V30 3414 H 319.27 -0.353723 -2.97807 0
M  V30 3415 H 316.823 -0.221545 -1.54722 0
M  V30 3416 H 317.558 2.15728 -2.4214 0
M  V30 3417 H 317.343 1.02232 -3.78538 0
M  V30 3418 H 318.833 2.00493 -3.66323 0
M  V30 3419 N 319.27 1.56325 -0.20005 0
M  V30 3420 C 320.518 1.97329 0.436547 0
M  V30 3421 C 320.839 1.08826 1.61808 0
M  V30 3422 O 320.109 0.160604 1.95241 0
M  V30 3423 H 318.689 0.728714 0.164272 0
M  V30 3424 H 321.351 1.92761 -0.287937 0
M  V30 3425 H 320.447 3.02264 0.777353 0
M  V30 3426 N 320.748 -0.0735177 1.57428 0
M  V30 3427 C 321.695 -1.08756 2.0357 0
M  V30 3428 C 322.665 -1.38559 0.916 0
M  V30 3429 O 323.85 -1.49656 1.18354 0
M  V30 3430 C 320.99 -2.39657 2.48311 0
M  V30 3431 C 320.103 -2.16399 3.73892 0
M  V30 3432 C 319.238 -3.40852 4.07423 0
M  V30 3433 C 318.277 -3.1295 5.2605 0
M  V30 3434 N 317.414 -4.29729 5.55228 0
M  V30 3435 H 322.254 -0.687104 2.8997 0
M  V30 3436 H 319.791 -0.327709 1.43403 0
M  V30 3437 H 321.749 -3.16081 2.72303 0
M  V30 3438 H 320.379 -2.77508 1.64891 0
M  V30 3439 H 319.431 -1.30676 3.57251 0
M  V30 3440 H 320.743 -1.91788 4.60455 0
M  V30 3441 H 319.897 -4.25671 4.32306 0
M  V30 3442 H 318.636 -3.68537 3.19425 0
M  V30 3443 H 317.641 -2.26526 5.00965 0
M  V30 3444 H 318.866 -2.86589 6.15665 0
M  V30 3445 H 316.812 -4.57448 4.70188 0
M  V30 3446 H 316.729 -4.08385 6.36206 0
M  V30 3447 H 317.997 -5.1555 5.84661 0
M  V30 3448 N 322.226 -1.5378 -0.344866 0
M  V30 3449 C 323.189 -1.80981 -1.40637 0
M  V30 3450 C 324.189 -0.680816 -1.45676 0
M  V30 3451 O 325.379 -0.949095 -1.46075 0
M  V30 3452 C 322.511 -1.95063 -2.79577 0
M  V30 3453 H 323.704 -2.75803 -1.17783 0
M  V30 3454 H 321.257 -1.45173 -0.579181 0
M  V30 3455 H 321.992 -1.02379 -3.07716 0
M  V30 3456 H 321.777 -2.77198 -2.77315 0
M  V30 3457 H 323.267 -2.17629 -3.56409 0
M  V30 3458 N 323.704 0.605807 -1.45491 0
M  V30 3459 C 324.637 1.73022 -1.48791 0
M  V30 3460 C 325.615 1.58917 -0.344112 0
M  V30 3461 O 326.799 1.80453 -0.544876 0
M  V30 3462 C 323.926 3.10865 -1.34463 0
M  V30 3463 C 322.972 3.43554 -2.5273 0
M  V30 3464 S 323.805 3.38196 -4.15191 0
M  V30 3465 C 324.961 4.78616 -4.03333 0
M  V30 3466 H 325.194 1.69961 -2.43928 0
M  V30 3467 H 322.727 0.782611 -1.33096 0
M  V30 3468 H 324.685 3.90398 -1.26884 0
M  V30 3469 H 323.346 3.1144 -0.40794 0
M  V30 3470 H 322.539 4.43924 -2.38637 0
M  V30 3471 H 322.141 2.71541 -2.5718 0
M  V30 3472 H 324.433 5.68463 -3.68587 0
M  V30 3473 H 325.376 4.97767 -5.03621 0
M  V30 3474 H 325.784 4.54381 -3.34959 0
M  V30 3475 N 325.182 1.32811 0.848464 0
M  V30 3476 C 326.43 1.23479 1.59991 0
M  V30 3477 C 326.751 -0.201853 1.93952 0
M  V30 3478 O 326.021 -1.12818 1.60153 0
M  V30 3479 H 324.601 0.454034 0.593179 0
M  V30 3480 H 327.263 1.66412 1.01455 0
M  V30 3481 H 326.359 1.82178 2.53412 0
M  V30 3482 N 326.66 -1.06551 1.16123 0
M  V30 3483 C 327.906 -1.79567 0.94252 0
M  V30 3484 C 328.239 -1.86869 -0.528547 0
M  V30 3485 O 327.514 -1.35838 -1.39206 0
M  V30 3486 C 327.797 -3.24195 1.56747 0
M  V30 3487 C 327.65 -3.24989 3.10969 0
M  V30 3488 C 328.969 -4.21678 1.25998 0
M  V30 3489 H 326.088 -0.651883 0.343828 0
M  V30 3490 H 328.73 -1.2463 1.43413 0
M  V30 3491 H 326.88 -3.71107 1.14942 0
M  V30 3492 H 328.552 -2.86258 3.61737 0
M  V30 3493 H 326.795 -2.63716 3.44436 0
M  V30 3494 H 327.466 -4.27005 3.49815 0
M  V30 3495 H 329.942 -3.83196 1.62174 0
M  V30 3496 H 328.818 -5.21146 1.7233 0
M  V30 3497 H 329.079 -4.4174 0.178367 0
M  V30 3498 N 328.138 -0.959301 -1.25041 0
M  V30 3499 C 329.384 -0.617525 -1.9317 0
M  V30 3500 C 329.717 0.843981 -1.74902 0
M  V30 3501 O 328.992 1.60615 -1.09696 0
M  V30 3502 C 329.275 -0.982736 -3.46431 0
M  V30 3503 C 329.128 -2.50032 -3.73904 0
M  V30 3504 C 330.447 -0.511176 -4.37121 0
M  V30 3505 H 327.566 -0.22582 -0.701552 0
M  V30 3506 H 330.208 -1.19679 -1.4757 0
M  V30 3507 H 328.358 -0.489806 -3.854 0
M  V30 3508 H 330.03 -3.06737 -3.44544 0
M  V30 3509 H 328.273 -2.93598 -3.19348 0
M  V30 3510 H 328.944 -2.70635 -4.81103 0
M  V30 3511 H 331.42 -0.934075 -4.0548 0
M  V30 3512 H 330.296 -0.795361 -5.43107 0
M  V30 3513 H 330.557 0.588834 -4.38161 0
M  V30 3514 N 329.616 1.39756 -0.72842 0
M  V30 3515 C 330.862 2.00942 -0.273892 0
M  V30 3516 C 331.195 1.57656 1.13394 0
M  V30 3517 O 330.47 0.802434 1.77176 0
M  V30 3518 C 330.753 3.58211 -0.368346 0
M  V30 3519 C 330.606 4.11534 -1.81548 0
M  V30 3520 C 331.925 4.39372 0.253054 0
M  V30 3521 H 329.044 0.730047 -0.100996 0
M  V30 3522 H 331.686 1.66056 -0.923337 0
M  V30 3523 H 329.836 3.88061 0.184588 0
M  V30 3524 H 331.508 3.92431 -2.42478 0
M  V30 3525 H 329.751 3.65341 -2.33898 0
M  V30 3526 H 330.422 5.20682 -1.83288 0
M  V30 3527 H 332.898 4.15527 -0.218224 0
M  V30 3528 H 331.774 5.48677 0.156585 0
M  V30 3529 H 332.035 4.21358 1.33826 0
M  V30 3530 N 331.094 0.475555 1.50254 0
M  V30 3531 C 332.057 -0.305016 2.27161 0
M  V30 3532 C 333.057 -0.916519 1.32123 0
M  V30 3533 O 334.247 -0.785003 1.5551 0
M  V30 3534 C 331.379 -1.43496 3.09227 0
M  V30 3535 H 332.572 0.369511 2.97615 0
M  V30 3536 H 330.125 0.229747 1.54602 0
M  V30 3537 H 330.86 -2.14441 2.43281 0
M  V30 3538 H 330.645 -1.00223 3.79075 0
M  V30 3539 H 332.135 -1.98548 3.67381 0
M  V30 3540 N 332.573 -1.56217 0.208337 0
M  V30 3541 C 333.801 -2.02337 -0.43215 0
M  V30 3542 C 334.216 -1.08834 -1.54275 0
M  V30 3543 O 333.573 -0.0955462 -1.8225 0
M  V30 3544 C 333.624 -3.48072 -0.976138 0
M  V30 3545 O 333.345 -4.38007 0.0901621 0
M  V30 3546 C 334.846 -4.09773 -1.69119 0
M  V30 3547 H 332.066 -0.662385 -0.10718 0
M  V30 3548 H 334.61 -2.01966 0.320923 0
M  V30 3549 H 332.765 -3.49099 -1.67954 0
M  V30 3550 H 333.179 -5.23543 -0.316701 0
M  V30 3551 H 334.653 -5.13556 -2.02397 0
M  V30 3552 H 335.13 -3.53999 -2.59964 0
M  V30 3553 H 335.736 -4.12556 -1.03332 0
M  V30 3554 N 334.051 0.0651679 -1.57465 0
M  V30 3555 C 335.299 0.761555 -1.87202 0
M  V30 3556 C 335.62 1.77778 -0.801243 0
M  V30 3557 O 334.89 1.95166 0.16937 0
M  V30 3558 H 333.47 0.284251 -0.690804 0
M  V30 3559 H 336.132 0.0396827 -1.9486 0
M  V30 3560 H 335.228 1.27365 -2.84929 0
M  V30 3561 N 335.529 1.53961 0.336706 0
M  V30 3562 C 336.775 1.7179 1.07777 0
M  V30 3563 C 337.108 0.483263 1.88091 0
M  V30 3564 O 336.383 -0.519747 1.87427 0
M  V30 3565 C 336.666 2.98558 2.01334 0
M  V30 3566 C 336.519 4.32245 1.24437 0
M  V30 3567 C 337.838 3.21023 3.01052 0
M  V30 3568 H 334.957 0.625089 0.390426 0
M  V30 3569 H 337.599 1.86641 0.35567 0
M  V30 3570 H 335.749 2.86028 2.62908 0
M  V30 3571 H 337.421 4.56637 0.654243 0
M  V30 3572 H 335.664 4.30344 0.546458 0
M  V30 3573 H 336.335 5.17137 1.93063 0
M  V30 3574 H 338.811 3.32929 2.49595 0
M  V30 3575 H 337.687 4.11104 3.6371 0
M  V30 3576 H 337.948 2.37637 3.72802 0
M  V30 3577 N 337.007 -0.598083 1.45811 0
M  V30 3578 C 337.955 -1.72932 1.55555 0
M  V30 3579 C 338.949 -1.63984 0.424921 0
M  V30 3580 O 340.155 -1.69663 0.601205 0
M  V30 3581 H 336.53 -0.571489 0.488779 0
M  V30 3582 H 338.501 -1.61842 2.50699 0
M  V30 3583 C 337.25 -3.11318 1.54843 0
M  V30 3584 H 336.573 -3.18867 2.41172 0
M  V30 3585 H 338.013 -3.90274 1.65717 0
M  V30 3586 C 336.472 -3.3578 0.274427 0
M  V30 3587 O 337.002 -3.9654 -0.641778 0
M  V30 3588 N 335.208 -2.90119 0.167139 0
M  V30 3589 H 334.755 -2.40855 0.913596 0
M  V30 3590 H 334.713 -3.0686 -0.684435 0
M  V30 3591 N 338.485 -1.33259 -0.841409 0
M  V30 3592 C 339.713 -1.27605 -1.62864 0
M  V30 3593 C 340.128 0.153507 -1.88175 0
M  V30 3594 O 339.485 1.09485 -1.46011 0
M  V30 3595 C 339.536 -2.04596 -2.98031 0
M  V30 3596 O 339.257 -3.41975 -2.73834 0
M  V30 3597 C 340.758 -2.06122 -3.92465 0
M  V30 3598 H 337.978 -0.439718 -0.506842 0
M  V30 3599 H 340.522 -1.75591 -1.04824 0
M  V30 3600 H 338.677 -1.60299 -3.5268 0
M  V30 3601 H 339.091 -3.81549 -3.59889 0
M  V30 3602 H 340.565 -2.64451 -4.84531 0
M  V30 3603 H 341.042 -1.05083 -4.26444 0
M  V30 3604 H 341.648 -2.50427 -3.43753 0
M  V30 3605 N 339.963 1.05934 -1.16686 0
M  V30 3606 C 340.873 2.17014 -0.891183 0
M  V30 3607 C 341.889 1.73453 0.137907 0
M  V30 3608 O 343.065 2.01361 -0.039592 0
M  V30 3609 C 340.13 3.44384 -0.400099 0
M  V30 3610 C 339.191 4.02433 -1.49486 0
M  V30 3611 C 338.424 5.23723 -1.02711 0
M  V30 3612 O 338.647 5.7027 0.121716 0
M  V30 3613 O 337.581 5.7382 -1.81699 0
M  V30 3614 H 341.407 2.43113 -1.82015 0
M  V30 3615 H 338.992 1.15541 -0.947132 0
M  V30 3616 H 340.874 4.21189 -0.133392 0
M  V30 3617 H 339.549 3.19802 0.500817 0
M  V30 3618 H 338.456 3.27102 -1.81535 0
M  V30 3619 H 339.789 4.31317 -2.37121 0
M  V30 3620 N 341.441 0.965919 1.2453 0
M  V30 3621 C 342.69 0.622437 1.91856 0
M  V30 3622 C 343.003 -0.846006 1.76358 0
M  V30 3623 O 344.209 -1.29993 2.38357 0
M  V30 3624 C 342.665 1.0626 3.43856 0
M  V30 3625 C 342.273 2.55437 3.68043 0
M  V30 3626 C 344.017 0.792183 4.17043 0
M  V30 3627 C 341.924 2.93196 5.13605 0
M  V30 3628 H 340.854 0.229092 0.718354 0
M  V30 3629 H 343.505 1.17189 1.41206 0
M  V30 3630 H 341.887 0.441476 3.93531 0
M  V30 3631 H 343.061 3.22665 3.28974 0
M  V30 3632 H 341.376 2.8007 3.08139 0
M  V30 3633 H 343.973 1.05031 5.24283 0
M  V30 3634 H 344.316 -0.271584 4.15413 0
M  V30 3635 H 344.849 1.37419 3.73311 0
M  V30 3636 H 341.588 3.98636 5.20355 0
M  V30 3637 H 341.108 2.30651 5.53679 0
M  V30 3638 H 342.787 2.83004 5.81823 0
M  V30 3639 N 342.919 -1.39368 0.735821 0
M  V30 3640 C 344.167 -2.00101 0.283562 0
M  V30 3641 C 344.488 -1.5868 -1.13338 0
M  V30 3642 O 343.758 -0.835423 -1.77193 0
M  V30 3643 H 342.338 -0.740024 0.101851 0
M  V30 3644 H 345 -1.70404 0.945962 0
M  V30 3645 H 344.096 -3.10323 0.332604 0
M  V30 3646 N 344.397 -0.483516 -1.5 0
M  V30 3647 C 345.344 0.304164 -2.28787 0
M  V30 3648 C 346.314 0.976114 -1.34392 0
M  V30 3649 O 347.499 0.986156 -1.63339 0
M  V30 3650 C 344.639 1.37298 -3.16612 0
M  V30 3651 C 343.752 0.714561 -4.26049 0
M  V30 3652 C 342.887 1.76232 -5.01114 0
M  V30 3653 C 341.926 1.08483 -6.0241 0
M  V30 3654 N 341.063 2.076 -6.70706 0
M  V30 3655 H 345.903 -0.373981 -2.95644 0
M  V30 3656 H 343.44 -0.196275 -1.45785 0
M  V30 3657 H 345.398 2.00445 -3.65893 0
M  V30 3658 H 344.028 2.02012 -2.51776 0
M  V30 3659 H 343.08 -0.0297798 -3.80388 0
M  V30 3660 H 344.392 0.180383 -4.98474 0
M  V30 3661 H 343.546 2.46929 -5.54176 0
M  V30 3662 H 342.285 2.33033 -4.28424 0
M  V30 3663 H 341.29 0.363545 -5.48597 0
M  V30 3664 H 342.515 0.523551 -6.77079 0
M  V30 3665 H 340.461 2.63394 -6.00799 0
M  V30 3666 H 340.378 1.59201 -7.39047 0
M  V30 3667 H 341.646 2.77639 -7.2838 0
M  V30 3668 N 345.875 1.56104 -0.216619 0
M  V30 3669 C 347.124 1.97348 0.416744 0
M  V30 3670 C 347.437 1.10715 1.6125 0
M  V30 3671 O 348.643 1.41836 2.31506 0
M  V30 3672 C 347.099 3.51059 0.792835 0
M  V30 3673 C 346.707 4.46387 -0.379828 0
M  V30 3674 C 348.451 4.01026 1.39208 0
M  V30 3675 C 346.358 5.91397 0.0184223 0
M  V30 3676 H 345.288 0.736942 0.159475 0
M  V30 3677 H 347.939 1.80827 -0.31205 0
M  V30 3678 H 346.321 3.63162 1.57891 0
M  V30 3679 H 347.495 4.46029 -1.15737 0
M  V30 3680 H 345.81 4.06734 -0.891979 0
M  V30 3681 H 348.407 5.0686 1.70286 0
M  V30 3682 H 348.75 3.46587 2.30614 0
M  V30 3683 H 349.283 3.92125 0.669537 0
M  V30 3684 H 346.022 6.49807 -0.862002 0
M  V30 3685 H 345.542 5.94961 0.760384 0
M  V30 3686 H 347.221 6.45455 0.446818 0
M  V30 3687 N 347.353 -0.0568162 1.57498 0
M  V30 3688 C 348.769 -0.411933 1.54192 0
M  V30 3689 C 348.969 -1.78287 0.938942 0
M  V30 3690 O 348.025 -2.46483 0.547919 0
M  V30 3691 C 349.338 -0.339244 2.9878 0
M  V30 3692 C 350.886 -0.418348 3.10192 0
M  V30 3693 C 351.361 -0.375407 4.56459 0
M  V30 3694 N 352.852 -0.435038 4.61153 0
M  V30 3695 C 353.587 -0.424265 5.71828 0
M  V30 3696 N 353.083 -0.367418 6.91825 0
M  V30 3697 N 354.876 -0.471938 5.60115 0
M  V30 3698 H 347.027 0.840684 1.95055 0
M  V30 3699 H 349.29 0.316987 0.893433 0
M  V30 3700 H 348.996 0.601742 3.46514 0
M  V30 3701 H 348.87 -1.14371 3.59443 0
M  V30 3702 H 351.257 -1.34976 2.62422 0
M  V30 3703 H 351.338 0.414962 2.52412 0
M  V30 3704 H 350.982 0.552219 5.04889 0
M  V30 3705 H 350.912 -1.22645 5.12119 0
M  V30 3706 H 353.403 -0.482612 3.74806 0
M  V30 3707 H 353.716 -0.363535 7.71944 0
M  V30 3708 H 352.061 -0.333879 6.94198 0
M  V30 3709 H 355.252 -0.514145 4.65268 0
M  V30 3710 H 355.425 -0.460073 6.46365 0
M  V30 3711 N 348.832 -1.54138 -0.328536 0
M  V30 3712 C 350.109 -1.62749 -1.08499 0
M  V30 3713 C 350.489 -0.458198 -2.06067 0
M  V30 3714 O 349.837 0.548046 -2.2183 0
M  V30 3715 C 350.047 -2.99519 -1.79135 0
M  V30 3716 C 351.395 -3.55394 -2.32337 0
M  V30 3717 O 352.419 -3.01792 -1.89209 0
M  V30 3718 O 351.278 -4.49186 -3.11279 0
M  V30 3719 H 348.372 -0.65886 -0.499832 0
M  V30 3720 H 350.918 -1.66484 -0.328826 0
M  V30 3721 H 349.69 -3.76061 -1.08139 0
M  V30 3722 H 349.313 -2.99441 -2.61574 0
M  V30 3723 N 350.31 0.590341 -1.46126 0
M  V30 3724 C 351.22 1.72793 -1.58681 0
M  V30 3725 C 352.236 1.67516 -0.470566 0
M  V30 3726 O 353.412 1.87562 -0.733642 0
M  V30 3727 C 350.477 3.09287 -1.5666 0
M  V30 3728 C 349.538 3.25886 -2.79458 0
M  V30 3729 C 348.771 4.55869 -2.77524 0
M  V30 3730 O 348.994 5.3928 -1.85832 0
M  V30 3731 O 347.928 4.75552 -3.68964 0
M  V30 3732 H 351.754 1.65149 -2.54872 0
M  V30 3733 H 349.339 0.756486 -1.28832 0
M  V30 3734 H 351.221 3.90577 -1.58202 0
M  V30 3735 H 349.896 3.17385 -0.636271 0
M  V30 3736 H 348.803 2.44119 -2.83472 0
M  V30 3737 H 350.136 3.22675 -3.71674 0
M  V30 3738 N 351.788 1.33704 0.83433 0
M  V30 3739 C 352.721 1.18675 1.94914 0
M  V30 3740 C 353.699 0.0811145 1.62398 0
M  V30 3741 O 354.883 0.244186 1.86912 0
M  V30 3742 C 352.01 0.821231 3.28593 0
M  V30 3743 C 351.056 1.93501 3.80079 0
M  V30 3744 S 351.889 3.54671 4.01209 0
M  V30 3745 C 353.045 3.20136 5.37833 0
M  V30 3746 H 353.278 2.13043 2.07364 0
M  V30 3747 H 350.811 1.18598 0.988624 0
M  V30 3748 H 352.769 0.617123 4.05835 0
M  V30 3749 H 351.43 -0.103927 3.13928 0
M  V30 3750 H 350.623 1.63273 4.76821 0
M  V30 3751 H 350.225 2.09601 3.09747 0
M  V30 3752 H 352.517 2.71242 6.20833 0
M  V30 3753 H 353.46 4.15975 5.73036 0
M  V30 3754 H 353.868 2.56613 5.02802 0
M  V30 3755 N 353.266 -1.05314 1.17247 0
M  V30 3756 C 354.512 -1.78557 0.961513 0
M  V30 3757 C 354.845 -1.87419 -0.508697 0
M  V30 3758 O 354.12 -1.37307 -1.37757 0
M  V30 3759 C 354.403 -3.22514 1.60176 0
M  V30 3760 C 354.256 -3.21673 3.14399 0
M  V30 3761 C 355.575 -4.20318 1.30463 0
M  V30 3762 H 352.694 -0.6482 0.350723 0
M  V30 3763 H 355.336 -1.23102 1.44727 0
M  V30 3764 H 353.486 -3.69867 1.18871 0
M  V30 3765 H 355.158 -2.82405 3.64753 0
M  V30 3766 H 353.401 -2.60048 3.47214 0
M  V30 3767 H 354.072 -4.23271 3.54324 0
M  V30 3768 H 356.548 -3.81454 1.66229 0
M  V30 3769 H 355.424 -5.19289 1.77848 0
M  V30 3770 H 355.685 -4.41526 0.22521 0
M  V30 3771 N 354.744 -0.972509 -1.24016 0
M  V30 3772 C 355.707 -0.511403 -2.23422 0
M  V30 3773 C 356.707 0.394679 -1.55881 0
M  V30 3774 O 357.897 0.189469 -1.73167 0
M  V30 3775 C 355.029 0.258769 -3.39916 0
M  V30 3776 H 356.222 -1.39024 -2.6573 0
M  V30 3777 H 353.775 -0.757585 -1.36713 0
M  V30 3778 H 354.51 1.1545 -3.03054 0
M  V30 3779 H 354.295 -0.391522 -3.9014 0
M  V30 3780 H 355.785 0.570244 -4.13688 0
M  V30 3781 N 356.222 1.38976 -0.743202 0
M  V30 3782 C 357.45 2.04636 -0.30525 0
M  V30 3783 C 357.865 1.56044 1.06281 0
M  V30 3784 O 357.222 0.728921 1.67311 0
M  V30 3785 C 357.273 3.60193 -0.307177 0
M  V30 3786 O 356.994 4.06998 -1.62124 0
M  V30 3787 C 358.495 4.4306 0.145928 0
M  V30 3788 H 355.715 0.65788 -0.132041 0
M  V30 3789 H 358.259 1.77866 -1.00915 0
M  V30 3790 H 356.414 3.85835 0.347898 0
M  V30 3791 H 356.828 5.01371 -1.54036 0
M  V30 3792 H 358.302 5.51921 0.0934183 0
M  V30 3793 H 358.779 4.22706 1.19231 0
M  V30 3794 H 359.385 4.22584 -0.479886 0
M  V30 3795 N 357.7 0.491464 1.49741 0
M  V30 3796 C 358.61 -0.296835 2.32715 0
M  V30 3797 C 359.626 -0.976536 1.44013 0
M  V30 3798 O 360.802 -0.960023 1.77047 0
M  V30 3799 C 357.867 -1.35288 3.19215 0
M  V30 3800 C 356.928 -0.687632 4.23757 0
M  V30 3801 C 356.161 -1.69336 5.06123 0
M  V30 3802 O 356.384 -2.92219 4.89861 0
M  V30 3803 O 355.318 -1.25394 5.88693 0
M  V30 3804 H 359.144 0.382048 3.01287 0
M  V30 3805 H 356.729 0.252953 1.47243 0
M  V30 3806 H 358.611 -1.96411 3.72828 0
M  V30 3807 H 357.286 -2.01487 2.53347 0
M  V30 3808 H 356.193 -0.0369159 3.74082 0
M  V30 3809 H 357.526 -0.0682566 4.92153 0
M  V30 3810 N 359.178 -1.55987 0.224894 0
M  V30 3811 C 360.11 -2.17722 -0.716224 0
M  V30 3812 C 361.123 -1.14723 -1.15509 0
M  V30 3813 O 362.312 -1.41688 -1.08567 0
M  V30 3814 C 359.412 -2.74873 -1.98238 0
M  V30 3815 C 358.585 -4.03074 -1.69853 0
M  V30 3816 C 357.644 -4.44757 -2.81208 0
M  V30 3817 O 356.67 -5.11587 -2.49534 0
M  V30 3818 N 357.872 -4.10716 -4.10235 0
M  V30 3819 H 360.637 -2.99109 -0.188123 0
M  V30 3820 H 358.198 -1.6184 0.0440123 0
M  V30 3821 H 360.19 -2.99727 -2.7193 0
M  V30 3822 H 358.76 -1.9777 -2.42086 0
M  V30 3823 H 357.98 -3.86041 -0.797875 0
M  V30 3824 H 359.268 -4.86701 -1.48324 0
M  V30 3825 H 358.666 -3.57019 -4.38809 0
M  V30 3826 H 357.223 -4.40455 -4.80461 0
M  V30 3827 N 360.656 0.0484629 -1.57525 0
M  V30 3828 C 361.566 1.07241 -2.08654 0
M  V30 3829 C 362.582 1.409 -1.02095 0
M  V30 3830 O 363.758 1.50609 -1.33712 0
M  V30 3831 C 360.823 2.36008 -2.5397 0
M  V30 3832 C 359.884 2.09108 -3.7493 0
M  V30 3833 C 359.117 3.31736 -4.18075 0
M  V30 3834 O 359.34 4.41714 -3.60895 0
M  V30 3835 O 358.274 3.18576 -5.10679 0
M  V30 3836 H 362.1 0.667965 -2.96263 0
M  V30 3837 H 359.685 0.26417 -1.47046 0
M  V30 3838 H 361.567 3.11747 -2.83535 0
M  V30 3839 H 360.242 2.75786 -1.69481 0
M  V30 3840 H 359.149 1.31 -3.50414 0
M  V30 3841 H 360.482 1.74198 -4.60343 0
M  V30 3842 N 362.134 1.5431 0.320358 0
M  V30 3843 C 363.55 1.45091 0.664889 0
M  V30 3844 C 363.75 0.626382 1.91517 0
M  V30 3845 O 362.806 0.126443 2.52183 0
M  V30 3846 C 364.119 2.88848 0.83591 0
M  V30 3847 C 365.667 2.9877 0.933046 0
M  V30 3848 C 366.142 4.43683 1.13621 0
M  V30 3849 N 367.633 4.47309 1.20287 0
M  V30 3850 C 368.368 5.56595 1.37801 0
M  V30 3851 N 367.864 6.75844 1.52338 0
M  V30 3852 N 369.657 5.44248 1.40535 0
M  V30 3853 H 361.808 2.06398 -0.501374 0
M  V30 3854 H 364.071 0.933963 -0.162534 0
M  V30 3855 H 363.777 3.51698 -0.0116092 0
M  V30 3856 H 363.651 3.35148 1.73078 0
M  V30 3857 H 366.038 2.36045 1.77107 0
M  V30 3858 H 366.119 2.55796 0.0145782 0
M  V30 3859 H 365.763 5.06995 0.303032 0
M  V30 3860 H 365.693 4.84269 2.0686 0
M  V30 3861 H 368.184 3.61388 1.10485 0
M  V30 3862 H 368.497 7.54892 1.65403 0
M  V30 3863 H 366.842 6.78746 1.4943 0
M  V30 3864 H 370.033 4.50038 1.28777 0
M  V30 3865 H 370.206 6.29473 1.53842 0
M  V30 3866 N 363.613 -0.582584 1.46437 0
M  V30 3867 C 364.841 -1.36682 1.55324 0
M  V30 3868 C 365.256 -1.87796 0.194409 0
M  V30 3869 O 364.613 -1.63623 -0.808318 0
M  V30 3870 C 364.664 -2.55426 2.55812 0
M  V30 3871 O 364.385 -2.0643 3.86417 0
M  V30 3872 C 365.886 -3.47976 2.74641 0
M  V30 3873 H 363.106 -0.417545 0.525259 0
M  V30 3874 H 365.65 -0.708219 1.91845 0
M  V30 3875 H 363.805 -3.17275 2.22295 0
M  V30 3876 H 364.219 -2.83762 4.41111 0
M  V30 3877 H 365.693 -4.27775 3.48874 0
M  V30 3878 H 366.17 -3.99919 1.81553 0
M  V30 3879 H 366.776 -2.91962 3.09255 0
M  V30 3880 N 365.091 -1.34144 -0.827227 0
M  V30 3881 C 366.502 -1.23557 -1.39966 0
M  V30 3882 C 366.853 0.140731 -1.95695 0
M  V30 3883 O 365.978 1.04087 -1.89723 0
M  V30 3884 C 366.573 -2.23708 -2.54441 0
M  V30 3885 C 365.132 -2.16924 -3.07605 0
M  V30 3886 C 364.279 -2.10549 -1.80456 0
M  V30 3887 H 367.23 -1.45573 -0.631991 0
M  V30 3888 H 367.251 -1.85157 -3.32411 0
M  V30 3889 H 366.763 -3.23866 -2.13851 0
M  V30 3890 H 364.864 -1.20107 -3.52711 0
M  V30 3891 H 364.977 -3.07988 -3.66988 0
M  V30 3892 H 363.341 -1.56203 -2.01178 0
M  V30 3893 H 364.124 -3.12535 -1.42046 0
M  V30 3894 N 366.569 1.04691 -1.17803 0
M  V30 3895 C 367.499 2.14494 -0.92275 0
M  V30 3896 C 368.48 1.69546 0.137179 0
M  V30 3897 O 369.665 1.94195 -0.0141108 0
M  V30 3898 C 366.795 3.44491 -0.440803 0
M  V30 3899 C 365.749 4.03031 -1.4405 0
M  V30 3900 C 365.075 5.28432 -0.81631 0
M  V30 3901 C 366.375 4.39932 -2.81527 0
M  V30 3902 H 368.069 2.36107 -1.84103 0
M  V30 3903 H 365.615 1.1347 -0.886599 0
M  V30 3904 H 367.568 4.2066 -0.249602 0
M  V30 3905 H 366.292 3.22546 0.513025 0
M  V30 3906 H 364.951 3.28937 -1.61853 0
M  V30 3907 H 364.599 5.02792 0.144511 0
M  V30 3908 H 364.299 5.68559 -1.48371 0
M  V30 3909 H 365.823 6.07284 -0.635496 0
M  V30 3910 H 367.237 5.07113 -2.67412 0
M  V30 3911 H 365.634 4.9109 -3.44892 0
M  V30 3912 H 366.704 3.50045 -3.35554 0
M  V30 3913 N 368.047 0.979072 1.23499 0
M  V30 3914 C 368.979 0.476271 2.24197 0
M  V30 3915 C 369.992 -0.421166 1.57258 0
M  V30 3916 O 371.181 -0.225515 1.7707 0
M  V30 3917 C 368.281 -0.330503 3.37285 0
M  V30 3918 C 367.454 0.559744 4.33804 0
M  V30 3919 C 366.513 -0.192954 5.25846 0
M  V30 3920 O 365.539 0.416978 5.67671 0
M  V30 3921 N 366.741 -1.47932 5.61334 0
M  V30 3922 H 369.506 1.34211 2.67969 0
M  V30 3923 H 367.067 0.852189 1.37657 0
M  V30 3924 H 369.059 -0.842361 3.95836 0
M  V30 3925 H 367.629 -1.09734 2.92707 0
M  V30 3926 H 366.849 1.25245 3.73775 0
M  V30 3927 H 368.137 1.1665 4.95248 0
M  V30 3928 H 367.535 -1.9964 5.29302 0
M  V30 3929 H 366.092 -1.93664 6.22364 0
M  V30 3930 N 369.525 -1.3858 0.750561 0
M  V30 3931 C 370.457 -2.29057 0.0810714 0
M  V30 3932 C 371.47 -1.47596 -0.686973 0
M  V30 3933 O 372.659 -1.70495 -0.528563 0
M  V30 3934 C 369.759 -3.26475 -0.909247 0
M  V30 3935 C 368.932 -4.36945 -0.199478 0
M  V30 3936 C 367.991 -5.14572 -1.10011 0
M  V30 3937 O 367.017 -5.66321 -0.57177 0
M  V30 3938 N 368.219 -5.27262 -2.42849 0
M  V30 3939 H 370.984 -2.87153 0.858087 0
M  V30 3940 H 368.545 -1.50328 0.60109 0
M  V30 3941 H 370.537 -3.75285 -1.51471 0
M  V30 3942 H 369.107 -2.69298 -1.58736 0
M  V30 3943 H 368.327 -3.8981 0.586664 0
M  V30 3944 H 369.615 -5.07963 0.291783 0
M  V30 3945 H 369.013 -4.86763 -2.88233 0
M  V30 3946 H 367.57 -5.79456 -2.98453 0
M  V30 3947 N 371.003 -0.499398 -1.49478 0
M  V30 3948 C 371.95 0.279881 -2.29097 0
M  V30 3949 C 372.92 0.961805 -1.3542 0
M  V30 3950 O 374.105 0.968777 -1.64376 0
M  V30 3951 C 371.245 1.33932 -3.18051 0
M  V30 3952 C 370.358 0.669333 -4.26783 0
M  V30 3953 C 369.493 1.70907 -5.02955 0
M  V30 3954 C 368.532 1.02087 -6.03527 0
M  V30 3955 N 367.669 2.00474 -6.7287 0
M  V30 3956 H 372.509 -0.405317 -2.95231 0
M  V30 3957 H 370.046 -0.211726 -1.45568 0
M  V30 3958 H 372.004 1.96553 -3.67998 0
M  V30 3959 H 370.634 1.9933 -2.53904 0
M  V30 3960 H 369.686 -0.0701234 -3.80335 0
M  V30 3961 H 370.998 0.127503 -4.98637 0
M  V30 3962 H 370.152 2.41037 -5.56764 0
M  V30 3963 H 368.891 2.28476 -4.30871 0
M  V30 3964 H 367.896 0.305338 -5.48951 0
M  V30 3965 H 369.121 0.451708 -6.77596 0
M  V30 3966 H 367.067 2.57007 -6.03559 0
M  V30 3967 H 366.984 1.51353 -7.40694 0
M  V30 3968 H 368.252 2.69897 -7.31284 0
M  V30 3969 N 372.481 1.55866 -0.233164 0
M  V30 3970 C 373.411 2.23783 0.666599 0
M  V30 3971 C 374.392 1.21343 1.19205 0
M  V30 3972 O 375.577 1.4996 1.23392 0
M  V30 3973 C 372.707 2.92671 1.86978 0
M  V30 3974 C 371.661 4.01682 1.47768 0
M  V30 3975 C 370.987 4.57926 2.76058 0
M  V30 3976 C 372.287 5.18126 0.658993 0
M  V30 3977 H 373.981 2.99232 0.100306 0
M  V30 3978 H 371.527 1.43924 0.046804 0
M  V30 3979 H 373.48 3.3888 2.50476 0
M  V30 3980 H 372.204 2.14688 2.46123 0
M  V30 3981 H 370.863 3.56222 0.866106 0
M  V30 3982 H 370.511 3.76659 3.33372 0
M  V30 3983 H 370.211 5.31505 2.50552 0
M  V30 3984 H 371.735 5.06859 3.40479 0
M  V30 3985 H 373.149 5.60644 1.19795 0
M  V30 3986 H 371.546 5.98009 0.500552 0
M  V30 3987 H 372.616 4.83763 -0.331856 0
M  V30 3988 N 373.959 -0.0401083 1.57549 0
M  V30 3989 C 375.236 -0.767917 1.79896 0
M  V30 3990 C 375.616 -1.9416 0.82856 0
M  V30 3991 O 374.964 -2.2812 -0.131671 0
M  V30 3992 C 375.174 -1.2113 3.27305 0
M  V30 3993 C 376.522 -1.63175 3.91994 0
M  V30 3994 O 377.546 -1.30616 3.31388 0
M  V30 3995 O 376.405 -2.23565 4.98679 0
M  V30 3996 H 373.499 -0.370441 0.739393 0
M  V30 3997 H 376.045 -0.017737 1.69691 0
M  V30 3998 H 374.817 -0.372937 3.89519 0
M  V30 3999 H 374.44 -2.02183 3.42356 0
M  V30 4000 N 375.437 -1.54477 -0.31217 0
M  V30 4001 C 376.347 -1.87695 -1.4074 0
M  V30 4002 C 377.363 -0.769975 -1.56036 0
M  V30 4003 O 378.539 -1.06537 -1.70915 0
M  V30 4004 C 375.604 -2.10755 -2.75287 0
M  V30 4005 C 374.665 -3.34514 -2.69071 0
M  V30 4006 C 373.898 -3.56465 -3.97201 0
M  V30 4007 O 374.121 -2.81637 -4.96021 0
M  V30 4008 O 373.055 -4.49964 -3.9977 0
M  V30 4009 H 376.881 -2.80849 -1.15574 0
M  V30 4010 H 374.466 -1.40526 -0.507228 0
M  V30 4011 H 376.348 -2.27188 -3.54913 0
M  V30 4012 H 375.023 -1.20788 -3.0032 0
M  V30 4013 H 373.93 -3.23456 -1.87955 0
M  V30 4014 H 375.263 -4.24575 -2.48992 0
M  V30 4015 N 376.915 0.57481 -1.46744 0
M  V30 4016 C 378.162 1.33272 -1.52462 0
M  V30 4017 C 378.49 1.93669 -0.179572 0
M  V30 4018 O 377.745 1.7743 0.825664 0
M  V30 4019 C 378.044 2.476 -2.57738 0
M  V30 4020 C 377.71 2.05146 -4.01529 0
M  V30 4021 C 376.372 1.93284 -4.40676 0
M  V30 4022 C 378.724 1.72506 -4.91824 0
M  V30 4023 C 376.052 1.47049 -5.67973 0
M  V30 4024 C 378.404 1.27748 -6.19567 0
M  V30 4025 C 377.068 1.14468 -6.57612 0
M  V30 4026 H 376.338 0.487678 -0.557899 0
M  V30 4027 H 378.985 0.646456 -1.80259 0
M  V30 4028 H 377.29 3.21708 -2.23632 0
M  V30 4029 H 378.987 3.05807 -2.5939 0
M  V30 4030 H 375.577 2.15316 -3.7059 0
M  V30 4031 H 379.761 1.80552 -4.62293 0
M  V30 4032 H 375.017 1.35417 -5.96215 0
M  V30 4033 H 379.191 1.01547 -6.88957 0
M  V30 4034 H 376.818 0.78419 -7.56145 0
M  V30 4035 N 378.394 1.34581 0.820102 0
M  V30 4036 C 379.642 1.26845 1.57336 0
M  V30 4037 C 379.963 -0.160667 1.94337 0
M  V30 4038 O 379.233 -1.09396 1.6251 0
M  V30 4039 H 377.813 0.466514 0.583415 0
M  V30 4040 H 380.475 1.68526 0.979027 0
M  V30 4041 H 379.571 1.87513 2.4949 0
M  V30 4042 N 379.872 -1.04064 1.18357 0
M  V30 4043 C 380.782 -2.15569 0.925596 0
M  V30 4044 C 381.798 -1.7365 -0.110295 0
M  V30 4045 O 382.974 -2.01273 0.0716218 0
M  V30 4046 C 380.039 -3.43704 0.454836 0
M  V30 4047 C 379.1 -4.00004 1.55869 0
M  V30 4048 C 378.333 -5.22023 1.1103 0
M  V30 4049 O 378.556 -5.70392 -0.0309756 0
M  V30 4050 O 377.49 -5.70856 1.90805 0
M  V30 4051 H 381.316 -2.40187 1.8586 0
M  V30 4052 H 378.901 -1.1402 0.965394 0
M  V30 4053 H 380.783 -4.20923 0.200382 0
M  V30 4054 H 379.458 -3.20559 -0.449876 0
M  V30 4055 H 378.365 -3.24172 1.86716 0
M  V30 4056 H 379.698 -4.2749 2.43953 0
M  V30 4057 N 381.35 -0.985608 -1.22978 0
M  V30 4058 C 382.282 -0.488154 -2.23941 0
M  V30 4059 C 383.295 0.41282 -1.57479 0
M  V30 4060 O 384.484 0.216121 -1.77187 0
M  V30 4061 C 381.584 0.312611 -3.37455 0
M  V30 4062 C 380.757 -0.582741 -4.33501 0
M  V30 4063 C 379.816 0.165064 -5.25941 0
M  V30 4064 O 378.842 -0.447077 -5.67442 0
M  V30 4065 N 380.044 1.44953 -5.62111 0
M  V30 4066 H 382.809 -1.3563 -2.67254 0
M  V30 4067 H 380.37 -0.859477 -1.37203 0
M  V30 4068 H 382.362 0.821357 -3.96277 0
M  V30 4069 H 380.932 1.0818 -2.93285 0
M  V30 4070 H 380.152 -1.27225 -3.73105 0
M  V30 4071 H 381.44 -1.19275 -4.94622 0
M  V30 4072 H 380.838 1.9683 -5.30353 0
M  V30 4073 H 379.395 1.90361 -6.23383 0
M  V30 4074 N 382.828 1.3818 -0.7579 0
M  V30 4075 C 383.758 2.33027 -0.148597 0
M  V30 4076 C 384.739 1.55085 0.69875 0
M  V30 4077 O 385.924 1.83384 0.639053 0
M  V30 4078 C 383.054 3.3928 0.742034 0
M  V30 4079 C 382.008 4.28 -0.00291946 0
M  V30 4080 C 381.334 5.25146 1.00625 0
M  V30 4081 C 382.634 5.08938 -1.17385 0
M  V30 4082 H 384.328 2.84231 -0.940909 0
M  V30 4083 H 381.874 1.36659 -0.453908 0
M  V30 4084 H 383.827 4.046 1.17799 0
M  V30 4085 H 382.551 2.86569 1.56671 0
M  V30 4086 H 381.21 3.64192 -0.419504 0
M  V30 4087 H 380.858 4.68721 1.8251 0
M  V30 4088 H 380.558 5.85361 0.512428 0
M  V30 4089 H 382.082 5.93342 1.44143 0
M  V30 4090 H 383.496 5.67474 -0.815224 0
M  V30 4091 H 381.893 5.7841 -1.59882 0
M  V30 4092 H 382.963 4.42424 -1.98468 0
M  V30 4093 N 384.306 0.507319 1.49211 0
M  V30 4094 C 385.531 -0.033725 2.07373 0
M  V30 4095 C 385.956 -1.29485 1.36437 0
M  V30 4096 O 385.314 -1.76294 0.423087 0
M  V30 4097 C 385.362 -0.263945 3.59633 0
M  V30 4098 O 384.466 -1.33737 3.90113 0
M  V30 4099 H 383.807 0.0290331 0.663365 0
M  V30 4100 H 386.337 0.708749 1.91932 0
M  V30 4101 H 386.347 -0.493536 4.05004 0
M  V30 4102 H 385.022 0.657424 4.10671 0
M  V30 4103 H 383.599 -1.09224 3.56545 0
M  V30 4104 N 385.784 -1.5574 0.241426 0
M  V30 4105 C 386.731 -2.21149 -0.660432 0
M  V30 4106 C 387.701 -1.17356 -1.17545 0
M  V30 4107 O 388.886 -1.45784 -1.23093 0
M  V30 4108 C 386.026 -2.91059 -1.85414 0
M  V30 4109 C 385.139 -4.09495 -1.37616 0
M  V30 4110 C 384.274 -4.67135 -2.529 0
M  V30 4111 C 383.313 -5.77831 -2.01936 0
M  V30 4112 N 382.45 -6.29677 -3.10566 0
M  V30 4113 H 387.29 -2.97845 -0.095955 0
M  V30 4114 H 384.827 -1.47057 -0.0356024 0
M  V30 4115 H 386.785 -3.29788 -2.5553 0
M  V30 4116 H 385.415 -2.16846 -2.39118 0
M  V30 4117 H 384.467 -3.76117 -0.569235 0
M  V30 4118 H 385.779 -4.89423 -0.962618 0
M  V30 4119 H 384.933 -5.08409 -3.31067 0
M  V30 4120 H 383.672 -3.86411 -2.97553 0
M  V30 4121 H 382.677 -5.36039 -1.22238 0
M  V30 4122 H 383.902 -6.60402 -1.58259 0
M  V30 4123 H 381.848 -5.5186 -3.54664 0
M  V30 4124 H 381.765 -7.04783 -2.73526 0
M  V30 4125 H 383.033 -6.75609 -3.88809 0
M  V30 4126 N 387.262 0.0317525 -1.57568 0
M  V30 4127 C 388.508 0.724175 -1.8943 0
M  V30 4128 C 388.841 1.75149 -0.838836 0
M  V30 4129 O 388.116 1.93948 0.146422 0
M  V30 4130 C 388.399 1.39615 -3.31933 0
M  V30 4131 C 388.252 0.382537 -4.4817 0
M  V30 4132 C 389.571 2.33084 -3.73309 0
M  V30 4133 H 386.69 0.261797 -0.688935 0
M  V30 4134 H 389.332 -0.013017 -1.89996 0
M  V30 4135 H 387.482 2.02451 -3.31581 0
M  V30 4136 H 389.154 -0.243689 -4.60656 0
M  V30 4137 H 387.397 -0.29844 -4.32772 0
M  V30 4138 H 388.068 0.891145 -5.44759 0
M  V30 4139 H 390.544 1.80295 -3.7501 0
M  V30 4140 H 389.42 2.77084 -4.73831 0
M  V30 4141 H 389.681 3.19643 -3.05419 0
M  V30 4142 N 388.74 1.54641 0.303973 0
M  V30 4143 C 389.989 1.7299 1.03717 0
M  V30 4144 C 390.302 0.521168 1.88529 0
M  V30 4145 O 391.508 0.586408 2.65092 0
M  V30 4146 C 389.964 3.06051 1.89369 0
M  V30 4147 C 389.572 4.34393 1.09574 0
M  V30 4148 C 391.316 3.3376 2.62306 0
M  V30 4149 C 389.223 5.58506 1.94486 0
M  V30 4150 H 388.153 0.64473 0.390947 0
M  V30 4151 H 390.804 1.81124 0.294328 0
M  V30 4152 H 389.186 2.91874 2.67629 0
M  V30 4153 H 390.36 4.59396 0.359485 0
M  V30 4154 H 388.675 4.13597 0.482324 0
M  V30 4155 H 391.272 4.23687 3.26181 0
M  V30 4156 H 391.615 2.52503 3.3098 0
M  V30 4157 H 392.148 3.48894 1.91097 0
M  V30 4158 H 388.887 6.42422 1.30287 0
M  V30 4159 H 388.407 5.37694 2.65792 0
M  V30 4160 H 390.086 5.95651 2.52605 0
M  V30 4161 N 390.218 -0.567019 1.47046 0
M  V30 4162 C 391.443 -1.3551 1.57009 0
M  V30 4163 C 391.868 -1.86841 0.217259 0
M  V30 4164 O 391.226 -1.62435 -0.805268 0
M  V30 4165 C 391.274 -2.50777 2.5912 0
M  V30 4166 O 390.378 -3.52706 2.13711 0
M  V30 4167 H 389.719 -0.402919 0.52778 0
M  V30 4168 H 392.249 -0.686241 1.92748 0
M  V30 4169 H 392.259 -2.97481 2.79229 0
M  V30 4170 H 390.934 -2.12771 3.57353 0
M  V30 4171 H 389.511 -3.12374 2.03659 0
M  V30 4172 N 391.696 -1.35014 -0.812953 0
M  V30 4173 C 392.626 -1.30069 -1.93919 0
M  V30 4174 C 393.607 -0.176275 -1.69184 0
M  V30 4175 O 394.792 -0.370227 -1.90638 0
M  V30 4176 C 391.922 -1.06547 -3.30552 0
M  V30 4177 C 390.876 -2.15561 -3.69753 0
M  V30 4178 C 390.202 -1.77214 -5.04479 0
M  V30 4179 C 391.502 -3.57476 -3.808 0
M  V30 4180 H 393.196 -2.24303 -1.98314 0
M  V30 4181 H 390.742 -1.07977 -0.952736 0
M  V30 4182 H 392.695 -1.01729 -4.08937 0
M  V30 4183 H 391.419 -0.0875719 -3.26483 0
M  V30 4184 H 390.078 -2.19466 -2.9365 0
M  V30 4185 H 389.726 -0.780589 -4.96906 0
M  V30 4186 H 389.426 -2.50184 -5.31678 0
M  V30 4187 H 390.95 -1.7391 -5.8531 0
M  V30 4188 H 392.364 -3.55929 -4.4943 0
M  V30 4189 H 390.761 -4.29152 -4.19462 0
M  V30 4190 H 391.831 -3.94091 -2.82525 0
M  V30 4191 N 393.175 1.03435 -1.18907 0
M  V30 4192 C 394.424 1.76143 -0.982669 0
M  V30 4193 C 394.737 1.89416 0.487953 0
M  V30 4194 O 395.943 2.59041 0.813036 0
M  V30 4195 C 394.399 3.16722 -1.70924 0
M  V30 4196 C 394.007 3.11522 -3.21959 0
M  V30 4197 C 395.751 3.93764 -1.58588 0
M  V30 4198 C 393.658 4.46999 -3.87228 0
M  V30 4199 H 392.588 0.660292 -0.364047 0
M  V30 4200 H 395.239 1.158 -1.42347 0
M  V30 4201 H 393.621 3.775 -1.19623 0
M  V30 4202 H 394.795 2.60158 -3.80335 0
M  V30 4203 H 393.11 2.47978 -3.34508 0
M  V30 4204 H 395.707 4.93963 -2.04707 0
M  V30 4205 H 396.05 4.12794 -0.539142 0
M  V30 4206 H 396.583 3.39576 -2.07203 0
M  V30 4207 H 393.322 4.33174 -4.91976 0
M  V30 4208 H 392.842 4.98441 -3.33642 0
M  V30 4209 H 394.521 5.15898 -3.90459 0
M  V30 4210 N 394.653 0.992116 1.22453 0
M  V30 4211 C 395.893 0.675727 1.92907 0
M  V30 4212 C 396.257 -0.777762 1.75542 0
M  V30 4213 O 397.458 -1.20553 2.40251 0
M  V30 4214 C 395.729 1.0696 3.4102 0
M  V30 4215 S 397.288 0.871456 4.30059 0
M  V30 4216 H 394.106 0.247089 0.666684 0
M  V30 4217 H 396.708 1.27423 1.48269 0
M  V30 4218 H 395.412 2.12383 3.51172 0
M  V30 4219 H 394.943 0.462858 3.90668 0
M  V30 4220 H 396.958 -0.238436 4.95627 0
M  V30 4221 N 396.131 -1.37776 0.765217 0
M  V30 4222 C 397.38 -1.99092 0.323307 0
M  V30 4223 C 397.693 -1.61434 -1.10446 0
M  V30 4224 O 398.899 -2.15805 -1.64743 0
M  V30 4225 C 397.355 -3.56019 0.527098 0
M  V30 4226 C 396.963 -4.0262 1.96471 0
M  V30 4227 C 398.707 -4.2424 0.148483 0
M  V30 4228 C 396.614 -5.52233 2.11644 0
M  V30 4229 H 395.544 -0.744846 0.117137 0
M  V30 4230 H 398.195 -1.57391 0.943417 0
M  V30 4231 H 396.577 -3.95667 -0.162372 0
M  V30 4232 H 397.751 -3.74234 2.68859 0
M  V30 4233 H 396.066 -3.47161 2.29931 0
M  V30 4234 H 398.663 -5.34159 0.240456 0
M  V30 4235 H 399.006 -4.06446 -0.900422 0
M  V30 4236 H 399.539 -3.89872 0.79025 0
M  V30 4237 H 396.278 -5.74945 3.1483 0
M  V30 4238 H 395.798 -5.82324 1.4373 0
M  V30 4239 H 397.477 -6.18106 1.91193 0
M  V30 4240 N 397.609 -0.515225 -1.4894 0
M  V30 4241 C 398.572 0.244681 -2.2789 0
M  V30 4242 C 399.572 0.881166 -1.34507 0
M  V30 4243 O 400.762 0.743497 -1.57537 0
M  V30 4244 C 397.894 1.35247 -3.12923 0
M  V30 4245 H 399.087 -0.448289 -2.96531 0
M  V30 4246 H 396.64 -0.270656 -1.53939 0
M  V30 4247 H 397.375 2.07916 -2.48881 0
M  V30 4248 H 397.16 0.901374 -3.81599 0
M  V30 4249 H 398.65 1.88737 -3.72516 0
M  V30 4250 N 399.087 1.5561 -0.249682 0
M  V30 4251 C 400.333 1.99306 0.374841 0
M  V30 4252 C 400.666 1.13767 1.57387 0
M  V30 4253 O 399.941 0.201711 1.93451 0
M  V30 4254 C 400.224 3.51507 0.781986 0
M  V30 4255 C 400.077 4.4781 -0.422629 0
M  V30 4256 C 401.396 4.08884 1.62793 0
M  V30 4257 H 398.515 0.724572 0.134773 0
M  V30 4258 H 401.157 1.86719 -0.351549 0
M  V30 4259 H 399.307 3.62363 1.4009 0
M  V30 4260 H 400.979 4.48931 -1.06108 0
M  V30 4261 H 399.222 4.20518 -1.06524 0
M  V30 4262 H 399.893 5.51919 -0.0943766 0
M  V30 4263 H 402.369 4.01147 1.10547 0
M  V30 4264 H 401.245 5.1564 1.88166 0
M  V30 4265 H 401.506 3.57515 2.60068 0
M  V30 4266 N 400.565 -0.0233959 1.57583 0
M  V30 4267 C 401.811 -0.708611 1.90657 0
M  V30 4268 C 402.166 -1.7266 0.848895 0
M  V30 4269 O 401.459 -1.91075 -0.141749 0
M  V30 4270 C 401.653 -1.41428 3.28227 0
M  V30 4271 C 401.482 -0.466155 4.47277 0
M  V30 4272 C 400.252 -0.085117 5.05228 0
M  V30 4273 C 402.45 0.257836 5.13653 0
M  V30 4274 N 400.432 0.863672 6.07794 0
M  V30 4275 C 401.803 1.06209 6.10835 0
M  V30 4276 C 403.858 0.324174 4.96844 0
M  V30 4277 C 402.561 1.9266 6.93018 0
M  V30 4278 C 404.587 1.17583 5.79593 0
M  V30 4279 C 403.949 1.96799 6.7635 0
M  V30 4280 H 400.048 -0.233222 0.746412 0
M  V30 4281 H 402.632 0.0314512 1.94675 0
M  V30 4282 H 400.803 -2.12477 3.25128 0
M  V30 4283 H 402.535 -2.05233 3.488 0
M  V30 4284 H 399.29 -0.448516 4.71471 0
M  V30 4285 H 399.714 1.33274 6.63752 0
M  V30 4286 H 404.356 -0.273975 4.21911 0
M  V30 4287 H 402.074 2.53552 7.67292 0
M  V30 4288 H 405.66 1.23076 5.68633 0
M  V30 4289 H 404.54 2.61635 7.39268 0
M  V30 4290 N 402.043 -1.548 -0.295768 0
M  V30 4291 C 403.292 -1.73538 -1.02798 0
M  V30 4292 C 403.605 -0.531159 -1.8825 0
M  V30 4293 O 404.811 -0.600458 -2.64777 0
M  V30 4294 C 403.267 -3.07051 -1.87744 0
M  V30 4295 C 402.875 -4.34968 -1.07269 0
M  V30 4296 C 404.619 -3.35146 -2.60533 0
M  V30 4297 C 402.526 -5.5953 -1.91521 0
M  V30 4298 H 401.456 -0.646794 -0.387522 0
M  V30 4299 H 404.107 -1.81278 -0.284718 0
M  V30 4300 H 402.489 -2.93289 -2.66078 0
M  V30 4301 H 403.663 -4.5958 -0.335117 0
M  V30 4302 H 401.978 -4.13847 -0.460384 0
M  V30 4303 H 404.575 -4.2541 -3.23929 0
M  V30 4304 H 404.918 -2.54255 -3.29636 0
M  V30 4305 H 405.451 -3.49902 -1.89244 0
M  V30 4306 H 402.19 -6.43103 -1.26878 0
M  V30 4307 H 401.71 -5.39096 -2.62937 0
M  V30 4308 H 403.389 -5.96982 -2.49442 0
M  V30 4309 N 403.521 0.559213 -1.47345 0
M  V30 4310 C 404.77 1.31281 -1.53128 0
M  V30 4311 C 405.083 1.94602 -0.197344 0
M  V30 4312 O 406.289 2.71173 -0.133154 0
M  V30 4313 C 404.745 2.38051 -2.69925 0
M  V30 4314 C 404.353 1.8093 -4.0984 0
M  V30 4315 C 406.097 3.14604 -2.84999 0
M  V30 4316 C 404.004 2.85468 -5.1794 0
M  V30 4317 H 402.934 0.493614 -0.569966 0
M  V30 4318 H 405.585 0.594155 -1.73615 0
M  V30 4319 H 403.967 3.12822 -2.42814 0
M  V30 4320 H 405.141 1.12544 -4.46845 0
M  V30 4321 H 403.456 1.16967 -3.99634 0
M  V30 4322 H 406.053 3.92666 -3.62929 0
M  V30 4323 H 406.396 3.68665 -1.93369 0
M  V30 4324 H 406.929 2.46945 -3.1187 0
M  V30 4325 H 403.668 2.36264 -6.1144 0
M  V30 4326 H 403.188 3.52269 -4.85455 0
M  V30 4327 H 404.867 3.48996 -5.44803 0
M  V30 4328 N 404.999 1.35443 0.805782 0
M  V30 4329 C 405.947 1.28465 1.93906 0
M  V30 4330 C 406.941 0.17943 1.68447 0
M  V30 4331 O 408.147 0.345459 1.76654 0
M  V30 4332 H 404.522 0.399528 0.637088 0
M  V30 4333 H 406.493 2.24206 1.96912 0
M  V30 4334 C 405.242 1.07432 3.30687 0
M  V30 4335 H 404.565 1.91716 3.50835 0
M  V30 4336 H 406.005 1.06591 4.10383 0
M  V30 4337 C 404.464 -0.22179 3.36169 0
M  V30 4338 O 404.994 -1.21731 3.82811 0
M  V30 4339 N 403.2 -0.260841 2.89427 0
M  V30 4340 H 402.747 0.549884 2.51663 0
M  V30 4341 H 402.705 -1.12777 2.93477 0
M  V30 4342 N 406.477 -1.02803 1.19454 0
M  V30 4343 C 407.726 -1.7562 0.991996 0
M  V30 4344 C 408.039 -1.89672 -0.477901 0
M  V30 4345 O 409.245 -2.59468 -0.799287 0
M  V30 4346 C 407.701 -3.15812 1.72601 0
M  V30 4347 C 407.309 -3.0981 3.23607 0
M  V30 4348 C 409.053 -3.92918 1.60674 0
M  V30 4349 C 406.96 -4.44939 3.89594 0
M  V30 4350 H 405.89 -0.658352 0.367543 0
M  V30 4351 H 408.541 -1.15044 1.42959 0
M  V30 4352 H 406.923 -3.7686 1.21624 0
M  V30 4353 H 408.097 -2.58138 3.81709 0
M  V30 4354 H 406.412 -2.46201 3.35819 0
M  V30 4355 H 409.009 -4.9287 2.07323 0
M  V30 4356 H 409.352 -4.12502 0.561025 0
M  V30 4357 H 409.885 -3.38472 2.09001 0
M  V30 4358 H 406.624 -4.30559 4.94267 0
M  V30 4359 H 406.144 -4.96664 3.36281 0
M  V30 4360 H 407.823 -5.1382 3.93189 0
M  V30 4361 N 407.956 -0.998596 -1.21925 0
M  V30 4362 C 409.204 -0.676325 -1.90448 0
M  V30 4363 C 409.525 0.794719 -1.78071 0
M  V30 4364 O 408.795 1.5701 -1.17152 0
M  V30 4365 H 407.375 -0.247165 -0.704925 0
M  V30 4366 H 410.037 -1.26633 -1.48156 0
M  V30 4367 H 409.133 -0.943858 -2.97486 0
M  V30 4368 N 409.434 1.37368 -0.772513 0
M  V30 4369 C 410.384 2.27613 -0.132823 0
M  V30 4370 C 411.368 1.46138 0.673247 0
M  V30 4371 O 412.56 1.68686 0.536095 0
M  V30 4372 C 409.689 3.35122 0.744864 0
M  V30 4373 C 408.775 4.24044 -0.0690771 0
M  V30 4374 N 409.166 4.93355 -1.1151 0
M  V30 4375 C 407.464 4.45731 0.154782 0
M  V30 4376 C 408.165 5.59 -1.60917 0
M  V30 4377 N 407.141 5.35737 -0.921222 0
M  V30 4378 H 410.943 2.78675 -0.933681 0
M  V30 4379 H 408.457 1.50494 -0.610342 0
M  V30 4380 H 410.454 3.98683 1.21892 0
M  V30 4381 H 409.114 2.85616 1.54446 0
M  V30 4382 H 410.125 4.95785 -1.49726 0
M  V30 4383 H 406.802 4.07096 0.926224 0
M  V30 4384 H 408.192 6.24395 -2.48153 0
M  V30 4385 N 410.912 0.523116 1.48665 0
M  V30 4386 C 412.159 -0.0134763 2.02496 0
M  V30 4387 C 412.487 -1.3493 1.40086 0
M  V30 4388 O 411.742 -1.88286 0.533567 0
M  V30 4389 C 412.041 -0.191671 3.56886 0
M  V30 4390 C 411.707 1.06893 4.38046 0
M  V30 4391 C 410.369 1.41443 4.59943 0
M  V30 4392 C 412.721 1.90584 4.85106 0
M  V30 4393 C 410.049 2.59594 5.26144 0
M  V30 4394 C 412.401 3.07907 5.52609 0
M  V30 4395 C 411.065 3.42811 5.72745 0
M  V30 4396 H 410.335 -0.00493133 0.740984 0
M  V30 4397 H 412.982 0.687751 1.78724 0
M  V30 4398 H 411.287 -0.97561 3.79459 0
M  V30 4399 H 412.984 -0.621659 3.96152 0
M  V30 4400 H 409.574 0.789848 4.21259 0
M  V30 4401 H 413.758 1.65203 4.67997 0
M  V30 4402 H 409.014 2.86847 5.39934 0
M  V30 4403 H 413.188 3.73066 5.88043 0
M  V30 4404 H 410.815 4.34462 6.23816 0
M  V30 4405 N 412.39 -1.55475 0.257931 0
M  V30 4406 C 413.338 -2.23244 -0.653076 0
M  V30 4407 C 414.332 -1.22366 -1.17144 0
M  V30 4408 O 415.538 -1.40347 -1.12706 0
M  V30 4409 H 411.913 -0.716247 -0.229117 0
M  V30 4410 H 413.884 -2.98343 -0.0584788 0
M  V30 4411 C 412.633 -2.95401 -1.83395 0
M  V30 4412 H 411.956 -3.72802 -1.44424 0
M  V30 4413 H 413.396 -3.46165 -2.44838 0
M  V30 4414 C 411.855 -1.99895 -2.71189 0
M  V30 4415 O 412.385 -1.53909 -3.71046 0
M  V30 4416 N 410.591 -1.6676 -2.3799 0
M  V30 4417 H 410.138 -2.04352 -1.56837 0
M  V30 4418 H 410.096 -1.03127 -2.97005 0
M  V30 4419 N 413.868 0.0150385 -1.57593 0
M  V30 4420 C 415.145 0.7392 -1.81094 0
M  V30 4421 C 415.525 1.92817 -0.859344 0
M  V30 4422 O 414.873 2.28301 0.095362 0
M  V30 4423 C 415.083 1.15907 -3.29191 0
M  V30 4424 C 416.431 1.56918 -3.9454 0
M  V30 4425 O 417.455 1.25328 -3.33424 0
M  V30 4426 O 416.314 2.15604 -5.02173 0
M  V30 4427 H 413.408 0.358631 -0.745193 0
M  V30 4428 H 415.954 -0.00926156 -1.69697 0
M  V30 4429 H 414.726 0.310921 -3.90063 0
M  V30 4430 H 414.349 1.96711 -3.45529 0
M  V30 4431 N 415.346 1.54954 0.287554 0
M  V30 4432 C 416.757 1.65732 0.859634 0
M  V30 4433 C 417.108 0.574767 1.87592 0
M  V30 4434 O 416.233 -0.286299 2.14498 0
M  V30 4435 C 416.828 3.00438 1.56597 0
M  V30 4436 C 415.387 3.13292 2.08627 0
M  V30 4437 C 414.534 2.61473 0.923416 0
M  V30 4438 H 417.485 1.5857 0.0642338 0
M  V30 4439 H 417.506 2.92613 2.43224 0
M  V30 4440 H 417.018 3.79207 0.826053 0
M  V30 4441 H 415.119 2.39268 2.85625 0
M  V30 4442 H 415.232 4.19647 2.31157 0
M  V30 4443 H 413.596 2.18264 1.31275 0
M  V30 4444 H 414.379 3.42733 0.197241 0
M  V30 4445 N 416.824 -0.551391 1.4764 0
M  V30 4446 C 418.07 -1.31024 1.54792 0
M  V30 4447 C 418.403 -1.9304 0.211967 0
M  V30 4448 O 417.678 -1.78175 -0.77999 0
M  V30 4449 C 417.961 -2.41593 2.67029 0
M  V30 4450 C 417.814 -1.84408 4.10261 0
M  V30 4451 C 419.133 -3.43488 2.75143 0
M  V30 4452 H 416.252 -0.475031 0.563485 0
M  V30 4453 H 418.894 -0.616454 1.79722 0
M  V30 4454 H 417.044 -3.00772 2.45904 0
M  V30 4455 H 418.716 -1.29445 4.42766 0
M  V30 4456 H 416.959 -1.15051 4.18265 0
M  V30 4457 H 417.63 -2.64367 4.84576 0
M  V30 4458 H 420.106 -2.94236 2.94218 0
M  V30 4459 H 418.982 -4.18274 3.55441 0
M  V30 4460 H 419.243 -4.02703 1.82435 0
M  V30 4461 N 418.302 -1.35869 -0.798587 0
M  V30 4462 C 419.252 -1.25982 -1.90033 0
M  V30 4463 C 420.236 -0.153303 -1.60168 0
M  V30 4464 O 421.428 -0.38527 -1.72756 0
M  V30 4465 C 418.557 -1.04211 -3.27101 0
M  V30 4466 C 417.643 -2.19289 -3.63006 0
M  V30 4467 N 418.034 -3.44559 -3.70287 0
M  V30 4468 C 416.332 -2.10852 -3.93011 0
M  V30 4469 C 417.033 -4.20283 -4.02166 0
M  V30 4470 N 416.009 -3.49124 -4.16669 0
M  V30 4471 H 419.811 -2.20883 -1.93876 0
M  V30 4472 H 417.325 -1.28457 -0.993614 0
M  V30 4473 H 419.322 -0.952155 -4.05881 0
M  V30 4474 H 417.982 -0.102013 -3.2454 0
M  V30 4475 H 418.993 -3.7881 -3.53162 0
M  V30 4476 H 415.67 -1.24744 -3.98428 0
M  V30 4477 H 417.06 -5.28575 -4.14799 0
M  V30 4478 N 419.78 1.02168 -1.19998 0
M  V30 4479 C 421.028 1.75338 -1.00504 0
M  V30 4480 C 421.349 1.89387 0.464506 0
M  V30 4481 O 420.619 1.43268 1.33608 0
M  V30 4482 H 419.199 0.649564 -0.368885 0
M  V30 4483 H 421.861 1.23205 -1.51018 0
M  V30 4484 H 420.957 2.75892 -1.45912 0
M  V30 4485 N 421.258 1.00505 1.21394 0
M  V30 4486 C 422.506 0.686415 1.90086 0
M  V30 4487 C 422.827 -0.785264 1.7849 0
M  V30 4488 O 422.097 -1.56387 1.17983 0
M  V30 4489 H 420.677 0.2509 0.703604 0
M  V30 4490 H 423.339 1.27417 1.47482 0
M  V30 4491 H 422.435 0.959621 2.96981 0
M  V30 4492 N 422.737 -1.36956 0.779787 0
M  V30 4493 C 423.962 -2.04283 0.358224 0
M  V30 4494 C 424.387 -1.58422 -1.01411 0
M  V30 4495 O 423.745 -0.748179 -1.65142 0
M  V30 4496 C 423.793 -3.58152 0.419479 0
M  V30 4497 O 422.897 -4.08342 -0.577142 0
M  V30 4498 H 422.238 -0.645967 0.153698 0
M  V30 4499 H 424.768 -1.75108 1.05822 0
M  V30 4500 H 424.778 -4.07041 0.279636 0
M  V30 4501 H 423.453 -3.90886 1.42061 0
M  V30 4502 H 422.03 -3.70751 -0.399755 0
M  V30 4503 N 424.215 -0.530993 -1.48385 0
M  V30 4504 C 425.461 -0.00538653 -2.03399 0
M  V30 4505 C 425.816 1.31899 -1.40073 0
M  V30 4506 O 425.109 1.83901 -0.537676 0
M  V30 4507 C 425.303 0.172742 -3.56982 0
M  V30 4508 C 425.132 -1.13282 -4.35198 0
M  V30 4509 C 423.902 -1.69296 -4.76096 0
M  V30 4510 C 426.1 -2.04367 -4.71952 0
M  V30 4511 N 424.082 -2.9413 -5.38851 0
M  V30 4512 C 425.453 -3.13777 -5.34737 0
M  V30 4513 C 427.508 -2.04681 -4.53883 0
M  V30 4514 C 426.211 -4.23567 -5.81363 0
M  V30 4515 C 428.237 -3.13466 -5.01491 0
M  V30 4516 C 427.599 -4.21595 -5.64302 0
M  V30 4517 H 423.698 -0.0434945 -0.780789 0
M  V30 4518 H 426.282 -0.712495 -1.81195 0
M  V30 4519 H 424.453 0.848937 -3.79009 0
M  V30 4520 H 426.185 0.698046 -3.98634 0
M  V30 4521 H 422.94 -1.23422 -4.57235 0
M  V30 4522 H 423.364 -3.57689 -5.74794 0
M  V30 4523 H 428.006 -1.22378 -4.04702 0
M  V30 4524 H 425.724 -5.06648 -6.2955 0
M  V30 4525 H 429.31 -3.14765 -4.893 0
M  V30 4526 H 428.19 -5.04384 -6.00472 0
M  V30 4527 N 425.693 1.55336 -0.266172 0
M  V30 4528 C 426.942 1.98574 0.353749 0
M  V30 4529 C 427.255 1.15789 1.57646 0
M  V30 4530 O 428.461 1.49129 2.26876 0
M  V30 4531 C 426.917 3.53403 0.680747 0
M  V30 4532 C 426.525 4.44953 -0.52165 0
M  V30 4533 C 428.269 4.05251 1.26379 0
M  V30 4534 C 426.176 5.91156 -0.169736 0
M  V30 4535 H 425.106 0.741643 0.135949 0
M  V30 4536 H 427.757 1.79743 -0.369421 0
M  V30 4537 H 426.139 3.68001 1.46257 0
M  V30 4538 H 427.313 4.42121 -1.29869 0
M  V30 4539 H 425.628 4.03691 -1.02093 0
M  V30 4540 H 428.225 5.12021 1.54074 0
M  V30 4541 H 428.568 3.53749 2.19471 0
M  V30 4542 H 429.101 3.94057 0.544447 0
M  V30 4543 H 425.84 6.46736 -1.0683 0
M  V30 4544 H 425.36 5.97079 0.570717 0
M  V30 4545 H 427.039 6.4655 0.241245 0
M  V30 4546 N 427.171 -0.0066808 1.57599 0
M  V30 4547 C 428.587 -0.36267 1.55425 0
M  V30 4548 C 428.787 -1.75209 0.995187 0
M  V30 4549 O 427.843 -2.44616 0.626058 0
M  V30 4550 C 429.156 -0.244017 2.99708 0
M  V30 4551 C 430.704 -0.319451 3.11366 0
M  V30 4552 C 431.179 -0.229998 4.57422 0
M  V30 4553 N 432.67 -0.288105 4.62303 0
M  V30 4554 C 433.405 -0.242127 5.72889 0
M  V30 4555 N 432.901 -0.147133 6.92644 0
M  V30 4556 N 434.694 -0.293502 5.61333 0
M  V30 4557 H 426.845 0.902314 1.92281 0
M  V30 4558 H 429.108 0.34525 0.882896 0
M  V30 4559 H 428.814 0.711678 3.44424 0
M  V30 4560 H 428.688 -1.02877 3.629 0
M  V30 4561 H 431.075 -1.26559 2.66584 0
M  V30 4562 H 431.156 0.495055 2.50964 0
M  V30 4563 H 430.8 0.712566 5.02877 0
M  V30 4564 H 430.73 -1.0629 5.15761 0
M  V30 4565 H 433.221 -0.363126 3.76151 0
M  V30 4566 H 433.534 -0.117763 7.7271 0
M  V30 4567 H 431.879 -0.112857 6.94908 0
M  V30 4568 H 435.07 -0.365864 4.66668 0
M  V30 4569 H 435.243 -0.254204 6.47501 0
M  V30 4570 N 428.649 -1.55105 -0.279332 0
M  V30 4571 C 429.897 -1.75066 -1.00977 0
M  V30 4572 C 430.218 -0.551276 -1.87045 0
M  V30 4573 O 429.488 0.433984 -1.91032 0
M  V30 4574 H 428.068 -0.645578 -0.375816 0
M  V30 4575 H 430.73 -1.92497 -0.305089 0
M  V30 4576 H 429.826 -2.64894 -1.65038 0
M  V30 4577 N 430.127 0.543554 -1.4793 0
M  V30 4578 C 431.09 1.63156 -1.60975 0
M  V30 4579 C 432.09 1.53346 -0.483899 0
M  V30 4580 O 433.28 1.5726 -0.749339 0
M  V30 4581 C 430.412 3.02743 -1.56716 0
M  V30 4582 H 431.605 1.52934 -2.57975 0
M  V30 4583 H 429.158 0.764557 -1.36324 0
M  V30 4584 H 429.893 3.18484 -0.611418 0
M  V30 4585 H 429.678 3.11272 -2.38438 0
M  V30 4586 H 431.168 3.81871 -1.6901 0
M  V30 4587 N 431.605 1.3629 0.791371 0
M  V30 4588 C 432.854 1.29742 1.54434 0
M  V30 4589 C 433.167 -0.121729 1.95221 0
M  V30 4590 O 434.373 -0.309579 2.69729 0
M  V30 4591 C 432.829 2.27623 2.78776 0
M  V30 4592 C 432.437 3.74963 2.45166 0
M  V30 4593 C 434.181 2.30047 3.56761 0
M  V30 4594 C 432.088 4.64626 3.65891 0
M  V30 4595 H 431.018 0.482113 0.579727 0
M  V30 4596 H 433.669 1.61642 0.868565 0
M  V30 4597 H 432.051 1.88714 3.48142 0
M  V30 4598 H 433.225 4.22596 1.83709 0
M  V30 4599 H 431.54 3.75295 1.80396 0
M  V30 4600 H 434.137 2.94247 4.46456 0
M  V30 4601 H 434.48 1.30846 3.95203 0
M  V30 4602 H 435.013 2.67563 2.94372 0
M  V30 4603 H 431.752 5.64883 3.32547 0
M  V30 4604 H 431.272 4.2171 4.26521 0
M  V30 4605 H 432.951 4.80801 4.32943 0
M  V30 4606 N 433.083 -1.0153 1.20538 0
M  V30 4607 C 434.313 -1.78487 1.04048 0
M  V30 4608 C 434.721 -1.84631 -0.413292 0
M  V30 4609 O 434.064 -1.29919 -1.29872 0
M  V30 4610 C 434.126 -3.24367 1.55003 0
M  V30 4611 C 433.79 -3.41827 3.0332 0
M  V30 4612 C 434.787 -3.30941 4.00966 0
M  V30 4613 C 432.472 -3.67602 3.42307 0
M  V30 4614 C 434.466 -3.45577 5.35589 0
M  V30 4615 C 432.153 -3.81881 4.77085 0
M  V30 4616 C 433.151 -3.70874 5.73534 0
M  V30 4617 O 432.839 -3.84714 7.05868 0
M  V30 4618 H 432.571 -0.568108 0.366373 0
M  V30 4619 H 435.125 -1.28677 1.60098 0
M  V30 4620 H 433.355 -3.75266 0.933397 0
M  V30 4621 H 435.044 -3.82963 1.34514 0
M  V30 4622 H 435.81 -3.10964 3.72191 0
M  V30 4623 H 431.689 -3.75256 2.67776 0
M  V30 4624 H 435.233 -3.36902 6.10854 0
M  V30 4625 H 431.13 -4.01359 5.0555 0
M  V30 4626 H 431.898 -4.01724 7.13134 0
M  V30 4627 N 434.561 -1.01147 -1.20859 0
M  V30 4628 C 435.791 -0.715872 -1.93801 0
M  V30 4629 C 436.199 0.726592 -1.74692 0
M  V30 4630 O 435.542 1.50397 -1.05482 0
M  V30 4631 C 435.604 -0.965269 -3.46299 0
M  V30 4632 C 435.268 -2.39584 -3.89164 0
M  V30 4633 C 436.265 -3.3764 -3.95342 0
M  V30 4634 C 433.95 -2.73522 -4.21297 0
M  V30 4635 C 435.944 -4.67698 -4.33056 0
M  V30 4636 C 433.631 -4.03794 -4.58687 0
M  V30 4637 C 434.629 -5.00693 -4.64538 0
M  V30 4638 O 434.317 -6.28635 -5.01072 0
M  V30 4639 H 434.049 -0.262524 -0.622942 0
M  V30 4640 H 436.603 -1.35413 -1.54443 0
M  V30 4641 H 434.833 -0.269847 -3.85757 0
M  V30 4642 H 436.522 -0.662051 -4.00464 0
M  V30 4643 H 437.288 -3.12757 -3.70686 0
M  V30 4644 H 433.167 -1.9879 -4.15937 0
M  V30 4645 H 436.711 -5.4333 -4.37537 0
M  V30 4646 H 432.608 -4.28459 -4.82797 0
M  V30 4647 H 433.376 -6.32847 -5.19083 0
M  V30 4648 N 436.039 1.36541 -0.78704 0
M  V30 4649 C 437.286 1.99304 -0.358341 0
M  V30 4650 C 437.614 1.62467 1.06933 0
M  V30 4651 O 436.869 0.870019 1.75297 0
M  V30 4652 C 437.168 3.54343 -0.466485 0
M  V30 4653 C 436.834 4.10993 -1.85461 0
M  V30 4654 C 435.496 4.26177 -2.23443 0
M  V30 4655 C 437.848 4.41895 -2.76366 0
M  V30 4656 C 435.176 4.69573 -3.51736 0
M  V30 4657 C 437.528 4.86722 -4.04084 0
M  V30 4658 C 436.192 5.00112 -4.42091 0
M  V30 4659 H 435.462 0.729306 -0.131126 0
M  V30 4660 H 438.109 1.63068 -1.00404 0
M  V30 4661 H 436.414 3.90918 0.262719 0
M  V30 4662 H 438.111 4.00833 -0.115854 0
M  V30 4663 H 434.701 3.99612 -1.54946 0
M  V30 4664 H 438.885 4.29735 -2.48277 0
M  V30 4665 H 434.141 4.78127 -3.81057 0
M  V30 4666 H 438.315 5.09598 -4.7464 0
M  V30 4667 H 435.942 5.33498 -5.41557 0
M  V30 4668 N 437.518 0.538854 1.48102 0
M  V30 4669 C 438.465 -0.219042 2.29758 0
M  V30 4670 C 439.435 -0.925562 1.37922 0
M  V30 4671 O 440.62 -0.924855 1.66886 0
M  V30 4672 C 437.76 -1.25452 3.2149 0
M  V30 4673 C 436.873 -0.555943 4.28408 0
M  V30 4674 C 436.008 -1.57512 5.0731 0
M  V30 4675 C 435.047 -0.860498 6.06021 0
M  V30 4676 N 434.184 -1.82564 6.77949 0
M  V30 4677 H 439.024 0.483449 2.94052 0
M  V30 4678 H 436.561 0.250247 1.44956 0
M  V30 4679 H 438.519 -1.86727 3.7308 0
M  V30 4680 H 437.149 -1.92528 2.591 0
M  V30 4681 H 436.201 0.170938 3.80016 0
M  V30 4682 H 437.513 0.00474616 4.988 0
M  V30 4683 H 436.667 -2.26191 5.62959 0
M  V30 4684 H 435.406 -2.16972 4.36778 0
M  V30 4685 H 434.411 -0.159686 5.49568 0
M  V30 4686 H 435.636 -0.271897 6.78555 0
M  V30 4687 H 433.582 -2.40915 6.10161 0
M  V30 4688 H 433.499 -1.31662 7.44447 0
M  V30 4689 H 434.767 -2.50414 7.38182 0
M  V30 4690 N 438.996 -1.55193 0.274407 0
M  V30 4691 C 440.245 -1.98758 -0.343213 0
M  V30 4692 C 440.558 -1.16624 -1.5703 0
M  V30 4693 O 441.764 -1.5033 -2.26082 0
M  V30 4694 C 440.22 -3.53759 -0.661996 0
M  V30 4695 C 439.828 -4.4467 0.54524 0
M  V30 4696 C 441.572 -4.05916 -1.24228 0
M  V30 4697 C 439.479 -5.91058 0.201084 0
M  V30 4698 H 438.409 -0.742353 -0.132014 0
M  V30 4699 H 441.06 -1.79545 0.378948 0
M  V30 4700 H 439.442 -3.68772 -1.44304 0
M  V30 4701 H 440.616 -4.41426 1.32212 0
M  V30 4702 H 438.931 -4.03143 1.04232 0
M  V30 4703 H 441.528 -5.12831 -1.51357 0
M  V30 4704 H 441.871 -3.54908 -2.17592 0
M  V30 4705 H 442.404 -3.9434 -0.523542 0
M  V30 4706 H 439.143 -6.46161 1.10258 0
M  V30 4707 H 438.663 -5.97373 -0.539045 0
M  V30 4708 H 440.342 -6.46669 -0.206954 0
M  V30 4709 N 440.474 -0.00167713 -1.576 0
M  V30 4710 C 441.437 0.974046 -2.07473 0
M  V30 4711 C 442.437 1.27143 -0.984444 0
M  V30 4712 O 443.627 1.21633 -1.24703 0
M  V30 4713 C 440.759 2.29849 -2.51759 0
M  V30 4714 H 441.952 0.54262 -2.9495 0
M  V30 4715 H 439.505 0.245829 -1.54355 0
M  V30 4716 H 440.24 2.77677 -1.67529 0
M  V30 4717 H 440.025 2.09584 -3.31386 0
M  V30 4718 H 441.515 2.9984 -2.90664 0
M  V30 4719 N 441.952 1.55251 0.271103 0
M  V30 4720 C 443.198 1.76207 1.00394 0
M  V30 4721 C 443.531 0.562604 1.85872 0
M  V30 4722 O 442.806 -0.439785 1.89463 0
M  V30 4723 C 443.089 3.06828 1.8849 0
M  V30 4724 C 442.942 4.37134 1.05992 0
M  V30 4725 C 444.261 3.33503 2.87165 0
M  V30 4726 H 441.38 0.641086 0.363562 0
M  V30 4727 H 444.022 1.87982 0.276189 0
M  V30 4728 H 442.172 2.96921 2.5054 0
M  V30 4729 H 443.844 4.59001 0.459978 0
M  V30 4730 H 442.087 4.32275 0.363443 0
M  V30 4731 H 442.758 5.2486 1.70955 0
M  V30 4732 H 445.234 3.43215 2.3525 0
M  V30 4733 H 444.11 4.2616 3.45946 0
M  V30 4734 H 444.371 2.53235 3.62387 0
M  V30 4735 N 443.43 -0.535701 1.48216 0
M  V30 4736 C 444.393 -1.623 1.61838 0
M  V30 4737 C 445.393 -1.53087 0.492024 0
M  V30 4738 O 446.583 -1.5686 0.757668 0
M  V30 4739 C 443.715 -3.01907 1.58319 0
M  V30 4740 H 444.908 -1.51564 2.58783 0
M  V30 4741 H 442.461 -0.757317 1.36727 0
M  V30 4742 H 443.196 -3.18155 0.628299 0
M  V30 4743 H 442.981 -3.10003 2.40085 0
M  V30 4744 H 444.471 -3.80969 1.71033 0
M  V30 4745 N 444.908 -1.36708 -0.784132 0
M  V30 4746 C 445.838 -1.34153 -1.91116 0
M  V30 4747 C 446.819 -0.212121 -1.68772 0
M  V30 4748 O 448.004 -0.410581 -1.8981 0
M  V30 4749 C 445.134 -1.13535 -3.28218 0
M  V30 4750 C 444.088 -2.23356 -3.65097 0
M  V30 4751 C 443.414 -1.87875 -5.00607 0
M  V30 4752 C 444.714 -3.65473 -3.73131 0
M  V30 4753 H 446.408 -2.28459 -1.93512 0
M  V30 4754 H 443.954 -1.09973 -0.929618 0
M  V30 4755 H 445.907 -1.10381 -4.06687 0
M  V30 4756 H 444.631 -0.156804 -3.26223 0
M  V30 4757 H 443.29 -2.25645 -2.88929 0
M  V30 4758 H 442.938 -0.885814 -4.95139 0
M  V30 4759 H 442.638 -2.61406 -5.26252 0
M  V30 4760 H 444.162 -1.86286 -5.81489 0
M  V30 4761 H 445.576 -3.65382 -4.41779 0
M  V30 4762 H 443.973 -4.37953 -4.10265 0
M  V30 4763 H 445.043 -3.99995 -2.74102 0
M  V30 4764 N 446.386 1.0089 -1.21074 0
M  V30 4765 C 447.349 2.0775 -0.968129 0
M  V30 4766 C 448.349 1.6069 0.0593445 0
M  V30 4767 O 449.539 1.73293 -0.177525 0
M  V30 4768 C 446.671 3.37794 -0.459108 0
M  V30 4769 H 447.864 2.30707 -1.9161 0
M  V30 4770 H 445.417 1.17807 -1.02719 0
M  V30 4771 H 446.152 3.20516 0.49397 0
M  V30 4772 H 445.937 3.7328 -1.20019 0
M  V30 4773 H 447.427 4.16454 -0.309099 0
M  V30 4774 N 447.864 1.01787 1.20321 0
M  V30 4775 C 449.11 0.708985 1.90003 0
M  V30 4776 C 449.443 -0.759572 1.78729 0
M  V30 4777 O 448.718 -1.55198 1.17234 0
M  V30 4778 C 449.001 1.1469 3.41348 0
M  V30 4779 C 448.854 2.67586 3.61549 0
M  V30 4780 C 450.173 0.71915 4.34185 0
M  V30 4781 H 447.292 0.259034 0.689978 0
M  V30 4782 H 449.934 1.26584 1.41692 0
M  V30 4783 H 448.084 0.673128 3.82624 0
M  V30 4784 H 449.756 3.22826 3.29517 0
M  V30 4785 H 447.999 3.085 3.04976 0
M  V30 4786 H 448.67 2.93281 4.67643 0
M  V30 4787 H 451.146 1.12647 4.00562 0
M  V30 4788 H 450.022 1.05358 5.38694 0
M  V30 4789 H 450.283 -0.379111 4.40472 0
M  V30 4790 N 449.342 -1.36122 0.79427 0
M  V30 4791 C 450.305 -2.28309 0.201889 0
M  V30 4792 C 451.305 -1.49041 -0.603603 0
M  V30 4793 O 452.495 -1.68964 -0.423888 0
M  V30 4794 C 449.627 -3.3321 -0.719978 0
M  V30 4795 H 450.82 -2.82208 1.01481 0
M  V30 4796 H 448.373 -1.45768 0.564037 0
M  V30 4797 H 449.108 -2.84475 -1.55706 0
M  V30 4798 H 448.893 -3.91835 -0.144266 0
M  V30 4799 H 450.383 -4.02044 -1.12916 0
M  V30 4800 N 450.82 -0.546701 -1.47814 0
M  V30 4801 C 451.783 0.196287 -2.28358 0
M  V30 4802 C 452.783 0.852437 -1.36346 0
M  V30 4803 O 453.973 0.709913 -1.59078 0
M  V30 4804 C 451.105 1.28579 -3.15722 0
M  V30 4805 H 452.298 -0.511086 -2.95513 0
M  V30 4806 H 449.851 -0.303248 -1.5333 0
M  V30 4807 H 450.586 2.0259 -2.53235 0
M  V30 4808 H 450.371 0.820229 -3.83425 0
M  V30 4809 H 451.861 1.80793 -3.76435 0
M  V30 4810 N 452.299 1.55045 -0.282633 0
M  V30 4811 C 453.548 1.98938 0.332667 0
M  V30 4812 C 453.861 1.17455 1.56409 0
M  V30 4813 O 455.067 1.51527 2.25282 0
M  V30 4814 C 453.523 3.54105 0.643226 0
M  V30 4815 C 453.131 4.44374 -0.568814 0
M  V30 4816 C 454.875 4.06569 1.22074 0
M  V30 4817 C 452.782 5.90943 -0.232426 0
M  V30 4818 H 451.712 0.743043 0.128075 0
M  V30 4819 H 454.363 1.79341 -0.388464 0
M  V30 4820 H 452.745 3.69532 1.42346 0
M  V30 4821 H 453.919 4.40718 -1.34551 0
M  V30 4822 H 452.234 4.02585 -1.06369 0
M  V30 4823 H 454.831 5.13626 1.48635 0
M  V30 4824 H 455.174 3.56057 2.15707 0
M  V30 4825 H 455.707 3.94612 0.502621 0
M  V30 4826 H 452.446 6.45567 -1.13683 0
M  V30 4827 H 451.966 5.9765 0.507357 0
M  V30 4828 H 453.645 6.4677 0.172657 0
M  V30 4829 N 453.777 0.010035 1.57597 0
M  V30 4830 C 455.188 -0.531426 1.78977 0
M  V30 4831 C 455.539 -1.73375 0.918454 0
M  V30 4832 O 454.664 -2.16047 0.123635 0
M  V30 4833 C 455.259 -0.97086 3.24592 0
M  V30 4834 C 453.818 -1.45756 3.47033 0
M  V30 4835 C 452.965 -0.413384 2.74201 0
M  V30 4836 H 455.916 0.236166 1.56933 0
M  V30 4837 H 455.937 -1.83633 3.33255 0
M  V30 4838 H 455.449 -0.0955893 3.87982 0
M  V30 4839 H 453.55 -2.35339 2.88871 0
M  V30 4840 H 453.663 -1.4781 4.55729 0
M  V30 4841 H 452.027 -0.877266 2.39115 0
M  V30 4842 H 452.81 0.453092 3.40297 0
M  V30 4843 N 455.255 -1.55392 -0.262866 0
M  V30 4844 C 456.165 -1.92077 -1.34698 0
M  V30 4845 C 457.181 -0.819227 -1.53508 0
M  V30 4846 O 458.357 -1.11921 -1.67439 0
M  V30 4847 C 455.422 -2.19407 -2.68443 0
M  V30 4848 C 454.483 -3.42905 -2.58292 0
M  V30 4849 C 453.716 -3.68921 -3.85659 0
M  V30 4850 O 453.939 -2.97275 -4.8681 0
M  V30 4851 O 452.873 -4.62455 -3.85252 0
M  V30 4852 H 456.699 -2.84384 -1.06581 0
M  V30 4853 H 454.284 -1.42069 -0.462264 0
M  V30 4854 H 456.166 -2.38365 -3.47506 0
M  V30 4855 H 454.841 -1.30282 -2.96325 0
M  V30 4856 H 453.748 -3.29272 -1.7757 0
M  V30 4857 H 455.081 -4.32282 -2.35358 0
M  V30 4858 N 456.733 0.527833 -1.48498 0
M  V30 4859 C 457.981 1.28101 -1.56316 0
M  V30 4860 C 458.302 1.9352 -0.239781 0
M  V30 4861 O 457.572 1.81433 0.738849 0
M  V30 4862 H 456.152 0.475793 -0.575873 0
M  V30 4863 H 458.814 0.614052 -1.84974 0
M  V30 4864 H 457.91 2.05916 -2.34532 0
M  V30 4865 N 458.211 1.37122 0.776871 0
M  V30 4866 C 459.141 1.35164 1.90402 0
M  V30 4867 C 460.122 0.221069 1.68657 0
M  V30 4868 O 461.307 0.420642 1.8959 0
M  V30 4869 C 458.437 1.15274 3.27611 0
M  V30 4870 C 457.391 2.25289 3.63908 0
M  V30 4871 C 456.717 1.90527 4.99603 0
M  V30 4872 C 458.017 3.67446 3.71188 0
M  V30 4873 H 459.711 2.29482 1.92297 0
M  V30 4874 H 457.257 1.10465 0.923773 0
M  V30 4875 H 459.21 1.12536 4.06096 0
M  V30 4876 H 457.934 0.174102 3.26136 0
M  V30 4877 H 456.593 2.27174 2.87728 0
M  V30 4878 H 456.241 0.91206 4.94662 0
M  V30 4879 H 455.941 2.64193 5.24858 0
M  V30 4880 H 457.465 1.89367 5.80493 0
M  V30 4881 H 458.879 3.67719 4.39836 0
M  V30 4882 H 457.276 4.40123 4.07936 0
M  V30 4883 H 458.346 4.01443 2.71977 0
M  V30 4884 N 459.689 -1.00246 1.21608 0
M  V30 4885 C 461.1 -1.55511 1.03312 0
M  V30 4886 C 461.451 -1.91946 -0.406332 0
M  V30 4887 O 460.576 -1.73753 -1.28992 0
M  V30 4888 C 461.171 -2.82576 1.86913 0
M  V30 4889 C 459.73 -3.34318 1.72941 0
M  V30 4890 C 458.877 -2.07487 1.83968 0
M  V30 4891 H 461.828 -0.824638 1.35593 0
M  V30 4892 H 461.849 -3.54559 1.38087 0
M  V30 4893 H 461.361 -2.56026 2.91672 0
M  V30 4894 H 459.462 -3.65797 0.70877 0
M  V30 4895 H 459.575 -4.05566 2.55055 0
M  V30 4896 H 457.939 -2.20603 1.27304 0
M  V30 4897 H 458.722 -1.83346 2.9024 0
M  V30 4898 N 461.167 -1.02423 -1.1978 0
M  V30 4899 C 462.13 -0.605703 -2.21052 0
M  V30 4900 C 463.13 0.328209 -1.57415 0
M  V30 4901 O 464.32 0.115853 -1.73814 0
M  V30 4902 C 461.452 0.114366 -3.40708 0
M  V30 4903 H 462.645 -1.5017 -2.59594 0
M  V30 4904 H 460.198 -0.814888 -1.33376 0
M  V30 4905 H 460.933 1.02492 -3.07678 0
M  V30 4906 H 460.718 -0.556641 -3.88129 0
M  V30 4907 H 462.208 0.394272 -4.15735 0
M  V30 4908 N 462.645 1.35699 -0.801477 0
M  V30 4909 C 463.891 1.99208 -0.380022 0
M  V30 4910 C 464.224 1.63445 1.04878 0
M  V30 4911 O 463.499 0.895223 1.72673 0
M  V30 4912 C 463.782 3.55755 -0.557708 0
M  V30 4913 C 463.635 4.01332 -2.03107 0
M  V30 4914 C 464.954 4.40096 0.0197968 0
M  V30 4915 H 462.073 0.723667 -0.139552 0
M  V30 4916 H 464.715 1.60928 -1.01006 0
M  V30 4917 H 462.865 3.88494 -0.0213741 0
M  V30 4918 H 464.537 3.79026 -2.62939 0
M  V30 4919 H 462.78 3.52429 -2.52936 0
M  V30 4920 H 463.451 5.10234 -2.1063 0
M  V30 4921 H 465.927 4.13786 -0.438179 0
M  V30 4922 H 464.803 5.48735 -0.134477 0
M  V30 4923 H 465.064 4.2786 1.11303 0
M  V30 4924 N 464.123 0.554532 1.47522 0
M  V30 4925 C 465.372 0.0273458 2.01681 0
M  V30 4926 C 465.685 -1.32962 1.43459 0
M  V30 4927 O 466.891 -1.94657 1.89265 0
M  V30 4928 C 465.347 -0.00159057 3.599 0
M  V30 4929 C 464.955 1.35197 4.27113 0
M  V30 4930 C 466.699 -0.476311 4.21819 0
M  V30 4931 C 464.606 1.28229 5.77331 0
M  V30 4932 H 463.536 0.00645269 0.753972 0
M  V30 4933 H 466.187 0.701985 1.69542 0
M  V30 4934 H 464.569 -0.741821 3.8899 0
M  V30 4935 H 465.743 2.1097 4.09668 0
M  V30 4936 H 464.058 1.76441 3.77171 0
M  V30 4937 H 466.655 -0.5468 5.31897 0
M  V30 4938 H 466.998 -1.4877 3.8881 0
M  V30 4939 H 467.531 0.20898 3.97251 0
M  V30 4940 H 464.27 2.26959 6.14955 0
M  V30 4941 H 463.79 0.566314 5.97121 0
M  V30 4942 H 465.469 0.983226 6.39485 0
M  V30 4943 N 465.601 -1.54893 0.290851 0
M  V30 4944 C 466.829 -2.04343 -0.324288 0
M  V30 4945 C 467.244 -1.16859 -1.48289 0
M  V30 4946 O 466.601 -0.192018 -1.81487 0
M  V30 4947 C 466.652 -3.52756 -0.79026 0
M  V30 4948 O 466.373 -4.36913 0.322213 0
M  V30 4949 C 467.874 -4.18161 -1.4716 0
M  V30 4950 H 465.094 -0.667135 -0.0719173 0
M  V30 4951 H 467.638 -1.99981 0.427529 0
M  V30 4952 H 465.793 -3.57511 -1.49213 0
M  V30 4953 H 466.207 -5.24486 -0.0387372 0
M  V30 4954 H 467.681 -5.23562 -1.7489 0
M  V30 4955 H 468.158 -3.67282 -2.40834 0
M  V30 4956 H 468.764 -4.17454 -0.813178 0
M  V30 4957 N 467.08 -0.0183926 -1.57589 0
M  V30 4958 C 468.308 0.673046 -1.95647 0
M  V30 4959 C 468.723 1.66275 -0.894312 0
M  V30 4960 O 468.08 1.82072 0.124975 0
M  V30 4961 C 468.131 1.38884 -3.33756 0
M  V30 4962 O 467.852 0.438806 -4.35897 0
M  V30 4963 C 469.353 2.1731 -3.86383 0
M  V30 4964 H 466.573 0.186292 -0.644621 0
M  V30 4965 H 469.117 -0.0749748 -2.04363 0
M  V30 4966 H 467.272 2.08835 -3.26293 0
M  V30 4967 H 467.686 0.945869 -5.15901 0
M  V30 4968 H 469.16 2.62863 -4.85394 0
M  V30 4969 H 469.637 3.00764 -3.20059 0
M  V30 4970 H 470.243 1.52339 -3.97081 0
M  V30 4971 N 468.558 1.5553 0.254621 0
M  V30 4972 C 469.798 1.7876 0.991179 0
M  V30 4973 C 470.162 0.586669 1.82817 0
M  V30 4974 O 471.363 0.697585 2.5959 0
M  V30 4975 C 469.634 3.06679 1.83529 0
M  V30 4976 S 471.193 3.511 2.632 0
M  V30 4977 H 468.011 0.627916 0.333531 0
M  V30 4978 H 470.613 1.93766 0.259778 0
M  V30 4979 H 469.317 3.92158 1.20996 0
M  V30 4980 H 468.848 2.94388 2.60958 0
M  V30 4981 H 470.863 3.11823 3.8598 0
M  V30 4982 N 470.036 -0.519951 1.48776 0
M  V30 4983 C 470.966 -1.63253 1.66945 0
M  V30 4984 C 471.947 -1.62014 0.518224 0
M  V30 4985 O 473.132 -1.79053 0.751919 0
M  V30 4986 C 470.262 -3.0181 1.71836 0
M  V30 4987 C 469.216 -3.17911 2.8656 0
M  V30 4988 C 468.542 -4.5763 2.76548 0
M  V30 4989 C 469.842 -2.99729 4.27738 0
M  V30 4990 H 471.536 -1.48302 2.6009 0
M  V30 4991 H 469.082 -0.712026 1.25165 0
M  V30 4992 H 471.035 -3.79525 1.83135 0
M  V30 4993 H 469.759 -3.17806 0.752775 0
M  V30 4994 H 468.418 -2.42616 2.74833 0
M  V30 4995 H 468.066 -4.70476 1.77937 0
M  V30 4996 H 467.766 -4.69346 3.53536 0
M  V30 4997 H 469.29 -5.37431 2.89828 0
M  V30 4998 H 470.704 -3.67228 4.40246 0
M  V30 4999 H 469.101 -3.22932 5.05801 0
M  V30 5000 H 470.171 -1.96047 4.43502 0
M  V30 5001 N 471.514 -1.37532 -0.769588 0
M  V30 5002 C 472.477 -1.33292 -1.86456 0
M  V30 5003 C 473.477 -0.236537 -1.59051 0
M  V30 5004 O 474.667 -0.492511 -1.67093 0
M  V30 5005 C 471.799 -1.07118 -3.23633 0
M  V30 5006 H 472.992 -2.30692 -1.91628 0
M  V30 5007 H 470.545 -1.22593 -0.969572 0
M  V30 5008 H 471.28 -0.102578 -3.24138 0
M  V30 5009 H 471.065 -1.86479 -3.44917 0
M  V30 5010 H 472.555 -1.06806 -4.03711 0
M  V30 5011 N 472.992 0.995999 -1.22138 0
M  V30 5012 C 473.922 2.10387 -1.01289 0
M  V30 5013 C 474.903 1.69975 0.0651454 0
M  V30 5014 O 476.088 1.9396 -0.0964628 0
M  V30 5015 C 473.218 3.42312 -0.586517 0
M  V30 5016 C 472.172 3.96558 -1.61014 0
M  V30 5017 C 471.498 5.24494 -1.0397 0
M  V30 5018 C 472.798 4.27595 -2.99933 0
M  V30 5019 H 474.492 2.28086 -1.93951 0
M  V30 5020 H 472.038 1.09607 -0.933928 0
M  V30 5021 H 473.991 4.19223 -0.427793 0
M  V30 5022 H 472.715 3.24431 0.375761 0
M  V30 5023 H 471.374 3.21776 -1.75658 0
M  V30 5024 H 471.022 5.02953 -0.0688703 0
M  V30 5025 H 470.722 5.61755 -1.72352 0
M  V30 5026 H 472.246 6.04042 -0.892494 0
M  V30 5027 H 473.66 4.95315 -2.8868 0
M  V30 5028 H 472.057 4.76021 -3.6541 0
M  V30 5029 H 473.127 3.35498 -3.50099 0
M  V30 5030 N 474.47 1.03057 1.19235 0
M  V30 5031 C 475.718 0.726581 1.88587 0
M  V30 5032 C 476.039 -0.747227 1.80115 0
M  V30 5033 O 475.309 -1.53849 1.21274 0
M  V30 5034 H 473.889 0.265768 0.698124 0
M  V30 5035 H 476.551 1.30516 1.44746 0
M  V30 5036 H 475.647 1.0224 2.94879 0
M  V30 5037 N 475.948 -1.35272 0.808662 0
M  V30 5038 C 477.176 -2.02946 0.402537 0
M  V30 5039 C 477.591 -1.60937 -0.987147 0
M  V30 5040 O 476.948 -0.807917 -1.63643 0
M  V30 5041 C 476.999 -3.58317 0.47868 0
M  V30 5042 O 476.72 -3.98799 1.81358 0
M  V30 5043 C 478.221 -4.43251 0.0656281 0
M  V30 5044 H 475.441 -0.650831 0.163279 0
M  V30 5045 H 477.985 -1.72849 1.09286 0
M  V30 5046 H 476.14 -3.87055 -0.163415 0
M  V30 5047 H 476.554 -4.93451 1.77781 0
M  V30 5048 H 478.028 -5.51738 0.170017 0
M  V30 5049 H 478.505 -4.27913 -0.989278 0
M  V30 5050 H 479.111 -4.19813 0.68096 0
M  V30 5051 N 477.426 -0.562348 -1.47226 0
M  V30 5052 C 478.842 -0.222492 -1.58042 0
M  V30 5053 C 479.042 1.27505 -1.56028 0
M  V30 5054 O 478.098 2.05555 -1.46641 0
M  V30 5055 C 479.411 -0.853694 -2.88327 0
M  V30 5056 C 480.959 -0.825397 -3.01921 0
M  V30 5057 C 481.434 -1.43576 -4.34914 0
M  V30 5058 N 482.925 -1.39918 -4.41562 0
M  V30 5059 C 483.66 -1.84103 -5.43041 0
M  V30 5060 N 483.156 -2.36167 -6.51304 0
M  V30 5061 N 484.949 -1.75142 -5.34118 0
M  V30 5062 H 477.1 -1.53525 -1.46778 0
M  V30 5063 H 479.363 -0.640527 -0.698877 0
M  V30 5064 H 479.069 -1.90635 -2.95552 0
M  V30 5065 H 478.943 -0.34977 -3.75575 0
M  V30 5066 H 481.33 0.218583 -2.94289 0
M  V30 5067 H 481.411 -1.36713 -2.16202 0
M  V30 5068 H 481.055 -2.47884 -4.43301 0
M  V30 5069 H 480.985 -0.869427 -5.19373 0
M  V30 5070 H 483.476 -1.0184 -3.63919 0
M  V30 5071 H 483.789 -2.67793 -7.24919 0
M  V30 5072 H 482.134 -2.40181 -6.52179 0
M  V30 5073 H 485.325 -1.34241 -4.48439 0
M  V30 5074 H 485.498 -2.09895 -6.13065 0
M  V30 5075 N 478.904 1.54736 -0.299062 0
M  V30 5076 C 480.32 1.59507 0.0543849 0
M  V30 5077 C 480.52 1.31606 1.52585 0
M  V30 5078 O 479.576 1.08853 2.27832 0
M  V30 5079 C 480.889 2.98751 -0.34181 0
M  V30 5080 C 482.437 3.1165 -0.290414 0
M  V30 5081 C 482.912 4.53199 -0.661402 0
M  V30 5082 N 484.403 4.59114 -0.613863 0
M  V30 5083 C 485.138 5.66709 -0.873417 0
M  V30 5084 N 484.634 6.82349 -1.19884 0
M  V30 5085 N 486.427 5.56369 -0.800608 0
M  V30 5086 H 478.578 1.71133 -1.25806 0
M  V30 5087 H 480.841 0.799186 -0.509908 0
M  V30 5088 H 480.547 3.24085 -1.36608 0
M  V30 5089 H 480.421 3.75961 0.305508 0
M  V30 5090 H 482.808 2.86066 0.724605 0
M  V30 5091 H 482.889 2.366 -0.972327 0
M  V30 5092 H 482.533 4.79513 -1.67422 0
M  V30 5093 H 482.463 5.26583 0.0425612 0
M  V30 5094 H 484.954 3.76053 -0.3732 0
M  V30 5095 H 485.267 7.60326 -1.38291 0
M  V30 5096 H 483.612 6.83906 -1.23685 0
M  V30 5097 H 486.803 4.64904 -0.546045 0
M  V30 5098 H 486.976 6.40139 -1.00626 0
M  V30 5099 N 480.382 0.0267497 1.57577 0
M  V30 5100 C 481.315 -0.99059 2.05579 0
M  V30 5101 C 482.293 -1.31884 0.951065 0
M  V30 5102 O 483.477 -1.43592 1.22121 0
M  V30 5103 C 480.604 -2.31125 2.47586 0
M  V30 5104 C 479.65 -2.13777 3.69055 0
M  V30 5105 S 480.483 -1.4388 5.15809 0
M  V30 5106 C 481.639 -2.77321 5.6111 0
M  V30 5107 H 481.872 -0.581976 2.91548 0
M  V30 5108 H 479.405 -0.184876 1.53289 0
M  V30 5109 H 481.363 -3.07049 2.72454 0
M  V30 5110 H 480.024 -2.6912 1.61967 0
M  V30 5111 H 479.217 -3.11405 3.96287 0
M  V30 5112 H 478.819 -1.45996 3.44327 0
M  V30 5113 H 481.111 -3.73565 5.65204 0
M  V30 5114 H 482.054 -2.54756 6.60685 0
M  V30 5115 H 482.462 -2.82459 4.88751 0
M  V30 5116 N 481.861 -1.55662 -0.24637 0
M  V30 5117 C 482.824 -1.89558 -1.28842 0
M  V30 5118 C 483.824 -0.772082 -1.41052 0
M  V30 5119 O 485.014 -1.04007 -1.39743 0
M  V30 5120 C 482.146 -2.12449 -2.66605 0
M  V30 5121 H 483.339 -2.82735 -1.00004 0
M  V30 5122 H 480.892 -1.48562 -0.485684 0
M  V30 5123 H 481.627 -1.21742 -3.00582 0
M  V30 5124 H 481.412 -2.94273 -2.59125 0
M  V30 5125 H 482.902 -2.39854 -3.41847 0
M  V30 5126 N 483.339 0.512053 -1.4905 0
M  V30 5127 C 484.286 1.6148 -1.64902 0
M  V30 5128 C 485.256 1.58687 -0.490673 0
M  V30 5129 O 486.441 1.76842 -0.71636 0
M  V30 5130 C 483.581 2.99676 -1.71139 0
M  V30 5131 C 482.694 3.12568 -2.98203 0
M  V30 5132 C 481.829 4.4143 -2.95487 0
M  V30 5133 C 480.868 4.47916 -4.17179 0
M  V30 5134 N 480.005 5.68191 -4.12437 0
M  V30 5135 H 484.845 1.47271 -2.59066 0
M  V30 5136 H 482.382 0.716713 -1.28459 0
M  V30 5137 H 484.34 3.79761 -1.72736 0
M  V30 5138 H 482.97 3.12614 -0.804508 0
M  V30 5139 H 482.022 2.25618 -3.06269 0
M  V30 5140 H 483.334 3.1322 -3.88194 0
M  V30 5141 H 482.488 5.29825 -2.95585 0
M  V30 5142 H 481.227 4.43326 -2.03256 0
M  V30 5143 H 480.232 3.57925 -4.17337 0
M  V30 5144 H 481.457 4.47744 -5.1059 0
M  V30 5145 H 479.403 5.7095 -3.23036 0
M  V30 5146 H 479.32 5.70413 -4.96151 0
M  V30 5147 H 480.588 6.58823 -4.16621 0
M  V30 5148 N 484.817 1.37938 0.762283 0
M  V30 5149 C 485.764 1.34467 1.87583 0
M  V30 5150 C 486.734 0.208633 1.64785 0
M  V30 5151 O 487.919 0.399494 1.86571 0
M  V30 5152 C 485.059 1.16692 3.24772 0
M  V30 5153 C 484.172 2.39608 3.59461 0
M  V30 5154 C 483.307 2.14631 4.85908 0
M  V30 5155 C 482.346 3.33364 5.13357 0
M  V30 5156 N 481.483 3.07877 6.30996 0
M  V30 5157 H 486.323 2.29669 1.89885 0
M  V30 5158 H 483.86 1.14116 0.928219 0
M  V30 5159 H 485.818 1.04405 4.03925 0
M  V30 5160 H 484.448 0.251333 3.2182 0
M  V30 5161 H 483.5 2.626 2.75219 0
M  V30 5162 H 484.812 3.28128 3.75678 0
M  V30 5163 H 483.966 1.99429 5.72986 0
M  V30 5164 H 482.705 1.23463 4.71814 0
M  V30 5165 H 481.71 3.49094 4.24751 0
M  V30 5166 H 482.935 4.25395 5.29354 0
M  V30 5167 H 480.881 2.19348 6.18241 0
M  V30 5168 H 480.798 3.89944 6.47673 0
M  V30 5169 H 482.066 2.96313 7.20985 0
M  V30 5170 N 486.295 -0.989507 1.22664 0
M  V30 5171 C 487.243 -2.10148 0.997035 0
M  V30 5172 C 488.237 -1.6929 -0.0609783 0
M  V30 5173 O 489.443 -1.79766 0.0917523 0
M  V30 5174 H 485.818 -0.687256 0.305259 0
M  V30 5175 H 487.789 -2.26685 1.94053 0
M  V30 5176 C 486.538 -3.4257 0.595085 0
M  V30 5177 H 485.861 -3.74453 1.40089 0
M  V30 5178 H 487.301 -4.21344 0.473869 0
M  V30 5179 C 485.76 -3.29638 -0.695725 0
M  V30 5180 O 486.29 -3.61709 -1.74727 0
M  V30 5181 N 484.496 -2.82814 -0.668173 0
M  V30 5182 H 484.043 -2.56914 0.18787 0
M  V30 5183 H 484.001 -2.74544 -1.5321 0
M  V30 5184 N 487.773 -1.03688 -1.18687 0
M  V30 5185 C 488.736 -0.629115 -2.20397 0
M  V30 5186 C 489.736 0.311495 -1.57754 0
M  V30 5187 O 490.926 0.0974107 -1.73927 0
M  V30 5188 C 488.058 0.0782231 -3.4081 0
M  V30 5189 H 489.251 -1.52915 -2.57987 0
M  V30 5190 H 486.804 -0.828988 -1.32505 0
M  V30 5191 H 487.539 0.992233 -3.08748 0
M  V30 5192 H 487.324 -0.597776 -3.87517 0
M  V30 5193 H 488.814 0.350156 -4.16129 0
M  V30 5194 N 489.251 1.34841 -0.815825 0
M  V30 5195 C 490.5 1.97755 -0.396976 0
M  V30 5196 C 490.813 1.65422 1.04379 0
M  V30 5197 O 492.019 2.21771 1.5662 0
M  V30 5198 C 490.475 3.53818 -0.658869 0
M  V30 5199 C 490.083 3.95051 -2.11278 0
M  V30 5200 C 491.827 4.23397 -0.305834 0
M  V30 5201 C 489.734 5.43997 -2.31994 0
M  V30 5202 H 488.664 0.739985 -0.1447 0
M  V30 5203 H 491.315 1.53781 -1.00118 0
M  V30 5204 H 489.697 3.95997 0.0154112 0
M  V30 5205 H 490.871 3.63998 -2.82564 0
M  V30 5206 H 489.186 3.38388 -2.42657 0
M  V30 5207 H 491.783 5.32899 -0.43854 0
M  V30 5208 H 492.126 4.09508 0.748952 0
M  V30 5209 H 492.659 3.8667 -0.934403 0
M  V30 5210 H 489.398 5.62865 -3.35952 0
M  V30 5211 H 488.918 5.76589 -1.65244 0
M  V30 5212 H 490.597 6.10584 -2.14001 0
M  V30 5213 N 490.729 0.570148 1.46925 0
M  V30 5214 C 491.975 0.0510284 2.02736 0
M  V30 5215 C 492.308 -1.3006 1.44215 0
M  V30 5216 O 491.583 -1.84932 0.602521 0
M  V30 5217 C 491.866 -0.028215 3.60089 0
M  V30 5218 C 491.719 1.35142 4.29018 0
M  V30 5219 C 493.038 -0.735181 4.33916 0
M  V30 5220 H 490.157 0.0200178 0.736728 0
M  V30 5221 H 492.799 0.73493 1.75211 0
M  V30 5222 H 490.949 -0.610648 3.83671 0
M  V30 5223 H 492.621 1.97806 4.16738 0
M  V30 5224 H 490.864 1.9226 3.88868 0
M  V30 5225 H 491.535 1.24857 5.37694 0
M  V30 5226 H 494.011 -0.240519 4.15404 0
M  V30 5227 H 492.887 -0.759622 5.43618 0
M  V30 5228 H 493.148 -1.79397 4.04066 0
M  V30 5229 N 492.207 -1.54576 0.307264 0
M  V30 5230 C 493.623 -1.59534 -0.0459251 0
M  V30 5231 C 493.823 -1.32414 -1.51884 0
M  V30 5232 O 492.879 -1.1006 -2.27251 0
M  V30 5233 C 494.192 -2.98566 0.357649 0
M  V30 5234 C 495.74 -3.11491 0.306937 0
M  V30 5235 C 496.215 -4.52842 0.685427 0
M  V30 5236 N 497.706 -4.58782 0.638203 0
M  V30 5237 C 498.441 -5.66238 0.903458 0
M  V30 5238 N 497.937 -6.81703 1.23501 0
M  V30 5239 N 499.73 -5.55937 0.830102 0
M  V30 5240 H 491.881 -1.70464 1.26712 0
M  V30 5241 H 494.144 -0.79647 0.514139 0
M  V30 5242 H 493.85 -3.23356 1.38325 0
M  V30 5243 H 493.724 -3.76117 -0.285565 0
M  V30 5244 H 496.111 -2.86446 -0.709424 0
M  V30 5245 H 496.192 -2.36081 0.984861 0
M  V30 5246 H 495.836 -4.78618 1.69963 0
M  V30 5247 H 495.766 -5.26598 -0.0146346 0
M  V30 5248 H 498.257 -3.75849 0.393138 0
M  V30 5249 H 498.57 -7.59582 1.42322 0
M  V30 5250 H 496.915 -6.8324 1.27311 0
M  V30 5251 H 500.106 -4.64608 0.570693 0
M  V30 5252 H 500.279 -6.39597 1.04019 0
M  V30 5253 N 493.685 -0.035106 -1.57561 0
M  V30 5254 C 494.91 0.655802 -1.96759 0
M  V30 5255 C 495.335 1.64523 -0.911809 0
M  V30 5256 O 494.693 1.80857 0.126673 0
M  V30 5257 C 494.741 1.33326 -3.35047 0
M  V30 5258 O 493.845 2.44866 -3.31835 0
M  V30 5259 H 493.186 0.171807 -0.641388 0
M  V30 5260 H 495.716 -0.0987369 -2.04362 0
M  V30 5261 H 495.726 1.68867 -3.71413 0
M  V30 5262 H 494.401 0.608033 -4.11431 0
M  V30 5263 H 492.978 2.11392 -3.07193 0
M  V30 5264 N 495.163 1.55791 0.238111 0
M  V30 5265 C 496.093 1.94068 1.29846 0
M  V30 5266 C 497.074 0.806726 1.49753 0
M  V30 5267 O 498.259 1.06772 1.62214 0
M  V30 5268 C 495.389 2.24302 2.65153 0
M  V30 5269 C 494.343 3.40032 2.59927 0
M  V30 5270 C 493.669 3.55829 3.99111 0
M  V30 5271 C 494.969 4.75476 2.16148 0
M  V30 5272 H 496.663 2.82887 0.980563 0
M  V30 5273 H 494.209 1.36105 0.470253 0
M  V30 5274 H 496.162 2.4967 3.39475 0
M  V30 5275 H 494.886 1.32318 2.98596 0
M  V30 5276 H 493.545 3.14687 1.88063 0
M  V30 5277 H 493.193 2.6125 4.29834 0
M  V30 5278 H 492.893 4.3366 3.96501 0
M  V30 5279 H 494.417 3.83528 4.7512 0
M  V30 5280 H 495.831 5.00158 2.80205 0
M  V30 5281 H 494.228 5.56472 2.24631 0
M  V30 5282 H 495.298 4.71946 1.11333 0
M  V30 5283 N 496.642 -0.504142 1.49319 0
M  V30 5284 C 498.053 -1.08572 1.51885 0
M  V30 5285 C 498.404 -1.93842 0.303255 0
M  V30 5286 O 497.529 -2.0828 -0.58724 0
M  V30 5287 C 498.124 -1.97574 2.75227 0
M  V30 5288 C 496.683 -2.509 2.80581 0
M  V30 5289 C 495.83 -1.28447 2.45757 0
M  V30 5290 H 498.781 -0.288194 1.56061 0
M  V30 5291 H 498.802 -2.82219 2.55211 0
M  V30 5292 H 498.314 -1.35486 3.63683 0
M  V30 5293 H 496.415 -3.16636 1.96398 0
M  V30 5294 H 496.528 -2.88268 3.82673 0
M  V30 5295 H 494.892 -1.60868 1.97468 0
M  V30 5296 H 495.675 -0.68072 3.36483 0
M  V30 5297 N 498.12 -1.38341 -0.754957 0
M  V30 5298 C 499.345 -1.37882 -1.5493 0
M  V30 5299 C 499.77 0.0296385 -1.88077 0
M  V30 5300 O 499.128 1.01133 -1.50472 0
M  V30 5301 C 499.176 -2.23996 -2.82592 0
M  V30 5302 O 498.28 -1.65612 -3.77686 0
M  V30 5303 H 497.621 -0.470384 -0.468652 0
M  V30 5304 H 500.151 -1.82084 -0.933082 0
M  V30 5305 H 500.161 -2.37806 -3.3153 0
M  V30 5306 H 498.836 -3.26365 -2.57796 0
M  V30 5307 H 497.413 -1.60936 -3.36384 0
M  V30 5308 N 499.598 0.982988 -1.23187 0
M  V30 5309 C 500.844 1.72648 -1.06398 0
M  V30 5310 C 501.177 1.90066 0.398561 0
M  V30 5311 O 500.452 1.45105 1.29518 0
M  V30 5312 C 500.735 3.12627 -1.78707 0
M  V30 5313 C 500.588 3.02795 -3.32618 0
M  V30 5314 C 501.907 4.11997 -1.54747 0
M  V30 5315 H 499.026 0.626649 -0.387918 0
M  V30 5316 H 501.668 1.14455 -1.51658 0
M  V30 5317 H 499.818 3.62308 -1.40234 0
M  V30 5318 H 501.49 2.60659 -3.80598 0
M  V30 5319 H 499.733 2.39362 -3.61785 0
M  V30 5320 H 500.404 4.01893 -3.78399 0
M  V30 5321 H 502.88 3.71114 -1.88186 0
M  V30 5322 H 501.756 5.08037 -2.07821 0
M  V30 5323 H 502.017 4.39462 -0.482249 0
M  V30 5324 N 501.076 1.04316 1.18135 0
M  V30 5325 C 501.986 0.646876 2.25505 0
M  V30 5326 C 503.002 -0.328008 1.7088 0
M  V30 5327 O 504.178 -0.182309 2.00573 0
M  V30 5328 C 501.243 0.0185664 3.46695 0
M  V30 5329 C 500.304 1.04277 4.16443 0
M  V30 5330 C 499.537 0.444352 5.31847 0
M  V30 5331 O 499.76 -0.748735 5.65465 0
M  V30 5332 O 498.694 1.17428 5.90334 0
M  V30 5333 H 502.52 1.54147 2.61672 0
M  V30 5334 H 500.105 0.814188 1.25265 0
M  V30 5335 H 501.987 -0.331068 4.20097 0
M  V30 5336 H 500.662 -0.849814 3.12346 0
M  V30 5337 H 499.569 1.44425 3.45098 0
M  V30 5338 H 500.902 1.882 4.54798 0
M  V30 5339 N 502.554 -1.34406 0.822964 0
M  V30 5340 C 503.782 -2.02508 0.424039 0
M  V30 5341 C 504.197 -1.61975 -0.970022 0
M  V30 5342 O 503.554 -0.825228 -1.62777 0
M  V30 5343 C 503.605 -3.57789 0.516657 0
M  V30 5344 O 503.326 -3.96853 1.85577 0
M  V30 5345 C 504.827 -4.43157 0.112637 0
M  V30 5346 H 502.047 -0.649063 0.170173 0
M  V30 5347 H 504.591 -1.7168 1.11113 0
M  V30 5348 H 502.746 -3.87207 -0.122353 0
M  V30 5349 H 503.16 -4.91538 1.83005 0
M  V30 5350 H 504.634 -5.51527 0.228526 0
M  V30 5351 H 505.111 -4.28939 -0.943837 0
M  V30 5352 H 505.717 -4.19067 0.725449 0
M  V30 5353 N 504.032 -0.577932 -1.46621 0
M  V30 5354 C 504.962 0.145917 -2.33044 0
M  V30 5355 C 505.943 0.888412 -1.45056 0
M  V30 5356 O 507.128 0.864812 -1.73881 0
M  V30 5357 C 504.258 1.16322 -3.27241 0
M  V30 5358 C 503.212 0.535868 -4.24632 0
M  V30 5359 C 502.538 1.65929 -5.08303 0
M  V30 5360 C 503.838 -0.523861 -5.19666 0
M  V30 5361 H 505.532 -0.575636 -2.93814 0
M  V30 5362 H 503.078 -0.278272 -1.41286 0
M  V30 5363 H 505.031 1.67793 -3.86553 0
M  V30 5364 H 503.755 1.91498 -2.64567 0
M  V30 5365 H 502.414 0.0422759 -3.66576 0
M  V30 5366 H 502.062 2.40061 -4.42018 0
M  V30 5367 H 501.762 1.2452 -5.74255 0
M  V30 5368 H 503.286 2.17686 -5.70478 0
M  V30 5369 H 504.7 -0.0944059 -5.73222 0
M  V30 5370 H 503.097 -0.858 -5.93935 0
M  V30 5371 H 504.167 -1.41197 -4.63887 0
M  V30 5372 N 505.51 1.54411 -0.315457 0
M  V30 5373 C 506.758 2.00023 0.288971 0
M  V30 5374 C 507.079 1.20529 1.5329 0
M  V30 5375 O 506.349 0.304986 1.93511 0
M  V30 5376 H 504.929 0.738891 0.109766 0
M  V30 5377 H 507.591 1.90094 -0.430129 0
M  V30 5378 H 506.687 3.07198 0.550999 0
M  V30 5379 N 506.988 0.0434614 1.5754 0
M  V30 5380 C 508.228 -0.636023 1.94253 0
M  V30 5381 C 508.592 -1.68461 0.921132 0
M  V30 5382 O 509.793 -2.41762 1.17494 0
M  V30 5383 C 508.064 -1.22357 3.35803 0
M  V30 5384 S 509.623 -1.92213 3.94461 0
M  V30 5385 H 506.441 -0.209041 0.679575 0
M  V30 5386 H 509.043 0.110556 1.95187 0
M  V30 5387 H 507.747 -0.448162 4.07946 0
M  V30 5388 H 507.278 -2.00713 3.38346 0
M  V30 5389 H 509.293 -3.20199 3.79061 0
M  V30 5390 N 508.466 -1.55915 -0.229846 0
M  V30 5391 C 509.694 -1.82617 -0.972562 0
M  V30 5392 C 510.109 -0.621488 -1.78278 0
M  V30 5393 O 509.466 0.409956 -1.77836 0
M  V30 5394 C 509.517 -3.0774 -1.89679 0
M  V30 5395 O 509.238 -4.23559 -1.11934 0
M  V30 5396 C 510.739 -3.47368 -2.75409 0
M  V30 5397 H 507.959 -0.60727 -0.285419 0
M  V30 5398 H 510.503 -2.02996 -0.247579 0
M  V30 5399 H 508.658 -2.89361 -2.57583 0
M  V30 5400 H 509.072 -4.94586 -1.74599 0
M  V30 5401 H 510.546 -4.37977 -3.35977 0
M  V30 5402 H 511.023 -2.68737 -3.47386 0
M  V30 5403 H 511.629 -3.68158 -2.12931 0
M  V30 5404 N 509.944 0.496216 -1.49584 0
M  V30 5405 C 511.169 1.27865 -1.63295 0
M  V30 5406 C 511.594 1.85592 -0.306156 0
M  V30 5407 O 510.952 1.66092 0.726851 0
M  V30 5408 C 511 2.38128 -2.7079 0
M  V30 5409 O 510.104 3.42108 -2.30296 0
M  V30 5410 H 509.445 0.377279 -0.546403 0
M  V30 5411 H 511.975 0.593497 -1.95803 0
M  V30 5412 H 511.985 2.8382 -2.93104 0
M  V30 5413 H 510.66 1.95479 -3.67098 0
M  V30 5414 H 509.237 3.02301 -2.18331 0
M  V30 5415 N 511.423 1.38739 0.74761 0
M  V30 5416 C 512.669 1.35475 1.50912 0
M  V30 5417 C 513.002 -0.0533093 1.94127 0
M  V30 5418 O 512.277 -1.01572 1.65871 0
M  V30 5419 C 512.56 2.31582 2.75757 0
M  V30 5420 C 512.413 3.81274 2.38642 0
M  V30 5421 C 513.732 2.25722 3.77806 0
M  V30 5422 H 510.851 0.493427 0.547447 0
M  V30 5423 H 513.493 1.69634 0.855823 0
M  V30 5424 H 511.643 2.02582 3.31501 0
M  V30 5425 H 513.315 4.20972 1.88626 0
M  V30 5426 H 511.558 3.98664 1.71025 0
M  V30 5427 H 512.229 4.4399 3.27989 0
M  V30 5428 H 514.705 2.51336 3.31616 0
M  V30 5429 H 513.581 2.95069 4.62845 0
M  V30 5430 H 513.842 1.25803 4.23823 0
M  V30 5431 N 512.901 -0.976442 1.23707 0
M  V30 5432 C 514.15 -1.71254 1.06559 0
M  V30 5433 C 514.463 -1.91528 -0.397024 0
M  V30 5434 O 515.669 -2.62625 -0.688518 0
M  V30 5435 C 514.125 -3.08207 1.8584 0
M  V30 5436 C 513.733 -2.95806 3.36456 0
M  V30 5437 C 515.477 -3.85749 1.77194 0
M  V30 5438 C 513.384 -4.28015 4.08114 0
M  V30 5439 H 512.314 -0.642171 0.395136 0
M  V30 5440 H 514.965 -1.08877 1.4771 0
M  V30 5441 H 513.347 -3.71363 1.37498 0
M  V30 5442 H 514.521 -2.41716 3.92314 0
M  V30 5443 H 512.836 -2.31736 3.45959 0
M  V30 5444 H 515.433 -4.83633 2.28041 0
M  V30 5445 H 515.776 -4.09752 0.735477 0
M  V30 5446 H 516.309 -3.29303 2.23169 0
M  V30 5447 H 513.048 -4.09208 5.12083 0
M  V30 5448 H 512.568 -4.81955 3.57043 0
M  V30 5449 H 514.247 -4.96681 4.14629 0
M  V30 5450 N 514.379 -1.04941 -1.1758 0
M  V30 5451 C 515.619 -0.766996 -1.89464 0
M  V30 5452 C 515.983 0.693123 -1.79053 0
M  V30 5453 O 517.184 1.08953 -2.45729 0
M  V30 5454 C 515.455 -1.23108 -3.35528 0
M  V30 5455 S 517.014 -1.07565 -4.25412 0
M  V30 5456 H 513.832 -0.278616 -0.654136 0
M  V30 5457 H 516.434 -1.34352 -1.4202 0
M  V30 5458 H 515.138 -2.28896 -3.40639 0
M  V30 5459 H 514.669 -0.648724 -3.88014 0
M  V30 5460 H 516.684 0.00169467 -4.962 0
M  V30 5461 N 515.857 1.33968 -0.830081 0
M  V30 5462 C 517.082 2.02813 -0.433796 0
M  V30 5463 C 517.507 1.62076 0.954614 0
M  V30 5464 O 516.865 0.808955 1.62252 0
M  V30 5465 C 516.913 3.56348 -0.552115 0
M  V30 5466 O 516.017 4.10202 0.425191 0
M  V30 5467 H 515.358 0.639817 -0.177567 0
M  V30 5468 H 517.888 1.7106 -1.12248 0
M  V30 5469 H 517.898 4.05722 -0.430513 0
M  V30 5470 H 516.573 3.85344 -1.56471 0
M  V30 5471 H 515.15 3.71979 0.261878 0
M  V30 5472 N 517.335 0.585699 1.46312 0
M  V30 5473 C 518.612 0.00542031 1.95599 0
M  V30 5474 C 518.992 -1.45619 1.52834 0
M  V30 5475 O 518.34 -2.14759 0.780446 0
M  V30 5476 C 518.55 0.180601 3.48532 0
M  V30 5477 C 519.898 0.049979 4.24571 0
M  V30 5478 O 520.922 0.109589 3.56031 0
M  V30 5479 O 519.781 -0.0832226 5.46437 0
M  V30 5480 H 516.875 -0.0481281 0.825598 0
M  V30 5481 H 519.421 0.654227 1.56582 0
M  V30 5482 H 518.193 1.19657 3.72556 0
M  V30 5483 H 517.816 -0.504498 3.94386 0
M  V30 5484 N 518.813 -1.54241 0.323641 0
M  V30 5485 C 519.76 -2.24339 -0.542277 0
M  V30 5486 C 520.73 -1.23421 -1.11159 0
M  V30 5487 O 521.915 -1.52104 -1.15192 0
M  V30 5488 C 519.055 -3.00479 -1.69725 0
M  V30 5489 C 518.168 -4.16214 -1.15716 0
M  V30 5490 C 517.303 -4.79884 -2.27783 0
M  V30 5491 C 516.342 -5.87722 -1.71023 0
M  V30 5492 N 515.479 -6.45254 -2.76752 0
M  V30 5493 H 520.319 -2.97935 0.0620613 0
M  V30 5494 H 517.856 -1.47039 0.0423993 0
M  V30 5495 H 519.814 -3.42869 -2.3769 0
M  V30 5496 H 518.444 -2.29217 -2.27288 0
M  V30 5497 H 517.496 -3.78605 -0.369063 0
M  V30 5498 H 518.808 -4.93838 -0.701832 0
M  V30 5499 H 517.962 -5.25243 -3.03651 0
M  V30 5500 H 516.701 -4.01641 -2.76652 0
M  V30 5501 H 515.706 -5.41765 -0.936518 0
M  V30 5502 H 516.931 -6.67863 -1.2303 0
M  V30 5503 H 514.877 -5.69884 -3.24912 0
M  V30 5504 H 514.794 -7.18292 -2.35782 0
M  V30 5505 H 516.062 -6.95269 -3.5245 0
M  V30 5506 N 520.291 -0.0518155 -1.57515 0
M  V30 5507 C 521.519 0.631395 -1.9703 0
M  V30 5508 C 521.934 1.64341 -0.92938 0
M  V30 5509 O 521.291 1.82296 0.0863266 0
M  V30 5510 C 521.342 1.31774 -3.36627 0
M  V30 5511 O 521.063 0.346247 -4.3673 0
M  V30 5512 C 522.564 2.09065 -3.90905 0
M  V30 5513 H 519.784 0.172576 -0.648428 0
M  V30 5514 H 522.328 -0.118306 -2.04158 0
M  V30 5515 H 520.483 2.01867 -3.30649 0
M  V30 5516 H 520.897 0.836226 -5.17791 0
M  V30 5517 H 522.371 2.52508 -4.9086 0
M  V30 5518 H 522.848 2.93908 -3.26366 0
M  V30 5519 H 523.454 1.43882 -4.00223 0
M  V30 5520 N 521.769 1.56035 0.221574 0
M  V30 5521 C 523.017 1.78693 0.944102 0
M  V30 5522 C 523.338 0.620317 1.8487 0
M  V30 5523 O 522.608 -0.362784 1.92512 0
M  V30 5524 H 521.188 0.659082 0.351597 0
M  V30 5525 H 523.85 1.93497 0.233435 0
M  V30 5526 H 522.946 2.70837 1.55093 0
M  V30 5527 N 523.247 -0.488276 1.49845 0
M  V30 5528 C 524.475 -1.26527 1.63702 0
M  V30 5529 C 524.89 -1.8618 0.313447 0
M  V30 5530 O 524.247 -1.68432 -0.702624 0
M  V30 5531 C 524.298 -2.3864 2.71538 0
M  V30 5532 O 524.019 -1.81437 3.98763 0
M  V30 5533 C 525.52 -3.29805 2.96215 0
M  V30 5534 H 522.74 -0.383295 0.55075 0
M  V30 5535 H 525.284 -0.584779 1.95961 0
M  V30 5536 H 523.439 -3.02496 2.42023 0
M  V30 5537 H 523.853 -2.55135 4.58265 0
M  V30 5538 H 525.327 -4.04722 3.75372 0
M  V30 5539 H 525.804 -3.87563 2.06619 0
M  V30 5540 H 526.41 -2.71703 3.27196 0
M  V30 5541 N 524.725 -1.39134 -0.740242 0
M  V30 5542 C 525.655 -1.40165 -1.86751 0
M  V30 5543 C 526.636 -0.265708 -1.68012 0
M  V30 5544 O 527.821 -0.47076 -1.88408 0
M  V30 5545 C 524.951 -1.2392 -3.2444 0
M  V30 5546 C 523.905 -2.34858 -3.57807 0
M  V30 5547 C 523.231 -2.03707 -4.94376 0
M  V30 5548 C 524.531 -3.77159 -3.61315 0
M  V30 5549 H 526.225 -2.345 -1.86145 0
M  V30 5550 H 523.771 -1.12875 -0.89416 0
M  V30 5551 H 525.724 -1.23263 -4.02969 0
M  V30 5552 H 524.448 -0.26051 -3.25559 0
M  V30 5553 H 523.107 -2.34723 -2.81604 0
M  V30 5554 H 522.755 -1.04289 -4.9207 0
M  V30 5555 H 522.455 -2.78016 -5.17669 0
M  V30 5556 H 523.979 -2.04691 -5.75268 0
M  V30 5557 H 525.393 -3.79252 -4.29931 0
M  V30 5558 H 523.79 -4.50784 -3.96124 0
M  V30 5559 H 524.86 -4.08513 -2.61238 0
M  V30 5560 N 526.204 0.969867 -1.24223 0
M  V30 5561 C 527.432 1.74756 -1.10761 0
M  V30 5562 C 527.847 1.85713 0.340041 0
M  V30 5563 O 527.204 1.34389 1.23474 0
M  V30 5564 C 527.255 3.16915 -1.73917 0
M  V30 5565 O 526.976 3.06511 -3.13021 0
M  V30 5566 C 528.477 4.11032 -1.66036 0
M  V30 5567 H 525.697 0.548092 -0.387087 0
M  V30 5568 H 528.241 1.2178 -1.64286 0
M  V30 5569 H 526.396 3.66884 -1.244 0
M  V30 5570 H 526.81 3.96079 -3.43834 0
M  V30 5571 H 528.284 5.08446 -2.14911 0
M  V30 5572 H 528.761 4.34785 -0.621159 0
M  V30 5573 H 529.367 3.66972 -2.14969 0
M  V30 5574 N 527.682 1.05563 1.17022 0
M  V30 5575 C 528.91 0.78845 1.91288 0
M  V30 5576 C 529.325 -0.656318 1.77025 0
M  V30 5577 O 528.682 -1.44869 1.10992 0
M  V30 5578 C 528.733 1.16444 3.42232 0
M  V30 5579 O 528.454 2.5525 3.5606 0
M  V30 5580 C 529.955 0.923937 4.33565 0
M  V30 5581 H 527.175 0.286389 0.606813 0
M  V30 5582 H 529.719 1.4073 1.48375 0
M  V30 5583 H 527.874 0.590266 3.82877 0
M  V30 5584 H 528.288 2.70097 4.49609 0
M  V30 5585 H 529.762 1.23672 5.37968 0
M  V30 5586 H 530.239 -0.140688 4.38975 0
M  V30 5587 H 530.845 1.48214 3.98639 0
M  V30 5588 N 529.16 -1.33526 0.837174 0
M  V30 5589 C 530.108 -2.31168 0.257698 0
M  V30 5590 C 531.102 -1.5806 -0.609388 0
M  V30 5591 O 532.308 -1.72941 -0.499139 0
M  V30 5592 H 528.683 -0.74922 0.0646058 0
M  V30 5593 H 530.654 -2.77552 1.09578 0
M  V30 5594 C 529.403 -3.4326 -0.553887 0
M  V30 5595 H 528.726 -3.99665 0.104008 0
M  V30 5596 H 530.166 -4.13782 -0.925219 0
M  V30 5597 C 528.625 -2.88965 -1.73207 0
M  V30 5598 O 529.155 -2.85013 -2.83073 0
M  V30 5599 N 527.361 -2.45596 -1.55342 0
M  V30 5600 H 526.908 -2.49009 -0.659705 0
M  V30 5601 H 526.866 -2.0962 -2.34322 0
M  V30 5602 N 530.638 -0.59345 -1.46 0
M  V30 5603 C 531.57 0.171569 -2.28557 0
M  V30 5604 C 532.583 0.845273 -1.39137 0
M  V30 5605 O 533.772 0.713033 -1.6364 0
M  V30 5606 C 530.872 1.26311 -3.14482 0
M  V30 5607 C 530.045 0.679258 -4.32094 0
M  V30 5608 C 529.104 1.65987 -4.99334 0
M  V30 5609 O 528.13 1.19171 -5.56585 0
M  V30 5610 N 529.332 2.99414 -4.97324 0
M  V30 5611 H 532.097 -0.536771 -2.94854 0
M  V30 5612 H 529.658 -0.431954 -1.56031 0
M  V30 5613 H 531.65 1.91863 -3.5633 0
M  V30 5614 H 530.22 1.87416 -2.50188 0
M  V30 5615 H 529.44 -0.153992 -3.93899 0
M  V30 5616 H 530.728 0.26916 -5.08088 0
M  V30 5617 H 530.126 3.40064 -4.52076 0
M  V30 5618 H 528.683 3.60426 -5.4308 0
M  V30 5619 N 532.116 1.54067 -0.331816 0
M  V30 5620 C 533.049 2.20886 0.573127 0
M  V30 5621 C 534.027 1.18876 1.10938 0
M  V30 5622 O 535.211 1.47649 1.17184 0
M  V30 5623 C 532.338 2.87706 1.78726 0
M  V30 5624 C 531.384 4.03505 1.38152 0
M  V30 5625 S 532.217 5.33919 0.41123 0
M  V30 5626 C 533.373 6.04236 1.63246 0
M  V30 5627 H 533.606 2.97299 0.00555737 0
M  V30 5628 H 531.139 1.53964 -0.115893 0
M  V30 5629 H 533.097 3.26825 2.48386 0
M  V30 5630 H 531.758 2.1108 2.32603 0
M  V30 5631 H 530.951 4.49152 2.28645 0
M  V30 5632 H 530.553 3.66102 0.764524 0
M  V30 5633 H 532.845 6.26917 2.56869 0
M  V30 5634 H 533.788 6.97546 1.218 0
M  V30 5635 H 534.196 5.34247 1.82318 0
M  V30 5636 N 533.594 0.0601682 1.57485 0
M  V30 5637 C 534.819 -0.624416 1.97777 0
M  V30 5638 C 535.244 -1.63051 0.937867 0
M  V30 5639 O 534.602 -1.81036 -0.0978845 0
M  V30 5640 C 534.65 -1.27979 3.37126 0
M  V30 5641 O 533.754 -2.39556 3.35688 0
M  V30 5642 H 533.095 -0.161581 0.64404 0
M  V30 5643 H 535.625 0.131237 2.04179 0
M  V30 5644 H 535.635 -1.62937 3.74053 0
M  V30 5645 H 534.31 -0.542501 4.12347 0
M  V30 5646 H 532.887 -2.06478 3.10517 0
M  V30 5647 N 535.072 -1.5615 -0.213296 0
M  V30 5648 C 536.318 -1.79812 -0.937849 0
M  V30 5649 C 536.651 -0.631201 -1.83656 0
M  V30 5650 O 535.926 0.369165 -1.90964 0
M  V30 5651 C 536.209 -3.13613 -1.76972 0
M  V30 5652 C 536.062 -4.40766 -0.89695 0
M  V30 5653 C 537.381 -3.43931 -2.7459 0
M  V30 5654 H 534.5 -0.654138 -0.339518 0
M  V30 5655 H 537.142 -1.88877 -0.20623 0
M  V30 5656 H 535.292 -3.06015 -2.39347 0
M  V30 5657 H 536.964 -4.60392 -0.289306 0
M  V30 5658 H 535.207 -4.33326 -0.202756 0
M  V30 5659 H 535.878 -5.30843 -1.51358 0
M  V30 5660 H 538.354 -3.5171 -2.22349 0
M  V30 5661 H 537.23 -4.38706 -3.29891 0
M  V30 5662 H 537.491 -2.6651 -3.52739 0
M  V30 5663 N 536.55 0.480323 -1.50102 0
M  V30 5664 C 537.79 1.24301 -1.62261 0
M  V30 5665 C 538.154 1.89452 -0.311758 0
M  V30 5666 O 539.355 2.67022 -0.308696 0
M  V30 5667 C 537.626 2.26588 -2.76392 0
M  V30 5668 S 539.185 3.11919 -3.08629 0
M  V30 5669 H 536.003 0.42215 -0.57211 0
M  V30 5670 H 538.605 0.541591 -1.87848 0
M  V30 5671 H 537.309 1.7729 -3.70131 0
M  V30 5672 H 536.84 3.01371 -2.52862 0
M  V30 5673 H 538.855 4.27598 -2.51742 0
M  V30 5674 N 538.028 1.39524 0.732853 0
M  V30 5675 C 539.444 1.21176 1.03868 0
M  V30 5676 C 539.644 0.0748448 2.01361 0
M  V30 5677 O 538.7 -0.57281 2.45917 0
M  V30 5678 C 540.013 2.54667 1.59892 0
M  V30 5679 C 541.561 2.6153 1.71962 0
M  V30 5680 C 542.036 3.95248 2.31394 0
M  V30 5681 N 543.527 3.96899 2.38801 0
M  V30 5682 C 544.262 4.97138 2.85729 0
M  V30 5683 N 543.758 6.07775 3.32537 0
M  V30 5684 N 545.551 4.84516 2.84957 0
M  V30 5685 H 537.702 2.12225 0.086304 0
M  V30 5686 H 539.965 0.942614 0.100907 0
M  V30 5687 H 539.671 3.38423 0.95721 0
M  V30 5688 H 539.545 2.74538 2.58668 0
M  V30 5689 H 541.932 1.78156 2.35254 0
M  V30 5690 H 542.013 2.45507 0.718327 0
M  V30 5691 H 541.657 4.79054 1.68729 0
M  V30 5692 H 541.587 4.08593 3.32204 0
M  V30 5693 H 544.078 3.16998 2.05719 0
M  V30 5694 H 544.391 6.8017 3.66862 0
M  V30 5695 H 542.736 6.11366 3.30541 0
M  V30 5696 H 545.927 3.97185 2.47713 0
M  V30 5697 H 546.1 5.62783 3.21215 0
M  V30 5698 N 539.506 -0.963266 1.24736 0
M  V30 5699 C 540.439 -2.05758 0.986852 0
M  V30 5700 C 541.417 -1.62398 -0.0809272 0
M  V30 5701 O 542.601 -1.88414 0.0569347 0
M  V30 5702 C 539.728 -3.35135 0.490095 0
M  V30 5703 C 538.774 -3.97451 1.54709 0
M  V30 5704 S 539.607 -4.34519 3.12976 0
M  V30 5705 C 540.763 -5.67026 2.65014 0
M  V30 5706 H 540.996 -2.27539 1.91346 0
M  V30 5707 H 538.529 -1.10176 1.08169 0
M  V30 5708 H 540.487 -4.09962 0.21012 0
M  V30 5709 H 539.148 -3.11335 -0.415873 0
M  V30 5710 H 538.341 -4.90704 1.15003 0
M  V30 5711 H 537.943 -3.29071 1.77731 0
M  V30 5712 H 540.235 -6.44748 2.08102 0
M  V30 5713 H 541.178 -6.11594 3.56873 0
M  V30 5714 H 541.586 -5.25847 2.05294 0
M  V30 5715 N 540.985 -1.06182 -1.16461 0
M  V30 5716 C 542.232 -0.777863 -1.86964 0
M  V30 5717 C 542.56 0.695602 -1.81636 0
M  V30 5718 O 541.815 1.52532 -1.22607 0
M  V30 5719 C 542.114 -1.21633 -3.36066 0
M  V30 5720 C 541.78 -2.69371 -3.61594 0
M  V30 5721 C 540.442 -3.09727 -3.6827 0
M  V30 5722 C 542.794 -3.64791 -3.7226 0
M  V30 5723 C 540.122 -4.44345 -3.83112 0
M  V30 5724 C 542.474 -4.99155 -3.88623 0
M  V30 5725 C 541.138 -5.39149 -3.93541 0
M  V30 5726 H 540.408 -0.28464 -0.68415 0
M  V30 5727 H 543.055 -1.33071 -1.37711 0
M  V30 5728 H 541.36 -0.582651 -3.87443 0
M  V30 5729 H 543.057 -0.973682 -3.88999 0
M  V30 5730 H 539.647 -2.37124 -3.57029 0
M  V30 5731 H 543.831 -3.34746 -3.66413 0
M  V30 5732 H 539.087 -4.74819 -3.85172 0
M  V30 5733 H 543.261 -5.72976 -3.95817 0
M  V30 5734 H 540.888 -6.43464 -4.04794 0
M  V30 5735 N 542.463 1.3308 -0.844243 0
M  V30 5736 C 543.712 1.96868 -0.438833 0
M  V30 5737 C 544.025 1.67599 1.00846 0
M  V30 5738 O 545.231 2.25043 1.51881 0
M  V30 5739 C 543.687 3.5234 -0.73377 0
M  V30 5740 C 543.295 3.90481 -2.1961 0
M  V30 5741 C 545.039 4.22653 -0.395574 0
M  V30 5742 C 542.946 5.38954 -2.43481 0
M  V30 5743 H 541.876 0.736749 -0.160364 0
M  V30 5744 H 544.527 1.51623 -1.03358 0
M  V30 5745 H 542.909 3.95941 -0.068589 0
M  V30 5746 H 544.083 3.57922 -2.90221 0
M  V30 5747 H 542.398 3.33165 -2.4978 0
M  V30 5748 H 544.995 5.31848 -0.551477 0
M  V30 5749 H 545.338 4.11004 0.661921 0
M  V30 5750 H 545.871 3.84601 -1.01621 0
M  V30 5751 H 542.61 5.55612 -3.47816 0
M  V30 5752 H 542.13 5.72954 -1.77437 0
M  V30 5753 H 543.809 6.05907 -2.26905 0
M  V30 5754 N 543.941 0.601185 1.45683 0
M  V30 5755 C 544.871 -0.108824 2.33246 0
M  V30 5756 C 545.852 -0.865223 1.46451 0
M  V30 5757 O 547.037 -0.83704 1.75235 0
M  V30 5758 C 544.167 -1.11101 3.2905 0
M  V30 5759 C 543.121 -0.468244 4.25431 0
M  V30 5760 C 542.447 -1.57822 5.10878 0
M  V30 5761 C 543.747 0.606469 5.18767 0
M  V30 5762 H 545.441 0.622306 2.92861 0
M  V30 5763 H 542.987 0.300714 1.40825 0
M  V30 5764 H 544.94 -1.61622 3.89174 0
M  V30 5765 H 543.664 -1.87265 2.67581 0
M  V30 5766 H 542.323 0.0160484 3.66596 0
M  V30 5767 H 541.971 -2.32998 4.45781 0
M  V30 5768 H 541.671 -1.15369 5.76163 0
M  V30 5769 H 543.195 -2.08583 5.73869 0
M  V30 5770 H 544.609 0.185589 5.73 0
M  V30 5771 H 543.006 0.952381 5.92494 0
M  V30 5772 H 544.076 1.48559 4.61582 0
M  V30 5773 N 545.419 -1.53889 0.339982 0
M  V30 5774 C 546.696 -1.93084 -0.312719 0
M  V30 5775 C 547.076 -1.2712 -1.68534 0
M  V30 5776 O 546.424 -0.420835 -2.24591 0
M  V30 5777 C 546.634 -3.4683 -0.388558 0
M  V30 5778 C 547.982 -4.19732 -0.641088 0
M  V30 5779 O 549.006 -3.53075 -0.470818 0
M  V30 5780 O 547.865 -5.3781 -0.970685 0
M  V30 5781 H 544.959 -0.806784 -0.18174 0
M  V30 5782 H 547.505 -1.65137 0.390898 0
M  V30 5783 H 546.277 -3.87055 0.574821 0
M  V30 5784 H 545.9 -3.80933 -1.1391 0
M  V30 5785 N 546.897 -0.0685191 -1.57451 0
M  V30 5786 C 548.313 0.288101 -1.56978 0
M  V30 5787 C 548.513 1.70262 -1.07765 0
M  V30 5788 O 547.569 2.4135 -0.742054 0
M  V30 5789 C 548.882 0.100745 -3.00531 0
M  V30 5790 C 550.43 0.170531 -3.12535 0
M  V30 5791 C 550.905 0.0114944 -4.57999 0
M  V30 5792 N 552.396 0.0672065 -4.63151 0
M  V30 5793 C 553.131 -0.0314813 -5.73391 0
M  V30 5794 N 552.627 -0.183503 -6.92557 0
M  V30 5795 N 554.42 0.0253489 -5.62094 0
M  V30 5796 H 546.571 -0.993026 -1.87757 0
M  V30 5797 H 548.834 -0.386981 -0.865419 0
M  V30 5798 H 548.54 -0.875197 -3.40636 0
M  V30 5799 H 548.414 0.854457 -3.67395 0
M  V30 5800 H 550.801 1.13696 -2.72318 0
M  V30 5801 H 550.882 -0.614229 -2.48316 0
M  V30 5802 H 550.526 -0.951684 -4.98904 0
M  V30 5803 H 550.456 0.815617 -5.20245 0
M  V30 5804 H 552.947 0.183246 -3.77455 0
M  V30 5805 H 553.26 -0.251041 -7.72392 0
M  V30 5806 H 551.605 -0.218822 -6.94655 0
M  V30 5807 H 554.796 0.142794 -4.67882 0
M  V30 5808 H 554.969 -0.0550166 -6.47977 0
M  V30 5809 N 548.375 1.56261 0.205012 0
M  V30 5810 C 549.621 1.80306 0.9283 0
M  V30 5811 C 549.954 0.640932 1.83319 0
M  V30 5812 O 549.229 -0.359032 1.91158 0
M  V30 5813 C 549.512 3.14547 1.75306 0
M  V30 5814 C 549.365 4.41236 0.873562 0
M  V30 5815 C 550.684 3.45382 2.72762 0
M  V30 5816 H 547.803 0.655929 0.336044 0
M  V30 5817 H 550.445 1.88984 0.196211 0
M  V30 5818 H 548.595 3.0728 2.37721 0
M  V30 5819 H 550.267 4.60539 0.264887 0
M  V30 5820 H 548.51 4.33427 0.179773 0
M  V30 5821 H 549.181 5.31639 1.48541 0
M  V30 5822 H 551.657 3.52884 2.20481 0
M  V30 5823 H 550.533 4.40449 3.2756 0
M  V30 5824 H 550.794 2.68377 3.51321 0
M  V30 5825 N 549.853 -0.472356 1.50355 0
M  V30 5826 C 550.763 -1.59637 1.7191 0
M  V30 5827 C 551.779 -1.63247 0.602195 0
M  V30 5828 O 552.955 -1.81139 0.880369 0
M  V30 5829 C 550.02 -2.9586 1.80742 0
M  V30 5830 C 549.081 -3.02649 3.04471 0
M  V30 5831 C 548.314 -4.32374 3.12872 0
M  V30 5832 O 548.537 -5.22807 2.28099 0
M  V30 5833 O 547.471 -4.44728 4.05587 0
M  V30 5834 H 551.297 -1.44373 2.67189 0
M  V30 5835 H 548.882 -0.651717 1.34436 0
M  V30 5836 H 550.764 -3.7677 1.88739 0
M  V30 5837 H 549.439 -3.11325 0.88647 0
M  V30 5838 H 548.346 -2.20821 3.01975 0
M  V30 5839 H 549.679 -2.92119 3.9614 0
M  V30 5840 N 551.331 -1.39911 -0.725443 0
M  V30 5841 C 552.579 -1.37382 -1.48224 0
M  V30 5842 C 552.9 0.0264107 -1.94982 0
M  V30 5843 O 552.17 0.979408 -1.6966 0
M  V30 5844 H 550.75 -0.505596 -0.549892 0
M  V30 5845 H 553.412 -1.7487 -0.860608 0
M  V30 5846 H 552.508 -2.04254 -2.3598 0
M  V30 5847 N 552.809 0.956637 -1.25245 0
M  V30 5848 C 554.086 1.67716 -1.00651 0
M  V30 5849 C 554.466 2.0585 0.467866 0
M  V30 5850 O 553.814 1.77029 1.44475 0
M  V30 5851 C 554.024 2.90093 -1.94028 0
M  V30 5852 C 555.372 3.6209 -2.21756 0
M  V30 5853 O 556.396 3.00171 -1.9177 0
M  V30 5854 O 555.255 4.7358 -2.72735 0
M  V30 5855 H 552.349 0.733731 -0.381533 0
M  V30 5856 H 554.895 1.00974 -1.3639 0
M  V30 5857 H 553.667 2.58689 -2.93591 0
M  V30 5858 H 553.29 3.64566 -1.58674 0
M  V30 5859 N 554.287 1.06798 1.15896 0
M  V30 5860 C 555.515 0.808694 1.90441 0
M  V30 5861 C 555.93 -0.637506 1.77711 0
M  V30 5862 O 555.287 -1.43684 1.12522 0
M  V30 5863 C 555.338 1.20068 3.40978 0
M  V30 5864 O 555.059 2.59013 3.53333 0
M  V30 5865 C 556.56 0.96987 4.3256 0
M  V30 5866 H 553.78 0.292809 0.603742 0
M  V30 5867 H 556.324 1.42296 1.46874 0
M  V30 5868 H 554.479 0.630842 3.82229 0
M  V30 5869 H 554.893 2.7485 4.46719 0
M  V30 5870 H 556.367 1.29371 5.36626 0
M  V30 5871 H 556.844 -0.0941209 4.39099 0
M  V30 5872 H 557.45 1.52433 3.97044 0
M  V30 5873 N 555.766 -1.3263 0.851289 0
M  V30 5874 C 557.006 -1.99174 0.459266 0
M  V30 5875 C 557.37 -1.65913 -0.966273 0
M  V30 5876 O 558.571 -2.2552 -1.46267 0
M  V30 5877 C 556.842 -3.50721 0.687698 0
M  V30 5878 S 558.401 -4.37039 0.392746 0
M  V30 5879 H 555.219 -0.689832 0.172199 0
M  V30 5880 H 557.821 -1.61395 1.10327 0
M  V30 5881 H 556.525 -3.72417 1.72435 0
M  V30 5882 H 556.056 -3.93389 0.0299949 0
M  V30 5883 H 558.071 -4.8999 -0.782578 0
M  V30 5884 N 557.244 -0.608902 -1.45362 0
M  V30 5885 C 558.469 -0.10921 -2.07112 0
M  V30 5886 C 558.894 1.19779 -1.45033 0
M  V30 5887 O 558.252 1.72961 -0.543527 0
M  V30 5888 C 558.3 0.0155745 -3.60597 0
M  V30 5889 O 557.404 1.06546 -3.98399 0
M  V30 5890 H 556.745 -0.0746619 -0.659789 0
M  V30 5891 H 559.275 -0.839283 -1.86594 0
M  V30 5892 H 559.285 0.213364 -4.07442 0
M  V30 5893 H 557.96 -0.938765 -4.05167 0
M  V30 5894 H 556.537 0.844024 -3.63223 0
M  V30 5895 N 558.722 1.53707 -0.348139 0
M  V30 5896 C 559.652 2.28111 0.498766 0
M  V30 5897 C 560.633 1.29851 1.09876 0
M  V30 5898 O 561.818 1.587 1.11928 0
M  V30 5899 C 558.948 3.05735 1.64753 0
M  V30 5900 C 557.902 4.11537 1.17565 0
M  V30 5901 C 557.228 4.77142 2.4133 0
M  V30 5902 C 558.528 5.21587 0.272844 0
M  V30 5903 H 560.222 2.99152 -0.121934 0
M  V30 5904 H 557.768 1.43875 -0.0600842 0
M  V30 5905 H 559.721 3.56526 2.24649 0
M  V30 5906 H 558.445 2.32354 2.2952 0
M  V30 5907 H 557.104 3.61665 0.599483 0
M  V30 5908 H 556.752 4.0035 3.04514 0
M  V30 5909 H 556.452 5.48626 2.10436 0
M  V30 5910 H 557.976 5.30719 3.01943 0
M  V30 5911 H 559.39 5.67986 0.778779 0
M  V30 5912 H 557.787 6.00074 0.0555849 0
M  V30 5913 H 558.857 4.79969 -0.689785 0
M  V30 5914 N 560.2 0.0768682 1.57412 0
M  V30 5915 C 561.148 -0.906229 2.1422 0
M  V30 5916 C 562.142 -1.30477 1.08037 0
M  V30 5917 O 563.348 -1.28143 1.2641 0
M  V30 5918 H 559.723 -0.310207 0.685037 0
M  V30 5919 H 561.694 -0.402228 2.95677 0
M  V30 5920 C 560.443 -2.16245 2.72274 0
M  V30 5921 H 559.766 -1.86463 3.53655 0
M  V30 5922 H 561.206 -2.83134 3.15613 0
M  V30 5923 C 559.665 -2.92437 1.67279 0
M  V30 5924 O 560.195 -3.86322 1.10081 0
M  V30 5925 N 558.401 -2.55637 1.38195 0
M  V30 5926 H 557.948 -1.79363 1.84897 0
M  V30 5927 H 557.906 -3.06919 0.681787 0
M  V30 5928 N 561.678 -1.56367 -0.196722 0
M  V30 5929 C 562.588 -1.97617 -1.2643 0
M  V30 5930 C 563.604 -0.883598 -1.49895 0
M  V30 5931 O 564.78 -1.18921 -1.62541 0
M  V30 5932 C 561.845 -2.30595 -2.58895 0
M  V30 5933 C 560.906 -3.53551 -2.43516 0
M  V30 5934 C 560.139 -3.84946 -3.69665 0
M  V30 5935 O 560.362 -3.17655 -4.73763 0
M  V30 5936 O 559.296 -4.78379 -3.65291 0
M  V30 5937 H 563.122 -2.88648 -0.944233 0
M  V30 5938 H 560.707 -1.43901 -0.401592 0
M  V30 5939 H 562.589 -2.52889 -3.37083 0
M  V30 5940 H 561.264 -1.42732 -2.90533 0
M  V30 5941 H 560.171 -3.36507 -1.63445 0
M  V30 5942 H 561.504 -4.41875 -2.16812 0
M  V30 5943 N 563.156 0.464375 -1.50603 0
M  V30 5944 C 564.403 1.21596 -1.61928 0
M  V30 5945 C 564.731 1.91804 -0.322737 0
M  V30 5946 O 563.986 1.83065 0.691776 0
M  V30 5947 C 564.285 2.278 -2.75394 0
M  V30 5948 C 563.951 1.74797 -4.1564 0
M  V30 5949 C 562.613 1.60063 -4.53799 0
M  V30 5950 C 564.965 1.35548 -5.03266 0
M  V30 5951 C 562.293 1.04514 -5.77316 0
M  V30 5952 C 564.645 0.814381 -6.27336 0
M  V30 5953 C 563.309 0.653726 -6.64291 0
M  V30 5954 H 562.579 0.444951 -0.592536 0
M  V30 5955 H 565.226 0.510964 -1.84557 0
M  V30 5956 H 563.531 3.04233 -2.46879 0
M  V30 5957 H 565.228 2.85723 -2.81359 0
M  V30 5958 H 561.818 1.87234 -3.8554 0
M  V30 5959 H 566.002 1.45763 -4.74412 0
M  V30 5960 H 561.258 0.908186 -6.04617 0
M  V30 5961 H 565.432 0.501626 -6.94591 0
M  V30 5962 H 563.059 0.22114 -7.59878 0
M  V30 5963 N 564.634 1.40294 0.718013 0
M  V30 5964 C 565.862 1.4175 1.50714 0
M  V30 5965 C 566.277 0.0165366 1.88793 0
M  V30 5966 O 565.634 -0.958942 1.55276 0
M  V30 5967 C 565.685 2.30598 2.784 0
M  V30 5968 O 565.406 3.6524 2.41932 0
M  V30 5969 C 566.907 2.4062 3.72313 0
M  V30 5970 H 564.127 0.483565 0.465194 0
M  V30 5971 H 566.671 1.84316 0.885889 0
M  V30 5972 H 564.826 1.91401 3.36815 0
M  V30 5973 H 565.24 4.12402 3.24076 0
M  V30 5974 H 566.714 3.07001 4.58753 0
M  V30 5975 H 567.191 1.4305 4.15251 0
M  V30 5976 H 567.797 2.80359 3.19811 0
M  V30 5977 N 566.112 -0.949982 1.2575 0
M  V30 5978 C 567.361 -1.68956 1.10168 0
M  V30 5979 C 567.674 -1.92327 -0.356309 0
M  V30 5980 O 568.88 -2.64026 -0.632657 0
M  V30 5981 C 567.336 -3.04196 1.92336 0
M  V30 5982 C 566.944 -2.88603 3.42655 0
M  V30 5983 C 568.688 -3.81904 1.85336 0
M  V30 5984 C 566.595 -4.19262 4.17101 0
M  V30 5985 H 565.525 -0.633645 0.408668 0
M  V30 5986 H 568.176 -1.05719 1.49986 0
M  V30 5987 H 566.558 -3.68363 1.45344 0
M  V30 5988 H 567.732 -2.3334 3.97353 0
M  V30 5989 H 566.047 -2.24345 3.50796 0
M  V30 5990 H 568.644 -4.78688 2.38248 0
M  V30 5991 H 568.987 -4.08099 0.822226 0
M  V30 5992 H 569.52 -3.24495 2.30104 0
M  V30 5993 H 566.259 -3.98254 5.20648 0
M  V30 5994 H 565.779 -4.74273 3.67186 0
M  V30 5995 H 567.458 -4.87775 4.25071 0
M  V30 5996 N 567.59 -1.07411 -1.15328 0
M  V30 5997 C 568.818 -0.818782 -1.90009 0
M  V30 5998 C 569.233 0.628072 -1.78047 0
M  V30 5999 O 568.59 1.43085 -1.13282 0
M  V30 6000 C 568.641 -1.21874 -3.40337 0
M  V30 6001 O 568.362 -2.60883 -3.51954 0
M  V30 6002 C 569.863 -0.992796 -4.3204 0
M  V30 6003 H 567.083 -0.296007 -0.60218 0
M  V30 6004 H 569.627 -1.43073 -1.46117 0
M  V30 6005 H 567.782 -0.651103 -3.81889 0
M  V30 6006 H 568.196 -2.77216 -4.45255 0
M  V30 6007 H 569.67 -1.32215 -5.35932 0
M  V30 6008 H 570.147 0.0708331 -4.39143 0
M  V30 6009 H 570.753 -1.54537 -3.9623 0
M  V30 6010 N 569.068 1.32177 -0.85831 0
M  V30 6011 C 570.316 1.96735 -0.462568 0
M  V30 6012 C 570.637 1.6824 0.985911 0
M  V30 6013 O 569.907 0.991564 1.68952 0
M  V30 6014 H 568.487 0.727849 -0.168064 0
M  V30 6015 H 571.149 1.61195 -1.09554 0
M  V30 6016 H 570.245 3.06068 -0.610647 0
M  V30 6017 N 570.547 0.616602 1.45037 0
M  V30 6018 C 571.772 0.120192 2.07051 0
M  V30 6019 C 572.197 -1.19008 1.45666 0
M  V30 6020 O 571.555 -1.7267 0.552692 0
M  V30 6021 C 571.603 0.00354901 3.606 0
M  V30 6022 O 570.707 -1.04431 3.98958 0
M  V30 6023 H 570.048 0.0781599 0.659384 0
M  V30 6024 H 572.578 0.849167 1.86146 0
M  V30 6025 H 572.588 -0.191754 4.07549 0
M  V30 6026 H 571.263 0.960239 4.04663 0
M  V30 6027 H 569.84 -0.824749 3.63665 0
M  V30 6028 N 572.025 -1.5352 0.356285 0
M  V30 6029 C 573.253 -2.05534 -0.237328 0
M  V30 6030 C 573.668 -1.23043 -1.43199 0
M  V30 6031 O 573.025 -0.268821 -1.80509 0
M  V30 6032 C 573.076 -3.55791 -0.639933 0
M  V30 6033 O 572.797 -4.35154 0.507233 0
M  V30 6034 C 574.298 -4.24027 -1.29292 0
M  V30 6035 H 571.518 -0.669585 -0.0435572 0
M  V30 6036 H 574.062 -1.97988 0.511963 0
M  V30 6037 H 572.217 -3.63518 -1.33915 0
M  V30 6038 H 572.631 -5.24178 0.18375 0
M  V30 6039 H 574.105 -5.30509 -1.52527 0
M  V30 6040 H 574.582 -3.77166 -2.25039 0
M  V30 6041 H 575.188 -4.20527 -0.63539 0
M  V30 6042 N 573.503 -0.0852151 -1.57369 0
M  V30 6043 C 574.733 0.588605 -1.98038 0
M  V30 6044 C 575.141 1.62869 -0.962817 0
M  V30 6045 O 574.484 1.83611 0.057134 0
M  V30 6046 C 574.546 1.30303 -3.35054 0
M  V30 6047 C 574.21 0.414855 -4.55113 0
M  V30 6048 C 575.207 -0.333011 -5.18832 0
M  V30 6049 C 572.892 0.335804 -5.01176 0
M  V30 6050 C 574.886 -1.14801 -6.26976 0
M  V30 6051 C 572.573 -0.482857 -6.09189 0
M  V30 6052 C 573.571 -1.22342 -6.71953 0
M  V30 6053 O 573.259 -2.02855 -7.77885 0
M  V30 6054 H 572.991 0.163249 -0.655992 0
M  V30 6055 H 575.545 -0.1582 -2.0479 0
M  V30 6056 H 573.775 2.0962 -3.24956 0
M  V30 6057 H 575.464 1.87041 -3.60237 0
M  V30 6058 H 576.23 -0.281611 -4.84182 0
M  V30 6059 H 572.109 0.901869 -4.52092 0
M  V30 6060 H 575.653 -1.72654 -6.75897 0
M  V30 6061 H 571.55 -0.535773 -6.43273 0
M  V30 6062 H 572.318 -1.95432 -7.94826 0
M  V30 6063 N 574.981 1.5647 0.188427 0
M  V30 6064 C 575.944 1.9421 1.21718 0
M  V30 6065 C 576.944 0.823901 1.38089 0
M  V30 6066 O 578.134 1.09122 1.35787 0
M  V30 6067 C 575.266 2.22197 2.58537 0
M  V30 6068 H 576.459 2.86252 0.894418 0
M  V30 6069 H 574.012 1.50263 0.430211 0
M  V30 6070 H 574.747 1.32814 2.95856 0
M  V30 6071 H 574.532 3.03688 2.48025 0
M  V30 6072 H 576.022 2.52376 3.3271 0
M  V30 6073 N 576.459 -0.456382 1.50847 0
M  V30 6074 C 577.87 -1.03685 1.55262 0
M  V30 6075 C 578.221 -1.92779 0.364771 0
M  V30 6076 O 577.346 -2.10043 -0.52068 0
M  V30 6077 C 577.941 -1.88718 2.81374 0
M  V30 6078 C 576.5 -2.41847 2.88422 0
M  V30 6079 C 575.647 -1.20564 2.49719 0
M  V30 6080 H 578.598 -0.238399 1.56899 0
M  V30 6081 H 578.619 -2.73957 2.6406 0
M  V30 6082 H 578.131 -1.23847 3.67809 0
M  V30 6083 H 576.232 -3.10228 2.06372 0
M  V30 6084 H 576.345 -2.75947 3.9165 0
M  V30 6085 H 574.709 -1.54504 2.02486 0
M  V30 6086 H 575.492 -0.573326 3.38479 0
M  V30 6087 N 577.937 -1.40673 -0.710563 0
M  V30 6088 C 579.186 -1.38525 -1.46607 0
M  V30 6089 C 579.499 0.0077024 -1.95598 0
M  V30 6090 O 580.705 0.151792 -2.71075 0
M  V30 6091 C 579.161 -2.43489 -2.6503 0
M  V30 6092 C 578.769 -3.88619 -2.22888 0
M  V30 6093 C 580.513 -2.50456 -3.42742 0
M  V30 6094 C 578.42 -4.85168 -3.3818 0
M  V30 6095 H 577.35 -0.515092 -0.550632 0
M  V30 6096 H 580.001 -1.66431 -0.772846 0
M  V30 6097 H 578.383 -2.0869 -3.36548 0
M  V30 6098 H 579.557 -4.32588 -1.58758 0
M  V30 6099 H 577.872 -3.85174 -1.58208 0
M  V30 6100 H 580.469 -3.19776 -4.28541 0
M  V30 6101 H 580.812 -1.53665 -3.86902 0
M  V30 6102 H 581.345 -2.84271 -2.78271 0
M  V30 6103 H 578.084 -5.8331 -2.99047 0
M  V30 6104 H 577.604 -4.4586 -4.01209 0
M  V30 6105 H 579.283 -5.05225 -4.04174 0
M  V30 6106 N 579.415 0.9433 -1.26252 0
M  V30 6107 C 580.663 1.68592 -1.11451 0
M  V30 6108 C 580.984 1.91957 0.343123 0
M  V30 6109 O 580.254 1.51475 1.24226 0
M  V30 6110 H 578.834 0.624789 -0.409448 0
M  V30 6111 H 581.496 1.13351 -1.58548 0
M  V30 6112 H 580.592 2.66054 -1.63162 0
M  V30 6113 N 580.893 1.08022 1.14757 0
M  V30 6114 C 581.803 0.718292 2.23333 0
M  V30 6115 C 582.819 -0.273477 1.71837 0
M  V30 6116 O 583.995 -0.118406 2.01052 0
M  V30 6117 C 581.06 0.128855 3.4646 0
M  V30 6118 C 580.121 1.17473 4.12915 0
M  V30 6119 C 579.354 0.61333 5.30164 0
M  V30 6120 O 579.577 -0.568458 5.6756 0
M  V30 6121 O 578.511 1.3615 5.86299 0
M  V30 6122 H 582.337 1.62394 2.56636 0
M  V30 6123 H 579.922 0.853628 1.22611 0
M  V30 6124 H 581.804 -0.197249 4.20938 0
M  V30 6125 H 580.479 -0.750014 3.14891 0
M  V30 6126 H 579.386 1.5533 3.40328 0
M  V30 6127 H 580.719 2.02574 4.48581 0
M  V30 6128 N 582.371 -1.3172 0.865308 0
M  V30 6129 C 583.617 -1.97168 0.474633 0
M  V30 6130 C 583.95 -1.68263 -0.969604 0
M  V30 6131 O 583.225 -0.976588 -1.68205 0
M  V30 6132 C 583.508 -3.52689 0.726808 0
M  V30 6133 C 583.361 -3.91185 2.22024 0
M  V30 6134 C 584.68 -4.39689 0.190201 0
M  V30 6135 H 581.799 -0.716185 0.17392 0
M  V30 6136 H 584.441 -1.55925 1.08569 0
M  V30 6137 H 582.591 -3.8795 0.206705 0
M  V30 6138 H 584.263 -3.66049 2.80724 0
M  V30 6139 H 582.506 -3.3996 2.69462 0
M  V30 6140 H 583.177 -4.99604 2.34735 0
M  V30 6141 H 585.653 -4.11225 0.635103 0
M  V30 6142 H 584.529 -5.47469 0.396132 0
M  V30 6143 H 584.79 -4.32683 -0.907625 0
M  V30 6144 N 583.85 -0.624285 -1.44708 0
M  V30 6145 C 584.8 0.106466 -2.27751 0
M  V30 6146 C 585.784 0.822703 -1.38277 0
M  V30 6147 O 586.976 0.709939 -1.62138 0
M  V30 6148 C 584.105 1.092 -3.25469 0
M  V30 6149 C 583.191 0.375737 -4.22432 0
M  V30 6150 N 583.582 -0.591881 -5.02325 0
M  V30 6151 C 581.88 0.621093 -4.41654 0
M  V30 6152 C 582.581 -1.01443 -5.72786 0
M  V30 6153 N 581.557 -0.354651 -5.42442 0
M  V30 6154 H 585.359 -0.636464 -2.86926 0
M  V30 6155 H 582.873 -0.44925 -1.56062 0
M  V30 6156 H 584.87 1.63006 -3.83712 0
M  V30 6157 H 583.529 1.8353 -2.67856 0
M  V30 6158 H 584.541 -0.969389 -5.08747 0
M  V30 6159 H 581.218 1.34779 -3.95147 0
M  V30 6160 H 582.608 -1.81345 -6.46965 0
M  V30 6161 N 585.328 1.53329 -0.364422 0
M  V30 6162 C 586.275 2.25698 0.482607 0
M  V30 6163 C 587.245 1.26325 1.07848 0
M  V30 6164 O 588.43 1.55104 1.11119 0
M  V30 6165 C 585.57 3.04873 1.61699 0
M  V30 6166 C 584.683 4.19135 1.0464 0
M  V30 6167 C 583.818 4.85754 2.14979 0
M  V30 6168 C 582.857 5.9205 1.5538 0
M  V30 6169 N 581.994 6.52365 2.59547 0
M  V30 6170 H 586.834 2.97666 -0.141032 0
M  V30 6171 H 584.371 1.46875 -0.0813692 0
M  V30 6172 H 586.329 3.49051 2.28516 0
M  V30 6173 H 584.959 2.35162 2.2113 0
M  V30 6174 H 584.011 3.79451 0.268553 0
M  V30 6175 H 585.323 4.95525 0.570653 0
M  V30 6176 H 584.477 5.3311 2.89619 0
M  V30 6177 H 583.216 4.08834 2.65906 0
M  V30 6178 H 582.221 5.44058 0.792549 0
M  V30 6179 H 583.446 6.7089 1.0528 0
M  V30 6180 H 581.392 5.78298 3.09689 0
M  V30 6181 H 581.309 7.2429 2.16655 0
M  V30 6182 H 582.577 7.0437 3.33892 0
M  V30 6183 N 586.806 0.0935595 1.57322 0
M  V30 6184 C 588.083 -0.612692 1.85756 0
M  V30 6185 C 588.463 -1.86439 0.99013 0
M  V30 6186 O 587.811 -2.28416 0.0621362 0
M  V30 6187 C 588.021 -0.929547 3.36393 0
M  V30 6188 C 589.369 -1.29366 4.04413 0
M  V30 6189 O 590.393 -1.02061 3.41265 0
M  V30 6190 O 589.252 -1.80498 5.15832 0
M  V30 6191 H 586.346 -0.306444 0.768128 0
M  V30 6192 H 588.892 0.126141 1.69231 0
M  V30 6193 H 587.664 -0.0414766 3.91278 0
M  V30 6194 H 587.287 -1.72441 3.5826 0
M  V30 6195 N 588.284 -1.56567 -0.180126 0
M  V30 6196 C 589.561 -1.7235 -0.924931 0
M  V30 6197 C 589.941 -0.652523 -2.00762 0
M  V30 6198 O 589.289 0.334115 -2.26044 0
M  V30 6199 C 589.499 -3.1523 -1.49771 0
M  V30 6200 C 590.847 -3.75921 -1.97405 0
M  V30 6201 O 591.871 -3.18452 -1.59583 0
M  V30 6202 O 590.73 -4.7681 -2.67048 0
M  V30 6203 H 587.824 -0.703502 -0.434758 0
M  V30 6204 H 590.37 -1.6886 -0.168647 0
M  V30 6205 H 589.142 -3.84656 -0.718027 0
M  V30 6206 H 588.765 -3.23009 -2.31842 0
M  V30 6207 N 589.762 0.448376 -1.51087 0
M  V30 6208 C 590.709 1.54341 -1.71603 0
M  V30 6209 C 591.679 1.56463 -0.557536 0
M  V30 6210 O 592.864 1.73644 -0.79072 0
M  V30 6211 C 590.004 2.92148 -1.83695 0
M  V30 6212 C 589.117 2.99639 -3.11192 0
M  V30 6213 C 588.252 4.285 -3.13944 0
M  V30 6214 C 587.291 4.29819 -4.35801 0
M  V30 6215 N 586.428 5.50186 -4.36164 0
M  V30 6216 H 591.268 1.36151 -2.65079 0
M  V30 6217 H 588.805 0.661585 -1.31383 0
M  V30 6218 H 590.763 3.72093 -1.88687 0
M  V30 6219 H 589.393 3.0892 -0.936374 0
M  V30 6220 H 588.445 2.12425 -3.15562 0
M  V30 6221 H 589.757 2.96474 -4.01129 0
M  V30 6222 H 588.911 5.16811 -3.17791 0
M  V30 6223 H 587.65 4.34307 -2.21876 0
M  V30 6224 H 586.655 3.39902 -4.32142 0
M  V30 6225 H 587.88 4.25685 -5.29121 0
M  V30 6226 H 585.826 5.56735 -3.46961 0
M  V30 6227 H 585.743 5.48856 -5.19897 0
M  V30 6228 H 587.011 6.40559 -4.44189 0
M  V30 6229 N 591.24 1.41047 0.703093 0
M  V30 6230 C 592.651 1.35657 1.28274 0
M  V30 6231 C 593.002 0.0360309 1.96167 0
M  V30 6232 O 592.127 -0.865833 1.98324 0
M  V30 6233 C 592.722 2.45707 2.33267 0
M  V30 6234 C 591.281 2.43738 2.86825 0
M  V30 6235 C 590.428 2.25941 1.60767 0
M  V30 6236 H 593.379 1.50672 0.49836 0
M  V30 6237 H 593.4 2.14333 3.14391 0
M  V30 6238 H 592.912 3.41805 1.83824 0
M  V30 6239 H 591.013 1.51375 3.40465 0
M  V30 6240 H 591.126 3.39779 3.37768 0
M  V30 6241 H 589.49 1.73681 1.86298 0
M  V30 6242 H 590.273 3.24054 1.1333 0
M  V30 6243 N 592.718 -0.936591 1.26751 0
M  V30 6244 C 593.964 -1.6858 1.12733 0
M  V30 6245 C 594.297 -1.91414 -0.327745 0
M  V30 6246 O 593.572 -1.49812 -1.24043 0
M  V30 6247 C 593.855 -3.05779 1.90187 0
M  V30 6248 C 593.708 -2.90242 3.43627 0
M  V30 6249 C 595.027 -4.0597 1.69931 0
M  V30 6250 H 592.146 -0.61182 0.410908 0
M  V30 6251 H 594.788 -1.08747 1.55801 0
M  V30 6252 H 592.938 -3.56853 1.53584 0
M  V30 6253 H 594.61 -2.46354 3.9001 0
M  V30 6254 H 592.853 -2.2577 3.70419 0
M  V30 6255 H 593.524 -3.87572 3.93055 0
M  V30 6256 H 596 -3.63874 2.0183 0
M  V30 6257 H 594.876 -4.99974 2.26534 0
M  V30 6258 H 595.137 -4.37369 0.64502 0
M  V30 6259 N 594.196 -1.08629 -1.14182 0
M  V30 6260 C 595.144 -0.71284 -2.21408 0
M  V30 6261 C 596.138 0.282457 -1.67029 0
M  V30 6262 O 597.344 0.144783 -1.79417 0
M  V30 6263 H 593.719 -0.212497 -0.721352 0
M  V30 6264 H 595.69 -1.6265 -2.50175 0
M  V30 6265 C 594.439 -0.140704 -3.47415 0
M  V30 6266 H 593.762 -0.897739 -3.8959 0
M  V30 6267 H 595.202 0.0827677 -4.23919 0
M  V30 6268 C 593.661 1.122 -3.17668 0
M  V30 6269 O 594.191 2.20652 -3.35672 0
M  V30 6270 N 592.397 1.03328 -2.71609 0
M  V30 6271 H 591.944 0.150666 -2.57159 0
M  V30 6272 H 591.902 1.8789 -2.52081 0
M  V30 6273 N 595.674 1.31259 -0.872281 0
M  V30 6274 C 596.914 1.98418 -0.490894 0
M  V30 6275 C 597.278 1.67429 0.939755 0
M  V30 6276 O 598.479 2.27818 1.42661 0
M  V30 6277 C 596.75 3.49583 -0.743408 0
M  V30 6278 S 598.309 4.36359 -0.462226 0
M  V30 6279 H 595.127 0.687005 -0.183151 0
M  V30 6280 H 597.729 1.59619 -1.12881 0
M  V30 6281 H 596.433 3.69627 -1.78338 0
M  V30 6282 H 595.964 3.93291 -0.0925758 0
M  V30 6283 H 597.979 4.91173 0.704525 0
M  V30 6284 N 597.152 0.631951 1.44375 0
M  V30 6285 C 598.102 -0.0943862 2.27805 0
M  V30 6286 C 599.086 -0.815359 1.38711 0
M  V30 6287 O 600.278 -0.701331 1.62513 0
M  V30 6288 C 597.407 -1.07472 3.26044 0
M  V30 6289 C 596.493 -0.353329 4.22626 0
M  V30 6290 N 596.884 0.618512 5.02004 0
M  V30 6291 C 595.182 -0.597662 4.41977 0
M  V30 6292 C 595.883 1.0448 5.7224 0
M  V30 6293 N 594.859 0.383413 5.42246 0
M  V30 6294 H 598.661 0.651672 2.86584 0
M  V30 6295 H 596.175 0.45752 1.55822 0
M  V30 6296 H 598.172 -1.60969 3.84571 0
M  V30 6297 H 596.832 -1.82107 2.68825 0
M  V30 6298 H 597.843 0.996356 5.08226 0
M  V30 6299 H 594.52 -1.32682 3.95856 0
M  V30 6300 H 595.91 1.84773 6.45994 0
M  V30 6301 N 598.631 -1.53133 0.372548 0
M  V30 6302 C 599.563 -2.23557 -0.505444 0
M  V30 6303 C 600.576 -1.25211 -1.04049 0
M  V30 6304 O 601.765 -1.51391 -0.945675 0
M  V30 6305 C 598.865 -2.92516 -1.71136 0
M  V30 6306 C 598.038 -4.17428 -1.30661 0
M  V30 6307 C 597.097 -4.69535 -2.37536 0
M  V30 6308 O 596.123 -5.33042 -1.99637 0
M  V30 6309 N 597.325 -4.47947 -3.6922 0
M  V30 6310 H 600.09 -2.9954 0.0978259 0
M  V30 6311 H 597.651 -1.60684 0.198068 0
M  V30 6312 H 599.643 -3.24281 -2.42124 0
M  V30 6313 H 598.213 -2.19944 -2.22134 0
M  V30 6314 H 597.433 -3.91888 -0.426292 0
M  V30 6315 H 598.721 -4.98622 -1.01259 0
M  V30 6316 H 598.119 -3.97219 -4.02783 0
M  V30 6317 H 596.676 -4.84245 -4.36292 0
M  V30 6318 N 600.109 -0.101901 -1.5727 0
M  V30 6319 C 601.339 0.567568 -1.98651 0
M  V30 6320 C 601.747 1.61839 -0.980037 0
M  V30 6321 O 601.09 1.83661 0.0376564 0
M  V30 6322 C 601.152 1.26742 -3.36417 0
M  V30 6323 C 600.816 0.366561 -4.55528 0
M  V30 6324 C 601.813 -0.388022 -5.1845 0
M  V30 6325 C 599.498 0.282629 -5.01504 0
M  V30 6326 C 601.492 -1.21445 -6.25724 0
M  V30 6327 C 599.179 -0.547443 -6.08643 0
M  V30 6328 C 600.177 -1.29462 -6.70618 0
M  V30 6329 O 599.865 -2.11095 -7.7569 0
M  V30 6330 H 599.597 0.156282 -0.657687 0
M  V30 6331 H 602.151 -0.179912 -2.04611 0
M  V30 6332 H 600.381 2.06162 -3.27161 0
M  V30 6333 H 602.07 1.8321 -3.622 0
M  V30 6334 H 602.836 -0.332949 -4.83856 0
M  V30 6335 H 598.715 0.853868 -4.53023 0
M  V30 6336 H 602.259 -1.79814 -6.74027 0
M  V30 6337 H 598.156 -0.603971 -6.42668 0
M  V30 6338 H 598.924 -2.03851 -7.92709 0
M  V30 6339 N 601.587 1.56661 0.17182 0
M  V30 6340 C 602.864 1.72838 0.915778 0
M  V30 6341 C 603.244 0.66316 2.00413 0
M  V30 6342 O 602.592 -0.322123 2.26218 0
M  V30 6343 C 602.802 3.16019 1.48097 0
M  V30 6344 C 604.15 3.76962 1.95408 0
M  V30 6345 O 605.174 3.19294 1.57892 0
M  V30 6346 O 604.033 4.78219 2.64516 0
M  V30 6347 H 601.127 0.705797 0.431021 0
M  V30 6348 H 603.673 1.68947 0.159689 0
M  V30 6349 H 602.445 3.85031 0.697618 0
M  V30 6350 H 602.068 3.24234 2.30126 0
M  V30 6351 N 603.065 -0.440357 1.51323 0
M  V30 6352 C 604.313 -1.18769 1.63518 0
M  V30 6353 C 604.634 -1.91793 0.352201 0
M  V30 6354 O 603.904 -1.85432 -0.631811 0
M  V30 6355 H 602.484 -0.441408 0.602634 0
M  V30 6356 H 605.146 -0.505162 1.8824 0
M  V30 6357 H 604.242 -1.91892 2.46138 0
M  V30 6358 N 604.543 -1.41418 -0.695603 0
M  V30 6359 C 605.473 -1.46035 -1.82197 0
M  V30 6360 C 606.454 -0.319025 -1.67082 0
M  V30 6361 O 607.639 -0.530462 -1.86815 0
M  V30 6362 C 604.769 -1.34179 -3.20333 0
M  V30 6363 C 603.723 -2.46123 -3.50154 0
M  V30 6364 C 603.049 -2.19332 -4.87645 0
M  V30 6365 C 604.349 -3.88463 -3.49133 0
M  V30 6366 H 606.043 -2.40303 -1.78591 0
M  V30 6367 H 603.589 -1.15663 -0.857797 0
M  V30 6368 H 605.542 -1.36021 -3.98844 0
M  V30 6369 H 604.266 -0.363952 -3.24566 0
M  V30 6370 H 602.925 -2.43563 -2.73994 0
M  V30 6371 H 602.573 -1.19891 -4.88503 0
M  V30 6372 H 602.273 -2.94344 -5.08562 0
M  V30 6373 H 603.797 -2.22889 -5.68465 0
M  V30 6374 H 605.211 -3.92738 -4.17648 0
M  V30 6375 H 603.608 -4.63158 -3.81582 0
M  V30 6376 H 604.678 -4.16617 -2.48109 0
M  V30 6377 N 606.021 0.929856 -1.27246 0
M  V30 6378 C 607.267 1.6798 -1.13625 0
M  V30 6379 C 607.6 1.91586 0.317589 0
M  V30 6380 O 606.875 1.50467 1.23247 0
M  V30 6381 C 607.158 3.04766 -1.91806 0
M  V30 6382 C 607.011 2.88415 -3.45162 0
M  V30 6383 C 608.33 4.05063 -1.72082 0
M  V30 6384 H 605.449 0.609632 -0.414147 0
M  V30 6385 H 608.091 1.0792 -1.56376 0
M  V30 6386 H 606.241 3.56034 -1.55474 0
M  V30 6387 H 607.913 2.44282 -3.91311 0
M  V30 6388 H 606.156 2.23802 -3.71611 0
M  V30 6389 H 606.827 3.85482 -3.95105 0
M  V30 6390 H 609.303 3.62798 -2.03757 0
M  V30 6391 H 608.179 4.98765 -2.29182 0
M  V30 6392 H 608.44 4.37021 -0.668206 0
M  V30 6393 N 607.499 1.09233 1.13605 0
M  V30 6394 C 608.409 0.741939 2.22559 0
M  V30 6395 C 609.425 -0.255236 1.72118 0
M  V30 6396 O 610.601 -0.0970747 2.01166 0
M  V30 6397 C 607.666 0.165595 3.46304 0
M  V30 6398 C 606.727 1.21846 4.11645 0
M  V30 6399 C 605.96 0.669526 5.29484 0
M  V30 6400 O 606.183 -0.508228 5.68131 0
M  V30 6401 O 605.117 1.42361 5.84822 0
M  V30 6402 H 608.943 1.65107 2.54899 0
M  V30 6403 H 606.528 0.866584 1.21699 0
M  V30 6404 H 608.41 -0.152592 4.21124 0
M  V30 6405 H 607.085 -0.716573 3.15669 0
M  V30 6406 H 605.992 1.58931 3.38662 0
M  V30 6407 H 607.325 2.07321 4.46407 0
M  V30 6408 N 608.977 -1.30795 0.87923 0
M  V30 6409 C 609.907 -2.30742 0.357796 0
M  V30 6410 C 610.888 -1.60747 -0.556283 0
M  V30 6411 O 612.073 -1.88393 -0.47135 0
M  V30 6412 C 609.203 -3.44583 -0.433555 0
M  V30 6413 C 608.157 -4.26235 0.388251 0
M  V30 6414 C 607.483 -5.32073 -0.529352 0
M  V30 6415 C 608.783 -4.96303 1.62729 0
M  V30 6416 H 610.477 -2.74605 1.19299 0
M  V30 6417 H 608.023 -1.32017 0.575104 0
M  V30 6418 H 609.976 -4.13563 -0.808934 0
M  V30 6419 H 608.7 -2.99511 -1.30234 0
M  V30 6420 H 607.359 -3.58936 0.745695 0
M  V30 6421 H 607.007 -4.83249 -1.39569 0
M  V30 6422 H 606.707 -5.87598 0.0166741 0
M  V30 6423 H 608.231 -6.0391 -0.901373 0
M  V30 6424 H 609.645 -5.5783 1.32283 0
M  V30 6425 H 608.042 -5.61666 2.11309 0
M  V30 6426 H 609.112 -4.22758 2.37494 0
M  V30 6427 N 610.455 -0.639598 -1.44038 0
M  V30 6428 C 611.418 0.0506628 -2.29144 0
M  V30 6429 C 612.418 0.764001 -1.41491 0
M  V30 6430 O 613.608 0.607309 -1.63271 0
M  V30 6431 C 610.74 1.0824 -3.2326 0
M  V30 6432 H 611.933 -0.697987 -2.91664 0
M  V30 6433 H 609.486 -0.400146 -1.51091 0
M  V30 6434 H 610.221 1.86075 -2.65606 0
M  V30 6435 H 610.006 0.574725 -3.87865 0
M  V30 6436 H 611.496 1.56487 -3.87171 0
M  V30 6437 N 611.933 1.52934 -0.380664 0
M  V30 6438 C 613.161 2.05886 0.204599 0
M  V30 6439 C 613.576 1.25305 1.41223 0
M  V30 6440 O 612.933 0.297504 1.80059 0
M  V30 6441 C 612.984 3.56764 0.583249 0
M  V30 6442 O 612.705 4.34292 -0.576398 0
M  V30 6443 C 614.206 4.2603 1.2253 0
M  V30 6444 H 611.426 0.670193 0.0328991 0
M  V30 6445 H 613.97 1.97148 -0.543397 0
M  V30 6446 H 612.125 3.65603 1.28115 0
M  V30 6447 H 612.539 5.23819 -0.267119 0
M  V30 6448 H 614.013 5.32868 1.44068 0
M  V30 6449 H 614.49 3.80698 2.19011 0
M  V30 6450 H 615.096 4.21485 0.568407 0
M  V30 6451 N 613.412 0.11024 1.57214 0
M  V30 6452 C 614.661 -0.549638 1.94067 0
M  V30 6453 C 614.974 -1.68388 0.995234 0
M  V30 6454 O 616.18 -2.40593 1.25807 0
M  V30 6455 C 614.636 -1.02912 3.44873 0
M  V30 6456 C 614.244 0.0761861 4.47935 0
M  V30 6457 C 615.988 -1.66087 3.9066 0
M  V30 6458 C 613.895 -0.419502 5.8991 0
M  V30 6459 H 612.825 -0.209092 0.724428 0
M  V30 6460 H 615.476 0.188683 1.82527 0
M  V30 6461 H 613.858 -1.82159 3.51616 0
M  V30 6462 H 615.032 0.852185 4.52851 0
M  V30 6463 H 613.347 0.614052 4.11847 0
M  V30 6464 H 615.944 -2.04272 4.94143 0
M  V30 6465 H 616.287 -2.53591 3.30148 0
M  V30 6466 H 616.82 -0.933959 3.86681 0
M  V30 6467 H 613.559 0.419277 6.54158 0
M  V30 6468 H 613.079 -1.16217 5.88433 0
M  V30 6469 H 614.758 -0.883577 6.40938 0
M  V30 6470 N 614.89 -1.56749 -0.16351 0
M  V30 6471 C 616.13 -1.84234 -0.885271 0
M  V30 6472 C 616.494 -0.692259 -1.79086 0
M  V30 6473 O 617.695 -0.847747 -2.55082 0
M  V30 6474 C 615.966 -3.16857 -1.65337 0
M  V30 6475 S 617.525 -3.65848 -2.42282 0
M  V30 6476 H 614.343 -0.646293 -0.296354 0
M  V30 6477 H 616.945 -1.94951 -0.146365 0
M  V30 6478 H 615.649 -3.98546 -0.979266 0
M  V30 6479 H 615.18 -3.09102 -2.4335 0
M  V30 6480 H 617.195 -3.33796 -3.67143 0
M  V30 6481 N 616.368 0.432326 -1.51554 0
M  V30 6482 C 617.331 1.50765 -1.72634 0
M  V30 6483 C 618.331 1.49334 -0.596314 0
M  V30 6484 O 619.521 1.51268 -0.863925 0
M  V30 6485 C 616.653 2.90284 -1.7874 0
M  V30 6486 H 617.846 1.33377 -2.68609 0
M  V30 6487 H 615.399 0.661329 -1.4162 0
M  V30 6488 H 616.134 3.13071 -0.845977 0
M  V30 6489 H 615.919 2.92727 -2.6087 0
M  V30 6490 H 617.409 3.68282 -1.96871 0
M  V30 6491 N 617.846 1.41785 0.688094 0
M  V30 6492 C 618.776 1.47 1.8142 0
M  V30 6493 C 619.757 0.327881 1.6691 0
M  V30 6494 O 620.942 0.540362 1.86531 0
M  V30 6495 C 618.072 1.35876 3.19617 0
M  V30 6496 C 617.026 2.47976 3.48844 0
M  V30 6497 C 616.352 2.21915 4.86475 0
M  V30 6498 C 617.652 3.90309 3.47068 0
M  V30 6499 H 619.346 2.41247 1.77314 0
M  V30 6500 H 616.892 1.16116 0.851651 0
M  V30 6501 H 618.845 1.38134 3.98117 0
M  V30 6502 H 617.569 0.38116 3.24368 0
M  V30 6503 H 616.228 2.45013 2.72698 0
M  V30 6504 H 615.876 1.2248 4.8786 0
M  V30 6505 H 615.576 2.97037 5.06994 0
M  V30 6506 H 617.1 2.25901 5.67275 0
M  V30 6507 H 618.514 3.94947 4.1556 0
M  V30 6508 H 616.911 4.65175 3.7912 0
M  V30 6509 H 617.981 4.17927 2.45896 0
M  V30 6510 N 619.324 -0.923095 1.27737 0
M  V30 6511 C 620.564 -1.6858 1.15586 0
M  V30 6512 C 620.928 -1.89758 -0.292562 0
M  V30 6513 O 622.129 -2.6339 -0.536583 0
M  V30 6514 C 620.4 -3.01275 1.92271 0
M  V30 6515 S 621.959 -3.924 1.96387 0
M  V30 6516 H 618.777 -0.579069 0.412554 0
M  V30 6517 H 621.379 -1.09866 1.61709 0
M  V30 6518 H 620.083 -2.83556 2.96689 0
M  V30 6519 H 619.614 -3.6504 1.46661 0
M  V30 6520 H 621.629 -4.84667 1.06361 0
M  V30 6521 N 620.802 -1.09834 -1.13024 0
M  V30 6522 C 621.75 -0.736283 -2.20639 0
M  V30 6523 C 622.744 0.264725 -1.67319 0
M  V30 6524 O 623.95 0.125745 -1.7956 0
M  V30 6525 H 620.325 -0.220136 -0.719058 0
M  V30 6526 H 622.296 -1.65295 -2.48436 0
M  V30 6527 C 621.045 -0.177544 -3.47246 0
M  V30 6528 H 620.368 -0.939009 -3.88616 0
M  V30 6529 H 621.808 0.0378007 -4.23983 0
M  V30 6530 C 620.267 1.08824 -3.1884 0
M  V30 6531 O 620.797 2.1708 -3.37993 0
M  V30 6532 N 619.003 1.00442 -2.7269 0
M  V30 6533 H 618.55 0.123383 -2.57304 0
M  V30 6534 H 618.508 1.85206 -2.5406 0
M  V30 6535 N 622.28 1.30327 -0.886154 0
M  V30 6536 C 623.557 1.90922 -0.425217 0
M  V30 6537 C 623.937 1.80533 1.09413 0
M  V30 6538 O 623.285 1.2233 1.92996 0
M  V30 6539 C 623.495 3.36529 -0.924638 0
M  V30 6540 C 624.843 4.13598 -0.960305 0
M  V30 6541 O 625.867 3.45377 -0.871382 0
M  V30 6542 O 624.726 5.35482 -1.09184 0
M  V30 6543 H 621.82 0.81668 -0.130238 0
M  V30 6544 H 624.366 1.38886 -0.975132 0
M  V30 6545 H 623.138 3.38181 -1.96849 0
M  V30 6546 H 622.761 3.96021 -0.353955 0
M  V30 6547 N 623.758 0.647228 1.43697 0
M  V30 6548 C 624.983 0.164083 2.0675 0
M  V30 6549 C 625.408 -1.15892 1.48158 0
M  V30 6550 O 624.766 -1.71459 0.589194 0
M  V30 6551 C 624.814 0.0800368 3.60511 0
M  V30 6552 O 623.918 -0.959453 4.01084 0
M  V30 6553 H 623.259 0.0921288 0.657578 0
M  V30 6554 H 625.789 0.88846 1.84303 0
M  V30 6555 H 625.799 -0.105263 4.07864 0
M  V30 6556 H 624.474 1.04586 4.02535 0
M  V30 6557 H 623.051 -0.747425 3.65333 0
M  V30 6558 N 625.236 -1.5273 0.388769 0
M  V30 6559 C 626.199 -2.25043 -0.434544 0
M  V30 6560 C 627.199 -1.26661 -0.990644 0
M  V30 6561 O 628.389 -1.50762 -0.872731 0
M  V30 6562 C 625.521 -3.00507 -1.60961 0
M  V30 6563 H 626.714 -2.99242 0.198549 0
M  V30 6564 H 624.267 -1.55664 0.140875 0
M  V30 6565 H 625.002 -2.30607 -2.28015 0
M  V30 6566 H 624.787 -3.72716 -1.21757 0
M  V30 6567 H 626.277 -3.55413 -2.19251 0
M  V30 6568 N 626.714 -0.118576 -1.57153 0
M  V30 6569 C 627.644 0.828436 -2.1831 0
M  V30 6570 C 628.625 1.27758 -1.12303 0
M  V30 6571 O 629.81 1.34026 -1.40537 0
M  V30 6572 C 626.94 2.07876 -2.78217 0
M  V30 6573 C 625.894 1.76742 -3.89803 0
M  V30 6574 C 625.22 3.08801 -4.36516 0
M  V30 6575 C 626.52 1.03606 -5.11921 0
M  V30 6576 H 628.214 0.318824 -2.97698 0
M  V30 6577 H 625.76 0.151911 -1.43196 0
M  V30 6578 H 627.713 2.74584 -3.19659 0
M  V30 6579 H 626.437 2.61161 -1.96118 0
M  V30 6580 H 625.096 1.12424 -3.48936 0
M  V30 6581 H 624.744 3.6002 -3.51276 0
M  V30 6582 H 624.444 2.88743 -5.11763 0
M  V30 6583 H 625.968 3.76627 -4.80608 0
M  V30 6584 H 627.382 1.60467 -5.50385 0
M  V30 6585 H 625.779 0.936454 -5.92748 0
M  V30 6586 H 626.849 0.0227421 -4.84895 0
M  V30 6587 N 628.193 1.56834 0.155195 0
M  V30 6588 C 629.47 1.73799 0.897395 0
M  V30 6589 C 629.85 0.684379 1.99698 0
M  V30 6590 O 629.198 -0.298111 2.26547 0
M  V30 6591 C 629.408 3.17572 1.44737 0
M  V30 6592 C 630.756 3.79014 1.91399 0
M  V30 6593 O 631.78 3.20951 1.54496 0
M  V30 6594 O 630.639 4.80998 2.59429 0
M  V30 6595 H 627.733 0.710329 0.423511 0
M  V30 6596 H 630.279 1.69107 0.141761 0
M  V30 6597 H 629.051 3.85749 0.656741 0
M  V30 6598 H 628.674 3.26657 2.26674 0
M  V30 6599 N 629.671 -0.424282 1.51781 0
M  V30 6600 C 630.901 -1.19297 1.68677 0
M  V30 6601 C 631.309 -1.85152 0.389258 0
M  V30 6602 O 630.652 -1.72067 -0.643311 0
M  V30 6603 C 630.714 -2.30929 2.75521 0
M  V30 6604 C 630.378 -1.85335 4.17732 0
M  V30 6605 C 631.375 -1.34951 5.0208 0
M  V30 6606 C 629.06 -1.92629 4.63896 0
M  V30 6607 C 631.054 -0.924636 6.30658 0
M  V30 6608 C 628.741 -1.49754 5.92467 0
M  V30 6609 C 629.739 -0.997543 6.75676 0
M  V30 6610 O 629.427 -0.57492 8.01842 0
M  V30 6611 H 629.159 -0.36512 0.568914 0
M  V30 6612 H 631.713 -0.507327 1.99036 0
M  V30 6613 H 629.943 -3.02811 2.40505 0
M  V30 6614 H 631.632 -2.92748 2.81165 0
M  V30 6615 H 632.398 -1.287 4.67612 0
M  V30 6616 H 628.277 -2.30491 3.99243 0
M  V30 6617 H 631.821 -0.533682 6.95556 0
M  V30 6618 H 627.718 -1.55679 6.26446 0
M  V30 6619 H 628.486 -0.699597 8.15505 0
M  V30 6620 N 631.149 -1.42148 -0.680565 0
M  V30 6621 C 632.097 -1.45401 -1.81552 0
M  V30 6622 C 633.091 -0.33036 -1.66147 0
M  V30 6623 O 634.297 -0.503103 -1.72826 0
M  V30 6624 H 630.672 -0.455265 -0.59853 0
M  V30 6625 H 632.643 -2.41024 -1.75926 0
M  V30 6626 C 631.392 -1.36769 -3.19671 0
M  V30 6627 H 630.715 -2.22525 -3.32149 0
M  V30 6628 H 632.155 -1.43106 -3.9912 0
M  V30 6629 C 630.614 -0.0817752 -3.36801 0
M  V30 6630 O 631.144 0.867707 -3.92216 0
M  V30 6631 N 629.35 -0.000799811 -2.906 0
M  V30 6632 H 628.897 -0.774231 -2.4569 0
M  V30 6633 H 628.855 0.858961 -3.02439 0
M  V30 6634 N 632.627 0.916307 -1.28225 0
M  V30 6635 C 633.537 2.05165 -1.13775 0
M  V30 6636 C 634.553 1.73879 -0.0649418 0
M  V30 6637 O 635.729 1.99531 -0.273722 0
M  V30 6638 C 632.794 3.37385 -0.798267 0
M  V30 6639 C 631.855 3.82296 -1.95316 0
M  V30 6640 C 631.088 5.08206 -1.62978 0
M  V30 6641 O 631.311 5.6781 -0.542948 0
M  V30 6642 O 630.245 5.48768 -2.47261 0
M  V30 6643 H 634.071 2.20273 -2.09078 0
M  V30 6644 H 631.656 1.0373 -1.07519 0
M  V30 6645 H 633.538 4.16773 -0.62278 0
M  V30 6646 H 632.213 3.23458 0.125139 0
M  V30 6647 H 631.12 3.03746 -2.18378 0
M  V30 6648 H 632.453 4.00782 -2.85718 0
M  V30 6649 N 634.105 1.10431 1.1244 0
M  V30 6650 C 635.068 0.756542 2.16354 0
M  V30 6651 C 636.068 -0.21899 1.59302 0
M  V30 6652 O 637.258 0.00415969 1.742 0
M  V30 6653 C 634.39 0.120612 3.40687 0
M  V30 6654 H 635.583 1.67696 2.48632 0
M  V30 6655 H 633.136 0.904832 1.27446 0
M  V30 6656 H 633.871 -0.810536 3.14008 0
M  V30 6657 H 633.656 0.822693 3.83372 0
M  V30 6658 H 635.146 -0.106945 4.17463 0
M  V30 6659 N 635.583 -1.29855 0.893053 0
M  V30 6660 C 636.53 -2.27909 0.364161 0
M  V30 6661 C 637.5 -1.56726 -0.550093 0
M  V30 6662 O 638.685 -1.84747 -0.47677 0
M  V30 6663 C 635.825 -3.42678 -0.408178 0
M  V30 6664 C 634.938 -4.28659 0.536212 0
M  V30 6665 C 634.073 -5.30599 -0.252521 0
M  V30 6666 C 633.112 -6.08234 0.686822 0
M  V30 6667 N 632.249 -7.02068 -0.0670902 0
M  V30 6668 H 637.089 -2.72531 1.20544 0
M  V30 6669 H 634.626 -1.34047 0.605779 0
M  V30 6670 H 636.584 -4.07986 -0.871962 0
M  V30 6671 H 635.214 -2.99103 -1.21397 0
M  V30 6672 H 634.266 -3.63584 1.1185 0
M  V30 6673 H 635.578 -4.8274 1.25552 0
M  V30 6674 H 634.732 -6.01694 -0.777801 0
M  V30 6675 H 633.471 -4.77233 -1.005 0
M  V30 6676 H 632.476 -5.3601 1.22366 0
M  V30 6677 H 633.701 -6.63689 1.43852 0
M  V30 6678 H 631.647 -6.5108 -0.801955 0
M  V30 6679 H 631.564 -7.53675 0.59243 0
M  V30 6680 H 632.832 -7.77392 -0.572851 0
M  V30 6681 N 637.061 -0.65484 -1.43351 0
M  V30 6682 C 638.309 -0.168559 -2.01396 0
M  V30 6683 C 638.63 1.22235 -1.51933 0
M  V30 6684 O 637.9 1.81685 -0.732627 0
M  V30 6685 H 636.48 -0.0593244 -0.744641 0
M  V30 6686 H 639.142 -0.846871 -1.75539 0
M  V30 6687 H 638.238 -0.154428 -3.11718 0
M  V30 6688 N 638.539 1.52521 -0.396863 0
M  V30 6689 C 639.785 2.01971 0.183169 0
M  V30 6690 C 640.118 1.2825 1.45827 0
M  V30 6691 O 639.393 0.385179 1.90648 0
M  V30 6692 C 639.676 3.5736 0.443391 0
M  V30 6693 C 639.529 4.41743 -0.84753 0
M  V30 6694 C 640.848 4.22539 1.2308 0
M  V30 6695 H 637.967 0.734119 0.0650976 0
M  V30 6696 H 640.609 1.82519 -0.527918 0
M  V30 6697 H 638.759 3.74066 1.04914 0
M  V30 6698 H 640.431 4.36773 -1.48414 0
M  V30 6699 H 638.674 4.0845 -1.4612 0
M  V30 6700 H 639.345 5.48507 -0.620003 0
M  V30 6701 H 641.821 4.09857 0.718084 0
M  V30 6702 H 640.697 5.31227 1.38162 0
M  V30 6703 H 640.958 3.80675 2.24808 0
M  V30 6704 N 640.017 0.126909 1.57088 0
M  V30 6705 C 641.247 -0.535892 1.99529 0
M  V30 6706 C 641.655 -1.60259 1.00566 0
M  V30 6707 O 640.998 -1.83698 -0.00843269 0
M  V30 6708 C 641.06 -1.21374 3.38391 0
M  V30 6709 C 640.724 -0.294044 4.56053 0
M  V30 6710 C 641.721 0.470454 5.17767 0
M  V30 6711 C 639.406 -0.202808 5.0189 0
M  V30 6712 C 641.4 1.31384 6.23712 0
M  V30 6713 C 639.087 0.644203 6.07695 0
M  V30 6714 C 640.085 1.40115 6.68473 0
M  V30 6715 O 639.773 2.23408 7.72233 0
M  V30 6716 H 639.505 -0.145799 0.66009 0
M  V30 6717 H 642.059 0.212441 2.04298 0
M  V30 6718 H 640.289 -2.00931 3.30399 0
M  V30 6719 H 641.978 -1.77424 3.65069 0
M  V30 6720 H 642.744 0.409884 4.83265 0
M  V30 6721 H 638.623 -0.781688 4.54324 0
M  V30 6722 H 642.167 1.90514 6.71081 0
M  V30 6723 H 638.064 0.706137 6.41626 0
M  V30 6724 H 638.832 2.16436 7.89365 0
M  V30 6725 N 641.495 -1.56914 -0.146875 0
M  V30 6726 C 642.405 -2.0154 -1.20079 0
M  V30 6727 C 643.421 -0.930838 -1.47008 0
M  V30 6728 O 644.597 -1.24032 -1.58676 0
M  V30 6729 C 641.662 -2.38715 -2.51428 0
M  V30 6730 C 640.723 -3.6112 -2.32145 0
M  V30 6731 C 639.956 -3.96512 -3.57231 0
M  V30 6732 O 640.179 -3.32566 -4.63418 0
M  V30 6733 O 639.113 -4.89758 -3.49887 0
M  V30 6734 H 642.939 -2.91506 -0.851924 0
M  V30 6735 H 640.524 -1.45106 -0.355607 0
M  V30 6736 H 642.406 -2.63485 -3.28867 0
M  V30 6737 H 641.081 -1.51903 -2.85845 0
M  V30 6738 H 639.988 -3.41536 -1.52656 0
M  V30 6739 H 641.321 -4.48549 -2.02644 0
M  V30 6740 N 642.974 0.416227 -1.52004 0
M  V30 6741 C 643.921 1.50666 -1.74838 0
M  V30 6742 C 644.891 1.55245 -0.590599 0
M  V30 6743 O 646.076 1.71928 -0.827374 0
M  V30 6744 C 643.216 2.88185 -1.89851 0
M  V30 6745 C 642.329 2.92971 -3.17478 0
M  V30 6746 C 641.464 4.21745 -3.22962 0
M  V30 6747 C 640.503 4.20478 -4.4482 0
M  V30 6748 N 639.64 5.40811 -4.47736 0
M  V30 6749 H 644.48 1.30498 -2.67907 0
M  V30 6750 H 642.017 0.633568 -1.32757 0
M  V30 6751 H 643.975 3.68007 -1.96537 0
M  V30 6752 H 642.605 3.06865 -1.00169 0
M  V30 6753 H 641.657 2.05684 -3.19997 0
M  V30 6754 H 642.969 2.87899 -4.07328 0
M  V30 6755 H 642.123 5.09954 -3.28682 0
M  V30 6756 H 640.862 4.29503 -2.31038 0
M  V30 6757 H 639.867 3.30659 -4.39254 0
M  V30 6758 H 641.092 4.14366 -5.38031 0
M  V30 6759 H 639.038 5.4925 -3.58692 0
M  V30 6760 H 638.955 5.37705 -5.31422 0
M  V30 6761 H 640.223 6.30993 -4.57676 0
M  V30 6762 N 644.452 1.42507 0.673017 0
M  V30 6763 C 645.698 1.43284 1.43519 0
M  V30 6764 C 646.031 0.049668 1.94136 0
M  V30 6765 O 645.306 -0.926369 1.71022 0
M  V30 6766 C 645.589 2.45874 2.63093 0
M  V30 6767 C 645.442 3.93388 2.18096 0
M  V30 6768 C 646.761 2.45431 3.6531 0
M  V30 6769 H 643.88 0.521752 0.520522 0
M  V30 6770 H 646.522 1.73932 0.764701 0
M  V30 6771 H 644.672 2.19869 3.20296 0
M  V30 6772 H 646.344 4.30379 1.66046 0
M  V30 6773 H 644.587 4.07169 1.49652 0
M  V30 6774 H 645.258 4.60752 3.03993 0
M  V30 6775 H 647.734 2.68561 3.17827 0
M  V30 6776 H 646.61 3.19189 4.46553 0
M  V30 6777 H 646.871 1.48092 4.16559 0
M  V30 6778 N 645.93 -0.909495 1.28709 0
M  V30 6779 C 647.178 -1.65577 1.15882 0
M  V30 6780 C 647.499 -1.928 -0.292108 0
M  V30 6781 O 646.769 -1.54716 -1.20166 0
M  V30 6782 H 645.349 -0.613714 0.425869 0
M  V30 6783 H 648.011 -1.09108 1.61498 0
M  V30 6784 H 647.107 -2.61634 1.70159 0
M  V30 6785 N 647.408 -1.11026 -1.11852 0
M  V30 6786 C 648.318 -0.777252 -2.2135 0
M  V30 6787 C 649.334 0.227821 -1.72502 0
M  V30 6788 O 650.51 0.0650587 -2.01295 0
M  V30 6789 C 647.575 -0.220668 -3.45997 0
M  V30 6790 C 646.636 -1.2838 -4.09655 0
M  V30 6791 C 645.869 -0.753678 -5.28352 0
M  V30 6792 O 646.092 0.417779 -5.68868 0
M  V30 6793 O 645.026 -1.51647 -5.82483 0
M  V30 6794 H 648.852 -1.69141 -2.5224 0
M  V30 6795 H 646.437 -0.885836 -1.20305 0
M  V30 6796 H 648.319 0.0855756 -4.21313 0
M  V30 6797 H 646.994 0.666262 -3.16769 0
M  V30 6798 H 645.901 -1.64299 -3.3609 0
M  V30 6799 H 647.234 -2.14396 -4.43052 0
M  V30 6800 N 648.886 1.2938 -0.899927 0
M  V30 6801 C 649.849 2.25983 -0.382677 0
M  V30 6802 C 650.849 1.53366 0.483259 0
M  V30 6803 O 652.039 1.71798 0.28828 0
M  V30 6804 C 649.171 3.37878 0.452915 0
M  V30 6805 H 650.364 2.73252 -1.23586 0
M  V30 6806 H 647.917 1.40825 -0.678088 0
M  V30 6807 H 648.652 2.95949 1.32608 0
M  V30 6808 H 648.437 3.91742 -0.167562 0
M  V30 6809 H 649.927 4.09746 0.806107 0
M  V30 6810 N 650.364 0.662433 1.43002 0
M  V30 6811 C 651.592 0.187615 2.06048 0
M  V30 6812 C 652.007 -1.15039 1.49705 0
M  V30 6813 O 651.364 -1.71209 0.631956 0
M  V30 6814 C 651.415 0.100498 3.6136 0
M  V30 6815 O 651.136 1.38562 4.15611 0
M  V30 6816 C 652.637 -0.399298 4.41498 0
M  V30 6817 H 649.857 0.0941675 0.664359 0
M  V30 6818 H 652.401 0.905681 1.83351 0
M  V30 6819 H 650.556 -0.568181 3.83211 0
M  V30 6820 H 650.97 1.25084 5.09366 0
M  V30 6821 H 652.444 -0.409187 5.50481 0
M  V30 6822 H 652.921 -1.43232 4.15188 0
M  V30 6823 H 653.527 0.23721 4.24638 0
M  V30 6824 N 651.842 -1.52309 0.404946 0
M  V30 6825 C 652.752 -2.30634 -0.429555 0
M  V30 6826 C 653.768 -1.38187 -1.05737 0
M  V30 6827 O 654.944 -1.71261 -1.05979 0
M  V30 6828 C 652.009 -3.10947 -1.53339 0
M  V30 6829 C 651.07 -4.19126 -0.929065 0
M  V30 6830 C 650.303 -4.95601 -1.9803 0
M  V30 6831 O 650.526 -4.72331 -3.1978 0
M  V30 6832 O 649.46 -5.80551 -1.58886 0
M  V30 6833 H 653.286 -3.0298 0.208963 0
M  V30 6834 H 650.871 -1.4845 0.168255 0
M  V30 6835 H 652.753 -3.60974 -2.1743 0
M  V30 6836 H 651.428 -2.41399 -2.15658 0
M  V30 6837 H 650.335 -3.73257 -0.250982 0
M  V30 6838 H 651.668 -4.90955 -0.349855 0
M  V30 6839 N 653.32 -0.135238 -1.57019 0
M  V30 6840 C 654.548 0.526066 -2.001 0
M  V30 6841 C 654.963 1.59184 -1.01519 0
M  V30 6842 O 654.32 1.82497 -0.0104258 0
M  V30 6843 C 654.371 1.13744 -3.43139 0
M  V30 6844 O 654.092 0.114259 -4.37951 0
M  V30 6845 C 655.593 1.8805 -4.01438 0
M  V30 6846 H 652.813 0.137962 -0.656664 0
M  V30 6847 H 655.357 -0.226359 -2.03243 0
M  V30 6848 H 653.512 1.84056 -3.40885 0
M  V30 6849 H 653.926 0.56058 -5.21496 0
M  V30 6850 H 655.4 2.26133 -5.03555 0
M  V30 6851 H 655.877 2.76194 -3.41487 0
M  V30 6852 H 656.483 1.22464 -4.07287 0
M  V30 6853 N 654.798 1.5699 0.138552 0
M  V30 6854 C 655.761 1.97984 1.15478 0
M  V30 6855 C 656.761 0.867416 1.35398 0
M  V30 6856 O 657.951 1.13387 1.32246 0
M  V30 6857 C 655.083 2.3031 2.51337 0
M  V30 6858 H 656.276 2.88953 0.802896 0
M  V30 6859 H 653.829 1.51555 0.382189 0
M  V30 6860 H 654.564 1.42159 2.91481 0
M  V30 6861 H 654.349 3.11425 2.38237 0
M  V30 6862 H 655.839 2.62834 3.24512 0
M  V30 6863 N 656.276 -0.40816 1.52223 0
M  V30 6864 C 657.206 -1.5042 1.78595 0
M  V30 6865 C 658.187 -1.57723 0.636974 0
M  V30 6866 O 659.372 -1.72982 0.882664 0
M  V30 6867 C 656.502 -2.88232 1.93751 0
M  V30 6868 C 655.456 -2.95779 3.09352 0
M  V30 6869 C 654.782 -4.35855 3.09732 0
M  V30 6870 C 656.082 -2.67175 4.48793 0
M  V30 6871 H 657.776 -1.28601 2.70374 0
M  V30 6872 H 655.322 -0.617221 1.30101 0
M  V30 6873 H 657.275 -3.64895 2.10783 0
M  V30 6874 H 655.999 -3.11347 0.986443 0
M  V30 6875 H 654.658 -2.21561 2.92072 0
M  V30 6876 H 654.306 -4.55981 2.12346 0
M  V30 6877 H 654.006 -4.41829 3.87377 0
M  V30 6878 H 655.53 -5.14451 3.28895 0
M  V30 6879 H 656.944 -3.3356 4.66273 0
M  V30 6880 H 655.341 -2.84523 5.28362 0
M  V30 6881 H 656.411 -1.62609 4.56822 0
M  V30 6882 N 657.755 -1.42862 -0.66545 0
M  V30 6883 C 658.983 -1.47246 -1.45349 0
M  V30 6884 C 659.398 -0.0865944 -1.88601 0
M  V30 6885 O 658.755 0.900652 -1.58728 0
M  V30 6886 C 658.806 -2.40772 -2.6965 0
M  V30 6887 O 658.527 -3.73968 -2.2821 0
M  V30 6888 C 660.028 -2.54272 -3.63126 0
M  V30 6889 H 657.248 -0.500497 -0.446927 0
M  V30 6890 H 659.792 -1.87477 -0.816871 0
M  V30 6891 H 657.947 -2.0377 -3.29479 0
M  V30 6892 H 658.361 -4.24146 -3.08546 0
M  V30 6893 H 659.835 -3.23815 -4.47043 0
M  V30 6894 H 660.312 -1.58364 -4.09656 0
M  V30 6895 H 660.918 -2.92036 -3.09185 0
M  V30 6896 N 659.233 0.902656 -1.29189 0
M  V30 6897 C 660.473 1.6672 -1.18254 0
M  V30 6898 C 660.837 1.90199 0.262336 0
M  V30 6899 O 662.038 2.6421 0.494612 0
M  V30 6900 C 660.309 2.98178 -1.9704 0
M  V30 6901 S 661.868 3.89226 -2.02605 0
M  V30 6902 H 658.686 0.572432 -0.421714 0
M  V30 6903 H 661.288 1.07279 -1.63436 0
M  V30 6904 H 659.992 2.788 -3.01163 0
M  V30 6905 H 659.523 3.62661 -1.5245 0
M  V30 6906 H 661.538 4.82913 -1.14059 0
M  V30 6907 N 660.711 1.11618 1.11262 0
M  V30 6908 C 661.641 0.79846 2.19424 0
M  V30 6909 C 662.622 -0.234003 1.68483 0
M  V30 6910 O 663.807 -0.0970704 1.93957 0
M  V30 6911 C 660.937 0.242892 3.4645 0
M  V30 6912 C 659.891 1.20744 4.10615 0
M  V30 6913 C 659.217 0.512494 5.32238 0
M  V30 6914 C 660.517 2.55884 4.55325 0
M  V30 6915 H 662.211 1.70286 2.46258 0
M  V30 6916 H 659.757 0.820195 1.18359 0
M  V30 6917 H 661.71 0.00840447 4.21399 0
M  V30 6918 H 660.434 -0.696811 3.1908 0
M  V30 6919 H 659.093 1.42759 3.37662 0
M  V30 6920 H 658.741 -0.432075 5.01141 0
M  V30 6921 H 658.441 1.15583 5.7612 0
M  V30 6922 H 659.965 0.286842 6.09926 0
M  V30 6923 H 661.379 2.37946 5.21588 0
M  V30 6924 H 659.776 3.16216 5.10027 0
M  V30 6925 H 660.846 3.14968 3.68678 0
M  V30 6926 N 662.189 -1.289 0.906776 0
M  V30 6927 C 663.435 -1.95558 0.53712 0
M  V30 6928 C 663.768 -1.71262 -0.915582 0
M  V30 6929 O 663.043 -1.02961 -1.65013 0
M  V30 6930 C 663.326 -3.50198 0.838645 0
M  V30 6931 C 663.179 -3.83923 2.34357 0
M  V30 6932 C 664.498 -4.38861 0.329988 0
M  V30 6933 H 661.617 -0.710289 0.196617 0
M  V30 6934 H 664.259 -1.52392 1.13475 0
M  V30 6935 H 662.409 -3.87096 0.330024 0
M  V30 6936 H 664.081 -3.56933 2.92227 0
M  V30 6937 H 662.324 -3.31215 2.80141 0
M  V30 6938 H 662.995 -4.91883 2.5051 0
M  V30 6939 H 665.471 -4.08996 0.765609 0
M  V30 6940 H 664.347 -5.45931 0.570105 0
M  V30 6941 H 664.608 -4.35352 -0.769511 0
M  V30 6942 N 663.667 -0.670007 -1.42649 0
M  V30 6943 C 664.577 0.0114788 -2.34597 0
M  V30 6944 C 665.593 0.794055 -1.54825 0
M  V30 6945 O 666.769 0.737472 -1.87412 0
M  V30 6946 C 663.834 0.954436 -3.33304 0
M  V30 6947 C 662.895 0.166925 -4.28975 0
M  V30 6948 C 662.128 1.06497 -5.22967 0
M  V30 6949 O 662.351 2.30446 -5.21777 0
M  V30 6950 O 661.285 0.528347 -5.99577 0
M  V30 6951 H 665.111 -0.745794 -2.944 0
M  V30 6952 H 662.696 -0.430228 -1.43071 0
M  V30 6953 H 664.578 1.49589 -3.93956 0
M  V30 6954 H 663.253 1.69164 -2.7598 0
M  V30 6955 H 662.16 -0.418515 -3.71752 0
M  V30 6956 H 663.493 -0.531067 -4.89327 0
M  V30 6957 N 665.145 1.52092 -0.413018 0
M  V30 6958 C 666.092 2.27119 0.410558 0
M  V30 6959 C 667.062 1.29692 1.03774 0
M  V30 6960 O 668.247 1.58561 1.06128 0
M  V30 6961 C 665.387 3.09863 1.51918 0
M  V30 6962 C 664.5 4.22252 0.912528 0
M  V30 6963 C 663.635 4.92348 1.99417 0
M  V30 6964 C 662.674 5.96694 1.36466 0
M  V30 6965 N 661.811 6.60292 2.38661 0
M  V30 6966 H 666.651 2.97067 -0.235661 0
M  V30 6967 H 664.188 1.46542 -0.128055 0
M  V30 6968 H 666.146 3.56144 2.17295 0
M  V30 6969 H 664.776 2.42078 2.13537 0
M  V30 6970 H 663.828 3.80113 0.147697 0
M  V30 6971 H 665.14 4.9709 0.412717 0
M  V30 6972 H 664.294 5.42054 2.72512 0
M  V30 6973 H 663.033 4.17087 2.52764 0
M  V30 6974 H 662.038 5.46304 0.61906 0
M  V30 6975 H 663.263 6.73899 0.838827 0
M  V30 6976 H 661.209 5.87858 2.91134 0
M  V30 6977 H 661.126 7.30816 1.93503 0
M  V30 6978 H 662.394 7.14635 3.11314 0
M  V30 6979 N 666.623 0.143563 1.56945 0
M  V30 6980 C 667.556 -0.835367 2.1236 0
M  V30 6981 C 668.534 -1.24466 1.04627 0
M  V30 6982 O 669.718 -1.34138 1.32436 0
M  V30 6983 C 666.845 -2.12123 2.64048 0
M  V30 6984 C 665.891 -1.85812 3.83896 0
M  V30 6985 S 666.724 -1.05222 5.25061 0
M  V30 6986 C 667.88 -2.34935 5.80135 0
M  V30 6987 H 668.113 -0.364109 2.95062 0
M  V30 6988 H 665.646 -0.0706601 1.54238 0
M  V30 6989 H 667.604 -2.85993 2.94479 0
M  V30 6990 H 666.265 -2.56364 1.81483 0
M  V30 6991 H 665.458 -2.81151 4.18294 0
M  V30 6992 H 665.06 -1.20052 3.54208 0
M  V30 6993 H 667.352 -3.3061 5.91357 0
M  V30 6994 H 668.295 -2.05046 6.77762 0
M  V30 6995 H 668.703 -2.45426 5.08356 0
M  V30 6996 N 668.101 -1.57061 -0.130224 0
M  V30 6997 C 669.049 -2.00486 -1.17933 0
M  V30 6998 C 670.043 -0.899933 -1.43519 0
M  V30 6999 O 671.249 -1.08514 -1.43613 0
M  V30 7000 H 667.624 -0.638441 -0.397363 0
M  V30 7001 H 669.595 -2.87848 -0.786501 0
M  V30 7002 C 668.344 -2.41565 -2.50084 0
M  V30 7003 H 667.667 -3.26148 -2.31231 0
M  V30 7004 H 669.107 -2.75757 -3.22078 0
M  V30 7005 C 667.566 -1.27485 -3.11848 0
M  V30 7006 O 668.096 -0.584688 -3.97422 0
M  V30 7007 N 666.302 -1.03478 -2.71552 0
M  V30 7008 H 665.849 -1.59779 -2.02061 0
M  V30 7009 H 665.807 -0.27341 -3.13209 0
M  V30 7010 N 669.579 0.400081 -1.52437 0
M  V30 7011 C 670.825 1.14788 -1.67187 0
M  V30 7012 C 671.158 1.89928 -0.405074 0
M  V30 7013 O 670.433 1.85118 0.596804 0
M  V30 7014 C 670.716 2.13507 -2.89977 0
M  V30 7015 C 670.569 1.42204 -4.2673 0
M  V30 7016 C 671.888 3.14069 -3.083 0
M  V30 7017 H 669.007 0.415939 -0.608411 0
M  V30 7018 H 671.649 0.432542 -1.85011 0
M  V30 7019 H 669.799 2.7451 -2.74912 0
M  V30 7020 H 671.471 0.842503 -4.53541 0
M  V30 7021 H 669.714 0.723939 -4.27717 0
M  V30 7022 H 670.385 2.14281 -5.08712 0
M  V30 7023 H 672.861 2.63148 -3.22323 0
M  V30 7024 H 671.737 3.80398 -3.95713 0
M  V30 7025 H 671.998 3.82309 -2.22018 0
M  V30 7026 N 671.057 1.43213 0.657864 0
M  V30 7027 C 672.304 1.44584 1.41781 0
M  V30 7028 C 672.632 0.0684208 1.9438 0
M  V30 7029 O 671.887 -0.925872 1.72413 0
M  V30 7030 C 672.186 2.43143 2.61947 0
M  V30 7031 C 671.852 3.89128 2.27794 0
M  V30 7032 C 670.514 4.28889 2.18191 0
M  V30 7033 C 672.866 4.81144 2.00375 0
M  V30 7034 C 670.194 5.58625 1.79319 0
M  V30 7035 C 672.546 6.11239 1.63003 0
M  V30 7036 C 671.21 6.49981 1.51922 0
M  V30 7037 H 670.48 0.529069 0.518813 0
M  V30 7038 H 673.127 1.76263 0.748577 0
M  V30 7039 H 671.432 2.04851 3.33981 0
M  V30 7040 H 673.129 2.4146 3.20153 0
M  V30 7041 H 669.719 3.57657 2.36176 0
M  V30 7042 H 673.903 4.512 2.06718 0
M  V30 7043 H 669.159 5.87486 1.69323 0
M  V30 7044 H 673.333 6.82014 1.40817 0
M  V30 7045 H 670.96 7.50416 1.21572 0
M  V30 7046 N 672.536 -0.895792 1.29666 0
M  V30 7047 C 673.813 -1.62723 1.08538 0
M  V30 7048 C 674.193 -2.07848 -0.369119 0
M  V30 7049 O 673.541 -1.8372 -1.35864 0
M  V30 7050 C 673.751 -2.80505 2.07648 0
M  V30 7051 C 675.099 -3.51098 2.3878 0
M  V30 7052 O 676.123 -2.90679 2.05874 0
M  V30 7053 O 674.982 -4.60028 2.9502 0
M  V30 7054 H 672.076 -0.714692 0.416106 0
M  V30 7055 H 674.622 -0.943517 1.41053 0
M  V30 7056 H 673.394 -2.44386 3.05599 0
M  V30 7057 H 673.017 -3.5658 1.75887 0
M  V30 7058 N 674.014 -1.12206 -1.10668 0
M  V30 7059 C 675.242 -0.898635 -1.86366 0
M  V30 7060 C 675.657 0.551991 -1.80551 0
M  V30 7061 O 675.014 1.38152 -1.19249 0
M  V30 7062 C 675.065 -1.36199 -3.34861 0
M  V30 7063 O 674.786 -2.75576 -3.40573 0
M  V30 7064 C 676.287 -1.17515 -4.2744 0
M  V30 7065 H 673.507 -0.321281 -0.589084 0
M  V30 7066 H 676.051 -1.49142 -1.39918 0
M  V30 7067 H 674.206 -0.81249 -3.78784 0
M  V30 7068 H 674.62 -2.95851 -4.33096 0
M  V30 7069 H 676.094 -1.54827 -5.29842 0
M  V30 7070 H 676.571 -0.115486 -4.39048 0
M  V30 7071 H 677.177 -1.71203 -3.89319 0
M  V30 7072 N 675.492 1.28418 -0.913599 0
M  V30 7073 C 676.402 2.31043 -0.406965 0
M  V30 7074 C 677.418 1.66501 0.505298 0
M  V30 7075 O 678.594 1.97558 0.391522 0
M  V30 7076 C 675.659 3.4498 0.344901 0
M  V30 7077 C 674.72 4.25078 -0.600563 0
M  V30 7078 C 673.953 5.33575 0.115516 0
M  V30 7079 O 674.176 5.54503 1.33727 0
M  V30 7080 O 673.11 5.9939 -0.549095 0
M  V30 7081 H 676.936 2.76387 -1.25873 0
M  V30 7082 H 674.521 1.33109 -0.678415 0
M  V30 7083 H 676.403 4.14314 0.769542 0
M  V30 7084 H 675.078 3.01719 1.1725 0
M  V30 7085 H 673.985 3.58334 -1.0746 0
M  V30 7086 H 675.318 4.72018 -1.39497 0
M  V30 7087 N 676.97 0.677563 1.42291 0
M  V30 7088 C 677.9 0.014968 2.33495 0
M  V30 7089 C 678.881 -0.786376 1.50831 0
M  V30 7090 O 680.066 -0.742975 1.79426 0
M  V30 7091 C 677.196 -0.935023 3.34477 0
M  V30 7092 C 676.15 -0.242074 4.27315 0
M  V30 7093 C 675.476 -1.30519 5.18526 0
M  V30 7094 C 676.776 0.880604 5.14823 0
M  V30 7095 H 678.47 0.776671 2.89151 0
M  V30 7096 H 676.016 0.37494 1.39033 0
M  V30 7097 H 677.969 -1.40766 3.97194 0
M  V30 7098 H 676.693 -1.72818 2.77131 0
M  V30 7099 H 675.352 0.210351 3.65996 0
M  V30 7100 H 675 -2.09041 4.57505 0
M  V30 7101 H 674.7 -0.846652 5.81468 0
M  V30 7102 H 676.224 -1.7787 5.84119 0
M  V30 7103 H 677.638 0.489062 5.7121 0
M  V30 7104 H 676.035 1.26511 5.86613 0
M  V30 7105 H 677.105 1.72818 4.53059 0
M  V30 7106 N 678.448 -1.51871 0.421078 0
M  V30 7107 C 679.395 -2.27334 -0.398508 0
M  V30 7108 C 680.365 -1.30241 -1.03085 0
M  V30 7109 O 681.55 -1.59121 -1.05285 0
M  V30 7110 C 678.69 -3.10664 -1.50272 0
M  V30 7111 C 677.803 -4.2273 -0.890122 0
M  V30 7112 C 676.938 -4.93399 -1.96803 0
M  V30 7113 C 675.977 -5.97409 -1.333 0
M  V30 7114 N 675.114 -6.61548 -2.35156 0
M  V30 7115 H 679.954 -2.96938 0.251411 0
M  V30 7116 H 677.491 -1.46472 0.135825 0
M  V30 7117 H 679.449 -3.57292 -2.15403 0
M  V30 7118 H 678.079 -2.43207 -2.1225 0
M  V30 7119 H 677.131 -3.80186 -0.127537 0
M  V30 7120 H 678.443 -4.97302 -0.386349 0
M  V30 7121 H 677.597 -5.43491 -2.69633 0
M  V30 7122 H 676.336 -4.18421 -2.50549 0
M  V30 7123 H 675.341 -5.46624 -0.59008 0
M  V30 7124 H 676.566 -6.74335 -0.803076 0
M  V30 7125 H 674.512 -5.89394 -2.88012 0
M  V30 7126 H 674.429 -7.31832 -1.89624 0
M  V30 7127 H 675.697 -7.16276 -3.0752 0
M  V30 7128 N 679.926 -0.151884 -1.56866 0
M  V30 7129 C 681.174 0.497021 -1.95893 0
M  V30 7130 C 681.495 1.65078 -1.03799 0
M  V30 7131 O 680.765 1.95642 -0.10049 0
M  V30 7132 H 679.345 0.186603 -0.723318 0
M  V30 7133 H 682.007 -0.228525 -1.93556 0
M  V30 7134 H 681.103 0.869933 -2.99731 0
M  V30 7135 N 681.404 1.57128 0.121893 0
M  V30 7136 C 682.334 2.03165 1.15092 0
M  V30 7137 C 683.315 0.915587 1.43356 0
M  V30 7138 O 684.5 1.1851 1.53847 0
M  V30 7139 C 681.63 2.43352 2.47784 0
M  V30 7140 C 680.584 3.58376 2.33989 0
M  V30 7141 C 679.91 3.84454 3.71617 0
M  V30 7142 C 681.21 4.90199 1.80283 0
M  V30 7143 H 682.904 2.89382 0.768023 0
M  V30 7144 H 680.45 1.39218 0.367998 0
M  V30 7145 H 682.403 2.74163 3.20019 0
M  V30 7146 H 681.127 1.54103 2.87958 0
M  V30 7147 H 679.786 3.2777 1.64202 0
M  V30 7148 H 679.434 2.92414 4.09271 0
M  V30 7149 H 679.134 4.61877 3.6324 0
M  V30 7150 H 680.658 4.17714 4.45362 0
M  V30 7151 H 682.072 5.19565 2.42333 0
M  V30 7152 H 680.469 5.71601 1.82735 0
M  V30 7153 H 681.539 4.78904 0.760184 0
M  V30 7154 N 682.882 -0.391992 1.52647 0
M  V30 7155 C 684.107 -1.16312 1.71716 0
M  V30 7156 C 684.532 -1.83042 0.433279 0
M  V30 7157 O 683.89 -1.70705 -0.610707 0
M  V30 7158 C 683.938 -2.18908 2.86551 0
M  V30 7159 O 683.042 -3.2543 2.53316 0
M  V30 7160 H 682.383 -0.338743 0.571095 0
M  V30 7161 H 684.913 -0.457202 1.99426 0
M  V30 7162 H 684.923 -2.62954 3.1196 0
M  V30 7163 H 683.598 -1.69726 3.79692 0
M  V30 7164 H 682.175 -2.86543 2.38637 0
M  V30 7165 N 684.36 -1.4356 -0.65026 0
M  V30 7166 C 685.307 -1.48948 -1.76304 0
M  V30 7167 C 686.277 -0.338919 -1.62605 0
M  V30 7168 O 687.462 -0.54649 -1.82806 0
M  V30 7169 C 684.602 -1.42131 -3.14472 0
M  V30 7170 C 683.715 -2.67415 -3.39284 0
M  V30 7171 C 682.85 -2.52565 -4.67316 0
M  V30 7172 C 681.889 -3.73103 -4.85243 0
M  V30 7173 N 681.026 -3.57046 -6.04535 0
M  V30 7174 H 685.866 -2.44032 -1.71034 0
M  V30 7175 H 683.403 -1.21131 -0.834601 0
M  V30 7176 H 685.361 -1.36172 -3.94351 0
M  V30 7177 H 683.991 -0.506273 -3.18805 0
M  V30 7178 H 683.043 -2.8364 -2.53481 0
M  V30 7179 H 684.355 -3.56943 -3.48415 0
M  V30 7180 H 683.509 -2.44331 -5.55326 0
M  V30 7181 H 682.248 -1.60566 -4.60511 0
M  V30 7182 H 681.253 -3.81743 -3.95667 0
M  V30 7183 H 682.478 -4.66115 -4.93876 0
M  V30 7184 H 680.424 -2.67783 -5.98856 0
M  V30 7185 H 680.341 -4.40178 -6.14638 0
M  V30 7186 H 681.609 -3.52669 -6.95158 0
M  V30 7187 N 685.838 0.888903 -1.30139 0
M  V30 7188 C 687.087 1.63507 -1.18103 0
M  V30 7189 C 687.4 1.93808 0.264141 0
M  V30 7190 O 688.606 2.66744 0.505966 0
M  V30 7191 C 687.062 2.94673 -2.0663 0
M  V30 7192 C 686.67 2.71926 -3.56034 0
M  V30 7193 C 688.414 3.72626 -2.03346 0
M  V30 7194 C 686.321 3.98884 -4.3663 0
M  V30 7195 H 685.251 0.613426 -0.438435 0
M  V30 7196 H 687.902 0.984427 -1.54859 0
M  V30 7197 H 686.284 3.61009 -1.62754 0
M  V30 7198 H 687.458 2.14116 -4.08033 0
M  V30 7199 H 685.773 2.07353 -3.61101 0
M  V30 7200 H 688.37 4.66775 -2.60816 0
M  V30 7201 H 688.713 4.03712 -1.016 0
M  V30 7202 H 689.246 3.13147 -2.45324 0
M  V30 7203 H 685.985 3.72959 -5.39056 0
M  V30 7204 H 685.505 4.56214 -3.89396 0
M  V30 7205 H 687.184 4.66938 -4.47859 0
M  V30 7206 N 687.317 1.12792 1.10072 0
M  V30 7207 C 688.227 0.812369 2.20086 0
M  V30 7208 C 689.243 -0.200349 1.72843 0
M  V30 7209 O 690.419 -0.0330262 2.01373 0
M  V30 7210 C 687.484 0.275685 3.45602 0
M  V30 7211 C 686.545 1.34881 4.07561 0
M  V30 7212 C 685.778 0.837639 5.27086 0
M  V30 7213 O 686.001 -0.327224 5.69461 0
M  V30 7214 O 684.935 1.60894 5.79997 0
M  V30 7215 H 688.761 1.73133 2.49517 0
M  V30 7216 H 686.346 0.904863 1.18881 0
M  V30 7217 H 688.228 -0.0185375 4.21396 0
M  V30 7218 H 686.903 -0.615783 3.17789 0
M  V30 7219 H 685.81 1.69625 3.33434 0
M  V30 7220 H 687.143 2.21418 4.39585 0
M  V30 7221 N 688.795 -1.27931 0.920396 0
M  V30 7222 C 690.211 -1.47085 0.619537 0
M  V30 7223 C 690.411 -1.83463 -0.833291 0
M  V30 7224 O 689.467 -1.94363 -1.61181 0
M  V30 7225 C 690.78 -2.56878 1.56314 0
M  V30 7226 C 692.328 -2.70743 1.57058 0
M  V30 7227 C 692.803 -3.83687 2.50097 0
M  V30 7228 N 694.294 -3.9105 2.48262 0
M  V30 7229 C 695.029 -4.77842 3.16945 0
M  V30 7230 N 694.525 -5.69176 3.94982 0
M  V30 7231 N 696.318 -4.71509 3.06 0
M  V30 7232 H 688.469 -1.02601 1.85975 0
M  V30 7233 H 690.732 -0.511682 0.798051 0
M  V30 7234 H 690.438 -2.36923 2.59923 0
M  V30 7235 H 690.312 -3.54117 1.29928 0
M  V30 7236 H 692.699 -2.90083 0.541832 0
M  V30 7237 H 692.78 -1.74015 1.8749 0
M  V30 7238 H 692.424 -3.65101 3.53077 0
M  V30 7239 H 692.354 -4.79827 2.16964 0
M  V30 7240 H 694.845 -3.25738 1.91581 0
M  V30 7241 H 695.158 -6.32245 4.44394 0
M  V30 7242 H 693.503 -5.68995 3.99086 0
M  V30 7243 H 696.694 -3.99151 2.44533 0
M  V30 7244 H 696.867 -5.38933 3.59799 0
M  V30 7245 N 690.273 -0.685099 -1.4193 0
M  V30 7246 C 691.236 -0.0222632 -2.29189 0
M  V30 7247 C 692.236 0.7186 -1.4385 0
M  V30 7248 O 693.426 0.555058 -1.6512 0
M  V30 7249 C 690.558 0.979013 -3.2654 0
M  V30 7250 H 691.751 -0.790424 -2.89296 0
M  V30 7251 H 689.304 -0.448012 -1.49742 0
M  V30 7252 H 690.039 1.77531 -2.71392 0
M  V30 7253 H 689.824 0.451037 -3.89497 0
M  V30 7254 H 691.314 1.44091 -3.91954 0
M  V30 7255 N 691.751 1.51645 -0.429126 0
M  V30 7256 C 692.699 2.29119 0.400921 0
M  V30 7257 C 693.693 1.34628 1.02819 0
M  V30 7258 O 694.899 1.52004 0.964098 0
M  V30 7259 H 691.274 0.737273 0.148095 0
M  V30 7260 H 693.245 2.97144 -0.273457 0
M  V30 7261 C 691.994 3.13953 1.49429 0
M  V30 7262 H 691.317 3.86544 1.02097 0
M  V30 7263 H 692.757 3.71232 2.04849 0
M  V30 7264 C 691.216 2.28796 2.47293 0
M  V30 7265 O 691.746 1.94193 3.51642 0
M  V30 7266 N 689.952 1.92177 2.17982 0
M  V30 7267 H 689.499 2.20517 1.33154 0
M  V30 7268 H 689.457 1.35497 2.83704 0
M  V30 7269 N 693.229 0.160201 1.56784 0
M  V30 7270 C 694.192 -0.760405 2.16219 0
M  V30 7271 C 695.192 -1.16595 1.10735 0
M  V30 7272 O 696.382 -1.08472 1.36306 0
M  V30 7273 C 693.514 -2.03358 2.73603 0
M  V30 7274 H 694.707 -0.243173 2.98912 0
M  V30 7275 H 692.26 -0.0893139 1.56045 0
M  V30 7276 H 692.995 -2.59416 1.94612 0
M  V30 7277 H 692.78 -1.75186 3.50788 0
M  V30 7278 H 694.27 -2.69081 3.19351 0
M  V30 7279 N 694.707 -1.5719 -0.113559 0
M  V30 7280 C 695.947 -1.86958 -0.82621 0
M  V30 7281 C 696.311 -0.748884 -1.76793 0
M  V30 7282 O 697.512 -0.92847 -2.52256 0
M  V30 7283 C 695.783 -3.21957 -1.55173 0
M  V30 7284 S 697.342 -3.73371 -2.3052 0
M  V30 7285 H 694.16 -0.655394 -0.275643 0
M  V30 7286 H 696.762 -1.95318 -0.0842684 0
M  V30 7287 H 695.466 -4.01459 -0.851977 0
M  V30 7288 H 694.997 -3.16688 -2.33393 0
M  V30 7289 H 697.012 -3.45308 -3.56338 0
M  V30 7290 N 696.185 0.383891 -1.52853 0
M  V30 7291 C 697.133 1.48965 -1.7864 0
M  V30 7292 C 698.127 1.56242 -0.654577 0
M  V30 7293 O 699.333 1.59347 -0.83716 0
M  V30 7294 H 695.708 0.495892 -0.565328 0
M  V30 7295 H 697.679 1.24411 -2.71228 0
M  V30 7296 C 696.428 2.86036 -1.97683 0
M  V30 7297 H 695.751 2.81188 -2.84206 0
M  V30 7298 H 697.191 3.62632 -2.19713 0
M  V30 7299 C 695.65 3.28428 -0.750776 0
M  V30 7300 O 696.18 4.0164 0.0693491 0
M  V30 7301 N 694.386 2.84765 -0.579427 0
M  V30 7302 H 693.933 2.25353 -1.24795 0
M  V30 7303 H 693.891 3.13486 0.239544 0
M  V30 7304 N 697.663 1.43903 0.642637 0
M  V30 7305 C 698.888 1.49758 1.43483 0
M  V30 7306 C 699.313 0.119911 1.87717 0
M  V30 7307 O 698.671 -0.888558 1.58033 0
M  V30 7308 C 698.719 2.45744 2.63898 0
M  V30 7309 O 697.823 1.95101 3.63331 0
M  V30 7310 H 697.164 0.506138 0.429791 0
M  V30 7311 H 699.694 1.88923 0.785438 0
M  V30 7312 H 699.704 2.63399 3.11584 0
M  V30 7313 H 698.379 3.45818 2.31046 0
M  V30 7314 H 696.956 1.87158 3.22531 0
M  V30 7315 N 699.141 -0.881989 1.30609 0
M  V30 7316 C 700.387 -1.63647 1.19781 0
M  V30 7317 C 700.72 -1.92632 -0.246265 0
M  V30 7318 O 699.995 -1.54938 -1.17577 0
M  V30 7319 C 700.278 -2.97437 2.02985 0
M  V30 7320 C 700.131 -2.75406 3.55628 0
M  V30 7321 C 701.45 -3.98397 1.86997 0
M  V30 7322 H 698.569 -0.593841 0.436488 0
M  V30 7323 H 701.211 -1.02041 1.60273 0
M  V30 7324 H 699.361 -3.50018 1.68581 0
M  V30 7325 H 701.033 -2.2959 4.00107 0
M  V30 7326 H 699.276 -2.09856 3.79662 0
M  V30 7327 H 699.947 -3.70552 4.09139 0
M  V30 7328 H 702.423 -3.54986 2.17081 0
M  V30 7329 H 701.299 -4.89916 2.47536 0
M  V30 7330 H 701.56 -4.3424 0.829943 0
M  V30 7331 N 700.619 -1.13374 -1.09472 0
M  V30 7332 C 701.868 -0.889844 -1.8101 0
M  V30 7333 C 702.181 0.585686 -1.86625 0
M  V30 7334 O 703.387 0.946497 -2.54467 0
M  V30 7335 C 701.843 -1.54241 -3.25174 0
M  V30 7336 C 701.451 -3.05343 -3.27826 0
M  V30 7337 C 703.195 -1.37919 -4.0147 0
M  V30 7338 C 701.102 -3.63486 -4.6651 0
M  V30 7339 H 700.032 -0.329256 -0.678311 0
M  V30 7340 H 702.683 -1.36139 -1.23038 0
M  V30 7341 H 701.065 -0.998525 -3.83204 0
M  V30 7342 H 702.239 -3.66307 -2.79563 0
M  V30 7343 H 700.554 -3.21175 -2.65019 0
M  V30 7344 H 703.151 -1.78771 -5.03929 0
M  V30 7345 H 703.494 -0.323987 -4.15037 0
M  V30 7346 H 704.027 -1.89284 -3.49881 0
M  V30 7347 H 700.766 -4.68811 -4.58145 0
M  V30 7348 H 700.286 -3.073 -5.15099 0
M  V30 7349 H 701.965 -3.63134 -5.35484 0
M  V30 7350 N 702.098 1.27442 -0.927168 0
M  V30 7351 C 703.045 2.26863 -0.424459 0
M  V30 7352 C 704.015 1.5813 0.508346 0
M  V30 7353 O 705.2 1.85946 0.42762 0
M  V30 7354 C 702.34 3.43639 0.31718 0
M  V30 7355 C 701.453 4.27087 -0.649675 0
M  V30 7356 C 700.588 5.31082 0.111753 0
M  V30 7357 C 699.627 6.062 -0.847843 0
M  V30 7358 N 698.764 7.01999 -0.119074 0
M  V30 7359 H 703.604 2.69239 -1.27728 0
M  V30 7360 H 701.141 1.32394 -0.641106 0
M  V30 7361 H 703.099 4.10155 0.763486 0
M  V30 7362 H 701.729 3.02217 1.13424 0
M  V30 7363 H 700.781 3.60491 -1.21451 0
M  V30 7364 H 702.093 4.79242 -1.38307 0
M  V30 7365 H 701.247 6.03544 0.618 0
M  V30 7366 H 699.986 4.7973 0.878114 0
M  V30 7367 H 698.991 5.32577 -1.36534 0
M  V30 7368 H 700.216 6.59642 -1.61398 0
M  V30 7369 H 698.162 6.52977 0.629051 0
M  V30 7370 H 698.079 7.5184 -0.792046 0
M  V30 7371 H 699.347 7.78638 0.366537 0
M  V30 7372 N 703.576 0.692616 1.41565 0
M  V30 7373 C 704.508 -0.0137132 2.29196 0
M  V30 7374 C 705.521 -0.747417 1.44629 0
M  V30 7375 O 706.71 -0.598611 1.68163 0
M  V30 7376 C 703.81 -1.04347 3.22436 0
M  V30 7377 C 702.983 -0.379985 4.35746 0
M  V30 7378 C 702.042 -1.31195 5.09583 0
M  V30 7379 O 701.068 -0.805455 5.63472 0
M  V30 7380 N 702.27 -2.64443 5.16769 0
M  V30 7381 H 705.035 0.738614 2.90456 0
M  V30 7382 H 702.596 0.538415 1.52685 0
M  V30 7383 H 704.588 -1.6686 3.687 0
M  V30 7384 H 703.158 -1.69736 2.62504 0
M  V30 7385 H 702.378 0.424975 3.91903 0
M  V30 7386 H 703.666 0.0814904 5.08735 0
M  V30 7387 H 703.064 -3.08114 4.74428 0
M  V30 7388 H 701.621 -3.22159 5.66619 0
M  V30 7389 N 705.054 -1.51416 0.437162 0
M  V30 7390 C 705.984 -2.30631 -0.364922 0
M  V30 7391 C 706.965 -1.36037 -1.02118 0
M  V30 7392 O 708.15 -1.64956 -1.02485 0
M  V30 7393 C 705.28 -3.1482 -1.46648 0
M  V30 7394 C 704.234 -4.17691 -0.933717 0
M  V30 7395 C 703.56 -4.904 -2.13101 0
M  V30 7396 C 704.86 -5.2229 0.0317201 0
M  V30 7397 H 706.554 -2.97932 0.29614 0
M  V30 7398 H 704.1 -1.4328 0.143865 0
M  V30 7399 H 706.053 -3.69017 -2.03481 0
M  V30 7400 H 704.777 -2.4534 -2.15583 0
M  V30 7401 H 703.436 -3.64545 -0.387602 0
M  V30 7402 H 703.084 -4.17423 -2.80654 0
M  V30 7403 H 702.784 -5.59962 -1.78092 0
M  V30 7404 H 704.308 -5.4742 -2.70487 0
M  V30 7405 H 705.722 -5.7156 -0.446302 0
M  V30 7406 H 704.119 -5.99378 0.29437 0
M  V30 7407 H 705.189 -4.75131 0.968447 0
M  V30 7408 N 706.532 -0.168513 -1.56696 0
M  V30 7409 C 707.465 0.801477 -2.13662 0
M  V30 7410 C 708.443 1.22786 -1.06594 0
M  V30 7411 O 709.627 1.32014 -1.34554 0
M  V30 7412 C 706.754 2.07896 -2.6739 0
M  V30 7413 C 705.8 1.79681 -3.86803 0
M  V30 7414 S 706.633 0.968556 -5.26668 0
M  V30 7415 C 707.789 2.25676 -5.83799 0
M  V30 7416 H 708.022 0.317121 -2.95604 0
M  V30 7417 H 705.555 0.0461132 -1.54331 0
M  V30 7418 H 707.513 2.81272 -2.98992 0
M  V30 7419 H 706.174 2.53445 -1.85539 0
M  V30 7420 H 705.367 2.74461 -4.22714 0
M  V30 7421 H 704.969 1.14402 -3.56073 0
M  V30 7422 H 707.261 3.2116 -5.96542 0
M  V30 7423 H 708.204 1.94238 -6.80939 0
M  V30 7424 H 708.612 2.37308 -5.12197 0
M  V30 7425 N 708.01 1.57248 0.105221 0
M  V30 7426 C 708.957 2.01338 1.12835 0
M  V30 7427 C 709.927 0.887897 1.40377 0
M  V30 7428 O 711.112 1.15315 1.5201 0
M  V30 7429 C 708.252 2.43432 2.44611 0
M  V30 7430 C 707.365 3.69457 2.23888 0
M  V30 7431 C 706.5 4.00473 3.48991 0
M  V30 7432 C 705.539 5.19638 3.23485 0
M  V30 7433 N 704.676 5.46457 4.40828 0
M  V30 7434 H 709.516 2.88527 0.745386 0
M  V30 7435 H 707.053 1.42714 0.356535 0
M  V30 7436 H 709.011 2.65879 3.21503 0
M  V30 7437 H 707.641 1.59266 2.80774 0
M  V30 7438 H 706.693 3.54545 1.37847 0
M  V30 7439 H 708.005 4.56497 2.01026 0
M  V30 7440 H 707.159 4.23642 4.34295 0
M  V30 7441 H 705.898 3.11935 3.74897 0
M  V30 7442 H 704.903 4.96299 2.36574 0
M  V30 7443 H 706.128 6.09766 2.98935 0
M  V30 7444 H 704.074 4.60876 4.66829 0
M  V30 7445 H 703.991 6.27849 4.2112 0
M  V30 7446 H 705.259 5.74155 5.27225 0
M  V30 7447 N 709.488 -0.375779 1.53054 0
M  V30 7448 C 710.435 -1.45978 1.78771 0
M  V30 7449 C 711.405 -1.53625 0.631552 0
M  V30 7450 O 712.59 -1.69674 0.872667 0
M  V30 7451 C 709.73 -2.8305 1.97425 0
M  V30 7452 C 708.843 -2.84451 3.25134 0
M  V30 7453 C 707.978 -4.13034 3.34031 0
M  V30 7454 C 707.017 -4.08536 4.55812 0
M  V30 7455 N 706.154 -5.2875 4.61918 0
M  V30 7456 H 710.994 -1.23349 2.71273 0
M  V30 7457 H 708.531 -0.598147 1.3439 0
M  V30 7458 H 710.489 -3.62666 2.06225 0
M  V30 7459 H 709.119 -3.04101 1.0827 0
M  V30 7460 H 708.171 -1.97127 3.25338 0
M  V30 7461 H 709.483 -2.76998 4.14818 0
M  V30 7462 H 708.637 -5.0106 3.42087 0
M  V30 7463 H 707.376 -4.23226 2.42345 0
M  V30 7464 H 706.381 -3.18897 4.47867 0
M  V30 7465 H 707.606 -3.99955 5.48828 0
M  V30 7466 H 705.552 -5.39547 3.73129 0
M  V30 7467 H 705.469 -5.23426 5.45492 0
M  V30 7468 H 706.737 -6.18637 4.74245 0
M  V30 7469 N 710.966 -1.44241 -0.634997 0
M  V30 7470 C 711.876 -1.53293 -1.77591 0
M  V30 7471 C 712.892 -0.418831 -1.68884 0
M  V30 7472 O 714.068 -0.675619 -1.8973 0
M  V30 7473 C 711.133 -1.47075 -3.13958 0
M  V30 7474 C 710.194 -2.69304 -3.34326 0
M  V30 7475 C 709.427 -2.63374 -4.64187 0
M  V30 7476 O 709.65 -1.69161 -5.44739 0
M  V30 7477 O 708.584 -3.54166 -4.86673 0
M  V30 7478 H 712.41 -2.49673 -1.72908 0
M  V30 7479 H 709.995 -1.26445 -0.795745 0
M  V30 7480 H 711.877 -1.46117 -3.95257 0
M  V30 7481 H 710.552 -0.538373 -3.19192 0
M  V30 7482 H 709.459 -2.75831 -2.52721 0
M  V30 7483 H 710.792 -3.61576 -3.33951 0
M  V30 7484 N 712.444 0.87505 -1.31075 0
M  V30 7485 C 713.691 1.62768 -1.20469 0
M  V30 7486 C 714.019 1.93034 0.23834 0
M  V30 7487 O 713.274 1.55693 1.18567 0
M  V30 7488 C 713.573 2.96948 -1.98888 0
M  V30 7489 C 713.239 2.86195 -3.4843 0
M  V30 7490 C 711.901 2.82969 -3.89207 0
M  V30 7491 C 714.253 2.73599 -4.43614 0
M  V30 7492 C 711.581 2.64999 -5.23443 0
M  V30 7493 C 713.933 2.57166 -5.77969 0
M  V30 7494 C 712.597 2.52321 -6.17973 0
M  V30 7495 H 711.867 0.595611 -0.440827 0
M  V30 7496 H 714.514 1.01665 -1.62285 0
M  V30 7497 H 712.819 3.62058 -1.49737 0
M  V30 7498 H 714.516 3.54164 -1.88067 0
M  V30 7499 H 711.106 2.8952 -3.16032 0
M  V30 7500 H 715.29 2.7515 -4.13045 0
M  V30 7501 H 710.546 2.5967 -5.53517 0
M  V30 7502 H 714.72 2.46396 -6.51354 0
M  V30 7503 H 712.347 2.38156 -7.21932 0
M  V30 7504 N 713.922 1.13953 1.08869 0
M  V30 7505 C 715.15 0.92817 1.84912 0
M  V30 7506 C 715.565 -0.523197 1.81406 0
M  V30 7507 O 714.922 -1.36237 1.21432 0
M  V30 7508 C 714.973 1.41509 3.32652 0
M  V30 7509 O 714.694 2.80959 3.36145 0
M  V30 7510 C 716.195 1.243 4.25517 0
M  V30 7511 H 713.415 0.330612 0.583898 0
M  V30 7512 H 715.959 1.51349 1.37527 0
M  V30 7513 H 714.114 0.872648 3.77444 0
M  V30 7514 H 714.528 3.02704 4.28335 0
M  V30 7515 H 716.002 1.63237 5.27312 0
M  V30 7516 H 716.479 0.18532 4.38809 0
M  V30 7517 H 717.085 1.77375 3.86546 0
M  V30 7518 N 715.4 -1.26948 0.933913 0
M  V30 7519 C 716.33 -2.29017 0.45534 0
M  V30 7520 C 717.311 -1.62961 -0.487605 0
M  V30 7521 O 718.496 -1.90223 -0.391022 0
M  V30 7522 C 715.626 -3.46112 -0.287015 0
M  V30 7523 C 714.58 -4.24205 0.568682 0
M  V30 7524 C 713.906 -5.3384 -0.303206 0
M  V30 7525 C 715.206 -4.88954 1.83633 0
M  V30 7526 H 716.9 -2.69298 1.30839 0
M  V30 7527 H 714.446 -1.29459 0.630579 0
M  V30 7528 H 716.399 -4.16622 -0.6328 0
M  V30 7529 H 715.123 -3.04765 -1.17414 0
M  V30 7530 H 713.782 -3.5545 0.897261 0
M  V30 7531 H 713.43 -4.88734 -1.18947 0
M  V30 7532 H 713.13 -5.86998 0.265879 0
M  V30 7533 H 714.654 -6.0719 -0.644423 0
M  V30 7534 H 716.068 -5.51717 1.55823 0
M  V30 7535 H 714.465 -5.52198 2.34941 0
M  V30 7536 H 715.535 -4.12305 2.55211 0
M  V30 7537 N 716.879 -0.700114 -1.41195 0
M  V30 7538 C 717.789 -0.0382854 -2.34569 0
M  V30 7539 C 718.805 0.761036 -1.56474 0
M  V30 7540 O 719.981 0.697553 -1.88934 0
M  V30 7541 C 717.046 0.883522 -3.35253 0
M  V30 7542 C 716.107 0.0758957 -4.29233 0
M  V30 7543 C 715.34 0.9538 -5.25108 0
M  V30 7544 O 715.563 2.19326 -5.26547 0
M  V30 7545 O 714.497 0.401049 -6.00562 0
M  V30 7546 H 718.323 -0.808073 -2.92752 0
M  V30 7547 H 715.908 -0.460479 -1.42127 0
M  V30 7548 H 717.79 1.41199 -3.9704 0
M  V30 7549 H 716.465 1.63272 -2.79506 0
M  V30 7550 H 715.372 -0.497274 -3.7078 0
M  V30 7551 H 716.705 -0.634741 -4.8809 0
M  V30 7552 N 718.357 1.51182 -0.445186 0
M  V30 7553 C 719.604 2.02152 0.118645 0
M  V30 7554 C 719.932 1.32888 1.42025 0
M  V30 7555 O 719.187 0.435041 1.90803 0
M  V30 7556 C 719.486 3.55408 0.376797 0
M  V30 7557 C 719.152 4.43008 -0.839945 0
M  V30 7558 C 717.814 4.66669 -1.17361 0
M  V30 7559 C 720.166 4.9435 -1.65127 0
M  V30 7560 C 717.494 5.38919 -2.31913 0
M  V30 7561 C 719.846 5.67857 -2.78786 0
M  V30 7562 C 718.51 5.89779 -3.12597 0
M  V30 7563 H 717.78 0.739727 0.0434152 0
M  V30 7564 H 720.427 1.82055 -0.593984 0
M  V30 7565 H 718.732 3.73879 1.1714 0
M  V30 7566 H 720.429 3.92388 0.826602 0
M  V30 7567 H 717.019 4.24793 -0.569958 0
M  V30 7568 H 721.203 4.75947 -1.4067 0
M  V30 7569 H 716.459 5.54105 -2.58413 0
M  V30 7570 H 720.633 6.06628 -3.42017 0
M  V30 7571 H 718.26 6.45542 -4.01471 0
M  V30 7572 N 719.835 0.176821 1.56605 0
M  V30 7573 C 721.06 -0.47599 2.01864 0
M  V30 7574 C 721.485 -1.55645 1.05623 0
M  V30 7575 O 720.843 -1.81263 0.0366729 0
M  V30 7576 C 720.891 -1.02619 3.4569 0
M  V30 7577 O 719.995 -2.13996 3.52533 0
M  V30 7578 H 719.336 -0.113363 0.654251 0
M  V30 7579 H 721.866 0.28233 2.02643 0
M  V30 7580 H 721.876 -1.34742 3.85109 0
M  V30 7581 H 720.551 -0.235138 4.15235 0
M  V30 7582 H 719.128 -1.82876 3.24978 0
M  V30 7583 N 721.313 -1.57302 -0.09688 0
M  V30 7584 C 722.729 -1.53094 -0.451041 0
M  V30 7585 C 722.929 -0.893265 -1.80618 0
M  V30 7586 O 721.985 -0.485013 -2.47798 0
M  V30 7587 C 723.298 -2.9782 -0.415172 0
M  V30 7588 C 724.846 -3.09026 -0.497155 0
M  V30 7589 C 725.321 -4.55356 -0.491452 0
M  V30 7590 N 726.812 -4.59896 -0.552258 0
M  V30 7591 C 727.547 -5.70563 -0.569654 0
M  V30 7592 N 727.043 -6.90666 -0.543365 0
M  V30 7593 N 728.836 -5.58733 -0.614331 0
M  V30 7594 H 720.987 -1.97131 0.790771 0
M  V30 7595 H 723.25 -0.901211 0.294147 0
M  V30 7596 H 722.956 -3.47933 0.513362 0
M  V30 7597 H 722.83 -3.56416 -1.23481 0
M  V30 7598 H 725.217 -2.58902 -1.41611 0
M  V30 7599 H 725.298 -2.53386 0.35059 0
M  V30 7600 H 724.942 -5.06131 0.423549 0
M  V30 7601 H 724.872 -5.08832 -1.35639 0
M  V30 7602 H 727.363 -3.73456 -0.577842 0
M  V30 7603 H 727.676 -7.70769 -0.559873 0
M  V30 7604 H 726.021 -6.93123 -0.510441 0
M  V30 7605 H 729.212 -4.63809 -0.632387 0
M  V30 7606 H 729.385 -6.44984 -0.62442 0
M  V30 7607 N 722.791 0.367657 -1.53252 0
M  V30 7608 C 724.068 1.12606 -1.59935 0
M  V30 7609 C 724.448 2.07167 -0.405606 0
M  V30 7610 O 723.796 2.20364 0.604323 0
M  V30 7611 C 724.006 1.86699 -2.94863 0
M  V30 7612 C 725.354 2.41306 -3.49366 0
M  V30 7613 O 726.378 1.96828 -2.96879 0
M  V30 7614 O 725.237 3.2261 -4.41118 0
M  V30 7615 H 722.331 0.516438 -0.645926 0
M  V30 7616 H 724.877 0.371088 -1.65593 0
M  V30 7617 H 723.649 1.17674 -3.73187 0
M  V30 7618 H 723.272 2.6911 -2.92687 0
M  V30 7619 N 724.269 1.44576 0.627338 0
M  V30 7620 C 725.685 1.28546 0.945938 0
M  V30 7621 C 725.885 0.224003 2.00251 0
M  V30 7622 O 724.941 -0.388817 2.49488 0
M  V30 7623 C 726.254 2.65825 1.40561 0
M  V30 7624 C 727.802 2.73566 1.52088 0
M  V30 7625 C 728.277 4.11323 2.01438 0
M  V30 7626 N 729.768 4.13519 2.08702 0
M  V30 7627 C 730.503 5.16964 2.48065 0
M  V30 7628 N 729.999 6.30768 2.86538 0
M  V30 7629 N 731.792 5.04319 2.48232 0
M  V30 7630 H 723.943 2.1228 -0.0713567 0
M  V30 7631 H 726.206 0.947503 0.0307081 0
M  V30 7632 H 725.912 3.44591 0.703539 0
M  V30 7633 H 725.786 2.92969 2.37591 0
M  V30 7634 H 728.173 1.95116 2.21391 0
M  V30 7635 H 728.254 2.50159 0.534237 0
M  V30 7636 H 727.898 4.9025 1.32729 0
M  V30 7637 H 727.828 4.32109 3.0098 0
M  V30 7638 H 730.319 3.31385 1.81638 0
M  V30 7639 H 730.632 7.0551 3.15398 0
M  V30 7640 H 728.977 6.342 2.84281 0
M  V30 7641 H 732.168 4.14465 2.17569 0
M  V30 7642 H 732.341 5.85059 2.78585 0
M  V30 7643 N 725.747 -0.868086 1.31537 0
M  V30 7644 C 726.694 -1.97548 1.19346 0
M  V30 7645 C 727.664 -1.65913 0.0787922 0
M  V30 7646 O 728.849 -1.89129 0.251985 0
M  V30 7647 C 725.989 -3.32922 0.908692 0
M  V30 7648 C 725.102 -3.77141 2.10687 0
M  V30 7649 C 724.237 -5.01241 1.75873 0
M  V30 7650 C 723.276 -5.37914 2.92088 0
M  V30 7651 N 722.413 -6.53192 2.57457 0
M  V30 7652 H 727.253 -2.07307 2.14074 0
M  V30 7653 H 724.79 -1.01483 1.06487 0
M  V30 7654 H 726.748 -4.10867 0.724138 0
M  V30 7655 H 725.378 -3.228 -0.0017611 0
M  V30 7656 H 724.43 -2.94961 2.40213 0
M  V30 7657 H 725.742 -4.00248 2.97663 0
M  V30 7658 H 724.896 -5.86858 1.53891 0
M  V30 7659 H 723.635 -4.80041 0.86091 0
M  V30 7660 H 722.64 -4.50814 3.14717 0
M  V30 7661 H 723.865 -5.61077 3.82582 0
M  V30 7662 H 721.811 -6.33536 1.702 0
M  V30 7663 H 721.728 -6.76252 3.37963 0
M  V30 7664 H 722.996 -7.41997 2.38873 0
M  V30 7665 N 727.225 -1.14528 -1.08264 0
M  V30 7666 C 728.45 -0.938381 -1.84957 0
M  V30 7667 C 728.875 0.508044 -1.81109 0
M  V30 7668 O 728.233 1.36146 -1.19724 0
M  V30 7669 C 728.281 -1.44568 -3.30352 0
M  V30 7670 O 727.385 -0.638745 -4.07423 0
M  V30 7671 H 726.726 -0.335394 -0.573068 0
M  V30 7672 H 729.256 -1.52287 -1.36637 0
M  V30 7673 H 729.266 -1.45449 -3.81194 0
M  V30 7674 H 727.941 -2.49876 -3.32468 0
M  V30 7675 H 726.518 -0.698801 -3.66294 0
M  V30 7676 N 728.703 1.26451 -0.940633 0
M  V30 7677 C 729.636 2.24771 -0.394094 0
M  V30 7678 C 730.614 1.54169 0.516781 0
M  V30 7679 O 731.798 1.82942 0.454352 0
M  V30 7680 C 728.925 3.3591 0.433807 0
M  V30 7681 C 727.971 4.24472 -0.415464 0
M  V30 7682 S 728.804 5.0293 -1.83907 0
M  V30 7683 C 729.96 6.17546 -1.01921 0
M  V30 7684 H 730.193 2.70782 -1.22737 0
M  V30 7685 H 727.726 1.35308 -0.743709 0
M  V30 7686 H 729.684 4.00387 0.905576 0
M  V30 7687 H 728.345 2.88512 1.24175 0
M  V30 7688 H 727.538 5.03525 0.218833 0
M  V30 7689 H 727.14 3.64857 -0.821897 0
M  V30 7690 H 729.432 6.76996 -0.261227 0
M  V30 7691 H 730.375 6.8528 -1.78318 0
M  V30 7692 H 730.783 5.6176 -0.555511 0
M  V30 7693 N 730.181 0.707592 1.40822 0
M  V30 7694 C 731.406 0.251626 2.05868 0
M  V30 7695 C 731.831 -1.09503 1.5294 0
M  V30 7696 O 731.189 -1.68806 0.661385 0
M  V30 7697 C 731.237 0.23287 3.59847 0
M  V30 7698 O 730.341 -0.788477 4.04792 0
M  V30 7699 H 729.682 0.119936 0.653078 0
M  V30 7700 H 732.212 0.96583 1.80369 0
M  V30 7701 H 732.222 0.0678204 4.07944 0
M  V30 7702 H 730.897 1.21565 3.97737 0
M  V30 7703 H 729.474 -0.591802 3.68174 0
M  V30 7704 N 731.66 -1.50943 0.453197 0
M  V30 7705 C 732.906 -2.02512 -0.108082 0
M  V30 7706 C 733.239 -1.33574 -1.40967 0
M  V30 7707 O 732.514 -0.455671 -1.89087 0
M  V30 7708 C 732.797 -3.58759 -0.310453 0
M  V30 7709 C 732.65 -4.38293 1.0109 0
M  V30 7710 C 733.969 -4.26816 -1.07313 0
M  V30 7711 H 731.088 -0.73603 -0.0378064 0
M  V30 7712 H 733.73 -1.80433 0.595295 0
M  V30 7713 H 731.88 -3.77702 -0.909582 0
M  V30 7714 H 733.552 -4.30964 1.64523 0
M  V30 7715 H 731.795 -4.02745 1.61179 0
M  V30 7716 H 732.466 -5.45828 0.82315 0
M  V30 7717 H 734.942 -4.1224 -0.565473 0
M  V30 7718 H 733.818 -5.35989 -1.1835 0
M  V30 7719 H 734.079 -3.88757 -2.10525 0
M  V30 7720 N 733.138 -0.185124 -1.56509 0
M  V30 7721 C 734.368 0.461469 -2.0138 0
M  V30 7722 C 734.776 1.56417 -1.06445 0
M  V30 7723 O 734.119 1.83603 -0.0597515 0
M  V30 7724 C 734.181 1.08731 -3.42663 0
M  V30 7725 C 733.845 0.124581 -4.5683 0
M  V30 7726 C 734.842 -0.662295 -5.15664 0
M  V30 7727 C 732.527 0.0163947 -5.02297 0
M  V30 7728 C 734.521 -1.54442 -6.18406 0
M  V30 7729 C 732.208 -0.869301 -6.04885 0
M  V30 7730 C 733.206 -1.64828 -6.62813 0
M  V30 7731 O 732.894 -2.51915 -7.63409 0
M  V30 7732 H 732.626 0.1212 -0.665046 0
M  V30 7733 H 735.18 -0.288119 -2.03369 0
M  V30 7734 H 733.41 1.8853 -3.37629 0
M  V30 7735 H 735.099 1.63753 -3.71403 0
M  V30 7736 H 735.865 -0.588963 -4.81411 0
M  V30 7737 H 731.744 0.61253 -4.56913 0
M  V30 7738 H 735.288 -2.15289 -6.63548 0
M  V30 7739 H 731.185 -0.943786 -6.38563 0
M  V30 7740 H 731.953 -2.45584 -7.80789 0
M  V30 7741 N 734.616 1.57351 0.0885366 0
M  V30 7742 C 735.856 1.88248 0.796362 0
M  V30 7743 C 736.22 0.776915 1.75579 0
M  V30 7744 O 737.421 0.968485 2.50747 0
M  V30 7745 C 735.692 3.24385 1.50031 0
M  V30 7746 S 737.251 3.76991 2.24551 0
M  V30 7747 H 734.069 0.659697 0.265181 0
M  V30 7748 H 736.671 1.95428 0.0531843 0
M  V30 7749 H 735.375 4.02764 0.788 0
M  V30 7750 H 734.906 3.20361 2.28325 0
M  V30 7751 H 736.921 3.50933 3.508 0
M  V30 7752 N 736.094 -0.359525 1.53444 0
M  V30 7753 C 737.322 -1.12198 1.73837 0
M  V30 7754 C 737.737 -1.82854 0.470107 0
M  V30 7755 O 737.094 -1.73781 -0.557349 0
M  V30 7756 C 737.145 -2.14769 2.90786 0
M  V30 7757 O 736.866 -1.46989 4.12706 0
M  V30 7758 C 738.367 -3.03514 3.231 0
M  V30 7759 H 735.587 -0.33524 0.581253 0
M  V30 7760 H 738.131 -0.416598 2.00212 0
M  V30 7761 H 736.286 -2.80896 2.66788 0
M  V30 7762 H 736.7 -2.15378 4.78239 0
M  V30 7763 H 738.174 -3.71453 4.08322 0
M  V30 7764 H 738.651 -3.68658 2.38721 0
M  V30 7765 H 739.257 -2.42996 3.49046 0
M  V30 7766 N 737.572 -1.44907 -0.619662 0
M  V30 7767 C 738.983 -1.42905 -1.20146 0
M  V30 7768 C 739.334 -0.150341 -1.95623 0
M  V30 7769 O 738.459 0.748732 -2.03034 0
M  V30 7770 C 739.054 -2.58889 -2.18545 0
M  V30 7771 C 737.613 -2.60046 -2.72127 0
M  V30 7772 C 736.76 -2.3493 -1.4732 0
M  V30 7773 H 739.711 -1.53321 -0.409666 0
M  V30 7774 H 739.732 -2.32298 -3.0136 0
M  V30 7775 H 739.244 -3.51941 -1.63583 0
M  V30 7776 H 737.345 -1.70968 -3.3106 0
M  V30 7777 H 737.458 -3.58893 -3.17384 0
M  V30 7778 H 735.822 -1.84248 -1.75855 0
M  V30 7779 H 736.605 -3.3011 -0.942442 0
M  V30 7780 N 739.05 0.861098 -1.31996 0
M  V30 7781 C 739.998 1.99052 -1.20337 0
M  V30 7782 C 740.992 1.69045 -0.109623 0
M  V30 7783 O 742.198 1.77931 -0.272117 0
M  V30 7784 H 738.573 0.653064 -0.372843 0
M  V30 7785 H 740.544 2.06015 -2.15872 0
M  V30 7786 C 739.293 3.34846 -0.936663 0
M  V30 7787 H 738.616 3.58462 -1.77045 0
M  V30 7788 H 740.056 4.1444 -0.895302 0
M  V30 7789 C 738.515 3.34965 0.360607 0
M  V30 7790 O 739.045 3.7745 1.37456 0
M  V30 7791 N 737.251 2.88101 0.380296 0
M  V30 7792 H 736.798 2.53721 -0.445351 0
M  V30 7793 H 736.756 2.88563 1.24816 0
M  V30 7794 N 740.528 1.15101 1.07655 0
M  V30 7795 C 741.475 0.844958 2.14777 0
M  V30 7796 C 742.445 -0.200798 1.64882 0
M  V30 7797 O 743.63 -0.0690278 1.90675 0
M  V30 7798 C 740.77 0.337018 3.4345 0
M  V30 7799 C 739.883 1.44398 4.07153 0
M  V30 7800 C 739.018 0.892487 5.23649 0
M  V30 7801 C 738.057 1.9766 5.79307 0
M  V30 7802 N 737.194 1.44171 6.87138 0
M  V30 7803 H 742.034 1.76242 2.40297 0
M  V30 7804 H 739.571 0.879435 1.17917 0
M  V30 7805 H 741.529 0.024256 4.17193 0
M  V30 7806 H 740.159 -0.543531 3.18191 0
M  V30 7807 H 739.211 1.87299 3.31094 0
M  V30 7808 H 740.523 2.26262 4.4453 0
M  V30 7809 H 739.677 0.532083 6.04362 0
M  V30 7810 H 738.416 0.0429854 4.87681 0
M  V30 7811 H 737.421 2.34586 4.97242 0
M  V30 7812 H 738.646 2.82982 6.17331 0
M  V30 7813 H 736.592 0.614518 6.53115 0
M  V30 7814 H 736.509 2.19665 7.23383 0
M  V30 7815 H 737.777 1.10945 7.71564 0
M  V30 7816 N 742.006 -1.2595 0.947325 0
M  V30 7817 C 743.417 -1.75389 0.639963 0
M  V30 7818 C 743.768 -1.77081 -0.844788 0
M  V30 7819 O 742.893 -1.3869 -1.66114 0
M  V30 7820 C 743.488 -3.18506 1.15496 0
M  V30 7821 C 742.047 -3.65534 0.897894 0
M  V30 7822 C 741.194 -2.44818 1.30228 0
M  V30 7823 H 744.145 -1.1194 1.12495 0
M  V30 7824 H 744.166 -3.77045 0.511627 0
M  V30 7825 H 743.678 -3.17243 2.23559 0
M  V30 7826 H 741.779 -3.72221 -0.168096 0
M  V30 7827 H 741.892 -4.54039 1.52922 0
M  V30 7828 H 740.256 -2.44291 0.720678 0
M  V30 7829 H 741.039 -2.46251 2.39198 0
M  V30 7830 N 743.484 -0.715051 -1.40445 0
M  V30 7831 C 744.709 -0.26254 -2.05732 0
M  V30 7832 C 745.134 1.08691 -1.53519 0
M  V30 7833 O 744.492 1.68453 -0.670328 0
M  V30 7834 C 744.54 -0.25195 -3.59719 0
M  V30 7835 O 743.644 0.766998 -4.05205 0
M  V30 7836 H 742.985 -0.123398 -0.652433 0
M  V30 7837 H 745.515 -0.975382 -1.79854 0
M  V30 7838 H 745.525 -0.0894537 -4.07902 0
M  V30 7839 H 744.2 -1.23672 -3.97087 0
M  V30 7840 H 742.777 0.572269 -3.68483 0
M  V30 7841 N 744.962 1.50701 -0.461195 0
M  V30 7842 C 746.378 1.59187 -0.114786 0
M  V30 7843 C 746.578 1.4702 1.37794 0
M  V30 7844 O 745.634 1.32361 2.15027 0
M  V30 7845 C 746.947 2.93453 -0.656167 0
M  V30 7846 C 748.495 3.06824 -0.618715 0
M  V30 7847 C 748.97 4.4365 -1.13747 0
M  V30 7848 N 750.461 4.50035 -1.09646 0
M  V30 7849 C 751.196 5.54278 -1.46846 0
M  V30 7850 N 750.692 6.65822 -1.91448 0
M  V30 7851 N 752.485 5.44767 -1.38512 0
M  V30 7852 H 744.636 1.56853 -1.43216 0
M  V30 7853 H 746.899 0.740712 -0.59165 0
M  V30 7854 H 746.605 3.07802 -1.7015 0
M  V30 7855 H 746.479 3.77082 -0.0942261 0
M  V30 7856 H 748.866 2.92129 0.417685 0
M  V30 7857 H 748.947 2.24976 -1.21734 0
M  V30 7858 H 748.591 4.59093 -2.17245 0
M  V30 7859 H 748.521 5.24074 -0.515153 0
M  V30 7860 H 751.012 3.69988 -0.769217 0
M  V30 7861 H 751.325 7.41413 -2.18007 0
M  V30 7862 H 749.67 6.66968 -1.95393 0
M  V30 7863 H 752.861 4.56511 -1.03516 0
M  V30 7864 H 753.034 6.25889 -1.6783 0
M  V30 7865 N 746.441 0.193421 1.56409 0
M  V30 7866 C 747.669 -0.451438 2.01915 0
M  V30 7867 C 748.084 -1.55306 1.07357 0
M  V30 7868 O 747.441 -1.82333 0.0781512 0
M  V30 7869 C 747.492 -1.00931 3.47124 0
M  V30 7870 O 747.213 0.0483623 4.38073 0
M  V30 7871 C 748.714 -1.73021 4.0814 0
M  V30 7872 H 745.934 -0.113495 0.661332 0
M  V30 7873 H 748.478 0.301636 2.02263 0
M  V30 7874 H 746.633 -1.71277 3.47481 0
M  V30 7875 H 747.047 -0.366644 5.23217 0
M  V30 7876 H 748.521 -2.07289 5.11601 0
M  V30 7877 H 748.998 -2.6333 3.51502 0
M  V30 7878 H 749.604 -1.07264 4.11551 0
M  V30 7879 N 747.919 -1.57396 -0.0801906 0
M  V30 7880 C 749.144 -1.91437 -0.797909 0
M  V30 7881 C 749.569 -0.789075 -1.70749 0
M  V30 7882 O 748.927 0.25857 -1.79447 0
M  V30 7883 C 748.975 -3.24402 -1.57467 0
M  V30 7884 O 748.079 -3.13043 -2.68473 0
M  V30 7885 H 747.42 -0.627109 -0.218243 0
M  V30 7886 H 749.95 -2.04537 -0.050949 0
M  V30 7887 H 749.96 -3.58072 -1.95571 0
M  V30 7888 H 748.635 -4.05884 -0.907229 0
M  V30 7889 H 747.212 -2.90915 -2.33287 0
M  V30 7890 N 749.397 0.351382 -1.53633 0
M  V30 7891 C 750.33 1.45407 -1.75875 0
M  V30 7892 C 751.308 1.50822 -0.607566 0
M  V30 7893 O 752.492 1.68658 -0.841818 0
M  V30 7894 C 749.619 2.8369 -1.85034 0
M  V30 7895 C 748.665 2.95935 -3.07123 0
M  V30 7896 S 749.498 2.63215 -4.66345 0
M  V30 7897 C 750.654 4.03622 -4.78373 0
M  V30 7898 H 750.887 1.26322 -2.69128 0
M  V30 7899 H 748.42 0.546581 -1.44402 0
M  V30 7900 H 750.378 3.6336 -1.90996 0
M  V30 7901 H 749.039 3.00076 -0.928074 0
M  V30 7902 H 748.232 3.97243 -3.10183 0
M  V30 7903 H 747.834 2.24205 -2.99346 0
M  V30 7904 H 750.126 4.98046 -4.593 0
M  V30 7905 H 751.069 4.05559 -5.80454 0
M  V30 7906 H 751.477 3.91282 -4.06889 0
M  V30 7907 N 750.875 1.45233 0.611969 0
M  V30 7908 C 752.1 1.52767 1.40274 0
M  V30 7909 C 752.525 0.159701 1.87421 0
M  V30 7910 O 751.883 -0.854837 1.59882 0
M  V30 7911 C 751.931 2.51286 2.58626 0
M  V30 7912 O 751.035 2.02764 3.59111 0
M  V30 7913 H 750.376 0.515141 0.418958 0
M  V30 7914 H 752.906 1.90547 0.745188 0
M  V30 7915 H 752.916 2.69949 3.05927 0
M  V30 7916 H 751.591 3.50641 2.23659 0
M  V30 7917 H 750.168 1.93957 3.18489 0
M  V30 7918 N 752.353 -0.854086 1.3245 0
M  V30 7919 C 753.3 -1.96271 1.21434 0
M  V30 7920 C 754.27 -1.6582 0.0963851 0
M  V30 7921 O 755.455 -1.88851 0.27203 0
M  V30 7922 C 752.595 -3.31939 0.943952 0
M  V30 7923 C 751.708 -3.74885 2.14675 0
M  V30 7924 C 750.843 -4.99347 1.81179 0
M  V30 7925 C 749.882 -5.34785 2.97777 0
M  V30 7926 N 749.019 -6.50425 2.6437 0
M  V30 7927 H 753.859 -2.05025 2.16261 0
M  V30 7928 H 751.396 -1.00348 1.07558 0
M  V30 7929 H 753.354 -4.10076 0.767675 0
M  V30 7930 H 751.984 -3.22784 0.0324763 0
M  V30 7931 H 751.036 -2.92396 2.43328 0
M  V30 7932 H 752.348 -3.97068 3.01891 0
M  V30 7933 H 751.502 -5.85193 1.60107 0
M  V30 7934 H 750.241 -4.79101 0.911777 0
M  V30 7935 H 749.246 -4.47451 3.1948 0
M  V30 7936 H 750.471 -5.56988 3.88511 0
M  V30 7937 H 748.417 -6.31695 1.7691 0
M  V30 7938 H 748.334 -6.7263 3.45116 0
M  V30 7939 H 749.602 -7.39422 2.46729 0
M  V30 7940 N 753.831 -1.1567 -1.07043 0
M  V30 7941 C 754.764 -0.799867 -2.13723 0
M  V30 7942 C 755.742 0.225098 -1.61034 0
M  V30 7943 O 756.926 0.11093 -1.88173 0
M  V30 7944 C 754.053 -0.18997 -3.38167 0
M  V30 7945 C 753.099 -1.18733 -4.0964 0
M  V30 7946 S 753.932 -2.73074 -4.60642 0
M  V30 7947 C 755.088 -2.13512 -5.88356 0
M  V30 7948 H 755.321 -1.70342 -2.43661 0
M  V30 7949 H 752.854 -0.979377 -1.19363 0
M  V30 7950 H 754.812 0.155471 -4.10205 0
M  V30 7951 H 753.473 0.691229 -3.064 0
M  V30 7952 H 752.666 -0.708873 -4.9899 0
M  V30 7953 H 752.268 -1.47747 -3.43579 0
M  V30 7954 H 754.56 -1.49911 -6.60706 0
M  V30 7955 H 755.503 -3.01042 -6.40921 0
M  V30 7956 H 755.911 -1.57693 -5.42027 0
M  V30 7957 N 755.309 1.25446 -0.953992 0
M  V30 7958 C 756.556 1.93143 -0.608429 0
M  V30 7959 C 756.884 1.74727 0.854451 0
M  V30 7960 O 756.139 1.0855 1.62836 0
M  V30 7961 C 756.438 3.45555 -0.912496 0
M  V30 7962 C 756.104 3.84126 -2.36131 0
M  V30 7963 C 754.766 3.94367 -2.75732 0
M  V30 7964 C 757.118 4.0324 -3.30223 0
M  V30 7965 C 754.446 4.21127 -4.08496 0
M  V30 7966 C 756.798 4.31493 -4.62598 0
M  V30 7967 C 755.462 4.3995 -5.01996 0
M  V30 7968 H 754.732 0.706762 -0.22264 0
M  V30 7969 H 757.379 1.49005 -1.20291 0
M  V30 7970 H 755.684 3.91091 -0.235618 0
M  V30 7971 H 757.381 3.9612 -0.623714 0
M  V30 7972 H 753.971 3.76711 -2.04418 0
M  V30 7973 H 758.155 3.94744 -3.00817 0
M  V30 7974 H 753.411 4.2589 -4.38665 0
M  V30 7975 H 757.585 4.45227 -5.35486 0
M  V30 7976 H 755.212 4.60439 -6.04896 0
M  V30 7977 N 756.787 0.722489 1.40064 0
M  V30 7978 C 758.033 0.265371 2.01056 0
M  V30 7979 C 758.366 -1.14062 1.57174 0
M  V30 7980 O 757.641 -1.77514 0.794916 0
M  V30 7981 C 757.924 0.353157 3.58364 0
M  V30 7982 C 757.777 1.79802 4.123 0
M  V30 7983 C 759.096 -0.271677 4.39261 0
M  V30 7984 H 756.215 0.0979002 0.730469 0
M  V30 7985 H 758.857 0.916289 1.66446 0
M  V30 7986 H 757.007 -0.201037 3.87979 0
M  V30 7987 H 758.679 2.40813 3.93455 0
M  V30 7988 H 756.922 2.32348 3.66329 0
M  V30 7989 H 757.593 1.81079 5.21454 0
M  V30 7990 H 760.069 0.200607 4.15616 0
M  V30 7991 H 758.945 -0.179843 5.48605 0
M  V30 7992 H 759.206 -1.35611 4.20787 0
M  V30 7993 N 758.265 -1.50454 0.469181 0
M  V30 7994 C 759.212 -2.28486 -0.325982 0
M  V30 7995 C 760.182 -1.33455 -0.988893 0
M  V30 7996 O 761.367 -1.6239 -1.0017 0
M  V30 7997 C 758.507 -3.15288 -1.40313 0
M  V30 7998 C 757.62 -4.25348 -0.755183 0
M  V30 7999 C 756.755 -4.9941 -1.81006 0
M  V30 8000 C 755.794 -6.01348 -1.14226 0
M  V30 8001 N 754.931 -6.68695 -2.1399 0
M  V30 8002 H 759.771 -2.95987 0.345753 0
M  V30 8003 H 757.308 -1.45965 0.182355 0
M  V30 8004 H 759.266 -3.63964 -2.03927 0
M  V30 8005 H 757.896 -2.49837 -2.04405 0
M  V30 8006 H 756.948 -3.80399 -0.00651901 0
M  V30 8007 H 758.26 -4.98279 -0.227941 0
M  V30 8008 H 757.414 -5.51794 -2.52206 0
M  V30 8009 H 756.153 -4.26181 -2.3711 0
M  V30 8010 H 755.158 -5.48225 -0.415876 0
M  V30 8011 H 756.383 -6.76548 -0.588135 0
M  V30 8012 H 754.329 -5.98258 -2.69115 0
M  V30 8013 H 754.246 -7.37495 -1.66246 0
M  V30 8014 H 755.514 -7.25697 -2.84576 0
M  V30 8015 N 759.743 -0.201713 -1.56304 0
M  V30 8016 C 760.991 0.434447 -1.97375 0
M  V30 8017 C 761.312 1.61692 -1.08998 0
M  V30 8018 O 760.582 1.95223 -0.162682 0
M  V30 8019 H 759.162 0.163497 -0.728888 0
M  V30 8020 H 761.824 -0.289988 -1.92731 0
M  V30 8021 H 760.92 0.774136 -3.02347 0
M  V30 8022 N 761.222 1.57436 0.0718424 0
M  V30 8023 C 762.185 2.02703 1.06977 0
M  V30 8024 C 763.185 0.924062 1.31597 0
M  V30 8025 O 764.375 1.18894 1.27318 0
M  V30 8026 C 761.507 2.40763 2.41342 0
M  V30 8027 H 762.7 2.92098 0.679619 0
M  V30 8028 H 760.253 1.5304 0.317565 0
M  V30 8029 H 760.988 1.54394 2.8519 0
M  V30 8030 H 760.773 3.21249 2.24814 0
M  V30 8031 H 762.263 2.76361 3.13073 0
M  V30 8032 N 762.7 -0.34323 1.53817 0
M  V30 8033 C 764.111 -0.918823 1.62525 0
M  V30 8034 C 764.462 -1.89542 0.506765 0
M  V30 8035 O 763.587 -2.13326 -0.363441 0
M  V30 8036 C 764.182 -1.67326 2.94597 0
M  V30 8037 C 762.741 -2.19786 3.05567 0
M  V30 8038 C 761.888 -1.01708 2.57974 0
M  V30 8039 H 764.839 -0.121358 1.58235 0
M  V30 8040 H 764.86 -2.53615 2.83654 0
M  V30 8041 H 764.372 -0.962223 3.75983 0
M  V30 8042 H 762.473 -2.94065 2.28816 0
M  V30 8043 H 762.586 -2.46135 4.1104 0
M  V30 8044 H 760.95 -1.39058 2.13389 0
M  V30 8045 H 761.733 -0.320671 3.41799 0
M  V30 8046 N 764.178 -1.45556 -0.604258 0
M  V30 8047 C 765.088 -1.57025 -1.74299 0
M  V30 8048 C 766.104 -0.45456 -1.67958 0
M  V30 8049 O 767.28 -0.715711 -1.88254 0
M  V30 8050 C 764.345 -1.53702 -3.10768 0
M  V30 8051 C 763.406 -2.76335 -3.28538 0
M  V30 8052 C 762.639 -2.73161 -4.58496 0
M  V30 8053 O 762.862 -1.80678 -5.41028 0
M  V30 8054 O 761.796 -3.64409 -4.79051 0
M  V30 8055 H 765.622 -2.53284 -1.67573 0
M  V30 8056 H 763.207 -1.28104 -0.768745 0
M  V30 8057 H 765.089 -1.54468 -3.92068 0
M  V30 8058 H 763.764 -0.605957 -3.17978 0
M  V30 8059 H 762.671 -2.8113 -2.46813 0
M  V30 8060 H 764.004 -3.68578 -3.26207 0
M  V30 8061 N 765.656 0.84705 -1.32902 0
M  V30 8062 C 766.904 1.5986 -1.2365 0
M  V30 8063 C 767.225 1.93974 0.199789 0
M  V30 8064 O 766.495 1.60273 1.12648 0
M  V30 8065 H 765.075 0.592696 -0.454665 0
M  V30 8066 H 767.737 1.01278 -1.66519 0
M  V30 8067 H 766.833 2.53218 -1.82448 0
M  V30 8068 N 767.134 1.16236 1.06428 0
M  V30 8069 C 768.38 0.944431 1.79467 0
M  V30 8070 C 768.713 -0.526558 1.86925 0
M  V30 8071 O 767.988 -1.39061 1.35986 0
M  V30 8072 C 768.271 1.57092 3.24028 0
M  V30 8073 C 768.124 3.11315 3.24658 0
M  V30 8074 C 769.443 1.26447 4.21544 0
M  V30 8075 H 766.562 0.344521 0.651517 0
M  V30 8076 H 769.204 1.43545 1.24478 0
M  V30 8077 H 767.354 1.15337 3.70985 0
M  V30 8078 H 769.026 3.62042 2.85873 0
M  V30 8079 H 767.269 3.44716 2.6335 0
M  V30 8080 H 767.94 3.50269 4.26633 0
M  V30 8081 H 770.416 1.62581 3.83023 0
M  V30 8082 H 769.292 1.72885 5.20963 0
M  V30 8083 H 769.553 0.183068 4.41721 0
M  V30 8084 N 768.612 -1.24939 0.960631 0
M  V30 8085 C 769.861 -1.92118 0.614298 0
M  V30 8086 C 770.174 -1.75998 -0.853474 0
M  V30 8087 O 771.38 -2.37804 -1.31003 0
M  V30 8088 C 769.836 -3.44303 1.04801 0
M  V30 8089 C 769.444 -3.69123 2.53875 0
M  V30 8090 C 771.188 -4.17375 0.774497 0
M  V30 8091 C 769.095 -5.14843 2.91016 0
M  V30 8092 H 768.025 -0.719319 0.226045 0
M  V30 8093 H 770.676 -1.41701 1.16589 0
M  V30 8094 H 769.058 -3.93715 0.42479 0
M  V30 8095 H 770.232 -3.30339 3.21267 0
M  V30 8096 H 768.547 -3.09323 2.78762 0
M  V30 8097 H 771.144 -5.24723 1.02808 0
M  V30 8098 H 771.487 -4.15294 -0.289192 0
M  V30 8099 H 772.02 -3.7389 1.35835 0
M  V30 8100 H 768.759 -5.2204 3.96427 0
M  V30 8101 H 768.279 -5.54652 2.28302 0
M  V30 8102 H 769.958 -5.83017 2.80535 0
M  V30 8103 N 770.09 -0.729906 -1.39679 0
M  V30 8104 C 771.367 -0.202149 -1.94553 0
M  V30 8105 C 771.747 1.29507 -1.66707 0
M  V30 8106 O 771.095 2.05819 -0.992517 0
M  V30 8107 C 771.305 -0.530279 -3.44948 0
M  V30 8108 C 772.653 -0.476808 -4.21914 0
M  V30 8109 O 773.677 -0.467171 -3.53123 0
M  V30 8110 O 772.536 -0.466869 -5.44502 0
M  V30 8111 H 769.63 -0.0351644 -0.826252 0
M  V30 8112 H 772.176 -0.808417 -1.49207 0
M  V30 8113 H 770.948 -1.56526 -3.5863 0
M  V30 8114 H 770.571 0.10522 -3.97461 0
M  V30 8115 N 771.568 1.50203 -0.477153 0
M  V30 8116 C 772.984 1.59056 -0.131663 0
M  V30 8117 C 773.184 1.48473 1.36227 0
M  V30 8118 O 772.24 1.34635 2.13611 0
M  V30 8119 C 773.553 2.92741 -0.687254 0
M  V30 8120 C 775.101 3.0615 -0.651223 0
M  V30 8121 C 775.576 4.42419 -1.18446 0
M  V30 8122 N 777.067 4.48847 -1.14413 0
M  V30 8123 C 777.802 5.52689 -1.52717 0
M  V30 8124 N 777.298 6.63754 -1.98499 0
M  V30 8125 N 779.091 5.43267 -1.44282 0
M  V30 8126 H 771.242 1.55325 -1.44872 0
M  V30 8127 H 773.505 0.734395 -0.599473 0
M  V30 8128 H 773.211 3.0598 -1.73405 0
M  V30 8129 H 773.085 3.76961 -0.134215 0
M  V30 8130 H 775.472 2.92556 0.386677 0
M  V30 8131 H 775.553 2.23673 -1.24114 0
M  V30 8132 H 775.197 4.56763 -2.22103 0
M  V30 8133 H 775.127 5.23498 -0.570709 0
M  V30 8134 H 777.618 3.69152 -0.808416 0
M  V30 8135 H 777.931 7.39059 -2.25859 0
M  V30 8136 H 776.276 6.64858 -2.02456 0
M  V30 8137 H 779.467 4.55387 -1.08352 0
M  V30 8138 H 779.64 6.24074 -1.74459 0
M  V30 8139 N 773.046 0.209999 1.56195 0
M  V30 8140 C 774.286 -0.4268 1.99894 0
M  V30 8141 C 774.65 -1.57763 1.0943 0
M  V30 8142 O 775.851 -2.27964 1.42428 0
M  V30 8143 C 774.122 -0.861188 3.46869 0
M  V30 8144 S 775.681 -1.49372 4.12593 0
M  V30 8145 H 772.499 -0.135922 0.697887 0
M  V30 8146 H 775.101 0.316573 1.9292 0
M  V30 8147 H 773.805 -0.0137653 4.10398 0
M  V30 8148 H 773.336 -1.63766 3.57693 0
M  V30 8149 H 775.351 -2.7827 4.10829 0
M  V30 8150 N 774.524 -1.57472 -0.0634922 0
M  V30 8151 C 775.752 -1.91887 -0.773767 0
M  V30 8152 C 776.167 -0.806733 -1.70696 0
M  V30 8153 O 775.524 0.219383 -1.81177 0
M  V30 8154 C 775.575 -3.26092 -1.56034 0
M  V30 8155 O 775.296 -4.33029 -0.66464 0
M  V30 8156 C 776.797 -3.74573 -2.37087 0
M  V30 8157 H 774.017 -0.634074 -0.219525 0
M  V30 8158 H 776.561 -2.04476 -0.0312828 0
M  V30 8159 H 774.716 -3.15004 -2.25502 0
M  V30 8160 H 775.13 -5.10291 -1.21258 0
M  V30 8161 H 776.604 -4.71084 -2.87722 0
M  V30 8162 H 777.081 -3.04003 -3.16984 0
M  V30 8163 H 777.687 -3.88631 -1.72759 0
M  V30 8164 N 776.003 0.335068 -1.53997 0
M  V30 8165 C 776.953 1.4127 -1.7896 0
M  V30 8166 C 777.937 1.474 -0.64513 0
M  V30 8167 O 779.129 1.52127 -0.904785 0
M  V30 8168 C 776.258 2.78292 -2.01018 0
M  V30 8169 C 775.344 2.7652 -3.21555 0
M  V30 8170 N 775.735 2.44374 -4.42849 0
M  V30 8171 C 774.033 3.0766 -3.22895 0
M  V30 8172 C 774.734 2.51049 -5.24737 0
M  V30 8173 N 773.71 2.8702 -4.6165 0
M  V30 8174 H 777.512 1.15327 -2.70327 0
M  V30 8175 H 775.026 0.543483 -1.53036 0
M  V30 8176 H 777.023 3.55949 -2.17039 0
M  V30 8177 H 775.683 3.05175 -1.10898 0
M  V30 8178 H 776.694 2.17422 -4.70051 0
M  V30 8179 H 773.371 3.3966 -2.42771 0
M  V30 8180 H 774.761 2.29283 -6.31569 0
M  V30 8181 N 777.481 1.45874 0.596531 0
M  V30 8182 C 778.73 1.49737 1.35135 0
M  V30 8183 C 779.043 0.147755 1.95041 0
M  V30 8184 O 780.249 0.0640984 2.71424 0
M  V30 8185 C 778.705 2.6378 2.44843 0
M  V30 8186 C 778.313 4.05102 1.91301 0
M  V30 8187 C 780.057 2.769 3.21755 0
M  V30 8188 C 777.964 5.10508 2.98557 0
M  V30 8189 H 776.894 0.557219 0.507959 0
M  V30 8190 H 779.545 1.72046 0.638147 0
M  V30 8191 H 777.927 2.34774 3.189 0
M  V30 8192 H 779.101 4.43836 1.2388 0
M  V30 8193 H 777.416 3.96528 1.271 0
M  V30 8194 H 780.013 3.52819 4.01775 0
M  V30 8195 H 780.356 1.83924 3.73467 0
M  V30 8196 H 780.889 3.05485 2.54802 0
M  V30 8197 H 777.628 6.0523 2.51749 0
M  V30 8198 H 777.148 4.76332 3.6451 0
M  V30 8199 H 778.827 5.35745 3.62748 0
M  V30 8200 N 778.959 -0.83999 1.33349 0
M  V30 8201 C 780.375 -1.13049 1.12659 0
M  V30 8202 C 780.575 -2.01328 -0.0832613 0
M  V30 8203 O 779.631 -2.40669 -0.763856 0
M  V30 8204 C 780.944 -1.79366 2.41347 0
M  V30 8205 C 782.492 -1.91937 2.47243 0
M  V30 8206 C 782.967 -2.6167 3.75889 0
M  V30 8207 N 784.458 -2.69184 3.76954 0
M  V30 8208 C 785.193 -3.23827 4.73206 0
M  V30 8209 N 784.689 -3.79166 5.79832 0
M  V30 8210 N 786.482 -3.22068 4.60683 0
M  V30 8211 H 778.633 -0.252432 2.10895 0
M  V30 8212 H 780.896 -0.174501 0.931801 0
M  V30 8213 H 780.602 -1.2196 3.29877 0
M  V30 8214 H 780.476 -2.79396 2.53412 0
M  V30 8215 H 782.863 -2.48498 1.59163 0
M  V30 8216 H 782.944 -0.908604 2.39119 0
M  V30 8217 H 782.588 -2.05769 4.64351 0
M  V30 8218 H 782.518 -3.63217 3.81289 0
M  V30 8219 H 785.009 -2.2994 2.99893 0
M  V30 8220 H 785.322 -4.19061 6.49313 0
M  V30 8221 H 783.667 -3.77457 5.83568 0
M  V30 8222 H 786.858 -2.78092 3.7654 0
M  V30 8223 H 787.031 -3.64351 5.35866 0
M  V30 8224 N 780.437 -1.16799 -1.0581 0
M  V30 8225 C 781.683 -0.953935 -1.78963 0
M  V30 8226 C 782.016 0.516638 -1.87202 0
M  V30 8227 O 781.291 1.38338 -1.36721 0
M  V30 8228 C 781.574 -1.58808 -3.23191 0
M  V30 8229 C 781.427 -3.13032 -3.23003 0
M  V30 8230 C 782.746 -1.2868 -4.20867 0
M  V30 8231 H 779.865 -0.347972 -0.64968 0
M  V30 8232 H 782.507 -1.44204 -1.23715 0
M  V30 8233 H 780.657 -1.17303 -3.70368 0
M  V30 8234 H 782.329 -3.63553 -2.83949 0
M  V30 8235 H 780.572 -3.46108 -2.61518 0
M  V30 8236 H 781.243 -3.52527 -4.24769 0
M  V30 8237 H 783.719 -1.6461 -3.82155 0
M  V30 8238 H 782.595 -1.75645 -5.20038 0
M  V30 8239 H 782.856 -0.206491 -4.41618 0
M  V30 8240 N 781.915 1.24427 -0.967243 0
M  V30 8241 C 783.163 1.92107 -0.627638 0
M  V30 8242 C 783.484 1.75991 0.83978 0
M  V30 8243 O 782.754 1.13118 1.59941 0
M  V30 8244 H 781.334 0.710986 -0.229145 0
M  V30 8245 H 783.996 1.51331 -1.22821 0
M  V30 8246 H 783.092 2.99791 -0.867844 0
M  V30 8247 N 783.393 0.737304 1.3929 0
M  V30 8248 C 784.618 0.295237 2.05288 0
M  V30 8249 C 785.043 -1.06235 1.55228 0
M  V30 8250 O 784.401 -1.67365 0.697043 0
M  V30 8251 C 784.449 0.309146 3.59272 0
M  V30 8252 O 783.553 -0.702437 4.06374 0
M  V30 8253 H 782.894 0.133762 0.650387 0
M  V30 8254 H 785.424 1.00387 1.78279 0
M  V30 8255 H 785.434 0.154336 4.07708 0
M  V30 8256 H 784.109 1.29974 3.95069 0
M  V30 8257 H 782.686 -0.513574 3.69346 0
M  V30 8258 N 784.871 -1.49948 0.485112 0
M  V30 8259 C 786.099 -2.06806 -0.0622824 0
M  V30 8260 C 786.514 -1.34736 -1.32256 0
M  V30 8261 O 785.871 -0.420836 -1.77582 0
M  V30 8262 C 785.922 -3.59934 -0.336096 0
M  V30 8263 O 785.643 -4.29289 0.874203 0
M  V30 8264 C 787.144 -4.33459 -0.928903 0
M  V30 8265 H 784.364 -0.670867 0.0133472 0
M  V30 8266 H 786.908 -1.92937 0.677917 0
M  V30 8267 H 785.063 -3.7356 -1.02625 0
M  V30 8268 H 785.477 -5.20735 0.627332 0
M  V30 8269 H 786.951 -5.41527 -1.07017 0
M  V30 8270 H 787.428 -3.94881 -1.92265 0
M  V30 8271 H 788.034 -4.24399 -0.276705 0
M  V30 8272 N 786.349 -0.21828 -1.56081 0
M  V30 8273 C 787.296 0.693189 -2.20144 0
M  V30 8274 C 788.266 1.19274 -1.15598 0
M  V30 8275 O 789.451 1.25243 -1.4394 0
M  V30 8276 C 786.591 1.89715 -2.88275 0
M  V30 8277 C 785.704 1.4368 -4.07407 0
M  V30 8278 C 784.839 2.59807 -4.63329 0
M  V30 8279 C 783.878 2.10492 -5.74769 0
M  V30 8280 N 783.015 3.1988 -6.24997 0
M  V30 8281 H 787.855 0.14016 -2.9767 0
M  V30 8282 H 785.392 0.0574292 -1.46988 0
M  V30 8283 H 787.35 2.60398 -3.25958 0
M  V30 8284 H 785.98 2.42311 -2.13273 0
M  V30 8285 H 785.032 0.625007 -3.7523 0
M  V30 8286 H 786.344 1.03517 -4.8794 0
M  V30 8287 H 785.498 3.38577 -5.03438 0
M  V30 8288 H 784.237 3.03256 -3.81951 0
M  V30 8289 H 783.242 1.30182 -5.34165 0
M  V30 8290 H 784.467 1.68045 -6.5798 0
M  V30 8291 H 782.413 3.62817 -5.46534 0
M  V30 8292 H 782.33 2.83958 -7.00645 0
M  V30 8293 H 783.598 3.98796 -6.69763 0
M  V30 8294 N 787.827 1.57504 0.0551401 0
M  V30 8295 C 789.073 1.88334 0.752216 0
M  V30 8296 C 789.406 0.812742 1.76375 0
M  V30 8297 O 788.681 -0.175198 1.93709 0
M  V30 8298 C 788.964 3.29824 1.44528 0
M  V30 8299 C 788.817 4.47553 0.449026 0
M  V30 8300 C 790.136 3.69808 2.38601 0
M  V30 8301 H 787.255 0.684973 0.271995 0
M  V30 8302 H 789.897 1.89994 0.0151895 0
M  V30 8303 H 788.047 3.28539 2.07351 0
M  V30 8304 H 789.719 4.60967 -0.175277 0
M  V30 8305 H 787.962 4.33168 -0.234162 0
M  V30 8306 H 788.633 5.43376 0.971917 0
M  V30 8307 H 791.109 3.72293 1.85842 0
M  V30 8308 H 789.985 4.69665 2.84088 0
M  V30 8309 H 790.246 3.00641 3.24141 0
M  V30 8310 N 789.305 -0.326896 1.54172 0
M  V30 8311 C 790.716 -0.901533 1.63491 0
M  V30 8312 C 791.067 -1.88994 0.52684 0
M  V30 8313 O 790.192 -2.137 -0.340794 0
M  V30 8314 C 790.787 -1.64192 2.96355 0
M  V30 8315 C 789.346 -2.16533 3.07881 0
M  V30 8316 C 788.493 -0.98966 2.59039 0
M  V30 8317 H 791.444 -0.104568 1.58355 0
M  V30 8318 H 791.465 -2.50592 2.86328 0
M  V30 8319 H 790.977 -0.922291 3.76982 0
M  V30 8320 H 789.078 -2.91622 2.31922 0
M  V30 8321 H 789.191 -2.41762 4.13628 0
M  V30 8322 H 787.555 -1.36787 2.14852 0
M  V30 8323 H 788.338 -0.284401 3.4212 0
M  V30 8324 N 790.784 -1.46188 -0.588786 0
M  V30 8325 C 791.717 -1.508 -1.71274 0
M  V30 8326 C 792.695 -0.362635 -1.58505 0
M  V30 8327 O 793.879 -0.565899 -1.79805 0
M  V30 8328 C 791.006 -1.38082 -3.09275 0
M  V30 8329 C 790.052 -2.56723 -3.40581 0
M  V30 8330 S 790.885 -4.1911 -3.33327 0
M  V30 8331 C 792.041 -4.08891 -4.73877 0
M  V30 8332 H 792.274 -2.45895 -1.67102 0
M  V30 8333 H 789.807 -1.34 -0.767025 0
M  V30 8334 H 791.765 -1.31432 -3.88891 0
M  V30 8335 H 790.426 -0.444259 -3.10942 0
M  V30 8336 H 789.619 -2.43801 -4.41109 0
M  V30 8337 H 789.221 -2.60332 -2.68521 0
M  V30 8338 H 791.513 -3.75196 -5.64123 0
M  V30 8339 H 792.456 -5.09395 -4.91856 0
M  V30 8340 H 792.864 -3.40239 -4.50441 0
M  V30 8341 N 792.262 0.832906 -1.33792 0
M  V30 8342 C 793.49 1.62048 -1.28639 0
M  V30 8343 C 793.905 1.88269 0.141522 0
M  V30 8344 O 793.262 1.46706 1.08553 0
M  V30 8345 C 793.313 2.96722 -2.0649 0
M  V30 8346 O 793.034 2.7165 -3.43712 0
M  V30 8347 C 794.535 3.91144 -2.08617 0
M  V30 8348 H 791.755 0.504032 -0.442937 0
M  V30 8349 H 794.299 1.03704 -1.76255 0
M  V30 8350 H 792.454 3.51652 -1.62541 0
M  V30 8351 H 792.868 3.57453 -3.83833 0
M  V30 8352 H 794.342 4.82837 -2.67531 0
M  V30 8353 H 794.819 4.25766 -1.07796 0
M  V30 8354 H 795.425 3.42152 -2.52611 0
M  V30 8355 N 793.74 1.17359 1.05189 0
M  V30 8356 C 794.965 0.98709 1.82404 0
M  V30 8357 C 795.39 -0.459848 1.82392 0
M  V30 8358 O 794.748 -1.32924 1.23292 0
M  V30 8359 C 794.796 1.53276 3.26403 0
M  V30 8360 O 793.9 0.746541 4.05587 0
M  V30 8361 H 793.241 0.35047 0.563974 0
M  V30 8362 H 795.771 1.55856 1.32552 0
M  V30 8363 H 795.781 1.55504 3.77203 0
M  V30 8364 H 794.456 2.58603 3.25726 0
M  V30 8365 H 793.033 0.795671 3.64312 0
M  V30 8366 N 795.218 -1.23913 0.973828 0
M  V30 8367 C 796.466 -1.91771 0.637817 0
M  V30 8368 C 796.787 -1.76434 -0.830435 0
M  V30 8369 O 796.057 -1.13965 -1.59339 0
M  V30 8370 H 794.637 -0.709761 0.232912 0
M  V30 8371 H 797.299 -1.50677 1.23622 0
M  V30 8372 H 796.395 -2.99327 0.883731 0
M  V30 8373 N 796.696 -0.74468 -1.38897 0
M  V30 8374 C 797.942 -0.297324 -2.00609 0
M  V30 8375 C 798.275 1.11547 -1.58968 0
M  V30 8376 O 797.55 1.76227 -0.823057 0
M  V30 8377 C 797.833 -0.410125 -3.57757 0
M  V30 8378 C 797.686 -1.86338 -4.09387 0
M  V30 8379 C 799.005 0.20176 -4.39637 0
M  V30 8380 H 796.124 -0.109509 -0.728819 0
M  V30 8381 H 798.766 -0.942653 -1.64967 0
M  V30 8382 H 796.916 0.139287 -3.8825 0
M  V30 8383 H 798.588 -2.47042 -3.89574 0
M  V30 8384 H 796.831 -2.38146 -3.62586 0
M  V30 8385 H 797.502 -1.89352 -5.18507 0
M  V30 8386 H 799.978 -0.266703 -4.15244 0
M  V30 8387 H 798.854 0.0925415 -5.48822 0
M  V30 8388 H 799.115 1.289 -4.22891 0
M  V30 8389 N 798.174 1.49689 -0.493057 0
M  V30 8390 C 799.121 2.28976 0.28959 0
M  V30 8391 C 800.091 1.35011 0.967536 0
M  V30 8392 O 801.276 1.63964 0.975736 0
M  V30 8393 C 798.416 3.1748 1.35279 0
M  V30 8394 C 797.529 4.26496 0.687418 0
M  V30 8395 C 796.664 5.02226 1.73038 0
M  V30 8396 C 795.703 6.03089 1.04645 0
M  V30 8397 N 794.84 6.72014 2.03325 0
M  V30 8398 H 799.68 2.954 -0.392798 0
M  V30 8399 H 797.217 1.45657 -0.205554 0
M  V30 8400 H 799.175 3.67162 1.98111 0
M  V30 8401 H 797.805 2.53057 2.00405 0
M  V30 8402 H 796.857 3.80362 -0.0540001 0
M  V30 8403 H 798.169 4.98578 0.14864 0
M  V30 8404 H 797.323 5.55737 2.43395 0
M  V30 8405 H 796.062 4.29899 2.303 0
M  V30 8406 H 795.067 5.48817 0.328606 0
M  V30 8407 H 796.292 6.77398 0.480428 0
M  V30 8408 H 794.238 6.02464 2.59564 0
M  V30 8409 H 794.155 7.40046 1.54492 0
M  V30 8410 H 795.423 7.30133 2.72995 0
M  V30 8411 N 799.652 0.226554 1.55963 0
M  V30 8412 C 800.584 -0.713907 2.17798 0
M  V30 8413 C 801.597 -1.15387 1.14846 0
M  V30 8414 O 802.786 -1.08416 1.41804 0
M  V30 8415 C 799.886 -1.97945 2.75084 0
M  V30 8416 C 799.059 -1.69424 4.03255 0
M  V30 8417 C 798.118 -2.80734 4.45056 0
M  V30 8418 O 797.144 -2.4899 5.11852 0
M  V30 8419 N 798.346 -4.09797 4.11152 0
M  V30 8420 H 801.111 -0.18494 2.99129 0
M  V30 8421 H 798.672 0.0457346 1.61835 0
M  V30 8422 H 800.664 -2.71611 3.00016 0
M  V30 8423 H 799.234 -2.41876 1.98027 0
M  V30 8424 H 798.454 -0.793767 3.86126 0
M  V30 8425 H 799.742 -1.47806 4.86858 0
M  V30 8426 H 799.14 -4.38429 3.57486 0
M  V30 8427 H 797.697 -4.79992 4.40966 0
M  V30 8428 N 801.13 -1.57531 -0.0467866 0
M  V30 8429 C 802.077 -2.05387 -1.05285 0
M  V30 8430 C 803.047 -0.939385 -1.36985 0
M  V30 8431 O 804.232 -1.20877 -1.47626 0
M  V30 8432 C 801.372 -2.52343 -2.35408 0
M  V30 8433 C 800.485 -3.77512 -2.10022 0
M  V30 8434 C 799.62 -4.1315 -3.33887 0
M  V30 8435 C 798.659 -5.31286 -3.03976 0
M  V30 8436 N 797.796 -5.62441 -4.20243 0
M  V30 8437 H 802.636 -2.91095 -0.637788 0
M  V30 8438 H 800.173 -1.43939 -0.303322 0
M  V30 8439 H 802.131 -2.77628 -3.11413 0
M  V30 8440 H 800.761 -1.69577 -2.7467 0
M  V30 8441 H 799.813 -3.59417 -1.24594 0
M  V30 8442 H 801.125 -4.63644 -1.83945 0
M  V30 8443 H 800.279 -4.39469 -4.18273 0
M  V30 8444 H 799.018 -3.25634 -3.63062 0
M  V30 8445 H 798.023 -5.04738 -2.17991 0
M  V30 8446 H 799.248 -6.20441 -2.76098 0
M  V30 8447 H 797.194 -4.77885 -4.49402 0
M  V30 8448 H 797.111 -6.43046 -3.97528 0
M  V30 8449 H 798.379 -5.93327 -5.05553 0
M  V30 8450 N 802.608 0.318715 -1.54344 0
M  V30 8451 C 803.857 1.05363 -1.71993 0
M  V30 8452 C 804.17 1.89018 -0.503155 0
M  V30 8453 O 805.376 2.65639 -0.561085 0
M  V30 8454 C 803.832 1.92281 -3.0423 0
M  V30 8455 C 803.44 1.13715 -4.33328 0
M  V30 8456 C 805.184 2.65479 -3.31242 0
M  V30 8457 C 803.091 1.99806 -5.56625 0
M  V30 8458 H 802.021 0.397081 -0.64097 0
M  V30 8459 H 804.672 0.311598 -1.80835 0
M  V30 8460 H 803.054 2.70402 -2.89307 0
M  V30 8461 H 804.228 0.403305 -4.59032 0
M  V30 8462 H 802.543 0.521769 -4.13118 0
M  V30 8463 H 805.14 3.30209 -4.20555 0
M  V30 8464 H 805.483 3.33374 -2.49334 0
M  V30 8465 H 806.016 1.94417 -3.47054 0
M  V30 8466 H 802.755 1.36411 -6.41149 0
M  V30 8467 H 802.275 2.70911 -5.35133 0
M  V30 8468 H 803.954 2.58277 -5.93213 0
M  V30 8469 N 804.086 1.46499 0.581025 0
M  V30 8470 C 805.019 1.51706 1.70472 0
M  V30 8471 C 805.997 0.371036 1.5831 0
M  V30 8472 O 807.181 0.575426 1.79502 0
M  V30 8473 C 804.308 1.3972 3.08538 0
M  V30 8474 C 803.354 2.58525 3.39215 0
M  V30 8475 S 804.187 4.20872 3.311 0
M  V30 8476 C 805.343 4.11398 4.71702 0
M  V30 8477 H 805.576 2.46777 1.65796 0
M  V30 8478 H 803.109 1.34405 0.759908 0
M  V30 8479 H 805.067 1.33492 3.88188 0
M  V30 8480 H 803.728 0.460742 3.10702 0
M  V30 8481 H 802.921 2.46137 4.3981 0
M  V30 8482 H 802.523 2.61752 2.67136 0
M  V30 8483 H 804.815 3.78182 5.62125 0
M  V30 8484 H 805.758 5.11997 4.89147 0
M  V30 8485 H 806.166 3.42624 4.48631 0
M  V30 8486 N 805.565 -0.825799 1.34232 0
M  V30 8487 C 806.79 -1.61883 1.29648 0
M  V30 8488 C 807.215 -1.87669 -0.127295 0
M  V30 8489 O 806.573 -1.45016 -1.08813 0
M  V30 8490 C 806.621 -2.93846 2.09014 0
M  V30 8491 O 805.725 -3.85778 1.4577 0
M  V30 8492 H 805.066 -0.492454 0.445405 0
M  V30 8493 H 807.596 -1.02641 1.76992 0
M  V30 8494 H 807.606 -3.43435 2.20264 0
M  V30 8495 H 806.281 -2.74401 3.12533 0
M  V30 8496 H 804.858 -3.4429 1.43245 0
M  V30 8497 N 807.043 -1.17915 -1.04565 0
M  V30 8498 C 808.289 -0.972863 -1.77942 0
M  V30 8499 C 808.622 0.496753 -1.87739 0
M  V30 8500 O 807.897 1.3688 -1.38181 0
M  V30 8501 C 808.18 -1.62227 -3.21488 0
M  V30 8502 C 808.033 -3.16441 -3.19664 0
M  V30 8503 C 809.352 -1.33137 -4.19479 0
M  V30 8504 H 806.471 -0.354843 -0.645953 0
M  V30 8505 H 809.113 -1.45508 -1.22178 0
M  V30 8506 H 807.263 -1.21224 -3.69103 0
M  V30 8507 H 808.935 -3.66544 -2.80077 0
M  V30 8508 H 807.178 -3.48863 -2.57832 0
M  V30 8509 H 807.849 -3.57012 -4.21006 0
M  V30 8510 H 810.325 -1.68654 -3.80388 0
M  V30 8511 H 809.201 -1.81151 -5.18146 0
M  V30 8512 H 809.462 -0.253319 -4.41374 0
M  V30 8513 N 808.521 1.23394 -0.980386 0
M  V30 8514 C 809.77 1.91116 -0.644785 0
M  V30 8515 C 810.083 1.77333 0.825367 0
M  V30 8516 O 811.289 2.39858 1.27203 0
M  V30 8517 C 809.745 3.42592 -1.10266 0
M  V30 8518 C 809.353 3.65037 -2.59715 0
M  V30 8519 C 811.097 4.1609 -0.8408 0
M  V30 8520 C 809.004 5.10148 -2.9917 0
M  V30 8521 H 807.934 0.715632 -0.23746 0
M  V30 8522 H 810.585 1.39829 -1.18828 0
M  V30 8523 H 808.967 3.92989 -0.487372 0
M  V30 8524 H 810.141 3.25186 -3.26482 0
M  V30 8525 H 808.456 3.04849 -2.83647 0
M  V30 8526 H 811.053 5.23021 -1.11143 0
M  V30 8527 H 811.396 4.15702 0.223085 0
M  V30 8528 H 811.929 3.71681 -1.41767 0
M  V30 8529 H 808.668 5.15668 -4.04682 0
M  V30 8530 H 808.188 5.50949 -2.37097 0
M  V30 8531 H 809.867 5.7848 -2.89775 0
M  V30 8532 N 809.999 0.752036 1.385 0
M  V30 8533 C 811.415 0.42946 1.53713 0
M  V30 8534 C 811.615 -1.0576 1.71514 0
M  V30 8535 O 810.671 -1.84366 1.72527 0
M  V30 8536 C 811.984 1.22735 2.74511 0
M  V30 8537 C 813.532 1.21727 2.8836 0
M  V30 8538 C 814.007 1.99809 4.12117 0
M  V30 8539 N 815.498 1.97062 4.19191 0
M  V30 8540 C 816.233 2.54274 5.13938 0
M  V30 8541 N 815.729 3.20193 6.14368 0
M  V30 8542 N 817.522 2.44212 5.06277 0
M  V30 8543 H 809.673 1.71581 1.25195 0
M  V30 8544 H 811.936 0.727293 0.60807 0
M  V30 8545 H 811.642 2.28032 2.67758 0
M  V30 8546 H 811.516 0.843186 3.67655 0
M  V30 8547 H 813.903 0.172367 2.94596 0
M  V30 8548 H 813.984 1.64094 1.96232 0
M  V30 8549 H 813.628 3.0431 4.06642 0
M  V30 8550 H 813.558 1.54837 5.03322 0
M  V30 8551 H 816.049 1.49054 3.47263 0
M  V30 8552 H 816.362 3.61272 6.83156 0
M  V30 8553 H 814.707 3.24287 6.14705 0
M  V30 8554 H 817.898 1.92343 4.26757 0
M  V30 8555 H 818.071 2.89096 5.79937 0
M  V30 8556 N 811.477 -1.49425 0.500989 0
M  V30 8557 C 812.387 -2.32899 -0.282011 0
M  V30 8558 C 813.403 -1.44632 -0.967346 0
M  V30 8559 O 814.579 -1.77654 -0.94873 0
M  V30 8560 C 811.644 -3.20069 -1.33253 0
M  V30 8561 C 810.705 -4.24186 -0.660636 0
M  V30 8562 C 809.938 -5.07191 -1.6611 0
M  V30 8563 O 810.161 -4.91712 -2.89094 0
M  V30 8564 O 809.095 -5.8948 -1.21643 0
M  V30 8565 H 812.921 -3.01038 0.401224 0
M  V30 8566 H 810.506 -1.47079 0.262323 0
M  V30 8567 H 812.388 -3.74071 -1.94033 0
M  V30 8568 H 811.063 -2.54625 -1.9987 0
M  V30 8569 H 809.97 -3.74098 -0.0130959 0
M  V30 8570 H 811.303 -4.92186 -0.0369179 0
M  V30 8571 N 812.955 -0.234822 -1.55841 0
M  V30 8572 C 814.201 0.387023 -1.99684 0
M  V30 8573 C 814.556 1.56439 -1.12003 0
M  V30 8574 O 813.849 1.90818 -0.172879 0
M  V30 8575 C 814.043 0.858032 -3.46947 0
M  V30 8576 C 813.872 -0.272152 -4.48876 0
M  V30 8577 C 812.642 -0.742896 -4.99809 0
M  V30 8578 C 814.84 -1.09501 -5.02508 0
M  V30 8579 N 812.822 -1.84675 -5.85464 0
M  V30 8580 C 814.193 -2.04748 -5.85217 0
M  V30 8581 C 816.248 -1.13295 -4.84839 0
M  V30 8582 C 814.951 -3.03483 -6.52143 0
M  V30 8583 C 816.977 -2.10854 -5.52535 0
M  V30 8584 C 816.339 -3.04838 -6.35022 0
M  V30 8585 H 812.438 0.107918 -0.774518 0
M  V30 8586 H 815.022 -0.349635 -1.91535 0
M  V30 8587 H 813.193 1.56401 -3.55518 0
M  V30 8588 H 814.925 1.45381 -3.77686 0
M  V30 8589 H 811.68 -0.32915 -4.72455 0
M  V30 8590 H 812.104 -2.40108 -6.32991 0
M  V30 8591 H 816.746 -0.420226 -4.20706 0
M  V30 8592 H 814.464 -3.7571 -7.15449 0
M  V30 8593 H 818.05 -2.1448 -5.40823 0
M  V30 8594 H 816.93 -3.79097 -6.8648 0
M  V30 8595 N 814.433 1.57553 0.0384317 0
M  V30 8596 C 815.681 1.88468 0.729672 0
M  V30 8597 C 816.002 0.831302 1.76393 0
M  V30 8598 O 815.272 -0.13622 1.95426 0
M  V30 8599 H 813.852 0.695529 0.272485 0
M  V30 8600 H 816.514 1.94899 0.0066032 0
M  V30 8601 H 815.61 2.8705 1.22511 0
M  V30 8602 N 815.911 -0.310526 1.54511 0
M  V30 8603 C 817.136 -1.07046 1.7764 0
M  V30 8604 C 817.561 -1.80488 0.529696 0
M  V30 8605 O 816.919 -1.73702 -0.519361 0
M  V30 8606 C 816.967 -2.03411 2.97752 0
M  V30 8607 O 816.071 -3.11545 2.7021 0
M  V30 8608 H 815.412 -0.307994 0.588248 0
M  V30 8609 H 817.942 -0.350848 2.01569 0
M  V30 8610 H 817.952 -2.46048 3.2546 0
M  V30 8611 H 816.627 -1.49361 3.88155 0
M  V30 8612 H 815.204 -2.7349 2.53491 0
M  V30 8613 N 817.389 -1.46805 -0.573248 0
M  V30 8614 C 818.637 -1.52302 -1.32847 0
M  V30 8615 C 818.958 -0.180159 -1.94166 0
M  V30 8616 O 818.228 0.794291 -1.79075 0
M  V30 8617 H 816.808 -0.56097 -0.493276 0
M  V30 8618 H 819.47 -1.82998 -0.670642 0
M  V30 8619 H 818.566 -2.28089 -2.13031 0
M  V30 8620 N 818.867 0.818669 -1.34668 0
M  V30 8621 C 820.092 1.61193 -1.30505 0
M  V30 8622 C 820.517 1.87734 0.117341 0
M  V30 8623 O 819.875 1.45591 1.08042 0
M  V30 8624 C 819.923 2.92733 -2.1057 0
M  V30 8625 O 819.027 3.85 -1.47813 0
M  V30 8626 H 818.368 0.490085 -0.44801 0
M  V30 8627 H 820.898 1.01701 -1.77534 0
M  V30 8628 H 820.908 3.42262 -2.22082 0
M  V30 8629 H 819.583 2.7274 -3.13984 0
M  V30 8630 H 818.16 3.43525 -1.45069 0
M  V30 8631 N 820.346 1.18468 1.03938 0
M  V30 8632 C 821.623 0.890435 1.74157 0
M  V30 8633 C 822.003 -0.606409 2.02203 0
M  V30 8634 O 821.351 -1.5615 1.66822 0
M  V30 8635 C 821.561 1.73906 3.02585 0
M  V30 8636 C 822.909 1.96686 3.76297 0
M  V30 8637 O 823.933 1.70969 3.12487 0
M  V30 8638 O 822.792 2.39986 4.90988 0
M  V30 8639 H 819.886 0.330889 0.757919 0
M  V30 8640 H 822.432 1.29228 1.09992 0
M  V30 8641 H 821.204 2.75369 2.78006 0
M  V30 8642 H 820.827 1.33581 3.74489 0
M  V30 8643 N 821.824 -1.22873 0.986916 0
M  V30 8644 C 823.052 -1.95487 0.677663 0
M  V30 8645 C 823.467 -1.72978 -0.756572 0
M  V30 8646 O 822.824 -1.02517 -1.50985 0
M  V30 8647 C 822.875 -3.48337 0.966638 0
M  V30 8648 O 822.596 -3.70087 2.34451 0
M  V30 8649 C 824.097 -4.38142 0.674248 0
M  V30 8650 H 821.317 -0.622211 0.251185 0
M  V30 8651 H 823.861 -1.56187 1.32007 0
M  V30 8652 H 822.016 -3.85628 0.370137 0
M  V30 8653 H 822.43 -4.64332 2.43918 0
M  V30 8654 H 823.904 -5.44165 0.926759 0
M  V30 8655 H 824.381 -4.3745 -0.391728 0
M  V30 8656 H 824.987 -4.06469 1.25152 0
M  V30 8657 N 823.302 -0.75937 -1.38099 0
M  V30 8658 C 824.232 -0.151077 -2.33011 0
M  V30 8659 C 825.213 0.697099 -1.5516 0
M  V30 8660 O 826.398 0.637101 -1.83452 0
M  V30 8661 C 823.528 0.738423 -3.39359 0
M  V30 8662 C 822.482 -0.0074741 -4.27999 0
M  V30 8663 C 821.808 1.00066 -5.25253 0
M  V30 8664 C 823.108 -1.17926 -5.08813 0
M  V30 8665 H 824.802 -0.943933 -2.84131 0
M  V30 8666 H 822.348 -0.455362 -1.36611 0
M  V30 8667 H 824.301 1.17369 -4.04725 0
M  V30 8668 H 823.025 1.56366 -2.86735 0
M  V30 8669 H 821.684 -0.423379 -3.64147 0
M  V30 8670 H 821.332 1.82012 -4.68914 0
M  V30 8671 H 821.032 0.506199 -5.85416 0
M  V30 8672 H 822.556 1.43512 -5.93495 0
M  V30 8673 H 823.97 -0.821262 -5.67387 0
M  V30 8674 H 822.367 -1.60497 -5.78239 0
M  V30 8675 H 823.437 -1.98938 -4.42212 0
M  V30 8676 N 824.78 1.49157 -0.508906 0
M  V30 8677 C 826.196 1.58741 -0.165372 0
M  V30 8678 C 826.396 1.5133 1.33047 0
M  V30 8679 O 825.452 1.39135 2.10707 0
M  V30 8680 C 826.765 2.91217 -0.749194 0
M  V30 8681 C 828.313 3.047 -0.716015 0
M  V30 8682 C 828.788 4.39807 -1.27804 0
M  V30 8683 N 830.279 4.46319 -1.23908 0
M  V30 8684 C 831.014 5.49325 -1.64406 0
M  V30 8685 N 830.51 6.59395 -2.12534 0
M  V30 8686 N 832.303 5.40084 -1.55773 0
M  V30 8687 H 824.454 1.52217 -1.48134 0
M  V30 8688 H 826.717 0.721514 -0.614915 0
M  V30 8689 H 826.423 3.02233 -1.79856 0
M  V30 8690 H 826.297 3.76592 -0.214144 0
M  V30 8691 H 828.684 2.9331 0.324535 0
M  V30 8692 H 828.765 2.2099 -1.2883 0
M  V30 8693 H 828.409 4.5195 -2.31741 0
M  V30 8694 H 828.339 5.2217 -0.681623 0
M  V30 8695 H 830.83 3.67354 -0.886537 0
M  V30 8696 H 831.143 7.34102 -2.41485 0
M  V30 8697 H 829.488 6.60414 -2.16513 0
M  V30 8698 H 832.679 4.52986 -1.17987 0
M  V30 8699 H 832.852 6.20233 -1.87657 0
M  V30 8700 N 826.258 0.243083 1.55714 0
M  V30 8701 C 827.498 -0.384303 2.00755 0
M  V30 8702 C 827.862 -1.55406 1.12752 0
M  V30 8703 O 829.063 -2.24892 1.47231 0
M  V30 8704 C 827.334 -0.787419 3.48618 0
M  V30 8705 S 828.893 -1.40587 4.15669 0
M  V30 8706 H 825.711 -0.121088 0.700613 0
M  V30 8707 H 828.313 0.357423 1.92205 0
M  V30 8708 H 827.017 0.0732892 4.10335 0
M  V30 8709 H 826.548 -1.56142 3.61086 0
M  V30 8710 H 828.563 -2.69493 4.16639 0
M  V30 8711 N 827.736 -1.57571 -0.0300757 0
M  V30 8712 C 828.666 -2.0953 -1.03051 0
M  V30 8713 C 829.647 -0.99761 -1.37774 0
M  V30 8714 O 830.832 -1.27279 -1.46676 0
M  V30 8715 C 827.962 -2.57385 -2.33174 0
M  V30 8716 C 826.916 -3.71409 -2.12696 0
M  V30 8717 C 826.242 -4.05467 -3.4857 0
M  V30 8718 C 827.542 -4.99877 -1.51396 0
M  V30 8719 H 829.236 -2.93367 -0.597999 0
M  V30 8720 H 826.782 -1.41127 -0.286203 0
M  V30 8721 H 828.735 -2.92355 -3.03491 0
M  V30 8722 H 827.459 -1.70629 -2.78484 0
M  V30 8723 H 826.118 -3.36786 -1.44813 0
M  V30 8724 H 825.766 -3.15779 -3.91526 0
M  V30 8725 H 825.466 -4.82269 -3.35694 0
M  V30 8726 H 826.99 -4.4297 -4.2025 0
M  V30 8727 H 828.404 -5.3281 -2.11629 0
M  V30 8728 H 826.801 -5.81283 -1.49098 0
M  V30 8729 H 827.871 -4.82522 -0.479676 0
M  V30 8730 N 829.214 0.302327 -1.54673 0
M  V30 8731 C 830.177 1.35592 -1.8479 0
M  V30 8732 C 831.177 1.43743 -0.72073 0
M  V30 8733 O 832.367 1.43402 -0.989017 0
M  V30 8734 C 829.499 2.74091 -2.02699 0
M  V30 8735 H 830.692 1.10132 -2.78946 0
M  V30 8736 H 828.245 0.538926 -1.46715 0
M  V30 8737 H 828.98 3.04775 -1.10826 0
M  V30 8738 H 828.765 2.69565 -2.8474 0
M  V30 8739 H 830.255 3.50272 -2.27374 0
M  V30 8740 N 830.692 1.47107 0.565454 0
M  V30 8741 C 831.622 1.61846 1.68309 0
M  V30 8742 C 832.603 0.468159 1.63531 0
M  V30 8743 O 833.788 0.696504 1.8128 0
M  V30 8744 C 830.918 1.62474 3.06952 0
M  V30 8745 C 829.872 2.76649 3.26572 0
M  V30 8746 C 829.198 2.62345 4.65917 0
M  V30 8747 C 830.498 4.18319 3.12741 0
M  V30 8748 H 832.192 2.55407 1.5623 0
M  V30 8749 H 829.738 1.22916 0.750179 0
M  V30 8750 H 831.691 1.71378 3.84977 0
M  V30 8751 H 830.415 0.654692 3.19971 0
M  V30 8752 H 829.074 2.67242 2.50952 0
M  V30 8753 H 828.722 1.63386 4.75725 0
M  V30 8754 H 828.422 3.38936 4.79996 0
M  V30 8755 H 829.946 2.73165 5.46089 0
M  V30 8756 H 831.36 4.28745 3.80593 0
M  V30 8757 H 829.757 4.95632 3.38333 0
M  V30 8758 H 830.827 4.37263 2.09592 0
M  V30 8759 N 832.17 -0.811516 1.35101 0
M  V30 8760 C 833.133 -1.90467 1.27495 0
M  V30 8761 C 834.133 -1.59703 0.187516 0
M  V30 8762 O 835.323 -1.68528 0.440896 0
M  V30 8763 C 832.455 -3.26774 0.971154 0
M  V30 8764 H 833.648 -1.98631 2.2469 0
M  V30 8765 H 831.201 -1.00681 1.19553 0
M  V30 8766 H 831.936 -3.243 0.0028557 0
M  V30 8767 H 831.721 -3.50488 1.75785 0
M  V30 8768 H 833.211 -4.06804 0.943414 0
M  V30 8769 N 833.648 -1.19017 -1.03309 0
M  V30 8770 C 834.876 -1.01534 -1.80273 0
M  V30 8771 C 835.291 0.43605 -1.83696 0
M  V30 8772 O 834.648 1.30288 -1.27794 0
M  V30 8773 C 834.699 -1.5722 -3.25522 0
M  V30 8774 O 834.42 -2.96677 -3.22358 0
M  V30 8775 C 835.921 -1.4446 -4.19102 0
M  V30 8776 H 833.141 -0.358094 -0.567459 0
M  V30 8777 H 835.685 -1.57738 -1.3015 0
M  V30 8778 H 833.84 -1.05174 -3.7285 0
M  V30 8779 H 834.254 -3.22795 -4.13405 0
M  V30 8780 H 835.728 -1.88209 -5.18923 0
M  V30 8781 H 836.205 -0.394471 -4.37425 0
M  V30 8782 H 836.811 -1.95616 -3.77643 0
M  V30 8783 N 835.127 1.22348 -0.993418 0
M  V30 8784 C 836.077 2.221 -0.515333 0
M  V30 8785 C 837.061 1.55409 0.416762 0
M  V30 8786 O 838.253 1.75317 0.243497 0
M  V30 8787 C 835.382 3.42888 0.168173 0
M  V30 8788 C 834.468 4.16786 -0.784257 0
M  V30 8789 N 834.859 4.67435 -1.93231 0
M  V30 8790 C 833.157 4.41942 -0.600243 0
M  V30 8791 C 833.858 5.23792 -2.53016 0
M  V30 8792 N 832.834 5.12483 -1.8128 0
M  V30 8793 H 836.636 2.58902 -1.39093 0
M  V30 8794 H 834.15 1.38024 -0.855747 0
M  V30 8795 H 836.147 4.13542 0.528069 0
M  V30 8796 H 834.807 3.07598 1.03989 0
M  V30 8797 H 835.818 4.63375 -2.31309 0
M  V30 8798 H 832.495 4.16891 0.225369 0
M  V30 8799 H 833.885 5.73515 -3.50043 0
M  V30 8800 N 836.605 0.766683 1.37694 0
M  V30 8801 C 837.882 0.25366 1.93948 0
M  V30 8802 C 838.262 -1.25041 1.70082 0
M  V30 8803 O 837.61 -2.03115 1.04674 0
M  V30 8804 C 837.82 0.621549 3.43421 0
M  V30 8805 C 839.168 0.588504 4.20502 0
M  V30 8806 O 840.192 0.560632 3.5176 0
M  V30 8807 O 839.051 0.61107 5.43073 0
M  V30 8808 H 836.145 0.0570586 0.825029 0
M  V30 8809 H 838.691 0.847693 1.47011 0
M  V30 8810 H 837.463 1.65979 3.54354 0
M  V30 8811 H 837.086 0.000197027 3.976 0
M  V30 8812 N 838.083 -1.48885 0.516809 0
M  V30 8813 C 839.031 -2.31066 -0.266656 0
M  V30 8814 C 840.025 -1.40393 -0.94795 0
M  V30 8815 O 841.231 -1.57366 -0.873836 0
M  V30 8816 H 837.606 -0.744654 -0.104858 0
M  V30 8817 H 839.577 -2.95045 0.446236 0
M  V30 8818 C 838.326 -3.22131 -1.3087 0
M  V30 8819 H 837.649 -3.91839 -0.793865 0
M  V30 8820 H 839.089 -3.82544 -1.82856 0
M  V30 8821 C 837.548 -2.42825 -2.33533 0
M  V30 8822 O 838.078 -2.14364 -3.39722 0
M  V30 8823 N 836.284 -2.04559 -2.06407 0
M  V30 8824 H 835.831 -2.27905 -1.20071 0
M  V30 8825 H 835.789 -1.51807 -2.75322 0
M  V30 8826 N 839.561 -0.251338 -1.55583 0
M  V30 8827 C 840.972 0.25098 -1.85005 0
M  V30 8828 C 841.323 1.57259 -1.17321 0
M  V30 8829 O 840.448 2.11603 -0.453136 0
M  V30 8830 C 841.043 0.462161 -3.35633 0
M  V30 8831 C 839.602 0.908737 -3.65266 0
M  V30 8832 C 838.749 -0.0115418 -2.77298 0
M  V30 8833 H 841.7 -0.473782 -1.51463 0
M  V30 8834 H 841.721 1.30415 -3.57452 0
M  V30 8835 H 841.233 -0.499886 -3.84867 0
M  V30 8836 H 839.334 1.8831 -3.21512 0
M  V30 8837 H 839.447 0.762526 -4.72993 0
M  V30 8838 H 837.811 0.500612 -2.49732 0
M  V30 8839 H 838.594 -0.969042 -3.29339 0
M  V30 8840 N 841.039 1.57585 0.0217189 0
M  V30 8841 C 841.969 2.10073 1.01939 0
M  V30 8842 C 842.95 1.0049 1.37243 0
M  V30 8843 O 844.135 1.28055 1.45999 0
M  V30 8844 C 841.265 2.58618 2.31806 0
M  V30 8845 C 840.219 3.72531 2.10724 0
M  V30 8846 C 839.545 4.07309 3.46415 0
M  V30 8847 C 840.845 5.00672 1.48743 0
M  V30 8848 H 842.539 2.9368 0.582432 0
M  V30 8849 H 840.085 1.41277 0.278715 0
M  V30 8850 H 842.038 2.9396 3.01936 0
M  V30 8851 H 840.762 1.72104 2.77575 0
M  V30 8852 H 839.421 3.37549 1.43025 0
M  V30 8853 H 839.069 3.17851 3.89846 0
M  V30 8854 H 838.769 4.84042 3.33132 0
M  V30 8855 H 840.293 4.45192 4.17895 0
M  V30 8856 H 841.707 5.33925 2.088 0
M  V30 8857 H 840.104 5.82065 1.46013 0
M  V30 8858 H 841.174 4.82769 0.45408 0
M  V30 8859 N 842.517 -0.29412 1.54831 0
M  V30 8860 C 843.933 -0.640167 1.46199 0
M  V30 8861 C 844.133 -1.90426 0.658798 0
M  V30 8862 O 843.189 -2.51932 0.169228 0
M  V30 8863 C 844.502 -0.786763 2.90225 0
M  V30 8864 C 846.05 -0.882201 3.0031 0
M  V30 8865 C 846.525 -1.06074 4.45547 0
M  V30 8866 N 848.016 -1.12678 4.49286 0
M  V30 8867 C 848.751 -1.28334 5.58854 0
M  V30 8868 N 848.247 -1.40845 6.78332 0
M  V30 8869 N 850.04 -1.31277 5.46555 0
M  V30 8870 H 842.191 0.536334 2.05517 0
M  V30 8871 H 844.454 0.178363 0.93107 0
M  V30 8872 H 844.16 0.0713018 3.51628 0
M  V30 8873 H 844.034 -1.67364 3.38037 0
M  V30 8874 H 846.421 -1.73075 2.39017 0
M  V30 8875 H 846.502 0.0288405 2.55784 0
M  V30 8876 H 846.146 -0.216935 5.07437 0
M  V30 8877 H 846.076 -1.98611 4.8771 0
M  V30 8878 H 848.567 -1.04335 3.63212 0
M  V30 8879 H 848.88 -1.52566 7.57591 0
M  V30 8880 H 847.225 -1.37888 6.81184 0
M  V30 8881 H 850.416 -1.2112 4.52159 0
M  V30 8882 H 850.589 -1.43136 6.31994 0
M  V30 8883 N 843.995 -1.47404 -0.557645 0
M  V30 8884 C 845.411 -1.32913 -0.88353 0
M  V30 8885 C 845.611 -0.31929 -1.98954 0
M  V30 8886 O 844.667 0.26934 -2.51059 0
M  V30 8887 C 845.98 -2.72229 -1.27718 0
M  V30 8888 C 847.528 -2.8051 -1.38863 0
M  V30 8889 C 848.003 -4.20466 -1.81583 0
M  V30 8890 N 849.494 -4.23005 -1.88735 0
M  V30 8891 C 850.229 -5.2821 -2.23118 0
M  V30 8892 N 849.725 -6.4372 -2.56117 0
M  V30 8893 N 851.518 -5.15588 -2.23888 0
M  V30 8894 H 843.669 -2.11698 0.172557 0
M  V30 8895 H 845.932 -0.947889 0.0145334 0
M  V30 8896 H 845.638 -3.47556 -0.538329 0
M  V30 8897 H 845.512 -3.03971 -2.23342 0
M  V30 8898 H 847.899 -2.05457 -2.11829 0
M  V30 8899 H 847.98 -2.52423 -0.414274 0
M  V30 8900 H 847.624 -4.96025 -1.09187 0
M  V30 8901 H 847.554 -4.45977 -2.80021 0
M  V30 8902 H 850.045 -3.39674 -1.65621 0
M  V30 8903 H 850.358 -7.19754 -2.81378 0
M  V30 8904 H 848.703 -6.47041 -2.53698 0
M  V30 8905 H 851.894 -4.24374 -1.97546 0
M  V30 8906 H 852.067 -5.97685 -2.50353 0
M  V30 8907 N 845.473 0.80434 -1.35529 0
M  V30 8908 C 846.383 1.94784 -1.30753 0
M  V30 8909 C 847.399 1.72703 -0.212071 0
M  V30 8910 O 848.575 1.96494 -0.441841 0
M  V30 8911 C 845.64 3.29406 -1.08133 0
M  V30 8912 C 844.701 3.64367 -2.27013 0
M  V30 8913 C 843.934 4.92566 -2.05463 0
M  V30 8914 O 844.157 5.61166 -1.02222 0
M  V30 8915 O 843.091 5.25838 -2.92879 0
M  V30 8916 H 846.917 2.01761 -2.26994 0
M  V30 8917 H 844.502 0.942448 -1.15924 0
M  V30 8918 H 846.384 4.09995 -0.973756 0
M  V30 8919 H 845.059 3.23355 -0.149444 0
M  V30 8920 H 843.966 2.84146 -2.43335 0
M  V30 8921 H 845.299 3.75125 -3.18656 0
M  V30 8922 N 846.951 1.19563 1.02676 0
M  V30 8923 C 847.861 0.950691 2.14474 0
M  V30 8924 C 848.877 -0.0900219 1.73767 0
M  V30 8925 O 850.053 0.0951063 2.01175 0
M  V30 8926 C 847.118 0.494917 3.43149 0
M  V30 8927 C 846.179 1.60527 3.98158 0
M  V30 8928 C 845.412 1.17115 5.20692 0
M  V30 8929 O 845.635 0.0355937 5.70389 0
M  V30 8930 O 844.569 1.97454 5.68591 0
M  V30 8931 H 848.395 1.88651 2.38001 0
M  V30 8932 H 845.98 0.978635 1.12885 0
M  V30 8933 H 847.862 0.249492 4.20661 0
M  V30 8934 H 846.537 -0.412434 3.21062 0
M  V30 8935 H 845.444 1.90487 3.21971 0
M  V30 8936 H 846.777 2.48925 4.24614 0
M  V30 8937 N 848.429 -1.21819 0.999893 0
M  V30 8938 C 849.362 -2.22635 0.500887 0
M  V30 8939 C 850.34 -1.56459 -0.442636 0
M  V30 8940 O 851.524 -1.84902 -0.366551 0
M  V30 8941 C 848.651 -3.37598 -0.273046 0
M  V30 8942 C 847.697 -4.22006 0.617511 0
M  V30 8943 S 848.53 -4.93583 2.07693 0
M  V30 8944 C 849.686 -6.1198 1.31269 0
M  V30 8945 H 849.919 -2.64618 1.35516 0
M  V30 8946 H 847.452 -1.31606 0.807419 0
M  V30 8947 H 849.41 -4.04251 -0.713515 0
M  V30 8948 H 848.071 -2.94108 -1.10268 0
M  V30 8949 H 847.264 -5.03995 0.0216543 0
M  V30 8950 H 846.866 -3.6052 0.99504 0
M  V30 8951 H 849.158 -6.74979 0.583933 0
M  V30 8952 H 850.101 -6.75991 2.10811 0
M  V30 8953 H 850.509 -5.5847 0.822901 0
M  V30 8954 N 849.908 -0.773975 -1.37286 0
M  V30 8955 C 850.858 -0.135245 -2.27599 0
M  V30 8956 C 851.842 0.671691 -1.46209 0
M  V30 8957 O 853.034 0.534299 -1.68743 0
M  V30 8958 C 850.163 0.741298 -3.35201 0
M  V30 8959 C 849.249 -0.0735896 -4.24036 0
M  V30 8960 N 849.64 -1.12035 -4.93236 0
M  V30 8961 C 847.938 0.150038 -4.45748 0
M  V30 8962 C 848.639 -1.61512 -5.58828 0
M  V30 8963 N 847.615 -0.926922 -5.35639 0
M  V30 8964 H 851.417 -0.936646 -2.78575 0
M  V30 8965 H 848.931 -0.611944 -1.50429 0
M  V30 8966 H 850.928 1.21468 -3.98812 0
M  V30 8967 H 849.588 1.54142 -2.8578 0
M  V30 8968 H 850.599 -1.50253 -4.95625 0
M  V30 8969 H 847.276 0.921891 -4.07195 0
M  V30 8970 H 848.666 -2.48818 -6.24131 0
M  V30 8971 N 851.386 1.48609 -0.524698 0
M  V30 8972 C 852.316 2.32366 0.229837 0
M  V30 8973 C 853.297 1.41759 0.940129 0
M  V30 8974 O 854.482 1.7065 0.926936 0
M  V30 8975 C 851.612 3.22835 1.28043 0
M  V30 8976 C 850.566 4.22424 0.688603 0
M  V30 8977 C 849.892 5.0199 1.84146 0
M  V30 8978 C 851.192 5.21217 -0.336176 0
M  V30 8979 H 852.886 2.95698 -0.469339 0
M  V30 8980 H 850.432 1.42197 -0.227156 0
M  V30 8981 H 852.385 3.80253 1.8162 0
M  V30 8982 H 851.109 2.57492 2.00912 0
M  V30 8983 H 849.768 3.66185 0.174402 0
M  V30 8984 H 849.416 4.33076 2.5584 0
M  V30 8985 H 849.116 5.69392 1.45142 0
M  V30 8986 H 850.64 5.62259 2.38111 0
M  V30 8987 H 852.054 5.7319 0.112307 0
M  V30 8988 H 850.451 5.96642 -0.643324 0
M  V30 8989 H 851.521 4.68676 -1.24381 0
M  V30 8990 N 852.864 0.259585 1.55447 0
M  V30 8991 C 853.774 -0.645026 2.25558 0
M  V30 8992 C 854.79 -1.18291 1.27606 0
M  V30 8993 O 855.966 -1.21649 1.6051 0
M  V30 8994 C 853.031 -1.81964 2.9511 0
M  V30 8995 C 852.092 -1.31997 4.08504 0
M  V30 8996 C 851.325 -2.43861 4.74729 0
M  V30 8997 O 851.548 -3.62876 4.40088 0
M  V30 8998 O 850.482 -2.12898 5.6299 0
M  V30 8999 H 854.308 -0.0775399 3.03601 0
M  V30 9000 H 851.893 0.0275859 1.49375 0
M  V30 9001 H 853.775 -2.50485 3.38873 0
M  V30 9002 H 852.45 -2.37451 2.19997 0
M  V30 9003 H 851.357 -0.601676 3.6923 0
M  V30 9004 H 852.69 -0.811045 4.85472 0
M  V30 9005 N 854.342 -1.57594 -0.0133615 0
M  V30 9006 C 855.619 -1.81173 -0.737273 0
M  V30 9007 C 855.999 -0.861395 -1.92726 0
M  V30 9008 O 855.347 0.0929324 -2.28311 0
M  V30 9009 C 855.557 -3.29314 -1.15557 0
M  V30 9010 C 856.905 -3.94707 -1.56498 0
M  V30 9011 O 857.929 -3.33557 -1.24973 0
M  V30 9012 O 856.788 -5.02402 -2.15069 0
M  V30 9013 H 853.882 -0.745575 -0.357837 0
M  V30 9014 H 856.428 -1.69696 0.0110674 0
M  V30 9015 H 855.2 -3.90096 -0.30677 0
M  V30 9016 H 854.823 -3.45739 -1.96343 0
M  V30 9017 N 855.82 0.285905 -1.54985 0
M  V30 9018 C 857.045 1.04207 -1.7932 0
M  V30 9019 C 857.47 1.79622 -0.558343 0
M  V30 9020 O 856.828 1.74506 0.491661 0
M  V30 9021 C 856.876 1.98648 -3.0095 0
M  V30 9022 O 855.98 3.07207 -2.75132 0
M  V30 9023 H 855.321 0.298596 -0.593074 0
M  V30 9024 H 857.851 0.318736 -2.02102 0
M  V30 9025 H 857.861 2.4084 -3.29333 0
M  V30 9026 H 856.536 1.43167 -3.90482 0
M  V30 9027 H 855.113 2.69423 -2.57809 0
M  V30 9028 N 857.298 1.47698 0.54982 0
M  V30 9029 C 858.261 1.60282 1.63837 0
M  V30 9030 C 859.261 0.477394 1.5355 0
M  V30 9031 O 860.451 0.742665 1.57576 0
M  V30 9032 C 857.583 1.55431 3.03404 0
M  V30 9033 H 858.776 2.57325 1.54026 0
M  V30 9034 H 856.329 1.35999 0.770329 0
M  V30 9035 H 857.064 0.597912 3.1874 0
M  V30 9036 H 856.849 2.37116 3.12279 0
M  V30 9037 H 858.339 1.6739 3.82584 0
M  V30 9038 N 858.776 -0.797141 1.35954 0
M  V30 9039 C 859.724 -1.93084 1.29697 0
M  V30 9040 C 860.718 -1.68329 0.190152 0
M  V30 9041 O 861.924 -1.7643 0.3567 0
M  V30 9042 H 858.299 -0.634531 0.403577 0
M  V30 9043 H 860.27 -1.95481 2.25455 0
M  V30 9044 C 859.019 -3.29996 1.09536 0
M  V30 9045 H 858.342 -3.49607 1.93946 0
M  V30 9046 H 859.782 -4.09696 1.09202 0
M  V30 9047 C 858.241 -3.36304 -0.200381 0
M  V30 9048 O 858.771 -3.83579 -1.19291 0
M  V30 9049 N 856.977 -2.89587 -0.242406 0
M  V30 9050 H 856.524 -2.51307 0.565897 0
M  V30 9051 H 856.482 -2.94189 -1.10906 0
M  V30 9052 N 860.254 -1.20106 -1.0204 0
M  V30 9053 C 861.501 -1.00889 -1.75578 0
M  V30 9054 C 861.829 0.459415 -1.88996 0
M  V30 9055 O 861.084 1.35735 -1.40977 0
M  V30 9056 C 861.383 -1.63308 -3.17908 0
M  V30 9057 C 861.049 -3.13091 -3.24476 0
M  V30 9058 C 859.711 -3.53968 -3.25976 0
M  V30 9059 C 862.063 -4.09093 -3.22944 0
M  V30 9060 C 859.391 -4.89381 -3.2361 0
M  V30 9061 C 861.743 -5.44447 -3.22119 0
M  V30 9062 C 860.407 -5.84742 -3.2192 0
M  V30 9063 H 859.677 -0.36918 -0.642485 0
M  V30 9064 H 862.324 -1.49475 -1.19706 0
M  V30 9065 H 860.629 -1.06974 -3.76914 0
M  V30 9066 H 862.326 -1.45958 -3.73493 0
M  V30 9067 H 858.916 -2.80526 -3.24042 0
M  V30 9068 H 863.1 -3.78549 -3.20958 0
M  V30 9069 H 858.356 -5.1987 -3.21785 0
M  V30 9070 H 862.53 -6.18584 -3.19885 0
M  V30 9071 H 860.157 -6.89642 -3.19841 0
M  V30 9072 N 861.732 1.21287 -1.00634 0
M  V30 9073 C 862.981 1.89706 -0.685178 0
M  V30 9074 C 863.294 1.79044 0.787566 0
M  V30 9075 O 864.5 2.42502 1.22086 0
M  V30 9076 C 862.956 3.40176 -1.17508 0
M  V30 9077 C 862.564 3.59446 -2.674 0
M  V30 9078 C 864.308 4.14213 -0.928869 0
M  V30 9079 C 862.215 5.03688 -3.09923 0
M  V30 9080 H 861.145 0.710434 -0.252586 0
M  V30 9081 H 863.796 1.37277 -1.21768 0
M  V30 9082 H 862.178 3.91867 -0.570622 0
M  V30 9083 H 863.352 3.18188 -3.33306 0
M  V30 9084 H 861.667 2.98764 -2.9005 0
M  V30 9085 H 864.264 5.20546 -1.22212 0
M  V30 9086 H 864.607 4.16082 0.134859 0
M  V30 9087 H 865.14 3.68591 -1.49619 0
M  V30 9088 H 861.879 5.06968 -4.15529 0
M  V30 9089 H 861.399 5.45796 -2.4873 0
M  V30 9090 H 863.078 5.72204 -3.0198 0
M  V30 9091 N 863.21 0.781244 1.36873 0
M  V30 9092 C 864.157 0.172146 2.30157 0
M  V30 9093 C 865.127 -0.679328 1.51573 0
M  V30 9094 O 866.312 -0.629713 1.80109 0
M  V30 9095 C 863.452 -0.693534 3.38059 0
M  V30 9096 C 862.565 0.175586 4.31643 0
M  V30 9097 C 861.7 -0.695695 5.26625 0
M  V30 9098 C 860.739 0.17538 6.11849 0
M  V30 9099 N 859.876 -0.654416 6.99043 0
M  V30 9100 H 864.716 0.973133 2.81663 0
M  V30 9101 H 862.253 0.491469 1.38647 0
M  V30 9102 H 864.211 -1.21035 3.99257 0
M  V30 9103 H 862.841 -1.46003 2.87894 0
M  V30 9104 H 861.893 0.810295 3.7167 0
M  V30 9105 H 863.205 0.847107 4.91554 0
M  V30 9106 H 862.359 -1.27863 5.93073 0
M  V30 9107 H 861.098 -1.40087 4.67148 0
M  V30 9108 H 860.103 0.77078 5.4437 0
M  V30 9109 H 861.328 0.87803 6.734 0
M  V30 9110 H 859.274 -1.34403 6.42084 0
M  V30 9111 H 859.191 -0.0403998 7.55989 0
M  V30 9112 H 860.459 -1.22144 7.69871 0
M  V30 9113 N 864.689 -1.48329 0.532571 0
M  V30 9114 C 865.919 -2.066 0.00353785 0
M  V30 9115 C 866.327 -1.38913 -1.28451 0
M  V30 9116 O 865.67 -0.471385 -1.77549 0
M  V30 9117 C 865.732 -3.58342 -0.288324 0
M  V30 9118 C 865.396 -4.47917 0.906631 0
M  V30 9119 C 866.393 -4.87534 1.80572 0
M  V30 9120 C 864.078 -4.89783 1.11436 0
M  V30 9121 C 866.072 -5.6779 2.89642 0
M  V30 9122 C 863.759 -5.69809 2.20819 0
M  V30 9123 C 864.757 -6.08721 3.09755 0
M  V30 9124 O 864.445 -6.8714 4.17246 0
M  V30 9125 H 864.177 -0.675263 0.0315661 0
M  V30 9126 H 866.731 -1.91669 0.738375 0
M  V30 9127 H 864.961 -3.71395 -1.07717 0
M  V30 9128 H 866.65 -3.98726 -0.759752 0
M  V30 9129 H 867.416 -4.5581 1.65719 0
M  V30 9130 H 863.295 -4.58977 0.431382 0
M  V30 9131 H 866.839 -5.98082 3.59087 0
M  V30 9132 H 862.736 -6.00947 2.35655 0
M  V30 9133 H 863.504 -7.05498 4.14988 0
M  V30 9134 N 866.167 -0.267825 -1.55308 0
M  V30 9135 C 867.077 0.633055 -2.25897 0
M  V30 9136 C 868.093 1.17613 -1.28231 0
M  V30 9137 O 869.269 1.20797 -1.61153 0
M  V30 9138 C 866.334 1.80397 -2.96071 0
M  V30 9139 C 865.395 1.29829 -4.09198 0
M  V30 9140 C 864.628 2.4134 -4.76016 0
M  V30 9141 O 864.851 3.60537 -4.42006 0
M  V30 9142 O 863.785 2.09909 -5.64111 0
M  V30 9143 H 867.611 0.0614381 -3.03638 0
M  V30 9144 H 865.196 -0.0355072 -1.49358 0
M  V30 9145 H 867.078 2.48685 -3.40197 0
M  V30 9146 H 865.753 2.36281 -2.21253 0
M  V30 9147 H 864.66 0.582086 -3.69544 0
M  V30 9148 H 865.993 0.785288 -4.85895 0
M  V30 9149 N 867.645 1.57599 0.00500368 0
M  V30 9150 C 868.873 1.94626 0.702016 0
M  V30 9151 C 869.288 0.86953 1.67585 0
M  V30 9152 O 868.645 -0.15199 1.81866 0
M  V30 9153 C 868.696 3.31658 1.43824 0
M  V30 9154 O 868.417 4.35197 0.503467 0
M  V30 9155 C 869.918 3.83114 2.23021 0
M  V30 9156 H 867.138 0.641785 0.195841 0
M  V30 9157 H 869.682 2.04451 -0.0446287 0
M  V30 9158 H 867.837 3.23156 2.13655 0
M  V30 9159 H 868.251 5.1444 1.02235 0
M  V30 9160 H 869.725 4.81438 2.7004 0
M  V30 9161 H 870.202 3.15559 3.05482 0
M  V30 9162 H 870.808 3.94775 1.58216 0
M  V30 9163 N 869.123 -0.277682 1.55134 0
M  V30 9164 C 870.071 -1.36305 1.88478 0
M  V30 9165 C 871.065 -1.51362 0.760654 0
M  V30 9166 O 872.271 -1.53202 0.944943 0
M  V30 9167 H 868.646 -0.45577 0.598146 0
M  V30 9168 H 870.617 -1.05431 2.79154 0
M  V30 9169 C 869.366 -2.71739 2.16918 0
M  V30 9170 H 868.689 -2.60942 3.02901 0
M  V30 9171 H 870.129 -3.46635 2.44172 0
M  V30 9172 C 868.588 -3.22476 0.975239 0
M  V30 9173 O 869.118 -4.01164 0.207497 0
M  V30 9174 N 867.324 -2.80097 0.774219 0
M  V30 9175 H 866.871 -2.16221 1.40022 0
M  V30 9176 H 866.829 -3.14392 -0.023021 0
M  V30 9177 N 870.601 -1.47988 -0.541979 0
M  V30 9178 C 871.531 -1.64503 -1.65713 0
M  V30 9179 C 872.512 -0.494116 -1.62765 0
M  V30 9180 O 873.697 -0.725256 -1.80149 0
M  V30 9181 C 870.827 -1.67337 -3.04328 0
M  V30 9182 C 869.781 -2.81809 -3.2213 0
M  V30 9183 C 869.107 -2.69724 -4.61685 0
M  V30 9184 C 870.407 -4.23241 -3.06046 0
M  V30 9185 H 872.101 -2.5786 -1.52147 0
M  V30 9186 H 869.647 -1.24094 -0.730529 0
M  V30 9187 H 871.6 -1.77481 -3.82202 0
M  V30 9188 H 870.324 -0.705514 -3.18889 0
M  V30 9189 H 868.983 -2.71201 -2.46669 0
M  V30 9190 H 868.631 -1.70934 -4.73065 0
M  V30 9191 H 868.331 -3.4653 -4.74543 0
M  V30 9192 H 869.855 -2.81818 -5.41674 0
M  V30 9193 H 871.269 -4.34746 -3.73723 0
M  V30 9194 H 869.666 -5.00952 -3.30405 0
M  V30 9195 H 870.736 -4.40543 -2.02609 0
M  V30 9196 N 872.079 0.78992 -1.36375 0
M  V30 9197 C 873.307 1.57873 -1.3373 0
M  V30 9198 C 873.722 1.88624 0.0815544 0
M  V30 9199 O 873.079 1.50085 1.03831 0
M  V30 9200 C 873.13 2.90003 -2.15825 0
M  V30 9201 O 872.851 2.60578 -3.5218 0
M  V30 9202 C 874.352 3.84309 -2.20955 0
M  V30 9203 H 871.572 0.489685 -0.458748 0
M  V30 9204 H 874.116 0.980436 -1.79465 0
M  V30 9205 H 872.271 3.46303 -1.73646 0
M  V30 9206 H 872.685 3.4506 -3.95011 0
M  V30 9207 H 874.159 4.74081 -2.82756 0
M  V30 9208 H 874.636 4.22121 -1.21287 0
M  V30 9209 H 875.242 3.33942 -2.63368 0
M  V30 9210 N 873.557 1.20646 1.01402 0
M  V30 9211 C 874.804 1.01819 1.7504 0
M  V30 9212 C 875.132 -0.449386 1.89237 0
M  V30 9213 O 874.387 -1.34985 1.41695 0
M  V30 9214 C 874.686 1.64991 3.17037 0
M  V30 9215 C 874.352 3.14808 3.22811 0
M  V30 9216 C 873.014 3.55692 3.24094 0
M  V30 9217 C 875.366 4.108 3.2077 0
M  V30 9218 C 872.694 4.9109 3.2101 0
M  V30 9219 C 875.046 5.46147 3.19227 0
M  V30 9220 C 873.71 5.86441 3.18815 0
M  V30 9221 H 872.98 0.372582 0.640518 0
M  V30 9222 H 875.627 1.50108 1.18911 0
M  V30 9223 H 873.932 1.08971 3.76341 0
M  V30 9224 H 875.629 1.47937 3.72714 0
M  V30 9225 H 872.219 2.8224 3.2255 0
M  V30 9226 H 876.403 3.80246 3.18946 0
M  V30 9227 H 871.659 5.21569 3.19023 0
M  V30 9228 H 875.833 6.20272 3.166 0
M  V30 9229 H 873.46 6.91328 3.16179 0
M  V30 9230 N 875.035 -1.20752 1.01276 0
M  V30 9231 C 876.281 -1.90302 0.700924 0
M  V30 9232 C 876.614 -1.78406 -0.767142 0
M  V30 9233 O 875.889 -1.16575 -1.55694 0
M  V30 9234 C 876.172 -3.41831 1.13242 0
M  V30 9235 C 876.025 -3.6268 2.66051 0
M  V30 9236 C 877.344 -4.34486 0.700738 0
M  V30 9237 H 874.463 -0.69107 0.256107 0
M  V30 9238 H 877.105 -1.42227 1.25982 0
M  V30 9239 H 875.255 -3.82906 0.656902 0
M  V30 9240 H 876.927 -3.30882 3.21426 0
M  V30 9241 H 875.17 -3.06281 3.07204 0
M  V30 9242 H 875.841 -4.68882 2.91296 0
M  V30 9243 H 878.317 -4.01036 1.10948 0
M  V30 9244 H 877.193 -5.39136 1.03073 0
M  V30 9245 H 877.454 -4.40307 -0.39778 0
M  V30 9246 N 876.513 -0.788492 -1.36457 0
M  V30 9247 C 877.761 -0.359749 -1.98872 0
M  V30 9248 C 878.082 1.07197 -1.62892 0
M  V30 9249 O 877.352 1.73875 -0.902463 0
M  V30 9250 H 875.932 -0.130029 -0.735596 0
M  V30 9251 H 878.594 -1.01033 -1.66668 0
M  V30 9252 H 877.69 -0.450835 -3.08827 0
M  V30 9253 N 877.991 1.48044 -0.54043 0
M  V30 9254 C 879.231 2.04396 -0.012296 0
M  V30 9255 C 879.595 1.40748 1.30591 0
M  V30 9256 O 880.796 1.88048 1.92072 0
M  V30 9257 C 879.067 3.5727 0.0964302 0
M  V30 9258 S 880.626 4.35041 0.573117 0
M  V30 9259 H 877.444 0.710795 -0.0170735 0
M  V30 9260 H 880.046 1.81625 -0.723362 0
M  V30 9261 H 878.75 4.01124 -0.86762 0
M  V30 9262 H 878.281 3.84511 0.83156 0
M  V30 9263 H 880.296 4.6099 1.83583 0
M  V30 9264 N 879.47 0.276058 1.55163 0
M  V30 9265 C 880.716 -0.340959 1.99913 0
M  V30 9266 C 881.049 -1.55434 1.16422 0
M  V30 9267 O 880.324 -1.93081 0.234517 0
M  V30 9268 C 880.607 -0.722211 3.52783 0
M  V30 9269 C 880.46 0.498575 4.47028 0
M  V30 9270 C 881.779 -1.5583 4.11589 0
M  V30 9271 H 878.898 -0.122455 0.726756 0
M  V30 9272 H 881.54 0.38319 1.86096 0
M  V30 9273 H 879.69 -1.33919 3.64689 0
M  V30 9274 H 881.362 1.13713 4.47065 0
M  V30 9275 H 879.605 1.13646 4.18649 0
M  V30 9276 H 880.276 0.188041 5.5168 0
M  V30 9277 H 882.752 -1.03722 4.02965 0
M  V30 9278 H 881.628 -1.79387 5.1876 0
M  V30 9279 H 881.889 -2.53963 3.61877 0
M  V30 9280 N 880.948 -1.576 0.00335426 0
M  V30 9281 C 882.196 -1.90336 -0.679446 0
M  V30 9282 C 882.517 -0.877777 -1.74127 0
M  V30 9283 O 881.787 0.0843585 -1.95718 0
M  V30 9284 H 880.367 -0.702509 -0.253948 0
M  V30 9285 H 883.029 -1.94848 0.0450731 0
M  V30 9286 H 882.125 -2.90197 -1.14857 0
M  V30 9287 N 882.426 0.269451 -1.5528 0
M  V30 9288 C 883.359 1.3588 -1.83336 0
M  V30 9289 C 884.337 1.4739 -0.68666 0
M  V30 9290 O 885.521 1.63959 -0.930037 0
M  V30 9291 C 882.648 2.73483 -1.99812 0
M  V30 9292 C 881.694 2.79239 -3.22378 0
M  V30 9293 S 882.527 2.38125 -4.79642 0
M  V30 9294 C 883.683 3.77697 -4.99095 0
M  V30 9295 H 883.916 1.11878 -2.75446 0
M  V30 9296 H 881.449 0.469268 -1.47096 0
M  V30 9297 H 883.407 3.52725 -2.09989 0
M  V30 9298 H 882.068 2.94735 -1.08583 0
M  V30 9299 H 881.261 3.80243 -3.30804 0
M  V30 9300 H 880.863 2.08022 -3.1081 0
M  V30 9301 H 883.155 4.72999 -4.85055 0
M  V30 9302 H 884.098 3.7422 -6.01136 0
M  V30 9303 H 884.506 3.69164 -4.27058 0
M  V30 9304 N 883.904 1.48273 0.534124 0
M  V30 9305 C 884.834 1.6538 1.64839 0
M  V30 9306 C 885.815 0.502741 1.62501 0
M  V30 9307 O 887 0.734799 1.79762 0
M  V30 9308 C 884.13 1.68949 3.03436 0
M  V30 9309 C 883.084 2.83513 3.20631 0
M  V30 9310 C 882.41 2.72169 4.60248 0
M  V30 9311 C 883.71 4.24858 3.03797 0
M  V30 9312 H 885.404 2.58663 1.50777 0
M  V30 9313 H 882.95 1.24479 0.723937 0
M  V30 9314 H 884.903 1.79505 3.81256 0
M  V30 9315 H 883.627 0.722415 3.1851 0
M  V30 9316 H 882.286 2.72505 2.45227 0
M  V30 9317 H 881.934 1.7344 4.72152 0
M  V30 9318 H 881.634 3.49042 4.72698 0
M  V30 9319 H 883.158 2.84687 5.40172 0
M  V30 9320 H 884.572 4.36721 3.71413 0
M  V30 9321 H 882.969 5.02697 3.27743 0
M  V30 9322 H 884.039 4.41611 2.0027 0
M  V30 9323 N 885.382 -0.782676 1.36792 0
M  V30 9324 C 886.659 -1.52939 1.21939 0
M  V30 9325 C 887.039 -2.10228 -0.191639 0
M  V30 9326 O 886.387 -1.94574 -1.19805 0
M  V30 9327 C 886.597 -2.61898 2.30674 0
M  V30 9328 C 887.945 -3.29598 2.67676 0
M  V30 9329 O 888.969 -2.72186 2.29768 0
M  V30 9330 O 887.828 -4.3337 3.32946 0
M  V30 9331 H 884.922 -0.676856 0.47518 0
M  V30 9332 H 887.468 -0.82058 1.48542 0
M  V30 9333 H 886.24 -2.17607 3.25212 0
M  V30 9334 H 885.863 -3.40391 2.05475 0
M  V30 9335 N 886.86 -1.21182 -1.00761 0
M  V30 9336 C 888.271 -1.02652 -1.55947 0
M  V30 9337 C 888.622 0.414466 -1.91772 0
M  V30 9338 O 887.747 1.29727 -1.73204 0
M  V30 9339 C 888.342 -1.85713 -2.83366 0
M  V30 9340 C 886.901 -1.71523 -3.35048 0
M  V30 9341 C 886.048 -1.83087 -2.08265 0
M  V30 9342 H 888.999 -1.35242 -0.830379 0
M  V30 9343 H 889.02 -1.36583 -3.55141 0
M  V30 9344 H 888.532 -2.90584 -2.5726 0
M  V30 9345 H 886.633 -0.693257 -3.66094 0
M  V30 9346 H 886.746 -2.53333 -4.06644 0
M  V30 9347 H 885.11 -1.26367 -2.21141 0
M  V30 9348 H 885.893 -2.8946 -1.84575 0
M  V30 9349 N 888.338 1.20213 -1.01915 0
M  V30 9350 C 889.749 1.7136 -0.741131 0
M  V30 9351 C 890.1 1.81705 0.740107 0
M  V30 9352 O 889.225 1.48139 1.57746 0
M  V30 9353 C 889.82 3.11231 -1.33869 0
M  V30 9354 C 888.379 3.59677 -1.10948 0
M  V30 9355 C 887.526 2.36809 -1.4428 0
M  V30 9356 H 890.477 1.05191 -1.1883 0
M  V30 9357 H 890.498 3.7342 -0.730585 0
M  V30 9358 H 890.01 3.03669 -2.41675 0
M  V30 9359 H 888.111 3.72568 -0.0492052 0
M  V30 9360 H 888.224 4.44351 -1.79134 0
M  V30 9361 H 886.588 2.39674 -0.861881 0
M  V30 9362 H 887.371 2.31886 -2.53148 0
M  V30 9363 N 889.816 0.795718 1.36037 0
M  V30 9364 C 891.232 0.478145 1.52269 0
M  V30 9365 C 891.432 -1.0025 1.74792 0
M  V30 9366 O 890.488 -1.78783 1.78305 0
M  V30 9367 C 891.801 1.31406 2.70468 0
M  V30 9368 C 893.349 1.3084 2.84341 0
M  V30 9369 C 893.824 2.12819 4.05551 0
M  V30 9370 N 895.315 2.10298 4.12709 0
M  V30 9371 C 896.05 2.70495 5.05589 0
M  V30 9372 N 895.546 3.39576 6.03871 0
M  V30 9373 N 897.339 2.60195 4.98252 0
M  V30 9374 H 889.49 1.75477 1.19673 0
M  V30 9375 H 891.753 0.74627 0.584624 0
M  V30 9376 H 891.459 2.36435 2.60368 0
M  V30 9377 H 891.333 0.959726 3.64786 0
M  V30 9378 H 893.72 0.266003 2.93899 0
M  V30 9379 H 893.801 1.70254 1.90912 0
M  V30 9380 H 893.445 3.17093 3.96755 0
M  V30 9381 H 893.375 1.70772 4.98141 0
M  V30 9382 H 895.866 1.60026 3.42345 0
M  V30 9383 H 896.179 3.82823 6.71317 0
M  V30 9384 H 894.524 3.43679 6.04077 0
M  V30 9385 H 897.715 2.05823 4.20422 0
M  V30 9386 H 897.888 3.074 5.70447 0
M  V30 9387 N 891.294 -1.47756 0.548274 0
M  V30 9388 C 892.543 -2.01691 0.0187961 0
M  V30 9389 C 892.856 -1.42894 -1.33569 0
M  V30 9390 O 894.062 -1.88438 -1.95457 0
M  V30 9391 C 892.518 -3.59896 -0.016847 0
M  V30 9392 C 892.126 -4.27683 1.33385 0
M  V30 9393 C 893.87 -4.21614 -0.494188 0
M  V30 9394 C 891.777 -5.7787 1.2578 0
M  V30 9395 H 890.707 -0.753993 0.00325648 0
M  V30 9396 H 893.358 -1.69838 0.694792 0
M  V30 9397 H 891.74 -3.88672 -0.758304 0
M  V30 9398 H 892.914 -4.10559 2.09232 0
M  V30 9399 H 891.229 -3.77915 1.7484 0
M  V30 9400 H 893.826 -5.3166 -0.569342 0
M  V30 9401 H 894.169 -3.88176 -1.50417 0
M  V30 9402 H 894.702 -3.97336 0.192138 0
M  V30 9403 H 891.441 -6.15912 2.2435 0
M  V30 9404 H 890.961 -5.97355 0.540997 0
M  V30 9405 H 892.64 -6.39897 0.956109 0
M  V30 9406 N 892.772 -0.284283 -1.55015 0
M  V30 9407 C 893.682 0.60906 -2.26556 0
M  V30 9408 C 894.698 1.16246 -1.29472 0
M  V30 9409 O 895.874 1.1908 -1.62425 0
M  V30 9410 C 892.939 1.77246 -2.97968 0
M  V30 9411 C 892 1.25482 -4.10552 0
M  V30 9412 C 891.233 2.36277 -4.78549 0
M  V30 9413 O 891.456 3.55829 -4.45805 0
M  V30 9414 O 890.39 2.03914 -5.66306 0
M  V30 9415 H 894.216 0.0292298 -3.03686 0
M  V30 9416 H 891.801 -0.0513466 -1.49312 0
M  V30 9417 H 893.683 2.45062 -3.42815 0
M  V30 9418 H 892.358 2.33921 -2.23747 0
M  V30 9419 H 891.265 0.542859 -3.7014 0
M  V30 9420 H 892.598 0.733708 -4.86701 0
M  V30 9421 N 894.251 1.57596 -0.0117121 0
M  V30 9422 C 895.497 1.91355 0.671661 0
M  V30 9423 C 895.83 0.886818 1.72769 0
M  V30 9424 O 895.105 -0.0928813 1.94278 0
M  V30 9425 C 895.388 3.35657 1.30409 0
M  V30 9426 C 895.241 4.49055 0.2588 0
M  V30 9427 C 896.56 3.79595 2.22701 0
M  V30 9428 H 893.679 0.695893 0.242698 0
M  V30 9429 H 896.321 1.89887 -0.0654071 0
M  V30 9430 H 894.471 3.37038 1.9323 0
M  V30 9431 H 896.143 4.59809 -0.370631 0
M  V30 9432 H 894.386 4.31785 -0.417672 0
M  V30 9433 H 895.057 5.4701 0.740578 0
M  V30 9434 H 897.533 3.7984 1.69885 0
M  V30 9435 H 896.409 4.81292 2.63912 0
M  V30 9436 H 896.67 3.14118 3.11098 0
M  V30 9437 N 895.729 -0.261212 1.5542 0
M  V30 9438 C 896.692 -1.30645 1.8832 0
M  V30 9439 C 897.692 -1.41782 0.758588 0
M  V30 9440 O 898.882 -1.40729 1.02669 0
M  V30 9441 C 896.014 -2.6862 2.09895 0
M  V30 9442 H 897.207 -1.02698 2.81768 0
M  V30 9443 H 894.76 -0.499838 1.48092 0
M  V30 9444 H 895.495 -3.0173 1.18868 0
M  V30 9445 H 895.28 -2.61921 2.91787 0
M  V30 9446 H 896.77 -3.44121 2.36581 0
M  V30 9447 N 897.207 -1.48554 -0.526253 0
M  V30 9448 C 898.432 -1.60686 -1.31129 0
M  V30 9449 C 898.857 -0.268701 -1.86171 0
M  V30 9450 O 898.215 0.760167 -1.64594 0
M  V30 9451 C 898.263 -2.65938 -2.43536 0
M  V30 9452 O 897.367 -2.23356 -3.46678 0
M  V30 9453 H 896.708 -0.538691 -0.388211 0
M  V30 9454 H 899.238 -1.94567 -0.632826 0
M  V30 9455 H 899.248 -2.87327 -2.89668 0
M  V30 9456 H 897.923 -3.63085 -2.02835 0
M  V30 9457 H 896.5 -2.12196 -3.06639 0
M  V30 9458 N 898.685 0.775411 -1.37205 0
M  V30 9459 C 899.91 1.5696 -1.35567 0
M  V30 9460 C 900.335 1.88012 0.0575554 0
M  V30 9461 O 899.693 1.48954 1.03355 0
M  V30 9462 C 899.741 2.85886 -2.19776 0
M  V30 9463 O 898.845 3.80103 -1.59987 0
M  V30 9464 H 898.186 0.475583 -0.463375 0
M  V30 9465 H 900.716 0.96001 -1.80679 0
M  V30 9466 H 900.726 3.35024 -2.32859 0
M  V30 9467 H 899.401 2.62613 -3.22502 0
M  V30 9468 H 897.978 3.38736 -1.55924 0
M  V30 9469 N 900.163 1.21714 1.00117 0
M  V30 9470 C 901.409 1.03823 1.74208 0
M  V30 9471 C 901.742 -0.426733 1.89454 0
M  V30 9472 O 901.017 -1.31658 1.43166 0
M  V30 9473 C 901.3 1.74047 3.15246 0
M  V30 9474 C 901.153 3.28087 3.077 0
M  V30 9475 C 902.472 1.48614 4.14249 0
M  V30 9476 H 899.591 0.378573 0.632338 0
M  V30 9477 H 902.233 1.49942 1.16694 0
M  V30 9478 H 900.383 1.3484 3.64349 0
M  V30 9479 H 902.055 3.76686 2.6628 0
M  V30 9480 H 900.298 3.58191 2.44707 0
M  V30 9481 H 900.969 3.72392 4.07466 0
M  V30 9482 H 903.445 1.82656 3.73866 0
M  V30 9483 H 902.321 2.00257 5.11066 0
M  V30 9484 H 902.582 0.416957 4.40129 0
M  V30 9485 N 901.641 -1.19671 1.02551 0
M  V30 9486 C 902.588 -2.22773 0.603394 0
M  V30 9487 C 903.558 -1.61669 -0.381081 0
M  V30 9488 O 904.743 -1.88756 -0.278505 0
M  V30 9489 C 901.883 -3.45073 -0.0431034 0
M  V30 9490 C 900.996 -4.20574 0.987006 0
M  V30 9491 C 900.131 -5.30291 0.310626 0
M  V30 9492 C 899.17 -5.97545 1.32688 0
M  V30 9493 N 898.307 -6.98833 0.676542 0
M  V30 9494 H 903.147 -2.58238 1.48719 0
M  V30 9495 H 900.684 -1.26881 0.744286 0
M  V30 9496 H 902.642 -4.14925 -0.435141 0
M  V30 9497 H 901.272 -3.10274 -0.890495 0
M  V30 9498 H 900.324 -3.497 1.49713 0
M  V30 9499 H 901.636 -4.66736 1.75952 0
M  V30 9500 H 900.79 -6.06547 -0.136438 0
M  V30 9501 H 899.529 -4.8519 -0.49412 0
M  V30 9502 H 898.534 -5.20043 1.78424 0
M  V30 9503 H 899.759 -6.4473 2.13306 0
M  V30 9504 H 897.705 -6.55911 -0.108172 0
M  V30 9505 H 897.622 -7.43168 1.38699 0
M  V30 9506 H 898.89 -7.79088 0.253367 0
M  V30 9507 N 903.119 -0.802921 -1.35613 0
M  V30 9508 C 904.049 -0.225131 -2.32412 0
M  V30 9509 C 905.03 0.647383 -1.57299 0
M  V30 9510 O 906.215 0.578414 -1.85386 0
M  V30 9511 C 903.345 0.630085 -3.41537 0
M  V30 9512 C 902.299 -0.143635 -4.27759 0
M  V30 9513 C 901.625 0.833046 -5.28171 0
M  V30 9514 C 902.925 -1.34054 -5.04804 0
M  V30 9515 H 904.619 -1.03385 -2.80984 0
M  V30 9516 H 902.165 -0.498593 -1.35093 0
M  V30 9517 H 904.118 1.04433 -4.08254 0
M  V30 9518 H 902.842 1.47165 -2.91565 0
M  V30 9519 H 901.501 -0.539015 -3.62616 0
M  V30 9520 H 901.149 1.67001 -4.74468 0
M  V30 9521 H 900.849 0.319697 -5.8673 0
M  V30 9522 H 902.373 1.24558 -5.97761 0
M  V30 9523 H 903.787 -1.00136 -5.64487 0
M  V30 9524 H 902.184 -1.78812 -5.72841 0
M  V30 9525 H 903.254 -2.12906 -4.35659 0
M  V30 9526 N 904.597 1.47463 -0.556102 0
M  V30 9527 C 905.837 2.04372 -0.0339743 0
M  V30 9528 C 906.201 1.42125 1.29091 0
M  V30 9529 O 907.402 1.90074 1.90066 0
M  V30 9530 C 905.673 3.57352 0.0585316 0
M  V30 9531 S 907.232 4.35625 0.526943 0
M  V30 9532 H 904.05 0.710574 -0.0246115 0
M  V30 9533 H 906.652 1.80848 -0.742585 0
M  V30 9534 H 905.356 4.00181 -0.910116 0
M  V30 9535 H 904.887 3.85371 0.790731 0
M  V30 9536 H 906.902 4.62911 1.78683 0
M  V30 9537 N 906.075 0.2925 1.54862 0
M  V30 9538 C 907.491 -0.0611461 1.59483 0
M  V30 9539 C 907.691 -1.53141 1.30958 0
M  V30 9540 O 906.747 -2.28291 1.07887 0
M  V30 9541 C 908.06 0.329143 2.98893 0
M  V30 9542 C 909.608 0.2772 3.1177 0
M  V30 9543 C 910.083 0.642185 4.53475 0
M  V30 9544 N 911.574 0.594396 4.5937 0
M  V30 9545 C 912.309 0.849385 5.67074 0
M  V30 9546 N 911.805 1.1699 6.82851 0
M  V30 9547 N 913.598 0.777016 5.56704 0
M  V30 9548 H 905.749 1.25079 1.71665 0
M  V30 9549 H 908.012 0.506516 0.80134 0
M  V30 9550 H 907.718 1.35233 3.24661 0
M  V30 9551 H 907.592 -0.321442 3.75828 0
M  V30 9552 H 909.979 -0.736725 2.85756 0
M  V30 9553 H 910.06 0.962289 2.3701 0
M  V30 9554 H 909.704 1.65388 4.80218 0
M  V30 9555 H 909.634 -0.0648831 5.2656 0
M  V30 9556 H 912.125 0.357256 3.76208 0
M  V30 9557 H 912.438 1.35067 7.60905 0
M  V30 9558 H 910.783 1.20785 6.84424 0
M  V30 9559 H 913.974 0.526333 4.65132 0
M  V30 9560 H 914.147 0.979113 6.4056 0
M  V30 9561 N 907.553 -1.57587 0.0200696 0
M  V30 9562 C 908.485 -2.06555 -0.993359 0
M  V30 9563 C 909.498 -0.987227 -1.29451 0
M  V30 9564 O 910.687 -1.26361 -1.26075 0
M  V30 9565 C 907.787 -2.4675 -2.3231 0
M  V30 9566 C 906.96 -3.77554 -2.20843 0
M  V30 9567 C 906.019 -4.04397 -3.36674 0
M  V30 9568 O 905.045 -4.7478 -3.13963 0
M  V30 9569 N 906.247 -3.53861 -4.60176 0
M  V30 9570 H 909.012 -2.9412 -0.575617 0
M  V30 9571 H 906.573 -1.61038 -0.166889 0
M  V30 9572 H 908.565 -2.61806 -3.08609 0
M  V30 9573 H 907.135 -1.64598 -2.65756 0
M  V30 9574 H 906.355 -3.72382 -1.29327 0
M  V30 9575 H 907.643 -4.63271 -2.10375 0
M  V30 9576 H 907.041 -2.96904 -4.81523 0
M  V30 9577 H 905.598 -3.74213 -5.33674 0
M  V30 9578 N 909.032 0.252966 -1.55557 0
M  V30 9579 C 909.995 1.29645 -1.8901 0
M  V30 9580 C 910.995 1.41378 -0.766096 0
M  V30 9581 O 912.185 1.40183 -1.03414 0
M  V30 9582 C 909.317 2.67504 -2.11316 0
M  V30 9583 H 910.51 1.01202 -2.82309 0
M  V30 9584 H 908.063 0.491977 -1.48355 0
M  V30 9585 H 908.798 3.01095 -1.20466 0
M  V30 9586 H 908.583 2.6037 -2.93172 0
M  V30 9587 H 910.073 3.42861 -2.38403 0
M  V30 9588 N 910.51 1.48831 0.518367 0
M  V30 9589 C 911.758 1.57128 1.27103 0
M  V30 9590 C 912.079 0.252098 1.93364 0
M  V30 9591 O 911.349 -0.727281 1.819 0
M  V30 9592 H 909.929 0.578891 0.472116 0
M  V30 9593 H 912.591 1.85361 0.602262 0
M  V30 9594 H 911.687 2.35838 2.04418 0
M  V30 9595 N 911.988 -0.768124 1.37614 0
M  V30 9596 C 913.237 -1.5221 1.32345 0
M  V30 9597 C 913.55 -1.95399 -0.0885761 0
M  V30 9598 O 914.756 -2.70216 -0.263752 0
M  V30 9599 C 913.212 -2.74872 2.32322 0
M  V30 9600 C 912.82 -2.38767 3.79071 0
M  V30 9601 C 914.564 -3.52805 2.36069 0
M  V30 9602 C 912.471 -3.57953 4.7077 0
M  V30 9603 H 911.401 -0.571461 0.491883 0
M  V30 9604 H 914.052 -0.841004 1.63093 0
M  V30 9605 H 912.434 -3.44889 1.94596 0
M  V30 9606 H 913.608 -1.7651 4.25654 0
M  V30 9607 H 911.923 -1.74 3.78303 0
M  V30 9608 H 914.52 -4.41397 3.01782 0
M  V30 9609 H 914.863 -3.92925 1.37535 0
M  V30 9610 H 915.396 -2.89788 2.72521 0
M  V30 9611 H 912.135 -3.22911 5.70446 0
M  V30 9612 H 911.655 -4.19302 4.28889 0
M  V30 9613 H 913.334 -4.2472 4.8808 0
M  V30 9614 N 913.466 -1.22244 -0.994698 0
M  V30 9615 C 914.882 -0.982006 -1.25813 0
M  V30 9616 C 915.082 0.325488 -1.98854 0
M  V30 9617 O 914.138 1.04857 -2.29698 0
M  V30 9618 C 915.451 -2.1795 -2.07167 0
M  V30 9619 C 916.999 -2.22287 -2.20358 0
M  V30 9620 C 917.474 -3.41583 -3.05098 0
M  V30 9621 N 918.965 -3.41734 -3.12686 0
M  V30 9622 C 919.7 -4.30692 -3.78539 0
M  V30 9623 N 919.196 -5.29865 -4.46335 0
M  V30 9624 N 920.989 -4.18473 -3.75283 0
M  V30 9625 H 913.14 -2.0631 -0.504963 0
M  V30 9626 H 915.403 -0.90395 -0.285618 0
M  V30 9627 H 915.109 -3.12758 -1.60858 0
M  V30 9628 H 914.983 -2.17862 -3.07922 0
M  V30 9629 H 917.37 -1.28028 -2.65881 0
M  V30 9630 H 917.451 -2.26414 -1.19039 0
M  V30 9631 H 917.095 -4.36141 -2.60275 0
M  V30 9632 H 917.025 -3.34695 -4.06555 0
M  V30 9633 H 919.516 -2.69969 -2.64433 0
M  V30 9634 H 919.829 -5.94027 -4.9432 0
M  V30 9635 H 918.174 -5.3378 -4.45089 0
M  V30 9636 H 921.365 -3.40249 -3.21478 0
M  V30 9637 H 921.538 -4.88007 -4.26326 0
M  V30 9638 N 914.944 1.19125 -1.03184 0
M  V30 9639 C 916.19 1.89163 -0.731111 0
M  V30 9640 C 916.523 1.79604 0.738662 0
M  V30 9641 O 915.798 1.19037 1.53819 0
M  V30 9642 C 916.081 3.39986 -1.18666 0
M  V30 9643 C 915.934 3.58401 -2.71788 0
M  V30 9644 C 917.253 4.33316 -0.769772 0
M  V30 9645 H 914.372 0.686908 -0.267069 0
M  V30 9646 H 917.014 1.40205 -1.28229 0
M  V30 9647 H 915.164 3.81813 -0.717736 0
M  V30 9648 H 916.836 3.25727 -3.26649 0
M  V30 9649 H 915.079 3.01355 -3.12038 0
M  V30 9650 H 915.75 4.64189 -2.98719 0
M  V30 9651 H 918.226 3.9922 -1.17314 0
M  V30 9652 H 917.102 5.37427 -1.11637 0
M  V30 9653 H 917.363 4.40884 0.327681 0
M  V30 9654 N 916.422 0.810101 1.35185 0
M  V30 9655 C 917.671 0.388589 1.97921 0
M  V30 9656 C 917.984 -1.05079 1.64978 0
M  V30 9657 O 919.19 -1.57559 2.21105 0
M  V30 9658 C 917.646 0.643864 3.54094 0
M  V30 9659 C 917.254 2.09602 3.95943 0
M  V30 9660 C 918.998 0.287883 4.23523 0
M  V30 9661 C 916.905 2.29686 5.44976 0
M  V30 9662 H 915.835 0.141562 0.740592 0
M  V30 9663 H 918.486 0.994653 1.54204 0
M  V30 9664 H 916.868 -0.0321978 3.95987 0
M  V30 9665 H 918.042 2.81018 3.65192 0
M  V30 9666 H 916.357 2.4122 3.39414 0
M  V30 9667 H 918.954 0.415946 5.3308 0
M  V30 9668 H 919.297 -0.766305 4.09186 0
M  V30 9669 H 919.83 0.918004 3.87063 0
M  V30 9670 H 916.569 3.33563 5.64284 0
M  V30 9671 H 916.089 1.62798 5.77284 0
M  V30 9672 H 917.768 2.11411 6.11485 0
M  V30 9673 N 917.9 -1.47166 0.563914 0
M  V30 9674 C 918.833 -2.27058 -0.227989 0
M  V30 9675 C 919.811 -1.34468 -0.914179 0
M  V30 9676 O 920.995 -1.63857 -0.931829 0
M  V30 9677 C 918.122 -3.11689 -1.32543 0
M  V30 9678 C 917.168 -4.19906 -0.747084 0
M  V30 9679 S 918.001 -5.33916 0.41153 0
M  V30 9680 C 919.157 -6.22112 -0.687566 0
M  V30 9681 H 919.39 -2.93876 0.449939 0
M  V30 9682 H 916.923 -1.50372 0.350382 0
M  V30 9683 H 918.881 -3.61017 -1.95389 0
M  V30 9684 H 917.542 -2.44221 -1.97522 0
M  V30 9685 H 916.735 -4.78876 -1.57141 0
M  V30 9686 H 916.337 -3.73493 -0.194671 0
M  V30 9687 H 918.629 -6.58867 -1.578 0
M  V30 9688 H 919.572 -7.07971 -0.135058 0
M  V30 9689 H 919.98 -5.55871 -0.983255 0
M  V30 9690 N 919.378 -0.300708 -1.54705 0
M  V30 9691 C 920.627 0.309428 -1.99312 0
M  V30 9692 C 920.94 1.55027 -1.19272 0
M  V30 9693 O 922.146 2.23498 -1.54146 0
M  V30 9694 C 920.602 0.601856 -3.54832 0
M  V30 9695 C 920.21 -0.620636 -4.4368 0
M  V30 9696 C 921.954 1.1732 -4.07966 0
M  V30 9697 C 919.861 -0.301376 -5.90632 0
M  V30 9698 H 918.791 0.119395 -0.744487 0
M  V30 9699 H 921.442 -0.409368 -1.78875 0
M  V30 9700 H 919.824 1.38024 -3.71168 0
M  V30 9701 H 920.998 -1.39685 -4.39118 0
M  V30 9702 H 919.313 -1.1106 -4.01316 0
M  V30 9703 H 921.91 1.42631 -5.15326 0
M  V30 9704 H 922.253 2.11537 -3.5855 0
M  V30 9705 H 922.786 0.456534 -3.95172 0
M  V30 9706 H 919.525 -1.21209 -6.44196 0
M  V30 9707 H 919.045 0.437574 -5.98202 0
M  V30 9708 H 920.724 0.097164 -6.46927 0
M  V30 9709 N 920.856 1.57574 -0.0284266 0
M  V30 9710 C 922.084 1.96071 0.660575 0
M  V30 9711 C 922.499 0.904881 1.65703 0
M  V30 9712 O 921.856 -0.113379 1.82147 0
M  V30 9713 C 921.907 3.34634 1.36756 0
M  V30 9714 O 921.628 4.36167 0.411041 0
M  V30 9715 C 923.129 3.87758 2.14845 0
M  V30 9716 H 920.349 0.645794 0.182183 0
M  V30 9717 H 922.893 2.04311 -0.0879858 0
M  V30 9718 H 921.048 3.27616 2.06753 0
M  V30 9719 H 921.462 5.16493 0.913 0
M  V30 9720 H 922.936 4.87058 2.59767 0
M  V30 9721 H 923.413 3.21967 2.9872 0
M  V30 9722 H 924.019 3.98043 1.49807 0
M  V30 9723 N 922.334 -0.244713 1.55689 0
M  V30 9724 C 923.582 -0.970525 1.77272 0
M  V30 9725 C 923.903 -1.85771 0.592804 0
M  V30 9726 O 923.173 -1.91952 -0.391323 0
M  V30 9727 H 921.753 -0.361342 0.653789 0
M  V30 9728 H 924.415 -0.262134 1.93129 0
M  V30 9729 H 923.511 -1.59096 2.68505 0
M  V30 9730 N 923.813 -1.49104 -0.510467 0
M  V30 9731 C 925.09 -1.48609 -1.27179 0
M  V30 9732 C 925.47 -0.208537 -2.10067 0
M  V30 9733 O 924.818 0.809335 -2.13687 0
M  V30 9734 C 925.028 -2.75953 -2.1366 0
M  V30 9735 C 926.376 -3.25067 -2.73161 0
M  V30 9736 O 927.4 -2.77005 -2.23934 0
M  V30 9737 O 926.259 -4.08747 -3.62751 0
M  V30 9738 H 923.353 -0.594374 -0.57502 0
M  V30 9739 H 925.899 -1.61358 -0.525515 0
M  V30 9740 H 924.671 -3.60434 -1.52325 0
M  V30 9741 H 924.294 -2.66019 -2.95499 0
M  V30 9742 N 925.291 0.760815 -1.38019 0
M  V30 9743 C 926.239 1.89578 -1.34771 0
M  V30 9744 C 927.233 1.67766 -0.234714 0
M  V30 9745 O 928.439 1.75423 -0.403352 0
M  V30 9746 H 924.814 0.623608 -0.420258 0
M  V30 9747 H 926.785 1.89434 -2.30558 0
M  V30 9748 C 925.534 3.26976 -1.18246 0
M  V30 9749 H 924.857 3.44342 -2.03147 0
M  V30 9750 H 926.297 4.06657 -1.20026 0
M  V30 9751 C 924.756 3.36717 0.111145 0
M  V30 9752 O 925.286 3.86607 1.09079 0
M  V30 9753 N 923.492 2.90128 0.165542 0
M  V30 9754 H 923.039 2.49719 -0.632328 0
M  V30 9755 H 922.997 2.97026 1.03067 0
M  V30 9756 N 926.769 1.22769 0.988202 0
M  V30 9757 C 927.716 1.00195 2.07917 0
M  V30 9758 C 928.686 -0.0779391 1.65917 0
M  V30 9759 O 929.871 0.0726005 1.90662 0
M  V30 9760 C 927.011 0.590853 3.40004 0
M  V30 9761 C 926.124 1.74202 3.9532 0
M  V30 9762 C 925.259 1.27846 5.15586 0
M  V30 9763 C 924.298 2.40087 5.63049 0
M  V30 9764 N 923.435 1.94744 6.74551 0
M  V30 9765 H 928.275 1.93581 2.26562 0
M  V30 9766 H 925.812 0.96448 1.11068 0
M  V30 9767 H 927.77 0.333653 4.15864 0
M  V30 9768 H 926.4 -0.306007 3.21346 0
M  V30 9769 H 925.452 2.11342 3.16289 0
M  V30 9770 H 926.764 2.58612 4.26522 0
M  V30 9771 H 925.918 0.978919 5.9875 0
M  V30 9772 H 924.657 0.404617 4.86019 0
M  V30 9773 H 923.662 2.70824 4.78471 0
M  V30 9774 H 924.887 3.27995 5.9464 0
M  V30 9775 H 922.833 1.09729 6.46758 0
M  V30 9776 H 922.75 2.72718 7.05096 0
M  V30 9777 H 924.018 1.67873 7.61209 0
M  V30 9778 N 928.247 -1.18576 1.03814 0
M  V30 9779 C 929.495 -1.88121 0.738574 0
M  V30 9780 C 929.816 -1.80587 -0.735744 0
M  V30 9781 O 929.086 -1.22251 -1.53074 0
M  V30 9782 H 927.666 -0.696417 0.270208 0
M  V30 9783 H 930.328 -1.43912 1.31435 0
M  V30 9784 H 929.424 -2.94222 1.04115 0
M  V30 9785 N 929.725 -0.817259 -1.34754 0
M  V30 9786 C 930.953 -0.415451 -2.02686 0
M  V30 9787 C 931.368 0.97688 -1.61563 0
M  V30 9788 O 930.725 1.63125 -0.818321 0
M  V30 9789 C 930.776 -0.501486 -3.58005 0
M  V30 9790 O 930.497 -1.83893 -3.97637 0
M  V30 9791 C 931.998 -0.0938504 -4.43201 0
M  V30 9792 H 929.218 -0.16742 -0.649778 0
M  V30 9793 H 931.762 -1.10384 -1.7215 0
M  V30 9794 H 929.917 0.138766 -3.87151 0
M  V30 9795 H 930.331 -1.8092 -4.92309 0
M  V30 9796 H 931.805 -0.205145 -5.51619 0
M  V30 9797 H 932.282 0.962011 -4.28535 0
M  V30 9798 H 932.888 -0.707677 -4.19371 0
M  V30 9799 N 931.203 1.46865 -0.571711 0
M  V30 9800 C 932.166 2.28658 0.157499 0
M  V30 9801 C 933.166 1.37773 0.829172 0
M  V30 9802 O 934.356 1.6026 0.682811 0
M  V30 9803 C 931.488 3.17859 1.23202 0
M  V30 9804 H 932.681 2.94603 -0.561171 0
M  V30 9805 H 930.234 1.52793 -0.329229 0
M  V30 9806 H 930.969 2.56637 1.98262 0
M  V30 9807 H 930.754 3.84762 0.755031 0
M  V30 9808 H 932.244 3.7945 1.74378 0
M  V30 9809 N 932.681 0.308908 1.54543 0
M  V30 9810 C 933.927 -0.298478 2.00592 0
M  V30 9811 C 934.26 -1.52929 1.19692 0
M  V30 9812 O 933.535 -1.9254 0.27542 0
M  V30 9813 C 933.818 -0.647218 3.54236 0
M  V30 9814 C 933.671 0.593284 4.4587 0
M  V30 9815 C 934.99 -1.47064 4.14801 0
M  V30 9816 H 932.109 -0.107012 0.72919 0
M  V30 9817 H 934.751 0.422578 1.85241 0
M  V30 9818 H 932.901 -1.26153 3.67447 0
M  V30 9819 H 934.573 1.2317 4.44552 0
M  V30 9820 H 932.816 1.22501 4.16144 0
M  V30 9821 H 933.487 0.305018 5.51157 0
M  V30 9822 H 935.963 -0.951511 4.05075 0
M  V30 9823 H 934.839 -1.68343 5.22448 0
M  V30 9824 H 935.1 -2.4623 3.67183 0
M  V30 9825 N 934.159 -1.57557 0.0367827 0
M  V30 9826 C 935.122 -2.09591 -0.927589 0
M  V30 9827 C 936.122 -1.01252 -1.24919 0
M  V30 9828 O 937.312 -1.27382 -1.18825 0
M  V30 9829 C 934.444 -2.56816 -2.24184 0
M  V30 9830 H 935.637 -2.96086 -0.476784 0
M  V30 9831 H 933.19 -1.54864 -0.211385 0
M  V30 9832 H 933.925 -1.73673 -2.73876 0
M  V30 9833 H 933.71 -3.35973 -2.0215 0
M  V30 9834 H 935.2 -2.97271 -2.93291 0
M  V30 9835 N 935.637 0.236453 -1.55816 0
M  V30 9836 C 936.886 0.960981 -1.77336 0
M  V30 9837 C 937.199 1.86085 -0.602641 0
M  V30 9838 O 938.405 2.62291 -0.701106 0
M  V30 9839 C 936.861 1.75884 -3.13995 0
M  V30 9840 C 936.469 0.905849 -4.38746 0
M  V30 9841 C 938.213 2.47548 -3.44848 0
M  V30 9842 C 936.12 1.7002 -5.66434 0
M  V30 9843 H 935.05 0.362547 -0.661117 0
M  V30 9844 H 937.701 0.215303 -1.82233 0
M  V30 9845 H 936.083 2.54687 -3.03234 0
M  V30 9846 H 937.257 0.159415 -4.60524 0
M  V30 9847 H 935.572 0.30205 -4.15303 0
M  V30 9848 H 938.169 3.07452 -4.37467 0
M  V30 9849 H 938.512 3.19689 -2.66655 0
M  V30 9850 H 939.045 1.75747 -3.56872 0
M  V30 9851 H 935.784 1.02234 -6.47479 0
M  V30 9852 H 935.304 2.42164 -5.48741 0
M  V30 9853 H 936.983 2.26469 -6.0607 0
M  V30 9854 N 937.115 1.49373 0.502552 0
M  V30 9855 C 938.355 1.60398 1.26696 0
M  V30 9856 C 938.719 0.283599 1.89894 0
M  V30 9857 O 939.92 0.269022 2.6745 0
M  V30 9858 C 938.191 2.72998 2.30666 0
M  V30 9859 S 939.75 3.03964 3.16466 0
M  V30 9860 H 936.568 0.565781 0.430596 0
M  V30 9861 H 939.17 1.87024 0.569418 0
M  V30 9862 H 937.874 3.67458 1.82765 0
M  V30 9863 H 937.405 2.4836 3.05091 0
M  V30 9864 H 939.42 2.45367 4.31288 0
M  V30 9865 N 938.594 -0.753485 1.38421 0
M  V30 9866 C 940.01 -1.05656 1.1962 0
M  V30 9867 C 940.21 -2.0145 0.0449443 0
M  V30 9868 O 939.266 -2.45039 -0.609253 0
M  V30 9869 C 940.579 -1.63655 2.52265 0
M  V30 9870 C 942.127 -1.75825 2.58949 0
M  V30 9871 C 942.602 -2.37236 3.91769 0
M  V30 9872 N 944.093 -2.44666 3.9331 0
M  V30 9873 C 944.828 -2.93077 4.92842 0
M  V30 9874 N 944.324 -3.41523 6.02772 0
M  V30 9875 N 946.117 -2.92118 4.80232 0
M  V30 9876 H 938.268 -0.117799 2.12073 0
M  V30 9877 H 940.531 -0.114889 0.941012 0
M  V30 9878 H 940.237 -1.00734 3.36965 0
M  V30 9879 H 940.111 -2.62715 2.70667 0
M  V30 9880 H 942.498 -2.37873 1.74644 0
M  V30 9881 H 942.579 -0.754693 2.44414 0
M  V30 9882 H 942.223 -1.75822 4.76497 0
M  V30 9883 H 942.153 -3.38233 4.03616 0
M  V30 9884 H 944.644 -2.10403 3.1391 0
M  V30 9885 H 944.957 -3.76919 6.74649 0
M  V30 9886 H 943.302 -3.3958 6.06391 0
M  V30 9887 H 946.493 -2.53582 3.93464 0
M  V30 9888 H 946.666 -3.29535 5.57952 0
M  V30 9889 N 940.072 -1.23292 -0.981677 0
M  V30 9890 C 941.488 -0.995295 -1.24764 0
M  V30 9891 C 941.688 0.304379 -1.99188 0
M  V30 9892 O 940.744 1.02414 -2.30798 0
M  V30 9893 C 942.057 -2.20135 -2.04844 0
M  V30 9894 C 943.605 -2.24612 -2.17988 0
M  V30 9895 C 944.08 -3.448 -3.01458 0
M  V30 9896 N 945.571 -3.45031 -3.09044 0
M  V30 9897 C 946.306 -4.34683 -3.7395 0
M  V30 9898 N 945.802 -5.34569 -4.4069 0
M  V30 9899 N 947.595 -4.22429 -3.70823 0
M  V30 9900 H 939.746 -2.06834 -0.483052 0
M  V30 9901 H 942.009 -0.906929 -0.276014 0
M  V30 9902 H 941.715 -3.14446 -1.57532 0
M  V30 9903 H 941.589 -2.21115 -3.05594 0
M  V30 9904 H 943.976 -1.30841 -2.64508 0
M  V30 9905 H 944.057 -2.27664 -1.16631 0
M  V30 9906 H 943.701 -4.38877 -2.55635 0
M  V30 9907 H 943.631 -3.38988 -4.02982 0
M  V30 9908 H 946.122 -2.72759 -2.61555 0
M  V30 9909 H 946.435 -5.99236 -4.87991 0
M  V30 9910 H 944.78 -5.3847 -4.39403 0
M  V30 9911 H 947.971 -3.43639 -3.17851 0
M  V30 9912 H 948.144 -4.92501 -4.21126 0
M  V30 9913 N 941.55 1.18024 -1.04442 0
M  V30 9914 C 942.799 1.8743 -0.745185 0
M  V30 9915 C 943.112 1.81459 0.730206 0
M  V30 9916 O 944.318 2.46263 1.1431 0
M  V30 9917 C 942.774 3.36266 -1.28271 0
M  V30 9918 C 942.382 3.50757 -2.787 0
M  V30 9919 C 944.126 4.11048 -1.06018 0
M  V30 9920 C 942.033 4.93573 -3.25791 0
M  V30 9921 H 940.963 0.702038 -0.27506 0
M  V30 9922 H 943.614 1.33333 -1.26073 0
M  V30 9923 H 941.996 3.89853 -0.695002 0
M  V30 9924 H 943.17 3.07423 -3.43261 0
M  V30 9925 H 941.485 2.89385 -2.99408 0
M  V30 9926 H 944.082 5.16395 -1.38711 0
M  V30 9927 H 944.425 4.163 0.00241716 0
M  V30 9928 H 944.958 3.63644 -1.61269 0
M  V30 9929 H 941.697 4.93491 -4.31447 0
M  V30 9930 H 941.217 5.37607 -2.65968 0
M  V30 9931 H 942.896 5.62307 -3.20031 0
M  V30 9932 N 943.028 0.824394 1.34319 0
M  V30 9933 C 944.276 0.41235 1.97849 0
M  V30 9934 C 944.597 -1.02841 1.65677 0
M  V30 9935 O 943.867 -1.71421 0.948245 0
M  V30 9936 H 942.447 0.149486 0.73189 0
M  V30 9937 H 945.109 1.05416 1.63931 0
M  V30 9938 H 944.205 0.532557 3.07523 0
M  V30 9939 N 944.506 -1.46559 0.579492 0
M  V30 9940 C 945.755 -2.01606 0.0615735 0
M  V30 9941 C 946.068 -1.45695 -1.30508 0
M  V30 9942 O 947.274 -1.92541 -1.91416 0
M  V30 9943 C 945.73 -3.59851 0.059496 0
M  V30 9944 C 945.338 -4.24757 1.42427 0
M  V30 9945 C 947.082 -4.22567 -0.404646 0
M  V30 9946 C 944.989 -5.75072 1.38009 0
M  V30 9947 H 943.919 -0.753754 0.0192491 0
M  V30 9948 H 946.57 -1.68326 0.73066 0
M  V30 9949 H 944.952 -3.90193 -0.675691 0
M  V30 9950 H 946.126 -4.06029 2.17893 0
M  V30 9951 H 944.441 -3.74121 1.82817 0
M  V30 9952 H 947.038 -5.32748 -0.456441 0
M  V30 9953 H 947.381 -3.91279 -1.42149 0
M  V30 9954 H 947.914 -3.96839 0.276376 0
M  V30 9955 H 944.653 -6.11014 2.37364 0
M  V30 9956 H 944.173 -5.96073 0.667583 0
M  V30 9957 H 945.852 -6.37724 1.09163 0
M  V30 9958 N 945.984 -0.3171 -1.54377 0
M  V30 9959 C 947.231 0.28741 -2.0045 0
M  V30 9960 C 947.559 1.52648 -1.20535 0
M  V30 9961 O 946.814 1.93775 -0.273831 0
M  V30 9962 C 947.113 0.672917 -3.51008 0
M  V30 9963 C 946.779 -0.466245 -4.48483 0
M  V30 9964 C 945.441 -0.778933 -4.74854 0
M  V30 9965 C 947.793 -1.23176 -5.06436 0
M  V30 9966 C 945.121 -1.85997 -5.56437 0
M  V30 9967 C 947.473 -2.30284 -5.89196 0
M  V30 9968 C 946.137 -2.62141 -6.13872 0
M  V30 9969 H 945.407 0.105171 -0.733499 0
M  V30 9970 H 948.054 -0.439538 -1.86388 0
M  V30 9971 H 946.359 1.48019 -3.62764 0
M  V30 9972 H 948.056 1.15209 -3.84094 0
M  V30 9973 H 944.646 -0.212449 -4.28073 0
M  V30 9974 H 948.83 -1.00344 -4.8605 0
M  V30 9975 H 944.086 -2.11134 -5.73788 0
M  V30 9976 H 948.26 -2.90048 -6.33123 0
M  V30 9977 H 945.887 -3.46037 -6.76877 0
M  V30 9978 N 947.462 1.57535 -0.0451378 0
M  V30 9979 C 948.71 1.92071 0.628743 0
M  V30 9980 C 949.031 0.923635 1.71738 0
M  V30 9981 O 948.301 -0.0324376 1.95873 0
M  V30 9982 H 946.881 0.708995 0.235233 0
M  V30 9983 H 949.543 1.9466 -0.0967177 0
M  V30 9984 H 948.639 2.9314 1.07123 0
M  V30 9985 N 948.94 -0.228186 1.55939 0
M  V30 9986 C 949.872 -1.30605 1.88348 0
M  V30 9987 C 950.885 -1.43375 0.771198 0
M  V30 9988 O 952.074 -1.44391 1.04945 0
M  V30 9989 C 949.174 -2.68248 2.07115 0
M  V30 9990 C 948.347 -2.77509 3.38094 0
M  V30 9991 C 947.406 -3.96121 3.46373 0
M  V30 9992 O 946.432 -3.8477 4.19453 0
M  V30 9993 N 947.634 -5.10132 2.77031 0
M  V30 9994 H 950.399 -1.03132 2.81396 0
M  V30 9995 H 947.96 -0.418245 1.56404 0
M  V30 9996 H 949.952 -3.45966 2.09976 0
M  V30 9997 H 948.522 -2.88348 1.20723 0
M  V30 9998 H 947.742 -1.8632 3.47388 0
M  V30 9999 H 949.03 -2.80662 4.2439 0
M  V30 10000 H 948.428 -5.22249 2.17424 0
M  V30 10001 H 946.985 -5.85916 2.85561 0
M  V30 10002 N 950.418 -1.49637 -0.494624 0
M  V30 10003 C 951.695 -1.4995 -1.25596 0
M  V30 10004 C 952.075 -0.230805 -2.09834 0
M  V30 10005 O 951.423 0.786625 -2.14533 0
M  V30 10006 C 951.633 -2.78204 -2.10721 0
M  V30 10007 C 952.981 -3.27946 -2.69698 0
M  V30 10008 O 954.005 -2.79365 -2.20984 0
M  V30 10009 O 952.864 -4.12571 -3.58395 0
M  V30 10010 H 949.958 -0.60044 -0.568684 0
M  V30 10011 H 952.504 -1.61906 -0.508371 0
M  V30 10012 H 951.276 -3.62029 -1.48494 0
M  V30 10013 H 950.899 -2.69139 -2.92661 0
M  V30 10014 N 951.896 0.746133 -1.38819 0
M  V30 10015 C 952.806 1.89063 -1.38897 0
M  V30 10016 C 953.822 1.71648 -0.28513 0
M  V30 10017 O 954.998 1.94443 -0.524783 0
M  V30 10018 C 952.063 3.24523 -1.22007 0
M  V30 10019 C 951.124 3.54411 -2.42263 0
M  V30 10020 C 950.357 4.83408 -2.26169 0
M  V30 10021 O 950.58 5.56325 -1.25931 0
M  V30 10022 O 949.514 5.12943 -3.14918 0
M  V30 10023 H 953.34 1.91951 -2.35347 0
M  V30 10024 H 950.925 0.892433 -1.19816 0
M  V30 10025 H 952.807 4.05496 -1.14677 0
M  V30 10026 H 951.482 3.2243 -0.286455 0
M  V30 10027 H 950.389 2.73569 -2.55168 0
M  V30 10028 H 951.722 3.61273 -3.3428 0
M  V30 10029 N 953.375 1.23811 0.975125 0
M  V30 10030 C 954.652 0.9815 1.69192 0
M  V30 10031 C 955.032 -0.498373 2.05133 0
M  V30 10032 O 954.38 -1.47087 1.74864 0
M  V30 10033 C 954.59 1.89701 2.92941 0
M  V30 10034 C 955.938 2.16357 3.65342 0
M  V30 10035 O 956.962 1.87293 3.02985 0
M  V30 10036 O 955.821 2.65675 4.77576 0
M  V30 10037 H 952.915 0.370599 0.739314 0
M  V30 10038 H 955.461 1.34876 1.02988 0
M  V30 10039 H 954.233 2.89719 2.63018 0
M  V30 10040 H 953.856 1.53244 3.66881 0
M  V30 10041 N 954.853 -1.17469 1.05066 0
M  V30 10042 C 956.099 -1.87976 0.761113 0
M  V30 10043 C 956.432 -1.80756 -0.709995 0
M  V30 10044 O 955.707 -1.21469 -1.51906 0
M  V30 10045 C 955.99 -3.38055 1.2406 0
M  V30 10046 C 955.843 -3.54032 2.77455 0
M  V30 10047 C 957.162 -4.32036 0.838612 0
M  V30 10048 H 954.281 -0.682573 0.277963 0
M  V30 10049 H 956.923 -1.38147 1.30443 0
M  V30 10050 H 955.073 -3.80622 0.778388 0
M  V30 10051 H 956.745 -3.20489 3.3179 0
M  V30 10052 H 954.988 -2.96352 3.16793 0
M  V30 10053 H 955.659 -4.59377 3.06066 0
M  V30 10054 H 958.135 -3.97303 1.23651 0
M  V30 10055 H 957.011 -5.35583 1.20173 0
M  V30 10056 H 957.272 -4.41349 -0.257498 0
M  V30 10057 N 956.331 -0.831506 -1.3388 0
M  V30 10058 C 957.559 -0.436925 -2.02234 0
M  V30 10059 C 957.974 0.959689 -1.6259 0
M  V30 10060 O 957.331 1.62248 -0.835576 0
M  V30 10061 C 957.382 -0.539429 -3.57453 0
M  V30 10062 O 957.103 -1.88101 -3.95664 0
M  V30 10063 C 958.604 -0.140852 -4.43076 0
M  V30 10064 H 955.824 -0.174302 -0.647966 0
M  V30 10065 H 958.368 -1.12204 -1.70969 0
M  V30 10066 H 956.523 0.0976959 -3.87277 0
M  V30 10067 H 956.937 -1.86131 -4.90363 0
M  V30 10068 H 958.411 -0.26364 -5.5137 0
M  V30 10069 H 958.888 0.916505 -4.29531 0
M  V30 10070 H 959.494 -0.752117 -4.18597 0
M  V30 10071 N 957.809 1.4625 -0.587256 0
M  V30 10072 C 959.034 2.07252 -0.0784517 0
M  V30 10073 C 959.459 1.43239 1.21919 0
M  V30 10074 O 958.817 0.517791 1.73749 0
M  V30 10075 C 958.865 3.60534 0.0691037 0
M  V30 10076 O 957.969 3.96773 1.12448 0
M  V30 10077 H 957.31 0.660825 -0.064859 0
M  V30 10078 H 959.84 1.87819 -0.811491 0
M  V30 10079 H 959.85 4.0708 0.273826 0
M  V30 10080 H 958.525 4.06516 -0.878514 0
M  V30 10081 H 957.102 3.6193 0.897852 0
M  V30 10082 N 959.287 0.325282 1.54207 0
M  V30 10083 C 960.234 -0.539889 2.24397 0
M  V30 10084 C 961.204 -1.11028 1.2354 0
M  V30 10085 O 962.389 -1.1503 1.52226 0
M  V30 10086 C 959.529 -1.69405 3.00659 0
M  V30 10087 C 958.642 -1.15273 4.16337 0
M  V30 10088 C 957.777 -2.27272 4.80126 0
M  V30 10089 C 956.816 -1.70397 5.87904 0
M  V30 10090 N 955.953 -2.76065 6.45548 0
M  V30 10091 H 960.793 0.0652318 2.97929 0
M  V30 10092 H 958.33 0.043964 1.47034 0
M  V30 10093 H 960.288 -2.37325 3.43122 0
M  V30 10094 H 958.918 -2.27043 2.29458 0
M  V30 10095 H 957.97 -0.365034 3.78645 0
M  V30 10096 H 959.282 -0.696576 4.93912 0
M  V30 10097 H 958.436 -3.03092 5.25566 0
M  V30 10098 H 957.175 -2.76224 4.01935 0
M  V30 10099 H 956.18 -0.930752 5.41864 0
M  V30 10100 H 957.405 -1.22319 6.67993 0
M  V30 10101 H 955.351 -3.24306 5.7023 0
M  V30 10102 H 955.268 -2.35018 7.18542 0
M  V30 10103 H 956.536 -3.5171 6.95644 0
M  V30 10104 N 960.765 -1.57509 0.0534917 0
M  V30 10105 C 961.728 -2.10563 -0.905307 0
M  V30 10106 C 962.728 -1.02571 -1.23838 0
M  V30 10107 O 963.918 -1.28635 -1.17468 0
M  V30 10108 C 961.05 -2.5918 -2.21447 0
M  V30 10109 H 962.243 -2.96575 -0.445354 0
M  V30 10110 H 959.796 -1.55079 -0.194947 0
M  V30 10111 H 960.531 -1.76568 -2.72019 0
M  V30 10112 H 960.316 -3.38098 -1.98575 0
M  V30 10113 H 961.806 -3.00365 -2.90122 0
M  V30 10114 N 962.243 0.219913 -1.56058 0
M  V30 10115 C 963.49 0.944064 -1.79147 0
M  V30 10116 C 963.818 1.84268 -0.622531 0
M  V30 10117 O 963.073 1.91713 0.393013 0
M  V30 10118 C 963.372 1.81293 -3.08006 0
M  V30 10119 C 963.038 1.0674 -4.38084 0
M  V30 10120 C 961.7 0.86147 -4.73426 0
M  V30 10121 C 964.052 0.541049 -5.18384 0
M  V30 10122 C 961.38 0.117307 -5.86583 0
M  V30 10123 C 963.732 -0.189779 -6.32315 0
M  V30 10124 C 962.396 -0.406951 -6.66258 0
M  V30 10125 H 961.666 0.345458 -0.655546 0
M  V30 10126 H 964.313 0.212121 -1.90322 0
M  V30 10127 H 962.618 2.61278 -2.9196 0
M  V30 10128 H 964.315 2.3754 -3.23072 0
M  V30 10129 H 960.905 1.23789 -4.10334 0
M  V30 10130 H 965.089 0.687617 -4.91514 0
M  V30 10131 H 960.345 -0.0611651 -6.11369 0
M  V30 10132 H 964.519 -0.605134 -6.93766 0
M  V30 10133 H 962.146 -0.985511 -7.53785 0
M  V30 10134 N 963.721 1.49897 0.486681 0
M  V30 10135 C 964.949 1.63837 1.26353 0
M  V30 10136 C 965.364 0.315428 1.86146 0
M  V30 10137 O 964.721 -0.700831 1.68507 0
M  V30 10138 C 964.772 2.71792 2.38351 0
M  V30 10139 O 964.493 3.98956 1.81013 0
M  V30 10140 C 965.994 2.96566 3.2949 0
M  V30 10141 H 963.214 0.551158 0.382709 0
M  V30 10142 H 965.758 1.96023 0.582694 0
M  V30 10143 H 963.913 2.42344 3.02238 0
M  V30 10144 H 964.327 4.58536 2.54647 0
M  V30 10145 H 965.801 3.75803 4.04322 0
M  V30 10146 H 966.278 2.07031 3.87343 0
M  V30 10147 H 966.884 3.27485 2.71355 0
M  V30 10148 N 965.199 -0.738761 1.39212 0
M  V30 10149 C 966.447 -1.49529 1.35962 0
M  V30 10150 C 966.768 -1.94948 -0.0450152 0
M  V30 10151 O 966.038 -1.68717 -0.995552 0
M  V30 10152 H 964.618 -0.554692 0.500326 0
M  V30 10153 H 967.28 -0.877255 1.74041 0
M  V30 10154 H 966.376 -2.37919 2.01993 0
M  V30 10155 N 966.677 -1.24326 -0.968545 0
M  V30 10156 C 968.093 -1.00847 -1.23701 0
M  V30 10157 C 968.293 0.283235 -1.99499 0
M  V30 10158 O 967.349 0.999607 -2.31871 0
M  V30 10159 C 968.662 -2.22295 -2.02498 0
M  V30 10160 C 970.21 -2.26911 -2.15593 0
M  V30 10161 C 970.685 -3.47978 -2.97784 0
M  V30 10162 N 972.176 -3.48289 -3.05367 0
M  V30 10163 C 972.911 -4.38625 -3.69318 0
M  V30 10164 N 972.407 -5.39213 -4.34995 0
M  V30 10165 N 974.2 -4.26339 -3.66322 0
M  V30 10166 H 966.351 -2.07335 -0.461087 0
M  V30 10167 H 968.614 -0.909805 -0.26638 0
M  V30 10168 H 968.32 -3.161 -1.54188 0
M  V30 10169 H 968.194 -2.24344 -3.03232 0
M  V30 10170 H 970.581 -1.33639 -2.63106 0
M  V30 10171 H 970.662 -2.28888 -1.14209 0
M  V30 10172 H 970.306 -4.41564 -2.50965 0
M  V30 10173 H 970.236 -3.43244 -3.99364 0
M  V30 10174 H 972.727 -2.75517 -2.58648 0
M  V30 10175 H 973.04 -6.04378 -4.81608 0
M  V30 10176 H 971.385 -5.43101 -4.33667 0
M  V30 10177 H 974.576 -3.46991 -3.14189 0
M  V30 10178 H 974.749 -4.9694 -4.15878 0
M  V30 10179 N 968.156 1.1691 -1.05688 0
M  V30 10180 C 969.066 2.24735 -0.67315 0
M  V30 10181 C 970.082 1.71252 0.308043 0
M  V30 10182 O 971.258 2.00772 0.158889 0
M  V30 10183 C 968.323 3.4665 -0.059026 0
M  V30 10184 C 967.384 4.15198 -1.0913 0
M  V30 10185 C 966.617 5.31292 -0.50639 0
M  V30 10186 O 966.84 5.663 0.682692 0
M  V30 10187 O 965.774 5.88923 -1.2431 0
M  V30 10188 H 969.6 2.59855 -1.57191 0
M  V30 10189 H 967.185 1.24306 -0.828751 0
M  V30 10190 H 969.067 4.20455 0.282018 0
M  V30 10191 H 967.742 3.13316 0.813304 0
M  V30 10192 H 966.649 3.43389 -1.48442 0
M  V30 10193 H 967.982 4.52571 -1.93495 0
M  V30 10194 N 969.634 0.838594 1.33437 0
M  V30 10195 C 970.881 0.434169 1.97791 0
M  V30 10196 C 971.209 -1.00652 1.66431 0
M  V30 10197 O 970.464 -1.71848 0.936309 0
M  V30 10198 C 970.763 0.601425 3.52303 0
M  V30 10199 C 970.429 2.01017 4.03612 0
M  V30 10200 C 969.091 2.39551 4.17336 0
M  V30 10201 C 971.443 2.93035 4.31022 0
M  V30 10202 C 968.771 3.69406 4.55802 0
M  V30 10203 C 971.123 4.22372 4.7094 0
M  V30 10204 C 969.787 4.60862 4.82869 0
M  V30 10205 H 969.057 0.158874 0.723768 0
M  V30 10206 H 971.704 1.06556 1.59116 0
M  V30 10207 H 970.009 -0.113284 3.91636 0
M  V30 10208 H 971.706 0.268798 4.00098 0
M  V30 10209 H 968.296 1.7009 3.93405 0
M  V30 10210 H 972.48 2.64503 4.19943 0
M  V30 10211 H 967.736 3.99033 4.63231 0
M  V30 10212 H 971.91 4.93749 4.91106 0
M  V30 10213 H 969.537 5.6153 5.12433 0
M  V30 10214 N 971.112 -1.45937 0.595003 0
M  V30 10215 C 972.389 -1.95592 0.0178748 0
M  V30 10216 C 972.769 -1.53758 -1.44643 0
M  V30 10217 O 972.117 -0.794104 -2.14257 0
M  V30 10218 C 972.327 -3.4841 0.202789 0
M  V30 10219 C 973.675 -4.2453 0.0770121 0
M  V30 10220 O 974.699 -3.55954 0.132257 0
M  V30 10221 O 973.558 -5.46479 -0.0484271 0
M  V30 10222 H 970.652 -0.825888 -0.0428702 0
M  V30 10223 H 973.198 -1.56162 0.664184 0
M  V30 10224 H 971.97 -3.71787 1.22027 0
M  V30 10225 H 971.593 -3.947 -0.479376 0
M  V30 10226 N 972.59 -0.333456 -1.54032 0
M  V30 10227 C 973.5 0.536674 -2.28379 0
M  V30 10228 C 974.516 1.12068 -1.33104 0
M  V30 10229 O 975.692 1.13853 -1.66131 0
M  V30 10230 C 972.757 1.67677 -3.03456 0
M  V30 10231 C 971.818 1.12357 -4.14336 0
M  V30 10232 C 971.051 2.20933 -4.85823 0
M  V30 10233 O 971.274 3.41466 -4.569 0
M  V30 10234 O 970.208 1.85795 -5.72507 0
M  V30 10235 H 974.034 -0.0674003 -3.03625 0
M  V30 10236 H 971.619 -0.098823 -1.49073 0
M  V30 10237 H 973.501 2.34032 -3.50438 0
M  V30 10238 H 972.176 2.26684 -2.31076 0
M  V30 10239 H 971.083 0.424827 -3.7168 0
M  V30 10240 H 972.416 0.578497 -4.88789 0
M  V30 10241 N 974.068 1.57479 -0.061844 0
M  V30 10242 C 974.998 2.15181 0.9066 0
M  V30 10243 C 975.979 1.07624 1.31724 0
M  V30 10244 O 977.164 1.35614 1.39006 0
M  V30 10245 C 974.294 2.70542 2.17771 0
M  V30 10246 C 973.248 3.83178 1.9068 0
M  V30 10247 C 972.574 4.25099 3.24337 0
M  V30 10248 C 973.874 5.07853 1.21994 0
M  V30 10249 H 975.568 2.96355 0.42594 0
M  V30 10250 H 973.114 1.42556 0.203435 0
M  V30 10251 H 975.067 3.09552 2.85929 0
M  V30 10252 H 973.791 1.86575 2.68062 0
M  V30 10253 H 972.45 3.44656 1.24931 0
M  V30 10254 H 972.098 3.38069 3.72449 0
M  V30 10255 H 971.798 5.01021 3.07005 0
M  V30 10256 H 973.322 4.66718 3.93709 0
M  V30 10257 H 974.736 5.44242 1.80204 0
M  V30 10258 H 973.133 5.88987 1.14954 0
M  V30 10259 H 974.203 4.84497 0.197536 0
M  V30 10260 N 975.546 -0.211634 1.56173 0
M  V30 10261 C 976.494 -1.28188 1.94089 0
M  V30 10262 C 977.488 -1.47999 0.824167 0
M  V30 10263 O 978.694 -1.49056 1.00907 0
M  V30 10264 H 975.069 -0.42999 0.616938 0
M  V30 10265 H 977.04 -0.934962 2.83374 0
M  V30 10266 C 975.789 -2.62294 2.28248 0
M  V30 10267 H 975.112 -2.4786 3.13696 0
M  V30 10268 H 976.552 -3.35967 2.58655 0
M  V30 10269 C 975.011 -3.18049 1.11113 0
M  V30 10270 O 975.541 -3.99923 0.377458 0
M  V30 10271 N 973.747 -2.76561 0.892321 0
M  V30 10272 H 973.294 -2.10088 1.49067 0
M  V30 10273 H 973.252 -3.14206 0.110344 0
M  V30 10274 N 977.024 -1.50153 -0.478725 0
M  V30 10275 C 978.435 -1.53706 -1.05978 0
M  V30 10276 C 978.786 -0.336112 -1.933 0
M  V30 10277 O 977.911 0.551803 -2.09246 0
M  V30 10278 C 978.506 -2.78541 -1.92874 0
M  V30 10279 C 977.065 -2.848 -2.46102 0
M  V30 10280 C 976.212 -2.47902 -1.24257 0
M  V30 10281 H 979.163 -1.56528 -0.261664 0
M  V30 10282 H 979.184 -2.59964 -2.77847 0
M  V30 10283 H 978.696 -3.6593 -1.29293 0
M  V30 10284 H 976.797 -2.01744 -3.13257 0
M  V30 10285 H 976.91 -3.87511 -2.81731 0
M  V30 10286 H 975.274 -2.0017 -1.57493 0
M  V30 10287 H 976.057 -3.3759 -0.62351 0
M  V30 10288 N 978.502 0.731368 -1.39602 0
M  V30 10289 C 979.727 1.52567 -1.40492 0
M  V30 10290 C 980.152 1.881 -0.00228828 0
M  V30 10291 O 979.51 1.52167 0.985643 0
M  V30 10292 C 979.558 2.78749 -2.2876 0
M  V30 10293 O 978.662 3.7482 -1.71999 0
M  V30 10294 H 978.003 0.460601 -0.478271 0
M  V30 10295 H 980.533 0.902042 -1.83642 0
M  V30 10296 H 980.543 3.27446 -2.43399 0
M  V30 10297 H 979.218 2.5222 -3.30693 0
M  V30 10298 H 977.795 3.33604 -1.66622 0
M  V30 10299 N 979.98 1.24838 0.961938 0
M  V30 10300 C 980.943 1.04674 2.03902 0
M  V30 10301 C 981.943 0.00204674 1.608 0
M  V30 10302 O 983.133 0.243555 1.72489 0
M  V30 10303 C 980.265 0.587736 3.35795 0
M  V30 10304 H 981.458 2.00278 2.23223 0
M  V30 10305 H 979.011 1.07142 1.138 0
M  V30 10306 H 979.746 -0.371244 3.22168 0
M  V30 10307 H 979.531 1.34182 3.68426 0
M  V30 10308 H 981.021 0.467867 4.14971 0
M  V30 10309 N 981.458 -1.16348 1.06306 0
M  V30 10310 C 982.39 -2.20316 0.631929 0
M  V30 10311 C 983.403 -1.59819 -0.310133 0
M  V30 10312 O 984.592 -1.78213 -0.101103 0
M  V30 10313 C 981.692 -3.3877 -0.0937645 0
M  V30 10314 C 980.865 -4.28826 0.861816 0
M  V30 10315 C 979.924 -5.25908 0.175346 0
M  V30 10316 O 978.95 -5.63363 0.813039 0
M  V30 10317 N 980.152 -5.70307 -1.08305 0
M  V30 10318 H 982.917 -2.57925 1.52626 0
M  V30 10319 H 980.478 -1.31358 0.946392 0
M  V30 10320 H 982.47 -4.00759 -0.563412 0
M  V30 10321 H 981.04 -2.99666 -0.889904 0
M  V30 10322 H 980.26 -3.64098 1.51083 0
M  V30 10323 H 981.548 -4.85875 1.51007 0
M  V30 10324 H 980.946 -5.4197 -1.62127 0
M  V30 10325 H 979.503 -6.34387 -1.49656 0
M  V30 10326 N 982.937 -0.845659 -1.3299 0
M  V30 10327 C 984.353 -0.53433 -1.5039 0
M  V30 10328 C 984.553 0.936939 -1.78392 0
M  V30 10329 O 983.609 1.72043 -1.84818 0
M  V30 10330 C 984.922 -1.41354 -2.65404 0
M  V30 10331 C 986.47 -1.41303 -2.79289 0
M  V30 10332 C 986.945 -2.27724 -3.97373 0
M  V30 10333 N 988.436 -2.25471 -4.0462 0
M  V30 10334 C 989.171 -2.89074 -4.95201 0
M  V30 10335 N 988.667 -3.61755 -5.90851 0
M  V30 10336 N 990.46 -2.78508 -4.88251 0
M  V30 10337 H 982.611 -1.79798 -1.13078 0
M  V30 10338 H 984.874 -0.767454 -0.556524 0
M  V30 10339 H 984.58 -2.45936 -2.51413 0
M  V30 10340 H 984.454 -1.09445 -3.60973 0
M  V30 10341 H 986.841 -0.374899 -2.92709 0
M  V30 10342 H 986.922 -1.77222 -1.84461 0
M  V30 10343 H 986.566 -3.316 -3.84713 0
M  V30 10344 H 986.496 -1.89142 -4.9146 0
M  V30 10345 H 988.987 -1.72622 -3.3617 0
M  V30 10346 H 989.3 -4.07475 -6.56646 0
M  V30 10347 H 987.645 -3.65863 -5.90906 0
M  V30 10348 H 990.836 -2.21285 -4.12493 0
M  V30 10349 H 991.009 -3.2836 -5.58645 0
M  V30 10350 N 984.415 1.45619 -0.602734 0
M  V30 10351 C 985.692 1.9558 -0.0282472 0
M  V30 10352 C 986.072 1.54523 1.43826 0
M  V30 10353 O 985.42 0.805456 2.13833 0
M  V30 10354 C 985.63 3.48298 -0.221263 0
M  V30 10355 C 986.978 4.24483 -0.0995249 0
M  V30 10356 O 988.002 3.55879 -0.151132 0
M  V30 10357 O 986.861 5.46497 0.0194454 0
M  V30 10358 H 983.955 0.826104 0.0384897 0
M  V30 10359 H 986.501 1.55808 -0.672456 0
M  V30 10360 H 985.273 3.71134 -1.23997 0
M  V30 10361 H 984.896 3.94948 0.458437 0
M  V30 10362 N 985.893 0.34162 1.53853 0
M  V30 10363 C 986.856 -0.503541 2.236 0
M  V30 10364 C 987.856 -1.02912 1.23554 0
M  V30 10365 O 989.046 -0.918678 1.48007 0
M  V30 10366 C 986.178 -1.70126 2.95415 0
M  V30 10367 H 987.371 0.106437 2.99711 0
M  V30 10368 H 984.924 0.0929408 1.56023 0
M  V30 10369 H 985.659 -2.34999 2.23486 0
M  V30 10370 H 985.444 -1.33161 3.68796 0
M  V30 10371 H 986.934 -2.30077 3.48503 0
M  V30 10372 N 987.371 -1.57444 0.0701946 0
M  V30 10373 C 988.611 -1.95304 -0.60296 0
M  V30 10374 C 988.975 -0.949592 -1.66873 0
M  V30 10375 O 990.176 -1.2158 -2.39733 0
M  V30 10376 C 988.447 -3.37831 -1.16639 0
M  V30 10377 S 990.006 -3.97667 -1.8549 0
M  V30 10378 H 986.824 -0.683026 -0.197476 0
M  V30 10379 H 989.426 -1.94971 0.143669 0
M  V30 10380 H 988.13 -4.08648 -0.378856 0
M  V30 10381 H 987.661 -3.41704 -1.94942 0
M  V30 10382 H 989.676 -3.84441 -3.13719 0
M  V30 10383 N 988.849 0.203349 -1.56283 0
M  V30 10384 C 989.779 1.2549 -1.96912 0
M  V30 10385 C 990.76 1.47919 -0.839884 0
M  V30 10386 O 991.945 1.59795 -1.10359 0
M  V30 10387 C 989.075 2.6009 -2.30153 0
M  V30 10388 C 988.029 2.52289 -3.45738 0
M  V30 10389 C 987.355 3.91086 -3.64632 0
M  V30 10390 C 988.655 2.05503 -4.80173 0
M  V30 10391 H 990.349 0.917306 -2.85002 0
M  V30 10392 H 987.895 0.439818 -1.37119 0
M  V30 10393 H 989.848 3.33829 -2.5717 0
M  V30 10394 H 988.572 2.95574 -1.38937 0
M  V30 10395 H 987.231 1.81006 -3.18798 0
M  V30 10396 H 986.879 4.23908 -2.7076 0
M  V30 10397 H 986.579 3.86742 -4.42385 0
M  V30 10398 H 988.103 4.66459 -3.94016 0
M  V30 10399 H 989.517 2.68995 -5.06275 0
M  V30 10400 H 987.914 2.1218 -5.61337 0
M  V30 10401 H 988.984 1.00793 -4.74309 0
M  V30 10402 N 990.327 1.50405 0.470755 0
M  V30 10403 C 991.275 1.6982 1.58946 0
M  V30 10404 C 992.269 0.56407 1.59733 0
M  V30 10405 O 993.475 0.744576 1.63878 0
M  V30 10406 H 989.85 0.536016 0.527438 0
M  V30 10407 H 991.821 2.63662 1.39732 0
M  V30 10408 C 990.57 1.80986 2.96883 0
M  V30 10409 H 989.893 2.67645 2.96996 0
M  V30 10410 H 991.333 1.98596 3.74614 0
M  V30 10411 C 989.792 0.561551 3.32187 0
M  V30 10412 O 990.322 -0.299136 4.00585 0
M  V30 10413 N 988.528 0.415476 2.87615 0
M  V30 10414 H 988.075 1.11691 2.32127 0
M  V30 10415 H 988.033 -0.418592 3.11601 0
M  V30 10416 N 991.805 -0.723954 1.39988 0
M  V30 10417 C 992.768 -1.81973 1.3935 0
M  V30 10418 C 993.768 -1.58187 0.288702 0
M  V30 10419 O 994.958 -1.65383 0.547181 0
M  V30 10420 C 992.09 -3.19937 1.177 0
M  V30 10421 H 993.283 -1.83939 2.36868 0
M  V30 10422 H 990.836 -0.928742 1.25714 0
M  V30 10423 H 991.571 -3.23625 0.209093 0
M  V30 10424 H 991.356 -3.386 1.97719 0
M  V30 10425 H 992.846 -3.99981 1.20022 0
M  V30 10426 N 993.283 -1.25346 -0.955304 0
M  V30 10427 C 994.699 -1.02154 -1.22625 0
M  V30 10428 C 994.899 0.26206 -1.99789 0
M  V30 10429 O 993.955 0.974958 -2.32918 0
M  V30 10430 C 995.268 -2.2443 -2.00129 0
M  V30 10431 C 996.816 -2.29185 -2.13174 0
M  V30 10432 C 997.291 -3.51117 -2.94077 0
M  V30 10433 N 998.782 -3.51509 -3.01655 0
M  V30 10434 C 999.517 -4.42517 -3.64645 0
M  V30 10435 N 999.013 -5.43796 -4.29252 0
M  V30 10436 N 1000.81 -4.302 -3.61779 0
M  V30 10437 H 992.957 -2.07812 -0.439071 0
M  V30 10438 H 995.22 -0.91258 -0.256715 0
M  V30 10439 H 994.926 -3.17717 -1.50827 0
M  V30 10440 H 994.8 -2.27548 -3.00835 0
M  V30 10441 H 997.187 -1.36422 -2.61674 0
M  V30 10442 H 997.268 -2.30087 -1.11775 0
M  V30 10443 H 996.912 -4.44201 -2.46268 0
M  V30 10444 H 996.842 -3.4746 -3.95701 0
M  V30 10445 H 999.333 -2.78245 -2.55711 0
M  V30 10446 H 999.646 -6.09453 -4.75171 0
M  V30 10447 H 997.991 -5.4767 -4.27882 0
M  V30 10448 H 1001.18 -3.50304 -3.10491 0
M  V30 10449 H 1001.36 -5.01323 -4.10584 0
M  V30 10450 N 994.761 1.15782 -1.06922 0
M  V30 10451 C 996.001 1.88135 -0.799043 0
M  V30 10452 C 996.365 1.80203 0.662632 0
M  V30 10453 O 997.566 2.47543 1.04767 0
M  V30 10454 C 995.837 3.3339 -1.28786 0
M  V30 10455 S 997.396 4.23525 -1.1477 0
M  V30 10456 H 994.214 0.649313 -0.289679 0
M  V30 10457 H 996.816 1.3972 -1.36743 0
M  V30 10458 H 995.52 3.36705 -2.34645 0
M  V30 10459 H 995.051 3.86857 -0.714489 0
M  V30 10460 H 997.066 4.96131 -0.0825264 0
M  V30 10461 N 996.239 0.8527 1.3254 0
M  V30 10462 C 997.486 0.455123 1.97319 0
M  V30 10463 C 997.814 -0.988814 1.67489 0
M  V30 10464 O 997.069 -1.70845 0.954483 0
M  V30 10465 C 997.368 0.638757 3.51646 0
M  V30 10466 C 997.034 2.05287 4.01458 0
M  V30 10467 C 995.696 2.43963 4.14771 0
M  V30 10468 C 998.048 2.9759 4.27889 0
M  V30 10469 C 995.376 3.7422 4.51859 0
M  V30 10470 C 997.728 4.27343 4.66434 0
M  V30 10471 C 996.392 4.65957 4.77954 0
M  V30 10472 H 995.662 0.166541 0.722042 0
M  V30 10473 H 998.309 1.08238 1.57977 0
M  V30 10474 H 996.614 -0.0717394 3.91734 0
M  V30 10475 H 998.311 0.311219 3.9979 0
M  V30 10476 H 994.901 1.74253 3.91579 0
M  V30 10477 H 999.085 2.68942 4.17114 0
M  V30 10478 H 994.341 4.03923 4.58973 0
M  V30 10479 H 998.515 4.9893 4.85841 0
M  V30 10480 H 996.142 5.66934 5.06449 0
M  V30 10481 N 997.718 -1.45297 0.610449 0
M  V30 10482 C 998.681 -2.28995 -0.0968194 0
M  V30 10483 C 999.681 -1.39923 -0.792353 0
M  V30 10484 O 1000.87 -1.62014 -0.64008 0
M  V30 10485 C 998.003 -3.21013 -1.14731 0
M  V30 10486 H 999.196 -2.93012 0.639082 0
M  V30 10487 H 996.749 -1.51867 0.369624 0
M  V30 10488 H 997.484 -2.61803 -1.91388 0
M  V30 10489 H 997.269 -3.86628 -0.652753 0
M  V30 10490 H 998.759 -3.8394 -1.64256 0
M  V30 10491 N 999.196 -0.349774 -1.5367 0
M  V30 10492 C 1000.61 0.00191293 -1.596 0
M  V30 10493 C 1000.81 1.48175 -1.36552 0
M  V30 10494 O 999.868 2.24129 -1.16285 0
M  V30 10495 C 1001.18 -0.439848 -2.97466 0
M  V30 10496 C 1002.73 -0.392721 -3.10526 0
M  V30 10497 C 1003.2 -0.810047 -4.5078 0
M  V30 10498 N 1004.69 -0.764478 -4.56848 0
M  V30 10499 C 1005.43 -1.05927 -5.63531 0
M  V30 10500 N 1004.93 -1.42253 -6.78038 0
M  V30 10501 N 1006.72 -0.983098 -5.53436 0
M  V30 10502 H 998.87 -1.31364 -1.66905 0
M  V30 10503 H 1001.13 -0.535908 -0.781989 0
M  V30 10504 H 1000.84 -1.47189 -3.19419 0
M  V30 10505 H 1000.71 0.181735 -3.76762 0
M  V30 10506 H 1003.1 0.630161 -2.88293 0
M  V30 10507 H 1003.18 -1.04959 -2.33275 0
M  V30 10508 H 1002.82 -1.83097 -4.73749 0
M  V30 10509 H 1002.75 -0.130591 -5.26438 0
M  V30 10510 H 1005.25 -0.496637 -3.74622 0
M  V30 10511 H 1005.56 -1.63215 -7.55368 0
M  V30 10512 H 1003.9 -1.46104 -6.79469 0
M  V30 10513 H 1007.09 -0.698601 -4.62858 0
M  V30 10514 H 1007.27 -1.21618 -6.36485 0
M  V30 10515 N 1000.67 1.57404 -0.0785433 0
M  V30 10516 C 1001.92 1.94031 0.589896 0
M  V30 10517 C 1002.25 0.959297 1.68852 0
M  V30 10518 O 1001.53 -0.0103978 1.94497 0
M  V30 10519 C 1001.81 3.40886 1.16055 0
M  V30 10520 C 1001.66 4.49748 0.0681072 0
M  V30 10521 C 1002.98 3.88699 2.06401 0
M  V30 10522 H 1000.1 0.70556 0.212965 0
M  V30 10523 H 1002.74 1.89439 -0.145886 0
M  V30 10524 H 1000.89 3.4493 1.78761 0
M  V30 10525 H 1002.57 4.57823 -0.565318 0
M  V30 10526 H 1000.81 4.29625 -0.600431 0
M  V30 10527 H 1001.48 5.49658 0.507906 0
M  V30 10528 H 1003.96 3.86703 1.53622 0
M  V30 10529 H 1002.83 4.92052 2.43261 0
M  V30 10530 H 1003.09 3.2703 2.97496 0
M  V30 10531 N 1002.15 -0.195058 1.56388 0
M  V30 10532 C 1003.06 -1.26219 1.97752 0
M  V30 10533 C 1004.08 -1.49801 0.885192 0
M  V30 10534 O 1005.25 -1.62415 1.19094 0
M  V30 10535 C 1002.32 -2.5865 2.3087 0
M  V30 10536 C 1001.38 -2.4314 3.5381 0
M  V30 10537 C 1000.61 -3.69255 3.85339 0
M  V30 10538 O 1000.84 -4.73425 3.18159 0
M  V30 10539 O 999.77 -3.64782 4.78767 0
M  V30 10540 H 1003.6 -0.941161 2.88749 0
M  V30 10541 H 1001.18 -0.40006 1.43944 0
M  V30 10542 H 1003.06 -3.36814 2.53247 0
M  V30 10543 H 1001.74 -2.9038 1.43042 0
M  V30 10544 H 1000.64 -1.63086 3.3668 0
M  V30 10545 H 1001.98 -2.16341 4.42105 0
M  V30 10546 N 1003.63 -1.50653 -0.462772 0
M  V30 10547 C 1005.04 -1.54821 -1.04342 0
M  V30 10548 C 1005.39 -0.356595 -1.92932 0
M  V30 10549 O 1004.52 0.529579 -2.0982 0
M  V30 10550 C 1005.11 -2.80571 -1.89909 0
M  V30 10551 C 1003.67 -2.87394 -2.43067 0
M  V30 10552 C 1002.82 -2.49206 -1.21621 0
M  V30 10553 H 1005.77 -1.56797 -0.245048 0
M  V30 10554 H 1005.79 -2.62897 -2.75074 0
M  V30 10555 H 1005.3 -3.67281 -1.25405 0
M  V30 10556 H 1003.4 -2.05055 -3.111 0
M  V30 10557 H 1003.52 -3.90477 -2.77605 0
M  V30 10558 H 1001.88 -2.01829 -1.55361 0
M  V30 10559 H 1002.66 -3.38233 -0.587669 0
M  V30 10560 N 1005.11 0.71652 -1.4037 0
M  V30 10561 C 1006.33 1.51069 -1.42102 0
M  V30 10562 C 1006.76 1.88087 -0.0222387 0
M  V30 10563 O 1006.12 1.53204 0.969448 0
M  V30 10564 C 1006.16 2.76307 -2.31704 0
M  V30 10565 O 1005.27 3.72975 -1.75964 0
M  V30 10566 H 1004.61 0.455502 -0.483129 0
M  V30 10567 H 1007.14 0.882514 -1.84588 0
M  V30 10568 H 1007.15 3.24846 -2.46859 0
M  V30 10569 H 1005.82 2.48698 -3.3335 0
M  V30 10570 H 1004.4 3.31818 -1.70151 0
M  V30 10571 N 1006.59 1.25851 0.948643 0
M  V30 10572 C 1007.54 1.03437 2.03187 0
M  V30 10573 C 1008.52 -0.0307632 1.60871 0
M  V30 10574 O 1009.71 0.185296 1.76027 0
M  V30 10575 C 1006.84 0.661426 3.36868 0
M  V30 10576 C 1005.93 1.76363 3.8569 0
M  V30 10577 N 1006.32 2.9998 4.07241 0
M  V30 10578 C 1004.62 1.64552 4.14534 0
M  V30 10579 C 1005.32 3.71564 4.47566 0
M  V30 10580 N 1004.29 2.99214 4.53841 0
M  V30 10581 H 1008.1 1.97277 2.17851 0
M  V30 10582 H 1005.61 1.16258 1.13392 0
M  V30 10583 H 1007.61 0.482021 4.14104 0
M  V30 10584 H 1006.27 -0.269582 3.23579 0
M  V30 10585 H 1007.28 3.35963 3.94143 0
M  V30 10586 H 1003.95 0.783891 4.10075 0
M  V30 10587 H 1005.34 4.77702 4.72494 0
M  V30 10588 N 1008.06 -1.15214 1.07534 0
M  V30 10589 C 1009.01 -2.20013 0.697337 0
M  V30 10590 C 1009.98 -1.6314 -0.312168 0
M  V30 10591 O 1011.17 -1.89768 -0.198196 0
M  V30 10592 C 1008.31 -3.44945 0.103293 0
M  V30 10593 C 1007.42 -4.16009 1.1645 0
M  V30 10594 C 1006.55 -5.28496 0.535261 0
M  V30 10595 C 1005.59 -5.9138 1.57912 0
M  V30 10596 N 1004.73 -6.95335 0.972332 0
M  V30 10597 H 1009.57 -2.51698 1.59538 0
M  V30 10598 H 1007.11 -1.2361 0.797431 0
M  V30 10599 H 1009.07 -4.16397 -0.258766 0
M  V30 10600 H 1007.7 -3.13772 -0.758096 0
M  V30 10601 H 1006.75 -3.43035 1.64411 0
M  V30 10602 H 1008.06 -4.58853 1.9559 0
M  V30 10603 H 1007.21 -6.06579 0.120942 0
M  V30 10604 H 1005.95 -4.8685 -0.287889 0
M  V30 10605 H 1004.96 -5.12008 2.0032 0
M  V30 10606 H 1006.18 -6.35103 2.40459 0
M  V30 10607 H 1004.13 -6.55779 0.170119 0
M  V30 10608 H 1004.05 -7.36616 1.70095 0
M  V30 10609 H 1005.31 -7.77312 0.583577 0
M  V30 10610 N 1009.54 -0.859717 -1.32086 0
M  V30 10611 C 1010.77 -0.478865 -2.01796 0
M  V30 10612 C 1011.19 0.918274 -1.64163 0
M  V30 10613 O 1010.55 1.60409 -0.844896 0
M  V30 10614 C 1010.6 -0.631356 -3.5503 0
M  V30 10615 O 1009.7 0.333712 -4.11048 0
M  V30 10616 H 1009.04 -0.191775 -0.635703 0
M  V30 10617 H 1011.57 -1.16031 -1.68517 0
M  V30 10618 H 1011.58 -0.520783 -4.04663 0
M  V30 10619 H 1010.26 -1.65015 -3.81763 0
M  V30 10620 H 1008.84 0.178953 -3.7247 0
M  V30 10621 N 1011.02 1.44971 -0.618145 0
M  V30 10622 C 1011.97 2.30606 0.09449 0
M  V30 10623 C 1012.94 1.42725 0.849633 0
M  V30 10624 O 1014.12 1.71643 0.833266 0
M  V30 10625 C 1011.26 3.27803 1.07886 0
M  V30 10626 C 1010.38 4.30787 0.323488 0
M  V30 10627 C 1009.51 5.15085 1.29851 0
M  V30 10628 C 1008.55 6.09788 0.531561 0
M  V30 10629 N 1007.69 6.86829 1.4564 0
M  V30 10630 H 1012.53 2.91008 -0.641738 0
M  V30 10631 H 1010.06 1.43391 -0.328259 0
M  V30 10632 H 1012.02 3.82631 1.66281 0
M  V30 10633 H 1010.65 2.69131 1.78237 0
M  V30 10634 H 1009.7 3.78536 -0.376164 0
M  V30 10635 H 1011.02 4.98044 -0.274443 0
M  V30 10636 H 1010.17 5.74365 1.95421 0
M  V30 10637 H 1008.91 4.4787 1.93037 0
M  V30 10638 H 1007.91 5.49628 -0.137702 0
M  V30 10639 H 1009.14 6.79033 -0.0953993 0
M  V30 10640 H 1007.08 6.22295 2.07571 0
M  V30 10641 H 1007 7.50477 0.912167 0
M  V30 10642 H 1008.27 7.50642 2.10134 0
M  V30 10643 N 1012.5 0.357919 1.53482 0
M  V30 10644 C 1013.75 -0.235241 2.00324 0
M  V30 10645 C 1014.06 -1.50494 1.24944 0
M  V30 10646 O 1015.27 -2.17623 1.62335 0
M  V30 10647 C 1013.72 -0.469748 3.56821 0
M  V30 10648 C 1013.33 0.784877 4.41071 0
M  V30 10649 C 1015.07 -1.02098 4.12039 0
M  V30 10650 C 1012.98 0.520377 5.89106 0
M  V30 10651 H 1011.91 -0.0916816 0.748405 0
M  V30 10652 H 1014.56 0.475474 1.77233 0
M  V30 10653 H 1012.94 -1.24153 3.76035 0
M  V30 10654 H 1014.12 1.55886 4.33631 0
M  V30 10655 H 1012.43 1.25878 3.96918 0
M  V30 10656 H 1015.03 -1.23406 5.20264 0
M  V30 10657 H 1015.37 -1.98084 3.66154 0
M  V30 10658 H 1015.91 -0.309554 3.96594 0
M  V30 10659 H 1012.65 1.45035 6.39254 0
M  V30 10660 H 1012.17 -0.215254 5.99414 0
M  V30 10661 H 1013.84 0.143006 6.46842 0
M  V30 10662 N 1013.98 -1.5736 0.0868897 0
M  V30 10663 C 1015.22 -1.94341 -0.579598 0
M  V30 10664 C 1015.56 -0.968238 -1.68341 0
M  V30 10665 O 1014.83 8.29649e-05 -1.945 0
M  V30 10666 C 1015.11 -3.41497 -1.14245 0
M  V30 10667 C 1014.97 -4.49778 -0.044255 0
M  V30 10668 C 1016.29 -3.89788 -2.04336 0
M  V30 10669 H 1013.4 -0.70668 -0.20922 0
M  V30 10670 H 1016.05 -1.89359 0.15593 0
M  V30 10671 H 1014.2 -3.45873 -1.76929 0
M  V30 10672 H 1015.87 -4.57517 0.58959 0
M  V30 10673 H 1014.11 -4.293 0.623207 0
M  V30 10674 H 1014.78 -5.4992 -0.478749 0
M  V30 10675 H 1017.26 -3.87513 -1.51569 0
M  V30 10676 H 1016.13 -4.93335 -2.40648 0
M  V30 10677 H 1016.4 -3.28603 -2.95757 0
M  V30 10678 N 1015.45 0.186762 -1.56489 0
M  V30 10679 C 1016.36 1.25169 -1.98419 0
M  V30 10680 C 1017.38 1.49329 -0.893124 0
M  V30 10681 O 1018.56 1.61781 -1.19954 0
M  V30 10682 C 1015.62 2.57422 -2.32239 0
M  V30 10683 C 1014.68 2.4126 -3.55095 0
M  V30 10684 C 1013.92 3.67206 -3.87292 0
M  V30 10685 O 1014.14 4.71731 -3.20665 0
M  V30 10686 O 1013.07 3.62238 -4.80695 0
M  V30 10687 H 1016.9 0.925834 -2.89244 0
M  V30 10688 H 1014.48 0.392421 -1.44154 0
M  V30 10689 H 1016.37 3.35466 -2.5503 0
M  V30 10690 H 1015.04 2.89618 -1.44579 0
M  V30 10691 H 1013.95 1.61299 -3.37541 0
M  V30 10692 H 1015.28 2.13994 -4.43247 0
M  V30 10693 N 1016.93 1.50896 0.454776 0
M  V30 10694 C 1018.18 1.62699 1.20562 0
M  V30 10695 C 1018.51 0.334943 1.91594 0
M  V30 10696 O 1017.76 -0.680106 1.83502 0
M  V30 10697 C 1018.06 2.76839 2.26042 0
M  V30 10698 C 1017.73 4.16745 1.72147 0
M  V30 10699 C 1016.39 4.54809 1.5717 0
M  V30 10700 C 1018.74 5.04118 1.32341 0
M  V30 10701 C 1016.07 5.7797 1.00835 0
M  V30 10702 C 1018.42 6.27842 0.774419 0
M  V30 10703 C 1017.09 6.64694 0.611415 0
M  V30 10704 H 1016.36 0.595358 0.441169 0
M  V30 10705 H 1019 1.84879 0.499202 0
M  V30 10706 H 1017.31 2.48812 3.02655 0
M  V30 10707 H 1019 2.83173 2.83926 0
M  V30 10708 H 1015.59 3.86725 1.84775 0
M  V30 10709 H 1019.78 4.75331 1.42739 0
M  V30 10710 H 1015.03 6.05183 0.869669 0
M  V30 10711 H 1019.21 6.94896 0.457389 0
M  V30 10712 H 1016.84 7.60004 0.172751 0
M  V30 10713 N 1018.41 -0.709066 1.40748 0
M  V30 10714 C 1019.34 -1.83583 1.4429 0
M  V30 10715 C 1020.32 -1.67378 0.303067 0
M  V30 10716 O 1021.51 -1.87312 0.512612 0
M  V30 10717 C 1018.64 -3.21599 1.31116 0
M  V30 10718 C 1017.59 -3.52486 2.4277 0
M  V30 10719 C 1016.92 -4.89716 2.14668 0
M  V30 10720 C 1018.22 -3.52824 3.85113 0
M  V30 10721 H 1019.91 -1.80876 2.38588 0
M  V30 10722 H 1017.46 -0.868795 1.14839 0
M  V30 10723 H 1019.41 -4.00123 1.32209 0
M  V30 10724 H 1018.13 -3.24898 0.332965 0
M  V30 10725 H 1016.79 -2.76305 2.40937 0
M  V30 10726 H 1016.44 -4.89625 1.15224 0
M  V30 10727 H 1016.14 -5.11347 2.89478 0
M  V30 10728 H 1017.66 -5.70566 2.17455 0
M  V30 10729 H 1019.08 -4.21377 3.88734 0
M  V30 10730 H 1017.48 -3.85984 4.59496 0
M  V30 10731 H 1018.55 -2.52073 4.14231 0
M  V30 10732 N 1019.89 -1.26353 -0.941956 0
M  V30 10733 C 1020.82 -1.03634 -2.04432 0
M  V30 10734 C 1021.83 0.00295864 -1.628 0
M  V30 10735 O 1023.02 -0.237029 -1.76919 0
M  V30 10736 C 1020.12 -0.547231 -3.34453 0
M  V30 10737 C 1019.3 -1.65559 -4.04857 0
M  V30 10738 C 1018.36 -1.16466 -5.13149 0
M  V30 10739 O 1017.38 -1.86158 -5.37898 0
M  V30 10740 N 1018.58 -0.0126703 -5.80499 0
M  V30 10741 H 1021.35 -1.98558 -2.24488 0
M  V30 10742 H 1018.91 -1.17728 -1.11138 0
M  V30 10743 H 1020.9 -0.203004 -4.04191 0
M  V30 10744 H 1019.47 0.308401 -3.11075 0
M  V30 10745 H 1018.69 -2.17079 -3.29044 0
M  V30 10746 H 1019.98 -2.39985 -4.48647 0
M  V30 10747 H 1019.38 0.569358 -5.62828 0
M  V30 10748 H 1017.93 0.272486 -6.5123 0
M  V30 10749 N 1021.37 1.14642 -1.08144 0
M  V30 10750 C 1022.59 1.90025 -0.830972 0
M  V30 10751 C 1023.02 1.77904 0.610879 0
M  V30 10752 O 1022.38 1.11735 1.42776 0
M  V30 10753 C 1022.42 3.38085 -1.25422 0
M  V30 10754 O 1021.53 4.10412 -0.404486 0
M  V30 10755 H 1020.87 0.591327 -0.302041 0
M  V30 10756 H 1023.4 1.4513 -1.44216 0
M  V30 10757 H 1023.41 3.88894 -1.23391 0
M  V30 10758 H 1022.08 3.46226 -2.30435 0
M  V30 10759 H 1020.66 3.69693 -0.487987 0
M  V30 10760 N 1022.85 0.866709 1.31628 0
M  V30 10761 C 1024.09 0.476026 1.96825 0
M  V30 10762 C 1024.42 -0.970994 1.68529 0
M  V30 10763 O 1023.68 -1.69823 0.97255 0
M  V30 10764 C 1023.97 0.676018 3.50948 0
M  V30 10765 C 1023.64 2.09533 3.99258 0
M  V30 10766 C 1022.3 2.48349 4.1216 0
M  V30 10767 C 1024.65 3.02112 4.24709 0
M  V30 10768 C 1021.98 3.78991 4.47864 0
M  V30 10769 C 1024.33 4.32266 4.61875 0
M  V30 10770 C 1023 4.71 4.72985 0
M  V30 10771 H 1022.27 0.17419 0.720235 0
M  V30 10772 H 1024.92 1.09907 1.5682 0
M  V30 10773 H 1023.22 -0.0301867 3.91788 0
M  V30 10774 H 1024.92 0.353604 3.99438 0
M  V30 10775 H 1021.51 1.78396 3.89709 0
M  V30 10776 H 1025.69 2.73351 4.14238 0
M  V30 10777 H 1020.95 4.08769 4.54663 0
M  V30 10778 H 1025.12 5.04055 4.80522 0
M  V30 10779 H 1022.75 5.72273 5.00407 0
M  V30 10780 N 1024.32 -1.44642 0.625825 0
M  V30 10781 C 1025.6 -1.9551 0.0593587 0
M  V30 10782 C 1025.98 -1.56792 -1.41349 0
M  V30 10783 O 1025.33 -0.839373 -2.12525 0
M  V30 10784 C 1025.54 -3.47902 0.276647 0
M  V30 10785 C 1026.89 -4.24271 0.167044 0
M  V30 10786 O 1027.91 -3.55594 0.207731 0
M  V30 10787 O 1026.77 -5.46458 0.0675 0
M  V30 10788 H 1023.86 -0.826612 -0.0253422 0
M  V30 10789 H 1026.41 -1.54718 0.697159 0
M  V30 10790 H 1025.18 -3.69115 1.29885 0
M  V30 10791 H 1024.8 -3.95628 -0.395547 0
M  V30 10792 N 1025.8 -0.366053 -1.5329 0
M  V30 10793 C 1026.71 0.488111 -2.29466 0
M  V30 10794 C 1027.73 1.09219 -1.35452 0
M  V30 10795 O 1028.9 1.10303 -1.68509 0
M  V30 10796 C 1025.97 1.61202 -3.06944 0
M  V30 10797 C 1025.03 1.03543 -4.16626 0
M  V30 10798 C 1024.26 2.10578 -4.904 0
M  V30 10799 O 1024.49 3.31697 -4.6404 0
M  V30 10800 O 1023.42 1.73609 -5.76319 0
M  V30 10801 H 1027.25 -0.131789 -3.03414 0
M  V30 10802 H 1024.83 -0.130421 -1.4883 0
M  V30 10803 H 1026.71 2.26546 -3.55324 0
M  V30 10804 H 1025.39 2.21732 -2.35832 0
M  V30 10805 H 1024.29 0.345892 -3.72498 0
M  V30 10806 H 1025.63 0.474687 -4.89906 0
M  V30 10807 N 1027.28 1.57312 -0.0952337 0
M  V30 10808 C 1028.53 1.93533 0.568131 0
M  V30 10809 C 1028.84 0.979121 1.6933 0
M  V30 10810 O 1030.05 1.23506 2.41782 0
M  V30 10811 C 1028.5 3.43875 1.06198 0
M  V30 10812 C 1028.11 4.47988 -0.0334397 0
M  V30 10813 C 1029.86 3.89057 1.69807 0
M  V30 10814 C 1027.76 5.89483 0.475774 0
M  V30 10815 H 1026.69 0.7224 0.215995 0
M  V30 10816 H 1029.34 1.82699 -0.171257 0
M  V30 10817 H 1027.73 3.49862 1.85506 0
M  V30 10818 H 1028.9 4.53644 -0.808934 0
M  V30 10819 H 1027.21 4.12415 -0.574725 0
M  V30 10820 H 1029.81 4.92171 2.08978 0
M  V30 10821 H 1030.15 3.27713 2.5673 0
M  V30 10822 H 1030.69 3.85772 0.970815 0
M  V30 10823 H 1027.43 6.54528 -0.356837 0
M  V30 10824 H 1026.95 5.87297 1.21827 0
M  V30 10825 H 1028.63 6.40066 0.944697 0
M  V30 10826 N 1028.76 -0.17846 1.56586 0
M  V30 10827 C 1029.99 -0.911996 1.85715 0
M  V30 10828 C 1030.4 -1.76138 0.679766 0
M  V30 10829 O 1029.76 -1.79088 -0.351266 0
M  V30 10830 C 1029.81 -1.79459 3.1381 0
M  V30 10831 O 1029.53 -0.979476 4.2701 0
M  V30 10832 C 1031.03 -2.6384 3.56235 0
M  V30 10833 H 1028.25 -0.265299 0.616326 0
M  V30 10834 H 1030.79 -0.180704 2.037 0
M  V30 10835 H 1028.95 -2.4793 2.97673 0
M  V30 10836 H 1029.36 -1.58244 5.00059 0
M  V30 10837 H 1030.84 -3.21396 4.48786 0
M  V30 10838 H 1031.31 -3.38363 2.80013 0
M  V30 10839 H 1031.92 -2.00712 3.7496 0
M  V30 10840 N 1030.24 -1.51135 -0.446768 0
M  V30 10841 C 1031.2 -1.71187 -1.52406 0
M  V30 10842 C 1032.2 -0.582037 -1.49897 0
M  V30 10843 O 1033.39 -0.849452 -1.52085 0
M  V30 10844 C 1030.52 -1.75962 -2.91976 0
M  V30 10845 H 1031.71 -2.67324 -1.35934 0
M  V30 10846 H 1029.27 -1.40982 -0.674813 0
M  V30 10847 H 1030 -0.816065 -3.13864 0
M  V30 10848 H 1029.79 -2.58065 -2.95203 0
M  V30 10849 H 1031.28 -1.93347 -3.70144 0
M  V30 10850 N 1031.71 0.701592 -1.41122 0
M  V30 10851 C 1032.65 1.8257 -1.36907 0
M  V30 10852 C 1033.62 1.6086 -0.237245 0
M  V30 10853 O 1034.81 1.83688 -0.423182 0
M  V30 10854 C 1031.94 3.19149 -1.13408 0
M  V30 10855 C 1030.98 3.59661 -2.29229 0
M  V30 10856 S 1031.81 3.65161 -3.91685 0
M  V30 10857 C 1032.97 5.04477 -3.70478 0
M  V30 10858 H 1033.2 1.85867 -2.32036 0
M  V30 10859 H 1030.74 0.869726 -1.27574 0
M  V30 10860 H 1032.69 3.97998 -1.00537 0
M  V30 10861 H 1031.36 3.13468 -0.199099 0
M  V30 10862 H 1030.55 4.58866 -2.08466 0
M  V30 10863 H 1030.15 2.88105 -2.38477 0
M  V30 10864 H 1032.44 5.91803 -3.29811 0
M  V30 10865 H 1033.39 5.3028 -4.69264 0
M  V30 10866 H 1033.79 4.75731 -3.03876 0
M  V30 10867 N 1033.19 1.2685 0.935242 0
M  V30 10868 C 1034.42 1.15538 1.71635 0
M  V30 10869 C 1034.83 -0.288698 1.8658 0
M  V30 10870 O 1034.19 -1.19721 1.37743 0
M  V30 10871 C 1034.24 1.8259 3.11999 0
M  V30 10872 O 1033.96 3.21355 2.97763 0
M  V30 10873 C 1035.46 1.77307 4.06297 0
M  V30 10874 H 1032.68 0.402055 0.537208 0
M  V30 10875 H 1035.23 1.67582 1.17203 0
M  V30 10876 H 1033.38 1.3447 3.63313 0
M  V30 10877 H 1033.8 3.54626 3.86446 0
M  V30 10878 H 1035.27 2.28851 5.02326 0
M  V30 10879 H 1035.75 0.740823 4.32907 0
M  V30 10880 H 1036.35 2.25007 3.60904 0
M  V30 10881 N 1034.67 -1.14067 1.0875 0
M  V30 10882 C 1035.92 -1.84819 0.817698 0
M  V30 10883 C 1036.24 -1.83545 -0.658488 0
M  V30 10884 O 1035.51 -1.28633 -1.47751 0
M  V30 10885 H 1034.09 -0.68433 0.299502 0
M  V30 10886 H 1036.75 -1.38208 1.37421 0
M  V30 10887 H 1035.85 -2.89541 1.16501 0
M  V30 10888 N 1036.15 -0.873678 -1.31166 0
M  V30 10889 C 1037.43 -0.40698 -1.91319 0
M  V30 10890 C 1037.81 1.1113 -1.79481 0
M  V30 10891 O 1037.15 1.94155 -1.20483 0
M  V30 10892 C 1037.36 -0.892484 -3.37396 0
M  V30 10893 C 1038.71 -0.920795 -4.14496 0
M  V30 10894 O 1039.74 -0.838386 -3.46193 0
M  V30 10895 O 1038.59 -1.04069 -5.365 0
M  V30 10896 H 1035.69 -0.122439 -0.817886 0
M  V30 10897 H 1038.23 -0.961835 -1.3981 0
M  V30 10898 H 1037.01 -1.93613 -3.40044 0
M  V30 10899 H 1036.63 -0.31615 -3.96341 0
M  V30 10900 N 1037.63 1.44308 -0.633487 0
M  V30 10901 C 1038.87 2.01624 -0.138643 0
M  V30 10902 C 1039.2 1.50101 1.24477 0
M  V30 10903 O 1038.47 0.705575 1.82752 0
M  V30 10904 H 1037.05 0.745439 -0.0482636 0
M  V30 10905 H 1039.71 1.76777 -0.820719 0
M  V30 10906 H 1038.8 3.11913 -0.108136 0
M  V30 10907 N 1039.1 0.374177 1.53094 0
M  V30 10908 C 1040.35 -0.213131 2.01677 0
M  V30 10909 C 1040.68 -1.47715 1.26071 0
M  V30 10910 O 1039.96 -1.91199 0.356834 0
M  V30 10911 C 1040.24 -0.496392 3.56662 0
M  V30 10912 C 1040.09 0.781859 4.42953 0
M  V30 10913 C 1041.41 -1.29339 4.20666 0
M  V30 10914 H 1038.53 -0.0759885 0.733072 0
M  V30 10915 H 1041.17 0.500765 1.83282 0
M  V30 10916 H 1039.32 -1.10455 3.72467 0
M  V30 10917 H 1041 1.41914 4.38928 0
M  V30 10918 H 1039.24 1.40041 4.10574 0
M  V30 10919 H 1039.91 0.538508 5.49367 0
M  V30 10920 H 1042.39 -0.778848 4.08746 0
M  V30 10921 H 1041.26 -1.46033 5.29118 0
M  V30 10922 H 1041.52 -2.30435 3.77296 0
M  V30 10923 N 1040.58 -1.57259 0.103575 0
M  V30 10924 C 1041.53 -2.15727 -0.869739 0
M  V30 10925 C 1042.52 -1.10236 -1.28625 0
M  V30 10926 O 1043.73 -1.28567 -1.25979 0
M  V30 10927 H 1040.11 -0.690204 -0.298535 0
M  V30 10928 H 1042.08 -2.96317 -0.351984 0
M  V30 10929 C 1040.83 -2.75905 -2.11593 0
M  V30 10930 H 1040.15 -3.56768 -1.80434 0
M  V30 10931 H 1041.59 -3.20373 -2.77736 0
M  V30 10932 C 1040.05 -1.72218 -2.89556 0
M  V30 10933 O 1040.58 -1.16623 -3.84398 0
M  V30 10934 N 1038.78 -1.42514 -2.53255 0
M  V30 10935 H 1038.33 -1.87914 -1.76198 0
M  V30 10936 H 1038.29 -0.733782 -3.05717 0
M  V30 10937 N 1042.06 0.170153 -1.56679 0
M  V30 10938 C 1043.34 0.913938 -1.72935 0
M  V30 10939 C 1043.72 2.00342 -0.665293 0
M  V30 10940 O 1043.07 2.26252 0.319715 0
M  V30 10941 C 1043.28 1.47761 -3.16177 0
M  V30 10942 C 1044.62 1.95007 -3.7717 0
M  V30 10943 O 1045.65 1.57552 -3.19462 0
M  V30 10944 O 1044.51 2.64007 -4.78501 0
M  V30 10945 H 1041.6 0.43027 -0.706256 0
M  V30 10946 H 1044.15 0.157891 -1.68964 0
M  V30 10947 H 1042.92 0.69352 -3.85105 0
M  V30 10948 H 1042.54 2.2978 -3.24479 0
M  V30 10949 N 1043.54 1.5137 0.438746 0
M  V30 10950 C 1044.5 1.71993 1.51496 0
M  V30 10951 C 1045.5 0.589978 1.49586 0
M  V30 10952 O 1046.69 0.857505 1.51633 0
M  V30 10953 C 1043.82 1.77508 2.91039 0
M  V30 10954 H 1045.02 2.68041 1.34514 0
M  V30 10955 H 1042.57 1.41338 0.667326 0
M  V30 10956 H 1043.3 0.832698 3.13427 0
M  V30 10957 H 1043.09 2.59627 2.9383 0
M  V30 10958 H 1044.58 1.95308 3.69113 0
M  V30 10959 N 1045.02 -0.694098 1.41492 0
M  V30 10960 C 1046.43 -1.27407 1.36471 0
M  V30 10961 C 1046.78 -1.9614 0.0485209 0
M  V30 10962 O 1045.9 -1.98871 -0.853188 0
M  V30 10963 C 1046.5 -2.31698 2.47188 0
M  V30 10964 C 1045.06 -2.85268 2.45559 0
M  V30 10965 C 1044.2 -1.59325 2.2696 0
M  V30 10966 H 1047.16 -0.488756 1.50986 0
M  V30 10967 H 1047.18 -3.1302 2.1633 0
M  V30 10968 H 1046.69 -1.81644 3.42968 0
M  V30 10969 H 1044.79 -3.39494 1.5354 0
M  V30 10970 H 1044.9 -3.35598 3.41922 0
M  V30 10971 H 1043.27 -1.85188 1.74864 0
M  V30 10972 H 1044.05 -1.11265 3.24769 0
M  V30 10973 N 1046.49 -1.27344 -0.928501 0
M  V30 10974 C 1047.46 -1.10043 -2.01055 0
M  V30 10975 C 1048.46 -0.0446793 -1.60738 0
M  V30 10976 O 1049.65 -0.289202 -1.71783 0
M  V30 10977 C 1046.78 -0.676559 -3.34119 0
M  V30 10978 H 1047.97 -2.06126 -2.17835 0
M  V30 10979 H 1045.53 -1.10121 -1.10919 0
M  V30 10980 H 1046.26 0.285697 -3.23039 0
M  V30 10981 H 1046.05 -1.43903 -3.64739 0
M  V30 10982 H 1047.54 -0.577725 -4.13584 0
M  V30 10983 N 1047.97 1.13488 -1.09353 0
M  V30 10984 C 1048.9 2.20988 -0.75409 0
M  V30 10985 C 1049.88 1.67977 0.267901 0
M  V30 10986 O 1051.07 1.93722 0.136128 0
M  V30 10987 C 1048.2 3.46869 -0.173042 0
M  V30 10988 C 1047.15 4.12965 -1.12446 0
M  V30 10989 C 1046.48 5.33163 -0.405157 0
M  V30 10990 C 1047.78 4.60388 -2.46658 0
M  V30 10991 H 1049.47 2.49639 -1.6529 0
M  V30 10992 H 1047.02 1.19987 -0.796182 0
M  V30 10993 H 1048.97 4.21331 0.0764988 0
M  V30 10994 H 1047.7 3.17611 0.760956 0
M  V30 10995 H 1046.35 3.40469 -1.35927 0
M  V30 10996 H 1046 5.00169 0.532955 0
M  V30 10997 H 1045.7 5.78332 -1.03952 0
M  V30 10998 H 1047.23 6.1038 -0.163899 0
M  V30 10999 H 1048.64 5.26276 -2.27389 0
M  V30 11000 H 1047.04 5.16294 -3.05876 0
M  V30 11001 H 1048.11 3.74949 -3.07476 0
M  V30 11002 N 1049.45 0.880621 1.30701 0
M  V30 11003 C 1050.4 0.342397 2.28246 0
M  V30 11004 C 1051.37 -0.565023 1.56194 0
M  V30 11005 O 1052.55 -0.494377 1.84284 0
M  V30 11006 C 1049.69 -0.440859 3.42272 0
M  V30 11007 C 1048.81 0.495284 4.29151 0
M  V30 11008 C 1047.94 -0.303141 5.30334 0
M  V30 11009 C 1046.98 0.628751 6.08862 0
M  V30 11010 N 1046.12 -0.13408 7.01972 0
M  V30 11011 H 1050.96 1.17938 2.73669 0
M  V30 11012 H 1048.49 0.59296 1.34619 0
M  V30 11013 H 1050.45 -0.910854 4.07135 0
M  V30 11014 H 1049.08 -1.24245 2.97931 0
M  V30 11015 H 1048.13 1.08376 3.64635 0
M  V30 11016 H 1049.45 1.2094 4.83916 0
M  V30 11017 H 1048.6 -0.835181 6.00924 0
M  V30 11018 H 1047.34 -1.05049 4.76252 0
M  V30 11019 H 1046.34 1.17246 5.37153 0
M  V30 11020 H 1047.57 1.37512 6.65032 0
M  V30 11021 H 1045.52 -0.864046 6.50285 0
M  V30 11022 H 1045.43 0.520486 7.54206 0
M  V30 11023 H 1046.7 -0.647005 7.7681 0
M  V30 11024 N 1050.93 -1.4397 0.641131 0
M  V30 11025 C 1051.88 -2.30728 -0.0577905 0
M  V30 11026 C 1052.85 -1.44059 -0.826819 0
M  V30 11027 O 1054.03 -1.72947 -0.805853 0
M  V30 11028 C 1051.17 -3.29478 -1.02657 0
M  V30 11029 C 1050.28 -4.31247 -0.254913 0
M  V30 11030 C 1049.42 -5.17085 -1.2164 0
M  V30 11031 C 1048.46 -6.10556 -0.434481 0
M  V30 11032 N 1047.6 -6.89059 -1.34694 0
M  V30 11033 H 1052.44 -2.8995 0.687953 0
M  V30 11034 H 1049.97 -1.4285 0.351029 0
M  V30 11035 H 1051.93 -3.85228 -1.60173 0
M  V30 11036 H 1050.56 -2.71932 -1.73933 0
M  V30 11037 H 1049.61 -3.77889 0.436338 0
M  V30 11038 H 1050.92 -4.97545 0.353642 0
M  V30 11039 H 1050.08 -5.77402 -1.86258 0
M  V30 11040 H 1048.82 -4.50885 -1.85888 0
M  V30 11041 H 1047.82 -5.49339 0.225125 0
M  V30 11042 H 1049.05 -6.78795 0.203415 0
M  V30 11043 H 1046.99 -6.25518 -1.97644 0
M  V30 11044 H 1046.91 -7.51833 -0.792657 0
M  V30 11045 H 1048.18 -7.5389 -1.98165 0
M  V30 11046 N 1052.41 -0.382291 -1.52893 0
M  V30 11047 C 1053.37 0.44408 -2.24857 0
M  V30 11048 C 1054.37 0.996004 -1.26239 0
M  V30 11049 O 1055.56 0.879114 -1.5039 0
M  V30 11050 C 1052.69 1.62234 -2.99822 0
M  V30 11051 H 1053.89 -0.185862 -2.99324 0
M  V30 11052 H 1051.44 -0.134275 -1.55722 0
M  V30 11053 H 1052.17 2.28991 -2.29638 0
M  V30 11054 H 1051.96 1.23336 -3.72197 0
M  V30 11055 H 1053.45 2.20756 -3.54481 0
M  V30 11056 N 1053.89 1.57202 -0.111913 0
M  V30 11057 C 1054.8 2.18475 0.854753 0
M  V30 11058 C 1055.81 1.15888 1.29792 0
M  V30 11059 O 1056.99 1.48329 1.36237 0
M  V30 11060 C 1054.05 2.76645 2.0897 0
M  V30 11061 C 1053.11 3.94244 1.69913 0
M  V30 11062 C 1052.35 4.49631 2.8752 0
M  V30 11063 O 1052.57 4.03926 4.02741 0
M  V30 11064 O 1051.5 5.40417 2.65015 0
M  V30 11065 H 1055.33 3.01519 0.363352 0
M  V30 11066 H 1052.91 1.4897 0.113329 0
M  V30 11067 H 1054.8 3.13755 2.81311 0
M  V30 11068 H 1053.47 1.96637 2.5713 0
M  V30 11069 H 1052.38 3.61915 0.947013 0
M  V30 11070 H 1053.71 4.75666 1.26501 0
M  V30 11071 N 1055.36 -0.161842 1.56767 0
M  V30 11072 C 1056.61 -0.875278 1.81719 0
M  V30 11073 C 1056.93 -1.82998 0.690739 0
M  V30 11074 O 1058.13 -2.58648 0.82545 0
M  V30 11075 C 1056.59 -1.60703 3.22029 0
M  V30 11076 C 1056.2 -0.695486 4.42569 0
M  V30 11077 C 1057.94 -2.30813 3.56266 0
M  V30 11078 C 1055.85 -1.42801 5.73901 0
M  V30 11079 H 1054.78 -0.330591 0.677662 0
M  V30 11080 H 1057.43 -0.128112 1.83052 0
M  V30 11081 H 1055.81 -2.39929 3.1504 0
M  V30 11082 H 1056.98 0.0604882 4.6076 0
M  V30 11083 H 1055.3 -0.10356 4.16271 0
M  V30 11084 H 1057.9 -2.86229 4.51638 0
M  V30 11085 H 1058.24 -3.06603 2.81604 0
M  V30 11086 H 1058.77 -1.5852 3.64851 0
M  V30 11087 H 1055.51 -0.712253 6.51619 0
M  V30 11088 H 1055.03 -2.15707 5.5967 0
M  V30 11089 H 1056.71 -1.97295 6.16185 0
M  V30 11090 N 1056.84 -1.516 -0.430713 0
M  V30 11091 C 1058.09 -1.64271 -1.17726 0
M  V30 11092 C 1058.41 -0.364406 -1.91565 0
M  V30 11093 O 1057.68 0.619991 -1.8583 0
M  V30 11094 H 1056.26 -0.605432 -0.437562 0
M  V30 11095 H 1058.92 -1.88557 -0.493166 0
M  V30 11096 H 1058.02 -2.47355 -1.90321 0
M  V30 11097 N 1058.32 0.686584 -1.41858 0
M  V30 11098 C 1059.57 1.44235 -1.40994 0
M  V30 11099 C 1059.88 1.95583 -0.0254979 0
M  V30 11100 O 1061.09 2.71294 0.10576 0
M  V30 11101 C 1059.54 2.6086 -2.47952 0
M  V30 11102 C 1059.15 2.16259 -3.92347 0
M  V30 11103 C 1060.9 3.38441 -2.56237 0
M  V30 11104 C 1058.8 3.29896 -4.90838 0
M  V30 11105 H 1057.73 0.54181 -0.524364 0
M  V30 11106 H 1060.38 0.744486 -1.67719 0
M  V30 11107 H 1058.77 3.32957 -2.14373 0
M  V30 11108 H 1059.94 1.51392 -4.35221 0
M  V30 11109 H 1058.25 1.51648 -3.87804 0
M  V30 11110 H 1060.85 4.23052 -3.27003 0
M  V30 11111 H 1061.19 3.84238 -1.6021 0
M  V30 11112 H 1061.73 2.73406 -2.88953 0
M  V30 11113 H 1058.47 2.89104 -5.88302 0
M  V30 11114 H 1057.99 3.93584 -4.52606 0
M  V30 11115 H 1059.67 3.95541 -5.12012 0
M  V30 11116 N 1059.8 1.27835 0.921735 0
M  V30 11117 C 1060.76 1.11108 2.00469 0
M  V30 11118 C 1061.76 0.053203 1.60712 0
M  V30 11119 O 1062.95 0.298308 1.71627 0
M  V30 11120 C 1060.08 0.694269 3.33755 0
M  V30 11121 H 1061.28 2.07279 2.16738 0
M  V30 11122 H 1058.83 1.10708 1.10333 0
M  V30 11123 H 1059.56 -0.268561 3.23186 0
M  V30 11124 H 1059.35 1.45836 3.6397 0
M  V30 11125 H 1060.84 0.59965 4.13272 0
M  V30 11126 N 1061.28 -1.12907 1.09954 0
M  V30 11127 C 1062.21 -2.17589 0.687769 0
M  V30 11128 C 1063.19 -1.59648 -0.308444 0
M  V30 11129 O 1064.37 -1.87343 -0.208527 0
M  V30 11130 C 1061.5 -3.38697 0.0140519 0
M  V30 11131 C 1060.54 -4.15254 0.972942 0
M  V30 11132 S 1061.38 -4.74205 2.48777 0
M  V30 11133 C 1062.53 -5.98653 1.82662 0
M  V30 11134 H 1062.77 -2.52181 1.57455 0
M  V30 11135 H 1060.3 -1.24289 0.916051 0
M  V30 11136 H 1062.26 -4.08844 -0.368343 0
M  V30 11137 H 1060.92 -3.02396 -0.849456 0
M  V30 11138 H 1060.11 -5.01999 0.448715 0
M  V30 11139 H 1059.71 -3.5079 1.297 0
M  V30 11140 H 1062 -6.67602 1.15388 0
M  V30 11141 H 1062.95 -6.55693 2.67343 0
M  V30 11142 H 1063.36 -5.49486 1.29325 0
M  V30 11143 N 1062.75 -0.88754 -1.30232 0
M  V30 11144 C 1064 -0.506277 -1.95656 0
M  V30 11145 C 1064.32 0.948191 -1.70395 0
M  V30 11146 O 1063.59 1.66701 -1.02895 0
M  V30 11147 H 1062.17 -0.184235 -0.723924 0
M  V30 11148 H 1064.83 -1.13118 -1.58715 0
M  V30 11149 H 1063.93 -0.678673 -3.04632 0
M  V30 11150 N 1064.23 1.43628 -0.648757 0
M  V30 11151 C 1065.46 2.06732 -0.166284 0
M  V30 11152 C 1065.88 1.48281 1.15734 0
M  V30 11153 O 1065.24 0.591018 1.71396 0
M  V30 11154 C 1065.29 3.60502 -0.0838732 0
M  V30 11155 O 1064.39 4.01186 0.955185 0
M  V30 11156 H 1063.73 0.657479 -0.0928285 0
M  V30 11157 H 1066.26 1.84208 -0.890421 0
M  V30 11158 H 1066.27 4.07875 0.100923 0
M  V30 11159 H 1064.95 4.02424 -1.05014 0
M  V30 11160 H 1063.53 3.65412 0.743537 0
M  V30 11161 N 1065.71 0.390394 1.52688 0
M  V30 11162 C 1066.96 -0.191067 2.01195 0
M  V30 11163 C 1067.28 -1.47229 1.27862 0
M  V30 11164 O 1066.55 -1.91793 0.399007 0
M  V30 11165 H 1065.13 -0.073596 0.743366 0
M  V30 11166 H 1067.79 0.522334 1.8777 0
M  V30 11167 H 1066.89 -0.40051 3.0952 0
M  V30 11168 N 1067.19 -1.57141 0.120249 0
M  V30 11169 C 1068.42 -1.99589 -0.545136 0
M  V30 11170 C 1068.83 -0.999951 -1.60145 0
M  V30 11171 O 1068.19 0.00698897 -1.82499 0
M  V30 11172 C 1068.24 -3.42038 -1.17014 0
M  V30 11173 O 1067.96 -4.37822 -0.156044 0
M  V30 11174 C 1069.46 -3.99625 -1.91872 0
M  V30 11175 H 1066.68 -0.655318 -0.144222 0
M  V30 11176 H 1069.23 -2.0345 0.206955 0
M  V30 11177 H 1067.38 -3.39113 -1.873 0
M  V30 11178 H 1067.79 -5.20937 -0.610317 0
M  V30 11179 H 1069.27 -5.01374 -2.30928 0
M  V30 11180 H 1069.75 -3.38836 -2.7944 0
M  V30 11181 H 1070.35 -4.061 -1.26345 0
M  V30 11182 N 1068.67 0.153526 -1.5685 0
M  V30 11183 C 1069.63 1.17362 -1.96873 0
M  V30 11184 C 1070.63 1.36219 -0.854456 0
M  V30 11185 O 1071.82 1.33322 -1.1212 0
M  V30 11186 C 1068.95 2.53523 -2.27901 0
M  V30 11187 H 1070.14 0.830432 -2.88173 0
M  V30 11188 H 1067.7 0.396633 -1.51184 0
M  V30 11189 H 1068.43 2.92824 -1.39371 0
M  V30 11190 H 1068.22 2.41198 -3.09137 0
M  V30 11191 H 1069.71 3.27006 -2.59725 0
M  V30 11192 N 1070.14 1.51827 0.422667 0
M  V30 11193 C 1071.39 1.65464 1.17258 0
M  V30 11194 C 1071.72 0.376834 1.90509 0
M  V30 11195 O 1071 -0.624219 1.84211 0
M  V30 11196 C 1071.28 2.86776 2.17788 0
M  V30 11197 C 1071.13 4.24571 1.48523 0
M  V30 11198 C 1072.45 3.03603 3.18611 0
M  V30 11199 H 1069.57 0.602169 0.424925 0
M  V30 11200 H 1072.21 1.84349 0.45996 0
M  V30 11201 H 1070.36 2.70806 2.78561 0
M  V30 11202 H 1072.04 4.5224 0.909739 0
M  V30 11203 H 1070.28 4.26595 0.787354 0
M  V30 11204 H 1070.95 5.05475 2.2181 0
M  V30 11205 H 1073.43 3.18381 2.67904 0
M  V30 11206 H 1072.3 3.90022 3.8623 0
M  V30 11207 H 1072.56 2.16318 3.85563 0
M  V30 11208 N 1071.62 -0.679052 1.4222 0
M  V30 11209 C 1072.59 -1.77448 1.45069 0
M  V30 11210 C 1073.59 -1.57189 0.338882 0
M  V30 11211 O 1074.78 -1.63559 0.599519 0
M  V30 11212 C 1071.91 -3.1603 1.27819 0
M  V30 11213 H 1073.1 -1.7631 2.426 0
M  V30 11214 H 1070.65 -0.888277 1.28605 0
M  V30 11215 H 1071.39 -3.22796 0.311946 0
M  V30 11216 H 1071.17 -3.32138 2.08391 0
M  V30 11217 H 1072.66 -3.9596 1.32686 0
M  V30 11218 N 1073.1 -1.28322 -0.914942 0
M  V30 11219 C 1074.05 -1.12146 -2.01722 0
M  V30 11220 C 1075.02 -0.0189279 -1.66089 0
M  V30 11221 O 1076.2 -0.183638 -1.89914 0
M  V30 11222 C 1073.34 -0.78808 -3.35981 0
M  V30 11223 C 1072.46 -1.96954 -3.84491 0
M  V30 11224 C 1071.59 -1.57688 -5.07255 0
M  V30 11225 C 1070.63 -2.72506 -5.48094 0
M  V30 11226 N 1069.77 -2.33741 -6.62049 0
M  V30 11227 H 1074.61 -2.06461 -2.1489 0
M  V30 11228 H 1072.14 -1.0276 -1.05256 0
M  V30 11229 H 1074.1 -0.575546 -4.13211 0
M  V30 11230 H 1072.73 0.118132 -3.22584 0
M  V30 11231 H 1071.78 -2.29423 -3.03429 0
M  V30 11232 H 1073.1 -2.8304 -4.10719 0
M  V30 11233 H 1072.25 -1.32634 -5.92025 0
M  V30 11234 H 1070.99 -0.687291 -4.82833 0
M  V30 11235 H 1069.99 -2.9826 -4.61867 0
M  V30 11236 H 1071.22 -3.62106 -5.74505 0
M  V30 11237 H 1069.16 -1.4725 -6.3926 0
M  V30 11238 H 1069.08 -3.13364 -6.87997 0
M  V30 11239 H 1070.35 -2.11968 -7.50127 0
M  V30 11240 N 1074.58 1.12322 -1.10551 0
M  V30 11241 C 1075.81 1.87679 -0.87087 0
M  V30 11242 C 1076.22 1.79711 0.578733 0
M  V30 11243 O 1075.58 1.17185 1.39907 0
M  V30 11244 C 1075.63 3.36846 -1.31213 0
M  V30 11245 O 1075.35 3.44626 -2.70489 0
M  V30 11246 C 1076.85 4.29138 -1.11156 0
M  V30 11247 H 1074.07 0.593788 -0.3125 0
M  V30 11248 H 1076.62 1.42116 -1.47048 0
M  V30 11249 H 1074.77 3.79948 -0.756169 0
M  V30 11250 H 1075.18 4.37441 -2.89389 0
M  V30 11251 H 1076.66 5.32082 -1.46944 0
M  V30 11252 H 1077.14 4.39171 -0.0502963 0
M  V30 11253 H 1077.74 3.91818 -1.65405 0
M  V30 11254 N 1076.06 0.894434 1.2976 0
M  V30 11255 C 1077.02 0.373094 2.26143 0
M  V30 11256 C 1078.02 -0.489756 1.5316 0
M  V30 11257 O 1079.21 -0.29556 1.71674 0
M  V30 11258 C 1076.34 -0.467234 3.37683 0
M  V30 11259 H 1077.53 1.22427 2.73773 0
M  V30 11260 H 1075.09 0.672112 1.41111 0
M  V30 11261 H 1075.82 -1.33861 2.95384 0
M  V30 11262 H 1075.61 0.150954 3.91809 0
M  V30 11263 H 1077.1 -0.823469 4.094 0
M  V30 11264 N 1077.53 -1.43282 0.656365 0
M  V30 11265 C 1078.76 -2.06641 0.177245 0
M  V30 11266 C 1079.18 -1.48893 -1.14946 0
M  V30 11267 O 1078.54 -0.600099 -1.7108 0
M  V30 11268 C 1078.59 -3.60453 0.10299 0
M  V30 11269 O 1077.69 -4.01687 -0.933895 0
M  V30 11270 H 1077.04 -0.656978 0.096314 0
M  V30 11271 H 1079.57 -1.83733 0.900178 0
M  V30 11272 H 1079.58 -4.07923 -0.079291 0
M  V30 11273 H 1078.25 -4.01861 1.07147 0
M  V30 11274 H 1076.83 -3.65801 -0.724148 0
M  V30 11275 N 1079.01 -0.398486 -1.52479 0
M  V30 11276 C 1079.92 0.439328 -2.3045 0
M  V30 11277 C 1080.94 1.06322 -1.37738 0
M  V30 11278 O 1082.12 1.06704 -1.7081 0
M  V30 11279 C 1079.18 1.54655 -3.10294 0
M  V30 11280 C 1078.24 0.946824 -4.18729 0
M  V30 11281 C 1077.47 2.00129 -4.94757 0
M  V30 11282 O 1077.7 3.2178 -4.70971 0
M  V30 11283 O 1076.63 1.61345 -5.79872 0
M  V30 11284 H 1080.46 -0.196118 -3.03066 0
M  V30 11285 H 1078.04 -0.161961 -1.4852 0
M  V30 11286 H 1079.92 2.18958 -3.60049 0
M  V30 11287 H 1078.6 2.1668 -2.40482 0
M  V30 11288 H 1077.51 0.266802 -3.73147 0
M  V30 11289 H 1078.84 0.370664 -4.90802 0
M  V30 11290 N 1080.49 1.57075 -0.12858 0
M  V30 11291 C 1081.42 2.11553 0.855593 0
M  V30 11292 C 1082.4 1.03435 1.25459 0
M  V30 11293 O 1083.59 1.3115 1.35395 0
M  V30 11294 C 1080.71 2.62012 2.14633 0
M  V30 11295 C 1079.76 3.82105 1.89467 0
M  V30 11296 S 1080.59 5.24033 1.10228 0
M  V30 11297 C 1081.75 5.77867 2.4046 0
M  V30 11298 H 1081.98 2.94701 0.392248 0
M  V30 11299 H 1079.51 1.54164 0.0853746 0
M  V30 11300 H 1081.47 2.91737 2.8879 0
M  V30 11301 H 1080.13 1.79029 2.58084 0
M  V30 11302 H 1079.33 4.15592 2.8513 0
M  V30 11303 H 1078.93 3.53047 1.23427 0
M  V30 11304 H 1081.22 5.88175 3.36238 0
M  V30 11305 H 1082.16 6.75775 2.11504 0
M  V30 11306 H 1082.57 5.05991 2.50266 0
M  V30 11307 N 1081.97 -0.145205 1.5693 0
M  V30 11308 C 1083.22 -0.858786 1.83719 0
M  V30 11309 C 1083.55 -1.80738 0.710452 0
M  V30 11310 O 1082.82 -1.92389 -0.285791 0
M  V30 11311 C 1083.11 -1.6317 3.2101 0
M  V30 11312 C 1082.96 -0.704472 4.44249 0
M  V30 11313 C 1084.28 -2.59377 3.55544 0
M  V30 11314 H 1081.4 -0.310757 0.66828 0
M  V30 11315 H 1084.04 -0.123918 1.89595 0
M  V30 11316 H 1082.19 -2.25816 3.16132 0
M  V30 11317 H 1083.86 -0.08887 4.61214 0
M  V30 11318 H 1082.1 -0.0141693 4.33798 0
M  V30 11319 H 1082.78 -1.28135 5.36922 0
M  V30 11320 H 1085.25 -2.06848 3.61044 0
M  V30 11321 H 1084.13 -3.10506 4.52634 0
M  V30 11322 H 1084.39 -3.40819 2.81594 0
M  V30 11323 N 1083.45 -1.52049 -0.414609 0
M  V30 11324 C 1084.38 -1.77956 -1.51175 0
M  V30 11325 C 1085.36 -0.630282 -1.57992 0
M  V30 11326 O 1086.54 -0.875324 -1.73354 0
M  V30 11327 C 1083.67 -1.92527 -2.89051 0
M  V30 11328 C 1082.63 -3.08096 -2.97087 0
M  V30 11329 C 1081.95 -3.07882 -4.37164 0
M  V30 11330 C 1083.25 -4.47656 -2.69075 0
M  V30 11331 H 1084.95 -2.69827 -1.29746 0
M  V30 11332 H 1082.49 -1.29839 -0.62273 0
M  V30 11333 H 1084.45 -2.09234 -3.65786 0
M  V30 11334 H 1083.17 -0.973235 -3.11762 0
M  V30 11335 H 1081.83 -2.91131 -2.22797 0
M  V30 11336 H 1081.48 -2.10411 -4.56877 0
M  V30 11337 H 1081.18 -3.85501 -4.43467 0
M  V30 11338 H 1082.7 -3.26712 -5.15841 0
M  V30 11339 H 1084.12 -4.64855 -3.35534 0
M  V30 11340 H 1082.51 -5.27151 -2.8676 0
M  V30 11341 H 1083.58 -4.56129 -1.64544 0
M  V30 11342 N 1084.93 0.6715 -1.42579 0
M  V30 11343 C 1085.89 1.76676 -1.46008 0
M  V30 11344 C 1086.89 1.57007 -0.347213 0
M  V30 11345 O 1088.08 1.63238 -0.608185 0
M  V30 11346 C 1085.21 3.15348 -1.29494 0
M  V30 11347 H 1086.4 1.75021 -2.43531 0
M  V30 11348 H 1083.96 0.881444 -1.29075 0
M  V30 11349 H 1084.69 3.22626 -0.32906 0
M  V30 11350 H 1084.48 3.31028 -2.10149 0
M  V30 11351 H 1085.97 3.95251 -1.34784 0
M  V30 11352 N 1086.4 1.28806 0.908124 0
M  V30 11353 C 1087.68 1.06981 1.63751 0
M  V30 11354 C 1088.06 -0.388936 2.07486 0
M  V30 11355 O 1087.41 -1.37611 1.82415 0
M  V30 11356 C 1087.62 2.04962 2.82474 0
M  V30 11357 C 1088.97 2.35418 3.5336 0
M  V30 11358 O 1089.99 2.03091 2.92631 0
M  V30 11359 O 1088.85 2.90617 4.62822 0
M  V30 11360 H 1085.94 0.409267 0.71863 0
M  V30 11361 H 1088.49 1.40146 0.956934 0
M  V30 11362 H 1087.26 3.03254 2.47291 0
M  V30 11363 H 1086.88 1.72476 3.58242 0
M  V30 11364 N 1087.88 -1.11734 1.11145 0
M  V30 11365 C 1089.16 -1.79795 0.770261 0
M  V30 11366 C 1089.54 -1.97624 -0.742158 0
M  V30 11367 O 1088.89 -1.55847 -1.67105 0
M  V30 11368 C 1089.1 -3.13684 1.52982 0
M  V30 11369 C 1090.44 -3.88771 1.70711 0
M  V30 11370 O 1091.47 -3.23363 1.49381 0
M  V30 11371 O 1090.33 -5.06134 2.06132 0
M  V30 11372 H 1087.42 -0.778617 0.27872 0
M  V30 11373 H 1089.97 -1.18504 1.2147 0
M  V30 11374 H 1088.74 -2.96043 2.55879 0
M  V30 11375 H 1088.36 -3.82687 1.07873 0
M  V30 11376 N 1089.36 -0.901303 -1.29284 0
M  V30 11377 C 1090.31 -0.370142 -2.29636 0
M  V30 11378 C 1091.3 0.53157 -1.60844 0
M  V30 11379 O 1092.51 0.414194 -1.7517 0
M  V30 11380 H 1088.88 -0.101072 -0.745177 0
M  V30 11381 H 1090.85 -1.22985 -2.71877 0
M  V30 11382 C 1089.6 0.385806 -3.45553 0
M  V30 11383 H 1088.93 -0.298818 -3.98682 0
M  V30 11384 H 1090.37 0.722299 -4.17802 0
M  V30 11385 C 1088.82 1.58907 -2.97069 0
M  V30 11386 O 1089.35 2.68835 -2.98481 0
M  V30 11387 N 1087.56 1.43178 -2.5288 0
M  V30 11388 H 1087.11 0.537467 -2.51931 0
M  V30 11389 H 1087.07 2.23819 -2.208 0
M  V30 11390 N 1090.84 1.42931 -0.663954 0
M  V30 11391 C 1092.08 2.01683 -0.181738 0
M  V30 11392 C 1092.41 1.52437 1.20802 0
M  V30 11393 O 1091.67 0.71254 1.82267 0
M  V30 11394 C 1091.97 3.57072 -0.153163 0
M  V30 11395 C 1091.63 4.25706 -1.48612 0
M  V30 11396 C 1090.29 4.4417 -1.85111 0
M  V30 11397 C 1092.65 4.6448 -2.36448 0
M  V30 11398 C 1089.97 4.98677 -3.09092 0
M  V30 11399 C 1092.33 5.20362 -3.5973 0
M  V30 11400 C 1090.99 5.37041 -3.96412 0
M  V30 11401 H 1090.26 0.73801 -0.0665026 0
M  V30 11402 H 1092.91 1.71264 -0.856791 0
M  V30 11403 H 1091.21 3.87095 0.605372 0
M  V30 11404 H 1092.91 4.00299 0.236981 0
M  V30 11405 H 1089.5 4.11686 -1.19215 0
M  V30 11406 H 1093.68 4.49898 -2.09537 0
M  V30 11407 H 1088.94 5.09776 -3.37547 0
M  V30 11408 H 1093.11 5.49352 -4.28001 0
M  V30 11409 H 1090.74 5.79042 -4.92559 0
M  V30 11410 N 1092.32 0.406567 1.52266 0
M  V30 11411 C 1093.54 -0.172101 2.06685 0
M  V30 11412 C 1093.97 -1.38306 1.27488 0
M  V30 11413 O 1093.32 -1.78726 0.304441 0
M  V30 11414 C 1093.37 -0.503463 3.57068 0
M  V30 11415 O 1092.48 -1.59485 3.80314 0
M  V30 11416 H 1091.82 -0.0153209 0.663823 0
M  V30 11417 H 1094.35 0.579025 1.96236 0
M  V30 11418 H 1094.36 -0.762833 4.00805 0
M  V30 11419 H 1093.03 0.381775 4.14144 0
M  V30 11420 H 1091.61 -1.32784 3.48458 0
M  V30 11421 N 1093.79 -1.57004 0.136909 0
M  V30 11422 C 1095.02 -2.00156 -0.523936 0
M  V30 11423 C 1095.44 -1.01688 -1.59075 0
M  V30 11424 O 1094.79 -0.0123678 -1.82496 0
M  V30 11425 C 1094.85 -3.4326 -1.13379 0
M  V30 11426 O 1094.57 -4.37963 -0.109598 0
M  V30 11427 C 1096.07 -4.01637 -1.87623 0
M  V30 11428 H 1093.29 -0.65681 -0.137263 0
M  V30 11429 H 1095.83 -2.03219 0.228522 0
M  V30 11430 H 1093.99 -3.4108 -1.83693 0
M  V30 11431 H 1094.4 -5.21555 -0.55503 0
M  V30 11432 H 1095.87 -5.03795 -2.25597 0
M  V30 11433 H 1096.35 -3.41781 -2.75831 0
M  V30 11434 H 1096.96 -4.07417 -1.22031 0
M  V30 11435 N 1095.27 0.136881 -1.57004 0
M  V30 11436 C 1096.52 0.846257 -1.83088 0
M  V30 11437 C 1096.83 1.81876 -0.719765 0
M  V30 11438 O 1098.04 2.57302 -0.866494 0
M  V30 11439 C 1096.5 1.55559 -3.24545 0
M  V30 11440 C 1096.1 0.624989 -4.43619 0
M  V30 11441 C 1097.85 2.25115 -3.59893 0
M  V30 11442 C 1095.76 1.33653 -5.761 0
M  V30 11443 H 1094.69 0.319768 -0.682836 0
M  V30 11444 H 1097.34 0.0989741 -1.83233 0
M  V30 11445 H 1095.72 2.34887 -3.18817 0
M  V30 11446 H 1096.89 -0.133783 -4.60606 0
M  V30 11447 H 1095.21 0.0373216 -4.16383 0
M  V30 11448 H 1097.8 2.79008 -4.56134 0
M  V30 11449 H 1098.15 3.02084 -2.86446 0
M  V30 11450 H 1098.68 1.52696 -3.67327 0
M  V30 11451 H 1095.42 0.608495 -6.5267 0
M  V30 11452 H 1094.94 2.06776 -5.63031 0
M  V30 11453 H 1096.62 1.87467 -6.19246 0
M  V30 11454 N 1096.75 1.52266 0.40654 0
M  V30 11455 C 1098 1.66699 1.15496 0
M  V30 11456 C 1098.33 0.397019 1.90098 0
M  V30 11457 O 1097.6 -0.604646 1.84863 0
M  V30 11458 C 1097.89 2.8907 2.14734 0
M  V30 11459 C 1097.74 4.26123 1.44012 0
M  V30 11460 C 1099.06 3.06966 3.15373 0
M  V30 11461 H 1096.18 0.606642 0.418515 0
M  V30 11462 H 1098.82 1.84826 0.440381 0
M  V30 11463 H 1096.97 2.73745 2.75673 0
M  V30 11464 H 1098.64 4.5318 0.861722 0
M  V30 11465 H 1096.89 4.27406 0.742064 0
M  V30 11466 H 1097.56 5.07799 2.16436 0
M  V30 11467 H 1100.03 3.21205 2.64512 0
M  V30 11468 H 1098.91 3.94097 3.82072 0
M  V30 11469 H 1099.17 2.20395 3.83247 0
M  V30 11470 N 1098.23 -0.663929 1.42933 0
M  V30 11471 C 1099.19 -1.75899 1.46943 0
M  V30 11472 C 1100.19 -1.5682 0.355535 0
M  V30 11473 O 1101.38 -1.62914 0.616833 0
M  V30 11474 C 1098.51 -3.14657 1.31164 0
M  V30 11475 H 1099.71 -1.73727 2.44456 0
M  V30 11476 H 1097.26 -0.874587 1.2954 0
M  V30 11477 H 1097.99 -3.22447 0.346165 0
M  V30 11478 H 1097.78 -3.29909 2.11902 0
M  V30 11479 H 1099.27 -3.9453 1.36878 0
M  V30 11480 N 1099.71 -1.29285 -0.901281 0
M  V30 11481 C 1100.67 -1.14283 -1.98676 0
M  V30 11482 C 1101.67 -0.0787641 -1.60607 0
M  V30 11483 O 1102.86 -0.325574 -1.71131 0
M  V30 11484 C 1099.99 -0.747279 -3.32609 0
M  V30 11485 H 1101.18 -2.10701 -2.13413 0
M  V30 11486 H 1098.74 -1.12449 -1.08558 0
M  V30 11487 H 1099.47 0.217111 -3.23572 0
M  V30 11488 H 1099.26 -1.51608 -3.61604 0
M  V30 11489 H 1100.75 -0.665322 -4.12266 0
M  V30 11490 N 1101.18 1.11143 -1.11736 0
M  V30 11491 C 1102.43 1.83219 -0.869413 0
M  V30 11492 C 1102.76 1.84588 0.603402 0
M  V30 11493 O 1102.04 1.30119 1.44566 0
M  V30 11494 C 1102.32 3.30247 -1.43559 0
M  V30 11495 C 1102.17 3.37253 -2.97624 0
M  V30 11496 C 1103.49 4.26412 -1.08907 0
M  V30 11497 H 1100.61 0.665205 -0.317286 0
M  V30 11498 H 1103.25 1.30307 -1.38275 0
M  V30 11499 H 1101.4 3.75437 -0.998978 0
M  V30 11500 H 1103.08 3.00599 -3.49911 0
M  V30 11501 H 1101.32 2.77378 -3.33532 0
M  V30 11502 H 1101.99 4.40752 -3.32328 0
M  V30 11503 H 1104.47 3.89418 -1.46604 0
M  V30 11504 H 1103.34 5.27666 -1.51195 0
M  V30 11505 H 1103.6 4.421 -0.000259009 0
M  V30 11506 N 1102.66 0.908147 1.28804 0
M  V30 11507 C 1103.57 0.397167 2.31214 0
M  V30 11508 C 1104.59 -0.512352 1.66286 0
M  V30 11509 O 1105.76 -0.399893 1.9739 0
M  V30 11510 C 1102.83 -0.359522 3.44831 0
M  V30 11511 C 1101.89 0.582539 4.25329 0
M  V30 11512 C 1101.12 -0.138133 5.33521 0
M  V30 11513 O 1101.35 -1.36076 5.53931 0
M  V30 11514 O 1100.28 0.523682 5.99618 0
M  V30 11515 H 1104.11 1.247 2.76918 0
M  V30 11516 H 1101.69 0.672766 1.33395 0
M  V30 11517 H 1103.57 -0.787098 4.13984 0
M  V30 11518 H 1102.25 -1.18528 3.01219 0
M  V30 11519 H 1101.16 1.0594 3.58786 0
M  V30 11520 H 1102.49 1.37495 4.72605 0
M  V30 11521 N 1104.14 -1.42577 0.671525 0
M  V30 11522 C 1105.05 -2.34598 -0.00898225 0
M  V30 11523 C 1106.07 -1.54909 -0.792407 0
M  V30 11524 O 1107.24 -1.87491 -0.735477 0
M  V30 11525 C 1104.31 -3.33405 -0.950888 0
M  V30 11526 C 1103.37 -4.28993 -0.16236 0
M  V30 11527 C 1102.6 -5.2308 -1.0594 0
M  V30 11528 O 1102.82 -5.22022 -2.2989 0
M  V30 11529 O 1101.76 -5.99632 -0.521966 0
M  V30 11530 H 1105.58 -2.94321 0.748927 0
M  V30 11531 H 1103.17 -1.43025 0.43175 0
M  V30 11532 H 1105.05 -3.94115 -1.49169 0
M  V30 11533 H 1103.73 -2.7616 -1.68871 0
M  V30 11534 H 1102.63 -3.71707 0.42247 0
M  V30 11535 H 1103.97 -4.8927 0.536274 0
M  V30 11536 N 1105.62 -0.414636 -1.52048 0
M  V30 11537 C 1106.87 0.159034 -2.01473 0
M  V30 11538 C 1107.19 1.45176 -1.30188 0
M  V30 11539 O 1106.46 1.91134 -0.429469 0
M  V30 11540 H 1105.04 0.0617604 -0.744443 0
M  V30 11541 H 1107.7 -0.552141 -1.86916 0
M  V30 11542 H 1106.8 0.351217 -3.10118 0
M  V30 11543 N 1107.1 1.56929 -0.145233 0
M  V30 11544 C 1108.51 1.58196 0.211194 0
M  V30 11545 C 1108.71 1.15941 1.64803 0
M  V30 11546 O 1107.77 0.858888 2.37443 0
M  V30 11547 C 1109.08 3.00665 -0.0459569 0
M  V30 11548 C 1110.63 3.12995 0.0178913 0
M  V30 11549 C 1111.1 4.5751 -0.211905 0
M  V30 11550 N 1112.6 4.62928 -0.158772 0
M  V30 11551 C 1113.33 5.72555 -0.311111 0
M  V30 11552 N 1112.83 6.90838 -0.521074 0
M  V30 11553 N 1114.62 5.61549 -0.248838 0
M  V30 11554 H 1106.77 1.8269 -1.08342 0
M  V30 11555 H 1109.03 0.845514 -0.428731 0
M  V30 11556 H 1108.74 3.35962 -1.0403 0
M  V30 11557 H 1108.61 3.71125 0.674246 0
M  V30 11558 H 1111 2.7754 1.00278 0
M  V30 11559 H 1111.08 2.45025 -0.734612 0
M  V30 11560 H 1110.73 4.93669 -1.19389 0
M  V30 11561 H 1110.66 5.23604 0.560901 0
M  V30 11562 H 1113.15 3.779 -0.00107283 0
M  V30 11563 H 1113.46 7.70248 -0.62747 0
M  V30 11564 H 1111.8 6.92761 -0.557374 0
M  V30 11565 H 1115 4.68022 -0.0855821 0
M  V30 11566 H 1115.17 6.46937 -0.370997 0
M  V30 11567 N 1108.58 -0.128553 1.57075 0
M  V30 11568 C 1109.54 -1.14215 1.98715 0
M  V30 11569 C 1110.54 -1.34843 0.876019 0
M  V30 11570 O 1111.73 -1.31522 1.14227 0
M  V30 11571 C 1108.86 -2.49865 2.31905 0
M  V30 11572 H 1110.05 -0.784481 2.89458 0
M  V30 11573 H 1107.61 -0.372531 1.51796 0
M  V30 11574 H 1108.34 -2.9057 1.44012 0
M  V30 11575 H 1108.13 -2.3625 3.12935 0
M  V30 11576 H 1109.62 -3.22832 2.64895 0
M  V30 11577 N 1110.05 -1.5248 -0.398459 0
M  V30 11578 C 1111.3 -1.66287 -1.14155 0
M  V30 11579 C 1111.62 -0.40429 -1.91376 0
M  V30 11580 O 1112.82 -0.422341 -2.68195 0
M  V30 11581 C 1111.28 -2.93831 -2.07825 0
M  V30 11582 C 1110.89 -4.26836 -1.3607 0
M  V30 11583 C 1112.63 -3.17004 -2.82327 0
M  V30 11584 C 1110.54 -5.45495 -2.28451 0
M  V30 11585 H 1109.47 -0.619478 -0.42984 0
M  V30 11586 H 1112.12 -1.78972 -0.405112 0
M  V30 11587 H 1110.5 -2.7487 -2.85065 0
M  V30 11588 H 1111.67 -4.56317 -0.641205 0
M  V30 11589 H 1109.99 -4.0985 -0.735659 0
M  V30 11590 H 1112.59 -4.02834 -3.51609 0
M  V30 11591 H 1112.93 -2.3168 -3.45876 0
M  V30 11592 H 1113.46 -3.36487 -2.12183 0
M  V30 11593 H 1110.2 -6.33198 -1.69532 0
M  V30 11594 H 1109.72 -5.20338 -2.98343 0
M  V30 11595 H 1111.4 -5.78996 -2.88743 0
M  V30 11596 N 1111.53 0.65634 -1.43283 0
M  V30 11597 C 1112.76 1.44199 -1.47954 0
M  V30 11598 C 1113.17 1.88961 -0.0950315 0
M  V30 11599 O 1112.51 1.59895 0.904388 0
M  V30 11600 C 1112.57 2.71161 -2.36033 0
M  V30 11601 C 1112.24 2.48359 -3.83623 0
M  V30 11602 C 1113.24 2.1178 -4.74811 0
M  V30 11603 C 1110.92 2.6278 -4.28079 0
M  V30 11604 C 1112.91 1.89915 -6.0845 0
M  V30 11605 C 1110.6 2.4053 -5.61772 0
M  V30 11606 C 1111.6 2.04154 -6.51775 0
M  V30 11607 O 1111.29 1.82134 -7.82996 0
M  V30 11608 H 1111.02 0.449567 -0.504842 0
M  V30 11609 H 1113.57 0.812234 -1.88658 0
M  V30 11610 H 1111.8 3.36685 -1.9021 0
M  V30 11611 H 1113.49 3.33102 -2.31944 0
M  V30 11612 H 1114.26 2.00217 -4.41744 0
M  V30 11613 H 1110.14 2.9007 -3.58302 0
M  V30 11614 H 1113.68 1.61445 -6.78661 0
M  V30 11615 H 1109.58 2.51695 -5.94407 0
M  V30 11616 H 1110.35 1.96584 -7.94542 0
M  V30 11617 N 1113.01 1.29761 0.894412 0
M  V30 11618 C 1113.96 1.15232 2.0205 0
M  V30 11619 C 1114.95 0.0665664 1.69269 0
M  V30 11620 O 1116.16 0.226746 1.78566 0
M  V30 11621 H 1112.53 0.356102 0.662341 0
M  V30 11622 H 1114.5 2.10559 2.11442 0
M  V30 11623 C 1113.25 0.851143 3.37121 0
M  V30 11624 H 1112.58 1.67865 3.62852 0
M  V30 11625 H 1114.02 0.78954 4.16584 0
M  V30 11626 C 1112.47 -0.445737 3.33938 0
M  V30 11627 O 1113 -1.47017 3.7383 0
M  V30 11628 N 1111.21 -0.453493 2.8704 0
M  V30 11629 H 1110.76 0.380636 2.54772 0
M  V30 11630 H 1110.72 -1.32119 2.85293 0
M  V30 11631 N 1114.49 -1.10549 1.12324 0
M  V30 11632 C 1115.44 -2.18944 0.785248 0
M  V30 11633 C 1116.43 -1.67867 -0.227389 0
M  V30 11634 O 1117.64 -1.79796 -0.0857162 0
M  V30 11635 H 1114.01 -0.713976 0.236098 0
M  V30 11636 H 1115.98 -2.44692 1.70788 0
M  V30 11637 C 1114.73 -3.46765 0.25485 0
M  V30 11638 H 1114.05 -3.86428 1.02534 0
M  V30 11639 H 1115.49 -4.23962 0.0566526 0
M  V30 11640 C 1113.95 -3.21185 -1.01695 0
M  V30 11641 O 1114.48 -3.42745 -2.09497 0
M  V30 11642 N 1112.69 -2.7486 -0.943423 0
M  V30 11643 H 1112.24 -2.57515 -0.0660366 0
M  V30 11644 H 1112.19 -2.58122 -1.795 0
M  V30 11645 N 1115.97 -0.914965 -1.28321 0
M  V30 11646 C 1116.9 -0.348729 -2.2552 0
M  V30 11647 C 1117.88 0.547737 -1.53097 0
M  V30 11648 O 1119.06 0.491119 -1.8199 0
M  V30 11649 C 1116.19 0.501397 -3.34968 0
M  V30 11650 C 1115.23 -0.329859 -4.25223 0
M  V30 11651 S 1116.07 -1.73737 -5.06533 0
M  V30 11652 C 1117.22 -0.89458 -6.19474 0
M  V30 11653 H 1117.46 -1.17256 -2.732 0
M  V30 11654 H 1114.99 -0.716297 -1.36779 0
M  V30 11655 H 1116.95 0.986061 -3.98481 0
M  V30 11656 H 1115.61 1.29962 -2.85952 0
M  V30 11657 H 1114.8 0.320236 -5.02982 0
M  V30 11658 H 1114.4 -0.748221 -3.66439 0
M  V30 11659 H 1116.69 -0.124776 -6.77385 0
M  V30 11660 H 1117.64 -1.64475 -6.88733 0
M  V30 11661 H 1118.05 -0.442217 -5.62765 0
M  V30 11662 N 1117.44 1.42219 -0.679077 0
M  V30 11663 C 1118.39 2.308 -0.00340316 0
M  V30 11664 C 1119.36 1.462 0.788334 0
M  V30 11665 O 1120.55 1.75023 0.759716 0
M  V30 11666 C 1117.69 3.32084 0.938854 0
M  V30 11667 C 1116.8 4.31772 0.140485 0
M  V30 11668 C 1115.93 5.20128 1.07888 0
M  V30 11669 C 1114.97 6.11493 0.27245 0
M  V30 11670 N 1114.11 6.92388 1.16378 0
M  V30 11671 H 1118.95 2.88024 -0.764587 0
M  V30 11672 H 1116.49 1.41869 -0.38878 0
M  V30 11673 H 1118.44 3.89339 1.49903 0
M  V30 11674 H 1117.07 2.76448 1.66662 0
M  V30 11675 H 1116.13 3.76599 -0.536376 0
M  V30 11676 H 1117.44 4.96432 -0.485433 0
M  V30 11677 H 1116.59 5.82137 1.70884 0
M  V30 11678 H 1115.33 4.55655 1.73868 0
M  V30 11679 H 1114.34 5.48549 -0.370693 0
M  V30 11680 H 1115.56 6.78017 -0.383315 0
M  V30 11681 H 1113.51 6.30538 1.8099 0
M  V30 11682 H 1113.42 7.5367 0.593043 0
M  V30 11683 H 1114.69 7.58879 1.78107 0
M  V30 11684 N 1118.92 0.422693 1.51826 0
M  V30 11685 C 1119.85 -0.43167 2.25098 0
M  V30 11686 C 1120.87 -0.998758 1.28564 0
M  V30 11687 O 1122.06 -0.89539 1.54418 0
M  V30 11688 C 1119.16 -1.61426 2.97985 0
M  V30 11689 C 1118.33 -1.16866 4.21499 0
M  V30 11690 C 1117.39 -2.2197 4.77091 0
M  V30 11691 O 1116.41 -1.82004 5.39317 0
M  V30 11692 N 1117.62 -3.54293 4.59844 0
M  V30 11693 H 1120.38 0.196255 2.99057 0
M  V30 11694 H 1117.94 0.25079 1.59946 0
M  V30 11695 H 1119.93 -2.31331 3.32066 0
M  V30 11696 H 1118.5 -2.14783 2.27128 0
M  V30 11697 H 1117.72 -0.297217 3.93078 0
M  V30 11698 H 1119.01 -0.848106 5.01682 0
M  V30 11699 H 1118.41 -3.89505 4.10247 0
M  V30 11700 H 1116.97 -4.20135 4.98327 0
M  V30 11701 N 1120.4 -1.5685 0.153553 0
M  V30 11702 C 1121.65 -1.96334 -0.495915 0
M  V30 11703 C 1121.97 -1.03873 -1.64441 0
M  V30 11704 O 1121.23 -0.069231 -1.95578 0
M  V30 11705 C 1121.53 -3.42022 -1.0371 0
M  V30 11706 C 1121.19 -4.509 -0.00637049 0
M  V30 11707 C 1119.86 -4.80402 0.276956 0
M  V30 11708 C 1122.21 -5.16556 0.694187 0
M  V30 11709 C 1119.54 -5.72866 1.26653 0
M  V30 11710 C 1121.89 -6.10087 1.67263 0
M  V30 11711 C 1120.55 -6.37965 1.96359 0
M  V30 11712 H 1119.82 -0.718436 -0.181468 0
M  V30 11713 H 1122.47 -1.89968 0.241768 0
M  V30 11714 H 1120.77 -3.45252 -1.85225 0
M  V30 11715 H 1122.47 -3.69903 -1.54831 0
M  V30 11716 H 1119.06 -4.27942 -0.237378 0
M  V30 11717 H 1123.25 -4.9389 0.488496 0
M  V30 11718 H 1118.5 -5.92756 1.49833 0
M  V30 11719 H 1122.68 -6.60036 2.22094 0
M  V30 11720 H 1120.3 -7.09416 2.73189 0
M  V30 11721 N 1121.88 0.120221 -1.57141 0
M  V30 11722 C 1123.13 0.826791 -1.83976 0
M  V30 11723 C 1123.44 1.81102 -0.739014 0
M  V30 11724 O 1124.65 2.56368 -0.893736 0
M  V30 11725 C 1123.1 1.52108 -3.26176 0
M  V30 11726 C 1122.71 0.577902 -4.44257 0
M  V30 11727 C 1124.45 2.21286 -3.62261 0
M  V30 11728 C 1122.36 1.27535 -5.77485 0
M  V30 11729 H 1121.29 0.312508 -0.686189 0
M  V30 11730 H 1123.94 0.0795343 -1.83328 0
M  V30 11731 H 1122.32 2.31492 -3.2129 0
M  V30 11732 H 1123.5 -0.182629 -4.60438 0
M  V30 11733 H 1121.81 -0.00684348 -4.16399 0
M  V30 11734 H 1124.41 2.74154 -4.59068 0
M  V30 11735 H 1124.75 2.99029 -2.89634 0
M  V30 11736 H 1125.29 1.48791 -3.68925 0
M  V30 11737 H 1122.02 0.539237 -6.53278 0
M  V30 11738 H 1121.54 2.00792 -5.65192 0
M  V30 11739 H 1123.22 1.80888 -6.21199 0
M  V30 11740 N 1123.36 1.52689 0.390367 0
M  V30 11741 C 1124.77 1.41909 0.730338 0
M  V30 11742 C 1124.97 0.538427 1.94173 0
M  V30 11743 O 1124.03 0.0113527 2.52497 0
M  V30 11744 C 1125.34 2.84737 0.966714 0
M  V30 11745 C 1126.89 2.94206 1.06827 0
M  V30 11746 C 1127.36 4.38042 1.33728 0
M  V30 11747 N 1128.86 4.4136 1.40553 0
M  V30 11748 C 1129.59 5.49735 1.63031 0
M  V30 11749 N 1129.09 6.68197 1.82988 0
M  V30 11750 N 1130.88 5.37276 1.65199 0
M  V30 11751 H 1123.03 2.08469 -0.406766 0
M  V30 11752 H 1125.29 0.940401 -0.11979 0
M  V30 11753 H 1125 3.51385 0.148725 0
M  V30 11754 H 1124.87 3.26909 1.88176 0
M  V30 11755 H 1127.26 2.27726 1.87683 0
M  V30 11756 H 1127.34 2.55463 0.131168 0
M  V30 11757 H 1126.99 5.05087 0.533832 0
M  V30 11758 H 1126.92 4.74336 2.28721 0
M  V30 11759 H 1129.41 3.55976 1.26844 0
M  V30 11760 H 1129.72 7.46567 1.99643 0
M  V30 11761 H 1128.06 6.71228 1.80215 0
M  V30 11762 H 1131.26 4.437 1.49158 0
M  V30 11763 H 1131.43 6.21806 1.82377 0
M  V30 11764 N 1124.83 -0.648732 1.43629 0
M  V30 11765 C 1126.06 -1.43412 1.48716 0
M  V30 11766 C 1126.47 -1.88908 0.105051 0
M  V30 11767 O 1125.82 -1.60373 -0.895896 0
M  V30 11768 C 1125.88 -2.69906 2.37468 0
M  V30 11769 C 1125.54 -2.46321 3.84935 0
M  V30 11770 C 1126.54 -2.09259 4.75927 0
M  V30 11771 C 1124.22 -2.60506 4.29467 0
M  V30 11772 C 1126.22 -1.86686 6.09448 0
M  V30 11773 C 1123.9 -2.37548 5.6304 0
M  V30 11774 C 1124.9 -2.00694 6.52848 0
M  V30 11775 O 1124.59 -1.77979 7.83951 0
M  V30 11776 H 1124.32 -0.446883 0.507219 0
M  V30 11777 H 1126.88 -0.802218 1.89086 0
M  V30 11778 H 1125.11 -3.35672 1.91993 0
M  V30 11779 H 1126.8 -3.31867 2.33707 0
M  V30 11780 H 1127.56 -1.97872 4.428 0
M  V30 11781 H 1123.44 -2.88165 3.59836 0
M  V30 11782 H 1126.98 -1.57844 6.79508 0
M  V30 11783 H 1122.88 -2.48539 5.95734 0
M  V30 11784 H 1123.65 -1.92368 7.95573 0
M  V30 11785 N 1126.31 -1.30234 -0.887518 0
M  V30 11786 C 1127.24 -1.18969 -2.00919 0
M  V30 11787 C 1128.22 -0.080952 -1.69907 0
M  V30 11788 O 1129.41 -0.262546 -1.92417 0
M  V30 11789 C 1126.54 -0.878094 -3.36016 0
M  V30 11790 C 1125.49 -1.94449 -3.81279 0
M  V30 11791 C 1124.82 -1.48594 -5.13638 0
M  V30 11792 C 1126.12 -3.35519 -4.00281 0
M  V30 11793 H 1127.81 -2.12808 -2.10602 0
M  V30 11794 H 1125.36 -1.02454 -1.01189 0
M  V30 11795 H 1127.31 -0.785954 -4.14006 0
M  V30 11796 H 1126.04 0.0959779 -3.26459 0
M  V30 11797 H 1124.69 -2.02622 -3.05516 0
M  V30 11798 H 1124.34 -0.500204 -5.00507 0
M  V30 11799 H 1124.04 -2.19921 -5.44893 0
M  V30 11800 H 1125.57 -1.40754 -5.94156 0
M  V30 11801 H 1126.98 -3.30119 -4.68716 0
M  V30 11802 H 1125.38 -4.0491 -4.42909 0
M  V30 11803 H 1126.45 -3.77597 -3.04218 0
M  V30 11804 N 1127.79 1.09952 -1.12909 0
M  V30 11805 C 1129.04 1.81386 -0.882163 0
M  V30 11806 C 1129.35 1.86376 0.593592 0
M  V30 11807 O 1130.56 2.54064 0.957275 0
M  V30 11808 C 1129.01 3.25824 -1.52861 0
M  V30 11809 C 1128.62 3.29117 -3.0395 0
M  V30 11810 C 1130.37 4.02051 -1.36216 0
M  V30 11811 C 1128.27 4.68047 -3.61505 0
M  V30 11812 H 1127.2 0.679701 -0.326378 0
M  V30 11813 H 1129.85 1.23614 -1.35616 0
M  V30 11814 H 1128.24 3.83624 -0.982271 0
M  V30 11815 H 1129.41 2.81114 -3.65119 0
M  V30 11816 H 1127.73 2.66379 -3.20049 0
M  V30 11817 H 1130.32 5.04683 -1.76633 0
M  V30 11818 H 1130.67 4.15171 -0.306391 0
M  V30 11819 H 1131.2 3.5068 -1.87799 0
M  V30 11820 H 1127.94 4.60128 -4.66865 0
M  V30 11821 H 1127.46 5.16397 -3.05114 0
M  V30 11822 H 1129.14 5.37018 -3.6086 0
M  V30 11823 N 1129.27 0.921757 1.27833 0
M  V30 11824 C 1130.49 0.574599 1.99281 0
M  V30 11825 C 1130.92 -0.838905 1.68357 0
M  V30 11826 O 1130.28 -1.56196 0.920468 0
M  V30 11827 C 1130.32 0.800027 3.51613 0
M  V30 11828 O 1129.43 -0.137215 4.12172 0
M  V30 11829 H 1128.77 0.221887 0.625829 0
M  V30 11830 H 1131.3 1.23939 1.62789 0
M  V30 11831 H 1131.31 0.71326 4.01717 0
M  V30 11832 H 1129.98 1.83042 3.73455 0
M  V30 11833 H 1128.56 -0.00103872 3.729 0
M  V30 11834 N 1130.75 -1.41857 0.686609 0
M  V30 11835 C 1131.97 -2.06219 0.221037 0
M  V30 11836 C 1132.4 -1.51298 -1.11762 0
M  V30 11837 O 1131.75 -0.636253 -1.69769 0
M  V30 11838 C 1131.8 -3.60153 0.179425 0
M  V30 11839 O 1130.91 -4.03577 -0.848481 0
M  V30 11840 H 1130.25 -0.654787 0.110228 0
M  V30 11841 H 1132.78 -1.81783 0.938948 0
M  V30 11842 H 1132.79 -4.07999 0.00725332 0
M  V30 11843 H 1131.46 -3.99498 1.15647 0
M  V30 11844 H 1130.04 -3.67255 -0.646393 0
M  V30 11845 N 1132.22 -0.430739 -1.51599 0
M  V30 11846 C 1133.17 0.398482 -2.29161 0
M  V30 11847 C 1134.17 1.02676 -1.34737 0
M  V30 11848 O 1135.37 0.96248 -1.52106 0
M  V30 11849 H 1131.75 0.14731 -0.737431 0
M  V30 11850 H 1133.72 -0.276619 -2.97115 0
M  V30 11851 C 1132.47 1.49094 -3.14112 0
M  V30 11852 H 1131.79 1.01685 -3.86652 0
M  V30 11853 H 1133.23 2.04453 -3.7145 0
M  V30 11854 C 1131.69 2.47049 -2.29059 0
M  V30 11855 O 1132.22 3.51435 -1.94567 0
M  V30 11856 N 1130.43 2.17778 -1.92409 0
M  V30 11857 H 1129.97 1.3292 -2.20658 0
M  V30 11858 H 1129.93 2.8356 -1.35798 0
M  V30 11859 N 1133.7 1.56767 -0.161869 0
M  V30 11860 C 1134.95 1.96885 0.486215 0
M  V30 11861 C 1135.28 1.04745 1.6353 0
M  V30 11862 O 1134.56 0.0927156 1.94279 0
M  V30 11863 C 1134.84 3.46559 0.97822 0
M  V30 11864 C 1134.69 4.49477 -0.17039 0
M  V30 11865 C 1136.01 3.99093 1.85506 0
M  V30 11866 H 1133.13 0.715857 0.175265 0
M  V30 11867 H 1135.77 1.88399 -0.246098 0
M  V30 11868 H 1133.92 3.53921 1.60225 0
M  V30 11869 H 1135.59 4.54183 -0.807205 0
M  V30 11870 H 1133.84 4.25838 -0.827322 0
M  V30 11871 H 1134.51 5.51578 0.21583 0
M  V30 11872 H 1136.98 3.94303 1.32908 0
M  V30 11873 H 1135.86 5.04255 2.16837 0
M  V30 11874 H 1136.12 3.4234 2.79742 0
M  V30 11875 N 1135.18 -0.111886 1.57202 0
M  V30 11876 C 1136.43 -0.816794 1.84859 0
M  V30 11877 C 1136.75 -1.80079 0.748113 0
M  V30 11878 O 1136.02 -1.94578 -0.227235 0
M  V30 11879 H 1134.6 -0.304633 0.682061 0
M  V30 11880 H 1137.26 -0.097513 1.94656 0
M  V30 11881 H 1136.36 -1.35768 2.81022 0
M  V30 11882 N 1136.66 -1.52894 -0.382264 0
M  V30 11883 C 1137.57 -1.81084 -1.4915 0
M  V30 11884 C 1138.58 -0.698045 -1.59384 0
M  V30 11885 O 1139.76 -0.98635 -1.75594 0
M  V30 11886 C 1136.83 -1.97987 -2.84608 0
M  V30 11887 C 1135.89 -3.219 -2.8404 0
M  V30 11888 C 1135.12 -3.37988 -4.13037 0
M  V30 11889 O 1135.34 -2.58733 -5.08344 0
M  V30 11890 O 1134.28 -4.31273 -4.19866 0
M  V30 11891 H 1138.1 -2.75289 -1.28257 0
M  V30 11892 H 1135.69 -1.38068 -0.57076 0
M  V30 11893 H 1137.57 -2.10773 -3.64901 0
M  V30 11894 H 1136.24 -1.06972 -3.05514 0
M  V30 11895 H 1135.15 -3.14551 -2.02505 0
M  V30 11896 H 1136.48 -4.12783 -2.68087 0
M  V30 11897 N 1138.14 0.641106 -1.43971 0
M  V30 11898 C 1139.38 1.40291 -1.46445 0
M  V30 11899 C 1139.72 1.93978 -0.0929004 0
M  V30 11900 O 1138.99 1.73043 0.888043 0
M  V30 11901 C 1139.27 2.57551 -2.51673 0
M  V30 11902 C 1139.13 2.09279 -3.98149 0
M  V30 11903 C 1140.45 3.59752 -2.53508 0
M  V30 11904 H 1137.57 0.508771 -0.533218 0
M  V30 11905 H 1140.21 0.725767 -1.75592 0
M  V30 11906 H 1138.36 3.15319 -2.2695 0
M  V30 11907 H 1140.03 1.56418 -4.33971 0
M  V30 11908 H 1138.27 1.40545 -4.10402 0
M  V30 11909 H 1138.94 2.93655 -4.67409 0
M  V30 11910 H 1141.42 3.11766 -2.75574 0
M  V30 11911 H 1140.3 4.39332 -3.29057 0
M  V30 11912 H 1140.56 4.13156 -1.57335 0
M  V30 11913 N 1139.62 1.30703 0.880598 0
M  V30 11914 C 1140.86 1.19955 1.63519 0
M  V30 11915 C 1141.19 -0.244214 1.92658 0
M  V30 11916 O 1140.47 -1.17412 1.55063 0
M  V30 11917 C 1140.75 2.03302 2.97221 0
M  V30 11918 C 1140.61 3.55921 2.75028 0
M  V30 11919 C 1141.92 1.87421 3.98198 0
M  V30 11920 H 1139.04 0.43712 0.593376 0
M  V30 11921 H 1141.69 1.60382 1.01871 0
M  V30 11922 H 1139.84 1.68953 3.49839 0
M  V30 11923 H 1141.51 4.00352 2.29164 0
M  V30 11924 H 1139.75 3.79885 2.09452 0
M  V30 11925 H 1140.42 4.09533 3.70117 0
M  V30 11926 H 1142.9 2.17459 3.54755 0
M  V30 11927 H 1141.77 2.48057 4.89652 0
M  V30 11928 H 1142.03 0.834563 4.34151 0
M  V30 11929 N 1141.09 -1.09351 1.1349 0
M  V30 11930 C 1142.33 -1.83156 0.907372 0
M  V30 11931 C 1142.7 -1.8376 -0.556441 0
M  V30 11932 O 1143.9 -2.5323 -0.90156 0
M  V30 11933 C 1142.17 -3.25315 1.48004 0
M  V30 11934 S 1143.73 -4.16113 1.39268 0
M  V30 11935 H 1140.55 -0.631319 0.327043 0
M  V30 11936 H 1143.15 -1.31509 1.44657 0
M  V30 11937 H 1141.85 -3.22452 2.53876 0
M  V30 11938 H 1141.38 -3.82034 0.938822 0
M  V30 11939 H 1143.4 -4.94806 0.371645 0
M  V30 11940 N 1142.57 -0.928524 -1.27343 0
M  V30 11941 C 1143.82 -0.565207 -1.93619 0
M  V30 11942 C 1144.13 0.897988 -1.73769 0
M  V30 11943 O 1145.34 1.37012 -2.34393 0
M  V30 11944 C 1143.8 -0.960052 -3.46859 0
M  V30 11945 C 1143.4 -2.44399 -3.75464 0
M  V30 11946 C 1145.15 -0.668026 -4.19211 0
M  V30 11947 C 1143.05 -2.77819 -5.22083 0
M  V30 11948 H 1141.98 -0.207665 -0.724839 0
M  V30 11949 H 1144.64 -1.12945 -1.44623 0
M  V30 11950 H 1143.02 -0.324454 -3.94669 0
M  V30 11951 H 1144.19 -3.12756 -3.38408 0
M  V30 11952 H 1142.51 -2.70799 -3.16317 0
M  V30 11953 H 1145.1 -0.894207 -5.2717 0
M  V30 11954 H 1145.45 0.394788 -4.14424 0
M  V30 11955 H 1145.98 -1.26276 -3.77226 0
M  V30 11956 H 1142.72 -3.83013 -5.3196 0
M  V30 11957 H 1142.24 -2.14112 -5.60282 0
M  V30 11958 H 1143.92 -2.65607 -5.89968 0
M  V30 11959 N 1144.05 1.41491 -0.694123 0
M  V30 11960 C 1145.3 2.01252 -0.224477 0
M  V30 11961 C 1145.62 1.54965 1.17541 0
M  V30 11962 O 1144.88 0.751041 1.80715 0
M  V30 11963 C 1145.18 3.56666 -0.228869 0
M  V30 11964 C 1144.84 4.22458 -1.57608 0
M  V30 11965 C 1143.51 4.40144 -1.94491 0
M  V30 11966 C 1145.86 4.5936 -2.46247 0
M  V30 11967 C 1143.19 4.92009 -3.196 0
M  V30 11968 C 1145.54 5.12615 -3.70687 0
M  V30 11969 C 1144.2 5.28512 -4.07715 0
M  V30 11970 H 1143.47 0.736433 -0.0821419 0
M  V30 11971 H 1146.12 1.69408 -0.892926 0
M  V30 11972 H 1144.42 3.88292 0.523128 0
M  V30 11973 H 1146.12 4.00712 0.152019 0
M  V30 11974 H 1142.71 4.09065 -1.27921 0
M  V30 11975 H 1146.9 4.45352 -2.19032 0
M  V30 11976 H 1142.15 5.02502 -3.48285 0
M  V30 11977 H 1146.33 5.4015 -4.39558 0
M  V30 11978 H 1143.95 5.68464 -5.0473 0
M  V30 11979 N 1145.53 0.438773 1.51369 0
M  V30 11980 C 1146.46 -0.362467 2.3067 0
M  V30 11981 C 1147.44 -1.01973 1.36145 0
M  V30 11982 O 1148.62 -1.0231 1.65065 0
M  V30 11983 C 1145.75 -1.46313 3.14976 0
M  V30 11984 C 1144.71 -0.929272 4.1779 0
M  V30 11985 C 1144.03 -2.12579 4.90627 0
M  V30 11986 C 1145.33 0.0372782 5.22287 0
M  V30 11987 H 1147.03 0.29931 2.979 0
M  V30 11988 H 1144.57 0.14539 1.43264 0
M  V30 11989 H 1146.53 -2.03088 3.69233 0
M  V30 11990 H 1145.25 -2.15321 2.45569 0
M  V30 11991 H 1143.91 -0.383722 3.64586 0
M  V30 11992 H 1143.56 -2.8021 4.17722 0
M  V30 11993 H 1143.26 -1.77496 5.60151 0
M  V30 11994 H 1144.78 -2.69905 5.47708 0
M  V30 11995 H 1146.2 -0.44022 5.71607 0
M  V30 11996 H 1144.59 0.300748 5.99346 0
M  V30 11997 H 1145.66 0.973503 4.75027 0
M  V30 11998 N 1147.01 -1.56678 0.170181 0
M  V30 11999 C 1148.23 -2.01223 -0.481362 0
M  V30 12000 C 1148.65 -1.05039 -1.56883 0
M  V30 12001 O 1148.01 -0.0510751 -1.82429 0
M  V30 12002 C 1148.06 -3.45588 -1.06073 0
M  V30 12003 O 1147.78 -4.38097 -0.0166754 0
M  V30 12004 C 1149.28 -4.05527 -1.79061 0
M  V30 12005 H 1146.5 -0.659574 -0.1233 0
M  V30 12006 H 1149.04 -2.02689 0.271576 0
M  V30 12007 H 1147.2 -3.449 -1.76417 0
M  V30 12008 H 1147.61 -5.22615 -0.444276 0
M  V30 12009 H 1149.09 -5.08467 -2.1486 0
M  V30 12010 H 1149.56 -3.47554 -2.68519 0
M  V30 12011 H 1150.17 -4.09914 -1.13361 0
M  V30 12012 N 1148.48 0.103547 -1.57259 0
M  V30 12013 C 1149.45 1.11039 -2.00507 0
M  V30 12014 C 1150.45 1.33432 -0.897361 0
M  V30 12015 O 1151.64 1.29688 -1.16304 0
M  V30 12016 C 1148.77 2.46144 -2.35851 0
M  V30 12017 H 1149.96 0.738332 -2.90669 0
M  V30 12018 H 1147.51 0.348334 -1.52369 0
M  V30 12019 H 1148.25 2.88242 -1.48617 0
M  V30 12020 H 1148.03 2.31241 -3.16654 0
M  V30 12021 H 1149.52 3.18577 -2.69997 0
M  V30 12022 N 1149.96 1.53094 0.37415 0
M  V30 12023 C 1150.92 1.78264 1.44065 0
M  V30 12024 C 1151.92 0.652892 1.46949 0
M  V30 12025 O 1153.11 0.921046 1.47859 0
M  V30 12026 C 1150.25 1.89693 2.83248 0
M  V30 12027 H 1151.44 2.73505 1.23025 0
M  V30 12028 H 1148.99 1.44041 0.60678 0
M  V30 12029 H 1149.73 0.964884 3.09613 0
M  V30 12030 H 1149.51 2.71855 2.82554 0
M  V30 12031 H 1151 2.10787 3.60498 0
M  V30 12032 N 1151.44 -0.633461 1.44309 0
M  V30 12033 C 1152.37 -1.75676 1.53819 0
M  V30 12034 C 1153.35 -1.65537 0.391365 0
M  V30 12035 O 1154.54 -1.84332 0.611181 0
M  V30 12036 C 1151.67 -3.14197 1.47979 0
M  V30 12037 C 1150.62 -3.39122 2.61113 0
M  V30 12038 C 1149.95 -4.77648 2.40325 0
M  V30 12039 C 1151.25 -3.31914 4.03274 0
M  V30 12040 H 1152.94 -1.67974 2.47841 0
M  V30 12041 H 1150.49 -0.8067 1.19283 0
M  V30 12042 H 1152.44 -3.92553 1.53233 0
M  V30 12043 H 1151.16 -3.22677 0.504718 0
M  V30 12044 H 1149.82 -2.63145 2.55245 0
M  V30 12045 H 1149.47 -4.82829 1.41016 0
M  V30 12046 H 1149.17 -4.95284 3.16177 0
M  V30 12047 H 1150.69 -5.58237 2.47394 0
M  V30 12048 H 1152.11 -4.00178 4.10524 0
M  V30 12049 H 1150.5 -3.61085 4.7931 0
M  V30 12050 H 1151.57 -2.29761 4.2701 0
M  V30 12051 N 1152.92 -1.31168 -0.873655 0
M  V30 12052 C 1154.17 -1.20404 -1.62319 0
M  V30 12053 C 1154.49 0.238829 -1.93532 0
M  V30 12054 O 1153.76 1.15854 -1.57971 0
M  V30 12055 H 1152.34 -0.442632 -0.601736 0
M  V30 12056 H 1155 -1.64445 -1.04613 0
M  V30 12057 H 1154.1 -1.77309 -2.56842 0
M  V30 12058 N 1154.4 1.08748 -1.14068 0
M  V30 12059 C 1155.64 1.81065 -0.906738 0
M  V30 12060 C 1155.97 1.86057 0.566844 0
M  V30 12061 O 1155.23 1.32976 1.43582 0
M  V30 12062 C 1155.53 3.26734 -1.44843 0
M  V30 12063 C 1155.19 3.41866 -2.94005 0
M  V30 12064 C 1153.85 3.45703 -3.34729 0
M  V30 12065 C 1156.21 3.45831 -3.89937 0
M  V30 12066 C 1153.53 3.51092 -4.70055 0
M  V30 12067 C 1155.89 3.52755 -5.25116 0
M  V30 12068 C 1154.55 3.54863 -5.65357 0
M  V30 12069 H 1153.82 0.662564 -0.331799 0
M  V30 12070 H 1156.47 1.28065 -1.42378 0
M  V30 12071 H 1154.77 3.82419 -0.852239 0
M  V30 12072 H 1156.47 3.81236 -1.2434 0
M  V30 12073 H 1153.06 3.39568 -2.61518 0
M  V30 12074 H 1157.24 3.421 -3.59557 0
M  V30 12075 H 1152.5 3.51015 -5.00598 0
M  V30 12076 H 1156.67 3.54768 -5.9926 0
M  V30 12077 H 1154.3 3.58792 -6.70203 0
M  V30 12078 N 1155.87 0.935264 1.26849 0
M  V30 12079 C 1157.29 0.623198 1.75992 0
M  V30 12080 C 1157.64 -0.861647 1.76267 0
M  V30 12081 O 1156.76 -1.6743 1.37099 0
M  V30 12082 C 1157.36 1.12451 3.19594 0
M  V30 12083 C 1155.92 0.862974 3.66374 0
M  V30 12084 C 1155.06 1.27886 2.4605 0
M  V30 12085 H 1158.01 1.11422 1.13008 0
M  V30 12086 H 1158.03 0.475626 3.77516 0
M  V30 12087 H 1157.55 2.20522 3.19361 0
M  V30 12088 H 1155.65 -0.203606 3.72043 0
M  V30 12089 H 1155.76 1.48582 4.55478 0
M  V30 12090 H 1154.12 0.697335 2.44968 0
M  V30 12091 H 1154.91 2.36837 2.48522 0
M  V30 12092 N 1157.35 -1.41121 0.701616 0
M  V30 12093 C 1158.26 -2.34565 0.0407815 0
M  V30 12094 C 1159.28 -1.56555 -0.75937 0
M  V30 12095 O 1160.45 -1.89008 -0.695542 0
M  V30 12096 C 1157.52 -3.35347 -0.879954 0
M  V30 12097 C 1156.58 -4.29241 -0.0713279 0
M  V30 12098 C 1155.81 -5.25209 -0.948211 0
M  V30 12099 O 1156.04 -5.26781 -2.18766 0
M  V30 12100 O 1154.97 -6.00605 -0.394657 0
M  V30 12101 H 1158.8 -2.92666 0.811188 0
M  V30 12102 H 1156.38 -1.42077 0.461991 0
M  V30 12103 H 1158.26 -3.9719 -1.40776 0
M  V30 12104 H 1156.94 -2.7968 -1.62975 0
M  V30 12105 H 1155.85 -3.70727 0.50122 0
M  V30 12106 H 1157.18 -4.88022 0.639935 0
M  V30 12107 N 1158.83 -0.446794 -1.51134 0
M  V30 12108 C 1159.79 0.348311 -2.26538 0
M  V30 12109 C 1160.79 0.941566 -1.3035 0
M  V30 12110 O 1161.98 0.814537 -1.53984 0
M  V30 12111 C 1159.12 1.49371 -3.06433 0
M  V30 12112 H 1160.31 -0.312648 -2.98266 0
M  V30 12113 H 1157.86 -0.200201 -1.55013 0
M  V30 12114 H 1158.6 2.19045 -2.39144 0
M  V30 12115 H 1158.38 1.07439 -3.77093 0
M  V30 12116 H 1159.87 2.05522 -3.63525 0
M  V30 12117 N 1160.31 1.56586 -0.178487 0
M  V30 12118 C 1161.24 2.21313 0.744486 0
M  V30 12119 C 1162.22 1.17098 1.23377 0
M  V30 12120 O 1163.4 1.45551 1.28563 0
M  V30 12121 C 1160.53 2.8595 1.97103 0
M  V30 12122 C 1159.49 3.96266 1.61732 0
M  V30 12123 C 1158.81 4.47987 2.91911 0
M  V30 12124 C 1160.11 5.15503 0.839868 0
M  V30 12125 H 1161.81 2.98698 0.204938 0
M  V30 12126 H 1159.35 1.43672 0.0971306 0
M  V30 12127 H 1161.31 3.29909 2.6218 0
M  V30 12128 H 1160.03 2.05946 2.53484 0
M  V30 12129 H 1158.69 3.52974 0.990208 0
M  V30 12130 H 1158.34 3.64765 3.46346 0
M  V30 12131 H 1158.04 5.22413 2.68995 0
M  V30 12132 H 1159.56 4.94637 3.58004 0
M  V30 12133 H 1160.98 5.5611 1.39337 0
M  V30 12134 H 1159.37 5.95891 0.709473 0
M  V30 12135 H 1160.44 4.84628 -0.162396 0
M  V30 12136 N 1161.79 -0.095206 1.57312 0
M  V30 12137 C 1163.04 -0.797417 1.85268 0
M  V30 12138 C 1163.35 -1.79903 0.767733 0
M  V30 12139 O 1164.55 -2.54914 0.934409 0
M  V30 12140 C 1163.01 -1.469 3.28555 0
M  V30 12141 C 1162.62 -0.507152 4.4512 0
M  V30 12142 C 1164.36 -2.15494 3.65735 0
M  V30 12143 C 1162.27 -1.18331 5.79441 0
M  V30 12144 H 1161.2 -0.301552 0.691074 0
M  V30 12145 H 1163.85 -0.0503584 1.83431 0
M  V30 12146 H 1162.23 -2.26351 3.24933 0
M  V30 12147 H 1163.41 0.255858 4.60089 0
M  V30 12148 H 1161.72 0.0730882 4.16336 0
M  V30 12149 H 1164.32 -2.66816 4.63371 0
M  V30 12150 H 1164.66 -2.94383 2.94354 0
M  V30 12151 H 1165.19 -1.42903 3.71246 0
M  V30 12152 H 1161.93 -0.435238 6.54053 0
M  V30 12153 H 1161.45 -1.91775 5.68315 0
M  V30 12154 H 1163.13 -1.70983 6.23998 0
M  V30 12155 N 1163.26 -1.53291 -0.366026 0
M  V30 12156 C 1164.68 -1.61144 -0.942849 0
M  V30 12157 C 1165.03 -0.478571 -1.90274 0
M  V30 12158 O 1164.15 0.395069 -2.12763 0
M  V30 12159 C 1164.75 -2.92081 -1.71681 0
M  V30 12160 C 1163.31 -3.0227 -2.24298 0
M  V30 12161 C 1162.45 -2.56436 -1.05526 0
M  V30 12162 H 1165.4 -1.58038 -0.144835 0
M  V30 12163 H 1165.42 -2.79858 -2.57798 0
M  V30 12164 H 1164.94 -3.74513 -1.01793 0
M  V30 12165 H 1163.04 -2.24425 -2.97429 0
M  V30 12166 H 1163.15 -4.07341 -2.5221 0
M  V30 12167 H 1161.51 -2.11301 -1.42211 0
M  V30 12168 H 1162.3 -3.41285 -0.371376 0
M  V30 12169 N 1164.74 0.6258 -1.44643 0
M  V30 12170 C 1165.99 1.3873 -1.47925 0
M  V30 12171 C 1166.32 1.93868 -0.113469 0
M  V30 12172 O 1165.6 1.73976 0.869639 0
M  V30 12173 C 1165.88 2.54867 -2.54391 0
M  V30 12174 C 1165.73 2.05044 -4.00346 0
M  V30 12175 C 1167.05 3.57043 -2.57309 0
M  V30 12176 H 1164.17 0.503087 -0.538584 0
M  V30 12177 H 1166.81 0.707102 -1.76352 0
M  V30 12178 H 1164.96 3.12894 -2.30281 0
M  V30 12179 H 1166.63 1.51807 -4.35606 0
M  V30 12180 H 1164.88 1.36185 -4.11869 0
M  V30 12181 H 1165.55 2.88681 -4.70497 0
M  V30 12182 H 1168.02 3.08826 -2.78865 0
M  V30 12183 H 1166.9 4.35818 -3.33698 0
M  V30 12184 H 1167.16 4.11464 -1.61708 0
M  V30 12185 N 1166.22 1.31629 0.866686 0
M  V30 12186 C 1167.15 1.15377 1.98042 0
M  V30 12187 C 1168.17 0.0919633 1.6254 0
M  V30 12188 O 1169.35 0.339775 1.75236 0
M  V30 12189 C 1166.45 0.741295 3.30693 0
M  V30 12190 C 1165.63 1.88882 3.94516 0
M  V30 12191 C 1164.69 1.46186 5.05486 0
M  V30 12192 O 1163.71 2.17202 5.26129 0
M  V30 12193 N 1164.91 0.351096 5.79437 0
M  V30 12194 H 1167.68 2.11309 2.12529 0
M  V30 12195 H 1165.24 1.24007 1.04085 0
M  V30 12196 H 1167.23 0.438313 4.02319 0
M  V30 12197 H 1165.8 -0.12651 3.12344 0
M  V30 12198 H 1165.02 2.35894 3.15828 0
M  V30 12199 H 1166.31 2.65734 4.33892 0
M  V30 12200 H 1165.71 -0.240245 5.6519 0
M  V30 12201 H 1164.27 0.107663 6.51711 0
M  V30 12202 N 1167.7 -1.08142 1.14644 0
M  V30 12203 C 1168.63 -2.17139 0.858667 0
M  V30 12204 C 1169.61 -1.69064 -0.187452 0
M  V30 12205 O 1170.8 -1.94151 -0.0435458 0
M  V30 12206 C 1167.93 -3.45648 0.33834 0
M  V30 12207 C 1166.88 -4.07129 1.32021 0
M  V30 12208 C 1166.21 -5.30623 0.659075 0
M  V30 12209 C 1167.51 -4.48095 2.68343 0
M  V30 12210 H 1169.2 -2.41468 1.77012 0
M  V30 12211 H 1166.75 -1.16052 0.852523 0
M  V30 12212 H 1168.7 -4.21216 0.124611 0
M  V30 12213 H 1167.42 -3.2088 -0.608553 0
M  V30 12214 H 1166.08 -3.33596 1.52016 0
M  V30 12215 H 1165.73 -5.02142 -0.293711 0
M  V30 12216 H 1165.43 -5.72714 1.31427 0
M  V30 12217 H 1166.95 -6.08903 0.454933 0
M  V30 12218 H 1168.37 -5.14828 2.5224 0
M  V30 12219 H 1166.76 -5.01113 3.30161 0
M  V30 12220 H 1167.83 -3.59852 3.25015 0
M  V30 12221 N 1169.18 -0.941978 -1.26351 0
M  V30 12222 C 1170.11 -0.469913 -2.28723 0
M  V30 12223 C 1171.09 0.477218 -1.63269 0
M  V30 12224 O 1172.27 0.378902 -1.90468 0
M  V30 12225 C 1169.4 0.264971 -3.46288 0
M  V30 12226 C 1168.36 -0.595682 -4.23834 0
M  V30 12227 C 1167.68 0.269208 -5.34022 0
M  V30 12228 C 1168.98 -1.86743 -4.87775 0
M  V30 12229 H 1170.68 -1.32551 -2.6846 0
M  V30 12230 H 1168.22 -0.638809 -1.29055 0
M  V30 12231 H 1170.18 0.606259 -4.17016 0
M  V30 12232 H 1168.9 1.15471 -3.05506 0
M  V30 12233 H 1167.56 -0.919875 -3.54872 0
M  V30 12234 H 1167.21 1.15832 -4.89481 0
M  V30 12235 H 1166.91 -0.30325 -5.86817 0
M  V30 12236 H 1168.43 0.605748 -6.07588 0
M  V30 12237 H 1169.85 -1.59333 -5.50714 0
M  V30 12238 H 1168.24 -2.38452 -5.50691 0
M  V30 12239 H 1169.31 -2.57831 -4.10671 0
M  V30 12240 N 1170.66 1.40747 -0.709091 0
M  V30 12241 C 1171.9 2.01796 -0.254976 0
M  V30 12242 C 1172.26 1.55202 1.13711 0
M  V30 12243 O 1171.55 0.759312 1.75912 0
M  V30 12244 C 1171.74 3.56404 -0.266685 0
M  V30 12245 C 1171.57 4.18005 -1.65837 0
M  V30 12246 C 1170.34 4.51719 -2.26447 0
M  V30 12247 C 1172.54 4.43302 -2.60744 0
M  V30 12248 N 1170.52 4.9868 -3.58039 0
M  V30 12249 C 1171.89 4.92185 -3.77033 0
M  V30 12250 C 1173.95 4.25332 -2.58839 0
M  V30 12251 C 1172.65 5.24984 -4.91715 0
M  V30 12252 C 1174.68 4.59228 -3.72644 0
M  V30 12253 C 1174.04 5.08294 -4.87664 0
M  V30 12254 H 1170.14 0.769549 -0.138991 0
M  V30 12255 H 1172.72 1.71081 -0.929488 0
M  V30 12256 H 1170.89 3.86562 0.377365 0
M  V30 12257 H 1172.63 4.04188 0.203528 0
M  V30 12258 H 1169.38 4.38631 -1.78605 0
M  V30 12259 H 1169.8 5.2655 -4.25528 0
M  V30 12260 H 1174.45 3.86623 -1.71121 0
M  V30 12261 H 1172.16 5.6261 -5.80082 0
M  V30 12262 H 1175.75 4.4697 -3.72437 0
M  V30 12263 H 1174.63 5.3403 -5.74267 0
M  V30 12264 N 1172.13 0.454803 1.50895 0
M  V30 12265 C 1173.38 -0.105927 2.02523 0
M  V30 12266 C 1173.71 -1.40825 1.33724 0
M  V30 12267 O 1172.99 -1.89038 0.457683 0
M  V30 12268 C 1173.27 -0.306635 3.58792 0
M  V30 12269 C 1173.12 1.01556 4.38185 0
M  V30 12270 C 1174.44 -1.06858 4.2693 0
M  V30 12271 H 1171.56 -0.0370232 0.736069 0
M  V30 12272 H 1174.2 0.597215 1.8037 0
M  V30 12273 H 1172.35 -0.905563 3.77799 0
M  V30 12274 H 1174.03 1.64981 4.30789 0
M  V30 12275 H 1172.27 1.61608 4.02574 0
M  V30 12276 H 1172.94 0.828959 5.4574 0
M  V30 12277 H 1175.42 -0.561086 4.123 0
M  V30 12278 H 1174.29 -1.1778 5.36115 0
M  V30 12279 H 1174.55 -2.10111 3.8898 0
M  V30 12280 N 1173.61 -1.56489 0.186789 0
M  V30 12281 C 1174.56 -2.20034 -0.754164 0
M  V30 12282 C 1175.55 -1.16899 -1.22601 0
M  V30 12283 O 1176.76 -1.35064 -1.18987 0
M  V30 12284 H 1173.13 -0.705058 -0.261529 0
M  V30 12285 H 1175.11 -2.97766 -0.194418 0
M  V30 12286 C 1173.85 -2.86733 -1.9667 0
M  V30 12287 H 1173.18 -3.65831 -1.61268 0
M  V30 12288 H 1174.62 -3.34645 -2.60363 0
M  V30 12289 C 1173.08 -1.87325 -2.8002 0
M  V30 12290 O 1173.61 -1.36835 -3.77676 0
M  V30 12291 N 1171.81 -1.55738 -2.45345 0
M  V30 12292 H 1171.36 -1.9699 -1.6599 0
M  V30 12293 H 1171.32 -0.894805 -3.01398 0
M  V30 12294 N 1175.09 0.086862 -1.5736 0
M  V30 12295 C 1176.02 1.10538 -2.05678 0
M  V30 12296 C 1177 1.41281 -0.947293 0
M  V30 12297 O 1178.19 1.51169 -1.21908 0
M  V30 12298 C 1175.32 2.42302 -2.48812 0
M  V30 12299 C 1174.27 2.25948 -3.63499 0
M  V30 12300 C 1173.6 3.62961 -3.92637 0
M  V30 12301 C 1174.9 1.69319 -4.94094 0
M  V30 12302 H 1176.59 0.703371 -2.91021 0
M  V30 12303 H 1174.14 0.336895 -1.40004 0
M  V30 12304 H 1176.09 3.13833 -2.81224 0
M  V30 12305 H 1174.81 2.84454 -1.60479 0
M  V30 12306 H 1173.47 1.5686 -3.31347 0
M  V30 12307 H 1173.12 4.02656 -3.01459 0
M  V30 12308 H 1172.82 3.52862 -4.69853 0
M  V30 12309 H 1174.34 4.35946 -4.27531 0
M  V30 12310 H 1175.76 2.30699 -5.24834 0
M  V30 12311 H 1174.15 1.69957 -5.7553 0
M  V30 12312 H 1175.22 0.653318 -4.80479 0
M  V30 12313 N 1176.57 1.53483 0.357892 0
M  V30 12314 C 1177.81 1.70289 1.10134 0
M  V30 12315 C 1178.15 0.457296 1.88739 0
M  V30 12316 O 1177.42 -0.545527 1.86693 0
M  V30 12317 C 1177.7 2.95755 2.05429 0
M  V30 12318 C 1177.56 4.30489 1.30382 0
M  V30 12319 C 1178.88 3.16844 3.05447 0
M  V30 12320 H 1176 0.61965 0.399003 0
M  V30 12321 H 1178.64 1.86133 0.381357 0
M  V30 12322 H 1176.79 2.82377 2.66825 0
M  V30 12323 H 1178.46 4.55692 0.71711 0
M  V30 12324 H 1176.7 4.2955 0.605712 0
M  V30 12325 H 1177.37 5.14427 2.00171 0
M  V30 12326 H 1179.85 3.29458 2.54159 0
M  V30 12327 H 1178.73 4.06053 3.69341 0
M  V30 12328 H 1178.99 2.32476 3.76041 0
M  V30 12329 N 1178.05 -0.61812 1.44973 0
M  V30 12330 C 1179.27 -1.40429 1.51945 0
M  V30 12331 C 1179.69 -1.88215 0.148556 0
M  V30 12332 O 1179.05 -1.61603 -0.847978 0
M  V30 12333 C 1179.1 -2.61588 2.49507 0
M  V30 12334 O 1178.82 -2.15791 3.81269 0
M  V30 12335 C 1180.32 -3.5457 2.66074 0
M  V30 12336 H 1177.54 -0.43023 0.514921 0
M  V30 12337 H 1180.08 -0.754791 1.90061 0
M  V30 12338 H 1178.24 -3.22602 2.14492 0
M  V30 12339 H 1178.65 -2.94434 4.34061 0
M  V30 12340 H 1180.13 -4.36155 3.38338 0
M  V30 12341 H 1180.6 -4.04227 1.71746 0
M  V30 12342 H 1181.21 -2.99416 3.02043 0
M  V30 12343 N 1179.52 -1.32087 -0.859693 0
M  V30 12344 C 1180.8 -1.12984 -1.59668 0
M  V30 12345 C 1181.18 0.311661 -2.08787 0
M  V30 12346 O 1180.53 1.30746 -1.87397 0
M  V30 12347 C 1180.74 -2.15305 -2.74672 0
M  V30 12348 C 1182.09 -2.48371 -3.44379 0
M  V30 12349 O 1183.11 -2.13811 -2.84891 0
M  V30 12350 O 1181.97 -3.07594 -4.51717 0
M  V30 12351 H 1179.06 -0.435657 -0.702945 0
M  V30 12352 H 1181.61 -1.43601 -0.90426 0
M  V30 12353 H 1180.38 -3.12223 -2.35866 0
M  V30 12354 H 1180 -1.85653 -3.51594 0
M  V30 12355 N 1181 1.07532 -1.15215 0
M  V30 12356 C 1182.25 1.79737 -0.924062 0
M  V30 12357 C 1182.57 1.87072 0.550356 0
M  V30 12358 O 1181.84 1.37029 1.4 0
M  V30 12359 H 1180.42 0.665704 -0.338891 0
M  V30 12360 H 1183.08 1.29961 -1.45245 0
M  V30 12361 H 1182.18 2.82256 -1.33184 0
M  V30 12362 N 1182.48 0.948665 1.2585 0
M  V30 12363 C 1183.41 0.482036 2.2847 0
M  V30 12364 C 1184.39 -0.468553 1.63519 0
M  V30 12365 O 1185.58 -0.368796 1.90666 0
M  V30 12366 C 1182.71 -0.246603 3.46423 0
M  V30 12367 C 1181.66 0.61815 4.23513 0
M  V30 12368 C 1180.99 -0.240884 5.34157 0
M  V30 12369 C 1182.29 1.89327 4.86778 0
M  V30 12370 H 1183.98 1.33973 2.67753 0
M  V30 12371 H 1181.53 0.645645 1.28715 0
M  V30 12372 H 1183.48 -0.584135 4.17332 0
M  V30 12373 H 1182.2 -1.13849 3.06114 0
M  V30 12374 H 1180.86 0.938682 3.54379 0
M  V30 12375 H 1180.51 -1.13235 4.90089 0
M  V30 12376 H 1180.21 0.334367 5.86648 0
M  V30 12377 H 1181.73 -0.573517 6.07901 0
M  V30 12378 H 1183.15 1.62252 5.49861 0
M  V30 12379 H 1181.55 2.41369 5.49419 0
M  V30 12380 H 1182.62 2.60006 4.09298 0
M  V30 12381 N 1183.96 -1.40369 0.716545 0
M  V30 12382 C 1185.37 -1.83783 0.328719 0
M  V30 12383 C 1185.72 -1.5991 -1.13681 0
M  V30 12384 O 1184.85 -1.08048 -1.87496 0
M  V30 12385 C 1185.44 -3.33626 0.589848 0
M  V30 12386 C 1184 -3.7553 0.25572 0
M  V30 12387 C 1183.15 -2.63571 0.861733 0
M  V30 12388 H 1186.1 -1.29623 0.915621 0
M  V30 12389 H 1186.12 -3.80225 -0.14459 0
M  V30 12390 H 1185.63 -3.5097 1.65655 0
M  V30 12391 H 1183.73 -3.63781 -0.805883 0
M  V30 12392 H 1183.84 -4.73577 0.725388 0
M  V30 12393 H 1182.21 -2.53047 0.289706 0
M  V30 12394 H 1182.99 -2.83727 1.93272 0
M  V30 12395 N 1185.44 -0.462799 -1.50652 0
M  V30 12396 C 1186.4 0.324264 -2.26895 0
M  V30 12397 C 1187.4 0.927687 -1.31342 0
M  V30 12398 O 1188.59 0.798159 -1.54839 0
M  V30 12399 C 1185.72 1.46113 -3.08 0
M  V30 12400 H 1186.91 -0.344266 -2.97917 0
M  V30 12401 H 1184.47 -0.216631 -1.54791 0
M  V30 12402 H 1185.2 2.16496 -2.41454 0
M  V30 12403 H 1184.99 1.03433 -3.78212 0
M  V30 12404 H 1186.48 2.01655 -3.65684 0
M  V30 12405 N 1186.91 1.56388 -0.195085 0
M  V30 12406 C 1188.14 2.01963 0.449289 0
M  V30 12407 C 1188.56 1.07522 1.55192 0
M  V30 12408 O 1187.91 0.0800915 1.82324 0
M  V30 12409 C 1187.97 3.47231 1.00561 0
M  V30 12410 O 1187.69 4.38068 -0.0530241 0
M  V30 12411 C 1189.19 4.08324 1.72587 0
M  V30 12412 H 1186.41 0.661452 0.112792 0
M  V30 12413 H 1188.95 2.02231 -0.303788 0
M  V30 12414 H 1187.11 3.47663 1.70907 0
M  V30 12415 H 1187.52 5.23256 0.361076 0
M  V30 12416 H 1188.99 5.11821 2.06744 0
M  V30 12417 H 1189.47 3.51782 2.62956 0
M  V30 12418 H 1190.08 4.11665 1.06826 0
M  V30 12419 N 1188.39 -0.0785156 1.57404 0
M  V30 12420 C 1189.36 -1.07835 2.02248 0
M  V30 12421 C 1190.36 -1.31987 0.918475 0
M  V30 12422 O 1191.55 -1.27821 1.18353 0
M  V30 12423 C 1188.68 -2.42361 2.39737 0
M  V30 12424 H 1189.87 -0.691995 2.91807 0
M  V30 12425 H 1187.42 -0.32405 1.52904 0
M  V30 12426 H 1188.16 -2.85841 1.53183 0
M  V30 12427 H 1187.94 -2.26174 3.20293 0
M  V30 12428 H 1189.43 -3.14241 2.75031 0
M  V30 12429 N 1189.87 -1.5367 -0.349747 0
M  V30 12430 C 1190.8 -1.84208 -1.43492 0
M  V30 12431 C 1191.78 -0.696725 -1.55177 0
M  V30 12432 O 1192.97 -0.948061 -1.69486 0
M  V30 12433 C 1190.1 -2.04613 -2.80625 0
M  V30 12434 C 1189.05 -3.20419 -2.83753 0
M  V30 12435 C 1188.38 -3.26147 -4.23713 0
M  V30 12436 C 1189.68 -4.58666 -2.49846 0
M  V30 12437 H 1191.37 -2.75087 -1.18185 0
M  V30 12438 H 1188.92 -1.32363 -0.567101 0
M  V30 12439 H 1190.87 -2.2456 -3.56582 0
M  V30 12440 H 1189.59 -1.10459 -3.07354 0
M  V30 12441 H 1188.25 -3.00318 -2.10249 0
M  V30 12442 H 1187.9 -2.29599 -4.47541 0
M  V30 12443 H 1187.6 -4.03963 -4.26717 0
M  V30 12444 H 1189.12 -3.48296 -5.0152 0
M  V30 12445 H 1190.54 -4.78668 -3.15516 0
M  V30 12446 H 1188.94 -5.3884 -2.64144 0
M  V30 12447 H 1190.01 -4.62697 -1.4505 0
M  V30 12448 N 1191.35 0.610423 -1.45298 0
M  V30 12449 C 1192.6 1.3668 -1.48872 0
M  V30 12450 C 1192.92 1.94562 -0.130686 0
M  V30 12451 O 1192.19 1.76996 0.839607 0
M  V30 12452 H 1190.77 0.507393 -0.548235 0
M  V30 12453 H 1193.43 0.716997 -1.81232 0
M  V30 12454 H 1192.53 2.18766 -2.22593 0
M  V30 12455 N 1192.83 1.32541 0.852676 0
M  V30 12456 C 1194.07 1.23214 1.607 0
M  V30 12457 C 1194.4 -0.205542 1.93411 0
M  V30 12458 O 1193.66 -1.15907 1.57683 0
M  V30 12459 C 1193.96 2.039 2.9353 0
M  V30 12460 C 1193.62 3.53237 2.8024 0
M  V30 12461 C 1192.28 3.93953 2.76323 0
M  V30 12462 C 1194.64 4.48194 2.6603 0
M  V30 12463 C 1191.96 5.27865 2.56077 0
M  V30 12464 C 1194.32 5.82251 2.47319 0
M  V30 12465 C 1192.98 6.22166 2.41796 0
M  V30 12466 H 1192.25 0.450873 0.588043 0
M  V30 12467 H 1194.9 1.63988 0.988954 0
M  V30 12468 H 1193.2 1.55861 3.59464 0
M  V30 12469 H 1194.9 1.94051 3.50921 0
M  V30 12470 H 1191.49 3.209 2.84114 0
M  V30 12471 H 1195.67 4.17656 2.681 0
M  V30 12472 H 1190.93 5.57845 2.50237 0
M  V30 12473 H 1195.1 6.55442 2.35305 0
M  V30 12474 H 1192.73 7.2587 2.25868 0
M  V30 12475 N 1194.3 -1.0692 1.15784 0
M  V30 12476 C 1195.25 -2.16335 0.854506 0
M  V30 12477 C 1196.25 -1.68505 -0.173868 0
M  V30 12478 O 1197.45 -1.79977 -0.0284722 0
M  V30 12479 H 1193.83 -0.706103 0.258694 0
M  V30 12480 H 1195.8 -2.39135 1.78486 0
M  V30 12481 C 1194.55 -3.45778 0.365042 0
M  V30 12482 H 1193.87 -3.82971 1.14776 0
M  V30 12483 H 1195.31 -4.23567 0.191504 0
M  V30 12484 C 1193.77 -3.24258 -0.914253 0
M  V30 12485 O 1194.3 -3.49236 -1.98487 0
M  V30 12486 N 1192.51 -2.77722 -0.855501 0
M  V30 12487 H 1192.05 -2.57595 0.0159233 0
M  V30 12488 H 1192.01 -2.63702 -1.71198 0
M  V30 12489 N 1195.78 -0.955326 -1.25345 0
M  V30 12490 C 1197.19 -0.651118 -1.74978 0
M  V30 12491 C 1197.54 0.833495 -1.77616 0
M  V30 12492 O 1196.67 1.65228 -1.39745 0
M  V30 12493 C 1197.26 -1.17521 -3.17764 0
M  V30 12494 C 1195.82 -0.921151 -3.64954 0
M  V30 12495 C 1194.97 -1.31784 -2.43984 0
M  V30 12496 H 1197.92 -1.13205 -1.11222 0
M  V30 12497 H 1197.94 -0.535625 -3.76711 0
M  V30 12498 H 1197.45 -2.25575 -3.15813 0
M  V30 12499 H 1195.56 0.144392 -3.7232 0
M  V30 12500 H 1195.67 -1.5581 -4.53056 0
M  V30 12501 H 1194.03 -0.736219 -2.43828 0
M  V30 12502 H 1194.82 -2.40761 -2.44723 0
M  V30 12503 N 1197.26 1.39987 -0.723979 0
M  V30 12504 C 1198.67 1.83606 -0.338461 0
M  V30 12505 C 1199.02 1.6051 1.12831 0
M  V30 12506 O 1198.15 1.09041 1.8692 0
M  V30 12507 C 1198.74 3.33308 -0.607533 0
M  V30 12508 C 1197.3 3.75389 -0.275632 0
M  V30 12509 C 1196.45 2.6311 -0.875699 0
M  V30 12510 H 1199.4 1.29135 -0.922483 0
M  V30 12511 H 1199.42 3.80297 0.124424 0
M  V30 12512 H 1198.93 3.50087 -1.67514 0
M  V30 12513 H 1197.03 3.64203 0.786579 0
M  V30 12514 H 1197.15 4.73185 -0.750492 0
M  V30 12515 H 1195.51 2.5289 -0.303122 0
M  V30 12516 H 1196.29 2.82698 -1.94774 0
M  V30 12517 N 1198.74 0.470782 1.50404 0
M  V30 12518 C 1200.02 -0.145879 1.95055 0
M  V30 12519 C 1200.4 -1.57004 1.41114 0
M  V30 12520 O 1199.74 -2.20152 0.612006 0
M  V30 12521 C 1199.95 -0.0895071 3.48885 0
M  V30 12522 C 1201.3 -0.278548 4.23685 0
M  V30 12523 O 1202.33 -0.166105 3.55812 0
M  V30 12524 O 1201.19 -0.505606 5.44156 0
M  V30 12525 H 1198.28 -0.111838 0.819403 0
M  V30 12526 H 1200.83 0.531162 1.61173 0
M  V30 12527 H 1199.6 0.904836 3.80695 0
M  V30 12528 H 1199.22 -0.808019 3.89303 0
M  V30 12529 N 1200.22 -1.56282 0.203376 0
M  V30 12530 C 1201.15 -2.2247 -0.709183 0
M  V30 12531 C 1202.13 -1.19046 -1.21499 0
M  V30 12532 O 1203.31 -1.47578 -1.26231 0
M  V30 12533 C 1200.44 -2.8905 -1.92529 0
M  V30 12534 C 1199.4 -3.98789 -1.55407 0
M  V30 12535 C 1198.72 -4.52574 -2.84747 0
M  V30 12536 C 1200.02 -5.16774 -0.75775 0
M  V30 12537 H 1201.72 -2.98986 -0.157392 0
M  V30 12538 H 1199.26 -1.43808 -0.0742613 0
M  V30 12539 H 1201.22 -3.34038 -2.56898 0
M  V30 12540 H 1199.94 -2.09952 -2.50175 0
M  V30 12541 H 1198.6 -3.54504 -0.933928 0
M  V30 12542 H 1198.25 -3.70229 -3.40499 0
M  V30 12543 H 1197.95 -5.26627 -2.6065 0
M  V30 12544 H 1199.47 -5.00269 -3.5009 0
M  V30 12545 H 1200.89 -5.58256 -1.30472 0
M  V30 12546 H 1199.28 -5.96945 -0.614583 0
M  V30 12547 H 1200.35 -4.84308 0.239476 0
M  V30 12548 N 1201.7 0.070167 -1.57444 0
M  V30 12549 C 1202.97 0.802108 -1.78397 0
M  V30 12550 C 1203.35 1.95706 -0.791356 0
M  V30 12551 O 1202.7 2.27827 0.17518 0
M  V30 12552 C 1202.91 1.27354 -3.24934 0
M  V30 12553 C 1204.26 1.70626 -3.88808 0
M  V30 12554 O 1205.28 1.36916 -3.28835 0
M  V30 12555 O 1204.14 2.33041 -4.94322 0
M  V30 12556 H 1201.24 0.384483 -0.73219 0
M  V30 12557 H 1203.78 0.0501168 -1.69626 0
M  V30 12558 H 1202.55 0.447204 -3.88736 0
M  V30 12559 H 1202.18 2.0868 -3.38435 0
M  V30 12560 N 1203.17 1.53854 0.341593 0
M  V30 12561 C 1204.42 1.7041 1.07905 0
M  V30 12562 C 1204.74 0.475039 1.89744 0
M  V30 12563 O 1205.94 0.521589 2.66443 0
M  V30 12564 C 1204.4 3.01342 1.96776 0
M  V30 12565 C 1204.01 4.31592 1.20135 0
M  V30 12566 C 1205.75 3.27264 2.70367 0
M  V30 12567 C 1203.66 5.53598 2.08047 0
M  V30 12568 H 1202.59 0.635005 0.406553 0
M  V30 12569 H 1205.24 1.80353 0.338409 0
M  V30 12570 H 1203.62 2.85261 2.74667 0
M  V30 12571 H 1204.79 4.58382 0.471404 0
M  V30 12572 H 1203.11 4.12298 0.583039 0
M  V30 12573 H 1205.71 4.15607 3.36415 0
M  V30 12574 H 1206.05 2.44357 3.37039 0
M  V30 12575 H 1206.58 3.4413 1.99548 0
M  V30 12576 H 1203.32 6.39053 1.45914 0
M  V30 12577 H 1202.84 5.31052 2.78825 0
M  V30 12578 H 1204.52 5.89314 2.67055 0
M  V30 12579 N 1204.65 -0.602709 1.4562 0
M  V30 12580 C 1205.58 -1.72705 1.49159 0
M  V30 12581 C 1206.56 -1.58843 0.347494 0
M  V30 12582 O 1207.75 -1.80337 0.548716 0
M  V30 12583 C 1204.87 -3.10579 1.35125 0
M  V30 12584 C 1203.92 -3.43016 2.53461 0
M  V30 12585 S 1204.75 -3.37311 4.1591 0
M  V30 12586 C 1205.91 -4.77757 4.0435 0
M  V30 12587 H 1206.14 -1.69441 2.44289 0
M  V30 12588 H 1203.67 -0.779776 1.33262 0
M  V30 12589 H 1205.63 -3.90127 1.27715 0
M  V30 12590 H 1204.29 -3.11352 0.414568 0
M  V30 12591 H 1203.49 -4.43415 2.39581 0
M  V30 12592 H 1203.09 -2.70993 2.57757 0
M  V30 12593 H 1205.38 -5.67677 3.69796 0
M  V30 12594 H 1206.32 -4.96694 5.04679 0
M  V30 12595 H 1206.73 -4.53667 3.35926 0
M  V30 12596 N 1206.13 -1.32992 -0.845635 0
M  V30 12597 C 1207.08 -1.22652 -1.97634 0
M  V30 12598 C 1208.07 -0.129344 -1.68905 0
M  V30 12599 O 1209.28 -0.292863 -1.77602 0
M  V30 12600 H 1205.65 -0.380439 -0.648668 0
M  V30 12601 H 1207.62 -2.18261 -2.03481 0
M  V30 12602 C 1206.37 -0.975677 -3.3373 0
M  V30 12603 H 1205.7 -1.81217 -3.56371 0
M  V30 12604 H 1207.14 -0.943608 -4.13367 0
M  V30 12605 C 1205.59 0.321491 -3.35363 0
M  V30 12606 O 1206.12 1.33042 -3.79029 0
M  V30 12607 N 1204.33 0.346648 -2.88525 0
M  V30 12608 H 1203.88 -0.474931 -2.53184 0
M  V30 12609 H 1203.84 1.2144 -2.9 0
M  V30 12610 N 1207.61 1.06304 -1.1635 0
M  V30 12611 C 1208.55 2.13776 -0.869965 0
M  V30 12612 C 1209.52 1.65105 0.181541 0
M  V30 12613 O 1210.71 1.90743 0.0467705 0
M  V30 12614 C 1207.85 3.43034 -0.377077 0
M  V30 12615 C 1206.96 4.0544 -1.4914 0
M  V30 12616 C 1206.1 5.22572 -0.953538 0
M  V30 12617 C 1205.14 5.76961 -2.04407 0
M  V30 12618 N 1204.27 6.85409 -1.52181 0
M  V30 12619 H 1209.11 2.38224 -1.79034 0
M  V30 12620 H 1206.65 1.16882 -0.893136 0
M  V30 12621 H 1208.61 4.17136 -0.0729426 0
M  V30 12622 H 1207.24 3.18804 0.506359 0
M  V30 12623 H 1206.29 3.28886 -1.9115 0
M  V30 12624 H 1207.6 4.41859 -2.31434 0
M  V30 12625 H 1206.76 6.037 -0.602579 0
M  V30 12626 H 1205.5 4.87598 -0.099897 0
M  V30 12627 H 1204.5 4.9447 -2.40373 0
M  V30 12628 H 1205.73 6.13987 -2.90167 0
M  V30 12629 H 1203.67 6.52354 -0.690697 0
M  V30 12630 H 1203.59 7.2077 -2.28092 0
M  V30 12631 H 1204.86 7.70217 -1.19942 0
M  V30 12632 N 1209.09 0.96196 1.24836 0
M  V30 12633 C 1210.5 0.660388 1.7463 0
M  V30 12634 C 1210.85 -0.824064 1.78055 0
M  V30 12635 O 1209.97 -1.64485 1.40619 0
M  V30 12636 C 1210.57 1.19205 3.17137 0
M  V30 12637 C 1209.13 0.940493 3.64461 0
M  V30 12638 C 1208.27 1.33076 2.43282 0
M  V30 12639 H 1211.22 1.13794 1.1062 0
M  V30 12640 H 1211.25 0.555595 3.76422 0
M  V30 12641 H 1210.76 2.27247 3.14612 0
M  V30 12642 H 1208.86 -0.124645 3.72391 0
M  V30 12643 H 1208.97 1.5821 4.52224 0
M  V30 12644 H 1207.34 0.749139 2.43434 0
M  V30 12645 H 1208.12 2.42055 2.43442 0
M  V30 12646 N 1210.56 -1.39601 0.731392 0
M  V30 12647 C 1211.97 -1.83424 0.348194 0
M  V30 12648 C 1212.33 -1.61106 -1.11979 0
M  V30 12649 O 1211.45 -1.1003 -1.86339 0
M  V30 12650 C 1212.05 -3.32982 0.6252 0
M  V30 12651 C 1210.6 -3.75238 0.295536 0
M  V30 12652 C 1209.75 -2.62642 0.88964 0
M  V30 12653 H 1212.7 -1.28644 0.929318 0
M  V30 12654 H 1212.72 -3.80357 -0.104254 0
M  V30 12655 H 1212.24 -3.49193 1.69368 0
M  V30 12656 H 1210.34 -3.64615 -0.767254 0
M  V30 12657 H 1210.45 -4.72781 0.775576 0
M  V30 12658 H 1208.81 -2.52726 0.316529 0
M  V30 12659 H 1209.6 -2.81661 1.96271 0
M  V30 12660 N 1212.04 -0.478751 -1.50152 0
M  V30 12661 C 1213.46 -0.133356 -1.59042 0
M  V30 12662 C 1213.66 1.36069 -1.48618 0
M  V30 12663 O 1212.71 2.13468 -1.34862 0
M  V30 12664 C 1214.03 -0.690369 -2.92668 0
M  V30 12665 C 1215.58 -0.654481 -3.06081 0
M  V30 12666 C 1216.05 -1.18917 -4.42293 0
M  V30 12667 N 1217.54 -1.14891 -4.48725 0
M  V30 12668 C 1218.28 -1.53305 -5.52526 0
M  V30 12669 N 1217.77 -1.99205 -6.63543 0
M  V30 12670 N 1219.57 -1.4486 -5.43113 0
M  V30 12671 H 1211.72 -1.45037 -1.55171 0
M  V30 12672 H 1213.98 -0.600254 -0.733757 0
M  V30 12673 H 1213.69 -1.7373 -3.05795 0
M  V30 12674 H 1213.56 -0.138227 -3.76947 0
M  V30 12675 H 1215.95 0.383564 -2.92597 0
M  V30 12676 H 1216.03 -1.24352 -2.2354 0
M  V30 12677 H 1215.67 -2.22588 -4.56527 0
M  V30 12678 H 1215.6 -0.57628 -5.23437 0
M  V30 12679 H 1218.09 -0.812344 -3.69066 0
M  V30 12680 H 1218.41 -2.26645 -7.38818 0
M  V30 12681 H 1216.75 -2.03164 -6.64642 0
M  V30 12682 H 1219.94 -1.08836 -4.55272 0
M  V30 12683 H 1220.11 -1.75123 -6.23888 0
M  V30 12684 N 1213.52 1.56172 -0.211661 0
M  V30 12685 C 1214.47 2.21206 0.719063 0
M  V30 12686 C 1215.46 1.18835 1.20725 0
M  V30 12687 O 1216.67 1.36939 1.16823 0
M  V30 12688 H 1213.04 0.709129 0.250279 0
M  V30 12689 H 1215.01 2.98038 0.147022 0
M  V30 12690 C 1213.76 2.89826 1.92084 0
M  V30 12691 H 1213.09 3.68351 1.55428 0
M  V30 12692 H 1214.53 3.38744 2.55006 0
M  V30 12693 C 1212.99 1.91756 2.77004 0
M  V30 12694 O 1213.52 1.42826 3.75451 0
M  V30 12695 N 1211.72 1.59622 2.42836 0
M  V30 12696 H 1211.27 1.99606 1.62835 0
M  V30 12697 H 1211.23 0.942641 2.99936 0
M  V30 12698 N 1215 -0.0618163 1.57479 0
M  V30 12699 C 1216.41 -0.612461 1.76368 0
M  V30 12700 C 1216.76 -1.77381 0.838466 0
M  V30 12701 O 1215.89 -2.16386 0.0250211 0
M  V30 12702 C 1216.48 -1.11782 3.19829 0
M  V30 12703 C 1215.04 -1.61424 3.40028 0
M  V30 12704 C 1214.19 -0.53795 2.72032 0
M  V30 12705 H 1217.14 0.164382 1.57846 0
M  V30 12706 H 1217.16 -1.98634 3.24538 0
M  V30 12707 H 1216.67 -0.272353 3.87143 0
M  V30 12708 H 1214.77 -2.48263 2.77842 0
M  V30 12709 H 1214.88 -1.68431 4.48517 0
M  V30 12710 H 1213.25 -0.985355 2.34868 0
M  V30 12711 H 1214.03 0.297495 3.42009 0
M  V30 12712 N 1216.48 -1.54033 -0.333429 0
M  V30 12713 C 1217.42 -1.82729 -1.40992 0
M  V30 12714 C 1218.39 -0.673677 -1.51825 0
M  V30 12715 O 1219.58 -0.919126 -1.67203 0
M  V30 12716 C 1216.72 -2.05155 -2.77498 0
M  V30 12717 C 1215.83 -3.32854 -2.75376 0
M  V30 12718 C 1214.97 -3.45294 -4.03665 0
M  V30 12719 C 1214.01 -4.66905 -3.95811 0
M  V30 12720 N 1213.14 -4.76323 -5.1581 0
M  V30 12721 H 1217.98 -2.74572 -1.15821 0
M  V30 12722 H 1215.52 -1.35988 -0.560859 0
M  V30 12723 H 1217.48 -2.16148 -3.56841 0
M  V30 12724 H 1216.11 -1.16615 -3.01 0
M  V30 12725 H 1215.16 -3.30651 -1.88081 0
M  V30 12726 H 1216.47 -4.22299 -2.65453 0
M  V30 12727 H 1215.63 -3.55775 -4.91436 0
M  V30 12728 H 1214.36 -2.53924 -4.16382 0
M  V30 12729 H 1213.37 -4.56491 -3.06425 0
M  V30 12730 H 1214.59 -5.59649 -3.84668 0
M  V30 12731 H 1212.54 -3.87866 -5.29052 0
M  V30 12732 H 1212.46 -5.59719 -5.08184 0
M  V30 12733 H 1213.73 -4.91125 -6.05324 0
M  V30 12734 N 1217.95 0.594978 -1.45938 0
M  V30 12735 C 1218.86 1.73296 -1.58132 0
M  V30 12736 C 1219.88 1.67665 -0.465245 0
M  V30 12737 O 1221.06 1.87794 -0.727684 0
M  V30 12738 C 1218.12 3.09783 -1.55677 0
M  V30 12739 C 1217.18 3.26772 -2.78422 0
M  V30 12740 C 1216.42 4.56748 -2.76075 0
M  V30 12741 O 1216.64 5.39867 -1.84119 0
M  V30 12742 O 1215.57 4.76721 -3.67452 0
M  V30 12743 H 1219.4 1.65957 -2.54346 0
M  V30 12744 H 1216.98 0.760572 -1.28591 0
M  V30 12745 H 1218.87 3.91077 -1.56961 0
M  V30 12746 H 1217.54 3.17585 -0.626191 0
M  V30 12747 H 1216.45 2.45018 -2.82696 0
M  V30 12748 H 1217.78 3.23853 -3.70648 0
M  V30 12749 N 1219.43 1.33438 0.838571 0
M  V30 12750 C 1220.84 1.22366 1.41009 0
M  V30 12751 C 1221.19 -0.157317 1.95568 0
M  V30 12752 O 1220.32 -1.05692 1.88834 0
M  V30 12753 C 1220.91 2.21542 2.56329 0
M  V30 12754 C 1219.47 2.14309 3.09433 0
M  V30 12755 C 1218.62 2.09012 1.82235 0
M  V30 12756 H 1221.57 1.45032 0.64431 0
M  V30 12757 H 1221.59 1.82332 3.33969 0
M  V30 12758 H 1221.1 3.22042 2.16589 0
M  V30 12759 H 1219.21 1.17113 3.53717 0
M  V30 12760 H 1219.32 3.04866 3.69586 0
M  V30 12761 H 1217.68 1.54492 2.02495 0
M  V30 12762 H 1218.47 3.11319 1.4469 0
M  V30 12763 N 1220.91 -1.05686 1.16912 0
M  V30 12764 C 1221.84 -2.15268 0.904532 0
M  V30 12765 C 1222.82 -1.69424 -0.151548 0
M  V30 12766 O 1224.01 -1.942 -0.00235371 0
M  V30 12767 C 1221.14 -3.44853 0.411581 0
M  V30 12768 C 1220.09 -4.04237 1.40628 0
M  V30 12769 C 1219.42 -5.29105 0.771479 0
M  V30 12770 C 1220.72 -4.42303 2.77787 0
M  V30 12771 H 1222.41 -2.37659 1.82094 0
M  V30 12772 H 1219.96 -1.14217 0.876947 0
M  V30 12773 H 1221.91 -4.20857 0.213929 0
M  V30 12774 H 1220.63 -3.22099 -0.540352 0
M  V30 12775 H 1219.29 -3.30297 1.59058 0
M  V30 12776 H 1218.94 -5.02652 -0.187133 0
M  V30 12777 H 1218.64 -5.69797 1.43545 0
M  V30 12778 H 1220.16 -6.07801 0.583988 0
M  V30 12779 H 1221.58 -5.09362 2.63103 0
M  V30 12780 H 1219.98 -4.93997 3.40716 0
M  V30 12781 H 1221.05 -3.52877 3.32575 0
M  V30 12782 N 1222.39 -0.968567 -1.24324 0
M  V30 12783 C 1223.64 -0.626519 -1.91723 0
M  V30 12784 C 1223.95 0.84225 -1.76538 0
M  V30 12785 O 1225.16 1.29486 -2.38633 0
M  V30 12786 C 1223.61 -1.06992 -3.43629 0
M  V30 12787 C 1223.22 -2.5622 -3.67499 0
M  V30 12788 C 1224.96 -0.801057 -4.16873 0
M  V30 12789 C 1222.87 -2.94288 -5.1298 0
M  V30 12790 H 1221.8 -0.23062 -0.717865 0
M  V30 12791 H 1224.45 -1.17489 -1.40956 0
M  V30 12792 H 1222.83 -0.44985 -3.93437 0
M  V30 12793 H 1224.01 -3.23364 -3.28287 0
M  V30 12794 H 1222.32 -2.80726 -3.07542 0
M  V30 12795 H 1224.92 -1.06147 -5.24058 0
M  V30 12796 H 1225.26 0.262742 -4.1547 0
M  V30 12797 H 1225.8 -1.38213 -3.73017 0
M  V30 12798 H 1222.54 -3.99743 -5.19506 0
M  V30 12799 H 1222.06 -2.31829 -5.53187 0
M  V30 12800 H 1223.73 -2.84242 -5.81219 0
M  V30 12801 N 1223.87 1.39211 -0.738786 0
M  V30 12802 C 1225.09 2.05256 -0.297421 0
M  V30 12803 C 1225.52 1.55341 1.06069 0
M  V30 12804 O 1224.87 0.698823 1.67291 0
M  V30 12805 C 1224.92 3.59239 -0.312969 0
M  V30 12806 O 1224.03 4.06448 0.698112 0
M  V30 12807 H 1223.37 0.650245 -0.134454 0
M  V30 12808 H 1225.9 1.78173 -1.00577 0
M  V30 12809 H 1225.91 4.07691 -0.158675 0
M  V30 12810 H 1224.58 3.94931 -1.30394 0
M  V30 12811 H 1223.16 3.69401 0.509643 0
M  V30 12812 N 1225.34 0.486708 1.49896 0
M  V30 12813 C 1226.59 -0.0627279 2.02003 0
M  V30 12814 C 1226.91 -1.38799 1.36967 0
M  V30 12815 O 1226.18 -1.88868 0.520173 0
M  V30 12816 H 1224.76 -0.0261718 0.746541 0
M  V30 12817 H 1227.43 0.640692 1.84068 0
M  V30 12818 H 1226.52 -0.202856 3.1144 0
M  V30 12819 N 1226.82 -1.56058 0.219941 0
M  V30 12820 C 1228.07 -1.99306 -0.40606 0
M  V30 12821 C 1228.42 -1.10505 -1.57501 0
M  V30 12822 O 1227.72 -0.154663 -1.90975 0
M  V30 12823 C 1227.91 -3.46113 -0.8911 0
M  V30 12824 C 1227.74 -4.49115 0.229307 0
M  V30 12825 C 1226.51 -5.00495 0.695169 0
M  V30 12826 C 1228.71 -5.0353 1.04701 0
M  V30 12827 N 1226.69 -5.872 1.7908 0
M  V30 12828 C 1228.06 -5.87144 1.99154 0
M  V30 12829 C 1230.12 -4.85898 1.08663 0
M  V30 12830 C 1228.82 -6.55009 2.97246 0
M  V30 12831 C 1230.85 -5.54521 2.05572 0
M  V30 12832 C 1230.21 -6.37902 2.98765 0
M  V30 12833 H 1226.31 -0.773453 -0.115304 0
M  V30 12834 H 1228.89 -1.9186 0.331342 0
M  V30 12835 H 1227.06 -3.5401 -1.59787 0
M  V30 12836 H 1228.79 -3.76281 -1.48978 0
M  V30 12837 H 1225.55 -4.72747 0.284052 0
M  V30 12838 H 1225.97 -6.35253 2.34057 0
M  V30 12839 H 1230.61 -4.21088 0.380063 0
M  V30 12840 H 1228.33 -7.19002 3.68866 0
M  V30 12841 H 1231.92 -5.42845 2.0931 0
M  V30 12842 H 1230.8 -6.90067 3.72529 0
M  V30 12843 N 1228.3 0.053464 -1.57509 0
M  V30 12844 C 1229.23 1.06151 -2.07977 0
M  V30 12845 C 1230.21 1.3924 -0.977047 0
M  V30 12846 O 1231.4 1.48549 -1.25087 0
M  V30 12847 C 1228.53 2.36969 -2.53895 0
M  V30 12848 C 1227.48 2.18186 -3.6821 0
M  V30 12849 C 1226.81 3.54551 -4.00247 0
M  V30 12850 C 1228.11 1.588 -4.97574 0
M  V30 12851 H 1229.8 0.641483 -2.92447 0
M  V30 12852 H 1227.35 0.307122 -1.40687 0
M  V30 12853 H 1229.3 3.07797 -2.87817 0
M  V30 12854 H 1228.02 2.80986 -1.66476 0
M  V30 12855 H 1226.68 1.49796 -3.34599 0
M  V30 12856 H 1226.33 3.96171 -3.09932 0
M  V30 12857 H 1226.03 3.42816 -4.77232 0
M  V30 12858 H 1227.56 4.2678 -4.36682 0
M  V30 12859 H 1228.97 2.19515 -5.29609 0
M  V30 12860 H 1227.37 1.57711 -5.79006 0
M  V30 12861 H 1228.44 0.551254 -4.81756 0
M  V30 12862 N 1229.78 1.54207 0.325255 0
M  V30 12863 C 1231.03 1.72331 1.0634 0
M  V30 12864 C 1231.35 0.496115 1.88066 0
M  V30 12865 O 1230.61 -0.52214 1.88606 0
M  V30 12866 C 1230.91 2.95 2.01766 0
M  V30 12867 C 1230.57 4.29835 1.36208 0
M  V30 12868 C 1229.24 4.66493 1.18059 0
M  V30 12869 C 1231.59 5.13521 0.891404 0
M  V30 12870 C 1228.92 5.84436 0.514894 0
M  V30 12871 C 1231.27 6.32146 0.239534 0
M  V30 12872 C 1229.93 6.67484 0.0458839 0
M  V30 12873 H 1229.2 0.630605 0.389125 0
M  V30 12874 H 1231.85 1.88445 0.34072 0
M  V30 12875 H 1230.15 2.73567 2.80479 0
M  V30 12876 H 1231.85 3.06217 2.58906 0
M  V30 12877 H 1228.44 4.00993 1.51335 0
M  V30 12878 H 1232.63 4.85718 1.01941 0
M  V30 12879 H 1227.88 6.10376 0.353644 0
M  V30 12880 H 1232.06 6.96273 -0.133185 0
M  V30 12881 H 1229.68 7.58733 -0.471978 0
M  V30 12882 N 1231.26 -0.58723 1.46251 0
M  V30 12883 C 1232.5 -1.3456 1.51327 0
M  V30 12884 C 1232.83 -1.93815 0.163146 0
M  V30 12885 O 1232.09 -1.76723 -0.840677 0
M  V30 12886 C 1232.39 -2.49776 2.5563 0
M  V30 12887 C 1232.05 -2.08543 3.99776 0
M  V30 12888 C 1230.71 -1.97013 4.39021 0
M  V30 12889 C 1233.07 -1.76669 4.90344 0
M  V30 12890 C 1230.39 -1.5186 5.66706 0
M  V30 12891 C 1232.75 -1.32996 6.18462 0
M  V30 12892 C 1231.41 -1.20039 6.56618 0
M  V30 12893 H 1230.68 -0.492391 0.553744 0
M  V30 12894 H 1233.33 -0.661715 1.79704 0
M  V30 12895 H 1231.63 -3.23592 2.20897 0
M  V30 12896 H 1233.33 -3.07995 2.56788 0
M  V30 12897 H 1229.92 -2.18451 3.68751 0
M  V30 12898 H 1234.1 -1.84465 4.60746 0
M  V30 12899 H 1229.36 -1.40467 5.95045 0
M  V30 12900 H 1233.53 -1.07385 6.88071 0
M  V30 12901 H 1231.16 -0.848268 7.55452 0
M  V30 12902 N 1232.74 -1.33881 -0.831482 0
M  V30 12903 C 1234.15 -1.13376 -1.1233 0
M  V30 12904 C 1234.35 0.0704402 -2.01377 0
M  V30 12905 O 1233.41 0.748516 -2.4115 0
M  V30 12906 C 1234.72 -2.42484 -1.77826 0
M  V30 12907 C 1236.27 -2.4846 -1.90359 0
M  V30 12908 C 1236.74 -3.77548 -2.59272 0
M  V30 12909 N 1238.23 -3.7866 -2.66778 0
M  V30 12910 C 1238.97 -4.75258 -3.20807 0
M  V30 12911 N 1238.47 -5.82234 -3.75466 0
M  V30 12912 N 1240.26 -4.62724 -3.19128 0
M  V30 12913 H 1232.41 -2.11051 -0.238998 0
M  V30 12914 H 1234.67 -0.932893 -0.168565 0
M  V30 12915 H 1234.38 -3.30647 -1.19857 0
M  V30 12916 H 1234.25 -2.55186 -2.77777 0
M  V30 12917 H 1236.64 -1.60742 -2.47479 0
M  V30 12918 H 1236.72 -2.39693 -0.893359 0
M  V30 12919 H 1236.36 -4.65651 -2.02808 0
M  V30 12920 H 1236.29 -3.83594 -3.60781 0
M  V30 12921 H 1238.79 -3.01351 -2.28026 0
M  V30 12922 H 1239.1 -6.51968 -4.14918 0
M  V30 12923 H 1237.44 -5.85959 -3.73733 0
M  V30 12924 H 1240.63 -3.78303 -2.75688 0
M  V30 12925 H 1240.81 -5.38175 -3.60932 0
M  V30 12926 N 1234.21 1.05064 -1.1747 0
M  V30 12927 C 1235.44 1.81497 -0.987031 0
M  V30 12928 C 1235.85 1.83323 0.467921 0
M  V30 12929 O 1235.19 1.26006 1.33672 0
M  V30 12930 C 1235.26 3.28826 -1.45306 0
M  V30 12931 C 1234.92 3.50681 -2.93039 0
M  V30 12932 C 1235.92 3.42699 -3.90965 0
M  V30 12933 C 1233.6 3.77602 -3.31243 0
M  V30 12934 C 1235.6 3.61325 -5.25093 0
M  V30 12935 C 1233.28 3.95876 -4.65538 0
M  V30 12936 C 1234.28 3.87737 -5.62271 0
M  V30 12937 O 1233.97 4.055 -6.94136 0
M  V30 12938 H 1233.7 0.578734 -0.349347 0
M  V30 12939 H 1236.26 1.33373 -1.56208 0
M  V30 12940 H 1234.49 3.77872 -0.821581 0
M  V30 12941 H 1236.17 3.86788 -1.23085 0
M  V30 12942 H 1236.94 3.21877 -3.62795 0
M  V30 12943 H 1232.82 3.8304 -2.56517 0
M  V30 12944 H 1236.36 3.54888 -6.00583 0
M  V30 12945 H 1232.26 4.16191 -4.93412 0
M  V30 12946 H 1233.03 4.22718 -7.00894 0
M  V30 12947 N 1235.69 0.975146 1.23809 0
M  V30 12948 C 1236.62 0.530389 2.27396 0
M  V30 12949 C 1237.6 -0.433763 1.64476 0
M  V30 12950 O 1238.79 -0.32827 1.91405 0
M  V30 12951 C 1235.92 -0.173066 3.46869 0
M  V30 12952 C 1234.87 0.707844 4.22106 0
M  V30 12953 C 1234.2 -0.127527 5.34548 0
M  V30 12954 C 1235.5 1.99609 4.82652 0
M  V30 12955 H 1237.19 1.39622 2.64851 0
M  V30 12956 H 1234.74 0.672802 1.27316 0
M  V30 12957 H 1236.69 -0.495481 4.18477 0
M  V30 12958 H 1235.41 -1.0733 3.0846 0
M  V30 12959 H 1234.07 1.01364 3.52308 0
M  V30 12960 H 1233.72 -1.02814 4.9238 0
M  V30 12961 H 1233.42 0.458728 5.85807 0
M  V30 12962 H 1234.95 -0.444443 6.0898 0
M  V30 12963 H 1236.36 1.73878 5.46296 0
M  V30 12964 H 1234.76 2.52969 5.44175 0
M  V30 12965 H 1235.83 2.68629 4.03691 0
M  V30 12966 N 1237.17 -1.38817 0.746158 0
M  V30 12967 C 1238.13 -2.28876 0.121886 0
M  V30 12968 C 1239.13 -1.46838 -0.655379 0
M  V30 12969 O 1240.32 -1.67377 -0.482744 0
M  V30 12970 C 1237.45 -3.30487 -0.836118 0
M  V30 12971 H 1238.65 -2.85586 0.915453 0
M  V30 12972 H 1236.2 -1.47652 0.512691 0
M  V30 12973 H 1236.94 -2.78853 -1.65563 0
M  V30 12974 H 1236.72 -3.9109 -0.281271 0
M  V30 12975 H 1238.21 -3.97848 -1.26914 0
M  V30 12976 N 1238.65 -0.49465 -1.49636 0
M  V30 12977 C 1239.9 0.0539277 -2.01628 0
M  V30 12978 C 1240.21 1.38634 -1.37986 0
M  V30 12979 O 1241.42 2.02123 -1.81269 0
M  V30 12980 C 1239.87 0.146582 -3.59601 0
M  V30 12981 C 1239.48 -1.1788 -4.32213 0
M  V30 12982 C 1241.22 0.645862 -4.19558 0
M  V30 12983 C 1239.13 -1.04866 -5.82028 0
M  V30 12984 H 1238.06 0.0239278 -0.75362 0
M  V30 12985 H 1240.71 -0.633112 -1.72232 0
M  V30 12986 H 1239.09 0.897931 -3.85685 0
M  V30 12987 H 1240.27 -1.94295 -4.17835 0
M  V30 12988 H 1238.58 -1.61102 -3.83973 0
M  V30 12989 H 1241.18 0.76064 -5.29262 0
M  V30 12990 H 1241.52 1.64313 -3.82501 0
M  V30 12991 H 1242.06 -0.04877 -3.9777 0
M  V30 12992 H 1238.79 -2.02 -6.23599 0
M  V30 12993 H 1238.31 -0.325293 -5.98917 0
M  V30 12994 H 1239.99 -0.724799 -6.42927 0
M  V30 12995 N 1240.13 1.55939 -0.228214 0
M  V30 12996 C 1241.37 1.98084 0.400884 0
M  V30 12997 C 1241.69 1.11727 1.59819 0
M  V30 12998 O 1240.96 0.195794 1.94919 0
M  V30 12999 H 1239.54 0.731558 0.151102 0
M  V30 13000 H 1242.21 1.92211 -0.322659 0
M  V30 13001 H 1241.3 3.03617 0.722706 0
M  V30 13002 N 1241.6 -0.0451101 1.57535 0
M  V30 13003 C 1242.84 -0.744146 1.90373 0
M  V30 13004 C 1243.21 -1.7337 0.825039 0
M  V30 13005 O 1244.41 -2.4798 1.03726 0
M  V30 13006 C 1242.68 -1.41028 3.28399 0
M  V30 13007 S 1244.24 -2.14069 3.8304 0
M  V30 13008 H 1241.06 -0.246888 0.666759 0
M  V30 13009 H 1243.66 0.000729019 1.955 0
M  V30 13010 H 1242.36 -0.67663 4.04784 0
M  V30 13011 H 1241.89 -2.19404 3.26536 0
M  V30 13012 H 1243.91 -3.40988 3.60474 0
M  V30 13013 N 1243.08 -1.54377 -0.317073 0
M  V30 13014 C 1244.31 -1.76608 -1.07206 0
M  V30 13015 C 1244.72 -0.517818 -1.81976 0
M  V30 13016 O 1244.06 0.521375 -1.76146 0
M  V30 13017 C 1244.13 -2.91 -2.11091 0
M  V30 13018 C 1243.79 -4.29673 -1.55661 0
M  V30 13019 C 1244.79 -5.1029 -0.994999 0
M  V30 13020 C 1242.47 -4.76234 -1.59708 0
M  V30 13021 C 1244.47 -6.35581 -0.48123 0
M  V30 13022 C 1242.15 -6.01491 -1.07944 0
M  V30 13023 C 1243.15 -6.80999 -0.522467 0
M  V30 13024 O 1242.84 -8.03899 -0.0126274 0
M  V30 13025 H 1242.57 -0.593061 -0.32443 0
M  V30 13026 H 1245.12 -2.02097 -0.366859 0
M  V30 13027 H 1243.35 -2.61097 -2.85246 0
M  V30 13028 H 1245.04 -3.00954 -2.72363 0
M  V30 13029 H 1245.81 -4.7547 -0.956752 0
M  V30 13030 H 1241.69 -4.14387 -2.02 0
M  V30 13031 H 1245.23 -6.97585 -0.0458374 0
M  V30 13032 H 1241.13 -6.35801 -1.11478 0
M  V30 13033 H 1241.9 -8.18401 -0.127442 0
M  V30 13034 N 1244.56 0.579466 -1.4656 0
M  V30 13035 C 1245.81 1.33954 -1.52264 0
M  V30 13036 C 1246.14 1.93409 -0.175089 0
M  V30 13037 O 1245.41 1.76654 0.81385 0
M  V30 13038 C 1245.7 2.46645 -2.6237 0
M  V30 13039 C 1245.55 1.92204 -4.06667 0
M  V30 13040 C 1246.87 3.48676 -2.68538 0
M  V30 13041 H 1243.99 0.485697 -0.554317 0
M  V30 13042 H 1246.63 0.650639 -1.78512 0
M  V30 13043 H 1244.78 3.0541 -2.40119 0
M  V30 13044 H 1246.45 1.37871 -4.40215 0
M  V30 13045 H 1244.7 1.23012 -4.15993 0
M  V30 13046 H 1245.37 2.73566 -4.79443 0
M  V30 13047 H 1247.84 2.99798 -2.88549 0
M  V30 13048 H 1246.72 4.24981 -3.47394 0
M  V30 13049 H 1246.98 4.06112 -1.74716 0
M  V30 13050 N 1246.04 1.3432 0.824371 0
M  V30 13051 C 1247.29 1.26345 1.57738 0
M  V30 13052 C 1247.61 -0.166836 1.94285 0
M  V30 13053 O 1246.88 -1.09911 1.62162 0
M  V30 13054 H 1245.46 0.46466 0.584893 0
M  V30 13055 H 1248.12 1.68214 0.984373 0
M  V30 13056 H 1247.22 1.8672 2.50084 0
M  V30 13057 N 1247.52 -1.0444 1.18026 0
M  V30 13058 C 1248.48 -2.10532 0.906028 0
M  V30 13059 C 1249.48 -1.60443 -0.107022 0
M  V30 13060 O 1250.67 -1.73744 0.126001 0
M  V30 13061 C 1247.8 -3.39008 0.358625 0
M  V30 13062 H 1248.99 -2.36293 1.84677 0
M  V30 13063 H 1246.55 -1.20805 0.991763 0
M  V30 13064 H 1247.28 -3.18908 -0.588904 0
M  V30 13065 H 1247.07 -3.76678 1.08884 0
M  V30 13066 H 1248.56 -4.17189 0.185331 0
M  V30 13067 N 1248.99 -0.981699 -1.2329 0
M  V30 13068 C 1249.96 -0.527992 -2.23036 0
M  V30 13069 C 1250.96 0.383083 -1.5617 0
M  V30 13070 O 1252.15 0.176595 -1.73303 0
M  V30 13071 C 1249.28 0.233501 -3.40099 0
M  V30 13072 H 1250.47 -1.40995 -2.64689 0
M  V30 13073 H 1248.03 -0.767724 -1.36146 0
M  V30 13074 H 1248.76 1.13194 -3.03904 0
M  V30 13075 H 1248.55 -0.420505 -3.89839 0
M  V30 13076 H 1250.04 0.539485 -4.14101 0
M  V30 13077 N 1250.47 1.3842 -0.753509 0
M  V30 13078 C 1251.7 2.04403 -0.320449 0
M  V30 13079 C 1252.12 1.5683 1.05118 0
M  V30 13080 O 1251.47 0.741335 1.66765 0
M  V30 13081 C 1251.52 3.59954 -0.333937 0
M  V30 13082 O 1251.24 4.05782 -1.65144 0
M  V30 13083 C 1252.75 4.43156 0.112997 0
M  V30 13084 H 1249.97 0.656881 -0.136927 0
M  V30 13085 H 1252.51 1.77112 -1.02234 0
M  V30 13086 H 1250.66 3.86083 0.319215 0
M  V30 13087 H 1251.08 5.00213 -1.57757 0
M  V30 13088 H 1252.55 5.51975 0.0523995 0
M  V30 13089 H 1253.03 4.23581 1.16087 0
M  V30 13090 H 1253.64 4.22216 -0.511278 0
M  V30 13091 N 1251.95 0.502579 1.49372 0
M  V30 13092 C 1253.2 -0.0414423 2.02758 0
M  V30 13093 C 1253.53 -1.36499 1.38136 0
M  V30 13094 O 1252.8 -1.87487 0.517593 0
M  V30 13095 C 1253.09 -0.192333 3.59586 0
M  V30 13096 C 1252.94 1.15445 4.34733 0
M  V30 13097 C 1254.26 -0.932218 4.30114 0
M  V30 13098 H 1251.38 -0.0135869 0.736875 0
M  V30 13099 H 1254.02 0.654296 1.78379 0
M  V30 13100 H 1252.17 -0.78491 3.80488 0
M  V30 13101 H 1253.84 1.78603 4.25322 0
M  V30 13102 H 1252.09 1.74333 3.97228 0
M  V30 13103 H 1252.76 1.00216 5.42827 0
M  V30 13104 H 1255.23 -0.429632 4.13876 0
M  V30 13105 H 1254.11 -1.00664 5.39591 0
M  V30 13106 H 1254.37 -1.9763 3.95468 0
M  V30 13107 N 1253.43 -1.55816 0.23648 0
M  V30 13108 C 1254.68 -1.98294 -0.390373 0
M  V30 13109 C 1255 -1.12573 -1.59224 0
M  V30 13110 O 1254.27 -0.206128 -1.94813 0
M  V30 13111 H 1252.85 -0.732349 -0.14722 0
M  V30 13112 H 1255.51 -1.92037 0.332848 0
M  V30 13113 H 1254.61 -3.03996 -0.706595 0
M  V30 13114 N 1254.91 0.036755 -1.57557 0
M  V30 13115 C 1255.87 1.02435 -2.05036 0
M  V30 13116 C 1256.87 1.29506 -0.953146 0
M  V30 13117 O 1258.06 1.24638 -1.217 0
M  V30 13118 C 1255.19 2.3592 -2.46079 0
M  V30 13119 H 1256.38 0.614384 -2.93539 0
M  V30 13120 H 1253.94 0.283396 -1.53709 0
M  V30 13121 H 1254.67 2.8168 -1.60708 0
M  V30 13122 H 1254.46 2.17603 -3.26177 0
M  V30 13123 H 1255.95 3.06839 -2.83266 0
M  V30 13124 N 1256.39 1.54543 0.308881 0
M  V30 13125 C 1257.35 1.84214 1.36374 0
M  V30 13126 C 1258.35 0.71463 1.44047 0
M  V30 13127 O 1259.54 0.98293 1.4382 0
M  V30 13128 C 1256.67 2.01535 2.74948 0
M  V30 13129 H 1257.86 2.78477 1.11314 0
M  V30 13130 H 1255.42 1.46485 0.545141 0
M  V30 13131 H 1256.15 1.09533 3.05242 0
M  V30 13132 H 1255.94 2.83595 2.7077 0
M  V30 13133 H 1257.43 2.25888 3.51233 0
M  V30 13134 N 1257.86 -0.571685 1.46866 0
M  V30 13135 C 1258.83 -1.66198 1.57832 0
M  V30 13136 C 1259.83 -1.54242 0.454547 0
M  V30 13137 O 1261.02 -1.58661 0.719191 0
M  V30 13138 C 1258.15 -3.05678 1.5091 0
M  V30 13139 H 1259.34 -1.57829 2.5501 0
M  V30 13140 H 1256.89 -0.790433 1.3484 0
M  V30 13141 H 1257.63 -3.19593 0.550529 0
M  V30 13142 H 1257.41 -3.15765 2.32454 0
M  V30 13143 H 1258.9 -3.85027 1.61692 0
M  V30 13144 N 1259.34 -1.34755 -0.817236 0
M  V30 13145 C 1260.59 -1.28629 -1.57563 0
M  V30 13146 C 1260.94 0.141015 -1.91883 0
M  V30 13147 O 1260.24 1.08874 -1.57661 0
M  V30 13148 C 1260.43 -2.11611 -2.8802 0
M  V30 13149 C 1260.26 -3.62266 -2.66446 0
M  V30 13150 C 1259.03 -4.3153 -2.62887 0
M  V30 13151 C 1261.23 -4.56145 -2.37564 0
M  V30 13152 N 1259.21 -5.67999 -2.32918 0
M  V30 13153 C 1260.58 -5.80658 -2.17339 0
M  V30 13154 C 1262.63 -4.44999 -2.23339 0
M  V30 13155 C 1261.34 -6.9528 -1.8433 0
M  V30 13156 C 1263.36 -5.5946 -1.91726 0
M  V30 13157 C 1262.73 -6.82995 -1.72329 0
M  V30 13158 H 1258.82 -0.52593 -0.578724 0
M  V30 13159 H 1261.41 -1.69527 -0.957533 0
M  V30 13160 H 1259.58 -1.73 -3.47743 0
M  V30 13161 H 1261.31 -1.97085 -3.53468 0
M  V30 13162 H 1258.07 -3.84029 -2.77162 0
M  V30 13163 H 1258.49 -6.39996 -2.20757 0
M  V30 13164 H 1263.13 -3.50104 -2.37037 0
M  V30 13165 H 1260.85 -7.90152 -1.69369 0
M  V30 13166 H 1264.44 -5.52784 -1.81443 0
M  V30 13167 H 1263.32 -7.70065 -1.48222 0
M  V30 13168 N 1260.82 1.03812 -1.18578 0
M  V30 13169 C 1262.07 1.77447 -0.994191 0
M  V30 13170 C 1262.42 1.86546 0.470974 0
M  V30 13171 O 1261.71 1.3644 1.34517 0
M  V30 13172 C 1261.91 3.20297 -1.5857 0
M  V30 13173 C 1261.74 3.25122 -3.10686 0
M  V30 13174 C 1260.51 3.33604 -3.79521 0
M  V30 13175 C 1262.7 3.12923 -4.08147 0
M  V30 13176 N 1260.69 3.27705 -5.19117 0
M  V30 13177 C 1262.06 3.14553 -5.34281 0
M  V30 13178 C 1264.11 2.96983 -3.99631 0
M  V30 13179 C 1262.82 3.0188 -6.52887 0
M  V30 13180 C 1264.84 2.85657 -5.17836 0
M  V30 13181 C 1264.2 2.87933 -6.42864 0
M  V30 13182 H 1260.3 0.661013 -0.417835 0
M  V30 13183 H 1262.89 1.23648 -1.50397 0
M  V30 13184 H 1261.06 3.72437 -1.10207 0
M  V30 13185 H 1262.79 3.82243 -1.32937 0
M  V30 13186 H 1259.54 3.39442 -3.30266 0
M  V30 13187 H 1259.97 3.28188 -5.92133 0
M  V30 13188 H 1264.61 2.94052 -3.03798 0
M  V30 13189 H 1262.33 3.03563 -7.48916 0
M  V30 13190 H 1265.91 2.74374 -5.1304 0
M  V30 13191 H 1264.79 2.79259 -7.32792 0
M  V30 13192 N 1262.3 0.988223 1.22768 0
M  V30 13193 C 1263.54 0.661461 1.91392 0
M  V30 13194 C 1263.87 -0.805942 1.77016 0
M  V30 13195 O 1263.13 -1.5978 1.12999 0
M  V30 13196 C 1263.43 1.00744 3.42907 0
M  V30 13197 C 1263.09 2.46634 3.77469 0
M  V30 13198 C 1261.75 2.86503 3.86613 0
M  V30 13199 C 1264.11 3.41217 3.9398 0
M  V30 13200 C 1261.43 4.19954 4.09702 0
M  V30 13201 C 1263.79 4.74321 4.18572 0
M  V30 13202 C 1262.45 5.13938 4.25939 0
M  V30 13203 H 1261.72 0.242046 0.700353 0
M  V30 13204 H 1264.37 1.24354 1.45631 0
M  V30 13205 H 1262.67 0.34338 3.90292 0
M  V30 13206 H 1264.37 0.732714 3.94249 0
M  V30 13207 H 1260.96 2.14729 3.70931 0
M  V30 13208 H 1265.14 3.11589 3.86298 0
M  V30 13209 H 1260.4 4.50243 4.13631 0
M  V30 13210 H 1264.57 5.47561 4.30291 0
M  V30 13211 H 1262.2 6.17364 4.43583 0
M  V30 13212 N 1263.78 -1.38018 0.760839 0
M  V30 13213 C 1265.02 -1.99194 0.316984 0
M  V30 13214 C 1265.34 -1.61083 -1.10958 0
M  V30 13215 O 1266.54 -2.15281 -1.65428 0
M  V30 13216 C 1265 -3.56185 0.515792 0
M  V30 13217 C 1264.61 -4.03242 1.95191 0
M  V30 13218 C 1266.35 -4.24285 0.135013 0
M  V30 13219 C 1264.26 -5.52902 2.0989 0
M  V30 13220 H 1263.19 -0.745214 0.114771 0
M  V30 13221 H 1265.84 -1.5769 0.938415 0
M  V30 13222 H 1264.22 -3.95613 -0.174934 0
M  V30 13223 H 1265.4 -3.75086 2.6767 0
M  V30 13224 H 1263.71 -3.47889 2.28827 0
M  V30 13225 H 1266.31 -5.34233 0.223495 0
M  V30 13226 H 1266.65 -4.06158 -0.913322 0
M  V30 13227 H 1267.18 -3.90121 0.777868 0
M  V30 13228 H 1263.92 -5.75942 3.13003 0
M  V30 13229 H 1263.44 -5.82778 1.41881 0
M  V30 13230 H 1265.12 -6.18709 1.89229 0
M  V30 13231 N 1265.25 -0.510493 -1.49103 0
M  V30 13232 C 1266.22 0.251915 -2.27811 0
M  V30 13233 C 1267.22 0.885432 -1.34226 0
M  V30 13234 O 1268.41 0.748494 -1.573 0
M  V30 13235 C 1265.54 1.3624 -3.12492 0
M  V30 13236 H 1266.73 -0.438872 -2.96671 0
M  V30 13237 H 1264.28 -0.265767 -1.54024 0
M  V30 13238 H 1265.02 2.08705 -2.48219 0
M  V30 13239 H 1264.8 0.913485 -3.81311 0
M  V30 13240 H 1266.29 1.89919 -3.71915 0
M  V30 13241 N 1266.73 1.55688 -0.24474 0
M  V30 13242 C 1267.69 2.20014 0.642382 0
M  V30 13243 C 1268.69 1.16877 1.10437 0
M  V30 13244 O 1269.88 1.41972 1.00943 0
M  V30 13245 C 1267.02 2.84198 1.88267 0
M  V30 13246 H 1268.21 2.9979 0.0811937 0
M  V30 13247 H 1265.76 1.56299 0.00480917 0
M  V30 13248 H 1266.5 2.08354 2.48514 0
M  V30 13249 H 1266.28 3.59747 1.55963 0
M  V30 13250 H 1267.77 3.33434 2.5142 0
M  V30 13251 N 1268.21 -0.0283989 1.57574 0
M  V30 13252 C 1269.49 -0.754527 1.80461 0
M  V30 13253 C 1269.87 -1.93539 0.842966 0
M  V30 13254 O 1269.21 -2.28212 -0.114714 0
M  V30 13255 C 1269.42 -1.18694 3.28196 0
M  V30 13256 C 1270.77 -1.60257 3.93196 0
M  V30 13257 O 1271.8 -1.2815 3.32349 0
M  V30 13258 O 1270.66 -2.19853 5.00327 0
M  V30 13259 H 1267.75 -0.364936 0.742126 0
M  V30 13260 H 1270.3 -0.00512589 1.69699 0
M  V30 13261 H 1269.07 -0.34398 3.89785 0
M  V30 13262 H 1268.69 -1.99633 3.43849 0
M  V30 13263 N 1269.69 -1.54705 -0.300681 0
M  V30 13264 C 1270.94 -1.73658 -1.0338 0
M  V30 13265 C 1271.26 -0.525447 -1.87787 0
M  V30 13266 O 1270.53 0.460269 -1.90416 0
M  V30 13267 H 1269.11 -0.640338 -0.384677 0
M  V30 13268 H 1271.77 -1.92059 -0.331588 0
M  V30 13269 H 1270.86 -2.62595 -1.68672 0
M  V30 13270 N 1271.17 0.563888 -1.47167 0
M  V30 13271 C 1272.41 1.31875 -1.53145 0
M  V30 13272 C 1272.74 1.94047 -0.192518 0
M  V30 13273 O 1272.01 1.79577 0.782872 0
M  V30 13274 H 1270.59 0.489694 -0.5641 0
M  V30 13275 H 1273.25 0.658976 -1.83422 0
M  V30 13276 H 1272.34 2.11574 -2.2944 0
M  V30 13277 N 1272.64 1.35187 0.810078 0
M  V30 13278 C 1274.06 1.25329 1.38381 0
M  V30 13279 C 1274.41 -0.115799 1.95858 0
M  V30 13280 O 1273.53 -1.01663 1.91033 0
M  V30 13281 C 1274.13 2.2693 2.51572 0
M  V30 13282 C 1272.69 2.20824 3.04818 0
M  V30 13283 C 1271.83 2.1283 1.7776 0
M  V30 13284 H 1274.78 1.46366 0.613402 0
M  V30 13285 H 1274.8 1.89375 3.30026 0
M  V30 13286 H 1274.32 3.26563 2.09709 0
M  V30 13287 H 1272.42 1.24589 3.51153 0
M  V30 13288 H 1272.53 3.12637 3.63036 0
M  V30 13289 H 1270.89 1.58752 1.99173 0
M  V30 13290 H 1271.68 3.14318 1.38054 0
M  V30 13291 N 1274.12 -1.03182 1.19127 0
M  V30 13292 C 1275.54 -1.28773 0.942854 0
M  V30 13293 C 1275.74 -1.97759 -0.386483 0
M  V30 13294 O 1274.79 -2.26365 -1.1187 0
M  V30 13295 C 1276.11 -2.13771 2.11476 0
M  V30 13296 C 1277.66 -2.27089 2.15406 0
M  V30 13297 C 1278.13 -3.15458 3.32039 0
M  V30 13298 N 1279.62 -3.23046 3.31957 0
M  V30 13299 C 1280.36 -3.91604 4.18848 0
M  V30 13300 N 1279.85 -4.62418 5.15889 0
M  V30 13301 N 1281.65 -3.87974 4.06734 0
M  V30 13302 H 1273.8 -0.568165 2.0466 0
M  V30 13303 H 1276.06 -0.31328 0.89474 0
M  V30 13304 H 1275.77 -1.704 3.07663 0
M  V30 13305 H 1275.64 -3.14476 2.0829 0
M  V30 13306 H 1278.03 -2.69693 1.19791 0
M  V30 13307 H 1278.11 -1.25945 2.22647 0
M  V30 13308 H 1277.75 -2.73564 4.27931 0
M  V30 13309 H 1277.68 -4.16654 3.22035 0
M  V30 13310 H 1280.17 -2.7261 2.6171 0
M  V30 13311 H 1280.49 -5.12353 5.78545 0
M  V30 13312 H 1278.83 -4.61293 5.1984 0
M  V30 13313 H 1282.02 -3.31789 3.30202 0
M  V30 13314 H 1282.19 -4.4113 4.74666 0
M  V30 13315 N 1275.6 -0.99472 -1.22242 0
M  V30 13316 C 1276.85 -0.672596 -1.91322 0
M  V30 13317 C 1277.18 0.793542 -1.77247 0
M  V30 13318 O 1276.45 1.57407 -1.14251 0
M  V30 13319 C 1276.74 -1.08155 -3.43474 0
M  V30 13320 C 1276.59 -2.60638 -3.6659 0
M  V30 13321 C 1277.91 -0.636161 -4.35478 0
M  V30 13322 H 1275.03 -0.24582 -0.694796 0
M  V30 13323 H 1277.67 -1.23857 -1.44082 0
M  V30 13324 H 1275.82 -0.599987 -3.83839 0
M  V30 13325 H 1277.49 -3.16479 -3.35617 0
M  V30 13326 H 1275.74 -3.02624 -3.10808 0
M  V30 13327 H 1276.41 -2.84304 -4.73155 0
M  V30 13328 H 1278.88 -1.04982 -4.02639 0
M  V30 13329 H 1277.76 -0.950584 -5.40606 0
M  V30 13330 H 1278.02 0.4631 -4.39668 0
M  V30 13331 N 1277.08 1.37613 -0.768148 0
M  V30 13332 C 1278.3 2.04579 -0.340892 0
M  V30 13333 C 1278.73 1.57556 1.02751 0
M  V30 13334 O 1278.09 0.734151 1.65771 0
M  V30 13335 C 1278.13 3.58495 -0.389099 0
M  V30 13336 O 1277.24 4.07838 0.611741 0
M  V30 13337 H 1276.58 0.647246 -0.148216 0
M  V30 13338 H 1279.11 1.75999 -1.04333 0
M  V30 13339 H 1279.12 4.07263 -0.245116 0
M  V30 13340 H 1277.79 3.92076 -1.38742 0
M  V30 13341 H 1276.37 3.70399 0.431173 0
M  V30 13342 N 1278.56 0.518393 1.4883 0
M  V30 13343 C 1279.8 -0.0199053 2.0249 0
M  V30 13344 C 1280.13 -1.35375 1.39657 0
M  V30 13345 O 1279.39 -1.88454 0.527586 0
M  V30 13346 C 1279.69 -0.203001 3.56823 0
M  V30 13347 C 1279.35 1.05502 4.38384 0
M  V30 13348 C 1278.01 1.39982 4.60389 0
M  V30 13349 C 1280.37 1.89042 4.85708 0
M  V30 13350 C 1277.69 2.57922 5.26966 0
M  V30 13351 C 1280.05 3.06151 5.53583 0
M  V30 13352 C 1278.71 3.40991 5.73831 0
M  V30 13353 H 1277.98 -0.00728388 0.740964 0
M  V30 13354 H 1280.63 0.682073 1.78941 0
M  V30 13355 H 1278.93 -0.987653 3.79147 0
M  V30 13356 H 1280.63 -0.634234 3.95953 0
M  V30 13357 H 1277.22 0.77647 4.21508 0
M  V30 13358 H 1281.4 1.63716 4.6852 0
M  V30 13359 H 1276.66 2.85132 5.40842 0
M  V30 13360 H 1280.83 3.71198 5.89224 0
M  V30 13361 H 1278.46 4.32479 6.25193 0
M  V30 13362 N 1280.03 -1.55556 0.252993 0
M  V30 13363 C 1281.26 -2.03196 -0.37348 0
M  V30 13364 C 1281.67 -1.13145 -1.51641 0
M  V30 13365 O 1281.02 -0.139519 -1.83169 0
M  V30 13366 C 1281.08 -3.47066 -0.937308 0
M  V30 13367 C 1280.74 -4.5694 0.0741513 0
M  V30 13368 C 1281.74 -5.12297 0.885862 0
M  V30 13369 C 1279.42 -5.01894 0.202003 0
M  V30 13370 C 1281.42 -6.11107 1.81182 0
M  V30 13371 C 1279.1 -6.00534 1.13146 0
M  V30 13372 C 1280.1 -6.5502 1.93489 0
M  V30 13373 O 1279.79 -7.51735 2.84868 0
M  V30 13374 H 1279.52 -0.669687 -0.092171 0
M  V30 13375 H 1282.08 -2.01924 0.376264 0
M  V30 13376 H 1280.31 -3.45507 -1.73672 0
M  V30 13377 H 1282 -3.78171 -1.47451 0
M  V30 13378 H 1282.76 -4.78395 0.797707 0
M  V30 13379 H 1278.64 -4.59144 -0.413301 0
M  V30 13380 H 1282.18 -6.53561 2.43935 0
M  V30 13381 H 1278.08 -6.33856 1.22052 0
M  V30 13382 H 1278.85 -7.69373 2.79298 0
M  V30 13383 N 1281.51 0.0200419 -1.57587 0
M  V30 13384 C 1282.44 1.0456 -2.0396 0
M  V30 13385 C 1283.46 1.31922 -0.953962 0
M  V30 13386 O 1284.65 1.2925 -1.23112 0
M  V30 13387 C 1281.75 2.38514 -2.40758 0
M  V30 13388 C 1280.92 2.3038 -3.71812 0
M  V30 13389 C 1279.98 3.46856 -3.95698 0
M  V30 13390 O 1279 3.25944 -4.66636 0
M  V30 13391 N 1280.21 4.69033 -3.42036 0
M  V30 13392 H 1282.97 0.650282 -2.9256 0
M  V30 13393 H 1280.53 0.207818 -1.60561 0
M  V30 13394 H 1282.52 3.15172 -2.53868 0
M  V30 13395 H 1281.09 2.69859 -1.57781 0
M  V30 13396 H 1280.31 1.38762 -3.6897 0
M  V30 13397 H 1281.6 2.22097 -4.57767 0
M  V30 13398 H 1281 4.88923 -2.84553 0
M  V30 13399 H 1279.56 5.43025 -3.6051 0
M  V30 13400 N 1282.99 1.54862 0.292472 0
M  V30 13401 C 1283.92 1.89406 1.36556 0
M  V30 13402 C 1284.9 0.753838 1.52484 0
M  V30 13403 O 1286.09 1.01031 1.6585 0
M  V30 13404 C 1283.22 2.14888 2.72838 0
M  V30 13405 C 1282.17 3.3073 2.71665 0
M  V30 13406 C 1281.5 3.41648 4.11316 0
M  V30 13407 C 1282.8 4.67622 2.32651 0
M  V30 13408 H 1284.49 2.79284 1.07894 0
M  V30 13409 H 1282.04 1.34377 0.517585 0
M  V30 13410 H 1283.99 2.3764 3.48002 0
M  V30 13411 H 1282.71 1.2179 3.03042 0
M  V30 13412 H 1281.37 3.07915 1.98958 0
M  V30 13413 H 1281.02 2.46051 4.38711 0
M  V30 13414 H 1280.72 4.19522 4.11431 0
M  V30 13415 H 1282.24 3.6667 4.88248 0
M  V30 13416 H 1283.66 4.90048 2.97533 0
M  V30 13417 H 1282.06 5.48272 2.43963 0
M  V30 13418 H 1283.13 4.67762 1.27777 0
M  V30 13419 N 1284.47 -0.556076 1.47464 0
M  V30 13420 C 1285.69 -1.3434 1.58011 0
M  V30 13421 C 1286.12 -1.86674 0.231138 0
M  V30 13422 O 1285.48 -1.63029 -0.793174 0
M  V30 13423 C 1285.52 -2.48844 2.60977 0
M  V30 13424 O 1284.63 -3.51108 2.16326 0
M  V30 13425 H 1283.97 -0.398986 0.53076 0
M  V30 13426 H 1286.5 -0.671898 1.93253 0
M  V30 13427 H 1286.51 -2.95398 2.81432 0
M  V30 13428 H 1285.18 -2.10109 3.58925 0
M  V30 13429 H 1283.76 -3.10852 2.05975 0
M  V30 13430 N 1285.95 -1.35615 -0.802897 0
M  V30 13431 C 1286.9 -1.25378 -1.90432 0
M  V30 13432 C 1287.88 -0.148217 -1.60216 0
M  V30 13433 O 1289.07 -0.379783 -1.72878 0
M  V30 13434 C 1286.2 -1.03172 -3.2743 0
M  V30 13435 C 1285.29 -2.18135 -3.637 0
M  V30 13436 N 1285.68 -3.43382 -3.71379 0
M  V30 13437 C 1283.98 -2.09603 -3.93678 0
M  V30 13438 C 1284.68 -4.19004 -4.03498 0
M  V30 13439 N 1283.65 -3.47799 -4.17776 0
M  V30 13440 H 1287.46 -2.20267 -1.94576 0
M  V30 13441 H 1284.97 -1.2814 -0.997687 0
M  V30 13442 H 1286.97 -0.939264 -4.06182 0
M  V30 13443 H 1285.63 -0.0917091 -3.2457 0
M  V30 13444 H 1286.64 -3.77687 -3.54363 0
M  V30 13445 H 1283.32 -1.23479 -3.98822 0
M  V30 13446 H 1284.71 -5.27255 -4.16476 0
M  V30 13447 N 1287.43 1.02549 -1.19673 0
M  V30 13448 C 1288.67 1.76004 -1.00144 0
M  V30 13449 C 1289 1.888 0.467423 0
M  V30 13450 O 1288.26 1.404 1.36331 0
M  V30 13451 C 1288.55 3.18597 -1.61959 0
M  V30 13452 C 1288.22 3.258 -3.11713 0
M  V30 13453 C 1286.88 3.27473 -3.52583 0
M  V30 13454 C 1289.23 3.24675 -4.0772 0
M  V30 13455 C 1286.56 3.25681 -4.88005 0
M  V30 13456 C 1288.91 3.24424 -5.43076 0
M  V30 13457 C 1287.58 3.24396 -5.83372 0
M  V30 13458 H 1286.85 0.644044 -0.366453 0
M  V30 13459 H 1289.5 1.20338 -1.48966 0
M  V30 13460 H 1287.8 3.77364 -1.05375 0
M  V30 13461 H 1289.5 3.74109 -1.44374 0
M  V30 13462 H 1286.09 3.25228 -2.7915 0
M  V30 13463 H 1290.27 3.2256 -3.77185 0
M  V30 13464 H 1285.53 3.23986 -5.18501 0
M  V30 13465 H 1289.7 3.22504 -6.17223 0
M  V30 13466 H 1287.33 3.22762 -6.8828 0
M  V30 13467 N 1288.9 1.00119 1.21713 0
M  V30 13468 C 1289.83 0.578504 2.2622 0
M  V30 13469 C 1290.81 -0.398777 1.6536 0
M  V30 13470 O 1292 -0.287596 1.92059 0
M  V30 13471 C 1289.13 -0.0994508 3.47158 0
M  V30 13472 C 1288.08 0.79722 4.2051 0
M  V30 13473 C 1287.41 -0.0141125 5.34698 0
M  V30 13474 C 1288.71 2.09802 4.7831 0
M  V30 13475 H 1290.4 1.45208 2.6183 0
M  V30 13476 H 1287.95 0.699656 1.2586 0
M  V30 13477 H 1289.9 -0.406605 4.19434 0
M  V30 13478 H 1288.63 -1.00763 3.10667 0
M  V30 13479 H 1287.29 1.08814 3.50079 0
M  V30 13480 H 1286.93 -0.923468 4.9445 0
M  V30 13481 H 1286.63 0.582883 5.84702 0
M  V30 13482 H 1288.16 -0.31517 6.09786 0
M  V30 13483 H 1289.57 1.85427 5.42485 0
M  V30 13484 H 1287.97 2.64455 5.38687 0
M  V30 13485 H 1289.04 2.77132 3.97902 0
M  V30 13486 N 1290.38 -1.37203 0.775435 0
M  V30 13487 C 1291.31 -2.28873 0.122374 0
M  V30 13488 C 1292.33 -1.48811 -0.660239 0
M  V30 13489 O 1293.52 -1.7142 -0.497724 0
M  V30 13490 C 1290.62 -3.28062 -0.850212 0
M  V30 13491 C 1289.79 -4.37234 -0.120633 0
M  V30 13492 C 1288.85 -5.16472 -1.00712 0
M  V30 13493 O 1287.87 -5.6726 -0.469528 0
M  V30 13494 N 1289.08 -5.31556 -2.33299 0
M  V30 13495 H 1291.84 -2.85559 0.909741 0
M  V30 13496 H 1289.4 -1.49219 0.628107 0
M  V30 13497 H 1291.39 -3.77956 -1.44678 0
M  V30 13498 H 1289.96 -2.72118 -1.53853 0
M  V30 13499 H 1289.18 -3.88688 0.656879 0
M  V30 13500 H 1290.47 -5.07354 0.383358 0
M  V30 13501 H 1289.87 -4.91883 -2.79406 0
M  V30 13502 H 1288.43 -5.84745 -2.87953 0
M  V30 13503 N 1291.86 -0.526279 -1.48553 0
M  V30 13504 C 1293.1 0.00720852 -2.04399 0
M  V30 13505 C 1293.46 1.31928 -1.39495 0
M  V30 13506 O 1294.66 1.93857 -1.86206 0
M  V30 13507 C 1292.94 0.130517 -3.57162 0
M  V30 13508 S 1294.49 0.614604 -4.34474 0
M  V30 13509 H 1291.31 -0.0102902 -0.710926 0
M  V30 13510 H 1293.91 -0.705998 -1.82307 0
M  V30 13511 H 1292.62 -0.829304 -4.01934 0
M  V30 13512 H 1292.15 0.868213 -3.837 0
M  V30 13513 H 1294.16 1.87973 -4.59217 0
M  V30 13514 N 1293.34 1.5542 -0.261239 0
M  V30 13515 C 1294.28 2.21972 0.632216 0
M  V30 13516 C 1295.25 1.18843 1.16041 0
M  V30 13517 O 1296.44 1.47339 1.21226 0
M  V30 13518 C 1293.58 2.93397 1.81693 0
M  V30 13519 C 1292.69 4.11214 1.3239 0
M  V30 13520 C 1291.83 4.70318 2.46931 0
M  V30 13521 C 1290.87 5.80355 1.94561 0
M  V30 13522 N 1290 6.33581 3.02523 0
M  V30 13523 H 1294.84 2.97944 0.058018 0
M  V30 13524 H 1292.38 1.4709 0.0168725 0
M  V30 13525 H 1294.34 3.33015 2.5131 0
M  V30 13526 H 1292.97 2.19874 2.36337 0
M  V30 13527 H 1292.02 3.76811 0.521292 0
M  V30 13528 H 1293.33 4.90609 0.900214 0
M  V30 13529 H 1292.49 5.12584 3.24565 0
M  V30 13530 H 1291.23 3.90169 2.92608 0
M  V30 13531 H 1290.23 5.37552 1.15402 0
M  V30 13532 H 1291.46 6.62364 1.49836 0
M  V30 13533 H 1289.4 5.56332 3.47608 0
M  V30 13534 H 1289.32 7.08209 2.64529 0
M  V30 13535 H 1290.59 6.80506 3.80174 0
M  V30 13536 N 1294.82 -0.0116844 1.57596 0
M  V30 13537 C 1295.73 -1.02342 2.111 0
M  V30 13538 C 1296.74 -1.38478 1.05355 0
M  V30 13539 O 1297.92 -1.47447 1.37191 0
M  V30 13540 C 1294.98 -2.30016 2.5941 0
M  V30 13541 C 1294.04 -2.003 3.79708 0
M  V30 13542 C 1293.28 -3.21888 4.25704 0
M  V30 13543 O 1293.5 -4.33171 3.71106 0
M  V30 13544 O 1292.43 -3.0657 5.17975 0
M  V30 13545 H 1296.26 -0.598637 2.97742 0
M  V30 13546 H 1293.84 -0.229779 1.47622 0
M  V30 13547 H 1295.73 -3.05044 2.90733 0
M  V30 13548 H 1294.4 -2.71755 1.75871 0
M  V30 13549 H 1293.31 -1.22785 3.53376 0
M  V30 13550 H 1294.64 -1.63406 4.64284 0
M  V30 13551 N 1296.29 -1.55015 -0.284256 0
M  V30 13552 C 1297.57 -1.6579 -1.03794 0
M  V30 13553 C 1297.95 -0.517029 -2.04671 0
M  V30 13554 O 1297.3 0.484287 -2.23309 0
M  V30 13555 C 1297.51 -3.04527 -1.70483 0
M  V30 13556 C 1298.86 -3.61903 -2.22062 0
M  V30 13557 O 1299.88 -3.07087 -1.80488 0
M  V30 13558 O 1298.74 -4.57917 -2.98286 0
M  V30 13559 H 1295.83 -0.672906 -0.480757 0
M  V30 13560 H 1298.38 -1.67357 -0.281009 0
M  V30 13561 H 1297.15 -3.79004 -0.973238 0
M  V30 13562 H 1296.77 -3.0681 -2.5289 0
M  V30 13563 N 1297.77 0.548248 -1.47757 0
M  V30 13564 C 1298.72 1.67553 -1.61335 0
M  V30 13565 C 1299.71 1.62447 -0.480335 0
M  V30 13566 O 1300.92 1.67525 -0.658445 0
M  V30 13567 H 1297.29 0.55457 -0.507894 0
M  V30 13568 H 1299.27 1.53239 -2.56047 0
M  V30 13569 C 1298.01 3.05883 -1.6532 0
M  V30 13570 H 1297.34 3.10497 -2.51856 0
M  V30 13571 H 1298.78 3.84424 -1.78868 0
M  V30 13572 C 1297.24 3.34656 -0.388238 0
M  V30 13573 O 1297.77 3.9849 0.506816 0
M  V30 13574 N 1295.97 2.89384 -0.265514 0
M  V30 13575 H 1295.52 2.37615 -0.994819 0
M  V30 13576 H 1295.48 3.09006 0.579889 0
M  V30 13577 N 1299.25 1.36039 0.795694 0
M  V30 13578 C 1300.66 1.2679 1.37044 0
M  V30 13579 C 1301.01 -0.0950192 1.9597 0
M  V30 13580 O 1300.14 -0.996311 1.921 0
M  V30 13581 C 1300.73 2.29585 2.49151 0
M  V30 13582 C 1299.29 2.24044 3.02458 0
M  V30 13583 C 1298.44 2.14703 1.75493 0
M  V30 13584 H 1301.39 1.47009 0.597843 0
M  V30 13585 H 1301.41 1.92864 3.27999 0
M  V30 13586 H 1300.92 3.28769 2.06234 0
M  V30 13587 H 1299.02 1.28307 3.49812 0
M  V30 13588 H 1299.14 3.1647 3.597 0
M  V30 13589 H 1297.5 1.60856 1.97478 0
M  V30 13590 H 1298.28 3.15765 1.34713 0
M  V30 13591 N 1300.73 -1.01913 1.20215 0
M  V30 13592 C 1302.01 -1.7262 0.919867 0
M  V30 13593 C 1302.39 -2.03203 -0.572001 0
M  V30 13594 O 1301.73 -1.69448 -1.53296 0
M  V30 13595 C 1301.94 -2.9959 1.79016 0
M  V30 13596 C 1303.29 -3.72905 2.03045 0
M  V30 13597 O 1304.32 -3.0954 1.76249 0
M  V30 13598 O 1303.17 -4.86844 2.48285 0
M  V30 13599 H 1300.27 -0.752194 0.343705 0
M  V30 13600 H 1302.81 -1.07783 1.31076 0
M  V30 13601 H 1301.59 -2.73292 2.80048 0
M  V30 13602 H 1301.21 -3.72168 1.39918 0
M  V30 13603 N 1302.21 -1.00763 -1.2118 0
M  V30 13604 C 1303.45 -0.691826 -1.90316 0
M  V30 13605 C 1303.78 0.777678 -1.78276 0
M  V30 13606 O 1303.04 1.57962 -1.15526 0
M  V30 13607 C 1303.34 -1.06187 -3.41261 0
M  V30 13608 C 1303 -2.52608 -3.73497 0
M  V30 13609 C 1301.66 -2.92617 -3.82006 0
M  V30 13610 C 1304.02 -3.47442 -3.88502 0
M  V30 13611 C 1301.34 -4.26419 -4.02969 0
M  V30 13612 C 1303.7 -4.8092 -4.10973 0
M  V30 13613 C 1302.36 -5.20649 -4.17709 0
M  V30 13614 H 1301.63 -0.253157 -0.696414 0
M  V30 13615 H 1304.28 -1.26655 -1.43634 0
M  V30 13616 H 1302.58 -0.405428 -3.89697 0
M  V30 13617 H 1304.28 -0.795343 -3.93033 0
M  V30 13618 H 1300.87 -2.20603 -3.67468 0
M  V30 13619 H 1305.05 -3.17695 -3.81292 0
M  V30 13620 H 1300.31 -4.56767 -4.06416 0
M  V30 13621 H 1304.48 -5.54337 -4.21525 0
M  V30 13622 H 1302.11 -6.24343 -4.33705 0
M  V30 13623 N 1303.68 1.3679 -0.7827 0
M  V30 13624 C 1304.59 2.33928 -0.17747 0
M  V30 13625 C 1305.61 1.60716 0.666802 0
M  V30 13626 O 1306.79 1.92742 0.584162 0
M  V30 13627 C 1303.85 3.39907 0.68294 0
M  V30 13628 C 1302.91 4.28926 -0.179053 0
M  V30 13629 C 1302.15 5.29844 0.640386 0
M  V30 13630 O 1302.37 5.38639 1.87681 0
M  V30 13631 O 1301.3 6.01884 0.0438164 0
M  V30 13632 H 1305.13 2.87439 -0.980441 0
M  V30 13633 H 1302.71 1.39142 -0.54404 0
M  V30 13634 H 1304.6 4.04722 1.17379 0
M  V30 13635 H 1303.27 2.88706 1.46391 0
M  V30 13636 H 1302.18 3.67174 -0.716512 0
M  V30 13637 H 1303.51 4.83461 -0.923377 0
M  V30 13638 N 1305.16 0.53415 1.48272 0
M  V30 13639 C 1306.41 0.00156948 2.021 0
M  V30 13640 C 1306.73 -1.34371 1.41313 0
M  V30 13641 O 1306 -1.87117 0.579996 0
M  V30 13642 H 1304.58 -0.00240789 0.746996 0
M  V30 13643 H 1307.24 0.698928 1.81937 0
M  V30 13644 H 1306.34 -0.103671 3.11928 0
M  V30 13645 N 1306.64 -1.55279 0.269478 0
M  V30 13646 C 1307.89 -1.99767 -0.34943 0
M  V30 13647 C 1308.22 -1.15762 -1.55926 0
M  V30 13648 O 1307.49 -0.22633 -1.93179 0
M  V30 13649 C 1307.78 -3.52474 -0.73716 0
M  V30 13650 C 1307.63 -4.47236 0.479621 0
M  V30 13651 C 1308.95 -4.10924 -1.57573 0
M  V30 13652 H 1306.07 -0.72623 -0.125535 0
M  V30 13653 H 1308.71 -1.86257 0.375298 0
M  V30 13654 H 1306.86 -3.64118 -1.35464 0
M  V30 13655 H 1308.53 -4.47543 1.11816 0
M  V30 13656 H 1306.78 -4.19127 1.11871 0
M  V30 13657 H 1307.45 -5.51754 0.164653 0
M  V30 13658 H 1309.92 -4.02522 -1.05429 0
M  V30 13659 H 1308.8 -5.17995 -1.81584 0
M  V30 13660 H 1309.06 -3.60798 -2.55495 0
M  V30 13661 N 1308.12 0.00332656 -1.576 0
M  V30 13662 C 1309.4 0.725722 -1.81639 0
M  V30 13663 C 1309.78 1.92173 -0.87365 0
M  V30 13664 O 1309.12 2.28365 0.0783931 0
M  V30 13665 C 1309.33 1.13458 -3.30043 0
M  V30 13666 C 1310.68 1.53982 -3.95695 0
M  V30 13667 O 1311.71 1.22846 -3.34346 0
M  V30 13668 O 1310.56 2.11866 -5.03761 0
M  V30 13669 H 1307.66 0.353083 -0.747838 0
M  V30 13670 H 1310.2 -0.0218724 -1.69686 0
M  V30 13671 H 1308.98 0.281925 -3.90283 0
M  V30 13672 H 1308.6 1.94138 -3.46982 0
M  V30 13673 N 1309.6 1.55164 0.276031 0
M  V30 13674 C 1310.84 1.77377 1.01572 0
M  V30 13675 C 1311.2 0.56142 1.83608 0
M  V30 13676 O 1312.4 0.661745 2.60527 0
M  V30 13677 C 1310.67 3.0412 1.87738 0
M  V30 13678 S 1312.23 3.4744 2.68013 0
M  V30 13679 H 1309.05 0.62326 0.342153 0
M  V30 13680 H 1311.65 1.9339 0.286456 0
M  V30 13681 H 1310.36 3.90453 1.26389 0
M  V30 13682 H 1309.89 2.90764 2.6499 0
M  V30 13683 H 1311.9 3.06474 3.90241 0
M  V30 13684 N 1311.07 -0.540404 1.48045 0
M  V30 13685 C 1312.04 -1.62813 1.61322 0
M  V30 13686 C 1313.04 -1.53243 0.487161 0
M  V30 13687 O 1314.23 -1.571 0.752684 0
M  V30 13688 C 1311.36 -3.02408 1.5736 0
M  V30 13689 H 1312.55 -1.52385 2.583 0
M  V30 13690 H 1310.11 -0.761654 1.36486 0
M  V30 13691 H 1310.84 -3.18353 0.618195 0
M  V30 13692 H 1310.63 -3.10763 2.39099 0
M  V30 13693 H 1312.12 -3.8151 1.69822 0
M  V30 13694 N 1312.55 -1.36459 -0.788468 0
M  V30 13695 C 1313.8 -1.3007 -1.54158 0
M  V30 13696 C 1314.11 0.117574 -1.95246 0
M  V30 13697 O 1315.32 0.303837 -2.69795 0
M  V30 13698 C 1313.78 -2.28216 -2.78291 0
M  V30 13699 C 1313.38 -3.75484 -2.44368 0
M  V30 13700 C 1315.13 -2.30806 -3.56271 0
M  V30 13701 C 1313.04 -4.65404 -3.64902 0
M  V30 13702 H 1311.97 -0.483345 -0.5787 0
M  V30 13703 H 1314.62 -1.61827 -0.865123 0
M  V30 13704 H 1313 -1.89454 -3.4774 0
M  V30 13705 H 1314.17 -4.22986 -1.82809 0
M  V30 13706 H 1312.49 -3.75678 -1.79597 0
M  V30 13707 H 1315.08 -2.95196 -4.45829 0
M  V30 13708 H 1315.43 -1.31687 -3.94923 0
M  V30 13709 H 1315.96 -2.68189 -2.93802 0
M  V30 13710 H 1312.7 -5.65589 -3.31344 0
M  V30 13711 H 1312.22 -4.22617 -4.25623 0
M  V30 13712 H 1313.9 -4.81721 -4.31919 0
M  V30 13713 N 1314.03 1.01274 -1.20754 0
M  V30 13714 C 1315.28 1.74932 -1.02005 0
M  V30 13715 C 1315.61 1.89285 0.447372 0
M  V30 13716 O 1314.86 1.41838 1.34835 0
M  V30 13717 C 1315.16 3.16862 -1.65329 0
M  V30 13718 C 1314.83 3.22476 -3.15151 0
M  V30 13719 C 1313.49 3.23715 -3.56036 0
M  V30 13720 C 1315.84 3.20332 -4.11141 0
M  V30 13721 C 1313.17 3.20487 -4.91431 0
M  V30 13722 C 1315.52 3.18646 -5.46487 0
M  V30 13723 C 1314.18 3.18191 -5.8678 0
M  V30 13724 H 1313.45 0.640121 -0.373264 0
M  V30 13725 H 1316.1 1.18751 -1.50234 0
M  V30 13726 H 1314.41 3.76225 -1.09372 0
M  V30 13727 H 1316.1 3.72556 -1.48333 0
M  V30 13728 H 1312.69 3.22249 -2.82584 0
M  V30 13729 H 1316.88 3.18541 -3.80585 0
M  V30 13730 H 1312.13 3.18468 -5.21908 0
M  V30 13731 H 1316.31 3.1594 -6.20609 0
M  V30 13732 H 1313.93 3.15443 -6.91664 0
M  V30 13733 N 1315.51 1.01404 1.20644 0
M  V30 13734 C 1316.42 0.591693 2.27016 0
M  V30 13735 C 1317.44 -0.36958 1.7003 0
M  V30 13736 O 1318.61 -0.231165 2.00069 0
M  V30 13737 C 1315.68 -0.0659827 3.46637 0
M  V30 13738 C 1314.74 0.940911 4.18862 0
M  V30 13739 C 1313.97 0.314526 5.32772 0
M  V30 13740 O 1314.19 -0.886404 5.63471 0
M  V30 13741 O 1313.13 1.02998 5.93022 0
M  V30 13742 H 1316.95 1.4772 2.65353 0
M  V30 13743 H 1314.54 0.783399 1.27213 0
M  V30 13744 H 1316.42 -0.433412 4.19165 0
M  V30 13745 H 1315.1 -0.925729 3.10181 0
M  V30 13746 H 1314 1.35966 3.48517 0
M  V30 13747 H 1315.34 1.77054 4.59252 0
M  V30 13748 N 1316.99 -1.36373 0.789944 0
M  V30 13749 C 1318.21 -2.04011 0.373396 0
M  V30 13750 C 1318.64 -1.59171 -1.00231 0
M  V30 13751 O 1318 -0.760431 -1.64582 0
M  V30 13752 C 1318.04 -3.5783 0.446083 0
M  V30 13753 O 1317.15 -4.08759 -0.54678 0
M  V30 13754 H 1316.49 -0.644807 0.158495 0
M  V30 13755 H 1319.02 -1.74317 1.0712 0
M  V30 13756 H 1319.03 -4.06822 0.309877 0
M  V30 13757 H 1317.7 -3.89819 1.44962 0
M  V30 13758 H 1316.28 -3.71038 -0.372192 0
M  V30 13759 N 1318.47 -0.542005 -1.47987 0
M  V30 13760 C 1319.88 -0.104646 -1.86406 0
M  V30 13761 C 1320.23 1.32139 -1.4503 0
M  V30 13762 O 1319.35 1.99159 -0.846439 0
M  V30 13763 C 1319.95 -0.183133 -3.38305 0
M  V30 13764 C 1318.51 0.199098 -3.75873 0
M  V30 13765 C 1317.65 -0.537532 -2.7204 0
M  V30 13766 H 1320.6 -0.75259 -1.3972 0
M  V30 13767 H 1320.63 0.602149 -3.75705 0
M  V30 13768 H 1320.14 -1.22113 -3.68389 0
M  V30 13769 H 1318.24 1.23878 -3.51404 0
M  V30 13770 H 1318.35 -0.14888 -4.78869 0
M  V30 13771 H 1316.72 0.0176255 -2.54694 0
M  V30 13772 H 1317.5 -1.57639 -3.04967 0
M  V30 13773 N 1319.94 1.55134 -0.277709 0
M  V30 13774 C 1321.17 2.03765 0.341106 0
M  V30 13775 C 1321.58 1.15543 1.49822 0
M  V30 13776 O 1320.92 0.168642 1.82924 0
M  V30 13777 C 1320.99 3.48513 0.881974 0
M  V30 13778 C 1320.65 4.56764 -0.146837 0
M  V30 13779 C 1321.65 5.10823 -0.967252 0
M  V30 13780 C 1319.33 5.01509 -0.281824 0
M  V30 13781 C 1321.33 6.08147 -1.90882 0
M  V30 13782 C 1319.01 5.98658 -1.22686 0
M  V30 13783 C 1320.01 6.51859 -2.03886 0
M  V30 13784 O 1319.7 7.47108 -2.96791 0
M  V30 13785 H 1319.43 0.671068 0.0815052 0
M  V30 13786 H 1321.99 2.013 -0.408341 0
M  V30 13787 H 1320.22 3.48226 1.68154 0
M  V30 13788 H 1321.9 3.80469 1.41416 0
M  V30 13789 H 1322.67 4.77065 -0.873714 0
M  V30 13790 H 1318.55 4.59743 0.340203 0
M  V30 13791 H 1322.09 6.49597 -2.54301 0
M  V30 13792 H 1317.99 6.31834 -1.32121 0
M  V30 13793 H 1318.76 7.64832 -2.91502 0
M  V30 13794 N 1321.42 0.00503138 1.57599 0
M  V30 13795 C 1322.83 -0.537106 1.78807 0
M  V30 13796 C 1323.18 -1.73666 0.912945 0
M  V30 13797 O 1322.31 -2.16085 0.116775 0
M  V30 13798 C 1322.9 -0.98116 3.24282 0
M  V30 13799 C 1321.46 -1.46857 3.46569 0
M  V30 13800 C 1320.61 -0.422088 2.74069 0
M  V30 13801 H 1323.56 0.231182 1.57007 0
M  V30 13802 H 1323.58 -1.8469 3.32671 0
M  V30 13803 H 1323.09 -0.107907 3.8795 0
M  V30 13804 H 1321.19 -2.36255 2.88122 0
M  V30 13805 H 1321.31 -1.49256 4.55258 0
M  V30 13806 H 1319.67 -0.884853 2.38836 0
M  V30 13807 H 1320.45 0.442285 3.40439 0
M  V30 13808 N 1322.9 -1.55308 -0.267798 0
M  V30 13809 C 1323.83 -1.8348 -1.35685 0
M  V30 13810 C 1324.81 -0.688228 -1.47317 0
M  V30 13811 O 1325.99 -0.931781 -1.6386 0
M  V30 13812 C 1323.12 -2.00103 -2.7327 0
M  V30 13813 C 1322.17 -3.22675 -2.78896 0
M  V30 13814 S 1323 -4.79895 -2.37615 0
M  V30 13815 C 1324.16 -4.99497 -3.77165 0
M  V30 13816 H 1324.39 -2.75565 -1.11585 0
M  V30 13817 H 1321.92 -1.47146 -0.467703 0
M  V30 13818 H 1323.88 -2.10364 -3.52501 0
M  V30 13819 H 1322.54 -1.08897 -2.94619 0
M  V30 13820 H 1321.73 -3.31209 -3.7989 0
M  V30 13821 H 1321.34 -3.11031 -2.07691 0
M  V30 13822 H 1323.63 -4.85558 -4.72483 0
M  V30 13823 H 1324.57 -6.01534 -3.73581 0
M  V30 13824 H 1324.98 -4.2745 -3.68709 0
M  V30 13825 N 1324.38 0.532545 -1.4833 0
M  V30 13826 C 1325.61 1.31331 -1.59874 0
M  V30 13827 C 1326.02 1.87028 -0.258037 0
M  V30 13828 O 1325.38 1.66272 0.752317 0
M  V30 13829 C 1325.43 2.46596 -2.64334 0
M  V30 13830 O 1325.15 1.93195 -3.93201 0
M  V30 13831 C 1326.65 3.38454 -2.86294 0
M  V30 13832 H 1323.87 0.399476 -0.539129 0
M  V30 13833 H 1326.41 0.642696 -1.94138 0
M  V30 13834 H 1324.57 3.09548 -2.32936 0
M  V30 13835 H 1324.98 2.68627 -4.50489 0
M  V30 13836 H 1326.46 4.15687 -3.63192 0
M  V30 13837 H 1326.93 3.93526 -1.95022 0
M  V30 13838 H 1327.54 2.81297 -3.18986 0
M  V30 13839 N 1325.86 1.36875 0.78122 0
M  V30 13840 C 1326.79 1.26232 1.90107 0
M  V30 13841 C 1327.77 0.144779 1.61954 0
M  V30 13842 O 1328.95 0.317344 1.8581 0
M  V30 13843 C 1326.08 0.949543 3.25117 0
M  V30 13844 C 1325.12 2.08266 3.72193 0
M  V30 13845 S 1325.96 3.70141 3.86983 0
M  V30 13846 C 1327.11 3.40994 5.24856 0
M  V30 13847 H 1327.35 2.21016 1.98844 0
M  V30 13848 H 1324.88 1.22387 0.941324 0
M  V30 13849 H 1326.84 0.775902 4.031 0
M  V30 13850 H 1325.5 0.0193416 3.14094 0
M  V30 13851 H 1324.69 1.81858 4.70046 0
M  V30 13852 H 1324.29 2.21595 3.01284 0
M  V30 13853 H 1326.58 2.95395 6.09711 0
M  V30 13854 H 1327.53 4.38141 5.56272 0
M  V30 13855 H 1327.94 2.76146 4.92345 0
M  V30 13856 N 1327.33 -1.00632 1.21289 0
M  V30 13857 C 1328.3 -2.07543 0.972548 0
M  V30 13858 C 1329.3 -1.60703 -0.0559244 0
M  V30 13859 O 1330.49 -1.73255 0.181213 0
M  V30 13860 C 1327.62 -3.37696 0.466297 0
M  V30 13861 H 1328.81 -2.30298 1.92101 0
M  V30 13862 H 1326.36 -1.17588 1.02969 0
M  V30 13863 H 1327.1 -3.2062 -0.487148 0
M  V30 13864 H 1326.88 -3.73024 1.20813 0
M  V30 13865 H 1328.37 -4.16388 0.317962 0
M  V30 13866 N 1328.81 -1.02043 -1.20104 0
M  V30 13867 C 1329.74 -0.614421 -2.25271 0
M  V30 13868 C 1330.72 0.37242 -1.65973 0
M  V30 13869 O 1331.91 0.257005 -1.92492 0
M  V30 13870 C 1329.04 0.0442085 -3.47272 0
M  V30 13871 C 1327.99 -0.864019 -4.19188 0
M  V30 13872 C 1327.32 -0.0709551 -5.34653 0
M  V30 13873 C 1328.62 -2.17385 -4.74912 0
M  V30 13874 H 1330.31 -1.49355 -2.59487 0
M  V30 13875 H 1327.86 -0.719591 -1.24731 0
M  V30 13876 H 1329.81 0.339825 -4.20028 0
M  V30 13877 H 1328.53 0.958082 -3.12231 0
M  V30 13878 H 1327.19 -1.1437 -3.48303 0
M  V30 13879 H 1326.84 0.844688 -4.95857 0
M  V30 13880 H 1326.54 -0.67583 -5.83701 0
M  V30 13881 H 1328.07 0.218118 -6.1021 0
M  V30 13882 H 1329.48 -1.94034 -5.39466 0
M  V30 13883 H 1327.88 -2.72991 -5.34412 0
M  V30 13884 H 1328.95 -2.83427 -3.93443 0
M  V30 13885 N 1330.29 1.35952 -0.797165 0
M  V30 13886 C 1331.52 2.0381 -0.38421 0
M  V30 13887 C 1331.94 1.597 0.993854 0
M  V30 13888 O 1331.3 0.769148 1.64176 0
M  V30 13889 C 1331.35 3.57589 -0.465054 0
M  V30 13890 O 1330.45 4.09043 0.525095 0
M  V30 13891 H 1329.79 0.643957 -0.161912 0
M  V30 13892 H 1332.32 1.73746 -1.08043 0
M  V30 13893 H 1332.33 4.06651 -0.331448 0
M  V30 13894 H 1331.01 3.89045 -1.47027 0
M  V30 13895 H 1329.58 3.7123 0.352509 0
M  V30 13896 N 1331.77 0.549846 1.47697 0
M  V30 13897 C 1333.01 0.0230845 2.02787 0
M  V30 13898 C 1333.35 -1.32035 1.42409 0
M  V30 13899 O 1332.62 -1.85745 0.576978 0
M  V30 13900 C 1332.91 -0.0778363 3.60016 0
M  V30 13901 C 1332.76 1.29217 4.3084 0
M  V30 13902 C 1334.08 -0.794909 4.32862 0
M  V30 13903 H 1331.2 0.00986307 0.736934 0
M  V30 13904 H 1333.84 0.710714 1.76207 0
M  V30 13905 H 1331.99 -0.663464 3.82793 0
M  V30 13906 H 1333.66 1.92044 4.19424 0
M  V30 13907 H 1331.9 1.86883 3.91481 0
M  V30 13908 H 1332.57 1.17435 5.39364 0
M  V30 13909 H 1335.05 -0.297743 4.15033 0
M  V30 13910 H 1333.93 -0.834466 5.4252 0
M  V30 13911 H 1334.19 -1.84948 4.01555 0
M  V30 13912 N 1333.25 -1.54984 0.285932 0
M  V30 13913 C 1334.18 -2.25916 -0.590259 0
M  V30 13914 C 1335.16 -1.25319 -1.15018 0
M  V30 13915 O 1336.34 -1.54062 -1.18231 0
M  V30 13916 C 1333.47 -2.98849 -1.76936 0
M  V30 13917 C 1332.43 -4.06466 -1.3405 0
M  V30 13918 C 1331.75 -4.67032 -2.60356 0
M  V30 13919 C 1333.05 -5.20064 -0.482754 0
M  V30 13920 H 1334.75 -2.994 0.00131571 0
M  V30 13921 H 1332.29 -1.44 0.00207281 0
M  V30 13922 H 1334.25 -3.47186 -2.3883 0
M  V30 13923 H 1332.97 -2.22918 -2.38694 0
M  V30 13924 H 1331.63 -3.58957 -0.7447 0
M  V30 13925 H 1331.28 -3.87757 -3.20396 0
M  V30 13926 H 1330.98 -5.39703 -2.32368 0
M  V30 13927 H 1332.5 -5.18124 -3.23079 0
M  V30 13928 H 1333.91 -5.64387 -1.00697 0
M  V30 13929 H 1332.31 -5.99363 -0.297291 0
M  V30 13930 H 1333.38 -4.82358 0.495861 0
M  V30 13931 N 1334.72 -0.0133892 -1.57594 0
M  V30 13932 C 1335.97 0.669624 -1.91426 0
M  V30 13933 C 1336.3 1.72675 -0.888656 0
M  V30 13934 O 1335.58 1.94288 0.0908138 0
M  V30 13935 C 1335.86 1.30051 -3.35796 0
M  V30 13936 C 1335.71 0.254021 -4.49082 0
M  V30 13937 C 1337.03 2.22297 -3.79832 0
M  V30 13938 H 1334.15 0.241958 -0.69615 0
M  V30 13939 H 1336.79 -0.0674278 -1.8988 0
M  V30 13940 H 1334.94 1.92871 -3.37243 0
M  V30 13941 H 1336.62 -0.375524 -4.59769 0
M  V30 13942 H 1334.86 -0.422267 -4.3174 0
M  V30 13943 H 1335.53 0.734756 -5.47088 0
M  V30 13944 H 1338.01 1.69481 -3.8002 0
M  V30 13945 H 1336.88 2.634 -4.81572 0
M  V30 13946 H 1337.14 3.10764 -3.14449 0
M  V30 13947 N 1336.2 1.55448 0.259558 0
M  V30 13948 C 1337.43 1.80727 1.00723 0
M  V30 13949 C 1337.85 0.587354 1.79431 0
M  V30 13950 O 1337.2 -0.443819 1.77021 0
M  V30 13951 C 1337.25 3.04064 1.95517 0
M  V30 13952 O 1336.97 4.21346 1.19996 0
M  V30 13953 C 1338.48 3.42049 2.81988 0
M  V30 13954 H 1335.7 0.601713 0.296956 0
M  V30 13955 H 1338.24 2.02486 0.286273 0
M  V30 13956 H 1336.39 2.84392 2.63058 0
M  V30 13957 H 1336.81 4.91164 1.84006 0
M  V30 13958 H 1338.28 4.31485 3.44274 0
M  V30 13959 H 1338.76 2.62059 3.52451 0
M  V30 13960 H 1339.37 3.64027 2.19918 0
M  V30 13961 N 1337.68 -0.524672 1.4861 0
M  V30 13962 C 1338.93 -1.27671 1.5615 0
M  V30 13963 C 1339.24 -1.94088 0.242709 0
M  V30 13964 O 1340.45 -2.70789 0.196407 0
M  V30 13965 C 1338.9 -2.31686 2.75408 0
M  V30 13966 C 1338.51 -1.71315 4.13951 0
M  V30 13967 C 1340.26 -3.07867 2.92264 0
M  V30 13968 C 1338.16 -2.73302 5.24462 0
M  V30 13969 H 1337.09 -0.480177 0.581332 0
M  V30 13970 H 1339.74 -0.553473 1.74954 0
M  V30 13971 H 1338.13 -3.07069 2.50049 0
M  V30 13972 H 1339.3 -1.02085 4.4935 0
M  V30 13973 H 1337.62 -1.07608 4.02255 0
M  V30 13974 H 1340.21 -3.84088 3.71995 0
M  V30 13975 H 1340.56 -3.64052 2.01921 0
M  V30 13976 H 1341.09 -2.39599 3.17549 0
M  V30 13977 H 1337.83 -2.21929 6.16788 0
M  V30 13978 H 1337.35 -3.40843 4.93544 0
M  V30 13979 H 1339.03 -3.36186 5.528 0
M  V30 13980 N 1339.16 -1.37287 -0.77395 0
M  V30 13981 C 1340.07 -1.35059 -1.91823 0
M  V30 13982 C 1341.08 -0.250489 -1.72188 0
M  V30 13983 O 1342.26 -0.485501 -1.95461 0
M  V30 13984 C 1339.33 -1.15444 -3.26915 0
M  V30 13985 C 1338.39 -2.35073 -3.5922 0
M  V30 13986 C 1337.62 -2.16384 -4.87867 0
M  V30 13987 O 1337.84 -1.14696 -5.58749 0
M  V30 13988 O 1336.78 -3.0452 -5.19183 0
M  V30 13989 H 1340.6 -2.31432 -1.96654 0
M  V30 13990 H 1338.19 -1.17994 -0.916392 0
M  V30 13991 H 1340.07 -1.06484 -4.07724 0
M  V30 13992 H 1338.74 -0.221435 -3.22942 0
M  V30 13993 H 1337.65 -2.49604 -2.78655 0
M  V30 13994 H 1338.98 -3.26933 -3.67934 0
M  V30 13995 N 1340.64 0.999871 -1.21821 0
M  V30 13996 C 1341.57 2.08597 -0.925334 0
M  V30 13997 C 1342.55 1.62087 0.129103 0
M  V30 13998 O 1343.73 1.885 -0.000975316 0
M  V30 13999 C 1340.86 3.36443 -0.390388 0
M  V30 14000 C 1339.9 4.01869 -1.42842 0
M  V30 14001 S 1340.74 4.43618 -2.99938 0
M  V30 14002 C 1341.89 5.74644 -2.48064 0
M  V30 14003 H 1342.13 2.33119 -1.84507 0
M  V30 14004 H 1339.66 1.13339 -1.04851 0
M  V30 14005 H 1341.62 4.10405 -0.0883221 0
M  V30 14006 H 1340.28 3.09963 0.508115 0
M  V30 14007 H 1339.47 4.93902 -1.00385 0
M  V30 14008 H 1339.07 3.34202 -1.67883 0
M  V30 14009 H 1341.37 6.50642 -1.88869 0
M  V30 14010 H 1342.31 6.21919 -3.3856 0
M  V30 14011 H 1342.72 5.31709 -1.89593 0
M  V30 14012 N 1342.11 1.02678 1.19562 0
M  V30 14013 C 1343.35 0.7307 1.90893 0
M  V30 14014 C 1343.72 -0.727166 1.77697 0
M  V30 14015 O 1344.92 -1.13623 2.43605 0
M  V30 14016 C 1343.19 1.16683 3.37816 0
M  V30 14017 S 1344.75 0.994271 4.27387 0
M  V30 14018 H 1341.57 0.266082 0.659334 0
M  V30 14019 H 1344.17 1.31617 1.44558 0
M  V30 14020 H 1342.87 2.22354 3.44945 0
M  V30 14021 H 1342.4 0.574559 3.89182 0
M  V30 14022 H 1344.42 -0.0963871 4.96106 0
M  V30 14023 N 1343.59 -1.35528 0.804364 0
M  V30 14024 C 1344.54 -2.31728 0.20125 0
M  V30 14025 C 1345.53 -1.56527 -0.647751 0
M  V30 14026 O 1346.74 -1.71672 -0.541163 0
M  V30 14027 H 1343.12 -0.750572 0.0463165 0
M  V30 14028 H 1345.09 -2.80142 1.02777 0
M  V30 14029 C 1343.84 -3.41807 -0.637429 0
M  V30 14030 H 1343.16 -3.99799 0.00651699 0
M  V30 14031 H 1344.6 -4.11403 -1.02585 0
M  V30 14032 C 1343.06 -2.84655 -1.80202 0
M  V30 14033 O 1343.59 -2.78026 -2.89939 0
M  V30 14034 N 1341.79 -2.41735 -1.61285 0
M  V30 14035 H 1341.34 -2.47327 -0.720231 0
M  V30 14036 H 1341.3 -2.03844 -2.39364 0
M  V30 14037 N 1345.07 -0.557671 -1.47404 0
M  V30 14038 C 1346.03 0.179311 -2.28498 0
M  V30 14039 C 1347.03 0.842281 -1.36975 0
M  V30 14040 O 1348.22 0.698072 -1.59601 0
M  V30 14041 C 1345.36 1.26229 -3.16668 0
M  V30 14042 H 1346.55 -0.533033 -2.95125 0
M  V30 14043 H 1344.1 -0.314634 -1.531 0
M  V30 14044 H 1344.84 2.00702 -2.54733 0
M  V30 14045 H 1344.62 0.791712 -3.84024 0
M  V30 14046 H 1346.11 1.77991 -3.77768 0
M  V30 14047 N 1346.55 1.54831 -0.294147 0
M  V30 14048 C 1347.48 2.26226 0.57827 0
M  V30 14049 C 1348.46 1.25928 1.14351 0
M  V30 14050 O 1349.65 1.54687 1.17412 0
M  V30 14051 C 1346.78 2.99783 1.75349 0
M  V30 14052 C 1345.73 4.07171 1.31892 0
M  V30 14053 C 1345.06 4.68406 2.57876 0
M  V30 14054 C 1346.36 5.20313 0.455167 0
M  V30 14055 H 1348.05 2.99395 -0.0171936 0
M  V30 14056 H 1345.6 1.43997 -0.00970944 0
M  V30 14057 H 1347.55 3.48448 2.36986 0
M  V30 14058 H 1346.27 2.24181 2.37509 0
M  V30 14059 H 1344.93 3.59346 0.725653 0
M  V30 14060 H 1344.58 3.89451 3.18335 0
M  V30 14061 H 1344.28 5.40927 2.29502 0
M  V30 14062 H 1345.8 5.1983 3.20327 0
M  V30 14063 H 1347.22 5.64913 0.977026 0
M  V30 14064 H 1345.61 5.99512 0.265501 0
M  V30 14065 H 1346.68 4.82088 -0.521434 0
M  V30 14066 N 1348.03 0.0217466 1.57585 0
M  V30 14067 C 1348.98 -0.980624 2.10918 0
M  V30 14068 C 1349.97 -1.34178 1.03406 0
M  V30 14069 O 1351.18 -1.32487 1.21849 0
M  V30 14070 H 1347.55 -0.333984 0.673764 0
M  V30 14071 H 1349.52 -0.505431 2.94088 0
M  V30 14072 C 1348.27 -2.25639 2.64542 0
M  V30 14073 H 1347.59 -1.98722 3.46914 0
M  V30 14074 H 1349.03 -2.94003 3.05513 0
M  V30 14075 C 1347.49 -2.98111 1.56945 0
M  V30 14076 O 1348.02 -3.89937 0.964975 0
M  V30 14077 N 1346.23 -2.60316 1.29166 0
M  V30 14078 H 1345.78 -1.85722 1.78508 0
M  V30 14079 H 1345.73 -3.09116 0.573987 0
M  V30 14080 N 1349.51 -1.55583 -0.251311 0
M  V30 14081 C 1350.73 -1.81597 -1.00186 0
M  V30 14082 C 1351.16 -0.598216 -1.78334 0
M  V30 14083 O 1350.51 0.452667 -1.75558 0
M  V30 14084 C 1350.56 -3.05301 -1.91895 0
M  V30 14085 O 1349.67 -2.81907 -3.01002 0
M  V30 14086 H 1349.01 -0.599578 -0.285311 0
M  V30 14087 H 1351.54 -2.02762 -0.273638 0
M  V30 14088 H 1351.55 -3.34616 -2.33444 0
M  V30 14089 H 1350.22 -3.93574 -1.34433 0
M  V30 14090 H 1348.8 -2.63747 -2.63613 0
M  V30 14091 N 1350.98 0.516783 -1.48886 0
M  V30 14092 C 1351.91 1.62897 -1.67292 0
M  V30 14093 C 1352.89 1.61903 -0.521671 0
M  V30 14094 O 1354.08 1.78892 -0.755728 0
M  V30 14095 C 1351.21 3.01444 -1.72478 0
M  V30 14096 C 1350.16 3.173 -2.87236 0
M  V30 14097 C 1349.49 4.5704 -2.77522 0
M  V30 14098 C 1350.79 2.98818 -4.28375 0
M  V30 14099 H 1352.48 1.47748 -2.60405 0
M  V30 14100 H 1350.03 0.709361 -1.25316 0
M  V30 14101 H 1351.98 3.79135 -1.83942 0
M  V30 14102 H 1350.71 3.17645 -0.759538 0
M  V30 14103 H 1349.37 2.4203 -2.75349 0
M  V30 14104 H 1349.01 4.70096 -1.78938 0
M  V30 14105 H 1348.71 4.68593 -3.54534 0
M  V30 14106 H 1350.24 5.36813 -2.90972 0
M  V30 14107 H 1351.65 3.66291 -4.41026 0
M  V30 14108 H 1350.05 3.21854 -5.06488 0
M  V30 14109 H 1351.12 1.95102 -4.43918 0
M  V30 14110 N 1352.46 1.37696 0.766659 0
M  V30 14111 C 1353.69 1.36564 1.56093 0
M  V30 14112 C 1354.11 -0.0455828 1.88045 0
M  V30 14113 O 1353.47 -1.02405 1.49609 0
M  V30 14114 C 1353.52 2.21592 2.84481 0
M  V30 14115 O 1352.62 1.62404 3.79076 0
M  V30 14116 H 1351.96 0.466394 0.472623 0
M  V30 14117 H 1354.49 1.81287 0.948486 0
M  V30 14118 H 1354.5 2.34987 3.33534 0
M  V30 14119 H 1353.18 3.24167 2.60554 0
M  V30 14120 H 1351.75 1.58078 3.37736 0
M  V30 14121 N 1353.94 -0.993397 1.22349 0
M  V30 14122 C 1354.85 -2.11771 1.00947 0
M  V30 14123 C 1355.87 -1.73949 -0.0420679 0
M  V30 14124 O 1357.04 -2.00837 0.150548 0
M  V30 14125 C 1354.11 -3.41654 0.589359 0
M  V30 14126 C 1353.17 -3.93579 1.71446 0
M  V30 14127 C 1352.4 -5.17264 1.3143 0
M  V30 14128 O 1352.62 -5.70074 0.192876 0
M  V30 14129 O 1351.56 -5.62929 2.13059 0
M  V30 14130 H 1355.38 -2.32708 1.95142 0
M  V30 14131 H 1352.97 -1.10144 1.00939 0
M  V30 14132 H 1354.85 -4.19813 0.365403 0
M  V30 14133 H 1353.53 -3.22077 -0.323738 0
M  V30 14134 H 1352.43 -3.16596 1.99294 0
M  V30 14135 H 1353.77 -4.17588 2.6054 0
M  V30 14136 N 1355.42 -1.03311 -1.19015 0
M  V30 14137 C 1356.37 -0.611169 -2.24427 0
M  V30 14138 C 1357.36 0.358303 -1.65567 0
M  V30 14139 O 1358.57 0.22642 -1.7857 0
M  V30 14140 H 1354.94 -0.179393 -0.730289 0
M  V30 14141 H 1356.91 -1.51077 -2.57329 0
M  V30 14142 C 1355.66 0.0178126 -3.47695 0
M  V30 14143 H 1354.98 -0.71921 -3.93278 0
M  V30 14144 H 1356.42 0.275926 -4.23101 0
M  V30 14145 C 1354.88 1.26564 -3.12223 0
M  V30 14146 O 1355.41 2.35725 -3.25264 0
M  V30 14147 N 1353.62 1.15602 -2.66617 0
M  V30 14148 H 1353.17 0.267736 -2.56205 0
M  V30 14149 H 1353.12 1.99186 -2.43254 0
M  V30 14150 N 1356.9 1.35099 -0.81154 0
M  V30 14151 C 1357.83 2.28468 -0.183012 0
M  V30 14152 C 1358.84 1.50509 0.620553 0
M  V30 14153 O 1360.03 1.7268 0.4521 0
M  V30 14154 C 1357.13 3.30201 0.762933 0
M  V30 14155 C 1356.3 4.374 0.00466561 0
M  V30 14156 C 1355.36 5.18961 0.869832 0
M  V30 14157 O 1354.39 5.68306 0.318964 0
M  V30 14158 N 1355.59 5.37555 2.19123 0
M  V30 14159 H 1358.35 2.83046 -0.985132 0
M  V30 14160 H 1355.92 1.47502 -0.667449 0
M  V30 14161 H 1357.91 3.81659 1.34606 0
M  V30 14162 H 1356.48 2.76101 1.46584 0
M  V30 14163 H 1355.7 3.8681 -0.759702 0
M  V30 14164 H 1356.99 5.06159 -0.517739 0
M  V30 14165 H 1356.38 4.99118 2.66266 0
M  V30 14166 H 1354.94 5.92174 2.72348 0
M  V30 14167 N 1358.37 0.56548 1.47106 0
M  V30 14168 C 1359.6 0.0476763 2.07345 0
M  V30 14169 C 1360.02 -1.24032 1.41413 0
M  V30 14170 O 1359.38 -1.74498 0.491941 0
M  V30 14171 C 1359.43 -0.122618 3.60391 0
M  V30 14172 O 1358.53 -1.18326 3.9506 0
M  V30 14173 H 1357.87 0.0550419 0.661715 0
M  V30 14174 H 1360.4 0.78352 1.89003 0
M  V30 14175 H 1360.41 -0.334227 4.06629 0
M  V30 14176 H 1359.09 0.81807 4.07775 0
M  V30 14177 H 1357.67 -0.951481 3.60557 0
M  V30 14178 N 1359.85 -1.54672 0.302354 0
M  V30 14179 C 1360.78 -2.2653 -0.566265 0
M  V30 14180 C 1361.76 -1.26532 -1.13682 0
M  V30 14181 O 1362.95 -1.55307 -1.1659 0
M  V30 14182 C 1360.08 -3.00709 -1.73757 0
M  V30 14183 C 1359.03 -4.07865 -1.29731 0
M  V30 14184 C 1358.36 -4.69767 -2.55388 0
M  V30 14185 C 1359.66 -5.20547 -0.427567 0
M  V30 14186 H 1361.35 -2.99382 0.033071 0
M  V30 14187 H 1358.9 -1.4399 0.0173458 0
M  V30 14188 H 1360.85 -3.497 -2.35134 0
M  V30 14189 H 1359.58 -2.25437 -2.36317 0
M  V30 14190 H 1358.23 -3.59726 -0.706586 0
M  V30 14191 H 1357.88 -3.91134 -3.16265 0
M  V30 14192 H 1357.58 -5.42137 -2.26631 0
M  V30 14193 H 1359.11 -5.21521 -3.17566 0
M  V30 14194 H 1360.52 -5.65424 -0.947053 0
M  V30 14195 H 1358.92 -5.99645 -0.233704 0
M  V30 14196 H 1359.99 -4.81805 0.546993 0
M  V30 14197 N 1361.33 -0.0301034 -1.57571 0
M  V30 14198 C 1362.26 0.94977 -2.13311 0
M  V30 14199 C 1363.24 1.33865 -1.04948 0
M  V30 14200 O 1364.43 1.4171 -1.32786 0
M  V30 14201 C 1361.56 2.23178 -2.66099 0
M  V30 14202 C 1360.51 1.98362 -3.79258 0
M  V30 14203 C 1359.84 3.32836 -4.18479 0
M  V30 14204 C 1361.14 1.32201 -5.05292 0
M  V30 14205 H 1362.83 0.485562 -2.95436 0
M  V30 14206 H 1360.38 0.232116 -1.42117 0
M  V30 14207 H 1362.33 2.92108 -3.03728 0
M  V30 14208 H 1361.05 2.71766 -1.81137 0
M  V30 14209 H 1359.71 1.31849 -3.42069 0
M  V30 14210 H 1359.36 3.79185 -3.30496 0
M  V30 14211 H 1359.06 3.17037 -4.94733 0
M  V30 14212 H 1360.58 4.03032 -4.58691 0
M  V30 14213 H 1362 1.91133 -5.40501 0
M  V30 14214 H 1360.4 1.26797 -5.86551 0
M  V30 14215 H 1361.47 0.29511 -4.84001 0
M  V30 14216 N 1362.81 1.55714 0.243056 0
M  V30 14217 C 1364.22 1.48224 0.591754 0
M  V30 14218 C 1364.42 0.72105 1.88157 0
M  V30 14219 O 1363.48 0.251966 2.5124 0
M  V30 14220 C 1364.79 2.92655 0.690918 0
M  V30 14221 C 1366.34 3.03048 0.782988 0
M  V30 14222 C 1366.82 4.48794 0.913682 0
M  V30 14223 N 1368.31 4.52748 0.978454 0
M  V30 14224 C 1369.04 5.62771 1.09891 0
M  V30 14225 N 1368.54 6.82596 1.18467 0
M  V30 14226 N 1370.33 5.50576 1.13237 0
M  V30 14227 H 1362.48 2.03642 -0.603614 0
M  V30 14228 H 1364.75 0.924702 -0.208878 0
M  V30 14229 H 1364.45 3.51203 -0.186871 0
M  V30 14230 H 1364.33 3.43357 1.5616 0
M  V30 14231 H 1366.71 2.44578 1.65123 0
M  V30 14232 H 1366.79 2.55551 -0.112921 0
M  V30 14233 H 1366.44 5.07875 0.0499835 0
M  V30 14234 H 1366.37 4.93976 1.82469 0
M  V30 14235 H 1368.86 3.66445 0.92337 0
M  V30 14236 H 1369.17 7.62197 1.27576 0
M  V30 14237 H 1367.52 6.85349 1.15418 0
M  V30 14238 H 1370.71 4.55897 1.06188 0
M  V30 14239 H 1370.88 6.36358 1.2228 0
M  V30 14240 N 1364.29 -0.50888 1.49158 0
M  V30 14241 C 1365.22 -1.62869 1.5984 0
M  V30 14242 C 1366.2 -1.56312 0.447809 0
M  V30 14243 O 1367.38 -1.76482 0.662292 0
M  V30 14244 C 1364.51 -3.01356 1.54603 0
M  V30 14245 C 1363.55 -3.26202 2.74763 0
M  V30 14246 S 1364.39 -3.10178 4.3652 0
M  V30 14247 C 1365.54 -4.51075 4.33915 0
M  V30 14248 H 1365.78 -1.53562 2.5457 0
M  V30 14249 H 1363.31 -0.693448 1.37952 0
M  V30 14250 H 1365.27 -3.81215 1.52267 0
M  V30 14251 H 1363.93 -3.08085 0.611737 0
M  V30 14252 H 1363.12 -4.27281 2.67296 0
M  V30 14253 H 1362.72 -2.54052 2.7447 0
M  V30 14254 H 1365.02 -5.4301 4.05149 0
M  V30 14255 H 1365.96 -4.63593 5.35245 0
M  V30 14256 H 1366.37 -4.31385 3.64097 0
M  V30 14257 N 1365.76 -1.381 -0.759346 0
M  V30 14258 C 1367.18 -1.30379 -1.33635 0
M  V30 14259 C 1367.53 0.0430279 -1.96153 0
M  V30 14260 O 1366.65 0.945029 -1.94675 0
M  V30 14261 C 1367.25 -2.3611 -2.42976 0
M  V30 14262 C 1365.81 -2.31985 -2.96412 0
M  V30 14263 C 1364.95 -2.19281 -1.69739 0
M  V30 14264 H 1367.9 -1.48542 -0.558656 0
M  V30 14265 H 1367.92 -2.01493 -3.22771 0
M  V30 14266 H 1367.44 -3.34122 -1.97445 0
M  V30 14267 H 1365.54 -1.37536 -3.46287 0
M  V30 14268 H 1365.65 -3.25895 -3.51183 0
M  V30 14269 H 1364.01 -1.66035 -1.93144 0
M  V30 14270 H 1364.8 -3.19225 -1.26293 0
M  V30 14271 N 1367.24 0.986894 -1.22875 0
M  V30 14272 C 1368.65 1.54182 -1.05284 0
M  V30 14273 C 1369 1.92448 0.381856 0
M  V30 14274 O 1368.13 1.75381 1.26769 0
M  V30 14275 C 1368.72 2.80173 -1.90496 0
M  V30 14276 C 1367.28 3.32088 -1.77185 0
M  V30 14277 C 1366.43 2.05128 -1.86596 0
M  V30 14278 H 1369.38 0.807304 -1.36632 0
M  V30 14279 H 1369.4 3.52772 -1.42591 0
M  V30 14280 H 1368.91 2.52291 -2.94908 0
M  V30 14281 H 1367.02 3.64864 -0.755295 0
M  V30 14282 H 1367.13 4.02285 -2.60199 0
M  V30 14283 H 1365.49 2.18964 -1.30103 0
M  V30 14284 H 1366.28 1.79635 -2.92551 0
M  V30 14285 N 1368.72 1.0394 1.18466 0
M  V30 14286 C 1369.97 0.752904 1.88952 0
M  V30 14287 C 1370.32 -0.711542 1.78759 0
M  V30 14288 O 1369.61 -1.51248 1.17621 0
M  V30 14289 C 1369.81 1.15198 3.38326 0
M  V30 14290 C 1369.64 2.65367 3.63057 0
M  V30 14291 C 1368.41 3.32495 3.80493 0
M  V30 14292 C 1370.61 3.63586 3.63744 0
M  V30 14293 N 1368.59 4.71659 3.92952 0
M  V30 14294 C 1369.96 4.88417 3.81901 0
M  V30 14295 C 1372.01 3.57234 3.46826 0
M  V30 14296 C 1370.72 6.0766 3.84891 0
M  V30 14297 C 1372.74 4.75903 3.51098 0
M  V30 14298 C 1372.1 5.99553 3.69751 0
M  V30 14299 H 1368.2 0.327542 0.710099 0
M  V30 14300 H 1370.79 1.32883 1.42303 0
M  V30 14301 H 1368.96 0.604141 3.83673 0
M  V30 14302 H 1370.69 0.816625 3.96375 0
M  V30 14303 H 1367.45 2.829 3.79822 0
M  V30 14304 H 1367.87 5.43981 4.03006 0
M  V30 14305 H 1372.51 2.62613 3.31352 0
M  V30 14306 H 1370.23 7.02639 3.99153 0
M  V30 14307 H 1373.82 4.72629 3.39284 0
M  V30 14308 H 1372.7 6.89842 3.72945 0
M  V30 14309 N 1370.2 -1.34667 0.818693 0
M  V30 14310 C 1371.11 -2.33375 0.239429 0
M  V30 14311 C 1372.12 -1.62428 -0.623957 0
M  V30 14312 O 1373.3 -1.94223 -0.532854 0
M  V30 14313 C 1370.37 -3.41598 -0.59258 0
M  V30 14314 C 1369.43 -4.28301 0.292712 0
M  V30 14315 C 1368.66 -5.31356 -0.499682 0
M  V30 14316 O 1368.88 -5.43426 -1.73334 0
M  V30 14317 O 1367.82 -6.01789 0.115778 0
M  V30 14318 H 1371.64 -2.84738 1.05631 0
M  V30 14319 H 1369.23 -1.37651 0.58074 0
M  V30 14320 H 1371.11 -4.07692 -1.06607 0
M  V30 14321 H 1369.78 -2.92486 -1.38685 0
M  V30 14322 H 1368.69 -3.65145 0.81361 0
M  V30 14323 H 1370.02 -4.80843 1.05123 0
M  V30 14324 N 1371.68 -0.573274 -1.46804 0
M  V30 14325 C 1372.62 0.178246 -2.31916 0
M  V30 14326 C 1373.62 0.89366 -1.4391 0
M  V30 14327 O 1374.82 0.81312 -1.60588 0
M  V30 14328 H 1371.2 0.0763519 -0.748114 0
M  V30 14329 H 1373.17 -0.558552 -2.93126 0
M  V30 14330 C 1371.92 1.18476 -3.26892 0
M  V30 14331 H 1371.24 0.643691 -3.94584 0
M  V30 14332 H 1372.68 1.68118 -3.89246 0
M  V30 14333 C 1371.14 2.24092 -2.51564 0
M  V30 14334 O 1371.67 3.3129 -2.27178 0
M  V30 14335 N 1369.88 1.98447 -2.1229 0
M  V30 14336 H 1369.42 1.11283 -2.32323 0
M  V30 14337 H 1369.38 2.69325 -1.62207 0
M  V30 14338 N 1373.15 1.5451 -0.310553 0
M  V30 14339 C 1374.4 1.99505 0.296731 0
M  V30 14340 C 1374.72 1.20257 1.54265 0
M  V30 14341 O 1375.92 1.55566 2.22512 0
M  V30 14342 C 1374.38 3.55208 0.579251 0
M  V30 14343 C 1373.99 4.43276 -0.648874 0
M  V30 14344 C 1375.73 4.08705 1.1472 0
M  V30 14345 C 1373.64 5.90428 -0.338978 0
M  V30 14346 H 1372.57 0.745232 0.114652 0
M  V30 14347 H 1375.22 1.78611 -0.420749 0
M  V30 14348 H 1373.6 3.72039 1.35658 0
M  V30 14349 H 1374.77 4.3822 -1.42478 0
M  V30 14350 H 1373.09 4.00601 -1.13613 0
M  V30 14351 H 1375.69 5.16223 1.39346 0
M  V30 14352 H 1376.03 3.59889 2.09249 0
M  V30 14353 H 1376.56 3.95454 0.431363 0
M  V30 14354 H 1373.3 6.43411 -1.25309 0
M  V30 14355 H 1372.82 5.98468 0.399475 0
M  V30 14356 H 1374.5 6.46976 0.0559696 0
M  V30 14357 N 1374.63 0.0384594 1.57553 0
M  V30 14358 C 1375.88 -0.633249 1.93291 0
M  V30 14359 C 1376.23 -1.69196 0.915995 0
M  V30 14360 O 1375.53 -1.91484 -0.0666597 0
M  V30 14361 C 1375.72 -1.28439 3.33524 0
M  V30 14362 C 1375.55 -0.290279 4.48762 0
M  V30 14363 C 1374.32 0.113206 5.05173 0
M  V30 14364 C 1376.52 0.459201 5.12246 0
M  V30 14365 N 1374.5 1.10151 6.03937 0
M  V30 14366 C 1375.87 1.30097 6.06197 0
M  V30 14367 C 1377.93 0.518891 4.95189 0
M  V30 14368 C 1376.63 2.19706 6.84924 0
M  V30 14369 C 1378.66 1.40236 5.74533 0
M  V30 14370 C 1378.02 2.23189 6.68106 0
M  V30 14371 H 1374.12 -0.203752 0.754989 0
M  V30 14372 H 1376.7 0.107819 1.94401 0
M  V30 14373 H 1374.87 -1.99555 3.33215 0
M  V30 14374 H 1376.6 -1.91388 3.56585 0
M  V30 14375 H 1373.36 -0.26316 4.72868 0
M  V30 14376 H 1373.78 1.59218 6.58011 0
M  V30 14377 H 1378.42 -0.108201 4.22662 0
M  V30 14378 H 1376.14 2.83467 7.56751 0
M  V30 14379 H 1379.73 1.45295 5.63365 0
M  V30 14380 H 1378.61 2.90443 7.28432 0
M  V30 14381 N 1376.11 -1.55841 -0.234795 0
M  V30 14382 C 1377.04 -1.94344 -1.29432 0
M  V30 14383 C 1378.02 -0.809912 -1.49581 0
M  V30 14384 O 1379.21 -1.07117 -1.61986 0
M  V30 14385 C 1376.34 -2.24866 -2.64675 0
M  V30 14386 C 1375.29 -3.40584 -2.59203 0
M  V30 14387 C 1374.62 -3.56678 -3.98353 0
M  V30 14388 C 1375.92 -4.75935 -2.15135 0
M  V30 14389 H 1377.61 -2.83096 -0.97454 0
M  V30 14390 H 1375.16 -1.36205 -0.467355 0
M  V30 14391 H 1377.11 -2.50392 -3.38942 0
M  V30 14392 H 1375.83 -1.32953 -2.98314 0
M  V30 14393 H 1374.49 -3.15087 -1.87393 0
M  V30 14394 H 1374.14 -2.62164 -4.29277 0
M  V30 14395 H 1373.84 -4.34503 -3.95577 0
M  V30 14396 H 1375.37 -3.84538 -4.74302 0
M  V30 14397 H 1376.78 -5.00753 -2.7914 0
M  V30 14398 H 1375.18 -5.56949 -2.23446 0
M  V30 14399 H 1376.25 -4.72182 -1.10328 0
M  V30 14400 N 1377.59 0.500963 -1.49426 0
M  V30 14401 C 1378.84 1.25694 -1.5915 0
M  V30 14402 C 1379.17 1.92209 -0.277365 0
M  V30 14403 O 1378.44 1.8072 0.719065 0
M  V30 14404 C 1378.73 2.32391 -2.75076 0
M  V30 14405 C 1378.58 1.70377 -4.16283 0
M  V30 14406 C 1379.9 3.33952 -2.86643 0
M  V30 14407 H 1377.02 0.455631 -0.579283 0
M  V30 14408 H 1379.66 0.555099 -1.8171 0
M  V30 14409 H 1377.81 2.92252 -2.55971 0
M  V30 14410 H 1379.48 1.14343 -4.46904 0
M  V30 14411 H 1377.72 1.00789 -4.21929 0
M  V30 14412 H 1378.4 2.47767 -4.9327 0
M  V30 14413 H 1380.87 2.84081 -3.04035 0
M  V30 14414 H 1379.75 4.05969 -3.69433 0
M  V30 14415 H 1380.01 3.96279 -1.95998 0
M  V30 14416 N 1379.07 1.38501 0.752011 0
M  V30 14417 C 1380.32 1.34529 1.50819 0
M  V30 14418 C 1380.64 -0.0636155 1.94896 0
M  V30 14419 O 1379.91 -1.01161 1.6776 0
M  V30 14420 H 1378.49 0.49501 0.559441 0
M  V30 14421 H 1381.15 1.73196 0.893822 0
M  V30 14422 H 1380.24 1.99713 2.39835 0
M  V30 14423 N 1380.55 -0.980364 1.23396 0
M  V30 14424 C 1381.77 -1.76223 1.09363 0
M  V30 14425 C 1382.2 -1.84801 -0.350759 0
M  V30 14426 O 1381.55 -1.30966 -1.2537 0
M  V30 14427 C 1381.6 -3.16728 1.72383 0
M  V30 14428 O 1380.71 -4.00439 0.986002 0
M  V30 14429 H 1380.05 -0.542174 0.383332 0
M  V30 14430 H 1382.58 -1.23066 1.6345 0
M  V30 14431 H 1382.59 -3.67307 1.77623 0
M  V30 14432 H 1381.26 -3.098 2.77483 0
M  V30 14433 H 1379.84 -3.58946 1.01054 0
M  V30 14434 N 1382.02 -1.04567 -1.17913 0
M  V30 14435 C 1383.27 -0.747179 -1.8735 0
M  V30 14436 C 1383.59 0.728274 -1.81537 0
M  V30 14437 O 1384.79 1.14048 -2.46385 0
M  V30 14438 C 1383.25 -1.28629 -3.36129 0
M  V30 14439 C 1382.86 -2.79073 -3.5046 0
M  V30 14440 C 1384.6 -1.06455 -4.10935 0
M  V30 14441 C 1382.51 -3.26316 -4.93226 0
M  V30 14442 H 1381.44 -0.275807 -0.701745 0
M  V30 14443 H 1384.09 -1.26215 -1.33199 0
M  V30 14444 H 1382.47 -0.699151 -3.89779 0
M  V30 14445 H 1383.64 -3.43587 -3.07057 0
M  V30 14446 H 1381.96 -2.99716 -2.89066 0
M  V30 14447 H 1384.56 -1.3926 -5.16247 0
M  V30 14448 H 1384.9 -0.00201298 -4.163 0
M  V30 14449 H 1385.43 -1.61656 -3.63472 0
M  V30 14450 H 1382.17 -4.31972 -4.93032 0
M  V30 14451 H 1381.69 -2.6654 -5.37323 0
M  V30 14452 H 1383.37 -3.2063 -5.61966 0
M  V30 14453 N 1383.5 1.34231 -0.825823 0
M  V30 14454 C 1384.74 2.00014 -0.421173 0
M  V30 14455 C 1385.11 1.64039 0.997759 0
M  V30 14456 O 1386.31 2.22688 1.50545 0
M  V30 14457 C 1384.58 3.5197 -0.620643 0
M  V30 14458 S 1386.14 4.37709 -0.309272 0
M  V30 14459 H 1382.95 0.692993 -0.159003 0
M  V30 14460 H 1385.56 1.63471 -1.07227 0
M  V30 14461 H 1384.26 3.7564 -1.65296 0
M  V30 14462 H 1383.79 3.93374 0.0450832 0
M  V30 14463 H 1385.81 4.88407 0.875943 0
M  V30 14464 N 1384.98 0.581051 1.46498 0
M  V30 14465 C 1385.91 -0.140957 2.33074 0
M  V30 14466 C 1386.89 -0.885323 1.45245 0
M  V30 14467 O 1388.08 -0.86111 1.74065 0
M  V30 14468 C 1385.21 -1.15625 3.27488 0
M  V30 14469 C 1384.16 -0.526829 4.24745 0
M  V30 14470 C 1383.49 -1.64847 5.08655 0
M  V30 14471 C 1384.79 0.53492 5.19554 0
M  V30 14472 H 1386.48 0.581888 2.93691 0
M  V30 14473 H 1384.03 0.281278 1.41226 0
M  V30 14474 H 1385.98 -1.6697 3.8691 0
M  V30 14475 H 1384.7 -1.90935 2.64974 0
M  V30 14476 H 1383.36 -0.0344738 3.66584 0
M  V30 14477 H 1383.01 -2.3912 4.42528 0
M  V30 14478 H 1382.71 -1.23298 5.74518 0
M  V30 14479 H 1384.23 -2.16472 5.7094 0
M  V30 14480 H 1385.65 0.106606 5.73201 0
M  V30 14481 H 1384.04 0.870639 5.93751 0
M  V30 14482 H 1385.11 1.42184 4.63586 0
M  V30 14483 N 1386.46 -1.54343 0.318742 0
M  V30 14484 C 1387.68 -2.05361 -0.290126 0
M  V30 14485 C 1388.11 -1.19362 -1.45376 0
M  V30 14486 O 1387.47 -0.201639 -1.80175 0
M  V30 14487 C 1387.51 -3.53601 -0.707025 0
M  V30 14488 O 1386.62 -3.70561 -1.80992 0
M  V30 14489 H 1385.96 -0.661858 -0.0532933 0
M  V30 14490 H 1388.49 -1.99228 0.46575 0
M  V30 14491 H 1388.5 -3.95782 -0.991005 0
M  V30 14492 H 1387.17 -4.1565 0.144091 0
M  V30 14493 H 1385.75 -3.40286 -1.52513 0
M  V30 14494 N 1387.94 -0.0468143 -1.5753 0
M  V30 14495 C 1388.87 0.96433 -2.06823 0
M  V30 14496 C 1389.85 1.30663 -0.967783 0
M  V30 14497 O 1391.03 1.42025 -1.2394 0
M  V30 14498 C 1388.16 2.27954 -2.50509 0
M  V30 14499 C 1387.2 2.0906 -3.71748 0
M  V30 14500 S 1388.04 1.373 -5.17599 0
M  V30 14501 C 1389.19 2.70153 -5.64596 0
M  V30 14502 H 1389.43 0.544801 -2.92266 0
M  V30 14503 H 1386.96 0.16534 -1.53512 0
M  V30 14504 H 1388.92 3.03555 -2.76342 0
M  V30 14505 H 1387.58 2.67036 -1.65381 0
M  V30 14506 H 1386.77 3.06333 -4.0022 0
M  V30 14507 H 1386.37 1.41599 -3.46158 0
M  V30 14508 H 1388.66 3.66337 -5.69915 0
M  V30 14509 H 1389.61 2.46322 -6.63876 0
M  V30 14510 H 1390.02 2.76212 -4.92308 0
M  V30 14511 N 1389.41 1.55964 0.226527 0
M  V30 14512 C 1390.64 1.83168 0.972846 0
M  V30 14513 C 1391.06 0.626512 1.7736 0
M  V30 14514 O 1390.42 -0.42468 1.76256 0
M  V30 14515 C 1390.47 3.08315 1.87014 0
M  V30 14516 O 1389.57 2.8666 2.96479 0
M  V30 14517 H 1388.92 0.604041 0.275736 0
M  V30 14518 H 1391.45 2.03172 0.241345 0
M  V30 14519 H 1391.46 3.38288 2.28091 0
M  V30 14520 H 1390.13 3.95663 1.28154 0
M  V30 14521 H 1388.71 2.67907 2.59384 0
M  V30 14522 N 1390.89 -0.493031 1.4969 0
M  V30 14523 C 1391.82 -1.60215 1.69863 0
M  V30 14524 C 1392.8 -1.61053 0.547362 0
M  V30 14525 O 1393.99 -1.77667 0.784093 0
M  V30 14526 C 1391.12 -2.98662 1.77252 0
M  V30 14527 C 1390.07 -3.1269 2.92248 0
M  V30 14528 C 1389.4 -4.52567 2.84758 0
M  V30 14529 C 1390.7 -2.91965 4.33074 0
M  V30 14530 H 1392.39 -1.43587 2.62723 0
M  V30 14531 H 1389.94 -0.689334 1.26429 0
M  V30 14532 H 1391.89 -3.7616 1.89951 0
M  V30 14533 H 1390.62 -3.16397 0.809976 0
M  V30 14534 H 1389.27 -2.37619 2.79164 0
M  V30 14535 H 1388.92 -4.6719 1.86394 0
M  V30 14536 H 1388.62 -4.62893 3.61944 0
M  V30 14537 H 1390.15 -5.32116 2.99475 0
M  V30 14538 H 1391.56 -3.59228 4.46798 0
M  V30 14539 H 1389.96 -3.13756 5.11544 0
M  V30 14540 H 1391.03 -1.88015 4.46966 0
M  V30 14541 N 1392.37 -1.38898 -0.744656 0
M  V30 14542 C 1393.32 -1.33342 -1.84943 0
M  V30 14543 C 1394.3 -0.216036 -1.59443 0
M  V30 14544 O 1395.5 -0.452764 -1.71111 0
M  V30 14545 C 1392.63 -1.16966 -3.2276 0
M  V30 14546 C 1391.71 -2.33365 -3.54121 0
M  V30 14547 N 1392.1 -3.58824 -3.56481 0
M  V30 14548 C 1390.4 -2.26112 -3.84434 0
M  V30 14549 C 1391.1 -4.35741 -3.85364 0
M  V30 14550 N 1390.08 -3.65206 -4.02648 0
M  V30 14551 H 1393.88 -2.28321 -1.85059 0
M  V30 14552 H 1391.39 -1.32257 -0.94244 0
M  V30 14553 H 1393.39 -1.11069 -4.01832 0
M  V30 14554 H 1392.05 -0.229288 -3.23889 0
M  V30 14555 H 1393.06 -3.92377 -3.38025 0
M  V30 14556 H 1389.74 -1.40283 -3.93226 0
M  V30 14557 H 1391.13 -5.44445 -3.93738 0
M  V30 14558 N 1393.85 0.973806 -1.23914 0
M  V30 14559 C 1395.1 1.71598 -1.07519 0
M  V30 14560 C 1395.42 1.90613 0.386926 0
M  V30 14561 O 1394.68 1.46056 1.30254 0
M  V30 14562 C 1394.98 3.11441 -1.75326 0
M  V30 14563 C 1394.64 3.12286 -3.25251 0
M  V30 14564 C 1393.31 3.12224 -3.66155 0
M  V30 14565 C 1395.66 3.0709 -4.21124 0
M  V30 14566 C 1392.99 3.0469 -5.01379 0
M  V30 14567 C 1395.34 3.01098 -5.56348 0
M  V30 14568 C 1394 2.99362 -5.96606 0
M  V30 14569 H 1393.27 0.627922 -0.39344 0
M  V30 14570 H 1395.92 1.13912 -1.53936 0
M  V30 14571 H 1394.22 3.72555 -1.21286 0
M  V30 14572 H 1395.92 3.67649 -1.60111 0
M  V30 14573 H 1392.51 3.13096 -2.92693 0
M  V30 14574 H 1396.69 3.06272 -3.90527 0
M  V30 14575 H 1391.95 3.01703 -5.31776 0
M  V30 14576 H 1396.12 2.96036 -6.30346 0
M  V30 14577 H 1393.75 2.93279 -7.0135 0
M  V30 14578 N 1395.33 1.05191 1.17357 0
M  V30 14579 C 1396.26 0.673931 2.23563 0
M  V30 14580 C 1397.24 -0.328284 1.66902 0
M  V30 14581 O 1398.42 -0.205878 1.93106 0
M  V30 14582 C 1395.55 0.0478801 3.47267 0
M  V30 14583 C 1394.51 0.974855 4.1675 0
M  V30 14584 C 1393.83 0.212684 5.34277 0
M  V30 14585 C 1395.13 2.299 4.68981 0
M  V30 14586 H 1396.83 1.56183 2.55436 0
M  V30 14587 H 1394.37 0.752408 1.2278 0
M  V30 14588 H 1396.33 -0.228343 4.20781 0
M  V30 14589 H 1395.05 -0.874963 3.14662 0
M  V30 14590 H 1393.71 1.23564 3.45148 0
M  V30 14591 H 1393.36 -0.712924 4.97922 0
M  V30 14592 H 1393.06 0.830351 5.81703 0
M  V30 14593 H 1394.58 -0.056255 6.10574 0
M  V30 14594 H 1395.99 2.08269 5.34132 0
M  V30 14595 H 1394.39 2.87064 5.26986 0
M  V30 14596 H 1395.46 2.93759 3.8579 0
M  V30 14597 N 1396.8 -1.33791 0.83293 0
M  V30 14598 C 1398.05 -1.97233 0.422127 0
M  V30 14599 C 1398.37 -1.66738 -1.02264 0
M  V30 14600 O 1399.57 -2.23747 -1.53783 0
M  V30 14601 C 1398.03 -3.5295 0.703872 0
M  V30 14602 C 1397.64 -3.92329 2.16292 0
M  V30 14603 C 1399.38 -4.22973 0.359727 0
M  V30 14604 C 1397.29 -5.40999 2.38903 0
M  V30 14605 H 1396.22 -0.738082 0.154112 0
M  V30 14606 H 1398.87 -1.52494 1.02068 0
M  V30 14607 H 1397.25 -3.95985 0.0350184 0
M  V30 14608 H 1398.42 -3.6037 2.87176 0
M  V30 14609 H 1396.74 -3.35271 2.46947 0
M  V30 14610 H 1399.34 -5.32297 0.506366 0
M  V30 14611 H 1399.68 -4.10428 -0.696743 0
M  V30 14612 H 1400.21 -3.85449 0.983568 0
M  V30 14613 H 1396.95 -5.58541 3.43093 0
M  V30 14614 H 1396.47 -5.74438 1.72573 0
M  V30 14615 H 1398.15 -6.07809 2.2176 0
M  V30 14616 N 1398.28 -0.588812 -1.46187 0
M  V30 14617 C 1399.21 0.128595 -2.33146 0
M  V30 14618 C 1400.19 0.877608 -1.45712 0
M  V30 14619 O 1401.38 0.851866 -1.74519 0
M  V30 14620 C 1398.51 1.13886 -3.28096 0
M  V30 14621 C 1397.46 0.504296 -4.25019 0
M  V30 14622 C 1396.79 1.62147 -5.09522 0
M  V30 14623 C 1398.09 -0.562466 -5.19263 0
M  V30 14624 H 1399.78 -0.597455 -2.93378 0
M  V30 14625 H 1397.33 -0.288764 -1.41075 0
M  V30 14626 H 1399.28 1.64916 -3.8779 0
M  V30 14627 H 1398.01 1.89527 -2.65983 0
M  V30 14628 H 1396.66 0.0150325 -3.66597 0
M  V30 14629 H 1396.31 2.36769 -4.4379 0
M  V30 14630 H 1396.01 1.20249 -5.75164 0
M  V30 14631 H 1397.54 2.13441 -5.7208 0
M  V30 14632 H 1398.95 -0.137003 -5.73136 0
M  V30 14633 H 1397.35 -0.902115 -5.93281 0
M  V30 14634 H 1398.42 -1.4464 -4.62825 0
M  V30 14635 N 1399.76 1.54172 -0.326923 0
M  V30 14636 C 1400.99 2.04747 0.276107 0
M  V30 14637 C 1401.4 1.20251 1.4607 0
M  V30 14638 O 1400.74 0.226753 1.82295 0
M  V30 14639 C 1400.8 3.51143 0.770651 0
M  V30 14640 C 1400.47 4.56066 -0.292079 0
M  V30 14641 C 1401.46 5.07487 -1.12928 0
M  V30 14642 C 1399.15 5.00358 -0.441232 0
M  V30 14643 C 1401.14 6.01767 -2.10133 0
M  V30 14644 C 1398.83 5.94452 -1.4167 0
M  V30 14645 C 1399.83 6.45042 -2.24521 0
M  V30 14646 O 1399.52 7.37288 -3.20409 0
M  V30 14647 H 1399.25 0.673322 0.0601144 0
M  V30 14648 H 1401.8 1.99899 -0.472176 0
M  V30 14649 H 1400.03 3.53399 1.5699 0
M  V30 14650 H 1401.72 3.84775 1.2924 0
M  V30 14651 H 1402.49 4.74044 -1.02505 0
M  V30 14652 H 1398.37 4.60593 0.193767 0
M  V30 14653 H 1401.91 6.41178 -2.74839 0
M  V30 14654 H 1397.81 6.27311 -1.52155 0
M  V30 14655 H 1398.58 7.55171 -3.15687 0
M  V30 14656 N 1401.24 0.0551678 1.57503 0
M  V30 14657 C 1402.48 -0.618636 1.93134 0
M  V30 14658 C 1402.82 -1.70258 0.934125 0
M  V30 14659 O 1402.09 -1.9446 -0.0392699 0
M  V30 14660 C 1402.38 -1.21103 3.39126 0
M  V30 14661 C 1402.23 -0.134865 4.49598 0
M  V30 14662 C 1403.55 -2.12148 3.85592 0
M  V30 14663 H 1400.67 -0.223416 0.702321 0
M  V30 14664 H 1403.31 0.117748 1.89635 0
M  V30 14665 H 1401.46 -1.83862 3.42238 0
M  V30 14666 H 1403.13 0.497292 4.58612 0
M  V30 14667 H 1401.37 0.536587 4.30469 0
M  V30 14668 H 1402.04 -0.589447 5.48844 0
M  V30 14669 H 1404.52 -1.59346 3.8438 0
M  V30 14670 H 1403.4 -2.50539 4.88387 0
M  V30 14671 H 1403.66 -3.02318 3.22578 0
M  V30 14672 N 1402.72 -1.56081 -0.218252 0
M  V30 14673 C 1403.63 -1.95856 -1.29141 0
M  V30 14674 C 1404.64 -0.862857 -1.51099 0
M  V30 14675 O 1405.82 -1.1667 -1.64165 0
M  V30 14676 C 1402.88 -2.27005 -2.62049 0
M  V30 14677 C 1401.94 -3.50162 -2.48365 0
M  V30 14678 C 1401.18 -3.79815 -3.74935 0
M  V30 14679 O 1401.4 -3.11095 -4.78096 0
M  V30 14680 O 1400.33 -4.73299 -3.71849 0
M  V30 14681 H 1404.16 -2.8732 -0.983922 0
M  V30 14682 H 1401.75 -1.43334 -0.421385 0
M  V30 14683 H 1403.63 -2.4822 -3.40536 0
M  V30 14684 H 1402.3 -1.38715 -2.92472 0
M  V30 14685 H 1401.21 -3.34222 -1.68066 0
M  V30 14686 H 1402.54 -4.38845 -2.22881 0
M  V30 14687 N 1404.2 0.485086 -1.49949 0
M  V30 14688 C 1405.61 1.06629 -1.53255 0
M  V30 14689 C 1405.96 1.9344 -0.327915 0
M  V30 14690 O 1405.08 2.09011 0.560669 0
M  V30 14691 C 1405.68 1.94053 -2.77721 0
M  V30 14692 C 1404.24 2.47307 -2.83754 0
M  V30 14693 C 1403.38 1.25307 -2.47373 0
M  V30 14694 H 1406.33 0.268297 -1.56416 0
M  V30 14695 H 1406.36 2.78946 -2.58784 0
M  V30 14696 H 1405.87 1.30843 -3.65379 0
M  V30 14697 H 1403.97 3.1411 -2.00414 0
M  V30 14698 H 1404.08 2.83371 -3.86313 0
M  V30 14699 H 1402.45 1.5834 -1.99501 0
M  V30 14700 H 1403.23 0.637815 -3.37323 0
M  V30 14701 N 1405.67 1.39291 0.737279 0
M  V30 14702 C 1406.6 1.40562 1.86452 0
M  V30 14703 C 1407.58 0.269283 1.67955 0
M  V30 14704 O 1408.77 0.474769 1.88307 0
M  V30 14705 C 1405.9 1.2461 3.24175 0
M  V30 14706 C 1404.85 2.35619 3.57306 0
M  V30 14707 C 1404.18 2.04758 4.93941 0
M  V30 14708 C 1405.48 3.77927 3.60512 0
M  V30 14709 H 1407.17 2.34896 1.85646 0
M  V30 14710 H 1404.72 1.13065 0.891756 0
M  V30 14711 H 1406.67 1.2412 4.02706 0
M  V30 14712 H 1405.4 0.267438 3.25503 0
M  V30 14713 H 1404.06 2.35322 2.81104 0
M  V30 14714 H 1403.7 1.05336 4.91847 0
M  V30 14715 H 1403.4 2.79117 5.17076 0
M  V30 14716 H 1404.93 2.05915 5.74832 0
M  V30 14717 H 1406.34 3.80166 4.29123 0
M  V30 14718 H 1404.74 4.51626 3.95164 0
M  V30 14719 H 1405.81 4.09068 2.60368 0
M  V30 14720 N 1407.15 -0.967221 1.24429 0
M  V30 14721 C 1408.56 -1.52488 1.07723 0
M  V30 14722 C 1408.91 -1.93031 -0.351191 0
M  V30 14723 O 1408.04 -1.77376 -1.23963 0
M  V30 14724 C 1408.63 -2.77107 1.94929 0
M  V30 14725 C 1407.19 -3.29227 1.82446 0
M  V30 14726 C 1406.34 -2.02133 1.89835 0
M  V30 14727 H 1409.29 -0.785465 1.37899 0
M  V30 14728 H 1409.31 -3.50459 1.48186 0
M  V30 14729 H 1408.82 -2.47567 2.98885 0
M  V30 14730 H 1406.92 -3.63617 0.813246 0
M  V30 14731 H 1407.04 -3.98095 2.66566 0
M  V30 14732 H 1405.4 -2.16867 1.3357 0
M  V30 14733 H 1406.18 -1.74958 2.95372 0
M  V30 14734 N 1408.63 -1.05812 -1.16797 0
M  V30 14735 C 1409.56 -0.685778 -2.23202 0
M  V30 14736 C 1410.54 0.319428 -1.67074 0
M  V30 14737 O 1411.73 0.195635 -1.93212 0
M  V30 14738 C 1408.86 -0.0662958 -3.47237 0
M  V30 14739 C 1407.81 -0.996943 -4.16227 0
M  V30 14740 C 1407.14 -0.241015 -5.34157 0
M  V30 14741 C 1408.44 -2.32384 -4.67755 0
M  V30 14742 H 1410.13 -1.57535 -2.54604 0
M  V30 14743 H 1407.68 -0.758909 -1.22379 0
M  V30 14744 H 1409.63 0.206024 -4.20896 0
M  V30 14745 H 1408.35 0.858263 -3.15121 0
M  V30 14746 H 1407.01 -1.25393 -3.44488 0
M  V30 14747 H 1406.66 0.686508 -4.98293 0
M  V30 14748 H 1406.36 -0.861188 -5.81255 0
M  V30 14749 H 1407.88 0.0238739 -6.10595 0
M  V30 14750 H 1409.3 -2.11099 -5.3302 0
M  V30 14751 H 1407.69 -2.89855 -5.25456 0
M  V30 14752 H 1408.76 -2.958 -3.84227 0
M  V30 14753 N 1410.11 1.33347 -0.840014 0
M  V30 14754 C 1411.36 1.97007 -0.432581 0
M  V30 14755 C 1411.67 1.67278 1.01378 0
M  V30 14756 O 1412.88 2.2456 1.52595 0
M  V30 14757 C 1411.33 3.52572 -0.72258 0
M  V30 14758 C 1410.94 3.91176 -2.1837 0
M  V30 14759 C 1412.68 4.22776 -0.382153 0
M  V30 14760 C 1410.59 5.39724 -2.41768 0
M  V30 14761 H 1409.52 0.737255 -0.158024 0
M  V30 14762 H 1412.17 1.5195 -1.02876 0
M  V30 14763 H 1410.55 3.9596 -0.0560179 0
M  V30 14764 H 1411.73 3.58842 -2.89083 0
M  V30 14765 H 1410.04 3.33956 -2.48721 0
M  V30 14766 H 1412.64 5.32021 -0.534588 0
M  V30 14767 H 1412.98 4.10792 0.674967 0
M  V30 14768 H 1413.52 3.84922 -1.004 0
M  V30 14769 H 1410.25 5.56713 -3.4605 0
M  V30 14770 H 1409.77 5.73514 -1.75617 0
M  V30 14771 H 1411.45 6.06624 -2.2498 0
M  V30 14772 N 1411.59 0.596556 1.45873 0
M  V30 14773 C 1412.83 0.0874583 2.02311 0
M  V30 14774 C 1413.16 -1.27781 1.46636 0
M  V30 14775 O 1412.42 -1.85393 0.62674 0
M  V30 14776 C 1412.71 -0.0135714 3.57397 0
M  V30 14777 C 1412.38 1.28591 4.32175 0
M  V30 14778 C 1411.04 1.6419 4.52322 0
M  V30 14779 C 1413.39 2.14523 4.75005 0
M  V30 14780 C 1410.72 2.85493 5.12553 0
M  V30 14781 C 1413.07 3.35065 5.36577 0
M  V30 14782 C 1411.74 3.70929 5.54949 0
M  V30 14783 H 1411.01 0.0320033 0.740309 0
M  V30 14784 H 1413.66 0.775967 1.75074 0
M  V30 14785 H 1411.96 -0.785287 3.8385 0
M  V30 14786 H 1413.66 -0.423456 3.98758 0
M  V30 14787 H 1410.25 0.99881 4.16799 0
M  V30 14788 H 1414.43 1.88321 4.59183 0
M  V30 14789 H 1409.69 3.134 5.24967 0
M  V30 14790 H 1413.86 4.01909 5.6872 0
M  V30 14791 H 1411.49 4.65011 6.01389 0
M  V30 14792 N 1413.06 -1.53996 0.335095 0
M  V30 14793 C 1414 -2.22258 -0.559809 0
M  V30 14794 C 1415.01 -1.22636 -1.07071 0
M  V30 14795 O 1416.2 -1.4904 -0.982312 0
M  V30 14796 C 1413.3 -2.88256 -1.78218 0
M  V30 14797 C 1412.47 -4.14118 -1.40801 0
M  V30 14798 C 1411.53 -4.63603 -2.48915 0
M  V30 14799 O 1410.56 -5.28015 -2.12576 0
M  V30 14800 N 1411.76 -4.3881 -3.80034 0
M  V30 14801 H 1414.52 -2.9969 0.0247521 0
M  V30 14802 H 1412.08 -1.61119 0.158826 0
M  V30 14803 H 1414.08 -3.1828 -2.4996 0
M  V30 14804 H 1412.65 -2.14461 -2.27431 0
M  V30 14805 H 1411.87 -3.90732 -0.521729 0
M  V30 14806 H 1413.15 -4.96005 -1.13388 0
M  V30 14807 H 1412.55 -3.87278 -4.12349 0
M  V30 14808 H 1411.11 -4.73461 -4.47971 0
M  V30 14809 N 1414.54 -0.0635198 -1.57472 0
M  V30 14810 C 1415.79 0.607008 -1.92349 0
M  V30 14811 C 1416.1 1.71268 -0.944806 0
M  V30 14812 O 1417.31 2.44221 -1.18609 0
M  V30 14813 C 1415.77 1.13105 -3.41666 0
M  V30 14814 C 1415.37 0.0568256 -4.47964 0
M  V30 14815 C 1417.12 1.77611 -3.85557 0
M  V30 14816 C 1415.02 0.594443 -5.88405 0
M  V30 14817 H 1413.95 0.230506 -0.717902 0
M  V30 14818 H 1416.61 -0.134413 -1.83007 0
M  V30 14819 H 1414.99 1.92517 -3.46054 0
M  V30 14820 H 1416.16 -0.717371 -4.55182 0
M  V30 14821 H 1414.48 -0.491517 -4.13489 0
M  V30 14822 H 1417.07 2.18852 -4.87861 0
M  V30 14823 H 1417.42 2.6328 -3.22474 0
M  V30 14824 H 1417.95 1.04834 -3.83738 0
M  V30 14825 H 1414.69 -0.224893 -6.55114 0
M  V30 14826 H 1414.21 1.33635 -5.84724 0
M  V30 14827 H 1415.89 1.07346 -6.38033 0
M  V30 14828 N 1416.02 1.56195 0.209972 0
M  V30 14829 C 1417.25 1.8384 0.949228 0
M  V30 14830 C 1417.66 0.644141 1.77472 0
M  V30 14831 O 1417.02 -0.387276 1.78344 0
M  V30 14832 C 1417.07 3.10131 1.85745 0
M  V30 14833 O 1416.79 4.2495 1.06531 0
M  V30 14834 C 1418.29 3.50847 2.70963 0
M  V30 14835 H 1415.51 0.610856 0.277662 0
M  V30 14836 H 1418.06 2.03295 0.221708 0
M  V30 14837 H 1416.21 2.92618 2.53877 0
M  V30 14838 H 1416.63 4.96769 1.68287 0
M  V30 14839 H 1418.1 4.4222 3.30372 0
M  V30 14840 H 1418.58 2.73139 3.43936 0
M  V30 14841 H 1419.18 3.7084 2.08226 0
M  V30 14842 N 1417.5 -0.477127 1.50204 0
M  V30 14843 C 1418.91 -1.05815 1.53819 0
M  V30 14844 C 1419.26 -1.93264 0.338169 0
M  V30 14845 O 1418.38 -2.09305 -0.549576 0
M  V30 14846 C 1418.98 -1.92577 2.78746 0
M  V30 14847 C 1417.54 -2.45799 2.85061 0
M  V30 14848 C 1416.69 -1.23994 2.48034 0
M  V30 14849 H 1419.64 -0.259998 1.56556 0
M  V30 14850 H 1419.66 -2.7757 2.6026 0
M  V30 14851 H 1419.17 -1.28904 3.66068 0
M  V30 14852 H 1417.27 -3.13042 2.02077 0
M  V30 14853 H 1417.38 -2.81318 3.8781 0
M  V30 14854 H 1415.75 -1.5728 2.00338 0
M  V30 14855 H 1416.53 -0.619917 3.37657 0
M  V30 14856 N 1418.98 -1.3968 -0.729882 0
M  V30 14857 C 1419.91 -1.41549 -1.85704 0
M  V30 14858 C 1420.89 -0.278186 -1.6781 0
M  V30 14859 O 1422.07 -0.484749 -1.88053 0
M  V30 14860 C 1419.2 -1.26327 -3.2351 0
M  V30 14861 C 1418.16 -2.37511 -3.56051 0
M  V30 14862 C 1417.48 -2.07375 -4.92849 0
M  V30 14863 C 1418.78 -3.79833 -3.58502 0
M  V30 14864 H 1420.48 -2.35877 -1.84398 0
M  V30 14865 H 1418.02 -1.13536 -0.885747 0
M  V30 14866 H 1419.98 -1.26254 -4.02042 0
M  V30 14867 H 1418.7 -0.284697 -3.25357 0
M  V30 14868 H 1417.36 -2.36809 -2.79852 0
M  V30 14869 H 1417.01 -1.07943 -4.91281 0
M  V30 14870 H 1416.71 -2.81855 -5.15588 0
M  V30 14871 H 1418.23 -2.08961 -5.73731 0
M  V30 14872 H 1419.64 -3.82436 -4.27101 0
M  V30 14873 H 1418.04 -4.53715 -3.92763 0
M  V30 14874 H 1419.11 -4.10443 -2.58195 0
M  V30 14875 N 1420.45 0.960609 -1.2494 0
M  V30 14876 C 1421.4 2.07763 -1.04581 0
M  V30 14877 C 1422.4 1.69386 0.0214505 0
M  V30 14878 O 1423.6 1.79503 -0.133683 0
M  V30 14879 H 1419.98 0.679944 -0.321216 0
M  V30 14880 H 1421.95 2.22094 -1.99291 0
M  V30 14881 C 1420.7 3.41088 -0.674876 0
M  V30 14882 H 1420.02 3.71082 -1.4879 0
M  V30 14883 H 1421.46 4.20123 -0.572079 0
M  V30 14884 C 1419.92 3.31172 0.6186 0
M  V30 14885 O 1420.45 3.65688 1.66238 0
M  V30 14886 N 1418.66 2.84297 0.601984 0
M  V30 14887 H 1418.2 2.56406 -0.24778 0
M  V30 14888 H 1418.16 2.78045 1.4676 0
M  V30 14889 N 1421.93 1.0643 1.16234 0
M  V30 14890 C 1423.18 0.782998 1.87075 0
M  V30 14891 C 1423.51 -0.688852 1.81572 0
M  V30 14892 O 1422.79 -1.50478 1.23234 0
M  V30 14893 C 1423.07 1.27997 3.36584 0
M  V30 14894 C 1422.92 2.81568 3.5077 0
M  V30 14895 C 1424.24 0.888975 4.31028 0
M  V30 14896 H 1421.36 0.28591 0.679282 0
M  V30 14897 H 1424 1.32046 1.36615 0
M  V30 14898 H 1422.15 0.822756 3.79688 0
M  V30 14899 H 1423.82 3.35508 3.16595 0
M  V30 14900 H 1422.07 3.2023 2.92635 0
M  V30 14901 H 1422.74 3.11406 4.55774 0
M  V30 14902 H 1425.21 1.28279 3.95833 0
M  V30 14903 H 1424.09 1.26416 5.34144 0
M  V30 14904 H 1424.35 -0.205973 4.4162 0
M  V30 14905 N 1423.41 -1.329 0.847073 0
M  V30 14906 C 1424.64 -2.0171 0.460497 0
M  V30 14907 C 1425.05 -1.63699 -0.940649 0
M  V30 14908 O 1424.41 -0.854454 -1.61262 0
M  V30 14909 C 1424.46 -3.56799 0.581108 0
M  V30 14910 O 1424.18 -3.93442 1.92705 0
M  V30 14911 C 1425.68 -4.42882 0.192552 0
M  V30 14912 H 1422.9 -0.645887 0.181853 0
M  V30 14913 H 1425.45 -1.69648 1.14192 0
M  V30 14914 H 1423.6 -3.87364 -0.0524924 0
M  V30 14915 H 1424.02 -4.88157 1.91841 0
M  V30 14916 H 1425.49 -5.51025 0.327969 0
M  V30 14917 H 1425.97 -4.30571 -0.866315 0
M  V30 14918 H 1426.57 -4.17691 0.800918 0
M  V30 14919 N 1424.89 -0.604284 -1.45555 0
M  V30 14920 C 1425.82 0.154579 -2.28678 0
M  V30 14921 C 1426.83 0.83491 -1.39761 0
M  V30 14922 O 1428.02 0.700852 -1.64166 0
M  V30 14923 C 1425.12 1.2397 -3.15412 0
M  V30 14924 C 1424.3 0.647128 -4.32586 0
M  V30 14925 C 1423.35 1.62272 -5.00554 0
M  V30 14926 O 1422.38 1.15031 -5.57455 0
M  V30 14927 N 1423.58 2.9571 -4.99536 0
M  V30 14928 H 1426.35 -0.558668 -2.94447 0
M  V30 14929 H 1423.91 -0.443538 -1.55706 0
M  V30 14930 H 1425.9 1.89209 -3.57746 0
M  V30 14931 H 1424.47 1.85552 -2.51574 0
M  V30 14932 H 1423.69 -0.183261 -3.93774 0
M  V30 14933 H 1424.98 0.231394 -5.08274 0
M  V30 14934 H 1424.38 3.36695 -4.54591 0
M  V30 14935 H 1422.93 3.56381 -5.45744 0
M  V30 14936 N 1426.37 1.53816 -0.343257 0
M  V30 14937 C 1427.61 2.01902 0.246398 0
M  V30 14938 C 1427.97 1.22671 1.48221 0
M  V30 14939 O 1427.26 0.305932 1.89142 0
M  V30 14940 C 1427.45 3.521 0.613243 0
M  V30 14941 C 1427.28 4.45873 -0.585472 0
M  V30 14942 C 1426.05 4.93388 -1.09069 0
M  V30 14943 C 1428.25 4.93617 -1.44383 0
M  V30 14944 N 1426.23 5.71112 -2.25176 0
M  V30 14945 C 1427.6 5.69461 -2.45182 0
M  V30 14946 C 1429.66 4.75726 -1.46931 0
M  V30 14947 C 1428.36 6.29317 -3.48357 0
M  V30 14948 C 1430.39 5.36432 -2.48987 0
M  V30 14949 C 1429.75 6.12143 -3.48511 0
M  V30 14950 H 1425.85 0.780169 0.0534765 0
M  V30 14951 H 1428.43 1.8862 -0.482756 0
M  V30 14952 H 1426.6 3.65588 1.3115 0
M  V30 14953 H 1428.34 3.8693 1.18606 0
M  V30 14954 H 1425.09 4.68995 -0.658824 0
M  V30 14955 H 1425.52 6.14645 -2.83797 0
M  V30 14956 H 1430.16 4.16737 -0.713479 0
M  V30 14957 H 1427.88 6.87416 -4.24835 0
M  V30 14958 H 1431.46 5.24495 -2.51785 0
M  V30 14959 H 1430.34 6.58281 -4.26187 0
M  V30 14960 N 1427.84 0.0718701 1.57436 0
M  V30 14961 C 1428.77 -0.89288 2.15754 0
M  V30 14962 C 1429.76 -1.31036 1.0846 0
M  V30 14963 O 1430.94 -1.38139 1.36496 0
M  V30 14964 C 1428.07 -2.16044 2.71923 0
M  V30 14965 C 1427.02 -1.88236 3.84384 0
M  V30 14966 C 1426.35 -3.21624 4.27156 0
M  V30 14967 C 1427.65 -1.18758 5.0862 0
M  V30 14968 H 1429.34 -0.407061 2.9662 0
M  V30 14969 H 1426.89 -0.194354 1.42682 0
M  V30 14970 H 1428.84 -2.83952 3.11366 0
M  V30 14971 H 1427.57 -2.66868 1.88279 0
M  V30 14972 H 1426.23 -1.22734 3.45445 0
M  V30 14973 H 1425.87 -3.70289 3.40433 0
M  V30 14974 H 1425.57 -3.03809 5.02965 0
M  V30 14975 H 1427.1 -3.90729 4.69215 0
M  V30 14976 H 1428.51 -1.76735 5.45378 0
M  V30 14977 H 1426.91 -1.11201 5.89707 0
M  V30 14978 H 1427.98 -0.166682 4.84613 0
M  V30 14979 N 1429.32 -1.56304 -0.201686 0
M  V30 14980 C 1430.26 -1.8907 -1.27781 0
M  V30 14981 C 1431.23 -0.75009 -1.44265 0
M  V30 14982 O 1432.42 -1.00044 -1.59761 0
M  V30 14983 C 1429.54 -2.11513 -2.64537 0
M  V30 14984 C 1428.59 -3.34214 -2.64959 0
M  V30 14985 S 1429.42 -4.89541 -2.17047 0
M  V30 14986 C 1430.58 -5.15044 -3.55641 0
M  V30 14987 H 1430.81 -2.8005 -0.997971 0
M  V30 14988 H 1428.35 -1.48997 -0.404872 0
M  V30 14989 H 1430.3 -2.25126 -3.43262 0
M  V30 14990 H 1428.96 -1.21295 -2.89735 0
M  V30 14991 H 1428.16 -3.47023 -3.65501 0
M  V30 14992 H 1427.76 -3.1956 -1.94312 0
M  V30 14993 H 1430.05 -5.05161 -4.51463 0
M  V30 14994 H 1430.99 -6.16838 -3.47731 0
M  V30 14995 H 1431.4 -4.42704 -3.50248 0
M  V30 14996 N 1430.8 0.469154 -1.50455 0
M  V30 14997 C 1432.05 1.2229 -1.6178 0
M  V30 14998 C 1432.38 1.91577 -0.318073 0
M  V30 14999 O 1431.65 1.82205 0.68057 0
M  V30 15000 C 1431.94 2.26504 -2.79943 0
M  V30 15001 C 1431.79 1.61509 -4.19804 0
M  V30 15002 C 1433.11 3.27796 -2.93662 0
M  V30 15003 H 1430.23 0.443241 -0.588817 0
M  V30 15004 H 1432.87 0.516431 -1.82847 0
M  V30 15005 H 1431.02 2.86757 -2.62112 0
M  V30 15006 H 1432.69 1.04838 -4.49229 0
M  V30 15007 H 1430.94 0.918162 -4.23972 0
M  V30 15008 H 1431.61 2.37248 -4.98415 0
M  V30 15009 H 1434.08 2.77568 -3.09992 0
M  V30 15010 H 1432.96 3.98041 -3.77961 0
M  V30 15011 H 1433.22 3.92033 -2.04359 0
M  V30 15012 N 1432.28 1.40065 0.722464 0
M  V30 15013 C 1433.21 1.42532 1.84951 0
M  V30 15014 C 1434.19 0.287082 1.6766 0
M  V30 15015 O 1435.37 0.494715 1.87793 0
M  V30 15016 C 1432.5 1.28041 3.22836 0
M  V30 15017 C 1431.46 2.39396 3.54787 0
M  V30 15018 C 1430.78 2.09986 4.91742 0
M  V30 15019 C 1432.08 3.81729 3.56483 0
M  V30 15020 H 1433.78 2.36851 1.83144 0
M  V30 15021 H 1431.32 1.14005 0.879714 0
M  V30 15022 H 1433.28 1.28385 4.01367 0
M  V30 15023 H 1432 0.301947 3.25201 0
M  V30 15024 H 1430.66 2.3829 2.78592 0
M  V30 15025 H 1430.31 1.10547 4.90702 0
M  V30 15026 H 1430.01 2.84586 5.14086 0
M  V30 15027 H 1431.53 2.12 5.72615 0
M  V30 15028 H 1432.95 3.84696 4.25067 0
M  V30 15029 H 1431.34 4.55791 3.90351 0
M  V30 15030 H 1432.41 4.11807 2.56014 0
M  V30 15031 N 1433.76 -0.95397 1.25448 0
M  V30 15032 C 1434.7 -2.05075 1.0589 0
M  V30 15033 C 1435.67 -1.66069 -0.0321545 0
M  V30 15034 O 1436.86 -1.90389 0.125152 0
M  V30 15035 C 1434 -3.38246 0.684391 0
M  V30 15036 C 1433.11 -3.90366 1.85037 0
M  V30 15037 C 1432.25 -5.11864 1.42016 0
M  V30 15038 C 1431.29 -5.56214 2.55523 0
M  V30 15039 N 1430.42 -6.68924 2.13272 0
M  V30 15040 H 1435.26 -2.21137 1.99755 0
M  V30 15041 H 1432.8 -1.08366 0.994742 0
M  V30 15042 H 1434.76 -4.14785 0.448209 0
M  V30 15043 H 1433.39 -3.22068 -0.217273 0
M  V30 15044 H 1432.44 -3.1034 2.19984 0
M  V30 15045 H 1433.75 -4.19228 2.70276 0
M  V30 15046 H 1432.91 -5.95823 1.14366 0
M  V30 15047 H 1431.65 -4.84718 0.538492 0
M  V30 15048 H 1430.65 -4.7082 2.83916 0
M  V30 15049 H 1431.88 -5.85368 3.44268 0
M  V30 15050 H 1429.82 -6.43486 1.27523 0
M  V30 15051 H 1429.74 -6.97307 2.92059 0
M  V30 15052 H 1431.01 -7.5629 1.88801 0
M  V30 15053 N 1435.24 -1.07045 -1.15668 0
M  V30 15054 C 1436.48 -0.786751 -1.85723 0
M  V30 15055 C 1436.8 0.689604 -1.83041 0
M  V30 15056 O 1438 1.08796 -2.48748 0
M  V30 15057 C 1436.46 -1.35729 -3.33325 0
M  V30 15058 C 1436.07 -2.86444 -3.44462 0
M  V30 15059 C 1437.81 -1.15148 -4.08584 0
M  V30 15060 C 1435.72 -3.36705 -4.86193 0
M  V30 15061 H 1434.65 -0.29063 -0.695737 0
M  V30 15062 H 1437.3 -1.29012 -1.30492 0
M  V30 15063 H 1435.68 -0.781671 -3.88209 0
M  V30 15064 H 1436.86 -3.50023 -2.997 0
M  V30 15065 H 1435.17 -3.0578 -2.82644 0
M  V30 15066 H 1437.77 -1.50179 -5.13177 0
M  V30 15067 H 1438.11 -0.0903159 -4.16202 0
M  V30 15068 H 1438.64 -1.6933 -3.59962 0
M  V30 15069 H 1435.38 -4.42333 -4.83758 0
M  V30 15070 H 1434.9 -2.77877 -5.31549 0
M  V30 15071 H 1436.58 -3.32478 -5.55038 0
M  V30 15072 N 1436.71 1.32449 -0.85411 0
M  V30 15073 C 1437.94 2.01997 -0.470307 0
M  V30 15074 C 1438.36 1.63772 0.925225 0
M  V30 15075 O 1437.72 0.838089 1.60766 0
M  V30 15076 C 1437.77 3.55294 -0.616301 0
M  V30 15077 O 1436.87 4.10902 0.351133 0
M  V30 15078 H 1436.21 0.63651 -0.189079 0
M  V30 15079 H 1438.74 1.69008 -1.15315 0
M  V30 15080 H 1438.75 4.0488 -0.503624 0
M  V30 15081 H 1437.43 3.82459 -1.63396 0
M  V30 15082 H 1436.01 3.72391 0.194741 0
M  V30 15083 N 1438.19 0.611994 1.45232 0
M  V30 15084 C 1439.12 -0.0914869 2.33321 0
M  V30 15085 C 1440.1 -0.854315 1.4709 0
M  V30 15086 O 1441.29 -0.823994 1.75852 0
M  V30 15087 C 1438.42 -1.08652 3.29867 0
M  V30 15088 C 1437.37 -0.436615 4.25767 0
M  V30 15089 C 1436.7 -1.54021 5.12037 0
M  V30 15090 C 1438 0.645005 5.18302 0
M  V30 15091 H 1439.69 0.644053 2.92391 0
M  V30 15092 H 1437.24 0.311171 1.40598 0
M  V30 15093 H 1439.19 -1.58726 3.90364 0
M  V30 15094 H 1437.91 -1.85271 2.68965 0
M  V30 15095 H 1436.57 0.0432918 3.66574 0
M  V30 15096 H 1436.22 -2.29679 4.475 0
M  V30 15097 H 1435.92 -1.11084 5.77005 0
M  V30 15098 H 1437.45 -2.04313 5.75403 0
M  V30 15099 H 1438.86 0.228166 5.72846 0
M  V30 15100 H 1437.26 0.996387 5.9177 0
M  V30 15101 H 1438.33 1.51985 4.60466 0
M  V30 15102 N 1439.67 -1.53632 0.351409 0
M  V30 15103 C 1441.08 -1.86241 -0.130834 0
M  V30 15104 C 1441.43 -1.27243 -1.49344 0
M  V30 15105 O 1440.56 -0.589006 -2.0823 0
M  V30 15106 C 1441.15 -3.37919 -0.244179 0
M  V30 15107 C 1439.71 -3.70377 -0.670662 0
M  V30 15108 C 1438.86 -2.76643 0.190813 0
M  V30 15109 H 1441.81 -1.48083 0.570724 0
M  V30 15110 H 1441.83 -3.65137 -1.07029 0
M  V30 15111 H 1441.34 -3.8083 0.747688 0
M  V30 15112 H 1439.44 -3.33015 -1.67127 0
M  V30 15113 H 1439.56 -4.76934 -0.455102 0
M  V30 15114 H 1437.92 -2.52446 -0.338092 0
M  V30 15115 H 1438.7 -3.22385 1.17996 0
M  V30 15116 N 1441.15 -0.0802183 -1.57396 0
M  V30 15117 C 1442.39 0.587831 -1.94094 0
M  V30 15118 C 1442.73 1.6875 -0.961093 0
M  V30 15119 O 1442 1.94498 0.00832799 0
M  V30 15120 C 1442.28 1.15692 -3.41009 0
M  V30 15121 C 1442.14 0.0633211 -4.49755 0
M  V30 15122 C 1443.46 2.05987 -3.88918 0
M  V30 15123 H 1440.58 0.212214 -0.705786 0
M  V30 15124 H 1443.22 -0.147902 -1.89423 0
M  V30 15125 H 1441.37 1.78394 -3.4512 0
M  V30 15126 H 1443.04 -0.57019 -4.57763 0
M  V30 15127 H 1441.28 -0.605003 -4.2956 0
M  V30 15128 H 1441.95 0.502056 -5.49712 0
M  V30 15129 H 1444.43 1.5321 -3.86867 0
M  V30 15130 H 1443.31 2.42737 -4.92311 0
M  V30 15131 H 1443.57 2.97147 -3.27347 0
M  V30 15132 N 1442.63 1.56409 0.193394 0
M  V30 15133 C 1443.87 1.79919 0.911712 0
M  V30 15134 C 1444.19 0.653729 1.84352 0
M  V30 15135 O 1445.39 0.773172 2.60258 0
M  V30 15136 C 1443.85 3.18726 1.67158 0
M  V30 15137 C 1443.46 4.41078 0.784512 0
M  V30 15138 C 1445.2 3.51544 2.37944 0
M  V30 15139 C 1443.11 5.70907 1.54335 0
M  V30 15140 H 1442.04 0.670864 0.344177 0
M  V30 15141 H 1444.69 1.82757 0.164967 0
M  V30 15142 H 1443.07 3.10142 2.46227 0
M  V30 15143 H 1444.25 4.60789 0.032356 0
M  V30 15144 H 1442.56 4.15978 0.187407 0
M  V30 15145 H 1445.16 4.45779 2.95271 0
M  V30 15146 H 1445.5 2.75369 3.12214 0
M  V30 15147 H 1446.03 3.61583 1.65839 0
M  V30 15148 H 1442.77 6.50052 0.843393 0
M  V30 15149 H 1442.29 5.5521 2.26939 0
M  V30 15150 H 1443.97 6.12085 2.09669 0
M  V30 15151 N 1444.1 -0.461169 1.50702 0
M  V30 15152 C 1445.03 -1.56576 1.73223 0
M  V30 15153 C 1446.01 -1.59855 0.581401 0
M  V30 15154 O 1447.2 -1.75964 0.821602 0
M  V30 15155 C 1444.33 -2.94835 1.83548 0
M  V30 15156 C 1443.28 -3.06421 2.98815 0
M  V30 15157 C 1442.61 -4.46425 2.94293 0
M  V30 15158 C 1443.91 -2.82714 4.3917 0
M  V30 15159 H 1445.6 -1.37982 2.65709 0
M  V30 15160 H 1443.15 -0.662362 1.27862 0
M  V30 15161 H 1445.1 -3.72047 1.97887 0
M  V30 15162 H 1443.83 -3.14608 0.876906 0
M  V30 15163 H 1442.49 -2.31644 2.84142 0
M  V30 15164 H 1442.13 -4.63131 1.96262 0
M  V30 15165 H 1441.83 -4.55111 3.71682 0
M  V30 15166 H 1443.36 -5.25644 3.10695 0
M  V30 15167 H 1444.77 -3.4967 4.54317 0
M  V30 15168 H 1443.17 -3.02835 5.18084 0
M  V30 15169 H 1444.24 -1.78492 4.50853 0
M  V30 15170 N 1445.58 -1.40446 -0.715026 0
M  V30 15171 C 1446.51 -1.35159 -1.83868 0
M  V30 15172 C 1447.49 -0.221884 -1.61079 0
M  V30 15173 O 1448.68 -0.405635 -1.84084 0
M  V30 15174 C 1445.8 -1.10358 -3.20217 0
M  V30 15175 C 1444.85 -2.25787 -3.61832 0
M  V30 15176 S 1445.68 -3.88183 -3.68882 0
M  V30 15177 C 1446.84 -3.65647 -5.07989 0
M  V30 15178 H 1447.07 -2.30252 -1.88073 0
M  V30 15179 H 1444.6 -1.26738 -0.881859 0
M  V30 15180 H 1446.56 -0.967343 -3.9894 0
M  V30 15181 H 1445.22 -0.169178 -3.13644 0
M  V30 15182 H 1444.42 -2.04078 -4.60834 0
M  V30 15183 H 1444.02 -2.35717 -2.90368 0
M  V30 15184 H 1446.31 -3.24149 -5.94923 0
M  V30 15185 H 1447.25 -4.64182 -5.34734 0
M  V30 15186 H 1447.66 -2.99322 -4.78609 0
M  V30 15187 N 1447.06 0.947303 -1.25952 0
M  V30 15188 C 1448.34 1.66964 -1.01894 0
M  V30 15189 C 1448.72 2.06192 0.452555 0
M  V30 15190 O 1448.06 1.78098 1.43156 0
M  V30 15191 C 1448.27 2.88643 -1.96179 0
M  V30 15192 C 1449.62 3.60432 -2.24441 0
M  V30 15193 O 1450.65 2.98737 -1.93996 0
M  V30 15194 O 1449.51 4.7154 -2.76247 0
M  V30 15195 H 1446.6 0.730875 -0.386976 0
M  V30 15196 H 1449.15 0.999577 -1.37137 0
M  V30 15197 H 1447.92 2.565 -2.95506 0
M  V30 15198 H 1447.54 3.63377 -1.61379 0
M  V30 15199 N 1448.54 1.07657 1.15099 0
M  V30 15200 C 1449.45 0.711198 2.2356 0
M  V30 15201 C 1450.46 -0.278932 1.7175 0
M  V30 15202 O 1451.64 -0.124788 2.01013 0
M  V30 15203 C 1448.71 0.117855 3.465 0
M  V30 15204 C 1447.77 1.16162 4.13286 0
M  V30 15205 C 1447 0.596494 5.30356 0
M  V30 15206 O 1447.22 -0.586474 5.67377 0
M  V30 15207 O 1446.16 1.34288 5.86729 0
M  V30 15208 H 1449.98 1.61578 2.5715 0
M  V30 15209 H 1447.57 0.84973 1.22882 0
M  V30 15210 H 1449.45 -0.210613 4.20873 0
M  V30 15211 H 1448.12 -0.760008 3.14652 0
M  V30 15212 H 1447.03 1.54249 3.4082 0
M  V30 15213 H 1448.36 2.01149 4.49221 0
M  V30 15214 N 1450.02 -1.31994 0.861122 0
M  V30 15215 C 1451.24 -2.01211 0.481865 0
M  V30 15216 C 1451.66 -1.64687 -0.923233 0
M  V30 15217 O 1451.02 -0.87151 -1.60346 0
M  V30 15218 C 1451.07 -3.56162 0.618919 0
M  V30 15219 O 1450.79 -3.91376 1.96868 0
M  V30 15220 C 1452.29 -4.42652 0.239514 0
M  V30 15221 H 1449.51 -0.643922 0.188693 0
M  V30 15222 H 1452.05 -1.68427 1.15985 0
M  V30 15223 H 1450.21 -3.87398 -0.0114042 0
M  V30 15224 H 1450.62 -4.86095 1.97008 0
M  V30 15225 H 1452.1 -5.50646 0.386394 0
M  V30 15226 H 1452.57 -4.31466 -0.820598 0
M  V30 15227 H 1453.18 -4.16818 0.845175 0
M  V30 15228 N 1451.49 -0.619688 -1.44906 0
M  V30 15229 C 1452.42 0.0791121 -2.33366 0
M  V30 15230 C 1453.41 0.846503 -1.47541 0
M  V30 15231 O 1454.59 0.814657 -1.76287 0
M  V30 15232 C 1451.72 1.06901 -3.30438 0
M  V30 15233 C 1450.67 0.41403 -4.25993 0
M  V30 15234 C 1450 1.51303 -5.12846 0
M  V30 15235 C 1451.3 -0.672483 -5.17953 0
M  V30 15236 H 1452.99 -0.659551 -2.92045 0
M  V30 15237 H 1450.54 -0.318623 -1.40431 0
M  V30 15238 H 1452.49 1.56653 -3.912 0
M  V30 15239 H 1451.22 1.83842 -2.69944 0
M  V30 15240 H 1449.88 -0.0627315 -3.66546 0
M  V30 15241 H 1449.52 2.27303 -4.48712 0
M  V30 15242 H 1449.22 1.08022 -5.77586 0
M  V30 15243 H 1450.75 2.01258 -5.76479 0
M  V30 15244 H 1452.16 -0.258542 -5.72717 0
M  V30 15245 H 1450.56 -1.02776 -5.91234 0
M  V30 15246 H 1451.63 -1.54425 -4.59653 0
M  V30 15247 N 1452.97 1.53444 -0.359552 0
M  V30 15248 C 1453.92 2.25544 0.48977 0
M  V30 15249 C 1454.89 1.25982 1.08248 0
M  V30 15250 O 1456.07 1.54751 1.1161 0
M  V30 15251 C 1453.21 3.04358 1.62666 0
M  V30 15252 C 1452.33 4.18801 1.0597 0
M  V30 15253 C 1451.46 4.85069 2.1652 0
M  V30 15254 C 1450.5 5.91554 1.57259 0
M  V30 15255 N 1449.64 6.51537 2.61617 0
M  V30 15256 H 1454.48 2.97709 -0.13158 0
M  V30 15257 H 1452.02 1.469 -0.0767056 0
M  V30 15258 H 1453.97 3.48324 2.29623 0
M  V30 15259 H 1452.6 2.34459 2.21876 0
M  V30 15260 H 1451.66 3.79364 0.280599 0
M  V30 15261 H 1452.97 4.95341 0.586383 0
M  V30 15262 H 1452.12 5.32187 2.9131 0
M  V30 15263 H 1450.86 4.07988 2.67202 0
M  V30 15264 H 1449.87 5.43803 0.809818 0
M  V30 15265 H 1451.09 6.70552 1.07409 0
M  V30 15266 H 1449.04 5.77312 3.11523 0
M  V30 15267 H 1448.95 7.23599 2.18954 0
M  V30 15268 H 1450.22 7.03306 3.36127 0
M  V30 15269 N 1454.45 0.0885642 1.57351 0
M  V30 15270 C 1455.7 -0.576675 1.94115 0
M  V30 15271 C 1456.03 -1.68595 0.969842 0
M  V30 15272 O 1455.28 -1.95697 -0.0116998 0
M  V30 15273 C 1455.58 -1.17764 3.37441 0
M  V30 15274 C 1455.25 -0.192813 4.50488 0
M  V30 15275 C 1453.91 0.0780722 4.81137 0
M  V30 15276 C 1456.26 0.479997 5.18985 0
M  V30 15277 C 1453.59 1.02857 5.77613 0
M  V30 15278 C 1455.94 1.41892 6.16481 0
M  V30 15279 C 1454.6 1.69811 6.45539 0
M  V30 15280 H 1453.87 -0.21102 0.710318 0
M  V30 15281 H 1456.52 0.163009 1.90805 0
M  V30 15282 H 1454.83 -1.99343 3.37298 0
M  V30 15283 H 1456.52 -1.69994 3.63185 0
M  V30 15284 H 1453.11 -0.41413 4.26595 0
M  V30 15285 H 1457.3 0.283854 4.95488 0
M  V30 15286 H 1452.55 1.25194 5.98445 0
M  V30 15287 H 1456.73 1.94612 6.68655 0
M  V30 15288 H 1454.35 2.43621 7.20106 0
M  V30 15289 N 1455.93 -1.56509 -0.185096 0
M  V30 15290 C 1457.17 -1.81474 -0.905263 0
M  V30 15291 C 1457.51 -0.664225 -1.82488 0
M  V30 15292 O 1456.78 0.33466 -1.91599 0
M  V30 15293 C 1457.07 -3.16754 -1.71287 0
M  V30 15294 C 1456.92 -4.42312 -0.817302 0
M  V30 15295 C 1458.24 -3.48828 -2.68342 0
M  V30 15296 H 1455.36 -0.660155 -0.327664 0
M  V30 15297 H 1458 -1.89219 -0.172129 0
M  V30 15298 H 1456.15 -3.10282 -2.33789 0
M  V30 15299 H 1457.82 -4.60839 -0.206218 0
M  V30 15300 H 1456.06 -4.33621 -0.124564 0
M  V30 15301 H 1456.73 -5.33487 -1.41758 0
M  V30 15302 H 1459.21 -3.55663 -2.15969 0
M  V30 15303 H 1458.09 -4.44585 -3.21924 0
M  V30 15304 H 1458.35 -2.72829 -3.47875 0
M  V30 15305 N 1457.41 0.45317 -1.50944 0
M  V30 15306 C 1458.37 1.5313 -1.7054 0
M  V30 15307 C 1459.37 1.50142 -0.575678 0
M  V30 15308 O 1460.56 1.52444 -0.842997 0
M  V30 15309 C 1457.69 2.92719 -1.74723 0
M  V30 15310 H 1458.88 1.37066 -2.66745 0
M  V30 15311 H 1456.44 0.680783 -1.40695 0
M  V30 15312 H 1457.17 3.14208 -0.802753 0
M  V30 15313 H 1456.96 2.96295 -2.56811 0
M  V30 15314 H 1458.45 3.7096 -1.91777 0
M  V30 15315 N 1458.88 1.40823 0.707568 0
M  V30 15316 C 1460.3 1.23029 1.01666 0
M  V30 15317 C 1460.5 0.111152 2.01193 0
M  V30 15318 O 1459.56 -0.52836 2.4691 0
M  V30 15319 C 1460.87 2.57509 1.55272 0
M  V30 15320 C 1462.42 2.6459 1.67216 0
M  V30 15321 C 1462.89 3.99357 2.24227 0
M  V30 15322 N 1464.38 4.01141 2.31603 0
M  V30 15323 C 1465.12 5.02211 2.76715 0
M  V30 15324 N 1464.61 6.13674 3.21521 0
M  V30 15325 N 1466.41 4.89577 2.76172 0
M  V30 15326 H 1458.56 2.12346 0.0480107 0
M  V30 15327 H 1460.82 0.944281 0.0838885 0
M  V30 15328 H 1460.53 3.40095 0.896012 0
M  V30 15329 H 1460.4 2.79158 2.53674 0
M  V30 15330 H 1462.79 1.8237 2.32002 0
M  V30 15331 H 1462.87 2.46763 0.673927 0
M  V30 15332 H 1462.51 4.8202 1.6006 0
M  V30 15333 H 1462.44 4.14518 3.2478 0
M  V30 15334 H 1464.93 3.20657 1.99968 0
M  V30 15335 H 1465.25 6.86677 3.54534 0
M  V30 15336 H 1463.59 6.17228 3.1946 0
M  V30 15337 H 1466.78 4.01588 2.40509 0
M  V30 15338 H 1466.96 5.68485 3.11012 0
M  V30 15339 N 1460.36 -0.94061 1.26453 0
M  V30 15340 C 1461.31 -2.06073 1.07873 0
M  V30 15341 C 1462.3 -1.69399 0.0055001 0
M  V30 15342 O 1463.51 -1.79267 0.162224 0
M  V30 15343 H 1459.89 -0.674748 0.331993 0
M  V30 15344 H 1461.86 -2.18895 2.02799 0
M  V30 15345 C 1460.61 -3.39971 0.729054 0
M  V30 15346 H 1459.93 -3.68667 1.54675 0
M  V30 15347 H 1461.37 -4.1916 0.638844 0
M  V30 15348 C 1459.83 -3.32114 -0.565835 0
M  V30 15349 O 1460.36 -3.68287 -1.60399 0
M  V30 15350 N 1458.56 -2.85218 -0.556679 0
M  V30 15351 H 1458.11 -2.55979 0.288541 0
M  V30 15352 H 1458.07 -2.80344 -1.42318 0
M  V30 15353 N 1461.84 -1.08266 -1.14527 0
M  V30 15354 C 1463.07 -0.831673 -1.89121 0
M  V30 15355 C 1463.48 0.619702 -1.78763 0
M  V30 15356 O 1462.82 1.43748 -1.14377 0
M  V30 15357 C 1462.88 -1.17276 -3.39833 0
M  V30 15358 C 1462.55 -2.62662 -3.73975 0
M  V30 15359 C 1463.54 -3.60913 -3.74216 0
M  V30 15360 C 1461.23 -2.9848 -4.03999 0
M  V30 15361 C 1463.22 -4.93012 -4.04002 0
M  V30 15362 C 1460.91 -4.30773 -4.33448 0
M  V30 15363 C 1461.91 -5.27849 -4.33433 0
M  V30 15364 O 1461.6 -6.57765 -4.6217 0
M  V30 15365 H 1461.33 -0.299687 -0.60594 0
M  V30 15366 H 1463.88 -1.44498 -1.45978 0
M  V30 15367 H 1462.11 -0.502458 -3.83422 0
M  V30 15368 H 1463.8 -0.902831 -3.95732 0
M  V30 15369 H 1464.57 -3.34585 -3.5111 0
M  V30 15370 H 1460.45 -2.23561 -4.03164 0
M  V30 15371 H 1463.99 -5.68776 -4.03906 0
M  V30 15372 H 1459.89 -4.5685 -4.56024 0
M  V30 15373 H 1460.66 -6.63057 -4.79893 0
M  V30 15374 N 1463.32 1.31536 -0.86811 0
M  V30 15375 C 1464.25 2.31037 -0.33822 0
M  V30 15376 C 1465.23 1.60269 0.569892 0
M  V30 15377 O 1466.42 1.87987 0.487305 0
M  V30 15378 C 1463.55 3.44203 0.462753 0
M  V30 15379 C 1462.5 4.26549 -0.3521 0
M  V30 15380 C 1461.83 5.31605 0.574443 0
M  V30 15381 C 1463.13 4.97665 -1.58516 0
M  V30 15382 H 1464.82 2.75607 -1.16967 0
M  V30 15383 H 1462.37 1.325 -0.56389 0
M  V30 15384 H 1464.32 4.12862 0.843967 0
M  V30 15385 H 1463.04 2.98396 1.32769 0
M  V30 15386 H 1461.7 3.59555 -0.715237 0
M  V30 15387 H 1461.35 4.82048 1.43661 0
M  V30 15388 H 1461.05 5.87591 0.0331436 0
M  V30 15389 H 1462.57 6.03124 0.952541 0
M  V30 15390 H 1463.99 5.58931 -1.27549 0
M  V30 15391 H 1462.38 5.63437 -2.06539 0
M  V30 15392 H 1463.45 4.24756 -2.33902 0
M  V30 15393 N 1464.8 0.627364 1.44575 0
M  V30 15394 C 1465.71 -0.0811184 2.3446 0
M  V30 15395 C 1466.72 -0.839668 1.52399 0
M  V30 15396 O 1467.9 -0.792784 1.8514 0
M  V30 15397 C 1464.96 -1.05296 3.30323 0
M  V30 15398 C 1464.03 -0.294201 4.28291 0
M  V30 15399 C 1463.26 -1.21975 5.19575 0
M  V30 15400 O 1463.48 -2.45834 5.14706 0
M  V30 15401 O 1462.42 -0.70611 5.97744 0
M  V30 15402 H 1466.24 0.658067 2.96485 0
M  V30 15403 H 1463.83 0.387565 1.44285 0
M  V30 15404 H 1465.71 -1.61218 3.89341 0
M  V30 15405 H 1464.38 -1.77283 2.70837 0
M  V30 15406 H 1463.29 0.307969 3.7283 0
M  V30 15407 H 1464.62 0.385567 4.90687 0
M  V30 15408 N 1466.28 -1.53251 0.367684 0
M  V30 15409 C 1467.69 -1.86369 -0.111073 0
M  V30 15410 C 1468.04 -1.2882 -1.47986 0
M  V30 15411 O 1467.16 -0.611058 -2.07593 0
M  V30 15412 C 1467.76 -3.38159 -0.208325 0
M  V30 15413 C 1466.32 -3.71067 -0.63134 0
M  V30 15414 C 1465.46 -2.76425 0.220144 0
M  V30 15415 H 1468.41 -1.47469 0.586398 0
M  V30 15416 H 1468.44 -3.66252 -1.03151 0
M  V30 15417 H 1467.95 -3.80015 0.788038 0
M  V30 15418 H 1466.05 -3.34769 -1.63586 0
M  V30 15419 H 1466.16 -4.77389 -0.404491 0
M  V30 15420 H 1464.53 -2.5279 -0.311298 0
M  V30 15421 H 1465.31 -3.21115 1.21409 0
M  V30 15422 N 1467.75 -0.0969077 -1.57302 0
M  V30 15423 C 1469 0.565254 -1.94034 0
M  V30 15424 C 1469.32 1.68609 -0.9796 0
M  V30 15425 O 1468.59 1.95874 -0.0319788 0
M  V30 15426 H 1467.17 0.211796 -0.716346 0
M  V30 15427 H 1469.83 -0.160665 -1.94237 0
M  V30 15428 H 1468.93 0.974268 -2.96504 0
M  V30 15429 N 1469.23 1.56605 0.176793 0
M  V30 15430 C 1470.18 1.95985 1.21896 0
M  V30 15431 C 1471.15 0.822983 1.44278 0
M  V30 15432 O 1472.33 1.08266 1.57109 0
M  V30 15433 C 1469.47 2.32029 2.55454 0
M  V30 15434 C 1468.59 3.58867 2.40497 0
M  V30 15435 C 1467.72 3.84148 3.66884 0
M  V30 15436 C 1466.76 5.04352 3.46837 0
M  V30 15437 N 1465.9 5.25794 4.6528 0
M  V30 15438 H 1470.74 2.84829 0.876137 0
M  V30 15439 H 1468.27 1.4094 0.421221 0
M  V30 15440 H 1470.23 2.50947 3.33289 0
M  V30 15441 H 1468.86 1.46301 2.87743 0
M  V30 15442 H 1467.91 3.47893 1.53866 0
M  V30 15443 H 1469.23 4.46859 2.21627 0
M  V30 15444 H 1468.38 4.03404 4.53155 0
M  V30 15445 H 1467.12 2.9452 3.88727 0
M  V30 15446 H 1466.12 4.84999 2.58952 0
M  V30 15447 H 1467.35 5.95505 3.26421 0
M  V30 15448 H 1465.3 4.39117 4.87352 0
M  V30 15449 H 1465.21 6.07999 4.49303 0
M  V30 15450 H 1466.48 5.49524 5.5285 0
M  V30 15451 N 1470.71 -0.445159 1.51182 0
M  V30 15452 C 1471.62 -1.5651 1.74762 0
M  V30 15453 C 1472.64 -1.62134 0.631542 0
M  V30 15454 O 1473.81 -1.79522 0.912898 0
M  V30 15455 C 1470.88 -2.92552 1.86049 0
M  V30 15456 C 1469.94 -2.97108 3.0988 0
M  V30 15457 C 1469.17 -4.2666 3.2062 0
M  V30 15458 O 1469.39 -5.18608 2.37491 0
M  V30 15459 O 1468.33 -4.3734 4.13542 0
M  V30 15460 H 1472.15 -1.3953 2.6975 0
M  V30 15461 H 1469.74 -0.627363 1.3559 0
M  V30 15462 H 1471.62 -3.73304 1.95504 0
M  V30 15463 H 1470.3 -3.09676 0.94248 0
M  V30 15464 H 1469.2 -2.15338 3.05909 0
M  V30 15465 H 1470.54 -2.84927 4.01345 0
M  V30 15466 N 1472.19 -1.41197 -0.700089 0
M  V30 15467 C 1473.43 -1.41775 -1.47239 0
M  V30 15468 C 1473.79 -0.0239874 -1.91985 0
M  V30 15469 O 1474.99 0.0954207 -2.68631 0
M  V30 15470 C 1473.26 -2.39268 -2.65491 0
M  V30 15471 S 1474.82 -2.58337 -3.54693 0
M  V30 15472 H 1471.64 -0.502298 -0.503207 0
M  V30 15473 H 1474.24 -1.77596 -0.817296 0
M  V30 15474 H 1472.95 -3.39342 -2.30815 0
M  V30 15475 H 1472.48 -2.04784 -3.35897 0
M  V30 15476 H 1474.49 -1.84739 -4.60528 0
M  V30 15477 N 1473.67 0.933891 -1.2695 0
M  V30 15478 C 1474.91 1.6834 -1.13091 0
M  V30 15479 C 1475.24 1.91484 0.32367 0
M  V30 15480 O 1474.52 1.50075 1.23724 0
M  V30 15481 C 1474.8 3.05374 -1.90838 0
M  V30 15482 C 1474.66 2.8951 -3.44244 0
M  V30 15483 C 1475.97 4.05607 -1.70795 0
M  V30 15484 H 1473.09 0.610944 -0.41221 0
M  V30 15485 H 1475.74 1.08416 -1.56032 0
M  V30 15486 H 1473.89 3.56526 -1.54343 0
M  V30 15487 H 1475.56 2.45523 -3.90533 0
M  V30 15488 H 1473.8 2.24981 -3.70899 0
M  V30 15489 H 1474.47 3.86734 -3.93879 0
M  V30 15490 H 1476.95 3.63443 -2.02604 0
M  V30 15491 H 1475.82 4.9949 -2.27597 0
M  V30 15492 H 1476.08 4.37231 -0.654327 0
M  V30 15493 N 1475.14 1.08871 1.13951 0
M  V30 15494 C 1476.08 0.680849 2.18854 0
M  V30 15495 C 1477.09 -0.274456 1.6047 0
M  V30 15496 O 1478.28 -0.0613804 1.78394 0
M  V30 15497 C 1475.38 -0.0182788 3.38895 0
M  V30 15498 C 1474.55 0.957125 4.268 0
M  V30 15499 C 1473.61 0.29245 5.25387 0
M  V30 15500 O 1472.64 0.938329 5.61413 0
M  V30 15501 N 1473.84 -0.955738 5.72578 0
M  V30 15502 H 1476.6 1.58334 2.54461 0
M  V30 15503 H 1474.16 0.975417 1.29218 0
M  V30 15504 H 1476.16 -0.474001 4.01915 0
M  V30 15505 H 1474.73 -0.822932 3.01574 0
M  V30 15506 H 1473.95 1.59156 3.60642 0
M  V30 15507 H 1475.23 1.61792 4.82391 0
M  V30 15508 H 1474.63 -1.50014 5.45447 0
M  V30 15509 H 1473.19 -1.35488 6.37563 0
M  V30 15510 N 1476.62 -1.31073 0.875073 0
M  V30 15511 C 1478.03 -1.78707 0.540422 0
M  V30 15512 C 1478.38 -1.72056 -0.942935 0
M  V30 15513 O 1477.51 -1.29139 -1.73643 0
M  V30 15514 C 1478.1 -3.24491 0.974203 0
M  V30 15515 C 1476.66 -3.70001 0.691127 0
M  V30 15516 C 1475.81 -2.51748 1.16269 0
M  V30 15517 H 1478.76 -1.18083 1.06029 0
M  V30 15518 H 1478.78 -3.79323 0.299003 0
M  V30 15519 H 1478.29 -3.29301 2.05384 0
M  V30 15520 H 1476.39 -3.70688 -0.376937 0
M  V30 15521 H 1476.51 -4.61913 1.27173 0
M  V30 15522 H 1474.87 -2.47954 0.582302 0
M  V30 15523 H 1475.65 -2.59299 2.24986 0
M  V30 15524 N 1478.1 -0.635022 -1.4424 0
M  V30 15525 C 1479.06 0.0579377 -2.29127 0
M  V30 15526 C 1480.06 0.768489 -1.41248 0
M  V30 15527 O 1481.25 0.612489 -1.63077 0
M  V30 15528 C 1478.39 1.09266 -3.22914 0
M  V30 15529 H 1479.58 -0.688723 -2.91885 0
M  V30 15530 H 1477.13 -0.395347 -1.51217 0
M  V30 15531 H 1477.87 1.86917 -2.65014 0
M  V30 15532 H 1477.65 0.587036 -3.87681 0
M  V30 15533 H 1479.14 1.57716 -3.86672 0
M  V30 15534 N 1479.58 1.53054 -0.375806 0
M  V30 15535 C 1480.81 2.0582 0.211135 0
M  V30 15536 C 1481.22 1.24856 1.4162 0
M  V30 15537 O 1480.58 0.291786 1.80152 0
M  V30 15538 C 1480.63 3.56577 0.594573 0
M  V30 15539 O 1480.35 4.34472 -0.562607 0
M  V30 15540 C 1481.85 4.25639 1.23882 0
M  V30 15541 H 1479.07 0.670085 0.0350268 0
M  V30 15542 H 1481.62 1.9732 -0.537135 0
M  V30 15543 H 1479.77 3.65194 1.29275 0
M  V30 15544 H 1480.18 5.23902 -0.250487 0
M  V30 15545 H 1481.66 5.32408 1.45759 0
M  V30 15546 H 1482.14 3.80001 2.20218 0
M  V30 15547 H 1482.74 4.21302 0.581786 0
M  V30 15548 N 1481.06 0.105248 1.57248 0
M  V30 15549 C 1482 -0.850012 2.14577 0
M  V30 15550 C 1482.97 -1.27294 1.06703 0
M  V30 15551 O 1484.16 -1.35289 1.34542 0
M  V30 15552 C 1481.3 -2.09993 2.73856 0
M  V30 15553 C 1480.41 -1.72662 3.95995 0
M  V30 15554 C 1479.55 -2.92517 4.43404 0
M  V30 15555 C 1478.59 -2.5136 5.58108 0
M  V30 15556 N 1477.72 -3.64082 6.00324 0
M  V30 15557 H 1482.56 -0.354282 2.95887 0
M  V30 15558 H 1480.1 -0.163192 1.46192 0
M  V30 15559 H 1482.06 -2.83208 3.06348 0
M  V30 15560 H 1480.69 -2.57048 1.95259 0
M  V30 15561 H 1479.74 -0.893754 3.69752 0
M  V30 15562 H 1481.05 -1.38406 4.79213 0
M  V30 15563 H 1480.21 -3.73973 4.77734 0
M  V30 15564 H 1478.94 -3.2999 3.59107 0
M  V30 15565 H 1477.95 -1.68333 5.23397 0
M  V30 15566 H 1479.17 -2.15019 6.44161 0
M  V30 15567 H 1477.12 -4.01255 5.18971 0
M  V30 15568 H 1477.04 -3.33705 6.78363 0
M  V30 15569 H 1478.31 -4.46019 6.39287 0
M  V30 15570 N 1482.53 -1.56697 -0.168486 0
M  V30 15571 C 1483.76 -1.86652 -0.904195 0
M  V30 15572 C 1484.18 -0.691906 -1.74912 0
M  V30 15573 O 1483.54 0.358971 -1.77711 0
M  V30 15574 C 1483.59 -3.15043 -1.75442 0
M  V30 15575 O 1482.69 -2.97466 -2.85636 0
M  V30 15576 H 1482.04 -0.613859 -0.253128 0
M  V30 15577 H 1484.57 -2.03927 -0.165773 0
M  V30 15578 H 1484.58 -3.4652 -2.15378 0
M  V30 15579 H 1483.25 -4.00147 -1.13381 0
M  V30 15580 H 1481.83 -2.7735 -2.49262 0
M  V30 15581 N 1484.01 0.437135 -1.51416 0
M  V30 15582 C 1485.25 1.19603 -1.65754 0
M  V30 15583 C 1485.62 1.88481 -0.365891 0
M  V30 15584 O 1486.82 2.66028 -0.385046 0
M  V30 15585 C 1485.09 2.18579 -2.82769 0
M  V30 15586 S 1486.65 3.02952 -3.17436 0
M  V30 15587 H 1483.47 0.405591 -0.583966 0
M  V30 15588 H 1486.07 0.487568 -1.89323 0
M  V30 15589 H 1484.77 1.66616 -3.75056 0
M  V30 15590 H 1484.3 2.94005 -2.6139 0
M  V30 15591 H 1486.32 4.20213 -2.63886 0
M  V30 15592 N 1485.49 1.41566 0.692592 0
M  V30 15593 C 1486.72 1.44646 1.48635 0
M  V30 15594 C 1487.14 0.0541597 1.88022 0
M  V30 15595 O 1486.5 -0.943305 1.54827 0
M  V30 15596 C 1486.55 2.3636 2.72335 0
M  V30 15597 O 1485.65 1.8227 3.69934 0
M  V30 15598 H 1484.99 0.490791 0.447236 0
M  V30 15599 H 1487.52 1.8606 0.851056 0
M  V30 15600 H 1487.53 2.52337 3.20609 0
M  V30 15601 H 1486.21 3.37523 2.43004 0
M  V30 15602 H 1484.78 1.75759 3.28882 0
M  V30 15603 N 1486.97 -0.927146 1.27443 0
M  V30 15604 C 1488.22 -1.67489 1.13814 0
M  V30 15605 C 1488.54 -1.91917 -0.315914 0
M  V30 15606 O 1487.8 -1.5079 -1.24743 0
M  V30 15607 C 1488.1 -3.0472 1.86764 0
M  V30 15608 C 1487.76 -3 3.36617 0
M  V30 15609 C 1486.43 -2.9842 3.77491 0
M  V30 15610 C 1488.78 -2.91249 4.32231 0
M  V30 15611 C 1486.11 -2.85872 5.12342 0
M  V30 15612 C 1488.46 -2.80242 5.67139 0
M  V30 15613 C 1487.12 -2.77013 6.07306 0
M  V30 15614 H 1486.39 -0.612887 0.416474 0
M  V30 15615 H 1489.04 -1.0812 1.58058 0
M  V30 15616 H 1487.34 -3.67797 1.35029 0
M  V30 15617 H 1489.04 -3.61453 1.73646 0
M  V30 15618 H 1485.63 -3.02017 3.04111 0
M  V30 15619 H 1489.81 -2.91567 4.01625 0
M  V30 15620 H 1485.07 -2.81758 5.42607 0
M  V30 15621 H 1489.24 -2.72437 6.40899 0
M  V30 15622 H 1486.87 -2.67047 7.11751 0
M  V30 15623 N 1488.45 -1.09474 -1.13372 0
M  V30 15624 C 1489.67 -0.853093 -1.89043 0
M  V30 15625 C 1490.1 0.590075 -1.78605 0
M  V30 15626 O 1489.45 1.41462 -1.13394 0
M  V30 15627 C 1489.5 -1.29359 -3.36599 0
M  V30 15628 O 1488.61 -0.452355 -4.09912 0
M  V30 15629 H 1487.95 -0.308922 -0.587761 0
M  V30 15630 H 1490.48 -1.459 -1.43437 0
M  V30 15631 H 1490.49 -1.27921 -3.87428 0
M  V30 15632 H 1489.16 -2.3446 -3.43513 0
M  V30 15633 H 1487.74 -0.531098 -3.69099 0
M  V30 15634 N 1489.92 1.30607 -0.882012 0
M  V30 15635 C 1490.89 2.26489 -0.351498 0
M  V30 15636 C 1491.89 1.52686 0.504348 0
M  V30 15637 O 1493.08 1.71385 0.311928 0
M  V30 15638 C 1490.21 3.37222 0.499435 0
M  V30 15639 H 1491.4 2.74929 -1.19809 0
M  V30 15640 H 1488.96 1.41746 -0.658616 0
M  V30 15641 H 1489.69 2.94093 1.36673 0
M  V30 15642 H 1489.48 3.91936 -0.11356 0
M  V30 15643 H 1490.97 4.08596 0.862497 0
M  V30 15644 N 1491.4 0.642663 1.43901 0
M  V30 15645 C 1492.64 0.15524 2.0381 0
M  V30 15646 C 1493.01 -1.20426 1.49538 0
M  V30 15647 O 1494.21 -1.78447 2.01022 0
M  V30 15648 C 1492.48 0.153714 3.57069 0
M  V30 15649 S 1494.04 -0.267404 4.37984 0
M  V30 15650 H 1490.86 0.0667514 0.70786 0
M  V30 15651 H 1493.46 0.848636 1.7612 0
M  V30 15652 H 1492.16 1.14608 3.94073 0
M  V30 15653 H 1491.69 -0.56056 3.89386 0
M  V30 15654 H 1493.71 -1.50887 4.72702 0
M  V30 15655 N 1492.88 -1.52852 0.383918 0
M  V30 15656 C 1494.11 -2.05929 -0.200216 0
M  V30 15657 C 1494.52 -1.25606 -1.40956 0
M  V30 15658 O 1493.88 -0.301336 -1.79995 0
M  V30 15659 C 1493.93 -3.56887 -0.575655 0
M  V30 15660 O 1493.65 -4.34168 0.58564 0
M  V30 15661 C 1495.15 -4.2629 -1.21623 0
M  V30 15662 H 1492.37 -0.670261 -0.0314727 0
M  V30 15663 H 1494.92 -1.97032 0.547591 0
M  V30 15664 H 1493.07 -3.65875 -1.27336 0
M  V30 15665 H 1493.49 -5.23761 0.278267 0
M  V30 15666 H 1494.96 -5.33174 -1.42933 0
M  V30 15667 H 1495.44 -3.81163 -2.182 0
M  V30 15668 H 1496.04 -4.21605 -0.559435 0
M  V30 15669 N 1494.36 -0.113586 -1.5719 0
M  V30 15670 C 1495.64 0.588987 -1.86522 0
M  V30 15671 C 1496.02 1.85163 -1.01379 0
M  V30 15672 O 1495.36 2.28318 -0.0912188 0
M  V30 15673 C 1495.57 0.886633 -3.3755 0
M  V30 15674 C 1496.92 1.24206 -4.06027 0
M  V30 15675 O 1497.95 0.977068 -3.42537 0
M  V30 15676 O 1496.81 1.73914 -5.18089 0
M  V30 15677 H 1493.9 0.296637 -0.771968 0
M  V30 15678 H 1496.45 -0.147681 -1.69056 0
M  V30 15679 H 1495.22 -0.00835421 -3.91299 0
M  V30 15680 H 1494.84 1.67865 -3.60426 0
M  V30 15681 N 1495.84 1.56784 0.160173 0
M  V30 15682 C 1497.09 1.8226 0.873253 0
M  V30 15683 C 1497.41 0.692384 1.82294 0
M  V30 15684 O 1496.68 -0.286961 1.93787 0
M  V30 15685 H 1495.26 0.672371 0.325463 0
M  V30 15686 H 1497.92 1.94264 0.157325 0
M  V30 15687 H 1497.01 2.76714 1.44345 0
M  V30 15688 N 1497.32 -0.429099 1.51646 0
M  V30 15689 C 1498.56 -1.17482 1.63954 0
M  V30 15690 C 1498.88 -1.92152 0.36565 0
M  V30 15691 O 1500.08 -2.68991 0.368221 0
M  V30 15692 C 1498.54 -2.13703 2.89585 0
M  V30 15693 C 1498.15 -1.44642 4.24008 0
M  V30 15694 C 1499.89 -2.88657 3.11252 0
M  V30 15695 C 1497.8 -2.39395 5.40781 0
M  V30 15696 H 1496.73 -0.442234 0.610692 0
M  V30 15697 H 1499.38 -0.441088 1.7812 0
M  V30 15698 H 1497.76 -2.90545 2.69071 0
M  V30 15699 H 1498.94 -0.733012 4.54932 0
M  V30 15700 H 1497.25 -0.818084 4.08285 0
M  V30 15701 H 1499.85 -3.59653 3.95669 0
M  V30 15702 H 1500.19 -3.50473 2.24664 0
M  V30 15703 H 1500.72 -2.18919 3.32144 0
M  V30 15704 H 1497.46 -1.82255 6.29653 0
M  V30 15705 H 1496.98 -3.08766 5.14222 0
M  V30 15706 H 1498.66 -3.0035 5.73061 0
M  V30 15707 N 1498.79 -1.41931 -0.685074 0
M  V30 15708 C 1500.02 -1.45432 -1.47866 0
M  V30 15709 C 1500.44 -0.0641302 -1.87991 0
M  V30 15710 O 1499.8 0.935081 -1.55325 0
M  V30 15711 C 1499.85 -2.37801 -2.71077 0
M  V30 15712 O 1498.95 -1.84229 -3.68963 0
M  V30 15713 H 1498.29 -0.493156 -0.444627 0
M  V30 15714 H 1500.82 -1.86508 -0.841177 0
M  V30 15715 H 1500.83 -2.54033 -3.19266 0
M  V30 15716 H 1499.51 -3.38807 -2.41211 0
M  V30 15717 H 1498.09 -1.775 -3.27945 0
M  V30 15718 N 1500.27 0.920374 -1.27933 0
M  V30 15719 C 1501.52 1.67163 -1.1588 0
M  V30 15720 C 1501.87 1.90186 0.291025 0
M  V30 15721 O 1501.17 1.4864 1.209 0
M  V30 15722 C 1501.36 3.03725 -1.88377 0
M  V30 15723 C 1501.19 2.94029 -3.4026 0
M  V30 15724 C 1499.96 2.95912 -4.0959 0
M  V30 15725 C 1502.16 2.72596 -4.36115 0
M  V30 15726 N 1500.14 2.76734 -5.47988 0
M  V30 15727 C 1501.51 2.62196 -5.6183 0
M  V30 15728 C 1503.56 2.57541 -4.26119 0
M  V30 15729 C 1502.27 2.38276 -6.78688 0
M  V30 15730 C 1504.29 2.35 -5.42705 0
M  V30 15731 C 1503.66 2.25348 -6.67381 0
M  V30 15732 H 1499.75 0.618178 -0.478936 0
M  V30 15733 H 1502.34 1.0875 -1.61498 0
M  V30 15734 H 1500.51 3.60237 -1.45203 0
M  V30 15735 H 1502.24 3.67832 -1.68765 0
M  V30 15736 H 1499 3.06418 -3.61116 0
M  V30 15737 H 1499.42 2.70256 -6.20718 0
M  V30 15738 H 1504.06 2.63757 -3.30442 0
M  V30 15739 H 1501.78 2.30799 -7.7444 0
M  V30 15740 H 1505.37 2.24225 -5.36856 0
M  V30 15741 H 1504.25 2.08143 -7.56073 0
M  V30 15742 N 1501.75 1.10074 1.1279 0
M  V30 15743 C 1503.16 0.859181 1.65756 0
M  V30 15744 C 1503.51 -0.611193 1.86437 0
M  V30 15745 O 1502.64 -1.46997 1.58811 0
M  V30 15746 C 1503.23 1.55312 3.01104 0
M  V30 15747 C 1501.79 1.35836 3.51035 0
M  V30 15748 C 1500.94 1.60491 2.26137 0
M  V30 15749 H 1503.89 1.25897 0.966211 0
M  V30 15750 H 1503.91 0.990001 3.67395 0
M  V30 15751 H 1503.42 2.62325 2.8602 0
M  V30 15752 H 1501.52 0.309694 3.71311 0
M  V30 15753 H 1501.64 2.09777 4.30732 0
M  V30 15754 H 1500 1.02742 2.33058 0
M  V30 15755 H 1500.78 2.68748 2.1361 0
M  V30 15756 N 1503.23 -1.30138 0.888926 0
M  V30 15757 C 1504.47 -1.95989 0.509365 0
M  V30 15758 C 1504.8 -1.70153 -0.942249 0
M  V30 15759 O 1504.06 -1.00123 -1.68148 0
M  V30 15760 C 1504.36 -3.4975 0.735488 0
M  V30 15761 C 1504.02 -3.95644 2.1628 0
M  V30 15762 C 1502.68 -4.07886 2.55309 0
M  V30 15763 C 1505.04 -4.1952 3.09277 0
M  V30 15764 C 1502.36 -4.41367 3.86539 0
M  V30 15765 C 1504.72 -4.54472 4.40043 0
M  V30 15766 C 1503.38 -4.64923 4.7896 0
M  V30 15767 H 1502.65 -0.717175 0.18639 0
M  V30 15768 H 1505.3 -1.54932 1.12553 0
M  V30 15769 H 1503.6 -3.91783 0.0363165 0
M  V30 15770 H 1505.3 -3.9878 0.421351 0
M  V30 15771 H 1501.89 -3.86624 1.84985 0
M  V30 15772 H 1506.07 -4.09539 2.80342 0
M  V30 15773 H 1501.33 -4.47659 4.16427 0
M  V30 15774 H 1505.5 -4.71897 5.12138 0
M  V30 15775 H 1503.13 -4.90622 5.80685 0
M  V30 15776 N 1504.71 -0.650285 -1.43559 0
M  V30 15777 C 1505.95 -0.162725 -2.02146 0
M  V30 15778 C 1506.28 1.21911 -1.51166 0
M  V30 15779 O 1505.56 1.81329 -0.703563 0
M  V30 15780 C 1505.84 -0.170356 -3.59697 0
M  V30 15781 C 1505.7 -1.5859 -4.20915 0
M  V30 15782 C 1507.01 0.494831 -4.37309 0
M  V30 15783 H 1504.13 -0.0606055 -0.734504 0
M  V30 15784 H 1506.78 -0.830411 -1.70892 0
M  V30 15785 H 1504.93 0.39819 -3.86454 0
M  V30 15786 H 1506.6 -2.20481 -4.05199 0
M  V30 15787 H 1504.84 -2.13407 -3.77677 0
M  V30 15788 H 1505.51 -1.54312 -5.29992 0
M  V30 15789 H 1507.99 0.0111281 -4.16099 0
M  V30 15790 H 1506.86 0.458753 -5.4698 0
M  V30 15791 H 1507.12 1.56846 -4.13342 0
M  V30 15792 N 1506.18 1.52647 -0.392018 0
M  V30 15793 C 1507.11 2.29446 0.433228 0
M  V30 15794 C 1508.09 1.32945 1.06111 0
M  V30 15795 O 1509.28 1.61841 1.07337 0
M  V30 15796 C 1506.41 3.10328 1.55929 0
M  V30 15797 C 1505.36 4.14735 1.05731 0
M  V30 15798 C 1504.69 4.83858 2.27565 0
M  V30 15799 C 1505.99 5.22154 0.123346 0
M  V30 15800 H 1507.68 2.9868 -0.207563 0
M  V30 15801 H 1505.23 1.43643 -0.101266 0
M  V30 15802 H 1507.18 3.62814 2.14346 0
M  V30 15803 H 1505.91 2.38832 2.22771 0
M  V30 15804 H 1504.57 3.63234 0.495653 0
M  V30 15805 H 1504.21 4.08907 2.92923 0
M  V30 15806 H 1503.91 5.54428 1.94637 0
M  V30 15807 H 1505.44 5.39149 2.86619 0
M  V30 15808 H 1506.85 5.69983 0.615784 0
M  V30 15809 H 1505.25 5.99987 -0.116304 0
M  V30 15810 H 1506.32 4.77796 -0.826969 0
M  V30 15811 N 1507.66 0.121921 1.57128 0
M  V30 15812 C 1508.59 -0.823788 2.18486 0
M  V30 15813 C 1509.57 -1.27519 1.12574 0
M  V30 15814 O 1510.76 -1.33727 1.40822 0
M  V30 15815 C 1507.89 -2.07284 2.78659 0
M  V30 15816 C 1506.84 -1.75912 3.90178 0
M  V30 15817 C 1506.17 -3.07871 4.37172 0
M  V30 15818 C 1507.47 -1.02517 5.1214 0
M  V30 15819 H 1509.16 -0.312488 2.97765 0
M  V30 15820 H 1506.71 -0.148862 1.43228 0
M  V30 15821 H 1508.66 -2.73903 3.20242 0
M  V30 15822 H 1507.39 -2.60743 1.96673 0
M  V30 15823 H 1506.04 -1.11681 3.49174 0
M  V30 15824 H 1505.69 -3.59271 3.52041 0
M  V30 15825 H 1505.39 -2.87653 5.12376 0
M  V30 15826 H 1506.92 -3.75604 4.81409 0
M  V30 15827 H 1508.33 -1.59295 5.50725 0
M  V30 15828 H 1506.73 -0.923836 5.92946 0
M  V30 15829 H 1507.8 -0.0124219 4.84898 0
M  V30 15830 N 1509.14 -1.56867 -0.151857 0
M  V30 15831 C 1510.39 -1.82273 -0.863689 0
M  V30 15832 C 1510.7 -0.702377 -1.82554 0
M  V30 15833 O 1511.91 -0.841903 -2.58117 0
M  V30 15834 C 1510.36 -3.23046 -1.58649 0
M  V30 15835 C 1509.97 -4.43003 -0.667292 0
M  V30 15836 C 1511.72 -3.57729 -2.28539 0
M  V30 15837 C 1509.62 -5.74798 -1.39144 0
M  V30 15838 H 1508.55 -0.679753 -0.326269 0
M  V30 15839 H 1511.2 -1.8313 -0.116454 0
M  V30 15840 H 1509.59 -3.16561 -2.37918 0
M  V30 15841 H 1510.76 -4.60712 0.0898254 0
M  V30 15842 H 1509.08 -4.16329 -0.0770521 0
M  V30 15843 H 1511.67 -4.53451 -2.83348 0
M  V30 15844 H 1512.02 -2.8355 -3.04803 0
M  V30 15845 H 1512.55 -3.65853 -1.56194 0
M  V30 15846 H 1509.29 -6.52059 -0.670747 0
M  V30 15847 H 1508.81 -5.61032 -2.12139 0
M  V30 15848 H 1510.49 -6.17429 -1.93367 0
M  V30 15849 N 1510.62 0.421051 -1.51871 0
M  V30 15850 C 1511.55 1.53273 -1.69064 0
M  V30 15851 C 1512.53 1.53435 -0.538182 0
M  V30 15852 O 1513.71 1.72321 -0.76406 0
M  V30 15853 C 1510.84 2.9183 -1.7191 0
M  V30 15854 C 1509.89 3.09628 -2.93314 0
M  V30 15855 S 1510.72 2.842 -4.53862 0
M  V30 15856 C 1511.88 4.25009 -4.59476 0
M  V30 15857 H 1512.11 1.38459 -2.6309 0
M  V30 15858 H 1509.64 0.611839 -1.4176 0
M  V30 15859 H 1511.6 3.71689 -1.74234 0
M  V30 15860 H 1510.26 3.03995 -0.790319 0
M  V30 15861 H 1509.45 4.1097 -2.91753 0
M  V30 15862 H 1509.06 2.37617 -2.88815 0
M  V30 15863 H 1511.35 5.18465 -4.36119 0
M  V30 15864 H 1512.29 4.31598 -5.61363 0
M  V30 15865 H 1512.7 4.09424 -3.88629 0
M  V30 15866 N 1512.1 1.42293 0.677538 0
M  V30 15867 C 1513.51 1.37948 1.25806 0
M  V30 15868 C 1513.86 0.071408 1.9607 0
M  V30 15869 O 1512.98 -0.829921 1.99853 0
M  V30 15870 C 1513.58 2.49875 2.28797 0
M  V30 15871 C 1512.14 2.48872 2.82382 0
M  V30 15872 C 1511.28 2.28804 1.56665 0
M  V30 15873 H 1514.24 1.51546 0.471102 0
M  V30 15874 H 1514.26 2.19969 3.10474 0
M  V30 15875 H 1513.77 3.45065 1.77629 0
M  V30 15876 H 1511.87 1.57492 3.37679 0
M  V30 15877 H 1511.98 3.45816 3.31585 0
M  V30 15878 H 1510.35 1.77014 1.83135 0
M  V30 15879 H 1511.13 3.26046 1.07467 0
M  V30 15880 N 1513.57 -0.913576 1.28419 0
M  V30 15881 C 1514.5 -2.03275 1.14897 0
M  V30 15882 C 1515.49 -1.70036 0.0467034 0
M  V30 15883 O 1516.67 -1.92907 0.223725 0
M  V30 15884 C 1513.8 -3.37717 0.810217 0
M  V30 15885 C 1512.75 -3.85119 1.86728 0
M  V30 15886 C 1512.08 -5.16527 1.38215 0
M  V30 15887 C 1513.38 -4.06959 3.27386 0
M  V30 15888 H 1515.07 -2.14847 2.08522 0
M  V30 15889 H 1512.62 -1.03233 1.00394 0
M  V30 15890 H 1514.57 -4.15505 0.702382 0
M  V30 15891 H 1513.3 -3.26199 -0.161732 0
M  V30 15892 H 1511.96 -3.09536 1.96426 0
M  V30 15893 H 1511.6 -5.01413 0.399263 0
M  V30 15894 H 1511.3 -5.49213 2.08898 0
M  V30 15895 H 1512.83 -5.96871 1.28754 0
M  V30 15896 H 1514.24 -4.75272 3.20608 0
M  V30 15897 H 1512.64 -4.50977 3.95904 0
M  V30 15898 H 1513.71 -3.11764 3.71391 0
M  V30 15899 N 1515.05 -1.1067 -1.12204 0
M  V30 15900 C 1516.3 -0.85189 -1.8404 0
M  V30 15901 C 1516.63 0.620988 -1.84004 0
M  V30 15902 O 1515.91 1.45801 -1.28734 0
M  V30 15903 C 1516.19 -1.40401 -3.31602 0
M  V30 15904 C 1516.04 -2.94392 -3.40078 0
M  V30 15905 C 1517.36 -1.04834 -4.27432 0
M  V30 15906 H 1514.48 -0.310924 -0.668203 0
M  V30 15907 H 1517.12 -1.37026 -1.3162 0
M  V30 15908 H 1515.27 -0.963107 -3.76373 0
M  V30 15909 H 1516.94 -3.47027 -3.03924 0
M  V30 15910 H 1515.19 -3.3087 -2.80548 0
M  V30 15911 H 1515.86 -3.28107 -4.43903 0
M  V30 15912 H 1518.33 -1.42882 -3.90799 0
M  V30 15913 H 1517.21 -1.46153 -5.29085 0
M  V30 15914 H 1517.47 0.0419272 -4.4208 0
M  V30 15915 N 1516.53 1.29665 -0.895815 0
M  V30 15916 C 1517.78 1.94995 -0.515749 0
M  V30 15917 C 1518.09 1.71427 0.94192 0
M  V30 15918 O 1519.3 2.3083 1.42933 0
M  V30 15919 C 1517.75 3.4919 -0.871468 0
M  V30 15920 C 1517.36 3.81562 -2.34764 0
M  V30 15921 C 1519.11 4.20775 -0.561123 0
M  V30 15922 C 1517.01 5.28984 -2.64442 0
M  V30 15923 H 1515.94 0.729889 -0.189151 0
M  V30 15924 H 1518.59 1.4745 -1.09228 0
M  V30 15925 H 1516.98 3.95366 -0.223908 0
M  V30 15926 H 1518.15 3.46258 -3.04043 0
M  V30 15927 H 1516.47 3.23107 -2.62661 0
M  V30 15928 H 1519.06 5.29275 -0.759755 0
M  V30 15929 H 1519.41 4.13285 0.500129 0
M  V30 15930 H 1519.94 3.80317 -1.16635 0
M  V30 15931 H 1516.68 5.41535 -3.69351 0
M  V30 15932 H 1516.2 5.6555 -1.99784 0
M  V30 15933 H 1517.88 5.96536 -2.50506 0
M  V30 15934 N 1518.01 0.657889 1.43212 0
M  V30 15935 C 1519.25 0.182061 2.02584 0
M  V30 15936 C 1519.61 -1.19232 1.51002 0
M  V30 15937 O 1518.9 -1.78535 0.6954 0
M  V30 15938 C 1519.1 0.138025 3.57133 0
M  V30 15939 C 1518.93 1.5066 4.23712 0
M  V30 15940 C 1517.7 2.10015 4.59589 0
M  V30 15941 C 1519.89 2.44593 4.52414 0
M  V30 15942 N 1517.88 3.39828 5.11263 0
M  V30 15943 C 1519.25 3.59044 5.05457 0
M  V30 15944 C 1521.3 2.43337 4.34387 0
M  V30 15945 C 1520 4.7247 5.4237 0
M  V30 15946 C 1522.03 3.55846 4.72364 0
M  V30 15947 C 1521.39 4.69023 5.25544 0
M  V30 15948 H 1517.49 0.111158 0.774059 0
M  V30 15949 H 1520.08 0.867208 1.7432 0
M  V30 15950 H 1518.25 -0.516479 3.84951 0
M  V30 15951 H 1519.98 -0.34911 4.03191 0
M  V30 15952 H 1516.73 1.62676 4.44785 0
M  V30 15953 H 1517.16 4.06269 5.41548 0
M  V30 15954 H 1521.8 1.57072 3.92541 0
M  V30 15955 H 1519.52 5.59423 5.83157 0
M  V30 15956 H 1523.1 3.56081 4.60106 0
M  V30 15957 H 1521.98 5.54641 5.54385 0
M  V30 15958 N 1519.49 -1.52437 0.400108 0
M  V30 15959 C 1520.73 -2.0201 -0.17887 0
M  V30 15960 C 1521.07 -1.2856 -1.45554 0
M  V30 15961 O 1520.34 -0.389236 -1.90565 0
M  V30 15962 C 1520.62 -3.57453 -0.435784 0
M  V30 15963 C 1520.48 -4.41562 0.85693 0
M  V30 15964 C 1521.8 -4.228 -1.2218 0
M  V30 15965 H 1518.91 -0.734256 -0.063535 0
M  V30 15966 H 1521.56 -1.82406 0.531801 0
M  V30 15967 H 1519.71 -3.74288 -1.04117 0
M  V30 15968 H 1521.38 -4.36456 1.49344 0
M  V30 15969 H 1519.62 -4.08138 1.46989 0
M  V30 15970 H 1520.29 -5.48374 0.631675 0
M  V30 15971 H 1522.77 -4.10009 -0.709359 0
M  V30 15972 H 1521.64 -5.3152 -1.37031 0
M  V30 15973 H 1521.91 -3.81153 -2.23998 0
M  V30 15974 N 1520.96 -0.130252 -1.57061 0
M  V30 15975 C 1522.19 0.531644 -1.99642 0
M  V30 15976 C 1522.6 1.60045 -1.00907 0
M  V30 15977 O 1521.95 1.83699 0.00452296 0
M  V30 15978 C 1522.01 1.20654 -3.38649 0
M  V30 15979 C 1521.67 0.284337 -4.56115 0
M  V30 15980 C 1522.67 -0.481472 -5.17666 0
M  V30 15981 C 1520.35 0.192125 -5.01932 0
M  V30 15982 C 1522.35 -1.32711 -6.23431 0
M  V30 15983 C 1520.03 -0.657135 -6.07557 0
M  V30 15984 C 1521.03 -1.41537 -6.68174 0
M  V30 15985 O 1520.72 -2.25051 -7.71756 0
M  V30 15986 H 1520.45 0.144394 -0.660399 0
M  V30 15987 H 1523.01 -0.216789 -2.04253 0
M  V30 15988 H 1521.24 2.00227 -3.30826 0
M  V30 15989 H 1522.93 1.76647 -3.65446 0
M  V30 15990 H 1523.69 -0.420169 -4.83177 0
M  V30 15991 H 1519.57 0.772017 -4.5449 0
M  V30 15992 H 1523.11 -1.91942 -6.70674 0
M  V30 15993 H 1519.01 -0.719791 -6.41474 0
M  V30 15994 H 1519.78 -2.18116 -7.88903 0
M  V30 15995 N 1522.44 1.56945 0.143535 0
M  V30 15996 C 1523.67 1.88067 0.874385 0
M  V30 15997 C 1524.09 0.719645 1.73789 0
M  V30 15998 O 1523.45 -0.330654 1.78259 0
M  V30 15999 C 1523.5 3.17795 1.70408 0
M  V30 16000 O 1522.6 3.01973 2.80867 0
M  V30 16001 H 1521.94 0.617808 0.24333 0
M  V30 16002 H 1524.47 2.04165 0.133309 0
M  V30 16003 H 1524.48 3.49903 2.09838 0
M  V30 16004 H 1523.16 4.019 1.07001 0
M  V30 16005 H 1521.74 2.8128 2.44818 0
M  V30 16006 N 1523.92 -0.412991 1.52093 0
M  V30 16007 C 1525.15 -1.18212 1.69805 0
M  V30 16008 C 1525.56 -1.84386 0.405844 0
M  V30 16009 O 1524.92 -1.71725 -0.617809 0
M  V30 16010 C 1524.97 -2.24811 2.83094 0
M  V30 16011 O 1524.69 -1.61338 4.0731 0
M  V30 16012 C 1526.19 -3.14633 3.12283 0
M  V30 16013 H 1523.41 -0.355371 0.569168 0
M  V30 16014 H 1525.96 -0.486392 1.98632 0
M  V30 16015 H 1524.11 -2.90058 2.56797 0
M  V30 16016 H 1524.53 -2.31979 4.7041 0
M  V30 16017 H 1526 -3.85511 3.95076 0
M  V30 16018 H 1526.48 -3.76785 2.25677 0
M  V30 16019 H 1527.08 -2.55059 3.40331 0
M  V30 16020 N 1525.4 -1.4265 -0.669982 0
M  V30 16021 C 1526.68 -1.33858 -1.42623 0
M  V30 16022 C 1527.06 0.0217285 -2.11089 0
M  V30 16023 O 1526.4 1.03748 -2.03589 0
M  V30 16024 C 1526.61 -2.51015 -2.42472 0
M  V30 16025 C 1527.96 -2.93348 -3.06972 0
M  V30 16026 O 1528.99 -2.5094 -2.52799 0
M  V30 16027 O 1527.85 -3.66762 -4.05151 0
M  V30 16028 H 1524.94 -0.528141 -0.636393 0
M  V30 16029 H 1527.49 -1.54667 -0.6983 0
M  V30 16030 H 1526.26 -3.41679 -1.90713 0
M  V30 16031 H 1525.88 -2.32218 -3.2274 0
M  V30 16032 N 1526.88 0.906753 -1.28902 0
M  V30 16033 C 1528.11 1.69019 -1.19333 0
M  V30 16034 C 1528.52 1.87176 0.247065 0
M  V30 16035 O 1527.88 1.40376 1.16623 0
M  V30 16036 C 1527.93 3.07854 -1.89495 0
M  V30 16037 O 1527.65 2.90531 -3.27908 0
M  V30 16038 C 1529.15 4.02246 -1.86314 0
M  V30 16039 H 1526.37 0.528119 -0.413922 0
M  V30 16040 H 1528.91 1.13441 -1.70151 0
M  V30 16041 H 1527.07 3.60228 -1.42529 0
M  V30 16042 H 1527.48 3.78451 -3.63146 0
M  V30 16043 H 1528.96 4.97104 -2.39983 0
M  V30 16044 H 1529.43 4.31149 -0.837071 0
M  V30 16045 H 1530.04 3.55803 -2.3299 0
M  V30 16046 N 1528.36 1.11264 1.11616 0
M  V30 16047 C 1529.3 0.764321 2.19684 0
M  V30 16048 C 1530.3 -0.243396 1.67642 0
M  V30 16049 O 1531.5 -0.102869 1.79706 0
M  V30 16050 H 1527.88 0.229275 0.716196 0
M  V30 16051 H 1529.85 1.68445 2.46311 0
M  V30 16052 C 1528.6 0.22175 3.46992 0
M  V30 16053 H 1527.92 0.988422 3.87389 0
M  V30 16054 H 1529.36 0.0161946 4.23997 0
M  V30 16055 C 1527.82 -1.04755 3.202 0
M  V30 16056 O 1528.35 -2.12758 3.4073 0
M  V30 16057 N 1526.56 -0.969608 2.73947 0
M  V30 16058 H 1526.1 -0.0906063 2.57441 0
M  V30 16059 H 1526.06 -1.81955 2.56397 0
M  V30 16060 N 1529.83 -1.29188 0.902679 0
M  V30 16061 C 1531.08 -1.95438 0.530124 0
M  V30 16062 C 1531.41 -1.71142 -0.924149 0
M  V30 16063 O 1530.66 -1.01901 -1.67077 0
M  V30 16064 C 1530.96 -3.48951 0.772542 0
M  V30 16065 C 1530.63 -3.93328 2.20464 0
M  V30 16066 C 1529.29 -4.05155 2.59621 0
M  V30 16067 C 1531.64 -4.16216 3.13709 0
M  V30 16068 C 1528.97 -4.37242 3.91198 0
M  V30 16069 C 1531.32 -4.49779 4.44839 0
M  V30 16070 C 1529.99 -4.59817 4.83865 0
M  V30 16071 H 1529.26 -0.715158 0.193986 0
M  V30 16072 H 1531.9 -1.5373 1.1419 0
M  V30 16073 H 1530.21 -3.91723 0.0778683 0
M  V30 16074 H 1531.91 -3.98311 0.463623 0
M  V30 16075 H 1528.5 -3.84641 1.89075 0
M  V30 16076 H 1532.68 -4.06542 2.8467 0
M  V30 16077 H 1527.94 -4.43217 4.21152 0
M  V30 16078 H 1532.11 -4.66439 5.17115 0
M  V30 16079 H 1529.74 -4.84435 5.85856 0
M  V30 16080 N 1531.31 -0.665475 -1.42861 0
M  V30 16081 C 1532.54 -0.190399 -2.06524 0
M  V30 16082 C 1532.96 1.13995 -1.49622 0
M  V30 16083 O 1532.32 1.70695 -0.610981 0
M  V30 16084 C 1532.37 -0.12594 -3.6038 0
M  V30 16085 O 1531.47 0.908299 -4.02273 0
M  V30 16086 H 1530.81 -0.100495 -0.656351 0
M  V30 16087 H 1533.34 -0.911858 -1.83156 0
M  V30 16088 H 1533.35 0.0533153 -4.07965 0
M  V30 16089 H 1532.03 -1.09703 -4.01171 0
M  V30 16090 H 1530.6 0.700841 -3.66255 0
M  V30 16091 N 1532.79 1.52222 -0.408187 0
M  V30 16092 C 1534.07 1.94285 0.22641 0
M  V30 16093 C 1534.45 1.34501 1.62705 0
M  V30 16094 O 1533.79 0.52045 2.22494 0
M  V30 16095 C 1534 3.48217 0.233695 0
M  V30 16096 C 1535.35 4.22171 0.453504 0
M  V30 16097 O 1536.38 3.54821 0.313093 0
M  V30 16098 O 1535.24 5.416 0.730183 0
M  V30 16099 H 1532.33 0.814078 0.145625 0
M  V30 16100 H 1534.88 1.63232 -0.464062 0
M  V30 16101 H 1533.65 3.84111 -0.746644 0
M  V30 16102 H 1533.27 3.85629 0.968305 0
M  V30 16103 N 1534.27 0.138579 1.5699 0
M  V30 16104 C 1535.2 -0.842105 2.12094 0
M  V30 16105 C 1536.18 -1.24798 1.04232 0
M  V30 16106 O 1537.36 -1.34557 1.3201 0
M  V30 16107 C 1534.49 -2.1296 2.63373 0
M  V30 16108 C 1533.54 -1.8703 3.83304 0
M  V30 16109 S 1534.37 -1.06889 5.24724 0
M  V30 16110 C 1535.52 -2.36776 5.79386 0
M  V30 16111 H 1535.76 -0.373475 2.94945 0
M  V30 16112 H 1533.29 -0.0755566 1.54215 0
M  V30 16113 H 1535.25 -2.86927 2.9357 0
M  V30 16114 H 1533.91 -2.56939 1.80668 0
M  V30 16115 H 1533.1 -2.82478 4.17399 0
M  V30 16116 H 1532.7 -1.21176 3.53825 0
M  V30 16117 H 1535 -3.32486 5.90304 0
M  V30 16118 H 1535.94 -2.07197 6.77108 0
M  V30 16119 H 1536.35 -2.47039 5.07575 0
M  V30 16120 N 1535.75 -1.57019 -0.13521 0
M  V30 16121 C 1536.99 -1.8399 -0.845818 0
M  V30 16122 C 1537.32 -0.721255 -1.80633 0
M  V30 16123 O 1536.58 0.288778 -1.93558 0
M  V30 16124 C 1536.87 -3.17358 -1.64373 0
M  V30 16125 C 1536.54 -4.43214 -0.828967 0
M  V30 16126 C 1535.2 -4.77391 -0.604226 0
M  V30 16127 C 1537.55 -5.20551 -0.259965 0
M  V30 16128 C 1534.88 -5.86359 0.200033 0
M  V30 16129 C 1537.23 -6.30364 0.531397 0
M  V30 16130 C 1535.9 -6.63083 0.766605 0
M  V30 16131 H 1535.17 -0.673266 -0.309507 0
M  V30 16132 H 1537.82 -1.9119 -0.108903 0
M  V30 16133 H 1536.12 -3.05661 -2.4511 0
M  V30 16134 H 1537.82 -3.35444 -2.19724 0
M  V30 16135 H 1534.41 -4.16427 -1.01421 0
M  V30 16136 H 1538.59 -4.94512 -0.420847 0
M  V30 16137 H 1533.85 -6.10144 0.391646 0
M  V30 16138 H 1538.02 -6.89479 0.979371 0
M  V30 16139 H 1535.65 -7.47354 1.39164 0
M  V30 16140 N 1537.22 0.404919 -1.52309 0
M  V30 16141 C 1538.47 1.1499 -1.67776 0
M  V30 16142 C 1538.83 1.88094 -0.404753 0
M  V30 16143 O 1538.12 1.81931 0.600975 0
M  V30 16144 C 1538.31 2.16817 -2.84121 0
M  V30 16145 C 1538.14 1.53712 -4.22614 0
M  V30 16146 C 1536.91 1.30802 -4.88077 0
M  V30 16147 C 1539.11 0.995747 -5.04569 0
M  V30 16148 N 1537.09 0.636344 -6.10593 0
M  V30 16149 C 1538.46 0.451225 -6.18356 0
M  V30 16150 C 1540.52 0.890617 -4.8987 0
M  V30 16151 C 1539.22 -0.188129 -7.19054 0
M  V30 16152 C 1541.25 0.26511 -5.90805 0
M  V30 16153 C 1540.61 -0.268716 -7.03887 0
M  V30 16154 H 1536.71 0.407302 -0.667554 0
M  V30 16155 H 1539.29 0.441678 -1.89624 0
M  V30 16156 H 1537.46 2.84993 -2.63882 0
M  V30 16157 H 1539.19 2.83707 -2.88604 0
M  V30 16158 H 1535.95 1.57869 -4.46513 0
M  V30 16159 H 1536.37 0.317008 -6.76257 0
M  V30 16160 H 1541.02 1.28915 -4.02667 0
M  V30 16161 H 1538.73 -0.598717 -8.05879 0
M  V30 16162 H 1542.32 0.185229 -5.81505 0
M  V30 16163 H 1541.2 -0.745099 -7.80652 0
M  V30 16164 N 1538.7 1.43003 0.662408 0
M  V30 16165 C 1539.93 1.47766 1.45533 0
M  V30 16166 C 1540.35 0.0940298 1.87865 0
M  V30 16167 O 1539.71 -0.910252 1.56793 0
M  V30 16168 C 1539.76 2.42084 2.6726 0
M  V30 16169 O 1538.86 1.90076 3.65985 0
M  V30 16170 H 1538.2 0.500167 0.436725 0
M  V30 16171 H 1540.73 1.87823 0.811399 0
M  V30 16172 H 1540.74 2.5908 3.15185 0
M  V30 16173 H 1539.42 3.42601 2.3579 0
M  V30 16174 H 1538 1.82695 3.2508 0
M  V30 16175 O 1540.22 -0.805249 1.39993 0
M  V30 16176 H 1540.91 -1.45009 1.28421 0
M  V30 END ATOM
M  V30 BEGIN BOND
M  V30 END BOND
M  V30 END CTAB
M  END
$$$$
