drugbank_target|P74645 Circadian clock protein KaiB (DB03366; DB03499; DB04455)
 OpenBabel12092119563D

  0  0  0     0  0            999 V3000
M  V30 BEGIN CTAB
M  V30 COUNTS 1735 1747 0 0 0
M  V30 BEGIN ATOM
M  V30 1 H -0.908 1.98254 -0.117106 0
M  V30 2 N 0 1.576 0 0
M  V30 3 C 0.933 2.03868 1.02534 0
M  V30 4 C 1.911 0.928543 1.3348 0
M  V30 5 O 3.095 1.19667 1.45644 0
M  V30 6 C 0.222 2.43627 2.35294 0
M  V30 7 C -0.732 3.65373 2.2001 0
M  V30 8 S 0.101 5.13292 1.52614 0
M  V30 9 C 1.257 5.56322 2.86805 0
M  V30 10 H 1.49 2.90518 0.631377 0
M  V30 11 H -0.977 1.52953 0.210867 0
M  V30 12 H 0.981 2.67203 3.11629 0
M  V30 13 H -0.358 1.57376 2.7183 0
M  V30 14 H -1.165 3.90944 3.18086 0
M  V30 15 H -1.563 3.418 1.51819 0
M  V30 16 H 0.729 5.58782 3.83104 0
M  V30 17 H 1.672 6.56266 2.65933 0
M  V30 18 H 2.08 4.83886 2.90714 0
M  V30 19 N 1.4781 -0.272755 1.55222 0
M  V30 20 C 2.7031 -1.02683 1.80197 0
M  V30 21 C 3.1281 -1.79142 0.573551 0
M  V30 22 O 2.4861 -1.74917 -0.476849 0
M  V30 23 C 2.5341 -1.9609 3.02624 0
M  V30 24 O 1.6381 -3.04863 2.77727 0
M  V30 25 H 0.9791 -0.293557 0.595584 0
M  V30 26 H 3.5091 -0.30159 2.02365 0
M  V30 27 H 3.5191 -2.38039 3.31363 0
M  V30 28 H 2.1941 -1.39851 3.91682 0
M  V30 29 H 0.7711 -2.67228 2.60084 0
M  V30 30 N 2.9562 -1.48159 -0.537278 0
M  V30 31 C 4.3672 -1.49429 -1.11928 0
M  V30 32 C 4.7182 -0.26 -1.9447 0
M  V30 33 O 3.8432 0.633489 -2.0692 0
M  V30 34 C 4.4382 -2.70758 -2.03656 0
M  V30 35 C 2.9972 -2.74923 -2.57088 0
M  V30 36 C 2.1442 -2.42835 -1.3389 0
M  V30 37 H 5.0952 -1.55381 -0.322886 0
M  V30 38 H 5.1162 -2.48861 -2.87834 0
M  V30 39 H 4.6282 -3.60575 -1.43553 0
M  V30 40 H 2.7292 -1.89296 -3.20933 0
M  V30 41 H 2.8422 -3.76157 -2.9672 0
M  V30 42 H 1.2062 -1.93836 -1.65226 0
M  V30 43 H 1.9892 -3.34884 -0.755504 0
M  V30 44 N 4.4343 0.785586 -1.36625 0
M  V30 45 C 5.6813 1.54362 -1.31067 0
M  V30 46 C 6.0093 1.94195 0.10893 0
M  V30 47 O 5.2643 1.63262 1.07908 0
M  V30 48 C 5.5633 2.83007 -2.1827 0
M  V30 49 C 5.2293 2.62294 -3.6676 0
M  V30 50 C 3.8913 2.56353 -4.0723 0
M  V30 51 C 6.2433 2.43371 -4.6089 0
M  V30 52 C 3.5713 2.29461 -5.39967 0
M  V30 53 C 5.9233 2.18005 -5.93849 0
M  V30 54 C 4.5873 2.105 -6.3344 0
M  V30 55 H 3.8573 0.564851 -0.479609 0
M  V30 56 H 6.5043 0.906028 -1.68711 0
M  V30 57 H 4.8093 3.51253 -1.73576 0
M  V30 58 H 6.5063 3.40817 -2.11292 0
M  V30 59 H 3.0963 2.67774 -3.34656 0
M  V30 60 H 7.2803 2.46959 -4.30494 0
M  V30 61 H 2.5363 2.22135 -5.69619 0
M  V30 62 H 6.7103 2.02359 -6.66351 0
M  V30 63 H 4.3373 1.89425 -7.36222 0
M  V30 64 N 5.9124 1.20967 1.01018 0
M  V30 65 C 6.8594 0.964281 2.09691 0
M  V30 66 C 7.8294 -0.107853 1.65749 0
M  V30 67 O 9.0144 0.0381987 1.90762 0
M  V30 68 C 6.1544 0.52943 3.41015 0
M  V30 69 C 5.2674 1.67043 3.98398 0
M  V30 70 C 4.4024 1.18525 5.17808 0
M  V30 71 C 3.4414 2.29892 5.67288 0
M  V30 72 N 2.5784 1.82546 6.77954 0
M  V30 73 H 7.4184 1.89463 2.30017 0
M  V30 74 H 4.9554 0.944289 1.1279 0
M  V30 75 H 6.9134 0.258588 4.16398 0
M  V30 76 H 5.5434 -0.363919 3.20742 0
M  V30 77 H 4.5954 2.05603 3.20049 0
M  V30 78 H 5.9074 2.50877 4.31117 0
M  V30 79 H 5.0614 0.870762 6.00419 0
M  V30 80 H 3.8004 0.316887 4.86669 0
M  V30 81 H 2.8054 2.6215 4.83278 0
M  V30 82 H 4.0304 3.17216 6.00459 0
M  V30 83 H 1.9764 0.980454 6.48632 0
M  V30 84 H 1.8934 2.59956 7.09901 0
M  V30 85 H 3.1614 1.54115 7.64113 0
M  V30 86 N 7.3905 -1.2043 1.01659 0
M  V30 87 C 8.3375 -2.23215 0.586822 0
M  V30 88 C 9.3075 -1.61382 -0.393085 0
M  V30 89 O 10.4925 -1.88544 -0.292525 0
M  V30 90 C 7.6325 -3.45032 -0.0687464 0
M  V30 91 C 6.7455 -4.21296 0.955724 0
M  V30 92 C 5.8805 -5.30507 0.271208 0
M  V30 93 C 4.9195 -5.98515 1.28244 0
M  V30 94 N 4.0565 -6.99316 0.62459 0
M  V30 95 H 8.8965 -2.59336 1.46796 0
M  V30 96 H 6.4335 -1.27431 0.734836 0
M  V30 97 H 8.3915 -4.1459 -0.465965 0
M  V30 98 H 7.0215 -3.09604 -0.913529 0
M  V30 99 H 6.0735 -3.50803 1.4711 0
M  V30 100 H 7.3855 -4.6803 1.72479 0
M  V30 101 H 6.5395 -6.06428 -0.18151 0
M  V30 102 H 5.2785 -4.8481 -0.530163 0
M  V30 103 H 4.2835 -5.21355 1.74554 0
M  V30 104 H 5.5085 -6.46298 2.08509 0
M  V30 105 H 3.4545 -6.55812 -0.156914 0
M  V30 106 H 3.3715 -7.44178 1.33172 0
M  V30 107 H 4.6395 -7.79255 0.195462 0
M  V30 108 N 8.8686 -0.792821 -1.36206 0
M  V30 109 C 10.0966 -0.378825 -2.03402 0
M  V30 110 C 10.5116 1.00586 -1.59774 0
M  V30 111 O 9.8686 1.64574 -0.788764 0
M  V30 112 C 9.9196 -0.43683 -3.58851 0
M  V30 113 O 9.6406 -1.76691 -4.00889 0
M  V30 114 C 11.1416 -0.0138943 -4.43298 0
M  V30 115 H 8.3616 -0.155673 -0.652692 0
M  V30 116 H 10.9056 -1.07261 -1.74113 0
M  V30 117 H 9.0606 0.208575 -3.86838 0
M  V30 118 H 9.4746 -1.72011 -4.95492 0
M  V30 119 H 10.9486 -0.105615 -5.51899 0
M  V30 120 H 11.4256 1.03915 -4.2673 0
M  V30 121 H 12.0316 -0.63192 -4.20579 0
M  V30 122 N 10.3467 1.47872 -0.545128 0
M  V30 123 C 11.5767 2.06589 -0.0210534 0
M  V30 124 C 11.9847 1.39997 1.27269 0
M  V30 125 O 11.3277 0.486421 1.77143 0
M  V30 126 C 11.3897 3.58574 0.257933 0
M  V30 127 C 11.0537 4.47132 -0.944573 0
M  V30 128 C 12.0507 4.85986 -1.84699 0
M  V30 129 C 9.7357 4.88821 -1.15584 0
M  V30 130 C 11.7297 5.65314 -2.94446 0
M  V30 131 C 9.4167 5.67916 -2.25642 0
M  V30 132 C 10.4147 6.06073 -3.14905 0
M  V30 133 O 10.1027 6.83578 -4.23057 0
M  V30 134 H 9.8347 0.674971 -0.0372899 0
M  V30 135 H 12.3887 1.91037 -0.754599 0
M  V30 136 H 10.6187 3.72295 1.04564 0
M  V30 137 H 12.3077 3.99356 0.72592 0
M  V30 138 H 13.0737 4.54388 -1.69577 0
M  V30 139 H 8.9527 4.58595 -0.470279 0
M  V30 140 H 12.4967 5.95016 -3.64145 0
M  V30 141 H 8.3937 5.98927 -2.40742 0
M  V30 142 H 9.1617 7.01954 -4.20954 0
M  V30 143 N 11.8248 0.280983 1.55075 0
M  V30 144 C 13.0708 -0.33461 2.00021 0
M  V30 145 C 13.4038 -1.55063 1.16915 0
M  V30 146 O 12.6788 -1.93006 0.240646 0
M  V30 147 C 12.9618 -0.711007 3.53011 0
M  V30 148 C 12.8148 0.512766 4.46868 0
M  V30 149 C 14.1338 -1.54522 4.12081 0
M  V30 150 H 11.2528 -0.120147 0.727141 0
M  V30 151 H 13.8948 0.389097 1.85973 0
M  V30 152 H 12.0448 -1.32761 3.65112 0
M  V30 153 H 13.7168 1.15131 4.46702 0
M  V30 154 H 11.9598 1.14975 4.18286 0
M  V30 155 H 12.6308 0.205556 5.51617 0
M  V30 156 H 15.1068 -1.02442 4.03293 0
M  V30 157 H 13.9828 -1.77739 5.19327 0
M  V30 158 H 14.2438 -2.52813 3.62682 0
M  V30 159 N 13.3029 -1.57598 0.00835791 0
M  V30 160 C 14.2329 -2.1198 -0.979113 0
M  V30 161 C 15.2139 -1.03091 -1.35301 0
M  V30 162 O 16.3989 -1.30818 -1.43528 0
M  V30 163 C 13.5289 -2.62995 -2.26828 0
M  V30 164 C 12.4829 -3.76485 -2.03576 0
M  V30 165 C 11.8089 -4.13846 -3.38579 0
M  V30 166 C 13.1089 -5.0342 -1.39161 0
M  V30 167 H 14.8029 -2.94738 -0.526281 0
M  V30 168 H 12.3489 -1.41783 -0.251704 0
M  V30 169 H 14.3019 -2.99669 -2.96271 0
M  V30 170 H 13.0259 -1.7737 -2.7424 0
M  V30 171 H 11.6849 -3.40217 -1.36557 0
M  V30 172 H 11.3329 -3.25232 -3.83709 0
M  V30 173 H 11.0329 -4.90312 -3.23834 0
M  V30 174 H 12.5569 -4.53086 -4.09323 0
M  V30 175 H 13.9709 -5.37812 -1.98573 0
M  V30 176 H 12.3679 -5.84746 -1.34878 0
M  V30 177 H 13.4379 -4.83548 -0.361868 0
M  V30 178 N 14.781 0.264519 -1.55364 0
M  V30 179 C 15.728 1.32717 -1.88825 0
M  V30 180 C 16.698 1.48675 -0.740605 0
M  V30 181 O 17.883 1.62945 -0.992657 0
M  V30 182 C 15.023 2.68089 -2.17307 0
M  V30 183 C 14.136 2.60284 -3.44785 0
M  V30 184 C 13.271 3.87892 -3.62924 0
M  V30 185 C 12.31 3.74631 -4.84064 0
M  V30 186 N 11.447 4.94092 -4.98816 0
M  V30 187 H 16.287 1.03481 -2.79456 0
M  V30 188 H 13.824 0.499757 -1.3835 0
M  V30 189 H 15.782 3.46864 -2.31821 0
M  V30 190 H 14.412 2.95509 -1.299 0
M  V30 191 H 13.464 1.73173 -3.38697 0
M  V30 192 H 14.776 2.46388 -4.33698 0
M  V30 193 H 13.93 4.75109 -3.77302 0
M  V30 194 H 12.669 4.04664 -2.7221 0
M  V30 195 H 11.674 2.85797 -4.69681 0
M  V30 196 H 12.899 3.5937 -5.76221 0
M  V30 197 H 10.845 5.11259 -4.11036 0
M  V30 198 H 10.762 4.8276 -5.81789 0
M  V30 199 H 12.03 5.82857 -5.17588 0
M  V30 200 N 16.2591 1.48442 0.529413 0
M  V30 201 C 17.1891 1.65902 1.64313 0
M  V30 202 C 18.1701 0.507897 1.6234 0
M  V30 203 O 19.3551 0.740503 1.79528 0
M  V30 204 C 16.4851 1.69911 3.02898 0
M  V30 205 C 15.4391 2.8453 3.19729 0
M  V30 206 C 14.7651 2.73629 4.59381 0
M  V30 207 C 16.0651 4.25821 3.02447 0
M  V30 208 H 17.7591 2.5914 1.49955 0
M  V30 209 H 15.3051 1.24709 0.719982 0
M  V30 210 H 17.2581 1.80715 3.80684 0
M  V30 211 H 15.9821 0.732524 3.18279 0
M  V30 212 H 14.6411 2.73283 2.44361 0
M  V30 213 H 14.2891 1.74938 4.71599 0
M  V30 214 H 13.9891 3.50541 4.71588 0
M  V30 215 H 15.5131 2.86401 5.39265 0
M  V30 216 H 16.9271 4.37898 3.70024 0
M  V30 217 H 15.3241 5.03735 3.26146 0
M  V30 218 H 16.3941 4.42244 1.98867 0
M  V30 219 N 17.7372 -0.778329 1.37039 0
M  V30 220 C 18.9672 -1.56507 1.34868 0
M  V30 221 C 19.3752 -1.89072 -0.0694802 0
M  V30 222 O 18.7182 -1.51434 -1.03987 0
M  V30 223 C 18.7802 -2.90641 2.11585 0
M  V30 224 C 18.4442 -2.80746 3.60598 0
M  V30 225 C 19.4412 -2.52226 4.54618 0
M  V30 226 C 17.1262 -2.98974 4.03633 0
M  V30 227 C 19.1202 -2.42054 5.89651 0
M  V30 228 C 16.8072 -2.88423 5.38754 0
M  V30 229 C 17.8052 -2.60002 6.31576 0
M  V30 230 O 17.4932 -2.49465 7.64214 0
M  V30 231 H 17.2252 -0.491723 0.463879 0
M  V30 232 H 19.7792 -0.973053 1.80889 0
M  V30 233 H 18.0092 -3.51936 1.60243 0
M  V30 234 H 19.6982 -3.51992 2.0213 0
M  V30 235 H 20.4642 -2.37835 4.22681 0
M  V30 236 H 16.3432 -3.20099 3.31749 0
M  V30 237 H 19.8872 -2.19791 6.62071 0
M  V30 238 H 15.7842 -3.0238 5.70295 0
M  V30 239 H 16.5522 -2.64864 7.74461 0
M  V30 240 N 19.2153 -1.21501 -1.00376 0
M  V30 241 C 20.4613 -1.03452 -1.74429 0
M  V30 242 C 20.7943 0.430764 -1.89362 0
M  V30 243 O 20.0693 1.31962 -1.42886 0
M  V30 244 C 20.3523 -1.73375 -3.15615 0
M  V30 245 C 20.2053 -3.27431 -3.08397 0
M  V30 246 C 21.5243 -1.47732 -4.14564 0
M  V30 247 H 18.6433 -0.377226 -0.633143 0
M  V30 248 H 21.2853 -1.49693 -1.17013 0
M  V30 249 H 19.4353 -1.34064 -3.64636 0
M  V30 250 H 21.1073 -3.76119 -2.67081 0
M  V30 251 H 19.3503 -3.5767 -2.45468 0
M  V30 252 H 20.0213 -3.71524 -4.08258 0
M  V30 253 H 22.4973 -1.8186 -3.74254 0
M  V30 254 H 21.3733 -1.99169 -5.11491 0
M  V30 255 H 21.6343 -0.407589 -4.40217 0
M  V30 256 N 20.6934 1.19889 -1.02296 0
M  V30 257 C 21.6564 2.21116 -0.603351 0
M  V30 258 C 22.6564 1.5738 0.329884 0
M  V30 259 O 23.8464 1.73802 0.117702 0
M  V30 260 C 20.9784 3.40696 0.117992 0
M  V30 261 H 22.1714 2.59754 -1.49893 0
M  V30 262 H 19.7244 1.33463 -0.813468 0
M  V30 263 H 20.4594 3.07569 1.0282 0
M  V30 264 H 20.2444 3.88188 -0.552511 0
M  V30 265 H 21.7344 4.15692 0.398696 0
M  V30 266 N 22.1715 0.800033 1.35784 0
M  V30 267 C 23.4195 0.376597 1.9856 0
M  V30 268 C 23.7405 -1.05812 1.63795 0
M  V30 269 O 23.0105 -1.73103 0.917171 0
M  V30 270 H 21.5905 0.136261 0.734467 0
M  V30 271 H 24.2525 1.02442 1.65806 0
M  V30 272 H 23.3485 0.477002 3.08433 0
M  V30 273 N 23.6496 -1.47581 0.552962 0
M  V30 274 C 24.5976 -2.31648 -0.21023 0
M  V30 275 C 25.5916 -1.42663 -0.913432 0
M  V30 276 O 26.7976 -1.5945 -0.835201 0
M  V30 277 H 23.1726 -0.746989 -0.0866676 0
M  V30 278 H 25.1436 -2.93869 0.518051 0
M  V30 279 C 23.8926 -3.25226 -1.22976 0
M  V30 280 H 23.2156 -3.93658 -0.698077 0
M  V30 281 H 24.6556 -3.86889 -1.73473 0
M  V30 282 C 23.1146 -2.48448 -2.27542 0
M  V30 283 O 23.6446 -2.22585 -3.34393 0
M  V30 284 N 21.8506 -2.09532 -2.01357 0
M  V30 285 H 21.3976 -2.30765 -1.14478 0
M  V30 286 H 21.3556 -1.58476 -2.71538 0
M  V30 287 N 25.1277 -0.289203 -1.54924 0
M  V30 288 C 26.3557 0.326463 -2.04308 0
M  V30 289 C 26.7707 1.48413 -1.16701 0
M  V30 290 O 26.1277 1.81507 -0.190087 0
M  V30 291 C 26.1787 0.794014 -3.52672 0
M  V30 292 O 25.8997 -0.317564 -4.36948 0
M  V30 293 C 27.4007 1.47605 -4.18004 0
M  V30 294 H 24.6207 0.0726272 -0.667058 0
M  V30 295 H 27.1647 -0.425401 -2.00026 0
M  V30 296 H 25.3197 1.49593 -3.57352 0
M  V30 297 H 25.7337 0.0443186 -5.24481 0
M  V30 298 H 27.2077 1.75447 -5.23376 0
M  V30 299 H 27.6847 2.41224 -3.67025 0
M  V30 300 H 28.2907 0.81762 -4.17367 0
M  V30 301 N 26.6058 1.57591 -0.0167156 0
M  V30 302 C 28.0168 1.79201 0.523834 0
M  V30 303 C 28.3678 0.925796 1.72984 0
M  V30 304 O 27.4928 0.132792 2.15992 0
M  V30 305 C 28.0878 3.25 0.957091 0
M  V30 306 C 26.6468 3.47648 1.44283 0
M  V30 307 C 25.7938 2.74374 0.401757 0
M  V30 308 H 28.7448 1.56831 -0.242816 0
M  V30 309 H 28.7658 3.34031 1.82219 0
M  V30 310 H 28.2778 3.88019 0.0791415 0
M  V30 311 H 26.3788 2.89866 2.34113 0
M  V30 312 H 26.4918 4.56352 1.45877 0
M  V30 313 H 24.8558 2.39485 0.867121 0
M  V30 314 H 25.6388 3.40102 -0.467513 0
M  V30 315 N 28.0839 -0.256276 1.55502 0
M  V30 316 C 29.0319 -1.33694 1.90338 0
M  V30 317 C 30.0259 -1.50299 0.781441 0
M  V30 318 O 31.2319 -1.51885 0.965966 0
M  V30 319 H 27.6069 -0.447483 0.60437 0
M  V30 320 H 29.5779 -1.01574 2.8058 0
M  V30 321 C 28.3269 -2.68724 2.20642 0
M  V30 322 H 27.6499 -2.56743 3.06469 0
M  V30 323 H 29.0899 -3.43237 2.48926 0
M  V30 324 C 27.5489 -3.21101 1.01959 0
M  V30 325 O 28.0789 -4.0084 0.262762 0
M  V30 326 N 26.2849 -2.79003 0.812746 0
M  V30 327 H 25.8319 -2.14271 1.42989 0
M  V30 328 H 25.7899 -3.14393 0.0203076 0
M  V30 329 N 29.562 -1.4872 -0.521534 0
M  V30 330 C 30.787 -1.61101 -1.30618 0
M  V30 331 C 31.212 -0.274611 -1.86085 0
M  V30 332 O 30.57 0.754937 -1.64834 0
M  V30 333 C 30.618 -2.66709 -2.4269 0
M  V30 334 O 29.722 -2.24456 -3.45967 0
M  V30 335 H 29.063 -0.539921 -0.386499 0
M  V30 336 H 31.593 -1.94767 -0.626645 0
M  V30 337 H 31.603 -2.88245 -2.88754 0
M  V30 338 H 30.278 -3.63727 -2.01682 0
M  V30 339 H 28.855 -2.13168 -3.05964 0
M  V30 340 N 31.0401 0.771051 -1.3745 0
M  V30 341 C 32.2861 1.5319 -1.32894 0
M  V30 342 C 32.6191 1.94008 0.0862511 0
M  V30 343 O 31.8941 1.64124 1.04373 0
M  V30 344 C 32.1771 2.79648 -2.26868 0
M  V30 345 C 32.0301 2.45079 -3.77169 0
M  V30 346 C 33.3491 3.81583 -2.19277 0
M  V30 347 H 30.4681 0.555744 -0.484064 0
M  V30 348 H 33.1101 0.884492 -1.68157 0
M  V30 349 H 31.2601 3.34891 -1.96926 0
M  V30 350 H 32.9321 1.95745 -4.1771 0
M  V30 351 H 31.1751 1.77767 -3.95704 0
M  V30 352 H 31.8461 3.35478 -4.38359 0
M  V30 353 H 34.3221 3.35835 -2.45671 0
M  V30 354 H 33.1981 4.67787 -2.87171 0
M  V30 355 H 33.4591 4.25897 -1.18592 0
M  V30 356 N 32.5182 1.22032 0.997298 0
M  V30 357 C 33.9342 0.979326 1.26021 0
M  V30 358 C 34.1342 -0.32972 1.98784 0
M  V30 359 O 33.1902 -1.05345 2.29475 0
M  V30 360 C 34.5032 2.17509 2.07631 0
M  V30 361 C 36.0512 2.21817 2.2083 0
M  V30 362 C 36.5262 3.40933 3.05825 0
M  V30 363 N 38.0172 3.41067 3.13412 0
M  V30 364 C 38.7522 4.29885 3.79455 0
M  V30 365 N 38.2482 5.28914 4.47462 0
M  V30 366 N 40.0412 4.17673 3.76173 0
M  V30 367 H 32.1922 2.06202 0.509352 0
M  V30 368 H 34.4552 0.90334 0.287541 0
M  V30 369 H 34.1612 3.12415 1.61524 0
M  V30 370 H 34.0352 2.17206 3.08385 0
M  V30 371 H 36.4222 1.27462 2.66153 0
M  V30 372 H 36.5032 2.2616 1.1952 0
M  V30 373 H 36.1472 4.35586 2.61203 0
M  V30 374 H 36.0772 3.33829 4.07266 0
M  V30 375 H 38.5682 2.69406 2.65007 0
M  V30 376 H 38.8812 5.92973 4.95583 0
M  V30 377 H 37.2262 5.32831 4.46224 0
M  V30 378 H 40.4172 3.39564 3.22202 0
M  V30 379 H 40.5902 4.87098 4.27363 0
M  V30 380 N 33.9963 -1.19345 1.0293 0
M  V30 381 C 34.9593 -2.20793 0.615069 0
M  V30 382 C 35.9593 -1.57553 -0.321533 0
M  V30 383 O 37.1493 -1.73862 -0.108483 0
M  V30 384 C 34.2813 -3.40754 -0.0999222 0
M  V30 385 H 35.4743 -2.58955 1.51269 0
M  V30 386 H 33.0273 -1.3303 0.820534 0
M  V30 387 H 33.7623 -3.0811 -1.01187 0
M  V30 388 H 33.5473 -3.87889 0.57309 0
M  V30 389 H 35.0373 -4.15898 -0.376645 0
M  V30 390 N 35.4744 -0.807222 -1.35358 0
M  V30 391 C 36.4044 -0.232509 -2.3234 0
M  V30 392 C 37.3854 0.642386 -1.57504 0
M  V30 393 O 38.5704 0.572526 -1.85569 0
M  V30 394 C 35.7004 0.619238 -3.41735 0
M  V30 395 C 34.6544 -0.157215 -4.27711 0
M  V30 396 C 33.9804 0.816273 -5.28433 0
M  V30 397 C 35.2804 -1.35656 -5.04376 0
M  V30 398 H 36.9744 -1.04276 -2.80654 0
M  V30 399 H 34.5204 -0.50288 -1.34934 0
M  V30 400 H 36.4734 1.03137 -4.08584 0
M  V30 401 H 35.1974 1.46239 -2.92031 0
M  V30 402 H 33.8564 -0.550525 -3.62443 0
M  V30 403 H 33.5044 1.65494 -4.74996 0
M  V30 404 H 33.2044 0.301067 -5.86828 0
M  V30 405 H 34.7284 1.22659 -5.98153 0
M  V30 406 H 36.1424 -1.01927 -5.64166 0
M  V30 407 H 34.5394 -1.8063 -5.7227 0
M  V30 408 H 35.6094 -2.14288 -4.34981 0
M  V30 409 N 36.9525 1.47285 -0.560781 0
M  V30 410 C 37.8995 2.30058 0.18491 0
M  V30 411 C 38.8695 1.39281 0.904986 0
M  V30 412 O 40.0545 1.68241 0.899979 0
M  V30 413 C 37.1945 3.23317 1.20666 0
M  V30 414 C 36.3075 4.29186 0.492285 0
M  V30 415 C 35.4425 5.09592 1.49964 0
M  V30 416 C 34.4815 6.07232 0.770439 0
M  V30 417 N 33.6185 6.80584 1.72479 0
M  V30 418 H 38.4585 2.93302 -0.527048 0
M  V30 419 H 35.9955 1.44568 -0.271738 0
M  V30 420 H 37.9535 3.75811 1.81168 0
M  V30 421 H 36.5835 2.61929 1.88661 0
M  V30 422 H 35.6355 3.7972 -0.227333 0
M  V30 423 H 36.9475 4.98738 -0.0787929 0
M  V30 424 H 36.1015 5.66254 2.17809 0
M  V30 425 H 34.8405 4.3995 2.10464 0
M  V30 426 H 33.8455 5.49745 0.0780846 0
M  V30 427 H 35.0705 6.78884 0.171134 0
M  V30 428 H 33.0165 6.1367 2.3183 0
M  V30 429 H 32.9335 7.46319 1.20596 0
M  V30 430 H 34.2015 7.41818 2.39428 0
M  V30 431 N 38.4306 0.297415 1.54768 0
M  V30 432 C 39.3636 -0.622188 2.19554 0
M  V30 433 C 40.3416 -1.13558 1.16376 0
M  V30 434 O 41.5256 -1.20444 1.45002 0
M  V30 435 C 38.6526 -1.8509 2.83653 0
M  V30 436 C 37.6986 -1.47106 4.00328 0
M  V30 437 S 38.5316 -0.53006 5.3287 0
M  V30 438 C 39.6876 -1.76665 6.0045 0
M  V30 439 H 39.9206 -0.0717806 2.97213 0
M  V30 440 H 37.4536 0.0815678 1.54184 0
M  V30 441 H 39.4116 -2.55605 3.21211 0
M  V30 442 H 38.0726 -2.37247 2.05846 0
M  V30 443 H 37.2656 -2.38594 4.43947 0
M  V30 444 H 36.8676 -0.845885 3.64309 0
M  V30 445 H 39.1596 -2.7077 6.21039 0
M  V30 446 H 40.1026 -1.37308 6.9466 0
M  V30 447 H 40.5106 -1.94174 5.30054 0
M  V30 448 N 39.9087 -1.5758 0.0250728 0
M  V30 449 C 40.8387 -2.13007 -0.956575 0
M  V30 450 C 41.8197 -1.0452 -1.342 0
M  V30 451 O 43.0047 -1.32332 -1.42133 0
M  V30 452 C 40.1347 -2.65386 -2.24026 0
M  V30 453 C 39.0887 -3.78623 -1.99571 0
M  V30 454 C 38.4147 -4.17414 -3.3417 0
M  V30 455 C 39.7147 -5.04867 -1.33814 0
M  V30 456 H 41.4087 -2.9528 -0.494991 0
M  V30 457 H 38.9547 -1.42042 -0.236651 0
M  V30 458 H 40.9077 -3.02794 -2.93076 0
M  V30 459 H 39.6317 -1.80268 -2.72343 0
M  V30 460 H 38.2907 -3.41646 -1.32941 0
M  V30 461 H 37.9387 -3.29284 -3.80238 0
M  V30 462 H 37.6387 -4.93719 -3.18615 0
M  V30 463 H 39.1627 -4.57402 -4.04495 0
M  V30 464 H 40.5767 -5.39888 -1.92857 0
M  V30 465 H 38.9737 -5.86144 -1.28669 0
M  V30 466 H 40.0437 -4.83904 -0.310561 0
M  V30 467 N 41.3868 0.248026 -1.55636 0
M  V30 468 C 42.3338 1.30707 -1.90222 0
M  V30 469 C 43.3038 1.47881 -0.756332 0
M  V30 470 O 44.4888 1.61883 -1.00988 0
M  V30 471 C 41.6288 2.65769 -2.20138 0
M  V30 472 C 40.7418 2.56612 -3.47526 0
M  V30 473 C 39.8768 3.8402 -3.67017 0
M  V30 474 C 38.9158 3.69476 -4.8801 0
M  V30 475 N 38.0528 4.88774 -5.04029 0
M  V30 476 H 42.8928 1.00512 -2.80538 0
M  V30 477 H 40.4298 0.485055 -1.38873 0
M  V30 478 H 42.3878 3.44386 -2.35487 0
M  V30 479 H 41.0178 2.94115 -1.33027 0
M  V30 480 H 40.0698 1.69571 -3.40514 0
M  V30 481 H 41.3818 2.41774 -4.36287 0
M  V30 482 H 40.5358 4.7108 -3.8232 0
M  V30 483 H 39.2748 4.01754 -2.76487 0
M  V30 484 H 38.2798 2.80799 -4.72686 0
M  V30 485 H 39.5048 3.53238 -5.8 0
M  V30 486 H 37.4508 5.0687 -4.16435 0
M  V30 487 H 37.3678 4.76562 -5.86877 0
M  V30 488 H 38.6358 5.77335 -5.23741 0
M  V30 489 N 42.8649 1.48995 0.513639 0
M  V30 490 C 43.8129 1.65199 1.63744 0
M  V30 491 C 44.8069 0.51809 1.61283 0
M  V30 492 O 46.0129 0.697335 1.65943 0
M  V30 493 H 42.3879 0.52069 0.542574 0
M  V30 494 H 44.3589 2.59552 1.47226 0
M  V30 495 C 43.1079 1.72409 3.01945 0
M  V30 496 H 42.4309 2.59029 3.04539 0
M  V30 497 H 43.8709 1.87785 3.80148 0
M  V30 498 C 42.3299 0.46618 3.33659 0
M  V30 499 O 42.8599 -0.413744 3.99564 0
M  V30 500 N 41.0659 0.332931 2.88687 0
M  V30 501 H 40.6129 1.04996 2.35231 0
M  V30 502 H 40.5709 -0.507665 3.10274 0
M  V30 503 N 44.343 -0.763751 1.37857 0
M  V30 504 C 45.592 -1.51789 1.32827 0
M  V30 505 C 45.905 -1.95426 -0.0823719 0
M  V30 506 O 47.111 -2.70298 -0.255172 0
M  V30 507 C 45.567 -2.74133 2.33193 0
M  V30 508 C 45.175 -2.37562 3.79827 0
M  V30 509 C 46.919 -3.52054 2.37188 0
M  V30 510 C 44.826 -3.56456 4.71904 0
M  V30 511 H 43.756 -0.569896 0.493695 0
M  V30 512 H 46.407 -0.835822 1.63359 0
M  V30 513 H 44.789 -3.4427 1.9569 0
M  V30 514 H 45.963 -1.75157 4.26212 0
M  V30 515 H 44.278 -1.72798 3.78853 0
M  V30 516 H 46.875 -4.40437 3.03182 0
M  V30 517 H 47.218 -3.92486 1.38782 0
M  V30 518 H 47.751 -2.88921 2.7344 0
M  V30 519 H 44.49 -3.21099 5.71468 0
M  V30 520 H 44.01 -4.17938 4.30218 0
M  V30 521 H 45.689 -4.23168 4.89426 0
M  V30 522 N 45.8211 -1.22559 -0.990812 0
M  V30 523 C 46.7511 -1.0218 -2.09956 0
M  V30 524 C 47.7321 0.0579394 -1.70001 0
M  V30 525 O 48.9171 -0.104684 -1.93918 0
M  V30 526 C 46.0471 -0.601023 -3.4206 0
M  V30 527 C 45.0011 -1.62694 -3.95872 0
M  V30 528 C 44.3271 -1.06193 -5.24049 0
M  V30 529 C 45.6271 -3.01743 -4.2632 0
M  V30 530 H 47.3211 -1.94916 -2.27262 0
M  V30 531 H 44.8671 -0.938566 -1.09211 0
M  V30 532 H 46.8201 -0.445561 -4.19038 0
M  V30 533 H 45.5441 0.362005 -3.24588 0
M  V30 534 H 44.2031 -1.77021 -3.21028 0
M  V30 535 H 43.8511 -0.0901903 -5.02919 0
M  V30 536 H 43.5511 -1.74732 -5.61019 0
M  V30 537 H 45.0751 -0.918092 -6.03658 0
M  V30 538 H 46.4891 -2.90777 -4.94087 0
M  V30 539 H 44.8861 -3.67425 -4.74467 0
M  V30 540 H 45.9561 -3.51518 -3.34011 0
M  V30 541 N 47.2992 1.18797 -1.03562 0
M  V30 542 C 48.2092 2.25913 -0.632505 0
M  V30 543 C 49.2252 1.70668 0.338882 0
M  V30 544 O 50.4012 2.00453 0.195076 0
M  V30 545 C 47.4662 3.467 0.00350942 0
M  V30 546 C 46.5272 4.17098 -1.01624 0
M  V30 547 C 45.7602 5.32119 -0.410478 0
M  V30 548 O 45.9832 5.64976 0.784725 0
M  V30 549 O 44.9172 5.9107 -1.13667 0
M  V30 550 H 48.7432 2.62648 -1.52478 0
M  V30 551 H 46.3282 1.25781 -0.806195 0
M  V30 552 H 48.2102 4.19878 0.35781 0
M  V30 553 H 46.8852 3.11798 0.869686 0
M  V30 554 H 45.7922 3.4601 -1.42224 0
M  V30 555 H 47.1252 4.55987 -1.85301 0
M  V30 556 N 48.7773 0.814389 1.34928 0
M  V30 557 C 49.7093 0.187834 2.28429 0
M  V30 558 C 50.7223 -0.617374 1.5064 0
M  V30 559 O 51.9113 -0.448454 1.72775 0
M  V30 560 C 49.0113 -0.755962 3.30361 0
M  V30 561 C 48.1843 0.00456686 4.374 0
M  V30 562 C 47.2433 -0.858876 5.19143 0
M  V30 563 O 46.2693 -0.306968 5.68372 0
M  V30 564 N 47.4713 -2.17988 5.38016 0
M  V30 565 H 50.2363 0.991105 2.82838 0
M  V30 566 H 47.7973 0.670561 1.4736 0
M  V30 567 H 49.7893 -1.338 3.81942 0
M  V30 568 H 48.3593 -1.46001 2.7641 0
M  V30 569 H 47.5793 0.767865 3.86649 0
M  V30 570 H 48.8673 0.528422 5.06049 0
M  V30 571 H 48.2653 -2.65212 4.99679 0
M  V30 572 H 46.8223 -2.71098 5.92747 0
M  V30 573 N 50.2554 -1.46986 0.568584 0
M  V30 574 C 51.1654 -2.33942 -0.17555 0
M  V30 575 C 52.1814 -1.48891 -0.90041 0
M  V30 576 O 53.3574 -1.81794 -0.86676 0
M  V30 577 C 50.4224 -3.25811 -1.18524 0
M  V30 578 C 49.4834 -4.26757 -0.466582 0
M  V30 579 C 48.7164 -5.14236 -1.42817 0
M  V30 580 O 48.9394 -5.04379 -2.66379 0
M  V30 581 O 47.8734 -5.94412 -0.946453 0
M  V30 582 H 51.6994 -2.98896 0.538036 0
M  V30 583 H 49.2844 -1.4573 0.329097 0
M  V30 584 H 51.1664 -3.82527 -1.76779 0
M  V30 585 H 49.8414 -2.63471 -1.88055 0
M  V30 586 H 48.7484 -3.73769 0.157451 0
M  V30 587 H 50.0814 -4.91843 0.187485 0
M  V30 588 N 51.7335 -0.305618 -1.54608 0
M  V30 589 C 52.9805 0.302298 -2.00231 0
M  V30 590 C 53.3085 1.5354 -1.19398 0
M  V30 591 O 52.5635 1.93973 -0.259423 0
M  V30 592 C 52.8625 0.698983 -3.50498 0
M  V30 593 C 52.5285 -0.432903 -4.48817 0
M  V30 594 C 51.1905 -0.743622 -4.75419 0
M  V30 595 C 53.5425 -1.19409 -5.07337 0
M  V30 596 C 50.8705 -1.81857 -5.57804 0
M  V30 597 C 53.2225 -2.25899 -5.90891 0
M  V30 598 C 51.8865 -2.57572 -6.15803 0
M  V30 599 H 51.1565 0.110619 -0.732697 0
M  V30 600 H 53.8035 -0.425674 -1.86709 0
M  V30 601 H 52.1085 1.50711 -3.61654 0
M  V30 602 H 53.8055 1.1806 -3.83227 0
M  V30 603 H 50.3955 -0.18063 -4.28219 0
M  V30 604 H 54.5795 -0.967295 -4.86782 0
M  V30 605 H 49.8355 -2.06864 -5.75341 0
M  V30 606 H 54.0095 -2.85335 -6.35261 0
M  V30 607 H 51.6365 -3.40998 -6.7943 0
M  V30 608 N 53.2116 1.57565 -0.0334293 0
M  V30 609 C 54.1436 2.0739 0.975811 0
M  V30 610 C 55.1566 0.998166 1.2861 0
M  V30 611 O 56.3456 1.27426 1.25 0
M  V30 612 C 53.4456 2.4871 2.30209 0
M  V30 613 C 52.6186 3.79413 2.17634 0
M  V30 614 C 51.6776 4.07237 3.33233 0
M  V30 615 O 50.7036 4.77425 3.09927 0
M  V30 616 N 51.9056 3.5775 4.5716 0
M  V30 617 H 54.6706 2.94598 0.55066 0
M  V30 618 H 52.2316 1.61173 0.15323 0
M  V30 619 H 54.2236 2.64413 3.06378 0
M  V30 620 H 52.7936 1.66845 2.64351 0
M  V30 621 H 52.0136 3.73465 1.26165 0
M  V30 622 H 53.3016 4.65038 2.0644 0
M  V30 623 H 52.6996 3.00976 4.78989 0
M  V30 624 H 51.2566 3.78724 5.30482 0
M  V30 625 N 54.6897 -0.239769 1.55765 0
M  V30 626 C 55.9377 -0.964892 1.77579 0
M  V30 627 C 56.2587 -1.85582 0.598699 0
M  V30 628 O 55.5287 -1.92075 -0.385226 0
M  V30 629 H 54.1087 -0.359265 0.654933 0
M  V30 630 H 56.7707 -0.256001 1.93211 0
M  V30 631 H 55.8667 -1.58243 2.69009 0
M  V30 632 N 56.1678 -1.49265 -0.50573 0
M  V30 633 C 57.4138 -1.58748 -1.26202 0
M  V30 634 C 57.7468 -0.271227 -1.92297 0
M  V30 635 O 57.0218 0.724831 -1.80489 0
M  V30 636 C 57.3048 -2.74332 -2.33268 0
M  V30 637 C 57.1578 -4.15737 -1.71705 0
M  V30 638 C 58.4768 -2.85576 -3.34865 0
M  V30 639 H 55.5958 -0.577826 -0.457478 0
M  V30 640 H 58.2378 -1.81532 -0.560897 0
M  V30 641 H 56.3878 -2.55036 -2.93068 0
M  V30 642 H 58.0598 -4.46537 -1.15769 0
M  V30 643 H 56.3028 -4.21605 -1.02135 0
M  V30 644 H 56.9738 -4.92477 -2.49341 0
M  V30 645 H 59.4498 -3.03127 -2.8505 0
M  V30 646 H 58.3258 -3.68135 -4.07146 0
M  V30 647 H 58.5868 -1.94732 -3.96903 0
M  V30 648 N 57.6459 0.756429 -1.3826 0
M  V30 649 C 58.8759 1.54341 -1.3734 0
M  V30 650 C 59.2839 1.89159 0.0393917 0
M  V30 651 O 58.6269 1.5307 1.01565 0
M  V30 652 C 58.6889 2.87238 -2.16182 0
M  V30 653 C 58.3529 2.74973 -3.65019 0
M  V30 654 C 59.3499 2.44962 -4.58574 0
M  V30 655 C 57.0349 2.92515 -4.08338 0
M  V30 656 C 59.0289 2.32642 -5.93428 0
M  V30 657 C 56.7159 2.79815 -5.43274 0
M  V30 658 C 57.7139 2.49921 -6.35632 0
M  V30 659 O 57.4019 2.37275 -7.68086 0
M  V30 660 H 57.1339 0.484281 -0.471643 0
M  V30 661 H 59.6879 0.944152 -1.82414 0
M  V30 662 H 57.9179 3.49342 -1.65822 0
M  V30 663 H 59.6069 3.48731 -2.07705 0
M  V30 664 H 60.3729 2.31081 -4.26412 0
M  V30 665 H 56.2519 3.14781 -3.368 0
M  V30 666 H 59.7959 2.0923 -6.65484 0
M  V30 667 H 55.6929 2.93269 -5.75034 0
M  V30 668 H 56.4609 2.52509 -7.78577 0
M  V30 669 N 59.124 1.23083 0.984299 0
M  V30 670 C 60.087 1.00979 2.05757 0
M  V30 671 C 61.087 -0.0269573 1.60777 0
M  V30 672 O 62.277 0.212403 1.729 0
M  V30 673 C 59.409 0.527072 3.36801 0
M  V30 674 H 60.602 1.9622 2.26799 0
M  V30 675 H 58.155 1.05072 1.15714 0
M  V30 676 H 58.89 -0.429294 3.21446 0
M  V30 677 H 58.675 1.27515 3.70786 0
M  V30 678 H 60.165 0.392942 4.15747 0
M  V30 679 N 60.6021 -1.18246 1.0419 0
M  V30 680 C 61.5321 -2.24127 0.654914 0
M  V30 681 C 62.5131 -1.66617 -0.342451 0
M  V30 682 O 63.6981 -1.92924 -0.222277 0
M  V30 683 C 60.8281 -3.47295 0.0183757 0
M  V30 684 C 59.7821 -4.17563 0.939414 0
M  V30 685 C 59.1081 -5.34438 0.167286 0
M  V30 686 C 60.4081 -4.70917 2.25908 0
M  V30 687 H 62.1021 -2.56753 1.54007 0
M  V30 688 H 59.6481 -1.23414 0.74195 0
M  V30 689 H 61.6011 -4.20572 -0.264082 0
M  V30 690 H 60.3251 -3.13907 -0.901664 0
M  V30 691 H 58.9841 -3.46186 1.20628 0
M  V30 692 H 58.6321 -4.97298 -0.7552 0
M  V30 693 H 58.3321 -5.82388 0.780901 0
M  V30 694 H 59.8561 -6.10504 -0.108125 0
M  V30 695 H 61.2701 -5.35882 2.03724 0
M  V30 696 H 59.6671 -5.29406 2.82577 0
M  V30 697 H 60.7371 -3.88272 2.9047 0
M  V30 698 N 62.0802 -0.821533 -1.34494 0
M  V30 699 C 63.0272 -0.240397 -2.29545 0
M  V30 700 C 63.9972 0.634031 -1.53523 0
M  V30 701 O 65.1822 0.575966 -1.81899 0
M  V30 702 C 62.3222 0.592869 -3.39969 0
M  V30 703 C 61.4352 -0.30365 -4.30932 0
M  V30 704 C 60.5702 0.539049 -5.28458 0
M  V30 705 C 59.6092 -0.356942 -6.11058 0
M  V30 706 N 58.7462 0.446603 -7.00678 0
M  V30 707 H 63.5862 -1.05632 -2.7865 0
M  V30 708 H 61.1232 -0.532413 -1.37127 0
M  V30 709 H 63.0812 1.09129 -4.02675 0
M  V30 710 H 61.7112 1.37392 -2.92102 0
M  V30 711 H 60.7632 -0.920276 -3.691 0
M  V30 712 H 62.0752 -0.992661 -4.88823 0
M  V30 713 H 61.2292 1.102 -5.96608 0
M  V30 714 H 59.9682 1.26157 -4.71101 0
M  V30 715 H 58.9732 -0.932047 -5.41842 0
M  V30 716 H 60.1982 -1.07755 -6.70497 0
M  V30 717 H 58.1442 1.15282 -6.45791 0
M  V30 718 H 58.0612 -0.184048 -7.55776 0
M  V30 719 H 59.3292 0.992352 -7.73158 0
M  V30 720 N 63.5583 1.46682 -0.576371 0
M  V30 721 C 64.8043 2.02712 -0.0596221 0
M  V30 722 C 65.1373 1.44765 1.29448 0
M  V30 723 O 64.4123 0.610355 1.84675 0
M  V30 724 C 64.6953 3.60098 0.0129503 0
M  V30 725 C 64.5483 4.28441 -1.3696 0
M  V30 726 C 65.8673 4.34224 0.71678 0
M  V30 727 H 62.9863 0.736637 -0.0231407 0
M  V30 728 H 65.6283 1.74898 -0.742351 0
M  V30 729 H 63.7783 3.83926 0.594378 0
M  V30 730 H 65.4503 4.15896 -1.9957 0
M  V30 731 H 63.6933 3.8805 -1.93907 0
M  V30 732 H 64.3643 5.3716 -1.27135 0
M  V30 733 H 66.8403 4.15503 0.222908 0
M  V30 734 H 65.7163 5.43936 0.73657 0
M  V30 735 H 65.9773 4.04823 1.77682 0
M  V30 736 N 65.0364 0.313813 1.54444 0
M  V30 737 C 66.2854 -0.292519 1.99568 0
M  V30 738 C 66.5984 -1.54011 1.20582 0
M  V30 739 O 67.8044 -2.22183 1.56035 0
M  V30 740 C 66.2604 -0.571752 3.55329 0
M  V30 741 C 65.8684 0.658229 4.43138 0
M  V30 742 C 67.6124 -1.13857 4.08946 0
M  V30 743 C 65.5194 0.351439 5.90355 0
M  V30 744 H 64.4494 -0.113079 0.745472 0
M  V30 745 H 67.1004 0.424518 1.78522 0
M  V30 746 H 65.4824 -1.34872 3.72325 0
M  V30 747 H 66.6564 1.43403 4.37918 0
M  V30 748 H 64.9714 1.14458 4.0036 0
M  V30 749 H 67.5684 -1.38257 5.16516 0
M  V30 750 H 67.9114 -2.08489 3.6033 0
M  V30 751 H 68.4444 -0.423015 3.95544 0
M  V30 752 H 65.1834 1.26667 6.43145 0
M  V30 753 H 64.7034 -0.386842 5.98551 0
M  V30 754 H 66.3824 -0.0423134 6.46986 0
M  V30 755 N 66.5145 -1.57545 0.0417849 0
M  V30 756 C 67.7915 -1.83642 -0.673433 0
M  V30 757 C 68.1715 -0.928298 -1.89594 0
M  V30 758 O 67.5195 0.0129955 -2.28496 0
M  V30 759 C 67.7295 -3.33155 -1.03964 0
M  V30 760 C 69.0775 -3.99941 -1.42592 0
M  V30 761 O 70.1015 -3.37725 -1.13226 0
M  V30 762 O 68.9605 -5.09619 -1.9736 0
M  V30 763 H 66.0545 -0.757638 -0.331533 0
M  V30 764 H 68.6005 -1.69554 0.070433 0
M  V30 765 H 67.3725 -3.9093 -0.170098 0
M  V30 766 H 66.9955 -3.52396 -1.84126 0
M  V30 767 N 67.9926 0.231505 -1.5589 0
M  V30 768 C 69.2386 0.95877 -1.78705 0
M  V30 769 C 69.5716 1.8438 -0.609725 0
M  V30 770 O 68.8466 1.90521 0.391426 0
M  V30 771 C 69.1296 1.8062 -3.11526 0
M  V30 772 C 68.9826 0.948328 -4.39689 0
M  V30 773 C 70.3016 2.78585 -3.40703 0
M  V30 774 H 67.4206 0.347129 -0.650131 0
M  V30 775 H 70.0626 0.228259 -1.88624 0
M  V30 776 H 68.2126 2.42902 -3.03201 0
M  V30 777 H 69.8846 0.343016 -4.60023 0
M  V30 778 H 68.1276 0.253314 -4.3306 0
M  V30 779 H 68.7986 1.57543 -5.29041 0
M  V30 780 H 71.2746 2.26439 -3.49091 0
M  V30 781 H 70.1506 3.34988 -4.34826 0
M  V30 782 H 70.4116 3.55825 -2.62375 0
M  V30 783 N 69.4707 1.49531 0.497807 0
M  V30 784 C 70.4007 1.6935 1.60757 0
M  V30 785 C 71.3817 0.542218 1.61227 0
M  V30 786 O 72.5667 0.778417 1.77917 0
M  V30 787 C 69.6967 1.76298 2.99226 0
M  V30 788 C 68.6507 2.91248 3.13622 0
M  V30 789 C 67.9767 2.83312 4.53474 0
M  V30 790 C 69.2767 4.3214 2.93346 0
M  V30 791 H 70.9707 2.62263 1.44425 0
M  V30 792 H 68.5167 1.26208 0.693367 0
M  V30 793 H 70.4697 1.88749 3.76765 0
M  V30 794 H 69.1937 0.799871 3.16654 0
M  V30 795 H 67.8527 2.78404 2.38509 0
M  V30 796 H 67.5007 1.84902 4.67782 0
M  V30 797 H 67.2007 3.60465 4.64046 0
M  V30 798 H 68.7247 2.97775 5.33069 0
M  V30 799 H 70.1387 4.45649 3.60652 0
M  V30 800 H 68.5357 5.1054 3.15387 0
M  V30 801 H 69.6057 4.46363 1.89441 0
M  V30 802 N 70.9488 -0.749086 1.3866 0
M  V30 803 C 71.8958 -1.86291 1.36251 0
M  V30 804 C 72.8658 -1.64578 0.224347 0
M  V30 805 O 74.0508 -1.86181 0.417279 0
M  V30 806 C 71.1908 -3.23644 1.19786 0
M  V30 807 C 70.3038 -3.57158 2.43027 0
M  V30 808 C 69.4388 -4.83838 2.19258 0
M  V30 809 C 68.4778 -5.10152 3.38247 0
M  V30 810 N 67.6148 -6.28029 3.13884 0
M  V30 811 H 72.4548 -1.87685 2.3147 0
M  V30 812 H 69.9918 -0.917287 1.14997 0
M  V30 813 H 71.9498 -4.0291 1.08254 0
M  V30 814 H 70.5798 -3.21566 0.282031 0
M  V30 815 H 69.6318 -2.72701 2.65214 0
M  V30 816 H 70.9438 -3.7253 3.31697 0
M  V30 817 H 70.0978 -5.71057 2.04888 0
M  V30 818 H 68.8368 -4.70614 1.2796 0
M  V30 819 H 67.8418 -4.21401 3.53131 0
M  V30 820 H 69.0668 -5.25271 4.30427 0
M  V30 821 H 67.0128 -6.1612 2.25238 0
M  V30 822 H 66.9298 -6.43922 3.96106 0
M  V30 823 H 68.1978 -7.18124 3.03179 0
M  V30 824 N 72.4269 -1.23603 -0.977757 0
M  V30 825 C 73.3749 -1.01704 -2.09187 0
M  V30 826 C 74.3689 0.0448214 -1.69341 0
M  V30 827 O 75.5749 -0.108902 -1.7967 0
M  V30 828 H 71.9499 -0.311803 -0.684312 0
M  V30 829 H 73.9209 -1.96207 -2.24823 0
M  V30 830 C 72.6699 -0.627746 -3.41986 0
M  V30 831 H 71.9929 -1.43656 -3.73099 0
M  V30 832 H 73.4329 -0.514053 -4.20872 0
M  V30 833 C 71.8919 0.664238 -3.30287 0
M  V30 834 O 72.4219 1.71268 -3.6336 0
M  V30 835 N 70.6279 0.641156 -2.83439 0
M  V30 836 H 70.1749 -0.212376 -2.56723 0
M  V30 837 H 70.1329 1.50583 -2.75993 0
M  V30 838 N 73.905 1.17692 -1.04816 0
M  V30 839 C 75.316 1.69501 -0.782698 0
M  V30 840 C 75.667 1.83456 0.695577 0
M  V30 841 O 74.792 1.51942 1.54086 0
M  V30 842 C 75.387 3.07874 -1.41419 0
M  V30 843 C 73.946 3.56864 -1.19686 0
M  V30 844 C 73.093 2.3322 -1.50012 0
M  V30 845 H 76.044 1.02262 -1.2136 0
M  V30 846 H 76.065 3.71528 -0.821428 0
M  V30 847 H 75.577 2.97685 -2.49009 0
M  V30 848 H 73.678 3.72337 -0.140043 0
M  V30 849 H 73.791 4.39851 -1.89916 0
M  V30 850 H 72.155 2.37501 -0.920071 0
M  V30 851 H 72.938 2.25644 -2.58727 0
M  V30 852 N 75.3831 0.828654 1.34056 0
M  V30 853 C 76.3151 0.212052 2.28217 0
M  V30 854 C 77.3281 -0.601362 1.51286 0
M  V30 855 O 78.5171 -0.430104 1.73241 0
M  V30 856 C 75.6171 -0.72088 3.31144 0
M  V30 857 C 74.7901 0.0509587 4.3737 0
M  V30 858 C 73.8491 -0.803766 5.20025 0
M  V30 859 O 72.8751 -0.246667 5.68665 0
M  V30 860 N 74.0771 -2.1227 5.40298 0
M  V30 861 H 76.8421 1.02105 2.81771 0
M  V30 862 H 74.4031 0.686153 1.46641 0
M  V30 863 H 76.3951 -1.29742 3.8334 0
M  V30 864 H 74.9651 -1.43061 2.77943 0
M  V30 865 H 74.1851 0.808831 3.85813 0
M  V30 866 H 75.4731 0.582065 5.0546 0
M  V30 867 H 74.8711 -2.59898 5.02464 0
M  V30 868 H 73.4281 -2.64796 5.95589 0
M  V30 869 N 76.8612 -1.46375 0.584142 0
M  V30 870 C 77.7912 -2.33103 -0.136037 0
M  V30 871 C 78.7722 -1.45431 -0.882255 0
M  V30 872 O 79.9572 -1.74246 -0.857434 0
M  V30 873 C 77.0872 -3.27731 -1.14933 0
M  V30 874 C 76.0412 -4.24855 -0.517862 0
M  V30 875 C 75.3672 -5.09001 -1.63773 0
M  V30 876 C 76.6672 -5.19439 0.545886 0
M  V30 877 H 78.3612 -2.93568 0.588086 0
M  V30 878 H 75.9072 -1.41166 0.284259 0
M  V30 879 H 77.8602 -3.87261 -1.66153 0
M  V30 880 H 76.5842 -2.65377 -1.90375 0
M  V30 881 H 75.2432 -3.6659 -0.0267361 0
M  V30 882 H 74.8912 -4.43031 -2.38185 0
M  V30 883 H 74.5912 -5.74777 -1.22085 0
M  V30 884 H 76.1152 -5.71396 -2.15266 0
M  V30 885 H 77.5292 -5.73177 0.118704 0
M  V30 886 H 75.9262 -5.93566 0.88317 0
M  V30 887 H 76.9962 -4.63285 1.43162 0
M  V30 888 N 78.3393 -0.321999 -1.54275 0
M  V30 889 C 79.3023 0.531975 -2.22941 0
M  V30 890 C 80.3023 1.04478 -1.22234 0
M  V30 891 O 81.4923 0.937452 -1.46825 0
M  V30 892 C 78.6243 1.73874 -2.93224 0
M  V30 893 H 79.8173 -0.0682612 -2.99822 0
M  V30 894 H 77.3703 -0.0730644 -1.56129 0
M  V30 895 H 78.1053 2.37825 -2.20476 0
M  V30 896 H 77.8903 1.37847 -3.6707 0
M  V30 897 H 79.3803 2.34496 -3.45545 0
M  V30 898 N 79.8174 1.5752 -0.0501392 0
M  V30 899 C 80.7274 2.14952 0.939827 0
M  V30 900 C 81.7434 1.10706 1.34239 0
M  V30 901 O 82.9194 1.42869 1.41952 0
M  V30 902 C 79.9844 2.68232 2.19665 0
M  V30 903 C 79.0454 3.87272 1.85253 0
M  V30 904 C 78.2784 4.38002 3.04943 0
M  V30 905 O 78.5014 3.87811 4.18281 0
M  V30 906 O 77.4354 5.29602 2.86017 0
M  V30 907 H 81.2614 2.9986 0.481392 0
M  V30 908 H 78.8464 1.4841 0.171699 0
M  V30 909 H 80.7284 3.02475 2.93406 0
M  V30 910 H 79.4034 1.86395 2.64648 0
M  V30 911 H 78.3104 3.5792 1.0883 0
M  V30 912 H 79.6434 4.70336 1.4507 0
M  V30 913 N 81.2955 -0.223234 1.56011 0
M  V30 914 C 82.2055 -1.29766 1.95443 0
M  V30 915 C 83.2215 -1.51373 0.858028 0
M  V30 916 O 84.3975 -1.64536 1.16146 0
M  V30 917 C 81.4625 -2.62772 2.26167 0
M  V30 918 C 80.5235 -2.49482 3.49367 0
M  V30 919 C 79.7565 -3.76145 3.78616 0
M  V30 920 O 79.9795 -4.79087 3.09568 0
M  V30 921 O 78.9135 -3.73358 4.72109 0
M  V30 922 H 82.7395 -0.99309 2.87004 0
M  V30 923 H 80.3245 -0.425958 1.43199 0
M  V30 924 H 82.2065 -3.41327 2.47131 0
M  V30 925 H 80.8815 -2.92913 1.37781 0
M  V30 926 H 79.7885 -1.69133 3.33684 0
M  V30 927 H 81.1215 -2.2428 4.38131 0
M  V30 928 N 82.7736 -1.49793 -0.48987 0
M  V30 929 C 84.0506 -1.50348 -1.25119 0
M  V30 930 C 84.4306 -0.237466 -2.0976 0
M  V30 931 O 83.7786 0.77981 -2.14782 0
M  V30 932 C 83.9886 -2.78872 -2.09837 0
M  V30 933 C 85.3366 -3.288 -2.68655 0
M  V30 934 O 86.3606 -2.80065 -2.20096 0
M  V30 935 O 85.2196 -4.13707 -3.57083 0
M  V30 936 H 82.3136 -0.602242 -0.566775 0
M  V30 937 H 84.8596 -1.62067 -0.503229 0
M  V30 938 H 83.6316 -3.62499 -1.47343 0
M  V30 939 H 83.2546 -2.70066 -2.91805 0
M  V30 940 N 84.2517 0.741722 -1.39055 0
M  V30 941 C 85.1987 1.85566 -1.37237 0
M  V30 942 C 86.1687 1.64457 -0.233072 0
M  V30 943 O 87.3537 1.85957 -0.427147 0
M  V30 944 C 84.4937 3.23004 -1.215 0
M  V30 945 C 83.6067 3.55864 -2.44918 0
M  V30 946 C 82.7417 4.82669 -2.21821 0
M  V30 947 C 81.7807 5.08351 -3.40948 0
M  V30 948 N 80.9177 6.26356 -3.17211 0
M  V30 949 H 85.7577 1.86455 -2.32462 0
M  V30 950 H 83.2947 0.911176 -1.15482 0
M  V30 951 H 85.2527 4.02331 -1.10389 0
M  V30 952 H 83.8827 3.21411 -0.29908 0
M  V30 953 H 82.9347 2.7129 -2.66657 0
M  V30 954 H 84.2467 3.70765 -3.33668 0
M  V30 955 H 83.4007 5.69962 -2.07914 0
M  V30 956 H 82.1397 4.69929 -1.30454 0
M  V30 957 H 81.1447 4.19522 -3.55361 0
M  V30 958 H 82.3697 5.22981 -4.33207 0
M  V30 959 H 80.3157 6.14917 -2.28502 0
M  V30 960 H 80.2327 6.41813 -3.99515 0
M  V30 961 H 81.5007 7.16506 -3.06984 0
M  V30 962 N 85.7298 1.2412 0.971189 0
M  V30 963 C 86.9788 1.07284 1.70801 0
M  V30 964 C 87.2918 -0.388902 1.91695 0
M  V30 965 O 88.4978 -0.677379 2.62914 0
M  V30 966 C 86.9538 1.87145 3.07416 0
M  V30 967 C 86.5618 3.37707 2.94377 0
M  V30 968 C 88.3058 1.78828 3.84995 0
M  V30 969 C 86.2128 4.09925 4.26281 0
M  V30 970 H 85.1428 0.397854 0.64049 0
M  V30 971 H 87.7938 1.4817 1.0825 0
M  V30 972 H 86.1758 1.39071 3.70777 0
M  V30 973 H 87.3498 3.93335 2.4005 0
M  V30 974 H 85.6648 3.46938 2.30267 0
M  V30 975 H 88.2618 2.30089 4.82662 0
M  V30 976 H 88.6048 0.75284 4.09436 0
M  V30 977 H 89.1378 2.24563 3.28354 0
M  V30 978 H 85.8768 5.13813 4.07033 0
M  V30 979 H 85.3968 3.59083 4.80437 0
M  V30 980 H 87.0758 4.1673 4.94919 0
M  V30 981 N 87.2079 -1.17134 1.05439 0
M  V30 982 C 88.1379 -2.2342 0.678649 0
M  V30 983 C 89.1189 -1.66971 -0.32476 0
M  V30 984 O 90.3039 -1.93149 -0.201802 0
M  V30 985 C 87.4339 -3.47256 0.0552099 0
M  V30 986 C 86.3879 -4.16543 0.98365 0
M  V30 987 C 85.7139 -5.34231 0.223961 0
M  V30 988 C 87.0139 -4.68495 2.3089 0
M  V30 989 H 88.7079 -2.55105 1.56722 0
M  V30 990 H 86.2539 -1.2262 0.754998 0
M  V30 991 H 88.2069 -4.20828 -0.21946 0
M  V30 992 H 86.9309 -3.14846 -0.868319 0
M  V30 993 H 85.5899 -3.44887 1.24293 0
M  V30 994 H 85.2379 -4.98071 -0.702412 0
M  V30 995 H 84.9379 -5.81527 0.842627 0
M  V30 996 H 86.4619 -6.10585 -0.0433671 0
M  V30 997 H 87.8759 -5.33691 2.09396 0
M  V30 998 H 86.2729 -5.26379 2.88176 0
M  V30 999 H 87.3429 -3.85169 2.94572 0
M  V30 1000 N 88.686 -0.835752 -1.33615 0
M  V30 1001 C 89.649 -0.272 -2.2758 0
M  V30 1002 C 90.649 0.557487 -1.50827 0
M  V30 1003 O 91.839 0.37173 -1.70188 0
M  V30 1004 C 88.971 0.617173 -3.35267 0
M  V30 1005 H 90.164 -1.10111 -2.78954 0
M  V30 1006 H 87.717 -0.608594 -1.43965 0
M  V30 1007 H 88.452 1.46884 -2.89129 0
M  V30 1008 H 88.237 0.0237066 -3.92093 0
M  V30 1009 H 89.727 1.005 -4.05326 0
M  V30 1010 N 90.1641 1.46063 -0.591896 0
M  V30 1011 C 91.3921 2.06717 -0.0868936 0
M  V30 1012 C 91.8071 1.43916 1.22203 0
M  V30 1013 O 91.1641 0.547698 1.74088 0
M  V30 1014 C 91.2151 3.6142 0.0758725 0
M  V30 1015 O 90.9361 4.21874 -1.18126 0
M  V30 1016 C 92.4371 4.39025 0.61416 0
M  V30 1017 H 89.6571 0.668162 -0.0616518 0
M  V30 1018 H 92.2011 1.8755 -0.815175 0
M  V30 1019 H 90.3561 3.79983 0.754413 0
M  V30 1020 H 90.7701 5.14861 -1.00092 0
M  V30 1021 H 92.2441 5.4783 0.677193 0
M  V30 1022 H 92.7211 4.07708 1.63312 0
M  V30 1023 H 93.3271 4.2529 -0.0298142 0
M  V30 1024 N 91.6422 0.330177 1.54103 0
M  V30 1025 C 93.0532 -0.15652 1.86043 0
M  V30 1026 C 93.4042 -1.51086 1.2517 0
M  V30 1027 O 92.5292 -2.09023 0.560217 0
M  V30 1028 C 93.1242 -0.290784 3.3755 0
M  V30 1029 C 91.6832 -0.721705 3.69416 0
M  V30 1030 C 90.8302 0.152622 2.7688 0
M  V30 1031 H 93.7812 0.550237 1.48856 0
M  V30 1032 H 93.8022 -1.12058 3.63625 0
M  V30 1033 H 93.3142 0.695068 3.81825 0
M  V30 1034 H 91.4152 -1.71706 3.30678 0
M  V30 1035 H 91.5282 -0.520869 4.7626 0
M  V30 1036 H 89.8922 -0.372894 2.51956 0
M  V30 1037 H 90.6752 1.13536 3.23982 0
M  V30 1038 N 93.1203 -1.57491 0.0584922 0
M  V30 1039 C 94.3483 -1.97296 -0.623037 0
M  V30 1040 C 94.7633 -0.936338 -1.63946 0
M  V30 1041 O 94.1203 0.0785981 -1.82331 0
M  V30 1042 C 94.1713 -3.37183 -1.30345 0
M  V30 1043 O 93.8923 -4.36872 -0.32773 0
M  V30 1044 C 95.3933 -3.91788 -2.07406 0
M  V30 1045 H 92.6133 -0.649153 -0.169826 0
M  V30 1046 H 95.1573 -2.04106 0.12696 0
M  V30 1047 H 93.3123 -3.31502 -2.00463 0
M  V30 1048 H 93.7263 -5.18141 -0.814269 0
M  V30 1049 H 95.2003 -4.91926 -2.50425 0
M  V30 1050 H 95.6773 -3.27609 -2.92521 0
M  V30 1051 H 96.2833 -4.00829 -1.42184 0
M  V30 1052 N 94.5984 0.214957 -1.56127 0
M  V30 1053 C 95.5284 1.2695 -1.95974 0
M  V30 1054 C 96.5094 1.48539 -0.828868 0
M  V30 1055 O 97.6944 1.60611 -1.09168 0
M  V30 1056 C 94.8244 2.61794 -2.28214 0
M  V30 1057 C 93.7784 2.54851 -3.43853 0
M  V30 1058 C 93.1044 3.93785 -3.61715 0
M  V30 1059 C 94.4044 2.09065 -4.78632 0
M  V30 1060 H 96.0984 0.93846 -2.84312 0
M  V30 1061 H 93.6444 0.449996 -1.36788 0
M  V30 1062 H 95.5974 3.35731 -2.54682 0
M  V30 1063 H 94.3214 2.96599 -1.36736 0
M  V30 1064 H 92.9804 1.8337 -3.17444 0
M  V30 1065 H 92.6284 4.25908 -2.67602 0
M  V30 1066 H 92.3284 3.90019 -4.39498 0
M  V30 1067 H 93.8524 4.69374 -3.90539 0
M  V30 1068 H 95.2664 2.7275 -5.04262 0
M  V30 1069 H 93.6634 2.16346 -5.59745 0
M  V30 1070 H 94.7334 1.04315 -4.73547 0
M  V30 1071 N 96.0765 1.50051 0.48192 0
M  V30 1072 C 97.0395 1.67584 1.5636 0
M  V30 1073 C 98.0395 0.546894 1.51214 0
M  V30 1074 O 99.2295 0.813725 1.54026 0
M  V30 1075 C 96.3615 1.691 2.96003 0
M  V30 1076 H 97.5545 2.64078 1.42136 0
M  V30 1077 H 95.1075 1.39369 0.707533 0
M  V30 1078 H 95.8425 0.742589 3.15684 0
M  V30 1079 H 95.6275 2.51105 3.01146 0
M  V30 1080 H 97.1175 1.84656 3.74556 0
M  V30 1081 N 97.5546 -0.734337 1.39446 0
M  V30 1082 C 98.5016 -1.84835 1.38219 0
M  V30 1083 C 99.4716 -1.64331 0.24179 0
M  V30 1084 O 100.657 -1.85728 0.437002 0
M  V30 1085 C 97.7966 -3.22355 1.23212 0
M  V30 1086 C 96.9096 -3.5456 2.46801 0
M  V30 1087 C 96.0446 -4.81485 2.24377 0
M  V30 1088 C 95.0836 -5.06536 3.43639 0
M  V30 1089 N 94.2206 -6.24665 3.20528 0
M  V30 1090 H 99.0606 -1.85219 2.33448 0
M  V30 1091 H 96.5976 -0.905039 1.15963 0
M  V30 1092 H 98.5556 -4.0174 1.12522 0
M  V30 1093 H 97.1856 -3.21248 0.316121 0
M  V30 1094 H 96.2376 -2.69872 2.68092 0
M  V30 1095 H 97.5496 -3.6899 3.3563 0
M  V30 1096 H 96.7036 -5.68852 2.10933 0
M  V30 1097 H 95.4426 -4.6923 1.32944 0
M  V30 1098 H 94.4476 -4.17632 3.5758 0
M  V30 1099 H 95.6726 -5.20676 4.35974 0
M  V30 1100 H 93.6186 -6.13696 2.3176 0
M  V30 1101 H 93.5356 -6.39685 4.02913 0
M  V30 1102 H 94.8036 -7.14868 3.10779 0
M  V30 1103 N 99.0327 -1.24633 -0.964593 0
M  V30 1104 C 100.282 -1.08188 -1.7023 0
M  V30 1105 C 100.595 0.37873 -1.91898 0
M  V30 1106 O 101.801 0.663427 -2.6327 0
M  V30 1107 C 100.257 -1.88773 -3.06419 0
M  V30 1108 C 99.8647 -3.39263 -2.92582 0
M  V30 1109 C 101.609 -1.80867 -3.84041 0
M  V30 1110 C 99.5157 -4.1218 -4.24101 0
M  V30 1111 H 98.4457 -0.401245 -0.638372 0
M  V30 1112 H 101.097 -1.48742 -1.07462 0
M  V30 1113 H 99.4787 -1.41035 -3.70034 0
M  V30 1114 H 100.653 -3.94603 -2.37961 0
M  V30 1115 H 98.9677 -3.48154 -2.28424 0
M  V30 1116 H 101.565 -2.32646 -4.81435 0
M  V30 1117 H 101.908 -0.774543 -4.09031 0
M  V30 1118 H 102.441 -2.26301 -3.27159 0
M  V30 1119 H 99.1797 -5.15965 -4.04303 0
M  V30 1120 H 98.6997 -3.61626 -4.78526 0
M  V30 1121 H 100.379 -4.19349 -4.92702 0
M  V30 1122 N 100.511 1.16574 -1.06058 0
M  V30 1123 C 101.441 2.23057 -0.690488 0
M  V30 1124 C 102.422 1.67141 0.315901 0
M  V30 1125 O 103.607 1.93253 0.191556 0
M  V30 1126 C 100.737 3.47222 -0.073625 0
M  V30 1127 C 99.6908 4.16016 -1.00573 0
M  V30 1128 C 99.0168 5.34104 -0.252289 0
M  V30 1129 C 100.317 4.67264 -2.33371 0
M  V30 1130 H 102.011 2.54271 -1.58072 0
M  V30 1131 H 99.5568 1.22218 -0.76149 0
M  V30 1132 H 101.51 4.20939 0.19714 0
M  V30 1133 H 100.234 3.15302 0.85161 0
M  V30 1134 H 98.8928 3.44223 -1.2612 0
M  V30 1135 H 98.5408 4.98437 0.675988 0
M  V30 1136 H 98.2408 5.81072 -0.873455 0
M  V30 1137 H 99.7648 6.10599 0.0109857 0
M  V30 1138 H 101.179 5.32573 -2.12223 0
M  V30 1139 H 99.5758 5.24843 -2.90963 0
M  V30 1140 H 100.646 3.83602 -2.96611 0
M  V30 1141 N 101.989 0.842826 1.3317 0
M  V30 1142 C 103.4 0.496651 1.79973 0
M  V30 1143 C 103.751 -0.984641 1.69703 0
M  V30 1144 O 102.876 -1.76743 1.24863 0
M  V30 1145 C 103.471 0.894727 3.26772 0
M  V30 1146 C 102.03 0.600629 3.71577 0
M  V30 1147 C 101.177 1.10091 2.5451 0
M  V30 1148 H 104.128 1.03116 1.20635 0
M  V30 1149 H 104.149 0.206347 3.7994 0
M  V30 1150 H 103.661 1.97287 3.34215 0
M  V30 1151 H 101.762 -0.467284 3.69658 0
M  V30 1152 H 101.875 1.15863 4.64879 0
M  V30 1153 H 100.239 0.52162 2.49301 0
M  V30 1154 H 101.022 2.18591 2.64713 0
M  V30 1155 N 103.467 -1.45747 0.599634 0
M  V30 1156 C 104.878 -1.85853 0.177681 0
M  V30 1157 C 105.229 -1.50102 -1.26348 0
M  V30 1158 O 104.354 -0.923905 -1.95686 0
M  V30 1159 C 104.949 -3.37326 0.315688 0
M  V30 1160 C 103.508 -3.76365 -0.0515144 0
M  V30 1161 C 102.655 -2.69722 0.643822 0
M  V30 1162 H 105.606 -1.36661 0.806814 0
M  V30 1163 H 105.627 -3.77778 -0.454321 0
M  V30 1164 H 105.139 -3.63315 1.36468 0
M  V30 1165 H 103.24 -3.55993 -1.09999 0
M  V30 1166 H 103.353 -4.77916 0.336594 0
M  V30 1167 H 101.717 -2.54567 0.0822881 0
M  V30 1168 H 102.5 -2.98549 1.6948 0
M  V30 1169 N 104.945 -0.338344 -1.53925 0
M  V30 1170 C 106.356 0.146651 -1.86123 0
M  V30 1171 C 106.707 1.5042 -1.2597 0
M  V30 1172 O 105.832 2.08723 -0.571294 0
M  V30 1173 C 106.427 0.272879 -3.37699 0
M  V30 1174 C 104.986 0.702103 -3.69794 0
M  V30 1175 C 104.133 -0.167304 -2.76795 0
M  V30 1176 H 107.084 -0.558123 -1.48562 0
M  V30 1177 H 107.105 1.10128 -3.64214 0
M  V30 1178 H 106.617 -0.715307 -3.81451 0
M  V30 1179 H 104.718 1.6995 -3.31584 0
M  V30 1180 H 104.831 0.495604 -4.7653 0
M  V30 1181 H 103.195 0.359527 -2.5215 0
M  V30 1182 H 103.978 -1.15253 -3.23375 0
M  V30 1183 N 106.423 1.57458 -0.0668435 0
M  V30 1184 C 107.669 1.93587 0.6043 0
M  V30 1185 C 108.002 0.946722 1.69561 0
M  V30 1186 O 107.277 -0.0248516 1.94484 0
M  V30 1187 C 107.56 3.40014 1.18585 0
M  V30 1188 C 107.413 4.49685 0.101529 0
M  V30 1189 C 108.732 3.87154 2.09284 0
M  V30 1190 H 105.851 0.703958 0.218202 0
M  V30 1191 H 108.493 1.89542 -0.131804 0
M  V30 1192 H 106.643 3.43592 1.81319 0
M  V30 1193 H 108.315 4.5823 -0.531279 0
M  V30 1194 H 106.558 4.30059 -0.568487 0
M  V30 1195 H 107.229 5.49266 0.54874 0
M  V30 1196 H 109.705 3.85551 1.56491 0
M  V30 1197 H 108.581 4.90231 2.46911 0
M  V30 1198 H 108.842 3.2481 2.99918 0
M  V30 1199 N 107.901 -0.206675 1.56239 0
M  V30 1200 C 109.317 -0.557025 1.49564 0
M  V30 1201 C 109.517 -1.86424 0.764735 0
M  V30 1202 O 108.573 -2.50584 0.310491 0
M  V30 1203 C 109.886 -0.622478 2.94186 0
M  V30 1204 C 111.434 -0.712099 3.04792 0
M  V30 1205 C 111.909 -0.808767 4.50803 0
M  V30 1206 N 113.4 -0.8726 4.54907 0
M  V30 1207 C 114.135 -0.967365 5.65181 0
M  V30 1208 N 113.631 -1.02515 6.85173 0
M  V30 1209 N 115.424 -1.00366 5.53067 0
M  V30 1210 H 107.575 0.650943 2.02179 0
M  V30 1211 H 109.838 0.230387 0.919579 0
M  V30 1212 H 109.544 0.268727 3.50672 0
M  V30 1213 H 109.418 -1.4811 3.46905 0
M  V30 1214 H 111.805 -1.59374 2.48363 0
M  V30 1215 H 111.886 0.172489 2.55218 0
M  V30 1216 H 111.53 0.0684754 5.07854 0
M  V30 1217 H 111.46 -1.70899 4.98098 0
M  V30 1218 H 113.951 -0.837657 3.68499 0
M  V30 1219 H 114.264 -1.09765 7.64965 0
M  V30 1220 H 112.609 -0.994026 6.87855 0
M  V30 1221 H 115.8 -0.95527 4.58249 0
M  V30 1222 H 115.973 -1.07405 6.39037 0
M  V30 1223 N 109.379 -1.50304 -0.473955 0
M  V30 1224 C 110.326 -1.68959 -1.57231 0
M  V30 1225 C 111.296 -0.530899 -1.57387 0
M  V30 1226 O 112.481 -0.761133 -1.74961 0
M  V30 1227 C 109.621 -1.7871 -2.95223 0
M  V30 1228 C 108.734 -3.06061 -3.04878 0
M  V30 1229 C 107.869 -3.06626 -4.33767 0
M  V30 1230 C 106.908 -4.28443 -4.37154 0
M  V30 1231 N 106.045 -4.26763 -5.5751 0
M  V30 1232 H 110.885 -2.6273 -1.40631 0
M  V30 1233 H 108.422 -1.30241 -0.683789 0
M  V30 1234 H 110.38 -1.82344 -3.75242 0
M  V30 1235 H 109.01 -0.883806 -3.10465 0
M  V30 1236 H 108.062 -3.11911 -2.17751 0
M  V30 1237 H 109.374 -3.96039 -3.0324 0
M  V30 1238 H 108.528 -3.08973 -5.22131 0
M  V30 1239 H 107.267 -2.14473 -4.3801 0
M  V30 1240 H 106.272 -4.2631 -3.47188 0
M  V30 1241 H 107.497 -5.2182 -4.34605 0
M  V30 1242 H 105.443 -3.37462 -5.62544 0
M  V30 1243 H 105.36 -5.10507 -5.57601 0
M  V30 1244 H 106.628 -4.33253 -6.48006 0
M  V30 1245 N 110.857 0.726932 -1.39834 0
M  V30 1246 C 112.106 1.48214 -1.36805 0
M  V30 1247 C 112.419 1.95576 0.0305291 0
M  V30 1248 O 113.625 2.7088 0.183417 0
M  V30 1249 C 112.081 2.67854 -2.40379 0
M  V30 1250 C 111.689 2.27408 -3.85992 0
M  V30 1251 C 113.433 3.45641 -2.46439 0
M  V30 1252 C 111.34 3.43819 -4.81189 0
M  V30 1253 H 110.27 0.556606 -0.508631 0
M  V30 1254 H 112.921 0.792216 -1.65518 0
M  V30 1255 H 111.303 3.3896 -2.04749 0
M  V30 1256 H 112.477 1.63795 -4.30706 0
M  V30 1257 H 110.792 1.62692 -3.83302 0
M  V30 1258 H 113.389 4.32244 -3.14753 0
M  V30 1259 H 113.732 3.88669 -1.49139 0
M  V30 1260 H 114.265 2.8157 -2.81004 0
M  V30 1261 H 111.004 3.05834 -5.79781 0
M  V30 1262 H 110.524 4.06385 -4.41148 0
M  V30 1263 H 112.203 4.10043 -5.00474 0
M  V30 1264 N 112.336 1.25143 0.95797 0
M  V30 1265 C 113.585 1.0909 1.69654 0
M  V30 1266 C 113.898 -0.368548 1.92097 0
M  V30 1267 O 115.104 -0.649455 2.63618 0
M  V30 1268 C 113.56 1.90395 3.05414 0
M  V30 1269 C 113.168 3.4081 2.90779 0
M  V30 1270 C 114.912 1.82901 3.83076 0
M  V30 1271 C 112.819 4.14423 4.21909 0
M  V30 1272 H 111.749 0.404625 0.636235 0
M  V30 1273 H 114.4 1.4931 1.06672 0
M  V30 1274 H 112.782 1.42996 3.69281 0
M  V30 1275 H 113.956 3.95859 2.35865 0
M  V30 1276 H 112.271 3.49361 2.26575 0
M  V30 1277 H 114.868 2.35196 4.80195 0
M  V30 1278 H 115.211 0.796224 4.08615 0
M  V30 1279 H 115.744 2.28033 3.25954 0
M  V30 1280 H 112.483 5.18102 4.01561 0
M  V30 1281 H 112.003 3.64159 4.76601 0
M  V30 1282 H 113.682 4.21956 4.90471 0
M  V30 1283 N 113.814 -1.1601 1.06675 0
M  V30 1284 C 115.062 -1.86264 0.784229 0
M  V30 1285 C 115.383 -1.82328 -0.691488 0
M  V30 1286 O 114.653 -1.25947 -1.50047 0
M  V30 1287 H 113.233 -0.689621 0.28711 0
M  V30 1288 H 115.895 -1.40664 1.34906 0
M  V30 1289 H 114.991 -2.91595 1.11259 0
M  V30 1290 N 115.292 -0.849877 -1.32721 0
M  V30 1291 C 116.569 -0.372405 -1.92022 0
M  V30 1292 C 116.949 1.1435 -1.77447 0
M  V30 1293 O 116.297 1.96296 -1.16962 0
M  V30 1294 C 116.507 -0.831482 -3.3895 0
M  V30 1295 C 117.855 -0.845882 -4.16089 0
M  V30 1296 O 118.879 -0.775806 -3.47649 0
M  V30 1297 O 117.738 -0.943753 -5.38289 0
M  V30 1298 H 114.832 -0.107667 -0.819961 0
M  V30 1299 H 117.378 -0.93646 -1.41522 0
M  V30 1300 H 116.15 -1.87448 -3.4348 0
M  V30 1301 H 115.773 -0.24461 -3.96847 0
M  V30 1302 N 116.77 1.45427 -0.607355 0
M  V30 1303 C 117.7 2.3329 0.0989352 0
M  V30 1304 C 118.681 1.46816 0.859007 0
M  V30 1305 O 119.866 1.75588 0.829604 0
M  V30 1306 C 116.996 3.29518 1.09705 0
M  V30 1307 C 115.95 4.25626 0.450206 0
M  V30 1308 C 115.276 5.11542 1.55655 0
M  V30 1309 C 116.576 5.18505 -0.628455 0
M  V30 1310 H 118.27 2.92595 -0.634716 0
M  V30 1311 H 115.816 1.40696 -0.306681 0
M  V30 1312 H 117.769 3.89855 1.59971 0
M  V30 1313 H 116.493 2.68372 1.86129 0
M  V30 1314 H 115.152 3.66586 -0.0315886 0
M  V30 1315 H 114.8 4.46765 2.31107 0
M  V30 1316 H 114.5 5.76647 1.12925 0
M  V30 1317 H 116.024 5.74748 2.06148 0
M  V30 1318 H 117.438 5.72916 -0.209877 0
M  V30 1319 H 115.835 5.92085 -0.977489 0
M  V30 1320 H 116.905 4.60948 -1.50514 0
M  V30 1321 N 118.248 0.346503 1.53744 0
M  V30 1322 C 119.473 -0.253074 2.0585 0
M  V30 1323 C 119.898 -1.43202 1.21962 0
M  V30 1324 O 119.256 -1.79783 0.234073 0
M  V30 1325 C 119.304 -0.643193 3.54817 0
M  V30 1326 O 118.408 -1.74286 3.73762 0
M  V30 1327 H 117.749 -0.0413583 0.662711 0
M  V30 1328 H 120.279 0.501574 1.98357 0
M  V30 1329 H 120.289 -0.919526 3.97503 0
M  V30 1330 H 118.964 0.218966 4.15323 0
M  V30 1331 H 117.541 -1.46356 3.42979 0
M  V30 1332 N 119.726 -1.57421 0.075193 0
M  V30 1333 C 121.003 -1.85029 -0.634329 0
M  V30 1334 C 121.383 -0.968305 -1.87582 0
M  V30 1335 O 120.731 -0.0354749 -2.28472 0
M  V30 1336 C 120.941 -3.35286 -0.968742 0
M  V30 1337 C 122.289 -4.02875 -1.34077 0
M  V30 1338 O 123.313 -3.40051 -1.06037 0
M  V30 1339 O 122.172 -5.13691 -1.86506 0
M  V30 1340 H 119.266 -0.7645 -0.315387 0
M  V30 1341 H 121.812 -1.69366 0.106382 0
M  V30 1342 H 120.584 -3.91203 -0.0871376 0
M  V30 1343 H 120.207 -3.56223 -1.7661 0
M  V30 1344 N 121.204 0.198386 -1.56346 0
M  V30 1345 C 122.62 0.549085 -1.49857 0
M  V30 1346 C 122.82 1.86016 -0.774611 0
M  V30 1347 O 121.876 2.50416 -0.323776 0
M  V30 1348 C 123.189 0.606868 -2.94512 0
M  V30 1349 C 124.737 0.695925 -3.05165 0
M  V30 1350 C 125.212 0.784848 -4.51225 0
M  V30 1351 N 126.703 0.848463 -4.55363 0
M  V30 1352 C 127.438 0.937378 -5.65686 0
M  V30 1353 N 126.934 0.9888 -6.85707 0
M  V30 1354 N 128.727 0.974312 -5.53592 0
M  V30 1355 H 120.878 -0.661655 -2.01831 0
M  V30 1356 H 123.141 -0.235261 -0.918344 0
M  V30 1357 H 122.847 -0.28732 -3.50524 0
M  V30 1358 H 122.721 1.46268 -3.47686 0
M  V30 1359 H 125.108 1.58055 -2.49204 0
M  V30 1360 H 125.189 -0.186022 -2.55123 0
M  V30 1361 H 124.833 -0.0954072 -5.0781 0
M  V30 1362 H 124.763 1.68255 -4.98997 0
M  V30 1363 H 127.254 0.818103 -3.68938 0
M  V30 1364 H 127.567 1.05707 -7.65536 0
M  V30 1365 H 125.912 0.957534 -6.88372 0
M  V30 1366 H 129.103 0.930954 -4.58749 0
M  V30 1367 H 129.276 1.04015 -6.39597 0
M  V30 1368 N 122.682 1.50554 0.465978 0
M  V30 1369 C 123.592 1.72585 1.58907 0
M  V30 1370 C 124.608 0.60911 1.6299 0
M  V30 1371 O 125.784 0.88804 1.80765 0
M  V30 1372 C 122.849 1.81995 2.95091 0
M  V30 1373 C 121.91 3.05751 3.01355 0
M  V30 1374 C 121.143 3.14702 4.31043 0
M  V30 1375 O 121.366 2.30313 5.21835 0
M  V30 1376 O 120.3 4.07468 4.43005 0
M  V30 1377 H 124.126 2.67799 1.43239 0
M  V30 1378 H 121.711 1.34711 0.646013 0
M  V30 1379 H 123.593 1.90335 3.75966 0
M  V30 1380 H 122.268 0.899659 3.10947 0
M  V30 1381 H 121.175 3.02908 2.19539 0
M  V30 1382 H 122.508 3.97375 2.90437 0
M  V30 1383 N 124.16 -0.719506 1.40217 0
M  V30 1384 C 125.107 -1.83359 1.40172 0
M  V30 1385 C 126.077 -1.64065 0.259206 0
M  V30 1386 O 127.262 -1.85254 0.456677 0
M  V30 1387 C 124.402 -3.2103 1.26624 0
M  V30 1388 C 123.515 -3.51923 2.50548 0
M  V30 1389 C 122.65 -4.79079 2.29471 0
M  V30 1390 C 121.689 -5.02863 3.48992 0
M  V30 1391 N 120.826 -6.2123 3.27135 0
M  V30 1392 H 125.666 -1.82733 2.35399 0
M  V30 1393 H 123.203 -0.892688 1.16917 0
M  V30 1394 H 125.161 -4.00524 1.16776 0
M  V30 1395 H 123.791 -3.20895 0.350176 0
M  V30 1396 H 122.843 -2.67014 2.70939 0
M  V30 1397 H 124.155 -3.6541 3.39525 0
M  V30 1398 H 123.309 -5.66582 2.16955 0
M  V30 1399 H 122.048 -4.67794 1.37913 0
M  V30 1400 H 121.053 -4.13816 3.6199 0
M  V30 1401 H 122.278 -5.16023 4.41472 0
M  V30 1402 H 120.224 -6.11204 2.38256 0
M  V30 1403 H 120.141 -6.35375 4.09675 0
M  V30 1404 H 121.409 -7.11532 3.18344 0
M  V30 1405 N 125.638 -1.25649 -0.95132 0
M  V30 1406 C 126.884 -1.10757 -1.69884 0
M  V30 1407 C 127.217 0.350061 -1.91019 0
M  V30 1408 O 126.492 1.25783 -1.48354 0
M  V30 1409 C 126.775 -1.86606 -3.07978 0
M  V30 1410 C 126.628 -3.40217 -2.94232 0
M  V30 1411 C 127.947 -1.65182 -4.07925 0
M  V30 1412 H 125.066 -0.40374 -0.616574 0
M  V30 1413 H 127.708 -1.54521 -1.10558 0
M  V30 1414 H 125.858 -1.49409 -3.58621 0
M  V30 1415 H 127.53 -3.87108 -2.50889 0
M  V30 1416 H 125.773 -3.67759 -2.30078 0
M  V30 1417 H 126.444 -3.88505 -3.92133 0
M  V30 1418 H 128.92 -1.9757 -3.66204 0
M  V30 1419 H 127.796 -2.20683 -5.02583 0
M  V30 1420 H 128.057 -0.593933 -4.38092 0
M  V30 1421 N 127.117 1.15442 -1.07289 0
M  V30 1422 C 128.047 2.22312 -0.714107 0
M  V30 1423 C 129.028 1.67467 0.298155 0
M  V30 1424 O 130.213 1.93445 0.171048 0
M  V30 1425 C 127.343 3.47124 -0.110448 0
M  V30 1426 C 126.297 4.14926 -1.04979 0
M  V30 1427 C 125.623 5.33807 -0.308924 0
M  V30 1428 C 126.923 4.64762 -2.38314 0
M  V30 1429 H 128.617 2.5258 -1.6076 0
M  V30 1430 H 126.163 1.21404 -0.77441 0
M  V30 1431 H 128.116 4.21124 0.152482 0
M  V30 1432 H 126.84 3.16187 0.81812 0
M  V30 1433 H 125.499 3.42866 -1.29764 0
M  V30 1434 H 125.147 4.99126 0.623084 0
M  V30 1435 H 124.847 5.80113 -0.935036 0
M  V30 1436 H 126.371 6.10576 -0.0537771 0
M  V30 1437 H 127.785 5.30292 -2.1786 0
M  V30 1438 H 126.182 5.21728 -2.96514 0
M  V30 1439 H 127.252 3.80434 -3.00663 0
M  V30 1440 N 128.595 0.856903 1.32268 0
M  V30 1441 C 129.844 0.457599 1.96441 0
M  V30 1442 C 130.157 -0.992426 1.68553 0
M  V30 1443 O 131.363 -1.49727 2.26482 0
M  V30 1444 C 129.819 0.767358 3.51624 0
M  V30 1445 C 129.427 2.23326 3.88367 0
M  V30 1446 C 131.171 0.435887 4.22256 0
M  V30 1447 C 129.078 2.48613 5.36606 0
M  V30 1448 H 128.008 0.167387 0.735185 0
M  V30 1449 H 130.659 1.048 1.5063 0
M  V30 1450 H 129.041 0.106367 3.95857 0
M  V30 1451 H 130.215 2.93623 3.55137 0
M  V30 1452 H 128.53 2.52948 3.30766 0
M  V30 1453 H 131.127 0.602202 5.31298 0
M  V30 1454 H 131.47 -0.622672 4.11617 0
M  V30 1455 H 132.003 1.05286 3.83614 0
M  V30 1456 H 128.742 3.53101 5.52268 0
M  V30 1457 H 128.262 1.82896 5.71235 0
M  V30 1458 H 129.941 2.32676 6.03714 0
M  V30 1459 N 130.073 -1.45103 0.615059 0
M  V30 1460 C 131.321 -2.01784 0.112955 0
M  V30 1461 C 131.642 -1.48504 -1.26378 0
M  V30 1462 O 130.912 -0.682245 -1.83636 0
M  V30 1463 H 129.492 -0.745993 0.0387668 0
M  V30 1464 H 132.154 -1.77808 0.798141 0
M  V30 1465 H 131.25 -3.12025 0.0684069 0
M  V30 1466 N 131.551 -0.354651 -1.53558 0
M  V30 1467 C 132.481 0.489091 -2.2832 0
M  V30 1468 C 133.462 1.09324 -1.30316 0
M  V30 1469 O 134.647 1.11255 -1.59173 0
M  V30 1470 C 131.777 1.63456 -3.0643 0
M  V30 1471 C 130.731 1.1582 -4.12031 0
M  V30 1472 C 130.057 2.39305 -4.7816 0
M  V30 1473 C 131.357 0.250731 -5.21698 0
M  V30 1474 H 133.051 -0.134614 -2.99097 0
M  V30 1475 H 130.597 -0.0661826 -1.43848 0
M  V30 1476 H 132.55 2.23136 -3.57475 0
M  V30 1477 H 131.274 2.28533 -2.33325 0
M  V30 1478 H 129.933 0.584146 -3.61916 0
M  V30 1479 H 129.581 3.02814 -4.01637 0
M  V30 1480 H 129.281 2.08109 -5.49513 0
M  V30 1481 H 130.805 2.99691 -5.31994 0
M  V30 1482 H 132.219 0.754695 -5.68311 0
M  V30 1483 H 130.616 0.0301468 -6.00092 0
M  V30 1484 H 131.686 -0.710125 -4.79672 0
M  V30 1485 N 133.029 1.57378 -0.0835403 0
M  V30 1486 C 134.306 1.85363 0.624507 0
M  V30 1487 C 134.686 0.978239 1.87066 0
M  V30 1488 O 134.034 0.0475908 2.2845 0
M  V30 1489 C 134.244 3.35795 0.950947 0
M  V30 1490 C 135.592 4.03581 1.31939 0
M  V30 1491 O 136.616 3.40609 1.04232 0
M  V30 1492 O 135.475 5.14672 1.83779 0
M  V30 1493 H 132.569 0.766162 0.311329 0
M  V30 1494 H 135.115 1.69307 -0.115362 0
M  V30 1495 H 133.887 3.91244 0.0663899 0
M  V30 1496 H 133.51 3.57154 1.74719 0
M  V30 1497 N 134.507 -0.190092 1.56449 0
M  V30 1498 C 135.437 -1.23816 1.97969 0
M  V30 1499 C 136.418 -1.47201 0.852395 0
M  V30 1500 O 137.603 -1.58854 1.1171 0
M  V30 1501 C 134.733 -2.5813 2.3235 0
M  V30 1502 C 133.687 -2.49348 3.47864 0
M  V30 1503 C 133.013 -3.8798 3.67934 0
M  V30 1504 C 134.313 -2.01424 4.81898 0
M  V30 1505 H 136.007 -0.89311 2.85769 0
M  V30 1506 H 133.553 -0.428177 1.37487 0
M  V30 1507 H 135.506 -3.31637 2.59991 0
M  V30 1508 H 134.23 -2.94386 1.41438 0
M  V30 1509 H 132.889 -1.78297 3.20321 0
M  V30 1510 H 132.537 -4.21597 2.74344 0
M  V30 1511 H 132.237 -3.82978 4.45648 0
M  V30 1512 H 133.761 -4.63101 3.97957 0
M  V30 1513 H 135.175 -2.64693 5.08538 0
M  V30 1514 H 133.572 -2.07413 5.63116 0
M  V30 1515 H 134.642 -0.967677 4.75146 0
M  V30 1516 N 135.985 -1.50799 -0.457987 0
M  V30 1517 C 136.915 -1.73553 -1.5621 0
M  V30 1518 C 137.896 -0.584774 -1.59732 0
M  V30 1519 O 139.081 -0.825314 -1.7579 0
M  V30 1520 C 136.211 -1.84169 -2.94447 0
M  V30 1521 C 135.165 -2.99461 -3.0579 0
M  V30 1522 C 134.491 -2.95235 -4.45803 0
M  V30 1523 C 135.791 -4.39766 -2.81786 0
M  V30 1524 H 137.485 -2.66 -1.37421 0
M  V30 1525 H 135.031 -1.28002 -0.659662 0
M  V30 1526 H 136.984 -1.98672 -3.71628 0
M  V30 1527 H 135.708 -0.883545 -3.14422 0
M  V30 1528 H 134.367 -2.8463 -2.31044 0
M  V30 1529 H 134.015 -1.97239 -4.62715 0
M  V30 1530 H 133.715 -3.72642 -4.54326 0
M  V30 1531 H 135.239 -3.11803 -5.24987 0
M  V30 1532 H 136.653 -4.55054 -3.4871 0
M  V30 1533 H 135.05 -5.18722 -3.0174 0
M  V30 1534 H 136.12 -4.51229 -1.7754 0
M  V30 1535 N 137.463 0.71206 -1.40597 0
M  V30 1536 C 138.693 1.49894 -1.42181 0
M  V30 1537 C 139.101 1.89189 -0.0208078 0
M  V30 1538 O 138.444 1.56223 0.966436 0
M  V30 1539 C 138.506 2.80215 -2.25211 0
M  V30 1540 C 138.17 2.63221 -3.73582 0
M  V30 1541 C 139.167 2.30249 -4.66135 0
M  V30 1542 C 136.852 2.79376 -4.17438 0
M  V30 1543 C 138.846 2.13645 -6.00529 0
M  V30 1544 C 136.533 2.6239 -5.51901 0
M  V30 1545 C 137.531 2.29573 -6.43262 0
M  V30 1546 O 137.219 2.12719 -7.75246 0
M  V30 1547 H 136.951 0.469031 -0.486812 0
M  V30 1548 H 139.505 0.88564 -1.85326 0
M  V30 1549 H 137.735 3.4389 -1.76852 0
M  V30 1550 H 139.424 3.41947 -2.18694 0
M  V30 1551 H 140.19 2.17398 -4.33547 0
M  V30 1552 H 136.069 3.03906 -3.46644 0
M  V30 1553 H 139.613 1.87953 -6.71803 0
M  V30 1554 H 135.51 2.74826 -5.84073 0
M  V30 1555 H 136.278 2.27611 -7.86216 0
M  V30 1556 N 138.941 1.26152 0.944643 0
M  V30 1557 C 140.218 1.02247 1.66748 0
M  V30 1558 C 140.598 -0.448202 2.06287 0
M  V30 1559 O 139.946 -1.42779 1.78399 0
M  V30 1560 C 140.156 1.96788 2.88228 0
M  V30 1561 C 141.504 2.25201 3.59958 0
M  V30 1562 O 142.528 1.94626 2.98327 0
M  V30 1563 O 141.387 2.77242 4.70956 0
M  V30 1564 H 138.481 0.388517 0.730057 0
M  V30 1565 H 141.027 1.37348 0.99668 0
M  V30 1566 H 139.799 2.96047 2.55875 0
M  V30 1567 H 139.422 1.62145 3.63035 0
M  V30 1568 N 140.419 -1.14872 1.07899 0
M  V30 1569 C 141.329 -2.2341 0.715915 0
M  V30 1570 C 142.345 -1.71808 -0.275306 0
M  V30 1571 O 143.521 -2.01039 -0.120545 0
M  V30 1572 C 140.586 -3.46474 0.125168 0
M  V30 1573 C 139.647 -4.13039 1.17034 0
M  V30 1574 C 138.88 -5.30229 0.607688 0
M  V30 1575 O 139.103 -5.675 -0.574497 0
M  V30 1576 O 138.037 -5.86444 1.35526 0
M  V30 1577 H 141.863 -2.56808 1.62121 0
M  V30 1578 H 139.448 -1.22702 0.852322 0
M  V30 1579 H 141.33 -4.20917 -0.201729 0
M  V30 1580 H 140.005 -3.14811 -0.753364 0
M  V30 1581 H 138.912 -3.40493 1.54968 0
M  V30 1582 H 140.245 -4.48796 2.02097 0
M  V30 1583 N 141.898 -0.863906 -1.31812 0
M  V30 1584 C 143.147 -0.46801 -1.96195 0
M  V30 1585 C 143.46 0.983474 -1.69077 0
M  V30 1586 O 144.666 1.48523 -2.27273 0
M  V30 1587 C 143.122 -0.785995 -3.51212 0
M  V30 1588 C 142.73 -2.25383 -3.87178 0
M  V30 1589 C 144.474 -0.458274 -4.22019 0
M  V30 1590 C 142.381 -2.51455 -5.3528 0
M  V30 1591 H 141.311 -0.171283 -0.734287 0
M  V30 1592 H 143.962 -1.05597 -1.50072 0
M  V30 1593 H 142.344 -0.127359 -3.95795 0
M  V30 1594 H 143.518 -2.95502 -3.53575 0
M  V30 1595 H 141.833 -2.54698 -3.2942 0
M  V30 1596 H 144.43 -0.630369 -5.30971 0
M  V30 1597 H 144.773 0.600834 -4.11941 0
M  V30 1598 H 145.306 -1.07319 -3.8305 0
M  V30 1599 H 142.045 -3.56025 -5.50387 0
M  V30 1600 H 141.565 -1.85923 -5.70257 0
M  V30 1601 H 143.244 -2.35874 -6.02472 0
M  V30 1602 N 143.376 1.44774 -0.622745 0
M  V30 1603 C 144.792 1.56986 -0.287652 0
M  V30 1604 C 144.992 1.61167 1.20944 0
M  V30 1605 O 144.048 1.55015 1.99315 0
M  V30 1606 C 145.361 2.84551 -0.972188 0
M  V30 1607 C 146.909 2.9825 -0.949536 0
M  V30 1608 C 147.384 4.28605 -1.61437 0
M  V30 1609 N 148.875 4.35399 -1.58057 0
M  V30 1610 C 149.61 5.34964 -2.064 0
M  V30 1611 N 149.106 6.40981 -2.62897 0
M  V30 1612 N 150.899 5.26419 -1.97078 0
M  V30 1613 H 143.05 1.40304 -1.59463 0
M  V30 1614 H 145.313 0.671794 -0.668878 0
M  V30 1615 H 145.019 2.87417 -2.02693 0
M  V30 1616 H 144.893 3.73807 -0.504771 0
M  V30 1617 H 147.28 2.94941 0.0967067 0
M  V30 1618 H 147.361 2.10364 -1.45536 0
M  V30 1619 H 147.005 4.32672 -2.66002 0
M  V30 1620 H 146.935 5.15334 -1.08344 0
M  V30 1621 H 149.426 3.59397 -1.16801 0
M  V30 1622 H 149.739 7.13225 -2.97539 0
M  V30 1623 H 148.084 6.4169 -2.66943 0
M  V30 1624 H 151.275 4.42504 -1.52669 0
M  V30 1625 H 151.448 6.03861 -2.35066 0
M  V30 1626 N 144.854 0.36279 1.53368 0
M  V30 1627 C 145.764 -0.492994 2.29362 0
M  V30 1628 C 146.78 -1.09507 1.35219 0
M  V30 1629 O 147.956 -1.10662 1.68273 0
M  V30 1630 C 145.021 -1.61855 3.066 0
M  V30 1631 C 144.082 -1.04429 4.16405 0
M  V30 1632 C 143.315 -2.11621 4.89951 0
M  V30 1633 O 143.538 -3.32684 4.63333 0
M  V30 1634 O 142.472 -1.74835 5.75948 0
M  V30 1635 H 146.298 0.125331 3.03441 0
M  V30 1636 H 143.883 0.127253 1.48857 0
M  V30 1637 H 145.765 -2.27302 3.54841 0
M  V30 1638 H 144.44 -2.22233 2.3536 0
M  V30 1639 H 143.347 -0.353819 3.72423 0
M  V30 1640 H 144.68 -0.485113 4.89804 0
M  V30 1641 N 146.332 -1.57332 0.0918853 0
M  V30 1642 C 147.748 -1.57389 -0.264766 0
M  V30 1643 C 147.948 -1.10281 -1.68643 0
M  V30 1644 O 147.004 -0.777801 -2.40222 0
M  V30 1645 C 148.317 -3.00648 -0.0561195 0
M  V30 1646 C 149.865 -3.12754 -0.124116 0
M  V30 1647 C 150.34 -4.57965 0.0564972 0
M  V30 1648 N 151.831 -4.632 0.00155611 0
M  V30 1649 C 152.566 -5.73281 0.116598 0
M  V30 1650 N 152.062 -6.92208 0.286294 0
M  V30 1651 N 153.855 -5.6207 0.0580973 0
M  V30 1652 H 146.006 -1.86262 1.02079 0
M  V30 1653 H 148.269 -0.859579 0.399786 0
M  V30 1654 H 147.975 -3.393 0.925669 0
M  V30 1655 H 147.849 -3.68623 -0.799823 0
M  V30 1656 H 150.236 -2.73976 -1.09641 0
M  V30 1657 H 150.317 -2.47377 0.651024 0
M  V30 1658 H 149.961 -4.97436 1.02564 0
M  V30 1659 H 149.891 -5.21399 -0.738297 0
M  V30 1660 H 152.382 -3.77686 -0.127192 0
M  V30 1661 H 152.695 -7.71934 0.365676 0
M  V30 1662 H 151.04 -6.94254 0.32192 0
M  V30 1663 H 154.231 -4.68043 -0.0733204 0
M  V30 1664 H 154.404 -6.47824 0.151203 0
M  V30 1665 N 147.81 0.181792 -1.56548 0
M  V30 1666 C 148.72 1.24538 -1.98815 0
M  V30 1667 C 149.736 1.49045 -0.897861 0
M  V30 1668 O 150.912 1.61399 -1.20467 0
M  V30 1669 C 147.977 2.56683 -2.33055 0
M  V30 1670 C 147.038 2.40131 -3.55859 0
M  V30 1671 C 146.271 3.65975 -3.88456 0
M  V30 1672 O 146.494 4.70711 -3.22161 0
M  V30 1673 O 145.428 3.6071 -4.81842 0
M  V30 1674 H 149.254 0.916647 -2.89536 0
M  V30 1675 H 146.839 0.387842 -1.44278 0
M  V30 1676 H 148.721 3.34655 -2.56094 0
M  V30 1677 H 147.396 2.89157 -1.45498 0
M  V30 1678 H 146.303 1.60226 -3.38051 0
M  V30 1679 H 147.636 2.12585 -4.43924 0
M  V30 1680 N 149.288 1.51039 0.449983 0
M  V30 1681 C 150.251 1.70863 1.5277 0
M  V30 1682 C 151.251 0.578846 1.5002 0
M  V30 1683 O 152.441 0.846213 1.52266 0
M  V30 1684 C 149.573 1.75341 2.9235 0
M  V30 1685 H 150.766 2.67034 1.36502 0
M  V30 1686 H 148.319 1.40838 0.677812 0
M  V30 1687 H 149.054 0.809383 3.14037 0
M  V30 1688 H 148.839 2.57436 2.95752 0
M  V30 1689 H 150.329 1.92559 3.70555 0
M  V30 1690 N 150.766 -0.704594 1.40972 0
M  V30 1691 C 151.676 -1.84856 1.44448 0
M  V30 1692 C 152.692 -1.70726 0.335961 0
M  V30 1693 O 153.868 -1.92799 0.582276 0
M  V30 1694 C 150.933 -3.20758 1.31587 0
M  V30 1695 C 149.994 -3.47063 2.52677 0
M  V30 1696 C 149.227 -4.76481 2.4042 0
M  V30 1697 O 149.45 -5.52341 1.42391 0
M  V30 1698 O 148.384 -5.03367 3.30007 0
M  V30 1699 H 152.21 -1.8488 2.40942 0
M  V30 1700 H 149.795 -0.85647 1.22413 0
M  V30 1701 H 151.677 -4.01913 1.26665 0
M  V30 1702 H 150.352 -3.21438 0.382049 0
M  V30 1703 H 149.259 -2.65873 2.63177 0
M  V30 1704 H 150.592 -3.5119 3.44858 0
M  V30 1705 N 152.244 -1.26651 -0.937939 0
M  V30 1706 C 153.521 -1.0313 -1.66204 0
M  V30 1707 C 153.901 0.437256 -2.06522 0
M  V30 1708 O 153.249 1.41831 -1.79154 0
M  V30 1709 C 153.459 -1.98314 -2.87181 0
M  V30 1710 C 154.807 -2.27107 -3.58758 0
M  V30 1711 O 155.831 -1.96205 -2.97291 0
M  V30 1712 O 154.69 -2.79736 -4.69479 0
M  V30 1713 H 151.784 -0.392384 -0.727986 0
M  V30 1714 H 154.33 -1.37874 -0.989382 0
M  V30 1715 H 153.102 -2.97399 -2.54302 0
M  V30 1716 H 152.725 -1.64068 -3.6217 0
M  V30 1717 N 153.722 1.14298 -1.08507 0
M  V30 1718 C 154.654 2.1907 -0.673859 0
M  V30 1719 C 155.667 1.60381 0.279577 0
M  V30 1720 O 156.856 1.78374 0.0670754 0
M  V30 1721 C 153.956 3.38888 0.0290979 0
M  V30 1722 C 153.129 4.27103 -0.943494 0
M  V30 1723 C 152.188 5.25477 -0.275676 0
M  V30 1724 O 151.214 5.61709 -0.920401 0
M  V30 1725 N 152.416 5.7227 0.974013 0
M  V30 1726 H 155.181 2.54965 -1.57521 0
M  V30 1727 H 152.742 1.29528 -0.971287 0
M  V30 1728 H 154.734 4.01761 0.48683 0
M  V30 1729 H 153.304 3.01309 0.832555 0
M  V30 1730 H 152.524 3.61149 -1.58004 0
M  V30 1731 H 153.812 4.82905 -1.60251 0
M  V30 1732 H 153.21 5.44965 1.51755 0
M  V30 1733 H 151.767 6.37127 1.37522 0
M  V30 1734 O 155.239 1.00442 1.26466 0
M  V30 1735 H 155.93 0.659114 1.82141 0
M  V30 END ATOM
M  V30 BEGIN BOND
M  V30 END BOND
M  V30 END CTAB
M  END
$$$$
