drugbank_target|P17174 Aspartate aminotransferase, cytoplasmic (DB00114; DB00128; DB00142; DB00151; DB00210; DB04299; DB09130)
 OpenBabel12092119333D

  0  0  0     0  0            999 V3000
M  V30 BEGIN CTAB
M  V30 COUNTS 6480 6565 0 0 0
M  V30 BEGIN ATOM
M  V30 1 H -0.908 1.98254 -0.117106 0
M  V30 2 N 0 1.576 0 0
M  V30 3 C 0.933 2.03868 1.02534 0
M  V30 4 C 1.911 0.928543 1.3348 0
M  V30 5 O 3.095 1.19667 1.45644 0
M  V30 6 C 0.222 2.43627 2.35294 0
M  V30 7 C -0.732 3.65373 2.2001 0
M  V30 8 S 0.101 5.13292 1.52614 0
M  V30 9 C 1.257 5.56322 2.86805 0
M  V30 10 H 1.49 2.90518 0.631377 0
M  V30 11 H -0.977 1.52953 0.210867 0
M  V30 12 H 0.981 2.67203 3.11629 0
M  V30 13 H -0.358 1.57376 2.7183 0
M  V30 14 H -1.165 3.90944 3.18086 0
M  V30 15 H -1.563 3.418 1.51819 0
M  V30 16 H 0.729 5.58782 3.83104 0
M  V30 17 H 1.672 6.56266 2.65933 0
M  V30 18 H 2.08 4.83886 2.90714 0
M  V30 19 N 1.4781 -0.272755 1.55222 0
M  V30 20 C 2.4411 -1.32041 1.87344 0
M  V30 21 C 3.4411 -1.42342 0.74803 0
M  V30 22 O 4.6311 -1.41488 1.0162 0
M  V30 23 C 1.7631 -2.70173 2.07893 0
M  V30 24 H 2.9561 -1.04789 2.80997 0
M  V30 25 H 0.5091 -0.51083 1.47717 0
M  V30 26 H 1.2441 -3.02605 1.16622 0
M  V30 27 H 1.0291 -2.64082 2.89833 0
M  V30 28 H 2.5191 -3.45869 2.34017 0
M  V30 29 N 2.9562 -1.48159 -0.537278 0
M  V30 30 C 4.3672 -1.49429 -1.11928 0
M  V30 31 C 4.7182 -0.26 -1.9447 0
M  V30 32 O 3.8432 0.633489 -2.0692 0
M  V30 33 C 4.4382 -2.70758 -2.03656 0
M  V30 34 C 2.9972 -2.74923 -2.57088 0
M  V30 35 C 2.1442 -2.42835 -1.3389 0
M  V30 36 H 5.0952 -1.55381 -0.322886 0
M  V30 37 H 5.1162 -2.48861 -2.87834 0
M  V30 38 H 4.6282 -3.60575 -1.43553 0
M  V30 39 H 2.7292 -1.89296 -3.20933 0
M  V30 40 H 2.8422 -3.76157 -2.9672 0
M  V30 41 H 1.2062 -1.93836 -1.65226 0
M  V30 42 H 1.9892 -3.34884 -0.755504 0
M  V30 43 N 4.4343 0.785586 -1.36625 0
M  V30 44 C 5.8453 1.36101 -1.27803 0
M  V30 45 C 6.1963 1.96035 0.0804875 0
M  V30 46 O 5.3213 1.92834 0.982042 0
M  V30 47 C 5.9163 2.47442 -2.31426 0
M  V30 48 C 4.4753 3.00789 -2.26281 0
M  V30 49 C 3.6223 1.73896 -2.15999 0
M  V30 50 H 6.5733 0.586928 -1.47448 0
M  V30 51 H 6.5943 3.2656 -1.95291 0
M  V30 52 H 6.1063 2.03791 -3.30289 0
M  V30 53 H 4.2073 3.48851 -1.30896 0
M  V30 54 H 4.3203 3.57343 -3.19128 0
M  V30 55 H 2.6843 1.9628 -1.62316 0
M  V30 56 H 3.4673 1.32368 -3.16755 0
M  V30 57 N 5.9124 1.20967 1.01018 0
M  V30 58 C 7.1374 1.0503 1.78839 0
M  V30 59 C 7.5624 -0.395752 1.8389 0
M  V30 60 O 6.9204 -1.28529 1.27867 0
M  V30 61 C 6.9684 1.64602 3.2084 0
M  V30 62 O 6.0724 0.887988 4.02726 0
M  V30 63 H 5.4134 0.369987 0.551367 0
M  V30 64 H 7.9434 1.60399 1.27018 0
M  V30 65 H 7.9534 1.68607 3.71532 0
M  V30 66 H 6.6284 2.69841 3.16479 0
M  V30 67 H 5.2054 0.922648 3.61305 0
M  V30 68 N 7.3905 -1.2043 1.01659 0
M  V30 69 C 8.6365 -1.90079 0.706963 0
M  V30 70 C 8.9695 -1.78648 -0.761474 0
M  V30 71 O 8.2445 -1.17069 -1.55323 0
M  V30 72 C 8.5275 -3.41469 1.14327 0
M  V30 73 C 8.3805 -3.61833 2.67201 0
M  V30 74 C 9.6995 -4.34261 0.714529 0
M  V30 75 H 6.8185 -0.690254 0.2583 0
M  V30 76 H 9.4605 -1.41826 1.26433 0
M  V30 77 H 7.6105 -3.82696 0.669056 0
M  V30 78 H 9.2825 -3.2986 3.22475 0
M  V30 79 H 7.5255 -3.05304 3.08175 0
M  V30 80 H 8.1965 -4.67955 2.92783 0
M  V30 81 H 10.6725 -4.00682 1.12221 0
M  V30 82 H 9.5485 -5.38806 1.04784 0
M  V30 83 H 9.8095 -4.40431 -0.383799 0
M  V30 84 N 8.8686 -0.792821 -1.36206 0
M  V30 85 C 10.1156 -0.366786 -1.99151 0
M  V30 86 C 10.4436 1.06243 -1.62919 0
M  V30 87 O 9.6986 1.74927 -0.877442 0
M  V30 88 C 9.9976 -0.481501 -3.54142 0
M  V30 89 C 9.6636 -1.87202 -4.10203 0
M  V30 90 C 8.3256 -2.25248 -4.25226 0
M  V30 91 C 10.6776 -2.78237 -4.40719 0
M  V30 92 C 8.0056 -3.53723 -4.68078 0
M  V30 93 C 10.3576 -4.06144 -4.85005 0
M  V30 94 C 9.0216 -4.44207 -4.98234 0
M  V30 95 H 8.2916 -0.134217 -0.728743 0
M  V30 96 H 10.9386 -1.01094 -1.62641 0
M  V30 97 H 9.2436 0.246146 -3.91026 0
M  V30 98 H 10.9406 -0.132844 -4.0078 0
M  V30 99 H 7.5306 -1.56639 -3.98951 0
M  V30 100 H 11.7146 -2.50097 -4.28679 0
M  V30 101 H 6.9706 -3.8308 -4.76508 0
M  V30 102 H 11.1446 -4.76796 -5.07581 0
M  V30 103 H 8.7716 -5.43814 -5.31197 0
M  V30 104 N 10.3467 1.47872 -0.545128 0
M  V30 105 C 11.3097 2.28337 0.198717 0
M  V30 106 C 12.3097 1.36255 0.853888 0
M  V30 107 O 13.4997 1.59003 0.711606 0
M  V30 108 C 10.6317 3.15585 1.28915 0
M  V30 109 H 11.8247 2.95567 -0.507941 0
M  V30 110 H 9.3777 1.53362 -0.301616 0
M  V30 111 H 10.1127 2.53019 2.02859 0
M  V30 112 H 9.8977 3.83337 0.824309 0
M  V30 113 H 11.3877 3.76243 1.81194 0
M  V30 114 N 11.8248 0.280983 1.55075 0
M  V30 115 C 12.7348 -0.61388 2.26426 0
M  V30 116 C 13.7508 -1.16521 1.29224 0
M  V30 117 O 14.9268 -1.19426 1.62171 0
M  V30 118 C 11.9918 -1.7788 2.9759 0
M  V30 119 C 11.0528 -1.26355 4.10284 0
M  V30 120 C 10.2858 -2.37295 4.78045 0
M  V30 121 O 10.5088 -3.56777 4.45047 0
M  V30 122 O 9.4428 -2.05119 5.65871 0
M  V30 123 H 13.2688 -0.0356932 3.03679 0
M  V30 124 H 10.8538 0.0481686 1.49322 0
M  V30 125 H 12.7358 -2.45791 3.42293 0
M  V30 126 H 11.4108 -2.34397 2.23249 0
M  V30 127 H 10.3178 -0.550735 3.70024 0
M  V30 128 H 11.6508 -0.744065 4.86543 0
M  V30 129 N 13.3029 -1.57598 0.00835791 0
M  V30 130 C 14.5489 -1.91211 -0.675732 0
M  V30 131 C 14.8819 -0.883139 -1.72958 0
M  V30 132 O 14.1569 0.097016 -1.94258 0
M  V30 133 C 14.4399 -3.35379 -1.31123 0
M  V30 134 C 14.2929 -4.48999 -0.268356 0
M  V30 135 C 15.6119 -3.7912 -2.23508 0
M  V30 136 H 12.7309 -0.695374 -0.244179 0
M  V30 137 H 15.3729 -1.89901 0.0613655 0
M  V30 138 H 13.5229 -3.36626 -1.93946 0
M  V30 139 H 15.1949 -4.59887 0.360844 0
M  V30 140 H 13.4379 -4.31873 0.408482 0
M  V30 141 H 14.1089 -5.46851 -0.752218 0
M  V30 142 H 16.5849 -3.79477 -1.70693 0
M  V30 143 H 15.4609 -4.80729 -2.64936 0
M  V30 144 H 15.7219 -3.13455 -3.11766 0
M  V30 145 N 14.781 0.264519 -1.55364 0
M  V30 146 C 16.192 0.834936 -1.6699 0
M  V30 147 C 16.543 1.86718 -0.602552 0
M  V30 148 O 15.668 2.14899 0.254425 0
M  V30 149 C 16.263 1.5212 -3.02729 0
M  V30 150 C 14.822 2.03954 -3.16354 0
M  V30 151 C 13.969 0.884498 -2.62815 0
M  V30 152 H 16.92 0.0406869 -1.58648 0
M  V30 153 H 16.941 2.38853 -2.96191 0
M  V30 154 H 16.453 0.769668 -3.80392 0
M  V30 155 H 14.554 2.82041 -2.43482 0
M  V30 156 H 14.667 2.24902 -4.23032 0
M  V30 157 H 13.031 1.2802 -2.20188 0
M  V30 158 H 13.814 0.14634 -3.42988 0
M  V30 159 N 16.2591 1.48442 0.529413 0
M  V30 160 C 17.1911 1.59095 1.64989 0
M  V30 161 C 18.2041 0.475212 1.5571 0
M  V30 162 O 19.3931 0.746081 1.6216 0
M  V30 163 C 16.4931 1.50518 3.0364 0
M  V30 164 C 15.6661 2.77142 3.38395 0
M  V30 165 C 14.7251 2.62012 4.56329 0
M  V30 166 O 13.7511 3.35898 4.59522 0
M  V30 167 N 14.9531 1.71667 5.54536 0
M  V30 168 H 17.7181 2.55723 1.56287 0
M  V30 169 H 15.2791 1.45173 0.716697 0
M  V30 170 H 17.2711 1.38091 3.80412 0
M  V30 171 H 15.8411 0.618627 3.06418 0
M  V30 172 H 15.0611 3.0413 2.50796 0
M  V30 173 H 16.3491 3.61146 3.58401 0
M  V30 174 H 15.7471 1.10841 5.54735 0
M  V30 175 H 14.3041 1.65178 6.30523 0
M  V30 176 N 17.7372 -0.778329 1.37039 0
M  V30 177 C 18.7002 -1.87301 1.32102 0
M  V30 178 C 19.7002 -1.59198 0.226405 0
M  V30 179 O 20.8902 -1.67403 0.481861 0
M  V30 180 C 18.0222 -3.24309 1.05055 0
M  V30 181 H 19.2152 -1.93093 2.29467 0
M  V30 182 H 16.7682 -0.977358 1.21973 0
M  V30 183 H 17.5032 -3.24196 0.0819373 0
M  V30 184 H 17.2882 -3.46098 1.84279 0
M  V30 185 H 18.7782 -4.04382 1.04234 0
M  V30 186 N 19.2153 -1.21501 -1.00376 0
M  V30 187 C 20.1473 -0.933174 -2.09343 0
M  V30 188 C 21.1603 0.0840896 -1.62583 0
M  V30 189 O 22.3493 -0.148563 -1.77881 0
M  V30 190 C 19.4493 -0.379869 -3.36764 0
M  V30 191 C 18.6223 -1.45176 -4.12605 0
M  V30 192 C 17.6813 -0.907476 -5.18316 0
M  V30 193 O 16.7073 -1.5912 -5.46507 0
M  V30 194 N 17.9093 0.276649 -5.7984 0
M  V30 195 H 20.6743 -1.87124 -2.34104 0
M  V30 196 H 18.2353 -1.12043 -1.16867 0
M  V30 197 H 20.2273 -0.00131488 -4.047 0
M  V30 198 H 18.7973 0.463048 -3.09151 0
M  V30 199 H 18.0173 -2.00411 -3.39454 0
M  V30 200 H 19.3053 -2.17328 -4.6005 0
M  V30 201 H 18.7033 0.849147 -5.59291 0
M  V30 202 H 17.2603 0.596702 -6.49063 0
M  V30 203 N 20.6934 1.19889 -1.02296 0
M  V30 204 C 22.1044 1.71124 -0.746568 0
M  V30 205 C 22.4554 1.81939 0.734335 0
M  V30 206 O 21.5804 1.48639 1.57275 0
M  V30 207 C 22.1754 3.10804 -1.34857 0
M  V30 208 C 20.7344 3.59323 -1.1209 0
M  V30 209 C 19.8814 2.3635 -1.45031 0
M  V30 210 H 22.8324 1.04813 -1.19163 0
M  V30 211 H 22.8534 3.73186 -0.742437 0
M  V30 212 H 22.3654 3.029 -2.42638 0
M  V30 213 H 20.4664 3.7255 -0.0610337 0
M  V30 214 H 20.5794 4.4378 -1.80544 0
M  V30 215 H 18.9434 2.39399 -0.869487 0
M  V30 216 H 19.7264 2.31081 -2.53883 0
M  V30 217 N 22.1715 0.800033 1.35784 0
M  V30 218 C 23.4175 0.377901 1.99248 0
M  V30 219 C 23.7505 -1.05052 1.63333 0
M  V30 220 O 23.0255 -1.72768 0.893385 0
M  V30 221 C 23.3085 0.553922 3.55814 0
M  V30 222 C 23.1615 2.0268 4.01548 0
M  V30 223 C 24.4805 -0.0244802 4.40093 0
M  V30 224 H 21.5995 0.138782 0.723815 0
M  V30 225 H 24.2415 1.00835 1.61035 0
M  V30 226 H 22.3915 0.0172398 3.88496 0
M  V30 227 H 24.0635 2.62536 3.79305 0
M  V30 228 H 22.3065 2.5256 3.52698 0
M  V30 229 H 22.9775 2.10087 5.10458 0
M  V30 230 H 25.4535 0.433775 4.13833 0
M  V30 231 H 24.3295 0.128637 5.48749 0
M  V30 232 H 24.5905 -1.11758 4.27741 0
M  V30 233 N 23.6496 -1.47581 0.552962 0
M  V30 234 C 24.5796 -2.32762 -0.185451 0
M  V30 235 C 25.5606 -1.43527 -0.912905 0
M  V30 236 O 26.7456 -1.72388 -0.894201 0
M  V30 237 C 23.8756 -3.25219 -1.21859 0
M  V30 238 C 22.8296 -4.23661 -0.607864 0
M  V30 239 C 22.1556 -5.05413 -1.74533 0
M  V30 240 C 23.4556 -5.20481 0.435582 0
M  V30 241 H 25.1496 -2.94749 0.525684 0
M  V30 242 H 22.6956 -1.41738 0.254251 0
M  V30 243 H 24.6486 -3.8365 -1.7433 0
M  V30 244 H 23.3726 -2.61279 -1.95961 0
M  V30 245 H 22.0316 -3.66451 -0.104489 0
M  V30 246 H 21.6796 -4.3788 -2.47529 0
M  V30 247 H 21.3796 -5.72059 -1.34249 0
M  V30 248 H 22.9036 -5.66701 -2.27338 0
M  V30 249 H 24.3176 -5.733 -0.00290157 0
M  V30 250 H 22.7146 -5.95305 0.757067 0
M  V30 251 H 23.7846 -4.66217 1.33303 0
M  V30 252 N 25.1277 -0.289203 -1.54924 0
M  V30 253 C 26.3737 0.323998 -2.00195 0
M  V30 254 C 26.7067 1.54441 -1.17735 0
M  V30 255 O 25.9817 1.92875 -0.250878 0
M  V30 256 C 26.2647 0.692276 -3.53383 0
M  V30 257 C 26.1177 -0.536457 -4.46589 0
M  V30 258 C 27.4367 1.52335 -4.12895 0
M  V30 259 H 24.5557 0.116289 -0.727768 0
M  V30 260 H 27.1977 -0.398954 -1.85764 0
M  V30 261 H 25.3477 1.30822 -3.65811 0
M  V30 262 H 27.0197 -1.17499 -4.46085 0
M  V30 263 H 25.2627 -1.17192 -4.1767 0
M  V30 264 H 25.9337 -0.234806 -5.515 0
M  V30 265 H 28.4097 1.00302 -4.0383 0
M  V30 266 H 27.2857 1.74982 -5.20262 0
M  V30 267 H 27.5467 2.50886 -3.64018 0
M  V30 268 N 26.6058 1.57591 -0.0167156 0
M  V30 269 C 27.8528 1.91283 0.664597 0
M  V30 270 C 28.1808 0.891949 1.72842 0
M  V30 271 O 27.4358 -0.100931 1.9544 0
M  V30 272 C 27.7348 3.3172 1.33029 0
M  V30 273 C 27.4008 4.4914 0.398047 0
M  V30 274 C 26.0628 4.80992 0.141421 0
M  V30 275 C 28.4148 5.20634 -0.242825 0
M  V30 276 C 25.7428 5.81703 -0.764092 0
M  V30 277 C 28.0948 6.22311 -1.13632 0
M  V30 278 C 26.7588 6.52611 -1.40196 0
M  V30 279 H 26.0288 0.699956 0.243193 0
M  V30 280 H 28.6758 1.9135 -0.0758267 0
M  V30 281 H 26.9808 3.27856 2.14517 0
M  V30 282 H 28.6778 3.55055 1.86379 0
M  V30 283 H 25.2678 4.24262 0.608238 0
M  V30 284 H 29.4518 4.96267 -0.0576019 0
M  V30 285 H 24.7078 6.03532 -0.977732 0
M  V30 286 H 28.8818 6.76834 -1.63917 0
M  V30 287 H 26.5088 7.30467 -2.10529 0
M  V30 288 N 28.0839 -0.256276 1.55502 0
M  V30 289 C 29.0309 -1.31714 1.89526 0
M  V30 290 C 30.0009 -1.4828 0.748479 0
M  V30 291 O 31.1859 -1.62416 1.00128 0
M  V30 292 C 28.3259 -2.66933 2.18725 0
M  V30 293 C 27.4389 -2.58452 3.4616 0
M  V30 294 C 26.5739 -3.85961 3.64976 0
M  V30 295 C 25.6129 -3.72059 4.86044 0
M  V30 296 N 24.7499 -4.9144 5.01429 0
M  V30 297 H 29.5899 -1.01998 2.80001 0
M  V30 298 H 27.1269 -0.492413 1.38613 0
M  V30 299 H 29.0849 -3.4563 2.33657 0
M  V30 300 H 27.7149 -2.94816 1.31466 0
M  V30 301 H 26.7669 -1.71374 3.3961 0
M  V30 302 H 28.0789 -2.44085 4.34999 0
M  V30 303 H 27.2329 -4.73101 3.79816 0
M  V30 304 H 25.9719 -4.03215 2.74353 0
M  V30 305 H 24.9769 -2.83302 4.7119 0
M  V30 306 H 26.2019 -3.56309 5.78118 0
M  V30 307 H 24.1479 -5.09072 4.13741 0
M  V30 308 H 24.0649 -4.79668 5.84341 0
M  V30 309 H 25.3329 -5.80104 5.20672 0
M  V30 310 N 29.562 -1.4872 -0.521534 0
M  V30 311 C 30.492 -1.66771 -1.63431 0
M  V30 312 C 31.473 -0.516499 -1.62069 0
M  V30 313 O 32.658 -0.750013 -1.79132 0
M  V30 314 C 29.788 -1.71515 -3.01993 0
M  V30 315 C 28.742 -2.86222 -3.18216 0
M  V30 316 C 28.068 -2.76061 -4.57924 0
M  V30 317 C 29.368 -4.27419 -3.00184 0
M  V30 318 H 31.062 -2.59932 -1.48579 0
M  V30 319 H 28.608 -1.25089 -0.713358 0
M  V30 320 H 30.561 -1.82731 -3.7972 0
M  V30 321 H 29.285 -0.749393 -3.17886 0
M  V30 322 H 27.944 -2.74575 -2.42908 0
M  V30 323 H 27.592 -1.77437 -4.70665 0
M  V30 324 H 27.292 -3.53037 -4.69722 0
M  V30 325 H 28.816 -2.89256 -5.37739 0
M  V30 326 H 30.23 -4.39855 -3.67697 0
M  V30 327 H 28.627 -5.05458 -3.2347 0
M  V30 328 H 29.697 -4.43293 -1.96518 0
M  V30 329 N 31.0401 0.771051 -1.3745 0
M  V30 330 C 32.2681 1.56015 -1.35893 0
M  V30 331 C 32.6831 1.88718 0.0555523 0
M  V30 332 O 32.0401 1.51502 1.01752 0
M  V30 333 C 32.0911 2.87001 -2.19801 0
M  V30 334 O 31.8121 2.557 -3.55738 0
M  V30 335 C 33.3131 3.81228 -2.26231 0
M  V30 336 H 30.5331 0.483317 -0.465453 0
M  V30 337 H 33.0771 0.955611 -1.80799 0
M  V30 338 H 31.2321 3.43877 -1.78402 0
M  V30 339 H 31.6461 3.39584 -3.99729 0
M  V30 340 H 33.1201 4.70139 -2.89263 0
M  V30 341 H 33.5971 4.20409 -1.27093 0
M  V30 342 H 34.2031 3.30281 -2.67945 0
M  V30 343 N 32.5182 1.22032 0.997298 0
M  V30 344 C 33.4812 0.987909 2.06816 0
M  V30 345 C 34.4812 -0.0440084 1.6074 0
M  V30 346 O 35.6712 0.194053 1.73116 0
M  V30 347 C 32.8032 0.49132 3.37341 0
M  V30 348 H 33.9962 1.93803 2.28868 0
M  V30 349 H 31.5492 1.03838 1.16822 0
M  V30 350 H 32.2842 -0.463364 3.20973 0
M  V30 351 H 32.0692 1.23575 3.72118 0
M  V30 352 H 33.5592 0.348824 4.16141 0
M  V30 353 N 33.9963 -1.19345 1.0293 0
M  V30 354 C 35.2733 -1.84811 0.640642 0
M  V30 355 C 35.6533 -1.91855 -0.88062 0
M  V30 356 O 35.0013 -1.43587 -1.7775 0
M  V30 357 C 35.2113 -3.23755 1.30321 0
M  V30 358 C 36.5593 -3.99912 1.42673 0
M  V30 359 O 37.5833 -3.33155 1.26041 0
M  V30 360 O 36.4423 -5.19494 1.6967 0
M  V30 361 H 33.5363 -0.796443 0.222726 0
M  V30 362 H 36.0823 -1.26831 1.12748 0
M  V30 363 H 34.8543 -3.13466 2.34211 0
M  V30 364 H 34.4773 -3.89381 0.804261 0
M  V30 365 N 35.4744 -0.807222 -1.35358 0
M  V30 366 C 36.7214 -0.387888 -1.9875 0
M  V30 367 C 37.0494 1.04509 -1.64037 0
M  V30 368 O 36.3044 1.73986 -0.895946 0
M  V30 369 C 36.6034 -0.519036 -3.53611 0
M  V30 370 C 36.2694 -1.91542 -4.08194 0
M  V30 371 C 34.9314 -2.29745 -4.22813 0
M  V30 372 C 37.2834 -2.82896 -4.37744 0
M  V30 373 C 34.6114 -3.58668 -4.643 0
M  V30 374 C 36.9634 -4.11265 -4.8067 0
M  V30 375 C 35.6274 -4.49466 -4.93494 0
M  V30 376 H 34.8974 -0.141938 -0.727279 0
M  V30 377 H 37.5444 -1.02814 -1.6156 0
M  V30 378 H 35.8494 0.204658 -3.91265 0
M  V30 379 H 37.5464 -0.175345 -4.00616 0
M  V30 380 H 34.1364 -1.60862 -3.97268 0
M  V30 381 H 38.3204 -2.54629 -4.26002 0
M  V30 382 H 33.5764 -3.88113 -4.72418 0
M  V30 383 H 37.7504 -4.82153 -5.02496 0
M  V30 384 H 35.3774 -5.49418 -5.25399 0
M  V30 385 N 36.9525 1.47285 -0.560781 0
M  V30 386 C 38.3685 1.58065 -0.22081 0
M  V30 387 C 38.5685 1.55892 1.27671 0
M  V30 388 O 37.6245 1.46422 2.0571 0
M  V30 389 C 38.9375 2.88418 -0.850625 0
M  V30 390 C 40.4855 3.02009 -0.822184 0
M  V30 391 C 40.9605 4.35066 -1.43113 0
M  V30 392 N 42.4515 4.41711 -1.39448 0
M  V30 393 C 43.1865 5.43237 -1.83525 0
M  V30 394 N 42.6825 6.51555 -2.35474 0
M  V30 395 N 44.4755 5.34304 -1.74574 0
M  V30 396 H 36.6265 1.46941 -1.53369 0
M  V30 397 H 38.8895 0.699558 -0.639783 0
M  V30 398 H 38.5955 2.95755 -1.9032 0
M  V30 399 H 38.4695 3.75612 -0.345773 0
M  V30 400 H 40.8565 2.94266 0.221714 0
M  V30 401 H 40.9375 2.16347 -1.36483 0
M  V30 402 H 40.5815 4.43565 -2.47412 0
M  V30 403 H 40.5115 5.19465 -0.863899 0
M  V30 404 H 43.0025 3.64027 -1.01452 0
M  V30 405 H 43.3155 7.25203 -2.67021 0
M  V30 406 H 41.6605 6.52435 -2.39487 0
M  V30 407 H 44.8515 4.48581 -1.33763 0
M  V30 408 H 45.0245 6.13288 -2.09242 0
M  V30 409 N 38.4306 0.297415 1.54768 0
M  V30 410 C 39.3406 -0.58983 2.27064 0
M  V30 411 C 40.3566 -1.15144 1.30453 0
M  V30 412 O 41.5326 -1.17699 1.63428 0
M  V30 413 C 38.5976 -1.74714 2.9946 0
M  V30 414 C 37.6586 -1.21997 4.11601 0
M  V30 415 C 36.8916 -2.32212 4.80535 0
M  V30 416 O 37.1146 -3.52036 4.48806 0
M  V30 417 O 36.0486 -1.99106 5.68014 0
M  V30 418 H 39.8746 -0.00348199 3.037 0
M  V30 419 H 37.4596 0.0640035 1.49263 0
M  V30 420 H 39.3416 -2.42147 3.44881 0
M  V30 421 H 38.0166 -2.32016 2.25722 0
M  V30 422 H 36.9236 -0.511458 3.70587 0
M  V30 423 H 38.2566 -0.692419 4.87305 0
M  V30 424 N 39.9087 -1.5758 0.0250728 0
M  V30 425 C 41.1857 -1.82917 -0.692873 0
M  V30 426 C 41.5657 -0.908137 -1.90568 0
M  V30 427 O 40.9137 0.0372298 -2.2847 0
M  V30 428 C 41.1237 -3.32034 -1.07492 0
M  V30 429 C 42.4717 -3.98406 -1.46826 0
M  V30 430 O 43.4957 -3.36505 -1.16801 0
M  V30 431 O 42.3547 -5.07497 -2.02754 0
M  V30 432 H 39.4487 -0.754079 -0.33955 0
M  V30 433 H 41.9947 -1.69619 0.0524456 0
M  V30 434 H 40.7667 -3.90728 -0.211552 0
M  V30 435 H 40.3897 -3.50424 -1.87854 0
M  V30 436 N 41.3868 0.248026 -1.55636 0
M  V30 437 C 42.7978 0.817177 -1.67866 0
M  V30 438 C 43.1488 1.86069 -0.622322 0
M  V30 439 O 42.2738 2.15157 0.231618 0
M  V30 440 C 42.8688 1.489 -3.04326 0
M  V30 441 C 41.4278 2.00587 -3.185 0
M  V30 442 C 40.5748 0.856573 -2.63739 0
M  V30 443 H 43.5258 0.0238579 -1.58682 0
M  V30 444 H 43.5468 2.35698 -2.98708 0
M  V30 445 H 43.0588 0.729279 -3.81186 0
M  V30 446 H 41.1598 2.79443 -2.4646 0
M  V30 447 H 41.2728 2.20402 -4.25393 0
M  V30 448 H 39.6368 1.25678 -2.21534 0
M  V30 449 H 40.4198 0.109953 -3.43124 0
M  V30 450 N 42.8649 1.48995 0.513639 0
M  V30 451 C 44.1419 1.48338 1.27495 0
M  V30 452 C 44.5219 0.204065 2.10111 0
M  V30 453 O 43.8699 -0.813881 2.13514 0
M  V30 454 C 44.0799 2.75498 2.14247 0
M  V30 455 C 45.4279 3.24484 2.73852 0
M  V30 456 O 46.4519 2.76528 2.24523 0
M  V30 457 O 45.3109 4.07974 3.6362 0
M  V30 458 H 42.4049 0.593149 0.576284 0
M  V30 459 H 44.9509 1.61246 0.528948 0
M  V30 460 H 43.7229 3.60109 1.53092 0
M  V30 461 H 43.3459 2.6539 2.96064 0
M  V30 462 N 44.343 -0.763751 1.37857 0
M  V30 463 C 45.754 -1.3405 1.29952 0
M  V30 464 C 46.105 -1.96138 -0.0492898 0
M  V30 465 O 45.23 -1.94372 -0.951239 0
M  V30 466 C 45.825 -2.43729 2.35333 0
M  V30 467 C 44.384 -2.97151 2.31037 0
M  V30 468 C 43.531 -1.70438 2.18738 0
M  V30 469 H 46.482 -0.563396 1.48363 0
M  V30 470 H 46.503 -3.23412 2.00462 0
M  V30 471 H 46.015 -1.9851 3.33489 0
M  V30 472 H 44.116 -3.46724 1.3643 0
M  V30 473 H 44.229 -3.52221 3.24772 0
M  V30 474 H 42.593 -1.93673 1.65418 0
M  V30 475 H 43.376 -1.27312 3.18821 0
M  V30 476 N 45.8211 -1.22559 -0.990812 0
M  V30 477 C 47.2371 -0.985996 -1.255 0
M  V30 478 C 47.4371 0.319173 -1.98956 0
M  V30 479 O 46.4931 1.04127 -2.3003 0
M  V30 480 C 47.8061 -2.18607 -2.06474 0
M  V30 481 C 49.3541 -2.22985 -2.19651 0
M  V30 482 C 49.8291 -3.4255 -3.04012 0
M  V30 483 N 51.3201 -3.42725 -3.11599 0
M  V30 484 C 52.0551 -4.31892 -3.7717 0
M  V30 485 N 51.5511 -5.31279 -4.44651 0
M  V30 486 N 53.3441 -4.19662 -3.73952 0
M  V30 487 H 45.4951 -2.06469 -0.49841 0
M  V30 488 H 47.7581 -0.904853 -0.282747 0
M  V30 489 H 47.4641 -3.13267 -1.59865 0
M  V30 490 H 47.3381 -2.18838 -3.07229 0
M  V30 491 H 49.7251 -1.28871 -2.65474 0
M  V30 492 H 49.8061 -2.26791 -1.18319 0
M  V30 493 H 49.4501 -4.36965 -2.58889 0
M  V30 494 H 49.3801 -3.35984 -4.0549 0
M  V30 495 H 51.8711 -2.70807 -2.63575 0
M  V30 496 H 52.1841 -5.95593 -4.92431 0
M  V30 497 H 50.5291 -5.3519 -4.43392 0
M  V30 498 H 53.7201 -3.41268 -3.20396 0
M  V30 499 H 53.8931 -4.89358 -4.24774 0
M  V30 500 N 47.2992 1.18797 -1.03562 0
M  V30 501 C 48.2462 2.22253 -0.622259 0
M  V30 502 C 49.2162 1.61987 0.36736 0
M  V30 503 O 50.4012 1.88986 0.262492 0
M  V30 504 C 47.5412 3.45097 0.0138462 0
M  V30 505 C 46.6542 4.19722 -1.02263 0
M  V30 506 C 45.7892 5.30009 -0.355573 0
M  V30 507 C 44.8282 5.96399 -1.37749 0
M  V30 508 N 43.9652 6.98234 -0.735766 0
M  V30 509 H 48.8052 2.56968 -1.50903 0
M  V30 510 H 46.3422 1.26245 -0.755017 0
M  V30 511 H 48.3002 4.15279 0.399948 0
M  V30 512 H 46.9302 3.11018 0.864158 0
M  V30 513 H 45.9822 3.48418 -1.52673 0
M  V30 514 H 47.2942 4.65227 -1.79903 0
M  V30 515 H 46.4482 6.0664 0.0850095 0
M  V30 516 H 45.1872 4.85592 0.452967 0
M  V30 517 H 44.1922 5.18512 -1.82826 0
M  V30 518 H 45.4172 6.42899 -2.18764 0
M  V30 519 H 43.3632 6.55979 0.0525597 0
M  V30 520 H 43.2802 7.41965 -1.44995 0
M  V30 521 H 44.5482 7.78845 -0.31941 0
M  V30 522 N 48.7773 0.814389 1.34928 0
M  V30 523 C 50.0233 0.399013 1.98836 0
M  V30 524 C 50.3563 -1.03314 1.64438 0
M  V30 525 O 49.6313 -1.71811 0.911659 0
M  V30 526 C 49.9143 0.591629 3.55207 0
M  V30 527 C 49.7673 2.06928 3.99376 0
M  V30 528 C 51.0863 0.022199 4.40094 0
M  V30 529 H 48.2053 0.146451 0.722303 0
M  V30 530 H 50.8473 1.02537 1.59957 0
M  V30 531 H 48.9973 0.0584441 3.88456 0
M  V30 532 H 50.6693 2.66544 3.76499 0
M  V30 533 H 48.9123 2.56287 3.49999 0
M  V30 534 H 49.5833 2.1549 5.08201 0
M  V30 535 H 52.0593 0.477643 4.13349 0
M  V30 536 H 50.9353 0.186832 5.48582 0
M  V30 537 H 51.1963 -1.07215 4.28902 0
M  V30 538 N 50.2554 -1.46986 0.568584 0
M  V30 539 C 51.2034 -2.31858 -0.185649 0
M  V30 540 C 52.1974 -1.43624 -0.898249 0
M  V30 541 O 53.4034 -1.60327 -0.818242 0
M  V30 542 H 49.7784 -0.747866 -0.0787399 0
M  V30 543 H 51.7494 -2.93303 0.549191 0
M  V30 544 C 50.4984 -3.26513 -1.19519 0
M  V30 545 H 49.8214 -3.94377 -0.656285 0
M  V30 546 H 51.2614 -3.88707 -1.6936 0
M  V30 547 C 49.7204 -2.50847 -2.24894 0
M  V30 548 O 50.2504 -2.26119 -3.32014 0
M  V30 549 N 48.4564 -2.11656 -1.99124 0
M  V30 550 H 48.0034 -2.31966 -1.12024 0
M  V30 551 H 47.9614 -1.61347 -2.69842 0
M  V30 552 N 51.7335 -0.305618 -1.54608 0
M  V30 553 C 52.6635 0.561482 -2.26649 0
M  V30 554 C 53.6445 1.13415 -1.26772 0
M  V30 555 O 54.8295 1.16262 -1.55553 0
M  V30 556 C 51.9595 1.73122 -3.01075 0
M  V30 557 C 50.9135 1.2887 -4.08138 0
M  V30 558 C 50.2395 2.54396 -4.70305 0
M  V30 559 C 51.5395 0.416578 -5.20636 0
M  V30 560 H 53.2335 -0.0393902 -2.99374 0
M  V30 561 H 50.7795 -0.020385 -1.43986 0
M  V30 562 H 52.7325 2.34396 -3.50195 0
M  V30 563 H 51.4565 2.3584 -2.25936 0
M  V30 564 H 50.1155 0.698991 -3.59875 0
M  V30 565 H 49.7635 3.15439 -3.918 0
M  V30 566 H 49.4635 2.25486 -5.42614 0
M  V30 567 H 50.9875 3.16464 -5.2219 0
M  V30 568 H 52.4015 0.935116 -5.65622 0
M  V30 569 H 50.7985 0.221046 -5.99693 0
M  V30 570 H 51.8685 -0.557162 -4.81688 0
M  V30 571 N 53.2116 1.57565 -0.0334293 0
M  V30 572 C 54.4596 1.91598 0.642999 0
M  V30 573 C 54.7806 0.910847 1.7242 0
M  V30 574 O 54.0506 -0.0469931 1.95844 0
M  V30 575 H 52.6306 0.707228 0.240496 0
M  V30 576 H 55.2926 1.94726 -0.0822488 0
M  V30 577 H 54.3886 2.92336 1.09298 0
M  V30 578 N 54.6897 -0.239769 1.55765 0
M  V30 579 C 55.9357 -0.968234 1.78194 0
M  V30 580 C 56.2687 -1.84701 0.599938 0
M  V30 581 O 55.5437 -1.9031 -0.401524 0
M  V30 582 C 55.8267 -1.8227 3.10564 0
M  V30 583 C 55.6797 -0.971633 4.3918 0
M  V30 584 C 56.9987 -2.80388 3.39221 0
M  V30 585 H 54.1177 -0.350572 0.648281 0
M  V30 586 H 56.7597 -0.238259 1.885 0
M  V30 587 H 54.9097 -2.44507 3.01908 0
M  V30 588 H 56.5817 -0.367408 4.59835 0
M  V30 589 H 54.8247 -0.276276 4.32919 0
M  V30 590 H 55.4957 -1.60346 5.28198 0
M  V30 591 H 57.9717 -2.28287 3.47885 0
M  V30 592 H 56.8477 -3.3729 4.33044 0
M  V30 593 H 57.1087 -3.57212 2.60484 0
M  V30 594 N 56.1678 -1.49265 -0.50573 0
M  V30 595 C 57.4158 -1.582 -1.25766 0
M  V30 596 C 57.7368 -0.268482 -1.93143 0
M  V30 597 O 57.0068 0.711833 -1.8251 0
M  V30 598 H 55.5868 -0.582873 -0.467191 0
M  V30 599 H 58.2488 -1.85865 -0.586525 0
M  V30 600 H 57.3448 -2.37563 -2.02412 0
M  V30 601 N 57.6459 0.756429 -1.3826 0
M  V30 602 C 58.6089 1.85176 -1.35065 0
M  V30 603 C 59.6089 1.58818 -0.251703 0
M  V30 604 O 60.7989 1.66615 -0.508433 0
M  V30 605 C 57.9309 3.22596 -1.10201 0
M  V30 606 H 59.1239 1.89417 -2.3251 0
M  V30 607 H 56.6769 0.95783 -1.23512 0
M  V30 608 H 57.4119 3.24025 -0.133504 0
M  V30 609 H 57.1969 3.43122 -1.89762 0
M  V30 610 H 58.6869 4.02673 -1.10654 0
M  V30 611 N 59.124 1.23083 0.984299 0
M  V30 612 C 60.354 1.08556 1.75781 0
M  V30 613 C 60.762 -0.366171 1.85623 0
M  V30 614 O 60.105 -1.26524 1.33182 0
M  V30 615 C 60.167 1.63208 3.20318 0
M  V30 616 C 59.831 3.11922 3.33997 0
M  V30 617 C 60.828 4.09259 3.2063 0
M  V30 618 C 58.513 3.51552 3.58771 0
M  V30 619 C 60.507 5.4421 3.31835 0
M  V30 620 C 58.194 4.86649 3.69616 0
M  V30 621 C 59.192 5.82787 3.56157 0
M  V30 622 O 58.88 7.15431 3.66626 0
M  V30 623 H 58.612 0.380713 0.5586 0
M  V30 624 H 61.166 1.63321 1.2456 0
M  V30 625 H 59.396 1.0286 3.72769 0
M  V30 626 H 61.085 1.44216 3.79416 0
M  V30 627 H 61.851 3.79984 3.01392 0
M  V30 628 H 57.73 2.77239 3.6832 0
M  V30 629 H 61.274 6.1923 3.21247 0
M  V30 630 H 57.171 5.15601 3.88363 0
M  V30 631 H 57.939 7.23127 3.83445 0
M  V30 632 N 60.6021 -1.18246 1.0419 0
M  V30 633 C 62.0181 -1.40269 0.761366 0
M  V30 634 C 62.2181 -1.90777 -0.648578 0
M  V30 635 O 61.2741 -2.0929 -1.41258 0
M  V30 636 C 62.5871 -2.40237 1.8085 0
M  V30 637 C 64.1351 -2.53961 1.82955 0
M  V30 638 C 64.6101 -3.57194 2.86664 0
M  V30 639 N 66.1011 -3.64702 2.85563 0
M  V30 640 C 66.8361 -4.44309 3.6246 0
M  V30 641 N 66.3321 -5.27514 4.49111 0
M  V30 642 N 68.1251 -4.39084 3.50944 0
M  V30 643 H 60.2761 -0.837882 1.95175 0
M  V30 644 H 62.5391 -0.430608 0.84456 0
M  V30 645 H 62.2451 -2.10176 2.81991 0
M  V30 646 H 62.1191 -3.39601 1.64168 0
M  V30 647 H 64.5061 -2.83338 0.824855 0
M  V30 648 H 64.5871 -1.54706 2.03715 0
M  V30 649 H 64.2311 -3.28558 3.87314 0
M  V30 650 H 64.1611 -4.5613 2.6316 0
M  V30 651 H 66.6521 -3.05289 2.22727 0
M  V30 652 H 66.9651 -5.85411 5.04493 0
M  V30 653 H 65.3101 -5.2693 4.53178 0
M  V30 654 H 68.5011 -3.7313 2.82651 0
M  V30 655 H 68.6741 -5.00883 4.11121 0
M  V30 656 N 62.0802 -0.821533 -1.34494 0
M  V30 657 C 63.3082 -0.421884 -2.02553 0
M  V30 658 C 63.7232 0.971745 -1.61872 0
M  V30 659 O 63.0802 1.62864 -0.823496 0
M  V30 660 C 63.1312 -0.51285 -3.57844 0
M  V30 661 O 62.8522 -1.85155 -3.97051 0
M  V30 662 C 64.3532 -0.107921 -4.43169 0
M  V30 663 H 61.5732 -0.169482 -0.649243 0
M  V30 664 H 64.1172 -1.1093 -1.71798 0
M  V30 665 H 62.2722 0.126474 -3.87193 0
M  V30 666 H 62.6862 -1.82482 -4.91732 0
M  V30 667 H 64.1602 -0.222657 -5.51551 0
M  V30 668 H 64.6372 0.948401 -4.28838 0
M  V30 669 H 65.2432 -0.720989 -4.19144 0
M  V30 670 N 63.5583 1.46682 -0.576371 0
M  V30 671 C 64.8353 1.95599 0.00703437 0
M  V30 672 C 65.2153 1.51904 1.46589 0
M  V30 673 O 64.5633 0.766755 2.15251 0
M  V30 674 C 64.7733 3.4864 -0.158404 0
M  V30 675 C 66.1213 4.24594 -0.0229439 0
M  V30 676 O 67.1453 3.56094 -0.0869173 0
M  V30 677 O 66.0043 5.46373 0.118015 0
M  V30 678 H 63.0983 0.825275 0.053384 0
M  V30 679 H 65.6443 1.56996 -0.644244 0
M  V30 680 H 64.4163 3.7331 -1.17282 0
M  V30 681 H 64.0393 3.94057 0.5296 0
M  V30 682 N 65.0364 0.313813 1.54444 0
M  V30 683 C 66.3134 -0.345447 1.92525 0
M  V30 684 C 66.6934 -1.70667 1.24242 0
M  V30 685 O 66.0414 -2.25273 0.382654 0
M  V30 686 C 66.2514 -0.44737 3.46121 0
M  V30 687 C 67.5994 -0.712238 4.18584 0
M  V30 688 O 68.6234 -0.530678 3.52225 0
M  V30 689 O 67.4824 -1.06183 5.36085 0
M  V30 690 H 64.5764 -0.195407 0.803583 0
M  V30 691 H 67.1224 0.362813 1.65776 0
M  V30 692 H 65.8944 0.509043 3.87975 0
M  V30 693 H 65.5174 -1.20359 3.78945 0
M  V30 694 N 66.5145 -1.57545 0.0417849 0
M  V30 695 C 67.7545 -1.94185 -0.63809 0
M  V30 696 C 68.1185 -0.919339 -1.68559 0
M  V30 697 O 69.3195 -1.17236 -2.41886 0
M  V30 698 C 67.5905 -3.35672 -1.22714 0
M  V30 699 S 69.1495 -3.94256 -1.92633 0
M  V30 700 H 65.9675 -0.679353 -0.209764 0
M  V30 701 H 68.5695 -1.95199 0.108479 0
M  V30 702 H 67.2735 -4.07898 -0.452503 0
M  V30 703 H 66.8045 -3.38132 -2.01073 0
M  V30 704 H 68.8195 -3.7872 -3.20602 0
M  V30 705 N 67.9926 0.231505 -1.5589 0
M  V30 706 C 68.9426 1.29007 -1.87993 0
M  V30 707 C 69.9266 1.42764 -0.742102 0
M  V30 708 O 71.1186 1.45747 -1.00433 0
M  V30 709 C 68.2476 2.6425 -2.1915 0
M  V30 710 C 67.3336 2.54435 -3.39299 0
M  V30 711 N 67.7246 2.14262 -4.58176 0
M  V30 712 C 66.0226 2.85416 -3.42715 0
M  V30 713 C 66.7236 2.15455 -5.40328 0
M  V30 714 N 65.6996 2.55558 -4.79783 0
M  V30 715 H 69.5016 0.970213 -2.77424 0
M  V30 716 H 67.0156 0.440097 -1.56323 0
M  V30 717 H 69.0126 3.40665 -2.40319 0
M  V30 718 H 67.6726 2.9709 -1.31025 0
M  V30 719 H 68.6836 1.85554 -4.83518 0
M  V30 720 H 65.3606 3.22693 -2.64906 0
M  V30 721 H 66.7506 1.86605 -6.45467 0
M  V30 722 N 69.4707 1.49531 0.497807 0
M  V30 723 C 70.8817 1.52344 1.07927 0
M  V30 724 C 71.2327 0.311469 1.93712 0
M  V30 725 O 70.3577 -0.578405 2.08527 0
M  V30 726 C 70.9527 2.76062 1.96405 0
M  V30 727 C 69.5117 2.81643 2.49709 0
M  V30 728 C 68.6587 2.46299 1.27404 0
M  V30 729 H 71.6097 1.56182 0.281576 0
M  V30 730 H 71.6307 2.56405 2.81135 0
M  V30 731 H 71.1427 3.64254 1.33943 0
M  V30 732 H 69.2437 1.97739 3.15801 0
M  V30 733 H 69.3567 3.83891 2.86643 0
M  V30 734 H 67.7207 1.98148 1.60029 0
M  V30 735 H 68.5037 3.36769 0.66645 0
M  V30 736 N 70.9488 -0.749086 1.3866 0
M  V30 737 C 72.1948 -1.50959 1.36319 0
M  V30 738 C 72.5498 -1.92347 -0.0452451 0
M  V30 739 O 71.8428 -1.6289 -1.00884 0
M  V30 740 C 72.0368 -2.7712 2.25697 0
M  V30 741 C 71.8658 -2.48067 3.7509 0
M  V30 742 C 70.6358 -2.41062 4.44091 0
M  V30 743 C 72.8338 -2.14544 4.67414 0
M  V30 744 N 70.8158 -2.04331 5.78897 0
M  V30 745 C 72.1868 -1.88141 5.90765 0
M  V30 746 C 74.2418 -2.00892 4.55573 0
M  V30 747 C 72.9448 -1.49463 7.036 0
M  V30 748 C 74.9708 -1.63616 5.68317 0
M  V30 749 C 74.3328 -1.38088 6.90732 0
M  V30 750 H 70.4318 -0.551804 0.554108 0
M  V30 751 H 73.0158 -0.871886 1.74087 0
M  V30 752 H 71.1868 -3.38693 1.9011 0
M  V30 753 H 72.9188 -3.4321 2.1445 0
M  V30 754 H 69.6738 -2.57685 3.9736 0
M  V30 755 H 70.0978 -1.88598 6.502 0
M  V30 756 H 74.7398 -2.19301 3.61479 0
M  V30 757 H 72.4578 -1.29794 7.97608 0
M  V30 758 H 76.0438 -1.53678 5.61137 0
M  V30 759 H 74.9238 -1.09674 7.76493 0
M  V30 760 N 72.4269 -1.23603 -0.977757 0
M  V30 761 C 73.6729 -1.07129 -1.72195 0
M  V30 762 C 74.0059 0.390501 -1.90233 0
M  V30 763 O 73.2809 1.28902 -1.45653 0
M  V30 764 C 73.5639 -1.80031 -3.11867 0
M  V30 765 C 73.4169 -3.33899 -3.01383 0
M  V30 766 C 74.7359 -1.56492 -4.11337 0
M  V30 767 H 71.8549 -0.390571 -0.624999 0
M  V30 768 H 74.4969 -1.52142 -1.13811 0
M  V30 769 H 72.6469 -1.41768 -3.6171 0
M  V30 770 H 74.3189 -3.81699 -2.59043 0
M  V30 771 H 72.5619 -3.62796 -2.37827 0
M  V30 772 H 73.2329 -3.801 -4.00285 0
M  V30 773 H 75.7089 -1.89757 -3.70313 0
M  V30 774 H 74.5849 -2.09973 -5.07151 0
M  V30 775 H 74.8459 -0.500874 -4.39254 0
M  V30 776 N 73.905 1.17692 -1.04816 0
M  V30 777 C 74.835 2.23777 -0.666791 0
M  V30 778 C 75.816 1.66796 0.33361 0
M  V30 779 O 77.001 1.93039 0.212042 0
M  V30 780 C 74.131 3.47281 -0.0367933 0
M  V30 781 C 73.085 4.17059 -0.961546 0
M  V30 782 C 72.411 5.34342 -0.195626 0
M  V30 783 C 73.711 4.69713 -2.28402 0
M  V30 784 H 75.405 2.55933 -1.55367 0
M  V30 785 H 72.951 1.23019 -0.748484 0
M  V30 786 H 74.904 4.20706 0.241775 0
M  V30 787 H 73.628 3.14381 0.885004 0
M  V30 788 H 72.287 3.45541 -1.22462 0
M  V30 789 H 71.935 4.97692 0.728816 0
M  V30 790 H 71.635 5.81966 -0.811775 0
M  V30 791 H 73.159 6.10553 0.0757473 0
M  V30 792 H 74.573 5.34794 -2.06563 0
M  V30 793 H 72.97 5.279 -2.8538 0
M  V30 794 H 74.04 3.86726 -2.92525 0
M  V30 795 N 75.3831 0.828654 1.34056 0
M  V30 796 C 76.7941 0.477534 1.8049 0
M  V30 797 C 77.1451 -1.00258 1.6865 0
M  V30 798 O 76.2701 -1.78057 1.22982 0
M  V30 799 C 76.8651 0.860018 3.27703 0
M  V30 800 C 75.4241 0.561185 3.72193 0
M  V30 801 C 74.5711 1.07385 2.55663 0
M  V30 802 H 77.5221 1.0183 1.21722 0
M  V30 803 H 77.5431 0.166038 3.80138 0
M  V30 804 H 77.0551 1.93731 3.36288 0
M  V30 805 H 75.1561 -0.506465 3.69142 0
M  V30 806 H 75.2691 1.10926 4.66082 0
M  V30 807 H 73.6331 0.495149 2.49841 0
M  V30 808 H 74.4161 2.15771 2.67016 0
M  V30 809 N 76.8612 -1.46375 0.584142 0
M  V30 810 C 78.1072 -2.02678 0.0703716 0
M  V30 811 C 78.4402 -1.4545 -1.28678 0
M  V30 812 O 77.7152 -0.62014 -1.84349 0
M  V30 813 C 77.9982 -3.60099 0.00614674 0
M  V30 814 C 77.8512 -4.27709 1.3923 0
M  V30 815 C 79.1702 -4.34598 -0.693742 0
M  V30 816 H 76.2892 -0.736504 0.027047 0
M  V30 817 H 78.9312 -1.74501 0.751615 0
M  V30 818 H 77.0812 -3.84236 -0.574009 0
M  V30 819 H 78.7532 -4.14832 2.01773 0
M  V30 820 H 76.9962 -3.87016 1.95962 0
M  V30 821 H 77.6672 -5.36478 1.29982 0
M  V30 822 H 80.1432 -4.15615 -0.200869 0
M  V30 823 H 79.0192 -5.44318 -0.707714 0
M  V30 824 H 79.2802 -4.05759 -1.75533 0
M  V30 825 N 78.3393 -0.321999 -1.54275 0
M  V30 826 C 79.5853 0.281461 -2.00837 0
M  V30 827 C 79.9183 1.51909 -1.20985 0
M  V30 828 O 79.1933 1.923 -0.291733 0
M  V30 829 C 79.4763 0.617162 -3.54772 0
M  V30 830 C 79.3293 -0.631064 -4.45351 0
M  V30 831 C 80.6483 1.43542 -4.16033 0
M  V30 832 H 77.7673 0.100826 -0.730071 0
M  V30 833 H 80.4093 -0.438268 -1.84876 0
M  V30 834 H 78.5593 1.23034 -3.68504 0
M  V30 835 H 80.2313 -1.26934 -4.43492 0
M  V30 836 H 78.4743 -1.26025 -4.15091 0
M  V30 837 H 79.1453 -0.351735 -5.50878 0
M  V30 838 H 81.6213 0.917134 -4.05867 0
M  V30 839 H 80.4973 1.63907 -5.23856 0
M  V30 840 H 80.7583 2.43108 -3.69257 0
M  V30 841 N 79.8174 1.5752 -0.0501392 0
M  V30 842 C 80.7644 2.1147 0.924603 0
M  V30 843 C 81.7344 1.02182 1.30951 0
M  V30 844 O 82.9194 1.29723 1.39916 0
M  V30 845 C 80.0594 2.66337 2.19451 0
M  V30 846 C 79.1724 3.89708 1.86418 0
M  V30 847 C 78.3074 4.32893 3.07859 0
M  V30 848 C 77.3464 5.48967 2.70742 0
M  V30 849 N 76.4834 5.87211 3.84874 0
M  V30 850 H 81.3234 2.94465 0.457639 0
M  V30 851 H 78.8604 1.45531 0.214266 0
M  V30 852 H 80.8184 2.96247 2.93758 0
M  V30 853 H 79.4484 1.86141 2.63726 0
M  V30 854 H 78.5004 3.66396 1.02264 0
M  V30 855 H 79.8124 4.74074 1.55096 0
M  V30 856 H 78.9664 4.6435 3.90466 0
M  V30 857 H 77.7054 3.47336 3.42358 0
M  V30 858 H 76.7104 5.17183 1.86551 0
M  V30 859 H 77.9354 6.3624 2.37436 0
M  V30 860 H 75.8814 5.04607 4.19175 0
M  V30 861 H 75.7984 6.66266 3.57247 0
M  V30 862 H 77.0664 6.23282 4.68123 0
M  V30 863 N 81.2955 -0.223234 1.56011 0
M  V30 864 C 82.2425 -1.27664 1.92277 0
M  V30 865 C 83.2125 -1.46659 0.779763 0
M  V30 866 O 84.3975 -1.60256 1.03551 0
M  V30 867 C 81.5375 -2.62234 2.24338 0
M  V30 868 C 80.6505 -2.51051 3.51564 0
M  V30 869 C 79.7855 -3.78133 3.7308 0
M  V30 870 C 78.8245 -3.61665 4.93827 0
M  V30 871 N 77.9615 -4.80693 5.11741 0
M  V30 872 H 82.8015 -0.960358 2.82101 0
M  V30 873 H 80.3385 -0.462901 1.39627 0
M  V30 874 H 82.2965 -3.40596 2.40936 0
M  V30 875 H 80.9265 -2.91961 1.3769 0
M  V30 876 H 79.9785 -1.64132 3.43169 0
M  V30 877 H 81.2905 -2.34803 4.40079 0
M  V30 878 H 80.4445 -4.64938 3.89766 0
M  V30 879 H 79.1835 -3.97304 2.82844 0
M  V30 880 H 78.1885 -2.73244 4.77093 0
M  V30 881 H 79.4135 -3.43966 5.85546 0
M  V30 882 H 77.3595 -5.00181 4.24446 0
M  V30 883 H 77.2765 -4.67165 5.94384 0
M  V30 884 H 78.5445 -5.6893 5.3286 0
M  V30 885 N 82.7736 -1.49793 -0.48987 0
M  V30 886 C 84.0196 -1.60078 -1.24511 0
M  V30 887 C 84.3526 -0.291608 -1.91998 0
M  V30 888 O 83.6276 0.705647 -1.81248 0
M  V30 889 C 83.9106 -2.76791 -2.30345 0
M  V30 890 C 83.7636 -4.17535 -1.67286 0
M  V30 891 C 85.0826 -2.89111 -3.31817 0
M  V30 892 H 82.2016 -0.582645 -0.451324 0
M  V30 893 H 84.8436 -1.82117 -0.541612 0
M  V30 894 H 82.9936 -2.5813 -2.90346 0
M  V30 895 H 84.6656 -4.4774 -1.11026 0
M  V30 896 H 82.9086 -4.22665 -0.976577 0
M  V30 897 H 83.5796 -4.95094 -2.44103 0
M  V30 898 H 86.0556 -3.06133 -2.81819 0
M  V30 899 H 84.9316 -3.72433 -4.03219 0
M  V30 900 H 85.1926 -1.9893 -3.94815 0
M  V30 901 N 84.2517 0.741722 -1.39055 0
M  V30 902 C 85.1617 1.88621 -1.39496 0
M  V30 903 C 86.1777 1.71557 -0.290578 0
M  V30 904 O 87.3537 1.94275 -0.530954 0
M  V30 905 C 84.4187 3.24134 -1.23037 0
M  V30 906 C 83.4797 3.5364 -2.43387 0
M  V30 907 C 82.7127 4.82687 -2.27703 0
M  V30 908 O 82.9357 5.55922 -1.27696 0
M  V30 909 O 81.8697 5.1194 -3.16545 0
M  V30 910 H 85.6957 1.91203 -2.35956 0
M  V30 911 H 83.2807 0.888625 -1.20099 0
M  V30 912 H 85.1627 4.0513 -1.15964 0
M  V30 913 H 83.8377 3.22337 -0.296691 0
M  V30 914 H 82.7447 2.72758 -2.56035 0
M  V30 915 H 84.0777 3.60209 -3.35425 0
M  V30 916 N 85.7298 1.2412 0.971189 0
M  V30 917 C 86.6618 0.988349 2.06795 0
M  V30 918 C 87.6748 -0.0409541 1.62748 0
M  V30 919 O 88.8638 0.195673 1.77424 0
M  V30 920 C 85.9638 0.469023 3.35639 0
M  V30 921 C 85.1368 1.56065 4.08611 0
M  V30 922 C 84.1958 1.04458 5.15728 0
M  V30 923 O 83.2218 1.73553 5.42096 0
M  V30 924 N 84.4238 -0.122817 5.8037 0
M  V30 925 H 87.1888 1.93265 2.29061 0
M  V30 926 H 84.7498 1.15102 1.13856 0
M  V30 927 H 86.7418 0.108613 4.04554 0
M  V30 928 H 85.3118 -0.380919 3.1027 0
M  V30 929 H 84.5318 2.09341 3.34021 0
M  V30 930 H 85.8198 2.29449 4.54126 0
M  V30 931 H 85.2178 -0.700563 5.61345 0
M  V30 932 H 83.7748 -0.424404 6.50417 0
M  V30 933 N 87.2079 -1.17134 1.05439 0
M  V30 934 C 88.1549 -2.21235 0.657539 0
M  V30 935 C 89.1249 -1.62551 -0.341543 0
M  V30 936 O 90.3099 -1.89379 -0.232393 0
M  V30 937 C 87.4499 -3.45076 0.0410575 0
M  V30 938 C 86.5629 -4.18042 1.08927 0
M  V30 939 C 85.6979 -5.29376 0.439848 0
M  V30 940 C 84.7369 -5.94132 1.4722 0
M  V30 941 N 83.8739 -6.96975 0.846756 0
M  V30 942 H 88.7139 -2.54534 1.54972 0
M  V30 943 H 86.2509 -1.25028 0.775006 0
M  V30 944 H 88.2089 -4.15862 -0.33383 0
M  V30 945 H 86.8389 -3.12353 -0.814568 0
M  V30 946 H 85.8909 -3.45945 1.58196 0
M  V30 947 H 87.2029 -4.62306 1.87282 0
M  V30 948 H 86.3569 -6.06699 0.0115125 0
M  V30 949 H 85.0959 -4.86251 -0.375656 0
M  V30 950 H 84.1009 -5.15538 1.91052 0
M  V30 951 H 85.3259 -6.39337 2.28965 0
M  V30 952 H 83.2719 -6.5598 0.0518075 0
M  V30 953 H 83.1889 -7.39565 1.5678 0
M  V30 954 H 84.4569 -7.78239 0.443277 0
M  V30 955 N 88.686 -0.835752 -1.33615 0
M  V30 956 C 89.935 -0.426289 -1.97144 0
M  V30 957 C 90.248 1.01912 -1.66953 0
M  V30 958 O 91.454 1.53311 -2.24072 0
M  V30 959 C 89.91 -0.711321 -3.52801 0
M  V30 960 C 89.518 -2.1712 -3.91871 0
M  V30 961 C 91.262 -0.368654 -4.22896 0
M  V30 962 C 89.169 -2.40044 -5.40493 0
M  V30 963 H 88.099 -0.15567 -0.737755 0
M  V30 964 H 90.75 -1.0239 -1.52278 0
M  V30 965 H 89.132 -0.0433766 -3.95976 0
M  V30 966 H 90.306 -2.87936 -3.59763 0
M  V30 967 H 88.621 -2.47654 -3.34749 0
M  V30 968 H 91.218 -0.517601 -5.32189 0
M  V30 969 H 91.561 0.688078 -4.10574 0
M  V30 970 H 92.094 -0.991702 -3.8524 0
M  V30 971 H 88.833 -3.44271 -5.57815 0
M  V30 972 H 88.353 -1.73785 -5.74072 0
M  V30 973 H 90.032 -2.23042 -6.0734 0
M  V30 974 N 90.1641 1.46063 -0.591896 0
M  V30 975 C 91.1271 2.28854 0.125973 0
M  V30 976 C 92.1271 1.38903 0.810107 0
M  V30 977 O 93.3171 1.61186 0.66066 0
M  V30 978 C 90.4491 3.19526 1.1881 0
M  V30 979 H 91.6421 2.93802 -0.601717 0
M  V30 980 H 89.1951 1.52325 -0.350254 0
M  V30 981 H 89.9301 2.59345 1.94707 0
M  V30 982 H 89.7151 3.85766 0.701936 0
M  V30 983 H 91.2051 3.81817 1.69132 0
M  V30 984 N 91.6422 0.330177 1.54103 0
M  V30 985 C 92.5902 -0.548226 2.26047 0
M  V30 986 C 93.5842 -1.11309 1.27698 0
M  V30 987 O 94.7902 -1.06036 1.45452 0
M  V30 988 H 91.1652 -0.195456 0.726155 0
M  V30 989 H 93.1362 0.0807567 2.98291 0
M  V30 990 C 91.8852 -1.69415 3.03634 0
M  V30 991 H 91.2082 -1.26876 3.79134 0
M  V30 992 H 92.6482 -2.28423 3.5721 0
M  V30 993 C 91.1072 -2.61569 2.12328 0
M  V30 994 O 91.6372 -3.63462 1.7105 0
M  V30 995 N 89.8432 -2.29952 1.77681 0
M  V30 996 H 89.3902 -1.47134 2.11446 0
M  V30 997 H 89.3482 -2.91871 1.16869 0
M  V30 998 N 93.1203 -1.57491 0.0584922 0
M  V30 999 C 94.3973 -1.84346 -0.653918 0
M  V30 1000 C 94.7773 -0.948355 -1.88599 0
M  V30 1001 O 94.1253 -0.0112403 -2.28497 0
M  V30 1002 C 94.3353 -3.34239 -1.00425 0
M  V30 1003 C 95.6833 -4.01431 -1.38342 0
M  V30 1004 O 96.7073 -3.38907 -1.09637 0
M  V30 1005 O 95.5663 -5.11683 -1.91943 0
M  V30 1006 H 92.6603 -0.761112 -0.323478 0
M  V30 1007 H 95.2063 -1.6947 0.0884125 0
M  V30 1008 H 93.9783 -3.91089 -0.128625 0
M  V30 1009 H 93.6013 -3.54329 -1.80378 0
M  V30 1010 N 94.5984 0.214957 -1.56127 0
M  V30 1011 C 95.5464 1.28601 -1.93816 0
M  V30 1012 C 96.5404 1.48175 -0.821016 0
M  V30 1013 O 97.7464 1.49271 -1.0059 0
M  V30 1014 H 94.1214 0.431302 -0.616022 0
M  V30 1015 H 96.0924 0.940991 -2.83175 0
M  V30 1016 C 94.8414 2.62779 -2.27689 0
M  V30 1017 H 94.1644 2.48527 -3.13168 0
M  V30 1018 H 95.6044 3.36517 -2.57939 0
M  V30 1019 C 94.0634 3.18285 -1.10436 0
M  V30 1020 O 94.5934 4.00002 -0.368945 0
M  V30 1021 N 92.7994 2.7675 -0.886433 0
M  V30 1022 H 92.3464 2.10404 -1.48619 0
M  V30 1023 H 92.3044 3.14229 -0.103656 0
M  V30 1024 N 96.0765 1.50051 0.48192 0
M  V30 1025 C 97.3015 1.64508 1.26301 0
M  V30 1026 C 97.7265 0.323851 1.85291 0
M  V30 1027 O 97.0845 -0.710969 1.66778 0
M  V30 1028 C 97.1325 2.7305 2.35533 0
M  V30 1029 O 96.2365 2.3355 3.39895 0
M  V30 1030 H 95.5775 0.549978 0.372048 0
M  V30 1031 H 98.1075 1.9636 0.574786 0
M  V30 1032 H 98.1175 2.95799 2.8101 0
M  V30 1033 H 96.7925 3.68946 1.91967 0
M  V30 1034 H 95.3695 2.21205 3.00204 0
M  V30 1035 N 97.5546 -0.734337 1.39446 0
M  V30 1036 C 98.4846 -1.86155 1.40955 0
M  V30 1037 C 99.4656 -1.67898 0.272827 0
M  V30 1038 O 100.651 -1.88207 0.478743 0
M  V30 1039 C 97.7806 -3.23912 1.25294 0
M  V30 1040 C 96.7346 -3.56808 2.36373 0
M  V30 1041 C 96.0606 -4.93508 2.058 0
M  V30 1042 C 97.3606 -3.59713 3.78687 0
M  V30 1043 H 99.0546 -1.8515 2.35287 0
M  V30 1044 H 96.6006 -0.889367 1.13253 0
M  V30 1045 H 98.5536 -4.02443 1.2497 0
M  V30 1046 H 97.2776 -3.25446 0.274308 0
M  V30 1047 H 95.9366 -2.80606 2.35914 0
M  V30 1048 H 95.5846 -4.91623 1.06374 0
M  V30 1049 H 95.2846 -5.16486 2.80208 0
M  V30 1050 H 96.8086 -5.74396 2.07128 0
M  V30 1051 H 98.2226 -4.2832 3.81071 0
M  V30 1052 H 96.6196 -3.94209 4.52459 0
M  V30 1053 H 97.6896 -2.59504 4.09617 0
M  V30 1054 N 99.0327 -1.24633 -0.964593 0
M  V30 1055 C 99.9807 -1.03917 -2.08096 0
M  V30 1056 C 100.975 0.0268581 -1.69379 0
M  V30 1057 O 102.181 -0.127952 -1.79545 0
M  V30 1058 H 98.5557 -0.319044 -0.680966 0
M  V30 1059 H 100.527 -1.98581 -2.22729 0
M  V30 1060 C 99.2757 -0.663983 -3.41301 0
M  V30 1061 H 98.5987 -1.47605 -3.71555 0
M  V30 1062 H 100.039 -0.558663 -4.20303 0
M  V30 1063 C 98.4977 0.629169 -3.30973 0
M  V30 1064 O 99.0277 1.67404 -3.65156 0
M  V30 1065 N 97.2337 0.611057 -2.84103 0
M  V30 1066 H 96.7807 -0.239593 -2.56483 0
M  V30 1067 H 96.7387 1.47647 -2.77575 0
M  V30 1068 N 100.511 1.16574 -1.06058 0
M  V30 1069 C 101.461 2.18854 -0.63929 0
M  V30 1070 C 102.445 1.57505 0.328798 0
M  V30 1071 O 103.637 1.76408 0.144623 0
M  V30 1072 C 100.766 3.43291 -0.0247203 0
M  V30 1073 C 99.8518 4.11722 -1.01716 0
M  V30 1074 N 100.243 4.55841 -2.19186 0
M  V30 1075 C 98.5408 4.37872 -0.847569 0
M  V30 1076 C 99.2418 5.08751 -2.82042 0
M  V30 1077 N 98.2178 5.01489 -2.09784 0
M  V30 1078 H 102.02 2.5068 -1.53417 0
M  V30 1079 H 99.5338 1.32999 -0.931935 0
M  V30 1080 H 101.531 4.15856 0.294915 0
M  V30 1081 H 100.191 3.12954 0.865448 0
M  V30 1082 H 101.202 4.49649 -2.56975 0
M  V30 1083 H 97.8788 4.17499 -0.00918848 0
M  V30 1084 H 99.2688 5.52944 -3.81709 0
M  V30 1085 N 101.989 0.842826 1.3317 0
M  V30 1086 C 102.899 0.281444 2.32906 0
M  V30 1087 C 103.915 -0.594587 1.63526 0
M  V30 1088 O 105.091 -0.49777 1.95152 0
M  V30 1089 C 102.156 -0.530929 3.42611 0
M  V30 1090 C 101.217 0.369843 4.27704 0
M  V30 1091 C 100.45 -0.403853 5.3217 0
M  V30 1092 O 100.673 -1.63513 5.46461 0
M  V30 1093 O 99.6069 0.224199 6.01482 0
M  V30 1094 H 103.433 1.10744 2.82789 0
M  V30 1095 H 101.018 0.60545 1.36582 0
M  V30 1096 H 102.9 -0.992437 4.09547 0
M  V30 1097 H 101.575 -1.33392 2.94938 0
M  V30 1098 H 100.482 0.879275 3.6362 0
M  V30 1099 H 101.815 1.13771 4.78871 0
M  V30 1100 N 103.467 -1.45747 0.599634 0
M  V30 1101 C 104.697 -2.06369 0.0977132 0
M  V30 1102 C 105.105 -1.44624 -1.21985 0
M  V30 1103 O 104.448 -0.551831 -1.75216 0
M  V30 1104 C 104.51 -3.59284 -0.124673 0
M  V30 1105 C 104.174 -4.43318 1.10987 0
M  V30 1106 C 105.171 -4.78796 2.02609 0
M  V30 1107 C 102.856 -4.84194 1.33647 0
M  V30 1108 C 104.85 -5.53997 3.15224 0
M  V30 1109 C 102.537 -5.5915 2.46565 0
M  V30 1110 C 103.535 -5.93968 3.37182 0
M  V30 1111 O 103.223 -6.67405 4.48136 0
M  V30 1112 H 102.955 -0.673122 0.0623153 0
M  V30 1113 H 105.509 -1.88104 0.824981 0
M  V30 1114 H 103.739 -3.75919 -0.906745 0
M  V30 1115 H 105.428 -4.01775 -0.577201 0
M  V30 1116 H 106.194 -4.47781 1.86325 0
M  V30 1117 H 102.073 -4.56534 0.64016 0
M  V30 1118 H 105.617 -5.81091 3.85978 0
M  V30 1119 H 101.514 -5.89579 2.62805 0
M  V30 1120 H 102.282 -6.85847 4.46717 0
M  V30 1121 N 104.945 -0.338344 -1.53925 0
M  V30 1122 C 105.875 0.51328 -2.27789 0
M  V30 1123 C 106.856 1.107 -1.29149 0
M  V30 1124 O 108.041 1.12937 -1.57984 0
M  V30 1125 C 105.171 1.66697 -3.04679 0
M  V30 1126 C 104.125 1.20183 -4.1078 0
M  V30 1127 C 103.451 2.44363 -4.75595 0
M  V30 1128 C 104.751 0.30605 -5.21403 0
M  V30 1129 H 106.445 -0.102883 -2.99223 0
M  V30 1130 H 103.991 -0.0509219 -1.4391 0
M  V30 1131 H 105.944 2.26915 -3.55088 0
M  V30 1132 H 104.668 2.30995 -2.30887 0
M  V30 1133 H 103.327 0.622499 -3.61276 0
M  V30 1134 H 102.975 3.07057 -3.98403 0
M  V30 1135 H 102.675 2.13925 -5.47275 0
M  V30 1136 H 104.199 3.05317 -5.28786 0
M  V30 1137 H 105.613 0.814929 -5.67478 0
M  V30 1138 H 104.01 0.0937929 -6.00027 0
M  V30 1139 H 105.08 -0.65921 -4.80398 0
M  V30 1140 N 106.423 1.57458 -0.0668435 0
M  V30 1141 C 107.834 1.80776 0.466558 0
M  V30 1142 C 108.185 0.980361 1.69951 0
M  V30 1143 O 107.31 0.201441 2.1546 0
M  V30 1144 C 107.905 3.27881 0.85321 0
M  V30 1145 C 106.464 3.52062 1.3315 0
M  V30 1146 C 105.611 2.75513 0.314264 0
M  V30 1147 H 108.562 1.5598 -0.292588 0
M  V30 1148 H 108.583 3.39659 1.715 0
M  V30 1149 H 108.095 3.88075 -0.0443439 0
M  V30 1150 H 106.196 2.97167 2.24772 0
M  V30 1151 H 106.309 4.60762 1.31285 0
M  V30 1152 H 104.673 2.42123 0.790492 0
M  V30 1153 H 105.456 3.38442 -0.575477 0
M  V30 1154 N 107.901 -0.206675 1.56239 0
M  V30 1155 C 109.15 -0.926964 1.79138 0
M  V30 1156 C 109.463 -1.84901 0.638043 0
M  V30 1157 O 110.669 -2.60906 0.751033 0
M  V30 1158 C 109.125 -1.6986 3.17294 0
M  V30 1159 C 108.733 -0.821956 4.40395 0
M  V30 1160 C 110.477 -2.40922 3.4951 0
M  V30 1161 C 108.384 -1.59179 5.69575 0
M  V30 1162 H 107.314 -0.349864 0.667915 0
M  V30 1163 H 109.965 -0.180487 1.8261 0
M  V30 1164 H 108.347 -2.48853 3.08039 0
M  V30 1165 H 109.521 -0.0715019 4.60745 0
M  V30 1166 H 107.836 -0.222741 4.15804 0
M  V30 1167 H 110.433 -2.99047 4.43255 0
M  V30 1168 H 110.776 -3.14542 2.72707 0
M  V30 1169 H 111.309 -1.68905 3.60161 0
M  V30 1170 H 108.048 -0.898589 6.49312 0
M  V30 1171 H 107.568 -2.31648 5.53262 0
M  V30 1172 H 109.247 -2.14862 6.10281 0
M  V30 1173 N 109.379 -1.50304 -0.473955 0
M  V30 1174 C 110.309 -1.71886 -1.58042 0
M  V30 1175 C 111.29 -0.567799 -1.60344 0
M  V30 1176 O 112.475 -0.806623 -1.76656 0
M  V30 1177 C 109.605 -1.81036 -2.96384 0
M  V30 1178 C 108.559 -2.962 -3.08949 0
M  V30 1179 C 107.885 -2.9049 -4.48909 0
M  V30 1180 C 109.185 -4.36752 -2.86434 0
M  V30 1181 H 110.879 -2.64527 -1.40234 0
M  V30 1182 H 108.425 -1.27295 -0.673201 0
M  V30 1183 H 110.378 -1.94719 -3.73714 0
M  V30 1184 H 109.102 -0.850147 -3.15341 0
M  V30 1185 H 107.761 -2.82164 -2.3405 0
M  V30 1186 H 107.409 -1.92321 -4.64781 0
M  V30 1187 H 107.109 -3.67802 -4.58253 0
M  V30 1188 H 108.633 -3.06218 -5.28264 0
M  V30 1189 H 110.047 -4.5133 -3.53517 0
M  V30 1190 H 108.444 -5.15493 -3.07225 0
M  V30 1191 H 109.514 -4.49321 -1.82316 0
M  V30 1192 N 110.857 0.726932 -1.39834 0
M  V30 1193 C 112.105 1.4837 -1.37225 0
M  V30 1194 C 112.426 1.94979 0.0284857 0
M  V30 1195 O 111.696 1.69555 0.981213 0
M  V30 1196 H 110.276 0.55043 -0.505011 0
M  V30 1197 H 112.938 0.862468 -1.74778 0
M  V30 1198 H 112.034 2.36198 -2.04003 0
M  V30 1199 N 112.336 1.25143 0.95797 0
M  V30 1200 C 113.266 1.07711 2.07173 0
M  V30 1201 C 114.247 -0.0128462 1.70095 0
M  V30 1202 O 115.432 0.156061 1.93572 0
M  V30 1203 C 112.562 0.691503 3.40346 0
M  V30 1204 C 111.516 1.73132 3.9142 0
M  V30 1205 C 110.842 1.20049 5.21049 0
M  V30 1206 C 112.142 3.1294 4.1817 0
M  V30 1207 H 113.836 2.00873 2.22014 0
M  V30 1208 H 111.382 0.967191 1.06684 0
M  V30 1209 H 113.335 0.556505 4.17709 0
M  V30 1210 H 112.059 -0.275819 3.25433 0
M  V30 1211 H 110.718 1.8547 3.16222 0
M  V30 1212 H 110.366 0.223499 5.02503 0
M  V30 1213 H 110.066 1.89545 5.56189 0
M  V30 1214 H 111.59 1.07782 6.01012 0
M  V30 1215 H 113.004 3.03775 4.86203 0
M  V30 1216 H 111.401 3.79875 4.64559 0
M  V30 1217 H 112.471 3.6025 3.24573 0
M  V30 1218 N 113.814 -1.1601 1.06675 0
M  V30 1219 C 114.777 -2.18724 0.685001 0
M  V30 1220 C 115.777 -1.58496 -0.271246 0
M  V30 1221 O 116.967 -1.74119 -0.0531156 0
M  V30 1222 C 114.099 -3.40899 0.00853648 0
M  V30 1223 H 115.292 -2.54011 1.59431 0
M  V30 1224 H 112.845 -1.30352 0.862441 0
M  V30 1225 H 113.58 -3.11173 -0.913337 0
M  V30 1226 H 113.365 -3.8587 0.696204 0
M  V30 1227 H 114.855 -4.16886 -0.24414 0
M  V30 1228 N 115.292 -0.849877 -1.32721 0
M  V30 1229 C 116.202 -0.293791 -2.32753 0
M  V30 1230 C 117.218 0.585906 -1.63839 0
M  V30 1231 O 118.394 0.487413 -1.95413 0
M  V30 1232 C 115.459 0.512752 -3.42887 0
M  V30 1233 C 114.52 -0.39252 -4.27502 0
M  V30 1234 C 113.753 0.375625 -5.32377 0
M  V30 1235 O 113.976 1.60613 -5.4732 0
M  V30 1236 O 112.91 -0.256094 -6.01355 0
M  V30 1237 H 116.736 -1.12242 -2.82197 0
M  V30 1238 H 114.321 -0.612685 -1.36259 0
M  V30 1239 H 116.203 0.970704 -4.10067 0
M  V30 1240 H 114.878 1.31826 -2.95641 0
M  V30 1241 H 113.785 -0.898547 -3.63149 0
M  V30 1242 H 115.118 -1.16309 -4.7826 0
M  V30 1243 N 116.77 1.45427 -0.607355 0
M  V30 1244 C 118.017 2.02241 -0.102455 0
M  V30 1245 C 118.345 1.4758 1.26691 0
M  V30 1246 O 117.6 0.640468 1.84923 0
M  V30 1247 C 117.899 3.57398 -0.0129263 0
M  V30 1248 C 117.565 4.3121 -1.31792 0
M  V30 1249 C 116.227 4.51092 -1.67539 0
M  V30 1250 C 118.579 4.73401 -2.18039 0
M  V30 1251 C 115.907 5.10422 -2.89285 0
M  V30 1252 C 118.259 5.34078 -3.39034 0
M  V30 1253 C 116.923 5.52184 -3.75033 0
M  V30 1254 H 116.193 0.740051 -0.037491 0
M  V30 1255 H 118.84 1.74494 -0.788926 0
M  V30 1256 H 117.145 3.84421 0.756806 0
M  V30 1257 H 118.842 3.99061 0.393881 0
M  V30 1258 H 115.432 4.16047 -1.02968 0
M  V30 1259 H 119.616 4.57774 -1.91721 0
M  V30 1260 H 114.872 5.22629 -3.17283 0
M  V30 1261 H 119.046 5.65724 -4.06115 0
M  V30 1262 H 116.673 5.97925 -4.69457 0
M  V30 1263 N 118.248 0.346503 1.53744 0
M  V30 1264 C 119.664 -0.00530975 1.59599 0
M  V30 1265 C 119.864 -1.48465 1.36236 0
M  V30 1266 O 118.92 -2.24376 1.15808 0
M  V30 1267 C 120.233 0.433516 2.97559 0
M  V30 1268 C 121.781 0.386111 3.10609 0
M  V30 1269 C 122.256 0.800451 4.50951 0
M  V30 1270 N 123.747 0.754753 4.5701 0
M  V30 1271 C 124.482 1.04727 5.63755 0
M  V30 1272 N 123.978 1.4081 6.7834 0
M  V30 1273 N 125.771 0.971316 5.53644 0
M  V30 1274 H 117.922 1.31009 1.67184 0
M  V30 1275 H 120.185 0.534242 0.783128 0
M  V30 1276 H 119.891 1.46509 3.19731 0
M  V30 1277 H 119.765 -0.189753 3.76722 0
M  V30 1278 H 122.152 -0.636295 2.88158 0
M  V30 1279 H 122.233 1.04462 2.33498 0
M  V30 1280 H 121.877 1.82088 4.74137 0
M  V30 1281 H 121.807 0.119386 5.26465 0
M  V30 1282 H 124.298 0.488662 3.74727 0
M  V30 1283 H 124.611 1.61607 7.55714 0
M  V30 1284 H 122.956 1.44657 6.79779 0
M  V30 1285 H 126.147 0.688748 4.63005 0
M  V30 1286 H 126.32 1.20263 6.36742 0
M  V30 1287 N 119.726 -1.57421 0.075193 0
M  V30 1288 C 120.951 -1.98364 -0.605515 0
M  V30 1289 C 121.376 -0.953383 -1.62149 0
M  V30 1290 O 120.734 0.0806053 -1.81121 0
M  V30 1291 C 120.782 -3.38332 -1.24756 0
M  V30 1292 O 119.886 -3.37959 -2.36342 0
M  V30 1293 H 119.227 -0.645553 -0.155428 0
M  V30 1294 H 121.757 -2.04044 0.150714 0
M  V30 1295 H 121.767 -3.75591 -1.5936 0
M  V30 1296 H 120.442 -4.12846 -0.503129 0
M  V30 1297 H 119.019 -3.12474 -2.03506 0
M  V30 1298 N 121.204 0.198386 -1.56346 0
M  V30 1299 C 122.444 0.92609 -1.82217 0
M  V30 1300 C 122.808 1.80584 -0.652195 0
M  V30 1301 O 124.009 2.56907 -0.790716 0
M  V30 1302 C 122.28 1.72354 -3.13096 0
M  V30 1303 S 123.839 2.50371 -3.6036 0
M  V30 1304 H 120.657 0.310677 -0.639532 0
M  V30 1305 H 123.259 0.189755 -1.94577 0
M  V30 1306 H 121.963 1.0678 -3.96265 0
M  V30 1307 H 121.494 2.50175 -3.03605 0
M  V30 1308 H 123.509 3.74488 -3.25535 0
M  V30 1309 N 122.682 1.50554 0.465978 0
M  V30 1310 C 123.645 1.69233 1.54574 0
M  V30 1311 C 124.645 0.562901 1.50626 0
M  V30 1312 O 125.835 0.830016 1.53155 0
M  V30 1313 C 122.967 1.7223 2.94193 0
M  V30 1314 H 124.16 2.65571 1.39327 0
M  V30 1315 H 121.713 1.40111 0.692711 0
M  V30 1316 H 122.448 0.77603 3.14878 0
M  V30 1317 H 122.233 2.54285 2.98466 0
M  V30 1318 H 123.723 1.88618 3.72576 0
M  V30 1319 N 124.16 -0.719506 1.40217 0
M  V30 1320 C 125.385 -1.51371 1.4178 0
M  V30 1321 C 125.81 -1.88091 0.0182355 0
M  V30 1322 O 125.168 -1.52997 -0.972707 0
M  V30 1323 C 125.216 -2.768 2.31115 0
M  V30 1324 O 124.32 -3.73349 1.7517 0
M  V30 1325 H 123.661 -0.456529 0.482159 0
M  V30 1326 H 126.191 -0.88644 1.844 0
M  V30 1327 H 126.201 -3.25371 2.46167 0
M  V30 1328 H 124.876 -2.49407 3.3282 0
M  V30 1329 H 123.453 -3.32179 1.69444 0
M  V30 1330 N 125.638 -1.25649 -0.95132 0
M  V30 1331 C 127.054 -1.02542 -1.223 0
M  V30 1332 C 127.254 0.255715 -1.99871 0
M  V30 1333 O 126.31 0.967558 -2.33226 0
M  V30 1334 C 127.623 -2.25065 -1.99415 0
M  V30 1335 C 129.171 -2.29861 -2.12446 0
M  V30 1336 C 129.646 -3.52048 -2.92961 0
M  V30 1337 N 131.137 -3.52465 -3.00538 0
M  V30 1338 C 131.872 -4.43672 -3.63239 0
M  V30 1339 N 131.368 -5.45157 -4.27523 0
M  V30 1340 N 133.161 -4.31346 -3.60412 0
M  V30 1341 H 125.312 -2.07951 -0.432471 0
M  V30 1342 H 127.575 -0.91339 -0.253816 0
M  V30 1343 H 127.281 -3.18194 -1.49817 0
M  V30 1344 H 127.155 -2.28502 -3.00111 0
M  V30 1345 H 129.542 -1.37252 -2.61239 0
M  V30 1346 H 129.623 -2.3044 -1.11044 0
M  V30 1347 H 129.267 -4.44981 -2.44856 0
M  V30 1348 H 129.197 -3.48715 -3.94596 0
M  V30 1349 H 131.688 -2.79056 -2.54826 0
M  V30 1350 H 132.001 -6.10958 -4.73234 0
M  V30 1351 H 130.346 -5.49025 -4.26141 0
M  V30 1352 H 133.537 -3.51288 -3.09377 0
M  V30 1353 H 133.71 -5.02624 -4.0899 0
M  V30 1354 N 127.117 1.15442 -1.07289 0
M  V30 1355 C 128.047 2.22312 -0.714107 0
M  V30 1356 C 129.028 1.67467 0.298155 0
M  V30 1357 O 130.213 1.93445 0.171048 0
M  V30 1358 C 127.343 3.47124 -0.110448 0
M  V30 1359 C 126.297 4.14926 -1.04979 0
M  V30 1360 C 125.623 5.33807 -0.308924 0
M  V30 1361 C 126.923 4.64762 -2.38314 0
M  V30 1362 H 128.617 2.5258 -1.6076 0
M  V30 1363 H 126.163 1.21404 -0.77441 0
M  V30 1364 H 128.116 4.21124 0.152482 0
M  V30 1365 H 126.84 3.16187 0.81812 0
M  V30 1366 H 125.499 3.42866 -1.29764 0
M  V30 1367 H 125.147 4.99126 0.623084 0
M  V30 1368 H 124.847 5.80113 -0.935036 0
M  V30 1369 H 126.371 6.10576 -0.0537771 0
M  V30 1370 H 127.785 5.30292 -2.1786 0
M  V30 1371 H 126.182 5.21728 -2.96514 0
M  V30 1372 H 127.252 3.80434 -3.00663 0
M  V30 1373 N 128.595 0.856903 1.32268 0
M  V30 1374 C 129.558 0.308171 2.27119 0
M  V30 1375 C 130.558 -0.533421 1.51695 0
M  V30 1376 O 131.748 -0.344607 1.70757 0
M  V30 1377 C 128.88 -0.563757 3.36206 0
M  V30 1378 H 130.073 1.14535 2.77167 0
M  V30 1379 H 127.626 0.631421 1.42978 0
M  V30 1380 H 128.361 -1.42266 2.91429 0
M  V30 1381 H 128.146 0.0386749 3.92081 0
M  V30 1382 H 129.636 -0.940386 4.06874 0
M  V30 1383 N 130.073 -1.45103 0.615059 0
M  V30 1384 C 131.003 -2.33339 -0.0865619 0
M  V30 1385 C 131.984 -1.4727 -0.851209 0
M  V30 1386 O 133.169 -1.76026 -0.820281 0
M  V30 1387 C 130.299 -3.30095 -1.07956 0
M  V30 1388 C 129.253 -4.25858 -0.427628 0
M  V30 1389 C 128.579 -5.12361 -1.5294 0
M  V30 1390 C 129.879 -5.18165 0.655944 0
M  V30 1391 H 131.573 -2.92254 0.650224 0
M  V30 1392 H 129.119 -1.40532 0.314138 0
M  V30 1393 H 131.072 -3.90698 -1.57901 0
M  V30 1394 H 129.796 -2.69355 -1.84703 0
M  V30 1395 H 128.455 -3.66564 0.0510292 0
M  V30 1396 H 128.103 -4.47984 -2.28734 0
M  V30 1397 H 127.803 -5.77238 -1.09865 0
M  V30 1398 H 129.327 -5.75833 -2.03098 0
M  V30 1399 H 130.741 -5.72796 0.240257 0
M  V30 1400 H 129.138 -5.91559 1.00888 0
M  V30 1401 H 130.208 -4.60144 1.52957 0
M  V30 1402 N 131.551 -0.354651 -1.53558 0
M  V30 1403 C 132.799 0.237972 -2.00694 0
M  V30 1404 C 133.12 1.50173 -1.24391 0
M  V30 1405 O 132.39 1.92673 -0.354135 0
M  V30 1406 H 130.97 0.0909256 -0.741446 0
M  V30 1407 H 133.632 -0.478368 -1.88938 0
M  V30 1408 H 132.728 0.47264 -3.085 0
M  V30 1409 N 133.029 1.57378 -0.0835403 0
M  V30 1410 C 134.306 1.85363 0.624507 0
M  V30 1411 C 134.686 0.978239 1.87066 0
M  V30 1412 O 134.034 0.0475908 2.2845 0
M  V30 1413 C 134.244 3.35795 0.950947 0
M  V30 1414 C 135.592 4.03581 1.31939 0
M  V30 1415 O 136.616 3.40609 1.04232 0
M  V30 1416 O 135.475 5.14672 1.83779 0
M  V30 1417 H 132.569 0.766162 0.311329 0
M  V30 1418 H 135.115 1.69307 -0.115362 0
M  V30 1419 H 133.887 3.91244 0.0663899 0
M  V30 1420 H 133.51 3.57154 1.74719 0
M  V30 1421 N 134.507 -0.190092 1.56449 0
M  V30 1422 C 135.784 -0.935886 1.71757 0
M  V30 1423 C 136.164 -2.01173 0.639726 0
M  V30 1424 O 135.512 -2.25827 -0.348502 0
M  V30 1425 C 135.722 -1.51775 3.1427 0
M  V30 1426 C 137.07 -1.99794 3.74656 0
M  V30 1427 O 138.094 -1.61607 3.1743 0
M  V30 1428 O 136.953 -2.70079 4.751 0
M  V30 1429 H 134.047 -0.439229 0.700719 0
M  V30 1430 H 136.593 -0.179395 1.68749 0
M  V30 1431 H 135.365 -0.742505 3.84191 0
M  V30 1432 H 134.988 -2.33894 3.21527 0
M  V30 1433 N 135.985 -1.50799 -0.457987 0
M  V30 1434 C 137.21 -1.66496 -1.23668 0
M  V30 1435 C 137.635 -0.353288 -1.84752 0
M  V30 1436 O 136.993 0.684346 -1.67888 0
M  V30 1437 C 137.041 -2.76763 -2.3116 0
M  V30 1438 O 136.145 -2.38928 -3.36136 0
M  V30 1439 H 135.486 -0.555828 -0.363252 0
M  V30 1440 H 138.016 -1.9725 -0.543474 0
M  V30 1441 H 138.026 -3.00232 -2.76269 0
M  V30 1442 H 136.701 -3.71954 -1.86073 0
M  V30 1443 H 135.278 -2.25953 -2.96647 0
M  V30 1444 N 137.463 0.71206 -1.40597 0
M  V30 1445 C 138.874 1.29135 -1.34837 0
M  V30 1446 C 139.225 1.96186 -0.0235395 0
M  V30 1447 O 138.35 1.97768 0.878444 0
M  V30 1448 C 138.945 2.34827 -2.44217 0
M  V30 1449 C 137.504 2.88371 -2.41907 0
M  V30 1450 C 136.651 1.62202 -2.24913 0
M  V30 1451 H 139.602 0.507944 -1.50352 0
M  V30 1452 H 139.623 3.15749 -2.12327 0
M  V30 1453 H 139.135 1.85996 -3.40627 0
M  V30 1454 H 137.236 3.41422 -1.49204 0
M  V30 1455 H 137.349 3.39925 -3.37621 0
M  V30 1456 H 135.713 1.874 -1.72492 0
M  V30 1457 H 136.496 1.15391 -3.23326 0
M  V30 1458 N 138.941 1.26152 0.944643 0
M  V30 1459 C 139.904 1.07474 2.0244 0
M  V30 1460 C 140.904 0.0242064 1.60782 0
M  V30 1461 O 142.094 0.267302 1.72137 0
M  V30 1462 C 139.226 0.633956 3.34953 0
M  V30 1463 H 140.419 2.03336 2.20442 0
M  V30 1464 H 137.972 1.087 1.12312 0
M  V30 1465 H 138.707 -0.326811 3.22649 0
M  V30 1466 H 138.492 1.39247 3.66542 0
M  V30 1467 H 139.982 0.52501 4.14287 0
M  V30 1468 N 140.419 -1.14872 1.07899 0
M  V30 1469 C 141.349 -2.2193 0.725887 0
M  V30 1470 C 142.33 -1.67622 -0.28927 0
M  V30 1471 O 143.515 -1.93533 -0.160787 0
M  V30 1472 C 140.645 -3.47061 0.128856 0
M  V30 1473 C 139.599 -4.14363 1.07178 0
M  V30 1474 C 138.925 -5.33636 0.337229 0
M  V30 1475 C 140.225 -4.63492 2.40775 0
M  V30 1476 H 141.919 -2.51724 1.62097 0
M  V30 1477 H 139.465 -1.20991 0.780838 0
M  V30 1478 H 141.418 -4.21199 -0.130147 0
M  V30 1479 H 140.142 -3.16617 -0.80134 0
M  V30 1480 H 138.801 -3.42173 1.3158 0
M  V30 1481 H 138.449 -4.99449 -0.596606 0
M  V30 1482 H 138.149 -5.79609 0.965788 0
M  V30 1483 H 139.673 -6.10539 0.0861567 0
M  V30 1484 H 141.087 -5.2913 2.20669 0
M  V30 1485 H 139.484 -5.20148 2.99276 0
M  V30 1486 H 140.554 -3.78834 3.02676 0
M  V30 1487 N 141.898 -0.863906 -1.31812 0
M  V30 1488 C 142.845 -0.313303 -2.28664 0
M  V30 1489 C 143.815 0.584868 -1.55462 0
M  V30 1490 O 145 0.517805 -1.83639 0
M  V30 1491 C 142.14 0.48441 -3.41683 0
M  V30 1492 C 141.253 -0.440594 -4.29747 0
M  V30 1493 C 140.388 0.370652 -5.29905 0
M  V30 1494 C 139.427 -0.551164 -6.09613 0
M  V30 1495 N 138.564 0.223462 -7.01744 0
M  V30 1496 H 143.404 -1.14444 -2.75148 0
M  V30 1497 H 140.941 -0.575769 -1.35364 0
M  V30 1498 H 142.899 0.962627 -4.05943 0
M  V30 1499 H 141.529 1.28029 -2.96325 0
M  V30 1500 H 140.581 -1.03724 -3.65986 0
M  V30 1501 H 141.893 -1.14767 -4.85417 0
M  V30 1502 H 141.047 0.911638 -5.99812 0
M  V30 1503 H 139.786 1.11105 -4.74876 0
M  V30 1504 H 138.791 -1.10396 -5.38603 0
M  V30 1505 H 140.016 -1.29032 -6.66729 0
M  V30 1506 H 137.962 0.946787 -6.49132 0
M  V30 1507 H 137.879 -0.424399 -7.54808 0
M  V30 1508 H 139.147 0.745876 -7.75923 0
M  V30 1509 N 143.376 1.44774 -0.622745 0
M  V30 1510 C 144.286 2.34433 0.0886031 0
M  V30 1511 C 145.302 1.52131 0.844529 0
M  V30 1512 O 146.478 1.84886 0.798691 0
M  V30 1513 C 143.543 3.29986 1.0635 0
M  V30 1514 C 142.604 4.28195 0.307873 0
M  V30 1515 C 141.837 5.19183 1.23633 0
M  V30 1516 O 142.06 5.13918 2.47476 0
M  V30 1517 O 140.994 5.97515 0.725189 0
M  V30 1518 H 144.82 2.96693 -0.648599 0
M  V30 1519 H 142.405 1.44408 -0.382957 0
M  V30 1520 H 144.287 3.88825 1.6246 0
M  V30 1521 H 142.962 2.70269 1.78146 0
M  V30 1522 H 141.869 3.72927 -0.296064 0
M  V30 1523 H 143.202 4.90808 -0.3699 0
M  V30 1524 N 144.854 0.36279 1.53368 0
M  V30 1525 C 145.801 -0.485008 2.25646 0
M  V30 1526 C 146.771 -1.07982 1.2621 0
M  V30 1527 O 147.956 -1.11284 1.54986 0
M  V30 1528 C 145.096 -1.62023 3.04701 0
M  V30 1529 C 144.209 -1.05086 4.19024 0
M  V30 1530 C 143.344 -2.15496 4.85525 0
M  V30 1531 C 142.383 -1.5601 5.91884 0
M  V30 1532 N 141.52 -2.60241 6.52088 0
M  V30 1533 H 146.36 0.137864 2.97681 0
M  V30 1534 H 143.897 0.0798061 1.46883 0
M  V30 1535 H 145.855 -2.28887 3.48807 0
M  V30 1536 H 144.485 -2.2138 2.34927 0
M  V30 1537 H 143.537 -0.27259 3.79422 0
M  V30 1538 H 144.849 -0.575926 4.95464 0
M  V30 1539 H 144.003 -2.90186 5.32801 0
M  V30 1540 H 142.742 -2.66341 4.08551 0
M  V30 1541 H 141.747 -0.798338 5.43973 0
M  V30 1542 H 142.972 -1.05994 6.70777 0
M  V30 1543 H 140.918 -3.10304 5.77968 0
M  V30 1544 H 140.835 -2.17426 7.24059 0
M  V30 1545 H 142.103 -3.34641 7.04014 0
M  V30 1546 N 146.332 -1.57332 0.0918853 0
M  V30 1547 C 147.748 -1.57389 -0.264766 0
M  V30 1548 C 147.948 -1.10281 -1.68643 0
M  V30 1549 O 147.004 -0.777801 -2.40222 0
M  V30 1550 C 148.317 -3.00648 -0.0561195 0
M  V30 1551 C 149.865 -3.12754 -0.124116 0
M  V30 1552 C 150.34 -4.57965 0.0564972 0
M  V30 1553 N 151.831 -4.632 0.00155611 0
M  V30 1554 C 152.566 -5.73281 0.116598 0
M  V30 1555 N 152.062 -6.92208 0.286294 0
M  V30 1556 N 153.855 -5.6207 0.0580973 0
M  V30 1557 H 146.006 -1.86262 1.02079 0
M  V30 1558 H 148.269 -0.859579 0.399786 0
M  V30 1559 H 147.975 -3.393 0.925669 0
M  V30 1560 H 147.849 -3.68623 -0.799823 0
M  V30 1561 H 150.236 -2.73976 -1.09641 0
M  V30 1562 H 150.317 -2.47377 0.651024 0
M  V30 1563 H 149.961 -4.97436 1.02564 0
M  V30 1564 H 149.891 -5.21399 -0.738297 0
M  V30 1565 H 152.382 -3.77686 -0.127192 0
M  V30 1566 H 152.695 -7.71934 0.365676 0
M  V30 1567 H 151.04 -6.94254 0.32192 0
M  V30 1568 H 154.231 -4.68043 -0.0733204 0
M  V30 1569 H 154.404 -6.47824 0.151203 0
M  V30 1570 N 147.81 0.181792 -1.56548 0
M  V30 1571 C 149.056 0.901431 -1.81665 0
M  V30 1572 C 149.389 1.82347 -0.668075 0
M  V30 1573 O 148.664 1.91669 0.330615 0
M  V30 1574 C 148.947 1.70618 -3.17115 0
M  V30 1575 C 148.8 0.807964 -4.42484 0
M  V30 1576 C 150.119 2.67605 -3.49393 0
M  V30 1577 H 147.238 0.32627 -0.660846 0
M  V30 1578 H 149.88 0.168134 -1.89255 0
M  V30 1579 H 148.03 2.33133 -3.10775 0
M  V30 1580 H 149.702 0.19649 -4.60881 0
M  V30 1581 H 147.945 0.115411 -4.33646 0
M  V30 1582 H 148.616 1.40632 -5.33785 0
M  V30 1583 H 151.092 2.15218 -3.56118 0
M  V30 1584 H 149.968 3.20985 -4.45264 0
M  V30 1585 H 150.229 3.47298 -2.73563 0
M  V30 1586 N 149.288 1.51039 0.449983 0
M  V30 1587 C 150.536 1.62759 1.19808 0
M  V30 1588 C 150.857 0.339981 1.92013 0
M  V30 1589 O 150.127 -0.643606 1.85026 0
M  V30 1590 H 148.707 0.599811 0.445237 0
M  V30 1591 H 151.369 1.87914 0.517138 0
M  V30 1592 H 150.465 2.44911 1.93455 0
M  V30 1593 N 150.766 -0.704594 1.40972 0
M  V30 1594 C 152.014 -1.46169 1.39568 0
M  V30 1595 C 152.335 -1.95 0.00253745 0
M  V30 1596 O 151.605 -1.71095 -0.954114 0
M  V30 1597 H 150.185 -0.542326 0.513704 0
M  V30 1598 H 152.847 -0.834553 1.76128 0
M  V30 1599 H 151.943 -2.32922 2.07735 0
M  V30 1600 N 152.244 -1.26651 -0.937939 0
M  V30 1601 C 153.49 -1.12553 -1.687 0
M  V30 1602 C 153.823 0.329782 -1.91379 0
M  V30 1603 O 153.098 1.24202 -1.4968 0
M  V30 1604 C 153.381 -1.89862 -3.05981 0
M  V30 1605 C 153.234 -3.43318 -2.90607 0
M  V30 1606 C 154.553 -1.69499 -4.0615 0
M  V30 1607 H 151.672 -0.410257 -0.612257 0
M  V30 1608 H 154.314 -1.55685 -1.08913 0
M  V30 1609 H 152.464 -1.53204 -3.57017 0
M  V30 1610 H 154.136 -3.89747 -2.46769 0
M  V30 1611 H 152.379 -3.70179 -2.26164 0
M  V30 1612 H 153.05 -3.92642 -3.8799 0
M  V30 1613 H 155.526 -2.01442 -3.64088 0
M  V30 1614 H 154.402 -2.26002 -5.00214 0
M  V30 1615 H 154.663 -0.640365 -4.37438 0
M  V30 1616 N 153.722 1.14298 -1.08507 0
M  V30 1617 C 154.654 2.1907 -0.673859 0
M  V30 1618 C 155.667 1.60381 0.279577 0
M  V30 1619 O 156.856 1.78374 0.0670754 0
M  V30 1620 C 153.956 3.38888 0.0290979 0
M  V30 1621 C 153.129 4.27103 -0.943494 0
M  V30 1622 C 152.188 5.25477 -0.275676 0
M  V30 1623 O 151.214 5.61709 -0.920401 0
M  V30 1624 N 152.416 5.7227 0.974013 0
M  V30 1625 H 155.181 2.54965 -1.57521 0
M  V30 1626 H 152.742 1.29528 -0.971287 0
M  V30 1627 H 154.734 4.01761 0.48683 0
M  V30 1628 H 153.304 3.01309 0.832555 0
M  V30 1629 H 152.524 3.61149 -1.58004 0
M  V30 1630 H 153.812 4.82905 -1.60251 0
M  V30 1631 H 153.21 5.44965 1.51755 0
M  V30 1632 H 151.767 6.37127 1.37522 0
M  V30 1633 N 155.201 0.870884 1.31352 0
M  V30 1634 C 156.426 0.495957 2.01383 0
M  V30 1635 C 156.851 -0.904324 1.64935 0
M  V30 1636 O 156.209 -1.59687 0.858466 0
M  V30 1637 C 156.257 0.661433 3.54482 0
M  V30 1638 O 155.361 -0.298851 4.11316 0
M  V30 1639 H 154.702 0.197158 0.634054 0
M  V30 1640 H 157.232 1.17455 1.67527 0
M  V30 1641 H 157.242 0.555072 4.04207 0
M  V30 1642 H 155.917 1.68246 3.8035 0
M  V30 1643 H 154.494 -0.147368 3.72609 0
M  V30 1644 N 156.679 -1.44442 0.630414 0
M  V30 1645 C 157.609 -2.33418 -0.0618083 0
M  V30 1646 C 158.59 -1.48165 -0.835541 0
M  V30 1647 O 159.775 -1.76886 -0.801564 0
M  V30 1648 C 156.905 -3.31222 -1.04449 0
M  V30 1649 C 155.859 -4.26288 -0.382436 0
M  V30 1650 C 155.185 -5.13954 -1.47497 0
M  V30 1651 C 156.485 -5.1744 0.710865 0
M  V30 1652 H 158.179 -2.91548 0.681184 0
M  V30 1653 H 155.725 -1.40191 0.329026 0
M  V30 1654 H 157.678 -3.92351 -1.53748 0
M  V30 1655 H 156.402 -2.71299 -1.81836 0
M  V30 1656 H 155.061 -3.6649 0.0899054 0
M  V30 1657 H 154.709 -4.50385 -2.2397 0
M  V30 1658 H 154.409 -5.7837 -1.03737 0
M  V30 1659 H 155.933 -5.77955 -1.96979 0
M  V30 1660 H 157.347 -5.72509 0.300996 0
M  V30 1661 H 155.744 -5.90455 1.07156 0
M  V30 1662 H 156.814 -4.58496 1.57829 0
M  V30 1663 N 158.157 -0.370918 -1.53173 0
M  V30 1664 C 159.405 0.216673 -2.00935 0
M  V30 1665 C 159.726 1.48845 -1.25977 0
M  V30 1666 O 158.996 1.92286 -0.374551 0
M  V30 1667 H 157.576 0.0830565 -0.742368 0
M  V30 1668 H 160.238 -0.49838 -1.8842 0
M  V30 1669 H 159.334 0.439893 -3.08984 0
M  V30 1670 N 159.635 1.57281 -0.100228 0
M  V30 1671 C 160.883 1.94153 0.561157 0
M  V30 1672 C 161.204 0.983157 1.68401 0
M  V30 1673 O 160.474 0.0361132 1.95867 0
M  V30 1674 H 159.054 0.716791 0.210283 0
M  V30 1675 H 161.716 1.94202 -0.164765 0
M  V30 1676 H 160.812 2.96709 0.968008 0
M  V30 1677 N 161.113 -0.173488 1.56642 0
M  V30 1678 C 162.341 -0.906095 1.86004 0
M  V30 1679 C 162.756 -1.75921 0.685355 0
M  V30 1680 O 162.113 -1.79198 -0.345578 0
M  V30 1681 C 162.164 -1.78462 3.14378 0
M  V30 1682 O 161.885 -0.965914 4.27319 0
M  V30 1683 C 163.386 -2.62707 3.57071 0
M  V30 1684 H 160.606 -0.263341 0.617165 0
M  V30 1685 H 163.15 -0.174236 2.03756 0
M  V30 1686 H 161.305 -2.46984 2.98459 0
M  V30 1687 H 161.719 -1.56655 5.00559 0
M  V30 1688 H 163.193 -3.19969 4.49804 0
M  V30 1689 H 163.67 -3.37472 2.81086 0
M  V30 1690 H 164.276 -1.99521 3.75595 0
M  V30 1691 N 162.591 -1.51276 -0.441967 0
M  V30 1692 C 163.839 -1.63392 -1.18943 0
M  V30 1693 C 164.16 -0.350159 -1.9183 0
M  V30 1694 O 163.43 0.633784 -1.85364 0
M  V30 1695 H 162.01 -0.602164 -0.442049 0
M  V30 1696 H 164.672 -1.88186 -0.507165 0
M  V30 1697 H 163.768 -2.45934 -1.92154 0
M  V30 1698 N 164.069 0.697108 -1.41344 0
M  V30 1699 C 165.032 1.79281 -1.42797 0
M  V30 1700 C 166.032 1.57607 -0.318837 0
M  V30 1701 O 167.222 1.64309 -0.578642 0
M  V30 1702 C 164.354 3.17632 -1.23785 0
M  V30 1703 H 165.547 1.79385 -2.40335 0
M  V30 1704 H 163.1 0.904582 -1.27464 0
M  V30 1705 H 163.835 3.23167 -0.270814 0
M  V30 1706 H 163.62 3.34765 -2.04144 0
M  V30 1707 H 165.11 3.97617 -1.27633 0
M  V30 1708 N 165.547 1.27147 0.931209 0
M  V30 1709 C 166.477 1.12081 2.04842 0
M  V30 1710 C 167.458 0.0232364 1.70084 0
M  V30 1711 O 168.643 0.197085 1.93197 0
M  V30 1712 C 165.773 0.76354 3.38803 0
M  V30 1713 C 164.727 1.81396 3.87659 0
M  V30 1714 C 164.053 1.31075 5.18385 0
M  V30 1715 C 165.353 3.21739 4.11438 0
M  V30 1716 H 167.047 2.05537 2.17703 0
M  V30 1717 H 164.593 0.989603 1.04608 0
M  V30 1718 H 166.546 0.644982 4.16435 0
M  V30 1719 H 165.27 -0.206727 3.25945 0
M  V30 1720 H 163.929 1.92136 3.12217 0
M  V30 1721 H 163.577 0.330037 5.01916 0
M  V30 1722 H 163.277 2.013 5.52044 0
M  V30 1723 H 164.801 1.20506 5.98591 0
M  V30 1724 H 166.215 3.14019 4.79651 0
M  V30 1725 H 164.612 3.89644 4.56397 0
M  V30 1726 H 165.682 3.67054 3.16859 0
M  V30 1727 N 167.025 -1.13721 1.09112 0
M  V30 1728 C 168.441 -1.36914 0.820174 0
M  V30 1729 C 168.641 -1.93356 -0.567079 0
M  V30 1730 O 167.697 -2.15093 -1.32255 0
M  V30 1731 C 169.01 -2.3235 1.90877 0
M  V30 1732 C 170.558 -2.45973 1.93562 0
M  V30 1733 C 171.033 -3.44714 3.01556 0
M  V30 1734 N 172.524 -3.52263 3.00775 0
M  V30 1735 C 173.259 -4.28536 3.80978 0
M  V30 1736 N 172.755 -5.07991 4.71081 0
M  V30 1737 N 174.548 -4.23804 3.69251 0
M  V30 1738 H 166.699 -0.754348 1.98553 0
M  V30 1739 H 168.962 -0.3944 0.862063 0
M  V30 1740 H 168.668 -1.98027 2.90651 0
M  V30 1741 H 168.542 -3.32332 1.78424 0
M  V30 1742 H 170.929 -2.79584 0.944286 0
M  V30 1743 H 171.01 -1.45926 2.10093 0
M  V30 1744 H 170.654 -3.11835 4.00901 0
M  V30 1745 H 170.584 -4.44558 2.82269 0
M  V30 1746 H 173.075 -2.95567 2.35475 0
M  V30 1747 H 173.388 -5.63487 5.28869 0
M  V30 1748 H 171.733 -5.07235 4.75119 0
M  V30 1749 H 174.924 -3.60806 2.98222 0
M  V30 1750 H 175.097 -4.82995 4.31995 0
M  V30 1751 N 168.503 -0.877838 -1.30888 0
M  V30 1752 C 169.752 -0.488793 -1.95688 0
M  V30 1753 C 170.065 0.965485 -1.70111 0
M  V30 1754 O 171.271 1.46104 -2.28836 0
M  V30 1755 C 169.727 -0.823201 -3.50359 0
M  V30 1756 C 169.335 -2.29477 -3.84765 0
M  V30 1757 C 171.079 -0.503009 -4.21509 0
M  V30 1758 C 168.986 -2.57118 -5.32583 0
M  V30 1759 H 167.916 -0.179062 -0.732429 0
M  V30 1760 H 170.567 -1.07183 -1.48943 0
M  V30 1761 H 168.949 -0.169331 -3.95638 0
M  V30 1762 H 170.123 -2.99236 -3.5042 0
M  V30 1763 H 168.438 -2.58178 -3.267 0
M  V30 1764 H 171.035 -0.68665 -5.30273 0
M  V30 1765 H 171.378 0.557109 -4.12555 0
M  V30 1766 H 171.911 -1.11376 -3.8189 0
M  V30 1767 H 168.65 -3.61843 -5.4658 0
M  V30 1768 H 168.17 -1.91961 -5.68253 0
M  V30 1769 H 169.849 -2.42251 -5.99936 0
M  V30 1770 N 169.982 1.44106 -0.638065 0
M  V30 1771 C 171.23 2.01579 -0.145043 0
M  V30 1772 C 171.551 1.50496 1.24 0
M  V30 1773 O 170.821 0.711374 1.82527 0
M  V30 1774 H 169.401 0.745282 -0.05063 0
M  V30 1775 H 172.063 1.76516 -0.826327 0
M  V30 1776 H 171.159 3.11877 -0.118039 0
M  V30 1777 N 171.46 0.379036 1.52974 0
M  V30 1778 C 172.423 -0.448865 2.24762 0
M  V30 1779 C 173.423 -0.998689 1.26027 0
M  V30 1780 O 174.613 -0.882313 1.50203 0
M  V30 1781 C 171.745 -1.62872 2.99476 0
M  V30 1782 H 172.938 0.179491 2.99362 0
M  V30 1783 H 170.491 0.13096 1.5575 0
M  V30 1784 H 171.226 -2.29479 2.29151 0
M  V30 1785 H 171.011 -1.24128 3.71934 0
M  V30 1786 H 172.501 -2.2151 3.5401 0
M  V30 1787 N 172.938 -1.57226 0.108567 0
M  V30 1788 C 174.215 -1.86333 -0.594939 0
M  V30 1789 C 174.595 -1.00788 -1.85486 0
M  V30 1790 O 173.943 -0.0839293 -2.28346 0
M  V30 1791 C 174.153 -3.37265 -0.897405 0
M  V30 1792 C 175.501 -4.05629 -1.25501 0
M  V30 1793 O 176.525 -3.42224 -0.987998 0
M  V30 1794 O 175.384 -5.17531 -1.75567 0
M  V30 1795 H 172.478 -0.771018 -0.2991 0
M  V30 1796 H 175.024 -1.69102 0.142283 0
M  V30 1797 H 173.796 -3.913 -0.00413806 0
M  V30 1798 H 173.419 -3.59889 -1.69014 0
M  V30 1799 N 174.416 0.165178 -1.56732 0
M  V30 1800 C 175.663 0.880807 -1.8234 0
M  V30 1801 C 175.991 1.81977 -0.686621 0
M  V30 1802 O 175.246 1.92971 0.325697 0
M  V30 1803 C 175.545 1.70405 -3.1416 0
M  V30 1804 C 175.211 0.913475 -4.4155 0
M  V30 1805 C 173.873 0.695303 -4.7615 0
M  V30 1806 C 176.225 0.359349 -5.1996 0
M  V30 1807 C 173.553 -0.0879947 -5.86634 0
M  V30 1808 C 175.905 -0.410893 -6.31264 0
M  V30 1809 C 174.569 -0.639808 -6.64427 0
M  V30 1810 H 173.839 0.32231 -0.667231 0
M  V30 1811 H 176.486 0.145402 -1.90947 0
M  V30 1812 H 174.791 2.50903 -3.00923 0
M  V30 1813 H 176.488 2.26091 -3.31186 0
M  V30 1814 H 173.078 1.09357 -4.14414 0
M  V30 1815 H 177.262 0.515228 -4.93618 0
M  V30 1816 H 172.518 -0.27503 -6.10781 0
M  V30 1817 H 176.692 -0.847494 -6.91224 0
M  V30 1818 H 174.319 -1.24864 -7.49875 0
M  V30 1819 N 175.894 1.51508 0.433938 0
M  V30 1820 C 176.824 1.76016 1.53429 0
M  V30 1821 C 177.805 0.610112 1.58782 0
M  V30 1822 O 178.99 0.853177 1.74455 0
M  V30 1823 C 176.12 1.88831 2.9148 0
M  V30 1824 C 175.074 3.04288 3.00987 0
M  V30 1825 C 174.4 3.0229 4.4105 0
M  V30 1826 C 175.7 4.44193 2.74754 0
M  V30 1827 H 177.394 2.68152 1.33171 0
M  V30 1828 H 174.94 1.29035 0.639214 0
M  V30 1829 H 176.893 2.04559 3.6842 0
M  V30 1830 H 175.617 0.933455 3.12976 0
M  V30 1831 H 174.276 2.8827 2.26486 0
M  V30 1832 H 173.924 2.04576 4.59519 0
M  V30 1833 H 173.624 3.79822 4.4834 0
M  V30 1834 H 175.148 3.20116 5.1996 0
M  V30 1835 H 176.562 4.60544 3.41426 0
M  V30 1836 H 174.959 5.23457 2.9345 0
M  V30 1837 H 176.029 4.53996 1.70339 0
M  V30 1838 N 177.372 -0.689602 1.41712 0
M  V30 1839 C 178.335 -1.78521 1.43746 0
M  V30 1840 C 179.335 -1.57436 0.327191 0
M  V30 1841 O 180.525 -1.64 0.587348 0
M  V30 1842 C 177.657 -3.16971 1.25467 0
M  V30 1843 H 178.85 -1.78108 2.41283 0
M  V30 1844 H 176.403 -0.89781 1.27942 0
M  V30 1845 H 177.138 -3.23019 0.287948 0
M  V30 1846 H 176.923 -3.33678 2.05917 0
M  V30 1847 H 178.413 -3.96935 1.2974 0
M  V30 1848 N 178.85 -1.27639 -0.924453 0
M  V30 1849 C 180.266 -1.05113 -1.20097 0
M  V30 1850 C 180.466 0.213262 -2.00368 0
M  V30 1851 O 179.522 0.91787 -2.35226 0
M  V30 1852 C 180.835 -2.29244 -1.94596 0
M  V30 1853 C 182.383 -2.34315 -2.07522 0
M  V30 1854 C 182.858 -3.58183 -2.85427 0
M  V30 1855 N 184.349 -3.5876 -2.92994 0
M  V30 1856 C 185.084 -4.51277 -3.53746 0
M  V30 1857 N 184.58 -5.54102 -4.15863 0
M  V30 1858 N 186.373 -4.38894 -3.51181 0
M  V30 1859 H 178.524 -2.08821 -0.388264 0
M  V30 1860 H 180.787 -0.918568 -0.234385 0
M  V30 1861 H 180.493 -3.21301 -1.43034 0
M  V30 1862 H 180.367 -2.34816 -2.95197 0
M  V30 1863 H 182.754 -1.42762 -2.58269 0
M  V30 1864 H 182.835 -2.32744 -1.06131 0
M  V30 1865 H 182.479 -4.50074 -2.35363 0
M  V30 1866 H 182.409 -3.57006 -3.8711 0
M  V30 1867 H 184.9 -2.84398 -2.4885 0
M  V30 1868 H 185.213 -6.20859 -4.60168 0
M  V30 1869 H 183.558 -5.57941 -4.144 0
M  V30 1870 H 186.749 -3.57772 -3.01856 0
M  V30 1871 H 186.922 -5.11186 -3.98237 0
M  V30 1872 N 180.328 1.1314 -1.09713 0
M  V30 1873 C 181.574 1.84967 -0.846104 0
M  V30 1874 C 181.929 1.82082 0.621601 0
M  V30 1875 O 181.222 1.2501 1.452 0
M  V30 1876 C 181.416 3.32167 -1.3191 0
M  V30 1877 C 181.245 3.49386 -2.83125 0
M  V30 1878 C 180.015 3.63456 -3.51038 0
M  V30 1879 C 182.213 3.45179 -3.81256 0
M  V30 1880 N 180.195 3.68966 -4.9065 0
M  V30 1881 C 181.566 3.57094 -5.06837 0
M  V30 1882 C 183.621 3.28598 -3.74069 0
M  V30 1883 C 182.324 3.5414 -6.26081 0
M  V30 1884 C 184.35 3.26953 -4.92804 0
M  V30 1885 C 183.712 3.39422 -6.17229 0
M  V30 1886 H 179.811 0.692899 -0.362512 0
M  V30 1887 H 182.395 1.35506 -1.39808 0
M  V30 1888 H 180.566 3.80186 -0.794535 0
M  V30 1889 H 182.298 3.91815 -1.01308 0
M  V30 1890 H 179.053 3.65256 -3.01471 0
M  V30 1891 H 179.477 3.75404 -5.63383 0
M  V30 1892 H 184.119 3.17858 -2.78794 0
M  V30 1893 H 181.837 3.63653 -7.21653 0
M  V30 1894 H 185.423 3.15316 -4.88945 0
M  V30 1895 H 184.303 3.38114 -7.07565 0
M  V30 1896 N 181.806 0.884767 1.30421 0
M  V30 1897 C 183.036 0.517293 2.00019 0
M  V30 1898 C 183.444 -0.898632 1.66497 0
M  V30 1899 O 182.787 -1.60245 0.898181 0
M  V30 1900 C 182.849 0.612025 3.54252 0
M  V30 1901 C 182.513 1.99222 4.1129 0
M  V30 1902 C 183.51 2.9616 4.273 0
M  V30 1903 C 181.195 2.29755 4.46674 0
M  V30 1904 C 183.189 4.21764 4.77906 0
M  V30 1905 C 180.876 3.55606 4.96979 0
M  V30 1906 C 181.874 4.51425 5.12547 0
M  V30 1907 O 181.562 5.75043 5.61766 0
M  V30 1908 H 181.294 0.198529 0.64619 0
M  V30 1909 H 183.848 1.1919 1.67281 0
M  V30 1910 H 182.078 -0.119561 3.86515 0
M  V30 1911 H 183.767 0.255859 4.05093 0
M  V30 1912 H 184.533 2.73882 4.00267 0
M  V30 1913 H 180.412 1.55942 4.33824 0
M  V30 1914 H 183.956 4.96561 4.89972 0
M  V30 1915 H 179.853 3.7772 5.23448 0
M  V30 1916 H 180.621 5.77422 5.80109 0
M  V30 1917 N 183.284 -1.43765 0.645699 0
M  V30 1918 C 184.232 -2.32516 -0.0624849 0
M  V30 1919 C 185.226 -1.48183 -0.820855 0
M  V30 1920 O 186.432 -1.64439 -0.732106 0
M  V30 1921 H 182.807 -0.750989 -0.0389864 0
M  V30 1922 H 184.778 -2.89979 0.703892 0
M  V30 1923 C 183.527 -3.32389 -1.02044 0
M  V30 1924 H 182.85 -3.97301 -0.446312 0
M  V30 1925 H 184.29 -3.97138 -1.48517 0
M  V30 1926 C 182.749 -2.62416 -2.11281 0
M  V30 1927 O 183.279 -2.434 -3.19561 0
M  V30 1928 N 181.485 -2.21913 -1.87624 0
M  V30 1929 H 181.032 -2.37578 -0.995703 0
M  V30 1930 H 180.99 -1.75424 -2.6091 0
M  V30 1931 N 184.763 -0.387143 -1.52771 0
M  V30 1932 C 186.011 0.195349 -2.01154 0
M  V30 1933 C 186.332 1.475 -1.27549 0
M  V30 1934 O 185.602 1.91878 -0.394924 0
M  V30 1935 H 184.182 0.075178 -0.743207 0
M  V30 1936 H 186.844 -0.518337 -1.87881 0
M  V30 1937 H 185.94 0.407096 -3.09434 0
M  V30 1938 N 186.241 1.57166 -0.116904 0
M  V30 1939 C 187.469 1.99473 0.549383 0
M  V30 1940 C 187.884 0.996541 1.60357 0
M  V30 1941 O 187.241 -0.0108731 1.82497 0
M  V30 1942 C 187.292 3.41788 1.17741 0
M  V30 1943 O 187.013 4.37788 0.165362 0
M  V30 1944 C 188.514 3.99216 1.92722 0
M  V30 1945 H 185.734 0.655009 0.145616 0
M  V30 1946 H 188.278 2.03494 -0.202625 0
M  V30 1947 H 186.433 3.38713 1.88021 0
M  V30 1948 H 186.847 5.20806 0.621403 0
M  V30 1949 H 188.321 5.00882 2.31995 0
M  V30 1950 H 188.798 3.3824 2.80161 0
M  V30 1951 H 189.404 4.0583 1.27209 0
M  V30 1952 N 187.719 -0.156864 1.56817 0
M  V30 1953 C 188.667 -1.21319 1.98455 0
M  V30 1954 C 189.661 -1.45025 0.875444 0
M  V30 1955 O 190.867 -1.45435 1.0606 0
M  V30 1956 H 187.242 -0.408142 0.631605 0
M  V30 1957 H 189.213 -0.835244 2.86472 0
M  V30 1958 C 187.962 -2.54148 2.37285 0
M  V30 1959 H 187.285 -2.36733 3.22176 0
M  V30 1960 H 188.725 -3.26712 2.70251 0
M  V30 1961 C 187.184 -3.13967 1.22173 0
M  V30 1962 O 187.714 -3.98357 0.517149 0
M  V30 1963 N 185.92 -2.7327 0.988536 0
M  V30 1964 H 185.467 -2.04744 1.56326 0
M  V30 1965 H 185.425 -3.13628 0.220209 0
M  V30 1966 N 189.197 -1.51736 -0.425897 0
M  V30 1967 C 190.145 -1.74464 -1.53834 0
M  V30 1968 C 191.139 -0.611241 -1.57988 0
M  V30 1969 O 192.345 -0.792899 -1.61596 0
M  V30 1970 H 188.72 -0.551437 -0.511293 0
M  V30 1971 H 190.691 -2.67694 -1.31843 0
M  V30 1972 C 189.44 -1.8972 -2.91379 0
M  V30 1973 H 188.763 -2.76344 -2.88919 0
M  V30 1974 H 190.203 -2.09629 -3.68553 0
M  V30 1975 C 188.662 -0.65992 -3.30374 0
M  V30 1976 O 189.192 0.180083 -4.01296 0
M  V30 1977 N 187.398 -0.500677 -2.86254 0
M  V30 1978 H 186.945 -1.18532 -2.28709 0
M  V30 1979 H 186.903 0.325903 -3.12706 0
M  V30 1980 N 190.675 0.682077 -1.42076 0
M  V30 1981 C 191.622 1.79578 -1.44984 0
M  V30 1982 C 192.592 1.6332 -0.302614 0
M  V30 1983 O 193.777 1.83978 -0.505633 0
M  V30 1984 C 190.917 3.1756 -1.35091 0
M  V30 1985 C 190.03 3.45156 -2.59791 0
M  V30 1986 C 189.165 4.72826 -2.42093 0
M  V30 1987 C 188.204 4.93433 -3.62202 0
M  V30 1988 N 187.341 6.12338 -3.43491 0
M  V30 1989 H 192.181 1.76427 -2.40161 0
M  V30 1990 H 189.718 0.861376 -1.19242 0
M  V30 1991 H 191.676 3.97287 -1.27354 0
M  V30 1992 H 190.306 3.19854 -0.435133 0
M  V30 1993 H 189.358 2.59736 -2.77923 0
M  V30 1994 H 190.67 3.5628 -3.49094 0
M  V30 1995 H 189.824 5.60631 -2.319 0
M  V30 1996 H 188.563 4.63973 -1.50268 0
M  V30 1997 H 187.568 4.04073 -3.72834 0
M  V30 1998 H 188.793 5.04136 -4.54998 0
M  V30 1999 H 186.739 6.04672 -2.54377 0
M  V30 2000 H 186.656 6.2429 -4.26377 0
M  V30 2001 H 187.924 7.02841 -3.37097 0
M  V30 2002 N 192.153 1.28127 0.917671 0
M  V30 2003 C 193.101 1.11569 2.04096 0
M  V30 2004 C 194.095 0.0360242 1.69362 0
M  V30 2005 O 195.301 0.194501 1.78946 0
M  V30 2006 H 191.676 0.344097 0.668656 0
M  V30 2007 H 193.647 2.06711 2.15205 0
M  V30 2008 C 192.396 0.790197 3.38602 0
M  V30 2009 H 191.719 1.61293 3.6582 0
M  V30 2010 H 193.159 0.714271 4.1794 0
M  V30 2011 C 191.618 -0.505897 3.3308 0
M  V30 2012 O 192.148 -1.53736 3.71117 0
M  V30 2013 N 190.354 -0.505193 2.86175 0
M  V30 2014 H 189.901 0.334621 2.55417 0
M  V30 2015 H 189.859 -1.37243 2.82863 0
M  V30 2016 N 193.631 -1.12557 1.10312 0
M  V30 2017 C 194.859 -1.87864 0.866873 0
M  V30 2018 C 195.274 -1.79588 -0.582557 0
M  V30 2019 O 194.631 -1.16887 -1.40156 0
M  V30 2020 C 194.682 -3.37125 1.30496 0
M  V30 2021 O 194.403 -3.45201 2.69755 0
M  V30 2022 C 195.904 -4.29373 1.10243 0
M  V30 2023 H 193.124 -0.594452 0.311236 0
M  V30 2024 H 195.668 -1.42429 1.46745 0
M  V30 2025 H 193.823 -3.80109 0.748081 0
M  V30 2026 H 194.237 -4.38056 2.88457 0
M  V30 2027 H 195.711 -5.32394 1.45811 0
M  V30 2028 H 196.188 -4.39181 0.0409492 0
M  V30 2029 H 196.794 -3.92169 1.64571 0
M  V30 2030 N 195.109 -0.891671 -1.2995 0
M  V30 2031 C 196.52 -0.563104 -1.78006 0
M  V30 2032 C 196.871 0.920978 -1.73241 0
M  V30 2033 O 195.996 1.71987 -1.31337 0
M  V30 2034 C 196.591 -1.01539 -3.23226 0
M  V30 2035 C 195.15 -0.738124 -3.69092 0
M  V30 2036 C 194.297 -1.19461 -2.50249 0
M  V30 2037 H 197.248 -1.07522 -1.16725 0
M  V30 2038 H 197.269 -0.347217 -3.78912 0
M  V30 2039 H 196.781 -2.09555 -3.26662 0
M  V30 2040 H 194.882 0.329766 -3.71138 0
M  V30 2041 H 194.995 -1.33037 -4.60259 0
M  V30 2042 H 193.359 -0.613787 -2.47194 0
M  V30 2043 H 194.142 -2.28265 -2.56417 0
M  V30 2044 N 196.587 1.43421 -0.653314 0
M  V30 2045 C 197.833 2.02111 -0.166992 0
M  V30 2046 C 198.166 1.51423 1.21592 0
M  V30 2047 O 197.441 0.707389 1.8118 0
M  V30 2048 C 197.724 3.5966 -0.177948 0
M  V30 2049 C 197.577 4.20579 -1.59478 0
M  V30 2050 C 198.896 4.37413 0.4856 0
M  V30 2051 H 196.015 0.734374 -0.0621557 0
M  V30 2052 H 198.657 1.70717 -0.834016 0
M  V30 2053 H 196.807 3.86537 0.390032 0
M  V30 2054 H 198.479 4.04732 -2.21336 0
M  V30 2055 H 196.722 3.77226 -2.14204 0
M  V30 2056 H 197.393 5.29665 -1.5543 0
M  V30 2057 H 199.869 4.161 0.00234528 0
M  V30 2058 H 198.745 5.47075 0.447207 0
M  V30 2059 H 199.006 4.13672 1.55974 0
M  V30 2060 N 198.065 0.39524 1.52563 0
M  V30 2061 C 199.295 -0.184675 2.05773 0
M  V30 2062 C 199.703 -1.40571 1.26635 0
M  V30 2063 O 199.046 -1.81105 0.30769 0
M  V30 2064 C 199.108 -0.613551 3.54226 0
M  V30 2065 C 198.772 0.49484 4.54313 0
M  V30 2066 C 199.769 1.3541 5.01956 0
M  V30 2067 C 197.454 0.663565 4.97898 0
M  V30 2068 C 199.448 2.36716 5.91814 0
M  V30 2069 C 197.135 1.67996 5.87555 0
M  V30 2070 C 198.133 2.53017 6.34406 0
M  V30 2071 O 197.821 3.52917 7.22291 0
M  V30 2072 H 197.553 -0.030077 0.675331 0
M  V30 2073 H 200.107 0.560708 1.97599 0
M  V30 2074 H 198.337 -1.411 3.60038 0
M  V30 2075 H 200.026 -1.11981 3.90148 0
M  V30 2076 H 200.792 1.23509 4.6901 0
M  V30 2077 H 196.671 0.0114913 4.60999 0
M  V30 2078 H 200.215 3.03113 6.28306 0
M  V30 2079 H 196.112 1.79933 6.19915 0
M  V30 2080 H 196.88 3.48996 7.40367 0
M  V30 2081 N 199.544 -1.57102 0.125237 0
M  V30 2082 C 200.79 -1.95697 -0.532035 0
M  V30 2083 C 201.123 -1.009 -1.6593 0
M  V30 2084 O 200.398 -0.047347 -1.94442 0
M  V30 2085 C 200.681 -3.44181 -1.05884 0
M  V30 2086 C 200.534 -4.49752 0.0654392 0
M  V30 2087 C 201.853 -3.94655 -1.9477 0
M  V30 2088 H 198.972 -0.711571 -0.191925 0
M  V30 2089 H 201.614 -1.88923 0.20206 0
M  V30 2090 H 199.764 -3.50085 -1.68442 0
M  V30 2091 H 201.436 -4.55943 0.700982 0
M  V30 2092 H 199.679 -4.27653 0.727709 0
M  V30 2093 H 200.35 -5.50924 -0.344505 0
M  V30 2094 H 202.826 -3.91094 -1.42074 0
M  V30 2095 H 201.702 -4.99057 -2.28546 0
M  V30 2096 H 201.963 -3.35718 -2.87656 0
M  V30 2097 N 201.022 0.148545 -1.56898 0
M  V30 2098 C 202.247 0.880385 -1.87787 0
M  V30 2099 C 202.672 1.74018 -0.714093 0
M  V30 2100 O 202.03 1.78153 0.336343 0
M  V30 2101 C 202.078 1.71422 -3.17249 0
M  V30 2102 O 201.182 2.8183 -3.01074 0
M  V30 2103 H 200.523 0.245301 -0.617028 0
M  V30 2104 H 203.053 0.139826 -2.04122 0
M  V30 2105 H 203.063 2.10954 -3.49231 0
M  V30 2106 H 201.738 1.08284 -4.01556 0
M  V30 2107 H 200.315 2.45715 -2.80497 0
M  V30 2108 N 202.5 1.5196 0.417844 0
M  V30 2109 C 203.725 1.69717 1.1921 0
M  V30 2110 C 204.15 0.402148 1.83751 0
M  V30 2111 O 203.508 -0.639593 1.69643 0
M  V30 2112 C 203.556 2.82794 2.2374 0
M  V30 2113 O 202.66 2.47756 3.29683 0
M  V30 2114 H 202.001 0.565263 0.348387 0
M  V30 2115 H 204.531 1.98621 0.490985 0
M  V30 2116 H 204.541 3.07452 2.68212 0
M  V30 2117 H 203.216 3.76756 1.76146 0
M  V30 2118 H 201.793 2.33739 2.90552 0
M  V30 2119 N 203.978 -0.674533 1.42435 0
M  V30 2120 C 205.389 -1.25514 1.38214 0
M  V30 2121 C 205.74 -1.96055 0.0755464 0
M  V30 2122 O 204.865 -2.00028 -0.8257 0
M  V30 2123 C 205.46 -2.28269 2.50357 0
M  V30 2124 C 204.019 -2.81856 2.49467 0
M  V30 2125 C 203.166 -1.56182 2.29134 0
M  V30 2126 H 206.117 -0.467902 1.51646 0
M  V30 2127 H 206.138 -3.10009 2.20624 0
M  V30 2128 H 205.65 -1.769 3.45439 0
M  V30 2129 H 203.751 -3.37346 1.58204 0
M  V30 2130 H 203.864 -3.30854 3.46515 0
M  V30 2131 H 202.228 -1.82761 1.774 0
M  V30 2132 H 203.011 -1.06778 3.26272 0
M  V30 2133 N 205.456 -1.28612 -0.910864 0
M  V30 2134 C 206.684 -1.18792 -1.69399 0
M  V30 2135 C 207.099 0.253039 -1.87097 0
M  V30 2136 O 206.456 1.17071 -1.40003 0
M  V30 2137 C 206.507 -1.88511 -3.08457 0
M  V30 2138 O 206.228 -3.26979 -2.91576 0
M  V30 2139 C 207.729 -1.85029 -4.02839 0
M  V30 2140 H 204.949 -0.412233 -0.529438 0
M  V30 2141 H 207.493 -1.69788 -1.13984 0
M  V30 2142 H 205.648 -1.41379 -3.60681 0
M  V30 2143 H 206.062 -3.61936 -3.79608 0
M  V30 2144 H 207.536 -2.38395 -4.97867 0
M  V30 2145 H 208.013 -0.823303 -4.31414 0
M  V30 2146 H 208.619 -2.31853 -3.56545 0
M  V30 2147 N 206.934 1.1197 -1.10907 0
M  V30 2148 C 208.18 1.84059 -0.865674 0
M  V30 2149 C 208.535 1.82731 0.602254 0
M  V30 2150 O 207.828 1.26543 1.43866 0
M  V30 2151 C 208.022 3.30749 -1.35425 0
M  V30 2152 C 207.851 3.46363 -2.86815 0
M  V30 2153 C 206.621 3.59712 -3.54874 0
M  V30 2154 C 208.819 3.41116 -3.84895 0
M  V30 2155 N 206.801 3.63741 -4.94536 0
M  V30 2156 C 208.172 3.51698 -5.10596 0
M  V30 2157 C 210.227 3.24612 -3.77533 0
M  V30 2158 C 208.93 3.4748 -6.29802 0
M  V30 2159 C 210.956 3.21708 -4.96244 0
M  V30 2160 C 210.318 3.32856 -6.20795 0
M  V30 2161 H 206.417 0.689015 -0.369841 0
M  V30 2162 H 209.001 1.34016 -1.41237 0
M  V30 2163 H 207.172 3.79322 -0.834814 0
M  V30 2164 H 208.904 3.90718 -1.05458 0
M  V30 2165 H 205.659 3.62038 -3.05329 0
M  V30 2166 H 206.083 3.69408 -5.67333 0
M  V30 2167 H 210.725 3.14883 -2.8215 0
M  V30 2168 H 208.443 3.55978 -7.25469 0
M  V30 2169 H 212.029 3.10113 -4.92261 0
M  V30 2170 H 210.909 3.3059 -7.11112 0
M  V30 2171 N 208.412 0.89855 1.29475 0
M  V30 2172 C 209.322 0.379974 2.31502 0
M  V30 2173 C 210.338 -0.524695 1.659 0
M  V30 2174 O 211.514 -0.414551 1.97087 0
M  V30 2175 C 208.579 -0.385138 3.44554 0
M  V30 2176 C 207.64 0.550914 4.2575 0
M  V30 2177 C 206.873 -0.177778 5.33404 0
M  V30 2178 O 207.096 -1.40189 5.52904 0
M  V30 2179 O 206.03 0.479106 5.9999 0
M  V30 2180 H 209.856 1.22639 2.77837 0
M  V30 2181 H 207.441 0.662834 1.33891 0
M  V30 2182 H 209.323 -0.817841 4.13388 0
M  V30 2183 H 207.998 -1.20763 3.0033 0
M  V30 2184 H 206.905 1.03271 3.59564 0
M  V30 2185 H 208.238 1.33979 4.73614 0
M  V30 2186 N 209.89 -1.43072 0.660911 0
M  V30 2187 C 210.838 -2.32569 -0.0378199 0
M  V30 2188 C 211.832 -1.49046 -0.805092 0
M  V30 2189 O 213.038 -1.65206 -0.714624 0
M  V30 2190 H 209.413 -0.75136 -0.031019 0
M  V30 2191 H 211.384 -2.89216 0.734609 0
M  V30 2192 C 210.133 -3.33453 -0.985124 0
M  V30 2193 H 209.456 -3.97752 -0.404147 0
M  V30 2194 H 210.896 -3.98691 -1.44297 0
M  V30 2195 C 209.355 -2.64642 -2.08486 0
M  V30 2196 O 209.885 -2.46776 -3.16961 0
M  V30 2197 N 208.091 -2.23891 -1.8526 0
M  V30 2198 H 207.638 -2.38621 -0.970449 0
M  V30 2199 H 207.596 -1.78181 -2.59034 0
M  V30 2200 N 211.368 -0.403325 -1.52352 0
M  V30 2201 C 212.318 0.442244 -2.2367 0
M  V30 2202 C 213.302 1.01823 -1.24583 0
M  V30 2203 O 214.494 0.942005 -1.49851 0
M  V30 2204 C 211.623 1.5615 -3.05732 0
M  V30 2205 C 210.709 0.996575 -4.12225 0
M  V30 2206 N 211.1 0.157804 -5.05554 0
M  V30 2207 C 209.398 1.26767 -4.27605 0
M  V30 2208 C 210.099 -0.155853 -5.81491 0
M  V30 2209 N 209.075 0.451775 -5.41719 0
M  V30 2210 H 212.877 -0.204964 -2.93184 0
M  V30 2211 H 210.391 -0.213418 -1.60992 0
M  V30 2212 H 212.388 2.17981 -3.55373 0
M  V30 2213 H 211.048 2.21139 -2.37755 0
M  V30 2214 H 212.059 -0.206049 -5.1749 0
M  V30 2215 H 208.736 1.91757 -3.70858 0
M  V30 2216 H 210.126 -0.836329 -6.66675 0
M  V30 2217 N 212.846 1.57033 -0.133567 0
M  V30 2218 C 213.794 2.17348 0.828412 0
M  V30 2219 C 214.788 1.12671 1.26498 0
M  V30 2220 O 215.994 1.30947 1.23502 0
M  V30 2221 H 212.369 0.695775 0.285309 0
M  V30 2222 H 214.34 2.96935 0.295372 0
M  V30 2223 C 213.089 2.79893 2.06289 0
M  V30 2224 H 212.412 3.60147 1.73592 0
M  V30 2225 H 213.852 3.25615 2.71572 0
M  V30 2226 C 212.311 1.77713 2.86216 0
M  V30 2227 O 212.841 1.23937 3.82103 0
M  V30 2228 N 211.047 1.47321 2.50489 0
M  V30 2229 H 210.594 1.91243 1.7258 0
M  V30 2230 H 210.552 0.79199 3.04261 0
M  V30 2231 N 214.325 -0.140222 1.56975 0
M  V30 2232 C 215.288 -1.15689 1.97861 0
M  V30 2233 C 216.288 -1.3549 0.865974 0
M  V30 2234 O 217.478 -1.32367 1.13246 0
M  V30 2235 C 214.61 -2.51582 2.30042 0
M  V30 2236 H 215.803 -0.805971 2.88867 0
M  V30 2237 H 213.356 -0.383801 1.51515 0
M  V30 2238 H 214.091 -2.91632 1.41849 0
M  V30 2239 H 213.876 -2.38569 3.11171 0
M  V30 2240 H 215.366 -3.24792 2.62488 0
M  V30 2241 N 215.803 -1.52179 -0.40978 0
M  V30 2242 C 217.049 -1.66453 -1.15851 0
M  V30 2243 C 217.382 -0.392972 -1.90182 0
M  V30 2244 O 216.657 0.608579 -1.84734 0
M  V30 2245 C 216.94 -2.88612 -2.15349 0
M  V30 2246 C 216.793 -4.25815 -1.44918 0
M  V30 2247 C 218.112 -3.06294 -3.16026 0
M  V30 2248 H 215.231 -0.60575 -0.419805 0
M  V30 2249 H 217.873 -1.84732 -0.444314 0
M  V30 2250 H 216.023 -2.73158 -2.76255 0
M  V30 2251 H 217.695 -4.52995 -0.871365 0
M  V30 2252 H 215.938 -4.27247 -0.751159 0
M  V30 2253 H 216.609 -5.07337 -2.17516 0
M  V30 2254 H 219.085 -3.20641 -2.65195 0
M  V30 2255 H 217.961 -3.93283 -3.8291 0
M  V30 2256 H 218.222 -2.19579 -3.83715 0
M  V30 2257 N 217.281 0.66697 -1.42791 0
M  V30 2258 C 218.528 1.42699 -1.43678 0
M  V30 2259 C 218.856 1.94419 -0.0560425 0
M  V30 2260 O 218.111 1.7182 0.936831 0
M  V30 2261 C 218.41 2.6349 -2.4147 0
M  V30 2262 C 218.076 2.30267 -3.8767 0
M  V30 2263 C 216.738 2.20918 -4.27491 0
M  V30 2264 C 219.09 2.03435 -4.79858 0
M  V30 2265 C 216.418 1.82873 -5.57471 0
M  V30 2266 C 218.77 1.66892 -6.10188 0
M  V30 2267 C 217.434 1.56058 -6.49001 0
M  V30 2268 H 216.704 0.522171 -0.525755 0
M  V30 2269 H 219.351 0.759785 -1.75783 0
M  V30 2270 H 217.656 3.35279 -2.0272 0
M  V30 2271 H 219.353 3.21684 -2.39417 0
M  V30 2272 H 215.943 2.38449 -3.56146 0
M  V30 2273 H 220.127 2.09586 -4.49875 0
M  V30 2274 H 215.383 1.7306 -5.86396 0
M  V30 2275 H 219.557 1.45157 -6.81104 0
M  V30 2276 H 217.184 1.26348 -7.49627 0
M  V30 2277 N 218.759 1.29093 0.90403 0
M  V30 2278 C 219.984 1.19809 1.69294 0
M  V30 2279 C 220.409 -0.238481 1.86582 0
M  V30 2280 O 219.767 -1.1723 1.383 0
M  V30 2281 C 219.815 1.91202 3.05736 0
M  V30 2282 O 218.919 1.22611 3.93752 0
M  V30 2283 H 218.26 0.415385 0.518027 0
M  V30 2284 H 220.79 1.70586 1.12967 0
M  V30 2285 H 220.8 1.99487 3.55906 0
M  V30 2286 H 219.475 2.95692 2.92471 0
M  V30 2287 H 218.052 1.22554 3.52186 0
M  V30 2288 N 220.237 -1.11381 1.11499 0
M  V30 2289 C 221.2 -2.15622 0.777153 0
M  V30 2290 C 222.2 -1.59504 -0.203779 0
M  V30 2291 O 223.39 -1.74188 0.020782 0
M  V30 2292 C 220.522 -3.40556 0.153116 0
M  V30 2293 H 221.715 -2.47021 1.70061 0
M  V30 2294 H 219.268 -1.26577 0.916952 0
M  V30 2295 H 220.003 -3.14767 -0.780536 0
M  V30 2296 H 219.788 -3.8257 0.859238 0
M  V30 2297 H 221.278 -4.17546 -0.0671044 0
M  V30 2298 N 221.715 -0.905404 -1.28997 0
M  V30 2299 C 222.678 -0.392253 -2.25819 0
M  V30 2300 C 223.678 0.476753 -1.5357 0
M  V30 2301 O 224.868 0.280994 -1.71919 0
M  V30 2302 C 222 0.438588 -3.38067 0
M  V30 2303 H 223.193 -1.24743 -2.72725 0
M  V30 2304 H 220.746 -0.684051 -1.40536 0
M  V30 2305 H 221.481 1.31352 -2.96508 0
M  V30 2306 H 221.266 -0.184167 -3.91667 0
M  V30 2307 H 222.756 0.78873 -4.10084 0
M  V30 2308 N 223.193 1.4272 -0.668489 0
M  V30 2309 C 224.441 2.01226 -0.187769 0
M  V30 2310 C 224.762 1.53092 1.2078 0
M  V30 2311 O 224.032 0.74993 1.80977 0
M  V30 2312 H 222.612 0.744041 -0.0664272 0
M  V30 2313 H 225.274 1.74723 -0.863583 0
M  V30 2314 H 224.37 3.11556 -0.184166 0
M  V30 2315 N 224.671 0.411399 1.52136 0
M  V30 2316 C 225.918 -0.163645 2.01838 0
M  V30 2317 C 226.246 -1.4495 1.29691 0
M  V30 2318 O 225.501 -1.91725 0.392431 0
M  V30 2319 C 225.8 -0.455872 3.54481 0
M  V30 2320 C 225.466 0.741055 4.44769 0
M  V30 2321 C 224.128 1.06936 4.69167 0
M  V30 2322 C 226.48 1.54075 4.97906 0
M  V30 2323 C 223.808 2.19851 5.43951 0
M  V30 2324 C 226.16 2.66067 5.73926 0
M  V30 2325 C 224.824 2.99381 5.96596 0
M  V30 2326 H 224.094 -0.0598821 0.738576 0
M  V30 2327 H 226.741 0.553283 1.83333 0
M  V30 2328 H 225.046 -1.2544 3.71177 0
M  V30 2329 H 226.743 -0.913802 3.90449 0
M  V30 2330 H 223.333 0.475192 4.25958 0
M  V30 2331 H 227.517 1.30033 4.78963 0
M  V30 2332 H 222.773 2.46006 5.59724 0
M  V30 2333 H 226.947 3.28419 6.14096 0
M  V30 2334 H 224.574 3.86992 6.54325 0
M  V30 2335 N 226.149 -1.5696 0.141893 0
M  V30 2336 C 227.096 -2.16501 -0.799737 0
M  V30 2337 C 228.066 -1.09643 -1.24771 0
M  V30 2338 O 229.251 -1.3766 -1.32115 0
M  V30 2339 C 226.391 -2.78679 -2.03549 0
M  V30 2340 C 225.504 -3.99914 -1.6338 0
M  V30 2341 C 224.639 -4.50106 -2.82096 0
M  V30 2342 C 223.678 -5.63819 -2.38275 0
M  V30 2343 N 222.815 -6.08651 -3.49983 0
M  V30 2344 H 227.655 -2.96632 -0.285179 0
M  V30 2345 H 225.192 -1.46533 -0.129053 0
M  V30 2346 H 227.15 -3.1287 -2.75986 0
M  V30 2347 H 225.78 -2.012 -2.52425 0
M  V30 2348 H 224.832 -3.71735 -0.807279 0
M  V30 2349 H 226.144 -4.82311 -1.27192 0
M  V30 2350 H 225.298 -4.86325 -3.62729 0
M  V30 2351 H 224.037 -3.66706 -3.21525 0
M  V30 2352 H 223.042 -5.2718 -1.56081 0
M  V30 2353 H 224.267 -6.49 -1.99938 0
M  V30 2354 H 222.213 -5.28188 -3.89042 0
M  V30 2355 H 222.13 -6.85961 -3.17794 0
M  V30 2356 H 223.398 -6.49515 -4.30988 0
M  V30 2357 N 227.627 0.131896 -1.57047 0
M  V30 2358 C 228.904 0.871495 -1.75112 0
M  V30 2359 C 229.284 1.9866 -0.713949 0
M  V30 2360 O 228.632 2.26965 0.264447 0
M  V30 2361 C 228.842 1.40007 -3.19686 0
M  V30 2362 C 230.19 1.85752 -3.81813 0
M  V30 2363 O 231.214 1.49715 -3.23209 0
M  V30 2364 O 230.073 2.5226 -4.84796 0
M  V30 2365 H 227.167 0.412919 -0.716538 0
M  V30 2366 H 229.713 0.116641 -1.69299 0
M  V30 2367 H 228.485 0.599404 -3.86682 0
M  V30 2368 H 228.108 2.218 -3.29986 0
M  V30 2369 N 229.106 1.52395 0.401703 0
M  V30 2370 C 230.355 1.66044 1.14509 0
M  V30 2371 C 230.668 0.400216 1.91462 0
M  V30 2372 O 231.874 0.416632 2.68284 0
M  V30 2373 C 230.33 2.93388 2.0845 0
M  V30 2374 C 229.938 4.26545 1.36978 0
M  V30 2375 C 231.682 3.16402 2.83001 0
M  V30 2376 C 229.589 5.45007 2.29611 0
M  V30 2377 H 228.519 0.618562 0.431158 0
M  V30 2378 H 231.17 1.78886 0.40892 0
M  V30 2379 H 229.552 2.74263 2.8565 0
M  V30 2380 H 230.726 4.56179 0.650916 0
M  V30 2381 H 229.041 4.09692 0.74438 0
M  V30 2382 H 231.638 4.02085 3.52465 0
M  V30 2383 H 231.981 2.30943 3.46368 0
M  V30 2384 H 232.514 3.36034 2.12898 0
M  V30 2385 H 229.253 6.32835 1.70879 0
M  V30 2386 H 228.773 5.19702 2.9945 0
M  V30 2387 H 230.452 5.7838 2.89974 0
M  V30 2388 N 230.584 -0.659388 1.43143 0
M  V30 2389 C 232 -0.974337 1.26407 0
M  V30 2390 C 232.2 -2.007 0.179341 0
M  V30 2391 O 231.256 -2.4856 -0.444295 0
M  V30 2392 C 232.569 -1.46447 2.62628 0
M  V30 2393 C 234.117 -1.58144 2.7011 0
M  V30 2394 C 234.592 -2.1055 4.06734 0
M  V30 2395 N 236.083 -2.17861 4.08767 0
M  V30 2396 C 236.818 -2.59519 5.1131 0
M  V30 2397 N 236.314 -3.00518 6.24228 0
M  V30 2398 N 238.107 -2.59404 4.98664 0
M  V30 2399 H 230.258 0.0240528 2.12386 0
M  V30 2400 H 232.521 -0.0518065 0.946583 0
M  V30 2401 H 232.227 -0.780123 3.42939 0
M  V30 2402 H 232.101 -2.44058 2.87603 0
M  V30 2403 H 234.488 -2.25682 1.90136 0
M  V30 2404 H 234.569 -0.589828 2.48907 0
M  V30 2405 H 234.213 -1.43616 4.87172 0
M  V30 2406 H 234.143 -3.10531 4.25298 0
M  V30 2407 H 236.634 -1.88975 3.27257 0
M  V30 2408 H 236.947 -3.31036 6.98309 0
M  V30 2409 H 235.292 -2.98337 6.2771 0
M  V30 2410 H 238.483 -2.26747 4.09516 0
M  V30 2411 H 238.656 -2.91548 5.78709 0
M  V30 2412 N 232.062 -1.29571 -0.897171 0
M  V30 2413 C 233.287 -1.20705 -1.68656 0
M  V30 2414 C 233.712 0.228582 -1.86706 0
M  V30 2415 O 233.07 1.16494 -1.3892 0
M  V30 2416 C 233.118 -1.9282 -3.04717 0
M  V30 2417 O 232.222 -1.24697 -3.93096 0
M  V30 2418 H 231.563 -0.418126 -0.515816 0
M  V30 2419 H 234.093 -1.71183 -1.12061 0
M  V30 2420 H 234.103 -2.01372 -3.54843 0
M  V30 2421 H 232.778 -2.97239 -2.90899 0
M  V30 2422 H 231.355 -1.2442 -3.51531 0
M  V30 2423 N 233.54 1.10788 -1.12088 0
M  V30 2424 C 234.77 1.86191 -0.895351 0
M  V30 2425 C 235.178 1.80763 0.558702 0
M  V30 2426 O 234.521 1.19188 1.39785 0
M  V30 2427 C 234.583 3.35659 -1.28737 0
M  V30 2428 C 234.247 3.64849 -2.75198 0
M  V30 2429 C 235.244 3.61757 -3.734 0
M  V30 2430 C 232.929 3.93641 -3.12013 0
M  V30 2431 C 234.923 3.87045 -5.06434 0
M  V30 2432 C 232.61 4.18585 -4.4523 0
M  V30 2433 C 233.608 4.15277 -5.42249 0
M  V30 2434 O 233.296 4.3959 -6.73065 0
M  V30 2435 H 233.028 0.595425 -0.32007 0
M  V30 2436 H 235.582 1.40992 -1.49367 0
M  V30 2437 H 233.812 3.81497 -0.63224 0
M  V30 2438 H 235.501 3.92441 -1.03656 0
M  V30 2439 H 236.267 3.39557 -3.46303 0
M  V30 2440 H 232.146 3.95348 -2.37109 0
M  V30 2441 H 235.69 3.84378 -5.82151 0
M  V30 2442 H 231.587 4.40264 -4.72057 0
M  V30 2443 H 232.355 4.57123 -6.78956 0
M  V30 2444 N 235.018 0.912232 1.28515 0
M  V30 2445 C 236.434 0.610159 1.47476 0
M  V30 2446 C 236.634 -0.844955 1.82928 0
M  V30 2447 O 235.69 -1.62416 1.93332 0
M  V30 2448 C 237.003 1.54675 2.57868 0
M  V30 2449 C 238.551 1.55331 2.71738 0
M  V30 2450 C 239.026 2.47649 3.85272 0
M  V30 2451 N 240.517 2.45767 3.92623 0
M  V30 2452 C 241.252 3.13896 4.79851 0
M  V30 2453 N 240.748 3.9135 5.71679 0
M  V30 2454 N 242.541 3.02991 4.73448 0
M  V30 2455 H 234.692 1.85318 1.03783 0
M  V30 2456 H 236.955 0.794777 0.516753 0
M  V30 2457 H 236.661 2.5841 2.38574 0
M  V30 2458 H 236.535 1.27671 3.54937 0
M  V30 2459 H 238.922 0.52335 2.90422 0
M  V30 2460 H 239.003 1.86378 1.75205 0
M  V30 2461 H 238.647 3.50745 3.67342 0
M  V30 2462 H 238.577 2.13904 4.81199 0
M  V30 2463 H 241.068 1.89503 3.26951 0
M  V30 2464 H 241.381 4.40359 6.35062 0
M  V30 2465 H 239.726 3.95455 5.71524 0
M  V30 2466 H 242.917 2.41987 4.007 0
M  V30 2467 H 243.09 3.5636 5.41213 0
M  V30 2468 N 236.496 -1.42363 0.676048 0
M  V30 2469 C 237.726 -2.05561 0.206967 0
M  V30 2470 C 238.134 -1.50887 -1.14148 0
M  V30 2471 O 237.477 -0.643933 -1.72044 0
M  V30 2472 C 237.539 -3.5944 0.0659508 0
M  V30 2473 C 237.203 -4.36812 1.34331 0
M  V30 2474 C 238.2 -4.67383 2.27704 0
M  V30 2475 C 235.885 -4.76429 1.59125 0
M  V30 2476 C 237.879 -5.36509 3.44147 0
M  V30 2477 C 235.566 -5.45294 2.75857 0
M  V30 2478 C 236.564 -5.75259 3.68193 0
M  V30 2479 O 236.252 -6.42712 4.82883 0
M  V30 2480 H 235.984 -0.668872 0.0979084 0
M  V30 2481 H 238.538 -1.83467 0.923531 0
M  V30 2482 H 236.768 -3.80197 -0.706204 0
M  V30 2483 H 238.457 -4.0427 -0.363418 0
M  V30 2484 H 239.223 -4.37275 2.09799 0
M  V30 2485 H 235.102 -4.52498 0.881258 0
M  V30 2486 H 238.646 -5.59814 4.16238 0
M  V30 2487 H 234.543 -5.7482 2.93688 0
M  V30 2488 H 235.311 -6.61204 4.82444 0
M  V30 2489 N 237.974 -0.419461 -1.51915 0
M  V30 2490 C 239.22 0.145505 -2.02879 0
M  V30 2491 C 239.575 1.41926 -1.29903 0
M  V30 2492 O 238.868 1.87383 -0.399782 0
M  V30 2493 C 239.062 0.437067 -3.54717 0
M  V30 2494 C 238.891 -0.806877 -4.42402 0
M  V30 2495 C 237.661 -1.33514 -4.87342 0
M  V30 2496 C 239.859 -1.68796 -4.85811 0
M  V30 2497 N 237.841 -2.53349 -5.59185 0
M  V30 2498 C 239.212 -2.73247 -5.56539 0
M  V30 2499 C 241.267 -1.70449 -4.67816 0
M  V30 2500 C 239.97 -3.79276 -6.11181 0
M  V30 2501 C 241.996 -2.75403 -5.23361 0
M  V30 2502 C 241.358 -3.78575 -5.9402 0
M  V30 2503 H 237.457 0.0145424 -0.781865 0
M  V30 2504 H 240.041 -0.576126 -1.85981 0
M  V30 2505 H 238.212 1.12774 -3.71667 0
M  V30 2506 H 239.944 0.99182 -3.92358 0
M  V30 2507 H 236.699 -0.891657 -4.65131 0
M  V30 2508 H 237.123 -3.14066 -5.99743 0
M  V30 2509 H 241.765 -0.920209 -4.12664 0
M  V30 2510 H 239.483 -4.58554 -6.65397 0
M  V30 2511 H 243.069 -2.77603 -5.113 0
M  V30 2512 H 241.949 -4.58453 -6.36231 0
M  V30 2513 N 239.452 1.56882 -0.150215 0
M  V30 2514 C 240.729 1.87844 0.545327 0
M  V30 2515 C 241.109 1.0567 1.82749 0
M  V30 2516 O 240.457 0.144442 2.28043 0
M  V30 2517 C 240.667 3.39526 0.80767 0
M  V30 2518 C 242.015 4.08814 1.14703 0
M  V30 2519 O 243.039 3.44723 0.896917 0
M  V30 2520 O 241.898 5.22004 1.61784 0
M  V30 2521 H 238.992 0.778677 0.278553 0
M  V30 2522 H 241.538 1.68666 -0.187068 0
M  V30 2523 H 240.31 3.91173 -0.0996096 0
M  V30 2524 H 239.933 3.64243 1.59413 0
M  V30 2525 N 240.93 -0.123565 1.57115 0
M  V30 2526 C 241.893 -1.13583 1.99076 0
M  V30 2527 C 242.893 -1.34564 0.880296 0
M  V30 2528 O 244.083 -1.31158 1.14644 0
M  V30 2529 C 241.215 -2.49128 2.32698 0
M  V30 2530 H 242.408 -0.775287 2.89706 0
M  V30 2531 H 239.961 -0.36771 1.51913 0
M  V30 2532 H 240.696 -2.90111 1.44934 0
M  V30 2533 H 240.481 -2.35255 3.13684 0
M  V30 2534 H 241.971 -3.2199 2.65918 0
M  V30 2535 N 242.408 -1.52605 -0.393616 0
M  V30 2536 C 243.318 -1.79971 -1.50492 0
M  V30 2537 C 244.334 -0.686181 -1.59899 0
M  V30 2538 O 245.51 -0.973274 -1.76322 0
M  V30 2539 C 242.575 -1.95867 -2.86072 0
M  V30 2540 C 241.636 -3.19781 -2.86424 0
M  V30 2541 C 240.869 -3.34909 -4.15538 0
M  V30 2542 O 241.092 -2.54948 -5.10253 0
M  V30 2543 O 240.026 -4.28141 -4.23059 0
M  V30 2544 H 243.852 -2.74328 -1.30299 0
M  V30 2545 H 241.437 -1.3764 -0.581005 0
M  V30 2546 H 243.319 -2.08056 -3.66457 0
M  V30 2547 H 241.994 -1.04699 -3.063 0
M  V30 2548 H 240.901 -3.13038 -2.04837 0
M  V30 2549 H 242.234 -4.1078 -2.71147 0
M  V30 2550 N 243.887 0.651787 -1.4349 0
M  V30 2551 C 244.834 1.76462 -1.4876 0
M  V30 2552 C 245.804 1.62641 -0.337189 0
M  V30 2553 O 246.989 1.82864 -0.544544 0
M  V30 2554 C 244.129 3.14623 -1.41796 0
M  V30 2555 C 243.242 3.39568 -2.67053 0
M  V30 2556 C 242.377 4.67585 -2.52068 0
M  V30 2557 C 241.416 4.85639 -3.72587 0
M  V30 2558 N 240.553 6.04915 -3.56402 0
M  V30 2559 H 245.393 1.71293 -2.43849 0
M  V30 2560 H 242.93 0.835889 -1.21043 0
M  V30 2561 H 244.888 3.94496 -1.35753 0
M  V30 2562 H 243.518 3.18859 -0.50288 0
M  V30 2563 H 242.57 2.53783 -2.8337 0
M  V30 2564 H 243.882 3.48795 -3.56572 0
M  V30 2565 H 243.036 5.55586 -2.4374 0
M  V30 2566 H 241.775 4.60681 -1.60075 0
M  V30 2567 H 240.78 3.96073 -3.81321 0
M  V30 2568 H 242.005 4.94372 -4.65589 0
M  V30 2569 H 239.951 5.9914 -2.67146 0
M  V30 2570 H 239.868 6.15106 -4.39524 0
M  V30 2571 H 241.136 6.95533 -3.51929 0
M  V30 2572 N 245.365 1.30045 0.890287 0
M  V30 2573 C 246.781 1.08261 1.17268 0
M  V30 2574 C 246.981 -0.160063 2.00863 0
M  V30 2575 O 246.037 -0.855181 2.37577 0
M  V30 2576 C 247.35 2.34323 1.8845 0
M  V30 2577 C 248.898 2.39735 2.01237 0
M  V30 2578 C 249.373 3.65625 2.7583 0
M  V30 2579 N 250.864 3.66402 2.83379 0
M  V30 2580 C 251.599 4.60498 3.41657 0
M  V30 2581 N 251.095 5.64933 4.01026 0
M  V30 2582 N 252.888 4.48051 3.39421 0
M  V30 2583 H 245.039 2.09777 0.332762 0
M  V30 2584 H 247.302 0.92446 0.209948 0
M  V30 2585 H 247.008 3.2498 1.34465 0
M  V30 2586 H 246.882 2.4256 2.88867 0
M  V30 2587 H 249.269 1.4956 2.54393 0
M  V30 2588 H 249.35 2.35476 0.999232 0
M  V30 2589 H 248.994 4.56156 2.23347 0
M  V30 2590 H 248.924 3.67144 3.77509 0
M  V30 2591 H 251.415 2.90896 2.41222 0
M  V30 2592 H 251.728 6.32841 4.43545 0
M  V30 2593 H 250.073 5.68732 3.99461 0
M  V30 2594 H 253.264 3.65649 2.92264 0
M  V30 2595 H 253.437 5.21565 3.84544 0
M  V30 2596 N 246.843 -1.10192 1.12674 0
M  V30 2597 C 248.091 -1.81845 0.881861 0
M  V30 2598 C 248.412 -1.85737 -0.593867 0
M  V30 2599 O 247.682 -1.33724 -1.4316 0
M  V30 2600 H 246.262 -0.673432 0.323261 0
M  V30 2601 H 248.924 -1.33316 1.42172 0
M  V30 2602 H 248.02 -2.85288 1.2656 0
M  V30 2603 N 248.321 -0.919034 -1.28029 0
M  V30 2604 C 249.251 -0.428581 -2.29533 0
M  V30 2605 C 250.232 0.50659 -1.62381 0
M  V30 2606 O 251.417 0.413195 -1.89753 0
M  V30 2607 C 248.547 0.327388 -3.45753 0
M  V30 2608 C 247.501 -0.519137 -4.2484 0
M  V30 2609 C 246.827 0.365486 -5.33449 0
M  V30 2610 C 248.127 -1.77914 -4.91064 0
M  V30 2611 H 249.821 -1.27687 -2.70807 0
M  V30 2612 H 247.367 -0.615428 -1.30186 0
M  V30 2613 H 249.32 0.681378 -4.15855 0
M  V30 2614 H 248.044 1.20963 -3.03374 0
M  V30 2615 H 246.703 -0.855717 -3.56473 0
M  V30 2616 H 246.351 1.24642 -4.87312 0
M  V30 2617 H 246.051 -0.197356 -5.87268 0
M  V30 2618 H 247.575 0.715241 -6.06396 0
M  V30 2619 H 248.989 -1.49374 -5.53498 0
M  V30 2620 H 247.386 -2.2848 -5.54903 0
M  V30 2621 H 248.456 -2.50382 -4.15255 0
M  V30 2622 N 249.799 1.42003 -0.683588 0
M  V30 2623 C 251.076 1.95112 -0.138075 0
M  V30 2624 C 251.456 1.62359 1.34918 0
M  V30 2625 O 250.804 0.924311 2.08971 0
M  V30 2626 C 251.014 3.46505 -0.416581 0
M  V30 2627 C 252.362 4.23254 -0.337834 0
M  V30 2628 O 253.386 3.54468 -0.35082 0
M  V30 2629 O 252.245 5.45743 -0.287596 0
M  V30 2630 H 249.339 0.826961 -0.00797996 0
M  V30 2631 H 251.885 1.51784 -0.758924 0
M  V30 2632 H 250.657 3.63582 -1.4465 0
M  V30 2633 H 250.28 3.969 0.235839 0
M  V30 2634 N 251.277 0.427512 1.51691 0
M  V30 2635 C 252.207 -0.3796 2.30394 0
M  V30 2636 C 253.188 -1.02982 1.35384 0
M  V30 2637 O 254.373 -1.03534 1.643 0
M  V30 2638 C 251.503 -1.48649 3.1388 0
M  V30 2639 C 250.457 -0.960294 4.17088 0
M  V30 2640 C 249.783 -2.16219 4.89033 0
M  V30 2641 C 251.083 -0.00153679 5.223 0
M  V30 2642 H 252.777 0.277164 2.98114 0
M  V30 2643 H 250.323 0.134739 1.43368 0
M  V30 2644 H 252.276 -2.05826 3.67714 0
M  V30 2645 H 251 -2.1714 2.43962 0
M  V30 2646 H 249.659 -0.410806 3.64291 0
M  V30 2647 H 249.307 -2.83307 4.15628 0
M  V30 2648 H 249.007 -1.81654 5.58816 0
M  V30 2649 H 250.531 -2.73968 5.45687 0
M  V30 2650 H 251.945 -0.482687 5.71264 0
M  V30 2651 H 250.342 0.256199 5.99553 0
M  V30 2652 H 251.412 0.938174 4.75738 0
M  V30 2653 N 252.755 -1.56801 0.158532 0
M  V30 2654 C 253.687 -2.14488 -0.807923 0
M  V30 2655 C 254.7 -1.09721 -1.20271 0
M  V30 2656 O 255.889 -1.36956 -1.14478 0
M  V30 2657 C 252.989 -2.66217 -2.09718 0
M  V30 2658 C 252.162 -3.95507 -1.86796 0
M  V30 2659 C 251.221 -4.3243 -2.99818 0
M  V30 2660 O 250.247 -5.00543 -2.71008 0
M  V30 2661 N 251.449 -3.92947 -4.27285 0
M  V30 2662 H 254.214 -2.98042 -0.314816 0
M  V30 2663 H 251.775 -1.61881 -0.0246692 0
M  V30 2664 H 253.767 -2.87924 -2.84398 0
M  V30 2665 H 252.337 -1.87324 -2.50257 0
M  V30 2666 H 251.557 -3.82309 -0.96089 0
M  V30 2667 H 252.845 -4.79972 -1.68833 0
M  V30 2668 H 252.243 -3.38087 -4.53557 0
M  V30 2669 H 250.8 -4.19681 -4.9871 0
M  V30 2670 N 254.233 0.115231 -1.57178 0
M  V30 2671 C 255.481 0.820727 -1.84685 0
M  V30 2672 C 255.802 1.80237 -0.744279 0
M  V30 2673 O 255.072 1.94529 0.231375 0
M  V30 2674 H 253.652 0.306084 -0.681411 0
M  V30 2675 H 256.314 0.101656 -1.94635 0
M  V30 2676 H 255.41 1.36366 -2.80733 0
M  V30 2677 N 255.711 1.52812 0.385517 0
M  V30 2678 C 256.958 1.68026 1.1302 0
M  V30 2679 C 257.286 0.421934 1.89868 0
M  V30 2680 O 256.541 -0.595749 1.86412 0
M  V30 2681 C 256.84 2.86856 2.13187 0
M  V30 2682 C 256.506 4.24159 1.5297 0
M  V30 2683 C 255.168 4.61501 1.36274 0
M  V30 2684 C 257.52 5.09627 1.09223 0
M  V30 2685 C 254.848 5.81966 0.743837 0
M  V30 2686 C 257.2 6.30719 0.487411 0
M  V30 2687 C 255.864 6.6679 0.307777 0
M  V30 2688 H 255.134 0.614849 0.413571 0
M  V30 2689 H 257.781 1.86962 0.414405 0
M  V30 2690 H 256.086 2.6235 2.90998 0
M  V30 2691 H 257.783 2.95821 2.70722 0
M  V30 2692 H 254.373 3.94746 1.66954 0
M  V30 2693 H 258.557 4.81343 1.20922 0
M  V30 2694 H 253.813 6.08519 0.592891 0
M  V30 2695 H 257.987 6.96259 0.140143 0
M  V30 2696 H 255.614 7.60001 -0.173879 0
M  V30 2697 N 257.189 -0.644168 1.43834 0
M  V30 2698 C 258.119 -1.76814 1.52509 0
M  V30 2699 C 259.1 -1.65823 0.379052 0
M  V30 2700 O 260.285 -1.84781 0.597466 0
M  V30 2701 C 257.415 -3.15288 1.4564 0
M  V30 2702 C 256.369 -3.41053 2.58586 0
M  V30 2703 C 255.695 -4.79421 2.36769 0
M  V30 2704 C 256.995 -3.34902 4.00797 0
M  V30 2705 H 258.689 -1.69812 2.46586 0
M  V30 2706 H 256.235 -0.815542 1.1868 0
M  V30 2707 H 258.188 -3.93681 1.50311 0
M  V30 2708 H 256.912 -3.23043 0.480725 0
M  V30 2709 H 255.571 -2.65035 2.53282 0
M  V30 2710 H 255.219 -4.83863 1.37424 0
M  V30 2711 H 254.919 -4.9762 3.12487 0
M  V30 2712 H 256.443 -5.6006 2.43238 0
M  V30 2713 H 257.857 -4.03218 4.07539 0
M  V30 2714 H 256.254 -3.64637 4.76613 0
M  V30 2715 H 257.324 -2.32928 4.25291 0
M  V30 2716 N 258.668 -1.30515 -0.883378 0
M  V30 2717 C 259.616 -1.16941 -2.01066 0
M  V30 2718 C 260.61 -0.0809148 -1.69207 0
M  V30 2719 O 261.816 -0.241877 -1.78367 0
M  V30 2720 H 258.191 -0.361705 -0.659298 0
M  V30 2721 H 260.162 -2.12344 -2.09649 0
M  V30 2722 C 258.911 -0.879694 -3.36388 0
M  V30 2723 H 258.234 -1.70936 -3.61415 0
M  V30 2724 H 259.674 -0.82483 -4.159 0
M  V30 2725 C 258.133 0.417409 -3.34304 0
M  V30 2726 O 258.663 1.43843 -3.75063 0
M  V30 2727 N 256.869 0.429141 -2.87414 0
M  V30 2728 H 256.416 -0.402222 -2.5444 0
M  V30 2729 H 256.374 1.29696 -2.86403 0
M  V30 2730 N 260.146 1.09593 -1.13257 0
M  V30 2731 C 261.423 1.78293 -0.804432 0
M  V30 2732 C 261.803 1.99004 0.70431 0
M  V30 2733 O 261.151 1.59007 1.641 0
M  V30 2734 C 261.361 3.10707 -1.5894 0
M  V30 2735 C 262.709 3.85443 -1.78099 0
M  V30 2736 O 263.733 3.20454 -1.55525 0
M  V30 2737 O 262.592 5.02108 -2.15753 0
M  V30 2738 H 259.686 0.773156 -0.293528 0
M  V30 2739 H 262.232 1.16164 -1.23709 0
M  V30 2740 H 261.004 2.91106 -2.61482 0
M  V30 2741 H 260.627 3.80558 -1.15157 0
M  V30 2742 N 261.624 0.925811 1.2754 0
M  V30 2743 C 262.554 0.440748 2.29303 0
M  V30 2744 C 263.535 -0.497971 1.62648 0
M  V30 2745 O 264.72 -0.403126 1.8997 0
M  V30 2746 C 261.85 -0.309048 3.45922 0
M  V30 2747 C 260.804 0.54166 4.24559 0
M  V30 2748 C 260.13 -0.337191 5.33636 0
M  V30 2749 C 261.43 1.80516 4.90114 0
M  V30 2750 H 263.124 1.29121 2.70126 0
M  V30 2751 H 260.67 0.622323 1.29858 0
M  V30 2752 H 262.623 -0.659315 4.1621 0
M  V30 2753 H 261.347 -1.19352 3.04011 0
M  V30 2754 H 260.006 0.874609 3.56014 0
M  V30 2755 H 259.654 -1.22056 4.87966 0
M  V30 2756 H 259.354 0.228497 5.87156 0
M  V30 2757 H 260.878 -0.683072 6.06767 0
M  V30 2758 H 262.292 1.52307 5.52698 0
M  V30 2759 H 260.689 2.3142 5.53683 0
M  V30 2760 H 261.759 2.52581 4.13921 0
M  V30 2761 N 263.102 -1.41638 0.69111 0
M  V30 2762 C 264.012 -2.34588 0.0233487 0
M  V30 2763 C 265.028 -1.55987 -0.770984 0
M  V30 2764 O 266.204 -1.88486 -0.709569 0
M  V30 2765 C 263.269 -3.34684 -0.904851 0
M  V30 2766 C 262.33 -4.29176 -0.103225 0
M  V30 2767 C 261.563 -5.2449 -0.987216 0
M  V30 2768 O 261.786 -5.2514 -2.22674 0
M  V30 2769 O 260.72 -6.00295 -0.439281 0
M  V30 2770 H 264.546 -2.93261 0.789416 0
M  V30 2771 H 262.131 -1.42417 0.45142 0
M  V30 2772 H 264.013 -3.96133 -1.43724 0
M  V30 2773 H 262.688 -2.78461 -1.65049 0
M  V30 2774 H 261.595 -3.71089 0.473655 0
M  V30 2775 H 262.928 -4.88484 0.60365 0
M  V30 2776 N 264.58 -0.43555 -1.51462 0
M  V30 2777 C 265.528 0.391205 -2.29287 0
M  V30 2778 C 266.522 1.02247 -1.35062 0
M  V30 2779 O 267.728 0.957646 -1.52411 0
M  V30 2780 H 264.103 0.144968 -0.737895 0
M  V30 2781 H 266.074 -0.286051 -2.97026 0
M  V30 2782 C 264.823 1.48096 -3.14583 0
M  V30 2783 H 264.146 1.00457 -3.86973 0
M  V30 2784 H 265.586 2.03273 -3.72097 0
M  V30 2785 C 264.045 2.46321 -2.29843 0
M  V30 2786 O 264.575 3.50815 -1.95682 0
M  V30 2787 N 262.781 2.17166 -1.931 0
M  V30 2788 H 262.328 1.32218 -2.21079 0
M  V30 2789 H 262.286 2.83127 -1.36698 0
M  V30 2790 N 266.058 1.56714 -0.166846 0
M  V30 2791 C 267.021 2.16539 0.751232 0
M  V30 2792 C 268.021 1.11228 1.16125 0
M  V30 2793 O 269.211 1.36765 1.07894 0
M  V30 2794 C 266.343 2.74462 2.02196 0
M  V30 2795 H 267.536 2.99013 0.230499 0
M  V30 2796 H 265.089 1.56081 0.0826982 0
M  V30 2797 H 265.824 1.95709 2.58589 0
M  V30 2798 H 265.609 3.51527 1.73698 0
M  V30 2799 H 267.099 3.20489 2.67725 0
M  V30 2800 N 267.536 -0.106894 1.57237 0
M  V30 2801 C 268.947 -0.662723 1.74542 0
M  V30 2802 C 269.298 -1.7971 0.787319 0
M  V30 2803 O 268.423 -2.16368 -0.0369636 0
M  V30 2804 C 269.018 -1.20896 3.16496 0
M  V30 2805 C 267.577 -1.71096 3.35266 0
M  V30 2806 C 266.724 -0.615642 2.7038 0
M  V30 2807 H 269.675 0.119106 1.58252 0
M  V30 2808 H 269.696 -2.07847 3.18716 0
M  V30 2809 H 269.208 -0.383122 3.86204 0
M  V30 2810 H 267.309 -2.56119 2.70618 0
M  V30 2811 H 267.422 -1.81208 4.43509 0
M  V30 2812 H 265.786 -1.05222 2.31949 0
M  V30 2813 H 266.569 0.199419 3.4272 0
M  V30 2814 N 269.014 -1.53014 -0.377408 0
M  V30 2815 C 269.924 -1.81557 -1.48574 0
M  V30 2816 C 270.94 -0.703102 -1.59162 0
M  V30 2817 O 272.116 -0.99192 -1.75279 0
M  V30 2818 C 269.181 -1.9889 -2.83978 0
M  V30 2819 C 268.242 -3.22801 -2.83016 0
M  V30 2820 C 267.475 -3.39298 -4.11962 0
M  V30 2821 O 267.698 -2.60345 -5.0752 0
M  V30 2822 O 266.632 -4.32604 -4.18494 0
M  V30 2823 H 270.458 -2.75695 -1.27382 0
M  V30 2824 H 268.043 -1.38248 -0.566373 0
M  V30 2825 H 269.925 -2.11931 -3.6423 0
M  V30 2826 H 268.6 -1.07942 -3.05172 0
M  V30 2827 H 267.507 -3.15193 -2.01505 0
M  V30 2828 H 268.84 -4.13632 -2.66775 0
M  V30 2829 N 270.492 0.636531 -1.44174 0
M  V30 2830 C 271.739 1.39619 -1.46672 0
M  V30 2831 C 272.067 1.94257 -0.0972691 0
M  V30 2832 O 271.322 1.73768 0.900175 0
M  V30 2833 C 271.621 2.58309 -2.47005 0
M  V30 2834 C 271.287 2.21992 -3.92467 0
M  V30 2835 C 269.949 2.118 -4.32081 0
M  V30 2836 C 272.301 1.9321 -4.84065 0
M  V30 2837 C 269.629 1.71007 -5.61225 0
M  V30 2838 C 271.981 1.53911 -6.13591 0
M  V30 2839 C 270.645 1.42257 -6.52165 0
M  V30 2840 H 269.915 0.510902 -0.536712 0
M  V30 2841 H 272.562 0.722328 -1.77355 0
M  V30 2842 H 270.867 3.30903 -2.09786 0
M  V30 2843 H 272.564 3.16533 -2.46186 0
M  V30 2844 H 269.154 2.30841 -3.61124 0
M  V30 2845 H 273.338 1.99997 -4.54219 0
M  V30 2846 H 268.594 1.60583 -5.89935 0
M  V30 2847 H 272.768 1.30677 -6.8403 0
M  V30 2848 H 270.395 1.10419 -7.52138 0
M  V30 2849 N 271.97 1.30982 0.876444 0
M  V30 2850 C 273.195 1.23373 1.66715 0
M  V30 2851 C 273.62 -0.19885 1.87046 0
M  V30 2852 O 272.978 -1.1427 1.40756 0
M  V30 2853 C 273.026 1.97644 3.01611 0
M  V30 2854 O 272.13 1.30935 3.91062 0
M  V30 2855 H 271.471 0.426279 0.509099 0
M  V30 2856 H 274.001 1.72944 1.09323 0
M  V30 2857 H 274.011 2.06992 3.51594 0
M  V30 2858 H 272.686 3.01829 2.86133 0
M  V30 2859 H 271.263 1.29996 3.49507 0
M  V30 2860 N 273.449 -1.08991 1.13837 0
M  V30 2861 C 274.698 -1.80631 0.897509 0
M  V30 2862 C 275.011 -1.86872 -0.57777 0
M  V30 2863 O 276.217 -2.54866 -0.935701 0
M  V30 2864 C 274.673 -3.24517 1.55618 0
M  V30 2865 C 274.281 -3.26529 3.0673 0
M  V30 2866 C 276.025 -4.00882 1.3962 0
M  V30 2867 C 273.932 -4.64965 3.65461 0
M  V30 2868 H 272.862 -0.67691 0.332129 0
M  V30 2869 H 275.513 -1.2246 1.3666 0
M  V30 2870 H 273.895 -3.82778 1.01476 0
M  V30 2871 H 275.069 -2.78008 3.67489 0
M  V30 2872 H 273.384 -2.63656 3.22296 0
M  V30 2873 H 275.981 -5.03167 1.80906 0
M  V30 2874 H 276.324 -4.14896 0.341578 0
M  V30 2875 H 276.857 -3.49075 1.90766 0
M  V30 2876 H 273.596 -4.56153 4.70749 0
M  V30 2877 H 273.116 -5.13792 3.09481 0
M  V30 2878 H 274.795 -5.3394 3.654 0
M  V30 2879 N 274.927 -0.932562 -1.27047 0
M  V30 2880 C 276.173 -0.576412 -1.94436 0
M  V30 2881 C 276.506 0.880891 -1.73072 0
M  V30 2882 O 275.781 1.62905 -1.06264 0
M  V30 2883 C 276.064 -0.909031 -3.48437 0
M  V30 2884 C 275.917 -2.42044 -3.79123 0
M  V30 2885 C 277.236 -0.418341 -4.38107 0
M  V30 2886 H 274.355 -0.210888 -0.706184 0
M  V30 2887 H 276.997 -1.16522 -1.50075 0
M  V30 2888 H 275.147 -0.407947 -3.86352 0
M  V30 2889 H 276.819 -2.99359 -3.50973 0
M  V30 2890 H 275.062 -2.86758 -3.25503 0
M  V30 2891 H 275.733 -2.6037 -4.86736 0
M  V30 2892 H 278.209 -0.847856 -4.0737 0
M  V30 2893 H 277.085 -0.679981 -5.44672 0
M  V30 2894 H 277.346 0.681642 -4.36814 0
M  V30 2895 N 276.405 1.4127 -0.698611 0
M  V30 2896 C 277.651 2.01478 -0.231207 0
M  V30 2897 C 277.984 1.55215 1.16713 0
M  V30 2898 O 277.259 0.764672 1.78838 0
M  V30 2899 C 277.542 3.58912 -0.292281 0
M  V30 2900 C 277.395 4.15293 -1.72778 0
M  V30 2901 C 278.714 4.38736 0.346194 0
M  V30 2902 H 275.833 0.732025 -0.0854878 0
M  V30 2903 H 278.475 1.67977 -0.887906 0
M  V30 2904 H 276.625 3.87582 0.26686 0
M  V30 2905 H 278.297 3.97486 -2.341 0
M  V30 2906 H 276.54 3.7022 -2.26096 0
M  V30 2907 H 277.211 5.24452 -1.72202 0
M  V30 2908 H 279.687 4.15897 -0.130035 0
M  V30 2909 H 278.563 5.48221 0.272932 0
M  V30 2910 H 278.824 4.18425 1.42734 0
M  V30 2911 N 277.883 0.443576 1.51229 0
M  V30 2912 C 278.813 -0.355142 2.30783 0
M  V30 2913 C 279.794 -1.0154 1.36468 0
M  V30 2914 O 280.979 -1.01785 1.65389 0
M  V30 2915 C 278.109 -1.45312 3.15439 0
M  V30 2916 C 277.063 -0.916002 4.18083 0
M  V30 2917 C 276.389 -2.1102 4.91299 0
M  V30 2918 C 277.689 0.0538602 5.22272 0
M  V30 2919 H 279.383 0.308767 2.97804 0
M  V30 2920 H 276.929 0.149937 1.43217 0
M  V30 2921 H 278.882 -2.01914 3.69876 0
M  V30 2922 H 277.606 -2.14541 2.46252 0
M  V30 2923 H 276.265 -0.372145 3.64706 0
M  V30 2924 H 275.913 -2.78882 4.18609 0
M  V30 2925 H 275.613 -1.75717 5.60712 0
M  V30 2926 H 277.137 -2.68164 5.48562 0
M  V30 2927 H 278.551 -0.422069 5.71744 0
M  V30 2928 H 276.948 0.319776 5.99247 0
M  V30 2929 H 278.018 0.98858 4.74716 0
M  V30 2930 N 279.361 -1.56624 0.175154 0
M  V30 2931 C 280.311 -2.14747 -0.766004 0
M  V30 2932 C 281.295 -1.08275 -1.19018 0
M  V30 2933 O 282.487 -1.34388 -1.15191 0
M  V30 2934 C 279.616 -2.79478 -1.99366 0
M  V30 2935 C 278.702 -3.93114 -1.5913 0
M  V30 2936 N 279.093 -4.97752 -0.89872 0
M  V30 2937 C 277.391 -4.04345 -1.88204 0
M  V30 2938 C 278.092 -5.77473 -0.700012 0
M  V30 2939 N 277.068 -5.29207 -1.24263 0
M  V30 2940 H 280.87 -2.93015 -0.22793 0
M  V30 2941 H 278.384 -1.6238 -0.0253843 0
M  V30 2942 H 280.381 -3.19498 -2.67818 0
M  V30 2943 H 279.041 -2.02692 -2.53665 0
M  V30 2944 H 280.052 -5.14903 -0.556347 0
M  V30 2945 H 276.729 -3.38667 -2.44153 0
M  V30 2946 H 278.119 -6.71728 -0.152047 0
M  V30 2947 N 280.839 0.0985539 -1.57292 0
M  V30 2948 C 281.802 1.10402 -2.00858 0
M  V30 2949 C 282.802 1.33146 -0.901593 0
M  V30 2950 O 283.992 1.29318 -1.16716 0
M  V30 2951 C 281.124 2.45394 -2.36632 0
M  V30 2952 H 282.317 0.729099 -2.90902 0
M  V30 2953 H 279.87 0.343495 -1.52479 0
M  V30 2954 H 280.605 2.87769 -1.49531 0
M  V30 2955 H 280.39 2.30235 -3.17387 0
M  V30 2956 H 281.88 3.17718 -2.71007 0
M  V30 2957 N 282.317 1.53212 0.369288 0
M  V30 2958 C 283.557 1.70915 1.12105 0
M  V30 2959 C 283.921 0.449444 1.86665 0
M  V30 2960 O 285.122 0.503105 2.6405 0
M  V30 2961 C 283.393 2.9222 2.05772 0
M  V30 2962 S 284.952 3.30609 2.88519 0
M  V30 2963 H 281.77 0.601445 0.379189 0
M  V30 2964 H 284.372 1.91306 0.402794 0
M  V30 2965 H 283.076 3.82103 1.49752 0
M  V30 2966 H 282.607 2.7422 2.82076 0
M  V30 2967 H 284.622 2.82333 4.08047 0
M  V30 2968 N 283.795 -0.628877 1.44509 0
M  V30 2969 C 284.758 -1.72263 1.51188 0
M  V30 2970 C 285.758 -1.55907 0.39367 0
M  V30 2971 O 286.948 -1.61361 0.656377 0
M  V30 2972 C 284.08 -3.11365 1.38798 0
M  V30 2973 H 285.273 -1.67714 2.4862 0
M  V30 2974 H 282.826 -0.842737 1.31634 0
M  V30 2975 H 283.561 -3.21507 0.424693 0
M  V30 2976 H 283.346 -3.24644 2.19884 0
M  V30 2977 H 284.836 -3.91075 1.46458 0
M  V30 2978 N 285.273 -1.31445 -0.869486 0
M  V30 2979 C 286.223 -1.15731 -1.96444 0
M  V30 2980 C 287.207 -0.0681855 -1.60755 0
M  V30 2981 O 288.399 -0.293154 -1.74555 0
M  V30 2982 C 285.528 -0.867255 -3.32165 0
M  V30 2983 C 284.614 -1.99738 -3.74119 0
M  V30 2984 N 285.005 -3.24447 -3.88031 0
M  V30 2985 C 283.303 -1.89723 -4.03635 0
M  V30 2986 C 284.004 -3.98374 -4.23879 0
M  V30 2987 N 282.98 -3.26547 -4.3459 0
M  V30 2988 H 286.782 -2.10296 -2.05312 0
M  V30 2989 H 284.296 -1.23009 -1.06031 0
M  V30 2990 H 286.293 -0.735668 -4.10358 0
M  V30 2991 H 284.953 0.0701614 -3.24624 0
M  V30 2992 H 285.964 -3.59557 -3.72746 0
M  V30 2993 H 282.641 -1.03449 -4.04481 0
M  V30 2994 H 284.031 -5.05844 -4.42235 0
M  V30 2995 N 286.751 1.08385 -1.14413 0
M  V30 2996 C 287.699 2.17406 -0.826888 0
M  V30 2997 C 288.693 1.6827 0.195312 0
M  V30 2998 O 289.899 1.79927 0.0513892 0
M  V30 2999 H 286.274 0.70934 -0.249681 0
M  V30 3000 H 288.245 2.41388 -1.75426 0
M  V30 3001 C 286.994 3.46215 -0.320979 0
M  V30 3002 H 286.317 3.84401 -1.0989 0
M  V30 3003 H 287.757 4.23777 -0.137549 0
M  V30 3004 C 286.216 3.23067 0.955472 0
M  V30 3005 O 286.746 3.4668 2.02918 0
M  V30 3006 N 284.952 2.7661 0.890798 0
M  V30 3007 H 284.499 2.57594 0.0168815 0
M  V30 3008 H 284.457 2.61501 1.74542 0
M  V30 3009 N 288.23 0.939286 1.26551 0
M  V30 3010 C 289.641 0.628782 1.75793 0
M  V30 3011 C 289.992 -0.856046 1.7654 0
M  V30 3012 O 289.117 -1.66994 1.3763 0
M  V30 3013 C 289.712 1.13465 3.19235 0
M  V30 3014 C 288.271 0.874601 3.66098 0
M  V30 3015 C 287.418 1.28667 2.45642 0
M  V30 3016 H 290.369 1.1178 1.12654 0
M  V30 3017 H 290.39 0.487609 3.77363 0
M  V30 3018 H 289.902 2.21535 3.1866 0
M  V30 3019 H 288.003 -0.191793 3.72106 0
M  V30 3020 H 288.116 1.50028 4.55004 0
M  V30 3021 H 286.48 0.705109 2.44745 0
M  V30 3022 H 287.263 2.37625 2.47769 0
M  V30 3023 N 289.708 -1.40897 0.706093 0
M  V30 3024 C 290.936 -2.05373 0.250887 0
M  V30 3025 C 291.351 -1.53172 -1.10381 0
M  V30 3026 O 290.708 -0.684305 -1.69185 0
M  V30 3027 C 290.759 -3.6088 0.211571 0
M  V30 3028 O 290.48 -4.11153 1.51276 0
M  V30 3029 C 291.981 -4.42517 -0.263346 0
M  V30 3030 H 289.201 -0.66115 0.114552 0
M  V30 3031 H 291.745 -1.80479 0.961635 0
M  V30 3032 H 289.9 -3.84777 -0.450073 0
M  V30 3033 H 290.314 -5.05279 1.40689 0
M  V30 3034 H 291.788 -5.51479 -0.239718 0
M  V30 3035 H 292.265 -4.19396 -1.30397 0
M  V30 3036 H 292.871 -4.23708 0.367677 0
M  V30 3037 N 291.186 -0.45159 -1.50991 0
M  V30 3038 C 292.434 0.109857 -2.01801 0
M  V30 3039 C 292.755 1.41958 -1.3369 0
M  V30 3040 O 292.025 1.9003 -0.475951 0
M  V30 3041 H 290.605 0.0435884 -0.745727 0
M  V30 3042 H 293.267 -0.597557 -1.85514 0
M  V30 3043 H 292.363 0.275489 -3.10882 0
M  V30 3044 N 292.664 1.56529 -0.183458 0
M  V30 3045 C 293.913 1.96419 0.458511 0
M  V30 3046 C 294.226 1.0727 1.63562 0
M  V30 3047 O 295.432 1.36893 2.34462 0
M  V30 3048 C 293.888 3.49298 0.867122 0
M  V30 3049 C 293.496 4.47092 -0.285057 0
M  V30 3050 C 295.24 3.97983 1.47683 0
M  V30 3051 C 293.147 5.91225 0.143862 0
M  V30 3052 H 292.077 0.733394 0.175071 0
M  V30 3053 H 294.728 1.81448 -0.273624 0
M  V30 3054 H 293.11 3.59731 1.65559 0
M  V30 3055 H 294.284 4.48383 -1.0625 0
M  V30 3056 H 292.599 4.08535 -0.805503 0
M  V30 3057 H 295.196 5.03134 1.80999 0
M  V30 3058 H 295.539 3.41618 2.37914 0
M  V30 3059 H 296.072 3.90617 0.752562 0
M  V30 3060 H 292.811 6.5149 -0.723974 0
M  V30 3061 H 292.331 5.93214 0.886413 0
M  V30 3062 H 294.01 6.44362 0.583628 0
M  V30 3063 N 294.142 -0.090211 1.57342 0
M  V30 3064 C 295.419 -0.824761 1.77361 0
M  V30 3065 C 295.799 -1.96698 0.76637 0
M  V30 3066 O 295.147 -2.27586 -0.204179 0
M  V30 3067 C 295.357 -1.31481 3.23286 0
M  V30 3068 C 296.705 -1.75563 3.86604 0
M  V30 3069 O 297.729 -1.41093 3.27065 0
M  V30 3070 O 296.588 -2.39317 4.91314 0
M  V30 3071 H 293.682 -0.393776 0.727234 0
M  V30 3072 H 296.228 -0.0717138 1.69548 0
M  V30 3073 H 295 -0.496671 3.88135 0
M  V30 3074 H 294.623 -2.12973 3.35751 0
M  V30 3075 N 295.62 -1.53406 -0.361157 0
M  V30 3076 C 297.031 -1.61442 -0.937728 0
M  V30 3077 C 297.382 -0.48461 -1.90121 0
M  V30 3078 O 296.507 0.388312 -2.12888 0
M  V30 3079 C 297.102 -2.92624 -1.70753 0
M  V30 3080 C 295.661 -3.02981 -2.23337 0
M  V30 3081 C 294.808 -2.5677 -1.04712 0
M  V30 3082 H 297.759 -1.58083 -0.139816 0
M  V30 3083 H 297.78 -2.80675 -2.56908 0
M  V30 3084 H 297.292 -3.74834 -1.00604 0
M  V30 3085 H 295.393 -2.25368 -2.96715 0
M  V30 3086 H 295.506 -4.0814 -2.50916 0
M  V30 3087 H 293.87 -2.11752 -1.41539 0
M  V30 3088 H 294.653 -3.41402 -0.360539 0
M  V30 3089 N 297.098 0.621204 -1.44841 0
M  V30 3090 C 298.326 1.40752 -1.51646 0
M  V30 3091 C 298.741 1.88246 -0.144549 0
M  V30 3092 O 298.098 1.61422 0.851416 0
M  V30 3093 C 298.149 2.62119 -2.4895 0
M  V30 3094 O 297.87 2.16602 -3.80808 0
M  V30 3095 C 299.371 3.55135 -2.65319 0
M  V30 3096 H 296.591 0.431325 -0.514004 0
M  V30 3097 H 299.135 0.758835 -1.899 0
M  V30 3098 H 297.29 3.23058 -2.13805 0
M  V30 3099 H 297.704 2.95358 -4.33433 0
M  V30 3100 H 299.178 4.36874 -3.37409 0
M  V30 3101 H 299.655 4.04592 -1.70886 0
M  V30 3102 H 300.261 3.00058 -3.01405 0
M  V30 3103 N 298.576 1.31904 0.862503 0
M  V30 3104 C 299.987 1.19803 1.43193 0
M  V30 3105 C 300.338 -0.192567 1.95253 0
M  V30 3106 O 299.463 -1.09081 1.86896 0
M  V30 3107 C 300.058 2.16883 2.60283 0
M  V30 3108 C 298.617 2.08692 3.13248 0
M  V30 3109 C 297.764 2.05691 1.85975 0
M  V30 3110 H 300.715 1.43846 0.670365 0
M  V30 3111 H 300.736 1.76278 3.37204 0
M  V30 3112 H 300.248 3.18083 2.22363 0
M  V30 3113 H 298.349 1.10713 3.55771 0
M  V30 3114 H 298.462 2.9815 3.75025 0
M  V30 3115 H 296.826 1.50814 2.05249 0
M  V30 3116 H 297.609 3.08659 1.50282 0
M  V30 3117 N 300.054 -1.07777 1.14986 0
M  V30 3118 C 300.964 -2.18404 0.856546 0
M  V30 3119 C 301.98 -1.73211 -0.165485 0
M  V30 3120 O 303.156 -2.01399 0.00755219 0
M  V30 3121 C 300.221 -3.44977 0.34526 0
M  V30 3122 C 299.282 -4.0476 1.43065 0
M  V30 3123 C 298.515 -5.25291 0.943663 0
M  V30 3124 O 298.738 -5.70004 -0.212426 0
M  V30 3125 O 297.672 -5.76638 1.72547 0
M  V30 3126 H 301.498 -2.45978 1.78125 0
M  V30 3127 H 299.083 -1.17033 0.928631 0
M  V30 3128 H 300.965 -4.21348 0.0663671 0
M  V30 3129 H 299.64 -3.18965 -0.551631 0
M  V30 3130 H 298.547 -3.29949 1.76309 0
M  V30 3131 H 299.88 -4.35035 2.30229 0
M  V30 3132 N 301.532 -0.945985 -1.26051 0
M  V30 3133 C 302.464 -0.416662 -2.25381 0
M  V30 3134 C 303.477 0.462712 -1.56086 0
M  V30 3135 O 304.666 0.272383 -1.7641 0
M  V30 3136 C 301.766 0.419812 -3.3629 0
M  V30 3137 C 300.939 -0.444531 -4.35135 0
M  V30 3138 C 299.998 0.332305 -5.2515 0
M  V30 3139 O 299.024 -0.266324 -5.68577 0
M  V30 3140 N 300.226 1.62763 -5.57215 0
M  V30 3141 H 302.991 -1.27059 -2.71433 0
M  V30 3142 H 300.552 -0.815392 -1.39868 0
M  V30 3143 H 302.544 0.947013 -3.93464 0
M  V30 3144 H 301.114 1.17456 -2.89694 0
M  V30 3145 H 300.334 -1.15291 -3.76964 0
M  V30 3146 H 301.622 -1.03478 -4.98166 0
M  V30 3147 H 301.02 2.13603 -5.23823 0
M  V30 3148 H 299.577 2.10097 -6.17011 0
M  V30 3149 N 303.011 1.40521 -0.713556 0
M  V30 3150 C 304.257 2.01714 -0.261382 0
M  V30 3151 C 304.612 1.55562 1.13217 0
M  V30 3152 O 303.905 0.764893 1.7567 0
M  V30 3153 C 304.099 3.56317 -0.278 0
M  V30 3154 C 303.928 4.17476 -1.67163 0
M  V30 3155 C 302.698 4.50998 -2.2788 0
M  V30 3156 C 304.896 4.42472 -2.6215 0
M  V30 3157 N 302.878 4.9754 -3.5962 0
M  V30 3158 C 304.249 4.90985 -3.78594 0
M  V30 3159 C 306.304 4.24508 -2.60188 0
M  V30 3160 C 305.007 5.2342 -4.9338 0
M  V30 3161 C 307.033 4.58043 -3.741 0
M  V30 3162 C 306.395 5.06743 -4.89276 0
M  V30 3163 H 302.494 0.769104 -0.141434 0
M  V30 3164 H 305.078 1.70785 -0.934915 0
M  V30 3165 H 303.249 3.8668 0.36509 0
M  V30 3166 H 304.981 4.0425 0.190695 0
M  V30 3167 H 301.736 4.38062 -1.79997 0
M  V30 3168 H 302.16 5.25196 -4.27198 0
M  V30 3169 H 306.802 3.86078 -1.72348 0
M  V30 3170 H 304.52 5.60765 -5.81866 0
M  V30 3171 H 308.106 4.45785 -3.73854 0
M  V30 3172 H 306.986 5.32204 -5.75959 0
M  V30 3173 N 304.489 0.459591 1.5075 0
M  V30 3174 C 305.436 -0.340524 2.28274 0
M  V30 3175 C 306.406 -0.997371 1.32822 0
M  V30 3176 O 307.591 -1.01202 1.61749 0
M  V30 3177 C 304.731 -1.42317 3.14388 0
M  V30 3178 C 303.844 -0.782251 4.24859 0
M  V30 3179 C 302.979 -1.84182 4.98247 0
M  V30 3180 C 302.018 -1.18053 6.00608 0
M  V30 3181 N 301.155 -2.18244 6.67319 0
M  V30 3182 H 305.995 0.326899 2.96202 0
M  V30 3183 H 303.532 0.173057 1.46078 0
M  V30 3184 H 305.49 -2.06241 3.62658 0
M  V30 3185 H 304.12 -2.05992 2.4853 0
M  V30 3186 H 303.172 -0.0307404 3.80388 0
M  V30 3187 H 304.484 -0.259663 4.98124 0
M  V30 3188 H 303.638 -2.55714 5.50177 0
M  V30 3189 H 302.377 -2.39819 4.24662 0
M  V30 3190 H 301.382 -0.450776 5.47949 0
M  V30 3191 H 302.607 -0.631202 6.7616 0
M  V30 3192 H 300.553 -2.72919 5.96533 0
M  V30 3193 H 300.47 -1.70938 7.36421 0
M  V30 3194 H 301.738 -2.89191 7.23871 0
M  V30 3195 N 305.967 -1.56429 0.191757 0
M  V30 3196 C 306.899 -2.16154 -0.762245 0
M  V30 3197 C 307.912 -1.12247 -1.17917 0
M  V30 3198 O 309.101 -1.39353 -1.11548 0
M  V30 3199 C 306.201 -2.70606 -2.04024 0
M  V30 3200 C 305.374 -3.99381 -1.78364 0
M  V30 3201 C 304.433 -4.38692 -2.90578 0
M  V30 3202 O 303.459 -5.06179 -2.6033 0
M  V30 3203 N 304.661 -4.01922 -4.18854 0
M  V30 3204 H 307.426 -2.98643 -0.251526 0
M  V30 3205 H 304.987 -1.61897 0.00967373 0
M  V30 3206 H 306.979 -2.93891 -2.78227 0
M  V30 3207 H 305.549 -1.9259 -2.46227 0
M  V30 3208 H 304.769 -3.84262 -0.879581 0
M  V30 3209 H 306.057 -4.83445 -1.58614 0
M  V30 3210 H 305.455 -3.47631 -4.46283 0
M  V30 3211 H 304.012 -4.30165 -4.89695 0
M  V30 3212 N 307.445 0.0818655 -1.57387 0
M  V30 3213 C 308.694 0.781681 -1.85937 0
M  V30 3214 C 309.007 1.79246 -0.782957 0
M  V30 3215 O 310.213 2.54112 -0.955987 0
M  V30 3216 C 308.669 1.44109 -3.29789 0
M  V30 3217 C 308.277 0.469396 -4.45534 0
M  V30 3218 C 310.021 2.12386 -3.67549 0
M  V30 3219 C 307.928 1.13415 -5.80423 0
M  V30 3220 H 306.858 0.295682 -0.693605 0
M  V30 3221 H 309.509 0.0348051 -1.83467 0
M  V30 3222 H 307.891 2.23588 -3.2684 0
M  V30 3223 H 309.065 -0.294856 -4.59856 0
M  V30 3224 H 307.38 -0.108383 -4.16259 0
M  V30 3225 H 309.977 2.62878 -4.65617 0
M  V30 3226 H 310.32 2.91877 -2.96839 0
M  V30 3227 H 310.853 1.39751 -3.72444 0
M  V30 3228 H 307.592 0.379771 -6.54399 0
M  V30 3229 H 307.112 1.8695 -5.69921 0
M  V30 3230 H 308.791 1.65686 -6.25426 0
M  V30 3231 N 308.923 1.53595 0.353017 0
M  V30 3232 C 309.886 1.80232 1.41594 0
M  V30 3233 C 310.886 0.673081 1.46035 0
M  V30 3234 O 312.076 0.941335 1.46576 0
M  V30 3235 C 309.208 1.93578 2.80607 0
M  V30 3236 H 310.401 2.75174 1.19244 0
M  V30 3237 H 307.954 1.44864 0.586872 0
M  V30 3238 H 308.689 1.00746 3.08254 0
M  V30 3239 H 308.474 2.75724 2.78781 0
M  V30 3240 H 309.964 2.15735 3.57558 0
M  V30 3241 N 310.401 -0.613514 1.45168 0
M  V30 3242 C 311.626 -1.40437 1.52618 0
M  V30 3243 C 312.051 -1.87438 0.157707 0
M  V30 3244 O 311.409 -1.59791 -0.856537 0
M  V30 3245 C 311.457 -2.58894 2.51011 0
M  V30 3246 O 310.561 -3.59326 2.02382 0
M  V30 3247 H 309.902 -0.419506 0.514695 0
M  V30 3248 H 312.432 -0.747215 1.90467 0
M  V30 3249 H 312.442 -3.06214 2.69624 0
M  V30 3250 H 311.117 -2.24032 3.50403 0
M  V30 3251 H 309.694 -3.18695 1.93618 0
M  V30 3252 N 311.879 -1.3236 -0.855495 0
M  V30 3253 C 313.125 -1.23054 -1.612 0
M  V30 3254 C 313.458 0.207404 -1.93089 0
M  V30 3255 O 312.733 1.14432 -1.57275 0
M  V30 3256 C 313.016 -2.08937 -2.93287 0
M  V30 3257 C 312.869 -3.61105 -2.68185 0
M  V30 3258 C 314.188 -1.94986 -3.94549 0
M  V30 3259 H 311.307 -0.448364 -0.584926 0
M  V30 3260 H 313.949 -1.62297 -0.987917 0
M  V30 3261 H 312.099 -1.75599 -3.46551 0
M  V30 3262 H 313.771 -4.04652 -2.21483 0
M  V30 3263 H 312.014 -3.83813 -2.02164 0
M  V30 3264 H 312.685 -4.16522 -3.62234 0
M  V30 3265 H 315.161 -2.24189 -3.5054 0
M  V30 3266 H 314.037 -2.57356 -4.84829 0
M  V30 3267 H 314.298 -0.917263 -4.3248 0
M  V30 3268 N 313.357 1.07166 -1.15556 0
M  V30 3269 C 314.29 2.13808 -0.797593 0
M  V30 3270 C 315.268 1.6101 0.226812 0
M  V30 3271 O 316.452 1.88161 0.112932 0
M  V30 3272 C 313.579 3.38187 -0.186371 0
M  V30 3273 C 312.625 4.09766 -1.18297 0
M  V30 3274 S 313.458 4.60932 -2.72584 0
M  V30 3275 C 314.614 5.88583 -2.12886 0
M  V30 3276 H 314.847 2.43843 -1.70083 0
M  V30 3277 H 312.38 1.19467 -0.978106 0
M  V30 3278 H 314.338 4.10189 0.159837 0
M  V30 3279 H 312.999 3.06326 0.694489 0
M  V30 3280 H 312.192 4.99065 -0.703562 0
M  V30 3281 H 311.794 3.43736 -1.47381 0
M  V30 3282 H 314.086 6.60866 -1.49208 0
M  V30 3283 H 315.029 6.41241 -3.0036 0
M  V30 3284 H 315.437 5.42194 -1.57116 0
M  V30 3285 N 314.835 0.952656 1.25548 0
M  V30 3286 C 315.782 0.47008 2.25962 0
M  V30 3287 C 316.752 -0.476384 1.59122 0
M  V30 3288 O 317.937 -0.39007 1.8677 0
M  V30 3289 C 315.077 -0.247881 3.44209 0
M  V30 3290 C 314.19 0.735591 4.25691 0
M  V30 3291 C 313.325 -0.0047306 5.312 0
M  V30 3292 C 312.364 0.969805 6.04368 0
M  V30 3293 N 311.501 0.260486 7.01617 0
M  V30 3294 H 316.341 1.33126 2.66611 0
M  V30 3295 H 313.878 0.66765 1.31076 0
M  V30 3296 H 315.836 -0.680695 4.1161 0
M  V30 3297 H 314.466 -1.07312 3.0444 0
M  V30 3298 H 313.518 1.28689 3.57971 0
M  V30 3299 H 314.83 1.47934 4.76358 0
M  V30 3300 H 313.984 -0.496275 6.04667 0
M  V30 3301 H 312.723 -0.781282 4.81401 0
M  V30 3302 H 311.728 1.47237 5.29718 0
M  V30 3303 H 312.953 1.74655 6.56256 0
M  V30 3304 H 310.899 -0.497364 6.54112 0
M  V30 3305 H 310.816 0.943362 7.50091 0
M  V30 3306 H 312.084 -0.209587 7.79218 0
M  V30 3307 N 316.313 -1.40141 0.720998 0
M  V30 3308 C 317.263 -2.27949 0.0482544 0
M  V30 3309 C 318.247 -1.43538 -0.727021 0
M  V30 3310 O 319.439 -1.6658 -0.598332 0
M  V30 3311 C 316.568 -3.32126 -0.868729 0
M  V30 3312 C 315.654 -4.24008 -0.0883515 0
M  V30 3313 N 316.045 -4.97154 0.931226 0
M  V30 3314 C 314.343 -4.4485 -0.320105 0
M  V30 3315 C 315.044 -5.64587 1.4006 0
M  V30 3316 N 314.02 -5.38787 0.721752 0
M  V30 3317 H 317.822 -2.81948 0.829609 0
M  V30 3318 H 315.336 -1.52656 0.554067 0
M  V30 3319 H 317.333 -3.93884 -1.36605 0
M  V30 3320 H 315.993 -2.79687 -1.6494 0
M  V30 3321 H 317.004 -5.01 1.31222 0
M  V30 3322 H 313.681 -4.03378 -1.07668 0
M  V30 3323 H 315.071 -6.33175 2.24808 0
M  V30 3324 N 317.792 -0.46758 -1.50504 0
M  V30 3325 C 319.208 -0.121533 -1.59137 0
M  V30 3326 C 319.408 1.3717 -1.47603 0
M  V30 3327 O 318.464 2.14464 -1.33272 0
M  V30 3328 C 319.777 -0.6686 -2.93173 0
M  V30 3329 C 321.325 -0.631716 -3.06559 0
M  V30 3330 C 321.8 -1.15627 -4.43164 0
M  V30 3331 N 323.291 -1.11553 -4.49567 0
M  V30 3332 C 324.026 -1.49195 -5.5365 0
M  V30 3333 N 323.522 -1.94269 -6.65005 0
M  V30 3334 N 325.315 -1.4082 -5.44175 0
M  V30 3335 H 317.466 -1.4388 -1.56245 0
M  V30 3336 H 319.729 -0.594784 -0.738198 0
M  V30 3337 H 319.435 -1.71453 -3.07078 0
M  V30 3338 H 319.309 -0.11021 -3.77039 0
M  V30 3339 H 321.696 0.405297 -2.92304 0
M  V30 3340 H 321.777 -1.22687 -2.24458 0
M  V30 3341 H 321.421 -2.1919 -4.58168 0
M  V30 3342 H 321.351 -0.537365 -5.23851 0
M  V30 3343 H 323.842 -0.784895 -3.69659 0
M  V30 3344 H 324.155 -2.21148 -7.40482 0
M  V30 3345 H 322.5 -1.98219 -6.66134 0
M  V30 3346 H 325.691 -1.0545 -4.56068 0
M  V30 3347 H 325.864 -1.70481 -6.25172 0
M  V30 3348 N 319.27 1.56325 -0.20005 0
M  V30 3349 C 320.517 1.97719 0.437411 0
M  V30 3350 C 320.845 1.08709 1.61284 0
M  V30 3351 O 320.1 0.127261 1.95286 0
M  V30 3352 C 320.399 3.4495 0.935103 0
M  V30 3353 C 320.065 4.5072 -0.12749 0
M  V30 3354 C 318.727 4.79368 -0.419451 0
M  V30 3355 C 321.079 5.14268 -0.847231 0
M  V30 3356 C 318.407 5.68854 -1.43604 0
M  V30 3357 C 320.759 6.04852 -1.85301 0
M  V30 3358 C 319.423 6.31855 -2.15211 0
M  V30 3359 H 318.693 0.723507 0.16006 0
M  V30 3360 H 321.34 1.89166 -0.298056 0
M  V30 3361 H 319.645 3.50599 1.74894 0
M  V30 3362 H 321.342 3.74337 1.43781 0
M  V30 3363 H 317.932 4.28458 0.11023 0
M  V30 3364 H 322.116 4.92222 -0.634901 0
M  V30 3365 H 317.372 5.88047 -1.67364 0
M  V30 3366 H 321.546 6.53152 -2.41591 0
M  V30 3367 H 319.173 7.00994 -2.94129 0
M  V30 3368 N 320.748 -0.0735177 1.57428 0
M  V30 3369 C 321.678 -1.0879 2.06608 0
M  V30 3370 C 322.659 -1.40473 0.959237 0
M  V30 3371 O 323.844 -1.5013 1.23185 0
M  V30 3372 C 320.974 -2.40183 2.50857 0
M  V30 3373 C 319.928 -2.22858 3.65402 0
M  V30 3374 C 319.254 -3.59619 3.957 0
M  V30 3375 C 320.554 -1.65123 4.95511 0
M  V30 3376 H 322.248 -0.678673 2.91607 0
M  V30 3377 H 319.794 -0.325013 1.40284 0
M  V30 3378 H 321.747 -3.11437 2.83874 0
M  V30 3379 H 320.471 -2.83083 1.62885 0
M  V30 3380 H 319.13 -1.54045 3.32664 0
M  V30 3381 H 318.778 -4.00086 3.04861 0
M  V30 3382 H 318.478 -3.48866 4.72828 0
M  V30 3383 H 320.002 -4.32306 4.31212 0
M  V30 3384 H 321.416 -2.26241 5.26771 0
M  V30 3385 H 319.813 -1.65071 5.7695 0
M  V30 3386 H 320.883 -0.612559 4.81015 0
M  V30 3387 N 322.226 -1.5378 -0.344866 0
M  V30 3388 C 323.473 -1.70963 -1.08526 0
M  V30 3389 C 323.801 -0.472126 -1.88683 0
M  V30 3390 O 323.056 0.546116 -1.87926 0
M  V30 3391 C 323.355 -2.92407 -2.05506 0
M  V30 3392 C 323.021 -4.28066 -1.41671 0
M  V30 3393 C 321.683 -4.64951 -1.2399 0
M  V30 3394 C 324.035 -5.12344 -0.956726 0
M  V30 3395 C 321.363 -5.83733 -0.589277 0
M  V30 3396 C 323.715 -6.3179 -0.320015 0
M  V30 3397 C 322.379 -6.67372 -0.130881 0
M  V30 3398 H 321.649 -0.625598 -0.397124 0
M  V30 3399 H 324.296 -1.87995 -0.36469 0
M  V30 3400 H 322.601 -2.69973 -2.8394 0
M  V30 3401 H 324.298 -3.02895 -2.62784 0
M  V30 3402 H 320.888 -3.99034 -1.56429 0
M  V30 3403 H 325.072 -4.8438 -1.08118 0
M  V30 3404 H 320.328 -6.09877 -0.431344 0
M  V30 3405 H 324.502 -6.96386 0.0445072 0
M  V30 3406 H 322.129 -7.59273 0.375318 0
M  V30 3407 N 323.704 0.605807 -1.45491 0
M  V30 3408 C 325.115 1.18777 -1.44045 0
M  V30 3409 C 325.466 1.95471 -0.169001 0
M  V30 3410 O 324.591 2.0374 0.729324 0
M  V30 3411 C 325.186 2.16064 -2.60963 0
M  V30 3412 C 323.745 2.69633 -2.62631 0
M  V30 3413 C 322.892 1.45072 -2.36325 0
M  V30 3414 H 325.843 0.395017 -1.53705 0
M  V30 3415 H 325.864 2.9913 -2.35163 0
M  V30 3416 H 325.376 1.60217 -3.53486 0
M  V30 3417 H 323.477 3.29414 -1.74119 0
M  V30 3418 H 323.59 3.13944 -3.61906 0
M  V30 3419 H 321.954 1.74089 -1.85917 0
M  V30 3420 H 322.737 0.910899 -3.30995 0
M  V30 3421 N 325.182 1.32811 0.848464 0
M  V30 3422 C 326.429 1.23724 1.60308 0
M  V30 3423 C 326.757 -0.1994 1.93475 0
M  V30 3424 O 326.012 -1.15406 1.5805 0
M  V30 3425 C 326.311 2.04831 2.92881 0
M  V30 3426 C 325.977 3.54125 2.79117 0
M  V30 3427 C 324.639 3.94829 2.7507 0
M  V30 3428 C 326.991 4.49036 2.64606 0
M  V30 3429 C 324.319 5.28675 2.544 0
M  V30 3430 C 326.671 5.83033 2.4547 0
M  V30 3431 C 325.335 6.22931 2.39819 0
M  V30 3432 H 324.605 0.452737 0.586609 0
M  V30 3433 H 327.252 1.64301 0.983743 0
M  V30 3434 H 325.557 1.57001 3.58968 0
M  V30 3435 H 327.254 1.95164 3.50303 0
M  V30 3436 H 323.844 3.21801 2.83094 0
M  V30 3437 H 328.028 4.18505 2.66772 0
M  V30 3438 H 323.284 5.58637 2.48465 0
M  V30 3439 H 327.458 6.56186 2.33222 0
M  V30 3440 H 325.085 7.26584 2.23562 0
M  V30 3441 N 326.66 -1.06551 1.16123 0
M  V30 3442 C 327.907 -1.79302 0.941126 0
M  V30 3443 C 328.235 -1.87105 -0.531235 0
M  V30 3444 O 327.49 -1.35692 -1.41018 0
M  V30 3445 C 327.789 -3.23911 1.51052 0
M  V30 3446 C 327.455 -3.36193 3.00475 0
M  V30 3447 C 326.117 -3.39252 3.41265 0
M  V30 3448 C 328.469 -3.38326 3.96465 0
M  V30 3449 C 325.797 -3.42057 4.76669 0
M  V30 3450 C 328.149 -3.4267 5.31752 0
M  V30 3451 C 326.813 -3.4401 5.72026 0
M  V30 3452 H 326.083 -0.656111 0.344382 0
M  V30 3453 H 328.73 -1.25325 1.44796 0
M  V30 3454 H 327.035 -3.80723 0.925063 0
M  V30 3455 H 328.732 -3.78793 1.31593 0
M  V30 3456 H 325.322 -3.34516 2.6795 0
M  V30 3457 H 329.506 -3.35176 3.6602 0
M  V30 3458 H 324.762 -3.41398 5.07206 0
M  V30 3459 H 328.936 -3.43268 6.05921 0
M  V30 3460 H 326.563 -3.45937 6.76928 0
M  V30 3461 N 328.138 -0.959301 -1.25041 0
M  V30 3462 C 329.415 -0.533805 -1.88175 0
M  V30 3463 C 329.795 0.988994 -1.865 0
M  V30 3464 O 329.143 1.85677 -1.33177 0
M  V30 3465 C 329.353 -1.11575 -3.30684 0
M  V30 3466 C 330.701 -1.19548 -4.07423 0
M  V30 3467 O 331.725 -1.06765 -3.39823 0
M  V30 3468 O 330.584 -1.39656 -5.28354 0
M  V30 3469 H 327.678 -0.176772 -0.807887 0
M  V30 3470 H 330.224 -1.05303 -1.33076 0
M  V30 3471 H 328.996 -2.15884 -3.26358 0
M  V30 3472 H 328.619 -0.580059 -3.93346 0
M  V30 3473 N 329.616 1.39756 -0.72842 0
M  V30 3474 C 330.841 2.05472 -0.282159 0
M  V30 3475 C 331.266 1.54549 1.07221 0
M  V30 3476 O 330.624 0.686372 1.67805 0
M  V30 3477 C 330.672 3.59462 -0.286264 0
M  V30 3478 O 329.776 4.05918 0.728298 0
M  V30 3479 H 329.117 0.651226 -0.129618 0
M  V30 3480 H 331.647 1.78915 -0.992499 0
M  V30 3481 H 331.657 4.07798 -0.128373 0
M  V30 3482 H 330.332 3.95889 -1.27456 0
M  V30 3483 H 328.909 3.69012 0.537081 0
M  V30 3484 N 331.094 0.475555 1.50254 0
M  V30 3485 C 332.057 -0.305016 2.27161 0
M  V30 3486 C 333.057 -0.916519 1.32123 0
M  V30 3487 O 334.247 -0.785003 1.5551 0
M  V30 3488 C 331.379 -1.43496 3.09227 0
M  V30 3489 H 332.572 0.369511 2.97615 0
M  V30 3490 H 330.125 0.229747 1.54602 0
M  V30 3491 H 330.86 -2.14441 2.43281 0
M  V30 3492 H 330.645 -1.00223 3.79075 0
M  V30 3493 H 332.135 -1.98548 3.67381 0
M  V30 3494 N 332.573 -1.56217 0.208337 0
M  V30 3495 C 333.803 -2.02043 -0.431523 0
M  V30 3496 C 334.211 -1.08755 -1.54819 0
M  V30 3497 O 333.554 -0.0870009 -1.83494 0
M  V30 3498 C 333.616 -3.44239 -1.03633 0
M  V30 3499 C 333.28 -4.56965 -0.0567502 0
M  V30 3500 C 334.277 -5.14624 0.738773 0
M  V30 3501 C 331.962 -5.02266 0.0581736 0
M  V30 3502 C 333.956 -6.16045 1.63605 0
M  V30 3503 C 331.643 -6.03528 0.959001 0
M  V30 3504 C 332.641 -6.60293 1.7465 0
M  V30 3505 O 332.329 -7.59586 2.6322 0
M  V30 3506 H 332.061 -0.666772 -0.111313 0
M  V30 3507 H 334.615 -2.02919 0.318277 0
M  V30 3508 H 332.845 -3.40391 -1.83497 0
M  V30 3509 H 334.534 -3.73793 -1.58221 0
M  V30 3510 H 335.3 -4.80483 0.660364 0
M  V30 3511 H 331.179 -4.57771 -0.544633 0
M  V30 3512 H 334.723 -6.60279 2.25116 0
M  V30 3513 H 330.62 -6.37092 1.03848 0
M  V30 3514 H 331.388 -7.77057 2.57148 0
M  V30 3515 N 334.051 0.0651679 -1.57465 0
M  V30 3516 C 334.983 1.10359 -2.00882 0
M  V30 3517 C 335.996 1.346 -0.915788 0
M  V30 3518 O 337.185 1.32723 -1.1936 0
M  V30 3519 C 334.285 2.45312 -2.33828 0
M  V30 3520 C 333.458 2.40934 -3.65061 0
M  V30 3521 C 332.517 3.58047 -3.85602 0
M  V30 3522 O 331.543 3.39175 -4.57109 0
M  V30 3523 N 332.745 4.78637 -3.28462 0
M  V30 3524 H 335.51 0.733807 -2.90578 0
M  V30 3525 H 333.071 0.253719 -1.599 0
M  V30 3526 H 335.063 3.22314 -2.44737 0
M  V30 3527 H 333.633 2.74267 -1.49988 0
M  V30 3528 H 332.853 1.49273 -3.64844 0
M  V30 3529 H 334.141 2.35117 -4.51218 0
M  V30 3530 H 333.539 4.96872 -2.70433 0
M  V30 3531 H 332.096 5.53127 -3.44809 0
M  V30 3532 N 335.529 1.53961 0.336706 0
M  V30 3533 C 336.777 1.71197 1.07405 0
M  V30 3534 C 337.098 0.481475 1.88962 0
M  V30 3535 O 336.368 -0.504585 1.8929 0
M  V30 3536 H 334.948 0.631185 0.399517 0
M  V30 3537 H 337.61 1.91232 0.376323 0
M  V30 3538 H 336.706 2.58587 1.74755 0
M  V30 3539 N 337.007 -0.598083 1.45811 0
M  V30 3540 C 338.254 -1.35681 1.50323 0
M  V30 3541 C 338.582 -1.9393 0.148739 0
M  V30 3542 O 337.837 -1.76094 -0.853787 0
M  V30 3543 C 338.136 -2.51669 2.53766 0
M  V30 3544 C 337.802 -2.11508 3.98215 0
M  V30 3545 C 336.464 -2.0027 4.37545 0
M  V30 3546 C 338.816 -1.80308 4.89018 0
M  V30 3547 C 336.144 -1.56067 5.65562 0
M  V30 3548 C 338.496 -1.37589 6.17456 0
M  V30 3549 C 337.16 -1.24916 6.55708 0
M  V30 3550 H 336.43 -0.496492 0.550069 0
M  V30 3551 H 339.077 -0.675052 1.79207 0
M  V30 3552 H 337.382 -3.25225 2.18486 0
M  V30 3553 H 339.079 -3.09895 2.54492 0
M  V30 3554 H 335.669 -2.21185 3.67117 0
M  V30 3555 H 339.853 -1.87884 4.59362 0
M  V30 3556 H 335.109 -1.44886 5.93985 0
M  V30 3557 H 339.283 -1.12495 6.87254 0
M  V30 3558 H 336.91 -0.904386 7.54801 0
M  V30 3559 N 338.485 -1.33259 -0.841409 0
M  V30 3560 C 339.448 -1.23221 -1.9326 0
M  V30 3561 C 340.448 -0.151895 -1.60081 0
M  V30 3562 O 341.638 -0.403246 -1.69468 0
M  V30 3563 C 338.77 -0.898123 -3.28856 0
M  V30 3564 H 339.963 -2.2021 -2.03587 0
M  V30 3565 H 337.516 -1.17281 -1.03319 0
M  V30 3566 H 338.251 0.0693841 -3.24226 0
M  V30 3567 H 338.036 -1.67934 -3.54317 0
M  V30 3568 H 339.526 -0.852563 -4.08805 0
M  V30 3569 N 339.963 1.05934 -1.16686 0
M  V30 3570 C 341.188 1.83029 -0.975455 0
M  V30 3571 C 341.613 1.82096 0.471452 0
M  V30 3572 O 340.971 1.22443 1.33706 0
M  V30 3573 C 341.019 3.27372 -1.51195 0
M  V30 3574 O 340.123 4.06054 -0.720701 0
M  V30 3575 H 339.464 0.566194 -0.346872 0
M  V30 3576 H 341.994 1.33541 -1.55009 0
M  V30 3577 H 342.004 3.78186 -1.53099 0
M  V30 3578 H 340.679 3.27366 -2.56523 0
M  V30 3579 H 339.256 3.64812 -0.772458 0
M  V30 3580 N 341.441 0.965919 1.2453 0
M  V30 3581 C 342.689 0.625593 1.92174 0
M  V30 3582 C 343.01 -0.841652 1.75901 0
M  V30 3583 O 342.28 -1.60061 1.12948 0
M  V30 3584 H 340.86 0.228388 0.71123 0
M  V30 3585 H 343.522 1.2266 1.51461 0
M  V30 3586 H 342.618 0.864653 2.99884 0
M  V30 3587 N 342.919 -1.39368 0.735821 0
M  V30 3588 C 343.867 -2.32443 0.0855131 0
M  V30 3589 C 344.861 -1.53104 -0.724954 0
M  V30 3590 O 346.067 -1.68762 -0.626047 0
M  V30 3591 H 342.442 -0.751948 0.00885257 0
M  V30 3592 H 344.413 -2.84916 0.886883 0
M  V30 3593 C 343.162 -3.38206 -0.806983 0
M  V30 3594 H 342.485 -3.99335 -0.19274 0
M  V30 3595 H 343.925 -4.05779 -1.2296 0
M  V30 3596 C 342.384 -2.75321 -1.94165 0
M  V30 3597 O 342.914 -2.63231 -3.03435 0
M  V30 3598 N 341.12 -2.33396 -1.73132 0
M  V30 3599 H 340.667 -2.4343 -0.842596 0
M  V30 3600 H 340.625 -1.91661 -2.49225 0
M  V30 3601 N 344.397 -0.483516 -1.5 0
M  V30 3602 C 345.327 0.293829 -2.31644 0
M  V30 3603 C 346.308 0.978864 -1.39112 0
M  V30 3604 O 347.493 0.973644 -1.68029 0
M  V30 3605 C 344.623 1.36897 -3.19181 0
M  V30 3606 C 343.577 0.804833 -4.20365 0
M  V30 3607 C 342.903 1.9792 -4.96721 0
M  V30 3608 C 344.203 -0.192313 -5.21946 0
M  V30 3609 H 345.897 -0.387616 -2.9688 0
M  V30 3610 H 343.443 -0.187856 -1.42769 0
M  V30 3611 H 345.396 1.92037 -3.751 0
M  V30 3612 H 344.12 2.07936 -2.51853 0
M  V30 3613 H 342.779 0.275319 -3.65565 0
M  V30 3614 H 342.427 2.67686 -4.25856 0
M  V30 3615 H 342.127 1.60789 -5.65173 0
M  V30 3616 H 343.651 2.53526 -5.55479 0
M  V30 3617 H 345.065 0.270333 -5.72662 0
M  V30 3618 H 343.462 -0.478543 -5.98189 0
M  V30 3619 H 344.532 -1.11409 -4.71928 0
M  V30 3620 N 345.875 1.56104 -0.216619 0
M  V30 3621 C 346.785 2.23694 0.706982 0
M  V30 3622 C 347.801 1.24295 1.21765 0
M  V30 3623 O 348.977 1.57094 1.2603 0
M  V30 3624 C 346.042 2.8998 1.90033 0
M  V30 3625 C 345.103 4.04708 1.43213 0
M  V30 3626 C 344.336 4.67824 2.56859 0
M  V30 3627 O 344.559 4.29913 3.74874 0
M  V30 3628 O 343.493 5.56905 2.28343 0
M  V30 3629 H 347.319 3.03272 0.161235 0
M  V30 3630 H 344.904 1.49394 0.0136177 0
M  V30 3631 H 346.786 3.31837 2.59735 0
M  V30 3632 H 345.461 2.13365 2.43428 0
M  V30 3633 H 344.368 3.6743 0.70327 0
M  V30 3634 H 345.701 4.83051 0.944615 0
M  V30 3635 N 347.353 -0.0568162 1.57498 0
M  V30 3636 C 348.769 -0.411933 1.54192 0
M  V30 3637 C 348.969 -1.78287 0.938942 0
M  V30 3638 O 348.025 -2.46483 0.547919 0
M  V30 3639 C 349.338 -0.339244 2.9878 0
M  V30 3640 C 350.886 -0.418348 3.10192 0
M  V30 3641 C 351.361 -0.375407 4.56459 0
M  V30 3642 N 352.852 -0.435038 4.61153 0
M  V30 3643 C 353.587 -0.424265 5.71828 0
M  V30 3644 N 353.083 -0.367418 6.91825 0
M  V30 3645 N 354.876 -0.471938 5.60115 0
M  V30 3646 H 347.027 0.840684 1.95055 0
M  V30 3647 H 349.29 0.316987 0.893433 0
M  V30 3648 H 348.996 0.601742 3.46514 0
M  V30 3649 H 348.87 -1.14371 3.59443 0
M  V30 3650 H 351.257 -1.34976 2.62422 0
M  V30 3651 H 351.338 0.414962 2.52412 0
M  V30 3652 H 350.982 0.552219 5.04889 0
M  V30 3653 H 350.912 -1.22645 5.12119 0
M  V30 3654 H 353.403 -0.482612 3.74806 0
M  V30 3655 H 353.716 -0.363535 7.71944 0
M  V30 3656 H 352.061 -0.333879 6.94198 0
M  V30 3657 H 355.252 -0.514145 4.65268 0
M  V30 3658 H 355.425 -0.460073 6.46365 0
M  V30 3659 N 348.832 -1.54138 -0.328536 0
M  V30 3660 C 350.109 -1.62749 -1.08499 0
M  V30 3661 C 350.489 -0.458198 -2.06067 0
M  V30 3662 O 349.837 0.548046 -2.2183 0
M  V30 3663 C 350.047 -2.99519 -1.79135 0
M  V30 3664 C 351.395 -3.55394 -2.32337 0
M  V30 3665 O 352.419 -3.01792 -1.89209 0
M  V30 3666 O 351.278 -4.49186 -3.11279 0
M  V30 3667 H 348.372 -0.65886 -0.499832 0
M  V30 3668 H 350.918 -1.66484 -0.328826 0
M  V30 3669 H 349.69 -3.76061 -1.08139 0
M  V30 3670 H 349.313 -2.99441 -2.61574 0
M  V30 3671 N 350.31 0.590341 -1.46126 0
M  V30 3672 C 351.273 1.68194 -1.55703 0
M  V30 3673 C 352.273 1.54808 -0.434868 0
M  V30 3674 O 353.463 1.59564 -0.698928 0
M  V30 3675 C 350.595 3.07575 -1.47005 0
M  V30 3676 H 351.788 1.61064 -2.52979 0
M  V30 3677 H 349.341 0.807541 -1.33823 0
M  V30 3678 H 350.076 3.20268 -0.509785 0
M  V30 3679 H 349.861 3.187 -2.28414 0
M  V30 3680 H 351.351 3.87055 -1.56776 0
M  V30 3681 N 351.788 1.33704 0.83433 0
M  V30 3682 C 353.034 1.26612 1.59188 0
M  V30 3683 C 353.389 -0.165439 1.91687 0
M  V30 3684 O 352.682 -1.10873 1.56262 0
M  V30 3685 C 352.876 2.07926 2.90692 0
M  V30 3686 C 352.705 3.58844 2.71038 0
M  V30 3687 C 351.475 4.28148 2.68361 0
M  V30 3688 C 353.673 4.53082 2.43353 0
M  V30 3689 N 351.655 5.64987 2.40132 0
M  V30 3690 C 353.026 5.77843 2.24716 0
M  V30 3691 C 355.081 4.42119 2.28987 0
M  V30 3692 C 353.784 6.92877 1.9317 0
M  V30 3693 C 355.81 5.56973 1.98835 0
M  V30 3694 C 355.172 6.80745 1.81012 0
M  V30 3695 H 351.271 0.518517 0.585375 0
M  V30 3696 H 353.855 1.68294 0.979044 0
M  V30 3697 H 352.026 1.68558 3.49918 0
M  V30 3698 H 353.758 1.92568 3.55949 0
M  V30 3699 H 350.513 3.80469 2.82029 0
M  V30 3700 H 350.937 6.37133 2.28889 0
M  V30 3701 H 355.579 3.47058 2.41477 0
M  V30 3702 H 353.297 7.87931 1.79418 0
M  V30 3703 H 356.883 5.50428 1.88468 0
M  V30 3704 H 355.763 7.68115 1.58017 0
M  V30 3705 N 353.266 -1.05314 1.17247 0
M  V30 3706 C 354.229 -2.112 0.890357 0
M  V30 3707 C 355.229 -1.60359 -0.118943 0
M  V30 3708 O 356.419 -1.73833 0.113086 0
M  V30 3709 C 353.551 -3.39266 0.333422 0
M  V30 3710 H 354.744 -2.37659 1.82916 0
M  V30 3711 H 352.297 -1.21538 0.982758 0
M  V30 3712 H 353.032 -3.18462 -0.612587 0
M  V30 3713 H 352.817 -3.77477 1.06082 0
M  V30 3714 H 354.307 -4.17315 0.154322 0
M  V30 3715 N 354.744 -0.972509 -1.24016 0
M  V30 3716 C 355.993 -0.632603 -1.91523 0
M  V30 3717 C 356.306 0.836641 -1.76804 0
M  V30 3718 O 357.512 1.28728 -2.39043 0
M  V30 3719 C 355.968 -1.08082 -3.43287 0
M  V30 3720 C 355.576 -2.57386 -3.66683 0
M  V30 3721 C 357.32 -0.814288 -4.16617 0
M  V30 3722 C 355.227 -2.95915 -5.12043 0
M  V30 3723 H 354.157 -0.232898 -0.717129 0
M  V30 3724 H 356.808 -1.17936 -1.40582 0
M  V30 3725 H 355.19 -0.462339 -3.93292 0
M  V30 3726 H 356.364 -3.24405 -3.27258 0
M  V30 3727 H 354.679 -2.81701 -3.06649 0
M  V30 3728 H 357.276 -1.0781 -5.23718 0
M  V30 3729 H 357.619 0.24955 -4.15551 0
M  V30 3730 H 358.152 -1.39397 -3.72577 0
M  V30 3731 H 354.891 -4.0139 -5.18234 0
M  V30 3732 H 354.411 -2.33584 -5.52448 0
M  V30 3733 H 356.09 -2.86086 -5.80314 0
M  V30 3734 N 356.222 1.38976 -0.743202 0
M  V30 3735 C 357.638 1.53984 -0.419664 0
M  V30 3736 C 357.838 1.70837 1.0685 0
M  V30 3737 O 356.894 1.7135 1.8546 0
M  V30 3738 C 358.207 2.75287 -1.20985 0
M  V30 3739 C 359.755 2.89129 -1.19889 0
M  V30 3740 C 360.23 4.13381 -1.97181 0
M  V30 3741 N 361.721 4.20437 -1.94389 0
M  V30 3742 C 362.456 5.15547 -2.50996 0
M  V30 3743 N 361.952 6.16395 -3.16274 0
M  V30 3744 N 363.745 5.07822 -2.40984 0
M  V30 3745 H 355.896 1.26285 -1.7078 0
M  V30 3746 H 358.159 0.612689 -0.723406 0
M  V30 3747 H 357.865 2.69204 -2.26323 0
M  V30 3748 H 357.739 3.68184 -0.819759 0
M  V30 3749 H 360.126 2.947 -0.153606 0
M  V30 3750 H 360.207 1.97272 -1.62841 0
M  V30 3751 H 359.851 4.08572 -3.01714 0
M  V30 3752 H 359.781 5.04298 -1.51629 0
M  V30 3753 H 362.272 3.48205 -1.46839 0
M  V30 3754 H 362.585 6.85443 -3.56915 0
M  V30 3755 H 360.93 6.16758 -3.20367 0
M  V30 3756 H 364.121 4.27973 -1.89622 0
M  V30 3757 H 364.294 5.81767 -2.85397 0
M  V30 3758 N 357.7 0.491464 1.49741 0
M  V30 3759 C 358.93 -0.0534375 2.06531 0
M  V30 3760 C 359.338 -1.32233 1.35318 0
M  V30 3761 O 358.681 -1.78781 0.422243 0
M  V30 3762 C 358.743 -0.387034 3.57411 0
M  V30 3763 C 358.407 0.782764 4.50246 0
M  V30 3764 C 359.404 1.67059 4.92329 0
M  V30 3765 C 357.089 0.978866 4.9267 0
M  V30 3766 C 359.083 2.73874 5.75562 0
M  V30 3767 C 356.77 2.05022 5.75682 0
M  V30 3768 C 357.768 2.92851 6.17031 0
M  V30 3769 O 357.456 3.98138 6.98385 0
M  V30 3770 H 357.188 0.0129324 0.675876 0
M  V30 3771 H 359.742 0.685238 1.93633 0
M  V30 3772 H 357.972 -1.17918 3.68283 0
M  V30 3773 H 359.661 -0.869419 3.96479 0
M  V30 3774 H 360.427 1.53086 4.60206 0
M  V30 3775 H 356.306 0.304646 4.59992 0
M  V30 3776 H 359.85 3.42458 6.07757 0
M  V30 3777 H 355.747 2.18993 6.07217 0
M  V30 3778 H 356.515 3.95374 7.16674 0
M  V30 3779 N 359.178 -1.55987 0.224894 0
M  V30 3780 C 360.425 -1.9839 -0.4059 0
M  V30 3781 C 360.753 -1.11261 -1.59535 0
M  V30 3782 O 360.008 -0.158314 -1.95059 0
M  V30 3783 C 360.307 -3.46394 -0.880106 0
M  V30 3784 C 359.973 -4.5046 0.19918 0
M  V30 3785 C 358.635 -4.7864 0.495661 0
M  V30 3786 C 360.987 -5.12855 0.928939 0
M  V30 3787 C 358.315 -5.66497 1.52636 0
M  V30 3788 C 360.667 -6.01828 1.949 0
M  V30 3789 C 359.331 -6.28351 2.25236 0
M  V30 3790 H 358.601 -0.725961 -0.148529 0
M  V30 3791 H 361.248 -1.88668 0.328113 0
M  V30 3792 H 359.553 -3.53337 -1.69294 0
M  V30 3793 H 361.25 -3.76577 -1.37808 0
M  V30 3794 H 357.84 -4.28579 -0.0420526 0
M  V30 3795 H 362.024 -4.9115 0.713129 0
M  V30 3796 H 357.28 -5.8531 1.76698 0
M  V30 3797 H 361.454 -6.49225 2.51951 0
M  V30 3798 H 359.081 -6.96226 3.05244 0
M  V30 3799 N 360.656 0.0484629 -1.57525 0
M  V30 3800 C 361.902 0.744226 -1.88651 0
M  V30 3801 C 362.235 1.76029 -0.820212 0
M  V30 3802 O 361.51 1.93782 0.166985 0
M  V30 3803 C 361.793 1.43128 -3.30434 0
M  V30 3804 C 361.646 0.43005 -4.47739 0
M  V30 3805 C 362.965 2.37031 -3.70816 0
M  V30 3806 H 360.084 0.269089 -0.68612 0
M  V30 3807 H 362.726 0.00713532 -1.89999 0
M  V30 3808 H 360.876 2.05956 -3.29415 0
M  V30 3809 H 362.548 -0.194816 -4.60888 0
M  V30 3810 H 360.791 -0.252522 -4.33064 0
M  V30 3811 H 361.462 0.948874 -5.43783 0
M  V30 3812 H 363.938 1.84263 -3.73077 0
M  V30 3813 H 362.814 2.82094 -4.70865 0
M  V30 3814 H 363.075 3.22864 -3.02012 0
M  V30 3815 N 362.134 1.5431 0.320358 0
M  V30 3816 C 363.359 1.76954 1.08175 0
M  V30 3817 C 363.784 0.518193 1.80821 0
M  V30 3818 O 363.142 -0.530411 1.73368 0
M  V30 3819 C 363.19 2.96451 2.05303 0
M  V30 3820 O 362.294 2.68221 3.13259 0
M  V30 3821 H 361.635 0.586275 0.311733 0
M  V30 3822 H 364.165 2.01342 0.363676 0
M  V30 3823 H 364.175 3.23887 2.48116 0
M  V30 3824 H 362.85 3.87196 1.51829 0
M  V30 3825 H 361.427 2.51744 2.75099 0
M  V30 3826 N 363.613 -0.582584 1.46437 0
M  V30 3827 C 364.523 -1.71949 1.59595 0
M  V30 3828 C 365.539 -1.67264 0.479443 0
M  V30 3829 O 366.715 -1.87171 0.743579 0
M  V30 3830 C 363.78 -3.08452 1.58298 0
M  V30 3831 C 362.841 -3.244 2.81182 0
M  V30 3832 C 362.074 -4.54391 2.79937 0
M  V30 3833 O 362.297 -5.38287 1.8869 0
M  V30 3834 O 361.231 -4.73588 3.71481 0
M  V30 3835 H 365.057 -1.63795 2.55744 0
M  V30 3836 H 362.642 -0.749643 1.29231 0
M  V30 3837 H 364.524 -3.89732 1.60271 0
M  V30 3838 H 363.199 -3.17043 0.653094 0
M  V30 3839 H 362.106 -2.42613 2.84763 0
M  V30 3840 H 363.439 -3.20699 3.7338 0
M  V30 3841 N 365.091 -1.34144 -0.827227 0
M  V30 3842 C 366.339 -1.26009 -1.58007 0
M  V30 3843 C 366.66 0.170971 -1.94249 0
M  V30 3844 O 365.93 1.10256 -1.61927 0
M  V30 3845 H 364.51 -0.463414 -0.585881 0
M  V30 3846 H 367.172 -1.68005 -0.987951 0
M  V30 3847 H 366.268 -1.86187 -2.50481 0
M  V30 3848 N 366.569 1.04691 -1.17803 0
M  V30 3849 C 367.816 1.77782 -0.969532 0
M  V30 3850 C 368.144 1.87926 0.501401 0
M  V30 3851 O 367.399 1.37918 1.38842 0
M  V30 3852 C 367.698 3.21467 -1.56186 0
M  V30 3853 C 367.364 3.3137 -3.05786 0
M  V30 3854 C 366.026 3.3378 -3.46619 0
M  V30 3855 C 368.378 3.31976 -4.01797 0
M  V30 3856 C 365.706 3.34431 -4.82051 0
M  V30 3857 C 368.058 3.34167 -5.37136 0
M  V30 3858 C 366.722 3.34866 -5.77426 0
M  V30 3859 H 365.992 0.650549 -0.354777 0
M  V30 3860 H 368.639 1.23006 -1.46772 0
M  V30 3861 H 366.944 3.79203 -0.985515 0
M  V30 3862 H 368.641 3.76652 -1.37602 0
M  V30 3863 H 365.231 3.3021 -2.73238 0
M  V30 3864 H 369.415 3.29311 -3.71306 0
M  V30 3865 H 364.671 3.33285 -5.12573 0
M  V30 3866 H 368.845 3.33585 -6.11305 0
M  V30 3867 H 366.472 3.35124 -6.82346 0
M  V30 3868 N 368.047 0.979072 1.23499 0
M  V30 3869 C 368.957 0.526431 2.28617 0
M  V30 3870 C 369.973 -0.418126 1.68901 0
M  V30 3871 O 371.149 -0.288372 1.99325 0
M  V30 3872 C 368.214 -0.165235 3.46306 0
M  V30 3873 C 367.275 0.82056 4.21385 0
M  V30 3874 C 366.508 0.161807 5.33455 0
M  V30 3875 O 366.731 -1.04742 5.60701 0
M  V30 3876 O 365.665 0.859708 5.95729 0
M  V30 3877 H 369.491 1.4006 2.69475 0
M  V30 3878 H 367.076 0.746643 1.29405 0
M  V30 3879 H 368.958 -0.553287 4.17752 0
M  V30 3880 H 367.633 -1.01419 3.07402 0
M  V30 3881 H 366.54 1.25929 3.52268 0
M  V30 3882 H 367.873 1.63828 4.64135 0
M  V30 3883 N 369.525 -1.3858 0.750561 0
M  V30 3884 C 370.772 -2.00184 0.305373 0
M  V30 3885 C 371.1 -1.59575 -1.11203 0
M  V30 3886 O 370.355 -0.823236 -1.77542 0
M  V30 3887 C 370.654 -3.55455 0.372373 0
M  V30 3888 C 370.32 -4.15765 1.745 0
M  V30 3889 C 368.982 -4.31951 2.12065 0
M  V30 3890 C 371.334 -4.49067 2.64553 0
M  V30 3891 C 368.662 -4.78734 3.39162 0
M  V30 3892 C 371.014 -4.97265 3.91038 0
M  V30 3893 C 369.678 -5.11658 4.28676 0
M  V30 3894 H 368.948 -0.732526 0.111744 0
M  V30 3895 H 371.595 -1.65673 0.960451 0
M  V30 3896 H 369.9 -3.90084 -0.366272 0
M  V30 3897 H 371.597 -4.00999 0.00953918 0
M  V30 3898 H 368.187 -4.03579 1.44297 0
M  V30 3899 H 372.371 -4.36166 2.36796 0
M  V30 3900 H 367.627 -4.88062 3.68246 0
M  V30 3901 H 371.801 -5.22003 4.60962 0
M  V30 3902 H 369.428 -5.47668 5.27222 0
M  V30 3903 N 371.003 -0.499398 -1.49478 0
M  V30 3904 C 372.25 0.0456899 -2.02448 0
M  V30 3905 C 372.578 1.37142 -1.37921 0
M  V30 3906 O 371.833 1.89111 -0.503544 0
M  V30 3907 C 372.132 0.248424 -3.56536 0
M  V30 3908 C 371.798 -0.999107 -4.39692 0
M  V30 3909 C 370.46 -1.34108 -4.62135 0
M  V30 3910 C 372.812 -1.82842 -4.88076 0
M  V30 3911 C 370.14 -2.51191 -5.30208 0
M  V30 3912 C 372.492 -2.99076 -5.57437 0
M  V30 3913 C 371.156 -3.33655 -5.78127 0
M  V30 3914 H 370.426 0.0167191 -0.740811 0
M  V30 3915 H 373.073 -0.65923 -1.79795 0
M  V30 3916 H 371.378 1.03586 -3.77859 0
M  V30 3917 H 373.075 0.684605 -3.95113 0
M  V30 3918 H 369.665 -0.722729 -4.22463 0
M  V30 3919 H 373.849 -1.57737 -4.70566 0
M  V30 3920 H 369.105 -2.78221 -5.44429 0
M  V30 3921 H 373.279 -3.63664 -5.93904 0
M  V30 3922 H 370.906 -4.24483 -6.30649 0
M  V30 3923 N 372.481 1.55866 -0.233164 0
M  V30 3924 C 373.721 2.00506 0.397078 0
M  V30 3925 C 374.085 1.1176 1.56121 0
M  V30 3926 O 375.286 1.45796 2.25825 0
M  V30 3927 C 373.557 3.4811 0.809601 0
M  V30 3928 S 375.116 4.14765 1.43231 0
M  V30 3929 H 371.934 0.699828 0.125547 0
M  V30 3930 H 374.536 1.92429 -0.345177 0
M  V30 3931 H 373.24 4.10373 -0.0471601 0
M  V30 3932 H 372.771 3.60085 1.58438 0
M  V30 3933 H 374.786 4.14914 2.7214 0
M  V30 3934 N 373.959 -0.0401083 1.57549 0
M  V30 3935 C 374.922 -1.02871 2.04817 0
M  V30 3936 C 375.922 -1.29708 0.950388 0
M  V30 3937 O 377.112 -1.24897 1.21435 0
M  V30 3938 C 374.244 -2.36443 2.45576 0
M  V30 3939 H 375.437 -0.620631 2.93408 0
M  V30 3940 H 372.99 -0.286667 1.53649 0
M  V30 3941 H 373.725 -2.82021 1.60108 0
M  V30 3942 H 373.51 -2.18296 3.25713 0
M  V30 3943 H 375 -3.07441 2.82612 0
M  V30 3944 N 375.437 -1.54477 -0.31217 0
M  V30 3945 C 376.369 -1.81011 -1.40598 0
M  V30 3946 C 377.382 -0.692546 -1.47335 0
M  V30 3947 O 378.571 -0.969847 -1.49854 0
M  V30 3948 C 375.671 -1.92307 -2.79054 0
M  V30 3949 C 374.844 -3.22594 -2.95384 0
M  V30 3950 C 373.903 -3.24448 -4.1427 0
M  V30 3951 O 372.929 -3.98035 -4.06887 0
M  V30 3952 N 374.131 -2.49042 -5.24365 0
M  V30 3953 H 376.896 -2.75408 -1.18196 0
M  V30 3954 H 374.457 -1.53914 -0.502202 0
M  V30 3955 H 376.449 -1.90962 -3.56813 0
M  V30 3956 H 375.019 -1.04955 -2.94454 0
M  V30 3957 H 374.239 -3.36806 -2.04831 0
M  V30 3958 H 375.527 -4.08593 -3.03198 0
M  V30 3959 H 374.925 -1.88867 -5.33241 0
M  V30 3960 H 373.482 -2.53463 -6.005 0
M  V30 3961 N 376.915 0.57481 -1.46744 0
M  V30 3962 C 378.14 1.36341 -1.56288 0
M  V30 3963 C 378.565 1.86954 -0.207347 0
M  V30 3964 O 377.923 1.62006 0.813871 0
M  V30 3965 C 377.971 2.52147 -2.57787 0
M  V30 3966 O 377.075 3.53834 -2.11838 0
M  V30 3967 H 376.416 0.405713 -0.525636 0
M  V30 3968 H 378.946 0.696453 -1.92382 0
M  V30 3969 H 378.956 2.98958 -2.77648 0
M  V30 3970 H 377.631 2.14663 -3.5622 0
M  V30 3971 H 376.208 3.1345 -2.01999 0
M  V30 3972 N 378.394 1.34581 0.820102 0
M  V30 3973 C 379.641 1.27096 1.57648 0
M  V30 3974 C 379.969 -0.158317 1.93855 0
M  V30 3975 O 379.224 -1.12028 1.60463 0
M  V30 3976 C 379.523 2.10997 2.8847 0
M  V30 3977 C 379.189 3.59966 2.71543 0
M  V30 3978 C 377.851 4.00575 2.66634 0
M  V30 3979 C 380.203 4.54548 2.55021 0
M  V30 3980 C 377.531 5.33953 2.43128 0
M  V30 3981 C 379.883 5.88109 2.33047 0
M  V30 3982 C 378.547 6.27878 2.26552 0
M  V30 3983 H 377.817 0.465078 0.576874 0
M  V30 3984 H 380.464 1.6635 0.948671 0
M  V30 3985 H 378.769 1.6458 3.55557 0
M  V30 3986 H 380.466 2.0255 3.46084 0
M  V30 3987 H 377.056 3.27733 2.76205 0
M  V30 3988 H 381.24 4.24069 2.57835 0
M  V30 3989 H 376.496 5.63781 2.3656 0
M  V30 3990 H 380.67 6.60985 2.19251 0
M  V30 3991 H 378.297 7.31162 2.081 0
M  V30 3992 N 379.872 -1.04064 1.18357 0
M  V30 3993 C 381.097 -1.81454 1.00445 0
M  V30 3994 C 381.522 -1.82823 -0.442423 0
M  V30 3995 O 380.88 -1.24555 -1.31741 0
M  V30 3996 C 380.928 -3.24925 1.56384 0
M  V30 3997 O 380.032 -4.04856 0.785209 0
M  V30 3998 H 379.373 -0.560604 0.355835 0
M  V30 3999 H 381.903 -1.31059 1.57114 0
M  V30 4000 H 381.913 -3.75702 1.59097 0
M  V30 4001 H 380.588 -3.23244 2.61699 0
M  V30 4002 H 379.165 -3.63537 0.830399 0
M  V30 4003 N 381.35 -0.985608 -1.22978 0
M  V30 4004 C 382.297 -0.529825 -2.24636 0
M  V30 4005 C 383.267 0.434028 -1.60329 0
M  V30 4006 O 384.452 0.340414 -1.87739 0
M  V30 4007 C 381.592 0.156533 -3.44745 0
M  V30 4008 C 380.705 -0.848197 -4.23591 0
M  V30 4009 C 379.84 -0.136109 -5.31026 0
M  V30 4010 C 378.879 -1.1297 -6.01585 0
M  V30 4011 N 378.016 -0.446415 -7.00679 0
M  V30 4012 H 382.856 -1.40148 -2.62988 0
M  V30 4013 H 380.393 -0.702168 -1.29259 0
M  V30 4014 H 382.351 0.571324 -4.1327 0
M  V30 4015 H 380.981 0.992025 -3.07179 0
M  V30 4016 H 380.033 -1.38135 -3.54433 0
M  V30 4017 H 381.345 -1.60512 -4.72268 0
M  V30 4018 H 380.499 0.335784 -6.0577 0
M  V30 4019 H 379.238 0.653373 -4.83304 0
M  V30 4020 H 378.243 -1.6123 -5.25628 0
M  V30 4021 H 379.468 -1.91993 -6.51395 0
M  V30 4022 H 377.414 0.323763 -6.55201 0
M  V30 4023 H 377.331 -1.1419 -7.47326 0
M  V30 4024 H 378.599 0.00291697 -7.795 0
M  V30 4025 N 382.828 1.3818 -0.7579 0
M  V30 4026 C 383.776 2.32277 -0.122482 0
M  V30 4027 C 384.77 1.54238 0.700505 0
M  V30 4028 O 385.976 1.69737 0.599119 0
M  V30 4029 H 382.351 0.751712 -0.0208143 0
M  V30 4030 H 384.322 2.83469 -0.932099 0
M  V30 4031 C 383.071 3.39447 0.753076 0
M  V30 4032 H 382.394 3.99591 0.129184 0
M  V30 4033 H 383.834 4.07684 1.16489 0
M  V30 4034 C 382.293 2.78375 1.8976 0
M  V30 4035 O 382.823 2.68025 2.99208 0
M  V30 4036 N 381.029 2.36121 1.69397 0
M  V30 4037 H 380.576 2.4474 0.803762 0
M  V30 4038 H 380.534 1.95602 2.46145 0
M  V30 4039 N 384.306 0.507319 1.49211 0
M  V30 4040 C 385.553 -0.0349529 2.0247 0
M  V30 4041 C 385.881 -1.36409 1.38647 0
M  V30 4042 O 385.136 -1.88841 0.513566 0
M  V30 4043 C 385.435 -0.229513 3.56662 0
M  V30 4044 C 385.101 1.02241 4.39156 0
M  V30 4045 C 383.763 1.36557 4.61417 0
M  V30 4046 C 386.115 1.85428 4.871 0
M  V30 4047 C 383.443 2.53999 5.28868 0
M  V30 4048 C 385.795 3.02028 5.55843 0
M  V30 4049 C 384.459 3.36717 5.76349 0
M  V30 4050 H 383.729 -0.0127902 0.74089 0
M  V30 4051 H 386.376 0.668756 1.79443 0
M  V30 4052 H 384.681 -1.0158 3.78403 0
M  V30 4053 H 386.378 -0.663641 3.9547 0
M  V30 4054 H 382.968 0.745124 4.22073 0
M  V30 4055 H 387.152 1.6023 4.69723 0
M  V30 4056 H 382.408 2.81105 5.42946 0
M  V30 4057 H 386.582 3.66808 5.91967 0
M  V30 4058 H 384.209 4.27821 6.28389 0
M  V30 4059 N 385.784 -1.5574 0.241426 0
M  V30 4060 C 387.032 -1.98417 -0.384075 0
M  V30 4061 C 387.353 -1.13078 -1.58866 0
M  V30 4062 O 386.623 -0.212312 -1.94746 0
M  V30 4063 H 385.203 -0.732813 -0.144894 0
M  V30 4064 H 387.865 -1.9193 0.338943 0
M  V30 4065 H 386.961 -3.04219 -0.696939 0
M  V30 4066 N 387.262 0.0317525 -1.57568 0
M  V30 4067 C 388.192 1.03274 -2.0942 0
M  V30 4068 C 389.173 1.3788 -0.996143 0
M  V30 4069 O 390.358 1.46811 -1.27122 0
M  V30 4070 C 387.488 2.33448 -2.57137 0
M  V30 4071 C 386.442 2.13091 -3.71182 0
M  V30 4072 C 385.768 3.49001 -4.05095 0
M  V30 4073 C 387.068 1.51928 -4.99715 0
M  V30 4074 H 388.762 0.60112 -2.93303 0
M  V30 4075 H 386.308 0.287705 -1.41097 0
M  V30 4076 H 388.261 3.03802 -2.92032 0
M  V30 4077 H 386.985 2.78665 -1.70333 0
M  V30 4078 H 385.644 1.45171 -3.36632 0
M  V30 4079 H 385.292 3.91862 -3.15362 0
M  V30 4080 H 384.992 3.36207 -4.81911 0
M  V30 4081 H 386.516 4.20721 -4.42522 0
M  V30 4082 H 387.93 2.12196 -5.32584 0
M  V30 4083 H 386.327 1.49716 -5.81124 0
M  V30 4084 H 387.397 0.484811 -4.8247 0
M  V30 4085 N 388.74 1.54641 0.303973 0
M  V30 4086 C 389.97 1.77511 1.05705 0
M  V30 4087 C 390.378 0.533228 1.81531 0
M  V30 4088 O 389.721 -0.506423 1.76582 0
M  V30 4089 C 389.783 2.92779 2.08617 0
M  V30 4090 C 389.447 4.30977 1.52013 0
M  V30 4091 C 390.444 5.11115 0.9517 0
M  V30 4092 C 388.129 4.77571 1.55665 0
M  V30 4093 C 390.123 6.35966 0.427327 0
M  V30 4094 C 387.81 6.02384 1.02841 0
M  V30 4095 C 388.808 6.81417 0.464713 0
M  V30 4096 O 388.496 8.03881 -0.0555283 0
M  V30 4097 H 388.228 0.59579 0.319391 0
M  V30 4098 H 390.782 2.02401 0.349712 0
M  V30 4099 H 389.012 2.63506 2.83022 0
M  V30 4100 H 390.701 3.03252 2.69802 0
M  V30 4101 H 391.467 4.76264 0.916407 0
M  V30 4102 H 387.346 4.16085 1.9848 0
M  V30 4103 H 390.89 6.97599 -0.0133062 0
M  V30 4104 H 386.787 6.36723 1.06084 0
M  V30 4105 H 387.555 8.18479 0.0580522 0
M  V30 4106 N 390.218 -0.567019 1.47046 0
M  V30 4107 C 391.166 -1.69593 1.59188 0
M  V30 4108 C 392.16 -1.63046 0.459609 0
M  V30 4109 O 393.366 -1.6835 0.637058 0
M  V30 4110 H 389.741 -0.560993 0.500791 0
M  V30 4111 H 391.712 -1.56488 2.54075 0
M  V30 4112 C 390.461 -3.07964 1.61411 0
M  V30 4113 H 389.784 -3.13679 2.47881 0
M  V30 4114 H 391.224 -3.86671 1.73958 0
M  V30 4115 C 389.683 -3.35123 0.34559 0
M  V30 4116 O 390.213 -3.97812 -0.557521 0
M  V30 4117 N 388.419 -2.89699 0.22864 0
M  V30 4118 H 387.966 -2.38863 0.964479 0
M  V30 4119 H 387.924 -3.08242 -0.619192 0
M  V30 4120 N 391.696 -1.35014 -0.812953 0
M  V30 4121 C 392.606 -1.2951 -1.95613 0
M  V30 4122 C 393.622 -0.20107 -1.72834 0
M  V30 4123 O 394.798 -0.42932 -1.96771 0
M  V30 4124 C 391.863 -1.06033 -3.30088 0
M  V30 4125 C 390.924 -2.24688 -3.65805 0
M  V30 4126 C 390.157 -2.02322 -4.93864 0
M  V30 4127 O 390.38 -0.986464 -5.61805 0
M  V30 4128 O 389.314 -2.89525 -5.27692 0
M  V30 4129 H 393.14 -2.25705 -2.03202 0
M  V30 4130 H 390.725 -1.15321 -0.949811 0
M  V30 4131 H 392.607 -0.94763 -4.10607 0
M  V30 4132 H 391.282 -0.128852 -3.23443 0
M  V30 4133 H 390.189 -2.41521 -2.85689 0
M  V30 4134 H 391.522 -3.16261 -3.77147 0
M  V30 4135 N 393.175 1.03435 -1.18907 0
M  V30 4136 C 394.591 1.28973 -0.940111 0
M  V30 4137 C 394.791 1.97676 0.390691 0
M  V30 4138 O 393.847 2.26127 1.12352 0
M  V30 4139 C 395.16 2.14221 -2.11021 0
M  V30 4140 C 396.708 2.27547 -2.14922 0
M  V30 4141 C 397.183 3.16164 -3.31367 0
M  V30 4142 N 398.674 3.23752 -3.31269 0
M  V30 4143 C 399.409 3.92495 -4.18014 0
M  V30 4144 N 398.905 4.63515 -5.14904 0
M  V30 4145 N 400.698 3.88838 -4.05908 0
M  V30 4146 H 392.849 0.57252 -2.04538 0
M  V30 4147 H 395.112 0.315184 -0.894071 0
M  V30 4148 H 394.818 1.71054 -3.073 0
M  V30 4149 H 394.692 3.14919 -2.0762 0
M  V30 4150 H 397.079 2.69947 -1.19217 0
M  V30 4151 H 397.16 1.26418 -2.22378 0
M  V30 4152 H 396.804 2.74474 -4.27348 0
M  V30 4153 H 396.734 4.17339 -3.21148 0
M  V30 4154 H 399.225 2.73167 -2.61129 0
M  V30 4155 H 399.538 5.13583 -5.77453 0
M  V30 4156 H 397.883 4.62398 -5.18857 0
M  V30 4157 H 401.074 3.32491 -3.29495 0
M  V30 4158 H 401.247 4.4214 -4.73726 0
M  V30 4159 N 394.653 0.992116 1.22453 0
M  V30 4160 C 395.899 0.668523 1.91464 0
M  V30 4161 C 396.232 -0.797313 1.77078 0
M  V30 4162 O 395.507 -1.5765 1.13916 0
M  V30 4163 C 395.79 1.07424 3.43703 0
M  V30 4164 C 395.643 2.59857 3.67143 0
M  V30 4165 C 396.962 0.626891 4.35612 0
M  V30 4166 H 394.081 0.244341 0.695318 0
M  V30 4167 H 396.723 1.2355 1.44345 0
M  V30 4168 H 394.873 0.591816 3.83966 0
M  V30 4169 H 396.545 3.15764 3.3629 0
M  V30 4170 H 394.788 3.01961 3.11451 0
M  V30 4171 H 395.459 2.83296 4.73759 0
M  V30 4172 H 397.935 1.04125 4.02861 0
M  V30 4173 H 396.811 0.939076 5.40807 0
M  V30 4174 H 397.072 -0.472457 4.39568 0
M  V30 4175 N 396.131 -1.37776 0.765217 0
M  V30 4176 C 397.379 -1.99454 0.325943 0
M  V30 4177 C 397.7 -1.61049 -1.09947 0
M  V30 4178 O 396.97 -0.872821 -1.75381 0
M  V30 4179 H 395.55 -0.737697 0.117525 0
M  V30 4180 H 398.212 -1.68359 0.981895 0
M  V30 4181 H 397.308 -3.09547 0.398353 0
M  V30 4182 N 397.609 -0.515225 -1.4894 0
M  V30 4183 C 398.557 0.269115 -2.31038 0
M  V30 4184 C 399.551 0.949443 -1.40292 0
M  V30 4185 O 400.757 0.87551 -1.57273 0
M  V30 4186 H 397.132 0.10565 -0.744542 0
M  V30 4187 H 399.103 -0.443096 -2.95092 0
M  V30 4188 C 397.852 1.31213 -3.21991 0
M  V30 4189 H 397.175 0.798034 -3.91754 0
M  V30 4190 H 398.615 1.83263 -3.82349 0
M  V30 4191 C 397.074 2.33791 -2.42576 0
M  V30 4192 O 397.604 3.3995 -2.14003 0
M  V30 4193 N 395.81 2.06625 -2.0434 0
M  V30 4194 H 395.357 1.20314 -2.27777 0
M  V30 4195 H 395.315 2.75483 -1.51514 0
M  V30 4196 N 399.087 1.5561 -0.249682 0
M  V30 4197 C 400.017 2.24477 0.642826 0
M  V30 4198 C 400.998 1.22601 1.17911 0
M  V30 4199 O 402.183 1.5126 1.21795 0
M  V30 4200 C 399.313 2.94638 1.83863 0
M  V30 4201 C 398.267 4.03227 1.435 0
M  V30 4202 C 397.593 4.60828 2.71186 0
M  V30 4203 C 398.893 5.18796 0.604002 0
M  V30 4204 H 400.587 2.99321 0.0685625 0
M  V30 4205 H 398.133 1.43965 0.0315363 0
M  V30 4206 H 400.086 3.41517 2.46868 0
M  V30 4207 H 398.81 2.17287 2.43832 0
M  V30 4208 H 397.469 3.57121 0.828275 0
M  V30 4209 H 397.117 3.80174 3.29358 0
M  V30 4210 H 396.817 5.34132 2.44901 0
M  V30 4211 H 398.341 5.10442 3.35084 0
M  V30 4212 H 399.755 5.61883 1.13842 0
M  V30 4213 H 398.152 5.98506 0.437097 0
M  V30 4214 H 399.222 4.83384 -0.383147 0
M  V30 4215 N 400.565 -0.0233959 1.57583 0
M  V30 4216 C 401.793 -0.724682 1.93794 0
M  V30 4217 C 402.208 -1.68588 0.849912 0
M  V30 4218 O 401.565 -1.81676 -0.173204 0
M  V30 4219 C 401.616 -1.47684 3.29957 0
M  V30 4220 O 401.337 -0.554222 4.3458 0
M  V30 4221 C 402.838 -2.27477 3.80485 0
M  V30 4222 H 400.058 -0.203317 0.639455 0
M  V30 4223 H 402.602 0.0207653 2.04489 0
M  V30 4224 H 400.757 -2.17412 3.20641 0
M  V30 4225 H 401.171 -1.08232 5.13212 0
M  V30 4226 H 402.645 -2.7564 4.78254 0
M  V30 4227 H 403.122 -3.09144 3.11972 0
M  V30 4228 H 403.728 -1.62813 3.92902 0
M  V30 4229 N 402.043 -1.548 -0.295768 0
M  V30 4230 C 403.289 -1.74588 -1.03184 0
M  V30 4231 C 403.622 -0.532962 -1.86744 0
M  V30 4232 O 402.897 0.469872 -1.88739 0
M  V30 4233 C 403.18 -3.03791 -1.93347 0
M  V30 4234 C 403.033 -4.35392 -1.12933 0
M  V30 4235 C 404.352 -3.28892 -2.92435 0
M  V30 4236 H 401.471 -0.635221 -0.373715 0
M  V30 4237 H 404.113 -1.87519 -0.30606 0
M  V30 4238 H 402.263 -2.92898 -2.55232 0
M  V30 4239 H 403.935 -4.58211 -0.532943 0
M  V30 4240 H 402.178 -4.31642 -0.432168 0
M  V30 4241 H 402.849 -5.22074 -1.79284 0
M  V30 4242 H 405.325 -3.39429 -2.4068 0
M  V30 4243 H 404.201 -4.20603 -3.52682 0
M  V30 4244 H 404.462 -2.47437 -3.6637 0
M  V30 4245 N 403.521 0.559213 -1.47345 0
M  V30 4246 C 404.767 1.31843 -1.54095 0
M  V30 4247 C 405.1 1.93149 -0.201726 0
M  V30 4248 O 404.375 1.77759 0.789428 0
M  V30 4249 C 404.658 2.43006 -2.65744 0
M  V30 4250 C 404.511 1.86581 -4.09277 0
M  V30 4251 C 405.83 3.44943 -2.73318 0
M  V30 4252 H 402.949 0.478012 -0.560957 0
M  V30 4253 H 405.591 0.625977 -1.79392 0
M  V30 4254 H 403.741 3.02072 -2.44305 0
M  V30 4255 H 405.413 1.31792 -4.42073 0
M  V30 4256 H 403.656 1.17268 -4.17649 0
M  V30 4257 H 404.327 2.66933 -4.83168 0
M  V30 4258 H 406.803 2.95793 -2.92653 0
M  V30 4259 H 405.679 4.20153 -3.53218 0
M  V30 4260 H 405.94 4.03665 -1.80296 0
M  V30 4261 N 404.999 1.35443 0.805782 0
M  V30 4262 C 406.247 1.28507 1.55982 0
M  V30 4263 C 406.568 -0.140046 1.94496 0
M  V30 4264 O 405.838 -1.07666 1.63661 0
M  V30 4265 H 404.418 0.472676 0.578434 0
M  V30 4266 H 407.08 1.69555 0.961098 0
M  V30 4267 H 406.176 1.90148 2.47488 0
M  V30 4268 N 406.477 -1.02803 1.19454 0
M  V30 4269 C 407.424 -2.11099 0.933046 0
M  V30 4270 C 408.394 -1.65571 -0.132447 0
M  V30 4271 O 409.579 -1.90797 0.00987576 0
M  V30 4272 C 406.719 -3.41763 0.478747 0
M  V30 4273 C 405.832 -4.00833 1.6111 0
M  V30 4274 C 404.967 -5.19511 1.10825 0
M  V30 4275 C 404.006 -5.70639 2.21445 0
M  V30 4276 N 403.143 -6.80589 1.72461 0
M  V30 4277 H 407.983 -2.32804 1.86028 0
M  V30 4278 H 405.52 -1.14179 0.927441 0
M  V30 4279 H 407.478 -4.16736 0.196745 0
M  V30 4280 H 406.108 -3.20166 -0.411493 0
M  V30 4281 H 405.16 -3.23066 2.00829 0
M  V30 4282 H 406.472 -4.34794 2.4445 0
M  V30 4283 H 405.626 -6.01645 0.781533 0
M  V30 4284 H 404.365 -4.87086 0.244606 0
M  V30 4285 H 403.37 -4.87116 2.54947 0
M  V30 4286 H 404.595 -6.05102 3.08267 0
M  V30 4287 H 402.541 -6.50016 0.884056 0
M  V30 4288 H 402.458 -7.13681 2.49389 0
M  V30 4289 H 403.726 -7.66317 1.42755 0
M  V30 4290 N 407.956 -0.998596 -1.21925 0
M  V30 4291 C 408.866 -0.562736 -2.27751 0
M  V30 4292 C 409.882 0.391203 -1.69545 0
M  V30 4293 O 411.058 0.256625 -1.99758 0
M  V30 4294 C 408.123 0.11012 -3.46525 0
M  V30 4295 C 407.184 -0.887495 -4.20026 0
M  V30 4296 C 406.417 -0.246654 -5.3313 0
M  V30 4297 O 406.64 0.958088 -5.62296 0
M  V30 4298 O 405.574 -0.954374 -5.94286 0
M  V30 4299 H 409.4 -1.44329 -2.67213 0
M  V30 4300 H 406.985 -0.767135 -1.28201 0
M  V30 4301 H 408.867 0.486756 -4.18579 0
M  V30 4302 H 407.542 0.965154 -3.08976 0
M  V30 4303 H 406.449 -1.31517 -3.5022 0
M  V30 4304 H 407.782 -1.71191 -4.6147 0
M  V30 4305 N 409.434 1.37368 -0.772513 0
M  V30 4306 C 410.845 1.8231 -0.402493 0
M  V30 4307 C 411.196 1.6436 1.07146 0
M  V30 4308 O 410.321 1.15514 1.82991 0
M  V30 4309 C 410.916 3.30979 -0.723776 0
M  V30 4310 C 409.475 3.74195 -0.406802 0
M  V30 4311 C 408.622 2.59885 -0.967218 0
M  V30 4312 H 411.573 1.25829 -0.967099 0
M  V30 4313 H 411.594 3.80499 -0.00870832 0
M  V30 4314 H 411.106 3.44011 -1.7966 0
M  V30 4315 H 409.207 3.66732 0.658673 0
M  V30 4316 H 409.32 4.7027 -0.915588 0
M  V30 4317 H 407.684 2.51674 -0.391416 0
M  V30 4318 H 408.467 2.7571 -2.04546 0
M  V30 4319 N 410.912 0.523116 1.48665 0
M  V30 4320 C 411.822 -0.247406 2.33292 0
M  V30 4321 C 412.838 -0.945769 1.46052 0
M  V30 4322 O 414.014 -0.922253 1.79043 0
M  V30 4323 C 411.079 -1.28487 3.22012 0
M  V30 4324 C 410.14 -0.597592 4.2512 0
M  V30 4325 C 409.373 -1.58563 5.09601 0
M  V30 4326 O 409.596 -2.81763 4.95949 0
M  V30 4327 O 408.53 -1.12879 5.91221 0
M  V30 4328 H 412.356 0.445869 3.00409 0
M  V30 4329 H 409.941 0.284128 1.46673 0
M  V30 4330 H 411.823 -1.88459 3.7691 0
M  V30 4331 H 410.498 -1.96068 2.57564 0
M  V30 4332 H 409.405 0.0424407 3.74076 0
M  V30 4333 H 410.738 0.0361517 4.92187 0
M  V30 4334 N 412.39 -1.55475 0.257931 0
M  V30 4335 C 413.615 -2.04064 -0.370488 0
M  V30 4336 C 414.04 -1.13565 -1.49948 0
M  V30 4337 O 413.398 -0.130781 -1.80828 0
M  V30 4338 C 413.446 -3.50554 -0.845237 0
M  V30 4339 O 412.55 -3.63173 -1.95394 0
M  V30 4340 H 411.891 -0.659257 -0.0792243 0
M  V30 4341 H 414.421 -2.00903 0.387212 0
M  V30 4342 H 414.431 -3.91588 -1.14555 0
M  V30 4343 H 413.106 -4.15896 -0.0191259 0
M  V30 4344 H 411.683 -3.34039 -1.65748 0
M  V30 4345 N 413.868 0.0150385 -1.57593 0
M  V30 4346 C 415.117 0.702115 -1.89085 0
M  V30 4347 C 415.43 1.75764 -0.858277 0
M  V30 4348 O 416.636 2.49829 -1.0629 0
M  V30 4349 C 415.092 1.29992 -3.35604 0
M  V30 4350 C 414.7 0.280007 -4.47124 0
M  V30 4351 C 416.444 1.96606 -3.76227 0
M  V30 4352 C 414.351 0.886949 -5.84711 0
M  V30 4353 H 413.281 0.265997 -0.705522 0
M  V30 4354 H 415.932 -0.0430408 -1.8345 0
M  V30 4355 H 414.314 2.09525 -3.36029 0
M  V30 4356 H 415.488 -0.489631 -4.58191 0
M  V30 4357 H 413.803 -0.284835 -4.15425 0
M  V30 4358 H 416.4 2.42893 -4.76347 0
M  V30 4359 H 416.743 2.79024 -3.08952 0
M  V30 4360 H 417.276 1.23828 -3.78036 0
M  V30 4361 H 414.015 0.101876 -6.55421 0
M  V30 4362 H 413.535 1.6261 -5.77337 0
M  V30 4363 H 415.214 1.39011 -6.3189 0
M  V30 4364 N 415.346 1.54954 0.287554 0
M  V30 4365 C 416.276 1.89839 1.35954 0
M  V30 4366 C 417.257 0.758675 1.52244 0
M  V30 4367 O 418.442 1.01557 1.65529 0
M  V30 4368 C 415.572 2.15753 2.72154 0
M  V30 4369 C 414.526 3.3159 2.70614 0
M  V30 4370 C 413.852 3.42952 4.10229 0
M  V30 4371 C 415.152 4.68359 2.31165 0
M  V30 4372 H 416.846 2.79625 1.07007 0
M  V30 4373 H 414.392 1.3454 0.513316 0
M  V30 4374 H 416.345 2.38743 3.47246 0
M  V30 4375 H 415.069 1.22752 3.02654 0
M  V30 4376 H 413.728 3.08545 1.97979 0
M  V30 4377 H 413.376 2.47443 4.37928 0
M  V30 4378 H 413.076 4.20826 4.10097 0
M  V30 4379 H 414.6 3.68218 4.87081 0
M  V30 4380 H 416.014 4.9099 2.95976 0
M  V30 4381 H 414.411 5.49044 2.42221 0
M  V30 4382 H 415.481 4.68165 1.26291 0
M  V30 4383 N 416.824 -0.551391 1.4764 0
M  V30 4384 C 417.756 -1.67333 1.56628 0
M  V30 4385 C 418.769 -1.56398 0.452045 0
M  V30 4386 O 419.958 -1.6325 0.721926 0
M  V30 4387 C 417.058 -3.05841 1.45994 0
M  V30 4388 C 416.231 -3.42472 2.72088 0
M  V30 4389 C 415.29 -4.60168 2.55209 0
M  V30 4390 O 414.316 -4.64458 3.2904 0
M  V30 4391 N 415.518 -5.57024 1.63416 0
M  V30 4392 H 418.283 -1.60066 2.53375 0
M  V30 4393 H 415.844 -0.738169 1.44093 0
M  V30 4394 H 417.836 -3.8242 1.32428 0
M  V30 4395 H 416.406 -3.07302 0.573071 0
M  V30 4396 H 415.626 -2.55284 3.00373 0
M  V30 4397 H 416.914 -3.63723 3.55785 0
M  V30 4398 H 416.312 -5.56319 1.02594 0
M  V30 4399 H 414.869 -6.32906 1.558 0
M  V30 4400 N 418.302 -1.35869 -0.798587 0
M  V30 4401 C 419.548 -1.2978 -1.55836 0
M  V30 4402 C 419.881 0.125322 -1.93795 0
M  V30 4403 O 419.156 1.07658 -1.61987 0
M  V30 4404 C 419.439 -2.21188 -2.84162 0
M  V30 4405 C 419.292 -3.72155 -2.52628 0
M  V30 4406 C 420.611 -2.11545 -3.85923 0
M  V30 4407 H 417.73 -0.472769 -0.565383 0
M  V30 4408 H 420.372 -1.66341 -0.918192 0
M  V30 4409 H 418.522 -1.90139 -3.38791 0
M  V30 4410 H 420.194 -4.13682 -2.04121 0
M  V30 4411 H 418.437 -3.92042 -1.85704 0
M  V30 4412 H 419.108 -4.31511 -3.44242 0
M  V30 4413 H 421.584 -2.38855 -3.40716 0
M  V30 4414 H 420.46 -2.77688 -4.73477 0
M  V30 4415 H 420.721 -1.09987 -4.282 0
M  V30 4416 N 419.78 1.02168 -1.19998 0
M  V30 4417 C 420.71 2.12488 -0.96804 0
M  V30 4418 C 421.691 1.69799 0.101185 0
M  V30 4419 O 422.876 1.94121 -0.0552993 0
M  V30 4420 C 420.006 3.43479 -0.513776 0
M  V30 4421 C 418.96 3.99884 -1.52566 0
M  V30 4422 C 418.286 5.26582 -0.928214 0
M  V30 4423 C 419.586 4.33861 -2.90795 0
M  V30 4424 H 421.28 2.32149 -1.89069 0
M  V30 4425 H 418.826 1.11564 -0.910468 0
M  V30 4426 H 420.779 4.20036 -0.338774 0
M  V30 4427 H 419.503 3.23561 0.444493 0
M  V30 4428 H 418.162 3.25429 -1.68794 0
M  V30 4429 H 417.81 5.02986 0.0378289 0
M  V30 4430 H 417.51 5.65284 -1.60397 0
M  V30 4431 H 419.034 6.05799 -0.764167 0
M  V30 4432 H 420.448 5.01327 -2.78109 0
M  V30 4433 H 418.845 4.83664 -3.55231 0
M  V30 4434 H 419.915 3.42848 -3.42904 0
M  V30 4435 N 421.258 1.00505 1.21394 0
M  V30 4436 C 422.483 0.706367 1.95001 0
M  V30 4437 C 422.908 -0.72463 1.73582 0
M  V30 4438 O 422.266 -1.49702 1.0227 0
M  V30 4439 C 422.314 1.03299 3.45487 0
M  V30 4440 O 421.418 0.138275 4.12168 0
M  V30 4441 H 420.759 0.263175 0.609619 0
M  V30 4442 H 423.289 1.34531 1.54151 0
M  V30 4443 H 423.299 0.979872 3.96059 0
M  V30 4444 H 421.974 2.07567 3.60401 0
M  V30 4445 H 420.551 0.247928 3.72075 0
M  V30 4446 N 422.737 -1.36956 0.779787 0
M  V30 4447 C 423.669 -2.28833 0.129639 0
M  V30 4448 C 424.682 -1.4902 -0.655511 0
M  V30 4449 O 425.871 -1.71578 -0.492279 0
M  V30 4450 C 422.971 -3.2833 -0.839792 0
M  V30 4451 C 422.144 -4.3727 -0.10675 0
M  V30 4452 C 421.203 -5.16789 -0.990717 0
M  V30 4453 O 420.229 -5.67406 -0.451516 0
M  V30 4454 N 421.431 -5.32294 -2.3161 0
M  V30 4455 H 424.196 -2.85268 0.918803 0
M  V30 4456 H 421.757 -1.49019 0.632841 0
M  V30 4457 H 423.749 -3.78413 -1.43477 0
M  V30 4458 H 422.319 -2.72605 -1.52988 0
M  V30 4459 H 421.539 -3.88478 0.669216 0
M  V30 4460 H 422.827 -5.07229 0.399464 0
M  V30 4461 H 422.225 -4.92768 -2.77843 0
M  V30 4462 H 420.782 -5.85656 -2.86095 0
M  V30 4463 N 424.215 -0.530993 -1.48385 0
M  V30 4464 C 425.148 0.278511 -2.26494 0
M  V30 4465 C 426.126 0.943905 -1.32398 0
M  V30 4466 O 427.31 0.968098 -1.61741 0
M  V30 4467 C 424.437 1.39453 -3.08659 0
M  V30 4468 C 423.483 0.840434 -4.18137 0
M  V30 4469 S 424.316 -0.292496 -5.34701 0
M  V30 4470 C 425.472 0.825973 -6.20426 0
M  V30 4471 H 425.705 -0.384365 -2.94805 0
M  V30 4472 H 423.238 -0.316799 -1.51115 0
M  V30 4473 H 425.196 2.03382 -3.56575 0
M  V30 4474 H 423.857 2.02913 -2.3976 0
M  V30 4475 H 423.05 1.67769 -4.75257 0
M  V30 4476 H 422.652 0.277819 -3.72967 0
M  V30 4477 H 424.944 1.72438 -6.55188 0
M  V30 4478 H 425.887 0.292728 -7.07495 0
M  V30 4479 H 426.295 1.10683 -5.53543 0
M  V30 4480 N 425.693 1.55336 -0.266172 0
M  V30 4481 C 426.603 2.2583 0.635458 0
M  V30 4482 C 427.619 1.28106 1.17749 0
M  V30 4483 O 428.795 1.61024 1.20968 0
M  V30 4484 C 425.86 2.95879 1.80712 0
M  V30 4485 C 424.921 4.09059 1.30265 0
M  V30 4486 C 424.154 4.75759 2.41846 0
M  V30 4487 O 424.377 4.41622 3.61007 0
M  V30 4488 O 423.311 5.63888 2.1051 0
M  V30 4489 H 427.137 3.03631 0.0646693 0
M  V30 4490 H 424.722 1.49361 -0.0339177 0
M  V30 4491 H 426.604 3.39932 2.49047 0
M  V30 4492 H 425.279 2.21002 2.36516 0
M  V30 4493 H 424.186 3.69482 0.586019 0
M  V30 4494 H 425.519 4.85811 0.790458 0
M  V30 4495 N 427.171 -0.0066808 1.57599 0
M  V30 4496 C 428.118 -1.00024 2.08 0
M  V30 4497 C 429.088 -1.34549 0.973943 0
M  V30 4498 O 430.273 -1.44502 1.24595 0
M  V30 4499 C 427.413 -2.2891 2.58252 0
M  V30 4500 C 426.526 -2.00346 3.82734 0
M  V30 4501 C 425.661 -3.23265 4.21513 0
M  V30 4502 C 424.7 -2.90357 5.3885 0
M  V30 4503 N 423.837 -4.05793 5.72954 0
M  V30 4504 H 428.677 -0.563499 2.92624 0
M  V30 4505 H 426.214 -0.266592 1.44664 0
M  V30 4506 H 428.172 -3.04247 2.85464 0
M  V30 4507 H 426.802 -2.70265 1.76512 0
M  V30 4508 H 425.854 -1.15406 3.62471 0
M  V30 4509 H 427.166 -1.72086 4.68175 0
M  V30 4510 H 426.32 -4.06953 4.49971 0
M  V30 4511 H 425.059 -3.54657 3.34768 0
M  V30 4512 H 424.064 -2.05075 5.10122 0
M  V30 4513 H 425.289 -2.60219 6.27266 0
M  V30 4514 H 423.235 -4.37094 4.89167 0
M  V30 4515 H 423.152 -3.81034 6.52954 0
M  V30 4516 H 424.42 -4.90289 6.06001 0
M  V30 4517 N 428.649 -1.55105 -0.279332 0
M  V30 4518 C 429.898 -1.74618 -1.00952 0
M  V30 4519 C 430.211 -0.551096 -1.87676 0
M  V30 4520 O 431.417 -0.628507 -2.64125 0
M  V30 4521 C 429.873 -3.09025 -1.84476 0
M  V30 4522 C 429.481 -4.36081 -1.0265 0
M  V30 4523 C 431.225 -3.37891 -2.56963 0
M  V30 4524 C 429.132 -5.6153 -1.85576 0
M  V30 4525 H 428.062 -0.650868 -0.38064 0
M  V30 4526 H 430.713 -1.81569 -0.265475 0
M  V30 4527 H 429.095 -2.96095 -2.62952 0
M  V30 4528 H 430.269 -4.59909 -0.286354 0
M  V30 4529 H 428.584 -4.14312 -0.416464 0
M  V30 4530 H 431.181 -4.28822 -3.19399 0
M  V30 4531 H 431.524 -2.57737 -3.26921 0
M  V30 4532 H 432.057 -3.5189 -1.85522 0
M  V30 4533 H 428.796 -6.44413 -1.2005 0
M  V30 4534 H 428.316 -5.41854 -2.57204 0
M  V30 4535 H 429.995 -5.99594 -2.43096 0
M  V30 4536 N 430.127 0.543554 -1.4793 0
M  V30 4537 C 431.373 1.30201 -1.55485 0
M  V30 4538 C 431.706 1.92925 -0.222201 0
M  V30 4539 O 430.981 1.78586 0.77053 0
M  V30 4540 C 431.264 2.40174 -2.68307 0
M  V30 4541 C 431.117 1.8223 -4.11233 0
M  V30 4542 C 432.436 3.42024 -2.76961 0
M  V30 4543 H 429.555 0.472036 -0.565996 0
M  V30 4544 H 432.197 0.606914 -1.80046 0
M  V30 4545 H 430.347 2.99463 -2.47495 0
M  V30 4546 H 432.019 1.27096 -4.43446 0
M  V30 4547 H 430.262 1.12832 -4.18869 0
M  V30 4548 H 430.933 2.61793 -4.85972 0
M  V30 4549 H 433.409 2.92672 -2.95774 0
M  V30 4550 H 432.285 4.16383 -3.57654 0
M  V30 4551 H 432.546 4.0173 -1.84568 0
M  V30 4552 N 431.605 1.3629 0.791371 0
M  V30 4553 C 433.021 1.16661 1.08914 0
M  V30 4554 C 433.221 -0.0106266 2.01497 0
M  V30 4555 O 432.277 -0.676596 2.43266 0
M  V30 4556 C 433.59 2.47656 1.70549 0
M  V30 4557 C 435.138 2.54002 1.82899 0
M  V30 4558 C 435.613 3.85078 2.47949 0
M  V30 4559 N 437.104 3.86413 2.5542 0
M  V30 4560 C 437.839 4.84572 3.06557 0
M  V30 4561 N 437.335 5.93124 3.58016 0
M  V30 4562 N 439.128 4.71994 3.05251 0
M  V30 4563 H 431.279 2.11668 0.176238 0
M  V30 4564 H 433.542 0.937486 0.140796 0
M  V30 4565 H 433.248 3.34059 1.09989 0
M  V30 4566 H 433.122 2.63319 2.70079 0
M  V30 4567 H 435.509 1.68018 2.42598 0
M  V30 4568 H 435.59 2.42239 0.821808 0
M  V30 4569 H 435.234 4.71467 1.88895 0
M  V30 4570 H 435.164 3.94135 3.49235 0
M  V30 4571 H 437.655 3.07988 2.18979 0
M  V30 4572 H 437.968 6.63999 3.95381 0
M  V30 4573 H 436.313 5.96796 3.56173 0
M  V30 4574 H 439.504 3.86321 2.64336 0
M  V30 4575 H 439.677 5.48653 3.44796 0
M  V30 4576 N 433.083 -1.0153 1.20538 0
M  V30 4577 C 434.332 -1.74558 1.01057 0
M  V30 4578 C 434.645 -1.90168 -0.457756 0
M  V30 4579 O 435.851 -2.60301 -0.771722 0
M  V30 4580 C 434.307 -3.13963 1.75941 0
M  V30 4581 C 433.915 -3.06361 3.26875 0
M  V30 4582 C 435.659 -3.91191 1.64832 0
M  V30 4583 C 433.566 -4.40782 3.94291 0
M  V30 4584 H 432.496 -0.654417 0.374505 0
M  V30 4585 H 435.147 -1.13521 1.44171 0
M  V30 4586 H 433.529 -3.75549 1.25614 0
M  V30 4587 H 434.703 -2.54074 3.84425 0
M  V30 4588 H 433.018 -2.42625 3.38411 0
M  V30 4589 H 435.615 -4.90644 2.12539 0
M  V30 4590 H 435.958 -4.11884 0.604745 0
M  V30 4591 H 436.491 -3.36236 2.12579 0
M  V30 4592 H 433.23 -4.25292 4.98805 0
M  V30 4593 H 432.75 -4.9307 3.41529 0
M  V30 4594 H 434.429 -5.09621 3.98617 0
M  V30 4595 N 434.561 -1.01147 -1.20859 0
M  V30 4596 C 435.789 -0.716911 -1.94082 0
M  V30 4597 C 436.204 0.721568 -1.74467 0
M  V30 4598 O 435.561 1.48889 -1.05539 0
M  V30 4599 C 435.612 -1.03662 -3.46318 0
M  V30 4600 O 435.333 -2.4186 -3.65288 0
M  V30 4601 C 436.834 -0.762386 -4.36695 0
M  V30 4602 H 434.054 -0.26367 -0.617024 0
M  V30 4603 H 436.598 -1.35127 -1.53496 0
M  V30 4604 H 434.753 -0.447757 -3.84804 0
M  V30 4605 H 435.167 -2.53224 -4.59323 0
M  V30 4606 H 436.641 -1.03621 -5.42187 0
M  V30 4607 H 437.118 0.303514 -4.3815 0
M  V30 4608 H 437.724 -1.33316 -4.03865 0
M  V30 4609 N 436.039 1.36541 -0.78704 0
M  V30 4610 C 437.285 2.00044 -0.367938 0
M  V30 4611 C 437.64 1.61345 1.04812 0
M  V30 4612 O 436.933 0.856936 1.71368 0
M  V30 4613 C 437.127 3.54343 -0.466485 0
M  V30 4614 C 436.956 4.08029 -1.89058 0
M  V30 4615 C 435.726 4.38284 -2.51466 0
M  V30 4616 C 437.924 4.27954 -2.85236 0
M  V30 4617 N 435.906 4.77778 -3.85488 0
M  V30 4618 C 437.277 4.70227 -4.04088 0
M  V30 4619 C 439.332 4.10119 -2.82324 0
M  V30 4620 C 438.035 4.96532 -5.20432 0
M  V30 4621 C 440.061 4.37569 -3.97854 0
M  V30 4622 C 439.423 4.80095 -5.15449 0
M  V30 4623 H 435.522 0.760525 -0.182004 0
M  V30 4624 H 438.106 1.65589 -1.02413 0
M  V30 4625 H 436.277 3.88072 0.159606 0
M  V30 4626 H 438.009 4.04693 -0.0238577 0
M  V30 4627 H 434.764 4.27905 -2.02965 0
M  V30 4628 H 435.188 5.01813 -4.54437 0
M  V30 4629 H 439.83 3.76399 -1.92571 0
M  V30 4630 H 437.548 5.29134 -6.10773 0
M  V30 4631 H 441.134 4.25341 -3.96958 0
M  V30 4632 H 440.014 5.00925 -6.0336 0
M  V30 4633 N 437.518 0.538854 1.48102 0
M  V30 4634 C 438.743 0.0102694 2.07397 0
M  V30 4635 C 439.168 -1.26562 1.39153 0
M  V30 4636 O 438.526 -1.75357 0.460387 0
M  V30 4637 C 438.574 -0.187602 3.60112 0
M  V30 4638 O 437.678 -1.25432 3.92862 0
M  V30 4639 H 437.019 0.0430975 0.6626 0
M  V30 4640 H 439.549 0.749301 1.90385 0
M  V30 4641 H 439.559 -0.407517 4.0596 0
M  V30 4642 H 438.234 0.744386 4.09184 0
M  V30 4643 H 436.811 -1.01636 3.58782 0
M  V30 4644 N 438.996 -1.55193 0.274407 0
M  V30 4645 C 439.944 -2.23924 -0.629362 0
M  V30 4646 C 440.938 -1.23602 -1.1584 0
M  V30 4647 O 442.144 -1.41535 -1.11211 0
M  V30 4648 H 438.519 -0.718637 -0.221507 0
M  V30 4649 H 440.49 -2.98388 -0.0268322 0
M  V30 4650 C 439.239 -2.97329 -1.80252 0
M  V30 4651 H 438.562 -3.74313 -1.40462 0
M  V30 4652 H 440.002 -3.48743 -2.41152 0
M  V30 4653 C 438.461 -2.0276 -2.69054 0
M  V30 4654 O 438.991 -1.57836 -3.69392 0
M  V30 4655 N 437.197 -1.69275 -2.36208 0
M  V30 4656 H 436.744 -2.06004 -1.54661 0
M  V30 4657 H 436.702 -1.06271 -2.95895 0
M  V30 4658 N 440.474 -0.00167713 -1.576 0
M  V30 4659 C 441.885 0.54091 -1.78693 0
M  V30 4660 C 442.236 1.7386 -0.909247 0
M  V30 4661 O 441.361 2.16109 -0.112176 0
M  V30 4662 C 441.956 0.98806 -3.24072 0
M  V30 4663 C 440.515 1.47594 -3.46256 0
M  V30 4664 C 439.662 0.42792 -2.73978 0
M  V30 4665 H 442.613 -0.22784 -1.57056 0
M  V30 4666 H 442.634 1.85398 -3.32277 0
M  V30 4667 H 442.146 0.116164 -3.87926 0
M  V30 4668 H 440.247 2.36868 -2.87618 0
M  V30 4669 H 440.36 1.50225 -4.54939 0
M  V30 4670 H 438.724 0.889934 -2.38647 0
M  V30 4671 H 439.507 -0.435038 -3.40532 0
M  V30 4672 N 441.952 1.55251 0.271103 0
M  V30 4673 C 443.363 1.66635 0.842007 0
M  V30 4674 C 443.714 0.594631 1.86972 0
M  V30 4675 O 442.839 -0.263532 2.14789 0
M  V30 4676 C 443.434 3.02082 1.53401 0
M  V30 4677 C 441.993 3.15487 2.05293 0
M  V30 4678 C 441.14 2.62438 0.895631 0
M  V30 4679 H 444.091 1.58629 0.0474117 0
M  V30 4680 H 444.112 2.95176 2.40107 0
M  V30 4681 H 443.624 3.80062 0.785786 0
M  V30 4682 H 441.725 2.42284 2.83071 0
M  V30 4683 H 441.838 4.22075 2.26693 0
M  V30 4684 H 440.202 2.19644 1.28953 0
M  V30 4685 H 440.985 3.42923 0.160878 0
M  V30 4686 N 443.43 -0.535701 1.48216 0
M  V30 4687 C 444.393 -1.623 1.61838 0
M  V30 4688 C 445.393 -1.53087 0.492024 0
M  V30 4689 O 446.583 -1.5686 0.757668 0
M  V30 4690 C 443.715 -3.01907 1.58319 0
M  V30 4691 H 444.908 -1.51564 2.58783 0
M  V30 4692 H 442.461 -0.757317 1.36727 0
M  V30 4693 H 443.196 -3.18155 0.628299 0
M  V30 4694 H 442.981 -3.10003 2.40085 0
M  V30 4695 H 444.471 -3.80969 1.71033 0
M  V30 4696 N 444.908 -1.36708 -0.784132 0
M  V30 4697 C 445.84 -1.27333 -1.90575 0
M  V30 4698 C 446.853 -0.191706 -1.61667 0
M  V30 4699 O 448.042 -0.446854 -1.72816 0
M  V30 4700 C 445.142 -0.943177 -3.25511 0
M  V30 4701 C 444.315 -2.12776 -3.82158 0
M  V30 4702 C 443.374 -1.76983 -4.95544 0
M  V30 4703 O 442.4 -2.49134 -5.11782 0
M  V30 4704 N 443.602 -0.706624 -5.76183 0
M  V30 4705 H 446.367 -2.23974 -1.99138 0
M  V30 4706 H 443.928 -1.30171 -0.962656 0
M  V30 4707 H 445.92 -0.684799 -3.98864 0
M  V30 4708 H 444.49 -0.0657333 -3.12531 0
M  V30 4709 H 443.71 -2.54863 -3.0073 0
M  V30 4710 H 444.998 -2.91904 -4.16737 0
M  V30 4711 H 444.396 -0.107643 -5.65598 0
M  V30 4712 H 442.953 -0.50808 -6.49817 0
M  V30 4713 N 446.386 1.0089 -1.21074 0
M  V30 4714 C 447.634 1.74262 -1.02358 0
M  V30 4715 C 447.955 1.89869 0.444393 0
M  V30 4716 O 447.225 1.44677 1.32081 0
M  V30 4717 H 445.805 0.645615 -0.375754 0
M  V30 4718 H 448.467 1.21596 -1.52317 0
M  V30 4719 H 447.563 2.74328 -1.4883 0
M  V30 4720 N 447.864 1.01787 1.20321 0
M  V30 4721 C 448.827 0.593972 2.2137 0
M  V30 4722 C 449.827 -0.336553 1.57239 0
M  V30 4723 O 451.017 -0.125069 1.7375 0
M  V30 4724 C 448.149 -0.132433 3.40643 0
M  V30 4725 H 449.342 1.48791 2.60387 0
M  V30 4726 H 446.895 0.807803 1.33807 0
M  V30 4727 H 447.63 -1.04123 3.0713 0
M  V30 4728 H 447.415 0.53605 3.88418 0
M  V30 4729 H 448.905 -0.416314 4.1552 0
M  V30 4730 N 449.342 -1.36122 0.79427 0
M  V30 4731 C 450.758 -1.5232 0.476525 0
M  V30 4732 C 450.958 -1.74685 -1.00436 0
M  V30 4733 O 450.014 -1.78115 -1.78973 0
M  V30 4734 C 451.327 -2.70607 1.31119 0
M  V30 4735 C 452.875 -2.8448 1.30537 0
M  V30 4736 C 453.35 -4.05778 2.12387 0
M  V30 4737 N 454.841 -4.12933 2.09859 0
M  V30 4738 C 455.576 -5.05876 2.69957 0
M  V30 4739 N 455.072 -6.04232 3.38934 0
M  V30 4740 N 456.865 -4.98528 2.59665 0
M  V30 4741 H 449.016 -1.1986 1.75349 0
M  V30 4742 H 451.279 -0.585418 0.745647 0
M  V30 4743 H 450.985 -2.60619 2.36158 0
M  V30 4744 H 450.859 -3.64888 0.955843 0
M  V30 4745 H 453.246 -2.93927 0.262876 0
M  V30 4746 H 453.327 -1.91093 1.70051 0
M  V30 4747 H 452.971 -3.97092 3.1667 0
M  V30 4748 H 452.901 -4.98323 1.70242 0
M  V30 4749 H 455.392 -3.42515 1.59662 0
M  V30 4750 H 455.705 -6.71724 3.82109 0
M  V30 4751 H 454.05 -6.04443 3.43036 0
M  V30 4752 H 457.241 -4.20641 2.05375 0
M  V30 4753 H 457.414 -5.70773 3.06793 0
M  V30 4754 N 450.82 -0.546701 -1.47814 0
M  V30 4755 C 452.069 -0.0166497 -2.01693 0
M  V30 4756 C 452.382 1.33721 -1.42752 0
M  V30 4757 O 453.588 1.95658 -1.8823 0
M  V30 4758 C 452.044 0.0206769 -3.59894 0
M  V30 4759 C 451.652 -1.3293 -4.27824 0
M  V30 4760 C 453.396 0.498674 -4.21561 0
M  V30 4761 C 451.303 -1.25165 -5.78003 0
M  V30 4762 H 450.233 -0.0024541 -0.753996 0
M  V30 4763 H 452.884 -0.692984 -1.69912 0
M  V30 4764 H 451.266 0.76244 -3.88591 0
M  V30 4765 H 452.44 -2.08795 -4.10781 0
M  V30 4766 H 450.755 -1.74438 -3.78101 0
M  V30 4767 H 453.352 0.575 -5.31599 0
M  V30 4768 H 453.695 1.5083 -3.88016 0
M  V30 4769 H 454.228 -0.18791 -3.97356 0
M  V30 4770 H 450.967 -2.23695 -6.1615 0
M  V30 4771 H 450.487 -0.53464 -5.97412 0
M  V30 4772 H 452.166 -0.949299 -6.39998 0
M  V30 4773 N 452.299 1.55045 -0.282633 0
M  V30 4774 C 453.545 2.00056 0.332481 0
M  V30 4775 C 453.878 1.1708 1.54939 0
M  V30 4776 O 453.153 0.2427 1.9298 0
M  V30 4777 C 453.436 3.53086 0.70725 0
M  V30 4778 C 453.289 4.46813 -0.517521 0
M  V30 4779 C 454.608 4.12245 1.54084 0
M  V30 4780 H 451.727 0.727268 0.119373 0
M  V30 4781 H 454.369 1.85932 -0.391076 0
M  V30 4782 H 452.519 3.65253 1.32372 0
M  V30 4783 H 454.191 4.46579 -1.15607 0
M  V30 4784 H 452.434 4.18163 -1.1542 0
M  V30 4785 H 453.105 5.51595 -0.211426 0
M  V30 4786 H 455.581 4.03401 1.02013 0
M  V30 4787 H 454.457 5.19515 1.77186 0
M  V30 4788 H 454.718 3.62951 2.52427 0
M  V30 4789 N 453.777 0.010035 1.57597 0
M  V30 4790 C 454.74 -0.963029 2.07986 0
M  V30 4791 C 455.74 -1.26619 0.991173 0
M  V30 4792 O 456.93 -1.2097 1.25347 0
M  V30 4793 C 454.062 -2.2851 2.52974 0
M  V30 4794 H 455.255 -0.526971 2.95234 0
M  V30 4795 H 452.808 -0.237639 1.54483 0
M  V30 4796 H 453.543 -2.76784 1.69 0
M  V30 4797 H 453.328 -2.07824 3.32493 0
M  V30 4798 H 454.818 -2.98294 2.9225 0
M  V30 4799 N 455.255 -1.55392 -0.262866 0
M  V30 4800 C 456.48 -1.80847 -1.01533 0
M  V30 4801 C 456.905 -0.584946 -1.78774 0
M  V30 4802 O 456.263 0.465701 -1.75217 0
M  V30 4803 C 456.311 -3.03866 -1.94159 0
M  V30 4804 O 455.415 -2.79662 -3.03089 0
M  V30 4805 H 454.756 -0.597441 -0.289759 0
M  V30 4806 H 457.286 -2.02553 -0.288698 0
M  V30 4807 H 457.296 -3.32872 -2.35924 0
M  V30 4808 H 455.971 -3.92564 -1.37354 0
M  V30 4809 H 454.548 -2.61781 -2.65566 0
M  V30 4810 N 456.733 0.527833 -1.48498 0
M  V30 4811 C 457.961 1.30823 -1.6029 0
M  V30 4812 C 458.376 1.86945 -0.263974 0
M  V30 4813 O 457.733 1.6651 0.747034 0
M  V30 4814 C 457.784 2.45756 -2.65116 0
M  V30 4815 O 457.505 1.91946 -3.93813 0
M  V30 4816 C 459.006 3.37543 -2.87367 0
M  V30 4817 H 456.226 0.397763 -0.540394 0
M  V30 4818 H 458.77 0.636529 -1.94341 0
M  V30 4819 H 456.925 3.08806 -2.33917 0
M  V30 4820 H 457.339 2.67195 -4.51339 0
M  V30 4821 H 458.813 4.14532 -3.6451 0
M  V30 4822 H 459.29 3.92905 -1.9627 0
M  V30 4823 H 459.896 2.80283 -3.19878 0
M  V30 4824 N 458.211 1.37122 0.776871 0
M  V30 4825 C 459.141 1.35164 1.90402 0
M  V30 4826 C 460.122 0.221069 1.68657 0
M  V30 4827 O 461.307 0.420642 1.8959 0
M  V30 4828 C 458.437 1.15274 3.27611 0
M  V30 4829 C 457.391 2.25289 3.63908 0
M  V30 4830 C 456.717 1.90527 4.99603 0
M  V30 4831 C 458.017 3.67446 3.71188 0
M  V30 4832 H 459.711 2.29482 1.92297 0
M  V30 4833 H 457.257 1.10465 0.923773 0
M  V30 4834 H 459.21 1.12536 4.06096 0
M  V30 4835 H 457.934 0.174102 3.26136 0
M  V30 4836 H 456.593 2.27174 2.87728 0
M  V30 4837 H 456.241 0.91206 4.94662 0
M  V30 4838 H 455.941 2.64193 5.24858 0
M  V30 4839 H 457.465 1.89367 5.80493 0
M  V30 4840 H 458.879 3.67719 4.39836 0
M  V30 4841 H 457.276 4.40123 4.07936 0
M  V30 4842 H 458.346 4.01443 2.71977 0
M  V30 4843 N 459.689 -1.00246 1.21608 0
M  V30 4844 C 460.914 -1.78167 1.06167 0
M  V30 4845 C 461.339 -1.84138 -0.384035 0
M  V30 4846 O 460.697 -1.28683 -1.27712 0
M  V30 4847 C 460.745 -3.19786 1.66642 0
M  V30 4848 O 459.849 -4.02153 0.913613 0
M  V30 4849 H 459.19 -0.549 0.37349 0
M  V30 4850 H 461.72 -1.25994 1.61204 0
M  V30 4851 H 461.73 -3.70451 1.70969 0
M  V30 4852 H 460.405 -3.14754 2.7185 0
M  V30 4853 H 458.982 -3.60711 0.945635 0
M  V30 4854 N 461.167 -1.02423 -1.1978 0
M  V30 4855 C 462.115 -0.594474 -2.24875 0
M  V30 4856 C 463.109 0.370598 -1.65296 0
M  V30 4857 O 464.315 0.239684 -1.78397 0
M  V30 4858 H 460.69 -0.173961 -0.731602 0
M  V30 4859 H 462.661 -1.4916 -2.58445 0
M  V30 4860 C 461.41 0.0436512 -3.47673 0
M  V30 4861 H 460.733 -0.689963 -3.93801 0
M  V30 4862 H 462.173 0.307362 -4.22884 0
M  V30 4863 C 460.632 1.28881 -3.11274 0
M  V30 4864 O 461.162 2.38135 -3.23503 0
M  V30 4865 N 459.368 1.1758 -2.6575 0
M  V30 4866 H 458.915 0.286769 -2.55999 0
M  V30 4867 H 458.873 2.00988 -2.41767 0
M  V30 4868 N 462.645 1.35699 -0.801477 0
M  V30 4869 C 464.056 1.81415 -0.441073 0
M  V30 4870 C 464.407 1.66595 1.03636 0
M  V30 4871 O 463.532 1.19369 1.80499 0
M  V30 4872 C 464.127 3.29369 -0.793819 0
M  V30 4873 C 462.686 3.73248 -0.486083 0
M  V30 4874 C 461.833 2.57775 -1.02213 0
M  V30 4875 H 464.784 1.23749 -0.993572 0
M  V30 4876 H 464.805 3.80395 -0.0894158 0
M  V30 4877 H 464.317 3.40123 -1.86917 0
M  V30 4878 H 462.418 3.68046 0.580735 0
M  V30 4879 H 462.531 4.68222 -1.01513 0
M  V30 4880 H 460.895 2.50788 -0.444712 0
M  V30 4881 H 461.678 2.71309 -2.10348 0
M  V30 4882 N 464.123 0.554532 1.47522 0
M  V30 4883 C 465.033 -0.197865 2.33764 0
M  V30 4884 C 466.049 -0.914576 1.48025 0
M  V30 4885 O 467.225 -0.884067 1.80959 0
M  V30 4886 C 464.29 -1.21628 3.24665 0
M  V30 4887 C 463.351 -0.507283 4.26292 0
M  V30 4888 C 462.584 -1.47718 5.1285 0
M  V30 4889 O 462.807 -2.7118 5.01814 0
M  V30 4890 O 461.741 -1.00313 5.93482 0
M  V30 4891 H 465.567 0.50949 2.99396 0
M  V30 4892 H 463.152 0.315176 1.46038 0
M  V30 4893 H 465.034 -1.80421 3.80823 0
M  V30 4894 H 463.709 -1.9056 2.61665 0
M  V30 4895 H 462.616 0.121778 3.73902 0
M  V30 4896 H 463.949 0.140544 4.91999 0
M  V30 4897 N 465.601 -1.54893 0.290851 0
M  V30 4898 C 466.531 -2.26103 -0.583084 0
M  V30 4899 C 467.512 -1.25684 -1.14619 0
M  V30 4900 O 468.697 -1.54436 -1.17741 0
M  V30 4901 C 465.827 -2.99409 -1.75987 0
M  V30 4902 C 464.781 -4.0689 -1.32758 0
M  V30 4903 C 464.107 -4.67856 -2.58872 0
M  V30 4904 C 465.407 -5.20215 -0.46624 0
M  V30 4905 H 467.101 -2.99398 0.0108214 0
M  V30 4906 H 464.647 -1.43998 0.00664468 0
M  V30 4907 H 466.6 -3.47943 -2.37727 0
M  V30 4908 H 465.324 -2.23675 -2.37985 0
M  V30 4909 H 463.983 -3.59191 -0.733299 0
M  V30 4910 H 463.631 -3.88772 -3.19163 0
M  V30 4911 H 463.331 -5.40438 -2.30653 0
M  V30 4912 H 464.855 -5.19147 -3.21433 0
M  V30 4913 H 466.269 -5.64704 -0.989047 0
M  V30 4914 H 464.666 -5.99455 -0.27826 0
M  V30 4915 H 465.736 -4.82198 0.511173 0
M  V30 4916 N 467.08 -0.0183926 -1.57589 0
M  V30 4917 C 468.327 0.662562 -1.91354 0
M  V30 4918 C 468.655 1.72747 -0.893788 0
M  V30 4919 O 467.91 1.9545 0.0988509 0
M  V30 4920 C 468.209 1.32676 -3.31861 0
M  V30 4921 C 467.875 0.393267 -4.49182 0
M  V30 4922 C 466.537 0.136302 -4.81007 0
M  V30 4923 C 468.889 -0.248366 -5.20608 0
M  V30 4924 C 466.217 -0.770282 -5.81621 0
M  V30 4925 C 468.569 -1.14294 -6.22189 0
M  V30 4926 C 467.233 -1.4089 -6.52462 0
M  V30 4927 H 466.503 0.242448 -0.700214 0
M  V30 4928 H 469.15 -0.0778629 -1.91342 0
M  V30 4929 H 467.455 2.14168 -3.28084 0
M  V30 4930 H 469.152 1.86001 -3.55253 0
M  V30 4931 H 465.742 0.603723 -4.24327 0
M  V30 4932 H 469.926 -0.062883 -4.9626 0
M  V30 4933 H 465.182 -0.984154 -6.03427 0
M  V30 4934 H 469.356 -1.64637 -6.76659 0
M  V30 4935 H 466.983 -2.11306 -7.30242 0
M  V30 4936 N 468.558 1.5553 0.254621 0
M  V30 4937 C 469.468 1.92789 1.33677 0
M  V30 4938 C 470.484 0.827356 1.53071 0
M  V30 4939 O 471.66 1.12807 1.66843 0
M  V30 4940 C 468.725 2.20827 2.67275 0
M  V30 4941 C 467.786 3.4427 2.5647 0
M  V30 4942 C 467.019 3.70961 3.83697 0
M  V30 4943 O 467.242 2.99852 4.85227 0
M  V30 4944 O 466.176 4.64491 3.82794 0
M  V30 4945 H 470.002 2.84945 1.05071 0
M  V30 4946 H 467.587 1.42312 0.454723 0
M  V30 4947 H 469.469 2.40204 3.46237 0
M  V30 4948 H 468.144 1.31851 2.9563 0
M  V30 4949 H 467.051 3.30209 1.75821 0
M  V30 4950 H 468.384 4.33524 2.33062 0
M  V30 4951 N 470.036 -0.519951 1.48776 0
M  V30 4952 C 470.946 -1.65025 1.66745 0
M  V30 4953 C 471.962 -1.6508 0.549954 0
M  V30 4954 O 473.138 -1.83848 0.822295 0
M  V30 4955 C 470.203 -3.0146 1.71238 0
M  V30 4956 C 469.264 -3.12182 2.94688 0
M  V30 4957 C 468.497 -4.42109 2.98958 0
M  V30 4958 O 468.72 -5.29799 2.1135 0
M  V30 4959 O 467.654 -4.57406 3.91233 0
M  V30 4960 H 471.48 -1.52801 2.62461 0
M  V30 4961 H 469.065 -0.694157 1.32294 0
M  V30 4962 H 470.947 -3.82584 1.76657 0
M  V30 4963 H 469.622 -3.13988 0.786975 0
M  V30 4964 H 468.529 -2.30316 2.94797 0
M  V30 4965 H 469.862 -3.04574 3.86646 0
M  V30 4966 N 471.514 -1.37532 -0.769588 0
M  V30 4967 C 472.76 -1.34063 -1.52966 0
M  V30 4968 C 473.115 0.0737942 -1.92258 0
M  V30 4969 O 472.408 1.03291 -1.61374 0
M  V30 4970 C 472.602 -2.21558 -2.8044 0
M  V30 4971 C 472.431 -3.71367 -2.53608 0
M  V30 4972 C 471.201 -4.40464 -2.47628 0
M  V30 4973 C 473.399 -4.64177 -2.21459 0
M  V30 4974 N 471.381 -5.758 -2.12902 0
M  V30 4975 C 472.752 -5.87907 -1.9689 0
M  V30 4976 C 474.807 -4.52541 -2.07633 0
M  V30 4977 C 473.51 -7.01304 -1.59892 0
M  V30 4978 C 475.536 -5.65825 -1.72034 0
M  V30 4979 C 474.898 -6.88606 -1.48327 0
M  V30 4980 H 470.997 -0.545856 -0.559969 0
M  V30 4981 H 473.581 -1.72773 -0.897634 0
M  V30 4982 H 471.752 -1.85061 -3.41478 0
M  V30 4983 H 473.484 -2.09332 -3.46356 0
M  V30 4984 H 470.239 -3.93491 -2.63556 0
M  V30 4985 H 470.663 -6.47328 -1.9823 0
M  V30 4986 H 475.305 -3.58183 -2.24643 0
M  V30 4987 H 473.023 -7.95594 -1.4162 0
M  V30 4988 H 476.609 -5.58793 -1.61991 0
M  V30 4989 H 475.489 -7.74779 -1.21189 0
M  V30 4990 N 472.992 0.995999 -1.22138 0
M  V30 4991 C 474.22 1.77066 -1.07029 0
M  V30 4992 C 474.635 1.8495 0.379357 0
M  V30 4993 O 473.992 1.3174 1.26297 0
M  V30 4994 C 474.043 3.20533 -1.67155 0
M  V30 4995 O 473.764 3.13082 -3.06449 0
M  V30 4996 C 475.265 4.14461 -1.5728 0
M  V30 4997 H 472.485 0.556179 -0.375374 0
M  V30 4998 H 475.029 1.25238 -1.61666 0
M  V30 4999 H 473.184 3.6944 -1.16589 0
M  V30 5000 H 473.598 4.03283 -3.35355 0
M  V30 5001 H 475.072 5.1289 -2.04078 0
M  V30 5002 H 475.549 4.36005 -0.528795 0
M  V30 5003 H 476.155 3.71449 -2.07136 0
M  V30 5004 N 474.47 1.03057 1.19235 0
M  V30 5005 C 475.718 0.726581 1.88587 0
M  V30 5006 C 476.039 -0.747227 1.80115 0
M  V30 5007 O 475.309 -1.53849 1.21274 0
M  V30 5008 H 473.889 0.265768 0.698124 0
M  V30 5009 H 476.551 1.30516 1.44746 0
M  V30 5010 H 475.647 1.0224 2.94879 0
M  V30 5011 N 475.948 -1.35272 0.808662 0
M  V30 5012 C 476.896 -2.31663 0.208606 0
M  V30 5013 C 477.89 -1.56731 -0.642778 0
M  V30 5014 O 479.096 -1.71843 -0.53571 0
M  V30 5015 H 475.471 -0.750421 0.0486993 0
M  V30 5016 H 477.442 -2.79814 1.03666 0
M  V30 5017 C 476.191 -3.42008 -0.626573 0
M  V30 5018 H 475.514 -3.99795 0.0192103 0
M  V30 5019 H 476.954 -4.11727 -1.01278 0
M  V30 5020 C 475.413 -2.85226 -1.79298 0
M  V30 5021 O 475.943 -2.78945 -2.89055 0
M  V30 5022 N 474.149 -2.42245 -1.60516 0
M  V30 5023 H 473.696 -2.47554 -0.712375 0
M  V30 5024 H 473.654 -2.04603 -2.38715 0
M  V30 5025 N 477.426 -0.562348 -1.47226 0
M  V30 5026 C 478.672 -0.0402761 -2.0276 0
M  V30 5027 C 479.005 1.30823 -1.43523 0
M  V30 5028 O 478.28 1.85249 -0.592705 0
M  V30 5029 C 478.563 0.047311 -3.60069 0
M  V30 5030 C 478.416 -1.32865 -4.29729 0
M  V30 5031 C 479.735 0.758182 -4.3352 0
M  V30 5032 H 476.854 -0.0161105 -0.736824 0
M  V30 5033 H 479.496 -0.725628 -1.75598 0
M  V30 5034 H 477.646 0.630986 -3.83342 0
M  V30 5035 H 479.318 -1.95593 -4.17781 0
M  V30 5036 H 477.561 -1.90195 -3.89882 0
M  V30 5037 H 478.232 -1.22004 -5.38349 0
M  V30 5038 H 480.708 0.262546 -4.15271 0
M  V30 5039 H 479.584 0.78844 -5.43208 0
M  V30 5040 H 479.845 1.81537 -4.03109 0
M  V30 5041 N 478.904 1.54736 -0.299062 0
M  V30 5042 C 479.851 2.23448 0.577899 0
M  V30 5043 C 480.821 1.21637 1.13109 0
M  V30 5044 O 482.006 1.50252 1.17597 0
M  V30 5045 C 479.146 2.9774 1.74484 0
M  V30 5046 C 478.259 4.1432 1.22323 0
M  V30 5047 C 477.394 4.76199 2.35388 0
M  V30 5048 C 476.433 5.84927 1.80351 0
M  V30 5049 N 475.57 6.4077 2.86982 0
M  V30 5050 H 480.41 2.97996 -0.0146545 0
M  V30 5051 H 477.947 1.47088 -0.0190013 0
M  V30 5052 H 479.905 3.39045 2.43114 0
M  V30 5053 H 478.535 2.25572 2.30905 0
M  V30 5054 H 477.587 3.7797 0.429249 0
M  V30 5055 H 478.899 4.92659 0.780309 0
M  V30 5056 H 478.053 5.20346 3.11969 0
M  V30 5057 H 476.792 3.97188 2.83006 0
M  V30 5058 H 475.797 5.40207 1.02259 0
M  V30 5059 H 477.022 6.65821 1.3364 0
M  V30 5060 H 474.968 5.64643 3.33938 0
M  V30 5061 H 474.885 7.1445 2.4718 0
M  V30 5062 H 476.153 6.89574 3.63466 0
M  V30 5063 N 480.382 0.0267497 1.57577 0
M  V30 5064 C 481.61 -0.662661 1.96001 0
M  V30 5065 C 482.025 -1.65799 0.903117 0
M  V30 5066 O 481.382 -1.82135 -0.115317 0
M  V30 5067 C 481.433 -1.37112 3.34488 0
M  V30 5068 O 481.154 -0.415683 4.36123 0
M  V30 5069 C 482.655 -2.15257 3.8753 0
M  V30 5070 H 479.875 -0.18287 0.6456 0
M  V30 5071 H 482.419 0.0858116 2.0432 0
M  V30 5072 H 480.574 -2.07101 3.27395 0
M  V30 5073 H 480.988 -0.918496 5.16395 0
M  V30 5074 H 482.462 -2.60285 4.86781 0
M  V30 5075 H 482.939 -2.99063 3.21649 0
M  V30 5076 H 483.545 -1.50231 3.97883 0
M  V30 5077 N 481.861 -1.55662 -0.24637 0
M  V30 5078 C 482.794 -1.85332 -1.33143 0
M  V30 5079 C 483.772 -0.708464 -1.46354 0
M  V30 5080 O 484.956 -0.954274 -1.6256 0
M  V30 5081 C 482.083 -2.0385 -2.70487 0
M  V30 5082 C 481.129 -3.26488 -2.74423 0
M  V30 5083 S 481.962 -4.83124 -2.30979 0
M  V30 5084 C 483.118 -5.04647 -3.70246 0
M  V30 5085 H 483.351 -2.77077 -1.07777 0
M  V30 5086 H 480.884 -1.47776 -0.44738 0
M  V30 5087 H 482.842 -2.15202 -3.49569 0
M  V30 5088 H 481.503 -1.12947 -2.9309 0
M  V30 5089 H 480.696 -3.36413 -3.7529 0
M  V30 5090 H 480.298 -3.13864 -2.03385 0
M  V30 5091 H 482.59 -4.92023 -4.65746 0
M  V30 5092 H 483.533 -6.06625 -3.65255 0
M  V30 5093 H 483.941 -4.32491 -3.62784 0
M  V30 5094 N 483.339 0.512053 -1.4905 0
M  V30 5095 C 484.302 1.59704 -1.64399 0
M  V30 5096 C 485.302 1.52285 -0.516317 0
M  V30 5097 O 486.492 1.55635 -0.782527 0
M  V30 5098 C 483.624 2.9935 -1.63102 0
M  V30 5099 H 484.817 1.47428 -2.61161 0
M  V30 5100 H 482.37 0.735469 -1.37915 0
M  V30 5101 H 483.105 3.17116 -0.678836 0
M  V30 5102 H 482.89 3.06144 -2.44986 0
M  V30 5103 H 484.38 3.782 -1.77072 0
M  V30 5104 N 484.817 1.37938 0.762283 0
M  V30 5105 C 486.094 1.24196 1.51112 0
M  V30 5106 C 486.474 -0.160409 2.1049 0
M  V30 5107 O 485.822 -1.16904 1.96331 0
M  V30 5108 C 486.032 2.34537 2.58445 0
M  V30 5109 C 487.38 2.7254 3.25588 0
M  V30 5110 O 488.404 2.33783 2.68745 0
M  V30 5111 O 487.263 3.39343 4.28379 0
M  V30 5112 H 484.357 0.485175 0.669727 0
M  V30 5113 H 486.903 1.49743 0.798438 0
M  V30 5114 H 485.675 3.28406 2.12756 0
M  V30 5115 H 485.298 2.10505 3.37303 0
M  V30 5116 N 486.295 -0.989507 1.22664 0
M  V30 5117 C 487.711 -1.25395 0.987331 0
M  V30 5118 C 487.911 -1.9899 -0.317056 0
M  V30 5119 O 486.967 -2.30141 -1.03882 0
M  V30 5120 C 488.28 -2.06242 2.18826 0
M  V30 5121 C 489.828 -2.19413 2.23219 0
M  V30 5122 C 490.303 -3.03648 3.42873 0
M  V30 5123 N 491.794 -3.11234 3.43056 0
M  V30 5124 C 492.529 -3.7671 4.32293 0
M  V30 5125 N 492.025 -4.44085 5.31752 0
M  V30 5126 N 493.818 -3.73505 4.2006 0
M  V30 5127 H 485.969 -0.496212 2.06522 0
M  V30 5128 H 488.232 -0.281784 0.905153 0
M  V30 5129 H 487.938 -1.59531 3.13437 0
M  V30 5130 H 487.812 -3.06996 2.19165 0
M  V30 5131 H 490.199 -2.65336 1.29154 0
M  V30 5132 H 490.28 -1.18078 2.26917 0
M  V30 5133 H 489.924 -2.58424 4.37241 0
M  V30 5134 H 489.854 -4.05132 3.36416 0
M  V30 5135 H 492.345 -2.63287 2.71088 0
M  V30 5136 H 492.658 -4.91797 5.96117 0
M  V30 5137 H 491.003 -4.42822 5.35662 0
M  V30 5138 H 494.194 -3.20033 3.41609 0
M  V30 5139 H 494.367 -4.24253 4.8981 0
M  V30 5140 N 487.773 -1.03688 -1.18687 0
M  V30 5141 C 489.022 -0.733235 -1.879 0
M  V30 5142 C 489.335 0.741745 -1.8099 0
M  V30 5143 O 490.541 1.15875 -2.4553 0
M  V30 5144 C 488.997 -1.26127 -3.37076 0
M  V30 5145 C 488.605 -2.76461 -3.52524 0
M  V30 5146 C 490.349 -1.03398 -4.11715 0
M  V30 5147 C 488.256 -3.22642 -4.95637 0
M  V30 5148 H 487.186 -0.270584 -0.703776 0
M  V30 5149 H 489.837 -1.25222 -1.34133 0
M  V30 5150 H 488.219 -0.670165 -3.90288 0
M  V30 5151 H 489.393 -3.41296 -3.09602 0
M  V30 5152 H 487.708 -2.97559 -2.91286 0
M  V30 5153 H 490.305 -1.3542 -5.17267 0
M  V30 5154 H 490.648 0.0289246 -4.1629 0
M  V30 5155 H 491.181 -1.5895 -3.64664 0
M  V30 5156 H 487.92 -4.28296 -4.96228 0
M  V30 5157 H 487.44 -2.62539 -5.39289 0
M  V30 5158 H 489.119 -3.16444 -5.64333 0
M  V30 5159 N 489.251 1.34841 -0.815825 0
M  V30 5160 C 490.181 2.32187 -0.247298 0
M  V30 5161 C 491.162 1.5791 0.632344 0
M  V30 5162 O 492.347 1.8593 0.560698 0
M  V30 5163 C 489.477 3.42122 0.597466 0
M  V30 5164 C 488.431 4.27602 -0.184446 0
M  V30 5165 C 487.757 5.28942 0.782609 0
M  V30 5166 C 489.057 5.03502 -1.38865 0
M  V30 5167 H 490.751 2.79985 -1.06061 0
M  V30 5168 H 488.297 1.34611 -0.511461 0
M  V30 5169 H 490.25 4.09232 1.00533 0
M  V30 5170 H 488.974 2.92956 1.44376 0
M  V30 5171 H 487.633 3.62085 -0.573592 0
M  V30 5172 H 487.281 4.7604 1.62466 0
M  V30 5173 H 486.981 5.87008 0.263695 0
M  V30 5174 H 488.505 5.98922 1.18848 0
M  V30 5175 H 489.919 5.63506 -1.05518 0
M  V30 5176 H 488.316 5.71108 -1.8427 0
M  V30 5177 H 489.386 4.33608 -2.17054 0
M  V30 5178 N 490.729 0.570148 1.46925 0
M  V30 5179 C 491.957 0.0561966 2.06824 0
M  V30 5180 C 492.372 -1.24326 1.42086 0
M  V30 5181 O 491.729 -1.74882 0.521794 0
M  V30 5182 C 491.78 -0.129517 3.61268 0
M  V30 5183 O 491.501 1.1185 4.23581 0
M  V30 5184 C 493.002 -0.679266 4.38065 0
M  V30 5185 H 490.222 0.0517261 0.669003 0
M  V30 5186 H 492.766 0.787243 1.8874 0
M  V30 5187 H 490.921 -0.810739 3.78822 0
M  V30 5188 H 491.335 0.924375 5.1629 0
M  V30 5189 H 492.809 -0.758445 5.46765 0
M  V30 5190 H 493.286 -1.69346 4.05239 0
M  V30 5191 H 493.892 -0.0333237 4.25287 0
M  V30 5192 N 492.207 -1.54576 0.307264 0
M  V30 5193 C 493.14 -2.19946 -0.608195 0
M  V30 5194 C 494.118 -1.17096 -1.12815 0
M  V30 5195 O 495.302 -1.45766 -1.19518 0
M  V30 5196 C 492.429 -2.84826 -1.8328 0
M  V30 5197 C 491.475 -4.01256 -1.44554 0
M  V30 5198 S 492.308 -5.33197 -0.49612 0
M  V30 5199 C 493.464 -6.01563 -1.72838 0
M  V30 5200 H 493.697 -2.97253 -0.0528544 0
M  V30 5201 H 491.23 -1.54129 0.0913837 0
M  V30 5202 H 493.188 -3.22832 -2.53554 0
M  V30 5203 H 491.849 -2.07353 -2.35931 0
M  V30 5204 H 491.042 -4.45457 -2.35762 0
M  V30 5205 H 490.644 -3.6484 -0.822671 0
M  V30 5206 H 492.936 -6.22751 -2.6681 0
M  V30 5207 H 493.879 -6.9552 -1.32882 0
M  V30 5208 H 494.287 -5.31279 -1.90795 0
M  V30 5209 N 493.685 -0.035106 -1.57561 0
M  V30 5210 C 495.101 0.321334 -1.56332 0
M  V30 5211 C 495.301 1.72509 -1.04129 0
M  V30 5212 O 494.357 2.4287 -0.690694 0
M  V30 5213 C 495.67 0.164469 -3.0025 0
M  V30 5214 C 497.218 0.236786 -3.12103 0
M  V30 5215 C 497.693 0.10864 -4.57871 0
M  V30 5216 N 499.184 0.165433 -4.62904 0
M  V30 5217 C 499.919 0.0901506 -5.73329 0
M  V30 5218 N 499.415 -0.0365606 -6.9279 0
M  V30 5219 N 501.208 0.144572 -5.61914 0
M  V30 5220 H 493.359 -0.952976 -1.89821 0
M  V30 5221 H 495.622 -0.368537 -0.873432 0
M  V30 5222 H 495.328 -0.802746 -3.42416 0
M  V30 5223 H 495.202 0.932194 -3.655 0
M  V30 5224 H 497.589 1.19446 -2.69845 0
M  V30 5225 H 497.67 -0.561419 -2.49563 0
M  V30 5226 H 497.314 -0.845644 -5.00811 0
M  V30 5227 H 497.244 0.925786 -5.18398 0
M  V30 5228 H 499.735 0.263269 -3.76982 0
M  V30 5229 H 500.048 -0.0871487 -7.72751 0
M  V30 5230 H 498.393 -0.0714256 -6.94963 0
M  V30 5231 H 501.584 0.242006 -4.67474 0
M  V30 5232 H 501.757 0.0824413 -6.47948 0
M  V30 5233 N 495.163 1.55791 0.238111 0
M  V30 5234 C 496.388 1.8244 0.986432 0
M  V30 5235 C 496.813 0.613314 1.7782 0
M  V30 5236 O 496.171 -0.437767 1.75935 0
M  V30 5237 C 496.219 3.06917 1.893 0
M  V30 5238 O 495.323 2.84449 2.98601 0
M  V30 5239 H 494.664 0.601975 0.280218 0
M  V30 5240 H 497.194 2.02987 0.256437 0
M  V30 5241 H 497.204 3.36583 2.30598 0
M  V30 5242 H 495.879 3.947 1.31091 0
M  V30 5243 H 494.456 2.65972 2.61368 0
M  V30 5244 N 496.642 -0.504142 1.49319 0
M  V30 5245 C 497.552 -1.63248 1.68486 0
M  V30 5246 C 498.568 -1.64488 0.567432 0
M  V30 5247 O 499.744 -1.82966 0.841749 0
M  V30 5248 C 496.809 -2.99627 1.74426 0
M  V30 5249 C 495.87 -3.09039 2.97982 0
M  V30 5250 C 495.103 -4.38913 3.0363 0
M  V30 5251 O 495.326 -5.27528 2.16958 0
M  V30 5252 O 494.26 -4.53231 3.96062 0
M  V30 5253 H 498.086 -1.50008 2.64067 0
M  V30 5254 H 495.671 -0.680086 1.33023 0
M  V30 5255 H 497.553 -3.80689 1.80705 0
M  V30 5256 H 496.228 -3.13136 0.820233 0
M  V30 5257 H 495.135 -2.27177 2.97223 0
M  V30 5258 H 496.468 -3.00456 3.89855 0
M  V30 5259 N 498.12 -1.38341 -0.754957 0
M  V30 5260 C 499.05 -1.38176 -1.88227 0
M  V30 5261 C 500.031 -0.247873 -1.68284 0
M  V30 5262 O 501.216 -0.45075 -1.88896 0
M  V30 5263 C 498.346 -1.20471 -3.25736 0
M  V30 5264 C 497.3 -2.3105 -3.60278 0
M  V30 5265 C 496.626 -1.98452 -4.96509 0
M  V30 5266 C 497.926 -3.73305 -3.65295 0
M  V30 5267 H 499.62 -2.32512 -1.88622 0
M  V30 5268 H 497.166 -1.1192 -0.906082 0
M  V30 5269 H 499.119 -1.18982 -4.04254 0
M  V30 5270 H 497.843 -0.225965 -3.25817 0
M  V30 5271 H 496.502 -2.31723 -2.84078 0
M  V30 5272 H 496.15 -0.990641 -4.93148 0
M  V30 5273 H 495.85 -2.7251 -5.20588 0
M  V30 5274 H 497.374 -1.98578 -5.77407 0
M  V30 5275 H 498.788 -3.7467 -4.3393 0
M  V30 5276 H 497.185 -4.46557 -4.00883 0
M  V30 5277 H 498.255 -4.05719 -2.65556 0
M  V30 5278 N 499.598 0.982988 -1.23187 0
M  V30 5279 C 501.014 1.2487 -0.993967 0
M  V30 5280 C 501.214 1.99155 0.306498 0
M  V30 5281 O 500.27 2.30688 1.0266 0
M  V30 5282 C 501.583 2.05078 -2.19917 0
M  V30 5283 C 503.131 2.18227 -2.2438 0
M  V30 5284 C 503.606 3.01825 -3.44479 0
M  V30 5285 N 505.097 3.09411 -3.44702 0
M  V30 5286 C 505.832 3.74412 -4.34285 0
M  V30 5287 N 505.328 4.41259 -5.341 0
M  V30 5288 N 507.121 3.71273 -4.22035 0
M  V30 5289 H 499.272 0.485253 -2.06783 0
M  V30 5290 H 501.535 0.276979 -0.906635 0
M  V30 5291 H 501.241 1.57867 -3.14279 0
M  V30 5292 H 501.115 3.05829 -2.2079 0
M  V30 5293 H 503.502 2.64648 -1.30559 0
M  V30 5294 H 503.583 1.16873 -2.2754 0
M  V30 5295 H 503.227 2.56102 -4.38605 0
M  V30 5296 H 503.157 4.03342 -3.38559 0
M  V30 5297 H 505.648 2.61845 -2.7248 0
M  V30 5298 H 505.961 4.88629 -5.98717 0
M  V30 5299 H 504.306 4.39975 -5.38002 0
M  V30 5300 H 507.497 3.18217 -3.43301 0
M  V30 5301 H 507.67 4.21649 -4.92053 0
M  V30 5302 N 501.076 1.04316 1.18135 0
M  V30 5303 C 502.039 0.640794 2.2006 0
M  V30 5304 C 503.039 -0.303124 1.57917 0
M  V30 5305 O 504.229 -0.0881855 1.73977 0
M  V30 5306 C 501.361 -0.060148 3.40847 0
M  V30 5307 H 502.554 1.54281 2.57172 0
M  V30 5308 H 500.107 0.836004 1.32063 0
M  V30 5309 H 500.842 -0.975845 3.0927 0
M  V30 5310 H 500.627 0.618319 3.87194 0
M  V30 5311 H 502.117 -0.328082 4.16309 0
M  V30 5312 N 502.554 -1.34406 0.822964 0
M  V30 5313 C 503.97 -1.51275 0.508727 0
M  V30 5314 C 504.17 -1.76776 -0.967083 0
M  V30 5315 O 503.226 -1.81871 -1.75155 0
M  V30 5316 C 504.539 -2.67765 1.36829 0
M  V30 5317 C 506.087 -2.81647 1.36542 0
M  V30 5318 C 506.562 -4.01181 2.20947 0
M  V30 5319 N 508.053 -4.08388 2.18571 0
M  V30 5320 C 508.788 -5.00036 2.80627 0
M  V30 5321 N 508.284 -5.96906 3.51674 0
M  V30 5322 N 510.077 -4.92908 2.70181 0
M  V30 5323 H 502.228 -1.16113 1.77852 0
M  V30 5324 H 504.491 -0.56947 0.757897 0
M  V30 5325 H 504.197 -2.55551 2.41633 0
M  V30 5326 H 504.071 -3.62779 1.03303 0
M  V30 5327 H 506.458 -2.93303 0.325163 0
M  V30 5328 H 506.539 -1.87443 1.74066 0
M  V30 5329 H 506.183 -3.90286 3.25022 0
M  V30 5330 H 506.113 -4.94599 1.80774 0
M  V30 5331 H 508.604 -3.39051 1.66891 0
M  V30 5332 H 508.917 -6.63468 3.96271 0
M  V30 5333 H 507.262 -5.9703 3.5578 0
M  V30 5334 H 510.453 -4.1619 2.14251 0
M  V30 5335 H 510.626 -5.64137 3.18831 0
M  V30 5336 N 504.032 -0.577932 -1.46621 0
M  V30 5337 C 504.962 0.145917 -2.33044 0
M  V30 5338 C 505.943 0.888412 -1.45056 0
M  V30 5339 O 507.128 0.864812 -1.73881 0
M  V30 5340 C 504.258 1.16322 -3.27241 0
M  V30 5341 C 503.212 0.535868 -4.24632 0
M  V30 5342 C 502.538 1.65929 -5.08303 0
M  V30 5343 C 503.838 -0.523861 -5.19666 0
M  V30 5344 H 505.532 -0.575636 -2.93814 0
M  V30 5345 H 503.078 -0.278272 -1.41286 0
M  V30 5346 H 505.031 1.67793 -3.86553 0
M  V30 5347 H 503.755 1.91498 -2.64567 0
M  V30 5348 H 502.414 0.0422759 -3.66576 0
M  V30 5349 H 502.062 2.40061 -4.42018 0
M  V30 5350 H 501.762 1.2452 -5.74255 0
M  V30 5351 H 503.286 2.17686 -5.70478 0
M  V30 5352 H 504.7 -0.0944059 -5.73222 0
M  V30 5353 H 503.097 -0.858 -5.93935 0
M  V30 5354 H 504.167 -1.41197 -4.63887 0
M  V30 5355 N 505.51 1.54411 -0.315457 0
M  V30 5356 C 506.42 2.27737 0.56329 0
M  V30 5357 C 507.436 1.31787 1.13614 0
M  V30 5358 O 508.612 1.64791 1.15784 0
M  V30 5359 C 505.677 3.01478 1.71207 0
M  V30 5360 C 504.738 4.12997 1.17185 0
M  V30 5361 C 503.971 4.83212 2.26588 0
M  V30 5362 O 504.194 4.52884 3.46775 0
M  V30 5363 O 503.128 5.70299 1.92463 0
M  V30 5364 H 506.954 3.03683 -0.0319614 0
M  V30 5365 H 504.539 1.49178 -0.0814188 0
M  V30 5366 H 506.421 3.47683 2.38106 0
M  V30 5367 H 505.096 2.28414 2.29366 0
M  V30 5368 H 504.003 3.71159 0.468174 0
M  V30 5369 H 505.336 4.8808 0.635501 0
M  V30 5370 N 506.988 0.0434614 1.5754 0
M  V30 5371 C 507.951 -0.918696 2.09982 0
M  V30 5372 C 508.951 -1.24488 1.01781 0
M  V30 5373 O 510.141 -1.18284 1.27885 0
M  V30 5374 C 507.273 -2.23093 2.57764 0
M  V30 5375 H 508.466 -0.464229 2.96285 0
M  V30 5376 H 506.019 -0.204818 1.54952 0
M  V30 5377 H 506.754 -2.73137 1.74832 0
M  V30 5378 H 506.539 -2.00724 3.36827 0
M  V30 5379 H 508.029 -2.92028 2.98512 0
M  V30 5380 N 508.466 -1.55915 -0.229846 0
M  V30 5381 C 509.396 -1.94754 -1.28815 0
M  V30 5382 C 510.377 -0.814657 -1.49323 0
M  V30 5383 O 511.562 -1.07631 -1.61645 0
M  V30 5384 C 508.692 -2.25705 -2.63959 0
M  V30 5385 C 507.646 -3.41406 -2.5812 0
M  V30 5386 C 506.972 -3.57941 -3.97218 0
M  V30 5387 C 508.272 -4.76616 -2.13623 0
M  V30 5388 H 509.966 -2.83404 -0.965547 0
M  V30 5389 H 507.512 -1.36353 -0.463028 0
M  V30 5390 H 509.465 -2.51467 -3.38146 0
M  V30 5391 H 508.189 -1.339 -2.9789 0
M  V30 5392 H 506.848 -3.1568 -1.86391 0
M  V30 5393 H 506.496 -2.63526 -4.28443 0
M  V30 5394 H 506.196 -4.35757 -3.94195 0
M  V30 5395 H 507.72 -3.86042 -4.73079 0
M  V30 5396 H 509.134 -5.01637 -2.77549 0
M  V30 5397 H 507.531 -5.57655 -2.21677 0
M  V30 5398 H 508.601 -4.7253 -1.08829 0
M  V30 5399 N 509.944 0.496216 -1.49584 0
M  V30 5400 C 510.891 1.59722 -1.66606 0
M  V30 5401 C 511.861 1.58158 -0.507477 0
M  V30 5402 O 513.046 1.76072 -0.735076 0
M  V30 5403 C 510.186 2.97844 -1.74308 0
M  V30 5404 C 509.299 3.09388 -3.01502 0
M  V30 5405 C 508.434 4.38271 -3.00153 0
M  V30 5406 C 507.473 4.43466 -4.21906 0
M  V30 5407 N 506.61 5.63784 -4.1844 0
M  V30 5408 H 511.45 1.44515 -2.60613 0
M  V30 5409 H 508.987 0.703048 -1.29212 0
M  V30 5410 H 510.945 3.77907 -1.76754 0
M  V30 5411 H 509.575 3.11743 -0.837619 0
M  V30 5412 H 508.627 2.22357 -3.08645 0
M  V30 5413 H 509.939 3.09085 -3.91494 0
M  V30 5414 H 509.093 5.2666 -3.01188 0
M  V30 5415 H 507.832 4.41146 -2.07947 0
M  V30 5416 H 506.837 3.53478 -4.21109 0
M  V30 5417 H 508.062 4.42303 -5.1531 0
M  V30 5418 H 506.008 5.67491 -3.29074 0
M  V30 5419 H 505.925 5.65118 -5.02173 0
M  V30 5420 H 507.193 6.54367 -4.23585 0
M  V30 5421 N 511.423 1.38739 0.74761 0
M  V30 5422 C 512.651 1.38521 1.53686 0
M  V30 5423 C 513.066 -0.0235129 1.88785 0
M  V30 5424 O 512.423 -0.991662 1.53207 0
M  V30 5425 C 512.474 2.24641 2.83229 0
M  V30 5426 O 512.195 3.60026 2.49625 0
M  V30 5427 C 513.696 2.32669 3.77333 0
M  V30 5428 H 510.916 0.473589 0.475347 0
M  V30 5429 H 513.46 1.82395 0.924786 0
M  V30 5430 H 511.615 1.84213 3.40799 0
M  V30 5431 H 512.029 4.05435 3.3275 0
M  V30 5432 H 513.503 2.97201 4.65162 0
M  V30 5433 H 513.98 1.3421 4.18192 0
M  V30 5434 H 514.586 2.73512 3.25685 0
M  V30 5435 N 512.901 -0.976442 1.23707 0
M  V30 5436 C 514.312 -1.53284 1.06587 0
M  V30 5437 C 514.663 -1.92765 -0.365526 0
M  V30 5438 O 513.788 -1.7645 -1.25277 0
M  V30 5439 C 514.383 -2.78548 1.92864 0
M  V30 5440 C 512.942 -3.30574 1.79994 0
M  V30 5441 C 512.089 -2.03538 1.88328 0
M  V30 5442 H 515.04 -0.795692 1.37311 0
M  V30 5443 H 515.061 -3.5155 1.45577 0
M  V30 5444 H 514.573 -2.49782 2.97037 0
M  V30 5445 H 512.674 -3.64211 0.786202 0
M  V30 5446 H 512.787 -4.00065 2.636 0
M  V30 5447 H 511.151 -2.17853 1.31954 0
M  V30 5448 H 511.934 -1.77149 2.94063 0
M  V30 5449 N 514.379 -1.04941 -1.1758 0
M  V30 5450 C 515.627 -0.756492 -1.87408 0
M  V30 5451 C 515.948 0.718478 -1.81281 0
M  V30 5452 O 515.218 1.519 -1.23706 0
M  V30 5453 H 513.798 -0.276841 -0.693807 0
M  V30 5454 H 516.46 -1.32803 -1.42652 0
M  V30 5455 H 515.556 -1.06918 -2.93215 0
M  V30 5456 N 515.857 1.33968 -0.830081 0
M  V30 5457 C 517.085 2.0228 -0.434773 0
M  V30 5458 C 517.5 1.62487 0.961419 0
M  V30 5459 O 516.857 0.833849 1.62337 0
M  V30 5460 C 516.908 3.5751 -0.535625 0
M  V30 5461 O 516.629 3.95864 -1.87679 0
M  V30 5462 C 518.13 4.43091 -0.136137 0
M  V30 5463 H 515.35 0.648151 -0.173613 0
M  V30 5464 H 517.894 1.71089 -1.12022 0
M  V30 5465 H 516.049 3.87266 0.101817 0
M  V30 5466 H 516.463 4.9056 -1.85609 0
M  V30 5467 H 517.937 5.51398 -0.257772 0
M  V30 5468 H 518.414 4.29433 0.921076 0
M  V30 5469 H 519.02 4.18677 -0.747662 0
M  V30 5470 N 517.335 0.585699 1.46312 0
M  V30 5471 C 518.581 0.0808731 2.03239 0
M  V30 5472 C 518.936 -1.26609 1.44872 0
M  V30 5473 O 518.229 -1.81779 0.60556 0
M  V30 5474 C 518.423 -0.0401312 3.57377 0
M  V30 5475 C 518.252 1.29356 4.30694 0
M  V30 5476 C 517.022 1.86849 4.69484 0
M  V30 5477 C 519.22 2.21742 4.64042 0
M  V30 5478 N 517.202 3.13926 5.27564 0
M  V30 5479 C 518.573 3.33408 5.22723 0
M  V30 5480 C 520.628 2.21386 4.45974 0
M  V30 5481 C 519.331 4.44852 5.65242 0
M  V30 5482 C 521.357 3.31862 4.89511 0
M  V30 5483 C 520.719 4.42248 5.48266 0
M  V30 5484 H 516.818 0.072443 0.778637 0
M  V30 5485 H 519.402 0.779254 1.78426 0
M  V30 5486 H 517.573 -0.707686 3.81898 0
M  V30 5487 H 519.305 -0.549615 4.00951 0
M  V30 5488 H 516.06 1.40307 4.52339 0
M  V30 5489 H 516.484 3.78775 5.61122 0
M  V30 5490 H 521.126 1.37314 3.99881 0
M  V30 5491 H 518.844 5.29665 6.10312 0
M  V30 5492 H 522.43 3.32708 4.7728 0
M  V30 5493 H 521.31 5.26323 5.81338 0
M  V30 5494 N 518.813 -1.54241 0.323641 0
M  V30 5495 C 519.761 -2.25813 -0.557804 0
M  V30 5496 C 520.755 -1.27225 -1.11849 0
M  V30 5497 O 521.961 -1.45001 -1.06652 0
M  V30 5498 H 518.336 -0.72532 -0.198532 0
M  V30 5499 H 520.307 -2.98322 0.0681112 0
M  V30 5500 C 519.056 -3.02913 -1.70701 0
M  V30 5501 H 518.379 -3.78593 -1.28482 0
M  V30 5502 H 519.819 -3.56238 -2.29935 0
M  V30 5503 C 518.278 -2.11217 -2.62467 0
M  V30 5504 O 518.808 -1.69508 -3.64184 0
M  V30 5505 N 517.014 -1.76704 -2.30703 0
M  V30 5506 H 516.561 -2.1082 -1.48029 0
M  V30 5507 H 516.519 -1.15631 -2.92364 0
M  V30 5508 N 520.291 -0.0518155 -1.57515 0
M  V30 5509 C 521.241 0.932017 -2.0808 0
M  V30 5510 C 522.225 1.27141 -0.986098 0
M  V30 5511 O 523.417 1.25373 -1.24943 0
M  V30 5512 C 520.546 2.20665 -2.62986 0
M  V30 5513 C 519.632 1.89462 -3.79427 0
M  V30 5514 N 520.023 1.28621 -4.89173 0
M  V30 5515 C 518.321 2.19327 -3.88345 0
M  V30 5516 C 519.022 1.15062 -5.70207 0
M  V30 5517 N 517.998 1.65372 -5.17835 0
M  V30 5518 H 521.8 0.456964 -2.90326 0
M  V30 5519 H 519.314 0.152619 -1.61681 0
M  V30 5520 H 521.311 2.92044 -2.97516 0
M  V30 5521 H 519.971 2.68776 -1.8218 0
M  V30 5522 H 520.982 0.958341 -5.08956 0
M  V30 5523 H 517.659 2.69955 -3.18482 0
M  V30 5524 H 519.049 0.678243 -6.68468 0
M  V30 5525 N 521.769 1.56035 0.221574 0
M  V30 5526 C 523.018 1.78245 0.944016 0
M  V30 5527 C 523.331 0.620371 1.85501 0
M  V30 5528 O 524.537 0.726103 2.6161 0
M  V30 5529 C 522.993 3.15659 1.7288 0
M  V30 5530 C 522.601 4.39591 0.863942 0
M  V30 5531 C 524.345 3.47195 2.44246 0
M  V30 5532 C 522.252 5.6803 1.64607 0
M  V30 5533 H 521.182 0.664547 0.356222 0
M  V30 5534 H 523.833 1.8243 0.197904 0
M  V30 5535 H 522.215 3.0565 2.51781 0
M  V30 5536 H 523.389 4.60655 0.115464 0
M  V30 5537 H 521.704 4.15572 0.262407 0
M  V30 5538 H 524.301 4.40381 3.03263 0
M  V30 5539 H 524.644 2.69693 3.1713 0
M  V30 5540 H 525.177 3.58533 1.72334 0
M  V30 5541 H 521.916 6.48425 0.960507 0
M  V30 5542 H 521.436 5.51027 2.36917 0
M  V30 5543 H 523.115 6.08203 2.20675 0
M  V30 5544 N 523.247 -0.488276 1.49845 0
M  V30 5545 C 524.475 -1.26527 1.63702 0
M  V30 5546 C 524.89 -1.8618 0.313447 0
M  V30 5547 O 524.247 -1.68432 -0.702624 0
M  V30 5548 C 524.298 -2.3864 2.71538 0
M  V30 5549 O 524.019 -1.81437 3.98763 0
M  V30 5550 C 525.52 -3.29805 2.96215 0
M  V30 5551 H 522.74 -0.383295 0.55075 0
M  V30 5552 H 525.284 -0.584779 1.95961 0
M  V30 5553 H 523.439 -3.02496 2.42023 0
M  V30 5554 H 523.853 -2.55135 4.58265 0
M  V30 5555 H 525.327 -4.04722 3.75372 0
M  V30 5556 H 525.804 -3.87563 2.06619 0
M  V30 5557 H 526.41 -2.71703 3.27196 0
M  V30 5558 N 524.725 -1.39134 -0.740242 0
M  V30 5559 C 526.002 -1.26584 -1.49117 0
M  V30 5560 C 526.382 0.126902 -2.10718 0
M  V30 5561 O 525.73 1.13765 -1.98166 0
M  V30 5562 C 525.94 -2.38619 -2.54681 0
M  V30 5563 C 527.288 -2.77685 -3.21211 0
M  V30 5564 O 528.312 -2.38029 -2.64991 0
M  V30 5565 O 527.171 -3.46115 -4.22926 0
M  V30 5566 H 524.265 -0.495769 -0.661923 0
M  V30 5567 H 526.811 -1.50995 -0.774514 0
M  V30 5568 H 525.583 -3.3175 -2.07504 0
M  V30 5569 H 525.206 -2.15845 -3.33911 0
M  V30 5570 N 526.204 0.969867 -1.24223 0
M  V30 5571 C 527.136 2.0669 -0.99055 0
M  V30 5572 C 528.149 1.62753 0.0392222 0
M  V30 5573 O 529.338 1.77403 -0.197561 0
M  V30 5574 C 526.438 3.35589 -0.472594 0
M  V30 5575 C 525.611 4.08444 -1.56499 0
M  V30 5576 C 524.67 5.15616 -1.05007 0
M  V30 5577 O 523.696 5.41911 -1.7413 0
M  V30 5578 N 524.898 5.80383 0.116641 0
M  V30 5579 H 527.663 2.28855 -1.93508 0
M  V30 5580 H 525.224 1.13733 -1.15223 0
M  V30 5581 H 527.216 4.04542 -0.112919 0
M  V30 5582 H 525.786 3.10311 0.377617 0
M  V30 5583 H 525.006 3.33798 -2.09696 0
M  V30 5584 H 526.294 4.53882 -2.29932 0
M  V30 5585 H 525.692 5.6142 0.694589 0
M  V30 5586 H 524.249 6.50462 0.417483 0
M  V30 5587 N 527.682 1.05563 1.17022 0
M  V30 5588 C 528.931 0.763036 1.8671 0
M  V30 5589 C 529.244 -0.712857 1.82147 0
M  V30 5590 O 530.45 -1.11955 2.47343 0
M  V30 5591 C 528.906 1.31474 3.35026 0
M  V30 5592 C 528.514 2.82034 3.48081 0
M  V30 5593 C 530.258 1.09935 4.10018 0
M  V30 5594 C 528.165 3.30486 4.90442 0
M  V30 5595 H 527.095 0.281747 0.699382 0
M  V30 5596 H 529.746 1.2734 1.32124 0
M  V30 5597 H 528.128 0.732171 3.89173 0
M  V30 5598 H 529.302 3.46178 3.04133 0
M  V30 5599 H 527.617 3.02156 2.86515 0
M  V30 5600 H 530.214 1.43632 5.15048 0
M  V30 5601 H 530.557 0.0373072 4.16283 0
M  V30 5602 H 531.09 1.64732 3.62089 0
M  V30 5603 H 527.829 4.36137 4.89352 0
M  V30 5604 H 527.349 2.71086 5.35044 0
M  V30 5605 H 529.028 3.25382 5.59227 0
M  V30 5606 N 529.16 -1.33526 0.837174 0
M  V30 5607 C 530.408 -1.97446 0.431211 0
M  V30 5608 C 530.729 -1.6665 -1.01255 0
M  V30 5609 O 529.999 -0.964559 -1.70508 0
M  V30 5610 H 528.579 -0.73043 0.156463 0
M  V30 5611 H 531.241 -1.62918 1.06976 0
M  V30 5612 H 530.337 -3.07001 0.561877 0
M  V30 5613 N 530.638 -0.59345 -1.46 0
M  V30 5614 C 531.571 0.182196 -2.27472 0
M  V30 5615 C 532.549 0.886901 -1.36282 0
M  V30 5616 O 533.733 0.898627 -1.65701 0
M  V30 5617 C 530.86 1.26236 -3.14296 0
M  V30 5618 C 529.906 0.662331 -4.21326 0
M  V30 5619 S 530.739 -0.519017 -5.32979 0
M  V30 5620 C 531.895 0.562086 -6.23371 0
M  V30 5621 H 532.128 -0.509056 -2.92909 0
M  V30 5622 H 529.661 -0.380607 -1.49635 0
M  V30 5623 H 531.619 1.88075 -3.64881 0
M  V30 5624 H 530.28 1.92562 -2.48151 0
M  V30 5625 H 529.473 1.47461 -4.81945 0
M  V30 5626 H 529.075 0.119381 -3.73809 0
M  V30 5627 H 531.367 1.44494 -6.61912 0
M  V30 5628 H 532.31 -0.00760776 -7.081 0
M  V30 5629 H 532.718 0.871061 -5.57739 0
M  V30 5630 N 532.116 1.54067 -0.331816 0
M  V30 5631 C 533.363 2.00715 0.268269 0
M  V30 5632 C 533.691 1.21986 1.51491 0
M  V30 5633 O 532.946 0.292309 1.93505 0
M  V30 5634 C 533.245 3.51634 0.639392 0
M  V30 5635 C 532.911 4.48018 -0.509019 0
M  V30 5636 C 531.573 4.74089 -0.824209 0
M  V30 5637 C 533.925 5.05237 -1.28003 0
M  V30 5638 C 531.253 5.54637 -1.91298 0
M  V30 5639 C 533.605 5.86972 -2.35895 0
M  V30 5640 C 532.269 6.11342 -2.67987 0
M  V30 5641 H 531.539 0.734469 0.0981667 0
M  V30 5642 H 534.186 1.8596 -0.457304 0
M  V30 5643 H 532.491 3.6416 1.44551 0
M  V30 5644 H 534.188 3.85175 1.11539 0
M  V30 5645 H 530.778 4.27851 -0.253287 0
M  V30 5646 H 534.962 4.8507 -1.04978 0
M  V30 5647 H 530.218 5.71747 -2.16599 0
M  V30 5648 H 534.392 6.30327 -2.96076 0
M  V30 5649 H 532.019 6.73544 -3.5248 0
M  V30 5650 N 533.594 0.0601682 1.57485 0
M  V30 5651 C 534.819 -0.624416 1.97777 0
M  V30 5652 C 535.244 -1.63051 0.937867 0
M  V30 5653 O 534.602 -1.81036 -0.0978845 0
M  V30 5654 C 534.65 -1.27979 3.37126 0
M  V30 5655 O 533.754 -2.39556 3.35688 0
M  V30 5656 H 533.095 -0.161581 0.64404 0
M  V30 5657 H 535.625 0.131237 2.04179 0
M  V30 5658 H 535.635 -1.62937 3.74053 0
M  V30 5659 H 534.31 -0.542501 4.12347 0
M  V30 5660 H 532.887 -2.06478 3.10517 0
M  V30 5661 N 535.072 -1.5615 -0.213296 0
M  V30 5662 C 536.319 -1.79546 -0.936462 0
M  V30 5663 C 536.647 -0.630337 -1.84003 0
M  V30 5664 O 535.902 0.384883 -1.91878 0
M  V30 5665 C 536.201 -3.08772 -1.79985 0
M  V30 5666 C 535.867 -4.38532 -1.04882 0
M  V30 5667 C 534.529 -4.73787 -0.841393 0
M  V30 5668 C 536.881 -5.18609 -0.51907 0
M  V30 5669 C 534.209 -5.86627 -0.0924403 0
M  V30 5670 C 536.561 -6.32229 0.216581 0
M  V30 5671 C 535.225 -6.6608 0.435191 0
M  V30 5672 H 534.495 -0.657004 -0.342676 0
M  V30 5673 H 537.142 -1.9041 -0.204051 0
M  V30 5674 H 535.447 -2.93065 -2.60038 0
M  V30 5675 H 537.144 -3.24077 -2.36168 0
M  V30 5676 H 533.734 -4.10855 -1.22048 0
M  V30 5677 H 537.918 -4.91801 -0.666775 0
M  V30 5678 H 533.174 -6.11338 0.087081 0
M  V30 5679 H 537.348 -6.93503 0.634538 0
M  V30 5680 H 534.975 -7.5336 1.01746 0
M  V30 5681 N 536.55 0.480323 -1.50102 0
M  V30 5682 C 537.778 1.25657 -1.64371 0
M  V30 5683 C 538.193 1.86011 -0.323316 0
M  V30 5684 O 537.55 1.68803 0.693682 0
M  V30 5685 C 537.601 2.37197 -2.728 0
M  V30 5686 O 537.322 1.7932 -3.9972 0
M  V30 5687 C 538.823 3.2823 -2.9796 0
M  V30 5688 H 536.043 0.380369 -0.552775 0
M  V30 5689 H 538.587 0.574379 -1.96268 0
M  V30 5690 H 536.742 3.01208 -2.43623 0
M  V30 5691 H 537.156 2.52701 -4.59611 0
M  V30 5692 H 538.63 4.02725 -3.77513 0
M  V30 5693 H 539.107 3.86462 -2.08671 0
M  V30 5694 H 539.713 2.69964 -3.28633 0
M  V30 5695 N 538.028 1.39524 0.732853 0
M  V30 5696 C 539.276 1.36594 1.48951 0
M  V30 5697 C 539.597 -0.0367507 1.94965 0
M  V30 5698 O 538.867 -0.988391 1.69138 0
M  V30 5699 H 537.447 0.502673 0.552566 0
M  V30 5700 H 540.109 1.74411 0.869869 0
M  V30 5701 H 539.205 2.03 2.3706 0
M  V30 5702 N 539.506 -0.963266 1.24736 0
M  V30 5703 C 540.436 -2.07628 1.06832 0
M  V30 5704 C 541.417 -1.70088 -0.0200566 0
M  V30 5705 O 542.602 -1.93636 0.147854 0
M  V30 5706 C 539.732 -3.40636 0.677069 0
M  V30 5707 C 538.686 -3.9215 1.71471 0
M  V30 5708 C 538.012 -5.21553 1.1784 0
M  V30 5709 C 539.312 -4.19493 3.11164 0
M  V30 5710 H 541.006 -2.22864 1.9993 0
M  V30 5711 H 538.552 -1.07093 0.96266 0
M  V30 5712 H 540.505 -4.17941 0.538792 0
M  V30 5713 H 539.229 -3.25313 -0.289612 0
M  V30 5714 H 537.888 -3.17005 1.84128 0
M  V30 5715 H 537.536 -5.02593 0.202195 0
M  V30 5716 H 537.236 -5.56988 1.87185 0
M  V30 5717 H 538.76 -6.01463 1.05233 0
M  V30 5718 H 540.174 -4.87487 3.01711 0
M  V30 5719 H 538.571 -4.66165 3.77902 0
M  V30 5720 H 539.641 -3.26097 3.58871 0
M  V30 5721 N 540.985 -1.06182 -1.16461 0
M  V30 5722 C 541.933 -0.665716 -2.2287 0
M  V30 5723 C 542.927 0.317822 -1.66392 0
M  V30 5724 O 544.133 0.182807 -1.79069 0
M  V30 5725 H 540.508 -0.197148 -0.725697 0
M  V30 5726 H 542.479 -1.57307 -2.53569 0
M  V30 5727 C 541.228 -0.0669803 -3.47635 0
M  V30 5728 H 540.551 -0.814899 -3.91407 0
M  V30 5729 H 541.991 0.172669 -4.23648 0
M  V30 5730 C 540.45 1.18913 -3.15216 0
M  V30 5731 O 540.98 2.27723 -3.30916 0
M  V30 5732 N 539.186 1.09066 -2.69357 0
M  V30 5733 H 538.733 0.20518 -2.56782 0
M  V30 5734 H 538.691 1.93195 -2.48039 0
M  V30 5735 N 542.463 1.3308 -0.844243 0
M  V30 5736 C 543.874 1.7992 -0.498566 0
M  V30 5737 C 544.225 1.69808 0.982834 0
M  V30 5738 O 543.35 1.25051 1.7661 0
M  V30 5739 C 543.945 3.26677 -0.898204 0
M  V30 5740 C 542.504 3.71513 -0.604583 0
M  V30 5741 C 541.651 2.54393 -1.10362 0
M  V30 5742 H 544.602 1.20526 -1.03244 0
M  V30 5743 H 544.623 3.79918 -0.21039 0
M  V30 5744 H 544.135 3.34004 -1.97643 0
M  V30 5745 H 542.236 3.69708 0.46335 0
M  V30 5746 H 542.349 4.64755 -1.16358 0
M  V30 5747 H 540.713 2.49246 -0.524273 0
M  V30 5748 H 541.496 2.6448 -2.18873 0
M  V30 5749 N 543.941 0.601185 1.45683 0
M  V30 5750 C 544.888 -0.121396 2.30481 0
M  V30 5751 C 545.858 -0.866232 1.41724 0
M  V30 5752 O 547.043 -0.85324 1.70659 0
M  V30 5753 C 544.183 -1.11704 3.26521 0
M  V30 5754 C 543.296 -0.373741 4.3038 0
M  V30 5755 C 542.431 -1.35854 5.13534 0
M  V30 5756 C 541.47 -0.602689 6.09126 0
M  V30 5757 N 540.607 -1.53645 6.85082 0
M  V30 5758 H 545.447 0.607732 2.91737 0
M  V30 5759 H 542.984 0.311502 1.43764 0
M  V30 5760 H 544.942 -1.70735 3.80664 0
M  V30 5761 H 543.572 -1.81366 2.67032 0
M  V30 5762 H 542.624 0.331962 3.78949 0
M  V30 5763 H 543.936 0.2163 4.98331 0
M  V30 5764 H 543.09 -2.02111 5.72046 0
M  V30 5765 H 541.829 -1.98251 4.45587 0
M  V30 5766 H 540.834 0.0735482 5.49751 0
M  V30 5767 H 542.059 0.0161467 6.79098 0
M  V30 5768 H 540.005 -2.14819 6.1983 0
M  V30 5769 H 539.922 -0.999688 7.49361 0
M  V30 5770 H 541.19 -2.1888 7.48139 0
M  V30 5771 N 545.419 -1.53889 0.339982 0
M  V30 5772 C 546.351 -2.22435 -0.55275 0
M  V30 5773 C 547.364 -1.22975 -1.06681 0
M  V30 5774 O 548.553 -1.49351 -0.977575 0
M  V30 5775 C 545.653 -2.8882 -1.77302 0
M  V30 5776 C 544.826 -4.14563 -1.39486 0
M  V30 5777 C 543.885 -4.64391 -2.47442 0
M  V30 5778 O 542.911 -5.28687 -2.10899 0
M  V30 5779 N 544.113 -4.40015 -3.78639 0
M  V30 5780 H 546.878 -2.9968 0.0342669 0
M  V30 5781 H 544.439 -1.61068 0.16394 0
M  V30 5782 H 546.431 -3.19072 -2.48948 0
M  V30 5783 H 545.001 -2.15182 -2.26749 0
M  V30 5784 H 544.221 -3.90896 -0.509321 0
M  V30 5785 H 545.509 -4.96362 -1.11813 0
M  V30 5786 H 544.907 -3.88586 -4.11118 0
M  V30 5787 H 543.464 -4.74881 -4.46465 0
M  V30 5788 N 546.897 -0.0685191 -1.57451 0
M  V30 5789 C 548.143 0.602239 -1.93652 0
M  V30 5790 C 548.476 1.6946 -0.948526 0
M  V30 5791 O 547.751 1.94487 0.022782 0
M  V30 5792 C 548.034 1.18223 -3.4014 0
M  V30 5793 C 547.887 0.0967431 -4.49696 0
M  V30 5794 C 549.206 2.08872 -3.87377 0
M  V30 5795 H 546.325 0.217453 -0.70419 0
M  V30 5796 H 548.967 -0.133821 -1.89528 0
M  V30 5797 H 547.117 1.80953 -3.43785 0
M  V30 5798 H 548.789 -0.536155 -4.58174 0
M  V30 5799 H 547.032 -0.573063 -4.29998 0
M  V30 5800 H 547.703 0.542894 -5.49324 0
M  V30 5801 H 550.179 1.56081 -3.85717 0
M  V30 5802 H 549.055 2.46389 -4.90493 0
M  V30 5803 H 549.316 2.99572 -3.25129 0
M  V30 5804 N 548.375 1.56261 0.205012 0
M  V30 5805 C 549.285 1.96944 1.27476 0
M  V30 5806 C 550.301 0.875636 1.50362 0
M  V30 5807 O 551.477 1.18058 1.6317 0
M  V30 5808 C 548.542 2.29219 2.60115 0
M  V30 5809 C 547.603 3.52255 2.45387 0
M  V30 5810 C 546.836 3.8298 3.71701 0
M  V30 5811 O 547.059 3.15138 4.75441 0
M  V30 5812 O 545.993 4.76435 3.67823 0
M  V30 5813 H 549.819 2.88144 0.959527 0
M  V30 5814 H 547.404 1.43686 0.409217 0
M  V30 5815 H 549.286 2.51098 3.3842 0
M  V30 5816 H 547.961 1.4119 2.91285 0
M  V30 5817 H 546.868 3.35635 1.65227 0
M  V30 5818 H 548.201 4.40719 2.19152 0
M  V30 5819 N 549.853 -0.472356 1.50355 0
M  V30 5820 C 551.083 -1.24603 1.64796 0
M  V30 5821 C 551.491 -1.86297 0.330156 0
M  V30 5822 O 550.834 -1.69934 -0.697728 0
M  V30 5823 C 550.896 -2.39578 2.68035 0
M  V30 5824 C 550.56 -1.98531 4.11624 0
M  V30 5825 C 551.557 -1.50856 4.97532 0
M  V30 5826 C 549.242 -2.0729 4.57532 0
M  V30 5827 C 551.236 -1.12481 6.27397 0
M  V30 5828 C 548.923 -1.68527 5.87403 0
M  V30 5829 C 549.921 -1.212 6.7216 0
M  V30 5830 O 549.609 -0.829728 7.99607 0
M  V30 5831 H 549.341 -0.383035 0.55701 0
M  V30 5832 H 551.895 -0.570392 1.97321 0
M  V30 5833 H 550.125 -3.10309 2.30749 0
M  V30 5834 H 551.814 -3.01544 2.71709 0
M  V30 5835 H 552.58 -1.43511 4.63281 0
M  V30 5836 H 548.459 -2.43076 3.91708 0
M  V30 5837 H 552.003 -0.754698 6.93506 0
M  V30 5838 H 547.9 -1.7553 6.21176 0
M  V30 5839 H 548.668 -0.958689 8.12866 0
M  V30 5840 N 551.331 -1.39911 -0.725443 0
M  V30 5841 C 552.261 -1.42138 -1.85254 0
M  V30 5842 C 553.242 -0.283513 -1.67721 0
M  V30 5843 O 554.427 -0.490717 -1.87898 0
M  V30 5844 C 551.557 -1.27354 -3.23107 0
M  V30 5845 C 550.511 -2.3864 -3.55296 0
M  V30 5846 C 549.837 -2.08939 -4.92188 0
M  V30 5847 C 551.137 -3.8097 -3.57295 0
M  V30 5848 H 552.831 -2.36461 -1.83648 0
M  V30 5849 H 550.377 -1.13817 -0.882138 0
M  V30 5850 H 552.33 -1.2753 -4.01639 0
M  V30 5851 H 551.054 -0.295025 -3.25265 0
M  V30 5852 H 549.713 -2.37696 -2.79099 0
M  V30 5853 H 549.361 -1.09502 -4.90936 0
M  V30 5854 H 549.061 -2.83491 -5.14691 0
M  V30 5855 H 550.585 -2.10781 -5.73065 0
M  V30 5856 H 551.999 -3.8379 -4.25885 0
M  V30 5857 H 550.396 -4.5496 -3.9132 0
M  V30 5858 H 551.466 -4.11261 -2.5689 0
M  V30 5859 N 552.809 0.956637 -1.25245 0
M  V30 5860 C 554.055 1.70352 -1.10036 0
M  V30 5861 C 554.388 1.90869 0.358156 0
M  V30 5862 O 553.663 1.47819 1.26411 0
M  V30 5863 C 553.946 3.08766 -1.85298 0
M  V30 5864 C 553.799 2.95672 -3.38966 0
M  V30 5865 C 555.118 4.08622 -1.63451 0
M  V30 5866 H 552.237 0.618279 -0.401123 0
M  V30 5867 H 554.879 1.11212 -1.54051 0
M  V30 5868 H 553.029 3.59252 -1.47887 0
M  V30 5869 H 554.701 2.52527 -3.86041 0
M  V30 5870 H 552.944 2.31634 -3.6678 0
M  V30 5871 H 553.615 3.93776 -3.86839 0
M  V30 5872 H 556.091 3.67038 -1.96015 0
M  V30 5873 H 554.967 5.03514 -2.18551 0
M  V30 5874 H 555.228 4.3834 -0.575357 0
M  V30 5875 N 554.287 1.06798 1.15896 0
M  V30 5876 C 555.235 0.677525 2.22514 0
M  V30 5877 C 556.229 -0.308994 1.66558 0
M  V30 5878 O 557.435 -0.173308 1.79164 0
M  V30 5879 H 553.81 0.200994 0.724642 0
M  V30 5880 H 555.781 1.5865 2.52731 0
M  V30 5881 C 554.53 0.0854153 3.47595 0
M  V30 5882 H 553.853 0.835645 3.90969 0
M  V30 5883 H 555.293 -0.150199 4.23734 0
M  V30 5884 C 553.752 -1.1724 3.15843 0
M  V30 5885 O 554.282 -2.25965 3.32119 0
M  V30 5886 N 552.488 -1.07636 2.69931 0
M  V30 5887 H 552.035 -0.191559 2.56887 0
M  V30 5888 H 551.993 -1.91876 2.4906 0
M  V30 5889 N 555.766 -1.3263 0.851289 0
M  V30 5890 C 556.676 -2.32722 0.296268 0
M  V30 5891 C 557.692 -1.63901 -0.584162 0
M  V30 5892 O 558.868 -1.95465 -0.485334 0
M  V30 5893 C 555.933 -3.42942 -0.509103 0
M  V30 5894 C 554.994 -4.2746 0.397069 0
M  V30 5895 C 554.227 -5.32416 -0.36996 0
M  V30 5896 O 554.45 -5.47491 -1.6003 0
M  V30 5897 O 553.384 -6.01327 0.262493 0
M  V30 5898 H 557.21 -2.82078 1.12543 0
M  V30 5899 H 554.795 -1.36194 0.614135 0
M  V30 5900 H 556.677 -4.1017 -0.96634 0
M  V30 5901 H 555.352 -2.95781 -1.31512 0
M  V30 5902 H 554.259 -3.63053 0.902411 0
M  V30 5903 H 555.592 -4.78136 1.16818 0
M  V30 5904 N 557.244 -0.608902 -1.45362 0
M  V30 5905 C 558.191 0.109172 -2.30542 0
M  V30 5906 C 559.161 0.858704 -1.42181 0
M  V30 5907 O 560.346 0.844178 -1.71109 0
M  V30 5908 C 557.486 1.09971 -3.27109 0
M  V30 5909 C 556.599 0.350911 -4.30572 0
M  V30 5910 C 555.734 1.33129 -5.14247 0
M  V30 5911 C 554.773 0.570377 -6.09437 0
M  V30 5912 N 553.91 1.5001 -6.85887 0
M  V30 5913 H 558.75 -0.623195 -2.91411 0
M  V30 5914 H 556.287 -0.319122 -1.43597 0
M  V30 5915 H 558.245 1.68714 -3.81564 0
M  V30 5916 H 556.875 1.79947 -2.67991 0
M  V30 5917 H 555.927 -0.352054 -3.78767 0
M  V30 5918 H 557.239 -0.242725 -4.98209 0
M  V30 5919 H 556.393 1.99074 -5.73109 0
M  V30 5920 H 555.132 1.95885 -4.46632 0
M  V30 5921 H 554.137 -0.102702 -5.49704 0
M  V30 5922 H 555.362 -0.0521607 -6.7908 0
M  V30 5923 H 553.308 2.11529 -6.2096 0
M  V30 5924 H 553.225 0.959934 -7.49881 0
M  V30 5925 H 554.493 2.14909 -7.49289 0
M  V30 5926 N 558.722 1.53707 -0.348139 0
M  V30 5927 C 559.672 2.2193 0.522592 0
M  V30 5928 C 560.656 1.20831 1.06248 0
M  V30 5929 O 561.848 1.46357 0.995415 0
M  V30 5930 C 558.977 2.99904 1.6707 0
M  V30 5931 C 558.063 4.08364 1.14454 0
M  V30 5932 N 558.454 5.04656 0.339958 0
M  V30 5933 C 556.752 4.22757 1.421 0
M  V30 5934 C 557.453 5.81675 0.0538806 0
M  V30 5935 N 556.429 5.39739 0.646776 0
M  V30 5936 H 560.231 2.93733 -0.099135 0
M  V30 5937 H 557.745 1.61656 -0.15524 0
M  V30 5938 H 559.742 3.47284 2.30651 0
M  V30 5939 H 558.402 2.29629 2.29566 0
M  V30 5940 H 559.413 5.17896 -0.0193552 0
M  V30 5941 H 556.09 3.63704 2.05002 0
M  V30 5942 H 557.48 6.69256 -0.595443 0
M  V30 5943 N 560.2 0.0768682 1.57412 0
M  V30 5944 C 561.449 -0.590679 1.92857 0
M  V30 5945 C 561.762 -1.70461 0.959293 0
M  V30 5946 O 562.968 -2.43207 1.20675 0
M  V30 5947 C 561.424 -1.10204 3.42612 0
M  V30 5948 C 561.032 -0.0188447 4.47996 0
M  V30 5949 C 562.776 -1.74336 3.87049 0
M  V30 5950 C 560.683 -0.544536 5.88888 0
M  V30 5951 H 559.613 -0.224411 0.71983 0
M  V30 5952 H 562.264 0.149924 1.82887 0
M  V30 5953 H 560.646 -1.89577 3.47673 0
M  V30 5954 H 561.82 0.755936 4.54557 0
M  V30 5955 H 560.135 0.526555 4.13057 0
M  V30 5956 H 562.732 -2.14708 4.89699 0
M  V30 5957 H 563.075 -2.60537 3.24694 0
M  V30 5958 H 563.608 -1.01577 3.84613 0
M  V30 5959 H 560.347 0.280426 6.549 0
M  V30 5960 H 559.867 -1.28673 5.85836 0
M  V30 5961 H 561.546 -1.01933 6.3892 0
M  V30 5962 N 561.678 -1.56367 -0.196722 0
M  V30 5963 C 562.908 -1.84371 -0.932254 0
M  V30 5964 C 563.316 -0.657013 -1.77426 0
M  V30 5965 O 562.659 0.383576 -1.79651 0
M  V30 5966 C 562.721 -3.06454 -1.87952 0
M  V30 5967 C 562.385 -4.40425 -1.21962 0
M  V30 5968 C 563.382 -5.16457 -0.597343 0
M  V30 5969 C 561.067 -4.8716 -1.22396 0
M  V30 5970 C 563.061 -6.37399 0.0117913 0
M  V30 5971 C 560.748 -6.08038 -0.610995 0
M  V30 5972 C 561.746 -6.83 0.00580487 0
M  V30 5973 O 561.434 -8.01589 0.609173 0
M  V30 5974 H 561.166 -0.616377 -0.277589 0
M  V30 5975 H 563.72 -2.04329 -0.209452 0
M  V30 5976 H 561.95 -2.82377 -2.64197 0
M  V30 5977 H 563.639 -3.21118 -2.48271 0
M  V30 5978 H 564.405 -4.81445 -0.586142 0
M  V30 5979 H 560.284 -4.2877 -1.69345 0
M  V30 5980 H 563.828 -6.9585 0.493836 0
M  V30 5981 H 559.725 -6.42519 -0.619693 0
M  V30 5982 H 560.493 -8.16935 0.505919 0
M  V30 5983 N 563.156 0.464375 -1.50603 0
M  V30 5984 C 564.086 1.56944 -1.72889 0
M  V30 5985 C 565.067 1.59979 -0.577997 0
M  V30 5986 O 566.252 1.76138 -0.817855 0
M  V30 5987 C 563.382 2.95225 -1.8292 0
M  V30 5988 C 562.336 3.07056 -2.98162 0
M  V30 5989 C 561.662 4.47051 -2.93343 0
M  V30 5990 C 562.962 2.83648 -4.38567 0
M  V30 5991 H 564.656 1.38547 -2.65415 0
M  V30 5992 H 562.202 0.665082 -1.27721 0
M  V30 5993 H 564.155 3.72467 -1.97095 0
M  V30 5994 H 562.879 3.14793 -0.870209 0
M  V30 5995 H 561.538 2.32248 -2.83648 0
M  V30 5996 H 561.186 4.63547 -1.95276 0
M  V30 5997 H 560.886 4.55902 -3.70712 0
M  V30 5998 H 562.41 5.26304 -3.09575 0
M  V30 5999 H 563.824 3.50636 -4.53572 0
M  V30 6000 H 562.221 3.03937 -5.17438 0
M  V30 6001 H 563.291 1.79451 -4.50472 0
M  V30 6002 N 564.634 1.40294 0.718013 0
M  V30 6003 C 565.564 1.43118 1.84498 0
M  V30 6004 C 566.545 0.292403 1.67568 0
M  V30 6005 O 567.73 0.500675 1.87635 0
M  V30 6006 C 564.86 1.29065 3.22427 0
M  V30 6007 C 563.814 2.40521 3.54025 0
M  V30 6008 C 563.14 2.11546 4.91073 0
M  V30 6009 C 564.44 3.82859 3.55269 0
M  V30 6010 H 566.134 2.37432 1.82391 0
M  V30 6011 H 563.68 1.14283 0.87609 0
M  V30 6012 H 565.633 1.29658 4.00957 0
M  V30 6013 H 564.357 0.312271 3.25104 0
M  V30 6014 H 563.016 2.39173 2.77834 0
M  V30 6015 H 562.664 1.12104 4.90348 0
M  V30 6016 H 562.364 2.86216 5.1318 0
M  V30 6017 H 563.888 2.13817 5.71939 0
M  V30 6018 H 565.302 3.86044 4.23843 0
M  V30 6019 H 563.699 4.57029 3.88902 0
M  V30 6020 H 564.769 4.12617 2.54706 0
M  V30 6021 N 566.112 -0.949982 1.2575 0
M  V30 6022 C 567.523 -1.50989 1.09815 0
M  V30 6023 C 567.874 -1.93497 -0.324556 0
M  V30 6024 O 566.999 -1.79068 -1.21506 0
M  V30 6025 C 567.594 -2.74394 1.98729 0
M  V30 6026 C 566.153 -3.26682 1.86965 0
M  V30 6027 C 565.3 -1.99498 1.92603 0
M  V30 6028 H 568.251 -0.766387 1.38968 0
M  V30 6029 H 568.272 -3.48383 1.53001 0
M  V30 6030 H 567.784 -2.43425 3.02268 0
M  V30 6031 H 565.885 -3.62461 0.863279 0
M  V30 6032 H 565.998 -3.94383 2.72027 0
M  V30 6033 H 564.362 -2.15005 1.36546 0
M  V30 6034 H 565.145 -1.70871 2.97755 0
M  V30 6035 N 567.59 -1.07411 -1.15328 0
M  V30 6036 C 568.815 -0.818856 -1.90551 0
M  V30 6037 C 569.24 0.622194 -1.77512 0
M  V30 6038 O 568.598 1.43484 -1.10824 0
M  V30 6039 C 568.646 -1.23267 -3.38877 0
M  V30 6040 O 567.75 -0.378345 -4.10661 0
M  V30 6041 H 567.091 -0.29827 -0.593238 0
M  V30 6042 H 569.621 -1.43289 -1.46046 0
M  V30 6043 H 569.631 -1.20912 -3.89672 0
M  V30 6044 H 568.306 -2.28226 -3.47686 0
M  V30 6045 H 566.883 -0.464437 -3.69996 0
M  V30 6046 N 569.068 1.32177 -0.85831 0
M  V30 6047 C 570.316 1.96735 -0.462568 0
M  V30 6048 C 570.637 1.6824 0.985911 0
M  V30 6049 O 569.907 0.991564 1.68952 0
M  V30 6050 H 568.487 0.727849 -0.168064 0
M  V30 6051 H 571.149 1.61195 -1.09554 0
M  V30 6052 H 570.245 3.06068 -0.610647 0
M  V30 6053 N 570.547 0.616602 1.45037 0
M  V30 6054 C 571.963 0.280994 1.57107 0
M  V30 6055 C 572.163 -1.21627 1.60653 0
M  V30 6056 O 571.219 -1.9997 1.54169 0
M  V30 6057 C 572.532 0.960116 2.8496 0
M  V30 6058 C 574.08 0.936884 2.98649 0
M  V30 6059 C 574.555 1.59619 4.29285 0
M  V30 6060 N 576.046 1.5621 4.36065 0
M  V30 6061 C 576.781 2.04131 5.35834 0
M  V30 6062 N 576.277 2.60177 6.4209 0
M  V30 6063 N 578.07 1.94845 5.27249 0
M  V30 6064 H 570.221 1.58867 1.40979 0
M  V30 6065 H 572.484 0.666024 0.674623 0
M  V30 6066 H 572.19 2.01473 2.88273 0
M  V30 6067 H 572.064 0.488921 3.74018 0
M  V30 6068 H 574.451 -0.109209 2.94898 0
M  V30 6069 H 574.532 1.44643 2.10979 0
M  V30 6070 H 574.176 2.64166 4.33796 0
M  V30 6071 H 574.106 1.06159 5.15789 0
M  V30 6072 H 576.597 1.15276 3.59889 0
M  V30 6073 H 576.91 2.94513 7.1448 0
M  V30 6074 H 575.255 2.64221 6.42816 0
M  V30 6075 H 578.446 1.50792 4.43147 0
M  V30 6076 H 578.619 2.32504 6.04852 0
M  V30 6077 N 572.025 -1.5352 0.356285 0
M  V30 6078 C 573.274 -2.00298 -0.237373 0
M  V30 6079 C 573.587 -1.24784 -1.50627 0
M  V30 6080 O 574.793 -1.62103 -2.17795 0
M  V30 6081 C 573.249 -3.56771 -0.473545 0
M  V30 6082 C 572.857 -4.41154 0.780183 0
M  V30 6083 C 574.601 -4.1193 -1.02537 0
M  V30 6084 C 572.508 -5.89161 0.514108 0
M  V30 6085 H 571.438 -0.748307 -0.092478 0
M  V30 6086 H 574.089 -1.77283 0.473588 0
M  V30 6087 H 572.471 -3.75902 -1.24553 0
M  V30 6088 H 573.645 -4.33797 1.55425 0
M  V30 6089 H 571.96 -3.97052 1.25455 0
M  V30 6090 H 574.557 -5.20133 -1.2396 0
M  V30 6091 H 574.9 -3.65943 -1.98473 0
M  V30 6092 H 575.433 -3.96561 -0.313775 0
M  V30 6093 H 572.172 -6.39408 1.44355 0
M  V30 6094 H 571.692 -5.9939 -0.221632 0
M  V30 6095 H 573.371 -6.46857 0.136122 0
M  V30 6096 N 573.503 -0.0852151 -1.57369 0
M  V30 6097 C 574.451 0.894856 -2.14698 0
M  V30 6098 C 575.445 1.29903 -1.08727 0
M  V30 6099 O 576.651 1.27471 -1.27088 0
M  V30 6100 H 573.026 0.306569 -0.686673 0
M  V30 6101 H 574.997 0.386542 -2.95886 0
M  V30 6102 C 573.746 2.14798 -2.73417 0
M  V30 6103 H 573.069 1.84585 -3.54638 0
M  V30 6104 H 574.509 2.81456 -3.1711 0
M  V30 6105 C 572.968 2.91546 -1.68828 0
M  V30 6106 O 573.498 3.85733 -1.12129 0
M  V30 6107 N 571.704 2.54901 -1.39549 0
M  V30 6108 H 571.251 1.7838 -1.85845 0
M  V30 6109 H 571.209 3.06553 -0.698054 0
M  V30 6110 N 574.981 1.5647 0.188427 0
M  V30 6111 C 576.227 1.81281 0.909124 0
M  V30 6112 C 576.56 0.66034 1.82628 0
M  V30 6113 O 575.835 -0.338737 1.91528 0
M  V30 6114 C 576.118 3.16388 1.7196 0
M  V30 6115 C 575.971 4.42137 0.826714 0
M  V30 6116 C 577.29 3.48256 2.69083 0
M  V30 6117 H 574.409 0.659457 0.329068 0
M  V30 6118 H 577.051 1.89182 0.176156 0
M  V30 6119 H 575.201 3.09784 2.34448 0
M  V30 6120 H 576.873 4.60794 0.216025 0
M  V30 6121 H 575.116 4.33594 0.133792 0
M  V30 6122 H 575.787 5.33184 1.42893 0
M  V30 6123 H 578.263 3.55203 2.16726 0
M  V30 6124 H 577.139 4.43899 3.2287 0
M  V30 6125 H 577.4 2.72088 3.48455 0
M  V30 6126 N 576.459 -0.456382 1.50847 0
M  V30 6127 C 577.684 -1.2349 1.66628 0
M  V30 6128 C 578.109 -1.84715 0.355254 0
M  V30 6129 O 577.467 -1.67961 -0.682559 0
M  V30 6130 C 577.515 -2.30865 2.77009 0
M  V30 6131 O 576.619 -3.35882 2.39285 0
M  V30 6132 H 575.96 -0.36266 0.556214 0
M  V30 6133 H 578.49 -0.541374 1.97308 0
M  V30 6134 H 578.5 -2.75949 3.00526 0
M  V30 6135 H 577.175 -1.85677 3.72152 0
M  V30 6136 H 575.752 -2.96406 2.26269 0
M  V30 6137 N 577.937 -1.40673 -0.710563 0
M  V30 6138 C 579.185 -1.38947 -1.46759 0
M  V30 6139 C 579.506 0.00572879 -1.94999 0
M  V30 6140 O 578.776 0.961358 -1.70689 0
M  V30 6141 H 577.356 -0.5114 -0.544499 0
M  V30 6142 H 580.018 -1.75773 -0.842012 0
M  V30 6143 H 579.114 -2.06745 -2.33801 0
M  V30 6144 N 579.415 0.9433 -1.26252 0
M  V30 6145 C 580.345 2.05902 -1.10122 0
M  V30 6146 C 581.326 1.70099 -0.00700552 0
M  V30 6147 O 582.511 1.93377 -0.178641 0
M  V30 6148 C 579.641 3.39516 -0.731175 0
M  V30 6149 C 578.595 3.89372 -1.77688 0
M  V30 6150 C 577.921 5.19613 -1.26122 0
M  V30 6151 C 579.221 4.14489 -3.17799 0
M  V30 6152 H 580.915 2.19655 -2.03451 0
M  V30 6153 H 578.461 1.05548 -0.979576 0
M  V30 6154 H 580.414 4.17031 -0.605215 0
M  V30 6155 H 579.138 3.25733 0.23782 0
M  V30 6156 H 577.797 3.14036 -1.89148 0
M  V30 6157 H 577.445 5.02208 -0.282128 0
M  V30 6158 H 577.145 5.53939 -1.96023 0
M  V30 6159 H 578.669 5.99713 -1.14789 0
M  V30 6160 H 580.083 4.82625 -3.09428 0
M  V30 6161 H 578.48 4.60094 -3.85271 0
M  V30 6162 H 579.55 3.20347 -3.64014 0
M  V30 6163 N 580.893 1.08022 1.14757 0
M  V30 6164 C 582.121 0.828847 1.89572 0
M  V30 6165 C 582.536 -0.618621 1.78377 0
M  V30 6166 O 581.893 -1.42482 1.1404 0
M  V30 6167 C 581.944 1.23677 3.39685 0
M  V30 6168 O 581.665 2.62746 3.50566 0
M  V30 6169 C 583.166 1.01569 4.31507 0
M  V30 6170 H 580.386 0.299196 0.600602 0
M  V30 6171 H 582.93 1.43846 1.45357 0
M  V30 6172 H 581.085 0.671347 3.81539 0
M  V30 6173 H 581.499 2.79573 4.43778 0
M  V30 6174 H 582.973 1.35055 5.35223 0
M  V30 6175 H 583.45 -0.0475433 4.39174 0
M  V30 6176 H 584.056 1.56636 3.95405 0
M  V30 6177 N 582.371 -1.3172 0.865308 0
M  V30 6178 C 583.599 -2.01057 0.488251 0
M  V30 6179 C 584.014 -1.64979 -0.918 0
M  V30 6180 O 583.371 -0.876597 -1.60069 0
M  V30 6181 C 583.422 -3.55964 0.630224 0
M  V30 6182 O 583.143 -3.90749 1.98109 0
M  V30 6183 C 584.644 -4.42574 0.253567 0
M  V30 6184 H 581.864 -0.64332 0.190736 0
M  V30 6185 H 584.408 -1.68058 1.16519 0
M  V30 6186 H 582.563 -3.874 0.000895422 0
M  V30 6187 H 582.977 -4.85467 1.9855 0
M  V30 6188 H 584.451 -5.50521 0.403875 0
M  V30 6189 H 584.928 -4.31724 -0.806895 0
M  V30 6190 H 585.534 -4.16547 0.858404 0
M  V30 6191 N 583.85 -0.624285 -1.44708 0
M  V30 6192 C 584.797 0.0847135 -2.30644 0
M  V30 6193 C 585.767 0.843575 -1.43084 0
M  V30 6194 O 586.952 0.825982 -1.71995 0
M  V30 6195 C 584.091 1.06495 -3.28257 0
M  V30 6196 C 583.205 0.305224 -4.3092 0
M  V30 6197 C 582.34 1.27667 -5.1563 0
M  V30 6198 C 581.379 0.505706 -6.10007 0
M  V30 6199 N 580.516 1.42727 -6.8744 0
M  V30 6200 H 585.356 -0.654068 -2.90733 0
M  V30 6201 H 582.893 -0.334334 -1.4325 0
M  V30 6202 H 584.851 1.64658 -3.83332 0
M  V30 6203 H 583.481 1.77094 -2.69884 0
M  V30 6204 H 582.533 -0.392207 -3.78373 0
M  V30 6205 H 583.845 -0.295553 -4.97924 0
M  V30 6206 H 582.999 1.92984 -5.75189 0
M  V30 6207 H 581.738 1.91137 -4.48685 0
M  V30 6208 H 580.743 -0.160999 -5.49564 0
M  V30 6209 H 581.968 -0.124183 -6.78986 0
M  V30 6210 H 579.913 2.04931 -6.23169 0
M  V30 6211 H 579.831 0.880345 -7.50857 0
M  V30 6212 H 581.099 2.0695 -7.51526 0
M  V30 6213 N 585.328 1.53329 -0.364422 0
M  V30 6214 C 586.276 2.27212 0.497737 0
M  V30 6215 C 587.27 1.30146 1.08437 0
M  V30 6216 O 588.476 1.47778 1.0277 0
M  V30 6217 H 584.851 0.730329 0.179232 0
M  V30 6218 H 586.822 2.98037 -0.147182 0
M  V30 6219 C 585.571 3.07333 1.6261 0
M  V30 6220 H 584.894 3.81866 1.184 0
M  V30 6221 H 586.334 3.62209 2.20409 0
M  V30 6222 C 584.793 2.18102 2.56775 0
M  V30 6223 O 585.323 1.79104 3.59562 0
M  V30 6224 N 583.529 1.82759 2.25937 0
M  V30 6225 H 583.076 2.14671 1.42387 0
M  V30 6226 H 583.034 1.23342 2.89196 0
M  V30 6227 N 586.806 0.0935595 1.57322 0
M  V30 6228 C 587.736 -0.863062 2.16964 0
M  V30 6229 C 588.717 -1.29528 1.10256 0
M  V30 6230 O 589.902 -1.36245 1.38387 0
M  V30 6231 C 587.032 -2.12276 2.74875 0
M  V30 6232 C 585.986 -1.82921 3.86942 0
M  V30 6233 C 585.312 -3.15707 4.31548 0
M  V30 6234 C 586.612 -1.11737 5.10208 0
M  V30 6235 H 588.306 -0.366145 2.97153 0
M  V30 6236 H 585.852 -0.174673 1.42937 0
M  V30 6237 H 587.805 -2.79634 3.1525 0
M  V30 6238 H 586.529 -2.64248 1.91938 0
M  V30 6239 H 585.188 -1.17961 3.47103 0
M  V30 6240 H 584.836 -3.65563 3.45504 0
M  V30 6241 H 584.536 -2.96849 5.07104 0
M  V30 6242 H 586.06 -3.84226 4.74555 0
M  V30 6243 H 587.474 -1.69203 5.47762 0
M  V30 6244 H 585.871 -1.03064 5.91183 0
M  V30 6245 H 586.941 -0.0998818 4.84797 0
M  V30 6246 N 588.284 -1.56567 -0.180126 0
M  V30 6247 C 589.561 -1.7235 -0.924931 0
M  V30 6248 C 589.941 -0.652523 -2.00762 0
M  V30 6249 O 589.289 0.334115 -2.26044 0
M  V30 6250 C 589.499 -3.1523 -1.49771 0
M  V30 6251 C 590.847 -3.75921 -1.97405 0
M  V30 6252 O 591.871 -3.18452 -1.59583 0
M  V30 6253 O 590.73 -4.7681 -2.67048 0
M  V30 6254 H 587.824 -0.703502 -0.434758 0
M  V30 6255 H 590.37 -1.6886 -0.168647 0
M  V30 6256 H 589.142 -3.84656 -0.718027 0
M  V30 6257 H 588.765 -3.23009 -2.31842 0
M  V30 6258 N 589.762 0.448376 -1.51087 0
M  V30 6259 C 590.992 1.21965 -1.66757 0
M  V30 6260 C 591.4 1.85748 -0.359753 0
M  V30 6261 O 590.743 1.71022 0.670604 0
M  V30 6262 C 590.805 2.35284 -2.71812 0
M  V30 6263 C 590.469 1.91957 -4.1473 0
M  V30 6264 C 591.466 1.42921 -4.9987 0
M  V30 6265 C 589.151 1.99985 -4.60772 0
M  V30 6266 C 591.145 1.02485 -6.29107 0
M  V30 6267 C 588.832 1.5916 -5.90009 0
M  V30 6268 C 589.83 1.10491 -6.74004 0
M  V30 6269 O 589.518 0.702413 -8.00825 0
M  V30 6270 H 589.25 0.374125 -0.563034 0
M  V30 6271 H 591.804 0.538927 -1.98204 0
M  V30 6272 H 590.034 3.06599 -2.35657 0
M  V30 6273 H 591.723 2.97184 -2.76472 0
M  V30 6274 H 592.489 1.36123 -4.65506 0
M  V30 6275 H 588.368 2.36814 -3.95525 0
M  V30 6276 H 591.912 0.644271 -6.94619 0
M  V30 6277 H 587.809 1.65626 -6.2389 0
M  V30 6278 H 588.577 0.829248 -8.14288 0
M  V30 6279 N 591.24 1.41047 0.703093 0
M  V30 6280 C 592.486 1.40207 1.46526 0
M  V30 6281 C 592.819 0.00847763 1.94198 0
M  V30 6282 O 592.094 -0.962437 1.69019 0
M  V30 6283 C 592.377 2.40238 2.6825 0
M  V30 6284 C 592.23 3.88674 2.26391 0
M  V30 6285 C 593.549 2.37627 3.70434 0
M  V30 6286 H 590.668 0.510594 0.531472 0
M  V30 6287 H 593.31 1.72271 0.801422 0
M  V30 6288 H 591.46 2.13026 3.24888 0
M  V30 6289 H 593.132 4.2676 1.75138 0
M  V30 6290 H 591.375 4.03903 1.58255 0
M  V30 6291 H 592.046 4.542 3.13698 0
M  V30 6292 H 594.522 2.61759 3.23452 0
M  V30 6293 H 593.398 3.09645 4.53223 0
M  V30 6294 H 593.659 1.39223 4.19606 0
M  V30 6295 N 592.718 -0.936591 1.26751 0
M  V30 6296 C 593.681 -2.01752 1.08761 0
M  V30 6297 C 594.681 -1.60763 0.0344435 0
M  V30 6298 O 595.871 -1.71963 0.278258 0
M  V30 6299 C 593.003 -3.34543 0.655271 0
M  V30 6300 H 594.196 -2.19143 2.04735 0
M  V30 6301 H 591.749 -1.11618 1.09413 0
M  V30 6302 H 592.484 -3.22851 -0.30626 0
M  V30 6303 H 592.269 -3.65647 1.41578 0
M  V30 6304 H 593.759 -4.13944 0.551378 0
M  V30 6305 N 594.196 -1.08629 -1.14182 0
M  V30 6306 C 595.424 -0.838889 -1.8913 0
M  V30 6307 C 595.839 0.609153 -1.78703 0
M  V30 6308 O 595.196 1.41876 -1.14794 0
M  V30 6309 C 595.247 -1.25477 -3.39025 0
M  V30 6310 O 594.968 -2.64601 -3.49167 0
M  V30 6311 C 596.469 -1.03856 -4.30963 0
M  V30 6312 H 593.689 -0.302377 -0.599007 0
M  V30 6313 H 596.233 -1.44615 -1.44592 0
M  V30 6314 H 594.388 -0.691571 -3.81177 0
M  V30 6315 H 594.802 -2.81922 -4.42289 0
M  V30 6316 H 596.276 -1.37892 -5.345 0
M  V30 6317 H 596.753 0.0242522 -4.39193 0
M  V30 6318 H 597.359 -1.58731 -3.94569 0
M  V30 6319 N 595.674 1.31259 -0.872281 0
M  V30 6320 C 596.899 2.0133 -0.498099 0
M  V30 6321 C 597.324 1.65031 0.902568 0
M  V30 6322 O 596.682 0.860164 1.59596 0
M  V30 6323 C 596.73 3.54411 -0.665205 0
M  V30 6324 O 595.834 4.11347 0.294473 0
M  V30 6325 H 595.175 0.633844 -0.197832 0
M  V30 6326 H 597.705 1.67402 -1.17633 0
M  V30 6327 H 597.715 4.04147 -0.559373 0
M  V30 6328 H 596.39 3.80171 -1.68651 0
M  V30 6329 H 594.967 3.72624 0.143403 0
M  V30 6330 N 597.152 0.631951 1.44375 0
M  V30 6331 C 598.401 0.134214 2.01253 0
M  V30 6332 C 598.714 -1.25171 1.50305 0
M  V30 6333 O 599.92 -1.8435 1.99317 0
M  V30 6334 C 598.376 0.189187 3.59402 0
M  V30 6335 C 597.984 1.57647 4.19346 0
M  V30 6336 C 599.728 -0.252044 4.23751 0
M  V30 6337 C 597.635 1.58651 5.69722 0
M  V30 6338 H 596.565 0.0464101 0.75257 0
M  V30 6339 H 599.216 0.790868 1.65582 0
M  V30 6340 H 597.598 -0.534584 3.92375 0
M  V30 6341 H 598.772 2.32389 3.97909 0
M  V30 6342 H 597.087 1.96186 3.67288 0
M  V30 6343 H 599.684 -0.264084 5.34047 0
M  V30 6344 H 600.027 -1.27951 3.96149 0
M  V30 6345 H 600.56 0.41926 3.95584 0
M  V30 6346 H 597.299 2.59237 6.0206 0
M  V30 6347 H 596.819 0.882039 5.93279 0
M  V30 6348 H 598.498 1.32082 6.33375 0
M  V30 6349 N 598.631 -1.53133 0.372548 0
M  V30 6350 C 599.581 -2.22733 -0.487218 0
M  V30 6351 C 600.565 -1.22506 -1.04312 0
M  V30 6352 O 601.757 -1.47923 -0.972005 0
M  V30 6353 C 598.886 -3.02524 -1.62278 0
M  V30 6354 C 597.972 -4.10133 -1.07943 0
M  V30 6355 N 598.363 -5.05133 -0.259629 0
M  V30 6356 C 596.661 -4.24964 -1.35356 0
M  V30 6357 C 597.362 -5.81687 0.0386656 0
M  V30 6358 N 596.338 -5.40699 -0.560827 0
M  V30 6359 H 600.14 -2.93538 0.145853 0
M  V30 6360 H 597.654 -1.61389 0.180938 0
M  V30 6361 H 599.651 -3.50909 -2.25096 0
M  V30 6362 H 598.311 -2.33252 -2.25884 0
M  V30 6363 H 599.322 -5.178 0.101746 0
M  V30 6364 H 595.999 -3.66919 -1.9919 0
M  V30 6365 H 597.389 -6.68224 0.701841 0
M  V30 6366 N 600.109 -0.101901 -1.5727 0
M  V30 6367 C 601.019 0.868647 -2.17926 0
M  V30 6368 C 602.035 1.30527 -1.1506 0
M  V30 6369 O 603.211 1.37178 -1.47459 0
M  V30 6370 C 600.276 2.10727 -2.75309 0
M  V30 6371 C 599.337 1.7242 -3.93154 0
M  V30 6372 C 598.57 2.90377 -4.47791 0
M  V30 6373 O 598.793 4.05305 -4.01353 0
M  V30 6374 O 597.727 2.6845 -5.38719 0
M  V30 6375 H 601.553 0.382544 -3.01281 0
M  V30 6376 H 599.138 0.122812 -1.48894 0
M  V30 6377 H 601.02 2.83303 -3.11958 0
M  V30 6378 H 599.695 2.58376 -1.94996 0
M  V30 6379 H 598.602 0.970039 -3.61305 0
M  V30 6380 H 599.935 1.29528 -4.74851 0
M  V30 6381 N 601.587 1.56661 0.17182 0
M  V30 6382 C 602.55 1.9549 1.19651 0
M  V30 6383 C 603.55 0.838501 1.37207 0
M  V30 6384 O 604.74 1.10556 1.34622 0
M  V30 6385 C 601.872 2.24927 2.56166 0
M  V30 6386 H 603.065 2.87184 0.864007 0
M  V30 6387 H 600.618 1.50711 0.41425 0
M  V30 6388 H 601.353 1.35944 2.94431 0
M  V30 6389 H 601.138 3.06301 2.4479 0
M  V30 6390 H 602.628 2.55891 3.30014 0
M  V30 6391 N 603.065 -0.440357 1.51323 0
M  V30 6392 C 604.311 -1.19181 1.64085 0
M  V30 6393 C 604.644 -1.90936 0.354575 0
M  V30 6394 O 603.919 -1.8347 -0.645675 0
M  V30 6395 C 604.202 -2.2112 2.84215 0
M  V30 6396 C 604.055 -1.53468 4.22809 0
M  V30 6397 C 605.374 -3.22133 2.99864 0
M  V30 6398 H 602.493 -0.431924 0.597169 0
M  V30 6399 H 605.135 -0.481443 1.83799 0
M  V30 6400 H 603.285 -2.81703 2.67537 0
M  V30 6401 H 604.957 -0.962455 4.51148 0
M  V30 6402 H 603.2 -0.837086 4.25647 0
M  V30 6403 H 603.871 -2.27694 5.02852 0
M  V30 6404 H 606.347 -2.71601 3.15233 0
M  V30 6405 H 605.223 -3.90756 3.85488 0
M  V30 6406 H 605.484 -3.88061 2.11804 0
M  V30 6407 N 604.543 -1.41418 -0.695603 0
M  V30 6408 C 605.771 -1.4413 -1.48439 0
M  V30 6409 C 606.186 -0.0465698 -1.88743 0
M  V30 6410 O 605.543 0.934117 -1.56782 0
M  V30 6411 C 605.594 -2.34998 -2.74696 0
M  V30 6412 O 605.315 -3.69043 -2.36091 0
M  V30 6413 C 606.816 -2.46513 -3.68438 0
M  V30 6414 H 604.036 -0.490905 -0.457442 0
M  V30 6415 H 606.58 -1.85702 -0.856454 0
M  V30 6416 H 604.735 -1.96735 -3.33728 0
M  V30 6417 H 605.149 -4.17505 -3.17474 0
M  V30 6418 H 606.623 -3.1426 -4.53811 0
M  V30 6419 H 607.1 -1.49638 -4.12922 0
M  V30 6420 H 607.706 -2.85412 -3.1531 0
M  V30 6421 N 606.021 0.929856 -1.27246 0
M  V30 6422 C 606.968 2.03017 -1.09785 0
M  V30 6423 C 607.938 1.661 0.000456744 0
M  V30 6424 O 609.123 1.90116 -0.161462 0
M  V30 6425 C 606.263 3.36878 -0.748816 0
M  V30 6426 C 605.376 3.86763 -1.92453 0
M  V30 6427 C 604.511 5.09061 -1.51758 0
M  V30 6428 C 603.55 5.51237 -2.66091 0
M  V30 6429 N 602.687 6.64732 -2.25999 0
M  V30 6430 H 607.527 2.17285 -2.03939 0
M  V30 6431 H 605.064 1.06448 -1.01524 0
M  V30 6432 H 607.022 4.13855 -0.527283 0
M  V30 6433 H 605.652 3.22424 0.155771 0
M  V30 6434 H 604.704 3.06086 -2.25867 0
M  V30 6435 H 606.016 4.13994 -2.78227 0
M  V30 6436 H 605.17 5.93532 -1.25716 0
M  V30 6437 H 603.909 4.83602 -0.630896 0
M  V30 6438 H 602.914 4.65316 -2.92849 0
M  V30 6439 H 604.139 5.78692 -3.55377 0
M  V30 6440 H 602.085 6.40935 -1.3978 0
M  V30 6441 H 602.002 6.91607 -3.05313 0
M  V30 6442 H 603.27 7.52549 -2.03199 0
M  V30 6443 N 607.499 1.09233 1.13605 0
M  V30 6444 C 608.748 0.82205 1.84188 0
M  V30 6445 C 609.061 -0.654548 1.84323 0
M  V30 6446 O 610.267 -1.04029 2.50779 0
M  V30 6447 C 608.723 1.42066 3.30674 0
M  V30 6448 C 608.331 2.92965 3.38933 0
M  V30 6449 C 610.075 1.22924 4.06313 0
M  V30 6450 C 607.982 3.45922 4.79679 0
M  V30 6451 H 606.912 0.303854 0.690064 0
M  V30 6452 H 609.563 1.31479 1.28006 0
M  V30 6453 H 607.945 0.855613 3.86646 0
M  V30 6454 H 609.119 3.55679 2.92966 0
M  V30 6455 H 607.434 3.11118 2.76757 0
M  V30 6456 H 610.031 1.59945 5.10217 0
M  V30 6457 H 610.374 0.169726 4.15954 0
M  V30 6458 H 610.907 1.76168 3.56665 0
M  V30 6459 H 607.646 4.51484 4.75229 0
M  V30 6460 H 607.166 2.87971 5.26149 0
M  V30 6461 H 608.845 3.43009 5.48592 0
M  V30 6462 N 608.977 -1.30795 0.87923 0
M  V30 6463 C 609.909 -2.27241 0.299025 0
M  V30 6464 C 610.922 -1.53472 -0.543166 0
M  V30 6465 O 612.111 -1.74756 -0.363651 0
M  V30 6466 C 609.211 -3.33655 -0.593931 0
M  V30 6467 C 608.384 -4.36857 0.2179 0
M  V30 6468 C 607.443 -5.22715 -0.604646 0
M  V30 6469 O 606.469 -5.69192 -0.0293838 0
M  V30 6470 N 607.671 -5.48008 -1.91488 0
M  V30 6471 H 610.436 -2.77667 1.12788 0
M  V30 6472 H 607.997 -1.43914 0.741637 0
M  V30 6473 H 609.989 -3.88013 -1.15012 0
M  V30 6474 H 608.559 -2.83202 -1.32346 0
M  V30 6475 H 607.779 -3.82444 0.955536 0
M  V30 6476 H 609.067 -5.02869 0.774614 0
M  V30 6477 H 608.465 -5.1202 -2.40525 0
M  V30 6478 H 607.022 -6.05264 -2.41864 0
M  V30 6479 O 610.494 -0.779418 -1.41447 0
M  V30 6480 H 611.185 -0.346083 -1.90583 0
M  V30 END ATOM
M  V30 BEGIN BOND
M  V30 END BOND
M  V30 END CTAB
M  END
$$$$
