drugbank_target|Q13188 Serine/threonine-protein kinase 3 (DB12010)
 OpenBabel12092121133D

  0  0  0     0  0            999 V3000
M  V30 BEGIN CTAB
M  V30 COUNTS 7841 7918 0 0 0
M  V30 BEGIN ATOM
M  V30 1 H -0.908 1.98254 -0.117106 0
M  V30 2 N 0 1.576 0 0
M  V30 3 C 0.933 2.03868 1.02534 0
M  V30 4 C 1.911 0.928543 1.3348 0
M  V30 5 O 3.095 1.19667 1.45644 0
M  V30 6 C 0.222 2.43627 2.35294 0
M  V30 7 C -0.732 3.65373 2.2001 0
M  V30 8 S 0.101 5.13292 1.52614 0
M  V30 9 C 1.257 5.56322 2.86805 0
M  V30 10 H 1.49 2.90518 0.631377 0
M  V30 11 H -0.977 1.52953 0.210867 0
M  V30 12 H 0.981 2.67203 3.11629 0
M  V30 13 H -0.358 1.57376 2.7183 0
M  V30 14 H -1.165 3.90944 3.18086 0
M  V30 15 H -1.563 3.418 1.51819 0
M  V30 16 H 0.729 5.58782 3.83104 0
M  V30 17 H 1.672 6.56266 2.65933 0
M  V30 18 H 2.08 4.83886 2.90714 0
M  V30 19 N 1.4781 -0.272755 1.55222 0
M  V30 20 C 2.3881 -1.35918 1.91216 0
M  V30 21 C 3.4041 -1.54026 0.809436 0
M  V30 22 O 4.5801 -1.68148 1.10852 0
M  V30 23 C 1.6451 -2.69834 2.17693 0
M  V30 24 C 0.7061 -2.6047 3.41253 0
M  V30 25 C -0.0609 -3.88 3.66458 0
M  V30 26 O 0.1621 -4.88693 2.94169 0
M  V30 27 O -0.9039 -3.88189 4.59992 0
M  V30 28 H 2.9221 -1.0839 2.83699 0
M  V30 29 H 0.5071 -0.471301 1.41771 0
M  V30 30 H 2.3891 -3.49017 2.36147 0
M  V30 31 H 1.0641 -2.97148 1.28392 0
M  V30 32 H -0.0289 -1.79663 3.28134 0
M  V30 33 H 1.3041 -2.38106 4.30774 0
M  V30 34 N 2.9562 -1.48159 -0.537278 0
M  V30 35 C 3.8882 -1.58218 -1.65831 0
M  V30 36 C 4.9012 -0.466948 -1.5596 0
M  V30 37 O 6.0902 -0.73747 -1.62553 0
M  V30 38 C 3.1902 -1.48906 -3.04434 0
M  V30 39 C 2.3632 -2.75343 -3.3986 0
M  V30 40 C 1.4222 -2.59588 -4.57712 0
M  V30 41 O 0.4482 -3.33457 -4.61297 0
M  V30 42 N 1.6502 -1.68724 -5.55439 0
M  V30 43 H 4.4152 -2.54891 -1.57641 0
M  V30 44 H 1.9762 -1.4479 -0.724386 0
M  V30 45 H 3.9682 -1.36072 -3.81139 0
M  V30 46 H 2.5382 -0.602368 -3.06741 0
M  V30 47 H 1.7582 -3.02795 -2.52406 0
M  V30 48 H 3.0462 -3.5924 -3.60311 0
M  V30 49 H 2.4442 -1.07898 -5.55315 0
M  V30 50 H 1.0012 -1.61832 -6.3139 0
M  V30 51 N 4.4343 0.785586 -1.36625 0
M  V30 52 C 5.8453 1.36101 -1.27803 0
M  V30 53 C 6.1963 1.96035 0.0804875 0
M  V30 54 O 5.3213 1.92834 0.982042 0
M  V30 55 C 5.9163 2.47442 -2.31426 0
M  V30 56 C 4.4753 3.00789 -2.26281 0
M  V30 57 C 3.6223 1.73896 -2.15999 0
M  V30 58 H 6.5733 0.586928 -1.47448 0
M  V30 59 H 6.5943 3.2656 -1.95291 0
M  V30 60 H 6.1063 2.03791 -3.30289 0
M  V30 61 H 4.2073 3.48851 -1.30896 0
M  V30 62 H 4.3203 3.57343 -3.19128 0
M  V30 63 H 2.6843 1.9628 -1.62316 0
M  V30 64 H 3.4673 1.32368 -3.16755 0
M  V30 65 N 5.9124 1.20967 1.01018 0
M  V30 66 C 7.3234 1.02319 1.56165 0
M  V30 67 C 7.6744 -0.418546 1.91684 0
M  V30 68 O 6.7994 -1.30096 1.72928 0
M  V30 69 C 7.3944 1.85109 2.8376 0
M  V30 70 C 5.9534 1.70809 3.35412 0
M  V30 71 C 5.1004 1.82643 2.08655 0
M  V30 72 H 8.0514 1.35065 0.833255 0
M  V30 73 H 8.0724 1.35827 3.55431 0
M  V30 74 H 7.5844 2.90035 2.57878 0
M  V30 75 H 5.6854 0.685464 3.66241 0
M  V30 76 H 5.7984 2.52467 4.07182 0
M  V30 77 H 4.1624 1.25896 2.21409 0
M  V30 78 H 4.9454 2.89066 1.85191 0
M  V30 79 N 7.3905 -1.2043 1.01659 0
M  V30 80 C 8.3535 -2.21433 0.591616 0
M  V30 81 C 9.3535 -1.57203 -0.338226 0
M  V30 82 O 10.5435 -1.73737 -0.126918 0
M  V30 83 C 7.6755 -3.40628 -0.136058 0
M  V30 84 H 8.8685 -2.60545 1.48514 0
M  V30 85 H 6.4215 -1.33893 0.806379 0
M  V30 86 H 7.1565 -3.07019 -1.04449 0
M  V30 87 H 6.9415 -3.88475 0.531917 0
M  V30 88 H 8.4315 -4.15475 -0.420735 0
M  V30 89 N 8.8686 -0.792821 -1.36206 0
M  V30 90 C 10.2796 -0.429513 -1.81692 0
M  V30 91 C 10.6306 1.04695 -1.65932 0
M  V30 92 O 9.7556 1.81256 -1.18218 0
M  V30 93 C 10.3506 -0.772831 -3.29868 0
M  V30 94 C 8.9096 -0.462307 -3.7355 0
M  V30 95 C 8.0566 -1.00569 -2.5842 0
M  V30 96 H 11.0076 -0.985672 -1.24379 0
M  V30 97 H 11.0286 -0.0651928 -3.80444 0
M  V30 98 H 10.5406 -1.84747 -3.41307 0
M  V30 99 H 8.6416 0.604158 -3.67669 0
M  V30 100 H 8.7546 -0.985299 -4.68859 0
M  V30 101 H 7.1186 -0.428734 -2.51066 0
M  V30 102 H 7.9016 -2.08616 -2.72643 0
M  V30 103 N 10.3467 1.47872 -0.545128 0
M  V30 104 C 11.2937 2.29849 0.2093 0
M  V30 105 C 12.2637 1.38313 0.919707 0
M  V30 106 O 13.4487 1.67277 0.917772 0
M  V30 107 C 10.5887 3.22019 1.24088 0
M  V30 108 C 9.7017 4.2864 0.537778 0
M  V30 109 C 8.8367 5.07973 1.5536 0
M  V30 110 C 7.8757 6.06381 0.8348 0
M  V30 111 N 7.0127 6.78717 1.79688 0
M  V30 112 H 11.8527 2.93845 -0.49591 0
M  V30 113 H 9.3897 1.44848 -0.256389 0
M  V30 114 H 11.3477 3.73868 1.85144 0
M  V30 115 H 9.9777 2.59914 1.91428 0
M  V30 116 H 9.0297 3.7994 -0.187046 0
M  V30 117 H 10.3417 4.98793 -0.0258907 0
M  V30 118 H 9.4957 5.63912 2.23803 0
M  V30 119 H 8.2347 4.37693 2.15118 0
M  V30 120 H 7.2397 5.49631 0.136388 0
M  V30 121 H 8.4647 6.78665 0.24313 0
M  V30 122 H 6.4107 6.11177 2.38326 0
M  V30 123 H 6.3277 7.44998 1.28505 0
M  V30 124 H 7.5957 7.39237 2.47282 0
M  V30 125 N 11.8248 0.280983 1.55075 0
M  V30 126 C 13.0498 -0.340154 2.04592 0
M  V30 127 C 13.4748 -1.48246 1.15779 0
M  V30 128 O 12.8328 -1.80614 0.15761 0
M  V30 129 C 12.8808 -0.793104 3.5177 0
M  V30 130 O 11.9848 -1.89981 3.66034 0
M  V30 131 H 11.3258 -0.0694289 0.66036 0
M  V30 132 H 13.8558 0.416993 2.00306 0
M  V30 133 H 13.8658 -1.08729 3.93245 0
M  V30 134 H 12.5408 0.0426163 4.15878 0
M  V30 135 H 11.1178 -1.60771 3.36463 0
M  V30 136 N 13.3029 -1.57598 0.00835791 0
M  V30 137 C 14.2499 -2.08945 -0.980346 0
M  V30 138 C 15.2199 -0.986738 -1.33614 0
M  V30 139 O 16.4049 -1.25968 -1.43306 0
M  V30 140 C 13.5449 -2.60425 -2.26435 0
M  V30 141 C 12.6579 -3.84628 -1.96685 0
M  V30 142 C 11.7929 -4.24579 -3.19228 0
M  V30 143 C 10.8319 -5.41596 -2.85202 0
M  V30 144 N 9.9689 -5.768 -4.00307 0
M  V30 145 H 14.8089 -2.93148 -0.535551 0
M  V30 146 H 12.3459 -1.44912 -0.252776 0
M  V30 147 H 14.3039 -2.88354 -3.01509 0
M  V30 148 H 12.9339 -1.79083 -2.68568 0
M  V30 149 H 11.9859 -3.63556 -1.11942 0
M  V30 150 H 13.2979 -4.69796 -1.67611 0
M  V30 151 H 12.4519 -4.53834 -4.02641 0
M  V30 152 H 11.1909 -3.38137 -3.51447 0
M  V30 153 H 10.1959 -5.12056 -2.00198 0
M  V30 154 H 11.4209 -6.29721 -2.54222 0
M  V30 155 H 9.3669 -4.93316 -4.32407 0
M  V30 156 H 9.2839 -6.5656 -3.74786 0
M  V30 157 H 10.5519 -6.10652 -4.84484 0
M  V30 158 N 14.781 0.264519 -1.55364 0
M  V30 159 C 15.711 1.33121 -1.91836 0
M  V30 160 C 16.692 1.51101 -0.781192 0
M  V30 161 O 17.877 1.64003 -1.04003 0
M  V30 162 C 15.007 2.68921 -2.19769 0
M  V30 163 C 13.961 2.65661 -3.35571 0
M  V30 164 C 13.287 4.05093 -3.49004 0
M  V30 165 C 14.587 2.24187 -4.71739 0
M  V30 166 H 16.281 1.02844 -2.81182 0
M  V30 167 H 13.827 0.493286 -1.35287 0
M  V30 168 H 15.78 3.43663 -2.43872 0
M  V30 169 H 14.504 3.00799 -1.27231 0
M  V30 170 H 13.163 1.93377 -3.1145 0
M  V30 171 H 12.811 4.34206 -2.53917 0
M  V30 172 H 12.511 4.03804 -4.26868 0
M  V30 173 H 14.035 4.81561 -3.75408 0
M  V30 174 H 15.449 2.88654 -4.9533 0
M  V30 175 H 13.846 2.34044 -5.52579 0
M  V30 176 H 14.916 1.19327 -4.69988 0
M  V30 177 N 16.2591 1.48442 0.529413 0
M  V30 178 C 17.2061 1.63007 1.63394 0
M  V30 179 C 18.1761 0.47212 1.59249 0
M  V30 180 O 19.3611 0.695673 1.77666 0
M  V30 181 C 16.5011 1.6763 3.01653 0
M  V30 182 C 15.6141 2.94535 3.16027 0
M  V30 183 C 14.7491 2.90316 4.44849 0
M  V30 184 C 13.7881 4.11923 4.52754 0
M  V30 185 N 12.9251 4.05777 5.72965 0
M  V30 186 H 17.7651 2.5733 1.50285 0
M  V30 187 H 15.3021 1.27613 0.731656 0
M  V30 188 H 17.2601 1.68292 3.81751 0
M  V30 189 H 15.8901 0.76797 3.13532 0
M  V30 190 H 14.9421 3.03615 2.29177 0
M  V30 191 H 16.2541 3.84512 3.17729 0
M  V30 192 H 15.4081 2.89382 5.33238 0
M  V30 193 H 14.1471 1.98068 4.45668 0
M  V30 194 H 13.1521 4.13131 3.62771 0
M  V30 195 H 14.3771 5.0533 4.53672 0
M  V30 196 H 12.3231 3.16351 5.74681 0
M  V30 197 H 12.2401 4.8946 5.76164 0
M  V30 198 H 13.5081 4.08904 6.6364 0
M  V30 199 N 17.7372 -0.778329 1.37039 0
M  V30 200 C 18.6842 -1.89139 1.32269 0
M  V30 201 C 19.6542 -1.65017 0.189387 0
M  V30 202 O 20.8392 -1.87024 0.377693 0
M  V30 203 C 17.9792 -3.26112 1.12894 0
M  V30 204 C 17.0922 -3.62233 2.35396 0
M  V30 205 C 16.2272 -4.8838 2.08946 0
M  V30 206 C 15.2662 -5.17212 3.2735 0
M  V30 207 N 14.4032 -6.34546 3.00492 0
M  V30 208 H 19.2432 -1.92552 2.27437 0
M  V30 209 H 16.7802 -0.941473 1.13025 0
M  V30 210 H 18.7382 -4.05116 0.996835 0
M  V30 211 H 17.3682 -3.22091 0.213758 0
M  V30 212 H 16.4202 -2.78265 2.5937 0
M  V30 213 H 17.7322 -3.79481 3.23721 0
M  V30 214 H 16.8862 -5.75274 1.92729 0
M  V30 215 H 15.6252 -4.73222 1.17949 0
M  V30 216 H 14.6302 -4.28796 3.44113 0
M  V30 217 H 15.8552 -5.34283 4.19188 0
M  V30 218 H 13.8012 -6.20759 2.12118 0
M  V30 219 H 13.7182 -6.52179 3.82358 0
M  V30 220 H 14.9862 -7.24394 2.87879 0
M  V30 221 N 19.2153 -1.21501 -1.00376 0
M  V30 222 C 20.1453 -0.999478 -2.11028 0
M  V30 223 C 21.1263 0.0759671 -1.6993 0
M  V30 224 O 22.3113 -0.0841106 -1.94018 0
M  V30 225 C 19.4413 -0.564709 -3.42678 0
M  V30 226 C 18.3953 -1.58486 -3.97576 0
M  V30 227 C 17.7213 -1.00628 -5.25146 0
M  V30 228 C 19.0213 -2.97204 -4.29496 0
M  V30 229 H 20.7153 -1.92495 -2.29317 0
M  V30 230 H 18.2613 -0.92693 -1.102 0
M  V30 231 H 20.2143 -0.401091 -4.19487 0
M  V30 232 H 18.9383 0.396411 -3.24185 0
M  V30 233 H 17.5973 -1.73606 -3.22888 0
M  V30 234 H 17.2453 -0.0368439 -5.02987 0
M  V30 235 H 16.9453 -1.68771 -5.62841 0
M  V30 236 H 18.4693 -0.854015 -6.04598 0
M  V30 237 H 19.8833 -2.8552 -4.97143 0
M  V30 238 H 18.2803 -3.62372 -4.78338 0
M  V30 239 H 19.3503 -3.47956 -3.3772 0
M  V30 240 N 20.6934 1.19889 -1.02296 0
M  V30 241 C 21.9184 1.9393 -0.735237 0
M  V30 242 C 22.3434 1.74639 0.698782 0
M  V30 243 O 21.7014 1.04481 1.48167 0
M  V30 244 C 21.7494 3.43916 -1.08417 0
M  V30 245 O 20.8534 4.11917 -0.199446 0
M  V30 246 H 20.1944 0.605645 -0.272196 0
M  V30 247 H 22.7244 1.52137 -1.36804 0
M  V30 248 H 22.7344 3.9456 -1.03856 0
M  V30 249 H 21.4094 3.5728 -2.12894 0
M  V30 250 H 19.9864 3.71666 -0.303136 0
M  V30 251 N 22.1715 0.800033 1.35784 0
M  V30 252 C 23.0815 0.207204 2.33683 0
M  V30 253 C 24.0975 -0.64631 1.61551 0
M  V30 254 O 25.2735 -0.559604 1.93469 0
M  V30 255 C 22.3385 -0.639659 3.40748 0
M  V30 256 C 21.3995 0.233585 4.28664 0
M  V30 257 C 20.6325 -0.572954 5.30616 0
M  V30 258 O 20.8555 -1.80816 5.40982 0
M  V30 259 O 19.7895 0.0327285 6.01891 0
M  V30 260 H 23.6155 1.01692 2.86169 0
M  V30 261 H 21.2005 0.561691 1.38439 0
M  V30 262 H 23.0825 -1.12223 4.06182 0
M  V30 263 H 21.7575 -1.42708 2.90544 0
M  V30 264 H 20.6645 0.763147 3.66233 0
M  V30 265 H 21.9975 0.984784 4.82248 0
M  V30 266 N 23.6496 -1.47581 0.552962 0
M  V30 267 C 24.9266 -1.95563 -0.0381515 0
M  V30 268 C 25.3066 -1.49552 -1.48988 0
M  V30 269 O 24.6546 -0.732414 -2.16444 0
M  V30 270 C 24.8646 -3.48848 0.102919 0
M  V30 271 C 26.2126 -4.24577 -0.0446082 0
M  V30 272 O 27.2366 -3.56187 0.0302548 0
M  V30 273 O 26.0956 -5.46116 -0.204923 0
M  V30 274 H 23.1896 -0.824321 -0.0665067 0
M  V30 275 H 25.7356 -1.58001 0.619186 0
M  V30 276 H 24.5076 -3.75129 1.11328 0
M  V30 277 H 24.1306 -3.93165 -0.592224 0
M  V30 278 N 25.1277 -0.289203 -1.54924 0
M  V30 279 C 26.3527 0.329299 -2.04769 0
M  V30 280 C 26.7777 1.4763 -1.16564 0
M  V30 281 O 26.1357 1.80527 -0.167186 0
M  V30 282 C 26.1837 0.774438 -3.52186 0
M  V30 283 O 25.2877 1.88038 -3.67036 0
M  V30 284 H 24.6287 0.0659259 -0.660719 0
M  V30 285 H 27.1587 -0.42761 -2.00082 0
M  V30 286 H 27.1687 1.06642 -3.93816 0
M  V30 287 H 25.8437 -0.0646707 -4.1585 0
M  V30 288 H 24.4207 1.58985 -3.3731 0
M  V30 289 N 26.6058 1.57591 -0.0167156 0
M  V30 290 C 27.5358 2.12496 0.967858 0
M  V30 291 C 28.5168 1.03807 1.34752 0
M  V30 292 O 29.7018 1.31577 1.42833 0
M  V30 293 C 26.8318 2.64194 2.25431 0
M  V30 294 C 25.7858 3.77559 2.01576 0
M  V30 295 C 25.1118 4.15636 3.36379 0
M  V30 296 C 26.4118 5.04151 1.36489 0
M  V30 297 H 28.1058 2.95013 0.510643 0
M  V30 298 H 25.6518 1.41915 0.244181 0
M  V30 299 H 27.6048 3.01236 2.94678 0
M  V30 300 H 26.3288 1.78821 2.73296 0
M  V30 301 H 24.9878 3.40937 1.34751 0
M  V30 302 H 24.6358 3.27263 3.81979 0
M  V30 303 H 24.3358 4.92022 3.21229 0
M  V30 304 H 25.8598 4.5525 4.06915 0
M  V30 305 H 27.2738 5.38857 1.95718 0
M  V30 306 H 25.6708 5.85453 1.31776 0
M  V30 307 H 26.7408 4.83733 0.336219 0
M  V30 308 N 28.0839 -0.256276 1.55502 0
M  V30 309 C 29.3119 -1.00342 1.8094 0
M  V30 310 C 29.7269 -1.79307 0.59114 0
M  V30 311 O 29.0839 -1.77114 -0.440081 0
M  V30 312 C 29.1349 -1.94875 3.04476 0
M  V30 313 O 28.8559 -1.19107 4.21598 0
M  V30 314 C 30.3569 -2.81266 3.42644 0
M  V30 315 H 27.5769 -0.295685 0.602338 0
M  V30 316 H 30.1209 -0.281998 2.02546 0
M  V30 317 H 28.2759 -2.62457 2.84947 0
M  V30 318 H 28.6899 -1.82969 4.91551 0
M  V30 319 H 30.1639 -3.43362 4.32211 0
M  V30 320 H 30.6409 -3.51897 2.62802 0
M  V30 321 H 31.2469 -2.1915 3.64491 0
M  V30 322 N 29.562 -1.4872 -0.521534 0
M  V30 323 C 30.509 -1.63871 -1.62527 0
M  V30 324 C 31.479 -0.480559 -1.58996 0
M  V30 325 O 32.664 -0.705085 -1.77294 0
M  V30 326 C 29.804 -1.69227 -3.00759 0
M  V30 327 C 28.917 -2.96207 -3.14461 0
M  V30 328 C 28.052 -2.92671 -4.43303 0
M  V30 329 C 27.091 -4.14318 -4.50563 0
M  V30 330 N 26.228 -4.0881 -5.70805 0
M  V30 331 H 31.068 -2.58123 -1.48918 0
M  V30 332 H 28.605 -1.28 -0.724878 0
M  V30 333 H 30.563 -1.70314 -3.80853 0
M  V30 334 H 29.193 -0.784586 -3.1312 0
M  V30 335 H 28.245 -3.04826 -2.27564 0
M  V30 336 H 29.557 -3.86192 -3.15686 0
M  V30 337 H 28.711 -2.92206 -5.31696 0
M  V30 338 H 27.45 -2.00429 -4.44612 0
M  V30 339 H 26.455 -4.15049 -3.60575 0
M  V30 340 H 27.68 -5.07729 -4.50986 0
M  V30 341 H 25.626 -3.19394 -5.72995 0
M  V30 342 H 25.543 -4.92509 -5.7356 0
M  V30 343 H 26.811 -4.12418 -6.61462 0
M  V30 344 N 31.0401 0.771051 -1.3745 0
M  V30 345 C 31.9721 1.89352 -1.29146 0
M  V30 346 C 32.9851 1.61477 -0.207124 0
M  V30 347 O 34.1741 1.72382 -0.463324 0
M  V30 348 C 31.2741 3.24596 -0.974195 0
M  V30 349 C 30.4471 3.80111 -2.16413 0
M  V30 350 C 29.5061 4.93832 -1.81703 0
M  V30 351 O 28.5321 5.09382 -2.54006 0
M  V30 352 N 29.7341 5.75483 -0.761573 0
M  V30 353 H 32.4991 1.96991 -2.25864 0
M  V30 354 H 30.0601 0.950191 -1.31084 0
M  V30 355 H 32.0521 3.98193 -0.722828 0
M  V30 356 H 30.6221 3.12454 -0.0955527 0
M  V30 357 H 29.8421 2.98284 -2.57721 0
M  V30 358 H 31.1301 4.13932 -2.95867 0
M  V30 359 H 30.5281 5.65469 -0.161609 0
M  V30 360 H 29.0851 6.49302 -0.570064 0
M  V30 361 N 32.5182 1.22032 0.997298 0
M  V30 362 C 33.9292 1.0397 1.55071 0
M  V30 363 C 34.2802 -0.398192 1.92117 0
M  V30 364 O 33.4052 -1.28254 1.74298 0
M  V30 365 C 34.0002 1.88109 2.81781 0
M  V30 366 C 32.5592 1.74357 3.33581 0
M  V30 367 C 31.7062 1.84846 2.06706 0
M  V30 368 H 34.6572 1.35941 0.818883 0
M  V30 369 H 34.6782 1.39589 3.53971 0
M  V30 370 H 34.1902 2.92754 2.54787 0
M  V30 371 H 32.2912 0.72427 3.65493 0
M  V30 372 H 32.4042 2.56772 4.04481 0
M  V30 373 H 30.7682 1.28238 2.20062 0
M  V30 374 H 31.5512 2.91014 1.82114 0
M  V30 375 N 33.9963 -1.19345 1.0293 0
M  V30 376 C 34.9063 -2.26245 0.620515 0
M  V30 377 C 35.9223 -1.70486 -0.347928 0
M  V30 378 O 37.0983 -2.00347 -0.205704 0
M  V30 379 C 34.1633 -3.46693 -0.0218957 0
M  V30 380 C 33.2243 -4.17632 0.994102 0
M  V30 381 C 32.4573 -5.32329 0.382253 0
M  V30 382 O 32.6803 -5.64552 -0.814676 0
M  V30 383 O 31.6143 -5.91664 1.10531 0
M  V30 384 H 35.4403 -2.63453 1.51083 0
M  V30 385 H 33.0253 -1.26207 0.799513 0
M  V30 386 H 34.9073 -4.19683 -0.380072 0
M  V30 387 H 33.5823 -3.11333 -0.886209 0
M  V30 388 H 32.4893 -3.4676 1.40387 0
M  V30 389 H 33.8223 -4.56964 1.8288 0
M  V30 390 N 35.4744 -0.807222 -1.35358 0
M  V30 391 C 36.3844 -0.219594 -2.3357 0
M  V30 392 C 37.4004 0.637734 -1.61892 0
M  V30 393 O 38.5764 0.549336 -1.93763 0
M  V30 394 C 35.6414 0.62158 -3.41083 0
M  V30 395 C 34.7024 -0.256315 -4.28534 0
M  V30 396 C 33.9354 0.544807 -5.30912 0
M  V30 397 O 34.1584 1.77944 -5.41934 0
M  V30 398 O 33.0924 -0.0646478 -6.01865 0
M  V30 399 H 36.9184 -1.03208 -2.85625 0
M  V30 400 H 34.5034 -0.569025 -1.38139 0
M  V30 401 H 36.3854 1.10067 -4.06772 0
M  V30 402 H 35.0604 1.41165 -2.91297 0
M  V30 403 H 33.9674 -0.782559 -3.65823 0
M  V30 404 H 35.3004 -1.01034 -4.81719 0
M  V30 405 N 36.9525 1.47285 -0.560781 0
M  V30 406 C 38.1985 2.02764 -0.0381184 0
M  V30 407 C 38.5315 1.43384 1.30976 0
M  V30 408 O 37.8065 0.590733 1.85312 0
M  V30 409 C 38.0895 3.60064 0.0511427 0
M  V30 410 C 37.9425 4.2987 -1.32408 0
M  V30 411 C 39.2615 4.33439 0.762795 0
M  V30 412 H 36.3805 0.736841 -0.0153264 0
M  V30 413 H 39.0225 1.75675 -0.723759 0
M  V30 414 H 37.1725 3.83274 0.635065 0
M  V30 415 H 38.8445 4.17989 -1.95148 0
M  V30 416 H 37.0875 3.90085 -1.8978 0
M  V30 417 H 37.7585 5.38478 -1.21431 0
M  V30 418 H 40.2345 4.15243 0.266965 0
M  V30 419 H 39.1105 5.43124 0.794221 0
M  V30 420 H 39.3715 4.02915 1.81966 0
M  V30 421 N 38.4306 0.297415 1.54768 0
M  V30 422 C 39.6776 -0.312913 2.00068 0
M  V30 423 C 40.0056 -1.54171 1.18582 0
M  V30 424 O 39.2606 -1.94108 0.249133 0
M  V30 425 C 39.5596 -0.717561 3.50123 0
M  V30 426 C 39.2256 0.409095 4.4904 0
M  V30 427 C 37.8876 0.718399 4.75807 0
M  V30 428 C 40.2396 1.16717 5.07963 0
M  V30 429 C 37.5676 1.78896 5.5876 0
M  V30 430 C 39.9196 2.22762 5.92081 0
M  V30 431 C 38.5836 2.54303 6.1716 0
M  V30 432 H 37.8536 -0.114503 0.7321 0
M  V30 433 H 40.5006 0.415767 1.86932 0
M  V30 434 H 38.8056 -1.52627 3.60849 0
M  V30 435 H 40.5026 -1.20091 3.82595 0
M  V30 436 H 37.0926 0.157918 4.28309 0
M  V30 437 H 41.2766 0.941466 4.87289 0
M  V30 438 H 36.5326 2.0381 5.7643 0
M  V30 439 H 40.7066 2.81962 6.36765 0
M  V30 440 H 38.3336 3.3739 6.81229 0
M  V30 441 N 39.9087 -1.5758 0.0250728 0
M  V30 442 C 41.1857 -1.82917 -0.692873 0
M  V30 443 C 41.5657 -0.908137 -1.90568 0
M  V30 444 O 40.9137 0.0372298 -2.2847 0
M  V30 445 C 41.1237 -3.32034 -1.07492 0
M  V30 446 C 42.4717 -3.98406 -1.46826 0
M  V30 447 O 43.4957 -3.36505 -1.16801 0
M  V30 448 O 42.3547 -5.07497 -2.02754 0
M  V30 449 H 39.4487 -0.754079 -0.33955 0
M  V30 450 H 41.9947 -1.69619 0.0524456 0
M  V30 451 H 40.7667 -3.90728 -0.211552 0
M  V30 452 H 40.3897 -3.50424 -1.87854 0
M  V30 453 N 41.3868 0.248026 -1.55636 0
M  V30 454 C 42.6328 0.97767 -1.77678 0
M  V30 455 C 42.9658 1.85016 -0.590135 0
M  V30 456 O 42.2408 1.90095 0.411611 0
M  V30 457 C 42.5238 1.83914 -3.09593 0
M  V30 458 C 42.3768 0.99491 -4.38659 0
M  V30 459 C 43.6958 2.82183 -3.37729 0
M  V30 460 H 40.8148 0.354005 -0.646413 0
M  V30 461 H 43.4568 0.248253 -1.88371 0
M  V30 462 H 41.6068 2.46104 -3.00608 0
M  V30 463 H 43.2788 0.391789 -4.59633 0
M  V30 464 H 41.5218 0.299231 -4.32767 0
M  V30 465 H 42.1928 1.63145 -5.2734 0
M  V30 466 H 44.6688 2.30129 -3.4667 0
M  V30 467 H 43.5448 3.39582 -4.31249 0
M  V30 468 H 43.8058 3.58588 -2.58586 0
M  V30 469 N 42.8649 1.48995 0.513639 0
M  V30 470 C 43.7949 1.67636 1.62544 0
M  V30 471 C 44.7759 0.525087 1.61793 0
M  V30 472 O 45.9609 0.759502 1.78732 0
M  V30 473 C 43.0909 1.73114 3.01079 0
M  V30 474 C 42.0449 2.87905 3.16693 0
M  V30 475 C 41.3709 2.78486 4.56453 0
M  V30 476 C 42.6709 4.29005 2.97913 0
M  V30 477 H 44.3649 2.60716 1.47198 0
M  V30 478 H 41.9109 1.25465 0.706714 0
M  V30 479 H 43.8639 1.84742 3.78746 0
M  V30 480 H 42.5879 0.766241 3.17484 0
M  V30 481 H 41.2469 2.75859 2.41448 0
M  V30 482 H 40.8949 1.7993 4.69717 0
M  V30 483 H 40.5949 3.55523 4.67843 0
M  V30 484 H 42.1189 2.92104 5.36197 0
M  V30 485 H 43.5329 4.41798 3.65359 0
M  V30 486 H 41.9299 5.07166 3.20785 0
M  V30 487 H 42.9999 4.44329 1.94165 0
M  V30 488 N 44.343 -0.763751 1.37857 0
M  V30 489 C 45.253 -1.90817 1.36478 0
M  V30 490 C 46.269 -1.71997 0.263248 0
M  V30 491 O 47.445 -1.95095 0.499979 0
M  V30 492 C 44.51 -3.2605 1.17864 0
M  V30 493 C 43.571 -3.57467 2.3773 0
M  V30 494 C 42.804 -4.86249 2.19995 0
M  V30 495 O 43.027 -5.57884 1.18836 0
M  V30 496 O 41.961 -5.16911 3.08361 0
M  V30 497 H 45.787 -1.94933 2.32884 0
M  V30 498 H 43.372 -0.907619 1.1867 0
M  V30 499 H 45.254 -4.06924 1.09504 0
M  V30 500 H 43.929 -3.22769 0.245372 0
M  V30 501 H 42.836 -2.76796 2.51664 0
M  V30 502 H 44.169 -3.655 3.29652 0
M  V30 503 N 45.8211 -1.22559 -0.990812 0
M  V30 504 C 46.7681 -0.997519 -2.0813 0
M  V30 505 C 47.7381 0.0814702 -1.659 0
M  V30 506 O 48.9231 -0.0685424 -1.90677 0
M  V30 507 C 46.0631 -0.583615 -3.40129 0
M  V30 508 C 45.1761 -1.7336 -3.9569 0
M  V30 509 C 44.3111 -1.26748 -5.15857 0
M  V30 510 C 43.3501 -2.38888 -5.63559 0
M  V30 511 N 42.4871 -1.93308 -6.74964 0
M  V30 512 H 47.3271 -1.93099 -2.26973 0
M  V30 513 H 44.8641 -0.962114 -1.11273 0
M  V30 514 H 46.8221 -0.324801 -4.15934 0
M  V30 515 H 45.4521 0.312845 -3.2128 0
M  V30 516 H 44.5041 -2.10669 -3.16738 0
M  V30 517 H 45.8161 -2.57704 -4.27071 0
M  V30 518 H 44.9701 -0.966173 -5.98957 0
M  V30 519 H 43.7091 -0.394272 -4.86104 0
M  V30 520 H 42.7141 -2.69805 -4.79046 0
M  V30 521 H 43.9391 -3.26728 -5.95336 0
M  V30 522 H 41.8851 -1.08352 -6.4699 0
M  V30 523 H 41.8021 -2.71217 -7.05675 0
M  V30 524 H 43.0701 -1.66252 -7.61564 0
M  V30 525 N 47.2992 1.18797 -1.03562 0
M  V30 526 C 48.2292 2.24472 -0.643019 0
M  V30 527 C 49.2102 1.66433 0.351283 0
M  V30 528 O 50.3952 1.92803 0.232505 0
M  V30 529 C 47.5252 3.473 4.24935e-05 0
M  V30 530 C 46.4792 4.18055 -0.917257 0
M  V30 531 C 45.8052 5.34519 -0.138941 0
M  V30 532 C 47.1052 4.72109 -2.23407 0
M  V30 533 H 48.7992 2.57566 -1.52643 0
M  V30 534 H 46.3452 1.23806 -0.735394 0
M  V30 535 H 48.2982 4.20426 0.286383 0
M  V30 536 H 47.0222 3.13424 0.918299 0
M  V30 537 H 45.6812 3.46821 -1.1879 0
M  V30 538 H 45.3292 4.96891 0.781562 0
M  V30 539 H 45.0292 5.82794 -0.750005 0
M  V30 540 H 46.5532 6.10438 0.1405 0
M  V30 541 H 47.9672 5.36955 -2.00879 0
M  V30 542 H 46.3642 5.30897 -2.79765 0
M  V30 543 H 47.4342 3.89807 -2.88407 0
M  V30 544 N 48.7773 0.814389 1.34928 0
M  V30 545 C 50.0253 0.397636 1.9815 0
M  V30 546 C 50.3463 -1.04069 1.64908 0
M  V30 547 O 49.6163 -1.72121 0.93548 0
M  V30 548 H 48.1963 0.144043 0.732981 0
M  V30 549 H 50.8583 1.04195 1.6471 0
M  V30 550 H 49.9543 0.509688 3.0791 0
M  V30 551 N 50.2554 -1.46986 0.568584 0
M  V30 552 C 51.1654 -2.33942 -0.17555 0
M  V30 553 C 52.1814 -1.48891 -0.90041 0
M  V30 554 O 53.3574 -1.81794 -0.86676 0
M  V30 555 C 50.4224 -3.25811 -1.18524 0
M  V30 556 C 49.4834 -4.26757 -0.466582 0
M  V30 557 C 48.7164 -5.14236 -1.42817 0
M  V30 558 O 48.9394 -5.04379 -2.66379 0
M  V30 559 O 47.8734 -5.94412 -0.946453 0
M  V30 560 H 51.6994 -2.98896 0.538036 0
M  V30 561 H 49.2844 -1.4573 0.329097 0
M  V30 562 H 51.1664 -3.82527 -1.76779 0
M  V30 563 H 49.8414 -2.63471 -1.88055 0
M  V30 564 H 48.7484 -3.73769 0.157451 0
M  V30 565 H 50.0814 -4.91843 0.187485 0
M  V30 566 N 51.7335 -0.305618 -1.54608 0
M  V30 567 C 52.9815 0.301701 -1.99835 0
M  V30 568 C 53.3025 1.54054 -1.19551 0
M  V30 569 O 52.5725 1.93702 -0.292658 0
M  V30 570 H 51.1525 0.114468 -0.738178 0
M  V30 571 H 53.8145 -0.418016 -1.90364 0
M  V30 572 H 52.9105 0.570548 -3.06841 0
M  V30 573 N 53.2116 1.57565 -0.0334293 0
M  V30 574 C 54.4366 1.96689 0.657895 0
M  V30 575 C 54.8616 0.910057 1.64619 0
M  V30 576 O 54.2196 -0.128598 1.80843 0
M  V30 577 C 54.2676 3.34905 1.33683 0
M  V30 578 O 53.3716 3.31574 2.45219 0
M  V30 579 H 52.7126 0.641205 0.172489 0
M  V30 580 H 55.2426 2.04372 -0.0965621 0
M  V30 581 H 55.2526 3.71234 1.69262 0
M  V30 582 H 53.9276 4.11366 0.612411 0
M  V30 583 H 52.5046 3.06968 2.11719 0
M  V30 584 N 54.6897 -0.239769 1.55765 0
M  V30 585 C 55.9197 -0.982743 1.8173 0
M  V30 586 C 56.3277 -1.7917 0.607835 0
M  V30 587 O 55.6707 -1.78525 -0.432973 0
M  V30 588 C 55.7327 -1.96332 3.01155 0
M  V30 589 C 55.3967 -1.34062 4.36894 0
M  V30 590 C 56.3937 -0.739539 5.14613 0
M  V30 591 C 54.0787 -1.35784 4.83599 0
M  V30 592 C 56.0727 -0.163989 6.37189 0
M  V30 593 C 53.7597 -0.778441 6.06122 0
M  V30 594 C 54.7577 -0.182548 6.82756 0
M  V30 595 O 54.4457 0.387887 8.02964 0
M  V30 596 H 54.1777 -0.294481 0.608487 0
M  V30 597 H 56.7317 -0.26572 2.03674 0
M  V30 598 H 54.9617 -2.71884 2.74984 0
M  V30 599 H 56.6507 -2.57032 3.14149 0
M  V30 600 H 57.4167 -0.718687 4.79646 0
M  V30 601 H 53.2957 -1.81105 4.23936 0
M  V30 602 H 56.8397 0.301753 6.96947 0
M  V30 603 H 52.7367 -0.796645 6.40565 0
M  V30 604 H 53.5047 0.28044 8.18019 0
M  V30 605 N 56.1678 -1.49265 -0.50573 0
M  V30 606 C 57.4158 -1.582 -1.25766 0
M  V30 607 C 57.7368 -0.268482 -1.93143 0
M  V30 608 O 57.0068 0.711833 -1.8251 0
M  V30 609 H 55.5868 -0.582873 -0.467191 0
M  V30 610 H 58.2488 -1.85865 -0.586525 0
M  V30 611 H 57.3448 -2.37563 -2.02412 0
M  V30 612 N 57.6459 0.756429 -1.3826 0
M  V30 613 C 58.8709 1.55077 -1.37717 0
M  V30 614 C 59.2959 1.88073 0.03164 0
M  V30 615 O 58.6539 1.50364 1.01293 0
M  V30 616 C 58.7019 2.8283 -2.23695 0
M  V30 617 O 57.8059 3.77862 -1.6521 0
M  V30 618 H 57.1469 0.469152 -0.469885 0
M  V30 619 H 59.6769 0.935019 -1.81985 0
M  V30 620 H 59.6869 3.31783 -2.37453 0
M  V30 621 H 58.3619 2.58144 -3.2609 0
M  V30 622 H 56.9389 3.36555 -1.60578 0
M  V30 623 N 59.124 1.23083 0.984299 0
M  V30 624 C 60.37 1.06214 1.72761 0
M  V30 625 C 60.703 -0.400584 1.90024 0
M  V30 626 O 59.978 -1.29672 1.44967 0
M  V30 627 C 60.261 1.78375 3.12817 0
M  V30 628 C 60.114 3.32296 3.03149 0
M  V30 629 C 61.433 1.54309 4.12161 0
M  V30 630 H 58.552 0.387251 0.627061 0
M  V30 631 H 61.194 1.51536 1.14616 0
M  V30 632 H 59.344 1.39848 3.62457 0
M  V30 633 H 61.016 3.8032 2.61064 0
M  V30 634 H 59.259 3.6153 2.39747 0
M  V30 635 H 59.93 3.77972 4.02295 0
M  V30 636 H 62.406 1.87791 3.71314 0
M  V30 637 H 61.282 2.07281 5.08258 0
M  V30 638 H 61.543 0.477572 4.39513 0
M  V30 639 N 60.6021 -1.18246 1.0419 0
M  V30 640 C 61.8491 -1.88257 0.746017 0
M  V30 641 C 62.1771 -1.80429 -0.726331 0
M  V30 642 O 61.4321 -1.2 -1.54591 0
M  V30 643 C 61.7311 -3.38082 1.15911 0
M  V30 644 C 61.3971 -3.66114 2.63195 0
M  V30 645 C 60.0591 -3.73474 3.03432 0
M  V30 646 C 62.4111 -3.78398 3.5842 0
M  V30 647 C 59.7391 -3.90599 4.37778 0
M  V30 648 C 62.0911 -3.97039 4.92487 0
M  V30 649 C 60.7551 -4.02635 5.32392 0
M  V30 650 H 60.0251 -0.688883 0.272987 0
M  V30 651 H 62.6721 -1.3995 1.30715 0
M  V30 652 H 60.9771 -3.88377 0.516806 0
M  V30 653 H 62.6741 -3.90596 0.907516 0
M  V30 654 H 59.2641 -3.61003 2.3103 0
M  V30 655 H 63.4481 -3.72042 3.28479 0
M  V30 656 H 58.7041 -3.93175 4.68213 0
M  V30 657 H 62.8781 -4.05486 5.66175 0
M  V30 658 H 60.5051 -4.15657 6.36501 0
M  V30 659 N 62.0802 -0.821533 -1.34494 0
M  V30 660 C 63.0272 -0.240397 -2.29545 0
M  V30 661 C 63.9972 0.634031 -1.53523 0
M  V30 662 O 65.1822 0.575966 -1.81899 0
M  V30 663 C 62.3222 0.592869 -3.39969 0
M  V30 664 C 61.4352 -0.30365 -4.30932 0
M  V30 665 C 60.5702 0.539049 -5.28458 0
M  V30 666 C 59.6092 -0.356942 -6.11058 0
M  V30 667 N 58.7462 0.446603 -7.00678 0
M  V30 668 H 63.5862 -1.05632 -2.7865 0
M  V30 669 H 61.1232 -0.532413 -1.37127 0
M  V30 670 H 63.0812 1.09129 -4.02675 0
M  V30 671 H 61.7112 1.37392 -2.92102 0
M  V30 672 H 60.7632 -0.920276 -3.691 0
M  V30 673 H 62.0752 -0.992661 -4.88823 0
M  V30 674 H 61.2292 1.102 -5.96608 0
M  V30 675 H 59.9682 1.26157 -4.71101 0
M  V30 676 H 58.9732 -0.932047 -5.41842 0
M  V30 677 H 60.1982 -1.07755 -6.70497 0
M  V30 678 H 58.1442 1.15282 -6.45791 0
M  V30 679 H 58.0612 -0.184048 -7.55776 0
M  V30 680 H 59.3292 0.992352 -7.73158 0
M  V30 681 N 63.5583 1.46682 -0.576371 0
M  V30 682 C 64.5213 2.28707 0.150239 0
M  V30 683 C 65.5213 1.38035 0.824794 0
M  V30 684 O 66.7113 1.60476 0.677719 0
M  V30 685 C 63.8433 3.18248 1.22192 0
M  V30 686 H 65.0363 2.94423 -0.570521 0
M  V30 687 H 62.5893 1.52688 -0.334078 0
M  V30 688 H 63.3243 2.57265 1.97447 0
M  V30 689 H 63.1093 3.85 0.742812 0
M  V30 690 H 64.5993 3.80001 1.73172 0
M  V30 691 N 65.0364 0.313813 1.54444 0
M  V30 692 C 66.2854 -0.292519 1.99568 0
M  V30 693 C 66.5984 -1.54011 1.20582 0
M  V30 694 O 67.8044 -2.22183 1.56035 0
M  V30 695 C 66.2604 -0.571752 3.55329 0
M  V30 696 C 65.8684 0.658229 4.43138 0
M  V30 697 C 67.6124 -1.13857 4.08946 0
M  V30 698 C 65.5194 0.351439 5.90355 0
M  V30 699 H 64.4494 -0.113079 0.745472 0
M  V30 700 H 67.1004 0.424518 1.78522 0
M  V30 701 H 65.4824 -1.34872 3.72325 0
M  V30 702 H 66.6564 1.43403 4.37918 0
M  V30 703 H 64.9714 1.14458 4.0036 0
M  V30 704 H 67.5684 -1.38257 5.16516 0
M  V30 705 H 67.9114 -2.08489 3.6033 0
M  V30 706 H 68.4444 -0.423015 3.95544 0
M  V30 707 H 65.1834 1.26667 6.43145 0
M  V30 708 H 64.7034 -0.386842 5.98551 0
M  V30 709 H 66.3824 -0.0423134 6.46986 0
M  V30 710 N 66.5145 -1.57545 0.0417849 0
M  V30 711 C 67.4645 -2.07483 -0.945247 0
M  V30 712 C 68.4485 -0.977983 -1.27767 0
M  V30 713 O 69.6405 -1.24142 -1.26166 0
M  V30 714 C 66.7695 -2.61576 -2.22335 0
M  V30 715 C 65.8555 -3.78213 -1.91874 0
M  V30 716 N 66.2465 -4.88344 -1.31733 0
M  V30 717 C 64.5445 -3.8694 -2.21796 0
M  V30 718 C 65.2455 -5.69462 -1.1869 0
M  V30 719 N 64.2215 -5.16771 -1.68666 0
M  V30 720 H 68.0235 -2.90029 -0.475441 0
M  V30 721 H 65.5375 -1.61581 -0.162911 0
M  V30 722 H 67.5345 -2.95651 -2.93932 0
M  V30 723 H 66.1945 -1.80465 -2.69931 0
M  V30 724 H 67.2055 -5.08335 -0.990729 0
M  V30 725 H 63.8825 -3.16757 -2.71977 0
M  V30 726 H 65.2725 -6.68023 -0.720793 0
M  V30 727 N 67.9926 0.231505 -1.5589 0
M  V30 728 C 68.9396 1.28682 -1.91598 0
M  V30 729 C 69.9096 1.47071 -0.771974 0
M  V30 730 O 71.0946 1.60802 -1.027 0
M  V30 731 C 68.2346 2.6342 -2.22944 0
M  V30 732 C 67.3476 2.52912 -3.50228 0
M  V30 733 C 66.4826 3.80106 -3.7107 0
M  V30 734 C 65.5216 3.64279 -4.91902 0
M  V30 735 N 64.6586 4.834 -5.09184 0
M  V30 736 H 69.4986 0.975305 -2.81588 0
M  V30 737 H 67.0356 0.470299 -1.39379 0
M  V30 738 H 68.9936 3.41869 -2.39126 0
M  V30 739 H 67.6236 2.92687 -1.36139 0
M  V30 740 H 66.6756 1.6595 -3.42294 0
M  V30 741 H 67.9876 2.37133 -4.38827 0
M  V30 742 H 67.1416 4.66999 -3.87295 0
M  V30 743 H 65.8806 3.98799 -2.80733 0
M  V30 744 H 64.8856 2.7577 -4.75637 0
M  V30 745 H 66.1106 3.47067 -5.83714 0
M  V30 746 H 64.0566 5.02425 -4.21788 0
M  V30 747 H 63.9736 4.70311 -5.91898 0
M  V30 748 H 65.2416 5.71747 -5.29835 0
M  V30 749 N 69.4707 1.49531 0.497807 0
M  V30 750 C 70.3807 1.69176 1.62532 0
M  V30 751 C 71.3967 0.5744 1.64246 0
M  V30 752 O 72.5727 0.849497 1.82608 0
M  V30 753 C 69.6377 1.75695 2.98885 0
M  V30 754 C 68.6987 2.9929 3.07773 0
M  V30 755 C 67.9317 3.05488 4.37622 0
M  V30 756 O 68.1547 2.19192 5.26603 0
M  V30 757 O 67.0887 3.9798 4.51548 0
M  V30 758 H 70.9147 2.647 1.48887 0
M  V30 759 H 68.4997 1.3331 0.674441 0
M  V30 760 H 70.3817 1.82317 3.79919 0
M  V30 761 H 69.0567 0.8335 3.12785 0
M  V30 762 H 67.9637 2.98183 2.25915 0
M  V30 763 H 69.2967 3.91125 2.98801 0
M  V30 764 N 70.9488 -0.749086 1.3866 0
M  V30 765 C 72.1738 -1.54344 1.38538 0
M  V30 766 C 72.5988 -1.88088 -0.0216655 0
M  V30 767 O 71.9568 -1.50899 -1.00494 0
M  V30 768 C 72.0048 -2.8164 2.25192 0
M  V30 769 O 71.1088 -3.7698 1.67212 0
M  V30 770 H 70.4498 -0.466654 0.472367 0
M  V30 771 H 72.9798 -0.925355 1.82478 0
M  V30 772 H 72.9898 -3.30519 2.3921 0
M  V30 773 H 71.6648 -2.56411 3.27454 0
M  V30 774 H 70.2418 -3.35699 1.6236 0
M  V30 775 N 72.4269 -1.23603 -0.977757 0
M  V30 776 C 73.6749 -1.06759 -1.71601 0
M  V30 777 C 73.9959 0.395929 -1.90938 0
M  V30 778 O 73.2659 1.28356 -1.47992 0
M  V30 779 H 71.8459 -0.392062 -0.635843 0
M  V30 780 H 74.5079 -1.55362 -1.1768 0
M  V30 781 H 73.6039 -1.55763 -2.70452 0
M  V30 782 N 73.905 1.17692 -1.04816 0
M  V30 783 C 74.837 2.21103 -0.603822 0
M  V30 784 C 75.85 1.59411 0.33046 0
M  V30 785 O 77.039 1.7807 0.12379 0
M  V30 786 C 74.139 3.38623 0.136898 0
M  V30 787 C 73.312 4.29888 -0.807137 0
M  V30 788 C 72.371 5.26088 -0.10836 0
M  V30 789 O 71.397 5.64353 -0.741232 0
M  V30 790 N 72.599 5.68882 1.15558 0
M  V30 791 H 75.364 2.59848 -1.49329 0
M  V30 792 H 72.925 1.32553 -0.929587 0
M  V30 793 H 74.917 4.00009 0.614401 0
M  V30 794 H 73.487 2.98508 0.927993 0
M  V30 795 H 72.707 3.65993 -1.46434 0
M  V30 796 H 73.995 4.87759 -1.44807 0
M  V30 797 H 73.393 5.39861 1.69015 0
M  V30 798 H 71.95 6.32429 1.57722 0
M  V30 799 N 75.3831 0.828654 1.34056 0
M  V30 800 C 76.6291 0.42008 1.98402 0
M  V30 801 C 76.9621 -1.01564 1.65525 0
M  V30 802 O 76.2371 -1.70834 0.929831 0
M  V30 803 C 76.5201 0.62927 3.54559 0
M  V30 804 C 76.3731 2.11152 3.97159 0
M  V30 805 C 77.6921 0.0688756 4.40046 0
M  V30 806 H 74.8111 0.154104 0.720709 0
M  V30 807 H 77.4531 1.04228 1.5886 0
M  V30 808 H 75.6031 0.0996418 3.88372 0
M  V30 809 H 77.2751 2.70522 3.73651 0
M  V30 810 H 75.5181 2.59985 3.47261 0
M  V30 811 H 76.1891 2.20868 5.05887 0
M  V30 812 H 78.6651 0.521458 4.1282 0
M  V30 813 H 77.5411 0.245006 5.48353 0
M  V30 814 H 77.8021 -1.0266 4.30015 0
M  V30 815 N 76.8612 -1.46375 0.584142 0
M  V30 816 C 78.1072 -2.02678 0.0703716 0
M  V30 817 C 78.4402 -1.4545 -1.28678 0
M  V30 818 O 77.7152 -0.62014 -1.84349 0
M  V30 819 C 77.9982 -3.60099 0.00614674 0
M  V30 820 C 77.8512 -4.27709 1.3923 0
M  V30 821 C 79.1702 -4.34598 -0.693742 0
M  V30 822 H 76.2892 -0.736504 0.027047 0
M  V30 823 H 78.9312 -1.74501 0.751615 0
M  V30 824 H 77.0812 -3.84236 -0.574009 0
M  V30 825 H 78.7532 -4.14832 2.01773 0
M  V30 826 H 76.9962 -3.87016 1.95962 0
M  V30 827 H 77.6672 -5.36478 1.29982 0
M  V30 828 H 80.1432 -4.15615 -0.200869 0
M  V30 829 H 79.0192 -5.44318 -0.707714 0
M  V30 830 H 79.2802 -4.05759 -1.75533 0
M  V30 831 N 78.3393 -0.321999 -1.54275 0
M  V30 832 C 79.3023 0.531975 -2.22941 0
M  V30 833 C 80.3023 1.04478 -1.22234 0
M  V30 834 O 81.4923 0.937452 -1.46825 0
M  V30 835 C 78.6243 1.73874 -2.93224 0
M  V30 836 H 79.8173 -0.0682612 -2.99822 0
M  V30 837 H 77.3703 -0.0730644 -1.56129 0
M  V30 838 H 78.1053 2.37825 -2.20476 0
M  V30 839 H 77.8903 1.37847 -3.6707 0
M  V30 840 H 79.3803 2.34496 -3.45545 0
M  V30 841 N 79.8174 1.5752 -0.0501392 0
M  V30 842 C 81.0664 1.91827 0.623328 0
M  V30 843 C 81.3794 0.930222 1.72065 0
M  V30 844 O 82.5854 1.1653 2.4522 0
M  V30 845 C 81.0414 3.40692 1.16003 0
M  V30 846 C 80.6494 4.479 0.0948811 0
M  V30 847 C 82.3934 3.84034 1.80881 0
M  V30 848 C 80.3004 5.87879 0.644411 0
M  V30 849 H 79.2304 0.715918 0.236596 0
M  V30 850 H 81.8814 1.83115 -0.118861 0
M  V30 851 H 80.2634 3.44405 1.9545 0
M  V30 852 H 81.4374 4.55775 -0.678675 0
M  V30 853 H 79.7524 4.13892 -0.45637 0
M  V30 854 H 82.3494 4.85984 2.22988 0
M  V30 855 H 82.6924 3.20225 2.6601 0
M  V30 856 H 83.2254 3.82833 1.0809 0
M  V30 857 H 79.9644 6.55282 -0.169229 0
M  V30 858 H 79.4844 5.83567 1.38598 0
M  V30 859 H 81.1634 6.37098 1.12763 0
M  V30 860 N 81.2955 -0.223234 1.56011 0
M  V30 861 C 82.2425 -1.27664 1.92277 0
M  V30 862 C 83.2125 -1.46659 0.779763 0
M  V30 863 O 84.3975 -1.60256 1.03551 0
M  V30 864 C 81.5375 -2.62234 2.24338 0
M  V30 865 C 80.6505 -2.51051 3.51564 0
M  V30 866 C 79.7855 -3.78133 3.7308 0
M  V30 867 C 78.8245 -3.61665 4.93827 0
M  V30 868 N 77.9615 -4.80693 5.11741 0
M  V30 869 H 82.8015 -0.960358 2.82101 0
M  V30 870 H 80.3385 -0.462901 1.39627 0
M  V30 871 H 82.2965 -3.40596 2.40936 0
M  V30 872 H 80.9265 -2.91961 1.3769 0
M  V30 873 H 79.9785 -1.64132 3.43169 0
M  V30 874 H 81.2905 -2.34803 4.40079 0
M  V30 875 H 80.4445 -4.64938 3.89766 0
M  V30 876 H 79.1835 -3.97304 2.82844 0
M  V30 877 H 78.1885 -2.73244 4.77093 0
M  V30 878 H 79.4135 -3.43966 5.85546 0
M  V30 879 H 77.3595 -5.00181 4.24446 0
M  V30 880 H 77.2765 -4.67165 5.94384 0
M  V30 881 H 78.5445 -5.6893 5.3286 0
M  V30 882 N 82.7736 -1.49793 -0.48987 0
M  V30 883 C 83.7056 -1.63413 -1.60713 0
M  V30 884 C 84.7186 -0.516329 -1.54395 0
M  V30 885 O 85.9076 -0.788812 -1.60125 0
M  V30 886 C 83.0076 -1.58516 -2.99543 0
M  V30 887 C 82.1806 -2.86016 -3.30928 0
M  V30 888 C 81.2396 -2.74018 -4.49222 0
M  V30 889 O 80.2656 -3.47964 -4.50455 0
M  V30 890 N 81.4676 -1.86309 -5.4979 0
M  V30 891 H 84.2326 -2.59777 -1.49452 0
M  V30 892 H 81.7936 -1.47022 -0.677955 0
M  V30 893 H 83.7856 -1.48128 -3.76617 0
M  V30 894 H 82.3556 -0.69965 -3.0467 0
M  V30 895 H 81.5756 -3.10672 -2.42645 0
M  V30 896 H 82.8636 -3.70521 -3.487 0
M  V30 897 H 82.2616 -1.2551 -5.51601 0
M  V30 898 H 80.8186 -1.81837 -6.25922 0
M  V30 899 N 84.2517 0.741722 -1.39055 0
M  V30 900 C 85.4977 1.50336 -1.36113 0
M  V30 901 C 85.8307 1.94148 0.0450796 0
M  V30 902 O 85.1057 1.66301 1.00868 0
M  V30 903 C 85.3887 2.74773 -2.32749 0
M  V30 904 C 85.2417 2.37023 -3.82283 0
M  V30 905 C 86.5607 3.76846 -2.27322 0
M  V30 906 H 83.6797 0.545351 -0.495743 0
M  V30 907 H 86.3217 0.848624 -1.69995 0
M  V30 908 H 84.4717 3.30639 -2.03986 0
M  V30 909 H 86.1437 1.8684 -4.21768 0
M  V30 910 H 84.3867 1.69334 -3.99385 0
M  V30 911 H 85.0577 3.26104 -4.45376 0
M  V30 912 H 87.5337 3.30548 -2.5274 0
M  V30 913 H 86.4097 4.6159 -2.97028 0
M  V30 914 H 86.6707 4.23286 -1.27599 0
M  V30 915 N 85.7298 1.2412 0.971189 0
M  V30 916 C 87.1408 1.07236 1.52831 0
M  V30 917 C 87.4918 -0.357352 1.92918 0
M  V30 918 O 86.6168 -1.24528 1.76979 0
M  V30 919 C 87.2118 1.94043 2.77728 0
M  V30 920 C 85.7708 1.81394 3.29808 0
M  V30 921 C 84.9178 1.89189 2.02738 0
M  V30 922 H 87.8688 1.37648 0.789864 0
M  V30 923 H 87.8898 1.47066 3.5093 0
M  V30 924 H 87.4018 2.98093 2.4852 0
M  V30 925 H 85.5028 0.801634 3.63874 0
M  V30 926 H 85.6158 2.65294 3.98944 0
M  V30 927 H 83.9798 1.32877 2.17292 0
M  V30 928 H 84.7628 2.94812 1.759 0
M  V30 929 N 87.2079 -1.17134 1.05439 0
M  V30 930 C 88.4539 -1.87733 0.767077 0
M  V30 931 C 88.7869 -1.8098 -0.704253 0
M  V30 932 O 88.0619 -1.21951 -1.5152 0
M  V30 933 C 88.3449 -3.37659 1.25133 0
M  V30 934 C 88.1979 -3.53149 2.78578 0
M  V30 935 C 89.5169 -4.31768 0.852324 0
M  V30 936 H 86.6359 -0.681687 0.280129 0
M  V30 937 H 89.2779 -1.37732 1.30881 0
M  V30 938 H 87.4279 -3.80373 0.790469 0
M  V30 939 H 89.0999 -3.19434 3.32806 0
M  V30 940 H 87.3429 -2.95345 3.17732 0
M  V30 941 H 88.0139 -4.58403 3.07523 0
M  V30 942 H 90.4899 -3.96909 1.24911 0
M  V30 943 H 89.3659 -5.35199 1.21873 0
M  V30 944 H 89.6269 -4.41429 -0.243485 0
M  V30 945 N 88.686 -0.835752 -1.33615 0
M  V30 946 C 89.596 -0.269088 -2.33052 0
M  V30 947 C 90.612 0.603251 -1.63208 0
M  V30 948 O 91.788 0.508112 -1.94885 0
M  V30 949 C 88.853 0.549091 -3.42324 0
M  V30 950 C 87.914 -0.347156 -4.27894 0
M  V30 951 C 87.147 0.43207 -5.31948 0
M  V30 952 O 87.37 1.66409 -5.45586 0
M  V30 953 O 86.304 -0.192298 -6.01593 0
M  V30 954 H 90.13 -1.09243 -2.83372 0
M  V30 955 H 87.715 -0.598198 -1.36901 0
M  V30 956 H 89.597 1.01414 -4.09015 0
M  V30 957 H 88.272 1.34955 -2.94226 0
M  V30 958 H 87.179 -0.859979 -3.64081 0
M  V30 959 H 88.512 -1.1123 -4.79467 0
M  V30 960 N 90.1641 1.46063 -0.591896 0
M  V30 961 C 91.3891 2.07226 -0.0850314 0
M  V30 962 C 91.8141 1.43625 1.21463 0
M  V30 963 O 91.1721 0.523305 1.73583 0
M  V30 964 C 91.2201 3.60554 0.0576567 0
M  V30 965 O 90.3241 3.97128 1.11188 0
M  V30 966 H 89.6651 0.660615 -0.0669568 0
M  V30 967 H 92.1951 1.8756 -0.81745 0
M  V30 968 H 92.2051 4.07165 0.2609 0
M  V30 969 H 90.8801 4.06235 -0.891416 0
M  V30 970 H 89.4571 3.62213 0.886356 0
M  V30 971 N 91.6422 0.330177 1.54103 0
M  V30 972 C 92.9192 -0.325007 1.92881 0
M  V30 973 C 93.2992 -1.6934 1.26045 0
M  V30 974 O 92.6472 -2.24855 0.406526 0
M  V30 975 C 92.8572 -0.410634 3.46576 0
M  V30 976 C 94.2052 -0.667801 4.19316 0
M  V30 977 O 95.2292 -0.49329 3.52768 0
M  V30 978 O 94.0882 -1.00491 5.37181 0
M  V30 979 H 91.1822 -0.186873 0.80561 0
M  V30 980 H 93.7282 0.380376 1.65382 0
M  V30 981 H 92.5002 0.550164 3.87413 0
M  V30 982 H 92.1232 -1.16333 3.802 0
M  V30 983 N 93.1203 -1.57491 0.0584922 0
M  V30 984 C 94.0503 -2.14988 -0.911178 0
M  V30 985 C 95.0313 -1.07343 -1.31952 0
M  V30 986 O 96.2163 -1.35318 -1.39294 0
M  V30 987 C 93.3463 -2.70078 -2.18347 0
M  V30 988 C 92.3003 -3.82771 -1.91495 0
M  V30 989 C 91.6263 -4.24408 -3.25241 0
M  V30 990 C 92.9263 -5.07592 -1.23075 0
M  V30 991 H 94.6203 -2.96263 -0.432246 0
M  V30 992 H 92.1663 -1.42512 -0.206469 0
M  V30 993 H 94.1193 -3.08943 -2.86587 0
M  V30 994 H 92.8433 -1.86005 -2.68458 0
M  V30 995 H 91.5023 -3.44389 -1.25664 0
M  V30 996 H 91.1503 -3.37275 -3.73168 0
M  V30 997 H 90.8503 -5.00366 -3.08071 0
M  V30 998 H 92.3743 -4.65879 -3.94701 0
M  V30 999 H 93.7883 -5.43857 -1.81362 0
M  V30 1000 H 92.1853 -5.88741 -1.16207 0
M  V30 1001 H 93.2553 -4.84454 -0.207847 0
M  V30 1002 N 94.5984 0.214957 -1.56127 0
M  V30 1003 C 95.5304 1.29004 -1.89448 0
M  V30 1004 C 96.5434 1.42716 -0.783326 0
M  V30 1005 O 97.7324 1.43496 -1.06166 0
M  V30 1006 C 94.8324 2.66482 -2.09381 0
M  V30 1007 C 94.0054 2.74633 -3.40434 0
M  V30 1008 C 93.0644 3.9317 -3.49719 0
M  V30 1009 O 92.0904 3.812 -4.227 0
M  V30 1010 N 93.2924 5.07765 -2.81346 0
M  V30 1011 H 96.0574 1.00743 -2.82261 0
M  V30 1012 H 93.6184 0.40497 -1.56753 0
M  V30 1013 H 95.6104 3.44173 -2.12901 0
M  V30 1014 H 94.1804 2.87314 -1.23163 0
M  V30 1015 H 93.4004 1.83368 -3.48955 0
M  V30 1016 H 94.6884 2.77054 -4.26754 0
M  V30 1017 H 94.0864 5.20386 -2.21843 0
M  V30 1018 H 92.6434 5.83474 -2.90519 0
M  V30 1019 N 96.0765 1.50051 0.48192 0
M  V30 1020 C 96.9865 1.7089 1.60728 0
M  V30 1021 C 98.0025 0.591788 1.63627 0
M  V30 1022 O 99.1785 0.868817 1.81696 0
M  V30 1023 C 96.2435 1.78855 2.97005 0
M  V30 1024 C 95.3045 3.02537 3.04581 0
M  V30 1025 C 94.5375 3.10112 4.34357 0
M  V30 1026 O 94.7605 2.24765 5.24249 0
M  V30 1027 O 93.6945 4.02747 4.47301 0
M  V30 1028 H 97.5205 2.66264 1.46072 0
M  V30 1029 H 95.1055 1.34018 0.660264 0
M  V30 1030 H 96.9875 1.86336 3.77964 0
M  V30 1031 H 95.6625 0.866628 3.11883 0
M  V30 1032 H 94.5695 3.00563 2.22739 0
M  V30 1033 H 95.9025 3.94272 2.94636 0
M  V30 1034 N 97.5546 -0.734337 1.39446 0
M  V30 1035 C 98.8036 -1.48937 1.36017 0
M  V30 1036 C 99.1166 -1.95557 -0.0409005 0
M  V30 1037 O 100.323 -2.70779 -0.19778 0
M  V30 1038 C 98.7786 -2.69125 2.38955 0
M  V30 1039 C 98.3866 -2.29452 3.8478 0
M  V30 1040 C 100.131 -3.46944 2.44603 0
M  V30 1041 C 98.0376 -3.46366 4.79358 0
M  V30 1042 H 96.9676 -0.559296 0.505672 0
M  V30 1043 H 99.6186 -0.800983 1.65095 0
M  V30 1044 H 98.0006 -3.40041 2.02948 0
M  V30 1045 H 99.1746 -1.66077 4.29831 0
M  V30 1046 H 97.4896 -1.64723 3.82433 0
M  V30 1047 H 100.087 -4.33907 3.12456 0
M  V30 1048 H 100.43 -3.89454 1.47076 0
M  V30 1049 H 100.963 -2.83056 2.79507 0
M  V30 1050 H 97.7016 -3.08905 5.78151 0
M  V30 1051 H 97.2216 -4.08719 4.38986 0
M  V30 1052 H 98.9006 -4.12691 4.98292 0
M  V30 1053 N 99.0327 -1.24633 -0.964593 0
M  V30 1054 C 100.282 -1.08188 -1.7023 0
M  V30 1055 C 100.595 0.37873 -1.91898 0
M  V30 1056 O 101.801 0.663427 -2.6327 0
M  V30 1057 C 100.257 -1.88773 -3.06419 0
M  V30 1058 C 99.8647 -3.39263 -2.92582 0
M  V30 1059 C 101.609 -1.80867 -3.84041 0
M  V30 1060 C 99.5157 -4.1218 -4.24101 0
M  V30 1061 H 98.4457 -0.401245 -0.638372 0
M  V30 1062 H 101.097 -1.48742 -1.07462 0
M  V30 1063 H 99.4787 -1.41035 -3.70034 0
M  V30 1064 H 100.653 -3.94603 -2.37961 0
M  V30 1065 H 98.9677 -3.48154 -2.28424 0
M  V30 1066 H 101.565 -2.32646 -4.81435 0
M  V30 1067 H 101.908 -0.774543 -4.09031 0
M  V30 1068 H 102.441 -2.26301 -3.27159 0
M  V30 1069 H 99.1797 -5.15965 -4.04303 0
M  V30 1070 H 98.6997 -3.61626 -4.78526 0
M  V30 1071 H 100.379 -4.19349 -4.92702 0
M  V30 1072 N 100.511 1.16574 -1.06058 0
M  V30 1073 C 101.458 2.20883 -0.669263 0
M  V30 1074 C 102.428 1.62729 0.332918 0
M  V30 1075 O 103.613 1.895 0.222346 0
M  V30 1076 C 100.753 3.45049 -0.0593572 0
M  V30 1077 C 99.8658 4.17458 -1.11143 0
M  V30 1078 C 99.0008 5.29135 -0.467916 0
M  V30 1079 C 98.0398 5.93343 -1.50369 0
M  V30 1080 N 97.1768 6.96516 -0.883706 0
M  V30 1081 H 102.017 2.53709 -1.5632 0
M  V30 1082 H 99.5538 1.24616 -0.781625 0
M  V30 1083 H 101.512 4.16033 0.311771 0
M  V30 1084 H 100.142 3.12781 0.797992 0
M  V30 1085 H 99.1938 3.45101 -1.60029 0
M  V30 1086 H 100.506 4.61307 -1.89731 0
M  V30 1087 H 99.6598 6.06684 -0.0436871 0
M  V30 1088 H 98.3988 4.86443 0.349864 0
M  V30 1089 H 97.4038 5.14517 -1.93784 0
M  V30 1090 H 98.6288 6.38114 -2.32352 0
M  V30 1091 H 96.5748 6.55943 -0.086595 0
M  V30 1092 H 96.4918 7.38723 -1.607 0
M  V30 1093 H 97.7598 7.77993 -0.484543 0
M  V30 1094 N 101.989 0.842826 1.3317 0
M  V30 1095 C 102.899 0.281444 2.32906 0
M  V30 1096 C 103.915 -0.594587 1.63526 0
M  V30 1097 O 105.091 -0.49777 1.95152 0
M  V30 1098 C 102.156 -0.530929 3.42611 0
M  V30 1099 C 101.217 0.369843 4.27704 0
M  V30 1100 C 100.45 -0.403853 5.3217 0
M  V30 1101 O 100.673 -1.63513 5.46461 0
M  V30 1102 O 99.6069 0.224199 6.01482 0
M  V30 1103 H 103.433 1.10744 2.82789 0
M  V30 1104 H 101.018 0.60545 1.36582 0
M  V30 1105 H 102.9 -0.992437 4.09547 0
M  V30 1106 H 101.575 -1.33392 2.94938 0
M  V30 1107 H 100.482 0.879275 3.6362 0
M  V30 1108 H 101.815 1.13771 4.78871 0
M  V30 1109 N 103.467 -1.45747 0.599634 0
M  V30 1110 C 104.716 -2.01502 0.0893511 0
M  V30 1111 C 105.029 -1.4748 -1.28488 0
M  V30 1112 O 106.235 -1.95161 -1.88745 0
M  V30 1113 C 104.691 -3.59735 0.109082 0
M  V30 1114 C 104.299 -4.22754 1.48267 0
M  V30 1115 C 106.043 -4.23085 -0.346374 0
M  V30 1116 C 103.95 -5.73115 1.45921 0
M  V30 1117 H 102.88 -0.753417 0.0296347 0
M  V30 1118 H 105.531 -1.67303 0.753788 0
M  V30 1119 H 103.913 -3.91087 -0.621854 0
M  V30 1120 H 105.087 -4.02987 2.23468 0
M  V30 1121 H 103.402 -3.71567 1.87955 0
M  V30 1122 H 105.999 -5.33327 -0.38298 0
M  V30 1123 H 106.342 -3.93201 -1.36743 0
M  V30 1124 H 106.875 -3.9642 0.331038 0
M  V30 1125 H 103.614 -6.07685 2.45762 0
M  V30 1126 H 103.134 -5.95097 0.749665 0
M  V30 1127 H 104.813 -6.3616 1.17941 0
M  V30 1128 N 104.945 -0.338344 -1.53925 0
M  V30 1129 C 106.17 0.263987 -2.05713 0
M  V30 1130 C 106.595 1.43847 -1.21201 0
M  V30 1131 O 105.953 1.79904 -0.224535 0
M  V30 1132 C 106.001 0.662 -3.54471 0
M  V30 1133 O 105.105 1.76265 -3.72833 0
M  V30 1134 H 104.446 0.0448722 -0.662482 0
M  V30 1135 H 106.976 -0.491048 -1.9862 0
M  V30 1136 H 106.986 0.940594 -3.9701 0
M  V30 1137 H 105.661 -0.196937 -4.15433 0
M  V30 1138 H 104.238 1.48173 -3.42198 0
M  V30 1139 N 106.423 1.57458 -0.0668435 0
M  V30 1140 C 107.672 1.92477 0.602947 0
M  V30 1141 C 107.985 0.948419 1.71068 0
M  V30 1142 O 109.191 1.19124 2.43971 0
M  V30 1143 C 107.647 3.41903 1.12383 0
M  V30 1144 C 107.255 4.47975 0.04737 0
M  V30 1145 C 108.999 3.85931 1.76797 0
M  V30 1146 C 106.906 5.88529 0.582022 0
M  V30 1147 H 105.836 0.718387 0.22899 0
M  V30 1148 H 108.487 1.82978 -0.138276 0
M  V30 1149 H 106.869 3.46459 1.91787 0
M  V30 1150 H 108.043 4.55029 -0.726978 0
M  V30 1151 H 106.358 4.13384 -0.500243 0
M  V30 1152 H 108.955 4.88322 2.17821 0
M  V30 1153 H 109.298 3.23029 2.62599 0
M  V30 1154 H 109.831 3.83958 1.04024 0
M  V30 1155 H 106.57 6.55065 -0.238721 0
M  V30 1156 H 106.09 5.85004 1.324 0
M  V30 1157 H 107.769 6.38258 1.05999 0
M  V30 1158 N 107.901 -0.206675 1.56239 0
M  V30 1159 C 108.834 -1.28383 1.88661 0
M  V30 1160 C 109.812 -1.44504 0.745481 0
M  V30 1161 O 110.996 -1.60079 0.995336 0
M  V30 1162 C 108.123 -2.65211 2.10667 0
M  V30 1163 C 107.169 -2.66025 3.33366 0
M  V30 1164 S 108.002 -2.18609 4.88846 0
M  V30 1165 C 109.158 -3.57283 5.13906 0
M  V30 1166 H 109.391 -1.00691 2.7973 0
M  V30 1167 H 106.924 -0.409627 1.48867 0
M  V30 1168 H 108.882 -3.43979 2.24029 0
M  V30 1169 H 107.543 -2.90121 1.20369 0
M  V30 1170 H 106.736 -3.66607 3.45855 0
M  V30 1171 H 106.338 -1.95331 3.18938 0
M  V30 1172 H 108.63 -4.53074 5.03717 0
M  V30 1173 H 109.573 -3.49699 6.15724 0
M  V30 1174 H 109.981 -3.51659 4.41583 0
M  V30 1175 N 109.379 -1.50304 -0.473955 0
M  V30 1176 C 110.311 -1.65109 -1.58971 0
M  V30 1177 C 111.324 -0.532676 -1.53839 0
M  V30 1178 O 112.513 -0.805751 -1.59279 0
M  V30 1179 C 109.613 -1.61684 -2.97845 0
M  V30 1180 C 108.786 -2.8951 -3.27876 0
M  V30 1181 C 107.845 -2.78768 -4.4629 0
M  V30 1182 O 106.871 -3.52722 -4.46739 0
M  V30 1183 N 108.073 -1.9213 -5.47783 0
M  V30 1184 H 110.838 -2.61347 -1.46689 0
M  V30 1185 H 108.399 -1.47732 -0.662324 0
M  V30 1186 H 110.391 -1.52114 -3.75024 0
M  V30 1187 H 108.961 -0.731925 -3.03911 0
M  V30 1188 H 108.181 -3.13228 -2.39336 0
M  V30 1189 H 109.469 -3.74199 -3.4475 0
M  V30 1190 H 108.867 -1.31353 -5.50239 0
M  V30 1191 H 107.424 -1.88466 -6.23958 0
M  V30 1192 N 110.857 0.726932 -1.39834 0
M  V30 1193 C 111.789 1.85147 -1.35104 0
M  V30 1194 C 112.802 1.60736 -0.258392 0
M  V30 1195 O 113.991 1.70821 -0.517931 0
M  V30 1196 C 111.091 3.21332 -1.07697 0
M  V30 1197 C 110.264 3.73033 -2.28396 0
M  V30 1198 C 109.323 4.87802 -1.97322 0
M  V30 1199 O 108.349 5.01043 -2.70083 0
M  V30 1200 N 109.551 5.72768 -0.944273 0
M  V30 1201 H 112.316 1.89706 -2.32017 0
M  V30 1202 H 109.877 0.908006 -1.3404 0
M  V30 1203 H 111.869 3.95691 -0.849144 0
M  V30 1204 H 110.439 3.11992 -0.194909 0
M  V30 1205 H 109.659 2.89934 -2.6708 0
M  V30 1206 H 110.947 4.0431 -3.08887 0
M  V30 1207 H 110.345 5.64669 -0.341427 0
M  V30 1208 H 108.902 6.4716 -0.776346 0
M  V30 1209 N 112.336 1.25143 0.95797 0
M  V30 1210 C 113.576 1.10893 1.71703 0
M  V30 1211 C 113.94 -0.34478 1.88879 0
M  V30 1212 O 115.141 -0.609014 2.6181 0
M  V30 1213 C 113.412 1.83889 3.06463 0
M  V30 1214 S 114.971 1.85491 3.97666 0
M  V30 1215 H 111.789 0.396428 0.590226 0
M  V30 1216 H 114.391 1.58618 1.14283 0
M  V30 1217 H 113.095 2.88756 2.9163 0
M  V30 1218 H 112.626 1.36538 3.68946 0
M  V30 1219 H 114.641 0.929553 4.87415 0
M  V30 1220 N 113.814 -1.1601 1.06675 0
M  V30 1221 C 115.091 -1.82679 0.699114 0
M  V30 1222 C 115.471 -1.94559 -0.819137 0
M  V30 1223 O 114.819 -1.49169 -1.73092 0
M  V30 1224 C 115.029 -3.19445 1.40555 0
M  V30 1225 C 116.377 -3.95171 1.55323 0
M  V30 1226 O 117.401 -3.28976 1.36577 0
M  V30 1227 O 116.26 -5.13833 1.86112 0
M  V30 1228 H 113.354 -0.788954 0.247951 0
M  V30 1229 H 115.9 -1.23179 1.16726 0
M  V30 1230 H 114.672 -3.05856 2.44065 0
M  V30 1231 H 114.295 -3.86625 0.927733 0
M  V30 1232 N 115.292 -0.849877 -1.32721 0
M  V30 1233 C 116.517 -0.463856 -2.02146 0
M  V30 1234 C 116.942 0.930449 -1.63476 0
M  V30 1235 O 116.3 1.61033 -0.832952 0
M  V30 1236 C 116.348 -0.604955 -3.55489 0
M  V30 1237 O 115.452 0.36425 -4.10788 0
M  V30 1238 H 114.793 -0.187046 -0.637111 0
M  V30 1239 H 117.323 -1.14775 -1.69375 0
M  V30 1240 H 117.333 -0.490696 -4.05038 0
M  V30 1241 H 116.008 -1.62174 -3.82978 0
M  V30 1242 H 114.585 0.206628 -3.72327 0
M  V30 1243 N 116.77 1.45427 -0.607355 0
M  V30 1244 C 118.181 1.85756 -0.187535 0
M  V30 1245 C 118.532 1.5077 1.25551 0
M  V30 1246 O 117.657 0.93427 1.95193 0
M  V30 1247 C 118.252 3.37154 -0.333572 0
M  V30 1248 C 116.811 3.76387 0.0315542 0
M  V30 1249 C 115.958 2.69377 -0.658117 0
M  V30 1250 H 118.909 1.36231 -0.81405 0
M  V30 1251 H 118.93 3.78014 0.43428 0
M  V30 1252 H 118.442 3.62586 -1.38393 0
M  V30 1253 H 116.543 3.56571 1.0811 0
M  V30 1254 H 116.656 4.77731 -0.361935 0
M  V30 1255 H 115.02 2.5452 -0.0957873 0
M  V30 1256 H 115.803 2.97646 -1.7106 0
M  V30 1257 N 118.248 0.346503 1.53744 0
M  V30 1258 C 119.478 -0.250047 2.05081 0
M  V30 1259 C 119.886 -1.44529 1.22098 0
M  V30 1260 O 119.229 -1.81992 0.249917 0
M  V30 1261 C 119.291 -0.725934 3.52094 0
M  V30 1262 C 118.955 0.350053 4.55657 0
M  V30 1263 C 119.952 1.19372 5.0601 0
M  V30 1264 C 117.637 0.504827 4.99757 0
M  V30 1265 C 119.631 2.17768 5.99046 0
M  V30 1266 C 117.318 1.49218 5.92602 0
M  V30 1267 C 118.316 2.32706 6.42135 0
M  V30 1268 O 118.004 3.2976 7.33153 0
M  V30 1269 H 117.736 -0.0515469 0.674032 0
M  V30 1270 H 120.29 0.497559 1.99282 0
M  V30 1271 H 118.52 -1.52483 3.55367 0
M  V30 1272 H 120.209 -1.24336 3.86388 0
M  V30 1273 H 120.975 1.08525 4.72702 0
M  V30 1274 H 116.854 -0.135178 4.60802 0
M  V30 1275 H 120.398 2.82971 6.37631 0
M  V30 1276 H 116.295 1.6012 6.25325 0
M  V30 1277 H 117.063 3.25265 7.51096 0
M  V30 1278 N 119.726 -1.57421 0.075193 0
M  V30 1279 C 120.972 -1.93905 -0.594025 0
M  V30 1280 C 121.305 -0.955701 -1.69056 0
M  V30 1281 O 120.58 0.0145373 -1.94495 0
M  V30 1282 C 120.863 -3.40638 -1.1678 0
M  V30 1283 C 120.716 -4.49733 -0.0776792 0
M  V30 1284 C 122.035 -3.88259 -2.07228 0
M  V30 1285 H 119.154 -0.705105 -0.214466 0
M  V30 1286 H 121.796 -1.8947 0.141854 0
M  V30 1287 H 119.946 -3.44549 -1.79494 0
M  V30 1288 H 121.618 -4.57942 0.555573 0
M  V30 1289 H 119.861 -4.29751 0.591286 0
M  V30 1290 H 120.532 -5.49549 -0.519603 0
M  V30 1291 H 123.008 -3.86376 -1.54445 0
M  V30 1292 H 121.884 -4.91533 -2.44308 0
M  V30 1293 H 122.145 -3.26396 -2.98191 0
M  V30 1294 N 121.204 0.198386 -1.56346 0
M  V30 1295 C 122.45 0.920648 -1.80698 0
M  V30 1296 C 122.783 1.83045 -0.648697 0
M  V30 1297 O 122.058 1.91308 0.350925 0
M  V30 1298 C 122.341 1.73971 -3.15287 0
M  V30 1299 C 122.194 0.85485 -4.41602 0
M  V30 1300 C 123.513 2.71296 -3.46535 0
M  V30 1301 H 120.632 0.333261 -0.657348 0
M  V30 1302 H 123.274 0.188198 -1.89066 0
M  V30 1303 H 121.424 2.36416 -3.08285 0
M  V30 1304 H 123.096 0.245362 -4.60647 0
M  V30 1305 H 121.339 0.161398 -4.335 0
M  V30 1306 H 122.01 1.46286 -5.32264 0
M  V30 1307 H 124.486 2.18983 -3.53816 0
M  V30 1308 H 123.362 3.2569 -4.41834 0
M  V30 1309 H 123.623 3.5018 -2.69864 0
M  V30 1310 N 122.682 1.50554 0.465978 0
M  V30 1311 C 123.629 1.6979 1.56333 0
M  V30 1312 C 124.599 0.539239 1.57103 0
M  V30 1313 O 125.784 0.770401 1.74555 0
M  V30 1314 C 122.924 1.80273 2.94271 0
M  V30 1315 C 122.037 3.07674 3.0325 0
M  V30 1316 C 121.172 3.08922 4.32135 0
M  V30 1317 C 120.211 4.30755 4.34875 0
M  V30 1318 N 119.348 4.29714 5.55239 0
M  V30 1319 H 124.188 2.63472 1.39235 0
M  V30 1320 H 121.725 1.30602 0.676873 0
M  V30 1321 H 123.683 1.84332 3.74269 0
M  V30 1322 H 122.313 0.900258 3.09992 0
M  V30 1323 H 121.365 3.13062 2.16094 0
M  V30 1324 H 122.677 3.97642 3.01135 0
M  V30 1325 H 121.831 3.11738 5.20485 0
M  V30 1326 H 120.57 2.16792 4.36866 0
M  V30 1327 H 119.575 4.28146 3.44922 0
M  V30 1328 H 120.8 5.24117 4.31831 0
M  V30 1329 H 118.746 3.4044 5.60746 0
M  V30 1330 H 118.663 5.13456 5.54886 0
M  V30 1331 H 119.931 4.36683 6.457 0
M  V30 1332 N 124.16 -0.719506 1.40217 0
M  V30 1333 C 125.39 -1.50646 1.41384 0
M  V30 1334 C 125.798 -1.89197 0.0107743 0
M  V30 1335 O 125.141 -1.55709 -0.974708 0
M  V30 1336 C 125.203 -2.81405 2.23722 0
M  V30 1337 C 124.867 -2.65199 3.72181 0
M  V30 1338 C 125.864 -2.32717 4.64907 0
M  V30 1339 C 123.549 -2.81586 4.1595 0
M  V30 1340 C 125.543 -2.16827 5.99387 0
M  V30 1341 C 123.23 -2.65313 5.50502 0
M  V30 1342 C 124.228 -2.32981 6.42035 0
M  V30 1343 O 123.916 -2.16827 7.74107 0
M  V30 1344 H 123.648 -0.471606 0.484318 0
M  V30 1345 H 126.202 -0.895456 1.84853 0
M  V30 1346 H 124.432 -3.44823 1.75026 0
M  V30 1347 H 126.121 -3.43102 2.16878 0
M  V30 1348 H 126.887 -2.19694 4.32388 0
M  V30 1349 H 122.766 -3.0574 3.45027 0
M  V30 1350 H 126.31 -1.91513 6.70797 0
M  V30 1351 H 122.207 -2.7792 5.82607 0
M  V30 1352 H 122.975 -2.31778 7.84998 0
M  V30 1353 N 125.638 -1.25649 -0.95132 0
M  V30 1354 C 126.868 -1.13179 -1.72841 0
M  V30 1355 C 127.276 0.316827 -1.86528 0
M  V30 1356 O 126.619 1.22948 -1.3649 0
M  V30 1357 C 126.681 -1.71644 -3.15878 0
M  V30 1358 C 126.345 -3.20667 -3.25609 0
M  V30 1359 C 127.342 -4.17616 -3.09666 0
M  V30 1360 C 125.027 -3.6094 -3.49324 0
M  V30 1361 C 127.021 -5.52817 -3.17289 0
M  V30 1362 C 124.708 -4.96278 -3.56584 0
M  V30 1363 C 125.706 -5.92025 -3.40581 0
M  V30 1364 O 125.394 -7.24899 -3.47528 0
M  V30 1365 H 125.126 -0.395389 -0.54831 0
M  V30 1366 H 127.68 -1.66566 -1.20187 0
M  V30 1367 H 125.91 -1.12707 -3.69911 0
M  V30 1368 H 127.599 -1.54225 -3.75459 0
M  V30 1369 H 128.365 -3.87842 -2.91211 0
M  V30 1370 H 124.244 -2.86907 -3.6084 0
M  V30 1371 H 127.788 -6.2753 -3.04716 0
M  V30 1372 H 123.685 -5.25716 -3.74556 0
M  V30 1373 H 124.453 -7.33039 -3.64138 0
M  V30 1374 N 127.117 1.15442 -1.07289 0
M  V30 1375 C 128.365 1.85845 -0.794096 0
M  V30 1376 C 128.686 1.82692 0.681809 0
M  V30 1377 O 127.956 1.26741 1.49377 0
M  V30 1378 H 126.536 0.688089 -0.290763 0
M  V30 1379 H 129.198 1.39947 -1.3565 0
M  V30 1380 H 128.294 2.91001 -1.12804 0
M  V30 1381 N 128.595 0.856903 1.32268 0
M  V30 1382 C 129.82 0.474569 2.01897 0
M  V30 1383 C 130.245 -0.921766 1.63967 0
M  V30 1384 O 129.603 -1.60589 0.84148 0
M  V30 1385 C 129.651 0.623799 3.55164 0
M  V30 1386 O 128.755 -0.342459 4.10976 0
M  V30 1387 H 128.096 0.190422 0.63611 0
M  V30 1388 H 130.626 1.15672 1.68764 0
M  V30 1389 H 130.636 0.512169 4.04773 0
M  V30 1390 H 129.311 1.64202 3.82113 0
M  V30 1391 H 127.888 -0.18688 3.72431 0
M  V30 1392 N 130.073 -1.45103 0.615059 0
M  V30 1393 C 131.303 -2.06254 0.119596 0
M  V30 1394 C 131.711 -1.4591 -1.20445 0
M  V30 1395 O 131.054 -0.570384 -1.7462 0
M  V30 1396 C 131.116 -3.59396 -0.0865591 0
M  V30 1397 C 130.78 -4.42116 1.15683 0
M  V30 1398 C 131.777 -4.7662 2.07676 0
M  V30 1399 C 129.462 -4.82749 1.38775 0
M  V30 1400 C 131.456 -5.50622 3.21082 0
M  V30 1401 C 129.143 -5.56504 2.52481 0
M  V30 1402 C 130.141 -5.90358 3.43463 0
M  V30 1403 O 129.829 -6.62615 4.55189 0
M  V30 1404 H 129.561 -0.672423 0.0694512 0
M  V30 1405 H 132.115 -1.87219 0.844885 0
M  V30 1406 H 130.345 -3.76859 -0.866823 0
M  V30 1407 H 132.034 -4.02365 -0.534555 0
M  V30 1408 H 132.8 -4.4578 1.91063 0
M  V30 1409 H 128.679 -4.55829 0.688545 0
M  V30 1410 H 132.223 -5.76965 3.92119 0
M  V30 1411 H 128.12 -5.86759 2.69043 0
M  V30 1412 H 128.888 -6.81071 4.53966 0
M  V30 1413 N 131.551 -0.354651 -1.53558 0
M  V30 1414 C 132.798 0.238443 -2.01091 0
M  V30 1415 C 133.126 1.49663 -1.24222 0
M  V30 1416 O 132.381 1.93049 -0.321003 0
M  V30 1417 C 132.68 0.587121 -3.52545 0
M  V30 1418 C 132.346 -0.575472 -4.47213 0
M  V30 1419 C 131.008 -0.894497 -4.72813 0
M  V30 1420 C 133.36 -1.35489 -5.03281 0
M  V30 1421 C 130.688 -1.99511 -5.51736 0
M  V30 1422 C 133.04 -2.44583 -5.83405 0
M  V30 1423 C 131.704 -2.77033 -6.07296 0
M  V30 1424 H 130.974 0.0872526 -0.735845 0
M  V30 1425 H 133.621 -0.484859 -1.8526 0
M  V30 1426 H 131.926 1.39129 -3.66265 0
M  V30 1427 H 133.623 1.05809 -3.86789 0
M  V30 1428 H 130.213 -0.316774 -4.27428 0
M  V30 1429 H 134.397 -1.12167 -4.83459 0
M  V30 1430 H 129.653 -2.25063 -5.68469 0
M  V30 1431 H 133.827 -3.05401 -6.25862 0
M  V30 1432 H 131.454 -3.6244 -6.68237 0
M  V30 1433 N 133.029 1.57378 -0.0835403 0
M  V30 1434 C 133.976 2.13384 0.879539 0
M  V30 1435 C 134.946 1.04936 1.28754 0
M  V30 1436 O 136.131 1.32662 1.37133 0
M  V30 1437 C 133.271 2.70932 2.13752 0
M  V30 1438 C 132.384 3.93575 1.7811 0
M  V30 1439 C 131.519 4.39326 2.98607 0
M  V30 1440 C 130.558 5.54587 2.59037 0
M  V30 1441 N 129.695 5.95243 3.72331 0
M  V30 1442 H 134.535 2.9537 0.395076 0
M  V30 1443 H 132.072 1.45953 0.183349 0
M  V30 1444 H 134.03 3.02411 2.87408 0
M  V30 1445 H 132.66 1.91693 2.59718 0
M  V30 1446 H 131.712 3.68483 0.94469 0
M  V30 1447 H 133.024 4.77258 1.45005 0
M  V30 1448 H 132.178 4.72528 3.80529 0
M  V30 1449 H 130.917 3.5452 3.34913 0
M  V30 1450 H 129.922 5.21024 1.75539 0
M  V30 1451 H 131.147 6.41133 2.23887 0
M  V30 1452 H 129.093 5.13385 4.08378 0
M  V30 1453 H 129.01 6.73694 3.43034 0
M  V30 1454 H 130.278 6.33072 4.54797 0
M  V30 1455 N 134.507 -0.190092 1.56449 0
M  V30 1456 C 135.455 -1.25501 1.95837 0
M  V30 1457 C 136.449 -1.4685 0.844485 0
M  V30 1458 O 137.655 -1.47651 1.02952 0
M  V30 1459 H 134.03 -0.421447 0.622805 0
M  V30 1460 H 136.001 -0.895821 2.84636 0
M  V30 1461 C 134.75 -2.59124 2.31841 0
M  V30 1462 H 134.073 -2.43514 3.17082 0
M  V30 1463 H 135.513 -3.32371 2.6326 0
M  V30 1464 C 133.972 -3.16488 1.15486 0
M  V30 1465 O 134.502 -3.99365 0.432535 0
M  V30 1466 N 132.708 -2.75305 0.930349 0
M  V30 1467 H 132.255 -2.08013 1.51948 0
M  V30 1468 H 132.213 -3.14024 0.153634 0
M  V30 1469 N 135.985 -1.50799 -0.457987 0
M  V30 1470 C 137.213 -1.66218 -1.23203 0
M  V30 1471 C 137.628 -0.350894 -1.85511 0
M  V30 1472 O 136.985 0.668546 -1.69814 0
M  V30 1473 C 137.036 -2.76291 -2.33121 0
M  V30 1474 O 136.757 -4.02338 -1.73366 0
M  V30 1475 C 138.258 -3.028 -3.2377 0
M  V30 1476 H 135.478 -0.558361 -0.372121 0
M  V30 1477 H 138.022 -1.97099 -0.545179 0
M  V30 1478 H 136.177 -2.48068 -2.97558 0
M  V30 1479 H 136.591 -4.63312 -2.4585 0
M  V30 1480 H 138.065 -3.8345 -3.97077 0
M  V30 1481 H 138.542 -2.14385 -3.83322 0
M  V30 1482 H 139.148 -3.32604 -2.65056 0
M  V30 1483 N 137.463 0.71206 -1.40597 0
M  V30 1484 C 138.74 1.46536 -1.29563 0
M  V30 1485 C 139.12 2.10931 0.0844217 0
M  V30 1486 O 138.468 2.00418 1.0975 0
M  V30 1487 C 138.678 2.49821 -2.43701 0
M  V30 1488 C 140.026 3.15551 -2.841 0
M  V30 1489 O 141.05 2.60142 -2.4332 0
M  V30 1490 O 139.909 4.15867 -3.54566 0
M  V30 1491 H 137.003 0.651801 -0.509004 0
M  V30 1492 H 139.549 0.743935 -1.52524 0
M  V30 1493 H 138.321 2.00778 -3.35863 0
M  V30 1494 H 137.944 3.29495 -2.22528 0
M  V30 1495 N 138.941 1.26152 0.944643 0
M  V30 1496 C 139.871 1.09902 2.06019 0
M  V30 1497 C 140.852 0.00519538 1.70099 0
M  V30 1498 O 142.037 0.176583 1.93396 0
M  V30 1499 C 139.167 0.727562 3.39594 0
M  V30 1500 C 138.121 1.77274 3.89561 0
M  V30 1501 C 137.447 1.25569 5.19747 0
M  V30 1502 C 138.747 3.17357 4.14827 0
M  V30 1503 H 140.441 2.03217 2.19871 0
M  V30 1504 H 137.987 0.978452 1.05652 0
M  V30 1505 H 139.94 0.600777 4.17095 0
M  V30 1506 H 138.664 -0.241287 3.25707 0
M  V30 1507 H 137.323 1.88814 3.14237 0
M  V30 1508 H 136.971 0.276783 5.02238 0
M  V30 1509 H 136.671 1.95433 5.54148 0
M  V30 1510 H 138.195 1.1415 5.99835 0
M  V30 1511 H 139.609 3.08914 4.82954 0
M  V30 1512 H 138.006 3.84781 4.60504 0
M  V30 1513 H 139.076 3.63673 3.20734 0
M  V30 1514 N 140.419 -1.14872 1.07899 0
M  V30 1515 C 141.665 -1.86289 0.81657 0
M  V30 1516 C 142.02 -1.8107 -0.65049 0
M  V30 1517 O 141.313 -1.22684 -1.47171 0
M  V30 1518 C 141.507 -3.34223 1.26609 0
M  V30 1519 C 141.336 -3.53846 2.77531 0
M  V30 1520 C 140.106 -3.68995 3.45212 0
M  V30 1521 C 142.304 -3.51201 3.75716 0
M  V30 1522 N 140.286 -3.76725 4.84718 0
M  V30 1523 C 141.657 -3.65112 5.01092 0
M  V30 1524 C 143.712 -3.34507 3.68794 0
M  V30 1525 C 142.415 -3.64056 6.20368 0
M  V30 1526 C 144.441 -3.34752 4.8754 0
M  V30 1527 C 143.803 -3.49199 6.11751 0
M  V30 1528 H 139.902 -0.698579 0.351443 0
M  V30 1529 H 142.486 -1.37713 1.37634 0
M  V30 1530 H 140.657 -3.81402 0.73395 0
M  V30 1531 H 142.389 -3.93377 0.95062 0
M  V30 1532 H 139.144 -3.70006 2.95622 0
M  V30 1533 H 139.568 -3.8432 5.5734 0
M  V30 1534 H 144.21 -3.22253 2.73702 0
M  V30 1535 H 141.928 -3.75087 7.15776 0
M  V30 1536 H 145.514 -3.23055 4.83866 0
M  V30 1537 H 144.394 -3.49328 7.02097 0
M  V30 1538 N 141.898 -0.863906 -1.31812 0
M  V30 1539 C 143.147 -0.46801 -1.96195 0
M  V30 1540 C 143.46 0.983474 -1.69077 0
M  V30 1541 O 144.666 1.48523 -2.27273 0
M  V30 1542 C 143.122 -0.785995 -3.51212 0
M  V30 1543 C 142.73 -2.25383 -3.87178 0
M  V30 1544 C 144.474 -0.458274 -4.22019 0
M  V30 1545 C 142.381 -2.51455 -5.3528 0
M  V30 1546 H 141.311 -0.171283 -0.734287 0
M  V30 1547 H 143.962 -1.05597 -1.50072 0
M  V30 1548 H 142.344 -0.127359 -3.95795 0
M  V30 1549 H 143.518 -2.95502 -3.53575 0
M  V30 1550 H 141.833 -2.54698 -3.2942 0
M  V30 1551 H 144.43 -0.630369 -5.30971 0
M  V30 1552 H 144.773 0.600834 -4.11941 0
M  V30 1553 H 145.306 -1.07319 -3.8305 0
M  V30 1554 H 142.045 -3.56025 -5.50387 0
M  V30 1555 H 141.565 -1.85923 -5.70257 0
M  V30 1556 H 143.244 -2.35874 -6.02472 0
M  V30 1557 N 143.376 1.44774 -0.622745 0
M  V30 1558 C 144.622 2.0242 -0.124083 0
M  V30 1559 C 144.955 1.4881 1.24777 0
M  V30 1560 O 144.23 0.668799 1.8264 0
M  V30 1561 C 144.513 3.59957 -0.101619 0
M  V30 1562 C 144.366 4.23867 -1.50521 0
M  V30 1563 C 145.685 4.36284 0.578272 0
M  V30 1564 H 142.804 0.735528 -0.0465645 0
M  V30 1565 H 145.446 1.72447 -0.797617 0
M  V30 1566 H 143.596 3.85623 0.471934 0
M  V30 1567 H 145.268 4.09336 -2.12701 0
M  V30 1568 H 143.511 3.81684 -2.06154 0
M  V30 1569 H 144.182 5.32843 -1.4416 0
M  V30 1570 H 146.658 4.16001 0.0906057 0
M  V30 1571 H 145.534 5.46004 0.563149 0
M  V30 1572 H 145.795 4.10271 1.64713 0
M  V30 1573 N 144.854 0.36279 1.53368 0
M  V30 1574 C 145.787 -0.528507 2.21996 0
M  V30 1575 C 146.765 -1.0852 1.21087 0
M  V30 1576 O 147.949 -1.14186 1.4998 0
M  V30 1577 C 145.076 -1.72893 2.91249 0
M  V30 1578 C 144.122 -1.29994 4.06207 0
M  V30 1579 S 144.955 -0.303575 5.34639 0
M  V30 1580 C 146.111 -1.51039 6.07403 0
M  V30 1581 H 146.344 0.0543423 2.9725 0
M  V30 1582 H 143.877 0.146889 1.537 0
M  V30 1583 H 145.835 -2.41751 3.31763 0
M  V30 1584 H 144.496 -2.28303 2.15724 0
M  V30 1585 H 143.689 -2.19549 4.53667 0
M  V30 1586 H 143.291 -0.690608 3.67569 0
M  V30 1587 H 145.583 -2.44186 6.31965 0
M  V30 1588 H 146.526 -1.07721 6.99858 0
M  V30 1589 H 146.934 -1.71518 5.37812 0
M  V30 1590 N 146.332 -1.57332 0.0918853 0
M  V30 1591 C 147.242 -2.17368 -0.882505 0
M  V30 1592 C 148.258 -1.14226 -1.31257 0
M  V30 1593 O 149.434 -1.46582 -1.38115 0
M  V30 1594 C 146.499 -2.73962 -2.12476 0
M  V30 1595 C 145.56 -3.92048 -1.7492 0
M  V30 1596 C 144.793 -4.45933 -2.93223 0
M  V30 1597 O 145.016 -3.98764 -4.07852 0
M  V30 1598 O 143.95 -5.36999 -2.71875 0
M  V30 1599 H 147.776 -3.01031 -0.40172 0
M  V30 1600 H 145.361 -1.48813 -0.132291 0
M  V30 1601 H 147.243 -3.10147 -2.85283 0
M  V30 1602 H 145.918 -1.93347 -2.59613 0
M  V30 1603 H 144.825 -3.6068 -0.993025 0
M  V30 1604 H 146.158 -4.74017 -1.32548 0
M  V30 1605 N 147.81 0.181792 -1.56548 0
M  V30 1606 C 149.04 0.914618 -1.85252 0
M  V30 1607 C 149.448 1.76791 -0.673914 0
M  V30 1608 O 148.791 1.80009 0.366416 0
M  V30 1609 C 148.853 1.85019 -3.08234 0
M  V30 1610 C 148.517 1.17754 -4.41569 0
M  V30 1611 C 149.514 0.548035 -5.17003 0
M  V30 1612 C 147.199 1.17742 -4.88305 0
M  V30 1613 C 149.193 -0.0726128 -6.37359 0
M  V30 1614 C 146.88 0.552946 -6.08593 0
M  V30 1615 C 147.878 -0.070978 -6.82963 0
M  V30 1616 O 147.566 -0.685635 -8.00971 0
M  V30 1617 H 147.298 0.271695 -0.618998 0
M  V30 1618 H 149.852 0.189944 -2.0452 0
M  V30 1619 H 148.082 2.61491 -2.84885 0
M  V30 1620 H 149.771 2.45195 -3.23472 0
M  V30 1621 H 150.537 0.540174 -4.81982 0
M  V30 1622 H 146.416 1.65246 -4.30366 0
M  V30 1623 H 149.96 -0.560213 -6.95347 0
M  V30 1624 H 145.857 0.558354 -6.43081 0
M  V30 1625 H 146.625 -0.58385 -8.16415 0
M  V30 1626 N 149.288 1.51039 0.449983 0
M  V30 1627 C 150.528 1.64732 1.21007 0
M  V30 1628 C 150.892 0.349865 1.88785 0
M  V30 1629 O 152.093 0.362431 2.66345 0
M  V30 1630 C 150.364 2.80902 2.20973 0
M  V30 1631 S 151.923 3.14851 3.05638 0
M  V30 1632 H 148.741 0.5805 0.410538 0
M  V30 1633 H 151.343 1.88901 0.503634 0
M  V30 1634 H 150.047 3.73627 1.69796 0
M  V30 1635 H 149.578 2.58882 2.96215 0
M  V30 1636 H 151.593 2.60306 4.22439 0
M  V30 1637 N 150.766 -0.704594 1.40972 0
M  V30 1638 C 152.014 -1.46169 1.39568 0
M  V30 1639 C 152.335 -1.95 0.00253745 0
M  V30 1640 O 151.605 -1.71095 -0.954114 0
M  V30 1641 H 150.185 -0.542326 0.513704 0
M  V30 1642 H 152.847 -0.834553 1.76128 0
M  V30 1643 H 151.943 -2.32922 2.07735 0
M  V30 1644 N 152.244 -1.26651 -0.937939 0
M  V30 1645 C 153.207 -1.08546 -2.01867 0
M  V30 1646 C 154.207 -0.0327327 -1.60767 0
M  V30 1647 O 155.397 -0.276427 -1.71993 0
M  V30 1648 C 152.529 -0.651711 -3.34613 0
M  V30 1649 H 153.722 -2.04502 -2.1936 0
M  V30 1650 H 151.275 -1.09294 -1.11734 0
M  V30 1651 H 152.01 0.309696 -3.22818 0
M  V30 1652 H 151.795 -1.41189 -3.65798 0
M  V30 1653 H 153.285 -0.546973 -4.14002 0
M  V30 1654 N 153.722 1.14298 -1.08507 0
M  V30 1655 C 154.97 1.84993 -0.813763 0
M  V30 1656 C 155.291 1.83405 0.662393 0
M  V30 1657 O 154.561 1.28319 1.48024 0
M  V30 1658 H 153.141 0.684966 -0.298045 0
M  V30 1659 H 155.803 1.385 -1.37126 0
M  V30 1660 H 154.899 2.89788 -1.15884 0
M  V30 1661 N 155.201 0.870884 1.31352 0
M  V30 1662 C 156.426 0.495957 2.01383 0
M  V30 1663 C 156.851 -0.904324 1.64935 0
M  V30 1664 O 156.209 -1.59687 0.858466 0
M  V30 1665 C 156.257 0.661433 3.54482 0
M  V30 1666 O 155.361 -0.298851 4.11316 0
M  V30 1667 H 154.702 0.197158 0.634054 0
M  V30 1668 H 157.232 1.17455 1.67527 0
M  V30 1669 H 157.242 0.555072 4.04207 0
M  V30 1670 H 155.917 1.68246 3.8035 0
M  V30 1671 H 154.494 -0.147368 3.72609 0
M  V30 1672 N 156.679 -1.44442 0.630414 0
M  V30 1673 C 157.925 -2.02351 0.134816 0
M  V30 1674 C 158.258 -1.4947 -1.23986 0
M  V30 1675 O 157.533 -0.678475 -1.82283 0
M  V30 1676 C 157.816 -3.59898 0.120707 0
M  V30 1677 C 157.669 -4.23063 1.52767 0
M  V30 1678 C 158.988 -4.36585 -0.555127 0
M  V30 1679 H 156.107 -0.73527 0.0504646 0
M  V30 1680 H 158.749 -1.72022 0.806751 0
M  V30 1681 H 156.899 -3.85868 -0.451477 0
M  V30 1682 H 158.571 -4.08202 2.14869 0
M  V30 1683 H 156.814 -3.80586 2.08175 0
M  V30 1684 H 157.485 -5.32071 1.46984 0
M  V30 1685 H 159.961 -4.16044 -0.0685429 0
M  V30 1686 H 158.837 -5.46294 -0.534185 0
M  V30 1687 H 159.098 -4.11138 -1.62535 0
M  V30 1688 N 158.157 -0.370918 -1.53173 0
M  V30 1689 C 159.382 0.220293 -2.06227 0
M  V30 1690 C 159.807 1.41243 -1.24225 0
M  V30 1691 O 159.165 1.79387 -0.262645 0
M  V30 1692 C 159.213 0.586663 -3.55796 0
M  V30 1693 O 158.317 1.68317 -3.76488 0
M  V30 1694 H 157.658 0.0308099 -0.663285 0
M  V30 1695 H 160.188 -0.533068 -1.97534 0
M  V30 1696 H 160.198 0.85617 -3.98916 0
M  V30 1697 H 158.873 -0.285013 -4.14922 0
M  V30 1698 H 157.45 1.40881 -3.45264 0
M  V30 1699 N 159.635 1.57281 -0.100228 0
M  V30 1700 C 160.912 1.86014 0.604812 0
M  V30 1701 C 161.292 0.998025 1.86018 0
M  V30 1702 O 160.64 0.0718184 2.28387 0
M  V30 1703 C 160.85 3.36784 0.915278 0
M  V30 1704 C 162.198 4.04957 1.27651 0
M  V30 1705 O 163.222 3.41695 1.00613 0
M  V30 1706 O 162.081 5.16593 1.7831 0
M  V30 1707 H 159.175 0.76942 0.303185 0
M  V30 1708 H 161.721 1.69176 -0.133313 0
M  V30 1709 H 160.493 3.91292 0.0248896 0
M  V30 1710 H 160.116 3.58987 1.70921 0
M  V30 1711 N 161.113 -0.173488 1.56642 0
M  V30 1712 C 162.362 -0.888758 1.81063 0
M  V30 1713 C 162.675 -1.83506 0.67712 0
M  V30 1714 O 163.881 -2.59254 0.806206 0
M  V30 1715 C 162.337 -1.63091 3.20826 0
M  V30 1716 C 161.945 -0.728357 4.4204 0
M  V30 1717 C 163.689 -2.33454 3.54541 0
M  V30 1718 C 161.596 -1.47062 5.72823 0
M  V30 1719 H 160.526 -0.335618 0.675186 0
M  V30 1720 H 163.177 -0.141712 1.82952 0
M  V30 1721 H 161.559 -2.42263 3.13248 0
M  V30 1722 H 162.733 0.0262449 4.60793 0
M  V30 1723 H 161.048 -0.134492 4.16183 0
M  V30 1724 H 163.645 -2.89578 4.49498 0
M  V30 1725 H 163.988 -3.08687 2.79317 0
M  V30 1726 H 164.521 -1.61227 3.63663 0
M  V30 1727 H 161.26 -0.760658 6.51072 0
M  V30 1728 H 160.78 -2.1986 5.58052 0
M  V30 1729 H 162.459 -2.01868 6.14702 0
M  V30 1730 N 162.591 -1.51276 -0.441967 0
M  V30 1731 C 163.84 -1.6295 -1.18871 0
M  V30 1732 C 164.153 -0.349312 -1.92456 0
M  V30 1733 O 165.359 -0.345355 -2.69295 0
M  V30 1734 C 163.815 -2.87759 -2.16155 0
M  V30 1735 C 163.423 -4.22764 -1.48239 0
M  V30 1736 C 165.167 -3.08788 -2.91291 0
M  V30 1737 C 163.074 -5.38728 -2.4398 0
M  V30 1738 H 162.004 -0.606913 -0.447406 0
M  V30 1739 H 164.655 -1.77739 -0.456205 0
M  V30 1740 H 163.037 -2.66593 -2.92821 0
M  V30 1741 H 164.211 -4.54293 -0.771635 0
M  V30 1742 H 162.526 -4.07575 -0.852741 0
M  V30 1743 H 165.123 -3.92599 -3.63002 0
M  V30 1744 H 165.466 -2.21679 -3.5237 0
M  V30 1745 H 165.999 -3.30272 -2.21733 0
M  V30 1746 H 162.738 -6.28082 -1.87598 0
M  V30 1747 H 162.258 -5.1158 -3.13123 0
M  V30 1748 H 163.937 -5.70489 -3.05207 0
M  V30 1749 N 164.069 0.697108 -1.41344 0
M  V30 1750 C 165.485 1.00751 -1.2378 0
M  V30 1751 C 165.685 2.01105 -0.126066 0
M  V30 1752 O 164.741 2.47295 0.51004 0
M  V30 1753 C 166.054 1.53359 -2.58653 0
M  V30 1754 C 167.602 1.6525 -2.65822 0
M  V30 1755 C 168.077 2.2126 -4.01009 0
M  V30 1756 N 169.568 2.28622 -4.02847 0
M  V30 1757 C 170.303 2.72984 -5.04249 0
M  V30 1758 N 169.799 3.16962 -6.16041 0
M  V30 1759 N 171.592 2.72534 -4.91611 0
M  V30 1760 H 163.743 0.0322662 -2.12375 0
M  V30 1761 H 166.006 0.0768853 -0.944877 0
M  V30 1762 H 165.712 0.870773 -3.4075 0
M  V30 1763 H 165.586 2.51597 -2.81032 0
M  V30 1764 H 167.973 2.30644 -1.84086 0
M  V30 1765 H 168.054 0.655614 -2.47256 0
M  V30 1766 H 167.698 1.56482 -4.83193 0
M  V30 1767 H 167.628 3.21698 -4.16915 0
M  V30 1768 H 170.119 1.97585 -3.22131 0
M  V30 1769 H 170.432 3.49434 -6.89287 0
M  V30 1770 H 168.777 3.14875 -6.1958 0
M  V30 1771 H 171.968 2.37525 -4.0336 0
M  V30 1772 H 172.141 3.06789 -5.70775 0
M  V30 1773 N 165.547 1.27147 0.931209 0
M  V30 1774 C 166.477 1.12081 2.04842 0
M  V30 1775 C 167.458 0.0232364 1.70084 0
M  V30 1776 O 168.643 0.197085 1.93197 0
M  V30 1777 C 165.773 0.76354 3.38803 0
M  V30 1778 C 164.727 1.81396 3.87659 0
M  V30 1779 C 164.053 1.31075 5.18385 0
M  V30 1780 C 165.353 3.21739 4.11438 0
M  V30 1781 H 167.047 2.05537 2.17703 0
M  V30 1782 H 164.593 0.989603 1.04608 0
M  V30 1783 H 166.546 0.644982 4.16435 0
M  V30 1784 H 165.27 -0.206727 3.25945 0
M  V30 1785 H 163.929 1.92136 3.12217 0
M  V30 1786 H 163.577 0.330037 5.01916 0
M  V30 1787 H 163.277 2.013 5.52044 0
M  V30 1788 H 164.801 1.20506 5.98591 0
M  V30 1789 H 166.215 3.14019 4.79651 0
M  V30 1790 H 164.612 3.89644 4.56397 0
M  V30 1791 H 165.682 3.67054 3.16859 0
M  V30 1792 N 167.025 -1.13721 1.09112 0
M  V30 1793 C 168.441 -1.36914 0.820174 0
M  V30 1794 C 168.641 -1.93356 -0.567079 0
M  V30 1795 O 167.697 -2.15093 -1.32255 0
M  V30 1796 C 169.01 -2.3235 1.90877 0
M  V30 1797 C 170.558 -2.45973 1.93562 0
M  V30 1798 C 171.033 -3.44714 3.01556 0
M  V30 1799 N 172.524 -3.52263 3.00775 0
M  V30 1800 C 173.259 -4.28536 3.80978 0
M  V30 1801 N 172.755 -5.07991 4.71081 0
M  V30 1802 N 174.548 -4.23804 3.69251 0
M  V30 1803 H 166.699 -0.754348 1.98553 0
M  V30 1804 H 168.962 -0.3944 0.862063 0
M  V30 1805 H 168.668 -1.98027 2.90651 0
M  V30 1806 H 168.542 -3.32332 1.78424 0
M  V30 1807 H 170.929 -2.79584 0.944286 0
M  V30 1808 H 171.01 -1.45926 2.10093 0
M  V30 1809 H 170.654 -3.11835 4.00901 0
M  V30 1810 H 170.584 -4.44558 2.82269 0
M  V30 1811 H 173.075 -2.95567 2.35475 0
M  V30 1812 H 173.388 -5.63487 5.28869 0
M  V30 1813 H 171.733 -5.07235 4.75119 0
M  V30 1814 H 174.924 -3.60806 2.98222 0
M  V30 1815 H 175.097 -4.82995 4.31995 0
M  V30 1816 N 168.503 -0.877838 -1.30888 0
M  V30 1817 C 169.451 -0.328662 -2.30266 0
M  V30 1818 C 170.445 0.560496 -1.59859 0
M  V30 1819 O 171.651 0.445722 -1.74394 0
M  V30 1820 H 168.026 -0.0876142 -0.746879 0
M  V30 1821 H 169.997 -1.18061 -2.74051 0
M  V30 1822 C 168.746 0.448071 -3.44801 0
M  V30 1823 H 168.069 -0.226859 -3.99156 0
M  V30 1824 H 169.509 0.797541 -4.16432 0
M  V30 1825 C 167.968 1.64239 -2.94155 0
M  V30 1826 O 168.498 2.74175 -2.93583 0
M  V30 1827 N 166.704 1.47716 -2.50256 0
M  V30 1828 H 166.251 0.582821 -2.5092 0
M  V30 1829 H 166.209 2.27765 -2.16727 0
M  V30 1830 N 169.982 1.44106 -0.638065 0
M  V30 1831 C 170.929 2.30715 0.062701 0
M  V30 1832 C 171.899 1.43882 0.829883 0
M  V30 1833 O 173.084 1.72775 0.809532 0
M  V30 1834 C 170.224 3.29258 1.03358 0
M  V30 1835 C 169.337 4.31192 0.26409 0
M  V30 1836 C 168.472 5.16825 1.22741 0
M  V30 1837 C 167.511 6.10462 0.447475 0
M  V30 1838 N 166.648 6.8877 1.36161 0
M  V30 1839 H 171.488 2.90096 -0.681781 0
M  V30 1840 H 169.025 1.42925 -0.347988 0
M  V30 1841 H 170.983 3.84886 1.60992 0
M  V30 1842 H 169.613 2.71562 1.74511 0
M  V30 1843 H 168.665 3.77981 -0.428295 0
M  V30 1844 H 169.977 4.97619 -0.343052 0
M  V30 1845 H 169.131 5.77004 1.87487 0
M  V30 1846 H 167.87 4.50488 1.86847 0
M  V30 1847 H 166.875 5.49386 -0.213433 0
M  V30 1848 H 168.1 6.78837 -0.188968 0
M  V30 1849 H 166.046 6.25096 1.98975 0
M  V30 1850 H 165.963 7.51663 0.808656 0
M  V30 1851 H 167.231 7.53467 1.99769 0
M  V30 1852 N 171.46 0.379036 1.52974 0
M  V30 1853 C 172.688 -0.20679 2.05864 0
M  V30 1854 C 173.103 -1.41356 1.25155 0
M  V30 1855 O 172.46 -1.8009 0.295588 0
M  V30 1856 C 172.511 -0.587045 3.56702 0
M  V30 1857 O 172.232 0.571776 4.34353 0
M  V30 1858 C 173.733 -1.22983 4.25899 0
M  V30 1859 H 170.953 -0.0336123 0.670158 0
M  V30 1860 H 173.497 0.541298 1.97206 0
M  V30 1861 H 171.652 -1.28504 3.65466 0
M  V30 1862 H 172.066 0.261544 5.23847 0
M  V30 1863 H 173.54 -1.44635 5.32715 0
M  V30 1864 H 174.017 -2.19416 3.80465 0
M  V30 1865 H 174.623 -0.572892 4.21424 0
M  V30 1866 N 172.938 -1.57226 0.108567 0
M  V30 1867 C 173.868 -2.17778 -0.84232 0
M  V30 1868 C 174.849 -1.11487 -1.2847 0
M  V30 1869 O 176.034 -1.39681 -1.34918 0
M  V30 1870 C 173.164 -2.76888 -2.09644 0
M  V30 1871 C 172.118 -3.88669 -1.79221 0
M  V30 1872 C 171.444 -4.34541 -3.11574 0
M  V30 1873 C 172.744 -5.11251 -1.06864 0
M  V30 1874 H 174.438 -2.97489 -0.337774 0
M  V30 1875 H 171.984 -1.43097 -0.161025 0
M  V30 1876 H 173.937 -3.17904 -2.76614 0
M  V30 1877 H 172.661 -1.94451 -2.62405 0
M  V30 1878 H 171.32 -3.48213 -1.14644 0
M  V30 1879 H 170.968 -3.48977 -3.62249 0
M  V30 1880 H 170.668 -5.09914 -2.91996 0
M  V30 1881 H 172.192 -4.782 -3.7968 0
M  V30 1882 H 173.606 -5.49352 -1.63968 0
M  V30 1883 H 172.003 -5.9214 -0.974178 0
M  V30 1884 H 173.073 -4.8487 -0.0536168 0
M  V30 1885 N 174.416 0.165178 -1.56732 0
M  V30 1886 C 175.665 0.879143 -1.81532 0
M  V30 1887 C 175.978 1.83144 -0.686842 0
M  V30 1888 O 177.184 2.58823 -0.819944 0
M  V30 1889 C 175.64 1.61388 -3.21686 0
M  V30 1890 C 175.248 0.704904 -4.4242 0
M  V30 1891 C 176.992 2.3157 -3.55774 0
M  V30 1892 C 174.899 1.44022 -5.73595 0
M  V30 1893 H 173.829 0.332033 -0.676957 0
M  V30 1894 H 176.48 0.132008 -1.83025 0
M  V30 1895 H 174.862 2.40599 -3.14529 0
M  V30 1896 H 176.036 -0.0506815 -4.60772 0
M  V30 1897 H 174.351 0.112419 -4.16248 0
M  V30 1898 H 176.948 2.8719 -4.51028 0
M  V30 1899 H 177.291 3.07201 -2.8095 0
M  V30 1900 H 177.824 1.59297 -3.64513 0
M  V30 1901 H 174.563 0.72612 -6.51466 0
M  V30 1902 H 174.083 2.16898 -5.5921 0
M  V30 1903 H 175.762 1.98606 -6.15764 0
M  V30 1904 N 175.894 1.51508 0.433938 0
M  V30 1905 C 176.804 1.75917 1.5521 0
M  V30 1906 C 177.82 0.643545 1.61662 0
M  V30 1907 O 178.996 0.926183 1.7884 0
M  V30 1908 C 176.061 1.88213 2.91164 0
M  V30 1909 C 175.122 3.12074 2.94802 0
M  V30 1910 C 174.355 3.23774 4.24271 0
M  V30 1911 O 174.578 2.4133 5.16833 0
M  V30 1912 O 173.512 4.16774 4.34262 0
M  V30 1913 H 177.338 2.70777 1.37527 0
M  V30 1914 H 174.923 1.36051 0.617293 0
M  V30 1915 H 176.805 1.98267 3.71845 0
M  V30 1916 H 175.48 0.965413 3.08968 0
M  V30 1917 H 174.387 3.07497 2.13065 0
M  V30 1918 H 175.72 4.03446 2.81943 0
M  V30 1919 N 177.372 -0.689602 1.41712 0
M  V30 1920 C 178.649 -1.44457 1.31877 0
M  V30 1921 C 179.029 -2.11039 -0.0508537 0
M  V30 1922 O 178.377 -2.02138 -1.06547 0
M  V30 1923 C 178.587 -2.45913 2.47645 0
M  V30 1924 C 179.935 -3.10991 2.89084 0
M  V30 1925 O 180.959 -2.56238 2.47428 0
M  V30 1926 O 179.818 -4.10174 3.61137 0
M  V30 1927 H 176.912 -0.64362 0.519309 0
M  V30 1928 H 179.458 -0.719576 1.53689 0
M  V30 1929 H 178.23 -1.95409 3.39015 0
M  V30 1930 H 177.853 -3.25913 2.27742 0
M  V30 1931 N 178.85 -1.27639 -0.924453 0
M  V30 1932 C 179.76 -1.12466 -2.05885 0
M  V30 1933 C 180.776 -0.053869 -1.73917 0
M  V30 1934 O 181.952 -0.261012 -1.99702 0
M  V30 1935 C 179.017 -0.776768 -3.37886 0
M  V30 1936 C 178.078 -1.92878 -3.83532 0
M  V30 1937 C 177.311 -1.59739 -5.09234 0
M  V30 1938 O 177.534 -0.506782 -5.68144 0
M  V30 1939 O 176.468 -2.43761 -5.50331 0
M  V30 1940 H 180.294 -2.07671 -2.21599 0
M  V30 1941 H 177.879 -1.06857 -1.04413 0
M  V30 1942 H 179.761 -0.596229 -4.17161 0
M  V30 1943 H 178.436 0.145732 -3.23372 0
M  V30 1944 H 177.343 -2.1644 -3.0513 0
M  V30 1945 H 178.676 -2.8316 -4.02593 0
M  V30 1946 N 180.328 1.1314 -1.09713 0
M  V30 1947 C 181.577 1.83838 -0.829851 0
M  V30 1948 C 181.89 1.84599 0.646728 0
M  V30 1949 O 183.096 2.51218 1.02965 0
M  V30 1950 C 181.552 3.30069 -1.43466 0
M  V30 1951 C 181.16 3.37688 -2.94399 0
M  V30 1952 C 182.904 4.05788 -1.24645 0
M  V30 1953 C 180.811 4.78209 -3.47952 0
M  V30 1954 H 179.741 0.68877 -0.306777 0
M  V30 1955 H 182.392 1.27448 -1.3202 0
M  V30 1956 H 180.774 3.8628 -0.871996 0
M  V30 1957 H 181.948 2.91456 -3.56918 0
M  V30 1958 H 180.263 2.75436 -3.12289 0
M  V30 1959 H 182.86 5.09535 -1.62107 0
M  V30 1960 H 183.203 4.15878 -0.187357 0
M  V30 1961 H 183.736 3.55915 -1.77678 0
M  V30 1962 H 180.475 4.73311 -4.53495 0
M  V30 1963 H 179.995 5.24924 -2.90198 0
M  V30 1964 H 181.674 5.47133 -3.45332 0
M  V30 1965 N 181.806 0.884767 1.30421 0
M  V30 1966 C 182.769 0.356277 2.26414 0
M  V30 1967 C 183.769 -0.501124 1.52792 0
M  V30 1968 O 184.959 -0.30831 1.7145 0
M  V30 1969 C 182.091 -0.492316 3.37326 0
M  V30 1970 H 183.284 1.20389 2.74675 0
M  V30 1971 H 180.837 0.661607 1.41607 0
M  V30 1972 H 181.572 -1.36052 2.94381 0
M  V30 1973 H 181.357 0.121832 3.91911 0
M  V30 1974 H 182.847 -0.853871 4.08777 0
M  V30 1975 N 183.284 -1.43765 0.645699 0
M  V30 1976 C 184.512 -2.06253 0.163556 0
M  V30 1977 C 184.927 -1.48352 -1.16778 0
M  V30 1978 O 184.284 -0.611932 -1.71935 0
M  V30 1979 C 184.335 -3.61453 0.0583186 0
M  V30 1980 O 184.056 -4.172 1.33702 0
M  V30 1981 C 185.557 -4.41002 -0.450795 0
M  V30 1982 H 182.777 -0.665413 0.0864077 0
M  V30 1983 H 185.321 -1.84396 0.884222 0
M  V30 1984 H 183.476 -3.82522 -0.612865 0
M  V30 1985 H 183.89 -5.10791 1.19131 0
M  V30 1986 H 185.364 -5.49966 -0.473403 0
M  V30 1987 H 185.841 -4.13488 -1.48068 0
M  V30 1988 H 186.447 -4.24886 0.187637 0
M  V30 1989 N 184.763 -0.387143 -1.52771 0
M  V30 1990 C 186.012 0.19697 -2.00736 0
M  V30 1991 C 186.325 1.48082 -1.27793 0
M  V30 1992 O 187.531 2.14485 -1.66458 0
M  V30 1993 C 185.987 0.401568 -3.57653 0
M  V30 1994 C 185.595 -0.868907 -4.39493 0
M  V30 1995 C 187.339 0.942164 -4.13912 0
M  V30 1996 C 185.246 -0.632705 -5.88006 0
M  V30 1997 H 184.176 0.0773827 -0.750019 0
M  V30 1998 H 186.827 -0.50921 -1.76293 0
M  V30 1999 H 185.209 1.16954 -3.78335 0
M  V30 2000 H 186.383 -1.64133 -4.30577 0
M  V30 2001 H 184.698 -1.33429 -3.94443 0
M  V30 2002 H 187.295 1.13455 -5.22525 0
M  V30 2003 H 187.638 1.9106 -3.69867 0
M  V30 2004 H 188.171 0.233814 -3.97112 0
M  V30 2005 H 184.91 -1.57208 -6.36369 0
M  V30 2006 H 184.43 0.100825 -5.99715 0
M  V30 2007 H 186.109 -0.26642 -6.46451 0
M  V30 2008 N 186.241 1.57166 -0.116904 0
M  V30 2009 C 187.171 2.18222 0.830759 0
M  V30 2010 C 188.152 1.12167 1.27877 0
M  V30 2011 O 189.337 1.40394 1.34176 0
M  V30 2012 C 186.467 2.77996 2.08172 0
M  V30 2013 C 185.421 3.89614 1.77157 0
M  V30 2014 C 184.747 4.36187 3.09265 0
M  V30 2015 C 186.047 5.1181 1.04151 0
M  V30 2016 H 187.741 2.97664 0.321992 0
M  V30 2017 H 185.287 1.4318 0.153434 0
M  V30 2018 H 187.24 3.19366 2.74924 0
M  V30 2019 H 185.964 1.9584 2.6137 0
M  V30 2020 H 184.623 3.48816 1.12796 0
M  V30 2021 H 184.271 3.50893 3.60393 0
M  V30 2022 H 183.971 5.11455 2.89288 0
M  V30 2023 H 185.495 4.80207 3.77139 0
M  V30 2024 H 186.909 5.50214 1.61052 0
M  V30 2025 H 185.306 5.92648 0.942762 0
M  V30 2026 H 186.376 4.84892 0.0279022 0
M  V30 2027 N 187.719 -0.156864 1.56817 0
M  V30 2028 C 188.666 -1.19394 1.97519 0
M  V30 2029 C 189.636 -1.4322 0.841265 0
M  V30 2030 O 190.821 -1.55719 1.10255 0
M  V30 2031 C 187.961 -2.52483 2.35258 0
M  V30 2032 C 187.074 -2.35914 3.61896 0
M  V30 2033 C 186.209 -3.61969 3.88782 0
M  V30 2034 C 185.248 -3.40395 5.08722 0
M  V30 2035 N 184.385 -4.58556 5.31668 0
M  V30 2036 H 189.225 -0.839845 2.85921 0
M  V30 2037 H 186.762 -0.403264 1.41464 0
M  V30 2038 H 188.72 -3.30071 2.55165 0
M  V30 2039 H 187.35 -2.85859 1.49949 0
M  V30 2040 H 186.402 -1.49429 3.49821 0
M  V30 2041 H 187.714 -2.15926 4.49641 0
M  V30 2042 H 186.868 -4.47989 4.09135 0
M  V30 2043 H 185.607 -3.84951 2.9944 0
M  V30 2044 H 184.612 -2.52763 4.88253 0
M  V30 2045 H 185.837 -3.18822 5.99608 0
M  V30 2046 H 183.783 -4.81729 4.45279 0
M  V30 2047 H 183.7 -4.41535 6.13664 0
M  V30 2048 H 184.968 -5.45817 5.5651 0
M  V30 2049 N 189.197 -1.51736 -0.425897 0
M  V30 2050 C 190.422 -1.69082 -1.20108 0
M  V30 2051 C 190.847 -0.392398 -1.83962 0
M  V30 2052 O 190.205 0.64858 -1.69302 0
M  V30 2053 C 190.253 -2.81604 -2.25237 0
M  V30 2054 O 189.357 -2.46004 -3.30992 0
M  V30 2055 H 188.698 -0.563408 -0.35138 0
M  V30 2056 H 191.228 -1.98358 -0.501512 0
M  V30 2057 H 191.238 -3.06025 -2.69838 0
M  V30 2058 H 189.913 -3.75817 -1.78142 0
M  V30 2059 H 188.49 -2.32195 -2.91787 0
M  V30 2060 N 190.675 0.682077 -1.42076 0
M  V30 2061 C 191.903 1.47057 -1.4554 0
M  V30 2062 C 192.318 1.8869 -0.0645779 0
M  V30 2063 O 191.675 1.57666 0.919115 0
M  V30 2064 C 191.726 2.72442 -2.37609 0
M  V30 2065 O 191.447 2.32559 -3.71279 0
M  V30 2066 C 192.948 3.66069 -2.50017 0
M  V30 2067 H 190.168 0.452737 -0.495248 0
M  V30 2068 H 192.712 0.838695 -1.8651 0
M  V30 2069 H 190.867 3.31835 -1.9991 0
M  V30 2070 H 191.281 3.13475 -4.20516 0
M  V30 2071 H 192.755 4.50792 -3.18576 0
M  V30 2072 H 193.232 4.11476 -1.53572 0
M  V30 2073 H 193.838 3.12572 -2.88407 0
M  V30 2074 N 192.153 1.28127 0.917671 0
M  V30 2075 C 193.083 1.14248 2.03641 0
M  V30 2076 C 194.064 0.0412748 1.7005 0
M  V30 2077 O 195.249 0.217566 1.92977 0
M  V30 2078 C 192.379 0.799431 3.37974 0
M  V30 2079 C 191.333 1.85497 3.85713 0
M  V30 2080 C 190.659 1.36565 5.16966 0
M  V30 2081 C 191.959 3.26085 4.08002 0
M  V30 2082 H 193.653 2.07835 2.15511 0
M  V30 2083 H 191.199 1.00064 1.03553 0
M  V30 2084 H 193.152 0.689114 4.15727 0
M  V30 2085 H 191.876 -0.172145 3.26146 0
M  V30 2086 H 190.535 1.95437 3.10161 0
M  V30 2087 H 190.183 0.383253 5.01538 0
M  V30 2088 H 189.883 2.07143 5.49878 0
M  V30 2089 H 191.407 1.26848 5.97279 0
M  V30 2090 H 192.821 3.19089 4.76293 0
M  V30 2091 H 191.218 3.94462 4.52238 0
M  V30 2092 H 192.288 3.70394 3.12948 0
M  V30 2093 N 193.631 -1.12557 1.10312 0
M  V30 2094 C 194.578 -2.18247 0.750781 0
M  V30 2095 C 195.548 -1.63853 -0.272293 0
M  V30 2096 O 196.733 -1.90195 -0.151862 0
M  V30 2097 C 193.873 -3.44591 0.187379 0
M  V30 2098 C 192.986 -4.13046 1.2656 0
M  V30 2099 C 192.121 -5.27034 0.663978 0
M  V30 2100 C 191.16 -5.87353 1.72287 0
M  V30 2101 N 190.297 -6.92757 1.1416 0
M  V30 2102 H 195.137 -2.47732 1.65628 0
M  V30 2103 H 192.674 -1.21629 0.827337 0
M  V30 2104 H 194.632 -4.16904 -0.157148 0
M  V30 2105 H 193.262 -3.15527 -0.681355 0
M  V30 2106 H 192.314 -3.38924 1.72727 0
M  V30 2107 H 193.626 -4.53947 2.06721 0
M  V30 2108 H 192.78 -6.06104 0.268824 0
M  V30 2109 H 191.519 -4.87407 -0.169082 0
M  V30 2110 H 190.524 -5.06971 2.12746 0
M  V30 2111 H 191.749 -6.29051 2.55875 0
M  V30 2112 H 189.695 -6.5517 0.329984 0
M  V30 2113 H 189.612 -7.3225 1.88007 0
M  V30 2114 H 190.88 -7.75658 0.772956 0
M  V30 2115 N 195.109 -0.891671 -1.2995 0
M  V30 2116 C 196.357 -0.512486 -1.95494 0
M  V30 2117 C 196.678 0.942776 -1.70695 0
M  V30 2118 O 195.948 1.66374 -1.03424 0
M  V30 2119 H 194.528 -0.186533 -0.723336 0
M  V30 2120 H 197.19 -1.13621 -1.58355 0
M  V30 2121 H 196.286 -0.688342 -3.04415 0
M  V30 2122 N 196.587 1.43421 -0.653314 0
M  V30 2123 C 197.517 2.33487 0.0246656 0
M  V30 2124 C 198.498 1.49475 0.811863 0
M  V30 2125 O 199.683 1.78139 0.773322 0
M  V30 2126 C 196.813 3.32841 0.99166 0
M  V30 2127 C 195.767 4.26842 0.314568 0
M  V30 2128 C 195.093 5.16236 1.39302 0
M  V30 2129 C 196.393 5.16243 -0.793095 0
M  V30 2130 H 198.087 2.90427 -0.727481 0
M  V30 2131 H 195.633 1.39649 -0.351287 0
M  V30 2132 H 197.586 3.94747 1.47487 0
M  V30 2133 H 196.31 2.74158 1.77497 0
M  V30 2134 H 194.969 3.663 -0.148199 0
M  V30 2135 H 194.617 4.53891 2.16776 0
M  V30 2136 H 194.317 5.79948 0.945223 0
M  V30 2137 H 195.841 5.81015 1.87759 0
M  V30 2138 H 197.255 5.71958 -0.392039 0
M  V30 2139 H 195.652 5.88676 -1.16536 0
M  V30 2140 H 196.722 4.55927 -1.65103 0
M  V30 2141 N 198.065 0.39524 1.52563 0
M  V30 2142 C 198.975 -0.444232 2.30356 0
M  V30 2143 C 199.991 -1.06615 1.37511 0
M  V30 2144 O 201.167 -1.07067 1.70583 0
M  V30 2145 C 198.232 -1.55315 3.09964 0
M  V30 2146 C 197.293 -0.955734 4.18526 0
M  V30 2147 C 196.526 -2.01181 4.9433 0
M  V30 2148 O 196.749 -3.22781 4.70285 0
M  V30 2149 O 195.683 -1.62579 5.79527 0
M  V30 2150 H 199.509 0.189667 3.03107 0
M  V30 2151 H 197.094 0.1588 1.48554 0
M  V30 2152 H 198.976 -2.19724 3.59582 0
M  V30 2153 H 197.651 -2.17191 2.4002 0
M  V30 2154 H 196.558 -0.274743 3.7309 0
M  V30 2155 H 197.891 -0.381109 4.90722 0
M  V30 2156 N 199.544 -1.57102 0.125237 0
M  V30 2157 C 200.774 -1.99472 -0.538015 0
M  V30 2158 C 201.182 -1.00395 -1.60366 0
M  V30 2159 O 200.525 0.0103875 -1.83697 0
M  V30 2160 C 200.587 -3.38262 -1.21734 0
M  V30 2161 C 200.251 -4.56021 -0.298897 0
M  V30 2162 C 201.248 -5.17817 0.464943 0
M  V30 2163 C 198.933 -5.01869 -0.208149 0
M  V30 2164 C 200.927 -6.23852 1.3072 0
M  V30 2165 C 198.614 -6.07763 0.637736 0
M  V30 2166 C 199.612 -6.68622 1.39403 0
M  V30 2167 O 199.3 -7.7247 2.22586 0
M  V30 2168 H 199.032 -0.659934 -0.146501 0
M  V30 2169 H 201.586 -2.04321 0.210267 0
M  V30 2170 H 199.816 -3.30185 -2.01282 0
M  V30 2171 H 201.505 -3.6488 -1.77813 0
M  V30 2172 H 202.271 -4.83308 0.404741 0
M  V30 2173 H 198.15 -4.54241 -0.786522 0
M  V30 2174 H 201.694 -6.71284 1.898 0
M  V30 2175 H 197.591 -6.41701 0.699309 0
M  V30 2176 H 198.359 -7.89595 2.15596 0
M  V30 2177 N 201.022 0.148545 -1.56898 0
M  V30 2178 C 201.952 1.18524 -2.01182 0
M  V30 2179 C 202.933 1.4489 -0.891123 0
M  V30 2180 O 204.118 1.55836 -1.15882 0
M  V30 2181 C 201.248 2.51879 -2.39112 0
M  V30 2182 C 200.202 2.40038 -3.54353 0
M  V30 2183 C 199.528 3.78089 -3.78091 0
M  V30 2184 C 200.828 1.88577 -4.87069 0
M  V30 2185 H 202.522 0.817029 -2.88036 0
M  V30 2186 H 200.068 0.391575 -1.38574 0
M  V30 2187 H 202.021 3.24627 -2.68692 0
M  V30 2188 H 200.745 2.90532 -1.49193 0
M  V30 2189 H 199.404 1.69742 -3.24936 0
M  V30 2190 H 199.052 4.14175 -2.85426 0
M  V30 2191 H 198.752 3.71028 -4.55645 0
M  V30 2192 H 200.276 4.52387 -4.10095 0
M  V30 2193 H 201.69 2.51117 -5.15377 0
M  V30 2194 H 200.087 1.9241 -5.68417 0
M  V30 2195 H 201.157 0.84136 -4.77545 0
M  V30 2196 N 202.5 1.5196 0.417844 0
M  V30 2197 C 203.45 1.7106 1.5074 0
M  V30 2198 C 204.434 0.564487 1.50673 0
M  V30 2199 O 205.626 0.821206 1.56797 0
M  V30 2200 C 202.755 1.85677 2.88754 0
M  V30 2201 C 201.841 3.06133 2.93502 0
M  V30 2202 N 202.232 4.28987 2.67962 0
M  V30 2203 C 200.53 3.05787 3.24669 0
M  V30 2204 C 201.231 5.10395 2.79055 0
M  V30 2205 N 200.207 4.45455 3.11561 0
M  V30 2206 H 204.009 2.63696 1.29775 0
M  V30 2207 H 201.523 1.49873 0.625436 0
M  V30 2208 H 203.52 1.97475 3.67164 0
M  V30 2209 H 202.18 0.942348 3.10725 0
M  V30 2210 H 203.191 4.57607 2.4252 0
M  V30 2211 H 199.868 2.2405 3.52289 0
M  V30 2212 H 201.258 6.18247 2.63097 0
M  V30 2213 N 203.978 -0.674533 1.42435 0
M  V30 2214 C 205.225 -1.43459 1.42919 0
M  V30 2215 C 205.553 -1.94446 0.0457312 0
M  V30 2216 O 204.808 -1.7132 -0.94593 0
M  V30 2217 C 205.107 -2.64767 2.40069 0
M  V30 2218 C 204.773 -2.3232 3.86443 0
M  V30 2219 C 203.435 -2.23182 4.26314 0
M  V30 2220 C 205.787 -2.05977 4.78773 0
M  V30 2221 C 203.115 -1.85827 5.56494 0
M  V30 2222 C 205.467 -1.70125 6.09295 0
M  V30 2223 C 204.131 -1.59498 6.48164 0
M  V30 2224 H 203.401 -0.524952 0.522978 0
M  V30 2225 H 206.048 -0.769097 1.75377 0
M  V30 2226 H 204.353 -3.36349 2.00939 0
M  V30 2227 H 206.05 -3.22949 2.37707 0
M  V30 2228 H 202.64 -2.40334 3.54877 0
M  V30 2229 H 206.824 -2.11969 4.48757 0
M  V30 2230 H 202.08 -1.76168 5.8547 0
M  V30 2231 H 206.254 -1.48767 6.80324 0
M  V30 2232 H 203.881 -1.30322 7.48946 0
M  V30 2233 N 205.456 -1.28612 -0.910864 0
M  V30 2234 C 206.389 -1.07109 -2.01502 0
M  V30 2235 C 207.367 0.013706 -1.62594 0
M  V30 2236 O 208.551 -0.134796 -1.88017 0
M  V30 2237 C 205.678 -0.628255 -3.32822 0
M  V30 2238 C 204.724 -1.71012 -3.90714 0
M  V30 2239 S 205.557 -3.30676 -4.21205 0
M  V30 2240 C 206.713 -2.88234 -5.55583 0
M  V30 2241 H 206.946 -2.00591 -2.19432 0
M  V30 2242 H 204.479 -1.12633 -1.05609 0
M  V30 2243 H 206.437 -0.37946 -4.08742 0
M  V30 2244 H 205.098 0.28678 -3.12788 0
M  V30 2245 H 204.291 -1.35195 -4.85529 0
M  V30 2246 H 203.893 -1.91186 -3.21441 0
M  V30 2247 H 206.185 -2.34584 -6.35591 0
M  V30 2248 H 207.128 -3.81857 -5.96314 0
M  V30 2249 H 207.536 -2.26862 -5.16908 0
M  V30 2250 N 206.934 1.1197 -1.10907 0
M  V30 2251 C 208.35 1.35591 -0.841852 0
M  V30 2252 C 208.55 1.94233 0.536246 0
M  V30 2253 O 207.606 2.1717 1.28816 0
M  V30 2254 C 208.919 2.29284 -1.94549 0
M  V30 2255 C 210.467 2.42862 -1.97451 0
M  V30 2256 C 210.942 3.39873 -3.07002 0
M  V30 2257 N 212.433 3.47433 -3.06341 0
M  V30 2258 C 213.168 4.22421 -3.87748 0
M  V30 2259 N 212.664 5.00432 -4.79103 0
M  V30 2260 N 214.457 4.17876 -3.75946 0
M  V30 2261 H 206.608 0.722664 -1.99728 0
M  V30 2262 H 208.871 0.380635 -0.868229 0
M  V30 2263 H 208.577 1.93378 -2.93765 0
M  V30 2264 H 208.451 3.29452 -1.83688 0
M  V30 2265 H 210.838 2.78046 -0.988645 0
M  V30 2266 H 210.919 1.42566 -2.12388 0
M  V30 2267 H 210.563 3.05417 -4.05811 0
M  V30 2268 H 210.493 4.40011 -2.89306 0
M  V30 2269 H 212.984 2.91784 -2.40147 0
M  V30 2270 H 213.297 5.55002 -5.37766 0
M  V30 2271 H 211.642 4.99612 -4.83128 0
M  V30 2272 H 214.833 3.56016 -3.03924 0
M  V30 2273 H 215.006 4.76061 -4.39624 0
M  V30 2274 N 208.412 0.89855 1.29475 0
M  V30 2275 C 209.359 0.373819 2.27753 0
M  V30 2276 C 210.329 -0.543444 1.56958 0
M  V30 2277 O 211.514 -0.468934 1.84948 0
M  V30 2278 C 208.654 -0.393648 3.42848 0
M  V30 2279 C 207.767 0.554379 4.28428 0
M  V30 2280 C 206.902 -0.230026 5.30702 0
M  V30 2281 C 205.941 0.712599 6.07938 0
M  V30 2282 N 205.078 -0.0373283 7.0209 0
M  V30 2283 H 209.918 1.21699 2.72017 0
M  V30 2284 H 207.455 0.611456 1.33789 0
M  V30 2285 H 209.413 -0.85466 4.08352 0
M  V30 2286 H 208.043 -1.20128 2.99615 0
M  V30 2287 H 207.095 1.13391 3.63107 0
M  V30 2288 H 208.407 1.27597 4.82204 0
M  V30 2289 H 207.561 -0.752288 6.02018 0
M  V30 2290 H 206.3 -0.984758 4.77654 0
M  V30 2291 H 205.305 1.24637 5.35486 0
M  V30 2292 H 206.53 1.46664 6.63074 0
M  V30 2293 H 204.476 -0.774348 6.51414 0
M  V30 2294 H 204.393 0.624374 7.53417 0
M  V30 2295 H 205.661 -0.539891 7.77628 0
M  V30 2296 N 209.89 -1.43072 0.660911 0
M  V30 2297 C 211.139 -2.00942 0.174735 0
M  V30 2298 C 211.452 -1.52797 -1.22117 0
M  V30 2299 O 212.658 -2.02991 -1.80297 0
M  V30 2300 C 211.114 -3.58948 0.261559 0
M  V30 2301 C 210.722 -4.16085 1.66064 0
M  V30 2302 C 212.466 -4.24173 -0.166617 0
M  V30 2303 C 210.373 -5.6641 1.70098 0
M  V30 2304 H 209.303 -0.751483 0.0615631 0
M  V30 2305 H 211.954 -1.63955 0.824069 0
M  V30 2306 H 210.336 -3.93372 -0.455421 0
M  V30 2307 H 211.51 -3.93147 2.40359 0
M  V30 2308 H 209.825 -3.6326 2.03546 0
M  V30 2309 H 212.422 -5.34471 -0.156433 0
M  V30 2310 H 212.765 -3.98647 -1.19943 0
M  V30 2311 H 213.298 -3.94659 0.498875 0
M  V30 2312 H 210.037 -5.96715 2.71315 0
M  V30 2313 H 209.557 -5.91382 1.00139 0
M  V30 2314 H 211.236 -6.30585 1.44816 0
M  V30 2315 N 211.368 -0.403325 -1.52352 0
M  V30 2316 C 212.318 0.442244 -2.2367 0
M  V30 2317 C 213.302 1.01823 -1.24583 0
M  V30 2318 O 214.494 0.942005 -1.49851 0
M  V30 2319 C 211.623 1.5615 -3.05732 0
M  V30 2320 C 210.709 0.996575 -4.12225 0
M  V30 2321 N 211.1 0.157804 -5.05554 0
M  V30 2322 C 209.398 1.26767 -4.27605 0
M  V30 2323 C 210.099 -0.155853 -5.81491 0
M  V30 2324 N 209.075 0.451775 -5.41719 0
M  V30 2325 H 212.877 -0.204964 -2.93184 0
M  V30 2326 H 210.391 -0.213418 -1.60992 0
M  V30 2327 H 212.388 2.17981 -3.55373 0
M  V30 2328 H 211.048 2.21139 -2.37755 0
M  V30 2329 H 212.059 -0.206049 -5.1749 0
M  V30 2330 H 208.736 1.91757 -3.70858 0
M  V30 2331 H 210.126 -0.836329 -6.66675 0
M  V30 2332 N 212.846 1.57033 -0.133567 0
M  V30 2333 C 214.262 1.58035 0.222944 0
M  V30 2334 C 214.462 1.14713 1.6566 0
M  V30 2335 O 213.518 0.841218 2.38075 0
M  V30 2336 C 214.831 3.00691 -0.0236116 0
M  V30 2337 C 216.379 3.12973 0.0411512 0
M  V30 2338 C 216.854 4.57654 -0.177899 0
M  V30 2339 N 218.345 4.63033 -0.124365 0
M  V30 2340 C 219.08 5.72771 -0.268553 0
M  V30 2341 N 218.576 6.91206 -0.46972 0
M  V30 2342 N 220.369 5.61718 -0.2071 0
M  V30 2343 H 212.52 1.8349 -1.06981 0
M  V30 2344 H 214.783 0.848677 -0.422436 0
M  V30 2345 H 214.489 3.36726 -1.0153 0
M  V30 2346 H 214.363 3.70614 0.701808 0
M  V30 2347 H 216.75 2.76787 1.02338 0
M  V30 2348 H 216.831 2.45564 -0.716383 0
M  V30 2349 H 216.475 4.94542 -1.15717 0
M  V30 2350 H 216.405 5.23173 0.599797 0
M  V30 2351 H 218.896 3.7789 0.027011 0
M  V30 2352 H 219.209 7.70693 -0.570212 0
M  V30 2353 H 217.554 6.93156 -0.505876 0
M  V30 2354 H 220.745 4.68072 -0.0507986 0
M  V30 2355 H 220.918 6.47195 -0.322909 0
M  V30 2356 N 214.325 -0.140222 1.56975 0
M  V30 2357 C 215.602 -0.880769 1.74648 0
M  V30 2358 C 215.982 -1.99036 0.703404 0
M  V30 2359 O 215.33 -2.26821 -0.27648 0
M  V30 2360 C 215.54 -1.417 3.18939 0
M  V30 2361 C 216.888 -1.87774 3.80823 0
M  V30 2362 O 217.912 -1.51427 3.2241 0
M  V30 2363 O 216.771 -2.54827 4.83452 0
M  V30 2364 H 213.865 -0.416713 0.714338 0
M  V30 2365 H 216.411 -0.125618 1.69234 0
M  V30 2366 H 215.183 -0.619902 3.86359 0
M  V30 2367 H 214.806 -2.23546 3.28805 0
M  V30 2368 N 215.803 -1.52179 -0.40978 0
M  V30 2369 C 217.052 -1.65434 -1.15388 0
M  V30 2370 C 217.365 -0.390056 -1.91671 0
M  V30 2371 O 218.571 -0.402399 -2.68501 0
M  V30 2372 C 217.027 -2.92279 -2.10003 0
M  V30 2373 C 216.635 -4.25813 -1.39239 0
M  V30 2374 C 218.379 -3.14897 -2.84675 0
M  V30 2375 C 216.286 -5.43782 -2.32498 0
M  V30 2376 H 215.216 -0.616267 -0.434432 0
M  V30 2377 H 217.867 -1.78666 -0.418401 0
M  V30 2378 H 216.249 -2.72744 -2.871 0
M  V30 2379 H 217.423 -4.55828 -0.675099 0
M  V30 2380 H 215.738 -4.09292 -0.766097 0
M  V30 2381 H 218.335 -4.0021 -3.54593 0
M  V30 2382 H 218.678 -2.29103 -3.47588 0
M  V30 2383 H 219.211 -3.34901 -2.14677 0
M  V30 2384 H 215.95 -6.3192 -1.74233 0
M  V30 2385 H 215.47 -5.18106 -3.02201 0
M  V30 2386 H 217.149 -5.76834 -2.93038 0
M  V30 2387 N 217.281 0.66697 -1.42791 0
M  V30 2388 C 218.228 1.7803 -1.4688 0
M  V30 2389 C 219.198 1.6299 -0.319919 0
M  V30 2390 O 220.383 1.83432 -0.525118 0
M  V30 2391 C 217.523 3.1611 -1.38451 0
M  V30 2392 C 216.636 3.42381 -2.63437 0
M  V30 2393 C 215.771 4.70232 -2.47094 0
M  V30 2394 C 214.81 4.89564 -3.67415 0
M  V30 2395 N 213.947 6.08661 -3.49966 0
M  V30 2396 H 218.787 1.7387 -2.42019 0
M  V30 2397 H 216.324 0.84868 -1.20149 0
M  V30 2398 H 218.282 3.95914 -1.31561 0
M  V30 2399 H 216.912 3.19374 -0.469033 0
M  V30 2400 H 215.964 2.56774 -2.80662 0
M  V30 2401 H 217.276 3.52557 -3.52853 0
M  V30 2402 H 216.43 5.5814 -2.37834 0
M  V30 2403 H 215.169 4.62353 -1.5518 0
M  V30 2404 H 214.174 4.00096 -3.77099 0
M  V30 2405 H 215.399 4.99282 -4.6032 0
M  V30 2406 H 213.345 6.0194 -2.60776 0
M  V30 2407 H 213.262 6.19733 -4.32975 0
M  V30 2408 H 214.53 6.99226 -3.44532 0
M  V30 2409 N 218.759 1.29093 0.90403 0
M  V30 2410 C 219.722 1.1386 1.98919 0
M  V30 2411 C 220.722 0.0753457 1.60623 0
M  V30 2412 O 221.912 0.321931 1.71199 0
M  V30 2413 C 219.044 0.740198 3.32767 0
M  V30 2414 H 220.237 2.10246 2.13861 0
M  V30 2415 H 217.79 1.12218 1.08797 0
M  V30 2416 H 218.525 -0.223997 3.23525 0
M  V30 2417 H 218.31 1.50838 3.61926 0
M  V30 2418 H 219.8 0.656546 4.12407 0
M  V30 2419 N 220.237 -1.11381 1.11499 0
M  V30 2420 C 221.485 -1.8277 0.862524 0
M  V30 2421 C 221.806 -1.85097 -0.613534 0
M  V30 2422 O 221.076 -1.32198 -1.4457 0
M  V30 2423 H 219.656 -0.676823 0.316101 0
M  V30 2424 H 222.318 -1.34816 1.4075 0
M  V30 2425 H 221.414 -2.86614 1.23527 0
M  V30 2426 N 221.715 -0.905404 -1.28997 0
M  V30 2427 C 222.663 -0.377431 -2.29517 0
M  V30 2428 C 223.657 0.526461 -1.61012 0
M  V30 2429 O 224.863 0.40863 -1.753 0
M  V30 2430 H 221.238 -0.103437 -0.744852 0
M  V30 2431 H 223.209 -1.23848 -2.71485 0
M  V30 2432 C 221.958 0.374833 -3.45674 0
M  V30 2433 H 221.281 -0.311474 -3.98585 0
M  V30 2434 H 222.721 0.70903 -4.1803 0
M  V30 2435 C 221.18 1.57963 -2.97572 0
M  V30 2436 O 221.71 2.67886 -2.99333 0
M  V30 2437 N 219.916 1.42375 -2.53333 0
M  V30 2438 H 219.463 0.529466 -2.521 0
M  V30 2439 H 219.421 2.23117 -2.21509 0
M  V30 2440 N 223.193 1.4272 -0.668489 0
M  V30 2441 C 224.442 2.00846 -0.185389 0
M  V30 2442 C 224.755 1.53442 1.21305 0
M  V30 2443 O 225.961 2.03944 1.79218 0
M  V30 2444 C 224.417 3.58805 -0.280591 0
M  V30 2445 C 224.025 4.15198 -1.68268 0
M  V30 2446 C 225.769 4.24255 0.14412 0
M  V30 2447 C 223.676 5.655 -1.73099 0
M  V30 2448 H 222.606 0.751145 -0.0655475 0
M  V30 2449 H 225.257 1.63516 -0.832752 0
M  V30 2450 H 223.639 3.93608 0.434553 0
M  V30 2451 H 224.813 3.91866 -2.42441 0
M  V30 2452 H 223.128 3.62176 -2.05469 0
M  V30 2453 H 225.725 5.34547 0.128086 0
M  V30 2454 H 226.068 3.99277 1.17827 0
M  V30 2455 H 226.601 3.94389 -0.519798 0
M  V30 2456 H 223.34 5.95268 -2.74475 0
M  V30 2457 H 222.86 5.90842 -1.03274 0
M  V30 2458 H 224.539 6.29808 -1.48158 0
M  V30 2459 N 224.671 0.411399 1.52136 0
M  V30 2460 C 225.601 -0.404015 2.29978 0
M  V30 2461 C 226.582 -1.04412 1.34284 0
M  V30 2462 O 227.767 -1.0527 1.63192 0
M  V30 2463 C 224.897 -1.5197 3.12286 0
M  V30 2464 C 223.851 -1.00448 4.16046 0
M  V30 2465 C 223.177 -2.21393 4.86712 0
M  V30 2466 C 224.477 -0.0569336 5.22269 0
M  V30 2467 H 226.171 0.245529 2.98392 0
M  V30 2468 H 223.717 0.119525 1.43503 0
M  V30 2469 H 225.67 -2.09715 3.6551 0
M  V30 2470 H 224.394 -2.19716 2.41646 0
M  V30 2471 H 223.053 -0.449421 3.63835 0
M  V30 2472 H 222.701 -2.87699 4.12599 0
M  V30 2473 H 222.401 -1.87571 5.56858 0
M  V30 2474 H 223.925 -2.7974 5.4275 0
M  V30 2475 H 225.339 -0.54325 5.7072 0
M  V30 2476 H 223.736 0.192594 5.99791 0
M  V30 2477 H 224.806 0.887663 4.76706 0
M  V30 2478 N 226.149 -1.5696 0.141893 0
M  V30 2479 C 227.079 -2.19516 -0.795936 0
M  V30 2480 C 228.06 -1.14187 -1.26077 0
M  V30 2481 O 229.245 -1.42511 -1.31925 0
M  V30 2482 C 226.375 -2.81272 -2.03723 0
M  V30 2483 C 225.329 -3.92384 -1.70936 0
M  V30 2484 C 224.655 -4.41052 -3.02287 0
M  V30 2485 C 225.955 -5.13403 -0.959954 0
M  V30 2486 H 227.649 -2.98138 -0.274596 0
M  V30 2487 H 225.195 -1.43406 -0.130636 0
M  V30 2488 H 227.148 -3.237 -2.69808 0
M  V30 2489 H 225.872 -1.99973 -2.58221 0
M  V30 2490 H 224.531 -3.50566 -1.07232 0
M  V30 2491 H 224.179 -3.56582 -3.54765 0
M  V30 2492 H 223.879 -5.15993 -2.81114 0
M  V30 2493 H 225.403 -4.86146 -3.69451 0
M  V30 2494 H 226.817 -5.52706 -1.52279 0
M  V30 2495 H 225.214 -5.94073 -0.848357 0
M  V30 2496 H 226.284 -4.84875 0.0492434 0
M  V30 2497 N 227.627 0.131896 -1.57047 0
M  V30 2498 C 228.575 1.18146 -2.0036 0
M  V30 2499 C 229.569 1.43614 -0.898406 0
M  V30 2500 O 230.775 1.43729 -1.08361 0
M  V30 2501 H 227.15 0.398042 -0.638018 0
M  V30 2502 H 229.121 0.789564 -2.87765 0
M  V30 2503 C 227.87 2.50341 -2.41298 0
M  V30 2504 H 227.193 2.31578 -3.25902 0
M  V30 2505 H 228.633 3.22371 -2.75414 0
M  V30 2506 C 227.092 3.11984 -1.27153 0
M  V30 2507 O 227.622 3.97484 -0.580459 0
M  V30 2508 N 225.828 2.71662 -1.03189 0
M  V30 2509 H 225.375 2.02231 -1.59564 0
M  V30 2510 H 225.333 3.13238 -0.270077 0
M  V30 2511 N 229.106 1.52395 0.401703 0
M  V30 2512 C 230.334 1.70676 1.16949 0
M  V30 2513 C 230.749 0.419503 1.8408 0
M  V30 2514 O 230.106 -0.605061 1.72178 0
M  V30 2515 C 230.157 2.84753 2.22706 0
M  V30 2516 O 229.878 4.08495 1.58314 0
M  V30 2517 C 231.379 3.14608 3.12309 0
M  V30 2518 H 228.599 0.571787 0.351142 0
M  V30 2519 H 231.143 1.98987 0.471652 0
M  V30 2520 H 229.298 2.58941 2.88147 0
M  V30 2521 H 229.712 4.72117 2.28485 0
M  V30 2522 H 231.186 3.97923 3.82572 0
M  V30 2523 H 231.663 2.28464 3.75101 0
M  V30 2524 H 232.269 3.42212 2.52529 0
M  V30 2525 N 230.584 -0.659388 1.43143 0
M  V30 2526 C 231.494 -1.80167 1.50256 0
M  V30 2527 C 232.51 -1.69571 0.390106 0
M  V30 2528 O 233.686 -1.90849 0.643319 0
M  V30 2529 C 230.751 -3.16409 1.41725 0
M  V30 2530 C 229.812 -3.38848 2.63591 0
M  V30 2531 C 229.045 -4.68591 2.55458 0
M  V30 2532 O 229.268 -5.47532 1.59891 0
M  V30 2533 O 228.202 -4.92614 3.45854 0
M  V30 2534 H 232.028 -1.77121 2.46702 0
M  V30 2535 H 229.613 -0.817092 1.25076 0
M  V30 2536 H 231.495 -3.9768 1.39387 0
M  V30 2537 H 230.17 -3.20059 0.484118 0
M  V30 2538 H 229.077 -2.57366 2.71502 0
M  V30 2539 H 230.41 -3.4004 3.55856 0
M  V30 2540 N 232.062 -1.29571 -0.897171 0
M  V30 2541 C 233.31 -1.17456 -1.64464 0
M  V30 2542 C 233.631 0.273698 -1.9307 0
M  V30 2543 O 232.901 1.18684 -1.55855 0
M  V30 2544 H 231.481 -0.431706 -0.609622 0
M  V30 2545 H 234.143 -1.62531 -1.07562 0
M  V30 2546 H 233.239 -1.72648 -2.59998 0
M  V30 2547 N 233.54 1.10788 -1.12088 0
M  V30 2548 C 234.49 2.15158 -0.754401 0
M  V30 2549 C 235.474 1.59026 0.244846 0
M  V30 2550 O 236.666 1.76927 0.0509097 0
M  V30 2551 C 233.795 3.42677 -0.206657 0
M  V30 2552 C 232.881 4.05751 -1.23398 0
M  V30 2553 N 233.272 4.43582 -2.43041 0
M  V30 2554 C 231.57 4.32764 -1.07848 0
M  V30 2555 C 232.271 4.93085 -3.08613 0
M  V30 2556 N 231.247 4.89664 -2.36072 0
M  V30 2557 H 235.049 2.42195 -1.6649 0
M  V30 2558 H 232.563 1.27872 -1.00112 0
M  V30 2559 H 234.56 4.16834 0.0740646 0
M  V30 2560 H 233.22 3.17101 0.698342 0
M  V30 2561 H 234.231 4.35395 -2.80449 0
M  V30 2562 H 230.908 4.16863 -0.230483 0
M  V30 2563 H 232.298 5.31933 -4.10483 0
M  V30 2564 N 235.018 0.912232 1.28515 0
M  V30 2565 C 235.981 0.404223 2.25607 0
M  V30 2566 C 236.981 -0.468602 1.53821 0
M  V30 2567 O 238.171 -0.271873 1.72065 0
M  V30 2568 C 235.303 -0.420653 3.38295 0
M  V30 2569 H 236.496 1.26188 2.7206 0
M  V30 2570 H 234.049 0.691495 1.40171 0
M  V30 2571 H 234.784 -1.29777 2.97201 0
M  V30 2572 H 234.569 0.204935 3.91564 0
M  V30 2573 H 236.059 -0.766971 4.10496 0
M  V30 2574 N 236.496 -1.42363 0.676048 0
M  V30 2575 C 237.443 -2.308 -0.00150904 0
M  V30 2576 C 238.413 -1.46032 -0.791444 0
M  V30 2577 O 239.598 -1.74861 -0.76344 0
M  V30 2578 C 236.738 -3.31883 -0.945919 0
M  V30 2579 C 235.851 -4.31741 -0.149675 0
M  V30 2580 C 234.986 -5.19898 -1.08995 0
M  V30 2581 C 234.025 -6.11434 -0.285465 0
M  V30 2582 N 233.162 -6.92138 -1.17851 0
M  V30 2583 H 238.002 -2.88187 0.758455 0
M  V30 2584 H 235.539 -1.41952 0.38576 0
M  V30 2585 H 237.497 -3.89019 -1.50731 0
M  V30 2586 H 236.127 -2.76093 -1.6725 0
M  V30 2587 H 235.179 -3.76713 0.528359 0
M  V30 2588 H 236.491 -4.96534 0.474866 0
M  V30 2589 H 235.645 -5.81772 -1.72123 0
M  V30 2590 H 234.384 -4.55284 -1.74837 0
M  V30 2591 H 233.389 -5.48627 0.359018 0
M  V30 2592 H 234.614 -6.78097 0.368883 0
M  V30 2593 H 232.56 -6.30152 -1.82332 0
M  V30 2594 H 232.477 -7.53542 -0.609082 0
M  V30 2595 H 233.745 -7.58499 -1.79722 0
M  V30 2596 N 237.974 -0.419461 -1.51915 0
M  V30 2597 C 238.904 0.391813 -2.30189 0
M  V30 2598 C 239.885 1.03699 -1.34836 0
M  V30 2599 O 241.07 1.04403 -1.63748 0
M  V30 2600 C 238.2 1.50312 -3.13087 0
M  V30 2601 C 237.154 0.9824 -4.16573 0
M  V30 2602 C 236.48 2.18809 -4.8788 0
M  V30 2603 C 237.78 0.0292356 -5.22292 0
M  V30 2604 H 239.474 -0.26135 -2.98257 0
M  V30 2605 H 237.02 -0.127134 -1.43438 0
M  V30 2606 H 238.973 2.07773 -3.66617 0
M  V30 2607 H 237.697 2.18431 -2.42807 0
M  V30 2608 H 236.356 0.430119 -3.64068 0
M  V30 2609 H 236.004 2.85507 -4.14119 0
M  V30 2610 H 235.704 1.84615 -5.57845 0
M  V30 2611 H 237.228 2.76858 -5.44226 0
M  V30 2612 H 238.642 0.512976 -5.71 0
M  V30 2613 H 237.039 -0.2244 -5.9968 0
M  V30 2614 H 238.109 -0.912931 -4.76228 0
M  V30 2615 N 239.452 1.56882 -0.150215 0
M  V30 2616 C 240.415 2.1573 0.774157 0
M  V30 2617 C 241.415 1.0999 1.17298 0
M  V30 2618 O 242.605 1.35613 1.09338 0
M  V30 2619 C 239.737 2.72302 2.05096 0
M  V30 2620 H 240.93 2.98752 0.262201 0
M  V30 2621 H 238.483 1.55985 0.099248 0
M  V30 2622 H 239.218 1.92956 2.6065 0
M  V30 2623 H 239.003 3.49665 1.77416 0
M  V30 2624 H 240.493 3.17632 2.71109 0
M  V30 2625 N 240.93 -0.123565 1.57115 0
M  V30 2626 C 242.207 -0.862196 1.75572 0
M  V30 2627 C 242.587 -1.98279 0.724475 0
M  V30 2628 O 241.935 -2.27102 -0.252407 0
M  V30 2629 C 242.145 -1.38309 3.20424 0
M  V30 2630 C 243.493 -1.83724 3.82793 0
M  V30 2631 O 244.517 -1.47999 3.23998 0
M  V30 2632 O 243.376 -2.49685 4.86127 0
M  V30 2633 H 240.47 -0.409113 0.718718 0
M  V30 2634 H 243.016 -0.107661 1.69358 0
M  V30 2635 H 241.788 -0.578889 3.86994 0
M  V30 2636 H 241.411 -2.20046 3.31158 0
M  V30 2637 N 242.408 -1.52605 -0.393616 0
M  V30 2638 C 243.655 -1.67424 -1.1391 0
M  V30 2639 C 243.983 -0.411859 -1.90089 0
M  V30 2640 O 243.238 0.605626 -1.86093 0
M  V30 2641 C 243.537 -2.85721 -2.14705 0
M  V30 2642 C 243.203 -4.23342 -1.55218 0
M  V30 2643 C 241.865 -4.60771 -1.3872 0
M  V30 2644 C 244.217 -5.09041 -1.11924 0
M  V30 2645 C 241.545 -5.81563 -0.774689 0
M  V30 2646 C 243.897 -6.30452 -0.520853 0
M  V30 2647 C 242.561 -6.66617 -0.343134 0
M  V30 2648 H 241.831 -0.612648 -0.416826 0
M  V30 2649 H 244.478 -1.8674 -0.424315 0
M  V30 2650 H 242.783 -2.60803 -2.92385 0
M  V30 2651 H 244.48 -2.94382 -2.72288 0
M  V30 2652 H 241.07 -3.93855 -1.69045 0
M  V30 2653 H 245.254 -4.80695 -1.23473 0
M  V30 2654 H 240.51 -6.08196 -0.625154 0
M  V30 2655 H 244.684 -6.96175 -0.177065 0
M  V30 2656 H 242.311 -7.60083 0.133571 0
M  V30 2657 N 243.887 0.651787 -1.4349 0
M  V30 2658 C 245.135 1.40888 -1.44897 0
M  V30 2659 C 245.456 1.94856 -0.0749086 0
M  V30 2660 O 244.726 1.74518 0.889956 0
M  V30 2661 H 243.306 0.522887 -0.533478 0
M  V30 2662 H 245.968 0.768609 -1.79104 0
M  V30 2663 H 245.064 2.25052 -2.16236 0
M  V30 2664 N 245.365 1.30045 0.890287 0
M  V30 2665 C 246.611 1.18737 1.64406 0
M  V30 2666 C 246.944 -0.258525 1.92472 0
M  V30 2667 O 246.219 -1.18562 1.54186 0
M  V30 2668 C 246.502 2.01087 2.98724 0
M  V30 2669 C 246.355 3.53867 2.77665 0
M  V30 2670 C 247.674 1.84457 3.9958 0
M  V30 2671 H 244.793 0.432698 0.596608 0
M  V30 2672 H 247.435 1.5962 1.0306 0
M  V30 2673 H 245.585 1.66349 3.51084 0
M  V30 2674 H 247.257 3.98637 2.32133 0
M  V30 2675 H 245.5 3.78318 2.12269 0
M  V30 2676 H 246.171 4.06772 3.7315 0
M  V30 2677 H 248.647 2.14817 3.56361 0
M  V30 2678 H 247.523 2.44411 4.91482 0
M  V30 2679 H 247.784 0.802276 4.3476 0
M  V30 2680 N 246.843 -1.10192 1.12674 0
M  V30 2681 C 247.806 -2.14786 0.799979 0
M  V30 2682 C 248.806 -1.59711 -0.18685 0
M  V30 2683 O 249.996 -1.74156 0.0392558 0
M  V30 2684 C 247.128 -3.40374 0.189228 0
M  V30 2685 H 248.321 -2.45203 1.72671 0
M  V30 2686 H 245.874 -1.25597 0.930326 0
M  V30 2687 H 246.609 -3.15577 -0.747107 0
M  V30 2688 H 246.394 -3.81637 0.899766 0
M  V30 2689 H 247.884 -4.17594 -0.0228143 0
M  V30 2690 N 248.321 -0.919034 -1.28029 0
M  V30 2691 C 249.569 -0.553838 -1.94363 0
M  V30 2692 C 249.89 0.906357 -1.72656 0
M  V30 2693 O 249.16 1.64143 -1.0693 0
M  V30 2694 H 247.74 -0.201834 -0.719216 0
M  V30 2695 H 250.402 -1.16954 -1.55909 0
M  V30 2696 H 249.498 -0.752758 -3.02886 0
M  V30 2697 N 249.799 1.42003 -0.683588 0
M  V30 2698 C 250.731 2.29183 0.0283068 0
M  V30 2699 C 251.744 1.4415 0.756611 0
M  V30 2700 O 252.933 1.67779 0.609306 0
M  V30 2701 C 250.033 3.21765 1.06398 0
M  V30 2702 C 249.206 4.35496 0.407723 0
M  V30 2703 C 248.265 5.08737 1.34437 0
M  V30 2704 O 247.291 5.62948 0.841318 0
M  V30 2705 N 248.493 5.15075 2.67728 0
M  V30 2706 H 251.258 2.9092 -0.720105 0
M  V30 2707 H 248.819 1.53025 -0.528682 0
M  V30 2708 H 250.811 3.6763 1.69204 0
M  V30 2709 H 249.381 2.61418 1.71404 0
M  V30 2710 H 248.601 3.92165 -0.400012 0
M  V30 2711 H 249.889 5.08776 -0.0490956 0
M  V30 2712 H 249.287 4.72457 3.11129 0
M  V30 2713 H 247.844 5.64556 3.2576 0
M  V30 2714 N 251.277 0.427512 1.51691 0
M  V30 2715 C 252.207 -0.3796 2.30394 0
M  V30 2716 C 253.188 -1.02982 1.35384 0
M  V30 2717 O 254.373 -1.03534 1.643 0
M  V30 2718 C 251.503 -1.48649 3.1388 0
M  V30 2719 C 250.457 -0.960294 4.17088 0
M  V30 2720 C 249.783 -2.16219 4.89033 0
M  V30 2721 C 251.083 -0.00153679 5.223 0
M  V30 2722 H 252.777 0.277164 2.98114 0
M  V30 2723 H 250.323 0.134739 1.43368 0
M  V30 2724 H 252.276 -2.05826 3.67714 0
M  V30 2725 H 251 -2.1714 2.43962 0
M  V30 2726 H 249.659 -0.410806 3.64291 0
M  V30 2727 H 249.307 -2.83307 4.15628 0
M  V30 2728 H 249.007 -1.81654 5.58816 0
M  V30 2729 H 250.531 -2.73968 5.45687 0
M  V30 2730 H 251.945 -0.482687 5.71264 0
M  V30 2731 H 250.342 0.256199 5.99553 0
M  V30 2732 H 251.412 0.938174 4.75738 0
M  V30 2733 N 252.755 -1.56801 0.158532 0
M  V30 2734 C 253.983 -2.00859 -0.496303 0
M  V30 2735 C 254.398 -1.03871 -1.57659 0
M  V30 2736 O 253.755 -0.0375165 -1.82461 0
M  V30 2737 C 253.806 -3.4479 -1.08638 0
M  V30 2738 O 253.527 -4.38072 -0.0492322 0
M  V30 2739 C 255.028 -4.04185 -1.8207 0
M  V30 2740 H 252.248 -0.65864 -0.128199 0
M  V30 2741 H 254.792 -2.02885 0.256506 0
M  V30 2742 H 252.947 -3.43579 -1.78975 0
M  V30 2743 H 253.361 -5.2227 -0.483102 0
M  V30 2744 H 254.835 -5.06857 -2.18633 0
M  V30 2745 H 255.312 -3.45549 -2.71095 0
M  V30 2746 H 255.918 -4.0906 -1.16405 0
M  V30 2747 N 254.233 0.115231 -1.57178 0
M  V30 2748 C 255.51 0.852873 -1.76027 0
M  V30 2749 C 255.89 1.97892 -0.73498 0
M  V30 2750 O 255.238 2.27232 0.24036 0
M  V30 2751 C 255.448 1.36608 -3.21153 0
M  V30 2752 C 256.796 1.81692 -3.83762 0
M  V30 2753 O 257.82 1.46278 -3.24779 0
M  V30 2754 O 256.679 2.47104 -4.87444 0
M  V30 2755 H 253.773 0.405296 -0.720877 0
M  V30 2756 H 256.319 0.0986785 -1.69413 0
M  V30 2757 H 255.091 0.558357 -3.87296 0
M  V30 2758 H 254.714 2.18287 -3.3232 0
M  V30 2759 N 255.711 1.52812 0.385517 0
M  V30 2760 C 256.939 1.71907 1.15133 0
M  V30 2761 C 257.354 0.439004 1.83625 0
M  V30 2762 O 256.711 -0.586765 1.7281 0
M  V30 2763 C 256.762 2.87099 2.19673 0
M  V30 2764 O 256.483 4.10151 1.53973 0
M  V30 2765 C 257.984 3.17902 3.08955 0
M  V30 2766 H 255.204 0.575479 0.345057 0
M  V30 2767 H 257.748 1.99476 0.45052 0
M  V30 2768 H 255.903 2.61982 2.85384 0
M  V30 2769 H 256.317 4.74514 2.23465 0
M  V30 2770 H 257.791 4.01959 3.7833 0
M  V30 2771 H 258.268 2.3243 3.72657 0
M  V30 2772 H 258.874 3.44871 2.48885 0
M  V30 2773 N 257.189 -0.644168 1.43834 0
M  V30 2774 C 258.122 -1.76906 1.44151 0
M  V30 2775 C 259.1 -1.59774 0.301857 0
M  V30 2776 O 260.284 -1.81834 0.496841 0
M  V30 2777 C 257.411 -3.14321 1.26174 0
M  V30 2778 C 256.457 -3.50134 2.43533 0
M  V30 2779 S 257.29 -3.49085 4.06079 0
M  V30 2780 C 258.446 -4.89142 3.90501 0
M  V30 2781 H 258.679 -1.76368 2.39336 0
M  V30 2782 H 256.212 -0.817624 1.30974 0
M  V30 2783 H 258.17 -3.93625 1.16489 0
M  V30 2784 H 256.831 -3.12412 0.325224 0
M  V30 2785 H 256.024 -4.50095 2.26783 0
M  V30 2786 H 255.626 -2.78264 2.4989 0
M  V30 2787 H 257.918 -5.78036 3.53385 0
M  V30 2788 H 258.861 -5.10945 4.90246 0
M  V30 2789 H 259.269 -4.63102 3.22795 0
M  V30 2790 N 258.668 -1.30515 -0.883378 0
M  V30 2791 C 259.631 -1.1701 -1.97082 0
M  V30 2792 C 260.631 -0.10089 -1.60483 0
M  V30 2793 O 261.821 -0.349127 -1.70666 0
M  V30 2794 C 258.953 -0.793045 -3.31547 0
M  V30 2795 H 260.146 -2.13622 -2.10489 0
M  V30 2796 H 257.699 -1.13935 -1.06998 0
M  V30 2797 H 258.434 0.172499 -3.23841 0
M  V30 2798 H 258.219 -1.56576 -3.5948 0
M  V30 2799 H 259.709 -0.722073 -4.1131 0
M  V30 2800 N 260.146 1.09593 -1.13257 0
M  V30 2801 C 261.093 2.1618 -0.808381 0
M  V30 2802 C 262.063 1.64517 0.228754 0
M  V30 2803 O 263.248 1.9053 0.101381 0
M  V30 2804 C 260.388 3.43973 -0.278675 0
M  V30 2805 C 259.501 4.09545 -1.37466 0
M  V30 2806 C 258.636 5.25088 -0.803479 0
M  V30 2807 C 257.675 5.82579 -1.87799 0
M  V30 2808 N 256.812 6.89486 -1.32488 0
M  V30 2809 H 261.652 2.43254 -1.72138 0
M  V30 2810 H 259.189 1.19392 -0.859294 0
M  V30 2811 H 261.147 4.17174 0.0465583 0
M  V30 2812 H 259.777 3.17223 0.597459 0
M  V30 2813 H 258.829 3.34226 -1.81652 0
M  V30 2814 H 260.141 4.48307 -2.18684 0
M  V30 2815 H 259.295 6.05178 -0.429427 0
M  V30 2816 H 258.034 4.87684 0.0397956 0
M  V30 2817 H 257.039 5.01152 -2.26113 0
M  V30 2818 H 258.264 6.22045 -2.72463 0
M  V30 2819 H 256.21 6.54064 -0.503575 0
M  V30 2820 H 256.127 7.27007 -2.07355 0
M  V30 2821 H 257.395 7.73336 -0.978336 0
M  V30 2822 N 261.624 0.925811 1.2754 0
M  V30 2823 C 263.04 0.625767 1.46821 0
M  V30 2824 C 263.24 -0.825506 1.83814 0
M  V30 2825 O 262.296 -1.60356 1.95044 0
M  V30 2826 C 263.609 1.57402 2.56213 0
M  V30 2827 C 265.157 1.58204 2.70075 0
M  V30 2828 C 265.632 2.51721 3.82623 0
M  V30 2829 N 267.123 2.49917 3.89994 0
M  V30 2830 C 267.858 3.18968 4.76494 0
M  V30 2831 N 267.354 3.97391 5.67496 0
M  V30 2832 N 269.147 3.07996 4.70208 0
M  V30 2833 H 261.298 1.86409 1.01811 0
M  V30 2834 H 263.561 0.800213 0.508295 0
M  V30 2835 H 263.267 2.60925 2.35819 0
M  V30 2836 H 263.141 1.31428 3.53563 0
M  V30 2837 H 265.528 0.554124 2.89851 0
M  V30 2838 H 265.609 1.88226 1.73218 0
M  V30 2839 H 265.253 3.54622 3.63601 0
M  V30 2840 H 265.183 2.18996 4.78903 0
M  V30 2841 H 267.674 1.9296 3.24923 0
M  V30 2842 H 267.987 4.4707 6.30356 0
M  V30 2843 H 266.332 4.01495 5.67298 0
M  V30 2844 H 269.523 2.46223 3.9811 0
M  V30 2845 H 269.696 3.6208 5.37403 0
M  V30 2846 N 263.102 -1.41638 0.69111 0
M  V30 2847 C 264.05 -2.32597 0.0115199 0
M  V30 2848 C 265.044 -1.5072 -0.773296 0
M  V30 2849 O 266.25 -1.66685 -0.67942 0
M  V30 2850 H 262.625 -0.751849 -0.0150746 0
M  V30 2851 H 264.596 -2.87593 0.795791 0
M  V30 2852 C 263.345 -3.35467 -0.914172 0
M  V30 2853 H 262.668 -3.9852 -0.319687 0
M  V30 2854 H 264.108 -4.01662 -1.35808 0
M  V30 2855 C 262.567 -2.69004 -2.02826 0
M  V30 2856 O 263.097 -2.53444 -3.11655 0
M  V30 2857 N 261.303 -2.2777 -1.80469 0
M  V30 2858 H 260.85 -2.40626 -0.919615 0
M  V30 2859 H 260.808 -1.83635 -2.55197 0
M  V30 2860 N 264.58 -0.43555 -1.51462 0
M  V30 2861 C 265.808 0.130242 -2.0649 0
M  V30 2862 C 266.223 1.36614 -1.30315 0
M  V30 2863 O 265.58 1.78869 -0.362223 0
M  V30 2864 C 265.631 0.454253 -3.58635 0
M  V30 2865 O 265.352 -0.73259 -4.31931 0
M  V30 2866 C 266.853 1.07091 -4.3017 0
M  V30 2867 H 264.073 0.00871669 -0.670943 0
M  V30 2868 H 266.617 -0.614117 -1.95061 0
M  V30 2869 H 264.772 1.14851 -3.69984 0
M  V30 2870 H 265.186 -0.455787 -5.22516 0
M  V30 2871 H 266.66 1.24764 -5.37716 0
M  V30 2872 H 267.137 2.05144 -3.88346 0
M  V30 2873 H 267.743 0.416089 -4.2326 0
M  V30 2874 N 266.058 1.56714 -0.166846 0
M  V30 2875 C 267.304 1.97039 0.479962 0
M  V30 2876 C 267.637 1.05264 1.63197 0
M  V30 2877 O 266.912 0.0988833 1.94248 0
M  V30 2878 C 267.195 3.46867 0.967212 0
M  V30 2879 C 267.048 4.49421 -0.18466 0
M  V30 2880 C 268.367 3.9968 1.84238 0
M  V30 2881 H 265.486 0.71641 0.172992 0
M  V30 2882 H 268.128 1.8832 -0.252079 0
M  V30 2883 H 266.278 3.54428 1.59101 0
M  V30 2884 H 267.95 4.53924 -0.821621 0
M  V30 2885 H 266.193 4.25573 -0.840837 0
M  V30 2886 H 266.864 5.51644 0.198317 0
M  V30 2887 H 269.34 3.94723 1.31655 0
M  V30 2888 H 268.216 5.04941 2.15234 0
M  V30 2889 H 268.477 3.43226 2.78654 0
M  V30 2890 N 267.536 -0.106894 1.57237 0
M  V30 2891 C 268.785 -0.811163 1.8467 0
M  V30 2892 C 269.098 -1.80469 0.754342 0
M  V30 2893 O 270.304 -2.55601 0.915439 0
M  V30 2894 C 268.76 -1.49337 3.27454 0
M  V30 2895 C 268.368 -0.540217 4.44731 0
M  V30 2896 C 270.112 -2.18206 3.64124 0
M  V30 2897 C 268.019 -1.22634 5.78545 0
M  V30 2898 H 266.949 -0.306679 0.688813 0
M  V30 2899 H 269.6 -0.0639887 1.83388 0
M  V30 2900 H 267.982 -2.2876 3.23241 0
M  V30 2901 H 269.156 0.221659 4.60267 0
M  V30 2902 H 267.471 0.042146 4.16379 0
M  V30 2903 H 270.068 -2.70253 4.61376 0
M  V30 2904 H 270.411 -2.96562 2.92158 0
M  V30 2905 H 270.944 -1.45658 3.70174 0
M  V30 2906 H 267.683 -0.483832 6.53712 0
M  V30 2907 H 267.203 -1.95993 5.66874 0
M  V30 2908 H 268.882 -1.75615 6.2271 0
M  V30 2909 N 269.014 -1.53014 -0.377408 0
M  V30 2910 C 270.262 -1.6829 -1.11906 0
M  V30 2911 C 270.583 -0.431206 -1.90173 0
M  V30 2912 O 269.853 0.554595 -1.87886 0
M  V30 2913 H 268.433 -0.620371 -0.416112 0
M  V30 2914 H 271.095 -1.90167 -0.426893 0
M  V30 2915 H 270.191 -2.53862 -1.8155 0
M  V30 2916 N 270.492 0.636531 -1.44174 0
M  V30 2917 C 271.72 1.42353 -1.50144 0
M  V30 2918 C 272.135 1.88389 -0.124575 0
M  V30 2919 O 271.492 1.6051 0.868489 0
M  V30 2920 C 271.543 2.64744 -2.46156 0
M  V30 2921 O 271.264 2.20629 -3.7849 0
M  V30 2922 C 272.765 3.57929 -2.61537 0
M  V30 2923 H 269.985 0.436752 -0.5094 0
M  V30 2924 H 272.529 0.778933 -1.89084 0
M  V30 2925 H 270.684 3.25307 -2.10366 0
M  V30 2926 H 271.098 2.99938 -4.30276 0
M  V30 2927 H 272.572 4.40428 -3.32757 0
M  V30 2928 H 273.049 4.06382 -1.66585 0
M  V30 2929 H 273.655 3.03238 -2.98206 0
M  V30 2930 N 271.97 1.30982 0.876444 0
M  V30 2931 C 273.381 1.18277 1.44456 0
M  V30 2932 C 273.732 -0.213265 1.95037 0
M  V30 2933 O 272.857 -1.11057 1.85729 0
M  V30 2934 C 273.452 2.1411 2.62569 0
M  V30 2935 C 272.011 2.05358 3.15444 0
M  V30 2936 C 271.158 2.03706 1.88146 0
M  V30 2937 H 274.109 1.43127 0.685584 0
M  V30 2938 H 274.13 1.72692 3.39054 0
M  V30 2939 H 273.642 3.15706 2.25724 0
M  V30 2940 H 271.743 1.06934 3.56926 0
M  V30 2941 H 271.856 2.94156 3.78166 0
M  V30 2942 H 270.22 1.48629 2.06837 0
M  V30 2943 H 271.003 3.07047 1.53547 0
M  V30 2944 N 273.449 -1.08991 1.13837 0
M  V30 2945 C 274.696 -1.81258 0.902882 0
M  V30 2946 C 275.024 -1.85936 -0.570803 0
M  V30 2947 O 274.279 -1.3267 -1.43865 0
M  V30 2948 C 274.578 -3.27042 1.44147 0
M  V30 2949 C 274.244 -3.4249 2.93276 0
M  V30 2950 C 272.906 -3.46414 3.33992 0
M  V30 2951 C 275.258 -3.4666 3.892 0
M  V30 2952 C 272.586 -3.52091 4.69307 0
M  V30 2953 C 274.938 -3.53872 5.24364 0
M  V30 2954 C 273.602 -3.56066 5.646 0
M  V30 2955 H 272.872 -0.663268 0.330388 0
M  V30 2956 H 275.519 -1.28368 1.42105 0
M  V30 2957 H 273.824 -3.82599 0.844097 0
M  V30 2958 H 275.521 -3.81499 1.23528 0
M  V30 2959 H 272.111 -3.40124 2.60794 0
M  V30 2960 H 276.295 -3.42865 3.58828 0
M  V30 2961 H 271.551 -3.52079 4.9985 0
M  V30 2962 H 275.725 -3.56043 5.98503 0
M  V30 2963 H 273.352 -3.60218 6.69438 0
M  V30 2964 N 274.927 -0.932562 -1.27047 0
M  V30 2965 C 276.173 -0.585913 -1.94778 0
M  V30 2966 C 276.528 0.864142 -1.71902 0
M  V30 2967 O 275.821 1.60894 -1.04037 0
M  V30 2968 C 276.015 -0.853713 -3.47054 0
M  V30 2969 C 275.844 -2.32825 -3.84737 0
M  V30 2970 C 274.614 -2.98184 -4.07939 0
M  V30 2971 C 276.812 -3.30612 -3.93954 0
M  V30 2972 N 274.794 -4.3574 -4.3244 0
M  V30 2973 C 276.165 -4.53395 -4.22887 0
M  V30 2974 C 278.22 -3.25755 -3.76548 0
M  V30 2975 C 276.923 -5.71927 -4.36224 0
M  V30 2976 C 278.949 -4.43604 -3.91113 0
M  V30 2977 C 278.311 -5.65166 -4.20437 0
M  V30 2978 H 274.41 -0.264617 -0.735868 0
M  V30 2979 H 276.994 -1.20019 -1.53309 0
M  V30 2980 H 275.165 -0.268557 -3.8747 0
M  V30 2981 H 276.897 -0.469202 -4.01971 0
M  V30 2982 H 273.652 -2.48835 -4.02961 0
M  V30 2983 H 274.076 -5.06915 -4.48738 0
M  V30 2984 H 278.718 -2.32835 -3.52913 0
M  V30 2985 H 276.436 -6.65308 -4.58683 0
M  V30 2986 H 280.022 -4.41368 -3.79059 0
M  V30 2987 H 278.902 -6.54836 -4.31462 0
M  V30 2988 N 276.405 1.4127 -0.698611 0
M  V30 2989 C 277.338 2.28195 0.0153898 0
M  V30 2990 C 278.316 1.42402 0.784883 0
M  V30 2991 O 279.5 1.71828 0.775067 0
M  V30 2992 C 276.627 3.22685 1.02918 0
M  V30 2993 C 275.673 4.25041 0.352501 0
M  V30 2994 S 276.506 5.27757 -0.907322 0
M  V30 2995 C 277.662 6.25812 0.104796 0
M  V30 2996 H 277.895 2.88403 -0.721858 0
M  V30 2997 H 275.428 1.46452 -0.488996 0
M  V30 2998 H 277.386 3.77655 1.60893 0
M  V30 2999 H 276.047 2.61566 1.73902 0
M  V30 3000 H 275.24 4.91437 1.11828 0
M  V30 3001 H 274.842 3.73682 -0.154254 0
M  V30 3002 H 277.134 6.70705 0.957103 0
M  V30 3003 H 278.077 7.06149 -0.525323 0
M  V30 3004 H 278.485 5.62615 0.460931 0
M  V30 3005 N 277.883 0.443576 1.51229 0
M  V30 3006 C 278.846 -0.353132 2.26463 0
M  V30 3007 C 279.846 -0.944338 1.3015 0
M  V30 3008 O 281.036 -0.817813 1.5381 0
M  V30 3009 C 278.168 -1.50023 3.06114 0
M  V30 3010 H 279.361 0.3063 2.98332 0
M  V30 3011 H 276.914 0.196902 1.55055 0
M  V30 3012 H 277.649 -2.19553 2.38677 0
M  V30 3013 H 277.434 -1.08241 3.76864 0
M  V30 3014 H 278.924 -2.06296 3.63087 0
M  V30 3015 N 279.361 -1.56624 0.175154 0
M  V30 3016 C 280.772 -1.83561 -0.340916 0
M  V30 3017 C 281.123 -1.09511 -1.62794 0
M  V30 3018 O 280.248 -0.349389 -2.13561 0
M  V30 3019 C 280.843 -3.32979 -0.625313 0
M  V30 3020 C 279.402 -3.60399 -1.08581 0
M  V30 3021 C 278.549 -2.77024 -0.123722 0
M  V30 3022 H 281.5 -1.53593 0.399344 0
M  V30 3023 H 281.521 -3.50666 -1.47694 0
M  V30 3024 H 281.033 -3.86847 0.311575 0
M  V30 3025 H 279.134 -3.11945 -2.03767 0
M  V30 3026 H 279.247 -4.68711 -0.992317 0
M  V30 3027 H 277.611 -2.46993 -0.621821 0
M  V30 3028 H 278.394 -3.33674 0.807256 0
M  V30 3029 N 280.839 0.0985539 -1.57292 0
M  V30 3030 C 281.749 1.13824 -2.05137 0
M  V30 3031 C 282.765 1.44076 -0.975604 0
M  V30 3032 O 283.941 1.54786 -1.28853 0
M  V30 3033 C 281.006 2.43969 -2.46333 0
M  V30 3034 C 280.067 2.2093 -3.68087 0
M  V30 3035 C 279.3 3.44869 -4.0731 0
M  V30 3036 O 279.523 4.52972 -3.46659 0
M  V30 3037 O 278.457 3.34661 -5.00285 0
M  V30 3038 H 282.283 0.761881 -2.93988 0
M  V30 3039 H 279.868 0.310818 -1.46131 0
M  V30 3040 H 281.75 3.20609 -2.73473 0
M  V30 3041 H 280.425 2.81038 -1.60621 0
M  V30 3042 H 279.332 1.42081 -3.46069 0
M  V30 3043 H 280.665 1.88755 -4.54568 0
M  V30 3044 N 282.317 1.53212 0.369288 0
M  V30 3045 C 283.563 1.69466 1.11397 0
M  V30 3046 C 283.896 0.443257 1.89074 0
M  V30 3047 O 283.171 -0.559386 1.86282 0
M  V30 3048 C 283.454 2.9422 2.07621 0
M  V30 3049 C 283.307 4.29508 1.33577 0
M  V30 3050 C 284.626 3.14565 3.07794 0
M  V30 3051 H 281.745 0.616667 0.403597 0
M  V30 3052 H 284.387 1.85845 0.395179 0
M  V30 3053 H 282.537 2.80387 2.68916 0
M  V30 3054 H 284.209 4.55147 0.750955 0
M  V30 3055 H 282.452 4.29088 0.637618 0
M  V30 3056 H 283.123 5.12926 2.03989 0
M  V30 3057 H 285.599 3.2756 2.56601 0
M  V30 3058 H 284.475 4.03297 3.72348 0
M  V30 3059 H 284.736 2.29675 3.77759 0
M  V30 3060 N 283.795 -0.628877 1.44509 0
M  V30 3061 C 285.044 -1.38437 1.4669 0
M  V30 3062 C 285.357 -1.95322 0.104272 0
M  V30 3063 O 286.563 -2.715 0.00362163 0
M  V30 3064 C 285.019 -2.50659 2.5826 0
M  V30 3065 C 284.627 -2.00277 4.0074 0
M  V30 3066 C 286.371 -3.27844 2.69664 0
M  V30 3067 C 284.278 -3.09854 5.0373 0
M  V30 3068 H 283.208 -0.520245 0.545766 0
M  V30 3069 H 285.859 -0.676313 1.70582 0
M  V30 3070 H 284.241 -3.2405 2.27612 0
M  V30 3071 H 285.415 -1.33736 4.40966 0
M  V30 3072 H 283.73 -1.35901 3.93599 0
M  V30 3073 H 286.327 -4.09534 3.43781 0
M  V30 3074 H 286.67 -3.77471 1.75559 0
M  V30 3075 H 287.203 -2.61543 2.99733 0
M  V30 3076 H 283.942 -2.65168 5.99472 0
M  V30 3077 H 283.462 -3.7503 4.68095 0
M  V30 3078 H 285.141 -3.74592 5.27532 0
M  V30 3079 N 285.273 -1.31445 -0.869486 0
M  V30 3080 C 286.205 -1.14955 -1.98287 0
M  V30 3081 C 287.218 -0.0885037 -1.62559 0
M  V30 3082 O 288.407 -0.336044 -1.75308 0
M  V30 3083 C 285.507 -0.734255 -3.3085 0
M  V30 3084 C 284.68 -1.88042 -3.94917 0
M  V30 3085 C 283.739 -1.4511 -5.05796 0
M  V30 3086 O 282.765 -2.16082 -5.2659 0
M  V30 3087 N 283.967 -0.338763 -5.79511 0
M  V30 3088 H 286.732 -2.10856 -2.12979 0
M  V30 3089 H 284.293 -1.23786 -1.04349 0
M  V30 3090 H 286.285 -0.42975 -4.02412 0
M  V30 3091 H 284.855 0.133158 -3.12316 0
M  V30 3092 H 284.075 -2.35222 -3.1633 0
M  V30 3093 H 285.363 -2.6481 -4.34457 0
M  V30 3094 H 284.761 0.252274 -5.65137 0
M  V30 3095 H 283.318 -0.0937925 -6.51733 0
M  V30 3096 N 286.751 1.08385 -1.14413 0
M  V30 3097 C 287.661 2.18856 -0.844951 0
M  V30 3098 C 288.677 1.73121 0.174668 0
M  V30 3099 O 289.853 2.014 0.00312857 0
M  V30 3100 C 286.918 3.45155 -0.32696 0
M  V30 3101 C 285.979 4.05513 -1.40916 0
M  V30 3102 C 285.212 5.25784 -0.915793 0
M  V30 3103 O 285.435 5.69884 0.242651 0
M  V30 3104 O 284.369 5.77545 -1.69487 0
M  V30 3105 H 288.195 2.46919 -1.76818 0
M  V30 3106 H 285.78 1.17524 -0.922411 0
M  V30 3107 H 287.662 4.21377 -0.0440211 0
M  V30 3108 H 286.337 3.18668 0.568539 0
M  V30 3109 H 285.244 3.30879 -1.74556 0
M  V30 3110 H 286.577 4.3625 -2.27919 0
M  V30 3111 N 288.23 0.939286 1.26551 0
M  V30 3112 C 289.479 0.581601 1.93133 0
M  V30 3113 C 289.792 -0.883224 1.74524 0
M  V30 3114 O 290.998 -1.3502 2.35546 0
M  V30 3115 C 289.454 0.989425 3.46032 0
M  V30 3116 C 289.062 2.47573 3.73379 0
M  V30 3117 C 290.806 0.703544 4.18629 0
M  V30 3118 C 288.713 2.82235 5.19709 0
M  V30 3119 H 287.643 0.213803 0.723052 0
M  V30 3120 H 290.294 1.14167 1.4366 0
M  V30 3121 H 288.676 0.357902 3.94379 0
M  V30 3122 H 289.85 3.15614 3.35744 0
M  V30 3123 H 288.165 2.73471 3.1401 0
M  V30 3124 H 290.762 0.938869 5.26393 0
M  V30 3125 H 291.105 -0.359639 4.14744 0
M  V30 3126 H 291.638 1.2947 3.76141 0
M  V30 3127 H 288.377 3.87509 5.28694 0
M  V30 3128 H 287.897 2.18854 5.58447 0
M  V30 3129 H 289.576 2.70599 5.87695 0
M  V30 3130 N 289.708 -1.40897 0.706093 0
M  V30 3131 C 290.956 -2.00657 0.241054 0
M  V30 3132 C 291.277 -1.56241 -1.16678 0
M  V30 3133 O 290.547 -0.79765 -1.78926 0
M  V30 3134 H 289.127 -0.742018 0.0861308 0
M  V30 3135 H 291.789 -1.72372 0.909604 0
M  V30 3136 H 290.885 -3.10958 0.266705 0
M  V30 3137 N 291.186 -0.45159 -1.50991 0
M  V30 3138 C 292.416 0.108177 -2.06317 0
M  V30 3139 C 292.824 1.35774 -1.31765 0
M  V30 3140 O 292.167 1.79838 -0.374694 0
M  V30 3141 C 292.229 0.481659 -3.56259 0
M  V30 3142 C 291.893 -0.663114 -4.52163 0
M  V30 3143 C 292.89 -1.53947 -4.96585 0
M  V30 3144 C 290.575 -0.8479 -4.95092 0
M  V30 3145 C 292.569 -2.58518 -5.82621 0
M  V30 3146 C 290.256 -1.89686 -5.80915 0
M  V30 3147 C 291.254 -2.76388 -6.24579 0
M  V30 3148 O 290.942 -3.79482 -7.08695 0
M  V30 3149 H 290.674 0.00499183 -0.675982 0
M  V30 3150 H 293.228 -0.633659 -1.95381 0
M  V30 3151 H 291.458 1.27641 -3.65027 0
M  V30 3152 H 293.147 0.974233 -3.94035 0
M  V30 3153 H 293.913 -1.4083 -4.64103 0
M  V30 3154 H 289.792 -0.18258 -4.60638 0
M  V30 3155 H 293.336 -3.26224 -6.16623 0
M  V30 3156 H 289.233 -2.02817 -6.12809 0
M  V30 3157 H 290.001 -3.76234 -7.26905 0
M  V30 3158 N 292.664 1.56529 -0.183458 0
M  V30 3159 C 293.612 2.19873 0.758845 0
M  V30 3160 C 294.606 1.16638 1.22849 0
M  V30 3161 O 295.812 1.3481 1.19274 0
M  V30 3162 H 292.187 0.7045 0.263029 0
M  V30 3163 H 294.158 2.97724 0.200755 0
M  V30 3164 C 292.907 2.86314 1.9728 0
M  V30 3165 H 292.23 3.65487 1.62047 0
M  V30 3166 H 293.67 3.3409 2.61075 0
M  V30 3167 C 292.129 1.86729 2.80418 0
M  V30 3168 O 292.659 1.36031 3.77966 0
M  V30 3169 N 290.865 1.55216 2.45675 0
M  V30 3170 H 290.412 1.96636 1.66409 0
M  V30 3171 H 290.37 0.888388 3.01588 0
M  V30 3172 N 294.142 -0.090211 1.57342 0
M  V30 3173 C 295.382 -0.798365 1.88163 0
M  V30 3174 C 295.746 -1.75662 0.775046 0
M  V30 3175 O 296.947 -2.50849 0.965816 0
M  V30 3176 C 295.218 -1.50376 3.24225 0
M  V30 3177 S 296.777 -2.24952 3.76752 0
M  V30 3178 H 293.595 -0.265883 0.659414 0
M  V30 3179 H 296.197 -0.055264 1.95422 0
M  V30 3180 H 294.901 -0.792286 4.0268 0
M  V30 3181 H 294.432 -2.28666 3.20118 0
M  V30 3182 H 296.447 -3.51173 3.5056 0
M  V30 3183 N 295.62 -1.53406 -0.361157 0
M  V30 3184 C 296.866 -1.70054 -1.10496 0
M  V30 3185 C 297.199 -0.453278 -1.88836 0
M  V30 3186 O 296.474 0.5495 -1.86576 0
M  V30 3187 C 296.757 -2.95317 -2.06058 0
M  V30 3188 C 296.61 -4.3021 -1.31298 0
M  V30 3189 C 297.929 -3.16193 -3.06121 0
M  V30 3190 H 295.048 -0.618799 -0.400321 0
M  V30 3191 H 297.69 -1.86052 -0.385318 0
M  V30 3192 H 295.84 -2.81809 -2.67425 0
M  V30 3193 H 297.512 -4.55538 -0.726807 0
M  V30 3194 H 295.755 -4.29421 -0.614853 0
M  V30 3195 H 296.426 -5.14 -2.01265 0
M  V30 3196 H 298.902 -3.28916 -2.5486 0
M  V30 3197 H 297.778 -4.05266 -3.70204 0
M  V30 3198 H 298.039 -2.31676 -3.76535 0
M  V30 3199 N 297.098 0.621204 -1.44841 0
M  V30 3200 C 298.061 1.71459 -1.521 0
M  V30 3201 C 299.061 1.55696 -0.401933 0
M  V30 3202 O 300.251 1.61011 -0.664925 0
M  V30 3203 C 297.383 3.10624 -1.40447 0
M  V30 3204 H 298.576 1.66394 -2.49506 0
M  V30 3205 H 296.129 0.835745 -1.3208 0
M  V30 3206 H 296.864 3.21277 -0.441737 0
M  V30 3207 H 296.649 3.23473 -2.21602 0
M  V30 3208 H 298.139 3.90293 -1.4853 0
M  V30 3209 N 298.576 1.31904 0.862503 0
M  V30 3210 C 299.853 1.12644 1.59908 0
M  V30 3211 C 300.233 -0.316104 2.0872 0
M  V30 3212 O 299.581 -1.31145 1.87118 0
M  V30 3213 C 299.791 2.1472 2.7513 0
M  V30 3214 C 301.139 2.47637 3.44907 0
M  V30 3215 O 302.163 2.13205 2.85346 0
M  V30 3216 O 301.022 3.06632 4.52371 0
M  V30 3217 H 298.116 0.43416 0.703871 0
M  V30 3218 H 300.662 1.43408 0.907314 0
M  V30 3219 H 299.434 3.1172 2.3653 0
M  V30 3220 H 299.057 1.84905 3.51989 0
M  V30 3221 N 300.054 -1.07777 1.14986 0
M  V30 3222 C 301.303 -1.79669 0.916617 0
M  V30 3223 C 301.616 -1.87474 -0.557917 0
M  V30 3224 O 302.822 -2.55845 -0.908617 0
M  V30 3225 C 301.278 -3.22848 1.59051 0
M  V30 3226 C 300.886 -3.23257 3.10176 0
M  V30 3227 C 302.63 -3.99379 1.43864 0
M  V30 3228 C 300.537 -4.61063 3.70372 0
M  V30 3229 H 299.467 -0.673349 0.33929 0
M  V30 3230 H 302.118 -1.21003 1.37951 0
M  V30 3231 H 300.5 -3.8168 1.0553 0
M  V30 3232 H 301.674 -2.74095 3.70417 0
M  V30 3233 H 299.989 -2.60222 3.25074 0
M  V30 3234 H 302.586 -5.0122 1.86232 0
M  V30 3235 H 302.929 -4.14511 0.385564 0
M  V30 3236 H 303.462 -3.47032 1.94457 0
M  V30 3237 H 300.201 -4.51135 4.7556 0
M  V30 3238 H 299.721 -5.1048 3.14913 0
M  V30 3239 H 301.4 -5.30034 3.71043 0
M  V30 3240 N 301.532 -0.945985 -1.26051 0
M  V30 3241 C 302.778 -0.606539 -1.94146 0
M  V30 3242 C 303.133 0.84586 -1.72809 0
M  V30 3243 O 302.426 1.59781 -1.05738 0
M  V30 3244 C 302.62 -0.890475 -3.46129 0
M  V30 3245 C 302.449 -2.36892 -3.82246 0
M  V30 3246 C 301.219 -3.02494 -4.04753 0
M  V30 3247 C 303.417 -3.34772 -3.90425 0
M  V30 3248 N 301.399 -4.40302 -4.27794 0
M  V30 3249 C 302.77 -4.57855 -4.18054 0
M  V30 3250 C 304.825 -3.2973 -3.73072 0
M  V30 3251 C 303.528 -5.76522 -4.30134 0
M  V30 3252 C 305.554 -4.47727 -3.86386 0
M  V30 3253 C 304.916 -5.69593 -4.14419 0
M  V30 3254 H 301.015 -0.272407 -0.73302 0
M  V30 3255 H 303.599 -1.21638 -1.52027 0
M  V30 3256 H 301.77 -0.309638 -3.87164 0
M  V30 3257 H 303.502 -0.51181 -4.01451 0
M  V30 3258 H 300.257 -2.53095 -4.003 0
M  V30 3259 H 300.681 -5.11646 -4.43337 0
M  V30 3260 H 305.323 -2.36565 -3.50424 0
M  V30 3261 H 303.041 -6.70136 -4.51601 0
M  V30 3262 H 306.627 -4.45363 -3.74356 0
M  V30 3263 H 305.507 -6.59375 -4.24493 0
M  V30 3264 N 303.011 1.40521 -0.713556 0
M  V30 3265 C 304.236 2.05759 -0.26035 0
M  V30 3266 C 304.661 1.53403 1.08854 0
M  V30 3267 O 304.019 0.668535 1.68524 0
M  V30 3268 C 304.067 3.59745 -0.248122 0
M  V30 3269 O 303.171 4.05123 0.77131 0
M  V30 3270 H 302.512 0.652564 -0.122703 0
M  V30 3271 H 305.042 1.79958 -0.973467 0
M  V30 3272 H 305.052 4.07911 -0.0851129 0
M  V30 3273 H 303.727 3.97218 -1.2325 0
M  V30 3274 H 302.304 3.68422 0.57619 0
M  V30 3275 N 304.489 0.459591 1.5075 0
M  V30 3276 C 305.419 -0.330644 2.31147 0
M  V30 3277 C 306.4 -1.00087 1.37538 0
M  V30 3278 O 307.585 -1.00025 1.66459 0
M  V30 3279 C 304.715 -1.41958 3.16962 0
M  V30 3280 C 303.669 -0.871608 4.19031 0
M  V30 3281 C 302.995 -2.05797 4.9351 0
M  V30 3282 C 304.295 0.109251 5.22186 0
M  V30 3283 H 305.989 0.340336 2.97459 0
M  V30 3284 H 303.535 0.165119 1.4305 0
M  V30 3285 H 305.488 -1.9798 3.71997 0
M  V30 3286 H 304.212 -2.11917 2.48513 0
M  V30 3287 H 302.871 -0.333442 3.6508 0
M  V30 3288 H 302.519 -2.74427 4.21544 0
M  V30 3289 H 302.219 -1.6976 5.62544 0
M  V30 3290 H 303.743 -2.62331 5.51375 0
M  V30 3291 H 305.157 -0.361405 5.7216 0
M  V30 3292 H 303.554 0.383316 5.98875 0
M  V30 3293 H 304.624 1.03887 4.73641 0
M  V30 3294 N 305.967 -1.56429 0.191757 0
M  V30 3295 C 307.215 -1.97095 -0.447006 0
M  V30 3296 C 307.536 -1.07967 -1.62383 0
M  V30 3297 O 306.806 -0.150248 -1.95323 0
M  V30 3298 H 305.386 -0.727832 -0.168135 0
M  V30 3299 H 308.048 -1.92911 0.27771 0
M  V30 3300 H 307.144 -3.01848 -0.793371 0
M  V30 3301 N 307.445 0.0818655 -1.57387 0
M  V30 3302 C 308.694 0.781681 -1.85937 0
M  V30 3303 C 309.007 1.79246 -0.782957 0
M  V30 3304 O 310.213 2.54112 -0.955987 0
M  V30 3305 C 308.669 1.44109 -3.29789 0
M  V30 3306 C 308.277 0.469396 -4.45534 0
M  V30 3307 C 310.021 2.12386 -3.67549 0
M  V30 3308 C 307.928 1.13415 -5.80423 0
M  V30 3309 H 306.858 0.295682 -0.693605 0
M  V30 3310 H 309.509 0.0348051 -1.83467 0
M  V30 3311 H 307.891 2.23588 -3.2684 0
M  V30 3312 H 309.065 -0.294856 -4.59856 0
M  V30 3313 H 307.38 -0.108383 -4.16259 0
M  V30 3314 H 309.977 2.62878 -4.65617 0
M  V30 3315 H 310.32 2.91877 -2.96839 0
M  V30 3316 H 310.853 1.39751 -3.72444 0
M  V30 3317 H 307.592 0.379771 -6.54399 0
M  V30 3318 H 307.112 1.8695 -5.69921 0
M  V30 3319 H 308.791 1.65686 -6.25426 0
M  V30 3320 N 308.923 1.53595 0.353017 0
M  V30 3321 C 310.151 1.74311 1.1146 0
M  V30 3322 C 310.566 0.477854 1.82653 0
M  V30 3323 O 309.923 -0.549977 1.74016 0
M  V30 3324 C 309.974 2.91694 2.13534 0
M  V30 3325 O 309.695 4.13325 1.45238 0
M  V30 3326 C 311.196 3.24384 3.02142 0
M  V30 3327 H 308.416 0.582669 0.332773 0
M  V30 3328 H 310.96 2.00386 0.408107 0
M  V30 3329 H 309.115 2.67977 2.79763 0
M  V30 3330 H 309.529 4.79148 2.13349 0
M  V30 3331 H 311.003 4.09893 3.69718 0
M  V30 3332 H 311.48 2.40282 3.67643 0
M  V30 3333 H 312.086 3.50073 2.41514 0
M  V30 3334 N 310.401 -0.613514 1.45168 0
M  V30 3335 C 311.626 -1.40437 1.52618 0
M  V30 3336 C 312.051 -1.87438 0.157707 0
M  V30 3337 O 311.409 -1.59791 -0.856537 0
M  V30 3338 C 311.457 -2.58894 2.51011 0
M  V30 3339 O 310.561 -3.59326 2.02382 0
M  V30 3340 H 309.902 -0.419506 0.514695 0
M  V30 3341 H 312.432 -0.747215 1.90467 0
M  V30 3342 H 312.442 -3.06214 2.69624 0
M  V30 3343 H 311.117 -2.24032 3.50403 0
M  V30 3344 H 309.694 -3.18695 1.93618 0
M  V30 3345 N 311.879 -1.3236 -0.855495 0
M  V30 3346 C 313.128 -1.22226 -1.60448 0
M  V30 3347 C 313.441 0.214733 -1.94418 0
M  V30 3348 O 314.647 0.437917 -2.67945 0
M  V30 3349 C 313.103 -2.14063 -2.89318 0
M  V30 3350 C 312.711 -3.62839 -2.62777 0
M  V30 3351 C 314.455 -2.12764 -3.67331 0
M  V30 3352 C 312.362 -4.4664 -3.87643 0
M  V30 3353 H 311.292 -0.453904 -0.602069 0
M  V30 3354 H 313.943 -1.57314 -0.944698 0
M  V30 3355 H 312.325 -1.71889 -3.5675 0
M  V30 3356 H 313.499 -4.1335 -2.03662 0
M  V30 3357 H 311.814 -3.66261 -1.98096 0
M  V30 3358 H 314.411 -2.72611 -4.59987 0
M  V30 3359 H 314.754 -1.11841 -4.00995 0
M  V30 3360 H 315.287 -2.53214 -3.06802 0
M  V30 3361 H 312.026 -5.48373 -3.5912 0
M  V30 3362 H 311.546 -4.0088 -4.46156 0
M  V30 3363 H 313.225 -4.59597 -4.55389 0
M  V30 3364 N 313.357 1.07166 -1.15556 0
M  V30 3365 C 314.267 2.17947 -0.868116 0
M  V30 3366 C 315.283 1.73297 0.156297 0
M  V30 3367 O 316.459 2.01392 -0.0182327 0
M  V30 3368 C 313.524 3.44789 -0.36355 0
M  V30 3369 C 312.585 4.03996 -1.45209 0
M  V30 3370 C 311.818 5.24783 -0.971508 0
M  V30 3371 O 312.041 5.70109 0.182194 0
M  V30 3372 O 310.975 5.75715 -1.75603 0
M  V30 3373 H 314.801 2.4503 -1.79427 0
M  V30 3374 H 312.386 1.16539 -0.934824 0
M  V30 3375 H 314.268 4.21307 -0.0887113 0
M  V30 3376 H 312.943 3.19253 0.534708 0
M  V30 3377 H 311.85 3.29009 -1.78056 0
M  V30 3378 H 313.183 4.33808 -2.32533 0
M  V30 3379 N 314.835 0.952656 1.25548 0
M  V30 3380 C 315.768 0.415525 2.24385 0
M  V30 3381 C 316.746 -0.502046 1.54655 0
M  V30 3382 O 317.93 -0.436875 1.83368 0
M  V30 3383 C 315.057 -0.401734 3.36309 0
M  V30 3384 C 314.103 0.455949 4.24056 0
M  V30 3385 S 314.936 1.88698 5.01152 0
M  V30 3386 C 316.092 1.07809 6.16545 0
M  V30 3387 H 316.325 1.25315 2.69599 0
M  V30 3388 H 313.858 0.756587 1.34592 0
M  V30 3389 H 315.816 -0.867329 4.01233 0
M  V30 3390 H 314.477 -1.21416 2.89684 0
M  V30 3391 H 313.67 -0.170776 5.03711 0
M  V30 3392 H 313.272 0.856675 3.64056 0
M  V30 3393 H 315.564 0.325816 6.76716 0
M  V30 3394 H 316.507 1.84849 6.83547 0
M  V30 3395 H 316.915 0.60909 5.61204 0
M  V30 3396 N 316.313 -1.40141 0.720998 0
M  V30 3397 C 317.276 -2.29058 0.0805834 0
M  V30 3398 C 318.276 -1.45632 -0.681758 0
M  V30 3399 O 319.466 -1.6648 -0.512856 0
M  V30 3400 C 316.598 -3.28925 -0.895593 0
M  V30 3401 H 317.791 -2.87191 0.863793 0
M  V30 3402 H 315.344 -1.48553 0.485975 0
M  V30 3403 H 316.079 -2.75822 -1.70566 0
M  V30 3404 H 315.864 -3.90519 -0.351766 0
M  V30 3405 H 317.354 -3.95494 -1.34069 0
M  V30 3406 N 317.792 -0.46758 -1.50504 0
M  V30 3407 C 318.702 0.33382 -2.32213 0
M  V30 3408 C 319.718 0.999323 -1.42441 0
M  V30 3409 O 320.894 0.988068 -1.75497 0
M  V30 3410 C 317.959 1.4035 -3.17022 0
M  V30 3411 C 317.02 0.754961 -4.2261 0
M  V30 3412 C 316.253 1.77367 -5.03365 0
M  V30 3413 O 316.476 2.99976 -4.8515 0
M  V30 3414 O 315.41 1.34744 -5.86624 0
M  V30 3415 H 319.236 -0.334067 -3.01857 0
M  V30 3416 H 316.821 -0.229496 -1.47627 0
M  V30 3417 H 318.703 2.02318 -3.69656 0
M  V30 3418 H 317.378 2.05492 -2.5011 0
M  V30 3419 H 316.285 0.0964244 -3.73976 0
M  V30 3420 H 317.618 0.146545 -4.91982 0
M  V30 3421 N 319.27 1.56325 -0.20005 0
M  V30 3422 C 320.518 1.97329 0.436547 0
M  V30 3423 C 320.839 1.08826 1.61808 0
M  V30 3424 O 320.109 0.160604 1.95241 0
M  V30 3425 H 318.689 0.728714 0.164272 0
M  V30 3426 H 321.351 1.92761 -0.287937 0
M  V30 3427 H 320.447 3.02264 0.777353 0
M  V30 3428 N 320.748 -0.0735177 1.57428 0
M  V30 3429 C 321.695 -1.08756 2.0357 0
M  V30 3430 C 322.665 -1.38559 0.916 0
M  V30 3431 O 323.85 -1.49656 1.18354 0
M  V30 3432 C 320.99 -2.39657 2.48311 0
M  V30 3433 C 320.103 -2.16399 3.73892 0
M  V30 3434 C 319.238 -3.40852 4.07423 0
M  V30 3435 C 318.277 -3.1295 5.2605 0
M  V30 3436 N 317.414 -4.29729 5.55228 0
M  V30 3437 H 322.254 -0.687104 2.8997 0
M  V30 3438 H 319.791 -0.327709 1.43403 0
M  V30 3439 H 321.749 -3.16081 2.72303 0
M  V30 3440 H 320.379 -2.77508 1.64891 0
M  V30 3441 H 319.431 -1.30676 3.57251 0
M  V30 3442 H 320.743 -1.91788 4.60455 0
M  V30 3443 H 319.897 -4.25671 4.32306 0
M  V30 3444 H 318.636 -3.68537 3.19425 0
M  V30 3445 H 317.641 -2.26526 5.00965 0
M  V30 3446 H 318.866 -2.86589 6.15665 0
M  V30 3447 H 316.812 -4.57448 4.70188 0
M  V30 3448 H 316.729 -4.08385 6.36206 0
M  V30 3449 H 317.997 -5.1555 5.84661 0
M  V30 3450 N 322.226 -1.5378 -0.344866 0
M  V30 3451 C 323.637 -1.62428 -0.920552 0
M  V30 3452 C 323.988 -0.504747 -1.89596 0
M  V30 3453 O 323.113 0.365711 -2.13287 0
M  V30 3454 C 323.708 -2.94419 -1.67639 0
M  V30 3455 C 322.267 -3.05333 -2.20111 0
M  V30 3456 C 321.414 -2.57866 -1.01982 0
M  V30 3457 H 324.365 -1.58222 -0.123042 0
M  V30 3458 H 324.386 -2.83384 -2.53917 0
M  V30 3459 H 323.898 -3.7588 -0.966224 0
M  V30 3460 H 321.999 -2.28502 -2.94308 0
M  V30 3461 H 322.112 -4.10778 -2.46573 0
M  V30 3462 H 320.476 -2.13241 -1.39285 0
M  V30 3463 H 321.259 -3.41765 -0.324308 0
M  V30 3464 N 323.704 0.605807 -1.45491 0
M  V30 3465 C 325.115 1.18777 -1.44045 0
M  V30 3466 C 325.466 1.95471 -0.169001 0
M  V30 3467 O 324.591 2.0374 0.729324 0
M  V30 3468 C 325.186 2.16064 -2.60963 0
M  V30 3469 C 323.745 2.69633 -2.62631 0
M  V30 3470 C 322.892 1.45072 -2.36325 0
M  V30 3471 H 325.843 0.395017 -1.53705 0
M  V30 3472 H 325.864 2.9913 -2.35163 0
M  V30 3473 H 325.376 1.60217 -3.53486 0
M  V30 3474 H 323.477 3.29414 -1.74119 0
M  V30 3475 H 323.59 3.13944 -3.61906 0
M  V30 3476 H 321.954 1.74089 -1.85917 0
M  V30 3477 H 322.737 0.910899 -3.30995 0
M  V30 3478 N 325.182 1.32811 0.848464 0
M  V30 3479 C 326.412 1.26556 1.63301 0
M  V30 3480 C 326.82 -0.1676 1.88456 0
M  V30 3481 O 326.163 -1.11713 1.45828 0
M  V30 3482 C 326.225 1.96202 3.01239 0
M  V30 3483 C 325.889 3.45528 2.99098 0
M  V30 3484 C 326.886 4.40903 2.75501 0
M  V30 3485 C 324.571 3.87558 3.19537 0
M  V30 3486 C 326.565 5.76282 2.72356 0
M  V30 3487 C 324.252 5.23044 3.16019 0
M  V30 3488 C 325.25 6.17217 2.92458 0
M  V30 3489 O 324.938 7.50223 2.88825 0
M  V30 3490 H 324.67 0.43771 0.515156 0
M  V30 3491 H 327.224 1.7559 1.0657 0
M  V30 3492 H 325.454 1.41746 3.59785 0
M  V30 3493 H 327.143 1.83573 3.62016 0
M  V30 3494 H 327.909 4.09756 2.5947 0
M  V30 3495 H 323.788 3.14674 3.369 0
M  V30 3496 H 327.332 6.4976 2.53886 0
M  V30 3497 H 323.229 5.53818 3.31596 0
M  V30 3498 H 323.997 7.59657 3.04735 0
M  V30 3499 N 326.66 -1.06551 1.16123 0
M  V30 3500 C 327.623 -2.12132 0.867906 0
M  V30 3501 C 328.623 -1.60224 -0.135944 0
M  V30 3502 O 329.813 -1.73943 0.0946422 0
M  V30 3503 C 326.945 -3.396 0.297419 0
M  V30 3504 H 328.138 -2.39586 1.80385 0
M  V30 3505 H 325.691 -1.22574 0.969812 0
M  V30 3506 H 326.426 -3.17794 -0.64633 0
M  V30 3507 H 326.211 -3.78581 1.02073 0
M  V30 3508 H 327.701 -4.17455 0.110052 0
M  V30 3509 N 328.138 -0.959301 -1.25041 0
M  V30 3510 C 329.415 -0.533805 -1.88175 0
M  V30 3511 C 329.795 0.988994 -1.865 0
M  V30 3512 O 329.143 1.85677 -1.33177 0
M  V30 3513 C 329.353 -1.11575 -3.30684 0
M  V30 3514 C 330.701 -1.19548 -4.07423 0
M  V30 3515 O 331.725 -1.06765 -3.39823 0
M  V30 3516 O 330.584 -1.39656 -5.28354 0
M  V30 3517 H 327.678 -0.176772 -0.807887 0
M  V30 3518 H 330.224 -1.05303 -1.33076 0
M  V30 3519 H 328.996 -2.15884 -3.26358 0
M  V30 3520 H 328.619 -0.580059 -3.93346 0
M  V30 3521 N 329.616 1.39756 -0.72842 0
M  V30 3522 C 330.865 1.99879 -0.270407 0
M  V30 3523 C 331.178 1.58449 1.14688 0
M  V30 3524 O 332.384 2.11362 1.70407 0
M  V30 3525 C 330.84 3.57292 -0.43252 0
M  V30 3526 C 330.448 4.07688 -1.85727 0
M  V30 3527 C 332.192 4.24485 -0.0359507 0
M  V30 3528 C 330.099 5.5765 -1.96928 0
M  V30 3529 H 329.029 0.747689 -0.0973472 0
M  V30 3530 H 331.68 1.59837 -0.901355 0
M  V30 3531 H 330.062 3.95097 0.267219 0
M  V30 3532 H 331.236 3.81231 -2.58843 0
M  V30 3533 H 329.551 3.53135 -2.20646 0
M  V30 3534 H 332.148 5.34609 -0.0987484 0
M  V30 3535 H 332.491 4.03915 1.00787 0
M  V30 3536 H 333.024 3.9183 -0.686604 0
M  V30 3537 H 329.763 5.8309 -2.99476 0
M  V30 3538 H 329.283 5.8593 -1.28241 0
M  V30 3539 H 330.962 6.22957 -1.74737 0
M  V30 3540 N 331.094 0.475555 1.50254 0
M  V30 3541 C 332.044 -0.335025 2.25525 0
M  V30 3542 C 333.028 -0.957625 1.29299 0
M  V30 3543 O 334.22 -0.869436 1.54175 0
M  V30 3544 C 331.349 -1.41385 3.12834 0
M  V30 3545 C 330.435 -0.798762 4.1651 0
M  V30 3546 N 330.826 0.0835815 5.05731 0
M  V30 3547 C 329.124 -1.06221 4.33166 0
M  V30 3548 C 329.825 0.433113 5.80085 0
M  V30 3549 N 328.801 -0.1928 5.43258 0
M  V30 3550 H 332.603 0.344612 2.91873 0
M  V30 3551 H 330.117 0.289986 1.5979 0
M  V30 3552 H 332.114 -2.00777 3.65368 0
M  V30 3553 H 330.774 -2.09543 2.48036 0
M  V30 3554 H 331.785 0.452715 5.15918 0
M  V30 3555 H 328.462 -1.73844 3.79585 0
M  V30 3556 H 329.852 1.15346 6.61925 0
M  V30 3557 N 332.573 -1.56217 0.208337 0
M  V30 3558 C 333.984 -1.84243 -0.301904 0
M  V30 3559 C 334.335 -1.12939 -1.60434 0
M  V30 3560 O 333.46 -0.39461 -2.12772 0
M  V30 3561 C 334.055 -3.34231 -0.554543 0
M  V30 3562 C 332.614 -3.62621 -1.00912 0
M  V30 3563 C 331.761 -2.77224 -0.064933 0
M  V30 3564 H 334.712 -1.52712 0.431833 0
M  V30 3565 H 334.733 -3.5372 -1.40223 0
M  V30 3566 H 334.245 -3.86099 0.393561 0
M  V30 3567 H 332.346 -3.16197 -1.97104 0
M  V30 3568 H 332.459 -4.7071 -0.892674 0
M  V30 3569 H 330.823 -2.48256 -0.56929 0
M  V30 3570 H 331.606 -3.31887 0.877851 0
M  V30 3571 N 334.051 0.0651679 -1.57465 0
M  V30 3572 C 334.984 1.10876 -1.99453 0
M  V30 3573 C 335.962 1.37205 -0.872555 0
M  V30 3574 O 337.146 1.50468 -1.13542 0
M  V30 3575 C 334.273 2.45167 -2.3369 0
M  V30 3576 C 333.319 2.3493 -3.55964 0
M  V30 3577 S 334.152 1.73708 -5.06543 0
M  V30 3578 C 335.308 3.09563 -5.43987 0
M  V30 3579 H 335.541 0.750967 -2.87659 0
M  V30 3580 H 333.074 0.273933 -1.51951 0
M  V30 3581 H 335.032 3.22412 -2.54088 0
M  V30 3582 H 333.693 2.78105 -1.46001 0
M  V30 3583 H 332.886 3.3398 -3.77457 0
M  V30 3584 H 332.488 1.65823 -3.3523 0
M  V30 3585 H 334.78 4.05882 -5.42463 0
M  V30 3586 H 335.723 2.92843 -6.44708 0
M  V30 3587 H 336.131 3.10474 -4.71451 0
M  V30 3588 N 335.529 1.53961 0.336706 0
M  V30 3589 C 336.945 1.44378 0.680241 0
M  V30 3590 C 337.145 0.606034 1.9217 0
M  V30 3591 O 336.201 0.099688 2.52303 0
M  V30 3592 C 337.514 2.87945 0.8665 0
M  V30 3593 C 339.062 2.97763 0.964682 0
M  V30 3594 C 339.537 4.42453 1.18321 0
M  V30 3595 N 341.028 4.46008 1.25025 0
M  V30 3596 C 341.763 5.55102 1.43697 0
M  V30 3597 N 341.259 6.7419 1.59498 0
M  V30 3598 N 343.052 5.42727 1.463 0
M  V30 3599 H 335.203 2.06918 -0.479455 0
M  V30 3600 H 337.466 0.935634 -0.152619 0
M  V30 3601 H 337.172 3.51691 0.0256937 0
M  V30 3602 H 337.046 3.33293 1.76623 0
M  V30 3603 H 339.433 2.34153 1.796 0
M  V30 3604 H 339.514 2.55766 0.041708 0
M  V30 3605 H 339.158 5.06645 0.356788 0
M  V30 3606 H 339.088 4.82048 2.11985 0
M  V30 3607 H 341.579 3.60196 1.14312 0
M  V30 3608 H 341.892 7.53095 1.734 0
M  V30 3609 H 340.237 6.77123 1.56621 0
M  V30 3610 H 343.428 4.48647 1.33543 0
M  V30 3611 H 343.601 6.27806 1.6051 0
M  V30 3612 N 337.007 -0.598083 1.45811 0
M  V30 3613 C 337.97 -1.69018 1.54808 0
M  V30 3614 C 338.97 -1.55037 0.426652 0
M  V30 3615 O 340.16 -1.59932 0.690456 0
M  V30 3616 C 337.292 -3.0835 1.45371 0
M  V30 3617 H 338.485 -1.62403 2.52121 0
M  V30 3618 H 336.038 -0.814626 1.33392 0
M  V30 3619 H 336.773 -3.20534 0.492793 0
M  V30 3620 H 336.558 -3.19907 2.26721 0
M  V30 3621 H 338.048 -3.8788 1.54721 0
M  V30 3622 N 338.485 -1.33259 -0.841409 0
M  V30 3623 C 339.734 -1.23921 -1.59143 0
M  V30 3624 C 340.047 0.1941 -1.94635 0
M  V30 3625 O 341.253 0.409474 -2.68394 0
M  V30 3626 C 339.709 -2.17119 -2.87032 0
M  V30 3627 C 339.317 -3.65606 -2.58914 0
M  V30 3628 C 341.061 -2.16648 -3.65053 0
M  V30 3629 C 338.968 -4.50726 -3.82884 0
M  V30 3630 H 337.898 -0.460264 -0.597221 0
M  V30 3631 H 340.549 -1.58307 -0.927959 0
M  V30 3632 H 338.931 -1.75663 -3.54906 0
M  V30 3633 H 340.105 -4.15487 -1.99267 0
M  V30 3634 H 338.42 -3.68341 -1.942 0
M  V30 3635 H 341.017 -2.77474 -4.57069 0
M  V30 3636 H 341.36 -1.16088 -3.99787 0
M  V30 3637 H 341.893 -2.56453 -3.041 0
M  V30 3638 H 338.632 -5.52151 -3.53283 0
M  V30 3639 H 338.152 -4.0559 -4.41879 0
M  V30 3640 H 339.831 -4.64401 -4.50489 0
M  V30 3641 N 339.963 1.05934 -1.16686 0
M  V30 3642 C 341.21 1.788 -0.950622 0
M  V30 3643 C 341.538 1.87384 0.521305 0
M  V30 3644 O 340.793 1.36438 1.40297 0
M  V30 3645 C 341.092 3.23105 -1.52767 0
M  V30 3646 C 340.758 3.34594 -3.02254 0
M  V30 3647 C 339.42 3.37437 -3.43059 0
M  V30 3648 C 341.772 3.36219 -3.98254 0
M  V30 3649 C 339.1 3.39525 -4.78477 0
M  V30 3650 C 341.452 3.39845 -5.33562 0
M  V30 3651 C 340.116 3.40971 -5.73842 0
M  V30 3652 H 339.386 0.654275 -0.347857 0
M  V30 3653 H 342.033 1.24555 -1.45459 0
M  V30 3654 H 340.338 3.80227 -0.94524 0
M  V30 3655 H 342.035 3.7809 -1.336 0
M  V30 3656 H 338.625 3.3309 -2.6972 0
M  V30 3657 H 342.809 3.33231 -3.67792 0
M  V30 3658 H 338.065 3.38703 -5.09009 0
M  V30 3659 H 342.239 3.4005 -6.07733 0
M  V30 3660 H 339.866 3.42342 -6.78753 0
M  V30 3661 N 341.441 0.965919 1.2453 0
M  V30 3662 C 342.374 0.4393 2.23932 0
M  V30 3663 C 343.352 -0.485615 1.55179 0
M  V30 3664 O 344.536 -0.417402 1.83821 0
M  V30 3665 C 341.663 -0.366042 3.36716 0
M  V30 3666 C 340.709 0.5009 4.23548 0
M  V30 3667 S 341.542 1.94002 4.99123 0
M  V30 3668 C 342.698 1.14342 6.15367 0
M  V30 3669 H 342.931 1.28167 2.68254 0
M  V30 3670 H 340.464 0.770819 1.33782 0
M  V30 3671 H 342.422 -0.824724 4.0213 0
M  V30 3672 H 341.083 -1.18337 2.90956 0
M  V30 3673 H 340.276 -0.117341 5.03863 0
M  V30 3674 H 339.878 0.89524 3.63127 0
M  V30 3675 H 342.17 0.397572 6.76332 0
M  V30 3676 H 343.113 1.92089 6.81548 0
M  V30 3677 H 343.521 0.668579 5.60527 0
M  V30 3678 N 342.919 -1.39368 0.735821 0
M  V30 3679 C 344.168 -1.99733 0.281004 0
M  V30 3680 C 344.481 -1.59055 -1.13846 0
M  V30 3681 O 345.687 -2.12262 -1.69284 0
M  V30 3682 C 344.143 -3.57057 0.451462 0
M  V30 3683 C 343.751 -4.06697 1.87886 0
M  V30 3684 C 345.495 -4.2446 0.0584616 0
M  V30 3685 C 343.402 -5.56598 1.99883 0
M  V30 3686 H 342.332 -0.747163 0.101311 0
M  V30 3687 H 344.983 -1.59357 0.909819 0
M  V30 3688 H 343.365 -3.95234 -0.246263 0
M  V30 3689 H 344.539 -3.79853 2.60861 0
M  V30 3690 H 342.854 -3.5196 2.22515 0
M  V30 3691 H 345.451 -5.34549 0.127099 0
M  V30 3692 H 345.794 -4.04444 -0.986433 0
M  V30 3693 H 346.327 -3.9146 0.707374 0
M  V30 3694 H 343.066 -5.81494 3.02564 0
M  V30 3695 H 342.586 -5.85242 1.31346 0
M  V30 3696 H 344.265 -6.22022 1.78039 0
M  V30 3697 N 344.397 -0.483516 -1.5 0
M  V30 3698 C 345.808 -0.0314176 -1.86674 0
M  V30 3699 C 346.159 1.37728 -1.39733 0
M  V30 3700 O 345.284 2.02327 -0.767635 0
M  V30 3701 C 345.879 -0.0502376 -3.38763 0
M  V30 3702 C 344.438 0.346442 -3.74802 0
M  V30 3703 C 343.585 -0.430366 -2.7394 0
M  V30 3704 H 346.536 -0.697182 -1.42566 0
M  V30 3705 H 346.557 0.749116 -3.73053 0
M  V30 3706 H 346.069 -1.07563 -3.72897 0
M  V30 3707 H 344.17 1.37572 -3.46273 0
M  V30 3708 H 344.283 0.0391486 -4.79084 0
M  V30 3709 H 342.647 0.117557 -2.54429 0
M  V30 3710 H 343.43 -1.4555 -3.10918 0
M  V30 3711 N 345.875 1.56104 -0.216619 0
M  V30 3712 C 347.103 2.02563 0.421413 0
M  V30 3713 C 347.518 1.0965 1.53695 0
M  V30 3714 O 346.875 0.10521 1.82196 0
M  V30 3715 C 346.926 3.48584 0.957665 0
M  V30 3716 O 346.647 4.37953 -0.113389 0
M  V30 3717 C 348.148 4.10664 1.66943 0
M  V30 3718 H 345.368 0.662944 0.103665 0
M  V30 3719 H 347.912 2.01793 -0.331629 0
M  V30 3720 H 346.067 3.49985 1.661 0
M  V30 3721 H 346.481 5.23704 0.288932 0
M  V30 3722 H 347.955 5.14622 1.99671 0
M  V30 3723 H 348.432 3.55373 2.58083 0
M  V30 3724 H 349.038 4.13098 1.01142 0
M  V30 3725 N 347.353 -0.0568162 1.57498 0
M  V30 3726 C 348.301 -1.08452 2.05769 0
M  V30 3727 C 349.295 -1.39164 0.965903 0
M  V30 3728 O 350.501 -1.38395 1.15095 0
M  V30 3729 H 346.876 -0.367148 0.656282 0
M  V30 3730 H 348.847 -0.651368 2.91204 0
M  V30 3731 C 347.596 -2.38543 2.52968 0
M  V30 3732 H 346.919 -2.15765 3.36579 0
M  V30 3733 H 348.359 -3.08863 2.90481 0
M  V30 3734 C 346.818 -3.05562 1.41893 0
M  V30 3735 O 347.348 -3.94262 0.769442 0
M  V30 3736 N 345.554 -2.6643 1.16032 0
M  V30 3737 H 345.101 -1.94387 1.6903 0
M  V30 3738 H 345.059 -3.11593 0.419219 0
M  V30 3739 N 348.832 -1.54138 -0.328536 0
M  V30 3740 C 350.243 -1.63395 -0.903272 0
M  V30 3741 C 350.594 -0.524828 -1.8905 0
M  V30 3742 O 349.719 0.343068 -2.13663 0
M  V30 3743 C 350.314 -2.9618 -1.64507 0
M  V30 3744 C 348.873 -3.0765 -2.1686 0
M  V30 3745 C 348.02 -2.58933 -0.992416 0
M  V30 3746 H 350.971 -1.58344 -0.106253 0
M  V30 3747 H 350.992 -2.86061 -2.50897 0
M  V30 3748 H 350.504 -3.76884 -0.926302 0
M  V30 3749 H 348.605 -2.31611 -2.91868 0
M  V30 3750 H 348.718 -4.1337 -2.42202 0
M  V30 3751 H 347.082 -2.14706 -1.37016 0
M  V30 3752 H 347.865 -3.42089 -0.288041 0
M  V30 3753 N 350.31 0.590341 -1.46126 0
M  V30 3754 C 351.721 1.17243 -1.45296 0
M  V30 3755 C 352.072 1.95281 -0.189723 0
M  V30 3756 O 351.197 2.04502 0.707674 0
M  V30 3757 C 351.792 2.13284 -2.6324 0
M  V30 3758 C 350.351 2.66832 -2.65476 0
M  V30 3759 C 349.498 1.42557 -2.3785 0
M  V30 3760 H 352.449 0.378692 -1.54116 0
M  V30 3761 H 352.47 2.96619 -2.38323 0
M  V30 3762 H 351.982 1.56459 -3.55165 0
M  V30 3763 H 350.083 3.27548 -1.77603 0
M  V30 3764 H 350.196 3.10088 -3.65215 0
M  V30 3765 H 348.56 1.72107 -1.87753 0
M  V30 3766 H 349.343 0.875741 -3.31942 0
M  V30 3767 N 351.788 1.33704 0.83433 0
M  V30 3768 C 353.199 1.22813 1.4062 0
M  V30 3769 C 353.55 -0.151107 1.95617 0
M  V30 3770 O 352.675 -1.05092 1.89168 0
M  V30 3771 C 353.27 2.22355 2.55624 0
M  V30 3772 C 351.829 2.1529 3.08751 0
M  V30 3773 C 350.976 2.09589 1.8157 0
M  V30 3774 H 353.927 1.45236 0.639702 0
M  V30 3775 H 353.948 1.83391 3.33389 0
M  V30 3776 H 353.46 3.22728 2.15566 0
M  V30 3777 H 351.561 1.18235 3.53343 0
M  V30 3778 H 351.674 3.06038 3.68616 0
M  V30 3779 H 350.038 1.55134 2.02004 0
M  V30 3780 H 350.821 3.11777 1.43701 0
M  V30 3781 N 353.266 -1.05314 1.17247 0
M  V30 3782 C 354.494 -1.81971 0.984593 0
M  V30 3783 C 354.909 -1.82929 -0.467166 0
M  V30 3784 O 354.266 -1.25564 -1.32438 0
M  V30 3785 C 354.317 -3.28143 1.51672 0
M  V30 3786 O 354.038 -3.27347 2.91163 0
M  V30 3787 C 355.539 -4.21493 1.37326 0
M  V30 3788 H 352.759 -0.573455 0.348411 0
M  V30 3789 H 355.303 -1.32808 1.55506 0
M  V30 3790 H 353.458 -3.74582 0.988302 0
M  V30 3791 H 353.872 -4.18824 3.15732 0
M  V30 3792 H 355.346 -5.22043 1.79375 0
M  V30 3793 H 355.823 -4.38031 0.320169 0
M  V30 3794 H 356.429 -3.80909 1.89178 0
M  V30 3795 N 354.744 -0.972509 -1.24016 0
M  V30 3796 C 355.991 -0.637034 -1.92219 0
M  V30 3797 C 356.319 0.828418 -1.75976 0
M  V30 3798 O 355.574 1.61206 -1.10955 0
M  V30 3799 C 355.873 -0.963694 -3.44162 0
M  V30 3800 C 355.539 -2.41807 -3.80579 0
M  V30 3801 C 354.201 -2.81556 -3.9023 0
M  V30 3802 C 356.553 -3.36172 -3.98293 0
M  V30 3803 C 353.881 -4.14702 -4.15017 0
M  V30 3804 C 356.233 -4.68952 -4.24578 0
M  V30 3805 C 354.897 -5.08472 -4.32449 0
M  V30 3806 H 354.167 -0.233107 -0.703379 0
M  V30 3807 H 356.814 -1.2249 -1.47202 0
M  V30 3808 H 355.119 -0.29365 -3.90698 0
M  V30 3809 H 356.816 -0.682449 -3.9515 0
M  V30 3810 H 353.406 -2.09988 -3.73635 0
M  V30 3811 H 357.59 -3.06644 -3.90234 0
M  V30 3812 H 352.846 -4.4494 -4.19331 0
M  V30 3813 H 357.02 -5.42037 -4.37229 0
M  V30 3814 H 354.647 -6.11665 -4.51409 0
M  V30 3815 N 356.222 1.38976 -0.743202 0
M  V30 3816 C 357.638 1.53984 -0.419664 0
M  V30 3817 C 357.838 1.70837 1.0685 0
M  V30 3818 O 356.894 1.7135 1.8546 0
M  V30 3819 C 358.207 2.75287 -1.20985 0
M  V30 3820 C 359.755 2.89129 -1.19889 0
M  V30 3821 C 360.23 4.13381 -1.97181 0
M  V30 3822 N 361.721 4.20437 -1.94389 0
M  V30 3823 C 362.456 5.15547 -2.50996 0
M  V30 3824 N 361.952 6.16395 -3.16274 0
M  V30 3825 N 363.745 5.07822 -2.40984 0
M  V30 3826 H 355.896 1.26285 -1.7078 0
M  V30 3827 H 358.159 0.612689 -0.723406 0
M  V30 3828 H 357.865 2.69204 -2.26323 0
M  V30 3829 H 357.739 3.68184 -0.819759 0
M  V30 3830 H 360.126 2.947 -0.153606 0
M  V30 3831 H 360.207 1.97272 -1.62841 0
M  V30 3832 H 359.851 4.08572 -3.01714 0
M  V30 3833 H 359.781 5.04298 -1.51629 0
M  V30 3834 H 362.272 3.48205 -1.46839 0
M  V30 3835 H 362.585 6.85443 -3.56915 0
M  V30 3836 H 360.93 6.16758 -3.20367 0
M  V30 3837 H 364.121 4.27973 -1.89622 0
M  V30 3838 H 364.294 5.81767 -2.85397 0
M  V30 3839 N 357.7 0.491464 1.49741 0
M  V30 3840 C 358.647 -0.292027 2.28945 0
M  V30 3841 C 359.617 -0.968973 1.34908 0
M  V30 3842 O 360.802 -0.97748 1.6386 0
M  V30 3843 C 357.942 -1.35617 3.17336 0
M  V30 3844 C 357.055 -0.691957 4.26422 0
M  V30 3845 C 356.19 -1.73572 5.02042 0
M  V30 3846 C 355.229 -1.05286 6.02977 0
M  V30 3847 N 354.366 -2.0404 6.71798 0
M  V30 3848 H 359.206 0.389654 2.95442 0
M  V30 3849 H 356.743 0.204003 1.45679 0
M  V30 3850 H 358.701 -1.98502 3.66951 0
M  V30 3851 H 357.331 -2.00674 2.52844 0
M  V30 3852 H 356.383 0.0499523 3.80367 0
M  V30 3853 H 357.695 -0.153946 4.98562 0
M  V30 3854 H 356.849 -2.43987 5.55478 0
M  V30 3855 H 355.588 -2.30757 4.29654 0
M  V30 3856 H 354.593 -0.334446 5.48782 0
M  V30 3857 H 355.818 -0.487636 6.77347 0
M  V30 3858 H 353.764 -2.60205 6.02187 0
M  V30 3859 H 353.681 -1.55279 7.39881 0
M  V30 3860 H 354.949 -2.73772 7.29842 0
M  V30 3861 N 359.178 -1.55987 0.224894 0
M  V30 3862 C 360.589 -1.84553 -0.282345 0
M  V30 3863 C 360.94 -1.14634 -1.59227 0
M  V30 3864 O 360.065 -0.417155 -2.12341 0
M  V30 3865 C 360.66 -3.348 -0.519062 0
M  V30 3866 C 359.219 -3.63671 -0.970604 0
M  V30 3867 C 358.366 -2.77277 -0.0355261 0
M  V30 3868 H 361.317 -1.52245 0.448006 0
M  V30 3869 H 361.338 -3.55187 -1.36463 0
M  V30 3870 H 360.85 -3.8566 0.43449 0
M  V30 3871 H 358.951 -3.1827 -1.9374 0
M  V30 3872 H 359.064 -4.71631 -0.842698 0
M  V30 3873 H 357.428 -2.48846 -0.542927 0
M  V30 3874 H 358.211 -3.30937 0.913003 0
M  V30 3875 N 360.656 0.0484629 -1.57525 0
M  V30 3876 C 361.566 1.07241 -2.08654 0
M  V30 3877 C 362.582 1.409 -1.02095 0
M  V30 3878 O 363.758 1.50609 -1.33712 0
M  V30 3879 C 360.823 2.36008 -2.5397 0
M  V30 3880 C 359.884 2.09108 -3.7493 0
M  V30 3881 C 359.117 3.31736 -4.18075 0
M  V30 3882 O 359.34 4.41714 -3.60895 0
M  V30 3883 O 358.274 3.18576 -5.10679 0
M  V30 3884 H 362.1 0.667965 -2.96263 0
M  V30 3885 H 359.685 0.26417 -1.47046 0
M  V30 3886 H 361.567 3.11747 -2.83535 0
M  V30 3887 H 360.242 2.75786 -1.69481 0
M  V30 3888 H 359.149 1.31 -3.50414 0
M  V30 3889 H 360.482 1.74198 -4.60343 0
M  V30 3890 N 362.134 1.5431 0.320358 0
M  V30 3891 C 363.064 1.86912 1.3995 0
M  V30 3892 C 364.045 0.726211 1.53819 0
M  V30 3893 O 365.23 0.980233 1.67646 0
M  V30 3894 C 362.36 2.09932 2.7667 0
M  V30 3895 C 361.314 3.25776 2.77586 0
M  V30 3896 C 360.64 3.34173 4.17412 0
M  V30 3897 C 361.94 4.6335 2.41048 0
M  V30 3898 H 363.634 2.77292 1.12914 0
M  V30 3899 H 361.18 1.33421 0.541738 0
M  V30 3900 H 363.133 2.31324 3.52232 0
M  V30 3901 H 361.857 1.16304 3.0519 0
M  V30 3902 H 360.516 3.04276 2.04479 0
M  V30 3903 H 360.164 2.38098 4.43078 0
M  V30 3904 H 359.864 4.12033 4.18931 0
M  V30 3905 H 361.388 3.57803 4.94782 0
M  V30 3906 H 362.802 4.84602 3.06324 0
M  V30 3907 H 361.199 5.43782 2.53813 0
M  V30 3908 H 362.269 4.65381 1.36193 0
M  V30 3909 N 363.613 -0.582584 1.46437 0
M  V30 3910 C 364.859 -1.34064 1.52965 0
M  V30 3911 C 365.214 -1.91566 0.178968 0
M  V30 3912 O 364.507 -1.73526 -0.812365 0
M  V30 3913 C 364.701 -2.48964 2.56421 0
M  V30 3914 C 364.53 -2.02717 4.01417 0
M  V30 3915 C 363.3 -1.87728 4.69134 0
M  V30 3916 C 365.498 -1.58675 4.8921 0
M  V30 3917 N 363.48 -1.35554 5.98747 0
M  V30 3918 C 364.851 -1.18093 6.08649 0
M  V30 3919 C 366.906 -1.46494 4.75861 0
M  V30 3920 C 365.609 -0.665427 7.16215 0
M  V30 3921 C 367.635 -0.96347 5.83499 0
M  V30 3922 C 366.997 -0.567432 7.02111 0
M  V30 3923 H 363.096 -0.483551 0.614575 0
M  V30 3924 H 365.68 -0.663309 1.83053 0
M  V30 3925 H 363.851 -3.1426 2.28244 0
M  V30 3926 H 365.583 -3.15913 2.52944 0
M  V30 3927 H 362.338 -2.09678 4.24655 0
M  V30 3928 H 362.762 -1.11628 6.67734 0
M  V30 3929 H 367.404 -1.75731 3.8455 0
M  V30 3930 H 365.122 -0.360639 8.07295 0
M  V30 3931 H 368.708 -0.873129 5.75211 0
M  V30 3932 H 367.588 -0.185389 7.83981 0
M  V30 3933 N 365.091 -1.34144 -0.827227 0
M  V30 3934 C 366.316 -1.29476 -1.62021 0
M  V30 3935 C 366.741 0.129292 -1.87655 0
M  V30 3936 O 366.099 1.08967 -1.449 0
M  V30 3937 C 366.147 -2.08702 -2.94068 0
M  V30 3938 O 365.251 -1.45359 -3.85933 0
M  V30 3939 H 364.592 -0.444881 -0.492927 0
M  V30 3940 H 367.122 -1.76882 -1.02829 0
M  V30 3941 H 367.132 -2.19898 -3.43669 0
M  V30 3942 H 365.807 -3.12241 -2.74734 0
M  V30 3943 H 364.384 -1.42879 -3.44442 0
M  V30 3944 N 366.569 1.04691 -1.17803 0
M  V30 3945 C 367.846 1.7472 -0.879328 0
M  V30 3946 C 368.226 2.01812 0.619271 0
M  V30 3947 O 367.574 1.65824 1.57209 0
M  V30 3948 C 367.784 3.03686 -1.71976 0
M  V30 3949 C 369.132 3.77542 -1.94286 0
M  V30 3950 O 370.156 3.13569 -1.68976 0
M  V30 3951 O 369.015 4.92506 -2.36855 0
M  V30 3952 H 366.109 0.760011 -0.326056 0
M  V30 3953 H 368.655 1.10813 -1.28525 0
M  V30 3954 H 367.427 2.79754 -2.73594 0
M  V30 3955 H 367.05 3.75332 -1.31194 0
M  V30 3956 N 368.047 0.979072 1.23499 0
M  V30 3957 C 369.324 0.563674 1.87302 0
M  V30 3958 C 369.704 -0.959199 1.88049 0
M  V30 3959 O 369.052 -1.83535 1.36114 0
M  V30 3960 C 369.262 1.16822 3.28867 0
M  V30 3961 C 370.61 1.26014 4.0547 0
M  V30 3962 O 371.634 1.12158 3.38082 0
M  V30 3963 O 370.493 1.48044 5.26066 0
M  V30 3964 H 367.587 0.189602 0.804972 0
M  V30 3965 H 370.133 1.07407 1.31384 0
M  V30 3966 H 368.905 2.21049 3.22883 0
M  V30 3967 H 368.528 0.642564 3.92373 0
M  V30 3968 N 369.525 -1.3858 0.750561 0
M  V30 3969 C 370.772 -2.00184 0.305373 0
M  V30 3970 C 371.1 -1.59575 -1.11203 0
M  V30 3971 O 370.355 -0.823236 -1.77542 0
M  V30 3972 C 370.654 -3.55455 0.372373 0
M  V30 3973 C 370.32 -4.15765 1.745 0
M  V30 3974 C 368.982 -4.31951 2.12065 0
M  V30 3975 C 371.334 -4.49067 2.64553 0
M  V30 3976 C 368.662 -4.78734 3.39162 0
M  V30 3977 C 371.014 -4.97265 3.91038 0
M  V30 3978 C 369.678 -5.11658 4.28676 0
M  V30 3979 H 368.948 -0.732526 0.111744 0
M  V30 3980 H 371.595 -1.65673 0.960451 0
M  V30 3981 H 369.9 -3.90084 -0.366272 0
M  V30 3982 H 371.597 -4.00999 0.00953918 0
M  V30 3983 H 368.187 -4.03579 1.44297 0
M  V30 3984 H 372.371 -4.36166 2.36796 0
M  V30 3985 H 367.627 -4.88062 3.68246 0
M  V30 3986 H 371.801 -5.22003 4.60962 0
M  V30 3987 H 369.428 -5.47668 5.27222 0
M  V30 3988 N 371.003 -0.499398 -1.49478 0
M  V30 3989 C 372.231 0.0425456 -2.06856 0
M  V30 3990 C 372.646 1.30964 -1.35992 0
M  V30 3991 O 372.003 1.77172 -0.437762 0
M  V30 3992 C 372.054 0.301735 -3.60239 0
M  V30 3993 O 371.775 -0.915127 -4.28436 0
M  V30 3994 C 373.276 0.887499 -4.34325 0
M  V30 3995 H 370.496 -0.0197482 -0.670709 0
M  V30 3996 H 373.04 -0.696297 -1.92281 0
M  V30 3997 H 371.195 0.990556 -3.74522 0
M  V30 3998 H 371.609 -0.676993 -5.20113 0
M  V30 3999 H 373.083 1.01845 -5.42523 0
M  V30 4000 H 373.56 1.88488 -3.96698 0
M  V30 4001 H 374.166 0.236196 -4.24644 0
M  V30 4002 N 372.481 1.55866 -0.233164 0
M  V30 4003 C 373.758 1.90471 0.444988 0
M  V30 4004 C 374.138 1.15209 1.7689 0
M  V30 4005 O 373.486 0.265119 2.26957 0
M  V30 4006 C 373.696 3.4333 0.626559 0
M  V30 4007 C 375.044 4.14319 0.92871 0
M  V30 4008 O 376.068 3.48993 0.712926 0
M  V30 4009 O 374.927 5.29846 1.33887 0
M  V30 4010 H 372.021 0.792347 0.236885 0
M  V30 4011 H 374.567 1.67437 -0.276211 0
M  V30 4012 H 373.339 3.90095 -0.306822 0
M  V30 4013 H 372.962 3.72181 1.39881 0
M  V30 4014 N 373.959 -0.0401083 1.57549 0
M  V30 4015 C 375.206 -0.733125 1.88763 0
M  V30 4016 C 375.534 -1.75946 0.829058 0
M  V30 4017 O 374.789 -1.94949 -0.171323 0
M  V30 4018 C 375.088 -1.44902 3.26708 0
M  V30 4019 C 374.754 -0.559707 4.47413 0
M  V30 4020 C 373.416 -0.314731 4.8017 0
M  V30 4021 C 375.768 0.0549743 5.21171 0
M  V30 4022 C 373.096 0.553886 5.8408 0
M  V30 4023 C 375.448 0.911229 6.26003 0
M  V30 4024 C 374.112 1.16577 6.57241 0
M  V30 4025 H 373.382 -0.268269 0.690733 0
M  V30 4026 H 376.029 0.00679408 1.91499 0
M  V30 4027 H 374.334 -2.26197 3.1991 0
M  V30 4028 H 376.031 -1.99058 3.48105 0
M  V30 4029 H 372.621 -0.760793 4.21794 0
M  V30 4030 H 376.805 -0.121344 4.96152 0
M  V30 4031 H 372.061 0.759518 6.06664 0
M  V30 4032 H 376.235 1.3941 6.82303 0
M  V30 4033 H 373.862 1.84058 7.37582 0
M  V30 4034 N 375.437 -1.54477 -0.31217 0
M  V30 4035 C 376.683 -1.73483 -1.0503 0
M  V30 4036 C 377.016 -0.513125 -1.87298 0
M  V30 4037 O 376.291 0.489864 -1.8823 0
M  V30 4038 C 376.574 -3.01723 -1.96558 0
M  V30 4039 C 376.427 -4.3417 -1.17545 0
M  V30 4040 C 377.746 -3.25772 -2.95907 0
M  V30 4041 H 374.865 -0.631222 -0.380432 0
M  V30 4042 H 377.507 -1.87184 -0.325932 0
M  V30 4043 H 375.657 -2.90174 -2.58324 0
M  V30 4044 H 377.329 -4.5762 -0.581513 0
M  V30 4045 H 375.572 -4.31159 -0.477925 0
M  V30 4046 H 376.243 -5.20143 -1.84811 0
M  V30 4047 H 378.719 -3.36857 -2.44267 0
M  V30 4048 H 377.595 -4.16838 -3.57123 0
M  V30 4049 H 377.856 -2.43537 -3.68974 0
M  V30 4050 N 376.915 0.57481 -1.46744 0
M  V30 4051 C 377.862 1.68329 -1.57905 0
M  V30 4052 C 378.832 1.60625 -0.422927 0
M  V30 4053 O 380.017 1.79721 -0.640711 0
M  V30 4054 C 377.157 3.06665 -1.58274 0
M  V30 4055 C 376.27 3.24935 -2.84678 0
M  V30 4056 C 375.405 4.53566 -2.76499 0
M  V30 4057 C 374.444 4.65207 -3.97806 0
M  V30 4058 N 373.581 5.85172 -3.87967 0
M  V30 4059 H 378.421 1.58127 -2.52587 0
M  V30 4060 H 375.958 0.770552 -1.25303 0
M  V30 4061 H 377.916 3.86745 -1.56473 0
M  V30 4062 H 376.546 3.15745 -0.671194 0
M  V30 4063 H 375.598 2.38405 -2.96424 0
M  V30 4064 H 376.91 3.29403 -3.7456 0
M  V30 4065 H 376.064 5.41885 -2.72848 0
M  V30 4066 H 374.803 4.51548 -1.8427 0
M  V30 4067 H 373.808 3.75304 -4.0178 0
M  V30 4068 H 375.033 4.68997 -4.9114 0
M  V30 4069 H 372.979 5.84137 -2.98529 0
M  V30 4070 H 372.896 5.90943 -4.71511 0
M  V30 4071 H 374.164 6.759 -3.88303 0
M  V30 4072 N 378.394 1.34581 0.820102 0
M  V30 4073 C 379.341 1.2639 1.93117 0
M  V30 4074 C 380.311 0.138554 1.65521 0
M  V30 4075 O 381.496 0.320004 1.88097 0
M  V30 4076 C 378.636 1.02812 3.29429 0
M  V30 4077 C 377.749 2.24146 3.693 0
M  V30 4078 C 376.884 1.93829 4.94574 0
M  V30 4079 C 375.923 3.1129 5.27034 0
M  V30 4080 N 375.06 2.80838 6.43486 0
M  V30 4081 H 379.9 2.21408 1.99455 0
M  V30 4082 H 377.437 1.10077 0.975784 0
M  V30 4083 H 379.395 0.871788 4.0799 0
M  V30 4084 H 378.025 0.114612 3.22596 0
M  V30 4085 H 377.077 2.50691 2.86109 0
M  V30 4086 H 378.389 3.11899 3.89257 0
M  V30 4087 H 377.543 1.74948 5.80929 0
M  V30 4088 H 376.282 1.03341 4.76626 0
M  V30 4089 H 375.287 3.30764 4.39175 0
M  V30 4090 H 376.512 4.02561 5.4692 0
M  V30 4091 H 374.458 1.92929 6.26988 0
M  V30 4092 H 374.375 3.62123 6.63629 0
M  V30 4093 H 375.643 2.65467 7.32903 0
M  V30 4094 N 379.872 -1.04064 1.18357 0
M  V30 4095 C 381.112 -1.78829 0.989921 0
M  V30 4096 C 381.476 -1.86106 -0.472095 0
M  V30 4097 O 382.677 -2.57076 -0.785187 0
M  V30 4098 C 380.948 -3.1823 1.6268 0
M  V30 4099 S 382.507 -4.09332 1.58091 0
M  V30 4100 H 379.325 -0.615754 0.355482 0
M  V30 4101 H 381.927 -1.24778 1.50501 0
M  V30 4102 H 380.631 -3.10543 2.68311 0
M  V30 4103 H 380.162 -3.77357 1.112 0
M  V30 4104 H 382.177 -4.92598 0.596817 0
M  V30 4105 N 381.35 -0.985608 -1.22978 0
M  V30 4106 C 382.28 -0.549649 -2.26939 0
M  V30 4107 C 383.261 0.419803 -1.64838 0
M  V30 4108 O 384.446 0.31203 -1.91677 0
M  V30 4109 C 381.576 0.143652 -3.47003 0
M  V30 4110 C 380.53 -0.743606 -4.21491 0
M  V30 4111 C 379.856 0.0822027 -5.34637 0
M  V30 4112 C 381.156 -2.03694 -4.80943 0
M  V30 4113 H 382.85 -1.41862 -2.63658 0
M  V30 4114 H 380.396 -0.683571 -1.26741 0
M  V30 4115 H 382.349 0.459985 -4.18882 0
M  V30 4116 H 381.073 1.04711 -3.09359 0
M  V30 4117 H 379.732 -1.04347 -3.51436 0
M  V30 4118 H 379.38 0.986359 -4.93234 0
M  V30 4119 H 379.08 -0.508377 -5.85397 0
M  V30 4120 H 380.604 0.392797 -6.09335 0
M  V30 4121 H 382.018 -1.78504 -5.44802 0
M  V30 4122 H 380.415 -2.57573 -5.42011 0
M  V30 4123 H 381.485 -2.72042 -4.01399 0
M  V30 4124 N 382.828 1.3818 -0.7579 0
M  V30 4125 C 384.074 2.00316 -0.316453 0
M  V30 4126 C 384.407 1.60026 1.10025 0
M  V30 4127 O 383.682 0.839835 1.75434 0
M  V30 4128 C 383.965 3.57349 -0.444245 0
M  V30 4129 C 383.818 4.07591 -1.90236 0
M  V30 4130 C 385.137 4.3981 0.1598 0
M  V30 4131 H 382.256 0.727741 -0.116459 0
M  V30 4132 H 384.898 1.6406 -0.958352 0
M  V30 4133 H 383.048 3.88365 0.102233 0
M  V30 4134 H 384.72 3.87199 -2.50748 0
M  V30 4135 H 382.963 3.60297 -2.41595 0
M  V30 4136 H 383.634 5.16677 -1.94291 0
M  V30 4137 H 386.11 4.14971 -0.306314 0
M  V30 4138 H 384.986 5.48885 0.0401675 0
M  V30 4139 H 385.247 4.24102 1.24859 0
M  V30 4140 N 384.306 0.507319 1.49211 0
M  V30 4141 C 385.253 -0.267728 2.29242 0
M  V30 4142 C 386.223 -0.954609 1.35928 0
M  V30 4143 O 387.408 -0.960046 1.64887 0
M  V30 4144 C 384.548 -1.32243 3.18756 0
M  V30 4145 C 383.661 -0.64669 4.27132 0
M  V30 4146 C 382.796 -1.68238 5.03855 0
M  V30 4147 C 381.835 -0.98885 6.0406 0
M  V30 4148 N 380.972 -1.96903 6.73924 0
M  V30 4149 H 385.812 0.420968 2.95012 0
M  V30 4150 H 383.349 0.219443 1.45454 0
M  V30 4151 H 385.307 -1.94599 3.69036 0
M  V30 4152 H 383.937 -1.97981 2.54958 0
M  V30 4153 H 382.989 0.0902926 3.80293 0
M  V30 4154 H 384.301 -0.101058 4.98698 0
M  V30 4155 H 383.455 -2.38081 5.58034 0
M  V30 4156 H 382.194 -2.26187 4.32077 0
M  V30 4157 H 381.199 -0.276222 5.49106 0
M  V30 4158 H 382.424 -0.415767 6.77826 0
M  V30 4159 H 380.37 -2.53803 6.04913 0
M  V30 4160 H 380.287 -1.47423 7.41487 0
M  V30 4161 H 381.555 -2.66015 7.32705 0
M  V30 4162 N 385.784 -1.5574 0.241426 0
M  V30 4163 C 386.732 -2.22538 -0.676718 0
M  V30 4164 C 387.726 -1.21117 -1.18436 0
M  V30 4165 O 388.932 -1.39144 -1.14188 0
M  V30 4166 H 385.307 -0.713776 -0.236701 0
M  V30 4167 H 387.278 -2.98264 -0.0901187 0
M  V30 4168 C 386.027 -2.93439 -1.86518 0
M  V30 4169 H 385.35 -3.7125 -1.4837 0
M  V30 4170 H 386.79 -3.43549 -2.48495 0
M  V30 4171 C 385.249 -1.97008 -2.73294 0
M  V30 4172 O 385.779 -1.49965 -3.72657 0
M  V30 4173 N 383.985 -1.64227 -2.39745 0
M  V30 4174 H 383.532 -2.02677 -1.58996 0
M  V30 4175 H 383.49 -0.999708 -2.98083 0
M  V30 4176 N 387.262 0.0317525 -1.57568 0
M  V30 4177 C 388.673 0.578692 -1.77505 0
M  V30 4178 C 389.024 1.75749 -0.872164 0
M  V30 4179 O 388.149 2.16298 -0.0663106 0
M  V30 4180 C 388.744 1.05658 -3.21904 0
M  V30 4181 C 387.303 1.54906 -3.43047 0
M  V30 4182 C 386.45 0.485939 -2.73009 0
M  V30 4183 H 389.401 -0.194475 -1.57504 0
M  V30 4184 H 389.422 1.92404 -3.28269 0
M  V30 4185 H 388.934 0.198422 -3.87592 0
M  V30 4186 H 387.035 2.42915 -2.82529 0
M  V30 4187 H 387.148 1.59841 -4.5165 0
M  V30 4188 H 385.512 0.940354 -2.36705 0
M  V30 4189 H 386.295 -0.362709 -3.41379 0
M  V30 4190 N 388.74 1.54641 0.303973 0
M  V30 4191 C 389.65 1.88439 1.39743 0
M  V30 4192 C 390.666 0.778239 1.55626 0
M  V30 4193 O 391.842 1.07442 1.70347 0
M  V30 4194 C 388.907 2.12212 2.74166 0
M  V30 4195 C 387.968 3.35936 2.67293 0
M  V30 4196 C 387.201 3.58566 3.95305 0
M  V30 4197 O 387.424 2.84263 4.9452 0
M  V30 4198 O 386.358 4.52078 3.97378 0
M  V30 4199 H 390.184 2.81458 1.14083 0
M  V30 4200 H 387.769 1.40793 0.499768 0
M  V30 4201 H 389.651 2.29067 3.53704 0
M  V30 4202 H 388.326 1.22379 2.99675 0
M  V30 4203 H 387.233 3.24448 1.86237 0
M  V30 4204 H 388.566 4.2589 2.46736 0
M  V30 4205 N 390.218 -0.567019 1.47046 0
M  V30 4206 C 391.15 -1.68985 1.54844 0
M  V30 4207 C 392.163 -1.56869 0.435431 0
M  V30 4208 O 393.352 -1.64006 0.70457 0
M  V30 4209 C 390.452 -3.07373 1.42742 0
M  V30 4210 C 389.625 -3.45339 2.6844 0
M  V30 4211 C 388.684 -4.62849 2.50314 0
M  V30 4212 O 387.71 -4.67922 3.24095 0
M  V30 4213 N 388.912 -5.58726 1.57499 0
M  V30 4214 H 391.677 -1.62745 2.51663 0
M  V30 4215 H 389.238 -0.753411 1.43302 0
M  V30 4216 H 391.23 -3.83803 1.28365 0
M  V30 4217 H 389.8 -3.07893 0.540445 0
M  V30 4218 H 389.02 -2.58455 2.97648 0
M  V30 4219 H 390.308 -3.67476 3.51907 0
M  V30 4220 H 389.706 -5.57376 0.966876 0
M  V30 4221 H 388.263 -6.34523 1.49078 0
M  V30 4222 N 391.696 -1.35014 -0.812953 0
M  V30 4223 C 393.112 -1.14914 -1.10757 0
M  V30 4224 C 393.312 0.0426818 -2.01455 0
M  V30 4225 O 392.368 0.715212 -2.42159 0
M  V30 4226 C 393.681 -2.44911 -1.74468 0
M  V30 4227 C 395.229 -2.5106 -1.86917 0
M  V30 4228 C 395.704 -3.81085 -2.54044 0
M  V30 4229 N 397.195 -3.82301 -2.61535 0
M  V30 4230 C 397.93 -4.79634 -3.14227 0
M  V30 4231 N 397.426 -5.87353 -3.67407 0
M  V30 4232 N 399.219 -4.67078 -3.12721 0
M  V30 4233 H 391.37 -2.1136 -0.20989 0
M  V30 4234 H 393.633 -0.935128 -0.155692 0
M  V30 4235 H 393.339 -3.32267 -1.15289 0
M  V30 4236 H 393.213 -2.58989 -2.74234 0
M  V30 4237 H 395.6 -1.64137 -2.45241 0
M  V30 4238 H 395.681 -2.40901 -0.860242 0
M  V30 4239 H 395.325 -4.68402 -1.96372 0
M  V30 4240 H 395.255 -3.88529 -3.55461 0
M  V30 4241 H 397.746 -3.04465 -2.23851 0
M  V30 4242 H 398.059 -6.57624 -4.05894 0
M  V30 4243 H 396.404 -5.91054 -3.65623 0
M  V30 4244 H 399.595 -3.82067 -2.70449 0
M  V30 4245 H 399.768 -5.43098 -3.53481 0
M  V30 4246 N 393.175 1.03435 -1.18907 0
M  V30 4247 C 394.138 2.09756 -0.923844 0
M  V30 4248 C 395.138 1.60528 0.093416 0
M  V30 4249 O 396.328 1.73631 -0.140727 0
M  V30 4250 C 393.46 3.38692 -0.387354 0
M  V30 4251 H 394.653 2.34719 -1.86674 0
M  V30 4252 H 392.206 1.19959 -1.00197 0
M  V30 4253 H 392.941 3.19396 0.561845 0
M  V30 4254 H 392.726 3.75742 -1.12074 0
M  V30 4255 H 394.216 4.17016 -0.220694 0
M  V30 4256 N 394.653 0.992116 1.22453 0
M  V30 4257 C 395.881 0.685944 1.95198 0
M  V30 4258 C 396.296 -0.749233 1.73297 0
M  V30 4259 O 395.653 -1.50549 1.03156 0
M  V30 4260 C 395.704 0.981395 3.47924 0
M  V30 4261 O 395.425 2.36018 3.6909 0
M  V30 4262 C 396.926 0.692815 4.37853 0
M  V30 4263 H 394.146 0.253821 0.621141 0
M  V30 4264 H 396.69 1.32668 1.55626 0
M  V30 4265 H 394.845 0.386481 3.85467 0
M  V30 4266 H 395.259 2.45884 4.63294 0
M  V30 4267 H 396.733 0.949818 5.43767 0
M  V30 4268 H 397.21 -0.373181 4.37612 0
M  V30 4269 H 397.816 1.26874 4.05935 0
M  V30 4270 N 396.131 -1.37776 0.765217 0
M  V30 4271 C 397.094 -2.28686 0.153416 0
M  V30 4272 C 398.094 -1.47727 -0.635081 0
M  V30 4273 O 399.284 -1.68027 -0.459632 0
M  V30 4274 C 396.416 -3.31608 -0.790495 0
M  V30 4275 H 397.609 -2.84297 0.954723 0
M  V30 4276 H 395.162 -1.46932 0.53299 0
M  V30 4277 H 395.897 -2.81109 -1.61705 0
M  V30 4278 H 395.682 -3.9144 -0.227348 0
M  V30 4279 H 397.172 -3.99559 -1.21419 0
M  V30 4280 N 397.609 -0.515225 -1.4894 0
M  V30 4281 C 398.837 0.0206034 -2.0689 0
M  V30 4282 C 399.252 1.29514 -1.37374 0
M  V30 4283 O 398.609 1.76698 -0.456529 0
M  V30 4284 C 398.66 0.26351 -3.60538 0
M  V30 4285 O 398.381 -0.960517 -4.27441 0
M  V30 4286 C 399.882 0.841383 -4.35242 0
M  V30 4287 H 397.102 -0.0268608 -0.670462 0
M  V30 4288 H 399.646 -0.716651 -1.91532 0
M  V30 4289 H 397.801 0.950777 -3.75552 0
M  V30 4290 H 398.215 -0.73212 -5.19365 0
M  V30 4291 H 399.689 0.96085 -5.43573 0
M  V30 4292 H 400.166 1.8427 -3.98674 0
M  V30 4293 H 400.772 0.191143 -4.2487 0
M  V30 4294 N 399.087 1.5561 -0.249682 0
M  V30 4295 C 400.019 2.18834 0.681496 0
M  V30 4296 C 401.032 1.16546 1.1367 0
M  V30 4297 O 402.221 1.43397 1.06299 0
M  V30 4298 C 399.321 2.77992 1.9384 0
M  V30 4299 C 398.494 4.05725 1.63419 0
M  V30 4300 C 397.553 4.49174 2.74096 0
M  V30 4301 O 396.579 5.15492 2.41364 0
M  V30 4302 N 397.781 4.17191 4.03649 0
M  V30 4303 H 400.546 2.9937 0.140514 0
M  V30 4304 H 398.107 1.6175 -0.0697541 0
M  V30 4305 H 400.099 3.04015 2.67127 0
M  V30 4306 H 398.669 2.01596 2.38909 0
M  V30 4307 H 397.889 3.87261 0.736358 0
M  V30 4308 H 399.177 4.88999 1.40562 0
M  V30 4309 H 398.575 3.63955 4.33074 0
M  V30 4310 H 397.132 4.48043 4.73393 0
M  V30 4311 N 400.565 -0.0233959 1.57583 0
M  V30 4312 C 401.495 -1.02162 2.09965 0
M  V30 4313 C 402.476 -1.3735 1.00344 0
M  V30 4314 O 403.661 -1.46135 1.27899 0
M  V30 4315 C 400.791 -2.32081 2.58371 0
M  V30 4316 C 399.745 -2.1112 3.72307 0
M  V30 4317 C 399.071 -3.46848 4.06941 0
M  V30 4318 C 400.371 -1.49276 5.00514 0
M  V30 4319 H 402.065 -0.585557 2.93618 0
M  V30 4320 H 399.611 -0.280218 1.41247 0
M  V30 4321 H 401.564 -3.02249 2.93639 0
M  V30 4322 H 400.288 -2.77758 1.71808 0
M  V30 4323 H 398.947 -1.43384 3.37397 0
M  V30 4324 H 398.595 -3.90184 3.17436 0
M  V30 4325 H 398.295 -3.33646 4.83688 0
M  V30 4326 H 399.819 -4.18369 4.44747 0
M  V30 4327 H 401.233 -2.09368 5.33702 0
M  V30 4328 H 399.63 -1.46632 5.8191 0
M  V30 4329 H 400.7 -0.459217 4.82721 0
M  V30 4330 N 402.043 -1.548 -0.295768 0
M  V30 4331 C 402.973 -1.89115 -1.36959 0
M  V30 4332 C 403.954 -0.75059 -1.52644 0
M  V30 4333 O 405.139 -1.00678 -1.66065 0
M  V30 4334 C 402.269 -2.14307 -2.73295 0
M  V30 4335 C 401.223 -3.30151 -2.72368 0
M  V30 4336 C 400.549 -3.40772 -4.12042 0
M  V30 4337 C 401.849 -4.67126 -2.33646 0
M  V30 4338 H 403.543 -2.79053 -1.08488 0
M  V30 4339 H 401.089 -1.34266 -0.520443 0
M  V30 4340 H 403.042 -2.36898 -3.48507 0
M  V30 4341 H 401.766 -1.21145 -3.03301 0
M  V30 4342 H 400.425 -3.0749 -1.99613 0
M  V30 4343 H 400.073 -2.45117 -4.39234 0
M  V30 4344 H 399.773 -4.18645 -4.12322 0
M  V30 4345 H 401.297 -3.6563 -4.89027 0
M  V30 4346 H 402.711 -4.89414 -2.98575 0
M  V30 4347 H 401.108 -5.47751 -2.45129 0
M  V30 4348 H 402.178 -4.67489 -1.28772 0
M  V30 4349 N 403.521 0.559213 -1.47345 0
M  V30 4350 C 404.453 1.68161 -1.55738 0
M  V30 4351 C 405.466 1.56636 -0.443744 0
M  V30 4352 O 406.655 1.6363 -0.713258 0
M  V30 4353 C 403.755 3.06611 -1.4437 0
M  V30 4354 C 402.928 3.4391 -2.70268 0
M  V30 4355 C 401.987 4.61515 -2.52765 0
M  V30 4356 O 401.013 4.66197 -3.26572 0
M  V30 4357 N 402.215 5.57883 -1.6046 0
M  V30 4358 H 404.98 1.61408 -2.52522 0
M  V30 4359 H 402.541 0.7458 -1.43699 0
M  V30 4360 H 404.533 3.83117 -1.30398 0
M  V30 4361 H 403.103 3.07602 -0.556766 0
M  V30 4362 H 402.323 2.56873 -2.99015 0
M  V30 4363 H 403.611 3.65605 -3.53851 0
M  V30 4364 H 403.009 5.56855 -0.996422 0
M  V30 4365 H 401.566 6.33723 -1.52441 0
M  V30 4366 N 404.999 1.35443 0.805782 0
M  V30 4367 C 405.949 1.24972 1.90699 0
M  V30 4368 C 406.933 0.144806 1.60247 0
M  V30 4369 O 408.125 0.376102 1.72958 0
M  V30 4370 C 405.254 1.02475 3.27649 0
M  V30 4371 C 404.34 2.17361 3.64164 0
M  V30 4372 N 404.731 3.42591 3.72109 0
M  V30 4373 C 403.029 2.08765 3.94123 0
M  V30 4374 C 403.73 4.18144 4.04389 0
M  V30 4375 N 402.706 3.4691 4.18515 0
M  V30 4376 H 406.508 2.19852 1.95044 0
M  V30 4377 H 404.022 1.27928 1.00041 0
M  V30 4378 H 406.019 0.930617 4.06381 0
M  V30 4379 H 404.679 0.0848009 3.24589 0
M  V30 4380 H 405.69 3.76932 3.55166 0
M  V30 4381 H 402.367 1.22629 3.99084 0
M  V30 4382 H 403.757 5.26367 4.17597 0
M  V30 4383 N 406.477 -1.02803 1.19454 0
M  V30 4384 C 407.888 -1.57667 0.999899 0
M  V30 4385 C 408.239 -1.91041 -0.446956 0
M  V30 4386 O 407.364 -1.70978 -1.32648 0
M  V30 4387 C 407.959 -2.86477 1.80877 0
M  V30 4388 C 406.518 -3.37911 1.65811 0
M  V30 4389 C 405.665 -2.11343 1.79526 0
M  V30 4390 H 408.616 -0.853214 1.33813 0
M  V30 4391 H 408.637 -3.57408 1.30536 0
M  V30 4392 H 408.149 -2.62155 2.86175 0
M  V30 4393 H 406.25 -3.67218 0.63102 0
M  V30 4394 H 406.363 -4.10885 2.46395 0
M  V30 4395 H 404.727 -2.23254 1.22596 0
M  V30 4396 H 405.51 -1.89461 2.86285 0
M  V30 4397 N 407.956 -0.998596 -1.21925 0
M  V30 4398 C 409.203 -0.677663 -1.90824 0
M  V30 4399 C 409.531 0.790905 -1.77693 0
M  V30 4400 O 408.786 1.58817 -1.14349 0
M  V30 4401 C 409.085 -1.03648 -3.42041 0
M  V30 4402 C 408.751 -2.49825 -3.75364 0
M  V30 4403 C 407.413 -2.8977 -3.8417 0
M  V30 4404 C 409.765 -3.44545 -3.91073 0
M  V30 4405 C 407.093 -4.23412 -4.06127 0
M  V30 4406 C 409.445 -4.77853 -4.14535 0
M  V30 4407 C 408.109 -5.17531 -4.21566 0
M  V30 4408 H 407.379 -0.247975 -0.698276 0
M  V30 4409 H 410.026 -1.25584 -1.44571 0
M  V30 4410 H 408.331 -0.376457 -3.89987 0
M  V30 4411 H 410.028 -0.766113 -3.93614 0
M  V30 4412 H 406.618 -2.17866 -3.69097 0
M  V30 4413 H 410.802 -3.14853 -3.83642 0
M  V30 4414 H 406.058 -4.53734 -4.09799 0
M  V30 4415 H 410.232 -5.51189 -4.25633 0
M  V30 4416 H 407.859 -6.21102 -4.38333 0
M  V30 4417 N 409.434 1.37368 -0.772513 0
M  V30 4418 C 410.683 1.98918 -0.333861 0
M  V30 4419 C 410.996 1.62017 1.09589 0
M  V30 4420 O 412.202 2.16676 1.63596 0
M  V30 4421 C 410.658 3.55735 -0.545971 0
M  V30 4422 C 410.266 4.01573 -1.98603 0
M  V30 4423 C 412.01 4.24156 -0.170979 0
M  V30 4424 C 409.917 5.51102 -2.1457 0
M  V30 4425 H 408.847 0.744214 -0.121085 0
M  V30 4426 H 411.498 1.56888 -0.95175 0
M  V30 4427 H 409.88 3.95748 0.141387 0
M  V30 4428 H 411.054 3.72803 -2.7084 0
M  V30 4429 H 409.369 3.45937 -2.31769 0
M  V30 4430 H 411.966 5.34024 -0.26878 0
M  V30 4431 H 412.309 4.06917 0.878855 0
M  V30 4432 H 412.842 3.89447 -0.810914 0
M  V30 4433 H 409.581 5.73268 -3.17875 0
M  V30 4434 H 409.101 5.81554 -1.46817 0
M  V30 4435 H 410.78 6.17083 -1.94468 0
M  V30 4436 N 410.912 0.523116 1.48665 0
M  V30 4437 C 411.859 -0.243398 2.29513 0
M  V30 4438 C 412.829 -0.940139 1.36933 0
M  V30 4439 O 414.014 -0.942503 1.65896 0
M  V30 4440 C 411.154 -1.28855 3.20141 0
M  V30 4441 C 410.267 -0.60135 4.27794 0
M  V30 4442 C 409.402 -1.62884 5.05611 0
M  V30 4443 C 408.441 -0.924726 6.05075 0
M  V30 4444 N 407.578 -1.89744 6.75975 0
M  V30 4445 H 412.418 0.452234 2.94549 0
M  V30 4446 H 409.955 0.234858 1.45213 0
M  V30 4447 H 411.913 -1.90674 3.71079 0
M  V30 4448 H 410.543 -1.95266 2.57043 0
M  V30 4449 H 409.595 0.130623 3.80176 0
M  V30 4450 H 410.907 -0.0481585 4.98777 0
M  V30 4451 H 410.061 -2.32149 5.60528 0
M  V30 4452 H 408.8 -2.21592 4.34452 0
M  V30 4453 H 407.805 -0.217966 5.49368 0
M  V30 4454 H 409.03 -0.343851 6.78229 0
M  V30 4455 H 406.976 -2.47373 6.07571 0
M  V30 4456 H 406.893 -1.3955 7.43009 0
M  V30 4457 H 408.161 -2.58229 7.35485 0
M  V30 4458 N 412.39 -1.55475 0.257931 0
M  V30 4459 C 413.338 -2.23244 -0.653076 0
M  V30 4460 C 414.332 -1.22366 -1.17144 0
M  V30 4461 O 415.538 -1.40347 -1.12706 0
M  V30 4462 H 411.913 -0.716247 -0.229117 0
M  V30 4463 H 413.884 -2.98343 -0.0584788 0
M  V30 4464 C 412.633 -2.95401 -1.83395 0
M  V30 4465 H 411.956 -3.72802 -1.44424 0
M  V30 4466 H 413.396 -3.46165 -2.44838 0
M  V30 4467 C 411.855 -1.99895 -2.71189 0
M  V30 4468 O 412.385 -1.53909 -3.71046 0
M  V30 4469 N 410.591 -1.6676 -2.3799 0
M  V30 4470 H 410.138 -2.04352 -1.56837 0
M  V30 4471 H 410.096 -1.03127 -2.97005 0
M  V30 4472 N 413.868 0.0150385 -1.57593 0
M  V30 4473 C 414.831 0.995996 -2.06428 0
M  V30 4474 C 415.831 1.2818 -0.970903 0
M  V30 4475 O 417.021 1.22949 -1.23406 0
M  V30 4476 C 414.153 2.32506 -2.49307 0
M  V30 4477 H 415.346 0.573873 -2.94358 0
M  V30 4478 H 412.899 0.262186 -1.54085 0
M  V30 4479 H 413.634 2.79438 -1.64575 0
M  V30 4480 H 413.419 2.13087 -3.29145 0
M  V30 4481 H 414.909 3.02906 -2.87468 0
M  V30 4482 N 415.346 1.54954 0.287554 0
M  V30 4483 C 416.293 1.86834 1.35505 0
M  V30 4484 C 417.263 0.718452 1.49758 0
M  V30 4485 O 418.448 0.968358 1.644 0
M  V30 4486 C 415.588 2.13303 2.71286 0
M  V30 4487 C 414.701 3.40883 2.65373 0
M  V30 4488 C 413.836 3.57125 3.93236 0
M  V30 4489 C 412.875 4.78449 3.81776 0
M  V30 4490 N 412.012 4.91426 5.01443 0
M  V30 4491 H 416.852 2.77889 1.07619 0
M  V30 4492 H 414.389 1.37593 0.520241 0
M  V30 4493 H 416.347 2.26646 3.50267 0
M  V30 4494 H 414.977 1.25499 2.97405 0
M  V30 4495 H 414.029 3.36088 1.78182 0
M  V30 4496 H 415.341 4.29993 2.52799 0
M  V30 4497 H 414.495 3.70207 4.80658 0
M  V30 4498 H 413.234 2.66173 4.0866 0
M  V30 4499 H 412.239 4.65386 2.92738 0
M  V30 4500 H 413.464 5.70822 3.67884 0
M  V30 4501 H 411.41 4.03401 5.17304 0
M  V30 4502 H 411.327 5.74559 4.91343 0
M  V30 4503 H 412.595 5.08879 5.90477 0
M  V30 4504 N 416.824 -0.551391 1.4764 0
M  V30 4505 C 418.235 -1.13349 1.48354 0
M  V30 4506 C 418.586 -1.94709 0.241432 0
M  V30 4507 O 417.711 -2.06306 -0.653205 0
M  V30 4508 C 418.306 -2.0623 2.68802 0
M  V30 4509 C 416.865 -2.597 2.72457 0
M  V30 4510 C 416.012 -1.36201 2.41546 0
M  V30 4511 H 418.963 -0.337698 1.55065 0
M  V30 4512 H 418.984 -2.90196 2.46103 0
M  V30 4513 H 418.496 -1.46987 3.59188 0
M  V30 4514 H 416.597 -3.22724 1.86225 0
M  V30 4515 H 416.71 -3.00296 3.73308 0
M  V30 4516 H 415.074 -1.67068 1.9225 0
M  V30 4517 H 415.857 -0.787425 3.34147 0
M  V30 4518 N 418.302 -1.35869 -0.798587 0
M  V30 4519 C 419.548 -1.2978 -1.55836 0
M  V30 4520 C 419.881 0.125322 -1.93795 0
M  V30 4521 O 419.156 1.07658 -1.61987 0
M  V30 4522 C 419.439 -2.21188 -2.84162 0
M  V30 4523 C 419.292 -3.72155 -2.52628 0
M  V30 4524 C 420.611 -2.11545 -3.85923 0
M  V30 4525 H 417.73 -0.472769 -0.565383 0
M  V30 4526 H 420.372 -1.66341 -0.918192 0
M  V30 4527 H 418.522 -1.90139 -3.38791 0
M  V30 4528 H 420.194 -4.13682 -2.04121 0
M  V30 4529 H 418.437 -3.92042 -1.85704 0
M  V30 4530 H 419.108 -4.31511 -3.44242 0
M  V30 4531 H 421.584 -2.38855 -3.40716 0
M  V30 4532 H 420.46 -2.77688 -4.73477 0
M  V30 4533 H 420.721 -1.09987 -4.282 0
M  V30 4534 N 419.78 1.02168 -1.19998 0
M  V30 4535 C 421.005 1.79833 -1.03319 0
M  V30 4536 C 421.43 1.83504 0.413281 0
M  V30 4537 O 420.788 1.26635 1.29743 0
M  V30 4538 C 420.836 3.22396 -1.61533 0
M  V30 4539 O 419.94 4.03555 -0.849519 0
M  V30 4540 H 419.281 0.554872 -0.364709 0
M  V30 4541 H 421.811 1.28542 -1.59179 0
M  V30 4542 H 421.821 3.73124 -1.65054 0
M  V30 4543 H 420.496 3.19039 -2.66809 0
M  V30 4544 H 419.073 3.62169 -0.888129 0
M  V30 4545 N 421.258 1.00505 1.21394 0
M  V30 4546 C 422.507 0.683159 1.89778 0
M  V30 4547 C 422.82 -0.789471 1.7896 0
M  V30 4548 O 424.026 -1.22344 2.42372 0
M  V30 4549 C 422.482 1.17146 3.40301 0
M  V30 4550 C 422.09 2.67017 3.5973 0
M  V30 4551 C 423.834 0.924461 4.14311 0
M  V30 4552 C 421.741 3.09387 5.04017 0
M  V30 4553 H 420.671 0.25183 0.710702 0
M  V30 4554 H 423.322 1.21622 1.37406 0
M  V30 4555 H 421.704 0.566451 3.91928 0
M  V30 4556 H 422.878 3.32968 3.18542 0
M  V30 4557 H 421.193 2.89732 2.99073 0
M  V30 4558 H 423.79 1.21658 5.20676 0
M  V30 4559 H 424.133 -0.139286 4.16067 0
M  V30 4560 H 424.666 1.49226 3.6875 0
M  V30 4561 H 421.405 4.14989 5.07409 0
M  V30 4562 H 420.925 2.48149 5.46061 0
M  V30 4563 H 422.604 3.01371 5.72525 0
M  V30 4564 N 422.737 -1.36956 0.779787 0
M  V30 4565 C 423.667 -2.32761 0.185651 0
M  V30 4566 C 424.648 -1.56177 -0.673989 0
M  V30 4567 O 425.833 -1.84378 -0.609797 0
M  V30 4568 C 422.963 -3.40418 -0.687964 0
M  V30 4569 C 421.917 -4.27941 0.0710102 0
M  V30 4570 C 421.243 -5.26681 -0.922573 0
M  V30 4571 C 422.543 -5.07006 1.25467 0
M  V30 4572 H 424.237 -2.82698 0.986008 0
M  V30 4573 H 421.783 -1.3592 0.475592 0
M  V30 4574 H 423.736 -4.06423 -1.11348 0
M  V30 4575 H 422.46 -2.89025 -1.52093 0
M  V30 4576 H 421.119 -3.63478 0.47739 0
M  V30 4577 H 420.767 -4.71565 -1.7503 0
M  V30 4578 H 420.467 -5.86103 -0.419237 0
M  V30 4579 H 421.991 -5.9556 -1.34686 0
M  V30 4580 H 423.405 -5.66105 0.905401 0
M  V30 4581 H 421.802 -5.75793 1.69063 0
M  V30 4582 H 422.872 -4.3921 2.05481 0
M  V30 4583 N 424.215 -0.530993 -1.48385 0
M  V30 4584 C 425.631 -0.188919 -1.58478 0
M  V30 4585 C 425.831 1.30786 -1.53288 0
M  V30 4586 O 424.887 2.08619 -1.42248 0
M  V30 4587 C 426.2 -0.792343 -2.90073 0
M  V30 4588 C 427.748 -0.76117 -3.03604 0
M  V30 4589 C 428.223 -1.34319 -4.37861 0
M  V30 4590 N 429.714 -1.3052 -4.44431 0
M  V30 4591 C 430.449 -1.72543 -5.46824 0
M  V30 4592 N 429.945 -2.22299 -6.56167 0
M  V30 4593 N 431.738 -1.63773 -5.37712 0
M  V30 4594 H 423.889 -1.50377 -1.50002 0
M  V30 4595 H 426.152 -0.625559 -0.712306 0
M  V30 4596 H 425.858 -1.84323 -2.99529 0
M  V30 4597 H 425.732 -0.270026 -3.76232 0
M  V30 4598 H 428.119 0.280957 -2.93759 0
M  V30 4599 H 428.2 -1.32097 -2.19053 0
M  V30 4600 H 427.844 -2.38425 -4.4846 0
M  V30 4601 H 427.774 -0.759064 -5.21101 0
M  V30 4602 H 430.265 -0.940973 -3.65997 0
M  V30 4603 H 430.578 -2.52356 -7.30436 0
M  V30 4604 H 428.923 -2.26293 -6.57127 0
M  V30 4605 H 432.114 -1.24698 -4.51185 0
M  V30 4606 H 432.287 -1.96844 -6.17379 0
M  V30 4607 N 425.693 1.55336 -0.266172 0
M  V30 4608 C 426.97 1.91372 0.404486 0
M  V30 4609 C 427.35 1.18935 1.74407 0
M  V30 4610 O 426.698 0.3132 2.26343 0
M  V30 4611 C 426.908 3.44581 0.553593 0
M  V30 4612 C 428.256 4.16196 0.840618 0
M  V30 4613 O 429.28 3.50426 0.638739 0
M  V30 4614 O 428.139 5.32567 1.22618 0
M  V30 4615 H 425.233 0.797194 0.220025 0
M  V30 4616 H 427.779 1.66813 -0.311664 0
M  V30 4617 H 426.551 3.89357 -0.389498 0
M  V30 4618 H 426.174 3.75065 1.31955 0
M  V30 4619 N 427.171 -0.0066808 1.57599 0
M  V30 4620 C 428.101 -0.999296 2.11036 0
M  V30 4621 C 429.082 -1.36278 1.01795 0
M  V30 4622 O 430.267 -1.4477 1.29442 0
M  V30 4623 C 427.397 -2.29328 2.60818 0
M  V30 4624 C 426.351 -2.07159 3.74525 0
M  V30 4625 C 425.677 -3.42512 4.10596 0
M  V30 4626 C 426.977 -1.43959 5.02069 0
M  V30 4627 H 428.671 -0.554382 2.94223 0
M  V30 4628 H 426.217 -0.265221 1.41536 0
M  V30 4629 H 428.17 -2.99117 2.96828 0
M  V30 4630 H 426.894 -2.7592 1.74745 0
M  V30 4631 H 425.553 -1.39797 3.38899 0
M  V30 4632 H 425.201 -3.86795 3.21556 0
M  V30 4633 H 424.901 -3.28498 4.87199 0
M  V30 4634 H 426.425 -4.13628 4.4916 0
M  V30 4635 H 427.839 -2.03696 5.35893 0
M  V30 4636 H 426.236 -1.40452 5.83432 0
M  V30 4637 H 427.306 -0.407992 4.83181 0
M  V30 4638 N 428.649 -1.55105 -0.279332 0
M  V30 4639 C 429.898 -1.74618 -1.00952 0
M  V30 4640 C 430.211 -0.551096 -1.87676 0
M  V30 4641 O 431.417 -0.628507 -2.64125 0
M  V30 4642 C 429.873 -3.09025 -1.84476 0
M  V30 4643 C 429.481 -4.36081 -1.0265 0
M  V30 4644 C 431.225 -3.37891 -2.56963 0
M  V30 4645 C 429.132 -5.6153 -1.85576 0
M  V30 4646 H 428.062 -0.650868 -0.38064 0
M  V30 4647 H 430.713 -1.81569 -0.265475 0
M  V30 4648 H 429.095 -2.96095 -2.62952 0
M  V30 4649 H 430.269 -4.59909 -0.286354 0
M  V30 4650 H 428.584 -4.14312 -0.416464 0
M  V30 4651 H 431.181 -4.28822 -3.19399 0
M  V30 4652 H 431.524 -2.57737 -3.26921 0
M  V30 4653 H 432.057 -3.5189 -1.85522 0
M  V30 4654 H 428.796 -6.44413 -1.2005 0
M  V30 4655 H 428.316 -5.41854 -2.57204 0
M  V30 4656 H 429.995 -5.99594 -2.43096 0
M  V30 4657 N 430.127 0.543554 -1.4793 0
M  V30 4658 C 431.355 1.32516 -1.58894 0
M  V30 4659 C 431.77 1.87215 -0.244131 0
M  V30 4660 O 431.127 1.65709 0.764652 0
M  V30 4661 C 431.178 2.48554 -2.62494 0
M  V30 4662 O 430.899 1.96112 -3.91755 0
M  V30 4663 C 432.4 3.40572 -2.8377 0
M  V30 4664 H 429.62 0.403472 -0.536145 0
M  V30 4665 H 432.164 0.657106 -1.93655 0
M  V30 4666 H 430.319 3.1127 -2.30629 0
M  V30 4667 H 430.733 2.71967 -4.4848 0
M  V30 4668 H 432.207 4.18375 -3.60093 0
M  V30 4669 H 432.684 3.94965 -1.92092 0
M  V30 4670 H 433.29 2.8366 -3.16887 0
M  V30 4671 N 431.605 1.3629 0.791371 0
M  V30 4672 C 432.515 1.32606 1.93527 0
M  V30 4673 C 433.531 0.228541 1.72493 0
M  V30 4674 O 434.707 0.460571 1.96063 0
M  V30 4675 C 431.772 1.11271 3.28359 0
M  V30 4676 C 430.833 2.3048 3.62185 0
M  V30 4677 C 430.066 2.10154 4.90583 0
M  V30 4678 O 430.289 1.07572 5.60165 0
M  V30 4679 O 429.223 2.97884 5.23019 0
M  V30 4680 H 433.049 2.28909 1.99585 0
M  V30 4681 H 430.634 1.16818 0.931344 0
M  V30 4682 H 432.516 1.01283 4.09047 0
M  V30 4683 H 431.191 0.180292 3.23198 0
M  V30 4684 H 430.098 2.46036 2.81811 0
M  V30 4685 H 431.431 3.22221 3.72068 0
M  V30 4686 N 433.083 -1.0153 1.20538 0
M  V30 4687 C 434.046 -2.0826 0.957098 0
M  V30 4688 C 435.046 -1.60657 -0.0678655 0
M  V30 4689 O 436.236 -1.73385 0.168332 0
M  V30 4690 C 433.368 -3.38033 0.441188 0
M  V30 4691 H 434.561 -2.31719 1.90384 0
M  V30 4692 H 432.114 -1.1835 1.02093 0
M  V30 4693 H 432.849 -3.20249 -0.510961 0
M  V30 4694 H 432.634 -3.73911 1.18038 0
M  V30 4695 H 434.124 -4.16613 0.287009 0
M  V30 4696 N 434.561 -1.01147 -1.20859 0
M  V30 4697 C 435.494 -0.522108 -2.22147 0
M  V30 4698 C 436.472 0.427686 -1.56874 0
M  V30 4699 O 437.656 0.34889 -1.85243 0
M  V30 4700 C 434.783 0.240819 -3.37843 0
M  V30 4701 C 433.829 -0.657752 -4.21398 0
M  V30 4702 S 434.662 -2.12393 -4.91578 0
M  V30 4703 C 435.818 -1.37102 -6.10699 0
M  V30 4704 H 436.051 -1.38035 -2.63313 0
M  V30 4705 H 433.584 -0.819941 -1.30829 0
M  V30 4706 H 435.542 0.674908 -4.04914 0
M  V30 4707 H 434.203 1.07457 -2.95147 0
M  V30 4708 H 433.396 -0.0697456 -5.03952 0
M  V30 4709 H 432.998 -1.0294 -3.59555 0
M  V30 4710 H 435.29 -0.648315 -6.74391 0
M  V30 4711 H 436.233 -2.17252 -6.73949 0
M  V30 4712 H 436.641 -0.876154 -5.57659 0
M  V30 4713 N 436.039 1.36541 -0.78704 0
M  V30 4714 C 436.949 2.3387 -0.184896 0
M  V30 4715 C 437.965 1.60927 0.661697 0
M  V30 4716 O 439.141 1.92927 0.57804 0
M  V30 4717 C 436.206 3.40122 0.672145 0
M  V30 4718 C 435.267 4.28867 -0.19267 0
M  V30 4719 C 434.5 5.30045 0.623561 0
M  V30 4720 O 434.723 5.39232 1.8597 0
M  V30 4721 O 433.657 6.01895 0.0247068 0
M  V30 4722 H 437.483 2.87126 -0.989562 0
M  V30 4723 H 435.068 1.38969 -0.548455 0
M  V30 4724 H 436.95 4.05093 1.16094 0
M  V30 4725 H 435.625 2.89169 1.45474 0
M  V30 4726 H 434.532 3.66945 -0.728166 0
M  V30 4727 H 435.865 4.83165 -0.938722 0
M  V30 4728 N 437.518 0.538854 1.48102 0
M  V30 4729 C 438.767 0.0059532 2.01699 0
M  V30 4730 C 439.08 -1.34476 1.42041 0
M  V30 4731 O 440.286 -1.96653 1.87189 0
M  V30 4732 C 438.742 -0.0397627 3.59878 0
M  V30 4733 C 438.35 1.30659 4.28523 0
M  V30 4734 C 440.094 -0.521024 4.2129 0
M  V30 4735 C 438.001 1.22098 5.78659 0
M  V30 4736 H 436.931 -0.00154456 0.753998 0
M  V30 4737 H 439.582 0.683963 1.70277 0
M  V30 4738 H 437.964 -0.783037 3.88181 0
M  V30 4739 H 439.138 2.06613 4.11883 0
M  V30 4740 H 437.453 1.7243 3.79021 0
M  V30 4741 H 440.05 -0.603184 5.31287 0
M  V30 4742 H 440.393 -1.52885 3.8721 0
M  V30 4743 H 440.926 0.166834 3.9745 0
M  V30 4744 H 437.665 2.20424 6.17328 0
M  V30 4745 H 437.185 0.50295 5.97688 0
M  V30 4746 H 438.864 0.915345 6.40492 0
M  V30 4747 N 438.996 -1.55193 0.274407 0
M  V30 4748 C 439.943 -2.225 -0.613374 0
M  V30 4749 C 440.913 -1.19823 -1.15029 0
M  V30 4750 O 442.098 -1.48362 -1.19973 0
M  V30 4751 C 439.238 -2.94927 -1.79199 0
M  V30 4752 C 438.351 -4.12322 -1.28899 0
M  V30 4753 C 437.486 -4.72394 -2.42934 0
M  V30 4754 C 436.525 -5.81984 -1.89634 0
M  V30 4755 N 435.662 -6.36123 -2.9714 0
M  V30 4756 H 440.502 -2.97982 -0.032756 0
M  V30 4757 H 438.039 -1.47099 -0.00440146 0
M  V30 4758 H 439.997 -3.35134 -2.48478 0
M  V30 4759 H 438.627 -2.2187 -2.34465 0
M  V30 4760 H 437.679 -3.7724 -0.489327 0
M  V30 4761 H 438.991 -4.91355 -0.858587 0
M  V30 4762 H 438.145 -5.15317 -3.20208 0
M  V30 4763 H 436.884 -3.92636 -2.8929 0
M  V30 4764 H 435.889 -5.38511 -1.1084 0
M  V30 4765 H 437.114 -6.6361 -1.44215 0
M  V30 4766 H 435.06 -5.59259 -3.42878 0
M  V30 4767 H 434.977 -7.10427 -2.58515 0
M  V30 4768 H 436.245 -6.83704 -3.74391 0
M  V30 4769 N 440.474 -0.00167713 -1.576 0
M  V30 4770 C 441.437 0.974046 -2.07473 0
M  V30 4771 C 442.437 1.27143 -0.984444 0
M  V30 4772 O 443.627 1.21633 -1.24703 0
M  V30 4773 C 440.759 2.29849 -2.51759 0
M  V30 4774 H 441.952 0.54262 -2.9495 0
M  V30 4775 H 439.505 0.245829 -1.54355 0
M  V30 4776 H 440.24 2.77677 -1.67529 0
M  V30 4777 H 440.025 2.09584 -3.31386 0
M  V30 4778 H 441.515 2.9984 -2.90664 0
M  V30 4779 N 441.952 1.55251 0.271103 0
M  V30 4780 C 442.899 1.88261 1.33516 0
M  V30 4781 C 443.869 0.734296 1.48988 0
M  V30 4782 O 445.054 0.985741 1.63364 0
M  V30 4783 C 442.194 2.16168 2.69008 0
M  V30 4784 C 441.307 3.43678 2.61743 0
M  V30 4785 C 440.442 3.61276 3.89427 0
M  V30 4786 C 439.481 4.82472 3.7668 0
M  V30 4787 N 438.618 4.96717 4.96202 0
M  V30 4788 H 443.458 2.79015 1.04665 0
M  V30 4789 H 440.995 1.38137 0.505618 0
M  V30 4790 H 442.953 2.30349 3.47844 0
M  V30 4791 H 441.583 1.28646 2.96057 0
M  V30 4792 H 440.635 3.37959 1.74607 0
M  V30 4793 H 441.947 4.3265 2.48224 0
M  V30 4794 H 441.101 3.75284 4.76704 0
M  V30 4795 H 439.84 2.70492 4.05814 0
M  V30 4796 H 438.845 4.68465 2.87786 0
M  V30 4797 H 440.07 5.74692 3.61809 0
M  V30 4798 H 438.016 4.08865 5.12997 0
M  V30 4799 H 437.933 5.79738 4.85222 0
M  V30 4800 H 439.201 5.15113 5.85046 0
M  V30 4801 N 443.43 -0.535701 1.48216 0
M  V30 4802 C 444.846 -0.863701 1.3421 0
M  V30 4803 C 445.046 -1.98458 0.34879 0
M  V30 4804 O 444.102 -2.51432 -0.23204 0
M  V30 4805 C 445.415 -1.23662 2.74095 0
M  V30 4806 C 446.963 -1.34683 2.82541 0
M  V30 4807 C 447.438 -1.75322 4.23115 0
M  V30 4808 N 448.929 -1.82434 4.2576 0
M  V30 4809 C 449.664 -2.15252 5.31464 0
M  V30 4810 N 449.16 -2.46533 6.47452 0
M  V30 4811 N 450.953 -2.16209 5.18855 0
M  V30 4812 H 443.104 0.203965 2.11418 0
M  V30 4813 H 445.367 0.0286033 0.947568 0
M  V30 4814 H 445.073 -0.486674 3.48316 0
M  V30 4815 H 444.947 -2.18805 3.07253 0
M  V30 4816 H 447.334 -2.08756 2.08579 0
M  V30 4817 H 447.415 -0.376756 2.5301 0
M  V30 4818 H 447.059 -1.01812 4.97591 0
M  V30 4819 H 446.989 -2.7337 4.50085 0
M  V30 4820 H 449.48 -1.6056 3.42095 0
M  V30 4821 H 449.793 -2.70662 7.23852 0
M  V30 4822 H 448.138 -2.44065 6.50736 0
M  V30 4823 H 451.329 -1.91224 4.2726 0
M  V30 4824 H 451.502 -2.41453 6.01335 0
M  V30 4825 N 444.908 -1.36708 -0.784132 0
M  V30 4826 C 445.858 -1.2799 -1.88686 0
M  V30 4827 C 446.842 -0.170282 -1.59996 0
M  V30 4828 O 448.034 -0.403571 -1.72338 0
M  V30 4829 C 445.163 -1.07674 -3.25977 0
M  V30 4830 C 444.249 -2.23127 -3.60659 0
M  V30 4831 N 444.64 -3.48467 -3.66612 0
M  V30 4832 C 442.938 -2.15009 -3.90752 0
M  V30 4833 C 443.639 -4.24525 -3.97685 0
M  V30 4834 N 442.615 -3.53524 -4.12943 0
M  V30 4835 H 446.417 -2.22927 -1.91522 0
M  V30 4836 H 443.931 -1.29503 -0.979933 0
M  V30 4837 H 445.928 -0.995151 -4.04849 0
M  V30 4838 H 444.588 -0.13643 -3.24413 0
M  V30 4839 H 445.599 -3.82534 -3.49125 0
M  V30 4840 H 442.276 -1.28963 -3.97083 0
M  V30 4841 H 443.666 -5.32944 -4.0917 0
M  V30 4842 N 446.386 1.0089 -1.21074 0
M  V30 4843 C 447.296 2.13039 -0.982425 0
M  V30 4844 C 448.312 1.73881 0.0642161 0
M  V30 4845 O 449.488 2.01012 -0.12496 0
M  V30 4846 C 446.553 3.42377 -0.545803 0
M  V30 4847 C 445.614 3.95731 -1.6642 0
M  V30 4848 C 444.847 5.18896 -1.24832 0
M  V30 4849 O 445.07 5.70273 -0.120265 0
M  V30 4850 O 444.004 5.65597 -2.05873 0
M  V30 4851 H 447.83 2.35175 -1.92163 0
M  V30 4852 H 445.415 1.1142 -0.995285 0
M  V30 4853 H 447.297 4.20244 -0.311912 0
M  V30 4854 H 445.972 3.21639 0.364727 0
M  V30 4855 H 444.879 3.19108 -1.95246 0
M  V30 4856 H 446.212 4.20872 -2.55201 0
M  V30 4857 N 447.864 1.01787 1.20321 0
M  V30 4858 C 448.774 0.598898 2.26827 0
M  V30 4859 C 449.79 -0.36418 1.70146 0
M  V30 4860 O 450.966 -0.224812 2.00141 0
M  V30 4861 C 448.031 -0.0549769 3.46656 0
M  V30 4862 C 447.092 0.954205 4.18561 0
M  V30 4863 C 446.325 0.331439 5.3267 0
M  V30 4864 O 446.548 -0.86851 5.63749 0
M  V30 4865 O 445.482 1.0488 5.92692 0
M  V30 4866 H 449.308 1.48562 2.64883 0
M  V30 4867 H 446.893 0.787434 1.26964 0
M  V30 4868 H 448.775 -0.420102 4.19301 0
M  V30 4869 H 447.45 -0.915876 3.10473 0
M  V30 4870 H 446.357 1.37072 3.48083 0
M  V30 4871 H 447.69 1.78511 4.58688 0
M  V30 4872 N 449.342 -1.36122 0.79427 0
M  V30 4873 C 450.274 -2.28683 0.153903 0
M  V30 4874 C 451.287 -1.49707 -0.639669 0
M  V30 4875 O 452.476 -1.7209 -0.474054 0
M  V30 4876 C 449.576 -3.29202 -0.804921 0
M  V30 4877 C 448.749 -4.37358 -0.060366 0
M  V30 4878 C 447.808 -5.17811 -0.935849 0
M  V30 4879 O 446.834 -5.67853 -0.391309 0
M  V30 4880 N 448.036 -5.34721 -2.25951 0
M  V30 4881 H 450.801 -2.84278 0.949008 0
M  V30 4882 H 448.362 -1.4834 0.648611 0
M  V30 4883 H 450.354 -3.79914 -1.39455 0
M  V30 4884 H 448.924 -2.74212 -1.50088 0
M  V30 4885 H 448.144 -3.87746 0.710382 0
M  V30 4886 H 449.432 -5.06777 0.45324 0
M  V30 4887 H 448.83 -4.95687 -2.72601 0
M  V30 4888 H 447.387 -5.88657 -2.79867 0
M  V30 4889 N 450.82 -0.546701 -1.47814 0
M  V30 4890 C 451.752 0.244196 -2.27895 0
M  V30 4891 C 452.765 0.88911 -1.36377 0
M  V30 4892 O 453.954 0.764733 -1.61289 0
M  V30 4893 C 451.054 1.36252 -3.10304 0
M  V30 4894 C 450.227 0.816382 -4.29714 0
M  V30 4895 C 449.286 1.81789 -4.93801 0
M  V30 4896 O 448.312 1.36818 -5.52512 0
M  V30 4897 N 449.514 3.15085 -4.87547 0
M  V30 4898 H 452.279 -0.442694 -2.96412 0
M  V30 4899 H 449.84 -0.382095 -1.57327 0
M  V30 4900 H 451.832 2.03102 -3.50045 0
M  V30 4901 H 450.402 1.95281 -2.44099 0
M  V30 4902 H 449.622 -0.0285981 -3.9419 0
M  V30 4903 H 450.91 0.430668 -5.06974 0
M  V30 4904 H 450.308 3.54275 -4.41028 0
M  V30 4905 H 448.865 3.77522 -5.31339 0
M  V30 4906 N 452.299 1.55045 -0.282633 0
M  V30 4907 C 453.715 1.59441 0.0712997 0
M  V30 4908 C 453.915 1.2998 1.53972 0
M  V30 4909 O 452.971 1.06431 2.28973 0
M  V30 4910 C 454.284 2.99097 -0.310104 0
M  V30 4911 C 455.832 3.1194 -0.257343 0
M  V30 4912 C 456.307 4.53875 -0.613297 0
M  V30 4913 N 457.798 4.5974 -0.565134 0
M  V30 4914 C 458.533 5.67603 -0.81326 0
M  V30 4915 N 458.029 6.83582 -1.1264 0
M  V30 4916 N 459.822 5.57187 -0.741553 0
M  V30 4917 H 451.973 1.72458 -1.23984 0
M  V30 4918 H 454.236 0.804549 -0.501403 0
M  V30 4919 H 453.942 3.25516 -1.33163 0
M  V30 4920 H 453.816 3.75616 0.345366 0
M  V30 4921 H 456.203 2.85281 0.754905 0
M  V30 4922 H 456.284 2.37618 -0.947178 0
M  V30 4923 H 455.928 4.81261 -1.62327 0
M  V30 4924 H 455.858 5.26508 0.09841 0
M  V30 4925 H 458.349 3.76427 -0.333294 0
M  V30 4926 H 458.662 7.6175 -1.30219 0
M  V30 4927 H 457.007 6.85179 -1.16425 0
M  V30 4928 H 460.198 4.65457 -0.496705 0
M  V30 4929 H 460.371 6.41171 -0.938306 0
M  V30 4930 N 453.777 0.010035 1.57597 0
M  V30 4931 C 454.687 -0.994226 2.12491 0
M  V30 4932 C 455.703 -1.37013 1.07254 0
M  V30 4933 O 456.879 -1.45542 1.3921 0
M  V30 4934 C 453.944 -2.2642 2.62555 0
M  V30 4935 C 453.005 -1.95049 3.82432 0
M  V30 4936 C 452.238 -3.15991 4.30099 0
M  V30 4937 O 452.461 -4.28015 3.7704 0
M  V30 4938 O 451.395 -2.99403 5.22151 0
M  V30 4939 H 455.221 -0.557549 2.98538 0
M  V30 4940 H 452.806 -0.209413 1.47925 0
M  V30 4941 H 454.688 -3.01009 2.9491 0
M  V30 4942 H 453.363 -2.69306 1.796 0
M  V30 4943 H 452.27 -1.17904 3.55034 0
M  V30 4944 H 453.603 -1.56992 4.66491 0
M  V30 4945 N 455.255 -1.55392 -0.262866 0
M  V30 4946 C 456.185 -1.91978 -1.32917 0
M  V30 4947 C 457.166 -0.7828 -1.51017 0
M  V30 4948 O 458.351 -1.04178 -1.63892 0
M  V30 4949 C 455.481 -2.20055 -2.68687 0
M  V30 4950 C 454.435 -3.35854 -2.65304 0
M  V30 4951 C 453.761 -3.49435 -4.04721 0
M  V30 4952 C 455.061 -4.71977 -2.23685 0
M  V30 4953 H 456.755 -2.81292 -1.02544 0
M  V30 4954 H 454.301 -1.3534 -0.491846 0
M  V30 4955 H 456.254 -2.44237 -3.43404 0
M  V30 4956 H 454.978 -1.27551 -3.00663 0
M  V30 4957 H 453.637 -3.11655 -1.93045 0
M  V30 4958 H 453.285 -2.54379 -4.33936 0
M  V30 4959 H 452.985 -4.27297 -4.0335 0
M  V30 4960 H 454.509 -3.7592 -4.81161 0
M  V30 4961 H 455.923 -4.95637 -2.88127 0
M  V30 4962 H 454.32 -5.52828 -2.33456 0
M  V30 4963 H 455.39 -4.70115 -1.18827 0
M  V30 4964 N 456.733 0.527833 -1.48498 0
M  V30 4965 C 457.643 1.65907 -1.65867 0
M  V30 4966 C 458.659 1.6537 -0.541192 0
M  V30 4967 O 459.835 1.84282 -0.812534 0
M  V30 4968 C 456.9 3.02364 -1.69637 0
M  V30 4969 C 455.961 3.1374 -2.93028 0
M  V30 4970 C 455.194 4.43688 -2.96609 0
M  V30 4971 O 455.417 5.30913 -2.08538 0
M  V30 4972 O 454.351 4.59475 -3.88802 0
M  V30 4973 H 458.177 1.5419 -2.61647 0
M  V30 4974 H 455.762 0.701163 -1.31924 0
M  V30 4975 H 457.644 3.83515 -1.74625 0
M  V30 4976 H 456.319 3.14401 -0.770312 0
M  V30 4977 H 455.226 2.31877 -2.93571 0
M  V30 4978 H 456.559 3.06621 -3.85026 0
M  V30 4979 N 458.211 1.37122 0.776871 0
M  V30 4980 C 459.121 1.34651 1.9211 0
M  V30 4981 C 460.137 0.246824 1.7224 0
M  V30 4982 O 461.313 0.48134 1.95563 0
M  V30 4983 C 458.378 1.14748 3.2716 0
M  V30 4984 C 457.439 2.34308 3.5972 0
M  V30 4985 C 456.672 2.15345 4.88326 0
M  V30 4986 O 456.895 1.13507 5.58992 0
M  V30 4987 O 455.829 3.03414 5.1983 0
M  V30 4988 H 459.655 2.31013 1.97146 0
M  V30 4989 H 457.24 1.17799 0.918901 0
M  V30 4990 H 459.122 1.05616 4.0795 0
M  V30 4991 H 457.797 0.214562 3.22988 0
M  V30 4992 H 456.704 2.49011 2.79185 0
M  V30 4993 H 458.037 3.26149 3.68629 0
M  V30 4994 N 459.689 -1.00246 1.21608 0
M  V30 4995 C 460.599 -2.12515 0.993709 0
M  V30 4996 C 461.615 -1.73913 -0.0549939 0
M  V30 4997 O 462.791 -2.00943 0.135619 0
M  V30 4998 C 459.856 -3.42083 0.563953 0
M  V30 4999 C 458.917 -3.94843 1.68516 0
M  V30 5000 C 458.15 -5.18226 1.27582 0
M  V30 5001 O 458.373 -5.70201 0.150506 0
M  V30 5002 O 457.307 -5.64497 2.0887 0
M  V30 5003 H 461.133 -2.34152 1.93407 0
M  V30 5004 H 458.718 -1.10891 1.00118 0
M  V30 5005 H 460.6 -4.20073 0.334194 0
M  V30 5006 H 459.275 -3.21828 -0.347665 0
M  V30 5007 H 458.182 -3.18068 1.96935 0
M  V30 5008 H 459.515 -4.19512 2.5743 0
M  V30 5009 N 461.167 -1.02423 -1.1978 0
M  V30 5010 C 462.077 -0.610919 -2.26506 0
M  V30 5011 C 463.093 0.355152 -1.70337 0
M  V30 5012 O 464.269 0.214195 -2.00258 0
M  V30 5013 C 461.334 0.0365921 -3.46681 0
M  V30 5014 C 460.395 -0.976389 -4.18049 0
M  V30 5015 C 459.628 -0.359683 -5.32487 0
M  V30 5016 O 459.851 0.838601 -5.64202 0
M  V30 5017 O 458.785 -1.08022 -5.92127 0
M  V30 5018 H 462.611 -1.49965 -2.64091 0
M  V30 5019 H 460.196 -0.794156 -1.26545 0
M  V30 5020 H 462.078 0.39786 -4.19518 0
M  V30 5021 H 460.753 0.899398 -3.10954 0
M  V30 5022 H 459.66 -1.38916 -3.47352 0
M  V30 5023 H 460.993 -1.80941 -4.57735 0
M  V30 5024 N 462.645 1.35699 -0.801477 0
M  V30 5025 C 463.555 2.33661 -0.209691 0
M  V30 5026 C 464.571 1.6162 0.644591 0
M  V30 5027 O 465.747 1.93529 0.557545 0
M  V30 5028 C 462.812 3.40816 0.636033 0
M  V30 5029 C 461.873 4.28639 -0.238147 0
M  V30 5030 C 461.106 5.30676 0.567307 0
M  V30 5031 O 461.329 5.41174 1.8024 0
M  V30 5032 O 460.263 6.01887 -0.0391336 0
M  V30 5033 H 464.089 2.8606 -1.01996 0
M  V30 5034 H 461.674 1.38379 -0.563164 0
M  V30 5035 H 463.556 4.06301 1.11791 0
M  V30 5036 H 462.231 2.90696 1.42399 0
M  V30 5037 H 461.138 3.66152 -0.767044 0
M  V30 5038 H 462.471 4.82143 -0.989915 0
M  V30 5039 N 464.123 0.554532 1.47522 0
M  V30 5040 C 465.071 -0.207765 2.3167 0
M  V30 5041 C 466.065 -0.911914 1.4276 0
M  V30 5042 O 467.271 -0.833504 1.59539 0
M  V30 5043 H 463.646 -0.0858726 0.747081 0
M  V30 5044 H 465.617 0.521178 2.93813 0
M  V30 5045 C 464.366 -1.2263 3.25357 0
M  V30 5046 H 463.689 -0.693887 3.93732 0
M  V30 5047 H 465.129 -1.73062 3.87073 0
M  V30 5048 C 463.588 -2.27278 2.4869 0
M  V30 5049 O 464.118 -3.34156 2.22941 0
M  V30 5050 N 462.324 -2.01134 2.09746 0
M  V30 5051 H 461.871 -1.14232 2.30887 0
M  V30 5052 H 461.829 -2.71369 1.58765 0
M  V30 5053 N 465.601 -1.54893 0.290851 0
M  V30 5054 C 466.826 -2.04804 -0.32712 0
M  V30 5055 C 467.251 -1.16721 -1.47506 0
M  V30 5056 O 466.609 -0.169107 -1.8051 0
M  V30 5057 C 466.657 -3.52268 -0.770689 0
M  V30 5058 O 465.761 -3.67236 -1.87647 0
M  V30 5059 H 465.102 -0.660789 -0.0652227 0
M  V30 5060 H 467.632 -2.00036 0.429739 0
M  V30 5061 H 467.642 -3.9393 -1.06223 0
M  V30 5062 H 466.317 -4.15843 0.069096 0
M  V30 5063 H 464.894 -3.37479 -1.58626 0
M  V30 5064 N 467.08 -0.0183926 -1.57589 0
M  V30 5065 C 468.357 0.700621 -1.82622 0
M  V30 5066 C 468.737 1.90951 -0.90005 0
M  V30 5067 O 468.085 2.28452 0.0469145 0
M  V30 5068 C 468.295 1.08899 -3.31575 0
M  V30 5069 C 469.643 1.48514 -3.9778 0
M  V30 5070 O 470.667 1.18227 -3.36007 0
M  V30 5071 O 469.526 2.04903 -5.06633 0
M  V30 5072 H 466.62 0.342743 -0.752633 0
M  V30 5073 H 469.166 -0.0452548 -1.6964 0
M  V30 5074 H 467.938 0.228113 -3.90635 0
M  V30 5075 H 467.561 1.89338 -3.49624 0
M  V30 5076 N 468.558 1.5553 0.254621 0
M  V30 5077 C 469.468 1.92789 1.33677 0
M  V30 5078 C 470.484 0.827356 1.53071 0
M  V30 5079 O 471.66 1.12807 1.66843 0
M  V30 5080 C 468.725 2.20827 2.67275 0
M  V30 5081 C 467.786 3.4427 2.5647 0
M  V30 5082 C 467.019 3.70961 3.83697 0
M  V30 5083 O 467.242 2.99852 4.85227 0
M  V30 5084 O 466.176 4.64491 3.82794 0
M  V30 5085 H 470.002 2.84945 1.05071 0
M  V30 5086 H 467.587 1.42312 0.454723 0
M  V30 5087 H 469.469 2.40204 3.46237 0
M  V30 5088 H 468.144 1.31851 2.9563 0
M  V30 5089 H 467.051 3.30209 1.75821 0
M  V30 5090 H 468.384 4.33524 2.33062 0
M  V30 5091 N 470.036 -0.519951 1.48776 0
M  V30 5092 C 471.313 -1.28123 1.47797 0
M  V30 5093 C 471.693 -2.10196 0.195157 0
M  V30 5094 O 471.041 -2.13167 -0.822925 0
M  V30 5095 C 471.251 -2.15413 2.74587 0
M  V30 5096 C 472.599 -2.75225 3.23321 0
M  V30 5097 O 473.623 -2.25694 2.75574 0
M  V30 5098 O 472.482 -3.65346 4.06429 0
M  V30 5099 H 469.576 -0.578793 0.590701 0
M  V30 5100 H 472.122 -0.535779 1.6102 0
M  V30 5101 H 470.894 -1.54617 3.59457 0
M  V30 5102 H 470.517 -2.97186 2.64132 0
M  V30 5103 N 471.514 -1.37532 -0.769588 0
M  V30 5104 C 472.424 -1.35668 -1.91393 0
M  V30 5105 C 473.44 -0.255954 -1.72107 0
M  V30 5106 O 474.616 -0.491704 -1.95305 0
M  V30 5107 C 471.681 -1.16481 -3.26547 0
M  V30 5108 C 470.742 -2.36212 -3.58472 0
M  V30 5109 C 469.975 -2.17932 -4.87177 0
M  V30 5110 O 470.198 -1.1647 -5.58382 0
M  V30 5111 O 469.132 -3.06167 -5.18214 0
M  V30 5112 H 472.958 -2.32055 -1.95918 0
M  V30 5113 H 470.543 -1.18284 -0.912641 0
M  V30 5114 H 472.425 -1.07778 -4.07384 0
M  V30 5115 H 471.1 -0.231687 -3.2287 0
M  V30 5116 H 470.007 -2.50488 -2.77861 0
M  V30 5117 H 471.34 -3.281 -3.66894 0
M  V30 5118 N 472.992 0.995999 -1.22138 0
M  V30 5119 C 473.922 2.10387 -1.01289 0
M  V30 5120 C 474.903 1.69975 0.0651454 0
M  V30 5121 O 476.088 1.9396 -0.0964628 0
M  V30 5122 C 473.218 3.42312 -0.586517 0
M  V30 5123 C 472.172 3.96558 -1.61014 0
M  V30 5124 C 471.498 5.24494 -1.0397 0
M  V30 5125 C 472.798 4.27595 -2.99933 0
M  V30 5126 H 474.492 2.28086 -1.93951 0
M  V30 5127 H 472.038 1.09607 -0.933928 0
M  V30 5128 H 473.991 4.19223 -0.427793 0
M  V30 5129 H 472.715 3.24431 0.375761 0
M  V30 5130 H 471.374 3.21776 -1.75658 0
M  V30 5131 H 471.022 5.02953 -0.0688703 0
M  V30 5132 H 470.722 5.61755 -1.72352 0
M  V30 5133 H 472.246 6.04042 -0.892494 0
M  V30 5134 H 473.66 4.95315 -2.8868 0
M  V30 5135 H 472.057 4.76021 -3.6541 0
M  V30 5136 H 473.127 3.35498 -3.50099 0
M  V30 5137 N 474.47 1.03057 1.19235 0
M  V30 5138 C 475.747 0.642608 1.84743 0
M  V30 5139 C 476.127 -0.878577 1.91948 0
M  V30 5140 O 475.475 -1.77597 1.43776 0
M  V30 5141 C 475.685 1.30665 3.23616 0
M  V30 5142 C 477.033 1.43098 3.9976 0
M  V30 5143 O 478.057 1.26396 3.3302 0
M  V30 5144 O 476.916 1.70223 5.19313 0
M  V30 5145 H 474.01 0.223573 0.796206 0
M  V30 5146 H 476.556 1.12883 1.26711 0
M  V30 5147 H 475.328 2.34544 3.13217 0
M  V30 5148 H 474.951 0.808405 3.89295 0
M  V30 5149 N 475.948 -1.35272 0.808662 0
M  V30 5150 C 477.173 -2.03477 0.401475 0
M  V30 5151 C 477.598 -1.60537 -0.980279 0
M  V30 5152 O 476.956 -0.78304 -1.63518 0
M  V30 5153 C 477.004 -3.57181 0.495354 0
M  V30 5154 O 476.108 -4.09474 -0.490397 0
M  V30 5155 H 475.449 -0.642561 0.167366 0
M  V30 5156 H 477.979 -1.72824 1.09512 0
M  V30 5157 H 477.989 -4.06356 0.365912 0
M  V30 5158 H 476.664 -3.87784 1.5032 0
M  V30 5159 H 475.241 -3.71516 -0.321023 0
M  V30 5160 N 477.426 -0.562348 -1.47226 0
M  V30 5161 C 478.376 0.202967 -2.27095 0
M  V30 5162 C 479.36 0.880611 -1.34663 0
M  V30 5163 O 480.552 0.778069 -1.58981 0
M  V30 5164 C 477.681 1.22906 -3.20545 0
M  V30 5165 C 476.767 0.554566 -4.20459 0
M  V30 5166 N 477.158 -0.378295 -5.04383 0
M  V30 5167 C 475.456 0.807854 -4.38623 0
M  V30 5168 C 476.157 -0.770583 -5.76573 0
M  V30 5169 N 475.133 -0.124263 -5.43458 0
M  V30 5170 H 478.935 -0.514196 -2.89367 0
M  V30 5171 H 476.449 -0.382655 -1.57827 0
M  V30 5172 H 478.446 1.79134 -3.76453 0
M  V30 5173 H 477.106 1.94726 -2.59831 0
M  V30 5174 H 478.117 -0.75274 -5.124 0
M  V30 5175 H 474.794 1.51418 -3.89075 0
M  V30 5176 H 476.184 -1.53742 -6.54074 0
M  V30 5177 N 478.904 1.54736 -0.299062 0
M  V30 5178 C 480.132 2.04512 0.313447 0
M  V30 5179 C 480.547 1.17643 1.47667 0
M  V30 5180 O 479.904 0.20164 1.81383 0
M  V30 5181 C 479.955 3.53171 0.771542 0
M  V30 5182 O 479.676 4.36736 -0.345379 0
M  V30 5183 C 481.177 4.18936 1.4494 0
M  V30 5184 H 478.397 0.667507 0.0683784 0
M  V30 5185 H 480.941 1.99752 -0.438129 0
M  V30 5186 H 479.096 3.58298 1.47314 0
M  V30 5187 H 479.51 5.24499 0.0109219 0
M  V30 5188 H 480.984 5.24482 1.72111 0
M  V30 5189 H 481.461 3.68554 2.38883 0
M  V30 5190 H 482.067 4.17879 0.791028 0
M  V30 5191 N 480.382 0.0267497 1.57577 0
M  V30 5192 C 481.315 -0.99059 2.05579 0
M  V30 5193 C 482.293 -1.31884 0.951065 0
M  V30 5194 O 483.477 -1.43592 1.22121 0
M  V30 5195 C 480.604 -2.31125 2.47586 0
M  V30 5196 C 479.65 -2.13777 3.69055 0
M  V30 5197 S 480.483 -1.4388 5.15809 0
M  V30 5198 C 481.639 -2.77321 5.6111 0
M  V30 5199 H 481.872 -0.581976 2.91548 0
M  V30 5200 H 479.405 -0.184876 1.53289 0
M  V30 5201 H 481.363 -3.07049 2.72454 0
M  V30 5202 H 480.024 -2.6912 1.61967 0
M  V30 5203 H 479.217 -3.11405 3.96287 0
M  V30 5204 H 478.819 -1.45996 3.44327 0
M  V30 5205 H 481.111 -3.73565 5.65204 0
M  V30 5206 H 482.054 -2.54756 6.60685 0
M  V30 5207 H 482.462 -2.82459 4.88751 0
M  V30 5208 N 481.861 -1.55662 -0.24637 0
M  V30 5209 C 483.107 -1.77782 -0.975779 0
M  V30 5210 C 483.44 -0.592103 -1.84953 0
M  V30 5211 O 482.715 0.409588 -1.90138 0
M  V30 5212 C 482.998 -3.09788 -1.83584 0
M  V30 5213 C 482.851 -4.38764 -0.990241 0
M  V30 5214 C 484.17 -3.38029 -2.81823 0
M  V30 5215 H 481.289 -0.646789 -0.353317 0
M  V30 5216 H 483.931 -1.88398 -0.246248 0
M  V30 5217 H 482.081 -3.00869 -2.45784 0
M  V30 5218 H 483.753 -4.59675 -0.386897 0
M  V30 5219 H 481.996 -4.32798 -0.294626 0
M  V30 5220 H 482.667 -5.27514 -1.62584 0
M  V30 5221 H 485.143 -3.46915 -2.2976 0
M  V30 5222 H 484.019 -4.3161 -3.39122 0
M  V30 5223 H 484.28 -2.58968 -3.58313 0
M  V30 5224 N 483.339 0.512053 -1.4905 0
M  V30 5225 C 484.286 1.6148 -1.64902 0
M  V30 5226 C 485.256 1.58687 -0.490673 0
M  V30 5227 O 486.441 1.76842 -0.71636 0
M  V30 5228 C 483.581 2.99676 -1.71139 0
M  V30 5229 C 482.694 3.12568 -2.98203 0
M  V30 5230 C 481.829 4.4143 -2.95487 0
M  V30 5231 C 480.868 4.47916 -4.17179 0
M  V30 5232 N 480.005 5.68191 -4.12437 0
M  V30 5233 H 484.845 1.47271 -2.59066 0
M  V30 5234 H 482.382 0.716713 -1.28459 0
M  V30 5235 H 484.34 3.79761 -1.72736 0
M  V30 5236 H 482.97 3.12614 -0.804508 0
M  V30 5237 H 482.022 2.25618 -3.06269 0
M  V30 5238 H 483.334 3.1322 -3.88194 0
M  V30 5239 H 482.488 5.29825 -2.95585 0
M  V30 5240 H 481.227 4.43326 -2.03256 0
M  V30 5241 H 480.232 3.57925 -4.17337 0
M  V30 5242 H 481.457 4.47744 -5.1059 0
M  V30 5243 H 479.403 5.7095 -3.23036 0
M  V30 5244 H 479.32 5.70413 -4.96151 0
M  V30 5245 H 480.588 6.58823 -4.16621 0
M  V30 5246 N 484.817 1.37938 0.762283 0
M  V30 5247 C 486.045 1.36883 1.55147 0
M  V30 5248 C 486.46 -0.0435348 1.8875 0
M  V30 5249 O 485.817 -1.00786 1.52146 0
M  V30 5250 C 485.868 2.21624 2.85596 0
M  V30 5251 O 485.589 3.57358 2.5343 0
M  V30 5252 C 487.09 2.28653 3.7978 0
M  V30 5253 H 484.31 0.468521 0.480343 0
M  V30 5254 H 486.854 1.81404 0.944079 0
M  V30 5255 H 485.009 1.80588 3.42734 0
M  V30 5256 H 485.423 4.01883 3.37032 0
M  V30 5257 H 486.897 2.9225 4.68288 0
M  V30 5258 H 487.374 1.29767 4.19592 0
M  V30 5259 H 487.98 2.70043 3.28568 0
M  V30 5260 N 486.295 -0.989507 1.22664 0
M  V30 5261 C 487.52 -1.77031 1.08051 0
M  V30 5262 C 487.945 -1.84535 -0.364483 0
M  V30 5263 O 487.303 -1.3003 -1.2634 0
M  V30 5264 C 487.351 -3.18 1.70024 0
M  V30 5265 O 486.455 -4.01161 0.956216 0
M  V30 5266 H 485.796 -0.545008 0.379292 0
M  V30 5267 H 488.326 -1.24277 1.62531 0
M  V30 5268 H 488.336 -3.68616 1.74888 0
M  V30 5269 H 487.011 -3.11853 2.75174 0
M  V30 5270 H 485.588 -3.59687 0.98384 0
M  V30 5271 N 487.773 -1.03688 -1.18687 0
M  V30 5272 C 489.019 -0.739123 -1.88851 0
M  V30 5273 C 489.352 0.731042 -1.79915 0
M  V30 5274 O 488.627 1.53313 -1.19688 0
M  V30 5275 C 488.91 -1.20106 -3.3948 0
M  V30 5276 C 488.763 -2.73304 -3.57246 0
M  V30 5277 C 490.082 -0.788134 -4.32986 0
M  V30 5278 H 487.201 -0.269978 -0.68577 0
M  V30 5279 H 489.843 -1.28822 -1.3966 0
M  V30 5280 H 487.993 -0.733915 -3.81505 0
M  V30 5281 H 489.665 -3.28027 -3.24339 0
M  V30 5282 H 487.908 -3.13313 -3.00029 0
M  V30 5283 H 488.579 -3.00684 -4.62918 0
M  V30 5284 H 491.055 -1.19005 -3.98719 0
M  V30 5285 H 489.931 -1.13915 -5.36949 0
M  V30 5286 H 490.192 0.308988 -4.41019 0
M  V30 5287 N 489.251 1.34841 -0.815825 0
M  V30 5288 C 490.161 2.33425 -0.234462 0
M  V30 5289 C 491.177 1.62295 0.627413 0
M  V30 5290 O 492.353 1.94109 0.536987 0
M  V30 5291 C 489.418 3.41471 0.599849 0
M  V30 5292 C 488.479 4.28362 -0.283596 0
M  V30 5293 C 487.712 5.31248 0.51099 0
M  V30 5294 O 487.935 5.43056 1.7449 0
M  V30 5295 O 486.869 6.01812 -0.10297 0
M  V30 5296 H 490.695 2.84962 -1.05024 0
M  V30 5297 H 488.28 1.37774 -0.577809 0
M  V30 5298 H 490.162 4.07464 1.07475 0
M  V30 5299 H 488.837 2.9219 1.39308 0
M  V30 5300 H 487.744 3.65318 -0.805836 0
M  V30 5301 H 489.077 4.81066 -1.041 0
M  V30 5302 N 490.729 0.570148 1.46925 0
M  V30 5303 C 491.954 0.0542592 2.07329 0
M  V30 5304 C 492.379 -1.23582 1.41806 0
M  V30 5305 O 491.737 -1.74341 0.497479 0
M  V30 5306 C 491.785 -0.111175 3.60429 0
M  V30 5307 O 490.889 -1.17071 3.95434 0
M  V30 5308 H 490.23 0.0571425 0.661537 0
M  V30 5309 H 492.76 0.789516 1.88753 0
M  V30 5310 H 492.77 -0.321315 4.06733 0
M  V30 5311 H 491.445 0.831012 4.07513 0
M  V30 5312 H 490.022 -0.940029 3.60857 0
M  V30 5313 N 492.207 -1.54576 0.307264 0
M  V30 5314 C 493.453 -2.0056 -0.300612 0
M  V30 5315 C 493.786 -1.1953 -1.53057 0
M  V30 5316 O 493.061 -0.27337 -1.92569 0
M  V30 5317 C 493.344 -3.54167 -0.650987 0
M  V30 5318 C 493.197 -4.45933 0.588539 0
M  V30 5319 C 494.516 -4.14645 -1.47506 0
M  V30 5320 H 491.635 -0.729075 -0.107788 0
M  V30 5321 H 494.277 -1.85286 0.420606 0
M  V30 5322 H 492.427 -3.67313 -1.26544 0
M  V30 5323 H 494.099 -4.44683 1.22697 0
M  V30 5324 H 492.342 -4.16274 1.22058 0
M  V30 5325 H 493.013 -5.51189 0.299153 0
M  V30 5326 H 495.489 -4.04973 -0.955821 0
M  V30 5327 H 494.365 -5.22269 -1.68899 0
M  V30 5328 H 494.626 -3.66921 -2.4662 0
M  V30 5329 N 493.685 -0.035106 -1.57561 0
M  V30 5330 C 494.933 0.64096 -1.91667 0
M  V30 5331 C 495.254 1.72323 -0.912681 0
M  V30 5332 O 494.524 1.95849 0.0449089 0
M  V30 5333 H 493.104 0.239743 -0.707483 0
M  V30 5334 H 495.766 -0.084321 -1.94718 0
M  V30 5335 H 494.862 1.08987 -2.92452 0
M  V30 5336 N 495.163 1.55791 0.238111 0
M  V30 5337 C 496.391 1.82098 0.982233 0
M  V30 5338 C 496.806 0.612025 1.78605 0
M  V30 5339 O 496.163 -0.419381 1.77616 0
M  V30 5340 C 496.214 3.0673 1.91309 0
M  V30 5341 O 495.935 4.2296 1.14179 0
M  V30 5342 C 497.436 3.45903 2.77248 0
M  V30 5343 H 494.656 0.605748 0.288635 0
M  V30 5344 H 497.2 2.02862 0.258341 0
M  V30 5345 H 495.355 2.87991 2.59114 0
M  V30 5346 H 495.769 4.93653 1.7722 0
M  V30 5347 H 497.243 4.36189 3.38295 0
M  V30 5348 H 497.72 2.66891 3.48806 0
M  V30 5349 H 498.326 3.67024 2.14881 0
M  V30 5350 N 496.642 -0.504142 1.49319 0
M  V30 5351 C 497.575 -1.62361 1.60356 0
M  V30 5352 C 498.553 -1.56169 0.45277 0
M  V30 5353 O 499.737 -1.76271 0.667892 0
M  V30 5354 C 496.864 -3.00864 1.55559 0
M  V30 5355 C 495.91 -3.25328 2.75797 0
M  V30 5356 S 496.743 -3.08791 4.37503 0
M  V30 5357 C 497.899 -4.49695 4.35345 0
M  V30 5358 H 498.132 -1.52753 2.55056 0
M  V30 5359 H 495.665 -0.689065 1.38171 0
M  V30 5360 H 497.623 -3.8073 1.53477 0
M  V30 5361 H 496.284 -3.0789 0.621515 0
M  V30 5362 H 495.477 -4.2643 2.68651 0
M  V30 5363 H 495.079 -2.53179 2.75275 0
M  V30 5364 H 497.371 -5.41721 4.06871 0
M  V30 5365 H 498.314 -4.61891 5.36714 0
M  V30 5366 H 498.722 -4.30227 3.65465 0
M  V30 5367 N 498.12 -1.38341 -0.754957 0
M  V30 5368 C 499.536 -1.19508 -1.05783 0
M  V30 5369 C 499.736 -0.0428005 -2.01455 0
M  V30 5370 O 498.792 0.611861 -2.44975 0
M  V30 5371 C 500.105 -2.52091 -1.63923 0
M  V30 5372 C 501.653 -2.58762 -1.76101 0
M  V30 5373 C 502.128 -3.91517 -2.37652 0
M  V30 5374 N 503.619 -3.93049 -2.45085 0
M  V30 5375 C 504.354 -4.9253 -2.93602 0
M  V30 5376 N 503.85 -6.02408 -3.42165 0
M  V30 5377 N 505.643 -4.79921 -2.92629 0
M  V30 5378 H 497.794 -2.1206 -0.120056 0
M  V30 5379 H 500.057 -0.94089 -0.11589 0
M  V30 5380 H 499.763 -3.36858 -1.01093 0
M  V30 5381 H 499.637 -2.70388 -2.63003 0
M  V30 5382 H 502.024 -1.74391 -2.38058 0
M  V30 5383 H 502.105 -2.44333 -0.757294 0
M  V30 5384 H 501.749 -4.76309 -1.76329 0
M  V30 5385 H 501.679 -4.03256 -3.38662 0
M  V30 5386 H 504.17 -3.13685 -2.10736 0
M  V30 5387 H 504.483 -6.74248 -3.77637 0
M  V30 5388 H 502.828 -6.0603 -3.40225 0
M  V30 5389 H 506.019 -3.93194 -2.54001 0
M  V30 5390 H 506.192 -5.57601 -3.30128 0
M  V30 5391 N 499.598 0.982988 -1.23187 0
M  V30 5392 C 500.561 2.05649 -1.01198 0
M  V30 5393 C 501.561 1.6078 0.0252464 0
M  V30 5394 O 502.751 1.72878 -0.214243 0
M  V30 5395 C 499.883 3.36744 -0.530656 0
M  V30 5396 H 501.076 2.2659 -1.96461 0
M  V30 5397 H 498.629 1.15602 -1.05195 0
M  V30 5398 H 499.364 3.21492 0.425873 0
M  V30 5399 H 499.149 3.7065 -1.2791 0
M  V30 5400 H 500.639 4.15705 -0.397366 0
M  V30 5401 N 501.076 1.04316 1.18135 0
M  V30 5402 C 502.304 0.768117 1.92113 0
M  V30 5403 C 502.719 -0.675057 1.76319 0
M  V30 5404 O 502.076 -1.46038 1.09449 0
M  V30 5405 C 502.127 1.12808 3.43448 0
M  V30 5406 O 501.848 2.5146 3.58747 0
M  V30 5407 C 503.349 0.8779 4.3452 0
M  V30 5408 H 500.569 0.279937 0.609817 0
M  V30 5409 H 503.113 1.39149 1.49859 0
M  V30 5410 H 501.268 0.549623 3.83481 0
M  V30 5411 H 501.682 2.65313 4.52448 0
M  V30 5412 H 503.156 1.17959 5.39249 0
M  V30 5413 H 503.633 -0.187239 4.38801 0
M  V30 5414 H 504.239 1.43977 4.00188 0
M  V30 5415 N 502.554 -1.34406 0.822964 0
M  V30 5416 C 503.779 -2.0304 0.423034 0
M  V30 5417 C 504.204 -1.61568 -0.963196 0
M  V30 5418 O 503.562 -0.800339 -1.62678 0
M  V30 5419 C 503.61 -3.56636 0.53321 0
M  V30 5420 O 502.714 -4.09971 -0.446939 0
M  V30 5421 H 502.055 -0.64075 0.174171 0
M  V30 5422 H 504.585 -1.71653 1.11339 0
M  V30 5423 H 504.595 -4.05945 0.408991 0
M  V30 5424 H 503.27 -3.86168 1.54425 0
M  V30 5425 H 501.847 -3.71835 -0.281601 0
M  V30 5426 N 504.032 -0.577932 -1.46621 0
M  V30 5427 C 505.26 -0.0671642 -2.06791 0
M  V30 5428 C 505.675 1.23571 -1.42743 0
M  V30 5429 O 505.032 1.74602 -0.531062 0
M  V30 5430 C 505.083 0.110357 -3.61332 0
M  V30 5431 O 504.804 -1.14095 -4.22982 0
M  V30 5432 C 506.305 0.656025 -4.38419 0
M  V30 5433 H 503.525 -0.0552732 -0.66872 0
M  V30 5434 H 506.069 -0.797242 -1.8832 0
M  V30 5435 H 504.224 0.790637 -3.79246 0
M  V30 5436 H 504.638 -0.951742 -5.15793 0
M  V30 5437 H 506.112 0.729438 -5.47159 0
M  V30 5438 H 506.589 1.67195 -4.06131 0
M  V30 5439 H 507.195 0.0107692 -4.25299 0
M  V30 5440 N 505.51 1.54411 -0.315457 0
M  V30 5441 C 506.443 2.20265 0.596522 0
M  V30 5442 C 507.421 1.17693 1.12192 0
M  V30 5443 O 508.605 1.46397 1.18744 0
M  V30 5444 C 505.732 2.85794 1.81767 0
M  V30 5445 C 504.778 4.02017 1.42424 0
M  V30 5446 S 505.611 5.33452 0.467836 0
M  V30 5447 C 506.767 6.02471 1.69645 0
M  V30 5448 H 507 2.97277 0.0370896 0
M  V30 5449 H 504.533 1.54079 -0.0995562 0
M  V30 5450 H 506.491 3.24172 2.51839 0
M  V30 5451 H 505.152 2.08601 2.34828 0
M  V30 5452 H 504.345 4.46701 2.33396 0
M  V30 5453 H 503.947 3.65271 0.803311 0
M  V30 5454 H 506.239 6.24157 2.63504 0
M  V30 5455 H 507.182 6.96215 1.29192 0
M  V30 5456 H 507.59 5.32284 1.87974 0
M  V30 5457 N 506.988 0.0434614 1.5754 0
M  V30 5458 C 508.213 -0.645358 1.97104 0
M  V30 5459 C 508.638 -1.64037 0.920521 0
M  V30 5460 O 507.996 -1.80922 -0.11708 0
M  V30 5461 C 508.044 -1.31547 3.35749 0
M  V30 5462 O 507.148 -2.43103 3.33129 0
M  V30 5463 H 506.489 -0.168403 0.64229 0
M  V30 5464 H 509.019 0.109573 2.04306 0
M  V30 5465 H 509.029 -1.66895 3.72304 0
M  V30 5466 H 507.704 -0.586205 4.11748 0
M  V30 5467 H 506.281 -2.0976 3.0831 0
M  V30 5468 N 508.466 -1.55915 -0.229846 0
M  V30 5469 C 509.376 -1.94891 -1.30593 0
M  V30 5470 C 510.392 -0.851604 -1.51736 0
M  V30 5471 O 511.568 -1.15447 -1.65027 0
M  V30 5472 C 508.633 -2.25052 -2.63728 0
M  V30 5473 C 507.694 -3.48306 -2.5096 0
M  V30 5474 C 506.927 -3.77019 -3.77747 0
M  V30 5475 O 507.15 -3.07534 -4.80395 0
M  V30 5476 O 506.084 -4.70523 -3.75356 0
M  V30 5477 H 509.91 -2.86581 -1.00525 0
M  V30 5478 H 507.495 -1.43017 -0.432025 0
M  V30 5479 H 509.377 -2.45682 -3.42372 0
M  V30 5480 H 508.052 -1.36538 -2.93495 0
M  V30 5481 H 506.959 -3.32964 -1.70546 0
M  V30 5482 H 508.292 -4.37177 -2.26136 0
M  V30 5483 N 509.944 0.496216 -1.49584 0
M  V30 5484 C 511.192 1.24756 -1.58998 0
M  V30 5485 C 511.513 1.92968 -0.280775 0
M  V30 5486 O 510.783 1.82959 0.700198 0
M  V30 5487 H 509.363 0.463471 -0.585836 0
M  V30 5488 H 512.025 0.574678 -1.86235 0
M  V30 5489 H 511.121 2.00895 -2.38847 0
M  V30 5490 N 511.423 1.38739 0.74761 0
M  V30 5491 C 512.386 1.36241 1.84312 0
M  V30 5492 C 513.386 0.261811 1.58654 0
M  V30 5493 O 514.576 0.519031 1.66288 0
M  V30 5494 C 511.708 1.12253 3.21888 0
M  V30 5495 H 512.901 2.33712 1.87933 0
M  V30 5496 H 510.454 1.2412 0.949946 0
M  V30 5497 H 511.189 0.154133 3.23934 0
M  V30 5498 H 510.974 1.91943 3.41907 0
M  V30 5499 H 512.464 1.13215 4.0196 0
M  V30 5500 N 512.901 -0.976442 1.23707 0
M  V30 5501 C 513.833 -2.07212 0.979574 0
M  V30 5502 C 514.846 -1.6273 -0.0478528 0
M  V30 5503 O 516.035 -1.77506 0.18815 0
M  V30 5504 C 513.135 -3.35835 0.45479 0
M  V30 5505 C 512.308 -4.09268 1.54331 0
M  V30 5506 C 511.367 -5.16166 1.02271 0
M  V30 5507 O 510.393 -5.42827 1.71254 0
M  V30 5508 N 511.595 -5.80313 -0.147419 0
M  V30 5509 H 514.36 -2.29878 1.92292 0
M  V30 5510 H 511.921 -1.14343 1.14618 0
M  V30 5511 H 513.913 -4.04597 0.0914631 0
M  V30 5512 H 512.483 -3.10106 -0.394068 0
M  V30 5513 H 511.703 -3.34906 2.07923 0
M  V30 5514 H 512.991 -4.55095 2.27522 0
M  V30 5515 H 512.389 -5.61043 -0.724353 0
M  V30 5516 H 510.946 -6.50231 -0.451972 0
M  V30 5517 N 514.379 -1.04941 -1.1758 0
M  V30 5518 C 515.607 -0.778294 -1.91703 0
M  V30 5519 C 516.022 0.665697 -1.76675 0
M  V30 5520 O 515.379 1.45456 -1.10222 0
M  V30 5521 C 515.43 -1.14628 -3.42845 0
M  V30 5522 O 515.151 -2.53359 -3.57409 0
M  V30 5523 C 516.652 -0.900931 -4.34049 0
M  V30 5524 H 513.872 -0.283167 -0.608323 0
M  V30 5525 H 516.416 -1.39942 -1.49119 0
M  V30 5526 H 514.571 -0.569953 -3.83184 0
M  V30 5527 H 514.985 -2.67709 -4.51035 0
M  V30 5528 H 516.459 -1.20817 -5.38616 0
M  V30 5529 H 516.936 0.163966 -4.38894 0
M  V30 5530 H 517.542 -1.46097 -3.99419 0
M  V30 5531 N 515.857 1.33968 -0.830081 0
M  V30 5532 C 516.79 2.27303 -0.202182 0
M  V30 5533 C 517.768 1.49235 0.645581 0
M  V30 5534 O 518.952 1.78433 0.607762 0
M  V30 5535 C 516.079 3.31025 0.716932 0
M  V30 5536 C 515.125 4.26466 -0.0542271 0
M  V30 5537 S 515.958 5.16707 -1.40622 0
M  V30 5538 C 517.114 6.23962 -0.492167 0
M  V30 5539 H 517.347 2.8021 -0.99346 0
M  V30 5540 H 514.88 1.41124 -0.626359 0
M  V30 5541 H 516.838 3.91271 1.24165 0
M  V30 5542 H 515.499 2.76951 1.4818 0
M  V30 5543 H 514.692 4.99858 0.644785 0
M  V30 5544 H 514.294 3.7051 -0.509722 0
M  V30 5545 H 516.586 6.76774 0.31347 0
M  V30 5546 H 517.529 6.97927 -1.19599 0
M  V30 5547 H 517.937 5.64447 -0.0774176 0
M  V30 5548 N 517.335 0.585699 1.46312 0
M  V30 5549 C 518.584 0.0701192 2.01578 0
M  V30 5550 C 518.897 -1.29889 1.46247 0
M  V30 5551 O 520.103 -1.90598 1.93351 0
M  V30 5552 C 518.559 0.0747499 3.59822 0
M  V30 5553 C 518.167 1.44226 4.24149 0
M  V30 5554 C 519.911 -0.38673 4.22735 0
M  V30 5555 C 517.818 1.40446 5.74481 0
M  V30 5556 H 516.748 0.0224441 0.753666 0
M  V30 5557 H 519.399 0.737789 1.68015 0
M  V30 5558 H 517.781 -0.659144 3.90476 0
M  V30 5559 H 518.955 2.19612 4.05101 0
M  V30 5560 H 517.27 1.84401 3.73343 0
M  V30 5561 H 519.867 -0.433853 5.32937 0
M  V30 5562 H 520.21 -1.40489 3.91878 0
M  V30 5563 H 520.743 0.293195 3.96718 0
M  V30 5564 H 517.482 2.39952 6.10003 0
M  V30 5565 H 517.002 0.692845 5.95785 0
M  V30 5566 H 518.681 1.11865 6.37256 0
M  V30 5567 N 518.813 -1.54241 0.323641 0
M  V30 5568 C 519.723 -2.28033 -0.551205 0
M  V30 5569 C 520.739 -1.32388 -1.12913 0
M  V30 5570 O 521.915 -1.65403 -1.14908 0
M  V30 5571 C 518.98 -3.02382 -1.69606 0
M  V30 5572 C 518.041 -4.13612 -1.14993 0
M  V30 5573 C 517.274 -4.84407 -2.24022 0
M  V30 5574 O 517.497 -4.54716 -3.44368 0
M  V30 5575 O 516.431 -5.71312 -1.89436 0
M  V30 5576 H 520.257 -3.03662 0.048066 0
M  V30 5577 H 517.842 -1.49133 0.0893289 0
M  V30 5578 H 519.724 -3.48941 -2.36259 0
M  V30 5579 H 518.399 -2.29628 -2.28151 0
M  V30 5580 H 517.306 -3.71402 -0.448484 0
M  V30 5581 H 518.639 -4.8841 -0.609608 0
M  V30 5582 N 520.291 -0.0518155 -1.57515 0
M  V30 5583 C 521.241 0.932017 -2.0808 0
M  V30 5584 C 522.225 1.27141 -0.986098 0
M  V30 5585 O 523.417 1.25373 -1.24943 0
M  V30 5586 C 520.546 2.20665 -2.62986 0
M  V30 5587 C 519.632 1.89462 -3.79427 0
M  V30 5588 N 520.023 1.28621 -4.89173 0
M  V30 5589 C 518.321 2.19327 -3.88345 0
M  V30 5590 C 519.022 1.15062 -5.70207 0
M  V30 5591 N 517.998 1.65372 -5.17835 0
M  V30 5592 H 521.8 0.456964 -2.90326 0
M  V30 5593 H 519.314 0.152619 -1.61681 0
M  V30 5594 H 521.311 2.92044 -2.97516 0
M  V30 5595 H 519.971 2.68776 -1.8218 0
M  V30 5596 H 520.982 0.958341 -5.08956 0
M  V30 5597 H 517.659 2.69955 -3.18482 0
M  V30 5598 H 519.049 0.678243 -6.68468 0
M  V30 5599 N 521.769 1.56035 0.221574 0
M  V30 5600 C 522.717 1.93269 1.29421 0
M  V30 5601 C 523.711 0.814727 1.48521 0
M  V30 5602 O 524.917 0.999559 1.49696 0
M  V30 5603 H 521.292 0.614188 0.43391 0
M  V30 5604 H 523.263 2.82773 0.952987 0
M  V30 5605 C 522.012 2.26573 2.63742 0
M  V30 5606 H 521.335 3.12112 2.49853 0
M  V30 5607 H 522.775 2.5651 3.37607 0
M  V30 5608 C 521.234 1.09086 3.1875 0
M  V30 5609 O 521.764 0.351985 4.00155 0
M  V30 5610 N 519.97 0.874693 2.77124 0
M  V30 5611 H 519.517 1.47726 2.11033 0
M  V30 5612 H 519.475 0.0903349 3.1427 0
M  V30 5613 N 523.247 -0.488276 1.49845 0
M  V30 5614 C 524.472 -1.26997 1.63971 0
M  V30 5615 C 524.897 -1.85427 0.315994 0
M  V30 5616 O 524.255 -1.66475 -0.718032 0
M  V30 5617 C 524.303 -2.36689 2.72049 0
M  V30 5618 O 523.407 -3.40882 2.32107 0
M  V30 5619 H 522.748 -0.374376 0.548396 0
M  V30 5620 H 525.278 -0.583104 1.96115 0
M  V30 5621 H 525.288 -2.82262 2.94605 0
M  V30 5622 H 523.963 -1.93529 3.68129 0
M  V30 5623 H 522.54 -3.01139 2.19931 0
M  V30 5624 N 524.725 -1.39134 -0.740242 0
M  V30 5625 C 525.953 -1.39334 -1.5295 0
M  V30 5626 C 526.368 0.0135008 -1.88795 0
M  V30 5627 O 525.725 0.983524 -1.5373 0
M  V30 5628 C 525.776 -2.2614 -2.82034 0
M  V30 5629 O 525.497 -3.61345 -2.47712 0
M  V30 5630 C 526.998 -2.34666 -3.76094 0
M  V30 5631 H 524.218 -0.476103 -0.472828 0
M  V30 5632 H 526.762 -1.82883 -0.9151 0
M  V30 5633 H 524.917 -1.86018 -3.39818 0
M  V30 5634 H 525.331 -4.07194 -3.30595 0
M  V30 5635 H 526.805 -2.99663 -4.63579 0
M  V30 5636 H 527.282 -1.36426 -4.17474 0
M  V30 5637 H 527.888 -2.75236 -3.2423 0
M  V30 5638 N 526.204 0.969867 -1.24223 0
M  V30 5639 C 527.137 2.06279 -0.975926 0
M  V30 5640 C 528.115 1.62353 0.0895385 0
M  V30 5641 O 529.299 1.88442 -0.0469418 0
M  V30 5642 C 526.426 3.35391 -0.472315 0
M  V30 5643 C 525.472 3.98266 -1.526 0
M  V30 5644 S 526.305 4.36172 -3.10667 0
M  V30 5645 C 527.461 5.68423 -2.62003 0
M  V30 5646 H 527.694 2.28551 -1.90137 0
M  V30 5647 H 525.227 1.10748 -1.07584 0
M  V30 5648 H 527.185 4.10068 -0.188376 0
M  V30 5649 H 525.846 3.1111 0.432378 0
M  V30 5650 H 525.039 4.91307 -1.12399 0
M  V30 5651 H 524.641 3.30009 -1.75983 0
M  V30 5652 H 526.933 6.45842 -2.0468 0
M  V30 5653 H 527.876 6.13478 -3.53625 0
M  V30 5654 H 528.284 5.26928 -2.02502 0
M  V30 5655 N 527.682 1.05563 1.17022 0
M  V30 5656 C 528.612 0.681026 2.23348 0
M  V30 5657 C 529.593 -0.322983 1.67005 0
M  V30 5658 O 530.778 -0.199746 1.9317 0
M  V30 5659 C 527.908 0.0589053 3.4725 0
M  V30 5660 C 526.862 0.988082 4.16438 0
M  V30 5661 C 526.188 0.229646 5.34207 0
M  V30 5662 C 527.488 2.31388 4.68249 0
M  V30 5663 H 529.182 1.56993 2.54938 0
M  V30 5664 H 526.728 0.756302 1.2254 0
M  V30 5665 H 528.681 -0.214982 4.20851 0
M  V30 5666 H 527.405 -0.864968 3.14938 0
M  V30 5667 H 526.064 1.24659 3.44754 0
M  V30 5668 H 525.712 -0.697111 4.98146 0
M  V30 5669 H 525.412 0.848815 5.81437 0
M  V30 5670 H 526.936 -0.0368694 6.10589 0
M  V30 5671 H 528.35 2.09964 5.33468 0
M  V30 5672 H 526.747 2.88736 5.26072 0
M  V30 5673 H 527.817 2.94982 3.84855 0
M  V30 5674 N 529.16 -1.33526 0.837174 0
M  V30 5675 C 530.07 -2.33023 0.271568 0
M  V30 5676 C 531.086 -1.63272 -0.601514 0
M  V30 5677 O 532.262 -1.94939 -0.506038 0
M  V30 5678 C 529.327 -3.42382 -0.545448 0
M  V30 5679 C 528.388 -4.27857 0.351709 0
M  V30 5680 C 527.621 -5.31994 -0.426409 0
M  V30 5681 O 527.844 -5.45763 -1.65828 0
M  V30 5682 O 526.778 -6.01572 0.1987 0
M  V30 5683 H 530.604 -2.83256 1.09545 0
M  V30 5684 H 528.189 -1.36837 0.599655 0
M  V30 5685 H 530.071 -4.09122 -1.00979 0
M  V30 5686 H 528.746 -2.94369 -1.34641 0
M  V30 5687 H 527.653 -3.6399 0.863853 0
M  V30 5688 H 528.986 -4.79349 1.1174 0
M  V30 5689 N 530.638 -0.59345 -1.46 0
M  V30 5690 C 531.863 -0.0872365 -2.07216 0
M  V30 5691 C 532.288 1.2131 -1.43755 0
M  V30 5692 O 531.646 1.73528 -0.525152 0
M  V30 5693 C 531.694 0.0538197 -3.6056 0
M  V30 5694 O 530.798 1.10765 -3.97247 0
M  V30 5695 H 530.139 -0.0676598 -0.660544 0
M  V30 5696 H 532.669 -0.819445 -1.87473 0
M  V30 5697 H 532.679 0.256567 -4.07193 0
M  V30 5698 H 531.354 -0.895739 -4.0614 0
M  V30 5699 H 529.931 0.882501 -3.62307 0
M  V30 5700 N 532.116 1.54067 -0.331816 0
M  V30 5701 C 533.393 1.92915 0.322955 0
M  V30 5702 C 533.773 1.26225 1.69205 0
M  V30 5703 O 533.121 0.408919 2.24811 0
M  V30 5704 C 533.331 3.46619 0.406946 0
M  V30 5705 C 534.679 4.19386 0.663339 0
M  V30 5706 O 535.703 3.5282 0.489536 0
M  V30 5707 O 534.562 5.37288 0.999193 0
M  V30 5708 H 531.656 0.805808 0.186016 0
M  V30 5709 H 534.202 1.65342 -0.382135 0
M  V30 5710 H 532.974 3.87354 -0.554287 0
M  V30 5711 H 532.597 3.80324 1.15929 0
M  V30 5712 N 533.594 0.0601682 1.57485 0
M  V30 5713 C 534.524 -0.90889 2.15085 0
M  V30 5714 C 535.505 -1.31838 1.07484 0
M  V30 5715 O 536.69 -1.3915 1.35466 0
M  V30 5716 C 533.82 -2.18059 2.7031 0
M  V30 5717 C 532.774 -1.91088 3.82974 0
M  V30 5718 C 532.1 -3.24789 4.24754 0
M  V30 5719 C 533.4 -1.22535 5.07723 0
M  V30 5720 H 535.094 -0.429093 2.96309 0
M  V30 5721 H 532.64 -0.204952 1.42534 0
M  V30 5722 H 534.593 -2.86258 3.09248 0
M  V30 5723 H 533.317 -2.6826 1.8629 0
M  V30 5724 H 531.976 -1.25297 3.44523 0
M  V30 5725 H 531.624 -3.72809 3.37672 0
M  V30 5726 H 531.324 -3.07538 5.00694 0
M  V30 5727 H 532.848 -3.94205 4.66299 0
M  V30 5728 H 534.262 -1.80783 5.4405 0
M  V30 5729 H 532.659 -1.1558 5.88864 0
M  V30 5730 H 533.729 -0.202692 4.84476 0
M  V30 5731 N 535.072 -1.5615 -0.213296 0
M  V30 5732 C 536.32 -1.79191 -0.934612 0
M  V30 5733 C 536.641 -0.630112 -1.84539 0
M  V30 5734 O 535.911 0.35257 -1.92701 0
M  V30 5735 H 534.491 -0.660937 -0.348097 0
M  V30 5736 H 537.153 -1.93618 -0.22317 0
M  V30 5737 H 536.249 -2.71656 -1.53654 0
M  V30 5738 N 536.55 0.480323 -1.50102 0
M  V30 5739 C 537.778 1.25657 -1.64371 0
M  V30 5740 C 538.193 1.86011 -0.323316 0
M  V30 5741 O 537.55 1.68803 0.693682 0
M  V30 5742 C 537.601 2.37197 -2.728 0
M  V30 5743 O 537.322 1.7932 -3.9972 0
M  V30 5744 C 538.823 3.2823 -2.9796 0
M  V30 5745 H 536.043 0.380369 -0.552775 0
M  V30 5746 H 538.587 0.574379 -1.96268 0
M  V30 5747 H 536.742 3.01208 -2.43623 0
M  V30 5748 H 537.156 2.52701 -4.59611 0
M  V30 5749 H 538.63 4.02725 -3.77513 0
M  V30 5750 H 539.107 3.86462 -2.08671 0
M  V30 5751 H 539.713 2.69964 -3.28633 0
M  V30 5752 N 538.028 1.39524 0.732853 0
M  V30 5753 C 538.961 1.32806 1.85574 0
M  V30 5754 C 539.939 0.201354 1.61348 0
M  V30 5755 O 541.123 0.38216 1.84585 0
M  V30 5756 C 538.25 1.06271 3.21596 0
M  V30 5757 C 537.296 2.21161 3.64678 0
M  V30 5758 S 538.129 3.83454 3.73796 0
M  V30 5759 C 539.285 3.59149 5.12604 0
M  V30 5760 H 539.518 2.27838 1.9099 0
M  V30 5761 H 537.051 1.25605 0.897927 0
M  V30 5762 H 539.009 0.916461 4.00139 0
M  V30 5763 H 537.67 0.129223 3.13834 0
M  V30 5764 H 536.863 1.98193 4.63396 0
M  V30 5765 H 536.465 2.32 2.93346 0
M  V30 5766 H 538.757 3.16547 5.99003 0
M  V30 5767 H 539.7 4.57335 5.40602 0
M  V30 5768 H 540.108 2.93203 4.82382 0
M  V30 5769 N 539.506 -0.963266 1.24736 0
M  V30 5770 C 540.752 -1.70933 1.09131 0
M  V30 5771 C 541.085 -1.90676 -0.368273 0
M  V30 5772 O 540.36 -1.47147 -1.27193 0
M  V30 5773 C 540.643 -3.09744 1.83658 0
M  V30 5774 C 540.496 -2.97465 3.37394 0
M  V30 5775 C 541.815 -4.09483 1.61282 0
M  V30 5776 H 538.934 -0.620398 0.397838 0
M  V30 5777 H 541.576 -1.12028 1.53459 0
M  V30 5778 H 539.726 -3.60031 1.4598 0
M  V30 5779 H 541.398 -2.54571 3.84696 0
M  V30 5780 H 539.641 -2.33576 3.65547 0
M  V30 5781 H 540.312 -3.95822 3.84745 0
M  V30 5782 H 542.788 -3.68073 1.94066 0
M  V30 5783 H 541.664 -5.04666 2.15878 0
M  V30 5784 H 541.925 -4.38639 0.552102 0
M  V30 5785 N 540.985 -1.06182 -1.16461 0
M  V30 5786 C 542.234 -0.772927 -1.86303 0
M  V30 5787 C 542.547 0.703187 -1.82523 0
M  V30 5788 O 543.753 1.10641 -2.47933 0
M  V30 5789 C 542.209 -1.33249 -3.34324 0
M  V30 5790 C 541.817 -2.83876 -3.46581 0
M  V30 5791 C 543.561 -1.12108 -4.09429 0
M  V30 5792 C 541.468 -3.33082 -4.88682 0
M  V30 5793 H 540.398 -0.285452 -0.697878 0
M  V30 5794 H 543.049 -1.28039 -1.31447 0
M  V30 5795 H 541.431 -0.7528 -3.88779 0
M  V30 5796 H 542.605 -3.47786 -3.02293 0
M  V30 5797 H 540.92 -3.03671 -2.84909 0
M  V30 5798 H 543.517 -1.46361 -5.14279 0
M  V30 5799 H 543.86 -0.0593832 -4.16258 0
M  V30 5800 H 544.393 -1.6665 -3.6121 0
M  V30 5801 H 541.132 -4.38726 -4.87032 0
M  V30 5802 H 540.652 -2.73919 -5.33599 0
M  V30 5803 H 542.331 -3.28344 -5.57494 0
M  V30 5804 N 542.463 1.3308 -0.844243 0
M  V30 5805 C 543.411 2.31028 -0.269954 0
M  V30 5806 C 544.405 1.58381 0.600997 0
M  V30 5807 O 545.611 1.73203 0.48996 0
M  V30 5808 H 541.986 0.748866 -0.0685782 0
M  V30 5809 H 543.957 2.76967 -1.11049 0
M  V30 5810 C 542.706 3.43549 0.535676 0
M  V30 5811 H 542.029 3.99604 -0.125202 0
M  V30 5812 H 543.469 4.14267 0.903262 0
M  V30 5813 C 541.928 2.8988 1.71672 0
M  V30 5814 O 542.458 2.86511 2.81557 0
M  V30 5815 N 540.664 2.46416 1.54037 0
M  V30 5816 H 540.211 2.49356 0.64649 0
M  V30 5817 H 540.169 2.1086 2.33207 0
M  V30 5818 N 543.941 0.601185 1.45683 0
M  V30 5819 C 545.166 0.0982245 2.07167 0
M  V30 5820 C 545.591 -1.20546 1.44396 0
M  V30 5821 O 544.949 -1.73247 0.534347 0
M  V30 5822 C 544.997 -0.0346976 3.60583 0
M  V30 5823 O 544.101 -1.08657 3.97828 0
M  V30 5824 H 543.442 0.0711618 0.660176 0
M  V30 5825 H 545.972 0.829376 1.87036 0
M  V30 5826 H 545.982 -0.234969 4.07323 0
M  V30 5827 H 544.657 0.917265 4.05659 0
M  V30 5828 H 543.234 -0.863275 3.6277 0
M  V30 5829 N 545.419 -1.53889 0.339982 0
M  V30 5830 C 546.329 -2.28604 -0.526988 0
M  V30 5831 C 547.345 -1.33578 -1.11503 0
M  V30 5832 O 548.521 -1.66612 -1.13148 0
M  V30 5833 C 545.586 -3.04164 -1.66389 0
M  V30 5834 C 544.647 -4.14809 -1.10599 0
M  V30 5835 C 543.88 -4.86756 -2.18871 0
M  V30 5836 O 544.103 -4.58343 -3.39526 0
M  V30 5837 O 543.037 -5.73289 -1.83366 0
M  V30 5838 H 546.863 -3.03594 0.0802707 0
M  V30 5839 H 544.448 -1.4903 0.105141 0
M  V30 5840 H 546.33 -3.51427 -2.32544 0
M  V30 5841 H 545.005 -2.32035 -2.25703 0
M  V30 5842 H 543.912 -3.71857 -0.409067 0
M  V30 5843 H 545.245 -4.89029 -0.557771 0
M  V30 5844 N 546.897 -0.0685191 -1.57451 0
M  V30 5845 C 548.174 0.642167 -1.84758 0
M  V30 5846 C 548.554 1.87991 -0.960344 0
M  V30 5847 O 547.902 2.28485 -0.0257894 0
M  V30 5848 C 548.112 0.982946 -3.34872 0
M  V30 5849 C 549.46 1.35784 -4.02303 0
M  V30 5850 O 550.484 1.07477 -3.39598 0
M  V30 5851 O 549.343 1.88681 -5.12895 0
M  V30 5852 H 546.437 0.318625 -0.763156 0
M  V30 5853 H 548.983 -0.0992015 -1.6941 0
M  V30 5854 H 547.755 0.10372 -3.91163 0
M  V30 5855 H 547.378 1.78119 -3.55471 0
M  V30 5856 N 548.375 1.56261 0.205012 0
M  V30 5857 C 549.285 1.96944 1.27476 0
M  V30 5858 C 550.301 0.875636 1.50362 0
M  V30 5859 O 551.477 1.18058 1.6317 0
M  V30 5860 C 548.542 2.29219 2.60115 0
M  V30 5861 C 547.603 3.52255 2.45387 0
M  V30 5862 C 546.836 3.8298 3.71701 0
M  V30 5863 O 547.059 3.15138 4.75441 0
M  V30 5864 O 545.993 4.76435 3.67823 0
M  V30 5865 H 549.819 2.88144 0.959527 0
M  V30 5866 H 547.404 1.43686 0.409217 0
M  V30 5867 H 549.286 2.51098 3.3842 0
M  V30 5868 H 547.961 1.4119 2.91285 0
M  V30 5869 H 546.868 3.35635 1.65227 0
M  V30 5870 H 548.201 4.40719 2.19152 0
M  V30 5871 N 549.853 -0.472356 1.50355 0
M  V30 5872 C 550.763 -1.59637 1.7191 0
M  V30 5873 C 551.779 -1.63247 0.602195 0
M  V30 5874 O 552.955 -1.81139 0.880369 0
M  V30 5875 C 550.02 -2.9586 1.80742 0
M  V30 5876 C 549.081 -3.02649 3.04471 0
M  V30 5877 C 548.314 -4.32374 3.12872 0
M  V30 5878 O 548.537 -5.22807 2.28099 0
M  V30 5879 O 547.471 -4.44728 4.05587 0
M  V30 5880 H 551.297 -1.44373 2.67189 0
M  V30 5881 H 548.882 -0.651717 1.34436 0
M  V30 5882 H 550.764 -3.7677 1.88739 0
M  V30 5883 H 549.439 -3.11325 0.88647 0
M  V30 5884 H 548.346 -2.20821 3.01975 0
M  V30 5885 H 549.679 -2.92119 3.9614 0
M  V30 5886 N 551.331 -1.39911 -0.725443 0
M  V30 5887 C 552.241 -1.41688 -1.8698 0
M  V30 5888 C 553.257 -0.310579 -1.71206 0
M  V30 5889 O 554.433 -0.55359 -1.93642 0
M  V30 5890 C 551.498 -1.26811 -3.22676 0
M  V30 5891 C 550.559 -2.47497 -3.50776 0
M  V30 5892 C 549.792 -2.3332 -4.79997 0
M  V30 5893 O 550.015 -1.34175 -5.54394 0
M  V30 5894 O 548.949 -3.22498 -5.08211 0
M  V30 5895 H 552.775 -2.38171 -1.88436 0
M  V30 5896 H 550.36 -1.21128 -0.874548 0
M  V30 5897 H 552.242 -1.20684 -4.03749 0
M  V30 5898 H 550.917 -0.334289 -3.21969 0
M  V30 5899 H 549.824 -2.59201 -2.69751 0
M  V30 5900 H 551.157 -3.39606 -3.5627 0
M  V30 5901 N 552.809 0.956637 -1.25245 0
M  V30 5902 C 553.719 2.0868 -1.0719 0
M  V30 5903 C 554.735 1.73997 -0.00959074 0
M  V30 5904 O 555.911 2.00301 -0.210104 0
M  V30 5905 C 552.976 3.39754 -0.690526 0
M  V30 5906 C 552.037 3.88316 -1.83055 0
M  V30 5907 C 551.27 5.13134 -1.46728 0
M  V30 5908 O 551.493 5.6925 -0.362029 0
M  V30 5909 O 550.427 5.56356 -2.29677 0
M  V30 5910 H 554.253 2.26813 -2.01965 0
M  V30 5911 H 551.838 1.07098 -1.04165 0
M  V30 5912 H 553.72 4.18543 -0.489871 0
M  V30 5913 H 552.395 3.22896 0.227981 0
M  V30 5914 H 551.302 3.1054 -2.08604 0
M  V30 5915 H 552.635 4.09669 -2.72822 0
M  V30 5916 N 554.287 1.06798 1.15896 0
M  V30 5917 C 555.564 0.701057 1.82605 0
M  V30 5918 C 555.944 -0.817066 1.94646 0
M  V30 5919 O 555.292 -1.72933 1.49353 0
M  V30 5920 C 555.502 1.40895 3.19296 0
M  V30 5921 C 556.85 1.55744 3.95005 0
M  V30 5922 O 557.874 1.36927 3.28831 0
M  V30 5923 O 556.733 1.86658 5.13635 0
M  V30 5924 H 553.827 0.248791 0.78869 0
M  V30 5925 H 556.373 1.16857 1.23055 0
M  V30 5926 H 555.145 2.4439 3.05596 0
M  V30 5927 H 554.768 0.931847 3.86526 0
M  V30 5928 N 555.766 -1.3263 0.851289 0
M  V30 5929 C 557.014 -1.96978 0.452128 0
M  V30 5930 C 557.335 -1.67715 -0.99482 0
M  V30 5931 O 556.605 -0.98259 -1.69476 0
M  V30 5932 H 555.185 -0.72873 0.164202 0
M  V30 5933 H 557.847 -1.61774 1.08698 0
M  V30 5934 H 556.943 -3.06387 0.594407 0
M  V30 5935 N 557.244 -0.608902 -1.45362 0
M  V30 5936 C 558.472 -0.111013 -2.06602 0
M  V30 5937 C 558.887 1.20516 -1.45332 0
M  V30 5938 O 558.244 1.73437 -0.567978 0
M  V30 5939 C 558.295 0.033688 -3.61484 0
M  V30 5940 O 558.016 -1.23041 -4.20467 0
M  V30 5941 C 559.517 0.562882 -4.39712 0
M  V30 5942 H 556.737 -0.0694453 -0.667397 0
M  V30 5943 H 559.281 -0.837008 -1.86586 0
M  V30 5944 H 557.436 0.710016 -3.80838 0
M  V30 5945 H 557.85 -1.06094 -5.13658 0
M  V30 5946 H 559.324 0.613213 -5.48583 0
M  V30 5947 H 559.801 1.58543 -4.09586 0
M  V30 5948 H 560.407 -0.0794454 -4.25226 0
M  V30 5949 N 558.722 1.53707 -0.348139 0
M  V30 5950 C 559.655 2.21481 0.549667 0
M  V30 5951 C 560.633 1.20046 1.09671 0
M  V30 5952 O 561.817 1.48883 1.15612 0
M  V30 5953 C 558.944 2.89585 1.75664 0
M  V30 5954 C 557.99 4.04948 1.33864 0
M  V30 5955 S 558.823 5.34325 0.354577 0
M  V30 5956 C 559.979 6.05934 1.56828 0
M  V30 5957 H 560.212 2.97289 -0.0259755 0
M  V30 5958 H 557.745 1.53833 -0.132216 0
M  V30 5959 H 559.703 3.29441 2.44906 0
M  V30 5960 H 558.364 2.13535 2.30351 0
M  V30 5961 H 557.557 4.51552 2.23868 0
M  V30 5962 H 557.159 3.66893 0.725651 0
M  V30 5963 H 559.451 6.29606 2.50205 0
M  V30 5964 H 560.394 6.98799 1.14395 0
M  V30 5965 H 560.802 5.36151 1.76642 0
M  V30 5966 N 560.2 0.0768682 1.57412 0
M  V30 5967 C 561.147 -0.888577 2.13009 0
M  V30 5968 C 562.117 -1.29198 1.0439 0
M  V30 5969 O 563.302 -1.37694 1.3208 0
M  V30 5970 C 560.442 -2.14899 2.70023 0
M  V30 5971 C 559.555 -1.79777 3.92816 0
M  V30 5972 C 558.69 -3.00467 4.38056 0
M  V30 5973 C 557.729 -2.61385 5.53484 0
M  V30 5974 N 556.866 -3.74851 5.93659 0
M  V30 5975 H 561.706 -0.407593 2.95199 0
M  V30 5976 H 559.243 -0.189534 1.45874 0
M  V30 5977 H 561.201 -2.88688 3.0119 0
M  V30 5978 H 559.831 -2.60529 1.9059 0
M  V30 5979 H 558.883 -0.960301 3.68079 0
M  V30 5980 H 560.195 -1.47027 4.76639 0
M  V30 5981 H 559.349 -3.82529 4.7091 0
M  V30 5982 H 558.088 -3.36413 3.53097 0
M  V30 5983 H 557.093 -1.77746 5.20275 0
M  V30 5984 H 558.318 -2.26603 6.40178 0
M  V30 5985 H 556.264 -4.1055 5.11649 0
M  V30 5986 H 556.181 -3.45887 6.72234 0
M  V30 5987 H 557.449 -4.57477 6.31138 0
M  V30 5988 N 561.678 -1.56367 -0.196722 0
M  V30 5989 C 563.094 -1.49916 -0.54749 0
M  V30 5990 C 563.294 -0.77659 -1.85934 0
M  V30 5991 O 562.35 -0.32644 -2.50381 0
M  V30 5992 C 563.663 -2.94577 -0.603734 0
M  V30 5993 C 565.211 -3.05239 -0.692677 0
M  V30 5994 C 565.686 -4.51308 -0.780046 0
M  V30 5995 N 567.177 -4.55453 -0.843616 0
M  V30 5996 C 567.912 -5.65786 -0.931358 0
M  V30 5997 N 567.408 -6.85812 -0.981503 0
M  V30 5998 N 569.201 -5.53695 -0.968421 0
M  V30 5999 H 561.352 -2.01761 0.663803 0
M  V30 6000 H 563.615 -0.918094 0.236238 0
M  V30 6001 H 563.321 -3.50494 0.29105 0
M  V30 6002 H 563.195 -3.47841 -1.45898 0
M  V30 6003 H 565.582 -2.49372 -1.57789 0
M  V30 6004 H 565.663 -2.55103 0.188736 0
M  V30 6005 H 565.307 -5.078 0.100811 0
M  V30 6006 H 565.237 -4.99176 -1.67724 0
M  V30 6007 H 567.728 -3.69025 -0.814176 0
M  V30 6008 H 568.041 -7.65648 -1.04892 0
M  V30 6009 H 566.386 -6.88474 -0.950208 0
M  V30 6010 H 569.577 -4.58848 -0.926072 0
M  V30 6011 H 569.75 -6.39708 -1.03334 0
M  V30 6012 N 563.156 0.464375 -1.50603 0
M  V30 6013 C 564.104 1.58224 -1.70493 0
M  V30 6014 C 565.098 1.59492 -0.570836 0
M  V30 6015 O 566.304 1.63561 -0.751517 0
M  V30 6016 H 562.679 0.525161 -0.538247 0
M  V30 6017 H 564.65 1.38613 -2.64252 0
M  V30 6018 C 563.399 2.96113 -1.82243 0
M  V30 6019 H 562.722 2.95858 -2.68901 0
M  V30 6020 H 564.162 3.73769 -2.00182 0
M  V30 6021 C 562.621 3.31946 -0.575628 0
M  V30 6022 O 563.151 4.00708 0.282152 0
M  V30 6023 N 561.357 2.87436 -0.427665 0
M  V30 6024 H 560.904 2.31652 -1.12674 0
M  V30 6025 H 560.862 3.11776 0.405379 0
M  V30 6026 N 564.634 1.40294 0.718013 0
M  V30 6027 C 565.597 1.4012 1.81381 0
M  V30 6028 C 566.597 0.295405 1.58063 0
M  V30 6029 O 567.787 0.554187 1.6515 0
M  V30 6030 C 564.919 1.19056 3.19435 0
M  V30 6031 H 566.112 2.37645 1.82933 0
M  V30 6032 H 563.665 1.26107 0.923405 0
M  V30 6033 H 564.4 0.222809 3.23534 0
M  V30 6034 H 564.185 1.99152 3.37758 0
M  V30 6035 H 565.675 1.21716 3.99468 0
M  V30 6036 N 566.112 -0.949982 1.2575 0
M  V30 6037 C 567.34 -1.72972 1.13527 0
M  V30 6038 C 567.755 -1.8623 -0.310453 0
M  V30 6039 O 567.112 -1.36336 -1.2132 0
M  V30 6040 C 567.163 -3.14108 1.78936 0
M  V30 6041 O 566.884 -3.01493 3.17858 0
M  V30 6042 C 568.385 -4.08338 1.72554 0
M  V30 6043 H 565.605 -0.541864 0.395758 0
M  V30 6044 H 568.149 -1.19151 1.66202 0
M  V30 6045 H 566.304 -3.64858 1.30221 0
M  V30 6046 H 566.718 -3.90559 3.50092 0
M  V30 6047 H 568.192 -5.04963 2.22973 0
M  V30 6048 H 568.669 -4.33742 0.690251 0
M  V30 6049 H 569.275 -3.63506 2.2078 0
M  V30 6050 N 567.59 -1.07411 -1.15328 0
M  V30 6051 C 568.815 -0.818856 -1.90551 0
M  V30 6052 C 569.24 0.622194 -1.77512 0
M  V30 6053 O 568.598 1.43484 -1.10824 0
M  V30 6054 C 568.646 -1.23267 -3.38877 0
M  V30 6055 O 567.75 -0.378345 -4.10661 0
M  V30 6056 H 567.091 -0.29827 -0.593238 0
M  V30 6057 H 569.621 -1.43289 -1.46046 0
M  V30 6058 H 569.631 -1.20912 -3.89672 0
M  V30 6059 H 568.306 -2.28226 -3.47686 0
M  V30 6060 H 566.883 -0.464437 -3.69996 0
M  V30 6061 N 569.068 1.32177 -0.85831 0
M  V30 6062 C 570.479 1.79381 -0.517621 0
M  V30 6063 C 570.83 1.70841 0.964769 0
M  V30 6064 O 569.955 1.26917 1.75274 0
M  V30 6065 C 570.55 3.25706 -0.932801 0
M  V30 6066 C 569.109 3.70851 -0.643953 0
M  V30 6067 C 568.256 2.53208 -1.13054 0
M  V30 6068 H 571.207 1.19424 -1.04516 0
M  V30 6069 H 571.228 3.79673 -0.250674 0
M  V30 6070 H 570.74 3.31889 -2.01174 0
M  V30 6071 H 568.841 3.70178 0.424112 0
M  V30 6072 H 568.954 4.63495 -1.21281 0
M  V30 6073 H 567.318 2.48676 -0.550679 0
M  V30 6074 H 568.101 2.62143 -2.21666 0
M  V30 6075 N 570.547 0.616602 1.45037 0
M  V30 6076 C 571.479 -0.135186 2.28801 0
M  V30 6077 C 572.492 -0.82303 1.40464 0
M  V30 6078 O 573.681 -0.686909 1.64754 0
M  V30 6079 C 570.781 -1.21292 3.16451 0
M  V30 6080 C 569.954 -0.61043 4.3312 0
M  V30 6081 C 569.013 -1.58022 5.01912 0
M  V30 6082 O 568.039 -1.10301 5.58411 0
M  V30 6083 N 569.241 -2.91464 5.02025 0
M  V30 6084 H 572.006 0.583612 2.93963 0
M  V30 6085 H 569.567 0.456723 1.55324 0
M  V30 6086 H 571.559 -1.86169 3.59337 0
M  V30 6087 H 570.129 -1.83412 2.53138 0
M  V30 6088 H 569.349 0.216638 3.93604 0
M  V30 6089 H 570.637 -0.188293 5.08451 0
M  V30 6090 H 570.035 -3.32829 4.57429 0
M  V30 6091 H 568.592 -3.51741 5.48745 0
M  V30 6092 N 572.025 -1.5352 0.356285 0
M  V30 6093 C 573.271 -2.01414 -0.236653 0
M  V30 6094 C 573.604 -1.24339 -1.49176 0
M  V30 6095 O 572.879 -0.334496 -1.91602 0
M  V30 6096 C 573.162 -3.56059 -0.537982 0
M  V30 6097 C 573.015 -4.43835 0.730112 0
M  V30 6098 C 574.334 -4.19127 -1.34239 0
M  V30 6099 H 571.453 -0.732135 -0.0845386 0
M  V30 6100 H 574.095 -1.83854 0.479341 0
M  V30 6101 H 572.245 -3.71153 -1.14795 0
M  V30 6102 H 573.917 -4.40555 1.36782 0
M  V30 6103 H 572.16 -4.1218 1.3524 0
M  V30 6104 H 572.831 -5.49958 0.474358 0
M  V30 6105 H 575.307 -4.07809 -0.826498 0
M  V30 6106 H 574.183 -5.27378 -1.52198 0
M  V30 6107 H 574.444 -3.74581 -2.34822 0
M  V30 6108 N 573.503 -0.0852151 -1.57369 0
M  V30 6109 C 574.435 0.907099 -2.10486 0
M  V30 6110 C 575.448 1.25259 -1.03991 0
M  V30 6111 O 576.637 1.20743 -1.31467 0
M  V30 6112 C 573.737 2.21908 -2.56145 0
M  V30 6113 C 572.91 2.05042 -3.86363 0
M  V30 6114 C 571.969 3.19664 -4.17973 0
M  V30 6115 O 570.995 2.94062 -4.87356 0
M  V30 6116 N 572.197 4.45151 -3.72587 0
M  V30 6117 H 574.962 0.453505 -2.96249 0
M  V30 6118 H 572.523 0.100157 -1.6159 0
M  V30 6119 H 574.515 2.97519 -2.74343 0
M  V30 6120 H 573.085 2.58723 -1.75446 0
M  V30 6121 H 572.305 1.13819 -3.77411 0
M  V30 6122 H 573.593 1.91039 -4.71574 0
M  V30 6123 H 572.991 4.68834 -3.16561 0
M  V30 6124 H 571.548 5.17744 -3.9596 0
M  V30 6125 N 574.981 1.5647 0.188427 0
M  V30 6126 C 576.397 1.50204 0.539532 0
M  V30 6127 C 576.597 0.78644 1.85519 0
M  V30 6128 O 575.653 0.339714 2.50204 0
M  V30 6129 C 576.966 2.94893 0.588103 0
M  V30 6130 C 578.514 3.05602 0.67648 0
M  V30 6131 C 578.989 4.51716 0.756101 0
M  V30 6132 N 580.48 4.55894 0.819451 0
M  V30 6133 C 581.215 5.66272 0.90134 0
M  V30 6134 N 580.711 6.86323 0.945118 0
M  V30 6135 N 582.504 5.54201 0.939043 0
M  V30 6136 H 574.655 2.01406 -0.674493 0
M  V30 6137 H 576.918 0.916828 -0.241103 0
M  V30 6138 H 576.624 3.50334 -0.309633 0
M  V30 6139 H 576.498 3.4861 1.44051 0
M  V30 6140 H 578.885 2.50206 1.56465 0
M  V30 6141 H 578.966 2.54999 -0.202262 0
M  V30 6142 H 578.61 5.07739 -0.12774 0
M  V30 6143 H 578.54 5.00058 1.65074 0
M  V30 6144 H 581.031 3.69452 0.794594 0
M  V30 6145 H 581.344 7.66194 1.0083 0
M  V30 6146 H 579.689 6.88968 0.913683 0
M  V30 6147 H 582.88 4.59333 0.901725 0
M  V30 6148 H 583.053 6.40247 0.999402 0
M  V30 6149 N 576.459 -0.456382 1.50847 0
M  V30 6150 C 577.87 -1.03685 1.55262 0
M  V30 6151 C 578.221 -1.92779 0.364771 0
M  V30 6152 O 577.346 -2.10043 -0.52068 0
M  V30 6153 C 577.941 -1.88718 2.81374 0
M  V30 6154 C 576.5 -2.41847 2.88422 0
M  V30 6155 C 575.647 -1.20564 2.49719 0
M  V30 6156 H 578.598 -0.238399 1.56899 0
M  V30 6157 H 578.619 -2.73957 2.6406 0
M  V30 6158 H 578.131 -1.23847 3.67809 0
M  V30 6159 H 576.232 -3.10228 2.06372 0
M  V30 6160 H 576.345 -2.75947 3.9165 0
M  V30 6161 H 574.709 -1.54504 2.02486 0
M  V30 6162 H 575.492 -0.573326 3.38479 0
M  V30 6163 N 577.937 -1.40673 -0.710563 0
M  V30 6164 C 579.162 -1.42741 -1.50465 0
M  V30 6165 C 579.587 -0.0302116 -1.88076 0
M  V30 6166 O 578.945 0.962945 -1.53613 0
M  V30 6167 C 578.993 -2.32873 -2.75322 0
M  V30 6168 O 578.097 -1.77544 -3.72226 0
M  V30 6169 H 577.438 -0.485056 -0.45345 0
M  V30 6170 H 579.968 -1.84961 -0.874681 0
M  V30 6171 H 579.978 -2.48233 -3.23797 0
M  V30 6172 H 578.653 -3.34401 -2.47283 0
M  V30 6173 H 577.23 -1.71556 -3.31093 0
M  V30 6174 N 579.415 0.9433 -1.26252 0
M  V30 6175 C 580.662 1.68925 -1.11672 0
M  V30 6176 C 580.99 1.91499 0.340329 0
M  V30 6177 O 580.245 1.49189 1.26653 0
M  V30 6178 C 580.544 3.07073 -1.82868 0
M  V30 6179 C 580.21 3.04262 -3.32769 0
M  V30 6180 C 578.872 3.03203 -3.7366 0
M  V30 6181 C 581.224 2.96729 -4.28487 0
M  V30 6182 C 578.552 2.92373 -5.0866 0
M  V30 6183 C 580.904 2.87442 -5.63525 0
M  V30 6184 C 579.568 2.84724 -6.03729 0
M  V30 6185 H 578.838 0.618141 -0.408635 0
M  V30 6186 H 581.485 1.10124 -1.56668 0
M  V30 6187 H 579.79 3.69486 -1.30335 0
M  V30 6188 H 581.487 3.63635 -1.69029 0
M  V30 6189 H 578.077 3.05865 -3.00241 0
M  V30 6190 H 582.261 2.96658 -3.97879 0
M  V30 6191 H 577.517 2.88645 -5.38975 0
M  V30 6192 H 581.691 2.80576 -6.37377 0
M  V30 6193 H 579.318 2.76089 -7.08293 0
M  V30 6194 N 580.893 1.08022 1.14757 0
M  V30 6195 C 581.826 0.650738 2.18725 0
M  V30 6196 C 582.804 -0.335496 1.59101 0
M  V30 6197 O 583.988 -0.240295 1.86962 0
M  V30 6198 C 581.115 -0.0434377 3.38672 0
M  V30 6199 C 580.161 0.90232 4.16846 0
M  V30 6200 S 580.994 2.40693 4.78359 0
M  V30 6201 C 582.15 1.72475 6.01667 0
M  V30 6202 H 582.383 1.53152 2.54817 0
M  V30 6203 H 579.916 0.894823 1.25826 0
M  V30 6204 H 581.874 -0.437684 4.0816 0
M  V30 6205 H 580.535 -0.900659 3.0091 0
M  V30 6206 H 579.728 0.363445 5.02688 0
M  V30 6207 H 579.33 1.23728 3.52941 0
M  V30 6208 H 581.622 1.0404 6.69464 0
M  V30 6209 H 582.565 2.56175 6.60136 0
M  V30 6210 H 582.973 1.19979 5.51602 0
M  V30 6211 N 582.371 -1.3172 0.865308 0
M  V30 6212 C 583.648 -1.91574 0.394789 0
M  V30 6213 C 584.028 -1.78769 -1.12271 0
M  V30 6214 O 583.376 -1.19245 -1.94918 0
M  V30 6215 C 583.586 -3.37957 0.870982 0
M  V30 6216 C 584.934 -4.15073 0.894384 0
M  V30 6217 O 585.958 -3.4672 0.816325 0
M  V30 6218 O 584.817 -5.37151 1.00651 0
M  V30 6219 H 581.911 -0.818649 0.117229 0
M  V30 6220 H 584.457 -1.4042 0.952913 0
M  V30 6221 H 583.229 -3.41269 1.91444 0
M  V30 6222 H 582.852 -3.96534 0.290907 0
M  V30 6223 N 583.85 -0.624285 -1.44708 0
M  V30 6224 C 585.08 -0.132726 -2.06173 0
M  V30 6225 C 585.488 1.19513 -1.46674 0
M  V30 6226 O 584.831 1.74254 -0.581491 0
M  V30 6227 C 584.893 0.0636732 -3.59444 0
M  V30 6228 C 584.557 -1.18496 -4.4137 0
M  V30 6229 C 585.553 -2.10706 -4.75288 0
M  V30 6230 C 583.239 -1.41846 -4.81856 0
M  V30 6231 C 585.233 -3.24582 -5.48567 0
M  V30 6232 C 582.92 -2.5602 -5.54885 0
M  V30 6233 C 583.918 -3.47215 -5.88159 0
M  V30 6234 O 583.606 -4.59399 -6.59703 0
M  V30 6235 H 583.338 -0.0737313 -0.671967 0
M  V30 6236 H 585.892 -0.856789 -1.86677 0
M  V30 6237 H 584.122 0.842809 -3.77404 0
M  V30 6238 H 585.811 0.508924 -4.02697 0
M  V30 6239 H 586.577 -1.93898 -4.44554 0
M  V30 6240 H 582.456 -0.717556 -4.55381 0
M  V30 6241 H 586 -3.95785 -5.74456 0
M  V30 6242 H 581.897 -2.72774 -5.85034 0
M  V30 6243 H 582.665 -4.58293 -6.78166 0
M  V30 6244 N 585.328 1.53329 -0.364422 0
M  V30 6245 C 586.575 2.01239 0.225634 0
M  V30 6246 C 586.903 1.25172 1.48869 0
M  V30 6247 O 586.158 0.333289 1.92841 0
M  V30 6248 C 586.457 3.52911 0.564661 0
M  V30 6249 C 586.123 4.46837 -0.603936 0
M  V30 6250 C 584.785 4.72234 -0.924585 0
M  V30 6251 C 587.137 5.02409 -1.38691 0
M  V30 6252 C 584.465 5.50454 -2.0302 0
M  V30 6253 C 586.817 5.81836 -2.48293 0
M  V30 6254 C 585.481 6.0552 -2.80894 0
M  V30 6255 H 584.751 0.736386 0.0825654 0
M  V30 6256 H 587.398 1.84948 -0.496645 0
M  V30 6257 H 585.703 3.67144 1.36794 0
M  V30 6258 H 587.4 3.87455 1.03344 0
M  V30 6259 H 583.99 4.27217 -0.343983 0
M  V30 6260 H 588.174 4.82735 -1.15243 0
M  V30 6261 H 583.43 5.67024 -2.28678 0
M  V30 6262 H 587.604 6.23905 -3.0938 0
M  V30 6263 H 585.231 6.65916 -3.66688 0
M  V30 6264 N 586.806 0.0935595 1.57322 0
M  V30 6265 C 588.083 -0.612692 1.85756 0
M  V30 6266 C 588.463 -1.86439 0.99013 0
M  V30 6267 O 587.811 -2.28416 0.0621362 0
M  V30 6268 C 588.021 -0.929547 3.36393 0
M  V30 6269 C 589.369 -1.29366 4.04413 0
M  V30 6270 O 590.393 -1.02061 3.41265 0
M  V30 6271 O 589.252 -1.80498 5.15832 0
M  V30 6272 H 586.346 -0.306444 0.768128 0
M  V30 6273 H 588.892 0.126141 1.69231 0
M  V30 6274 H 587.664 -0.0414766 3.91278 0
M  V30 6275 H 587.287 -1.72441 3.5826 0
M  V30 6276 N 588.284 -1.56567 -0.180126 0
M  V30 6277 C 589.231 -1.95725 -1.22313 0
M  V30 6278 C 590.201 -0.819911 -1.44453 0
M  V30 6279 O 591.386 -1.07931 -1.57339 0
M  V30 6280 C 588.526 -2.31484 -2.55947 0
M  V30 6281 C 587.639 -3.58354 -2.4126 0
M  V30 6282 C 586.774 -3.83366 -3.67701 0
M  V30 6283 C 585.813 -5.03612 -3.47909 0
M  V30 6284 N 584.95 -5.24802 -4.66398 0
M  V30 6285 H 589.79 -2.84642 -0.882198 0
M  V30 6286 H 587.327 -1.4085 -0.42422 0
M  V30 6287 H 589.285 -2.50237 -3.33822 0
M  V30 6288 H 587.915 -1.45689 -2.88053 0
M  V30 6289 H 586.967 -3.47565 -1.54606 0
M  V30 6290 H 588.279 -4.46386 -2.22577 0
M  V30 6291 H 587.433 -4.02439 -4.54013 0
M  V30 6292 H 586.172 -2.93692 -3.89353 0
M  V30 6293 H 585.177 -4.84447 -2.59983 0
M  V30 6294 H 586.402 -5.94809 -3.27688 0
M  V30 6295 H 584.348 -4.38079 -4.88286 0
M  V30 6296 H 584.265 -6.07041 -4.50596 0
M  V30 6297 H 585.533 -5.48346 -5.54019 0
M  V30 6298 N 589.762 0.448376 -1.51087 0
M  V30 6299 C 590.694 1.56146 -1.67783 0
M  V30 6300 C 591.707 1.52913 -0.55871 0
M  V30 6301 O 592.896 1.57889 -0.83267 0
M  V30 6302 C 589.996 2.95057 -1.66716 0
M  V30 6303 C 589.169 3.22915 -2.95033 0
M  V30 6304 C 588.228 4.41495 -2.86302 0
M  V30 6305 O 587.254 4.40688 -3.60254 0
M  V30 6306 N 588.456 5.44443 -2.014 0
M  V30 6307 H 591.221 1.42232 -2.638 0
M  V30 6308 H 588.782 0.637153 -1.48835 0
M  V30 6309 H 590.774 3.72388 -1.58458 0
M  V30 6310 H 589.344 3.02624 -0.783403 0
M  V30 6311 H 588.564 2.33985 -3.17245 0
M  V30 6312 H 589.852 3.38349 -3.79996 0
M  V30 6313 H 589.25 5.4793 -1.40674 0
M  V30 6314 H 587.807 6.2067 -1.99029 0
M  V30 6315 N 591.24 1.41047 0.703093 0
M  V30 6316 C 592.517 1.30493 1.45708 0
M  V30 6317 C 592.897 -0.0709892 2.10981 0
M  V30 6318 O 592.245 -1.08471 2.01113 0
M  V30 6319 C 592.455 2.45287 2.48265 0
M  V30 6320 C 593.803 2.86104 3.13735 0
M  V30 6321 O 594.827 2.44971 2.58587 0
M  V30 6322 O 593.686 3.57206 4.13601 0
M  V30 6323 H 590.78 0.513144 0.648546 0
M  V30 6324 H 593.326 1.52995 0.734208 0
M  V30 6325 H 592.098 3.37135 1.98635 0
M  V30 6326 H 591.721 2.24622 3.28071 0
M  V30 6327 N 592.718 -0.936591 1.26751 0
M  V30 6328 C 593.965 -1.68331 1.12566 0
M  V30 6329 C 594.293 -1.91677 -0.330168 0
M  V30 6330 O 593.548 -1.49859 -1.2586 0
M  V30 6331 C 593.847 -3.06099 1.84494 0
M  V30 6332 C 593.513 -3.02493 3.34378 0
M  V30 6333 C 592.175 -3.01217 3.75262 0
M  V30 6334 C 594.527 -2.94453 4.30055 0
M  V30 6335 C 591.855 -2.89672 5.10203 0
M  V30 6336 C 594.207 -2.84449 5.65041 0
M  V30 6337 C 592.871 -2.81518 6.0523 0
M  V30 6338 H 592.141 -0.615965 0.411907 0
M  V30 6339 H 594.788 -1.09292 1.5725 0
M  V30 6340 H 593.093 -3.6879 1.32292 0
M  V30 6341 H 594.79 -3.62733 1.70955 0
M  V30 6342 H 591.38 -3.04269 3.01858 0
M  V30 6343 H 595.564 -2.94544 3.99447 0
M  V30 6344 H 590.82 -2.85783 5.40498 0
M  V30 6345 H 594.994 -2.77192 6.38856 0
M  V30 6346 H 592.621 -2.72329 7.09747 0
M  V30 6347 N 594.196 -1.08629 -1.14182 0
M  V30 6348 C 595.143 -0.718299 -2.19338 0
M  V30 6349 C 596.113 0.296587 -1.63431 0
M  V30 6350 O 597.298 0.180079 -1.89948 0
M  V30 6351 C 594.438 -0.136203 -3.44831 0
M  V30 6352 C 593.551 -1.20414 -4.14879 0
M  V30 6353 C 592.686 -0.585666 -5.27962 0
M  V30 6354 C 591.725 -1.63548 -5.89846 0
M  V30 6355 N 590.862 -1.03864 -6.94375 0
M  V30 6356 H 595.702 -1.61932 -2.50164 0
M  V30 6357 H 593.239 -0.80919 -1.22844 0
M  V30 6358 H 595.197 0.219021 -4.16625 0
M  V30 6359 H 593.827 0.728121 -3.14481 0
M  V30 6360 H 592.879 -1.67676 -3.41451 0
M  V30 6361 H 594.191 -1.99959 -4.56966 0
M  V30 6362 H 593.345 -0.178818 -6.06436 0
M  V30 6363 H 592.084 0.24142 -4.87102 0
M  V30 6364 H 591.089 -2.05197 -5.10073 0
M  V30 6365 H 592.314 -2.46509 -6.3278 0
M  V30 6366 H 590.26 -0.232687 -6.55587 0
M  V30 6367 H 590.177 -1.77116 -7.3496 0
M  V30 6368 H 591.445 -0.657724 -7.7672 0
M  V30 6369 N 595.674 1.31259 -0.872281 0
M  V30 6370 C 596.622 2.30404 -0.318897 0
M  V30 6371 C 597.616 1.5962 0.567267 0
M  V30 6372 O 598.822 1.74204 0.453111 0
M  V30 6373 H 595.197 0.747243 -0.0844474 0
M  V30 6374 H 597.168 2.74549 -1.16899 0
M  V30 6375 C 595.917 3.44608 0.462683 0
M  V30 6376 H 595.24 3.99248 -0.209936 0
M  V30 6377 H 596.68 4.1609 0.815187 0
M  V30 6378 C 595.139 2.93456 1.65485 0
M  V30 6379 O 595.669 2.92418 2.75417 0
M  V30 6380 N 593.875 2.49628 1.48776 0
M  V30 6381 H 593.422 2.50671 0.593452 0
M  V30 6382 H 593.38 2.15759 2.28682 0
M  V30 6383 N 597.152 0.631951 1.44375 0
M  V30 6384 C 598.099 -0.0724807 2.30686 0
M  V30 6385 C 599.069 -0.835975 1.43529 0
M  V30 6386 O 600.254 -0.816849 1.7243 0
M  V30 6387 C 597.394 -1.04753 3.28817 0
M  V30 6388 C 596.507 -0.282367 4.31076 0
M  V30 6389 C 595.642 -1.2493 5.163 0
M  V30 6390 C 594.681 -0.473349 6.10267 0
M  V30 6391 N 593.818 -1.39079 6.88187 0
M  V30 6392 H 598.658 0.669477 2.90383 0
M  V30 6393 H 596.195 0.341927 1.43071 0
M  V30 6394 H 598.153 -1.62623 3.842 0
M  V30 6395 H 596.783 -1.75661 2.70819 0
M  V30 6396 H 595.835 0.412268 3.78159 0
M  V30 6397 H 597.147 0.321955 4.9776 0
M  V30 6398 H 596.301 -1.89931 5.76204 0
M  V30 6399 H 595.04 -1.88755 4.49692 0
M  V30 6400 H 594.045 0.190142 5.49471 0
M  V30 6401 H 595.27 0.16019 6.78911 0
M  V30 6402 H 593.216 -2.01623 6.24247 0
M  V30 6403 H 593.133 -0.840513 7.51313 0
M  V30 6404 H 594.401 -2.02961 7.52613 0
M  V30 6405 N 598.631 -1.53133 0.372548 0
M  V30 6406 C 599.856 -2.0625 -0.218098 0
M  V30 6407 C 600.281 -1.24375 -1.41111 0
M  V30 6408 O 599.639 -0.264554 -1.79359 0
M  V30 6409 C 599.687 -3.55858 -0.582876 0
M  V30 6410 O 598.791 -3.76667 -1.67917 0
M  V30 6411 H 598.132 -0.663317 -0.030104 0
M  V30 6412 H 600.662 -1.97477 0.535169 0
M  V30 6413 H 600.672 -3.99007 -0.851925 0
M  V30 6414 H 599.347 -4.14892 0.289428 0
M  V30 6415 H 597.924 -3.45413 -1.40513 0
M  V30 6416 N 600.109 -0.101901 -1.5727 0
M  V30 6417 C 601.059 0.865346 -2.1094 0
M  V30 6418 C 602.043 1.2394 -1.02605 0
M  V30 6419 O 603.235 1.21334 -1.28868 0
M  V30 6420 C 600.364 2.12187 -2.69874 0
M  V30 6421 C 599.45 1.77295 -3.85263 0
M  V30 6422 N 599.841 1.12993 -4.93017 0
M  V30 6423 C 598.139 2.06862 -3.95126 0
M  V30 6424 C 598.84 0.968631 -5.73579 0
M  V30 6425 N 597.816 1.48814 -5.22834 0
M  V30 6426 H 601.618 0.364368 -2.91633 0
M  V30 6427 H 599.132 0.101104 -1.62085 0
M  V30 6428 H 601.129 2.82431 -3.06657 0
M  V30 6429 H 599.789 2.62844 -1.90639 0
M  V30 6430 H 600.8 0.795935 -5.11747 0
M  V30 6431 H 597.477 2.59686 -3.26909 0
M  V30 6432 H 598.867 0.465231 -6.70287 0
M  V30 6433 N 601.587 1.56661 0.17182 0
M  V30 6434 C 602.497 1.99604 1.2327 0
M  V30 6435 C 603.513 0.907333 1.4847 0
M  V30 6436 O 604.689 1.21492 1.60629 0
M  V30 6437 C 601.754 2.34685 2.55194 0
M  V30 6438 C 600.815 3.57381 2.3786 0
M  V30 6439 C 600.048 3.90779 3.63494 0
M  V30 6440 O 600.271 3.25152 4.6865 0
M  V30 6441 O 599.205 4.84129 3.57634 0
M  V30 6442 H 603.031 2.90114 0.898192 0
M  V30 6443 H 600.616 1.44522 0.378647 0
M  V30 6444 H 602.498 2.5822 3.33017 0
M  V30 6445 H 601.173 1.47336 2.88225 0
M  V30 6446 H 600.08 3.39064 1.5807 0
M  V30 6447 H 601.413 4.45268 2.09754 0
M  V30 6448 N 603.065 -0.440357 1.51323 0
M  V30 6449 C 604.013 -1.55492 1.72988 0
M  V30 6450 C 605.007 -1.58564 0.596138 0
M  V30 6451 O 606.213 -1.62345 0.777443 0
M  V30 6452 H 602.588 -0.516532 0.546533 0
M  V30 6453 H 604.559 -1.34392 2.66423 0
M  V30 6454 C 603.308 -2.93176 1.86931 0
M  V30 6455 H 602.631 -2.91543 2.73574 0
M  V30 6456 H 604.071 -3.70537 2.06103 0
M  V30 6457 C 602.53 -3.30988 0.628365 0
M  V30 6458 O 603.06 -4.01106 -0.218367 0
M  V30 6459 N 601.266 -2.86719 0.473339 0
M  V30 6460 H 600.813 -2.2983 1.16345 0
M  V30 6461 H 600.771 -3.12381 -0.355727 0
M  V30 6462 N 604.543 -1.41418 -0.695603 0
M  V30 6463 C 605.783 -1.42241 -1.46788 0
M  V30 6464 C 606.147 -0.0300827 -1.91976 0
M  V30 6465 O 607.348 0.0868914 -2.6866 0
M  V30 6466 C 605.619 -2.4011 -2.6473 0
M  V30 6467 S 607.178 -2.59462 -3.53871 0
M  V30 6468 H 603.996 -0.503893 -0.50161 0
M  V30 6469 H 606.598 -1.77855 -0.811654 0
M  V30 6470 H 605.302 -3.40073 -2.29736 0
M  V30 6471 H 604.833 -2.05849 -3.35246 0
M  V30 6472 H 606.848 -1.862 -4.59939 0
M  V30 6473 N 606.021 0.929856 -1.27246 0
M  V30 6474 C 606.969 2.05151 -1.09616 0
M  V30 6475 C 607.963 1.69388 -0.0198617 0
M  V30 6476 O 609.169 1.79124 -0.177417 0
M  V30 6477 H 605.544 0.671909 -0.337701 0
M  V30 6478 H 607.515 2.17168 -2.04648 0
M  V30 6479 C 606.264 3.3934 -0.757851 0
M  V30 6480 H 605.587 3.67343 -1.57795 0
M  V30 6481 H 607.027 4.18603 -0.674358 0
M  V30 6482 C 605.486 3.32582 0.537658 0
M  V30 6483 O 606.016 3.69633 1.57271 0
M  V30 6484 N 604.222 2.8568 0.532478 0
M  V30 6485 H 603.769 2.55725 -0.310233 0
M  V30 6486 H 603.727 2.81541 1.39936 0
M  V30 6487 N 607.499 1.09233 1.13605 0
M  V30 6488 C 608.431 0.687794 2.18637 0
M  V30 6489 C 609.444 -0.26936 1.60556 0
M  V30 6490 O 610.633 -0.0557162 1.78413 0
M  V30 6491 C 607.733 -0.00751901 3.38899 0
M  V30 6492 C 606.906 0.97067 4.26494 0
M  V30 6493 C 605.965 0.309129 5.25291 0
M  V30 6494 O 604.991 0.956149 5.61112 0
M  V30 6495 N 606.193 -0.937555 5.72879 0
M  V30 6496 H 608.958 1.59141 2.53957 0
M  V30 6497 H 606.519 0.979515 1.28907 0
M  V30 6498 H 608.511 -0.461238 4.02063 0
M  V30 6499 H 607.081 -0.813353 3.01833 0
M  V30 6500 H 606.301 1.603 3.60135 0
M  V30 6501 H 607.589 1.63323 4.81875 0
M  V30 6502 H 606.987 -1.48281 5.4592 0
M  V30 6503 H 605.544 -1.33463 6.3799 0
M  V30 6504 N 608.977 -1.30795 0.87923 0
M  V30 6505 C 609.925 -2.30231 0.331112 0
M  V30 6506 C 610.919 -1.59918 -0.558794 0
M  V30 6507 O 612.125 -1.74441 -0.443866 0
M  V30 6508 H 608.5 -0.746785 0.088409 0
M  V30 6509 H 610.471 -2.73925 1.18353 0
M  V30 6510 C 609.22 -3.44848 -0.444401 0
M  V30 6511 H 608.543 -3.99131 0.231106 0
M  V30 6512 H 609.983 -4.16516 -0.793109 0
M  V30 6513 C 608.442 -2.94329 -1.63926 0
M  V30 6514 O 608.972 -2.93875 -2.73862 0
M  V30 6515 N 607.178 -2.50413 -1.4745 0
M  V30 6516 H 606.725 -2.50982 -0.58015 0
M  V30 6517 H 606.683 -2.16969 -2.27534 0
M  V30 6518 N 610.455 -0.639598 -1.44038 0
M  V30 6519 C 611.388 0.109736 -2.27936 0
M  V30 6520 C 612.366 0.843095 -1.39035 0
M  V30 6521 O 613.55 0.845456 -1.68476 0
M  V30 6522 C 610.677 1.16173 -3.18153 0
M  V30 6523 C 609.723 0.527954 -4.2322 0
M  V30 6524 S 610.556 -0.688318 -5.31058 0
M  V30 6525 C 611.712 0.363481 -6.24844 0
M  V30 6526 H 611.945 -0.601986 -2.91142 0
M  V30 6527 H 609.478 -0.42802 -1.48349 0
M  V30 6528 H 611.436 1.76372 -3.7068 0
M  V30 6529 H 610.097 1.84569 -2.54151 0
M  V30 6530 H 609.29 1.32054 -4.86393 0
M  V30 6531 H 608.892 0.000396444 -3.74 0
M  V30 6532 H 611.184 1.23362 -6.66174 0
M  V30 6533 H 612.127 -0.23288 -7.07717 0
M  V30 6534 H 612.535 0.693179 -5.60228 0
M  V30 6535 N 611.933 1.52934 -0.380664 0
M  V30 6536 C 612.883 2.22989 0.475399 0
M  V30 6537 C 613.867 1.23058 1.03661 0
M  V30 6538 O 615.059 1.48436 0.964146 0
M  V30 6539 C 612.188 3.0338 1.60671 0
M  V30 6540 C 611.274 4.107 1.05766 0
M  V30 6541 N 611.665 5.05264 0.232837 0
M  V30 6542 C 609.963 4.25676 1.33101 0
M  V30 6543 C 610.664 5.81658 -0.0695134 0
M  V30 6544 N 609.64 5.40989 0.532144 0
M  V30 6545 H 613.442 2.93456 -0.161418 0
M  V30 6546 H 610.956 1.61291 -0.189495 0
M  V30 6547 H 612.953 3.52098 2.23232 0
M  V30 6548 H 611.613 2.34446 2.24644 0
M  V30 6549 H 612.624 5.17739 -0.129204 0
M  V30 6550 H 609.301 3.6797 1.97241 0
M  V30 6551 H 610.691 6.67843 -0.737269 0
M  V30 6552 N 613.412 0.11024 1.57214 0
M  V30 6553 C 614.322 -0.857077 2.18383 0
M  V30 6554 C 615.338 -1.29915 1.1575 0
M  V30 6555 O 616.514 -1.36394 1.48184 0
M  V30 6556 C 613.579 -2.09264 2.76423 0
M  V30 6557 C 612.64 -1.70333 3.94063 0
M  V30 6558 C 611.873 -2.87999 4.49324 0
M  V30 6559 O 612.096 -4.0317 4.03497 0
M  V30 6560 O 611.03 -2.6559 5.40135 0
M  V30 6561 H 614.856 -0.366561 3.0148 0
M  V30 6562 H 612.441 -0.114914 1.48957 0
M  V30 6563 H 614.323 -2.81644 3.13456 0
M  V30 6564 H 612.998 -2.57339 1.96363 0
M  V30 6565 H 611.905 -0.950864 3.61814 0
M  V30 6566 H 613.238 -1.27007 4.75531 0
M  V30 6567 N 614.89 -1.56749 -0.16351 0
M  V30 6568 C 616.301 -1.72039 -0.725216 0
M  V30 6569 C 616.652 -0.72202 -1.82432 0
M  V30 6570 O 615.777 0.114942 -2.16095 0
M  V30 6571 C 616.372 -3.11932 -1.32227 0
M  V30 6572 C 614.931 -3.28879 -1.83072 0
M  V30 6573 C 614.078 -2.67984 -0.712716 0
M  V30 6574 H 617.029 -1.58579 0.0619772 0
M  V30 6575 H 617.05 -3.11015 -2.19202 0
M  V30 6576 H 616.562 -3.84572 -0.522103 0
M  V30 6577 H 614.663 -2.61209 -2.65708 0
M  V30 6578 H 614.776 -4.36688 -1.97079 0
M  V30 6579 H 613.14 -2.28005 -1.13515 0
M  V30 6580 H 613.923 -3.43216 0.0757361 0
M  V30 6581 N 616.368 0.432326 -1.51554 0
M  V30 6582 C 617.615 1.18134 -1.64471 0
M  V30 6583 C 617.943 1.91076 -0.363349 0
M  V30 6584 O 617.198 1.84492 0.65279 0
M  V30 6585 C 617.497 2.21907 -2.80164 0
M  V30 6586 C 617.163 1.65941 -4.19255 0
M  V30 6587 C 615.825 1.50401 -4.57092 0
M  V30 6588 C 618.177 1.24843 -5.06027 0
M  V30 6589 C 615.505 0.922443 -5.79403 0
M  V30 6590 C 617.857 0.68113 -6.28922 0
M  V30 6591 C 616.521 0.512673 -6.65528 0
M  V30 6592 H 615.791 0.432283 -0.601841 0
M  V30 6593 H 618.438 0.471701 -1.856 0
M  V30 6594 H 616.743 2.98928 -2.53277 0
M  V30 6595 H 618.44 2.79691 -2.87357 0
M  V30 6596 H 615.03 1.79014 -3.89425 0
M  V30 6597 H 619.214 1.35667 -4.77397 0
M  V30 6598 H 614.47 0.779733 -6.06408 0
M  V30 6599 H 618.644 0.35418 -6.95499 0
M  V30 6600 H 616.271 0.0599084 -7.60176 0
M  V30 6601 N 617.846 1.41785 0.688094 0
M  V30 6602 C 619.257 1.3701 1.26828 0
M  V30 6603 C 619.608 0.056835 1.96118 0
M  V30 6604 O 618.733 -0.84475 1.99231 0
M  V30 6605 C 619.328 2.48168 2.30648 0
M  V30 6606 C 617.887 2.46766 2.84224 0
M  V30 6607 C 617.034 2.27633 1.58361 0
M  V30 6608 H 619.985 1.51192 0.482351 0
M  V30 6609 H 620.006 2.17655 3.121 0
M  V30 6610 H 619.518 3.43735 1.80188 0
M  V30 6611 H 617.619 1.54978 3.3884 0
M  V30 6612 H 617.732 3.43342 3.34145 0
M  V30 6613 H 616.096 1.75648 1.84445 0
M  V30 6614 H 616.879 3.25238 1.09887 0
M  V30 6615 N 619.324 -0.923095 1.27737 0
M  V30 6616 C 620.257 -2.02515 1.05181 0
M  V30 6617 C 621.235 -1.62574 -0.0292204 0
M  V30 6618 O 622.419 -1.88137 0.116848 0
M  V30 6619 C 619.546 -3.33407 0.596468 0
M  V30 6620 C 618.592 -3.92328 1.67276 0
M  V30 6621 S 619.425 -4.24342 3.26641 0
M  V30 6622 C 620.581 -5.58308 2.82919 0
M  V30 6623 H 620.814 -2.21336 1.98488 0
M  V30 6624 H 618.347 -1.06679 1.1162 0
M  V30 6625 H 620.305 -4.09086 0.34044 0
M  V30 6626 H 618.966 -3.125 -0.316614 0
M  V30 6627 H 618.159 -4.86797 1.30556 0
M  V30 6628 H 617.761 -3.2325 1.8811 0
M  V30 6629 H 620.053 -6.37801 2.28509 0
M  V30 6630 H 620.996 -5.99931 3.7615 0
M  V30 6631 H 621.404 -5.19049 2.21919 0
M  V30 6632 N 620.802 -1.09834 -1.13024 0
M  V30 6633 C 622.027 -0.85909 -1.88771 0
M  V30 6634 C 622.452 0.584402 -1.78791 0
M  V30 6635 O 621.81 1.41101 -1.13842 0
M  V30 6636 C 621.858 -1.30427 -3.36186 0
M  V30 6637 O 620.962 -0.465368 -4.09766 0
M  V30 6638 H 620.303 -0.310786 -0.586778 0
M  V30 6639 H 622.833 -1.46355 -1.42973 0
M  V30 6640 H 622.843 -1.2915 -3.8702 0
M  V30 6641 H 621.518 -2.3555 -3.42767 0
M  V30 6642 H 620.095 -0.542814 -3.68928 0
M  V30 6643 N 622.28 1.30327 -0.886154 0
M  V30 6644 C 623.227 2.28099 -0.352069 0
M  V30 6645 C 624.197 1.56433 0.558397 0
M  V30 6646 O 625.382 1.84492 0.486561 0
M  V30 6647 C 622.522 3.42456 0.426346 0
M  V30 6648 C 621.635 4.28938 -0.513472 0
M  V30 6649 C 620.77 5.30458 0.280657 0
M  V30 6650 C 619.809 6.0859 -0.654556 0
M  V30 6651 N 618.946 7.02022 0.104322 0
M  V30 6652 H 623.786 2.73166 -1.19097 0
M  V30 6653 H 621.323 1.34367 -0.598662 0
M  V30 6654 H 623.281 4.07518 0.893587 0
M  V30 6655 H 621.911 2.98455 1.22981 0
M  V30 6656 H 620.963 3.64173 -1.09921 0
M  V30 6657 H 622.275 4.83399 -1.2299 0
M  V30 6658 H 621.429 6.01273 0.8097 0
M  V30 6659 H 620.168 4.76693 1.03029 0
M  V30 6660 H 619.173 5.36651 -1.19522 0
M  V30 6661 H 620.398 6.64443 -1.4033 0
M  V30 6662 H 618.344 6.50645 0.836472 0
M  V30 6663 H 618.261 7.53979 -0.552453 0
M  V30 6664 H 619.529 7.77077 0.614069 0
M  V30 6665 N 623.758 0.647228 1.43697 0
M  V30 6666 C 624.706 -0.0600105 2.32523 0
M  V30 6667 C 625.7 -0.819277 1.48271 0
M  V30 6668 O 626.906 -0.730356 1.64517 0
M  V30 6669 H 623.281 -0.0381872 0.75103 0
M  V30 6670 H 625.252 0.706978 2.89904 0
M  V30 6671 C 624.001 -1.0169 3.32497 0
M  V30 6672 H 623.324 -0.442083 3.97348 0
M  V30 6673 H 624.764 -1.48095 3.97296 0
M  V30 6674 C 623.223 -2.11002 2.6264 0
M  V30 6675 O 623.753 -3.19302 2.4374 0
M  V30 6676 N 621.959 -1.87388 2.22113 0
M  V30 6677 H 621.506 -0.993174 2.37684 0
M  V30 6678 H 621.464 -2.60723 1.75701 0
M  V30 6679 N 625.236 -1.5273 0.388769 0
M  V30 6680 C 626.482 -2.01871 -0.193877 0
M  V30 6681 C 626.815 -1.27475 -1.46505 0
M  V30 6682 O 626.09 -0.375063 -1.90849 0
M  V30 6683 C 626.373 -3.5712 -0.462336 0
M  V30 6684 C 626.226 -4.42186 0.824091 0
M  V30 6685 C 627.545 -4.21881 -1.25319 0
M  V30 6686 H 624.664 -0.733764 -0.0689899 0
M  V30 6687 H 627.306 -1.82796 0.518231 0
M  V30 6688 H 625.456 -3.73504 -1.06896 0
M  V30 6689 H 627.128 -4.37554 1.46096 0
M  V30 6690 H 625.371 -4.09219 1.43952 0
M  V30 6691 H 626.042 -5.48828 0.590905 0
M  V30 6692 H 628.518 -4.0947 -0.73981 0
M  V30 6693 H 627.394 -5.30487 -1.40977 0
M  V30 6694 H 627.655 -3.79478 -2.26824 0
M  V30 6695 N 626.714 -0.118576 -1.57153 0
M  V30 6696 C 627.961 0.539526 -1.9518 0
M  V30 6697 C 628.289 1.66714 -1.00184 0
M  V30 6698 O 627.544 1.95683 -0.0256482 0
M  V30 6699 C 627.843 1.11303 -3.39627 0
M  V30 6700 C 627.509 0.106809 -4.50773 0
M  V30 6701 C 626.171 -0.169876 -4.809 0
M  V30 6702 C 628.523 -0.57895 -5.17975 0
M  V30 6703 C 625.851 -1.13861 -5.75545 0
M  V30 6704 C 628.203 -1.53631 -6.13661 0
M  V30 6705 C 626.867 -1.82099 -6.42181 0
M  V30 6706 H 626.137 0.197427 -0.714215 0
M  V30 6707 H 628.784 -0.199391 -1.90459 0
M  V30 6708 H 627.089 1.92869 -3.4104 0
M  V30 6709 H 628.786 1.63032 -3.66363 0
M  V30 6710 H 625.376 0.332645 -4.27307 0
M  V30 6711 H 629.56 -0.378359 -4.94856 0
M  V30 6712 H 624.816 -1.36592 -5.95947 0
M  V30 6713 H 628.99 -2.07337 -6.64819 0
M  V30 6714 H 626.617 -2.57319 -7.15326 0
M  V30 6715 N 628.193 1.56834 0.155195 0
M  V30 6716 C 629.604 1.72421 0.716082 0
M  V30 6717 C 629.955 0.731685 1.82046 0
M  V30 6718 O 629.08 -0.103481 2.16152 0
M  V30 6719 C 629.675 3.12629 1.30571 0
M  V30 6720 C 628.234 3.29846 1.81325 0
M  V30 6721 C 627.381 2.68359 0.698494 0
M  V30 6722 H 630.332 1.58544 -0.0703861 0
M  V30 6723 H 630.353 3.12174 2.1755 0
M  V30 6724 H 629.865 3.84844 0.501701 0
M  V30 6725 H 627.966 2.62614 2.64319 0
M  V30 6726 H 628.079 4.37727 1.9476 0
M  V30 6727 H 626.443 2.28604 1.12305 0
M  V30 6728 H 627.226 3.43171 -0.0939366 0
M  V30 6729 N 629.671 -0.424282 1.51781 0
M  V30 6730 C 630.948 -1.18464 1.55646 0
M  V30 6731 C 631.328 -2.08529 0.328438 0
M  V30 6732 O 630.676 -2.17969 -0.685693 0
M  V30 6733 C 630.886 -1.97514 2.87731 0
M  V30 6734 C 632.234 -2.54106 3.40169 0
M  V30 6735 O 633.258 -2.07711 2.89369 0
M  V30 6736 O 632.117 -3.38759 4.28841 0
M  V30 6737 H 629.211 -0.540055 0.626314 0
M  V30 6738 H 631.757 -0.432291 1.64102 0
M  V30 6739 H 630.529 -1.31444 3.68562 0
M  V30 6740 H 630.152 -2.79787 2.82498 0
M  V30 6741 N 631.149 -1.42148 -0.680565 0
M  V30 6742 C 632.097 -1.45401 -1.81552 0
M  V30 6743 C 633.091 -0.33036 -1.66147 0
M  V30 6744 O 634.297 -0.503103 -1.72826 0
M  V30 6745 H 630.672 -0.455265 -0.59853 0
M  V30 6746 H 632.643 -2.41024 -1.75926 0
M  V30 6747 C 631.392 -1.36769 -3.19671 0
M  V30 6748 H 630.715 -2.22525 -3.32149 0
M  V30 6749 H 632.155 -1.43106 -3.9912 0
M  V30 6750 C 630.614 -0.0817752 -3.36801 0
M  V30 6751 O 631.144 0.867707 -3.92216 0
M  V30 6752 N 629.35 -0.000799811 -2.906 0
M  V30 6753 H 628.897 -0.774231 -2.4569 0
M  V30 6754 H 628.855 0.858961 -3.02439 0
M  V30 6755 N 632.627 0.916307 -1.28225 0
M  V30 6756 C 633.873 1.66794 -1.1641 0
M  V30 6757 C 634.228 1.90278 0.284986 0
M  V30 6758 O 633.521 1.49023 1.20427 0
M  V30 6759 C 633.715 3.03125 -1.8934 0
M  V30 6760 C 633.544 2.92947 -3.41192 0
M  V30 6761 C 632.314 2.9461 -4.10528 0
M  V30 6762 C 634.512 2.7121 -4.36978 0
M  V30 6763 N 632.494 2.74993 -5.48864 0
M  V30 6764 C 633.865 2.60411 -5.6266 0
M  V30 6765 C 635.92 2.56187 -4.26934 0
M  V30 6766 C 634.623 2.3612 -6.79441 0
M  V30 6767 C 636.649 2.33275 -5.43449 0
M  V30 6768 C 636.011 2.23228 -6.68093 0
M  V30 6769 H 632.11 0.616654 -0.480896 0
M  V30 6770 H 634.694 1.08237 -1.61842 0
M  V30 6771 H 632.865 3.59774 -1.46346 0
M  V30 6772 H 634.597 3.67294 -1.69932 0
M  V30 6773 H 631.352 3.0527 -3.62087 0
M  V30 6774 H 631.776 2.68284 -6.21573 0
M  V30 6775 H 636.418 2.62707 -3.31278 0
M  V30 6776 H 634.136 2.28339 -7.75169 0
M  V30 6777 H 637.722 2.22519 -5.37565 0
M  V30 6778 H 636.602 2.05741 -7.5673 0
M  V30 6779 N 634.105 1.10431 1.1244 0
M  V30 6780 C 635.052 0.753103 2.18167 0
M  V30 6781 C 636.022 -0.270549 1.63882 0
M  V30 6782 O 637.207 -0.149837 1.90211 0
M  V30 6783 C 634.347 0.191046 3.44571 0
M  V30 6784 C 633.46 1.26999 4.12911 0
M  V30 6785 C 632.595 0.669586 5.26963 0
M  V30 6786 C 631.634 1.72912 5.87169 0
M  V30 6787 N 630.771 1.14898 6.92635 0
M  V30 6788 H 635.611 1.65892 2.47556 0
M  V30 6789 H 633.148 0.828631 1.21541 0
M  V30 6790 H 635.106 -0.152712 4.1692 0
M  V30 6791 H 633.736 -0.677997 3.15599 0
M  V30 6792 H 632.788 1.73087 3.3874 0
M  V30 6793 H 634.1 2.07204 4.53727 0
M  V30 6794 H 633.254 0.275274 6.06075 0
M  V30 6795 H 631.993 -0.163895 4.87425 0
M  V30 6796 H 630.998 2.13286 5.06744 0
M  V30 6797 H 632.223 2.56544 6.28778 0
M  V30 6798 H 630.169 0.336956 6.55134 0
M  V30 6799 H 630.086 1.88786 7.32049 0
M  V30 6800 H 631.354 0.78121 7.75576 0
M  V30 6801 N 635.583 -1.29855 0.893053 0
M  V30 6802 C 636.829 -1.96116 0.516349 0
M  V30 6803 C 637.162 -1.70281 -0.933695 0
M  V30 6804 O 636.437 -1.01205 -1.66096 0
M  V30 6805 C 636.72 -3.51068 0.801455 0
M  V30 6806 C 636.573 -3.86387 2.30272 0
M  V30 6807 C 637.892 -4.39186 0.283423 0
M  V30 6808 H 635.011 -0.712335 0.189072 0
M  V30 6809 H 637.653 -1.53587 1.11852 0
M  V30 6810 H 635.803 -3.87424 0.288949 0
M  V30 6811 H 637.475 -3.60012 2.88425 0
M  V30 6812 H 635.718 -3.34167 2.76613 0
M  V30 6813 H 636.389 -4.94512 2.45279 0
M  V30 6814 H 638.865 -4.09785 0.722187 0
M  V30 6815 H 637.741 -5.46505 0.512169 0
M  V30 6816 H 638.002 -4.34511 -0.815643 0
M  V30 6817 N 637.061 -0.65484 -1.43351 0
M  V30 6818 C 638.472 -0.248506 -1.85039 0
M  V30 6819 C 638.823 1.20526 -1.54816 0
M  V30 6820 O 637.948 1.92016 -0.99794 0
M  V30 6821 C 638.543 -0.444241 -3.35875 0
M  V30 6822 C 637.102 -0.0922108 -3.76287 0
M  V30 6823 C 636.249 -0.746327 -2.67068 0
M  V30 6824 H 639.2 -0.8584 -1.33481 0
M  V30 6825 H 639.221 0.309762 -3.79237 0
M  V30 6826 H 638.733 -1.50239 -3.5784 0
M  V30 6827 H 636.834 0.96328 -3.59933 0
M  V30 6828 H 636.947 -0.518807 -4.76283 0
M  V30 6829 H 635.311 -0.179416 -2.54067 0
M  V30 6830 H 636.094 -1.80754 -2.91861 0
M  V30 6831 N 638.539 1.52521 -0.396863 0
M  V30 6832 C 639.471 2.24333 0.469814 0
M  V30 6833 C 640.484 1.2685 1.02043 0
M  V30 6834 O 641.673 1.52876 0.92147 0
M  V30 6835 C 638.773 2.95202 1.66461 0
M  V30 6836 C 637.946 4.19454 1.24003 0
M  V30 6837 C 637.005 4.73255 2.30036 0
M  V30 6838 O 636.031 5.36151 1.91131 0
M  V30 6839 N 637.233 4.53765 3.62047 0
M  V30 6840 H 639.998 2.99347 -0.145468 0
M  V30 6841 H 637.559 1.60348 -0.223606 0
M  V30 6842 H 639.551 3.28092 2.36934 0
M  V30 6843 H 638.121 2.2345 2.18607 0
M  V30 6844 H 637.341 3.92517 0.363892 0
M  V30 6845 H 638.629 5.0017 0.933135 0
M  V30 6846 H 638.027 4.03576 3.96412 0
M  V30 6847 H 636.584 4.91124 4.28533 0
M  V30 6848 N 640.017 0.126909 1.57088 0
M  V30 6849 C 641.294 -0.573152 1.87014 0
M  V30 6850 C 641.674 -1.84297 1.02945 0
M  V30 6851 O 641.022 -2.28232 0.110573 0
M  V30 6852 C 641.232 -0.857984 3.38289 0
M  V30 6853 C 642.58 -1.20759 4.07066 0
M  V30 6854 O 643.604 -0.947992 3.43353 0
M  V30 6855 O 642.463 -1.69516 5.19545 0
M  V30 6856 H 639.557 -0.290082 0.774456 0
M  V30 6857 H 642.103 0.162008 1.68925 0
M  V30 6858 H 640.875 0.0415286 3.91278 0
M  V30 6859 H 640.498 -1.64803 3.61837 0
M  V30 6860 N 641.495 -1.56914 -0.146875 0
M  V30 6861 C 642.743 -1.82994 -0.85777 0
M  V30 6862 C 643.064 -0.707814 -1.817 0
M  V30 6863 O 642.334 0.270521 -1.94023 0
M  V30 6864 H 640.914 -0.675106 -0.319751 0
M  V30 6865 H 643.576 -1.9439 -0.140849 0
M  V30 6866 H 642.672 -2.77928 -1.41994 0
M  V30 6867 N 642.974 0.416227 -1.52004 0
M  V30 6868 C 644.251 1.17637 -1.56272 0
M  V30 6869 C 644.631 2.08352 -0.339493 0
M  V30 6870 O 643.979 2.1833 0.674124 0
M  V30 6871 C 644.189 1.95986 -2.88774 0
M  V30 6872 C 645.537 2.52299 -3.41512 0
M  V30 6873 O 646.561 2.06174 -2.90467 0
M  V30 6874 O 645.42 3.3648 -4.30631 0
M  V30 6875 H 642.514 0.536726 -0.629169 0
M  V30 6876 H 645.06 0.423583 -1.64329 0
M  V30 6877 H 643.832 1.29487 -3.69254 0
M  V30 6878 H 643.455 2.78285 -2.83978 0
M  V30 6879 N 644.452 1.42507 0.673017 0
M  V30 6880 C 645.699 1.43072 1.43306 0
M  V30 6881 C 646.027 0.0478004 1.94441 0
M  V30 6882 O 645.282 -0.944106 1.71421 0
M  V30 6883 C 645.581 2.40351 2.64511 0
M  V30 6884 C 645.247 3.8669 2.31908 0
M  V30 6885 C 643.909 4.26551 2.22728 0
M  V30 6886 C 646.261 4.78991 2.05467 0
M  V30 6887 C 643.589 5.56691 1.85234 0
M  V30 6888 C 645.941 6.09476 1.69477 0
M  V30 6889 C 644.605 6.48334 1.58808 0
M  V30 6890 H 643.875 0.523536 0.524395 0
M  V30 6891 H 646.522 1.75459 0.76723 0
M  V30 6892 H 644.827 2.01297 3.36135 0
M  V30 6893 H 646.524 2.38051 3.22696 0
M  V30 6894 H 643.114 3.55132 2.39956 0
M  V30 6895 H 647.298 4.48982 2.11492 0
M  V30 6896 H 642.554 5.85657 1.75545 0
M  V30 6897 H 646.728 6.80482 1.48043 0
M  V30 6898 H 644.355 7.49084 1.29525 0
M  V30 6899 N 645.93 -0.909495 1.28709 0
M  V30 6900 C 647.207 -1.63865 1.06806 0
M  V30 6901 C 647.587 -2.07445 -0.391143 0
M  V30 6902 O 646.935 -1.82269 -1.37805 0
M  V30 6903 C 647.145 -2.82692 2.04661 0
M  V30 6904 C 648.493 -3.5361 2.35042 0
M  V30 6905 O 649.517 -2.92847 2.02779 0
M  V30 6906 O 648.376 -4.63131 2.90124 0
M  V30 6907 H 645.47 -0.719065 0.408502 0
M  V30 6908 H 648.016 -0.958424 1.40044 0
M  V30 6909 H 646.788 -2.47614 3.0299 0
M  V30 6910 H 646.411 -3.58426 1.72095 0
M  V30 6911 N 647.408 -1.11026 -1.11852 0
M  V30 6912 C 648.655 -0.85646 -1.83497 0
M  V30 6913 C 648.983 0.617938 -1.84423 0
M  V30 6914 O 648.238 1.47194 -1.28966 0
M  V30 6915 C 648.537 -1.35777 -3.30604 0
M  V30 6916 C 648.203 -2.84465 -3.49843 0
M  V30 6917 C 646.865 -3.25068 -3.54802 0
M  V30 6918 C 649.217 -3.80251 -3.56453 0
M  V30 6919 C 646.545 -4.60194 -3.63921 0
M  V30 6920 C 648.897 -5.15188 -3.67102 0
M  V30 6921 C 647.561 -5.55356 -3.70319 0
M  V30 6922 H 646.831 -0.313401 -0.671462 0
M  V30 6923 H 649.478 -1.38792 -1.31943 0
M  V30 6924 H 647.783 -0.746455 -3.84624 0
M  V30 6925 H 649.48 -1.13779 -3.8452 0
M  V30 6926 H 646.07 -2.52054 -3.46651 0
M  V30 6927 H 650.254 -3.49986 -3.51886 0
M  V30 6928 H 645.51 -4.90728 -3.64686 0
M  V30 6929 H 649.684 -5.89248 -3.71159 0
M  V30 6930 H 647.311 -6.60054 -3.77138 0
M  V30 6931 N 648.886 1.2938 -0.899927 0
M  V30 6932 C 649.816 2.30144 -0.39446 0
M  V30 6933 C 650.797 1.61611 0.530639 0
M  V30 6934 O 651.982 1.89119 0.441319 0
M  V30 6935 C 649.112 3.45229 0.37868 0
M  V30 6936 C 648.066 4.25564 -0.456012 0
M  V30 6937 C 647.392 5.32848 0.444637 0
M  V30 6938 C 648.692 4.93651 -1.70605 0
M  V30 6939 H 650.386 2.72673 -1.23653 0
M  V30 6940 H 647.932 1.31086 -0.596034 0
M  V30 6941 H 649.885 4.14797 0.743037 0
M  V30 6942 H 648.609 3.01545 1.25453 0
M  V30 6943 H 647.268 3.57704 -0.802704 0
M  V30 6944 H 646.916 4.85408 1.31863 0
M  V30 6945 H 646.616 5.87497 -0.110154 0
M  V30 6946 H 648.14 6.05268 0.805182 0
M  V30 6947 H 649.554 5.55655 -1.41141 0
M  V30 6948 H 647.951 5.58233 -2.20217 0
M  V30 6949 H 649.021 4.18926 -2.4419 0
M  V30 6950 N 650.364 0.662433 1.43002 0
M  V30 6951 C 651.311 -0.0235324 2.30788 0
M  V30 6952 C 652.281 -0.805342 1.4527 0
M  V30 6953 O 653.466 -0.78009 1.74124 0
M  V30 6954 C 650.606 -0.977545 3.30965 0
M  V30 6955 C 649.719 -0.190865 4.31578 0
M  V30 6956 C 648.854 -1.13951 5.18834 0
M  V30 6957 C 647.893 -0.343796 6.11134 0
M  V30 6958 N 647.03 -1.2445 6.90982 0
M  V30 6959 H 651.87 0.730921 2.88897 0
M  V30 6960 H 649.407 0.372197 1.42313 0
M  V30 6961 H 651.365 -1.54437 3.87563 0
M  V30 6962 H 649.995 -1.69877 2.74484 0
M  V30 6963 H 649.047 0.492388 3.772 0
M  V30 6964 H 650.359 0.427464 4.96965 0
M  V30 6965 H 649.513 -1.77666 5.80103 0
M  V30 6966 H 648.252 -1.79174 4.53595 0
M  V30 6967 H 647.257 0.30665 5.48944 0
M  V30 6968 H 648.482 0.304161 6.78419 0
M  V30 6969 H 646.428 -1.88336 6.28383 0
M  V30 6970 H 646.345 -0.680959 7.52927 0
M  V30 6971 H 647.613 -1.86952 7.56749 0
M  V30 6972 N 651.842 -1.52309 0.404946 0
M  V30 6973 C 652.79 -2.28452 -0.437321 0
M  V30 6974 C 653.784 -1.32975 -1.04948 0
M  V30 6975 O 654.99 -1.50451 -0.988159 0
M  V30 6976 H 651.365 -0.734824 -0.159805 0
M  V30 6977 H 653.336 -2.97542 0.22615 0
M  V30 6978 C 652.085 -3.11536 -1.54404 0
M  V30 6979 H 651.408 -3.84871 -1.08233 0
M  V30 6980 H 652.848 -3.67926 -2.10729 0
M  V30 6981 C 651.307 -2.24833 -2.50902 0
M  V30 6982 O 651.837 -1.88574 -3.54687 0
M  V30 6983 N 650.043 -1.88685 -2.21012 0
M  V30 6984 H 649.59 -2.18371 -1.36646 0
M  V30 6985 H 649.548 -1.30966 -2.85824 0
M  V30 6986 N 653.32 -0.135238 -1.57019 0
M  V30 6987 C 654.25 0.805235 -2.19176 0
M  V30 6988 C 655.231 1.2656 -1.13651 0
M  V30 6989 O 656.416 1.32528 -1.4195 0
M  V30 6990 C 653.546 2.04914 -2.80406 0
M  V30 6991 C 652.5 1.72598 -3.91655 0
M  V30 6992 C 651.826 3.04154 -4.39766 0
M  V30 6993 C 653.126 0.981709 -5.12991 0
M  V30 6994 H 654.82 0.287232 -2.98019 0
M  V30 6995 H 652.366 0.136714 -1.4335 0
M  V30 6996 H 654.319 2.71178 -3.22553 0
M  V30 6997 H 653.043 2.59067 -1.98877 0
M  V30 6998 H 651.702 1.08717 -3.50109 0
M  V30 6999 H 651.35 3.56274 -3.55075 0
M  V30 7000 H 651.05 2.83299 -5.14796 0
M  V30 7001 H 652.574 3.71509 -4.84576 0
M  V30 7002 H 653.988 1.5462 -5.52056 0
M  V30 7003 H 652.385 0.873533 -5.93708 0
M  V30 7004 H 653.455 -0.0286887 -4.84892 0
M  V30 7005 N 654.798 1.5699 0.138552 0
M  V30 7006 C 656.023 1.88344 0.86841 0
M  V30 7007 C 656.448 0.725159 1.7356 0
M  V30 7008 O 655.806 -0.324992 1.78363 0
M  V30 7009 C 655.854 3.18334 1.69398 0
M  V30 7010 O 654.958 3.02863 2.79907 0
M  V30 7011 H 654.299 0.618577 0.241367 0
M  V30 7012 H 656.829 2.04207 0.126826 0
M  V30 7013 H 656.839 3.50567 2.08726 0
M  V30 7014 H 655.514 4.02238 1.05725 0
M  V30 7015 H 654.091 2.82056 2.43924 0
M  V30 7016 N 656.276 -0.40816 1.52223 0
M  V30 7017 C 657.206 -1.5042 1.78595 0
M  V30 7018 C 658.187 -1.57723 0.636974 0
M  V30 7019 O 659.372 -1.72982 0.882664 0
M  V30 7020 C 656.502 -2.88232 1.93751 0
M  V30 7021 C 655.456 -2.95779 3.09352 0
M  V30 7022 C 654.782 -4.35855 3.09732 0
M  V30 7023 C 656.082 -2.67175 4.48793 0
M  V30 7024 H 657.776 -1.28601 2.70374 0
M  V30 7025 H 655.322 -0.617221 1.30101 0
M  V30 7026 H 657.275 -3.64895 2.10783 0
M  V30 7027 H 655.999 -3.11347 0.986443 0
M  V30 7028 H 654.658 -2.21561 2.92072 0
M  V30 7029 H 654.306 -4.55981 2.12346 0
M  V30 7030 H 654.006 -4.41829 3.87377 0
M  V30 7031 H 655.53 -5.14451 3.28895 0
M  V30 7032 H 656.944 -3.3356 4.66273 0
M  V30 7033 H 655.341 -2.84523 5.28362 0
M  V30 7034 H 656.411 -1.62609 4.56822 0
M  V30 7035 N 657.755 -1.42862 -0.66545 0
M  V30 7036 C 658.665 -1.49491 -1.80803 0
M  V30 7037 C 659.681 -0.382914 -1.69734 0
M  V30 7038 O 660.857 -0.635223 -1.9112 0
M  V30 7039 C 657.922 -1.40383 -3.17007 0
M  V30 7040 C 656.983 -2.62152 -3.39963 0
M  V30 7041 C 656.216 -2.53469 -4.69669 0
M  V30 7042 O 656.439 -1.57568 -5.48205 0
M  V30 7043 O 655.373 -3.43763 -4.94075 0
M  V30 7044 H 659.199 -2.45949 -1.78165 0
M  V30 7045 H 656.784 -1.24728 -0.822387 0
M  V30 7046 H 658.666 -1.377 -3.98267 0
M  V30 7047 H 657.341 -0.470546 -3.20262 0
M  V30 7048 H 656.248 -2.70409 -2.58515 0
M  V30 7049 H 657.581 -3.54411 -3.41546 0
M  V30 7050 N 659.233 0.902656 -1.29189 0
M  V30 7051 C 660.143 2.03946 -1.15944 0
M  V30 7052 C 661.159 1.738 -0.0833803 0
M  V30 7053 O 662.335 1.9923 -0.29487 0
M  V30 7054 C 659.4 3.36519 -0.834006 0
M  V30 7055 C 658.461 3.80203 -1.9936 0
M  V30 7056 C 657.694 5.06449 -1.68359 0
M  V30 7057 O 657.917 5.67202 -0.603141 0
M  V30 7058 O 656.851 5.46114 -2.53067 0
M  V30 7059 H 660.677 2.18043 -2.11403 0
M  V30 7060 H 658.262 1.02584 -1.08613 0
M  V30 7061 H 660.144 4.16089 -0.666949 0
M  V30 7062 H 658.819 3.23573 0.0908245 0
M  V30 7063 H 657.726 3.01413 -2.21588 0
M  V30 7064 H 659.059 3.97729 -2.89952 0
M  V30 7065 N 660.711 1.11618 1.11262 0
M  V30 7066 C 661.641 0.79846 2.19424 0
M  V30 7067 C 662.622 -0.234003 1.68483 0
M  V30 7068 O 663.807 -0.0970704 1.93957 0
M  V30 7069 C 660.937 0.242892 3.4645 0
M  V30 7070 C 659.891 1.20744 4.10615 0
M  V30 7071 C 659.217 0.512494 5.32238 0
M  V30 7072 C 660.517 2.55884 4.55325 0
M  V30 7073 H 662.211 1.70286 2.46258 0
M  V30 7074 H 659.757 0.820195 1.18359 0
M  V30 7075 H 661.71 0.00840447 4.21399 0
M  V30 7076 H 660.434 -0.696811 3.1908 0
M  V30 7077 H 659.093 1.42759 3.37662 0
M  V30 7078 H 658.741 -0.432075 5.01141 0
M  V30 7079 H 658.441 1.15583 5.7612 0
M  V30 7080 H 659.965 0.286842 6.09926 0
M  V30 7081 H 661.379 2.37946 5.21588 0
M  V30 7082 H 659.776 3.16216 5.10027 0
M  V30 7083 H 660.846 3.14968 3.68678 0
M  V30 7084 N 662.189 -1.289 0.906776 0
M  V30 7085 C 663.121 -2.26556 0.347159 0
M  V30 7086 C 664.134 -1.54589 -0.51049 0
M  V30 7087 O 665.323 -1.75489 -0.326501 0
M  V30 7088 C 662.423 -3.3484 -0.523024 0
M  V30 7089 C 661.596 -4.36296 0.310515 0
M  V30 7090 C 660.655 -5.23879 -0.493634 0
M  V30 7091 O 659.681 -5.69127 0.0913569 0
M  V30 7092 N 660.883 -5.51946 -1.7982 0
M  V30 7093 H 663.648 -2.75212 1.18652 0
M  V30 7094 H 661.209 -1.42309 0.771996 0
M  V30 7095 H 663.201 -3.90366 -1.06756 0
M  V30 7096 H 661.771 -2.85946 -1.26309 0
M  V30 7097 H 660.991 -3.80331 1.03644 0
M  V30 7098 H 662.279 -5.01113 0.881106 0
M  V30 7099 H 661.677 -5.17006 -2.2961 0
M  V30 7100 H 660.234 -6.10258 -2.28971 0
M  V30 7101 N 663.667 -0.670007 -1.42649 0
M  V30 7102 C 664.6 0.0613623 -2.28117 0
M  V30 7103 C 665.578 0.813414 -1.40792 0
M  V30 7104 O 666.762 0.809529 -1.70232 0
M  V30 7105 C 663.889 1.09399 -3.20546 0
M  V30 7106 C 662.935 0.438064 -4.24244 0
M  V30 7107 S 663.768 -0.800808 -5.29478 0
M  V30 7108 C 664.924 0.23086 -6.25474 0
M  V30 7109 H 665.157 -0.663606 -2.89799 0
M  V30 7110 H 662.69 -0.45939 -1.47407 0
M  V30 7111 H 664.648 1.68469 -3.74337 0
M  V30 7112 H 663.309 1.79137 -2.58009 0
M  V30 7113 H 662.502 1.21707 -4.89084 0
M  V30 7114 H 662.104 -0.0789346 -3.73917 0
M  V30 7115 H 664.396 1.09204 -6.68641 0
M  V30 7116 H 665.339 -0.382945 -7.07064 0
M  V30 7117 H 665.747 0.574191 -5.61572 0
M  V30 7118 N 665.145 1.52092 -0.413018 0
M  V30 7119 C 666.561 1.59471 -0.0640836 0
M  V30 7120 C 666.761 1.42562 1.42402 0
M  V30 7121 O 665.817 1.25453 2.19129 0
M  V30 7122 C 667.13 2.95392 -0.562474 0
M  V30 7123 C 668.678 3.08637 -0.520788 0
M  V30 7124 C 669.153 4.47044 -0.995752 0
M  V30 7125 N 670.644 4.53296 -0.952732 0
M  V30 7126 C 671.379 5.58669 -1.29138 0
M  V30 7127 N 670.875 6.71576 -1.70168 0
M  V30 7128 N 672.668 5.48898 -1.2111 0
M  V30 7129 H 664.819 1.6133 -1.38153 0
M  V30 7130 H 667.082 0.75916 -0.567785 0
M  V30 7131 H 666.788 3.13059 -1.60271 0
M  V30 7132 H 666.662 3.77191 0.0257875 0
M  V30 7133 H 669.049 2.90652 0.510412 0
M  V30 7134 H 669.13 2.28735 -1.14515 0
M  V30 7135 H 668.774 4.65773 -2.0253 0
M  V30 7136 H 668.704 5.25448 -0.348162 0
M  V30 7137 H 671.195 3.72248 -0.651119 0
M  V30 7138 H 671.508 7.47973 -1.9431 0
M  V30 7139 H 669.853 6.72847 -1.74075 0
M  V30 7140 H 673.044 4.59573 -0.889396 0
M  V30 7141 H 673.217 6.30912 -1.47833 0
M  V30 7142 N 666.623 0.143563 1.56945 0
M  V30 7143 C 667.553 -0.7936 2.196 0
M  V30 7144 C 668.534 -1.25955 1.14321 0
M  V30 7145 O 669.719 -1.31773 1.42651 0
M  V30 7146 C 666.849 -2.03424 2.81489 0
M  V30 7147 C 665.803 -1.70519 3.92565 0
M  V30 7148 C 665.129 -3.01817 4.41373 0
M  V30 7149 C 666.429 -0.95449 5.13504 0
M  V30 7150 H 668.123 -0.271423 2.98167 0
M  V30 7151 H 665.669 -0.12911 1.4342 0
M  V30 7152 H 667.622 -2.69463 3.23987 0
M  V30 7153 H 666.346 -2.58008 2.00248 0
M  V30 7154 H 665.005 -1.06859 3.5068 0
M  V30 7155 H 664.653 -3.54386 3.56959 0
M  V30 7156 H 664.353 -2.80565 5.16292 0
M  V30 7157 H 665.877 -3.68934 4.86539 0
M  V30 7158 H 667.291 -1.5169 5.52868 0
M  V30 7159 H 665.688 -0.842035 5.94163 0
M  V30 7160 H 666.758 0.0544033 4.84869 0
M  V30 7161 N 668.101 -1.57061 -0.130224 0
M  V30 7162 C 669.048 -1.99517 -1.16024 0
M  V30 7163 C 670.018 -0.865452 -1.41771 0
M  V30 7164 O 671.203 -1.12882 -1.53826 0
M  V30 7165 C 668.343 -2.3951 -2.48453 0
M  V30 7166 C 667.456 -3.65848 -2.29737 0
M  V30 7167 C 666.591 -3.9487 -3.55318 0
M  V30 7168 C 665.63 -5.14426 -3.31711 0
M  V30 7169 N 664.767 -5.39375 -4.49466 0
M  V30 7170 H 669.607 -2.87305 -0.791194 0
M  V30 7171 H 667.144 -1.42129 -0.379195 0
M  V30 7172 H 669.102 -2.60731 -3.25692 0
M  V30 7173 H 667.732 -1.54779 -2.83272 0
M  V30 7174 H 666.784 -3.52307 -1.4347 0
M  V30 7175 H 668.096 -4.53241 -2.08263 0
M  V30 7176 H 667.25 -4.16679 -4.4098 0
M  V30 7177 H 665.989 -3.05931 -3.79813 0
M  V30 7178 H 664.994 -4.92473 -2.44439 0
M  V30 7179 H 666.219 -6.04933 -3.08598 0
M  V30 7180 H 664.165 -4.53391 -4.74102 0
M  V30 7181 H 664.082 -6.21069 -4.31055 0
M  V30 7182 H 665.35 -5.65694 -5.36293 0
M  V30 7183 N 669.579 0.400081 -1.52437 0
M  V30 7184 C 670.542 1.4707 -1.75793 0
M  V30 7185 C 671.542 1.48036 -0.627856 0
M  V30 7186 O 672.732 1.49401 -0.895817 0
M  V30 7187 C 669.864 2.86427 -1.84858 0
M  V30 7188 H 671.057 1.27649 -2.71377 0
M  V30 7189 H 668.61 0.631141 -1.42991 0
M  V30 7190 H 669.345 3.11207 -0.912194 0
M  V30 7191 H 669.13 2.87128 -2.6702 0
M  V30 7192 H 670.62 3.64023 -2.04638 0
M  V30 7193 N 671.057 1.43213 0.657864 0
M  V30 7194 C 671.987 1.50815 1.78262 0
M  V30 7195 C 672.968 0.363211 1.66177 0
M  V30 7196 O 674.153 0.579806 1.85343 0
M  V30 7197 C 671.283 1.42625 3.16663 0
M  V30 7198 C 670.237 2.5532 3.43505 0
M  V30 7199 C 669.563 2.32184 4.81658 0
M  V30 7200 C 670.863 3.97583 3.38711 0
M  V30 7201 H 672.557 2.44954 1.72157 0
M  V30 7202 H 670.103 1.17896 0.82683 0
M  V30 7203 H 672.056 1.46548 3.95097 0
M  V30 7204 H 670.78 0.449877 3.23487 0
M  V30 7205 H 669.439 2.50742 2.6744 0
M  V30 7206 H 669.087 1.32801 4.85153 0
M  V30 7207 H 668.787 3.07724 5.00579 0
M  V30 7208 H 670.311 2.37883 5.62356 0
M  V30 7209 H 671.725 4.03673 4.07089 0
M  V30 7210 H 670.122 4.73112 3.69168 0
M  V30 7211 H 671.192 4.23049 2.36976 0
M  V30 7212 N 672.536 -0.895792 1.29666 0
M  V30 7213 C 673.813 -1.62723 1.08538 0
M  V30 7214 C 674.193 -2.07848 -0.369119 0
M  V30 7215 O 673.541 -1.8372 -1.35864 0
M  V30 7216 C 673.751 -2.80505 2.07648 0
M  V30 7217 C 675.099 -3.51098 2.3878 0
M  V30 7218 O 676.123 -2.90679 2.05874 0
M  V30 7219 O 674.982 -4.60028 2.9502 0
M  V30 7220 H 672.076 -0.714692 0.416106 0
M  V30 7221 H 674.622 -0.943517 1.41053 0
M  V30 7222 H 673.394 -2.44386 3.05599 0
M  V30 7223 H 673.017 -3.5658 1.75887 0
M  V30 7224 N 674.014 -1.12206 -1.10668 0
M  V30 7225 C 675.425 -0.890657 -1.64086 0
M  V30 7226 C 675.776 0.575502 -1.8757 0
M  V30 7227 O 674.901 1.4394 -1.61587 0
M  V30 7228 C 675.496 -1.61029 -2.98085 0
M  V30 7229 C 674.055 -1.4251 -3.48379 0
M  V30 7230 C 673.202 -1.64778 -2.23033 0
M  V30 7231 H 676.153 -1.27718 -0.94201 0
M  V30 7232 H 676.174 -1.05993 -3.65439 0
M  V30 7233 H 675.686 -2.67735 -2.80962 0
M  V30 7234 H 673.787 -0.380497 -3.70652 0
M  V30 7235 H 673.9 -2.17959 -4.26651 0
M  V30 7236 H 672.264 -1.07171 -2.31055 0
M  V30 7237 H 673.047 -2.72776 -2.08443 0
M  V30 7238 N 675.492 1.28418 -0.913599 0
M  V30 7239 C 676.425 2.25557 -0.346328 0
M  V30 7240 C 677.403 1.53038 0.549366 0
M  V30 7241 O 678.587 1.81937 0.493055 0
M  V30 7242 C 675.714 3.34915 0.504961 0
M  V30 7243 C 674.76 4.25257 -0.325334 0
M  V30 7244 S 675.593 5.06718 -1.73198 0
M  V30 7245 C 676.749 6.19569 -0.887988 0
M  V30 7246 H 676.982 2.73325 -1.16965 0
M  V30 7247 H 674.515 1.36855 -0.714841 0
M  V30 7248 H 676.473 3.98376 0.990301 0
M  V30 7249 H 675.134 2.85814 1.30267 0
M  V30 7250 H 674.327 5.02947 0.325589 0
M  V30 7251 H 673.929 3.66519 -0.744321 0
M  V30 7252 H 676.221 6.77398 -0.117568 0
M  V30 7253 H 677.164 6.88908 -1.63742 0
M  V30 7254 H 677.572 5.62812 -0.436228 0
M  V30 7255 N 676.97 0.677563 1.42291 0
M  V30 7256 C 677.903 -0.0492638 2.28147 0
M  V30 7257 C 678.881 -0.805936 1.41221 0
M  V30 7258 O 680.065 -0.80049 1.70659 0
M  V30 7259 C 677.192 -1.07697 3.21122 0
M  V30 7260 C 676.238 -0.41556 4.24471 0
M  V30 7261 S 677.071 0.828876 5.29046 0
M  V30 7262 C 678.227 -0.197687 6.25588 0
M  V30 7263 H 678.46 0.678965 2.89443 0
M  V30 7264 H 675.993 0.467201 1.47162 0
M  V30 7265 H 677.951 -1.66482 3.75225 0
M  V30 7266 H 676.612 -1.77766 2.58956 0
M  V30 7267 H 675.805 -1.19112 4.89723 0
M  V30 7268 H 675.407 0.0987632 3.7387 0
M  V30 7269 H 677.699 -1.05656 6.69211 0
M  V30 7270 H 678.642 0.420437 7.06851 0
M  V30 7271 H 679.05 -0.544401 5.61869 0
M  V30 7272 N 678.448 -1.51871 0.421078 0
M  V30 7273 C 679.358 -2.31077 -0.405069 0
M  V30 7274 C 680.374 -1.39301 -1.04265 0
M  V30 7275 O 681.55 -1.72376 -1.04157 0
M  V30 7276 C 678.615 -3.12556 -1.50032 0
M  V30 7277 C 677.676 -4.20088 -0.884559 0
M  V30 7278 C 676.909 -4.97673 -1.92762 0
M  V30 7279 O 677.132 -4.75696 -3.14753 0
M  V30 7280 O 676.066 -5.82203 -1.52719 0
M  V30 7281 H 679.892 -3.02742 0.241086 0
M  V30 7282 H 677.477 -1.48263 0.183991 0
M  V30 7283 H 679.359 -3.6326 -2.13589 0
M  V30 7284 H 678.034 -2.43672 -2.13086 0
M  V30 7285 H 676.941 -3.73502 -0.211379 0
M  V30 7286 H 678.274 -4.91298 -0.297763 0
M  V30 7287 N 679.926 -0.151884 -1.56866 0
M  V30 7288 C 681.342 0.204486 -1.58285 0
M  V30 7289 C 681.542 1.6431 -1.16639 0
M  V30 7290 O 680.598 2.37077 -0.868946 0
M  V30 7291 C 681.911 -0.0587019 -3.00643 0
M  V30 7292 C 683.459 0.00462303 -3.13 0
M  V30 7293 C 683.934 -0.231297 -4.57416 0
M  V30 7294 N 685.425 -0.178394 -4.62856 0
M  V30 7295 C 686.16 -0.335379 -5.72418 0
M  V30 7296 N 685.656 -0.550355 -6.90611 0
M  V30 7297 N 687.449 -0.272641 -5.61438 0
M  V30 7298 H 679.6 -1.09116 -1.82229 0
M  V30 7299 H 681.863 -0.432311 -0.843689 0
M  V30 7300 H 681.569 -1.05453 -3.35518 0
M  V30 7301 H 681.443 0.658508 -3.71407 0
M  V30 7302 H 683.83 0.991009 -2.77962 0
M  V30 7303 H 683.911 -0.744992 -2.44711 0
M  V30 7304 H 683.555 -1.2148 -4.93158 0
M  V30 7305 H 683.485 0.5387 -5.23837 0
M  V30 7306 H 685.976 -0.0170923 -3.77896 0
M  V30 7307 H 686.289 -0.660116 -7.69976 0
M  V30 7308 H 684.634 -0.586736 -6.92519 0
M  V30 7309 H 687.825 -0.105421 -4.67981 0
M  V30 7310 H 687.998 -0.398418 -6.46774 0
M  V30 7311 N 681.404 1.57128 0.121893 0
M  V30 7312 C 682.314 2.03425 1.16857 0
M  V30 7313 C 683.33 0.954108 1.45509 0
M  V30 7314 O 684.506 1.26541 1.56682 0
M  V30 7315 C 681.571 2.42685 2.47599 0
M  V30 7316 C 680.632 3.64767 2.2637 0
M  V30 7317 C 679.865 4.02145 3.50878 0
M  V30 7318 O 680.088 3.39897 4.58068 0
M  V30 7319 O 679.022 4.95262 3.42051 0
M  V30 7320 H 682.848 2.92825 0.80544 0
M  V30 7321 H 680.433 1.45654 0.332477 0
M  V30 7322 H 682.315 2.68684 3.24634 0
M  V30 7323 H 680.99 1.56432 2.83392 0
M  V30 7324 H 679.897 3.43922 1.47203 0
M  V30 7325 H 681.23 4.51716 1.95482 0
M  V30 7326 N 682.882 -0.391992 1.52647 0
M  V30 7327 C 684.131 -1.13449 1.6677 0
M  V30 7328 C 684.444 -1.91203 0.412399 0
M  V30 7329 O 685.65 -2.68013 0.433707 0
M  V30 7330 C 684.106 -2.06577 2.9471 0
M  V30 7331 C 683.714 -1.3426 4.27409 0
M  V30 7332 C 685.458 -2.80981 3.18198 0
M  V30 7333 C 683.365 -2.26136 5.46458 0
M  V30 7334 H 682.295 -0.427211 0.621295 0
M  V30 7335 H 684.946 -0.397522 1.79142 0
M  V30 7336 H 683.328 -2.83898 2.76076 0
M  V30 7337 H 684.502 -0.621856 4.56585 0
M  V30 7338 H 682.817 -0.718279 4.10158 0
M  V30 7339 H 685.414 -3.49898 4.04321 0
M  V30 7340 H 685.757 -3.44891 2.33144 0
M  V30 7341 H 686.29 -2.10754 3.37383 0
M  V30 7342 H 683.029 -1.66846 6.33911 0
M  V30 7343 H 682.549 -2.96134 5.21598 0
M  V30 7344 H 684.228 -2.86286 5.80215 0
M  V30 7345 N 684.36 -1.4356 -0.65026 0
M  V30 7346 C 685.27 -1.514 -1.79207 0
M  V30 7347 C 686.286 -0.400895 -1.69319 0
M  V30 7348 O 687.462 -0.655458 -1.90436 0
M  V30 7349 C 684.527 -1.43737 -3.155 0
M  V30 7350 C 683.588 -2.65743 -3.37163 0
M  V30 7351 C 682.821 -2.58436 -4.66954 0
M  V30 7352 O 683.044 -1.63374 -5.46503 0
M  V30 7353 O 681.978 -3.48984 -4.90402 0
M  V30 7354 H 685.804 -2.47825 -1.75547 0
M  V30 7355 H 683.389 -1.25594 -0.809111 0
M  V30 7356 H 685.271 -1.41916 -3.96784 0
M  V30 7357 H 683.946 -0.504488 -3.19745 0
M  V30 7358 H 682.853 -2.73136 -2.55632 0
M  V30 7359 H 684.186 -3.58014 -3.37768 0
M  V30 7360 N 685.838 0.888903 -1.30139 0
M  V30 7361 C 686.748 2.02705 -1.18101 0
M  V30 7362 C 687.764 1.73702 -0.101809 0
M  V30 7363 O 688.94 1.98906 -0.315984 0
M  V30 7364 C 686.005 3.35616 -0.869651 0
M  V30 7365 C 685.066 3.78067 -2.03381 0
M  V30 7366 C 684.299 5.04635 -1.73721 0
M  V30 7367 O 684.522 5.66531 -0.663267 0
M  V30 7368 O 683.456 5.43399 -2.58845 0
M  V30 7369 H 687.282 2.15788 -2.13704 0
M  V30 7370 H 684.867 1.01426 -1.09695 0
M  V30 7371 H 686.749 4.15358 -0.711043 0
M  V30 7372 H 685.424 3.23651 0.0565002 0
M  V30 7373 H 684.331 2.99046 -2.24772 0
M  V30 7374 H 685.664 3.94631 -2.94155 0
M  V30 7375 N 687.317 1.12792 1.10072 0
M  V30 7376 C 688.247 0.821688 2.18565 0
M  V30 7377 C 689.228 -0.21612 1.68721 0
M  V30 7378 O 690.413 -0.0764932 1.94049 0
M  V30 7379 C 687.543 0.279624 3.46172 0
M  V30 7380 C 686.497 1.25092 4.09312 0
M  V30 7381 C 685.823 0.568916 5.31665 0
M  V30 7382 C 687.123 2.60699 4.52585 0
M  V30 7383 H 688.817 1.72888 2.44438 0
M  V30 7384 H 686.363 0.832702 1.17482 0
M  V30 7385 H 688.316 0.053099 4.21367 0
M  V30 7386 H 687.04 -0.662929 3.19801 0
M  V30 7387 H 685.699 1.46332 3.36129 0
M  V30 7388 H 685.347 -0.378898 5.01571 0
M  V30 7389 H 685.047 1.21687 5.74862 0
M  V30 7390 H 686.571 0.351517 6.09587 0
M  V30 7391 H 687.985 2.43465 5.19035 0
M  V30 7392 H 686.382 3.21608 5.06644 0
M  V30 7393 H 687.452 3.1886 3.65317 0
M  V30 7394 N 688.795 -1.27931 0.920396 0
M  V30 7395 C 690.211 -1.47085 0.619537 0
M  V30 7396 C 690.411 -1.83463 -0.833291 0
M  V30 7397 O 689.467 -1.94363 -1.61181 0
M  V30 7398 C 690.78 -2.56878 1.56314 0
M  V30 7399 C 692.328 -2.70743 1.57058 0
M  V30 7400 C 692.803 -3.83687 2.50097 0
M  V30 7401 N 694.294 -3.9105 2.48262 0
M  V30 7402 C 695.029 -4.77842 3.16945 0
M  V30 7403 N 694.525 -5.69176 3.94982 0
M  V30 7404 N 696.318 -4.71509 3.06 0
M  V30 7405 H 688.469 -1.02601 1.85975 0
M  V30 7406 H 690.732 -0.511682 0.798051 0
M  V30 7407 H 690.438 -2.36923 2.59923 0
M  V30 7408 H 690.312 -3.54117 1.29928 0
M  V30 7409 H 692.699 -2.90083 0.541832 0
M  V30 7410 H 692.78 -1.74015 1.8749 0
M  V30 7411 H 692.424 -3.65101 3.53077 0
M  V30 7412 H 692.354 -4.79827 2.16964 0
M  V30 7413 H 694.845 -3.25738 1.91581 0
M  V30 7414 H 695.158 -6.32245 4.44394 0
M  V30 7415 H 693.503 -5.68995 3.99086 0
M  V30 7416 H 696.694 -3.99151 2.44533 0
M  V30 7417 H 696.867 -5.38933 3.59799 0
M  V30 7418 N 690.273 -0.685099 -1.4193 0
M  V30 7419 C 691.205 0.0258679 -2.29185 0
M  V30 7420 C 692.218 0.755076 -1.44231 0
M  V30 7421 O 693.407 0.60752 -1.67844 0
M  V30 7422 C 690.507 1.06055 -3.21878 0
M  V30 7423 C 689.68 0.403088 -4.35539 0
M  V30 7424 C 688.739 1.33895 -5.0888 0
M  V30 7425 O 687.765 0.835326 -5.63037 0
M  V30 7426 N 688.967 2.6718 -5.15359 0
M  V30 7427 H 691.732 -0.723201 -2.90843 0
M  V30 7428 H 689.293 -0.53031 -1.52968 0
M  V30 7429 H 691.285 1.68813 -3.6781 0
M  V30 7430 H 689.855 1.71126 -2.616 0
M  V30 7431 H 689.075 -0.404185 -3.92122 0
M  V30 7432 H 690.363 -0.0545098 -5.08771 0
M  V30 7433 H 689.761 3.10626 -4.72788 0
M  V30 7434 H 688.318 3.25159 -5.64903 0
M  V30 7435 N 691.751 1.51645 -0.429126 0
M  V30 7436 C 693.167 1.59394 -0.080994 0
M  V30 7437 C 693.367 1.44064 1.40882 0
M  V30 7438 O 692.423 1.27771 2.17786 0
M  V30 7439 C 693.736 2.94779 -0.593773 0
M  V30 7440 C 695.284 3.08067 -0.553494 0
M  V30 7441 C 695.759 4.45963 -1.04311 0
M  V30 7442 N 697.25 4.5226 -1.00076 0
M  V30 7443 C 697.985 5.57268 -1.35056 0
M  V30 7444 N 697.481 6.69734 -1.77282 0
M  V30 7445 N 699.274 5.47582 -1.26925 0
M  V30 7446 H 691.425 1.59856 -1.39857 0
M  V30 7447 H 693.688 0.753095 -0.575805 0
M  V30 7448 H 693.394 3.11342 -1.63583 0
M  V30 7449 H 693.268 3.77197 -0.0142202 0
M  V30 7450 H 695.655 2.91177 0.479556 0
M  V30 7451 H 695.736 2.27508 -1.16935 0
M  V30 7452 H 695.38 4.63598 -2.07459 0
M  V30 7453 H 695.31 5.25049 -0.403873 0
M  V30 7454 H 697.801 3.71537 -0.690564 0
M  V30 7455 H 698.114 7.4587 -2.02232 0
M  V30 7456 H 696.459 6.70963 -1.81202 0
M  V30 7457 H 699.65 4.58604 -0.93809 0
M  V30 7458 H 699.823 6.29308 -1.54516 0
M  V30 7459 N 693.229 0.160201 1.56784 0
M  V30 7460 C 694.459 -0.493449 2.00621 0
M  V30 7461 C 694.867 -1.5809 1.03943 0
M  V30 7462 O 694.21 -1.83675 0.0305343 0
M  V30 7463 C 694.272 -1.14169 3.4089 0
M  V30 7464 C 693.936 -0.197243 4.56574 0
M  V30 7465 C 694.933 0.580174 5.16653 0
M  V30 7466 C 692.618 -0.0963038 5.02208 0
M  V30 7467 C 694.612 1.44584 6.20785 0
M  V30 7468 C 692.299 0.772959 6.06192 0
M  V30 7469 C 693.297 1.54263 6.65351 0
M  V30 7470 O 692.985 2.39738 7.67321 0
M  V30 7471 H 692.717 -0.131764 0.663034 0
M  V30 7472 H 695.271 0.255728 2.03802 0
M  V30 7473 H 693.501 -1.93877 3.34587 0
M  V30 7474 H 695.19 -1.69641 3.6875 0
M  V30 7475 H 695.956 0.5123 4.82287 0
M  V30 7476 H 691.835 -0.685143 4.5588 0
M  V30 7477 H 695.379 2.04706 6.66889 0
M  V30 7478 H 691.276 0.842077 6.39984 0
M  V30 7479 H 692.044 2.33131 7.84597 0
M  V30 7480 N 694.707 -1.5719 -0.113559 0
M  V30 7481 C 695.935 -1.89328 -0.834422 0
M  V30 7482 C 696.35 -0.752018 -1.73177 0
M  V30 7483 O 695.707 0.276912 -1.80387 0
M  V30 7484 C 695.758 -3.20962 -1.66329 0
M  V30 7485 O 695.479 -4.30695 -0.802069 0
M  V30 7486 C 696.98 -3.6684 -2.48884 0
M  V30 7487 H 694.2 -0.626769 -0.239587 0
M  V30 7488 H 696.744 -2.04273 -0.0963195 0
M  V30 7489 H 694.899 -3.0767 -2.35409 0
M  V30 7490 H 695.313 -5.06175 -1.37431 0
M  V30 7491 H 696.787 -4.61692 -3.02563 0
M  V30 7492 H 697.264 -2.93765 -3.26495 0
M  V30 7493 H 697.87 -3.82938 -1.85036 0
M  V30 7494 N 696.185 0.383891 -1.52853 0
M  V30 7495 C 697.148 1.45197 -1.77343 0
M  V30 7496 C 698.148 1.47362 -0.643522 0
M  V30 7497 O 699.338 1.48443 -0.911613 0
M  V30 7498 C 696.47 2.8445 -1.87885 0
M  V30 7499 H 697.663 1.24764 -2.72716 0
M  V30 7500 H 695.216 0.615939 -1.43652 0
M  V30 7501 H 695.951 3.10222 -0.94515 0
M  V30 7502 H 695.736 2.8428 -2.70051 0
M  V30 7503 H 697.226 3.61832 -2.08488 0
M  V30 7504 N 697.663 1.43903 0.642637 0
M  V30 7505 C 698.61 1.49881 1.75512 0
M  V30 7506 C 699.58 0.347538 1.62423 0
M  V30 7507 O 700.765 0.556177 1.82514 0
M  V30 7508 C 697.905 1.43797 3.13714 0
M  V30 7509 C 697.018 2.6921 3.37861 0
M  V30 7510 C 696.153 2.5504 4.6597 0
M  V30 7511 C 695.192 3.75671 4.83257 0
M  V30 7512 N 694.329 3.60247 6.02633 0
M  V30 7513 H 699.169 2.44935 1.69737 0
M  V30 7514 H 696.706 1.21572 0.828165 0
M  V30 7515 H 698.664 1.38262 3.93624 0
M  V30 7516 H 697.294 0.523173 3.18532 0
M  V30 7517 H 696.346 2.8498 2.51973 0
M  V30 7518 H 697.658 3.58786 3.46517 0
M  V30 7519 H 696.812 2.47273 5.54023 0
M  V30 7520 H 695.551 1.63006 4.59653 0
M  V30 7521 H 694.556 3.83836 3.93637 0
M  V30 7522 H 695.781 4.68728 4.91397 0
M  V30 7523 H 693.727 2.70955 5.97427 0
M  V30 7524 H 693.644 4.43431 6.12295 0
M  V30 7525 H 694.912 3.56351 6.93278 0
M  V30 7526 N 699.141 -0.881989 1.30609 0
M  V30 7527 C 700.557 -1.16576 1.09005 0
M  V30 7528 C 700.757 -2.00961 -0.14727 0
M  V30 7529 O 699.813 -2.38117 -0.840036 0
M  V30 7530 C 701.126 -1.86954 2.35518 0
M  V30 7531 C 702.674 -1.99706 2.41011 0
M  V30 7532 C 703.149 -2.73497 3.67374 0
M  V30 7533 N 704.64 -2.8104 3.68199 0
M  V30 7534 C 705.375 -3.38718 4.62664 0
M  V30 7535 N 704.871 -3.97421 5.67475 0
M  V30 7536 N 706.664 -3.36561 4.50203 0
M  V30 7537 H 698.815 -0.319398 2.09985 0
M  V30 7538 H 701.078 -0.204058 0.925778 0
M  V30 7539 H 700.784 -1.32393 3.2583 0
M  V30 7540 H 700.658 -2.87317 2.44395 0
M  V30 7541 H 703.045 -2.53436 1.51176 0
M  V30 7542 H 703.126 -0.984218 2.36108 0
M  V30 7543 H 702.77 -2.20438 4.57569 0
M  V30 7544 H 702.7 -3.75163 3.6954 0
M  V30 7545 H 705.191 -2.39365 2.92426 0
M  V30 7546 H 705.504 -4.39507 6.35652 0
M  V30 7547 H 703.849 -3.95832 5.71264 0
M  V30 7548 H 707.04 -2.8993 3.67503 0
M  V30 7549 H 707.213 -3.81215 5.24003 0
M  V30 7550 N 700.619 -1.13374 -1.09472 0
M  V30 7551 C 701.551 -0.768466 -2.15933 0
M  V30 7552 C 702.564 0.209585 -1.61445 0
M  V30 7553 O 703.753 -0.010539 -1.78497 0
M  V30 7554 C 700.853 -0.118266 -3.38694 0
M  V30 7555 C 700.026 -1.12829 -4.22597 0
M  V30 7556 C 699.085 -0.503875 -5.23782 0
M  V30 7557 O 698.111 -1.16374 -5.57177 0
M  V30 7558 N 699.313 0.724288 -5.75964 0
M  V30 7559 H 702.078 -1.68457 -2.47876 0
M  V30 7560 H 699.639 -1.02668 -1.25183 0
M  V30 7561 H 701.631 0.311698 -4.03498 0
M  V30 7562 H 700.201 0.700769 -3.04644 0
M  V30 7563 H 699.421 -1.73556 -3.53938 0
M  V30 7564 H 700.709 -1.81095 -4.75481 0
M  V30 7565 H 700.107 1.27918 -5.51048 0
M  V30 7566 H 698.664 1.09692 -6.42504 0
M  V30 7567 N 702.098 1.27442 -0.927168 0
M  V30 7568 C 703.509 1.76385 -0.611979 0
M  V30 7569 C 703.86 1.75715 0.872853 0
M  V30 7570 O 702.985 1.3603 1.683 0
M  V30 7571 C 703.58 3.20303 -1.10414 0
M  V30 7572 C 702.139 3.66916 -0.839628 0
M  V30 7573 C 701.286 2.46859 -1.26317 0
M  V30 7574 H 704.237 1.13716 -1.107 0
M  V30 7575 H 704.258 3.77811 -0.451578 0
M  V30 7576 H 703.77 3.20759 -2.18484 0
M  V30 7577 H 701.871 3.71906 0.227292 0
M  V30 7578 H 701.984 4.56415 -1.45679 0
M  V30 7579 H 700.348 2.45407 -0.681723 0
M  V30 7580 H 701.131 2.50025 -2.3525 0
M  V30 7581 N 703.576 0.692616 1.41565 0
M  V30 7582 C 704.825 0.219452 2.00503 0
M  V30 7583 C 705.138 -1.18683 1.55479 0
M  V30 7584 O 706.344 -1.75731 2.06956 0
M  V30 7585 C 704.8 0.341451 3.58277 0
M  V30 7586 C 704.408 1.75291 4.12283 0
M  V30 7587 C 706.152 -0.0720899 4.24439 0
M  V30 7588 C 704.059 1.82673 5.62481 0
M  V30 7589 H 702.989 0.0782874 0.749925 0
M  V30 7590 H 705.64 0.860386 1.62079 0
M  V30 7591 H 704.022 -0.367683 3.94289 0
M  V30 7592 H 705.196 2.49057 3.87695 0
M  V30 7593 H 703.511 2.11587 3.58636 0
M  V30 7594 H 706.108 -0.0373385 5.34687 0
M  V30 7595 H 706.451 -1.11034 4.0122 0
M  V30 7596 H 706.984 0.586663 3.9345 0
M  V30 7597 H 703.723 2.84539 5.90523 0
M  V30 7598 H 703.243 1.13288 5.89004 0
M  V30 7599 H 704.922 1.58827 6.27203 0
M  V30 7600 N 705.054 -1.51416 0.437162 0
M  V30 7601 C 705.984 -2.30631 -0.364922 0
M  V30 7602 C 706.965 -1.36037 -1.02118 0
M  V30 7603 O 708.15 -1.64956 -1.02485 0
M  V30 7604 C 705.28 -3.1482 -1.46648 0
M  V30 7605 C 704.234 -4.17691 -0.933717 0
M  V30 7606 C 703.56 -4.904 -2.13101 0
M  V30 7607 C 704.86 -5.2229 0.0317201 0
M  V30 7608 H 706.554 -2.97932 0.29614 0
M  V30 7609 H 704.1 -1.4328 0.143865 0
M  V30 7610 H 706.053 -3.69017 -2.03481 0
M  V30 7611 H 704.777 -2.4534 -2.15583 0
M  V30 7612 H 703.436 -3.64545 -0.387602 0
M  V30 7613 H 703.084 -4.17423 -2.80654 0
M  V30 7614 H 702.784 -5.59962 -1.78092 0
M  V30 7615 H 704.308 -5.4742 -2.70487 0
M  V30 7616 H 705.722 -5.7156 -0.446302 0
M  V30 7617 H 704.119 -5.99378 0.29437 0
M  V30 7618 H 705.189 -4.75131 0.968447 0
M  V30 7619 N 706.532 -0.168513 -1.56696 0
M  V30 7620 C 707.809 0.523367 -1.88468 0
M  V30 7621 C 708.189 1.81503 -1.07796 0
M  V30 7622 O 707.537 2.27859 -0.171045 0
M  V30 7623 C 707.747 0.767991 -3.40445 0
M  V30 7624 C 709.095 1.09924 -4.10124 0
M  V30 7625 O 710.119 0.856625 -3.45746 0
M  V30 7626 O 708.978 1.55681 -5.23856 0
M  V30 7627 H 706.072 0.269447 -0.781874 0
M  V30 7628 H 708.618 -0.206739 -1.68436 0
M  V30 7629 H 707.39 -0.145254 -3.9103 0
M  V30 7630 H 707.013 1.55151 -3.66079 0
M  V30 7631 N 708.01 1.57248 0.105221 0
M  V30 7632 C 708.973 2.00388 1.11252 0
M  V30 7633 C 709.973 0.89594 1.33527 0
M  V30 7634 O 711.163 1.16166 1.29811 0
M  V30 7635 C 708.295 2.35589 2.46395 0
M  V30 7636 H 709.488 2.90591 0.741424 0
M  V30 7637 H 707.041 1.52332 0.349956 0
M  V30 7638 H 707.776 1.4831 2.884 0
M  V30 7639 H 707.561 3.16408 2.31578 0
M  V30 7640 H 709.051 2.69658 3.18864 0
M  V30 7641 N 709.488 -0.375779 1.53054 0
M  V30 7642 C 710.421 -1.48187 1.7354 0
M  V30 7643 C 711.399 -1.5177 0.583495 0
M  V30 7644 O 712.583 -1.69976 0.81488 0
M  V30 7645 C 709.71 -2.86598 1.80497 0
M  V30 7646 C 708.756 -3.00784 3.02376 0
M  V30 7647 S 709.589 -2.70601 4.62099 0
M  V30 7648 C 710.745 -4.11181 4.71891 0
M  V30 7649 H 710.978 -1.30587 2.67085 0
M  V30 7650 H 708.511 -0.569485 1.43514 0
M  V30 7651 H 710.469 -3.66353 1.85192 0
M  V30 7652 H 709.13 -3.01514 0.880217 0
M  V30 7653 H 708.323 -4.02128 3.03824 0
M  V30 7654 H 707.925 -2.28939 2.95742 0
M  V30 7655 H 710.217 -5.0529 4.51319 0
M  V30 7656 H 711.16 -4.14742 5.73929 0
M  V30 7657 H 711.568 -3.97706 4.00612 0
M  V30 7658 N 710.966 -1.44241 -0.634997 0
M  V30 7659 C 712.243 -1.37296 -1.39317 0
M  V30 7660 C 712.623 -0.0297532 -2.11079 0
M  V30 7661 O 711.971 0.987524 -2.06059 0
M  V30 7662 C 712.181 -2.56853 -2.36279 0
M  V30 7663 C 713.529 -3.00747 -2.99728 0
M  V30 7664 O 714.553 -2.5703 -2.46605 0
M  V30 7665 O 713.412 -3.76533 -3.96087 0
M  V30 7666 H 710.506 -0.543503 -0.623325 0
M  V30 7667 H 713.052 -1.56324 -0.660376 0
M  V30 7668 H 711.824 -3.46228 -1.82324 0
M  V30 7669 H 711.447 -2.40019 -3.16981 0
M  V30 7670 N 712.444 0.87505 -1.31075 0
M  V30 7671 C 713.407 1.96333 -1.18263 0
M  V30 7672 C 714.407 1.60416 -0.111106 0
M  V30 7673 O 715.597 1.7044 -0.359987 0
M  V30 7674 C 712.729 3.31036 -0.81414 0
M  V30 7675 H 713.922 2.09125 -2.14958 0
M  V30 7676 H 711.475 1.06271 -1.14614 0
M  V30 7677 H 712.21 3.23944 0.151875 0
M  V30 7678 H 711.995 3.58476 -1.58862 0
M  V30 7679 H 713.485 4.10842 -0.748249 0
M  V30 7680 N 713.922 1.13953 1.08869 0
M  V30 7681 C 714.869 0.82213 2.15661 0
M  V30 7682 C 715.839 -0.218274 1.6466 0
M  V30 7683 O 717.024 -0.0892475 1.90591 0
M  V30 7684 C 714.164 0.300572 3.43789 0
M  V30 7685 C 713.277 1.40071 4.08661 0
M  V30 7686 C 712.412 0.836897 5.24566 0
M  V30 7687 C 711.451 1.91504 5.81371 0
M  V30 7688 N 710.588 1.36875 6.88629 0
M  V30 7689 H 715.428 1.73683 2.42153 0
M  V30 7690 H 712.965 0.866879 1.18843 0
M  V30 7691 H 714.923 -0.0199943 4.17195 0
M  V30 7692 H 713.553 -0.577248 3.17597 0
M  V30 7693 H 712.605 1.83776 3.33062 0
M  V30 7694 H 713.917 2.21534 4.46905 0
M  V30 7695 H 713.071 0.467953 6.04893 0
M  V30 7696 H 711.81 -0.00874207 4.87699 0
M  V30 7697 H 710.815 2.29299 4.99702 0
M  V30 7698 H 712.04 2.76419 6.20298 0
M  V30 7699 H 709.986 0.545211 6.5373 0
M  V30 7700 H 709.903 2.1198 7.25672 0
M  V30 7701 H 711.171 1.02756 7.72698 0
M  V30 7702 N 715.4 -1.26948 0.933913 0
M  V30 7703 C 716.347 -2.26635 0.436484 0
M  V30 7704 C 717.317 -1.58397 -0.499953 0
M  V30 7705 O 718.502 -1.86171 -0.417753 0
M  V30 7706 C 715.642 -3.43803 -0.298951 0
M  V30 7707 C 714.755 -4.26736 0.672316 0
M  V30 7708 C 713.89 -5.31134 -0.0835872 0
M  V30 7709 C 712.929 -6.05742 0.879979 0
M  V30 7710 N 712.066 -7.01926 0.156301 0
M  V30 7711 H 716.906 -2.68558 1.29154 0
M  V30 7712 H 714.443 -1.32052 0.648118 0
M  V30 7713 H 716.401 -4.10554 -0.741723 0
M  V30 7714 H 715.031 -3.02814 -1.1182 0
M  V30 7715 H 714.083 -3.59842 1.23361 0
M  V30 7716 H 715.395 -4.78502 1.40846 0
M  V30 7717 H 714.549 -6.03863 -0.585984 0
M  V30 7718 H 713.288 -4.80188 -0.852661 0
M  V30 7719 H 712.293 -5.31846 1.39357 0
M  V30 7720 H 713.518 -6.58777 1.64894 0
M  V30 7721 H 711.464 -6.53301 -0.594413 0
M  V30 7722 H 711.381 -7.51409 0.831906 0
M  V30 7723 H 712.649 -7.78821 -0.325239 0
M  V30 7724 N 716.879 -0.700114 -1.41195 0
M  V30 7725 C 718.295 -0.372114 -1.55201 0
M  V30 7726 C 718.495 1.12053 -1.6747 0
M  V30 7727 O 717.551 1.90642 -1.65566 0
M  V30 7728 C 718.864 -1.12462 -2.78878 0
M  V30 7729 C 720.412 -1.10941 -2.92679 0
M  V30 7730 C 720.887 -1.84376 -4.19249 0
M  V30 7731 N 722.378 -1.81368 -4.26216 0
M  V30 7732 C 723.113 -2.35024 -5.23021 0
M  V30 7733 N 722.609 -2.9717 -6.25829 0
M  V30 7734 N 724.402 -2.25254 -5.14992 0
M  V30 7735 H 716.553 -1.66816 -1.31477 0
M  V30 7736 H 718.816 -0.704223 -0.634644 0
M  V30 7737 H 718.522 -2.17937 -2.76037 0
M  V30 7738 H 718.396 -0.706152 -3.70531 0
M  V30 7739 H 720.783 -0.062911 -2.95033 0
M  V30 7740 H 720.864 -1.56698 -2.02187 0
M  V30 7741 H 720.508 -2.89008 -4.17656 0
M  V30 7742 H 720.438 -1.3605 -5.08722 0
M  V30 7743 H 722.929 -1.36062 -3.52556 0
M  V30 7744 H 723.242 -3.35668 -6.96094 0
M  V30 7745 H 721.587 -3.01249 -6.26318 0
M  V30 7746 H 724.778 -1.76372 -4.33602 0
M  V30 7747 H 724.951 -2.67373 -5.90268 0
M  V30 7748 N 718.357 1.51182 -0.445186 0
M  V30 7749 C 719.773 1.59299 -0.0978954 0
M  V30 7750 C 719.973 1.4555 1.39346 0
M  V30 7751 O 719.029 1.30073 2.16419 0
M  V30 7752 C 720.342 2.94133 -0.625005 0
M  V30 7753 C 721.89 3.07463 -0.586137 0
M  V30 7754 C 722.365 4.44832 -1.09035 0
M  V30 7755 N 723.856 4.51173 -1.04867 0
M  V30 7756 C 724.591 5.55804 -1.40959 0
M  V30 7757 N 724.087 6.67816 -1.84375 0
M  V30 7758 N 725.88 5.46205 -1.32726 0
M  V30 7759 H 718.031 1.58363 -1.41544 0
M  V30 7760 H 720.294 0.746946 -0.58376 0
M  V30 7761 H 720 3.09589 -1.66876 0
M  V30 7762 H 719.874 3.77161 -0.0542262 0
M  V30 7763 H 722.261 2.9167 0.448646 0
M  V30 7764 H 722.342 2.26255 -1.19341 0
M  V30 7765 H 721.986 4.61372 -2.12364 0
M  V30 7766 H 721.916 5.24591 -0.459539 0
M  V30 7767 H 724.407 3.70783 -0.729932 0
M  V30 7768 H 724.72 7.43683 -2.10131 0
M  V30 7769 H 723.065 6.69003 -1.88308 0
M  V30 7770 H 726.256 4.57583 -0.986678 0
M  V30 7771 H 726.429 6.27634 -1.61182 0
M  V30 7772 N 719.835 0.176821 1.56605 0
M  V30 7773 C 720.767 -0.782836 2.15417 0
M  V30 7774 C 721.78 -1.18982 1.11117 0
M  V30 7775 O 722.969 -1.12872 1.38283 0
M  V30 7776 C 720.069 -2.06596 2.68647 0
M  V30 7777 C 719.242 -1.82167 3.9766 0
M  V30 7778 C 718.301 -2.94751 4.35899 0
M  V30 7779 O 717.327 -2.65148 5.03672 0
M  V30 7780 N 718.529 -4.2267 3.97907 0
M  V30 7781 H 721.294 -0.280012 2.98389 0
M  V30 7782 H 718.855 -0.00577529 1.61899 0
M  V30 7783 H 720.847 -2.81018 2.91223 0
M  V30 7784 H 719.417 -2.48054 1.90232 0
M  V30 7785 H 718.637 -0.916208 3.83405 0
M  V30 7786 H 719.925 -1.6322 4.81909 0
M  V30 7787 H 719.323 -4.4958 3.43357 0
M  V30 7788 H 717.88 -4.93778 4.25472 0
M  V30 7789 N 721.313 -1.57302 -0.09688 0
M  V30 7790 C 722.245 -1.98618 -1.14384 0
M  V30 7791 C 723.258 -0.888483 -1.36418 0
M  V30 7792 O 724.447 -1.16661 -1.35101 0
M  V30 7793 C 721.547 -2.28838 -2.49973 0
M  V30 7794 C 720.72 -3.60132 -2.48241 0
M  V30 7795 C 719.779 -3.7831 -3.65743 0
M  V30 7796 O 718.805 -4.50183 -3.48316 0
M  V30 7797 N 720.007 -3.18752 -4.85157 0
M  V30 7798 H 722.772 -2.8904 -0.792202 0
M  V30 7799 H 720.333 -1.59356 -0.285883 0
M  V30 7800 H 722.325 -2.38193 -3.27179 0
M  V30 7801 H 720.895 -1.44431 -2.77233 0
M  V30 7802 H 720.115 -3.61763 -1.56593 0
M  V30 7803 H 721.403 -4.46389 -2.4416 0
M  V30 7804 H 720.801 -2.60368 -5.0222 0
M  V30 7805 H 719.358 -3.33595 -5.59962 0
M  V30 7806 N 722.791 0.367657 -1.53252 0
M  V30 7807 C 723.739 1.47061 -1.8021 0
M  V30 7808 C 724.733 1.55539 -0.671112 0
M  V30 7809 O 725.939 1.58451 -0.854014 0
M  V30 7810 H 722.314 0.489868 -0.570555 0
M  V30 7811 H 724.285 1.21527 -2.72532 0
M  V30 7812 C 723.034 2.83924 -2.00706 0
M  V30 7813 H 722.357 2.78158 -2.87172 0
M  V30 7814 H 723.797 3.60281 -2.23547 0
M  V30 7815 C 722.256 3.27613 -0.785568 0
M  V30 7816 O 722.786 4.01691 0.0267459 0
M  V30 7817 N 720.992 2.84134 -0.609597 0
M  V30 7818 H 720.539 2.24017 -1.27178 0
M  V30 7819 H 720.497 3.13723 0.206281 0
M  V30 7820 N 724.269 1.44576 0.627338 0
M  V30 7821 C 725.516 1.47558 1.38682 0
M  V30 7822 C 725.844 0.109636 1.94191 0
M  V30 7823 O 725.099 -0.889092 1.74338 0
M  V30 7824 C 725.398 2.48644 2.56731 0
M  V30 7825 C 725.064 3.93873 2.19489 0
M  V30 7826 C 723.726 4.33421 2.09045 0
M  V30 7827 C 726.078 4.85286 1.90124 0
M  V30 7828 C 723.406 5.62303 1.6743 0
M  V30 7829 C 725.758 6.14559 1.50001 0
M  V30 7830 C 724.422 6.53058 1.38101 0
M  V30 7831 H 723.692 0.539955 0.507474 0
M  V30 7832 H 726.339 1.77811 0.711021 0
M  V30 7833 H 724.644 2.11889 3.29561 0
M  V30 7834 H 726.341 2.48197 3.14959 0
M  V30 7835 H 722.931 3.62587 2.28537 0
M  V30 7836 H 727.115 4.55483 1.971 0
M  V30 7837 H 722.371 5.90945 1.56823 0
M  V30 7838 H 726.545 6.84848 1.26319 0
M  V30 7839 H 724.172 7.52826 1.05628 0
M  V30 7840 O 725.786 -0.770871 1.41915 0
M  V30 7841 H 726.477 -1.41834 1.31919 0
M  V30 END ATOM
M  V30 BEGIN BOND
M  V30 END BOND
M  V30 END CTAB
M  END
$$$$
