drugbank_target|Q9UK17 Potassium voltage-gated channel subfamily D member 3 (DB00280; DB00458; DB01115; DB04855; DB06217; DB06637; DB11633)
 OpenBabel12092120353D

  0  0  0     0  0            999 V3000
M  V30 BEGIN CTAB
M  V30 COUNTS 10307 10428 0 0 0
M  V30 BEGIN ATOM
M  V30 1 H -0.908 1.98254 -0.117106 0
M  V30 2 N 0 1.576 0 0
M  V30 3 C 0.933 2.03868 1.02534 0
M  V30 4 C 1.911 0.928543 1.3348 0
M  V30 5 O 3.095 1.19667 1.45644 0
M  V30 6 C 0.222 2.43627 2.35294 0
M  V30 7 C -0.732 3.65373 2.2001 0
M  V30 8 S 0.101 5.13292 1.52614 0
M  V30 9 C 1.257 5.56322 2.86805 0
M  V30 10 H 1.49 2.90518 0.631377 0
M  V30 11 H -0.977 1.52953 0.210867 0
M  V30 12 H 0.981 2.67203 3.11629 0
M  V30 13 H -0.358 1.57376 2.7183 0
M  V30 14 H -1.165 3.90944 3.18086 0
M  V30 15 H -1.563 3.418 1.51819 0
M  V30 16 H 0.729 5.58782 3.83104 0
M  V30 17 H 1.672 6.56266 2.65933 0
M  V30 18 H 2.08 4.83886 2.90714 0
M  V30 19 N 1.4781 -0.272755 1.55222 0
M  V30 20 C 2.4411 -1.32041 1.87344 0
M  V30 21 C 3.4411 -1.42342 0.74803 0
M  V30 22 O 4.6311 -1.41488 1.0162 0
M  V30 23 C 1.7631 -2.70173 2.07893 0
M  V30 24 H 2.9561 -1.04789 2.80997 0
M  V30 25 H 0.5091 -0.51083 1.47717 0
M  V30 26 H 1.2441 -3.02605 1.16622 0
M  V30 27 H 1.0291 -2.64082 2.89833 0
M  V30 28 H 2.5191 -3.45869 2.34017 0
M  V30 29 N 2.9562 -1.48159 -0.537278 0
M  V30 30 C 3.9192 -1.61665 -1.62472 0
M  V30 31 C 4.9192 -0.490395 -1.5314 0
M  V30 32 O 6.1092 -0.755998 -1.5694 0
M  V30 33 C 3.2412 -1.57997 -3.02076 0
M  V30 34 H 4.4342 -2.58621 -1.51839 0
M  V30 35 H 1.9872 -1.36647 -0.758771 0
M  V30 36 H 2.7222 -0.624913 -3.18222 0
M  V30 37 H 2.5072 -2.39755 -3.10258 0
M  V30 38 H 3.9972 -1.70627 -3.81151 0
M  V30 39 N 4.4343 0.785586 -1.36625 0
M  V30 40 C 5.6823 1.54057 -1.30808 0
M  V30 41 C 6.0033 1.94683 0.111157 0
M  V30 42 O 5.2733 1.65241 1.05224 0
M  V30 43 H 3.8533 0.571354 -0.481211 0
M  V30 44 H 6.5153 0.935821 -1.70963 0
M  V30 45 H 5.6113 2.44637 -1.93801 0
M  V30 46 N 5.9124 1.20967 1.01018 0
M  V30 47 C 7.1584 1.02526 1.74975 0
M  V30 48 C 7.4914 -0.4408 1.89131 0
M  V30 49 O 6.7664 -1.32718 1.42184 0
M  V30 50 C 7.0494 1.71699 3.1653 0
M  V30 51 C 6.9024 3.25791 3.10129 0
M  V30 52 C 8.2214 1.45531 4.15342 0
M  V30 53 H 5.3404 0.373863 0.635134 0
M  V30 54 H 7.9824 1.49071 1.17805 0
M  V30 55 H 6.1324 1.32128 3.65341 0
M  V30 56 H 7.8044 3.74697 2.69072 0
M  V30 57 H 6.0474 3.56363 2.47362 0
M  V30 58 H 6.7184 3.69353 4.10222 0
M  V30 59 H 9.1944 1.79872 3.75213 0
M  V30 60 H 8.0704 1.96453 5.1254 0
M  V30 61 H 8.3314 0.384237 4.40427 0
M  V30 62 N 7.3905 -1.2043 1.01659 0
M  V30 63 C 8.3535 -2.21433 0.591616 0
M  V30 64 C 9.3535 -1.57203 -0.338226 0
M  V30 65 O 10.5435 -1.73737 -0.126918 0
M  V30 66 C 7.6755 -3.40628 -0.136058 0
M  V30 67 H 8.8685 -2.60545 1.48514 0
M  V30 68 H 6.4215 -1.33893 0.806379 0
M  V30 69 H 7.1565 -3.07019 -1.04449 0
M  V30 70 H 6.9415 -3.88475 0.531917 0
M  V30 71 H 8.4315 -4.15475 -0.420735 0
M  V30 72 N 8.8686 -0.792821 -1.36206 0
M  V30 73 C 9.8316 -0.199459 -2.2833 0
M  V30 74 C 10.8316 0.605189 -1.48977 0
M  V30 75 O 12.0216 0.425685 -1.68919 0
M  V30 76 C 9.1536 0.723523 -3.33134 0
M  V30 77 H 10.3466 -1.01181 -2.82316 0
M  V30 78 H 7.8996 -0.562485 -1.45828 0
M  V30 79 H 8.6346 1.56008 -2.84309 0
M  V30 80 H 8.4196 0.148436 -3.91819 0
M  V30 81 H 9.9096 1.13344 -4.01924 0
M  V30 82 N 10.3467 1.47872 -0.545128 0
M  V30 83 C 11.5927 2.03385 -0.0247951 0
M  V30 84 C 11.9477 1.41325 1.30556 0
M  V30 85 O 11.2407 0.5552 1.8338 0
M  V30 86 C 11.4347 3.57131 0.13867 0
M  V30 87 C 11.2637 4.34097 -1.17429 0
M  V30 88 C 10.0337 4.74458 -1.73831 0
M  V30 89 C 12.2317 4.6998 -2.08861 0
M  V30 90 N 10.2137 5.3602 -2.99258 0
M  V30 91 C 11.5847 5.31719 -3.18866 0
M  V30 92 C 13.6397 4.5191 -2.09003 0
M  V30 93 C 12.3427 5.77295 -4.29096 0
M  V30 94 C 14.3687 4.98477 -3.18237 0
M  V30 95 C 13.7307 5.60253 -4.26961 0
M  V30 96 H 9.8297 0.780339 -0.050943 0
M  V30 97 H 12.4137 1.80507 -0.729753 0
M  V30 98 H 10.5847 3.79802 0.812733 0
M  V30 99 H 12.3167 3.99282 0.659976 0
M  V30 100 H 9.0717 4.56037 -1.2778 0
M  V30 101 H 9.4957 5.71355 -3.63157 0
M  V30 102 H 14.1377 4.03516 -1.26234 0
M  V30 103 H 11.8557 6.24687 -5.12633 0
M  V30 104 H 15.4417 4.86274 -3.1942 0
M  V30 105 H 14.3217 5.95631 -5.10091 0
M  V30 106 N 11.8248 0.280983 1.55075 0
M  V30 107 C 12.7548 -0.597469 2.25727 0
M  V30 108 C 13.7358 -1.15417 1.24952 0
M  V30 109 O 14.9208 -1.18722 1.53684 0
M  V30 110 C 12.0508 -1.7789 2.98283 0
M  V30 111 C 11.0048 -1.35347 4.06036 0
M  V30 112 C 10.3308 -2.61846 4.66198 0
M  V30 113 C 11.6308 -0.499354 5.19907 0
M  V30 114 H 13.3248 -0.00824265 2.99399 0
M  V30 115 H 10.8708 -0.0025244 1.44 0
M  V30 116 H 12.8238 -2.39937 3.46422 0
M  V30 117 H 11.5478 -2.39405 2.22155 0
M  V30 118 H 10.2068 -0.756156 3.58717 0
M  V30 119 H 9.8548 -3.21632 3.86732 0
M  V30 120 H 9.5548 -2.3409 5.38958 0
M  V30 121 H 11.0788 -3.24732 5.1709 0
M  V30 122 H 12.4928 -1.02498 5.64063 0
M  V30 123 H 10.8898 -0.316424 5.99265 0
M  V30 124 H 11.9598 0.480459 4.82514 0
M  V30 125 N 13.3029 -1.57598 0.00835791 0
M  V30 126 C 14.7139 -1.7892 -0.53333 0
M  V30 127 C 15.0649 -0.916609 -1.73473 0
M  V30 128 O 14.1899 -0.121336 -2.1606 0
M  V30 129 C 14.7849 -3.24488 -0.974313 0
M  V30 130 C 13.3439 -3.46878 -1.46125 0
M  V30 131 C 12.4909 -2.74157 -0.416302 0
M  V30 132 H 15.4419 -1.56958 0.234495 0
M  V30 133 H 15.4629 -3.3306 -1.83988 0
M  V30 134 H 14.9749 -3.87972 -0.099718 0
M  V30 135 H 13.0759 -2.8862 -2.35646 0
M  V30 136 H 13.1889 -4.55572 -1.48295 0
M  V30 137 H 11.5529 -2.39022 -0.87981 0
M  V30 138 H 12.3359 -3.40345 0.44947 0
M  V30 139 N 14.781 0.264519 -1.55364 0
M  V30 140 C 16.028 0.994986 -1.7637 0
M  V30 141 C 16.356 1.85976 -0.5695 0
M  V30 142 O 15.611 1.90509 0.44776 0
M  V30 143 C 15.91 1.9004 -3.02687 0
M  V30 144 C 15.576 1.19243 -4.34847 0
M  V30 145 C 14.238 0.996709 -4.70764 0
M  V30 146 C 16.59 0.689296 -5.16622 0
M  V30 147 C 13.918 0.285261 -5.86006 0
M  V30 148 C 16.27 -0.00860079 -6.32599 0
M  V30 149 C 14.934 -0.215963 -6.67151 0
M  V30 150 H 14.204 0.364091 -0.645383 0
M  V30 151 H 16.851 0.266543 -1.89636 0
M  V30 152 H 15.156 2.69533 -2.84357 0
M  V30 153 H 16.853 2.46695 -3.16137 0
M  V30 154 H 13.443 1.3549 -4.06621 0
M  V30 155 H 17.627 0.828108 -4.89342 0
M  V30 156 H 12.883 0.113961 -6.11294 0
M  V30 157 H 17.057 -0.406186 -6.95214 0
M  V30 158 H 14.684 -0.769217 -7.56298 0
M  V30 159 N 16.2591 1.48442 0.529413 0
M  V30 160 C 17.2221 1.62524 1.61612 0
M  V30 161 C 18.2221 0.498509 1.52877 0
M  V30 162 O 19.4121 0.76431 1.56537 0
M  V30 163 C 16.5441 1.59597 3.01233 0
M  V30 164 H 17.7371 2.59423 1.50465 0
M  V30 165 H 15.2901 1.37047 0.751514 0
M  V30 166 H 16.0251 0.641781 3.17886 0
M  V30 167 H 15.8101 2.41397 3.08982 0
M  V30 168 H 17.3001 1.72646 3.80241 0
M  V30 169 N 17.7372 -0.778329 1.37039 0
M  V30 170 C 19.1532 -1.07796 1.17695 0
M  V30 171 C 19.3532 -2.01498 0.00860115 0
M  V30 172 O 18.4092 -2.43901 -0.653352 0
M  V30 173 C 19.7222 -1.68178 2.49272 0
M  V30 174 C 21.2702 -1.80467 2.55735 0
M  V30 175 C 21.7452 -2.44263 3.87427 0
M  V30 176 N 23.2362 -2.51721 3.88833 0
M  V30 177 C 23.9712 -3.01919 4.87476 0
M  V30 178 N 23.4672 -3.5234 5.96513 0
M  V30 179 N 25.2602 -3.00733 4.74885 0
M  V30 180 H 17.4112 -0.156032 2.11826 0
M  V30 181 H 19.6742 -0.131844 0.938787 0
M  V30 182 H 19.3802 -1.06796 3.35093 0
M  V30 183 H 19.2542 -2.67554 2.65885 0
M  V30 184 H 21.6412 -2.40984 1.70325 0
M  V30 185 H 21.7222 -0.798656 2.43013 0
M  V30 186 H 21.3662 -1.84388 4.73248 0
M  V30 187 H 21.2962 -3.45458 3.9745 0
M  V30 188 H 23.7872 -2.1603 3.10063 0
M  V30 189 H 24.1002 -3.89027 6.67741 0
M  V30 190 H 22.4452 -3.50462 6.00168 0
M  V30 191 H 25.6362 -2.60638 3.88826 0
M  V30 192 H 25.8092 -3.39545 5.51918 0
M  V30 193 N 19.2153 -1.21501 -1.00376 0
M  V30 194 C 20.1783 -0.976927 -2.07337 0
M  V30 195 C 21.1783 0.0525322 -1.60714 0
M  V30 196 O 22.3683 -0.184869 -1.73216 0
M  V30 197 C 19.5003 -0.473423 -3.37597 0
M  V30 198 H 20.6933 -1.92587 -2.29892 0
M  V30 199 H 18.2463 -1.03217 -1.17371 0
M  V30 200 H 18.9813 0.480379 -3.20722 0
M  V30 201 H 18.7663 -1.216 -3.72768 0
M  V30 202 H 20.2563 -0.32675 -4.1632 0
M  V30 203 N 20.6934 1.19889 -1.02296 0
M  V30 204 C 21.6564 2.21116 -0.603351 0
M  V30 205 C 22.6564 1.5738 0.329884 0
M  V30 206 O 23.8464 1.73802 0.117702 0
M  V30 207 C 20.9784 3.40696 0.117992 0
M  V30 208 H 22.1714 2.59754 -1.49893 0
M  V30 209 H 19.7244 1.33463 -0.813468 0
M  V30 210 H 20.4594 3.07569 1.0282 0
M  V30 211 H 20.2444 3.88188 -0.552511 0
M  V30 212 H 21.7344 4.15692 0.398696 0
M  V30 213 N 22.1715 0.800033 1.35784 0
M  V30 214 C 23.1345 0.211565 2.28221 0
M  V30 215 C 24.1345 -0.59728 1.49296 0
M  V30 216 O 25.3245 -0.416721 1.69142 0
M  V30 217 C 22.4565 -0.705846 3.33513 0
M  V30 218 H 23.6495 1.02677 2.81776 0
M  V30 219 H 21.2025 0.570211 1.45528 0
M  V30 220 H 21.9375 -1.54498 2.85133 0
M  V30 221 H 21.7225 -0.127655 3.91892 0
M  V30 222 H 23.2125 -1.11211 4.02519 0
M  V30 223 N 23.6496 -1.47581 0.552962 0
M  V30 224 C 24.8986 -2.01684 0.0251995 0
M  V30 225 C 25.2116 -1.43317 -1.33115 0
M  V30 226 O 26.4176 -1.89057 -1.94858 0
M  V30 227 C 24.8736 -3.599 -0.00542052 0
M  V30 228 C 24.4816 -4.27257 1.34742 0
M  V30 229 C 26.2256 -4.21768 -0.4808 0
M  V30 230 C 24.1326 -5.77467 1.27614 0
M  V30 231 H 23.0626 -0.753979 0.00565033 0
M  V30 232 H 25.7136 -1.69616 0.70018 0
M  V30 233 H 24.0956 -3.88911 -0.745961 0
M  V30 234 H 25.2696 -4.09893 2.10534 0
M  V30 235 H 23.5846 -3.77358 1.76039 0
M  V30 236 H 26.1816 -5.31838 -0.55246 0
M  V30 237 H 26.5246 -3.88651 -1.49184 0
M  V30 238 H 27.0576 -3.97273 0.204752 0
M  V30 239 H 23.7966 -6.15196 2.26304 0
M  V30 240 H 23.3166 -5.9718 0.55996 0
M  V30 241 H 24.9956 -6.3959 0.976421 0
M  V30 242 N 25.1277 -0.289203 -1.54924 0
M  V30 243 C 26.3757 0.322879 -1.99504 0
M  V30 244 C 26.6967 1.55313 -1.1791 0
M  V30 245 O 25.9667 1.94001 -0.272097 0
M  V30 246 H 24.5467 0.122291 -0.736922 0
M  V30 247 H 27.2087 -0.397802 -1.90797 0
M  V30 248 H 26.3047 0.603061 -3.06218 0
M  V30 249 N 26.6058 1.57591 -0.0167156 0
M  V30 250 C 27.8518 1.92399 0.659861 0
M  V30 251 C 28.2068 0.892561 1.70444 0
M  V30 252 O 27.4998 -0.0930755 1.91374 0
M  V30 253 C 27.6938 3.3172 1.33029 0
M  V30 254 C 27.5228 4.48319 0.352174 0
M  V30 255 C 26.2928 5.05281 -0.0434883 0
M  V30 256 C 28.4908 5.12831 -0.388474 0
M  V30 257 N 26.4728 6.05399 -1.01807 0
M  V30 258 C 27.8438 6.07934 -1.2172 0
M  V30 259 C 29.8988 4.95858 -0.450513 0
M  V30 260 C 28.6018 6.87891 -2.10235 0
M  V30 261 C 30.6278 5.76413 -1.32295 0
M  V30 262 C 29.9898 6.71123 -2.13948 0
M  V30 263 H 26.0888 0.752106 0.21415 0
M  V30 264 H 28.6728 1.94532 -0.0809846 0
M  V30 265 H 26.8438 3.3043 2.04134 0
M  V30 266 H 28.5758 3.5391 1.9629 0
M  V30 267 H 25.3308 4.7246 0.328384 0
M  V30 268 H 25.7548 6.60145 -1.50123 0
M  V30 269 H 30.3968 4.22472 0.166512 0
M  V30 270 H 28.1148 7.60591 -2.72997 0
M  V30 271 H 31.7008 5.65317 -1.37508 0
M  V30 272 H 30.5808 7.3237 -2.80364 0
M  V30 273 N 28.0839 -0.256276 1.55502 0
M  V30 274 C 29.0169 -1.34321 1.84481 0
M  V30 275 C 29.9949 -1.46802 0.699131 0
M  V30 276 O 31.1789 -1.63165 0.943904 0
M  V30 277 C 28.3059 -2.71779 2.02123 0
M  V30 278 C 27.3519 -2.76496 3.24734 0
M  V30 279 S 28.1849 -2.3405 4.81644 0
M  V30 280 C 29.3409 -3.73452 5.02279 0
M  V30 281 H 29.5739 -1.09539 2.76385 0
M  V30 282 H 27.1069 -0.45678 1.47489 0
M  V30 283 H 29.0649 -3.50932 2.12972 0
M  V30 284 H 27.7259 -2.93803 1.11078 0
M  V30 285 H 26.9189 -3.77424 3.34016 0
M  V30 286 H 26.5209 -2.05379 3.12563 0
M  V30 287 H 28.8129 -4.6887 4.89047 0
M  V30 288 H 29.7559 -3.6911 6.04287 0
M  V30 289 H 30.1639 -3.6553 4.30172 0
M  V30 290 N 29.562 -1.4872 -0.521534 0
M  V30 291 C 30.973 -1.50607 -1.10337 0
M  V30 292 C 31.324 -0.280612 -1.94183 0
M  V30 293 O 30.449 0.611507 -2.0758 0
M  V30 294 C 31.044 -2.72903 -2.00772 0
M  V30 295 C 29.603 -2.77634 -2.54158 0
M  V30 296 C 28.75 -2.44241 -1.31307 0
M  V30 297 H 31.701 -1.55714 -0.306388 0
M  V30 298 H 31.722 -2.519 -2.85178 0
M  V30 299 H 31.234 -3.62077 -1.39721 0
M  V30 300 H 29.335 -1.92689 -3.18907 0
M  V30 301 H 29.448 -3.79283 -2.92714 0
M  V30 302 H 27.812 -1.95577 -1.63161 0
M  V30 303 H 28.595 -3.35666 -0.719943 0
M  V30 304 N 31.0401 0.771051 -1.3745 0
M  V30 305 C 32.2861 1.5319 -1.32894 0
M  V30 306 C 32.6191 1.94008 0.0862511 0
M  V30 307 O 31.8941 1.64124 1.04373 0
M  V30 308 C 32.1771 2.79648 -2.26868 0
M  V30 309 C 32.0301 2.45079 -3.77169 0
M  V30 310 C 33.3491 3.81583 -2.19277 0
M  V30 311 H 30.4681 0.555744 -0.484064 0
M  V30 312 H 33.1101 0.884492 -1.68157 0
M  V30 313 H 31.2601 3.34891 -1.96926 0
M  V30 314 H 32.9321 1.95745 -4.1771 0
M  V30 315 H 31.1751 1.77767 -3.95704 0
M  V30 316 H 31.8461 3.35478 -4.38359 0
M  V30 317 H 34.3221 3.35835 -2.45671 0
M  V30 318 H 33.1981 4.67787 -2.87171 0
M  V30 319 H 33.4591 4.25897 -1.18592 0
M  V30 320 N 32.5182 1.22032 0.997298 0
M  V30 321 C 33.4812 0.987909 2.06816 0
M  V30 322 C 34.4812 -0.0440084 1.6074 0
M  V30 323 O 35.6712 0.194053 1.73116 0
M  V30 324 C 32.8032 0.49132 3.37341 0
M  V30 325 H 33.9962 1.93803 2.28868 0
M  V30 326 H 31.5492 1.03838 1.16822 0
M  V30 327 H 32.2842 -0.463364 3.20973 0
M  V30 328 H 32.0692 1.23575 3.72118 0
M  V30 329 H 33.5592 0.348824 4.16141 0
M  V30 330 N 33.9963 -1.19345 1.0293 0
M  V30 331 C 34.9443 -2.24621 0.604001 0
M  V30 332 C 35.9383 -1.65452 -0.363587 0
M  V30 333 O 37.1443 -1.78497 -0.23212 0
M  V30 334 H 33.5193 -0.730858 0.177061 0
M  V30 335 H 35.4903 -2.5781 1.50255 0
M  V30 336 C 34.2393 -3.47688 -0.0289127 0
M  V30 337 H 33.5623 -3.93505 0.706651 0
M  V30 338 H 35.0023 -4.23011 -0.289432 0
M  V30 339 C 33.4613 -3.11817 -1.2756 0
M  V30 340 O 33.9913 -3.2451 -2.36762 0
M  V30 341 N 32.1973 -2.66246 -1.16453 0
M  V30 342 H 31.7443 -2.56118 -0.275914 0
M  V30 343 H 31.7023 -2.42617 -1.99961 0
M  V30 344 N 35.4744 -0.807222 -1.35358 0
M  V30 345 C 36.7144 -0.393534 -2.00576 0
M  V30 346 C 37.0784 1.0203 -1.62647 0
M  V30 347 O 38.2794 1.53603 -2.20589 0
M  V30 348 C 36.5504 -0.572017 -3.52793 0
M  V30 349 S 38.1094 -0.248845 -4.38094 0
M  V30 350 H 34.9274 -0.149425 -0.695121 0
M  V30 351 H 37.5294 -1.04961 -1.64935 0
M  V30 352 H 36.2334 -1.60097 -3.77885 0
M  V30 353 H 35.7644 0.099359 -3.93275 0
M  V30 354 H 37.7794 0.943253 -4.87152 0
M  V30 355 N 36.9525 1.47285 -0.560781 0
M  V30 356 C 38.3635 1.86258 -0.128343 0
M  V30 357 C 38.7145 1.46699 1.30284 0
M  V30 358 O 37.8395 0.871698 1.98067 0
M  V30 359 C 38.4345 3.38044 -0.22614 0
M  V30 360 C 36.9935 3.76096 0.151283 0
M  V30 361 C 36.1405 2.71335 -0.572084 0
M  V30 362 H 39.0915 1.38752 -0.770297 0
M  V30 363 H 39.1125 3.76441 0.554322 0
M  V30 364 H 38.6245 3.66806 -1.26788 0
M  V30 365 H 36.7255 3.52951 1.19399 0
M  V30 366 H 36.8385 4.78641 -0.209765 0
M  V30 367 H 35.2025 2.54696 -0.0147653 0
M  V30 368 H 35.9855 3.02938 -1.61504 0
M  V30 369 N 38.4306 0.297415 1.54768 0
M  V30 370 C 39.3636 -0.622188 2.19554 0
M  V30 371 C 40.3416 -1.13558 1.16376 0
M  V30 372 O 41.5256 -1.20444 1.45002 0
M  V30 373 C 38.6526 -1.8509 2.83653 0
M  V30 374 C 37.6986 -1.47106 4.00328 0
M  V30 375 S 38.5316 -0.53006 5.3287 0
M  V30 376 C 39.6876 -1.76665 6.0045 0
M  V30 377 H 39.9206 -0.0717806 2.97213 0
M  V30 378 H 37.4536 0.0815678 1.54184 0
M  V30 379 H 39.4116 -2.55605 3.21211 0
M  V30 380 H 38.0726 -2.37247 2.05846 0
M  V30 381 H 37.2656 -2.38594 4.43947 0
M  V30 382 H 36.8676 -0.845885 3.64309 0
M  V30 383 H 39.1596 -2.7077 6.21039 0
M  V30 384 H 40.1026 -1.37308 6.9466 0
M  V30 385 H 40.5106 -1.94174 5.30054 0
M  V30 386 N 39.9087 -1.5758 0.0250728 0
M  V30 387 C 41.3197 -1.79476 -0.514323 0
M  V30 388 C 41.6707 -0.934956 -1.72491 0
M  V30 389 O 40.7957 -0.144245 -2.15919 0
M  V30 390 C 41.3907 -3.25503 -0.939842 0
M  V30 391 C 39.9497 -3.48408 -1.42438 0
M  V30 392 C 39.0967 -2.74583 -0.387201 0
M  V30 393 H 42.0477 -1.567 0.25113 0
M  V30 394 H 42.0687 -3.34992 -1.80445 0
M  V30 395 H 41.5807 -3.88056 -0.0585628 0
M  V30 396 H 39.6817 -2.91103 -2.32572 0
M  V30 397 H 39.7947 -4.57119 -1.43455 0
M  V30 398 H 38.1587 -2.39942 -0.854409 0
M  V30 399 H 38.9417 -3.39849 0.485543 0
M  V30 400 N 41.3868 0.248026 -1.55636 0
M  V30 401 C 42.3168 1.31079 -1.93237 0
M  V30 402 C 43.2978 1.50264 -0.797174 0
M  V30 403 O 44.4828 1.62891 -1.05737 0
M  V30 404 C 41.6128 2.66575 -2.22609 0
M  V30 405 C 40.5668 2.62087 -3.3837 0
M  V30 406 C 39.8928 4.01369 -3.53281 0
M  V30 407 C 41.1928 2.19171 -4.7409 0
M  V30 408 H 42.8868 0.998556 -2.82257 0
M  V30 409 H 40.4328 0.47891 -1.35803 0
M  V30 410 H 42.3858 3.41057 -2.47503 0
M  V30 411 H 41.1098 2.99432 -1.30414 0
M  V30 412 H 39.7688 1.90063 -3.13483 0
M  V30 413 H 39.4168 4.31489 -2.58508 0
M  V30 414 H 39.1168 3.99254 -4.31127 0
M  V30 415 H 40.6408 4.77552 -3.80495 0
M  V30 416 H 42.0548 2.83384 -4.98363 0
M  V30 417 H 40.4518 2.2817 -5.5503 0
M  V30 418 H 41.5218 1.14336 -4.71227 0
M  V30 419 N 42.8649 1.48995 0.513639 0
M  V30 420 C 43.8279 1.64229 1.59879 0
M  V30 421 C 44.8279 0.514696 1.5234 0
M  V30 422 O 46.0179 0.78087 1.55718 0
M  V30 423 C 43.1499 1.62783 2.99524 0
M  V30 424 H 44.3429 2.61004 1.47705 0
M  V30 425 H 41.8959 1.37837 0.736936 0
M  V30 426 H 42.6309 0.675461 3.17188 0
M  V30 427 H 42.4159 2.4466 3.06404 0
M  V30 428 H 43.9059 1.76669 3.78388 0
M  V30 429 N 44.343 -0.763751 1.37857 0
M  V30 430 C 45.754 -1.3405 1.29952 0
M  V30 431 C 46.105 -1.96138 -0.0492898 0
M  V30 432 O 45.23 -1.94372 -0.951239 0
M  V30 433 C 45.825 -2.43729 2.35333 0
M  V30 434 C 44.384 -2.97151 2.31037 0
M  V30 435 C 43.531 -1.70438 2.18738 0
M  V30 436 H 46.482 -0.563396 1.48363 0
M  V30 437 H 46.503 -3.23412 2.00462 0
M  V30 438 H 46.015 -1.9851 3.33489 0
M  V30 439 H 44.116 -3.46724 1.3643 0
M  V30 440 H 44.229 -3.52221 3.24772 0
M  V30 441 H 42.593 -1.93673 1.65418 0
M  V30 442 H 43.376 -1.27312 3.18821 0
M  V30 443 N 45.8211 -1.22559 -0.990812 0
M  V30 444 C 46.7841 -0.998863 -2.0629 0
M  V30 445 C 47.7841 0.0354834 -1.60761 0
M  V30 446 O 48.9741 -0.203231 -1.7301 0
M  V30 447 C 46.1061 -0.509203 -3.37076 0
M  V30 448 H 47.2991 -1.95014 -2.27837 0
M  V30 449 H 44.8521 -1.04456 -1.16269 0
M  V30 450 H 45.5871 0.446335 -3.21214 0
M  V30 451 H 45.3721 -1.25547 -3.71457 0
M  V30 452 H 46.8621 -0.370888 -4.1595 0
M  V30 453 N 47.2992 1.18797 -1.03562 0
M  V30 454 C 48.5762 1.84469 -0.650434 0
M  V30 455 C 48.9562 1.92319 0.870433 0
M  V30 456 O 48.3042 1.44528 1.76986 0
M  V30 457 C 48.5142 3.2306 -1.32036 0
M  V30 458 C 49.8622 3.9915 -1.44792 0
M  V30 459 O 50.8862 3.32481 -1.27806 0
M  V30 460 O 49.7452 5.18587 -1.72423 0
M  V30 461 H 46.8392 0.795251 -0.226946 0
M  V30 462 H 49.3852 1.26231 -1.13419 0
M  V30 463 H 48.1572 3.1222 -2.3587 0
M  V30 464 H 47.7802 3.88949 -0.8249 0
M  V30 465 N 48.7773 0.814389 1.34928 0
M  V30 466 C 49.7243 0.22822 2.29669 0
M  V30 467 C 50.6943 -0.642164 1.53184 0
M  V30 468 O 51.8793 -0.585605 1.81591 0
M  V30 469 C 49.0193 -0.61089 3.3965 0
M  V30 470 C 48.1323 0.280792 4.31086 0
M  V30 471 C 47.2673 -0.567067 5.28165 0
M  V30 472 C 46.3063 0.324531 6.11239 0
M  V30 473 N 45.4433 -0.483756 7.00431 0
M  V30 474 H 50.2833 1.04153 2.79206 0
M  V30 475 H 47.8203 0.525133 1.37407 0
M  V30 476 H 49.7783 -1.11263 4.0209 0
M  V30 477 H 48.4083 -1.38939 2.91369 0
M  V30 478 H 47.4603 0.900688 3.69583 0
M  V30 479 H 48.7723 0.966723 4.89342 0
M  V30 480 H 47.9263 -1.13363 5.96015 0
M  V30 481 H 46.6653 -1.28654 4.70425 0
M  V30 482 H 45.6703 0.903298 5.42329 0
M  V30 483 H 46.8953 1.04198 6.71059 0
M  V30 484 H 44.8413 -1.18706 6.45171 0
M  V30 485 H 44.7583 0.143965 7.55863 0
M  V30 486 H 46.0263 -1.03334 7.7262 0
M  V30 487 N 50.2554 -1.46986 0.568584 0
M  V30 488 C 51.2034 -2.31858 -0.185649 0
M  V30 489 C 52.1974 -1.43624 -0.898249 0
M  V30 490 O 53.4034 -1.60327 -0.818242 0
M  V30 491 H 49.7784 -0.747866 -0.0787399 0
M  V30 492 H 51.7494 -2.93303 0.549191 0
M  V30 493 C 50.4984 -3.26513 -1.19519 0
M  V30 494 H 49.8214 -3.94377 -0.656285 0
M  V30 495 H 51.2614 -3.88707 -1.6936 0
M  V30 496 C 49.7204 -2.50847 -2.24894 0
M  V30 497 O 50.2504 -2.26119 -3.32014 0
M  V30 498 N 48.4564 -2.11656 -1.99124 0
M  V30 499 H 48.0034 -2.31966 -1.12024 0
M  V30 500 H 47.9614 -1.61347 -2.69842 0
M  V30 501 N 51.7335 -0.305618 -1.54608 0
M  V30 502 C 52.6805 0.568421 -2.23691 0
M  V30 503 C 53.6505 1.12592 -1.22116 0
M  V30 504 O 54.8355 1.16959 -1.50749 0
M  V30 505 C 51.9755 1.7322 -2.98477 0
M  V30 506 C 51.0885 1.20566 -4.14835 0
M  V30 507 C 50.2235 2.33368 -4.77193 0
M  V30 508 C 49.2625 1.7787 -5.85686 0
M  V30 509 N 48.3995 2.84263 -6.4198 0
M  V30 510 H 53.2395 -0.0272867 -2.97988 0
M  V30 511 H 50.7765 -0.0252363 -1.47078 0
M  V30 512 H 52.7345 2.41675 -3.40072 0
M  V30 513 H 51.3645 2.29947 -2.26548 0
M  V30 514 H 50.4165 0.413223 -3.78149 0
M  V30 515 H 51.7285 0.759417 -4.92985 0
M  V30 516 H 50.8825 3.09761 -5.21664 0
M  V30 517 H 49.6215 2.8132 -3.98385 0
M  V30 518 H 48.6265 0.99968 -5.40635 0
M  V30 519 H 49.8515 1.30816 -6.66381 0
M  V30 520 H 47.7975 3.31541 -5.66053 0
M  V30 521 H 47.7145 2.44149 -7.15491 0
M  V30 522 H 48.9825 3.6054 -6.91109 0
M  V30 523 N 53.2116 1.57565 -0.0334293 0
M  V30 524 C 54.6276 1.56297 0.322997 0
M  V30 525 C 54.8276 1.03945 1.7262 0
M  V30 526 O 53.8836 0.688109 2.42943 0
M  V30 527 C 55.1966 3.00232 0.167664 0
M  V30 528 C 56.7446 3.12078 0.240107 0
M  V30 529 C 57.2196 4.57859 0.113513 0
M  V30 530 N 58.7106 4.62887 0.170359 0
M  V30 531 C 59.4456 5.73319 0.0962517 0
M  V30 532 N 58.9416 6.92794 -0.0291881 0
M  V30 533 N 60.7346 5.61898 0.150551 0
M  V30 534 H 52.8856 1.89923 -0.950956 0
M  V30 535 H 55.1486 0.873824 -0.367608 0
M  V30 536 H 54.8546 3.42501 -0.799102 0
M  V30 537 H 54.7286 3.654 0.936083 0
M  V30 538 H 57.1156 2.69718 1.19733 0
M  V30 539 H 57.1966 2.49623 -0.558763 0
M  V30 540 H 56.8406 5.009 -0.840314 0
M  V30 541 H 56.7706 5.18299 0.931302 0
M  V30 542 H 59.2616 3.76954 0.26728 0
M  V30 543 H 59.5746 7.7276 -0.0789252 0
M  V30 544 H 57.9196 6.94971 -0.0640299 0
M  V30 545 H 61.1106 4.67448 0.246981 0
M  V30 546 H 61.2836 6.47938 0.0893365 0
M  V30 547 N 54.6897 -0.239769 1.55765 0
M  V30 548 C 55.6217 -1.32001 1.87372 0
M  V30 549 C 56.6347 -1.43944 0.760522 0
M  V30 550 O 57.8237 -1.45167 1.0387 0
M  V30 551 C 54.9237 -2.69779 2.05115 0
M  V30 552 C 54.0967 -2.80014 3.36022 0
M  V30 553 C 53.1557 -3.98684 3.4342 0
M  V30 554 O 52.1817 -3.87877 4.16582 0
M  V30 555 N 53.3837 -5.12176 2.73232 0
M  V30 556 H 56.1487 -1.0522 2.80622 0
M  V30 557 H 53.7097 -0.429857 1.56089 0
M  V30 558 H 55.7017 -3.47517 2.07399 0
M  V30 559 H 54.2717 -2.89237 1.18577 0
M  V30 560 H 53.4917 -1.88896 3.45994 0
M  V30 561 H 54.7797 -2.83808 4.22292 0
M  V30 562 H 54.1777 -5.2385 2.13536 0
M  V30 563 H 52.7347 -5.88022 2.81199 0
M  V30 564 N 56.1678 -1.49265 -0.50573 0
M  V30 565 C 57.4448 -1.49012 -1.26707 0
M  V30 566 C 57.8248 -0.215205 -2.1 0
M  V30 567 O 57.1728 0.802547 -2.13943 0
M  V30 568 C 57.3828 -2.7663 -2.12783 0
M  V30 569 C 58.7308 -3.25932 -2.72127 0
M  V30 570 O 59.7548 -2.77715 -2.23054 0
M  V30 571 O 58.6138 -4.09897 -3.61451 0
M  V30 572 H 55.7078 -0.596197 -0.57313 0
M  V30 573 H 58.2538 -1.61524 -0.52039 0
M  V30 574 H 57.0258 -3.60916 -1.5118 0
M  V30 575 H 56.6488 -2.66956 -2.94653 0
M  V30 576 N 57.6459 0.756429 -1.3826 0
M  V30 577 C 58.5559 1.9009 -1.37488 0
M  V30 578 C 59.5719 1.71855 -0.272366 0
M  V30 579 O 60.7479 1.94827 -0.510318 0
M  V30 580 C 57.8129 3.25421 -1.19592 0
M  V30 581 C 56.8739 3.56202 -2.39622 0
M  V30 582 C 56.1069 4.85075 -2.2257 0
M  V30 583 O 56.3299 5.57246 -1.21793 0
M  V30 584 O 55.2639 5.15269 -3.11098 0
M  V30 585 H 59.0899 1.93695 -2.33914 0
M  V30 586 H 56.6749 0.901313 -1.1915 0
M  V30 587 H 58.5569 4.06337 -1.11661 0
M  V30 588 H 57.2319 3.22634 -0.262486 0
M  V30 589 H 56.1389 2.75458 -2.53128 0
M  V30 590 H 57.4719 3.63747 -3.31586 0
M  V30 591 N 59.124 1.23083 0.984299 0
M  V30 592 C 60.054 1.03292 2.09411 0
M  V30 593 C 61.035 -0.048923 1.7003 0
M  V30 594 O 62.22 0.114967 1.93859 0
M  V30 595 C 59.35 0.619155 3.41736 0
M  V30 596 C 58.304 1.64791 3.95004 0
M  V30 597 C 57.63 1.0897 5.23478 0
M  V30 598 C 58.93 3.03999 4.24714 0
M  V30 599 H 60.624 1.96119 2.26225 0
M  V30 600 H 58.17 0.944344 1.08711 0
M  V30 601 H 60.123 0.467777 4.18796 0
M  V30 602 H 58.847 -0.344786 3.24775 0
M  V30 603 H 57.506 1.78721 3.20085 0
M  V30 604 H 57.154 0.11686 5.02864 0
M  V30 605 H 56.854 1.77704 5.60085 0
M  V30 606 H 58.378 0.950093 6.03163 0
M  V30 607 H 59.792 2.93393 4.92538 0
M  V30 608 H 58.189 3.69936 4.72512 0
M  V30 609 H 59.259 3.53285 3.32142 0
M  V30 610 N 60.6021 -1.18246 1.0419 0
M  V30 611 C 61.8511 -1.87588 0.741194 0
M  V30 612 C 62.1641 -1.81303 -0.734066 0
M  V30 613 O 63.3701 -2.46019 -1.14834 0
M  V30 614 C 61.8261 -3.36538 1.27555 0
M  V30 615 C 61.4341 -3.51349 2.77953 0
M  V30 616 C 63.1781 -4.11273 1.05143 0
M  V30 617 C 61.0851 -4.94265 3.2474 0
M  V30 618 H 60.0151 -0.702622 0.273565 0
M  V30 619 H 62.6661 -1.33601 1.25789 0
M  V30 620 H 61.0481 -3.9 0.686703 0
M  V30 621 H 62.2221 -3.08153 3.42605 0
M  V30 622 H 60.5371 -2.90022 2.98791 0
M  V30 623 H 63.1341 -5.16689 1.37611 0
M  V30 624 H 63.4771 -4.16298 -0.0112774 0
M  V30 625 H 64.0101 -3.63987 1.60495 0
M  V30 626 H 60.7491 -4.94408 4.30396 0
M  V30 627 H 60.2691 -5.38172 2.64823 0
M  V30 628 H 61.9481 -5.62987 3.18834 0
M  V30 629 N 62.0802 -0.821533 -1.34494 0
M  V30 630 C 63.3262 -0.409552 -1.98622 0
M  V30 631 C 63.6592 1.0244 -1.64984 0
M  V30 632 O 62.9342 1.71325 -0.920758 0
M  V30 633 C 63.2172 -0.610458 -3.54888 0
M  V30 634 C 63.0702 -2.09043 -3.98273 0
M  V30 635 C 64.3892 -0.0455379 -4.40076 0
M  V30 636 H 61.5082 -0.15028 -0.721516 0
M  V30 637 H 64.1502 -1.03384 -1.59411 0
M  V30 638 H 62.3002 -0.079044 -3.8842 0
M  V30 639 H 63.9722 -2.68537 -3.75081 0
M  V30 640 H 62.2152 -2.58139 -3.48635 0
M  V30 641 H 62.8862 -2.18182 -5.07051 0
M  V30 642 H 65.3622 -0.499557 -4.1309 0
M  V30 643 H 64.2382 -0.215922 -5.48475 0
M  V30 644 H 64.4992 1.04939 -4.29465 0
M  V30 645 N 63.5583 1.46682 -0.576371 0
M  V30 646 C 64.4883 2.33028 0.148397 0
M  V30 647 C 65.4693 1.44961 0.889956 0
M  V30 648 O 66.6543 1.73789 0.866662 0
M  V30 649 C 63.7843 3.27117 1.1667 0
M  V30 650 C 62.7383 4.24575 0.540386 0
M  V30 651 C 62.0643 5.08126 1.6647 0
M  V30 652 C 63.3643 5.19722 -0.518331 0
M  V30 653 H 65.0583 2.93875 -0.572509 0
M  V30 654 H 62.6043 1.41315 -0.276768 0
M  V30 655 H 64.5573 3.86374 1.68204 0
M  V30 656 H 63.2813 2.64364 1.9178 0
M  V30 657 H 61.9403 3.66571 0.0461769 0
M  V30 658 H 61.5883 4.41762 2.40531 0
M  V30 659 H 61.2883 5.74122 1.25131 0
M  V30 660 H 62.8123 5.70246 2.18293 0
M  V30 661 H 64.2263 5.73232 -0.0883058 0
M  V30 662 H 62.6233 5.94026 -0.851679 0
M  V30 663 H 63.6933 4.64037 -1.40703 0
M  V30 664 N 65.0364 0.313813 1.54444 0
M  V30 665 C 65.9844 -0.572171 2.25453 0
M  V30 666 C 66.9784 -1.12657 1.2651 0
M  V30 667 O 68.1844 -1.07573 1.44319 0
M  V30 668 H 64.5594 -0.203146 0.724041 0
M  V30 669 H 66.5304 0.0491145 2.9836 0
M  V30 670 C 65.2794 -1.72626 3.0182 0
M  V30 671 H 64.6024 -1.30891 3.77767 0
M  V30 672 H 66.0424 -2.32199 3.54767 0
M  V30 673 C 64.5014 -2.63806 2.09542 0
M  V30 674 O 65.0314 -3.65256 1.67185 0
M  V30 675 N 63.2374 -2.31824 1.75232 0
M  V30 676 H 62.7844 -1.49368 2.09873 0
M  V30 677 H 62.7424 -2.93095 1.13767 0
M  V30 678 N 66.5145 -1.57545 0.0417849 0
M  V30 679 C 67.7605 -1.92601 -0.635021 0
M  V30 680 C 68.0935 -0.919627 -1.71045 0
M  V30 681 O 67.3685 0.0557892 -1.9442 0
M  V30 682 C 67.6515 -3.38085 -1.23979 0
M  V30 683 C 67.5045 -4.49467 -0.173057 0
M  V30 684 C 68.8235 -3.83776 -2.15416 0
M  V30 685 H 65.9425 -0.700397 -0.229374 0
M  V30 686 H 68.5845 -1.89728 0.101633 0
M  V30 687 H 66.7345 -3.40664 -1.86762 0
M  V30 688 H 68.4065 -4.59018 0.458312 0
M  V30 689 H 66.6495 -4.30909 0.499996 0
M  V30 690 H 67.3205 -5.48323 -0.636054 0
M  V30 691 H 69.7965 -3.83013 -1.62605 0
M  V30 692 H 68.6725 -4.8624 -2.54679 0
M  V30 693 H 68.9335 -3.19998 -3.05047 0
M  V30 694 N 67.9926 0.231505 -1.5589 0
M  V30 695 C 69.2176 0.978689 -1.82856 0
M  V30 696 C 69.6426 1.77559 -0.620846 0
M  V30 697 O 69.0006 1.76119 0.430305 0
M  V30 698 C 69.0486 1.87997 -3.07716 0
M  V30 699 O 68.1526 2.97393 -2.85712 0
M  V30 700 H 67.4936 0.277663 -0.603158 0
M  V30 701 H 70.0236 0.24783 -2.03093 0
M  V30 702 H 70.0336 2.2917 -3.37558 0
M  V30 703 H 68.7086 1.29417 -3.95252 0
M  V30 704 H 67.2856 2.60238 -2.67078 0
M  V30 705 N 69.4707 1.49531 0.497807 0
M  V30 706 C 70.7187 1.58865 1.24926 0
M  V30 707 C 71.0397 0.278721 1.92998 0
M  V30 708 O 70.3097 -0.702144 1.82885 0
M  V30 709 H 68.8897 0.585343 0.464094 0
M  V30 710 H 71.5517 1.86174 0.57666 0
M  V30 711 H 70.6477 2.38633 2.01149 0
M  V30 712 N 70.9488 -0.749086 1.3866 0
M  V30 713 C 72.3648 -1.05276 1.19955 0
M  V30 714 C 72.5648 -2.01435 0.05134 0
M  V30 715 O 71.6208 -2.45232 -0.60147 0
M  V30 716 C 72.9338 -1.62853 2.52783 0
M  V30 717 C 74.4818 -1.75002 2.59506 0
M  V30 718 C 74.9568 -2.35991 3.92521 0
M  V30 719 N 76.4478 -2.43416 3.94085 0
M  V30 720 C 77.1828 -2.91511 4.9377 0
M  V30 721 N 76.6788 -3.39608 6.03853 0
M  V30 722 N 78.4718 -2.90592 4.81157 0
M  V30 723 H 70.6228 -0.111066 2.12109 0
M  V30 724 H 72.8858 -0.111901 0.941373 0
M  V30 725 H 72.5918 -0.99664 3.37283 0
M  V30 726 H 72.4658 -2.61854 2.715 0
M  V30 727 H 74.8528 -2.37317 1.75398 0
M  V30 728 H 74.9338 -0.74693 2.44652 0
M  V30 729 H 74.5778 -1.74308 4.77053 0
M  V30 730 H 74.5078 -3.3695 4.04688 0
M  V30 731 H 76.9988 -2.09405 3.14576 0
M  V30 732 H 77.3118 -3.74775 6.75843 0
M  V30 733 H 75.6568 -3.37653 6.07466 0
M  V30 734 H 78.8478 -2.52332 3.94267 0
M  V30 735 H 79.0208 -3.27762 5.58996 0
M  V30 736 N 72.4269 -1.23603 -0.977757 0
M  V30 737 C 73.8429 -0.999251 -1.24447 0
M  V30 738 C 74.0429 0.298053 -1.99283 0
M  V30 739 O 73.0989 1.01681 -2.31122 0
M  V30 740 C 74.4119 -2.20784 -2.04144 0
M  V30 741 C 75.9599 -2.25303 -2.17273 0
M  V30 742 C 76.4349 -3.45755 -3.00362 0
M  V30 743 N 77.9259 -3.4601 -3.07947 0
M  V30 744 C 78.6609 -4.35868 -3.72568 0
M  V30 745 N 78.1569 -5.35966 -4.38991 0
M  V30 746 N 79.9499 -4.23605 -3.6948 0
M  V30 747 H 72.1009 -2.06986 -0.476483 0
M  V30 748 H 74.3639 -0.907801 -0.273134 0
M  V30 749 H 74.0699 -3.14945 -1.56533 0
M  V30 750 H 73.9439 -2.22085 -3.04891 0
M  V30 751 H 76.3309 -1.3168 -2.64092 0
M  V30 752 H 76.4119 -2.28033 -1.15907 0
M  V30 753 H 76.0559 -4.39687 -2.5424 0
M  V30 754 H 75.9859 -3.40266 -4.01904 0
M  V30 755 H 78.4769 -2.73588 -2.60688 0
M  V30 756 H 78.7899 -6.00783 -4.86086 0
M  V30 757 H 77.1349 -5.39863 -4.37691 0
M  V30 758 H 80.3259 -3.44647 -3.16759 0
M  V30 759 H 80.4989 -4.93836 -4.1956 0
M  V30 760 N 73.905 1.17692 -1.04816 0
M  V30 761 C 75.152 1.87859 -0.75599 0
M  V30 762 C 75.48 1.80812 0.716752 0
M  V30 763 O 74.735 1.20819 1.53952 0
M  V30 764 C 75.034 3.37462 -1.17703 0
M  V30 765 C 74.7 3.64713 -2.65133 0
M  V30 766 C 73.362 3.71859 -3.05408 0
M  V30 767 C 75.714 3.76492 -3.60421 0
M  V30 768 C 73.042 3.88271 -4.39843 0
M  V30 769 C 75.394 3.94421 -4.94585 0
M  V30 770 C 74.058 3.99806 -5.3452 0
M  V30 771 H 73.328 0.687425 -0.276636 0
M  V30 772 H 75.975 1.39255 -1.31455 0
M  V30 773 H 74.28 3.88097 -0.537395 0
M  V30 774 H 75.977 3.90109 -0.928218 0
M  V30 775 H 72.567 3.59772 -2.32942 0
M  V30 776 H 76.751 3.70295 -3.30447 0
M  V30 777 H 72.007 3.90687 -4.70291 0
M  V30 778 H 76.181 4.02477 -5.68318 0
M  V30 779 H 73.808 4.12276 -6.38696 0
M  V30 780 N 75.3831 0.828654 1.34056 0
M  V30 781 C 76.3151 0.212052 2.28217 0
M  V30 782 C 77.3281 -0.601362 1.51286 0
M  V30 783 O 78.5171 -0.430104 1.73241 0
M  V30 784 C 75.6171 -0.72088 3.31144 0
M  V30 785 C 74.7901 0.0509587 4.3737 0
M  V30 786 C 73.8491 -0.803766 5.20025 0
M  V30 787 O 72.8751 -0.246667 5.68665 0
M  V30 788 N 74.0771 -2.1227 5.40298 0
M  V30 789 H 76.8421 1.02105 2.81771 0
M  V30 790 H 74.4031 0.686153 1.46641 0
M  V30 791 H 76.3951 -1.29742 3.8334 0
M  V30 792 H 74.9651 -1.43061 2.77943 0
M  V30 793 H 74.1851 0.808831 3.85813 0
M  V30 794 H 75.4731 0.582065 5.0546 0
M  V30 795 H 74.8711 -2.59898 5.02464 0
M  V30 796 H 73.4281 -2.64796 5.95589 0
M  V30 797 N 76.8612 -1.46375 0.584142 0
M  V30 798 C 78.0892 -2.06761 0.0759296 0
M  V30 799 C 78.5042 -1.43266 -1.22965 0
M  V30 800 O 77.8612 -0.538458 -1.74376 0
M  V30 801 C 77.9122 -3.61375 -0.0950384 0
M  V30 802 O 77.6332 -4.22495 1.15887 0
M  V30 803 C 79.1342 -4.38693 -0.637434 0
M  V30 804 H 76.3542 -0.668479 0.0581075 0
M  V30 805 H 78.8982 -1.8798 0.805218 0
M  V30 806 H 77.0532 -3.79578 -0.774554 0
M  V30 807 H 77.4672 -5.15385 0.973598 0
M  V30 808 H 78.9412 -5.47464 -0.706237 0
M  V30 809 H 79.4182 -4.06836 -1.65472 0
M  V30 810 H 80.0242 -4.25299 0.00725967 0
M  V30 811 N 78.3393 -0.321999 -1.54275 0
M  V30 812 C 79.5853 0.274234 -2.01543 0
M  V30 813 C 79.9403 1.499 -1.20614 0
M  V30 814 O 79.2333 1.89546 -0.279804 0
M  V30 815 C 79.4273 0.661769 -3.5122 0
M  V30 816 C 79.2563 -0.523892 -4.46638 0
M  V30 817 C 78.0263 -1.02251 -4.94846 0
M  V30 818 C 80.2243 -1.37558 -4.95563 0
M  V30 819 N 78.2063 -2.17274 -5.74165 0
M  V30 820 C 79.5773 -2.37301 -5.7279 0
M  V30 821 C 81.6323 -1.40353 -4.77709 0
M  V30 822 C 80.3353 -3.3964 -6.34064 0
M  V30 823 C 82.3613 -2.41562 -5.39817 0
M  V30 824 C 81.7233 -3.40031 -6.16894 0
M  V30 825 H 77.8223 0.0642367 -0.779357 0
M  V30 826 H 80.4063 -0.456683 -1.89268 0
M  V30 827 H 78.5773 1.36182 -3.63743 0
M  V30 828 H 80.3093 1.23934 -3.85256 0
M  V30 829 H 77.0643 -0.594046 -4.6986 0
M  V30 830 H 77.4883 -2.75289 -6.18502 0
M  V30 831 H 82.1303 -0.655907 -4.17681 0
M  V30 832 H 79.8483 -4.15309 -6.93213 0
M  V30 833 H 83.4343 -2.44524 -5.2792 0
M  V30 834 H 82.3143 -4.17063 -6.64099 0
M  V30 835 N 79.8174 1.5752 -0.0501392 0
M  V30 836 C 81.2334 1.56631 0.306402 0
M  V30 837 C 81.4334 1.0577 1.71508 0
M  V30 838 O 80.4894 0.713837 2.422 0
M  V30 839 C 81.8024 3.00393 0.135811 0
M  V30 840 C 83.3504 3.12315 0.206993 0
M  V30 841 C 83.8254 4.57954 0.064944 0
M  V30 842 N 85.3164 4.63041 0.121254 0
M  V30 843 C 86.0514 5.73389 0.0354381 0
M  V30 844 N 85.5474 6.92724 -0.102666 0
M  V30 845 N 87.3404 5.62026 0.090946 0
M  V30 846 H 79.4914 1.88903 -0.971046 0
M  V30 847 H 81.7544 0.869876 -0.376855 0
M  V30 848 H 81.4604 3.41635 -0.835384 0
M  V30 849 H 81.3344 3.66373 0.897275 0
M  V30 850 H 83.7214 2.70973 1.16866 0
M  V30 851 H 83.8024 2.49016 -0.585208 0
M  V30 852 H 83.4464 4.99981 -0.893394 0
M  V30 853 H 83.3764 5.19258 0.876277 0
M  V30 854 H 85.8674 3.77216 0.227284 0
M  V30 855 H 86.1804 7.72633 -0.160882 0
M  V30 856 H 84.5254 6.94864 -0.137737 0
M  V30 857 H 87.7164 4.67684 0.197388 0
M  V30 858 H 87.8894 6.47997 0.0206089 0
M  V30 859 N 81.2955 -0.223234 1.56011 0
M  V30 860 C 82.5235 -0.964812 1.83027 0
M  V30 861 C 82.9385 -1.78013 0.62904 0
M  V30 862 O 82.2955 -1.78008 -0.402414 0
M  V30 863 C 82.3465 -1.88373 3.08542 0
M  V30 864 O 82.0675 -1.10137 4.2403 0
M  V30 865 C 83.5685 -2.73934 3.48533 0
M  V30 866 H 80.7885 -0.282842 0.608475 0
M  V30 867 H 83.3325 -0.238971 2.03099 0
M  V30 868 H 81.4875 -2.56354 2.9045 0
M  V30 869 H 81.9015 -1.72501 4.95322 0
M  V30 870 H 83.3755 -3.34117 4.39397 0
M  V30 871 H 83.8525 -3.46244 2.70207 0
M  V30 872 H 84.4585 -2.11369 3.69057 0
M  V30 873 N 82.7736 -1.49793 -0.48987 0
M  V30 874 C 84.0016 -1.63568 -1.26701 0
M  V30 875 C 84.4166 -0.311465 -1.86213 0
M  V30 876 O 83.7736 0.704416 -1.68357 0
M  V30 877 C 83.8246 -2.71284 -2.38929 0
M  V30 878 O 83.5456 -3.9857 -1.81861 0
M  V30 879 C 85.0466 -2.95864 -3.3012 0
M  V30 880 H 82.2666 -0.550342 -0.383881 0
M  V30 881 H 84.8106 -1.95898 -0.586864 0
M  V30 882 H 82.9656 -2.417 -3.02753 0
M  V30 883 H 83.3796 -4.57993 -2.55622 0
M  V30 884 H 84.8536 -3.74941 -4.05121 0
M  V30 885 H 85.3306 -2.06206 -3.87783 0
M  V30 886 H 85.9366 -3.26907 -2.72051 0
M  V30 887 N 84.2517 0.741722 -1.39055 0
M  V30 888 C 85.1817 1.869 -1.39966 0
M  V30 889 C 86.1627 1.6804 -0.26392 0
M  V30 890 O 87.3477 1.88458 -0.468755 0
M  V30 891 C 84.4777 3.24572 -1.23574 0
M  V30 892 C 83.4317 3.58056 -2.34477 0
M  V30 893 C 82.7577 4.94593 -2.0318 0
M  V30 894 C 84.0577 3.61716 -3.76774 0
M  V30 895 H 85.7517 1.86395 -2.34302 0
M  V30 896 H 83.2977 0.895361 -1.1278 0
M  V30 897 H 85.2507 4.031 -1.22834 0
M  V30 898 H 83.9747 3.25587 -0.257045 0
M  V30 899 H 82.6337 2.81854 -2.34423 0
M  V30 900 H 82.2817 4.92181 -1.03765 0
M  V30 901 H 81.9817 5.17964 -2.77465 0
M  V30 902 H 83.5057 5.75486 -2.04079 0
M  V30 903 H 84.9197 4.30335 -3.78794 0
M  V30 904 H 83.3167 3.96603 -4.50362 0
M  V30 905 H 84.3867 2.61672 -4.08235 0
M  V30 906 N 85.7298 1.2412 0.971189 0
M  V30 907 C 86.6398 1.04747 2.09917 0
M  V30 908 C 87.6558 -0.0107162 1.73997 0
M  V30 909 O 88.8318 0.186714 2.00533 0
M  V30 910 C 85.8968 0.650828 3.40537 0
M  V30 911 C 84.9578 1.7851 3.90426 0
M  V30 912 C 84.1908 1.40729 5.14812 0
M  V30 913 O 84.4138 0.29557 5.69634 0
M  V30 914 O 83.3478 2.23168 5.58999 0
M  V30 915 H 87.1738 1.99304 2.29154 0
M  V30 916 H 84.7588 1.02908 1.08307 0
M  V30 917 H 86.6408 0.440992 4.19086 0
M  V30 918 H 85.3158 -0.265649 3.22608 0
M  V30 919 H 84.2228 2.04966 3.12953 0
M  V30 920 H 85.5558 2.68023 4.12825 0
M  V30 921 N 87.2079 -1.17134 1.05439 0
M  V30 922 C 88.6239 -1.39454 0.776201 0
M  V30 923 C 88.8239 -1.91454 -0.628307 0
M  V30 924 O 87.8799 -2.10777 -1.39031 0
M  V30 925 C 89.1929 -2.38305 1.83388 0
M  V30 926 C 90.7409 -2.52006 1.85639 0
M  V30 927 C 91.2159 -3.54133 2.90437 0
M  V30 928 N 92.7069 -3.61653 2.89415 0
M  V30 929 C 93.4419 -4.4044 3.67152 0
M  V30 930 N 92.9379 -5.22721 4.54681 0
M  V30 931 N 94.7309 -4.35337 3.55581 0
M  V30 932 H 86.8819 -0.817134 1.96053 0
M  V30 933 H 89.1449 -0.421626 0.849079 0
M  V30 934 H 88.8509 -2.07173 2.84204 0
M  V30 935 H 88.7249 -3.37841 1.67761 0
M  V30 936 H 91.1119 -2.82447 0.85486 0
M  V30 937 H 91.1929 -1.52537 2.05344 0
M  V30 938 H 90.8369 -3.24431 3.90777 0
M  V30 939 H 90.7669 -4.53313 2.67983 0
M  V30 940 H 93.2579 -3.02909 2.25952 0
M  V30 941 H 93.5709 -5.80027 5.10674 0
M  V30 942 H 91.9159 -5.22093 4.58741 0
M  V30 943 H 95.1069 -3.70112 2.86592 0
M  V30 944 H 95.2799 -4.96494 4.1641 0
M  V30 945 N 88.686 -0.835752 -1.33615 0
M  V30 946 C 89.916 -0.442701 -2.01801 0
M  V30 947 C 90.324 0.959807 -1.63047 0
M  V30 948 O 89.667 1.63468 -0.838088 0
M  V30 949 C 89.729 -0.480125 -3.56279 0
M  V30 950 C 89.393 -1.8382 -4.18401 0
M  V30 951 C 90.39 -2.80097 -4.37998 0
M  V30 952 C 88.075 -2.13019 -4.54894 0
M  V30 953 C 90.069 -4.03736 -4.9323 0
M  V30 954 C 87.756 -3.36916 -5.09834 0
M  V30 955 C 88.754 -4.32091 -5.28948 0
M  V30 956 O 88.442 -5.53797 -5.82721 0
M  V30 957 H 88.174 -0.17441 -0.653114 0
M  V30 958 H 90.728 -1.129 -1.71589 0
M  V30 959 H 88.958 0.262931 -3.85805 0
M  V30 960 H 90.647 -0.105335 -4.05763 0
M  V30 961 H 91.413 -2.58838 -4.10156 0
M  V30 962 H 87.292 -1.39733 -4.39313 0
M  V30 963 H 90.836 -4.78034 -5.08064 0
M  V30 964 H 86.733 -3.58033 -5.37106 0
M  V30 965 H 87.501 -5.55494 -6.0114 0
M  V30 966 N 90.1641 1.46063 -0.591896 0
M  V30 967 C 91.5751 1.85944 -0.167822 0
M  V30 968 C 91.9261 1.49429 1.27143 0
M  V30 969 O 91.0511 0.913515 1.96173 0
M  V30 970 C 91.6461 3.37489 -0.297794 0
M  V30 971 C 90.2051 3.76332 0.0714732 0
M  V30 972 C 89.3521 2.7006 -0.629509 0
M  V30 973 H 92.3031 1.37087 -0.799555 0
M  V30 974 H 92.3241 3.77532 0.474349 0
M  V30 975 H 91.8361 3.64034 -1.3454 0
M  V30 976 H 89.9371 3.55405 1.11886 0
M  V30 977 H 90.0501 4.78088 -0.311245 0
M  V30 978 H 88.4141 2.54607 -0.0687867 0
M  V30 979 H 89.1971 2.99444 -1.67894 0
M  V30 980 N 91.6422 0.330177 1.54103 0
M  V30 981 C 92.9192 -0.325007 1.92881 0
M  V30 982 C 93.2992 -1.6934 1.26045 0
M  V30 983 O 92.6472 -2.24855 0.406526 0
M  V30 984 C 92.8572 -0.410634 3.46576 0
M  V30 985 C 94.2052 -0.667801 4.19316 0
M  V30 986 O 95.2292 -0.49329 3.52768 0
M  V30 987 O 94.0882 -1.00491 5.37181 0
M  V30 988 H 91.1822 -0.186873 0.80561 0
M  V30 989 H 93.7282 0.380376 1.65382 0
M  V30 990 H 92.5002 0.550164 3.87413 0
M  V30 991 H 92.1232 -1.16333 3.802 0
M  V30 992 N 93.1203 -1.57491 0.0584922 0
M  V30 993 C 94.3483 -1.97296 -0.623037 0
M  V30 994 C 94.7633 -0.936338 -1.63946 0
M  V30 995 O 94.1203 0.0785981 -1.82331 0
M  V30 996 C 94.1713 -3.37183 -1.30345 0
M  V30 997 O 93.8923 -4.36872 -0.32773 0
M  V30 998 C 95.3933 -3.91788 -2.07406 0
M  V30 999 H 92.6133 -0.649153 -0.169826 0
M  V30 1000 H 95.1573 -2.04106 0.12696 0
M  V30 1001 H 93.3123 -3.31502 -2.00463 0
M  V30 1002 H 93.7263 -5.18141 -0.814269 0
M  V30 1003 H 95.2003 -4.91926 -2.50425 0
M  V30 1004 H 95.6773 -3.27609 -2.92521 0
M  V30 1005 H 96.2833 -4.00829 -1.42184 0
M  V30 1006 N 94.5984 0.214957 -1.56127 0
M  V30 1007 C 95.5284 1.2695 -1.95974 0
M  V30 1008 C 96.5094 1.48539 -0.828868 0
M  V30 1009 O 97.6944 1.60611 -1.09168 0
M  V30 1010 C 94.8244 2.61794 -2.28214 0
M  V30 1011 C 93.7784 2.54851 -3.43853 0
M  V30 1012 C 93.1044 3.93785 -3.61715 0
M  V30 1013 C 94.4044 2.09065 -4.78632 0
M  V30 1014 H 96.0984 0.93846 -2.84312 0
M  V30 1015 H 93.6444 0.449996 -1.36788 0
M  V30 1016 H 95.5974 3.35731 -2.54682 0
M  V30 1017 H 94.3214 2.96599 -1.36736 0
M  V30 1018 H 92.9804 1.8337 -3.17444 0
M  V30 1019 H 92.6284 4.25908 -2.67602 0
M  V30 1020 H 92.3284 3.90019 -4.39498 0
M  V30 1021 H 93.8524 4.69374 -3.90539 0
M  V30 1022 H 95.2664 2.7275 -5.04262 0
M  V30 1023 H 93.6634 2.16346 -5.59745 0
M  V30 1024 H 94.7334 1.04315 -4.73547 0
M  V30 1025 N 96.0765 1.50051 0.48192 0
M  V30 1026 C 97.0065 1.71046 1.58951 0
M  V30 1027 C 97.9875 0.559288 1.60642 0
M  V30 1028 O 99.1725 0.797243 1.77081 0
M  V30 1029 C 96.3025 1.79462 2.97339 0
M  V30 1030 C 95.2565 2.94558 3.10515 0
M  V30 1031 C 94.5825 2.88105 4.50444 0
M  V30 1032 C 95.8825 4.35227 2.88747 0
M  V30 1033 H 97.5765 2.6378 1.41635 0
M  V30 1034 H 95.1225 1.26936 0.679942 0
M  V30 1035 H 97.0755 1.92734 3.74742 0
M  V30 1036 H 95.7995 0.833412 3.15788 0
M  V30 1037 H 94.4585 2.80918 2.35543 0
M  V30 1038 H 94.1065 1.89853 4.65795 0
M  V30 1039 H 93.8065 3.65366 4.60197 0
M  V30 1040 H 95.3305 3.03412 5.29881 0
M  V30 1041 H 96.7445 4.49449 3.55905 0
M  V30 1042 H 95.1415 5.13856 3.09955 0
M  V30 1043 H 96.2115 4.48347 1.84696 0
M  V30 1044 N 97.5546 -0.734337 1.39446 0
M  V30 1045 C 98.8026 -1.49096 1.36436 0
M  V30 1046 C 99.1236 -1.94961 -0.0388255 0
M  V30 1047 O 98.3936 -1.69033 -0.990191 0
M  V30 1048 H 96.9736 -0.5531 0.502085 0
M  V30 1049 H 99.6356 -0.871725 1.74319 0
M  V30 1050 H 98.7316 -2.37276 2.02747 0
M  V30 1051 N 99.0327 -1.24633 -0.964593 0
M  V30 1052 C 100.258 -1.11596 -1.74818 0
M  V30 1053 C 100.683 0.32723 -1.85232 0
M  V30 1054 O 100.041 1.23695 -1.32549 0
M  V30 1055 C 100.089 -1.76397 -3.1451 0
M  V30 1056 O 99.1927 -1.03685 -3.99153 0
M  V30 1057 H 98.5337 -0.390196 -0.537255 0
M  V30 1058 H 101.064 -1.65002 -1.20977 0
M  V30 1059 H 101.074 -1.8228 -3.65018 0
M  V30 1060 H 99.7487 -2.81401 -3.06246 0
M  V30 1061 H 98.3257 -1.05611 -3.57632 0
M  V30 1062 N 100.511 1.16574 -1.06058 0
M  V30 1063 C 101.739 1.90952 -0.796552 0
M  V30 1064 C 102.154 1.77302 0.648808 0
M  V30 1065 O 101.511 1.11605 1.44397 0
M  V30 1066 C 101.562 3.41736 -1.17894 0
M  V30 1067 O 101.283 3.54975 -2.56758 0
M  V30 1068 C 102.784 4.33169 -0.942308 0
M  V30 1069 H 100.004 0.605594 -0.288959 0
M  V30 1070 H 102.548 1.47777 -1.41358 0
M  V30 1071 H 100.703 3.82623 -0.606491 0
M  V30 1072 H 101.117 4.4846 -2.72 0
M  V30 1073 H 102.591 5.37439 -1.25952 0
M  V30 1074 H 103.068 4.3903 0.122078 0
M  V30 1075 H 103.674 3.98007 -1.49902 0
M  V30 1076 N 101.989 0.842826 1.3317 0
M  V30 1077 C 102.899 0.281444 2.32906 0
M  V30 1078 C 103.915 -0.594587 1.63526 0
M  V30 1079 O 105.091 -0.49777 1.95152 0
M  V30 1080 C 102.156 -0.530929 3.42611 0
M  V30 1081 C 101.217 0.369843 4.27704 0
M  V30 1082 C 100.45 -0.403853 5.3217 0
M  V30 1083 O 100.673 -1.63513 5.46461 0
M  V30 1084 O 99.6069 0.224199 6.01482 0
M  V30 1085 H 103.433 1.10744 2.82789 0
M  V30 1086 H 101.018 0.60545 1.36582 0
M  V30 1087 H 102.9 -0.992437 4.09547 0
M  V30 1088 H 101.575 -1.33392 2.94938 0
M  V30 1089 H 100.482 0.879275 3.6362 0
M  V30 1090 H 101.815 1.13771 4.78871 0
M  V30 1091 N 103.467 -1.45747 0.599634 0
M  V30 1092 C 104.414 -2.30467 -0.123849 0
M  V30 1093 C 105.384 -1.41632 -0.86774 0
M  V30 1094 O 106.569 -1.70568 -0.855056 0
M  V30 1095 C 103.709 -3.26402 -1.12051 0
M  V30 1096 C 102.822 -4.3034 -0.37832 0
M  V30 1097 C 101.957 -5.13389 -1.364 0
M  V30 1098 C 100.996 -6.09061 -0.609171 0
M  V30 1099 N 100.133 -6.84918 -1.54374 0
M  V30 1100 H 104.973 -2.91802 0.604627 0
M  V30 1101 H 102.51 -1.43797 0.309972 0
M  V30 1102 H 104.468 -3.80482 -1.7114 0
M  V30 1103 H 103.098 -2.66839 -1.8165 0
M  V30 1104 H 102.15 -3.78984 0.327929 0
M  V30 1105 H 103.462 -4.98354 0.210997 0
M  V30 1106 H 102.616 -5.7183 -2.02719 0
M  V30 1107 H 101.355 -4.45376 -1.98725 0
M  V30 1108 H 100.36 -5.49758 0.0676979 0
M  V30 1109 H 101.585 -6.79099 0.00891991 0
M  V30 1110 H 99.531 -6.19601 -2.15478 0
M  V30 1111 H 99.448 -7.49254 -1.00766 0
M  V30 1112 H 100.716 -7.47906 -2.19676 0
M  V30 1113 N 104.945 -0.338344 -1.53925 0
M  V30 1114 C 105.855 0.529421 -2.28548 0
M  V30 1115 C 106.871 1.11645 -1.3346 0
M  V30 1116 O 108.047 1.13325 -1.66492 0
M  V30 1117 C 105.112 1.66713 -3.03987 0
M  V30 1118 C 104.173 1.11041 -4.14691 0
M  V30 1119 C 103.406 2.19389 -4.86522 0
M  V30 1120 O 103.629 3.40013 -4.57982 0
M  V30 1121 O 102.563 1.83976 -5.73094 0
M  V30 1122 H 106.389 -0.0770399 -3.03602 0
M  V30 1123 H 103.974 -0.103555 -1.49041 0
M  V30 1124 H 105.856 2.32918 -3.5118 0
M  V30 1125 H 104.531 2.25949 -2.31794 0
M  V30 1126 H 103.438 0.413024 -3.71813 0
M  V30 1127 H 104.771 0.562975 -4.8897 0
M  V30 1128 N 106.423 1.57458 -0.0668435 0
M  V30 1129 C 107.67 1.93301 0.603406 0
M  V30 1130 C 107.998 0.946486 1.69917 0
M  V30 1131 O 107.253 -0.0387021 1.95662 0
M  V30 1132 C 107.552 3.35784 1.22409 0
M  V30 1133 C 107.218 4.50179 0.254955 0
M  V30 1134 C 105.88 4.81199 -0.0116746 0
M  V30 1135 C 108.232 5.19598 -0.408338 0
M  V30 1136 C 105.56 5.78978 -0.94877 0
M  V30 1137 C 107.912 6.18381 -1.33372 0
M  V30 1138 C 106.576 6.47821 -1.60887 0
M  V30 1139 H 105.846 0.707338 0.220802 0
M  V30 1140 H 108.493 1.91012 -0.136665 0
M  V30 1141 H 106.798 3.34515 2.03978 0
M  V30 1142 H 108.495 3.60804 1.74989 0
M  V30 1143 H 105.085 4.25983 0.472954 0
M  V30 1144 H 109.269 4.95832 -0.215456 0
M  V30 1145 H 104.525 6.00115 -1.16925 0
M  V30 1146 H 108.699 6.71277 -1.85367 0
M  V30 1147 H 106.326 7.23399 -2.33661 0
M  V30 1148 N 107.901 -0.206675 1.56239 0
M  V30 1149 C 109.148 -0.928842 1.79941 0
M  V30 1150 C 109.476 -1.83734 0.638131 0
M  V30 1151 O 108.731 -1.92039 -0.376746 0
M  V30 1152 C 109.03 -1.78675 3.09532 0
M  V30 1153 C 108.696 -1.03022 4.38973 0
M  V30 1154 C 107.358 -0.821302 4.74139 0
M  V30 1155 C 109.71 -0.497081 5.18824 0
M  V30 1156 C 107.038 -0.0675719 5.86661 0
M  V30 1157 C 109.39 0.24338 6.32132 0
M  V30 1158 C 108.054 0.463422 6.65889 0
M  V30 1159 H 107.324 -0.339887 0.658451 0
M  V30 1160 H 109.971 -0.195977 1.90495 0
M  V30 1161 H 108.276 -2.58794 2.94165 0
M  V30 1162 H 109.973 -2.34792 3.25075 0
M  V30 1163 H 106.563 -1.20306 4.11369 0
M  V30 1164 H 110.747 -0.645921 4.92079 0
M  V30 1165 H 106.003 0.112995 6.11296 0
M  V30 1166 H 110.177 0.66393 6.93228 0
M  V30 1167 H 107.804 1.04938 7.52922 0
M  V30 1168 N 109.379 -1.50304 -0.473955 0
M  V30 1169 C 110.626 -1.6115 -1.22625 0
M  V30 1170 C 110.954 -0.310517 -1.92005 0
M  V30 1171 O 110.209 0.703419 -1.82621 0
M  V30 1172 C 110.508 -2.73938 -2.29549 0
M  V30 1173 C 110.174 -4.14519 -1.7744 0
M  V30 1174 C 108.836 -4.5277 -1.62949 0
M  V30 1175 C 111.188 -5.02392 -1.3875 0
M  V30 1176 C 108.516 -5.76639 -1.08187 0
M  V30 1177 C 110.868 -6.26805 -0.854309 0
M  V30 1178 C 109.532 -6.63861 -0.696011 0
M  V30 1179 H 108.802 -0.589691 -0.448715 0
M  V30 1180 H 111.449 -1.84228 -0.522705 0
M  V30 1181 H 109.754 -2.44937 -3.05799 0
M  V30 1182 H 111.451 -2.79534 -2.87509 0
M  V30 1183 H 108.041 -3.8434 -1.89685 0
M  V30 1184 H 112.225 -4.73474 -1.4878 0
M  V30 1185 H 107.481 -6.04027 -0.946666 0
M  V30 1186 H 111.655 -6.94258 -0.545843 0
M  V30 1187 H 109.282 -7.59722 -0.26952 0
M  V30 1188 N 110.857 0.726932 -1.39834 0
M  V30 1189 C 111.805 1.86235 -1.39353 0
M  V30 1190 C 112.799 1.67144 -0.275555 0
M  V30 1191 O 114.005 1.74387 -0.44601 0
M  V30 1192 H 110.38 0.613174 -0.43534 0
M  V30 1193 H 112.351 1.83756 -2.35109 0
M  V30 1194 C 111.1 3.23995 -1.26185 0
M  V30 1195 H 110.423 3.39285 -2.11484 0
M  V30 1196 H 111.863 4.03609 -1.29907 0
M  V30 1197 C 110.322 3.36888 0.0290018 0
M  V30 1198 O 110.852 3.89152 0.99619 0
M  V30 1199 N 109.058 2.90446 0.0947437 0
M  V30 1200 H 108.605 2.48102 -0.693035 0
M  V30 1201 H 108.563 2.99451 0.957932 0
M  V30 1202 N 112.336 1.25143 0.95797 0
M  V30 1203 C 113.246 1.06968 2.08794 0
M  V30 1204 C 114.262 0.00773911 1.73998 0
M  V30 1205 O 115.438 0.207972 2.00323 0
M  V30 1206 C 112.503 0.68691 3.39827 0
M  V30 1207 C 111.564 1.82641 3.88511 0
M  V30 1208 C 110.797 1.46181 5.1329 0
M  V30 1209 O 111.02 0.355971 5.69288 0
M  V30 1210 O 109.954 2.29085 5.566 0
M  V30 1211 H 113.78 2.01723 2.27027 0
M  V30 1212 H 111.365 1.04051 1.07209 0
M  V30 1213 H 113.247 0.485417 4.18595 0
M  V30 1214 H 111.922 -0.231417 3.22872 0
M  V30 1215 H 110.829 2.08274 3.10762 0
M  V30 1216 H 112.162 2.72386 4.09959 0
M  V30 1217 N 113.814 -1.1601 1.06675 0
M  V30 1218 C 115.091 -1.82679 0.699114 0
M  V30 1219 C 115.471 -1.94559 -0.819137 0
M  V30 1220 O 114.819 -1.49169 -1.73092 0
M  V30 1221 C 115.029 -3.19445 1.40555 0
M  V30 1222 C 116.377 -3.95171 1.55323 0
M  V30 1223 O 117.401 -3.28976 1.36577 0
M  V30 1224 O 116.26 -5.13833 1.86112 0
M  V30 1225 H 113.354 -0.788954 0.247951 0
M  V30 1226 H 115.9 -1.23179 1.16726 0
M  V30 1227 H 114.672 -3.05856 2.44065 0
M  V30 1228 H 114.295 -3.86625 0.927733 0
M  V30 1229 N 115.292 -0.849877 -1.32721 0
M  V30 1230 C 116.52 -0.464754 -2.01613 0
M  V30 1231 C 116.935 0.937191 -1.63897 0
M  V30 1232 O 116.292 1.61081 -0.857856 0
M  V30 1233 C 116.343 -0.588638 -3.56675 0
M  V30 1234 O 116.064 -1.93535 -3.93034 0
M  V30 1235 C 117.565 -0.2019 -4.4284 0
M  V30 1236 H 114.785 -0.183215 -0.645502 0
M  V30 1237 H 117.329 -1.1455 -1.69407 0
M  V30 1238 H 115.484 0.0443159 -3.87375 0
M  V30 1239 H 115.898 -1.92871 -4.87751 0
M  V30 1240 H 117.372 -0.339599 -5.50954 0
M  V30 1241 H 117.849 0.857224 -4.30753 0
M  V30 1242 H 118.455 -0.809733 -4.17521 0
M  V30 1243 N 116.77 1.45427 -0.607355 0
M  V30 1244 C 117.717 2.3053 0.111625 0
M  V30 1245 C 118.687 1.4209 0.860216 0
M  V30 1246 O 119.872 1.71019 0.845998 0
M  V30 1247 C 117.012 3.26992 1.10319 0
M  V30 1248 C 116.125 4.30535 0.355493 0
M  V30 1249 C 115.26 5.14105 1.33676 0
M  V30 1250 C 114.299 6.09376 0.576862 0
M  V30 1251 N 113.436 6.85727 1.5074 0
M  V30 1252 H 118.276 2.91477 -0.620093 0
M  V30 1253 H 115.813 1.43631 -0.317594 0
M  V30 1254 H 117.771 3.81385 1.6912 0
M  V30 1255 H 116.401 2.67799 1.80232 0
M  V30 1256 H 115.453 3.78805 -0.348023 0
M  V30 1257 H 116.765 4.98235 -0.237423 0
M  V30 1258 H 115.919 5.72897 1.99684 0
M  V30 1259 H 114.658 4.46423 1.9636 0
M  V30 1260 H 113.663 5.49715 -0.0968519 0
M  V30 1261 H 114.888 6.79085 -0.0449341 0
M  V30 1262 H 112.834 6.20735 2.12189 0
M  V30 1263 H 112.751 7.49778 0.967913 0
M  V30 1264 H 114.019 7.4906 2.15706 0
M  V30 1265 N 118.248 0.346503 1.53744 0
M  V30 1266 C 119.158 -0.517293 2.28826 0
M  V30 1267 C 120.174 -1.10935 1.3405 0
M  V30 1268 O 121.35 -1.1244 1.6709 0
M  V30 1269 C 118.415 -1.65098 3.04866 0
M  V30 1270 C 117.476 -1.0884 4.15274 0
M  V30 1271 C 116.709 -2.16806 4.87679 0
M  V30 1272 O 116.932 -3.3758 4.59778 0
M  V30 1273 O 115.866 -1.80934 5.74061 0
M  V30 1274 H 119.692 0.0931396 3.03557 0
M  V30 1275 H 117.277 0.111458 1.48984 0
M  V30 1276 H 119.159 -2.31053 3.5241 0
M  V30 1277 H 117.834 -2.24717 2.32989 0
M  V30 1278 H 116.741 -0.3933 3.72027 0
M  V30 1279 H 118.074 -0.537036 4.89261 0
M  V30 1280 N 119.726 -1.57421 0.075193 0
M  V30 1281 C 120.956 -1.97659 -0.601203 0
M  V30 1282 C 121.364 -0.952427 -1.63479 0
M  V30 1283 O 120.707 0.0688241 -1.83571 0
M  V30 1284 C 120.769 -3.34218 -1.32434 0
M  V30 1285 C 120.433 -4.5484 -0.443826 0
M  V30 1286 C 121.43 -5.19034 0.299969 0
M  V30 1287 C 119.115 -5.00952 -0.367709 0
M  V30 1288 C 121.109 -6.27695 1.10807 0
M  V30 1289 C 118.796 -6.09484 0.444058 0
M  V30 1290 C 119.794 -6.72719 1.18061 0
M  V30 1291 O 119.482 -7.79161 1.97898 0
M  V30 1292 H 119.214 -0.65494 -0.167422 0
M  V30 1293 H 121.768 -2.04886 0.145157 0
M  V30 1294 H 119.998 -3.23615 -2.11685 0
M  V30 1295 H 121.687 -3.59038 -1.89331 0
M  V30 1296 H 122.453 -4.84351 0.250776 0
M  V30 1297 H 118.332 -4.51509 -0.930638 0
M  V30 1298 H 121.876 -6.76982 1.68347 0
M  V30 1299 H 117.773 -6.43601 0.494803 0
M  V30 1300 H 118.541 -7.96055 1.90367 0
M  V30 1301 N 121.204 0.198386 -1.56346 0
M  V30 1302 C 122.451 0.919286 -1.80431 0
M  V30 1303 C 122.779 1.83393 -0.647866 0
M  V30 1304 O 122.034 1.92236 0.366556 0
M  V30 1305 C 122.333 1.77031 -3.10475 0
M  V30 1306 C 121.999 1.00693 -4.39513 0
M  V30 1307 C 120.661 0.796145 -4.74568 0
M  V30 1308 C 123.013 0.469559 -5.19081 0
M  V30 1309 C 120.341 0.0364588 -5.86689 0
M  V30 1310 C 122.693 -0.2769 -6.31994 0
M  V30 1311 C 121.357 -0.49873 -6.65634 0
M  V30 1312 H 120.627 0.336391 -0.660244 0
M  V30 1313 H 123.274 0.185872 -1.90596 0
M  V30 1314 H 121.579 2.5723 -2.95533 0
M  V30 1315 H 123.276 2.33065 -3.26315 0
M  V30 1316 H 119.866 1.18122 -4.12001 0
M  V30 1317 H 124.05 0.619816 -4.92414 0
M  V30 1318 H 119.306 -0.145412 -6.11227 0
M  V30 1319 H 123.48 -0.700684 -6.92866 0
M  V30 1320 H 121.107 -1.0893 -7.52355 0
M  V30 1321 N 122.682 1.50554 0.465978 0
M  V30 1322 C 123.929 1.61798 1.21768 0
M  V30 1323 C 124.257 0.320696 1.91838 0
M  V30 1324 O 123.512 -0.693724 1.82992 0
M  V30 1325 C 123.811 2.75152 2.28093 0
M  V30 1326 C 123.477 4.15454 1.75239 0
M  V30 1327 C 122.139 4.53628 1.60546 0
M  V30 1328 C 124.491 5.03121 1.36083 0
M  V30 1329 C 121.819 5.77204 1.05128 0
M  V30 1330 C 124.171 6.27249 0.821056 0
M  V30 1331 C 122.835 6.64221 0.660795 0
M  V30 1332 H 122.105 0.592063 0.445582 0
M  V30 1333 H 124.752 1.84503 0.512927 0
M  V30 1334 H 123.057 2.46556 3.04496 0
M  V30 1335 H 124.754 2.81055 2.86023 0
M  V30 1336 H 121.344 3.85341 1.87644 0
M  V30 1337 H 125.528 4.74257 1.46267 0
M  V30 1338 H 120.784 6.0452 0.91462 0
M  V30 1339 H 124.958 6.94537 0.509018 0
M  V30 1340 H 122.585 7.59854 0.229226 0
M  V30 1341 N 124.16 -0.719506 1.40217 0
M  V30 1342 C 125.437 -1.47221 1.28784 0
M  V30 1343 C 125.817 -2.10883 -0.0956067 0
M  V30 1344 O 125.165 -1.99833 -1.10811 0
M  V30 1345 C 125.375 -2.5111 2.42373 0
M  V30 1346 C 126.723 -3.17053 2.82423 0
M  V30 1347 O 127.747 -2.61429 2.41937 0
M  V30 1348 O 126.606 -4.17742 3.52355 0
M  V30 1349 H 123.7 -0.654491 0.50554 0
M  V30 1350 H 126.246 -0.752014 1.52128 0
M  V30 1351 H 125.018 -2.02556 3.34793 0
M  V30 1352 H 124.641 -3.3067 2.20778 0
M  V30 1353 N 125.638 -1.25649 -0.95132 0
M  V30 1354 C 127.054 -1.02542 -1.223 0
M  V30 1355 C 127.254 0.255715 -1.99871 0
M  V30 1356 O 126.31 0.967558 -2.33226 0
M  V30 1357 C 127.623 -2.25065 -1.99415 0
M  V30 1358 C 129.171 -2.29861 -2.12446 0
M  V30 1359 C 129.646 -3.52048 -2.92961 0
M  V30 1360 N 131.137 -3.52465 -3.00538 0
M  V30 1361 C 131.872 -4.43672 -3.63239 0
M  V30 1362 N 131.368 -5.45157 -4.27523 0
M  V30 1363 N 133.161 -4.31346 -3.60412 0
M  V30 1364 H 125.312 -2.07951 -0.432471 0
M  V30 1365 H 127.575 -0.91339 -0.253816 0
M  V30 1366 H 127.281 -3.18194 -1.49817 0
M  V30 1367 H 127.155 -2.28502 -3.00111 0
M  V30 1368 H 129.542 -1.37252 -2.61239 0
M  V30 1369 H 129.623 -2.3044 -1.11044 0
M  V30 1370 H 129.267 -4.44981 -2.44856 0
M  V30 1371 H 129.197 -3.48715 -3.94596 0
M  V30 1372 H 131.688 -2.79056 -2.54826 0
M  V30 1373 H 132.001 -6.10958 -4.73234 0
M  V30 1374 H 130.346 -5.49025 -4.26141 0
M  V30 1375 H 133.537 -3.51288 -3.09377 0
M  V30 1376 H 133.71 -5.02624 -4.0899 0
M  V30 1377 N 127.117 1.15442 -1.07289 0
M  V30 1378 C 128.394 1.82306 -0.708792 0
M  V30 1379 C 128.774 1.94991 0.808807 0
M  V30 1380 O 128.122 1.50085 1.72298 0
M  V30 1381 C 128.332 3.18695 -1.42247 0
M  V30 1382 C 129.68 3.94341 -1.57417 0
M  V30 1383 O 130.704 3.28247 -1.38319 0
M  V30 1384 O 129.563 5.12839 -1.88834 0
M  V30 1385 H 126.657 0.787628 -0.252132 0
M  V30 1386 H 129.203 1.22559 -1.17377 0
M  V30 1387 H 127.975 3.04557 -2.45684 0
M  V30 1388 H 127.598 3.86128 -0.948223 0
M  V30 1389 N 128.595 0.856903 1.32268 0
M  V30 1390 C 130.006 0.515711 1.79436 0
M  V30 1391 C 130.357 -0.966586 1.70738 0
M  V30 1392 O 129.482 -1.75409 1.26731 0
M  V30 1393 C 130.077 0.929335 3.25805 0
M  V30 1394 C 128.636 0.640006 3.70919 0
M  V30 1395 C 127.783 1.12784 2.53328 0
M  V30 1396 H 130.734 1.04389 1.19535 0
M  V30 1397 H 130.755 0.246633 3.797 0
M  V30 1398 H 130.267 2.00821 3.32103 0
M  V30 1399 H 128.368 -0.428051 3.70133 0
M  V30 1400 H 128.481 1.20788 4.63624 0
M  V30 1401 H 126.845 0.548033 2.48734 0
M  V30 1402 H 127.628 2.21387 2.62379 0
M  V30 1403 N 130.073 -1.45103 0.615059 0
M  V30 1404 C 130.983 -2.34382 -0.101034 0
M  V30 1405 C 131.999 -1.51681 -0.852585 0
M  V30 1406 O 133.175 -1.8446 -0.808484 0
M  V30 1407 C 130.24 -3.29417 -1.08099 0
M  V30 1408 C 129.301 -4.28025 -0.330577 0
M  V30 1409 C 128.534 -5.1852 -1.26385 0
M  V30 1410 O 128.757 -5.12598 -2.50198 0
M  V30 1411 O 127.691 -5.97122 -0.756866 0
M  V30 1412 H 131.517 -2.97033 0.632855 0
M  V30 1413 H 129.102 -1.4461 0.375293 0
M  V30 1414 H 130.984 -3.87958 -1.6452 0
M  V30 1415 H 129.659 -2.69321 -1.79577 0
M  V30 1416 H 128.566 -3.73078 0.276283 0
M  V30 1417 H 129.899 -4.90997 0.343866 0
M  V30 1418 N 131.551 -0.354651 -1.53558 0
M  V30 1419 C 132.797 0.238797 -2.01389 0
M  V30 1420 C 133.13 1.49309 -1.2418 0
M  V30 1421 O 132.405 1.91638 -0.332457 0
M  V30 1422 C 132.688 0.541771 -3.56001 0
M  V30 1423 C 132.541 -0.725388 -4.43912 0
M  V30 1424 C 133.86 1.34685 -4.18984 0
M  V30 1425 H 130.979 0.0853177 -0.732045 0
M  V30 1426 H 133.621 -0.477384 -1.83905 0
M  V30 1427 H 131.771 1.15189 -3.71031 0
M  V30 1428 H 133.443 -1.36313 -4.407 0
M  V30 1429 H 131.686 -1.34801 -4.12324 0
M  V30 1430 H 132.357 -0.468505 -5.50008 0
M  V30 1431 H 134.833 0.830837 -4.07721 0
M  V30 1432 H 133.709 1.52759 -5.27215 0
M  V30 1433 H 133.97 2.35221 -3.74331 0
M  V30 1434 N 133.029 1.57378 -0.0835403 0
M  V30 1435 C 134.276 1.9393 0.58287 0
M  V30 1436 C 134.604 0.964455 1.68904 0
M  V30 1437 O 133.859 -0.0179474 1.95692 0
M  V30 1438 C 134.158 3.37063 1.1884 0
M  V30 1439 C 133.824 4.50424 0.207194 0
M  V30 1440 C 132.486 4.81159 -0.0627115 0
M  V30 1441 C 134.838 5.19136 -0.463426 0
M  V30 1442 C 132.166 5.77939 -1.01012 0
M  V30 1443 C 134.518 6.16931 -1.39924 0
M  V30 1444 C 133.182 6.46078 -1.67749 0
M  V30 1445 H 132.452 0.70964 0.213287 0
M  V30 1446 H 135.099 1.90856 -0.156916 0
M  V30 1447 H 133.404 3.3666 2.00418 0
M  V30 1448 H 135.101 3.6264 1.71153 0
M  V30 1449 H 131.691 4.2646 0.427747 0
M  V30 1450 H 135.875 4.95576 -0.268034 0
M  V30 1451 H 131.131 5.98842 -1.23283 0
M  V30 1452 H 135.305 6.69273 -1.92476 0
M  V30 1453 H 132.932 7.2088 -2.41321 0
M  V30 1454 N 134.507 -0.190092 1.56449 0
M  V30 1455 C 135.923 -0.54113 1.50146 0
M  V30 1456 C 136.123 -1.85603 0.784465 0
M  V30 1457 O 135.179 -2.5024 0.337051 0
M  V30 1458 C 136.492 -0.591241 2.9483 0
M  V30 1459 C 138.04 -0.679732 3.0553 0
M  V30 1460 C 138.515 -0.760908 4.51635 0
M  V30 1461 N 140.006 -0.824302 4.55806 0
M  V30 1462 C 140.741 -0.907365 5.66175 0
M  V30 1463 N 140.237 -0.952422 6.86222 0
M  V30 1464 N 142.03 -0.94494 5.541 0
M  V30 1465 H 134.181 0.67235 2.01478 0
M  V30 1466 H 136.444 0.240127 0.917084 0
M  V30 1467 H 136.15 0.305905 3.50367 0
M  V30 1468 H 136.024 -1.44422 3.48457 0
M  V30 1469 H 138.411 -1.56731 2.50039 0
M  V30 1470 H 138.492 0.199549 2.5502 0
M  V30 1471 H 138.136 0.122336 5.07753 0
M  V30 1472 H 138.066 -1.65606 4.99882 0
M  V30 1473 H 140.557 -0.798526 3.69367 0
M  V30 1474 H 140.87 -1.01645 7.66086 0
M  V30 1475 H 139.215 -0.921014 6.8887 0
M  V30 1476 H 142.406 -0.906612 4.59236 0
M  V30 1477 H 142.579 -1.00622 6.4014 0
M  V30 1478 N 135.985 -1.50799 -0.457987 0
M  V30 1479 C 137.225 -1.64088 -1.21879 0
M  V30 1480 C 137.589 -0.339848 -1.88968 0
M  V30 1481 O 138.79 -0.348301 -2.66534 0
M  V30 1482 C 137.061 -2.79726 -2.2246 0
M  V30 1483 S 138.62 -3.13225 -3.07303 0
M  V30 1484 H 135.438 -0.578314 -0.41361 0
M  V30 1485 H 138.04 -1.88632 -0.513645 0
M  V30 1486 H 136.744 -3.72722 -1.71775 0
M  V30 1487 H 136.275 -2.57308 -2.97584 0
M  V30 1488 H 138.29 -2.58062 -4.23814 0
M  V30 1489 N 137.463 0.71206 -1.40597 0
M  V30 1490 C 138.709 1.47416 -1.39271 0
M  V30 1491 C 139.042 1.942 0.00388791 0
M  V30 1492 O 138.317 1.68403 0.973179 0
M  V30 1493 C 138.6 2.69774 -2.38525 0
M  V30 1494 C 138.453 2.28861 -3.87224 0
M  V30 1495 C 139.772 3.71939 -2.35264 0
M  V30 1496 H 136.891 0.534713 -0.5072 0
M  V30 1497 H 139.533 0.812375 -1.71757 0
M  V30 1498 H 137.683 3.26238 -2.10953 0
M  V30 1499 H 139.355 1.77852 -4.25636 0
M  V30 1500 H 137.598 1.60824 -4.02887 0
M  V30 1501 H 138.269 3.16584 -4.52193 0
M  V30 1502 H 140.745 3.25113 -2.59694 0
M  V30 1503 H 139.621 4.55186 -3.06753 0
M  V30 1504 H 139.882 4.20484 -1.36549 0
M  V30 1505 N 138.941 1.26152 0.944643 0
M  V30 1506 C 139.871 1.09902 2.06019 0
M  V30 1507 C 140.852 0.00519538 1.70099 0
M  V30 1508 O 142.037 0.176583 1.93396 0
M  V30 1509 C 139.167 0.727562 3.39594 0
M  V30 1510 C 138.121 1.77274 3.89561 0
M  V30 1511 C 137.447 1.25569 5.19747 0
M  V30 1512 C 138.747 3.17357 4.14827 0
M  V30 1513 H 140.441 2.03217 2.19871 0
M  V30 1514 H 137.987 0.978452 1.05652 0
M  V30 1515 H 139.94 0.600777 4.17095 0
M  V30 1516 H 138.664 -0.241287 3.25707 0
M  V30 1517 H 137.323 1.88814 3.14237 0
M  V30 1518 H 136.971 0.276783 5.02238 0
M  V30 1519 H 136.671 1.95433 5.54148 0
M  V30 1520 H 138.195 1.1415 5.99835 0
M  V30 1521 H 139.609 3.08914 4.82954 0
M  V30 1522 H 138.006 3.84781 4.60504 0
M  V30 1523 H 139.076 3.63673 3.20734 0
M  V30 1524 N 140.419 -1.14872 1.07899 0
M  V30 1525 C 141.367 -2.21857 0.698727 0
M  V30 1526 C 142.361 -1.66845 -0.293086 0
M  V30 1527 O 143.567 -1.79321 -0.156204 0
M  V30 1528 H 139.942 -0.722691 0.207899 0
M  V30 1529 H 141.913 -2.51205 1.61054 0
M  V30 1530 C 140.662 -3.47498 0.11858 0
M  V30 1531 H 139.985 -3.90154 0.872914 0
M  V30 1532 H 141.425 -4.23858 -0.109759 0
M  V30 1533 C 139.884 -3.16947 -1.1422 0
M  V30 1534 O 140.414 -3.3426 -2.22785 0
M  V30 1535 N 138.62 -2.70946 -1.05055 0
M  V30 1536 H 138.167 -2.57058 -0.167038 0
M  V30 1537 H 138.125 -2.50879 -1.89491 0
M  V30 1538 N 141.898 -0.863906 -1.31812 0
M  V30 1539 C 143.145 -0.471836 -1.96926 0
M  V30 1540 C 143.473 0.974578 -1.68322 0
M  V30 1541 O 142.728 1.7003 -0.968933 0
M  V30 1542 C 143.027 -0.668547 -3.51091 0
M  V30 1543 C 142.693 -2.08683 -3.99703 0
M  V30 1544 C 141.355 -2.47471 -4.12688 0
M  V30 1545 C 143.707 -3.01207 -4.25351 0
M  V30 1546 C 141.035 -3.78037 -4.4867 0
M  V30 1547 C 143.387 -4.31282 -4.62794 0
M  V30 1548 C 142.051 -4.69992 -4.73987 0
M  V30 1549 H 141.321 -0.172657 -0.720604 0
M  V30 1550 H 143.968 -1.09573 -1.57054 0
M  V30 1551 H 142.273 0.0385252 -3.91781 0
M  V30 1552 H 143.97 -0.345102 -3.99512 0
M  V30 1553 H 140.56 -1.77566 -3.90087 0
M  V30 1554 H 144.744 -2.72469 -4.14819 0
M  V30 1555 H 140 -4.078 -4.55532 0
M  V30 1556 H 144.174 -5.03031 -4.81594 0
M  V30 1557 H 141.801 -5.71207 -5.01624 0
M  V30 1558 N 143.376 1.44774 -0.622745 0
M  V30 1559 C 144.606 2.06187 -0.130532 0
M  V30 1560 C 145.014 1.46547 1.19669 0
M  V30 1561 O 144.357 0.579636 1.74316 0
M  V30 1562 C 144.419 3.59437 0.0674983 0
M  V30 1563 C 144.083 4.41496 -1.18026 0
M  V30 1564 C 145.08 4.75512 -2.102 0
M  V30 1565 C 142.765 4.82007 -1.41333 0
M  V30 1566 C 144.759 5.48912 -3.23998 0
M  V30 1567 C 142.446 5.55157 -2.55429 0
M  V30 1568 C 143.444 5.88528 -3.46589 0
M  V30 1569 O 143.132 6.60191 -4.58697 0
M  V30 1570 H 142.864 0.672045 -0.0730162 0
M  V30 1571 H 145.418 1.86768 -0.854802 0
M  V30 1572 H 143.648 3.77314 0.846825 0
M  V30 1573 H 145.337 4.02642 0.513209 0
M  V30 1574 H 146.103 4.4476 -1.93425 0
M  V30 1575 H 141.982 4.55457 -0.712709 0
M  V30 1576 H 145.526 5.74877 -3.95174 0
M  V30 1577 H 141.423 5.85324 -2.72151 0
M  V30 1578 H 142.191 6.78654 -4.57571 0
M  V30 1579 N 144.854 0.36279 1.53368 0
M  V30 1580 C 146.27 0.0116182 1.59596 0
M  V30 1581 C 146.47 -1.47012 1.37803 0
M  V30 1582 O 145.526 -2.23136 1.18181 0
M  V30 1583 C 146.839 0.465052 2.97082 0
M  V30 1584 C 148.387 0.419033 3.10182 0
M  V30 1585 C 148.862 0.848235 4.50077 0
M  V30 1586 N 150.353 0.803183 4.56183 0
M  V30 1587 C 151.088 1.107 5.62613 0
M  V30 1588 N 150.584 1.47996 6.76808 0
M  V30 1589 N 152.377 1.02998 5.52583 0
M  V30 1590 H 144.528 1.32775 1.65785 0
M  V30 1591 H 146.791 0.542518 0.777417 0
M  V30 1592 H 146.497 1.49892 3.18159 0
M  V30 1593 H 146.371 -0.149786 3.76902 0
M  V30 1594 H 148.758 -0.605696 2.88817 0
M  V30 1595 H 148.839 1.06933 2.32377 0
M  V30 1596 H 148.483 1.87107 4.7218 0
M  V30 1597 H 148.413 0.175218 5.26308 0
M  V30 1598 H 150.904 0.52838 3.74188 0
M  V30 1599 H 151.217 1.69613 7.53957 0
M  V30 1600 H 149.562 1.51859 6.78206 0
M  V30 1601 H 152.753 0.737817 4.62249 0
M  V30 1602 H 152.926 1.2701 6.35431 0
M  V30 1603 N 146.332 -1.57332 0.0918853 0
M  V30 1604 C 147.56 -1.98574 -0.581048 0
M  V30 1605 C 147.975 -0.970903 -1.61923 0
M  V30 1606 O 147.332 0.0399054 -1.82456 0
M  V30 1607 C 147.383 -3.39872 -1.23164 0
M  V30 1608 O 147.104 -4.37469 -0.234989 0
M  V30 1609 C 148.605 -3.96099 -1.99049 0
M  V30 1610 H 145.825 -0.65261 -0.156018 0
M  V30 1611 H 148.369 -2.0379 0.170225 0
M  V30 1612 H 146.524 -3.35679 -1.93386 0
M  V30 1613 H 146.938 -5.19751 -0.70418 0
M  V30 1614 H 148.412 -4.97127 -2.39934 0
M  V30 1615 H 148.889 -3.3374 -2.85507 0
M  V30 1616 H 149.495 -4.03755 -1.3365 0
M  V30 1617 N 147.81 0.181792 -1.56548 0
M  V30 1618 C 149.058 0.89832 -1.81038 0
M  V30 1619 C 149.379 1.83232 -0.667164 0
M  V30 1620 O 148.649 1.93372 0.313673 0
M  V30 1621 H 147.229 0.33471 -0.667816 0
M  V30 1622 H 149.891 0.184116 -1.94028 0
M  V30 1623 H 148.987 1.4815 -2.74696 0
M  V30 1624 N 149.288 1.51039 0.449983 0
M  V30 1625 C 150.235 1.71439 1.54523 0
M  V30 1626 C 151.205 0.555871 1.56522 0
M  V30 1627 O 152.39 0.788871 1.73728 0
M  V30 1628 C 149.53 1.83384 2.92343 0
M  V30 1629 C 148.643 3.10873 2.9997 0
M  V30 1630 C 147.778 3.13488 4.28834 0
M  V30 1631 C 146.817 4.35343 4.30282 0
M  V30 1632 N 145.954 4.35579 5.5065 0
M  V30 1633 H 150.794 2.64934 1.36433 0
M  V30 1634 H 148.331 1.31312 0.662982 0
M  V30 1635 H 150.289 1.88291 3.72293 0
M  V30 1636 H 148.919 0.933086 3.0902 0
M  V30 1637 H 147.971 3.15336 2.12761 0
M  V30 1638 H 149.283 4.00814 2.96901 0
M  V30 1639 H 148.437 3.17241 5.17149 0
M  V30 1640 H 147.176 2.21414 4.34543 0
M  V30 1641 H 146.181 4.3178 3.40362 0
M  V30 1642 H 147.406 5.28668 4.26248 0
M  V30 1643 H 145.352 3.46369 5.57104 0
M  V30 1644 H 145.269 5.19313 5.49409 0
M  V30 1645 H 146.537 4.43507 6.41032 0
M  V30 1646 N 150.766 -0.704594 1.40972 0
M  V30 1647 C 151.696 -1.83124 1.44872 0
M  V30 1648 C 152.677 -1.67281 0.30838 0
M  V30 1649 O 153.862 -1.87149 0.518556 0
M  V30 1650 C 150.992 -3.21181 1.32136 0
M  V30 1651 C 149.946 -3.51714 2.43888 0
M  V30 1652 C 149.272 -4.89032 2.16222 0
M  V30 1653 C 150.572 -3.516 3.86232 0
M  V30 1654 H 152.266 -1.80117 2.39161 0
M  V30 1655 H 149.812 -0.865145 1.15114 0
M  V30 1656 H 151.765 -3.99702 1.33479 0
M  V30 1657 H 150.489 -3.24791 0.343279 0
M  V30 1658 H 149.148 -2.75539 2.41813 0
M  V30 1659 H 148.796 -4.89256 1.16778 0
M  V30 1660 H 148.496 -5.10426 2.911 0
M  V30 1661 H 150.02 -5.69873 2.19265 0
M  V30 1662 H 151.434 -4.2014 3.9007 0
M  V30 1663 H 149.831 -3.84523 4.60719 0
M  V30 1664 H 150.901 -2.50757 4.15029 0
M  V30 1665 N 152.244 -1.26651 -0.937939 0
M  V30 1666 C 153.194 -1.05156 -2.02302 0
M  V30 1667 C 154.178 0.0171233 -1.60891 0
M  V30 1668 O 155.37 -0.200213 -1.75864 0
M  V30 1669 C 152.499 -0.689962 -3.36295 0
M  V30 1670 C 151.585 -1.79626 -3.84181 0
M  V30 1671 N 151.976 -3.03422 -4.04684 0
M  V30 1672 C 150.274 -1.6806 -4.13124 0
M  V30 1673 C 150.975 -3.75345 -4.444 0
M  V30 1674 N 149.951 -3.03051 -4.51288 0
M  V30 1675 H 153.753 -1.99117 -2.1617 0
M  V30 1676 H 151.267 -1.17216 -1.12402 0
M  V30 1677 H 153.264 -0.517112 -4.13681 0
M  V30 1678 H 151.924 0.242139 -3.23796 0
M  V30 1679 H 152.935 -3.39293 -3.91281 0
M  V30 1680 H 149.612 -0.818629 -4.09396 0
M  V30 1681 H 151.002 -4.81691 -4.68427 0
M  V30 1682 N 153.722 1.14298 -1.08507 0
M  V30 1683 C 154.952 1.88945 -0.835663 0
M  V30 1684 C 155.36 1.78894 0.615928 0
M  V30 1685 O 154.703 1.1468 1.43506 0
M  V30 1686 C 154.765 3.39585 -1.17994 0
M  V30 1687 C 154.429 3.7342 -2.63451 0
M  V30 1688 C 155.426 3.73454 -3.61702 0
M  V30 1689 C 153.111 4.03368 -2.99332 0
M  V30 1690 C 155.105 4.02961 -4.93864 0
M  V30 1691 C 152.792 4.32538 -4.31687 0
M  V30 1692 C 153.79 4.32318 -5.28763 0
M  V30 1693 O 153.478 4.6078 -6.58739 0
M  V30 1694 H 153.21 0.605307 -0.300965 0
M  V30 1695 H 155.764 1.45673 -1.44806 0
M  V30 1696 H 153.994 3.83315 -0.51055 0
M  V30 1697 H 155.683 3.9554 -0.911182 0
M  V30 1698 H 156.449 3.50403 -3.35325 0
M  V30 1699 H 152.328 4.02692 -2.24411 0
M  V30 1700 H 155.872 4.02704 -5.69627 0
M  V30 1701 H 151.769 4.55059 -4.57812 0
M  V30 1702 H 152.537 4.78492 -6.64069 0
M  V30 1703 N 155.201 0.870884 1.31352 0
M  V30 1704 C 156.612 0.534714 1.78879 0
M  V30 1705 C 156.963 -0.948423 1.71754 0
M  V30 1706 O 156.088 -1.74055 1.28584 0
M  V30 1707 C 156.683 0.963839 3.24801 0
M  V30 1708 C 155.242 0.679311 3.70219 0
M  V30 1709 C 154.389 1.15465 2.52117 0
M  V30 1710 H 157.34 1.05651 1.18421 0
M  V30 1711 H 157.361 0.286892 3.79417 0
M  V30 1712 H 156.873 2.04332 3.29955 0
M  V30 1713 H 154.974 -0.388769 3.70566 0
M  V30 1714 H 155.087 1.25698 4.62317 0
M  V30 1715 H 153.451 0.574383 2.48139 0
M  V30 1716 H 154.234 2.24157 2.60016 0
M  V30 1717 N 156.679 -1.44442 0.630414 0
M  V30 1718 C 158.095 -1.56832 0.295973 0
M  V30 1719 C 158.295 -1.61806 -1.20088 0
M  V30 1720 O 157.351 -1.5607 -1.9849 0
M  V30 1721 C 158.664 -2.84031 0.987264 0
M  V30 1722 C 160.212 -2.97742 0.96534 0
M  V30 1723 C 160.687 -4.27743 1.63708 0
M  V30 1724 N 162.178 -4.34555 1.60364 0
M  V30 1725 C 162.913 -5.33862 2.09234 0
M  V30 1726 N 162.409 -6.39578 2.66292 0
M  V30 1727 N 164.202 -5.25366 1.99867 0
M  V30 1728 H 156.353 -1.39457 1.60205 0
M  V30 1729 H 158.616 -0.668237 0.672431 0
M  V30 1730 H 158.322 -2.86338 2.04215 0
M  V30 1731 H 158.196 -3.73534 0.524588 0
M  V30 1732 H 160.583 -2.94989 -0.0810639 0
M  V30 1733 H 160.664 -2.09589 1.4665 0
M  V30 1734 H 160.308 -4.31255 2.68293 0
M  V30 1735 H 160.238 -5.14752 1.11076 0
M  V30 1736 H 162.729 -3.58772 1.18705 0
M  V30 1737 H 163.042 -7.11637 3.01317 0
M  V30 1738 H 161.387 -6.40265 2.70343 0
M  V30 1739 H 164.578 -4.41688 1.55013 0
M  V30 1740 H 164.751 -6.02606 2.38265 0
M  V30 1741 N 158.157 -0.370918 -1.53173 0
M  V30 1742 C 159.387 0.217389 -2.05453 0
M  V30 1743 C 159.795 1.42568 -1.24382 0
M  V30 1744 O 159.138 1.81571 -0.278839 0
M  V30 1745 C 159.2 0.669827 -3.53205 0
M  V30 1746 C 158.864 -0.4225 -4.55043 0
M  V30 1747 C 159.861 -1.27407 -5.04047 0
M  V30 1748 C 157.546 -0.58427 -4.9889 0
M  V30 1749 C 159.54 -2.27271 -5.95505 0
M  V30 1750 C 157.227 -1.58627 -5.90153 0
M  V30 1751 C 158.225 -2.42892 -6.38351 0
M  V30 1752 O 157.913 -3.41382 -7.27814 0
M  V30 1753 H 157.645 0.0408171 -0.674767 0
M  V30 1754 H 160.199 -0.5292 -1.98466 0
M  V30 1755 H 158.429 1.4681 -3.57748 0
M  V30 1756 H 160.118 1.18173 -3.88317 0
M  V30 1757 H 160.884 -1.16031 -4.70916 0
M  V30 1758 H 156.763 0.061851 -4.60959 0
M  V30 1759 H 160.307 -2.93079 -6.33049 0
M  V30 1760 H 156.204 -1.70048 -6.22699 0
M  V30 1761 H 156.972 -3.37173 -7.45826 0
M  V30 1762 N 159.635 1.57281 -0.100228 0
M  V30 1763 C 160.545 2.17833 0.870965 0
M  V30 1764 C 161.561 1.14921 1.30649 0
M  V30 1765 O 162.737 1.47313 1.37335 0
M  V30 1766 C 159.802 2.75085 2.1102 0
M  V30 1767 C 158.863 3.9297 1.72838 0
M  V30 1768 C 158.096 4.47482 2.90854 0
M  V30 1769 O 158.319 4.00922 4.05731 0
M  V30 1770 O 157.253 5.38433 2.69023 0
M  V30 1771 H 161.079 3.0124 0.38575 0
M  V30 1772 H 158.664 1.48881 0.124397 0
M  V30 1773 H 160.546 3.11656 2.83634 0
M  V30 1774 H 159.221 1.94721 2.58584 0
M  V30 1775 H 158.128 3.61201 0.973883 0
M  V30 1776 H 159.461 4.74713 1.30033 0
M  V30 1777 N 161.113 -0.173488 1.56642 0
M  V30 1778 C 162.353 -0.896984 1.83667 0
M  V30 1779 C 162.717 -1.79523 0.680842 0
M  V30 1780 O 163.918 -2.55616 0.831488 0
M  V30 1781 C 162.189 -1.67351 3.15798 0
M  V30 1782 S 163.748 -2.44607 3.64298 0
M  V30 1783 H 160.566 -0.300464 0.644393 0
M  V30 1784 H 163.168 -0.158775 1.94854 0
M  V30 1785 H 161.872 -1.00462 3.97914 0
M  V30 1786 H 161.403 -2.45313 3.07546 0
M  V30 1787 H 163.418 -3.69261 3.31452 0
M  V30 1788 N 162.591 -1.51276 -0.441967 0
M  V30 1789 C 163.84 -1.6295 -1.18871 0
M  V30 1790 C 164.153 -0.349312 -1.92456 0
M  V30 1791 O 165.359 -0.345355 -2.69295 0
M  V30 1792 C 163.815 -2.87759 -2.16155 0
M  V30 1793 C 163.423 -4.22764 -1.48239 0
M  V30 1794 C 165.167 -3.08788 -2.91291 0
M  V30 1795 C 163.074 -5.38728 -2.4398 0
M  V30 1796 H 162.004 -0.606913 -0.447406 0
M  V30 1797 H 164.655 -1.77739 -0.456205 0
M  V30 1798 H 163.037 -2.66593 -2.92821 0
M  V30 1799 H 164.211 -4.54293 -0.771635 0
M  V30 1800 H 162.526 -4.07575 -0.852741 0
M  V30 1801 H 165.123 -3.92599 -3.63002 0
M  V30 1802 H 165.466 -2.21679 -3.5237 0
M  V30 1803 H 165.999 -3.30272 -2.21733 0
M  V30 1804 H 162.738 -6.28082 -1.87598 0
M  V30 1805 H 162.258 -5.1158 -3.13123 0
M  V30 1806 H 163.937 -5.70489 -3.05207 0
M  V30 1807 N 164.069 0.697108 -1.41344 0
M  V30 1808 C 165.294 1.49096 -1.44171 0
M  V30 1809 C 165.719 1.88038 -0.0481568 0
M  V30 1810 O 165.077 1.54525 0.948243 0
M  V30 1811 C 165.125 2.73088 -2.3549 0
M  V30 1812 O 164.229 3.70514 -1.81088 0
M  V30 1813 H 163.57 0.448801 -0.489361 0
M  V30 1814 H 166.1 0.856992 -1.85787 0
M  V30 1815 H 166.11 3.21413 -2.51312 0
M  V30 1816 H 164.785 2.44081 -3.36745 0
M  V30 1817 H 163.362 3.29441 -1.74708 0
M  V30 1818 N 165.547 1.27147 0.931209 0
M  V30 1819 C 166.51 1.09615 2.01289 0
M  V30 1820 C 167.51 0.0412581 1.60747 0
M  V30 1821 O 168.7 0.285545 1.71844 0
M  V30 1822 C 165.832 0.669447 3.34262 0
M  V30 1823 H 167.025 2.05662 2.18273 0
M  V30 1824 H 164.578 1.09885 1.11153 0
M  V30 1825 H 165.313 -0.292572 3.22978 0
M  V30 1826 H 165.098 1.43127 3.65044 0
M  V30 1827 H 166.588 0.568921 4.13706 0
M  V30 1828 N 167.025 -1.13721 1.09112 0
M  V30 1829 C 168.255 -1.88499 0.845671 0
M  V30 1830 C 168.663 -1.79218 -0.606432 0
M  V30 1831 O 168.006 -1.1544 -1.42896 0
M  V30 1832 C 168.068 -3.38954 1.19793 0
M  V30 1833 C 167.732 -3.72018 2.65428 0
M  V30 1834 C 168.729 -3.7153 3.63677 0
M  V30 1835 C 166.414 -4.01775 3.01467 0
M  V30 1836 C 168.408 -4.00336 4.95994 0
M  V30 1837 C 166.095 -4.30243 4.33975 0
M  V30 1838 C 167.093 -4.29508 5.31048 0
M  V30 1839 O 166.781 -4.5728 6.61173 0
M  V30 1840 H 166.513 -0.603702 0.304171 0
M  V30 1841 H 169.067 -1.44903 1.45576 0
M  V30 1842 H 167.297 -3.83039 0.530871 0
M  V30 1843 H 168.986 -3.95052 0.932146 0
M  V30 1844 H 169.752 -3.4862 3.37179 0
M  V30 1845 H 165.631 -4.01496 2.26544 0
M  V30 1846 H 169.175 -3.99678 5.71755 0
M  V30 1847 H 165.072 -4.52625 4.60219 0
M  V30 1848 H 165.84 -4.74964 6.66597 0
M  V30 1849 N 168.503 -0.877838 -1.30888 0
M  V30 1850 C 169.78 -0.413052 -1.91189 0
M  V30 1851 C 170.16 1.1056 -1.79832 0
M  V30 1852 O 169.508 1.93771 -1.21099 0
M  V30 1853 C 169.718 -0.903191 -3.3711 0
M  V30 1854 C 171.066 -0.93395 -4.14201 0
M  V30 1855 O 172.09 -0.849373 -3.45925 0
M  V30 1856 O 170.949 -1.05772 -5.36167 0
M  V30 1857 H 168.043 -0.125035 -0.817493 0
M  V30 1858 H 170.589 -0.966269 -1.39504 0
M  V30 1859 H 169.361 -1.94692 -3.39427 0
M  V30 1860 H 168.984 -0.328732 -3.96239 0
M  V30 1861 N 169.982 1.44106 -0.638065 0
M  V30 1862 C 171.259 1.95453 -0.0759321 0
M  V30 1863 C 171.639 1.57984 1.40015 0
M  V30 1864 O 170.987 0.857361 2.11806 0
M  V30 1865 C 171.197 3.47655 -0.306132 0
M  V30 1866 C 172.545 4.24114 -0.203008 0
M  V30 1867 O 173.569 3.55405 -0.237871 0
M  V30 1868 O 172.428 5.46381 -0.113827 0
M  V30 1869 H 169.522 0.826797 0.0183332 0
M  V30 1870 H 172.068 1.54122 -0.710251 0
M  V30 1871 H 170.84 3.68 -1.3301 0
M  V30 1872 H 170.463 3.95949 0.361991 0
M  V30 1873 N 171.46 0.379036 1.52974 0
M  V30 1874 C 172.37 -0.468639 2.29872 0
M  V30 1875 C 173.386 -1.08067 1.36373 0
M  V30 1876 O 174.562 -1.08871 1.69438 0
M  V30 1877 C 171.627 -1.58594 3.083 0
M  V30 1878 C 170.688 -1.00007 4.17489 0
M  V30 1879 C 169.921 -2.06413 4.92168 0
M  V30 1880 O 170.144 -3.27751 4.66835 0
M  V30 1881 O 169.078 -1.68717 5.7777 0
M  V30 1882 H 172.904 0.157508 3.03291 0
M  V30 1883 H 170.489 0.143035 1.48714 0
M  V30 1884 H 172.371 -2.23525 3.57232 0
M  V30 1885 H 171.046 -2.19724 2.37703 0
M  V30 1886 H 169.953 -0.314299 3.72777 0
M  V30 1887 H 171.286 -0.433135 4.90291 0
M  V30 1888 N 172.938 -1.57226 0.108567 0
M  V30 1889 C 173.868 -2.17778 -0.84232 0
M  V30 1890 C 174.849 -1.11487 -1.2847 0
M  V30 1891 O 176.034 -1.39681 -1.34918 0
M  V30 1892 C 173.164 -2.76888 -2.09644 0
M  V30 1893 C 172.118 -3.88669 -1.79221 0
M  V30 1894 C 171.444 -4.34541 -3.11574 0
M  V30 1895 C 172.744 -5.11251 -1.06864 0
M  V30 1896 H 174.438 -2.97489 -0.337774 0
M  V30 1897 H 171.984 -1.43097 -0.161025 0
M  V30 1898 H 173.937 -3.17904 -2.76614 0
M  V30 1899 H 172.661 -1.94451 -2.62405 0
M  V30 1900 H 171.32 -3.48213 -1.14644 0
M  V30 1901 H 170.968 -3.48977 -3.62249 0
M  V30 1902 H 170.668 -5.09914 -2.91996 0
M  V30 1903 H 172.192 -4.782 -3.7968 0
M  V30 1904 H 173.606 -5.49352 -1.63968 0
M  V30 1905 H 172.003 -5.9214 -0.974178 0
M  V30 1906 H 173.073 -4.8487 -0.0536168 0
M  V30 1907 N 174.416 0.165178 -1.56732 0
M  V30 1908 C 175.379 1.18822 -1.95995 0
M  V30 1909 C 176.379 1.3685 -0.84431 0
M  V30 1910 O 177.569 1.34152 -1.11126 0
M  V30 1911 C 174.701 2.5521 -2.26011 0
M  V30 1912 H 175.894 0.851825 -2.87548 0
M  V30 1913 H 173.447 0.407857 -1.50885 0
M  V30 1914 H 174.182 2.93852 -1.37191 0
M  V30 1915 H 173.967 2.43489 -3.07336 0
M  V30 1916 H 175.457 3.28927 -2.57288 0
M  V30 1917 N 175.894 1.51508 0.433938 0
M  V30 1918 C 177.141 1.64345 1.18309 0
M  V30 1919 C 177.469 0.361315 1.91115 0
M  V30 1920 O 176.724 -0.654753 1.84422 0
M  V30 1921 C 177.023 2.79928 2.22205 0
M  V30 1922 C 176.689 4.19078 1.66387 0
M  V30 1923 C 175.351 4.56932 1.50887 0
M  V30 1924 C 177.703 5.05894 1.25381 0
M  V30 1925 C 175.031 5.79305 0.928608 0
M  V30 1926 C 177.383 6.2885 0.687823 0
M  V30 1927 C 176.047 6.65473 0.519755 0
M  V30 1928 H 175.317 0.601381 0.432923 0
M  V30 1929 H 177.964 1.85549 0.473676 0
M  V30 1930 H 176.269 2.52959 2.99197 0
M  V30 1931 H 177.966 2.87059 2.79997 0
M  V30 1932 H 174.556 3.89234 1.79428 0
M  V30 1933 H 178.74 4.77253 1.36175 0
M  V30 1934 H 173.996 6.06324 0.786186 0
M  V30 1935 H 178.17 6.95461 0.361581 0
M  V30 1936 H 175.797 7.6017 0.0679979 0
M  V30 1937 N 177.372 -0.689602 1.41712 0
M  V30 1938 C 178.602 -1.47613 1.44548 0
M  V30 1939 C 179.01 -1.89132 0.0509034 0
M  V30 1940 O 178.353 -1.57741 -0.94146 0
M  V30 1941 C 178.415 -2.76596 2.2964 0
M  V30 1942 C 178.079 -2.57245 3.77722 0
M  V30 1943 C 179.076 -2.22804 4.69739 0
M  V30 1944 C 176.761 -2.727 4.2183 0
M  V30 1945 C 178.755 -2.04064 6.03851 0
M  V30 1946 C 176.442 -2.53576 5.56006 0
M  V30 1947 C 177.44 -2.1931 6.46832 0
M  V30 1948 O 177.128 -2.00359 7.78532 0
M  V30 1949 H 176.86 -0.461227 0.494212 0
M  V30 1950 H 179.414 -0.856045 1.86711 0
M  V30 1951 H 177.644 -3.41033 1.82301 0
M  V30 1952 H 179.333 -3.38424 2.24107 0
M  V30 1953 H 180.099 -2.10473 4.36951 0
M  V30 1954 H 175.978 -2.98353 3.51435 0
M  V30 1955 H 179.522 -1.77241 6.74708 0
M  V30 1956 H 175.419 -2.65499 5.88371 0
M  V30 1957 H 176.187 -2.15075 7.89737 0
M  V30 1958 N 178.85 -1.27639 -0.924453 0
M  V30 1959 C 180.098 -1.13941 -1.66918 0
M  V30 1960 C 180.419 0.314589 -1.92446 0
M  V30 1961 O 179.689 1.21964 -1.53303 0
M  V30 1962 H 178.269 -0.418678 -0.618642 0
M  V30 1963 H 180.931 -1.60213 -1.10985 0
M  V30 1964 H 180.027 -1.67094 -2.63602 0
M  V30 1965 N 180.328 1.1314 -1.09713 0
M  V30 1966 C 181.577 1.83838 -0.829851 0
M  V30 1967 C 181.89 1.84599 0.646728 0
M  V30 1968 O 183.096 2.51218 1.02965 0
M  V30 1969 C 181.552 3.30069 -1.43466 0
M  V30 1970 C 181.16 3.37688 -2.94399 0
M  V30 1971 C 182.904 4.05788 -1.24645 0
M  V30 1972 C 180.811 4.78209 -3.47952 0
M  V30 1973 H 179.741 0.68877 -0.306777 0
M  V30 1974 H 182.392 1.27448 -1.3202 0
M  V30 1975 H 180.774 3.8628 -0.871996 0
M  V30 1976 H 181.948 2.91456 -3.56918 0
M  V30 1977 H 180.263 2.75436 -3.12289 0
M  V30 1978 H 182.86 5.09535 -1.62107 0
M  V30 1979 H 183.203 4.15878 -0.187357 0
M  V30 1980 H 183.736 3.55915 -1.77678 0
M  V30 1981 H 180.475 4.73311 -4.53495 0
M  V30 1982 H 179.995 5.24924 -2.90198 0
M  V30 1983 H 181.674 5.47133 -3.45332 0
M  V30 1984 N 181.806 0.884767 1.30421 0
M  V30 1985 C 182.736 0.367574 2.30589 0
M  V30 1986 C 183.717 -0.549464 1.60981 0
M  V30 1987 O 184.902 -0.46336 1.88591 0
M  V30 1988 C 182.032 -0.418944 3.44764 0
M  V30 1989 C 180.986 0.406316 4.26067 0
M  V30 1990 C 180.312 -0.506793 5.32293 0
M  V30 1991 C 181.612 1.64832 4.95608 0
M  V30 1992 H 183.306 1.20462 2.74097 0
M  V30 1993 H 180.852 0.580695 1.31772 0
M  V30 1994 H 182.805 -0.791395 4.13902 0
M  V30 1995 H 181.529 -1.28964 3.0006 0
M  V30 1996 H 180.188 0.760903 3.58617 0
M  V30 1997 H 179.836 -1.37519 4.83836 0
M  V30 1998 H 179.536 0.0415828 5.87585 0
M  V30 1999 H 181.06 -0.875764 6.04287 0
M  V30 2000 H 182.474 1.34646 5.57264 0
M  V30 2001 H 180.871 2.13688 5.60765 0
M  V30 2002 H 181.941 2.39284 4.21748 0
M  V30 2003 N 183.284 -1.43765 0.645699 0
M  V30 2004 C 184.695 -1.85193 0.236719 0
M  V30 2005 C 185.046 -1.54045 -1.21509 0
M  V30 2006 O 184.171 -0.985694 -1.92647 0
M  V30 2007 C 184.766 -3.36151 0.422845 0
M  V30 2008 C 183.325 -3.76338 0.0682492 0
M  V30 2009 C 182.472 -2.67538 0.729306 0
M  V30 2010 H 185.423 -1.34025 0.849883 0
M  V30 2011 H 185.444 -3.79032 -0.333904 0
M  V30 2012 H 184.956 -3.5879 1.47958 0
M  V30 2013 H 183.057 -3.59312 -0.986179 0
M  V30 2014 H 183.17 -4.76603 0.488469 0
M  V30 2015 H 181.534 -2.54176 0.163235 0
M  V30 2016 H 182.317 -2.93006 1.78892 0
M  V30 2017 N 184.763 -0.387143 -1.52771 0
M  V30 2018 C 185.673 0.456442 -2.30117 0
M  V30 2019 C 186.689 1.07342 -1.36944 0
M  V30 2020 O 187.865 1.07971 -1.70013 0
M  V30 2021 C 184.93 1.56957 -3.09136 0
M  V30 2022 C 183.991 0.977916 -4.18014 0
M  V30 2023 C 183.224 2.038 -4.93256 0
M  V30 2024 O 183.447 3.25271 -4.68567 0
M  V30 2025 O 182.381 1.6565 -5.78657 0
M  V30 2026 H 186.207 -0.17359 -3.03203 0
M  V30 2027 H 183.792 -0.150919 -1.48636 0
M  V30 2028 H 185.674 2.21628 -3.58412 0
M  V30 2029 H 184.349 2.18461 -2.38865 0
M  V30 2030 H 183.256 0.294525 -3.72939 0
M  V30 2031 H 184.589 0.407128 -4.90513 0
M  V30 2032 N 186.241 1.57166 -0.116904 0
M  V30 2033 C 187.49 1.94298 0.541407 0
M  V30 2034 C 187.803 1.00236 1.67964 0
M  V30 2035 O 189.009 1.26826 2.40057 0
M  V30 2036 C 187.465 3.45306 1.01449 0
M  V30 2037 C 187.073 4.47899 -0.0951738 0
M  V30 2038 C 188.817 3.91361 1.6443 0
M  V30 2039 C 186.724 5.90083 0.394491 0
M  V30 2040 H 185.654 0.725308 0.206019 0
M  V30 2041 H 188.305 1.82446 -0.196419 0
M  V30 2042 H 186.687 3.52385 1.80667 0
M  V30 2043 H 187.861 4.52486 -0.871374 0
M  V30 2044 H 186.176 4.11583 -0.631505 0
M  V30 2045 H 188.773 4.95004 2.02176 0
M  V30 2046 H 189.116 3.3122 2.52189 0
M  V30 2047 H 189.649 3.87073 0.917559 0
M  V30 2048 H 186.388 6.53974 -0.447004 0
M  V30 2049 H 185.908 5.88921 1.13722 0
M  V30 2050 H 187.587 6.41307 0.856399 0
M  V30 2051 N 187.719 -0.156864 1.56817 0
M  V30 2052 C 188.968 -0.869504 1.81996 0
M  V30 2053 C 189.281 -1.82777 0.696545 0
M  V30 2054 O 190.487 -2.58384 0.833658 0
M  V30 2055 C 188.943 -1.59679 3.22538 0
M  V30 2056 C 188.551 -0.681431 4.42787 0
M  V30 2057 C 190.295 -2.2968 3.56997 0
M  V30 2058 C 188.202 -1.40978 5.74351 0
M  V30 2059 H 187.132 -0.328438 0.678708 0
M  V30 2060 H 189.783 -0.1223 1.83092 0
M  V30 2061 H 188.165 -2.38927 3.158 0
M  V30 2062 H 189.339 0.0751166 4.60739 0
M  V30 2063 H 187.654 -0.0903431 4.16302 0
M  V30 2064 H 190.251 -2.84794 4.52544 0
M  V30 2065 H 190.594 -3.05707 2.82576 0
M  V30 2066 H 191.127 -1.57361 3.65352 0
M  V30 2067 H 187.866 -0.691561 6.51842 0
M  V30 2068 H 187.386 -2.13929 5.60352 0
M  V30 2069 H 189.065 -1.95337 6.16808 0
M  V30 2070 N 189.197 -1.51736 -0.425897 0
M  V30 2071 C 190.445 -1.64644 -1.17204 0
M  V30 2072 C 190.766 -0.370486 -1.91448 0
M  V30 2073 O 190.036 0.614088 -1.86026 0
M  V30 2074 H 188.616 -0.606819 -0.435638 0
M  V30 2075 H 191.278 -1.88713 -0.487177 0
M  V30 2076 H 190.374 -2.47958 -1.89534 0
M  V30 2077 N 190.675 0.682077 -1.42076 0
M  V30 2078 C 191.952 1.43755 -1.32642 0
M  V30 2079 C 192.332 2.11063 0.0396611 0
M  V30 2080 O 191.68 2.02701 1.05474 0
M  V30 2081 C 191.89 2.44596 -2.48946 0
M  V30 2082 C 193.238 3.09454 -2.9073 0
M  V30 2083 O 194.262 2.54922 -2.48783 0
M  V30 2084 O 193.121 4.08253 -3.63307 0
M  V30 2085 H 190.215 0.640857 -0.522715 0
M  V30 2086 H 192.761 0.711415 -1.54068 0
M  V30 2087 H 191.533 1.93609 -3.40046 0
M  V30 2088 H 191.156 3.24701 -2.29467 0
M  V30 2089 N 192.153 1.28127 0.917671 0
M  V30 2090 C 193.393 1.163 1.68088 0
M  V30 2091 C 193.757 -0.284515 1.8988 0
M  V30 2092 O 194.958 -0.525413 2.63615 0
M  V30 2093 C 193.229 1.93546 3.00457 0
M  V30 2094 S 194.788 1.98048 3.91564 0
M  V30 2095 H 191.606 0.415005 0.577315 0
M  V30 2096 H 194.208 1.62173 1.09179 0
M  V30 2097 H 192.912 2.97888 2.82295 0
M  V30 2098 H 192.443 1.48207 3.64415 0
M  V30 2099 H 194.458 1.08415 4.84211 0
M  V30 2100 N 193.631 -1.12557 1.10312 0
M  V30 2101 C 194.871 -1.8568 0.854543 0
M  V30 2102 C 195.235 -1.82091 -0.608843 0
M  V30 2103 O 196.436 -2.50544 -0.973717 0
M  V30 2104 C 194.707 -3.2942 1.38626 0
M  V30 2105 S 196.266 -4.19931 1.27293 0
M  V30 2106 H 193.084 -0.640427 0.308827 0
M  V30 2107 H 195.686 -1.35599 1.40831 0
M  V30 2108 H 194.39 -3.2959 2.44537 0
M  V30 2109 H 193.921 -3.84566 0.82902 0
M  V30 2110 H 195.936 -4.95668 0.229776 0
M  V30 2111 N 195.109 -0.891671 -1.2995 0
M  V30 2112 C 196.339 -0.527893 -1.99742 0
M  V30 2113 C 196.747 0.88979 -1.66971 0
M  V30 2114 O 196.09 1.59766 -0.906667 0
M  V30 2115 C 196.152 -0.630804 -3.53922 0
M  V30 2116 C 195.816 -2.01401 -4.10228 0
M  V30 2117 C 196.813 -2.98422 -4.25724 0
M  V30 2118 C 194.498 -2.32121 -4.45449 0
M  V30 2119 C 196.492 -4.24293 -4.75662 0
M  V30 2120 C 194.179 -3.58237 -4.95086 0
M  V30 2121 C 195.177 -4.54137 -5.10146 0
M  V30 2122 O 194.865 -5.78014 -5.58708 0
M  V30 2123 H 194.597 -0.201953 -0.645129 0
M  V30 2124 H 197.151 -1.20076 -1.66646 0
M  V30 2125 H 195.381 0.0990616 -3.86573 0
M  V30 2126 H 197.07 -0.277338 -4.04951 0
M  V30 2127 H 197.836 -2.76001 -3.98809 0
M  V30 2128 H 193.715 -1.5824 -4.32991 0
M  V30 2129 H 197.259 -4.99153 -4.87332 0
M  V30 2130 H 193.156 -3.80491 -5.21437 0
M  V30 2131 H 193.924 -5.8049 -5.77039 0
M  V30 2132 N 196.587 1.43421 -0.653314 0
M  V30 2133 C 197.497 2.34568 0.0388565 0
M  V30 2134 C 198.513 1.53888 0.81207 0
M  V30 2135 O 199.689 1.86539 0.759294 0
M  V30 2136 C 196.754 3.32167 0.993269 0
M  V30 2137 C 195.815 4.28751 0.216977 0
M  V30 2138 C 195.048 5.21688 1.12593 0
M  V30 2139 O 195.271 5.19052 2.36519 0
M  V30 2140 O 194.205 5.98919 0.598284 0
M  V30 2141 H 198.031 2.95251 -0.711386 0
M  V30 2142 H 195.616 1.43564 -0.413502 0
M  V30 2143 H 197.498 3.92183 1.54176 0
M  V30 2144 H 196.173 2.73987 1.72374 0
M  V30 2145 H 195.08 3.72215 -0.375101 0
M  V30 2146 H 196.413 4.89913 -0.473924 0
M  V30 2147 N 198.065 0.39524 1.52563 0
M  V30 2148 C 198.975 -0.444232 2.30356 0
M  V30 2149 C 199.991 -1.06615 1.37511 0
M  V30 2150 O 201.167 -1.07067 1.70583 0
M  V30 2151 C 198.232 -1.55315 3.09964 0
M  V30 2152 C 197.293 -0.955734 4.18526 0
M  V30 2153 C 196.526 -2.01181 4.9433 0
M  V30 2154 O 196.749 -3.22781 4.70285 0
M  V30 2155 O 195.683 -1.62579 5.79527 0
M  V30 2156 H 199.509 0.189667 3.03107 0
M  V30 2157 H 197.094 0.1588 1.48554 0
M  V30 2158 H 198.976 -2.19724 3.59582 0
M  V30 2159 H 197.651 -2.17191 2.4002 0
M  V30 2160 H 196.558 -0.274743 3.7309 0
M  V30 2161 H 197.891 -0.381109 4.90722 0
M  V30 2162 N 199.544 -1.57102 0.125237 0
M  V30 2163 C 200.774 -1.99472 -0.538015 0
M  V30 2164 C 201.182 -1.00395 -1.60366 0
M  V30 2165 O 200.525 0.0103875 -1.83697 0
M  V30 2166 C 200.587 -3.38262 -1.21734 0
M  V30 2167 C 200.251 -4.56021 -0.298897 0
M  V30 2168 C 201.248 -5.17817 0.464943 0
M  V30 2169 C 198.933 -5.01869 -0.208149 0
M  V30 2170 C 200.927 -6.23852 1.3072 0
M  V30 2171 C 198.614 -6.07763 0.637736 0
M  V30 2172 C 199.612 -6.68622 1.39403 0
M  V30 2173 O 199.3 -7.7247 2.22586 0
M  V30 2174 H 199.032 -0.659934 -0.146501 0
M  V30 2175 H 201.586 -2.04321 0.210267 0
M  V30 2176 H 199.816 -3.30185 -2.01282 0
M  V30 2177 H 201.505 -3.6488 -1.77813 0
M  V30 2178 H 202.271 -4.83308 0.404741 0
M  V30 2179 H 198.15 -4.54241 -0.786522 0
M  V30 2180 H 201.694 -6.71284 1.898 0
M  V30 2181 H 197.591 -6.41701 0.699309 0
M  V30 2182 H 198.359 -7.89595 2.15596 0
M  V30 2183 N 201.022 0.148545 -1.56898 0
M  V30 2184 C 201.969 1.18345 -1.98149 0
M  V30 2185 C 202.939 1.42772 -0.848848 0
M  V30 2186 O 204.124 1.55132 -1.11079 0
M  V30 2187 C 201.264 2.51231 -2.36594 0
M  V30 2188 C 200.377 2.33991 -3.63142 0
M  V30 2189 C 199.512 3.59902 -3.90697 0
M  V30 2190 C 198.551 3.37692 -5.1052 0
M  V30 2191 N 197.688 4.5573 -5.34092 0
M  V30 2192 H 202.528 0.82467 -2.86362 0
M  V30 2193 H 200.065 0.395756 -1.41676 0
M  V30 2194 H 202.023 3.28713 -2.56912 0
M  V30 2195 H 200.653 2.85059 -1.51463 0
M  V30 2196 H 199.705 1.47572 -3.50609 0
M  V30 2197 H 201.017 2.13539 -4.5078 0
M  V30 2198 H 200.171 4.45813 -4.11505 0
M  V30 2199 H 198.91 3.83357 -3.01477 0
M  V30 2200 H 197.915 2.5017 -4.89587 0
M  V30 2201 H 199.14 3.15637 -6.0129 0
M  V30 2202 H 197.086 4.79361 -4.47827 0
M  V30 2203 H 197.003 4.38274 -6.15996 0
M  V30 2204 H 198.271 5.42858 -5.59397 0
M  V30 2205 N 202.5 1.5196 0.417844 0
M  V30 2206 C 203.777 1.56146 1.17803 0
M  V30 2207 C 204.157 0.337275 2.08388 0
M  V30 2208 O 203.505 -0.676447 2.18258 0
M  V30 2209 C 203.715 2.88566 1.96293 0
M  V30 2210 C 205.063 3.41244 2.52662 0
M  V30 2211 O 206.087 2.90247 2.06483 0
M  V30 2212 O 204.946 4.30273 3.36938 0
M  V30 2213 H 202.04 0.628598 0.537395 0
M  V30 2214 H 204.586 1.64283 0.425331 0
M  V30 2215 H 203.358 3.69116 1.2988 0
M  V30 2216 H 202.981 2.83681 2.78587 0
M  V30 2217 N 203.978 -0.674533 1.42435 0
M  V30 2218 C 205.394 -0.98769 1.25367 0
M  V30 2219 C 205.594 -2.00879 0.158044 0
M  V30 2220 O 204.65 -2.48075 -0.470633 0
M  V30 2221 C 205.963 -1.49224 2.6106 0
M  V30 2222 C 207.511 -1.61 2.68417 0
M  V30 2223 C 207.986 -2.14852 4.04478 0
M  V30 2224 N 209.477 -2.22185 4.06434 0
M  V30 2225 C 210.212 -2.64928 5.08528 0
M  V30 2226 N 209.708 -3.07121 6.21006 0
M  V30 2227 N 211.501 -2.64679 4.95885 0
M  V30 2228 H 203.652 0.00152503 2.124 0
M  V30 2229 H 205.915 -0.0618434 0.945981 0
M  V30 2230 H 205.621 -0.816453 3.42092 0
M  V30 2231 H 205.495 -2.47094 2.84999 0
M  V30 2232 H 207.882 -2.27686 1.87732 0
M  V30 2233 H 207.963 -0.616195 2.48267 0
M  V30 2234 H 207.607 -1.48775 4.85622 0
M  V30 2235 H 207.537 -3.15024 4.2198 0
M  V30 2236 H 210.028 -1.92435 3.25234 0
M  V30 2237 H 210.341 -3.38423 6.94759 0
M  V30 2238 H 208.686 -3.04978 6.24511 0
M  V30 2239 H 211.877 -2.31078 4.07088 0
M  V30 2240 H 212.05 -2.9767 5.75584 0
M  V30 2241 N 205.456 -1.28612 -0.910864 0
M  V30 2242 C 206.403 -1.12786 -2.01365 0
M  V30 2243 C 207.373 -0.024201 -1.66082 0
M  V30 2244 O 208.558 -0.189667 -1.89855 0
M  V30 2245 C 205.698 -0.798743 -3.35729 0
M  V30 2246 C 204.811 -1.98173 -3.83864 0
M  V30 2247 C 203.946 -1.59298 -5.06752 0
M  V30 2248 C 202.985 -2.74245 -5.47226 0
M  V30 2249 N 202.122 -2.35842 -6.61304 0
M  V30 2250 H 206.962 -2.07142 -2.14234 0
M  V30 2251 H 204.499 -1.03093 -1.0493 0
M  V30 2252 H 206.457 -0.588662 -4.13026 0
M  V30 2253 H 205.087 0.10789 -3.2262 0
M  V30 2254 H 204.139 -2.30386 -3.02699 0
M  V30 2255 H 205.451 -2.84343 -4.09818 0
M  V30 2256 H 204.605 -1.34513 -5.916 0
M  V30 2257 H 203.344 -0.702618 -4.82612 0
M  V30 2258 H 202.349 -2.99725 -4.60918 0
M  V30 2259 H 203.574 -3.63928 -5.73353 0
M  V30 2260 H 201.52 -1.49279 -6.38789 0
M  V30 2261 H 201.437 -3.15546 -6.86998 0
M  V30 2262 H 202.705 -2.14348 -7.4945 0
M  V30 2263 N 206.934 1.1197 -1.10907 0
M  V30 2264 C 208.35 1.35591 -0.841852 0
M  V30 2265 C 208.55 1.94233 0.536246 0
M  V30 2266 O 207.606 2.1717 1.28816 0
M  V30 2267 C 208.919 2.29284 -1.94549 0
M  V30 2268 C 210.467 2.42862 -1.97451 0
M  V30 2269 C 210.942 3.39873 -3.07002 0
M  V30 2270 N 212.433 3.47433 -3.06341 0
M  V30 2271 C 213.168 4.22421 -3.87748 0
M  V30 2272 N 212.664 5.00432 -4.79103 0
M  V30 2273 N 214.457 4.17876 -3.75946 0
M  V30 2274 H 206.608 0.722664 -1.99728 0
M  V30 2275 H 208.871 0.380635 -0.868229 0
M  V30 2276 H 208.577 1.93378 -2.93765 0
M  V30 2277 H 208.451 3.29452 -1.83688 0
M  V30 2278 H 210.838 2.78046 -0.988645 0
M  V30 2279 H 210.919 1.42566 -2.12388 0
M  V30 2280 H 210.563 3.05417 -4.05811 0
M  V30 2281 H 210.493 4.40011 -2.89306 0
M  V30 2282 H 212.984 2.91784 -2.40147 0
M  V30 2283 H 213.297 5.55002 -5.37766 0
M  V30 2284 H 211.642 4.99612 -4.83128 0
M  V30 2285 H 214.833 3.56016 -3.03924 0
M  V30 2286 H 215.006 4.76061 -4.39624 0
M  V30 2287 N 208.412 0.89855 1.29475 0
M  V30 2288 C 209.322 0.379974 2.31502 0
M  V30 2289 C 210.338 -0.524695 1.659 0
M  V30 2290 O 211.514 -0.414551 1.97087 0
M  V30 2291 C 208.579 -0.385138 3.44554 0
M  V30 2292 C 207.64 0.550914 4.2575 0
M  V30 2293 C 206.873 -0.177778 5.33404 0
M  V30 2294 O 207.096 -1.40189 5.52904 0
M  V30 2295 O 206.03 0.479106 5.9999 0
M  V30 2296 H 209.856 1.22639 2.77837 0
M  V30 2297 H 207.441 0.662834 1.33891 0
M  V30 2298 H 209.323 -0.817841 4.13388 0
M  V30 2299 H 207.998 -1.20763 3.0033 0
M  V30 2300 H 206.905 1.03271 3.59564 0
M  V30 2301 H 208.238 1.33979 4.73614 0
M  V30 2302 N 209.89 -1.43072 0.660911 0
M  V30 2303 C 210.838 -2.32569 -0.0378199 0
M  V30 2304 C 211.832 -1.49046 -0.805092 0
M  V30 2305 O 213.038 -1.65206 -0.714624 0
M  V30 2306 H 209.413 -0.75136 -0.031019 0
M  V30 2307 H 211.384 -2.89216 0.734609 0
M  V30 2308 C 210.133 -3.33453 -0.985124 0
M  V30 2309 H 209.456 -3.97752 -0.404147 0
M  V30 2310 H 210.896 -3.98691 -1.44297 0
M  V30 2311 C 209.355 -2.64642 -2.08486 0
M  V30 2312 O 209.885 -2.46776 -3.16961 0
M  V30 2313 N 208.091 -2.23891 -1.8526 0
M  V30 2314 H 207.638 -2.38621 -0.970449 0
M  V30 2315 H 207.596 -1.78181 -2.59034 0
M  V30 2316 N 211.368 -0.403325 -1.52352 0
M  V30 2317 C 212.331 0.413051 -2.25447 0
M  V30 2318 C 213.331 0.978513 -1.276 0
M  V30 2319 O 214.521 0.858305 -1.51587 0
M  V30 2320 C 211.653 1.58087 -3.02029 0
M  V30 2321 H 212.846 -0.227094 -2.99039 0
M  V30 2322 H 210.399 -0.155722 -1.55522 0
M  V30 2323 H 211.134 2.25804 -2.32772 0
M  V30 2324 H 210.919 1.18195 -3.73861 0
M  V30 2325 H 212.409 2.1585 -3.57489 0
M  V30 2326 N 212.846 1.57033 -0.133567 0
M  V30 2327 C 213.756 2.19632 0.824564 0
M  V30 2328 C 214.772 1.17666 1.28182 0
M  V30 2329 O 215.948 1.50193 1.3418 0
M  V30 2330 C 213.013 2.79499 2.05137 0
M  V30 2331 C 212.074 3.96548 1.64464 0
M  V30 2332 C 211.307 4.5355 2.81297 0
M  V30 2333 O 211.53 4.09438 3.97136 0
M  V30 2334 O 210.464 5.44018 2.57542 0
M  V30 2335 H 214.29 3.01991 0.321766 0
M  V30 2336 H 211.875 1.49112 0.0927889 0
M  V30 2337 H 213.757 3.17602 2.7696 0
M  V30 2338 H 212.432 2.00162 2.54395 0
M  V30 2339 H 211.339 3.63186 0.897048 0
M  V30 2340 H 212.672 4.77364 1.19934 0
M  V30 2341 N 214.325 -0.140222 1.56975 0
M  V30 2342 C 215.741 -0.493088 1.51792 0
M  V30 2343 C 215.941 -1.83013 0.843116 0
M  V30 2344 O 214.997 -2.49041 0.416493 0
M  V30 2345 C 216.31 -0.497144 2.96562 0
M  V30 2346 C 217.858 -0.582186 3.07538 0
M  V30 2347 C 218.333 -0.616838 4.53827 0
M  V30 2348 N 219.824 -0.678873 4.58198 0
M  V30 2349 C 220.559 -0.726782 5.68775 0
M  V30 2350 N 220.055 -0.733623 6.88905 0
M  V30 2351 N 221.848 -0.768179 5.56826 0
M  V30 2352 H 213.999 0.736108 1.99237 0
M  V30 2353 H 216.262 0.269182 0.90898 0
M  V30 2354 H 215.968 0.417217 3.49217 0
M  V30 2355 H 215.842 -1.33263 3.52875 0
M  V30 2356 H 218.229 -1.48697 2.54899 0
M  V30 2357 H 218.31 0.280581 2.54257 0
M  V30 2358 H 217.954 0.283812 5.07106 0
M  V30 2359 H 217.884 -1.49619 5.04898 0
M  V30 2360 H 220.375 -0.68061 3.7172 0
M  V30 2361 H 220.688 -0.772215 7.68932 0
M  V30 2362 H 219.033 -0.701389 6.91452 0
M  V30 2363 H 222.224 -0.760051 4.61888 0
M  V30 2364 H 222.397 -0.80205 6.43017 0
M  V30 2365 N 215.803 -1.52179 -0.40978 0
M  V30 2366 C 216.733 -1.78435 -1.5061 0
M  V30 2367 C 217.714 -0.635295 -1.57791 0
M  V30 2368 O 218.899 -0.880823 -1.73076 0
M  V30 2369 C 216.029 -1.93444 -2.88439 0
M  V30 2370 C 214.983 -3.09038 -2.96108 0
M  V30 2371 C 214.309 -3.09268 -4.36185 0
M  V30 2372 C 215.609 -4.48508 -2.67652 0
M  V30 2373 H 217.303 -2.70237 -1.28889 0
M  V30 2374 H 214.849 -1.30036 -0.618605 0
M  V30 2375 H 216.802 -2.10394 -3.65119 0
M  V30 2376 H 215.526 -0.983129 -3.11452 0
M  V30 2377 H 214.185 -2.91837 -2.21872 0
M  V30 2378 H 213.833 -2.11861 -4.56206 0
M  V30 2379 H 213.533 -3.86907 -4.42241 0
M  V30 2380 H 215.057 -3.28348 -5.14801 0
M  V30 2381 H 216.471 -4.65918 -3.34056 0
M  V30 2382 H 214.868 -5.28059 -2.85085 0
M  V30 2383 H 215.938 -4.56649 -1.63095 0
M  V30 2384 N 217.281 0.66697 -1.42791 0
M  V30 2385 C 218.214 1.79177 -1.41318 0
M  V30 2386 C 219.192 1.60234 -0.276401 0
M  V30 2387 O 220.376 1.82602 -0.46785 0
M  V30 2388 C 217.503 3.16289 -1.21157 0
M  V30 2389 C 216.549 3.53964 -2.37932 0
M  V30 2390 S 217.382 3.55501 -4.00474 0
M  V30 2391 C 218.538 4.95292 -3.8267 0
M  V30 2392 H 218.771 1.80153 -2.365 0
M  V30 2393 H 216.304 0.838357 -1.29657 0
M  V30 2394 H 218.262 3.95428 -1.10212 0
M  V30 2395 H 216.923 3.1289 -0.275481 0
M  V30 2396 H 216.116 4.53646 -2.19594 0
M  V30 2397 H 215.718 2.82204 -2.45432 0
M  V30 2398 H 218.01 5.83584 -3.44145 0
M  V30 2399 H 218.953 5.18679 -4.82055 0
M  V30 2400 H 219.361 4.68179 -3.15386 0
M  V30 2401 N 218.759 1.29093 0.90403 0
M  V30 2402 C 220.036 1.075 1.63411 0
M  V30 2403 C 220.416 -0.382346 2.07609 0
M  V30 2404 O 219.764 -1.37031 1.82851 0
M  V30 2405 C 219.974 2.05858 2.81822 0
M  V30 2406 C 221.322 2.36539 3.52611 0
M  V30 2407 O 222.346 2.04019 2.91984 0
M  V30 2408 O 221.205 2.92085 4.61897 0
M  V30 2409 H 218.299 0.411547 0.717327 0
M  V30 2410 H 220.845 1.40449 0.952479 0
M  V30 2411 H 219.617 3.04037 2.46327 0
M  V30 2412 H 219.24 1.73613 3.57693 0
M  V30 2413 N 220.237 -1.11381 1.11499 0
M  V30 2414 C 221.514 -1.7955 0.775965 0
M  V30 2415 C 221.894 -1.97859 -0.73588 0
M  V30 2416 O 221.242 -1.56376 -1.66609 0
M  V30 2417 C 221.452 -3.13196 1.53977 0
M  V30 2418 C 222.8 -3.88227 1.71944 0
M  V30 2419 O 223.824 -3.22887 1.50407 0
M  V30 2420 O 222.683 -5.05477 2.07738 0
M  V30 2421 H 219.777 -0.777728 0.28119 0
M  V30 2422 H 222.323 -1.18118 1.21845 0
M  V30 2423 H 221.095 -2.95229 2.56818 0
M  V30 2424 H 220.718 -3.82342 1.09088 0
M  V30 2425 N 221.715 -0.905404 -1.28997 0
M  V30 2426 C 222.663 -0.377431 -2.29517 0
M  V30 2427 C 223.657 0.526461 -1.61012 0
M  V30 2428 O 224.863 0.40863 -1.753 0
M  V30 2429 H 221.238 -0.103437 -0.744852 0
M  V30 2430 H 223.209 -1.23848 -2.71485 0
M  V30 2431 C 221.958 0.374833 -3.45674 0
M  V30 2432 H 221.281 -0.311474 -3.98585 0
M  V30 2433 H 222.721 0.70903 -4.1803 0
M  V30 2434 C 221.18 1.57963 -2.97572 0
M  V30 2435 O 221.71 2.67886 -2.99333 0
M  V30 2436 N 219.916 1.42375 -2.53333 0
M  V30 2437 H 219.463 0.529466 -2.521 0
M  V30 2438 H 219.421 2.23117 -2.21509 0
M  V30 2439 N 223.193 1.4272 -0.668489 0
M  V30 2440 C 224.47 1.95248 -0.117373 0
M  V30 2441 C 224.85 1.60919 1.36632 0
M  V30 2442 O 224.198 0.902095 2.09939 0
M  V30 2443 C 224.408 3.46927 -0.379806 0
M  V30 2444 C 225.756 4.23588 -0.292923 0
M  V30 2445 O 226.78 3.5482 -0.313204 0
M  V30 2446 O 225.639 5.46017 -0.229697 0
M  V30 2447 H 222.733 0.827 0.00079152 0
M  V30 2448 H 225.279 1.52581 -0.742783 0
M  V30 2449 H 224.051 3.65096 -1.40786 0
M  V30 2450 H 223.674 3.96627 0.277923 0
M  V30 2451 N 224.671 0.411399 1.52136 0
M  V30 2452 C 225.896 -0.165538 2.06738 0
M  V30 2453 C 226.321 -1.379 1.27926 0
M  V30 2454 O 225.679 -1.78628 0.310114 0
M  V30 2455 C 225.727 -0.492124 3.57226 0
M  V30 2456 O 224.831 -1.58276 3.80818 0
M  V30 2457 H 224.172 -0.0132132 0.663869 0
M  V30 2458 H 226.702 0.585253 1.96051 0
M  V30 2459 H 226.712 -0.750104 4.01045 0
M  V30 2460 H 225.387 0.394922 4.14021 0
M  V30 2461 H 223.964 -1.31677 3.48877 0
M  V30 2462 N 226.149 -1.5696 0.141893 0
M  V30 2463 C 227.059 -2.20066 -0.812905 0
M  V30 2464 C 228.075 -1.18344 -1.27557 0
M  V30 2465 O 229.251 -1.50902 -1.33381 0
M  V30 2466 C 226.316 -2.80583 -2.03652 0
M  V30 2467 C 225.377 -3.97414 -1.62359 0
M  V30 2468 C 224.61 -4.55036 -2.78887 0
M  V30 2469 O 224.833 -4.11538 -3.94959 0
M  V30 2470 O 223.767 -5.45376 -2.54653 0
M  V30 2471 H 227.593 -3.02157 -0.305746 0
M  V30 2472 H 225.178 -1.49159 -0.0848799 0
M  V30 2473 H 227.06 -3.19067 -2.75272 0
M  V30 2474 H 225.735 -2.01508 -2.5333 0
M  V30 2475 H 224.642 -3.63656 -0.877775 0
M  V30 2476 H 225.975 -4.77994 -1.17401 0
M  V30 2477 N 227.627 0.131896 -1.57047 0
M  V30 2478 C 228.575 1.18146 -2.0036 0
M  V30 2479 C 229.569 1.43614 -0.898406 0
M  V30 2480 O 230.775 1.43729 -1.08361 0
M  V30 2481 H 227.15 0.398042 -0.638018 0
M  V30 2482 H 229.121 0.789564 -2.87765 0
M  V30 2483 C 227.87 2.50341 -2.41298 0
M  V30 2484 H 227.193 2.31578 -3.25902 0
M  V30 2485 H 228.633 3.22371 -2.75414 0
M  V30 2486 C 227.092 3.11984 -1.27153 0
M  V30 2487 O 227.622 3.97484 -0.580459 0
M  V30 2488 N 225.828 2.71662 -1.03189 0
M  V30 2489 H 225.375 2.02231 -1.59564 0
M  V30 2490 H 225.333 3.13238 -0.270077 0
M  V30 2491 N 229.106 1.52395 0.401703 0
M  V30 2492 C 230.054 1.7689 1.51039 0
M  V30 2493 C 231.048 0.636298 1.56996 0
M  V30 2494 O 232.254 0.818507 1.60314 0
M  V30 2495 H 228.629 0.559502 0.502456 0
M  V30 2496 H 230.6 2.69757 1.27568 0
M  V30 2497 C 229.349 1.94331 2.88324 0
M  V30 2498 H 228.672 2.80905 2.84486 0
M  V30 2499 H 230.112 2.15466 3.65172 0
M  V30 2500 C 228.571 0.712396 3.29282 0
M  V30 2501 O 229.101 -0.116218 4.01532 0
M  V30 2502 N 227.307 0.546154 2.85422 0
M  V30 2503 H 226.854 1.22156 2.26794 0
M  V30 2504 H 226.812 -0.276113 3.13185 0
M  V30 2505 N 230.584 -0.659388 1.43143 0
M  V30 2506 C 231.516 -1.7849 1.43784 0
M  V30 2507 C 232.529 -1.5932 0.334787 0
M  V30 2508 O 233.718 -1.68155 0.598842 0
M  V30 2509 C 230.818 -3.15828 1.22906 0
M  V30 2510 C 229.991 -3.61711 2.45934 0
M  V30 2511 C 229.05 -4.77831 2.20371 0
M  V30 2512 O 228.076 -4.87586 2.93681 0
M  V30 2513 N 229.278 -5.67611 1.21647 0
M  V30 2514 H 232.043 -1.7842 2.40803 0
M  V30 2515 H 229.604 -0.84302 1.3822 0
M  V30 2516 H 231.596 -3.91189 1.03697 0
M  V30 2517 H 230.166 -3.10707 0.343542 0
M  V30 2518 H 229.386 -2.76861 2.80609 0
M  V30 2519 H 230.674 -3.89112 3.27825 0
M  V30 2520 H 230.072 -5.62397 0.610449 0
M  V30 2521 H 228.629 -6.42719 1.08423 0
M  V30 2522 N 232.062 -1.29571 -0.897171 0
M  V30 2523 C 232.972 -1.16808 -2.03453 0
M  V30 2524 C 233.988 -0.0907471 -1.73763 0
M  V30 2525 O 235.164 -0.303312 -1.99103 0
M  V30 2526 C 232.229 -0.848264 -3.36163 0
M  V30 2527 C 231.29 -2.0097 -3.79354 0
M  V30 2528 C 230.523 -1.70505 -5.05731 0
M  V30 2529 O 230.746 -0.62718 -5.66941 0
M  V30 2530 O 229.68 -2.5538 -5.45036 0
M  V30 2531 H 233.506 -2.12325 -2.17144 0
M  V30 2532 H 231.091 -1.09047 -1.02123 0
M  V30 2533 H 232.973 -0.684581 -4.15802 0
M  V30 2534 H 231.648 0.0771071 -3.23608 0
M  V30 2535 H 230.555 -2.22863 -3.00471 0
M  V30 2536 H 231.888 -2.91636 -3.96496 0
M  V30 2537 N 233.54 1.10788 -1.12088 0
M  V30 2538 C 234.765 1.87002 -0.896949 0
M  V30 2539 C 235.19 1.79933 0.548261 0
M  V30 2540 O 234.548 1.16662 1.38779 0
M  V30 2541 C 234.596 3.3349 -1.37174 0
M  V30 2542 O 233.7 4.08745 -0.547831 0
M  V30 2543 H 233.041 0.580397 -0.322545 0
M  V30 2544 H 235.571 1.39996 -1.49206 0
M  V30 2545 H 235.581 3.84339 -1.36922 0
M  V30 2546 H 234.256 3.37951 -2.42408 0
M  V30 2547 H 232.833 3.6776 -0.617034 0
M  V30 2548 N 235.018 0.912232 1.28515 0
M  V30 2549 C 235.951 0.343928 2.25593 0
M  V30 2550 C 236.929 -0.550994 1.5298 0
M  V30 2551 O 238.113 -0.494991 1.81885 0
M  V30 2552 C 235.24 -0.508525 3.34861 0
M  V30 2553 C 234.286 0.320808 4.25292 0
M  V30 2554 S 235.119 1.72658 5.06902 0
M  V30 2555 C 236.275 0.881394 6.19663 0
M  V30 2556 H 236.508 1.16674 2.73449 0
M  V30 2557 H 234.041 0.713384 1.36931 0
M  V30 2558 H 235.999 -0.994539 3.9827 0
M  V30 2559 H 234.66 -1.30571 2.85675 0
M  V30 2560 H 233.853 -0.330941 5.02912 0
M  V30 2561 H 233.455 0.74042 3.66598 0
M  V30 2562 H 235.747 0.110359 6.7741 0
M  V30 2563 H 236.69 1.63009 6.89082 0
M  V30 2564 H 237.098 0.430239 5.62858 0
M  V30 2565 N 236.496 -1.42363 0.676048 0
M  V30 2566 C 237.907 -1.84649 0.275948 0
M  V30 2567 C 238.258 -1.56588 -1.18214 0
M  V30 2568 O 237.383 -1.02634 -1.90513 0
M  V30 2569 C 237.978 -3.35178 0.494053 0
M  V30 2570 C 236.537 -3.76109 0.148061 0
M  V30 2571 C 235.684 -2.65931 0.785891 0
M  V30 2572 H 238.635 -1.32192 0.878121 0
M  V30 2573 H 238.656 -3.79655 -0.25343 0
M  V30 2574 H 238.168 -3.55571 1.55535 0
M  V30 2575 H 236.269 -3.61323 -0.909742 0
M  V30 2576 H 236.382 -4.7546 0.589454 0
M  V30 2577 H 234.746 -2.53773 0.217113 0
M  V30 2578 H 235.529 -2.89146 1.85067 0
M  V30 2579 N 237.974 -0.419461 -1.51915 0
M  V30 2580 C 239.199 0.154572 -2.06823 0
M  V30 2581 C 239.624 1.3722 -1.28656 0
M  V30 2582 O 238.982 1.78461 -0.319583 0
M  V30 2583 C 239.03 0.473172 -3.57482 0
M  V30 2584 O 238.134 1.56255 -3.81652 0
M  V30 2585 H 237.475 0.0096924 -0.663929 0
M  V30 2586 H 240.005 -0.595642 -1.95738 0
M  V30 2587 H 240.015 0.728825 -4.01438 0
M  V30 2588 H 238.69 -0.416873 -4.13805 0
M  V30 2589 H 237.267 1.29825 -3.49571 0
M  V30 2590 N 239.452 1.56882 -0.150215 0
M  V30 2591 C 240.382 2.19935 0.784284 0
M  V30 2592 C 241.363 1.14854 1.25469 0
M  V30 2593 O 242.548 1.43209 1.31168 0
M  V30 2594 C 239.678 2.82349 2.02229 0
M  V30 2595 C 238.632 3.93285 1.68853 0
M  V30 2596 C 237.958 4.42649 2.99944 0
M  V30 2597 C 239.258 5.13904 0.932714 0
M  V30 2598 H 240.952 2.9828 0.258781 0
M  V30 2599 H 238.498 1.43473 0.123029 0
M  V30 2600 H 240.451 3.25126 2.68088 0
M  V30 2601 H 239.175 2.0134 2.57157 0
M  V30 2602 H 237.834 3.5113 1.05371 0
M  V30 2603 H 237.482 3.58458 3.52869 0
M  V30 2604 H 237.182 5.17476 2.78374 0
M  V30 2605 H 238.706 4.88099 3.66868 0
M  V30 2606 H 240.12 5.53506 1.49345 0
M  V30 2607 H 238.517 5.94515 0.81684 0
M  V30 2608 H 239.587 4.84842 -0.0749568 0
M  V30 2609 N 240.93 -0.123565 1.57115 0
M  V30 2610 C 242.155 -0.850398 1.89164 0
M  V30 2611 C 242.58 -1.7286 0.741688 0
M  V30 2612 O 241.938 -1.78665 -0.307958 0
M  V30 2613 C 241.986 -1.66353 3.19936 0
M  V30 2614 O 241.09 -2.77004 3.0552 0
M  V30 2615 H 240.431 -0.235454 0.620852 0
M  V30 2616 H 242.961 -0.107335 2.04318 0
M  V30 2617 H 242.971 -2.05372 3.52543 0
M  V30 2618 H 241.646 -1.01881 4.03228 0
M  V30 2619 H 240.223 -2.41221 2.84371 0
M  V30 2620 N 242.408 -1.52605 -0.393616 0
M  V30 2621 C 243.655 -1.67424 -1.1391 0
M  V30 2622 C 243.983 -0.411859 -1.90089 0
M  V30 2623 O 243.238 0.605626 -1.86093 0
M  V30 2624 C 243.537 -2.85721 -2.14705 0
M  V30 2625 C 243.203 -4.23342 -1.55218 0
M  V30 2626 C 241.865 -4.60771 -1.3872 0
M  V30 2627 C 244.217 -5.09041 -1.11924 0
M  V30 2628 C 241.545 -5.81563 -0.774689 0
M  V30 2629 C 243.897 -6.30452 -0.520853 0
M  V30 2630 C 242.561 -6.66617 -0.343134 0
M  V30 2631 H 241.831 -0.612648 -0.416826 0
M  V30 2632 H 244.478 -1.8674 -0.424315 0
M  V30 2633 H 242.783 -2.60803 -2.92385 0
M  V30 2634 H 244.48 -2.94382 -2.72288 0
M  V30 2635 H 241.07 -3.93855 -1.69045 0
M  V30 2636 H 245.254 -4.80695 -1.23473 0
M  V30 2637 H 240.51 -6.08196 -0.625154 0
M  V30 2638 H 244.684 -6.96175 -0.177065 0
M  V30 2639 H 242.311 -7.60083 0.133571 0
M  V30 2640 N 243.887 0.651787 -1.4349 0
M  V30 2641 C 245.303 0.96762 -1.26922 0
M  V30 2642 C 245.503 2.00602 -0.189982 0
M  V30 2643 O 244.559 2.48793 0.431107 0
M  V30 2644 C 245.872 1.45052 -2.63401 0
M  V30 2645 C 247.42 1.5671 -2.70945 0
M  V30 2646 C 247.895 2.0839 -4.07845 0
M  V30 2647 N 249.386 2.1569 -4.09917 0
M  V30 2648 C 250.121 2.56804 -5.12679 0
M  V30 2649 N 249.617 2.97203 -6.25813 0
M  V30 2650 N 251.41 2.56756 -5.00033 0
M  V30 2651 H 243.561 -0.0353158 -2.12371 0
M  V30 2652 H 245.824 0.0467858 -0.946845 0
M  V30 2653 H 245.53 0.761926 -3.43348 0
M  V30 2654 H 245.404 2.42529 -2.88894 0
M  V30 2655 H 247.791 2.2467 -1.9133 0
M  V30 2656 H 247.872 0.57662 -2.49216 0
M  V30 2657 H 247.516 1.41031 -4.87927 0
M  V30 2658 H 247.446 3.08271 -4.26938 0
M  V30 2659 H 249.937 1.87237 -3.28254 0
M  V30 2660 H 250.25 3.27328 -7.00055 0
M  V30 2661 H 248.595 2.95004 -6.29283 0
M  V30 2662 H 251.786 2.24572 -4.10713 0
M  V30 2663 H 251.959 2.88475 -5.80247 0
M  V30 2664 N 245.365 1.30045 0.890287 0
M  V30 2665 C 246.297 1.11786 2.00091 0
M  V30 2666 C 247.31 0.0626307 1.62679 0
M  V30 2667 O 248.499 0.308112 1.75821 0
M  V30 2668 C 245.599 0.681527 3.31977 0
M  V30 2669 C 244.772 1.81735 3.97858 0
M  V30 2670 C 243.831 1.37045 5.08041 0
M  V30 2671 O 242.857 2.07677 5.29961 0
M  V30 2672 N 244.059 0.246525 5.79976 0
M  V30 2673 H 246.824 2.07441 2.16306 0
M  V30 2674 H 244.385 1.2211 1.06305 0
M  V30 2675 H 246.377 0.365675 4.03045 0
M  V30 2676 H 244.947 -0.182828 3.12065 0
M  V30 2677 H 244.167 2.30159 3.20032 0
M  V30 2678 H 245.455 2.57865 4.38615 0
M  V30 2679 H 244.853 -0.34215 5.64664 0
M  V30 2680 H 243.41 -0.00990438 6.51799 0
M  V30 2681 N 246.843 -1.10192 1.12674 0
M  V30 2682 C 248.071 -1.85983 0.906527 0
M  V30 2683 C 248.486 -1.80783 -0.544333 0
M  V30 2684 O 247.843 -1.19834 -1.37645 0
M  V30 2685 C 247.894 -3.34281 1.37618 0
M  V30 2686 O 247.615 -3.39401 2.77017 0
M  V30 2687 C 249.116 -4.26938 1.19325 0
M  V30 2688 H 246.336 -0.587716 0.323775 0
M  V30 2689 H 248.88 -1.39284 1.49734 0
M  V30 2690 H 247.035 -3.78436 0.828539 0
M  V30 2691 H 247.449 -4.31838 2.97684 0
M  V30 2692 H 248.923 -5.29181 1.57071 0
M  V30 2693 H 249.4 -4.38995 0.134097 0
M  V30 2694 H 250.006 -3.8859 1.72852 0
M  V30 2695 N 248.321 -0.919034 -1.28029 0
M  V30 2696 C 249.254 -0.355887 -2.25408 0
M  V30 2697 C 250.232 0.542874 -1.5327 0
M  V30 2698 O 251.416 0.485338 -1.82145 0
M  V30 2699 C 248.543 0.490759 -3.35126 0
M  V30 2700 C 247.589 -0.343358 -4.25116 0
M  V30 2701 S 248.422 -1.75344 -5.05979 0
M  V30 2702 C 249.578 -0.914244 -6.19187 0
M  V30 2703 H 249.811 -1.18123 -2.72826 0
M  V30 2704 H 247.344 -0.720636 -1.36551 0
M  V30 2705 H 249.302 0.973404 -3.98792 0
M  V30 2706 H 247.963 1.29054 -2.86363 0
M  V30 2707 H 247.156 0.304266 -5.03081 0
M  V30 2708 H 246.758 -0.759851 -3.662 0
M  V30 2709 H 249.05 -0.146282 -6.77342 0
M  V30 2710 H 249.993 -1.66661 -6.88208 0
M  V30 2711 H 250.401 -0.460082 -5.62622 0
M  V30 2712 N 249.799 1.42003 -0.683588 0
M  V30 2713 C 251.045 2.02223 -0.218536 0
M  V30 2714 C 251.4 1.53126 1.16492 0
M  V30 2715 O 250.693 0.727459 1.77253 0
M  V30 2716 C 250.887 3.56827 -0.202357 0
M  V30 2717 C 250.716 4.20928 -1.5827 0
M  V30 2718 C 249.486 4.5573 -2.18262 0
M  V30 2719 C 251.684 4.47933 -2.52706 0
M  V30 2720 N 249.666 5.05056 -3.48986 0
M  V30 2721 C 251.037 4.98906 -3.68094 0
M  V30 2722 C 253.092 4.29931 -2.51125 0
M  V30 2723 C 251.795 5.33768 -4.82166 0
M  V30 2724 C 253.821 4.65875 -3.643 0
M  V30 2725 C 253.183 5.17008 -4.78417 0
M  V30 2726 H 249.282 0.771931 -0.125088 0
M  V30 2727 H 251.866 1.72729 -0.898479 0
M  V30 2728 H 250.037 3.85819 0.447029 0
M  V30 2729 H 251.769 4.03755 0.276399 0
M  V30 2730 H 248.524 4.41781 -1.70665 0
M  V30 2731 H 248.948 5.34139 -4.15962 0
M  V30 2732 H 253.59 3.89647 -1.6412 0
M  V30 2733 H 251.308 5.72981 -5.6984 0
M  V30 2734 H 254.894 4.53615 -3.64314 0
M  V30 2735 H 253.774 5.44301 -5.64541 0
M  V30 2736 N 251.277 0.427512 1.51691 0
M  V30 2737 C 252.693 0.0792977 1.59403 0
M  V30 2738 C 252.893 -1.41035 1.43914 0
M  V30 2739 O 251.949 -2.17922 1.27539 0
M  V30 2740 C 253.262 0.590636 2.94842 0
M  V30 2741 C 254.81 0.550215 3.08126 0
M  V30 2742 C 255.285 1.03836 4.46074 0
M  V30 2743 N 256.776 0.995943 4.52366 0
M  V30 2744 C 257.511 1.34463 5.57411 0
M  V30 2745 N 257.007 1.76569 6.69922 0
M  V30 2746 N 258.8 1.26343 5.47717 0
M  V30 2747 H 250.951 1.39687 1.60004 0
M  V30 2748 H 253.214 0.575003 0.753708 0
M  V30 2749 H 252.92 1.63251 3.11516 0
M  V30 2750 H 252.794 0.0102061 3.77199 0
M  V30 2751 H 255.181 -0.482654 2.91126 0
M  V30 2752 H 255.262 1.16693 2.27632 0
M  V30 2753 H 254.906 2.06965 4.63819 0
M  V30 2754 H 254.836 0.398286 5.25092 0
M  V30 2755 H 257.327 0.68661 3.7161 0
M  V30 2756 H 257.64 2.01438 7.46085 0
M  V30 2757 H 255.985 1.80488 6.71155 0
M  V30 2758 H 259.176 0.933209 4.58703 0
M  V30 2759 H 259.349 1.53846 6.29472 0
M  V30 2760 N 252.755 -1.56801 0.158532 0
M  V30 2761 C 253.718 -2.16138 -0.762705 0
M  V30 2762 C 254.718 -1.1061 -1.16713 0
M  V30 2763 O 255.908 -1.36191 -1.08617 0
M  V30 2764 C 253.04 -2.73386 -2.03649 0
M  V30 2765 H 254.233 -2.98886 -0.246354 0
M  V30 2766 H 251.786 -1.56035 -0.0909744 0
M  V30 2767 H 252.521 -1.94335 -2.59623 0
M  V30 2768 H 252.306 -3.50601 -1.75559 0
M  V30 2769 H 253.796 -3.19065 -2.6942 0
M  V30 2770 N 254.233 0.115231 -1.57178 0
M  V30 2771 C 255.48 0.822351 -1.8505 0
M  V30 2772 C 255.808 1.79701 -0.744168 0
M  V30 2773 O 255.063 1.93909 0.26414 0
M  V30 2774 C 255.362 1.60324 -3.19423 0
M  V30 2775 C 255.028 0.772536 -4.44233 0
M  V30 2776 C 253.69 0.543468 -4.78121 0
M  V30 2777 C 256.042 0.193746 -5.2084 0
M  V30 2778 C 253.37 -0.274583 -5.86057 0
M  V30 2779 C 255.722 -0.611517 -6.29637 0
M  V30 2780 C 254.386 -0.850867 -6.62055 0
M  V30 2781 H 253.656 0.30092 -0.677147 0
M  V30 2782 H 256.303 0.0845802 -1.91313 0
M  V30 2783 H 254.608 2.41203 -3.08753 0
M  V30 2784 H 256.305 2.1544 -3.38211 0
M  V30 2785 H 252.895 0.96117 -4.17683 0
M  V30 2786 H 257.079 0.357926 -4.95008 0
M  V30 2787 H 252.335 -0.469206 -6.09597 0
M  V30 2788 H 256.509 -1.06697 -6.88178 0
M  V30 2789 H 254.136 -1.48657 -7.45523 0
M  V30 2790 N 255.711 1.52812 0.385517 0
M  V30 2791 C 256.621 1.80766 1.49535 0
M  V30 2792 C 257.637 0.694651 1.59532 0
M  V30 2793 O 258.813 0.982611 1.75803 0
M  V30 2794 C 255.878 1.97381 2.85029 0
M  V30 2795 C 254.939 3.21295 2.84724 0
M  V30 2796 C 254.172 3.37108 4.13756 0
M  V30 2797 O 254.395 2.5765 5.08893 0
M  V30 2798 O 253.329 4.30378 4.20783 0
M  V30 2799 H 257.155 2.75015 1.28842 0
M  V30 2800 H 254.74 1.37946 0.573697 0
M  V30 2801 H 256.622 2.09996 3.65349 0
M  V30 2802 H 255.297 1.06322 3.05741 0
M  V30 2803 H 254.204 3.1412 2.03174 0
M  V30 2804 H 255.537 4.12212 2.68965 0
M  V30 2805 N 257.189 -0.644168 1.43834 0
M  V30 2806 C 258.137 -1.77793 1.49974 0
M  V30 2807 C 259.131 -1.65253 0.372536 0
M  V30 2808 O 260.337 -1.7149 0.546924 0
M  V30 2809 H 256.712 -0.58675 0.47035 0
M  V30 2810 H 258.683 -1.69736 2.45423 0
M  V30 2811 C 257.432 -3.16087 1.4486 0
M  V30 2812 H 256.755 -3.26378 2.30905 0
M  V30 2813 H 258.195 -3.95349 1.53217 0
M  V30 2814 C 256.654 -3.36484 0.167463 0
M  V30 2815 O 257.184 -3.94298 -0.767609 0
M  V30 2816 N 255.39 -2.90504 0.0747556 0
M  V30 2817 H 254.937 -2.4364 0.836507 0
M  V30 2818 H 254.895 -3.04527 -0.781714 0
M  V30 2819 N 258.668 -1.30515 -0.883378 0
M  V30 2820 C 260.079 -1.17509 -1.45081 0
M  V30 2821 C 260.43 0.223605 -1.94922 0
M  V30 2822 O 259.555 1.12041 -1.85137 0
M  V30 2823 C 260.15 -2.12715 -2.63701 0
M  V30 2824 C 258.709 -2.03682 -3.16529 0
M  V30 2825 C 257.856 -2.02706 -1.89224 0
M  V30 2826 H 260.807 -1.42762 -0.693165 0
M  V30 2827 H 260.828 -1.70891 -3.39965 0
M  V30 2828 H 260.34 -3.14505 -2.27395 0
M  V30 2829 H 258.441 -1.05039 -3.57488 0
M  V30 2830 H 258.554 -2.92146 -3.7972 0
M  V30 2831 H 256.918 -1.4753 -2.07622 0
M  V30 2832 H 257.701 -3.06229 -1.55174 0
M  V30 2833 N 260.146 1.09593 -1.13257 0
M  V30 2834 C 261.096 2.14345 -0.777179 0
M  V30 2835 C 262.08 1.59277 0.227966 0
M  V30 2836 O 263.272 1.76971 0.0321413 0
M  V30 2837 C 260.401 3.42439 -0.242991 0
M  V30 2838 C 259.487 4.04419 -1.27694 0
M  V30 2839 N 259.878 4.40979 -2.47732 0
M  V30 2840 C 258.176 4.31596 -1.12432 0
M  V30 2841 C 258.877 4.89784 -3.13826 0
M  V30 2842 N 257.853 4.87133 -2.41252 0
M  V30 2843 H 261.655 2.40415 -1.69049 0
M  V30 2844 H 259.169 1.26803 -1.01463 0
M  V30 2845 H 261.166 4.16889 0.0298496 0
M  V30 2846 H 259.826 3.17824 0.66467 0
M  V30 2847 H 260.837 4.32396 -2.85051 0
M  V30 2848 H 257.514 4.16595 -0.274684 0
M  V30 2849 H 258.904 5.2755 -4.16102 0
M  V30 2850 N 261.624 0.925811 1.2754 0
M  V30 2851 C 262.852 0.581509 1.9856 0
M  V30 2852 C 263.267 -0.840041 1.69082 0
M  V30 2853 O 262.624 -1.55805 0.950312 0
M  V30 2854 C 262.675 0.795589 3.52637 0
M  V30 2855 O 262.396 2.16121 3.81082 0
M  V30 2856 C 263.897 0.459744 4.4091 0
M  V30 2857 H 261.117 0.220538 0.633722 0
M  V30 2858 H 263.661 1.24232 1.6244 0
M  V30 2859 H 261.816 0.18161 3.86974 0
M  V30 2860 H 262.23 2.2098 4.75676 0
M  V30 2861 H 263.704 0.660244 5.48037 0
M  V30 2862 H 264.181 -0.604625 4.35018 0
M  V30 2863 H 264.787 1.05178 4.12089 0
M  V30 2864 N 263.102 -1.41638 0.69111 0
M  V30 2865 C 264.327 -2.06148 0.227583 0
M  V30 2866 C 264.752 -1.51652 -1.11281 0
M  V30 2867 O 264.11 -0.64164 -1.69566 0
M  V30 2868 C 264.158 -3.60095 0.190858 0
M  V30 2869 O 263.262 -4.03845 -0.835664 0
M  V30 2870 H 262.603 -0.654434 0.112306 0
M  V30 2871 H 265.133 -1.81484 0.944714 0
M  V30 2872 H 265.143 -4.07995 0.020207 0
M  V30 2873 H 263.818 -3.99129 1.16915 0
M  V30 2874 H 262.395 -3.67458 -0.63473 0
M  V30 2875 N 264.58 -0.43555 -1.51462 0
M  V30 2876 C 265.808 0.130242 -2.0649 0
M  V30 2877 C 266.223 1.36614 -1.30315 0
M  V30 2878 O 265.58 1.78869 -0.362223 0
M  V30 2879 C 265.631 0.454253 -3.58635 0
M  V30 2880 O 265.352 -0.73259 -4.31931 0
M  V30 2881 C 266.853 1.07091 -4.3017 0
M  V30 2882 H 264.073 0.00871669 -0.670943 0
M  V30 2883 H 266.617 -0.614117 -1.95061 0
M  V30 2884 H 264.772 1.14851 -3.69984 0
M  V30 2885 H 265.186 -0.455787 -5.22516 0
M  V30 2886 H 266.66 1.24764 -5.37716 0
M  V30 2887 H 267.137 2.05144 -3.88346 0
M  V30 2888 H 267.743 0.416089 -4.2326 0
M  V30 2889 N 266.058 1.56714 -0.166846 0
M  V30 2890 C 266.988 2.20754 0.760913 0
M  V30 2891 C 267.969 1.16178 1.24244 0
M  V30 2892 O 269.154 1.44592 1.29641 0
M  V30 2893 C 266.284 2.84478 1.99223 0
M  V30 2894 C 265.238 3.95053 1.64672 0
M  V30 2895 C 264.564 4.45805 2.95232 0
M  V30 2896 C 265.864 5.14865 0.878155 0
M  V30 2897 H 267.558 2.98537 0.22713 0
M  V30 2898 H 265.104 1.43596 0.107805 0
M  V30 2899 H 267.057 3.27951 2.64624 0
M  V30 2900 H 265.781 2.04056 2.55007 0
M  V30 2901 H 264.44 3.52228 1.01641 0
M  V30 2902 H 264.088 3.62181 3.49047 0
M  V30 2903 H 263.788 5.204 2.7287 0
M  V30 2904 H 265.312 4.91962 3.6167 0
M  V30 2905 H 266.726 5.55059 1.43466 0
M  V30 2906 H 265.123 5.95348 0.753738 0
M  V30 2907 H 266.193 4.84735 -0.126377 0
M  V30 2908 N 267.536 -0.106894 1.57237 0
M  V30 2909 C 268.499 -1.11466 2.0027 0
M  V30 2910 C 269.499 -1.33623 0.894519 0
M  V30 2911 O 270.689 -1.29935 1.16028 0
M  V30 2912 C 267.821 -2.46646 2.35327 0
M  V30 2913 H 269.014 -0.744516 2.90512 0
M  V30 2914 H 266.567 -0.351576 1.52295 0
M  V30 2915 H 267.302 -2.88558 1.48003 0
M  V30 2916 H 267.087 -2.31915 3.16161 0
M  V30 2917 H 268.577 -3.19151 2.69318 0
M  V30 2918 N 269.014 -1.53014 -0.377408 0
M  V30 2919 C 269.944 -1.81589 -1.46791 0
M  V30 2920 C 270.925 -0.668622 -1.56408 0
M  V30 2921 O 272.11 -0.917337 -1.71168 0
M  V30 2922 C 269.24 -1.99519 -2.8427 0
M  V30 2923 C 268.194 -3.15249 -2.89486 0
M  V30 2924 C 267.52 -3.18451 -4.29527 0
M  V30 2925 C 268.82 -4.54084 -2.58079 0
M  V30 2926 H 270.514 -2.7291 -1.23127 0
M  V30 2927 H 268.06 -1.31319 -0.590883 0
M  V30 2928 H 270.013 -2.18092 -3.60575 0
M  V30 2929 H 268.737 -1.04897 -3.09296 0
M  V30 2930 H 267.396 -2.96477 -2.15631 0
M  V30 2931 H 267.044 -2.2149 -4.5161 0
M  V30 2932 H 266.744 -3.962 -4.33934 0
M  V30 2933 H 268.268 -3.39193 -5.07721 0
M  V30 2934 H 269.682 -4.72899 -3.24098 0
M  V30 2935 H 268.079 -5.33987 -2.7382 0
M  V30 2936 H 269.149 -4.60006 -1.53372 0
M  V30 2937 N 270.492 0.636531 -1.44174 0
M  V30 2938 C 271.738 1.39826 -1.4689 0
M  V30 2939 C 272.071 1.93947 -0.0990585 0
M  V30 2940 O 271.346 1.73325 0.882544 0
M  V30 2941 C 271.629 2.56751 -2.5249 0
M  V30 2942 C 271.482 2.08014 -3.98811 0
M  V30 2943 C 272.801 3.58946 -2.54649 0
M  V30 2944 H 269.92 0.507075 -0.53483 0
M  V30 2945 H 272.562 0.720188 -1.75822 0
M  V30 2946 H 270.712 3.14597 -2.2795 0
M  V30 2947 H 272.384 1.5504 -4.34466 0
M  V30 2948 H 270.627 1.39242 -4.10846 0
M  V30 2949 H 271.298 2.92169 -4.68339 0
M  V30 2950 H 273.774 3.1089 -2.76563 0
M  V30 2951 H 272.65 4.38286 -3.3045 0
M  V30 2952 H 272.911 4.12655 -1.58646 0
M  V30 2953 N 271.97 1.30982 0.876444 0
M  V30 2954 C 273.217 1.20296 1.62896 0
M  V30 2955 C 273.545 -0.240395 1.93009 0
M  V30 2956 O 272.8 -1.18733 1.55567 0
M  V30 2957 C 273.099 1.98572 2.9716 0
M  V30 2958 C 272.765 3.48125 2.86566 0
M  V30 2959 C 271.427 3.88905 2.83383 0
M  V30 2960 C 273.779 4.43322 2.74071 0
M  V30 2961 C 271.107 5.2316 2.65556 0
M  V30 2962 C 273.459 5.77695 2.57781 0
M  V30 2963 C 272.123 6.17704 2.52979 0
M  V30 2964 H 271.393 0.440193 0.59608 0
M  V30 2965 H 274.04 1.62177 1.01837 0
M  V30 2966 H 272.345 1.49352 3.62217 0
M  V30 2967 H 274.042 1.8769 3.54364 0
M  V30 2968 H 270.632 3.15723 2.89856 0
M  V30 2969 H 274.816 4.12752 2.75589 0
M  V30 2970 H 270.072 5.53241 2.60259 0
M  V30 2971 H 274.246 6.51091 2.47089 0
M  V30 2972 H 271.873 7.21678 2.38924 0
M  V30 2973 N 273.449 -1.08991 1.13837 0
M  V30 2974 C 274.679 -1.84743 0.924859 0
M  V30 2975 C 275.087 -1.81629 -0.529874 0
M  V30 2976 O 274.43 -1.21397 -1.37872 0
M  V30 2977 C 274.492 -3.33568 1.34061 0
M  V30 2978 C 274.156 -3.60425 2.80968 0
M  V30 2979 C 275.153 -3.55771 3.79108 0
M  V30 2980 C 272.838 -3.88627 3.18236 0
M  V30 2981 C 274.832 -3.78939 5.12527 0
M  V30 2982 C 272.519 -4.11449 4.51833 0
M  V30 2983 C 273.517 -4.06598 5.48787 0
M  V30 2984 O 273.205 -4.28826 6.79973 0
M  V30 2985 H 272.937 -0.590258 0.329502 0
M  V30 2986 H 275.491 -1.38598 1.51591 0
M  V30 2987 H 273.721 -3.80442 0.692853 0
M  V30 2988 H 275.41 -3.90743 1.09886 0
M  V30 2989 H 276.176 -3.34005 3.51661 0
M  V30 2990 H 272.055 -3.91526 2.43369 0
M  V30 2991 H 275.599 -3.75068 5.88192 0
M  V30 2992 H 271.496 -4.32698 4.79002 0
M  V30 2993 H 272.264 -4.46264 6.86142 0
M  V30 2994 N 274.927 -0.932562 -1.27047 0
M  V30 2995 C 276.157 -0.591173 -1.97961 0
M  V30 2996 C 276.565 0.836219 -1.69717 0
M  V30 2997 O 275.908 1.56801 -0.957036 0
M  V30 2998 C 275.97 -0.743082 -3.51736 0
M  V30 2999 C 275.634 -2.1435 -4.03613 0
M  V30 3000 C 276.631 -3.11815 -4.16014 0
M  V30 3001 C 274.316 -2.46175 -4.37839 0
M  V30 3002 C 276.31 -4.39211 -4.61923 0
M  V30 3003 C 273.997 -3.73806 -4.83438 0
M  V30 3004 C 274.995 -4.70137 -4.95439 0
M  V30 3005 O 274.683 -5.95496 -5.40037 0
M  V30 3006 H 274.415 -0.222375 -0.638377 0
M  V30 3007 H 276.969 -1.25317 -1.62742 0
M  V30 3008 H 275.199 -0.0239739 -3.86693 0
M  V30 3009 H 276.888 -0.40603 -4.03864 0
M  V30 3010 H 277.654 -2.88549 -3.89826 0
M  V30 3011 H 273.533 -1.71936 -4.27737 0
M  V30 3012 H 277.077 -5.14404 -4.71205 0
M  V30 3013 H 272.974 -3.96888 -5.09068 0
M  V30 3014 H 273.742 -5.98554 -5.58279 0
M  V30 3015 N 276.405 1.4127 -0.698611 0
M  V30 3016 C 277.651 2.01478 -0.231207 0
M  V30 3017 C 277.984 1.55215 1.16713 0
M  V30 3018 O 277.259 0.764672 1.78838 0
M  V30 3019 C 277.542 3.58912 -0.292281 0
M  V30 3020 C 277.395 4.15293 -1.72778 0
M  V30 3021 C 278.714 4.38736 0.346194 0
M  V30 3022 H 275.833 0.732025 -0.0854878 0
M  V30 3023 H 278.475 1.67977 -0.887906 0
M  V30 3024 H 276.625 3.87582 0.26686 0
M  V30 3025 H 278.297 3.97486 -2.341 0
M  V30 3026 H 276.54 3.7022 -2.26096 0
M  V30 3027 H 277.211 5.24452 -1.72202 0
M  V30 3028 H 279.687 4.15897 -0.130035 0
M  V30 3029 H 278.563 5.48221 0.272932 0
M  V30 3030 H 278.824 4.18425 1.42734 0
M  V30 3031 N 277.883 0.443576 1.51229 0
M  V30 3032 C 279.111 -0.11929 2.06556 0
M  V30 3033 C 279.526 -1.35921 1.31038 0
M  V30 3034 O 278.883 -1.78675 0.371704 0
M  V30 3035 C 278.934 -0.435228 3.5887 0
M  V30 3036 O 278.655 0.755486 4.31537 0
M  V30 3037 C 280.156 -1.04808 4.30732 0
M  V30 3038 H 277.376 -0.0051584 0.67098 0
M  V30 3039 H 279.92 0.624453 1.94733 0
M  V30 3040 H 278.075 -1.12887 3.70588 0
M  V30 3041 H 278.489 0.483491 5.22267 0
M  V30 3042 H 279.963 -1.2191 5.3837 0
M  V30 3043 H 280.44 -2.03081 3.89429 0
M  V30 3044 H 281.046 -0.393637 4.23474 0
M  V30 3045 N 279.361 -1.56624 0.175154 0
M  V30 3046 C 280.609 -1.96609 -0.467885 0
M  V30 3047 C 280.93 -1.06238 -1.63519 0
M  V30 3048 O 280.2 -0.129523 -1.95471 0
M  V30 3049 H 278.78 -0.726008 -0.175845 0
M  V30 3050 H 281.442 -1.93195 0.257234 0
M  V30 3051 H 280.538 -3.00989 -0.825342 0
M  V30 3052 N 280.839 0.0985539 -1.57292 0
M  V30 3053 C 282.086 0.802678 -1.85912 0
M  V30 3054 C 282.414 1.78901 -0.763186 0
M  V30 3055 O 281.669 1.94178 0.243559 0
M  V30 3056 C 281.968 1.56927 -3.21105 0
M  V30 3057 C 281.634 0.725376 -4.45027 0
M  V30 3058 C 280.296 0.492726 -4.78671 0
M  V30 3059 C 282.648 0.138493 -5.21016 0
M  V30 3060 C 279.976 -0.336727 -5.85733 0
M  V30 3061 C 282.328 -0.678264 -6.28953 0
M  V30 3062 C 280.992 -0.921039 -6.61115 0
M  V30 3063 H 280.262 0.293721 -0.680301 0
M  V30 3064 H 282.909 0.0642841 -1.91392 0
M  V30 3065 H 281.214 2.37914 -3.11294 0
M  V30 3066 H 282.911 2.11841 -3.40477 0
M  V30 3067 H 279.501 0.916815 -4.18679 0
M  V30 3068 H 283.685 0.305404 -4.95359 0
M  V30 3069 H 278.941 -0.533836 -6.09065 0
M  V30 3070 H 283.115 -1.1399 -6.87007 0
M  V30 3071 H 280.742 -1.56556 -7.43905 0
M  V30 3072 N 282.317 1.53212 0.369288 0
M  V30 3073 C 283.564 1.69215 1.11232 0
M  V30 3074 C 283.892 0.442048 1.8941 0
M  V30 3075 O 283.147 -0.575944 1.87033 0
M  V30 3076 C 283.446 2.89101 2.10132 0
M  V30 3077 C 283.112 4.25758 1.48463 0
M  V30 3078 C 281.774 4.6292 1.31372 0
M  V30 3079 C 284.126 5.10757 1.03811 0
M  V30 3080 C 281.454 5.82722 0.68207 0
M  V30 3081 C 283.806 6.31201 0.420487 0
M  V30 3082 C 282.47 6.67079 0.237038 0
M  V30 3083 H 281.74 0.619201 0.407027 0
M  V30 3084 H 284.387 1.87391 0.394552 0
M  V30 3085 H 282.692 2.65421 2.88199 0
M  V30 3086 H 284.389 2.98676 2.6757 0
M  V30 3087 H 280.979 3.96494 1.62758 0
M  V30 3088 H 285.163 4.82599 1.1581 0
M  V30 3089 H 280.419 6.09113 0.528316 0
M  V30 3090 H 284.593 6.96368 0.0662874 0
M  V30 3091 H 282.22 7.59774 -0.254477 0
M  V30 3092 N 283.795 -0.628877 1.44509 0
M  V30 3093 C 285.044 -1.38437 1.4669 0
M  V30 3094 C 285.357 -1.95322 0.104272 0
M  V30 3095 O 286.563 -2.715 0.00362163 0
M  V30 3096 C 285.019 -2.50659 2.5826 0
M  V30 3097 C 284.627 -2.00277 4.0074 0
M  V30 3098 C 286.371 -3.27844 2.69664 0
M  V30 3099 C 284.278 -3.09854 5.0373 0
M  V30 3100 H 283.208 -0.520245 0.545766 0
M  V30 3101 H 285.859 -0.676313 1.70582 0
M  V30 3102 H 284.241 -3.2405 2.27612 0
M  V30 3103 H 285.415 -1.33736 4.40966 0
M  V30 3104 H 283.73 -1.35901 3.93599 0
M  V30 3105 H 286.327 -4.09534 3.43781 0
M  V30 3106 H 286.67 -3.77471 1.75559 0
M  V30 3107 H 287.203 -2.61543 2.99733 0
M  V30 3108 H 283.942 -2.65168 5.99472 0
M  V30 3109 H 283.462 -3.7503 4.68095 0
M  V30 3110 H 285.141 -3.74592 5.27532 0
M  V30 3111 N 285.273 -1.31445 -0.869486 0
M  V30 3112 C 286.236 -1.19094 -1.9583 0
M  V30 3113 C 287.236 -0.117906 -1.60367 0
M  V30 3114 O 288.426 -0.367208 -1.70286 0
M  V30 3115 C 285.558 -0.828165 -3.30688 0
M  V30 3116 H 286.751 -2.15842 -2.08212 0
M  V30 3117 H 284.304 -1.15063 -1.05784 0
M  V30 3118 H 285.039 0.138142 -3.24006 0
M  V30 3119 H 284.824 -1.6038 -3.578 0
M  V30 3120 H 286.314 -0.765658 -4.10521 0
M  V30 3121 N 286.751 1.08385 -1.14413 0
M  V30 3122 C 287.997 1.81044 -0.913834 0
M  V30 3123 C 288.33 1.86004 0.558209 0
M  V30 3124 O 287.605 1.33606 1.4135 0
M  V30 3125 C 287.888 3.26648 -1.51569 0
M  V30 3126 C 287.741 3.29895 -3.0576 0
M  V30 3127 C 289.06 4.23629 -1.19273 0
M  V30 3128 H 286.179 0.65727 -0.333414 0
M  V30 3129 H 288.821 1.26896 -1.41412 0
M  V30 3130 H 286.971 3.72889 -1.09023 0
M  V30 3131 H 288.643 2.91977 -3.57137 0
M  V30 3132 H 286.886 2.69163 -3.40197 0
M  V30 3133 H 287.557 4.32516 -3.42977 0
M  V30 3134 H 290.033 3.85727 -1.56057 0
M  V30 3135 H 288.909 5.23822 -1.64017 0
M  V30 3136 H 289.17 4.41968 -0.108068 0
M  V30 3137 N 288.23 0.939286 1.26551 0
M  V30 3138 C 289.455 0.602008 1.98471 0
M  V30 3139 C 289.88 -0.815624 1.69497 0
M  V30 3140 O 289.238 -1.54912 0.941905 0
M  V30 3141 C 289.286 0.848407 3.50477 0
M  V30 3142 O 288.39 -0.0804009 4.12322 0
M  V30 3143 H 287.731 0.23049 0.622712 0
M  V30 3144 H 290.261 1.2617 1.61066 0
M  V30 3145 H 290.271 0.768553 4.00696 0
M  V30 3146 H 288.946 1.88171 3.70897 0
M  V30 3147 H 287.523 0.0503508 3.72866 0
M  V30 3148 N 289.708 -1.40897 0.706093 0
M  V30 3149 C 290.954 -2.01352 0.241889 0
M  V30 3150 C 291.287 -1.55832 -1.15888 0
M  V30 3151 O 290.562 -0.774145 -1.7843 0
M  V30 3152 C 290.845 -3.58752 0.311311 0
M  V30 3153 C 290.698 -4.1437 1.74978 0
M  V30 3154 C 292.017 -4.38914 -0.322922 0
M  V30 3155 H 289.136 -0.731562 0.0893687 0
M  V30 3156 H 291.778 -1.67504 0.896802 0
M  V30 3157 H 289.928 -3.87718 -0.246302 0
M  V30 3158 H 291.6 -3.96239 2.36205 0
M  V30 3159 H 289.843 -3.69016 2.28057 0
M  V30 3160 H 290.514 -5.23532 1.74981 0
M  V30 3161 H 292.99 -4.15822 0.152089 0
M  V30 3162 H 291.866 -5.48358 -0.243855 0
M  V30 3163 H 292.127 -4.19176 -1.40513 0
M  V30 3164 N 291.186 -0.45159 -1.50991 0
M  V30 3165 C 292.435 0.111653 -2.01391 0
M  V30 3166 C 292.748 1.42529 -1.33959 0
M  V30 3167 O 293.954 2.07232 -1.75405 0
M  V30 3168 C 292.41 0.249514 -3.59034 0
M  V30 3169 C 292.018 -1.05453 -4.35412 0
M  V30 3170 C 293.762 0.765762 -4.17536 0
M  V30 3171 C 291.669 -0.881529 -5.84793 0
M  V30 3172 H 290.599 0.0455022 -0.752626 0
M  V30 3173 H 293.25 -0.583524 -1.73975 0
M  V30 3174 H 291.632 1.00803 -3.82955 0
M  V30 3175 H 292.806 -1.82248 -4.23229 0
M  V30 3176 H 291.121 -1.50039 -3.88429 0
M  V30 3177 H 293.718 0.911913 -5.26866 0
M  V30 3178 H 294.061 1.75201 -3.77638 0
M  V30 3179 H 294.594 0.0651744 -3.97747 0
M  V30 3180 H 291.333 -1.84057 -6.29129 0
M  V30 3181 H 290.853 -0.153625 -5.99603 0
M  V30 3182 H 292.532 -0.540363 -6.4474 0
M  V30 3183 N 292.664 1.56529 -0.183458 0
M  V30 3184 C 293.892 2.01623 0.464285 0
M  V30 3185 C 294.307 1.06366 1.55986 0
M  V30 3186 O 293.664 0.0665398 1.82379 0
M  V30 3187 C 293.715 3.46475 1.03139 0
M  V30 3188 O 293.436 4.38095 -0.0204675 0
M  V30 3189 C 294.937 4.0703 1.75617 0
M  V30 3190 H 292.157 0.660596 0.117704 0
M  V30 3191 H 294.701 2.02451 -0.288751 0
M  V30 3192 H 292.856 3.46383 1.73486 0
M  V30 3193 H 293.27 5.22973 0.399952 0
M  V30 3194 H 294.744 5.10271 2.10542 0
M  V30 3195 H 295.221 3.49819 2.65563 0
M  V30 3196 H 295.827 4.1086 1.09882 0
M  V30 3197 N 294.142 -0.090211 1.57342 0
M  V30 3198 C 295.09 -1.12792 2.03422 0
M  V30 3199 C 296.084 -1.41182 0.936166 0
M  V30 3200 O 297.29 -1.40805 1.12133 0
M  V30 3201 H 293.665 -0.380986 0.648347 0
M  V30 3202 H 295.636 -0.71299 2.89757 0
M  V30 3203 C 294.385 -2.43855 2.47851 0
M  V30 3204 H 293.708 -2.22855 3.31927 0
M  V30 3205 H 295.148 -3.14955 2.83865 0
M  V30 3206 C 293.607 -3.08503 1.3538 0
M  V30 3207 O 294.137 -3.95805 0.685641 0
M  V30 3208 N 292.343 -2.68831 1.10355 0
M  V30 3209 H 291.89 -1.97929 1.64869 0
M  V30 3210 H 291.848 -3.12412 0.353031 0
M  V30 3211 N 295.62 -1.53406 -0.361157 0
M  V30 3212 C 296.866 -1.70054 -1.10496 0
M  V30 3213 C 297.199 -0.453278 -1.88836 0
M  V30 3214 O 296.474 0.5495 -1.86576 0
M  V30 3215 C 296.757 -2.95317 -2.06058 0
M  V30 3216 C 296.61 -4.3021 -1.31298 0
M  V30 3217 C 297.929 -3.16193 -3.06121 0
M  V30 3218 H 295.048 -0.618799 -0.400321 0
M  V30 3219 H 297.69 -1.86052 -0.385318 0
M  V30 3220 H 295.84 -2.81809 -2.67425 0
M  V30 3221 H 297.512 -4.55538 -0.726807 0
M  V30 3222 H 295.755 -4.29421 -0.614853 0
M  V30 3223 H 296.426 -5.14 -2.01265 0
M  V30 3224 H 298.902 -3.28916 -2.5486 0
M  V30 3225 H 297.778 -4.05266 -3.70204 0
M  V30 3226 H 298.039 -2.31676 -3.76535 0
M  V30 3227 N 297.098 0.621204 -1.44841 0
M  V30 3228 C 298.344 1.3826 -1.48365 0
M  V30 3229 C 298.677 1.93831 -0.119624 0
M  V30 3230 O 297.952 1.74251 0.864111 0
M  V30 3231 C 298.235 2.54058 -2.55199 0
M  V30 3232 C 298.088 2.03772 -4.00995 0
M  V30 3233 C 299.407 3.56225 -2.58442 0
M  V30 3234 H 296.526 0.501374 -0.540179 0
M  V30 3235 H 299.168 0.7015 -1.76576 0
M  V30 3236 H 297.318 3.12162 -2.31274 0
M  V30 3237 H 298.99 1.50423 -4.36086 0
M  V30 3238 H 297.233 1.34876 -4.12299 0
M  V30 3239 H 297.904 2.87185 -4.71411 0
M  V30 3240 H 300.38 3.07939 -2.79844 0
M  V30 3241 H 299.256 4.34756 -3.3508 0
M  V30 3242 H 299.517 4.10949 -1.63013 0
M  V30 3243 N 298.576 1.31904 0.862503 0
M  V30 3244 C 299.486 1.22161 2.00285 0
M  V30 3245 C 300.502 0.136785 1.73462 0
M  V30 3246 O 301.678 0.355994 1.98229 0
M  V30 3247 C 298.743 0.937093 3.33796 0
M  V30 3248 C 297.804 2.10957 3.73893 0
M  V30 3249 C 297.037 1.83853 5.01033 0
M  V30 3250 O 297.26 0.777274 5.65079 0
M  V30 3251 O 296.194 2.69741 5.38074 0
M  V30 3252 H 300.02 2.18008 2.11439 0
M  V30 3253 H 297.605 1.11716 0.991957 0
M  V30 3254 H 299.487 0.794583 4.13841 0
M  V30 3255 H 298.162 0.00871894 3.23699 0
M  V30 3256 H 297.069 2.30752 2.94456 0
M  V30 3257 H 298.402 3.02046 3.88625 0
M  V30 3258 N 300.054 -1.07777 1.14986 0
M  V30 3259 C 301.282 -1.84018 0.945773 0
M  V30 3260 C 301.697 -1.81897 -0.505863 0
M  V30 3261 O 301.054 -1.22726 -1.35072 0
M  V30 3262 C 301.105 -3.31287 1.44677 0
M  V30 3263 O 300.826 -3.33449 2.84154 0
M  V30 3264 C 302.327 -4.24311 1.28355 0
M  V30 3265 H 299.547 -0.580716 0.336169 0
M  V30 3266 H 302.091 -1.36077 1.52654 0
M  V30 3267 H 300.246 -3.76594 0.908625 0
M  V30 3268 H 300.66 -4.25427 3.06777 0
M  V30 3269 H 302.134 -5.2573 1.68261 0
M  V30 3270 H 302.611 -4.38612 0.227184 0
M  V30 3271 H 303.217 -3.84836 1.81056 0
M  V30 3272 N 301.532 -0.945985 -1.26051 0
M  V30 3273 C 302.778 -0.597002 -1.93814 0
M  V30 3274 C 303.111 0.862484 -1.73997 0
M  V30 3275 O 302.386 1.61769 -1.07986 0
M  V30 3276 C 302.669 -0.945937 -3.47454 0
M  V30 3277 C 302.522 -2.46052 -3.76535 0
M  V30 3278 C 303.841 -0.464785 -4.37639 0
M  V30 3279 H 300.96 -0.218366 -0.703907 0
M  V30 3280 H 303.602 -1.18107 -1.48831 0
M  V30 3281 H 301.752 -0.448902 -3.85898 0
M  V30 3282 H 303.424 -3.03065 -3.47778 0
M  V30 3283 H 301.667 -2.90194 -3.22444 0
M  V30 3284 H 302.338 -2.65517 -4.83947 0
M  V30 3285 H 304.814 -0.891016 -4.06448 0
M  V30 3286 H 303.69 -0.737712 -5.4392 0
M  V30 3287 H 303.951 0.635274 -4.37512 0
M  V30 3288 N 303.011 1.40521 -0.713556 0
M  V30 3289 C 304.422 1.83853 -0.324807 0
M  V30 3290 C 304.773 1.59667 1.14021 0
M  V30 3291 O 303.898 1.07649 1.87725 0
M  V30 3292 C 304.493 3.33751 -0.582746 0
M  V30 3293 C 303.052 3.75584 -0.247727 0
M  V30 3294 C 302.199 2.63753 -0.856121 0
M  V30 3295 H 305.15 1.29817 -0.91286 0
M  V30 3296 H 305.171 3.80194 0.152682 0
M  V30 3297 H 304.683 3.51322 -1.64908 0
M  V30 3298 H 302.784 3.63608 0.813624 0
M  V30 3299 H 302.897 4.7373 -0.715307 0
M  V30 3300 H 301.261 2.53108 -0.28432 0
M  V30 3301 H 302.044 2.84137 -1.92668 0
M  V30 3302 N 304.489 0.459591 1.5075 0
M  V30 3303 C 305.729 -0.09824 2.04164 0
M  V30 3304 C 306.093 -1.3801 1.33481 0
M  V30 3305 O 307.294 -2.01959 1.77387 0
M  V30 3306 C 305.565 -0.289467 3.56226 0
M  V30 3307 S 307.124 -0.807507 4.31306 0
M  V30 3308 H 303.942 -0.0213845 0.710678 0
M  V30 3309 H 306.544 0.624098 1.85271 0
M  V30 3310 H 305.248 0.649461 4.05229 0
M  V30 3311 H 304.779 -1.03825 3.79452 0
M  V30 3312 H 306.794 -2.0824 4.50389 0
M  V30 3313 N 305.967 -1.56429 0.191757 0
M  V30 3314 C 307.215 -1.97095 -0.447006 0
M  V30 3315 C 307.536 -1.07967 -1.62383 0
M  V30 3316 O 306.806 -0.150248 -1.95323 0
M  V30 3317 H 305.386 -0.727832 -0.168135 0
M  V30 3318 H 308.048 -1.92911 0.27771 0
M  V30 3319 H 307.144 -3.01848 -0.793371 0
M  V30 3320 N 307.445 0.0818655 -1.57387 0
M  V30 3321 C 308.673 0.796108 -1.9097 0
M  V30 3322 C 309.088 1.71626 -0.786757 0
M  V30 3323 O 308.445 1.80908 0.240513 0
M  V30 3324 C 308.496 1.59829 -3.24248 0
M  V30 3325 O 308.217 0.715131 -4.32224 0
M  V30 3326 C 309.718 2.41442 -3.7178 0
M  V30 3327 H 306.938 0.22691 -0.631469 0
M  V30 3328 H 309.482 0.0551439 -2.04426 0
M  V30 3329 H 307.637 2.29163 -3.12351 0
M  V30 3330 H 308.051 1.27205 -5.08841 0
M  V30 3331 H 309.525 2.932 -4.67694 0
M  V30 3332 H 310.002 3.2051 -3.00283 0
M  V30 3333 H 310.608 1.77283 -3.86589 0
M  V30 3334 N 308.923 1.53595 0.353017 0
M  V30 3335 C 310.169 1.70638 1.09593 0
M  V30 3336 C 310.502 0.463286 1.88593 0
M  V30 3337 O 309.777 -0.539597 1.86865 0
M  V30 3338 C 310.06 2.96406 2.04489 0
M  V30 3339 C 309.913 4.30901 1.29014 0
M  V30 3340 C 311.232 3.17812 3.0444 0
M  V30 3341 H 308.351 0.620913 0.397034 0
M  V30 3342 H 310.993 1.86254 0.375446 0
M  V30 3343 H 309.143 2.83223 2.65927 0
M  V30 3344 H 310.815 4.55917 0.702638 0
M  V30 3345 H 309.058 4.29741 0.592071 0
M  V30 3346 H 309.729 5.1506 1.98537 0
M  V30 3347 H 312.205 3.30263 2.53112 0
M  V30 3348 H 311.081 4.07223 3.6805 0
M  V30 3349 H 311.342 2.33669 3.75301 0
M  V30 3350 N 310.401 -0.613514 1.45168 0
M  V30 3351 C 311.812 -1.19539 1.43413 0
M  V30 3352 C 312.163 -1.95558 0.158632 0
M  V30 3353 O 311.288 -2.0335 -0.740119 0
M  V30 3354 C 311.883 -2.17445 2.59813 0
M  V30 3355 C 310.442 -2.71022 2.61197 0
M  V30 3356 C 309.589 -1.46323 2.35552 0
M  V30 3357 H 312.54 -0.403163 1.53494 0
M  V30 3358 H 312.561 -3.00373 2.33574 0
M  V30 3359 H 312.073 -1.62089 3.52631 0
M  V30 3360 H 310.174 -3.30332 1.7237 0
M  V30 3361 H 310.287 -3.15859 3.60236 0
M  V30 3362 H 308.651 -1.75072 1.84992 0
M  V30 3363 H 309.434 -0.92844 3.30507 0
M  V30 3364 N 311.879 -1.3236 -0.855495 0
M  V30 3365 C 313.127 -1.22629 -1.60644 0
M  V30 3366 C 313.448 0.212136 -1.93843 0
M  V30 3367 O 312.718 1.13666 -1.59552 0
M  V30 3368 H 311.298 -0.450882 -0.595579 0
M  V30 3369 H 313.96 -1.65871 -1.02337 0
M  V30 3370 H 313.056 -1.80832 -2.54374 0
M  V30 3371 N 313.357 1.07166 -1.15556 0
M  V30 3372 C 314.582 1.84053 -0.955988 0
M  V30 3373 C 315.007 1.81586 0.490739 0
M  V30 3374 O 314.365 1.21018 1.34997 0
M  V30 3375 C 314.413 3.28957 -1.47714 0
M  V30 3376 O 313.517 4.06795 -0.677593 0
M  V30 3377 H 312.858 0.569842 -0.340847 0
M  V30 3378 H 315.388 1.35178 -1.53584 0
M  V30 3379 H 315.398 3.79788 -1.4908 0
M  V30 3380 H 314.073 3.30068 -2.53037 0
M  V30 3381 H 312.65 3.6561 -0.733721 0
M  V30 3382 N 314.835 0.952656 1.25548 0
M  V30 3383 C 315.782 0.47008 2.25962 0
M  V30 3384 C 316.752 -0.476384 1.59122 0
M  V30 3385 O 317.937 -0.39007 1.8677 0
M  V30 3386 C 315.077 -0.247881 3.44209 0
M  V30 3387 C 314.19 0.735591 4.25691 0
M  V30 3388 C 313.325 -0.0047306 5.312 0
M  V30 3389 C 312.364 0.969805 6.04368 0
M  V30 3390 N 311.501 0.260486 7.01617 0
M  V30 3391 H 316.341 1.33126 2.66611 0
M  V30 3392 H 313.878 0.66765 1.31076 0
M  V30 3393 H 315.836 -0.680695 4.1161 0
M  V30 3394 H 314.466 -1.07312 3.0444 0
M  V30 3395 H 313.518 1.28689 3.57971 0
M  V30 3396 H 314.83 1.47934 4.76358 0
M  V30 3397 H 313.984 -0.496275 6.04667 0
M  V30 3398 H 312.723 -0.781282 4.81401 0
M  V30 3399 H 311.728 1.47237 5.29718 0
M  V30 3400 H 312.953 1.74655 6.56256 0
M  V30 3401 H 310.899 -0.497364 6.54112 0
M  V30 3402 H 310.816 0.943362 7.50091 0
M  V30 3403 H 312.084 -0.209587 7.79218 0
M  V30 3404 N 316.313 -1.40141 0.720998 0
M  V30 3405 C 317.223 -2.34486 0.0731031 0
M  V30 3406 C 318.239 -1.57587 -0.737723 0
M  V30 3407 O 319.415 -1.89949 -0.669429 0
M  V30 3408 C 316.48 -3.36528 -0.833656 0
M  V30 3409 C 315.541 -4.29298 -0.0121673 0
M  V30 3410 C 314.774 -5.26466 -0.875742 0
M  V30 3411 O 314.997 -5.29745 -2.11485 0
M  V30 3412 O 313.931 -6.01092 -0.31185 0
M  V30 3413 H 317.757 -2.9152 0.851444 0
M  V30 3414 H 315.342 -1.41427 0.481527 0
M  V30 3415 H 317.224 -3.99093 -1.35289 0
M  V30 3416 H 315.899 -2.81899 -1.59105 0
M  V30 3417 H 314.806 -3.70001 0.552262 0
M  V30 3418 H 316.139 -4.87094 0.707129 0
M  V30 3419 N 317.792 -0.46758 -1.50504 0
M  V30 3420 C 318.722 0.318381 -2.31319 0
M  V30 3421 C 319.703 0.993564 -1.38066 0
M  V30 3422 O 320.888 0.991411 -1.66987 0
M  V30 3423 C 318.018 1.40275 -3.17711 0
M  V30 3424 C 316.972 0.849373 -4.19487 0
M  V30 3425 C 316.298 2.03177 -4.94594 0
M  V30 3426 C 317.598 -0.136942 -5.2212 0
M  V30 3427 H 319.292 -0.356106 -2.97275 0
M  V30 3428 H 316.838 -0.172703 -1.42961 0
M  V30 3429 H 318.791 1.96004 -3.73042 0
M  V30 3430 H 317.515 2.10596 -2.49634 0
M  V30 3431 H 316.174 0.314076 -3.65252 0
M  V30 3432 H 315.822 2.72187 -4.22993 0
M  V30 3433 H 315.522 1.66774 -5.63436 0
M  V30 3434 H 317.046 2.59403 -5.52759 0
M  V30 3435 H 318.46 0.331056 -5.72343 0
M  V30 3436 H 316.857 -0.41507 -5.98663 0
M  V30 3437 H 317.927 -1.06398 -4.73083 0
M  V30 3438 N 319.27 1.56325 -0.20005 0
M  V30 3439 C 320.681 1.8408 0.31167 0
M  V30 3440 C 321.032 1.12087 1.61031 0
M  V30 3441 O 320.157 0.38332 2.12978 0
M  V30 3442 C 320.752 3.33932 0.57226 0
M  V30 3443 C 319.311 3.6208 1.02834 0
M  V30 3444 C 318.458 2.77186 0.079634 0
M  V30 3445 H 321.409 1.52939 -0.423729 0
M  V30 3446 H 321.43 3.52971 1.42096 0
M  V30 3447 H 320.942 3.86303 -0.37308 0
M  V30 3448 H 319.043 3.15147 1.98778 0
M  V30 3449 H 319.156 4.7023 0.917624 0
M  V30 3450 H 317.52 2.47951 0.582448 0
M  V30 3451 H 318.303 3.32347 -0.860238 0
M  V30 3452 N 320.748 -0.0735177 1.57428 0
M  V30 3453 C 321.988 -0.778363 1.89 0
M  V30 3454 C 322.352 -1.7483 0.793634 0
M  V30 3455 O 323.553 -2.49811 0.992367 0
M  V30 3456 C 321.824 -1.46929 3.25802 0
M  V30 3457 S 323.383 -2.20943 3.79117 0
M  V30 3458 H 320.201 -0.258874 0.662197 0
M  V30 3459 H 322.803 -0.0345338 1.95469 0
M  V30 3460 H 321.507 -0.749532 4.03497 0
M  V30 3461 H 321.038 -2.25258 3.22525 0
M  V30 3462 H 323.053 -3.47435 3.54265 0
M  V30 3463 N 322.226 -1.5378 -0.344866 0
M  V30 3464 C 323.474 -1.70625 -1.08311 0
M  V30 3465 C 323.795 -0.471447 -1.89215 0
M  V30 3466 O 323.065 0.514616 -1.8902 0
M  V30 3467 H 321.645 -0.629058 -0.402859 0
M  V30 3468 H 324.307 -1.9103 -0.386459 0
M  V30 3469 H 323.403 -2.57656 -1.76124 0
M  V30 3470 N 323.704 0.605807 -1.45491 0
M  V30 3471 C 324.614 1.74466 -1.56839 0
M  V30 3472 C 325.63 1.68006 -0.452772 0
M  V30 3473 O 326.806 1.8833 -0.713708 0
M  V30 3474 C 323.871 3.10931 -1.53371 0
M  V30 3475 C 322.932 3.28832 -2.75986 0
M  V30 3476 C 322.165 4.58787 -2.72673 0
M  V30 3477 O 322.388 5.4122 -1.80102 0
M  V30 3478 O 321.322 4.79438 -3.63899 0
M  V30 3479 H 325.148 1.67843 -2.53106 0
M  V30 3480 H 322.733 0.770108 -1.28022 0
M  V30 3481 H 324.615 3.92233 -1.54051 0
M  V30 3482 H 323.29 3.18042 -0.602572 0
M  V30 3483 H 322.197 2.47112 -2.80867 0
M  V30 3484 H 323.53 3.26599 -3.68231 0
M  V30 3485 N 325.182 1.32811 0.848464 0
M  V30 3486 C 326.598 1.11937 1.13764 0
M  V30 3487 C 326.798 -0.0960789 2.01271 0
M  V30 3488 O 325.854 -0.779165 2.40178 0
M  V30 3489 C 327.167 2.402 1.809 0
M  V30 3490 C 328.715 2.46016 1.93508 0
M  V30 3491 C 329.19 3.74215 2.64059 0
M  V30 3492 N 330.681 3.75232 2.71579 0
M  V30 3493 C 331.416 4.71134 3.26833 0
M  V30 3494 N 330.912 5.77406 3.8285 0
M  V30 3495 N 332.705 4.58623 3.24995 0
M  V30 3496 H 324.856 2.1073 0.265855 0
M  V30 3497 H 327.119 0.930671 0.180431 0
M  V30 3498 H 326.825 3.29093 1.24058 0
M  V30 3499 H 326.699 2.51628 2.81004 0
M  V30 3500 H 329.086 1.57577 2.49506 0
M  V30 3501 H 329.167 2.38536 0.923811 0
M  V30 3502 H 328.811 4.63031 2.08722 0
M  V30 3503 H 328.741 3.78968 3.65637 0
M  V30 3504 H 331.232 2.98423 2.31845 0
M  V30 3505 H 331.545 6.46632 4.23187 0
M  V30 3506 H 329.89 5.81152 3.81165 0
M  V30 3507 H 333.081 3.74762 2.80484 0
M  V30 3508 H 333.254 5.33535 3.67756 0
M  V30 3509 N 326.66 -1.06551 1.16123 0
M  V30 3510 C 327.89 -1.8274 0.963838 0
M  V30 3511 C 328.298 -1.82712 -0.491228 0
M  V30 3512 O 327.641 -1.24294 -1.35265 0
M  V30 3513 C 327.703 -3.3065 1.41106 0
M  V30 3514 C 327.367 -3.54384 2.88549 0
M  V30 3515 C 328.364 -3.4765 3.86569 0
M  V30 3516 C 326.049 -3.81789 3.26408 0
M  V30 3517 C 328.043 -3.67982 5.2045 0
M  V30 3518 C 325.73 -4.01772 4.60459 0
M  V30 3519 C 326.728 -3.94866 5.57288 0
M  V30 3520 O 326.416 -4.14306 6.88916 0
M  V30 3521 H 326.148 -0.583136 0.341948 0
M  V30 3522 H 328.702 -1.35351 1.54497 0
M  V30 3523 H 326.932 -3.78887 0.773394 0
M  V30 3524 H 328.621 -3.88324 1.1815 0
M  V30 3525 H 329.387 -3.2647 3.58667 0
M  V30 3526 H 325.266 -3.86276 2.51619 0
M  V30 3527 H 328.81 -3.62507 5.96015 0
M  V30 3528 H 324.707 -4.2244 4.88072 0
M  V30 3529 H 325.475 -4.31609 6.95454 0
M  V30 3530 N 328.138 -0.959301 -1.25041 0
M  V30 3531 C 329.363 -0.633507 -1.97488 0
M  V30 3532 C 329.788 0.788555 -1.70773 0
M  V30 3533 O 329.146 1.53394 -0.966431 0
M  V30 3534 C 329.194 -0.904057 -3.49083 0
M  V30 3535 O 328.298 0.0147939 -4.12397 0
M  V30 3536 H 327.639 -0.240368 -0.618966 0
M  V30 3537 H 330.169 -1.28717 -1.59038 0
M  V30 3538 H 330.179 -0.832203 -3.99423 0
M  V30 3539 H 328.854 -1.94048 -3.67856 0
M  V30 3540 H 327.431 -0.109664 -3.72739 0
M  V30 3541 N 329.616 1.39756 -0.72842 0
M  V30 3542 C 330.862 2.00942 -0.273892 0
M  V30 3543 C 331.195 1.57656 1.13394 0
M  V30 3544 O 330.47 0.802434 1.77176 0
M  V30 3545 C 330.753 3.58211 -0.368346 0
M  V30 3546 C 330.606 4.11534 -1.81548 0
M  V30 3547 C 331.925 4.39372 0.253054 0
M  V30 3548 H 329.044 0.730047 -0.100996 0
M  V30 3549 H 331.686 1.66056 -0.923337 0
M  V30 3550 H 329.836 3.88061 0.184588 0
M  V30 3551 H 331.508 3.92431 -2.42478 0
M  V30 3552 H 329.751 3.65341 -2.33898 0
M  V30 3553 H 330.422 5.20682 -1.83288 0
M  V30 3554 H 332.898 4.15527 -0.218224 0
M  V30 3555 H 331.774 5.48677 0.156585 0
M  V30 3556 H 332.035 4.21358 1.33826 0
M  V30 3557 N 331.094 0.475555 1.50254 0
M  V30 3558 C 332.057 -0.305016 2.27161 0
M  V30 3559 C 333.057 -0.916519 1.32123 0
M  V30 3560 O 334.247 -0.785003 1.5551 0
M  V30 3561 C 331.379 -1.43496 3.09227 0
M  V30 3562 H 332.572 0.369511 2.97615 0
M  V30 3563 H 330.125 0.229747 1.54602 0
M  V30 3564 H 330.86 -2.14441 2.43281 0
M  V30 3565 H 330.645 -1.00223 3.79075 0
M  V30 3566 H 332.135 -1.98548 3.67381 0
M  V30 3567 N 332.573 -1.56217 0.208337 0
M  V30 3568 C 333.82 -1.97949 -0.42692 0
M  V30 3569 C 334.148 -1.09562 -1.60706 0
M  V30 3570 O 333.403 -0.137616 -1.95216 0
M  V30 3571 C 333.702 -3.45441 -0.916797 0
M  V30 3572 C 333.368 -4.50646 0.151391 0
M  V30 3573 C 332.03 -4.79139 0.444867 0
M  V30 3574 C 334.382 -5.13811 0.874492 0
M  V30 3575 C 331.71 -5.68084 1.46619 0
M  V30 3576 C 334.062 -6.03861 1.88506 0
M  V30 3577 C 332.726 -6.30704 2.18559 0
M  V30 3578 H 331.996 -0.724345 -0.156221 0
M  V30 3579 H 334.643 -1.89006 0.308084 0
M  V30 3580 H 332.948 -3.51521 -1.73032 0
M  V30 3581 H 334.645 -3.75094 -1.41794 0
M  V30 3582 H 331.235 -4.28511 -0.0875068 0
M  V30 3583 H 335.419 -4.91879 0.660996 0
M  V30 3584 H 330.675 -5.87151 1.7048 0
M  V30 3585 H 334.849 -6.51861 2.45051 0
M  V30 3586 H 332.476 -6.99424 2.97843 0
M  V30 3587 N 334.051 0.0651679 -1.57465 0
M  V30 3588 C 335.298 0.763063 -1.87573 0
M  V30 3589 C 335.626 1.77242 -0.800961 0
M  V30 3590 O 334.881 1.94651 0.202316 0
M  V30 3591 C 335.18 1.50081 -3.24362 0
M  V30 3592 C 334.846 0.630816 -4.46466 0
M  V30 3593 C 333.508 0.391082 -4.79608 0
M  V30 3594 C 335.86 0.0279465 -5.21193 0
M  V30 3595 C 333.188 -0.460894 -5.84887 0
M  V30 3596 C 335.54 -0.811522 -6.27373 0
M  V30 3597 C 334.204 -1.06106 -6.59013 0
M  V30 3598 H 333.474 0.279224 -0.686378 0
M  V30 3599 H 336.121 0.0236726 -1.91485 0
M  V30 3600 H 334.426 2.31258 -3.16271 0
M  V30 3601 H 336.123 2.04571 -3.44894 0
M  V30 3602 H 332.713 0.8278 -4.2053 0
M  V30 3603 H 336.897 0.200262 -4.95896 0
M  V30 3604 H 332.153 -0.662907 -6.07796 0
M  V30 3605 H 336.327 -1.28537 -6.84435 0
M  V30 3606 H 333.954 -1.723 -7.40417 0
M  V30 3607 N 335.529 1.53961 0.336706 0
M  V30 3608 C 336.769 1.73254 1.08454 0
M  V30 3609 C 337.133 0.488937 1.8567 0
M  V30 3610 O 338.334 0.559001 2.62923 0
M  V30 3611 C 336.605 2.96519 1.99528 0
M  V30 3612 S 338.164 3.36655 2.81441 0
M  V30 3613 H 334.982 0.609353 0.366347 0
M  V30 3614 H 337.584 1.92117 0.362124 0
M  V30 3615 H 336.288 3.85193 1.41614 0
M  V30 3616 H 335.819 2.80142 2.76196 0
M  V30 3617 H 337.834 2.90925 4.01967 0
M  V30 3618 N 337.007 -0.598083 1.45811 0
M  V30 3619 C 337.937 -1.71873 1.58057 0
M  V30 3620 C 338.918 -1.64533 0.431615 0
M  V30 3621 O 340.103 -1.82787 0.65595 0
M  V30 3622 C 337.233 -3.10495 1.55597 0
M  V30 3623 C 336.187 -3.32654 2.69305 0
M  V30 3624 C 335.513 -4.71646 2.51902 0
M  V30 3625 C 336.813 -3.21981 4.11248 0
M  V30 3626 H 338.507 -1.61881 2.51863 0
M  V30 3627 H 336.053 -0.777372 1.21214 0
M  V30 3628 H 338.006 -3.88699 1.6276 0
M  V30 3629 H 336.73 -3.2135 0.583255 0
M  V30 3630 H 335.389 -2.56843 2.61586 0
M  V30 3631 H 335.037 -4.79246 1.52748 0
M  V30 3632 H 334.737 -4.87426 3.2816 0
M  V30 3633 H 336.261 -5.52038 2.60933 0
M  V30 3634 H 337.675 -3.90049 4.20161 0
M  V30 3635 H 336.072 -3.49289 4.87972 0
M  V30 3636 H 337.142 -2.1928 4.32486 0
M  V30 3637 N 338.485 -1.33259 -0.841409 0
M  V30 3638 C 339.762 -1.15174 -1.58096 0
M  V30 3639 C 340.142 0.282858 -2.09196 0
M  V30 3640 O 339.49 1.28151 -1.89181 0
M  V30 3641 C 339.7 -2.1907 -2.71679 0
M  V30 3642 C 341.048 -2.53093 -3.40924 0
M  V30 3643 O 342.072 -2.17717 -2.81918 0
M  V30 3644 O 340.931 -3.1379 -4.47435 0
M  V30 3645 H 338.025 -0.445303 -0.696875 0
M  V30 3646 H 340.571 -1.44833 -0.884385 0
M  V30 3647 H 339.343 -3.15443 -2.31541 0
M  V30 3648 H 338.966 -1.90481 -3.49002 0
M  V30 3649 N 339.963 1.05934 -1.16686 0
M  V30 3650 C 341.191 1.8249 -0.974929 0
M  V30 3651 C 341.606 1.82679 0.476861 0
M  V30 3652 O 340.963 1.2486 1.33103 0
M  V30 3653 C 341.014 3.28943 -1.49929 0
M  V30 3654 O 340.735 3.28886 -2.89423 0
M  V30 3655 C 342.236 4.22215 -1.35089 0
M  V30 3656 H 339.456 0.575295 -0.345365 0
M  V30 3657 H 342 1.33631 -1.548 0
M  V30 3658 H 340.155 3.751 -0.968423 0
M  V30 3659 H 340.569 4.20493 -3.13506 0
M  V30 3660 H 342.043 5.22987 -1.76603 0
M  V30 3661 H 342.52 4.38195 -0.296935 0
M  V30 3662 H 343.126 3.81907 -1.87155 0
M  V30 3663 N 341.441 0.965919 1.2453 0
M  V30 3664 C 342.404 0.499547 2.2369 0
M  V30 3665 C 343.404 -0.40294 1.5567 0
M  V30 3666 O 344.594 -0.19865 1.73064 0
M  V30 3667 C 341.726 -0.276792 3.39774 0
M  V30 3668 H 342.919 1.37613 2.66463 0
M  V30 3669 H 340.472 0.750324 1.37112 0
M  V30 3670 H 341.207 -1.17055 3.02438 0
M  V30 3671 H 340.992 0.370826 3.90343 0
M  V30 3672 H 342.482 -0.592175 4.1338 0
M  V30 3673 N 342.919 -1.39368 0.735821 0
M  V30 3674 C 344.159 -2.02349 0.288813 0
M  V30 3675 C 344.523 -1.57127 -1.10341 0
M  V30 3676 O 345.724 -2.12312 -1.64854 0
M  V30 3677 C 343.995 -3.55288 0.387986 0
M  V30 3678 S 345.554 -4.38795 0.0209408 0
M  V30 3679 H 342.372 -0.701944 0.113115 0
M  V30 3680 H 344.974 -1.70164 0.962518 0
M  V30 3681 H 343.678 -3.85691 1.40252 0
M  V30 3682 H 343.209 -3.92227 -0.303512 0
M  V30 3683 H 345.224 -4.81595 -1.19503 0
M  V30 3684 N 344.397 -0.483516 -1.5 0
M  V30 3685 C 345.643 0.0672592 -2.02688 0
M  V30 3686 C 345.976 1.38247 -1.36387 0
M  V30 3687 O 345.251 1.88131 -0.493675 0
M  V30 3688 C 345.534 0.238109 -3.59312 0
M  V30 3689 C 345.387 -1.099 -4.36168 0
M  V30 3690 C 346.706 0.986916 -4.28892 0
M  V30 3691 H 343.825 0.0229696 -0.736642 0
M  V30 3692 H 346.467 -0.631527 -1.79197 0
M  V30 3693 H 344.617 0.8333 -3.79458 0
M  V30 3694 H 346.289 -1.73172 -4.27562 0
M  V30 3695 H 344.532 -1.69261 -3.99416 0
M  V30 3696 H 345.203 -0.932954 -5.44059 0
M  V30 3697 H 347.679 0.482302 -4.13295 0
M  V30 3698 H 346.555 1.07527 -5.38265 0
M  V30 3699 H 346.816 2.0265 -3.92919 0
M  V30 3700 N 345.875 1.56104 -0.216619 0
M  V30 3701 C 346.808 2.16026 0.735395 0
M  V30 3702 C 347.786 1.1032 1.1945 0
M  V30 3703 O 348.97 1.38549 1.27814 0
M  V30 3704 C 346.097 2.73656 1.99575 0
M  V30 3705 C 345.143 3.92146 1.67702 0
M  V30 3706 S 345.976 5.29397 0.806145 0
M  V30 3707 C 347.132 5.90463 2.07617 0
M  V30 3708 H 347.365 2.96439 0.226072 0
M  V30 3709 H 344.898 1.544 -0.00136639 0
M  V30 3710 H 346.856 3.075 2.71945 0
M  V30 3711 H 345.517 1.93245 2.47619 0
M  V30 3712 H 344.71 4.30954 2.61332 0
M  V30 3713 H 344.312 3.59423 1.03398 0
M  V30 3714 H 346.604 6.06136 3.02664 0
M  V30 3715 H 347.547 6.86589 1.73207 0
M  V30 3716 H 347.955 5.19252 2.21445 0
M  V30 3717 N 347.353 -0.0568162 1.57498 0
M  V30 3718 C 348.602 -0.752001 1.87157 0
M  V30 3719 C 348.915 -1.77978 0.811375 0
M  V30 3720 O 350.121 -2.52559 0.996293 0
M  V30 3721 C 348.577 -1.38844 3.3204 0
M  V30 3722 C 348.185 -0.398456 4.46225 0
M  V30 3723 C 349.929 -2.06512 3.70882 0
M  V30 3724 C 347.836 -1.04166 5.82154 0
M  V30 3725 H 346.766 -0.28461 0.698222 0
M  V30 3726 H 349.417 -0.00561272 1.83499 0
M  V30 3727 H 347.799 -2.1836 3.30356 0
M  V30 3728 H 348.973 0.367977 4.59328 0
M  V30 3729 H 347.288 0.174592 4.16034 0
M  V30 3730 H 349.885 -2.55437 4.6974 0
M  V30 3731 H 350.228 -2.87117 3.01445 0
M  V30 3732 H 350.761 -1.33808 3.7462 0
M  V30 3733 H 347.5 -0.275614 6.5492 0
M  V30 3734 H 347.02 -1.7786 5.72823 0
M  V30 3735 H 348.699 -1.55715 6.27982 0
M  V30 3736 N 348.832 -1.54138 -0.328536 0
M  V30 3737 C 350.079 -1.72105 -1.06706 0
M  V30 3738 C 350.407 -0.492111 -1.88171 0
M  V30 3739 O 349.662 0.526153 -1.88494 0
M  V30 3740 C 349.961 -2.9457 -2.02393 0
M  V30 3741 C 349.627 -4.29544 -1.37122 0
M  V30 3742 C 348.289 -4.6624 -1.19052 0
M  V30 3743 C 350.641 -5.1333 -0.902331 0
M  V30 3744 C 347.969 -5.84325 -0.527331 0
M  V30 3745 C 350.321 -6.32094 -0.252988 0
M  V30 3746 C 348.985 -6.67473 -0.0600901 0
M  V30 3747 H 348.255 -0.629775 -0.390466 0
M  V30 3748 H 350.902 -1.88372 -0.34473 0
M  V30 3749 H 349.207 -2.72969 -2.81061 0
M  V30 3750 H 350.904 -3.05665 -2.59557 0
M  V30 3751 H 347.494 -4.0067 -1.52188 0
M  V30 3752 H 351.678 -4.855 -1.02974 0
M  V30 3753 H 346.934 -6.103 -0.366634 0
M  V30 3754 H 351.108 -6.96299 0.118366 0
M  V30 3755 H 348.735 -7.58832 0.455828 0
M  V30 3756 N 350.31 0.590341 -1.46126 0
M  V30 3757 C 351.538 1.37504 -1.54597 0
M  V30 3758 C 351.953 1.87897 -0.184447 0
M  V30 3759 O 351.31 1.63192 0.816984 0
M  V30 3760 C 351.361 2.56779 -2.54454 0
M  V30 3761 O 351.082 2.08476 -3.85317 0
M  V30 3762 C 352.583 3.49427 -2.72792 0
M  V30 3763 H 349.803 0.420325 -0.523037 0
M  V30 3764 H 352.347 0.718383 -1.91467 0
M  V30 3765 H 350.502 3.1845 -2.20609 0
M  V30 3766 H 350.916 2.86097 -4.396 0
M  V30 3767 H 352.39 4.29619 -3.466 0
M  V30 3768 H 352.867 4.00876 -1.79429 0
M  V30 3769 H 353.473 2.93598 -3.07702 0
M  V30 3770 N 351.788 1.33704 0.83433 0
M  V30 3771 C 353.034 1.25603 1.59222 0
M  V30 3772 C 353.367 -0.176659 1.93395 0
M  V30 3773 O 352.642 -1.11915 1.59076 0
M  V30 3774 C 352.925 2.13576 2.89926 0
M  V30 3775 C 352.778 3.65326 2.62406 0
M  V30 3776 C 354.097 2.01238 3.91397 0
M  V30 3777 H 351.216 0.457613 0.577719 0
M  V30 3778 H 353.858 1.63848 0.961972 0
M  V30 3779 H 352.008 1.8109 3.43713 0
M  V30 3780 H 353.68 4.08124 2.15017 0
M  V30 3781 H 351.923 3.8698 1.96033 0
M  V30 3782 H 352.594 4.22232 3.55562 0
M  V30 3783 H 355.07 2.29738 3.46929 0
M  V30 3784 H 353.946 2.65036 4.80673 0
M  V30 3785 H 354.207 0.985951 4.30966 0
M  V30 3786 N 353.266 -1.05314 1.17247 0
M  V30 3787 C 354.176 -2.16538 0.90268 0
M  V30 3788 C 355.192 -1.73523 -0.128707 0
M  V30 3789 O 356.368 -2.01337 0.0502701 0
M  V30 3790 C 353.433 -3.44167 0.418356 0
M  V30 3791 C 352.494 -4.01635 1.51618 0
M  V30 3792 C 351.727 -5.23171 1.05487 0
M  V30 3793 O 351.95 -5.70327 -0.0914715 0
M  V30 3794 O 350.884 -5.72848 1.8474 0
M  V30 3795 H 354.71 -2.42145 1.83302 0
M  V30 3796 H 352.295 -1.15037 0.953246 0
M  V30 3797 H 354.177 -4.21112 0.155726 0
M  V30 3798 H 352.852 -3.20063 -0.48385 0
M  V30 3799 H 351.759 -3.26135 1.83268 0
M  V30 3800 H 353.092 -4.30053 2.39405 0
M  V30 3801 N 354.744 -0.972509 -1.24016 0
M  V30 3802 C 355.974 -0.653853 -1.9598 0
M  V30 3803 C 356.382 0.781801 -1.72292 0
M  V30 3804 O 355.725 1.53677 -1.00644 0
M  V30 3805 C 355.787 -0.854608 -3.49194 0
M  V30 3806 C 355.451 -2.27082 -3.96589 0
M  V30 3807 C 356.448 -3.24892 -4.05883 0
M  V30 3808 C 354.133 -2.5998 -4.29786 0
M  V30 3809 C 356.127 -4.53684 -4.47716 0
M  V30 3810 C 353.814 -3.88997 -4.71301 0
M  V30 3811 C 354.812 -4.85661 -4.80232 0
M  V30 3812 O 354.5 -6.12376 -5.20818 0
M  V30 3813 H 354.232 -0.242572 -0.630979 0
M  V30 3814 H 356.786 -1.30431 -1.58673 0
M  V30 3815 H 355.016 -0.146985 -3.86421 0
M  V30 3816 H 356.705 -0.534311 -4.02368 0
M  V30 3817 H 357.471 -3.00805 -3.80449 0
M  V30 3818 H 353.35 -1.85457 -4.22051 0
M  V30 3819 H 356.894 -5.29135 -4.54601 0
M  V30 3820 H 352.791 -4.12882 -4.96184 0
M  V30 3821 H 353.559 -6.16013 -5.38953 0
M  V30 3822 N 356.222 1.38976 -0.743202 0
M  V30 3823 C 357.152 2.33171 -0.123873 0
M  V30 3824 C 358.133 1.54336 0.71516 0
M  V30 3825 O 359.318 1.82696 0.658467 0
M  V30 3826 C 356.448 3.38474 0.777978 0
M  V30 3827 C 355.402 4.27979 0.0424758 0
M  V30 3828 C 354.728 5.2405 1.06189 0
M  V30 3829 C 356.028 5.10155 -1.1198 0
M  V30 3830 H 357.722 2.85213 -0.910709 0
M  V30 3831 H 355.268 1.37133 -0.439388 0
M  V30 3832 H 357.221 4.03328 1.22084 0
M  V30 3833 H 355.945 2.84891 1.59702 0
M  V30 3834 H 354.604 3.64616 -0.380853 0
M  V30 3835 H 354.252 4.66758 1.87472 0
M  V30 3836 H 353.952 5.84785 0.574485 0
M  V30 3837 H 355.476 5.9178 1.50428 0
M  V30 3838 H 356.89 5.68307 -0.75499 0
M  V30 3839 H 355.287 5.80073 -1.53738 0
M  V30 3840 H 356.357 4.44504 -1.93764 0
M  V30 3841 N 357.7 0.491464 1.49741 0
M  V30 3842 C 358.63 -0.28154 2.31796 0
M  V30 3843 C 359.611 -0.971473 1.3963 0
M  V30 3844 O 360.796 -0.964719 1.68543 0
M  V30 3845 C 357.926 -1.35203 3.19902 0
M  V30 3846 C 356.88 -0.782529 4.20786 0
M  V30 3847 C 356.206 -1.95283 4.97764 0
M  V30 3848 C 357.506 0.21999 5.21837 0
M  V30 3849 H 359.2 0.403355 2.96671 0
M  V30 3850 H 356.746 0.195425 1.42668 0
M  V30 3851 H 358.699 -1.90045 3.76113 0
M  V30 3852 H 357.423 -2.06598 2.52953 0
M  V30 3853 H 356.082 -0.255928 3.65706 0
M  V30 3854 H 355.73 -2.65423 4.2727 0
M  V30 3855 H 355.43 -1.57789 5.66018 0
M  V30 3856 H 356.954 -2.50577 5.56816 0
M  V30 3857 H 358.368 -0.23996 5.72798 0
M  V30 3858 H 356.765 0.51026 5.97927 0
M  V30 3859 H 357.835 1.13911 4.7133 0
M  V30 3860 N 359.178 -1.55987 0.224894 0
M  V30 3861 C 360.594 -1.59066 -0.130426 0
M  V30 3862 C 360.794 -1.24176 -1.5869 0
M  V30 3863 O 359.85 -0.978592 -2.32766 0
M  V30 3864 C 361.163 -3.00042 0.198883 0
M  V30 3865 C 362.711 -3.1268 0.141391 0
M  V30 3866 C 363.186 -4.55839 0.444422 0
M  V30 3867 N 364.677 -4.6152 0.394115 0
M  V30 3868 C 365.412 -5.70231 0.602038 0
M  V30 3869 N 364.908 -6.87291 0.871914 0
M  V30 3870 N 366.701 -5.59555 0.534245 0
M  V30 3871 H 358.852 -1.76941 1.17497 0
M  V30 3872 H 361.115 -0.822604 0.471197 0
M  V30 3873 H 360.821 -3.30234 1.2099 0
M  V30 3874 H 360.695 -3.74075 -0.484535 0
M  V30 3875 H 363.082 -2.82283 -0.860265 0
M  V30 3876 H 363.163 -2.40969 0.858335 0
M  V30 3877 H 362.807 -4.86954 1.44353 0
M  V30 3878 H 362.737 -5.2578 -0.293752 0
M  V30 3879 H 365.228 -3.77405 0.193356 0
M  V30 3880 H 365.541 -7.66058 1.01858 0
M  V30 3881 H 363.886 -6.89028 0.909145 0
M  V30 3882 H 367.077 -4.6698 0.323612 0
M  V30 3883 H 367.25 -6.44211 0.699693 0
M  V30 3884 N 360.656 0.0484629 -1.57525 0
M  V30 3885 C 361.586 1.0549 -2.08313 0
M  V30 3886 C 362.567 1.38929 -0.981463 0
M  V30 3887 O 363.752 1.48151 -1.25558 0
M  V30 3888 C 360.882 2.36162 -2.54646 0
M  V30 3889 C 359.836 2.17016 -3.68901 0
M  V30 3890 C 359.162 3.53278 -4.01371 0
M  V30 3891 C 360.462 1.57219 -4.98076 0
M  V30 3892 H 362.156 0.632195 -2.92649 0
M  V30 3893 H 359.702 0.302654 -1.40784 0
M  V30 3894 H 361.655 3.06882 -2.88793 0
M  V30 3895 H 360.379 2.80456 -1.67368 0
M  V30 3896 H 359.038 1.48733 -3.35073 0
M  V30 3897 H 358.686 3.95185 -3.11188 0
M  V30 3898 H 358.386 3.41299 -4.78318 0
M  V30 3899 H 359.91 4.25391 -4.38035 0
M  V30 3900 H 361.324 2.17832 -5.30304 0
M  V30 3901 H 359.721 1.55871 -5.79503 0
M  V30 3902 H 360.791 0.535956 -4.81929 0
M  V30 3903 N 362.134 1.5431 0.320358 0
M  V30 3904 C 363.381 1.72668 1.05792 0
M  V30 3905 C 363.709 0.502084 1.87908 0
M  V30 3906 O 362.964 -0.516149 1.88771 0
M  V30 3907 C 363.263 2.95639 2.00828 0
M  V30 3908 C 362.929 4.30265 1.34843 0
M  V30 3909 C 361.591 4.66865 1.16578 0
M  V30 3910 C 363.943 5.13801 0.875095 0
M  V30 3911 C 361.271 5.84597 0.496336 0
M  V30 3912 C 363.623 6.32219 0.219463 0
M  V30 3913 C 362.287 6.67495 0.0246915 0
M  V30 3914 H 361.557 0.631837 0.387121 0
M  V30 3915 H 364.204 1.88552 0.334735 0
M  V30 3916 H 362.509 2.74456 2.79609 0
M  V30 3917 H 364.206 3.07038 2.57932 0
M  V30 3918 H 360.796 4.01472 1.50061 0
M  V30 3919 H 364.98 4.86039 1.00398 0
M  V30 3920 H 360.236 6.10486 0.334264 0
M  V30 3921 H 364.41 6.96227 -0.155291 0
M  V30 3922 H 362.037 7.5858 -0.496065 0
M  V30 3923 N 363.613 -0.582584 1.46437 0
M  V30 3924 C 364.576 -1.67366 1.56592 0
M  V30 3925 C 365.576 -1.54575 0.443072 0
M  V30 3926 O 366.766 -1.59191 0.707381 0
M  V30 3927 C 363.898 -3.06791 1.48634 0
M  V30 3928 H 365.091 -1.5972 2.5383 0
M  V30 3929 H 362.644 -0.800432 1.34249 0
M  V30 3930 H 363.379 -3.19993 0.526763 0
M  V30 3931 H 363.164 -3.17484 2.30101 0
M  V30 3932 H 364.654 -3.86218 1.58826 0
M  V30 3933 N 365.091 -1.34144 -0.827227 0
M  V30 3934 C 366.054 -1.25264 -1.91942 0
M  V30 3935 C 367.054 -0.168866 -1.59911 0
M  V30 3936 O 368.244 -0.421198 -1.69031 0
M  V30 3937 C 365.376 -0.932952 -3.27885 0
M  V30 3938 H 366.569 -2.22357 -2.0124 0
M  V30 3939 H 364.122 -1.1837 -1.0207 0
M  V30 3940 H 364.857 0.0349917 -3.24281 0
M  V30 3941 H 364.642 -1.71682 -3.52516 0
M  V30 3942 H 366.132 -0.895874 -4.07877 0
M  V30 3943 N 366.569 1.04691 -1.17803 0
M  V30 3944 C 367.98 1.59238 -0.974689 0
M  V30 3945 C 368.331 1.90306 0.477292 0
M  V30 3946 O 367.456 1.68846 1.35352 0
M  V30 3947 C 368.051 2.89318 -1.76296 0
M  V30 3948 C 366.61 3.40506 -1.60414 0
M  V30 3949 C 365.757 2.14172 -1.76141 0
M  V30 3950 H 368.708 0.874395 -1.32439 0
M  V30 3951 H 368.729 3.5944 -1.24833 0
M  V30 3952 H 368.241 2.66675 -2.81968 0
M  V30 3953 H 366.342 3.68175 -0.572519 0
M  V30 3954 H 366.455 4.14753 -2.39827 0
M  V30 3955 H 364.819 2.25176 -1.19028 0
M  V30 3956 H 365.602 1.93992 -2.83235 0
M  V30 3957 N 368.047 0.979072 1.23499 0
M  V30 3958 C 369.272 0.664845 1.96455 0
M  V30 3959 C 369.697 -0.761287 1.72006 0
M  V30 3960 O 369.055 -1.51837 0.990713 0
M  V30 3961 C 369.103 0.959479 3.47601 0
M  V30 3962 O 368.207 0.0508168 4.12369 0
M  V30 3963 H 367.548 0.250185 0.615064 0
M  V30 3964 H 370.078 1.31231 1.5697 0
M  V30 3965 H 370.088 0.895642 3.98048 0
M  V30 3966 H 368.763 1.99876 3.64723 0
M  V30 3967 H 367.34 0.16895 3.72517 0
M  V30 3968 N 369.525 -1.3858 0.750561 0
M  V30 3969 C 370.941 -1.53759 0.427824 0
M  V30 3970 C 371.141 -1.71401 -1.05943 0
M  V30 3971 O 370.197 -1.72331 -1.84549 0
M  V30 3972 C 371.51 -2.74642 1.22443 0
M  V30 3973 C 373.058 -2.88489 1.2142 0
M  V30 3974 C 373.533 -4.12329 1.9937 0
M  V30 3975 N 375.024 -4.194 1.96616 0
M  V30 3976 C 375.759 -5.14209 2.53727 0
M  V30 3977 N 375.255 -6.14709 3.19539 0
M  V30 3978 N 377.048 -5.06537 2.43673 0
M  V30 3979 H 369.199 -1.25377 1.71447 0
M  V30 3980 H 371.462 -0.608844 0.726645 0
M  V30 3981 H 371.168 -2.68 2.27747 0
M  V30 3982 H 371.042 -3.67745 0.839273 0
M  V30 3983 H 373.429 -2.94614 0.169232 0
M  V30 3984 H 373.51 -1.96406 1.63885 0
M  V30 3985 H 373.154 -4.06966 3.03877 0
M  V30 3986 H 373.084 -5.03486 1.54302 0
M  V30 3987 H 375.575 -3.47421 1.48684 0
M  V30 3988 H 375.888 -6.8354 3.60545 0
M  V30 3989 H 374.233 -6.1505 3.23633 0
M  V30 3990 H 377.424 -4.26962 1.91889 0
M  V30 3991 H 377.597 -5.80245 2.88479 0
M  V30 3992 N 371.003 -0.499398 -1.49478 0
M  V30 3993 C 372.233 0.0424839 -2.06556 0
M  V30 3994 C 372.641 1.31514 -1.36018 0
M  V30 3995 O 371.984 1.78555 -0.431718 0
M  V30 3996 C 372.046 0.368074 -3.57611 0
M  V30 3997 C 371.71 -0.806631 -4.49825 0
M  V30 3998 C 372.707 -1.69667 -4.91436 0
M  V30 3999 C 370.392 -1.00498 -4.92144 0
M  V30 4000 C 372.386 -2.76923 -5.74101 0
M  V30 4001 C 370.073 -2.08072 -5.74586 0
M  V30 4002 C 371.071 -2.96119 -6.15469 0
M  V30 4003 O 370.759 -4.01836 -6.96264 0
M  V30 4004 H 370.491 -0.0165165 -0.675798 0
M  V30 4005 H 373.045 -0.695497 -1.93267 0
M  V30 4006 H 371.275 1.15963 -3.68903 0
M  V30 4007 H 372.964 0.848381 -3.96935 0
M  V30 4008 H 373.73 -1.55524 -4.59388 0
M  V30 4009 H 369.609 -0.329036 -4.59824 0
M  V30 4010 H 373.153 -3.45676 -6.05932 0
M  V30 4011 H 369.05 -2.22211 -6.06047 0
M  V30 4012 H 369.818 -3.9917 -7.14567 0
M  V30 4013 N 372.481 1.55866 -0.233164 0
M  V30 4014 C 373.897 1.59133 0.121988 0
M  V30 4015 C 374.097 1.25016 1.58029 0
M  V30 4016 O 373.153 0.990922 2.32243 0
M  V30 4017 C 374.466 2.99932 -0.214792 0
M  V30 4018 C 376.014 3.12601 -0.157971 0
M  V30 4019 C 376.489 4.55597 -0.46859 0
M  V30 4020 N 377.98 4.61305 -0.418585 0
M  V30 4021 C 378.715 5.69903 -0.63227 0
M  V30 4022 N 378.211 6.86819 -0.90835 0
M  V30 4023 N 380.004 5.59264 -0.563913 0
M  V30 4024 H 372.155 1.76315 -1.18434 0
M  V30 4025 H 374.418 0.820093 -0.475553 0
M  V30 4026 H 374.124 3.29588 -1.22739 0
M  V30 4027 H 373.998 3.74327 0.464691 0
M  V30 4028 H 376.385 2.82735 0.845283 0
M  V30 4029 H 376.466 2.40511 -0.871102 0
M  V30 4030 H 376.11 4.86182 -1.46934 0
M  V30 4031 H 376.04 5.25928 0.265865 0
M  V30 4032 H 378.531 3.77297 -0.213368 0
M  V30 4033 H 378.844 7.65507 -1.05919 0
M  V30 4034 H 377.189 6.88536 -0.945673 0
M  V30 4035 H 380.38 4.66802 -0.348372 0
M  V30 4036 H 380.553 6.43831 -0.733847 0
M  V30 4037 N 373.959 -0.0401083 1.57549 0
M  V30 4038 C 375.206 -0.733125 1.88763 0
M  V30 4039 C 375.534 -1.75946 0.829058 0
M  V30 4040 O 374.789 -1.94949 -0.171323 0
M  V30 4041 C 375.088 -1.44902 3.26708 0
M  V30 4042 C 374.754 -0.559707 4.47413 0
M  V30 4043 C 373.416 -0.314731 4.8017 0
M  V30 4044 C 375.768 0.0549743 5.21171 0
M  V30 4045 C 373.096 0.553886 5.8408 0
M  V30 4046 C 375.448 0.911229 6.26003 0
M  V30 4047 C 374.112 1.16577 6.57241 0
M  V30 4048 H 373.382 -0.268269 0.690733 0
M  V30 4049 H 376.029 0.00679408 1.91499 0
M  V30 4050 H 374.334 -2.26197 3.1991 0
M  V30 4051 H 376.031 -1.99058 3.48105 0
M  V30 4052 H 372.621 -0.760793 4.21794 0
M  V30 4053 H 376.805 -0.121344 4.96152 0
M  V30 4054 H 372.061 0.759518 6.06664 0
M  V30 4055 H 376.235 1.3941 6.82303 0
M  V30 4056 H 373.862 1.84058 7.37582 0
M  V30 4057 N 375.437 -1.54477 -0.31217 0
M  V30 4058 C 376.686 -1.72438 -1.04633 0
M  V30 4059 C 376.999 -0.511163 -1.88803 0
M  V30 4060 O 378.205 -0.572341 -2.65399 0
M  V30 4061 C 376.661 -3.05043 -1.9099 0
M  V30 4062 C 376.269 -4.33806 -1.11877 0
M  V30 4063 C 378.013 -3.32364 -2.64073 0
M  V30 4064 C 375.92 -5.57467 -1.97445 0
M  V30 4065 H 374.85 -0.642647 -0.394361 0
M  V30 4066 H 377.501 -1.80966 -0.303929 0
M  V30 4067 H 375.883 -2.90451 -2.69173 0
M  V30 4068 H 377.057 -4.59199 -0.383843 0
M  V30 4069 H 375.372 -4.13336 -0.504252 0
M  V30 4070 H 377.969 -4.21951 -3.28423 0
M  V30 4071 H 378.312 -2.50745 -3.32314 0
M  V30 4072 H 378.845 -3.47875 -1.92944 0
M  V30 4073 H 375.584 -6.41722 -1.33692 0
M  V30 4074 H 375.104 -5.36277 -2.6864 0
M  V30 4075 H 376.783 -5.94303 -2.5576 0
M  V30 4076 N 376.915 0.57481 -1.46744 0
M  V30 4077 C 378.331 0.898981 -1.31873 0
M  V30 4078 C 378.531 1.99313 -0.29605 0
M  V30 4079 O 377.587 2.50728 0.298621 0
M  V30 4080 C 378.9 1.30886 -2.7072 0
M  V30 4081 C 380.448 1.42127 -2.78871 0
M  V30 4082 C 380.923 1.86478 -4.18318 0
M  V30 4083 N 382.414 1.93658 -4.20774 0
M  V30 4084 C 383.149 2.29267 -5.2557 0
M  V30 4085 N 382.645 2.63612 -6.40688 0
M  V30 4086 N 384.438 2.29889 -5.1294 0
M  V30 4087 H 376.589 -0.147839 -2.11885 0
M  V30 4088 H 378.852 -0.00347013 -0.947994 0
M  V30 4089 H 378.558 0.578853 -3.46904 0
M  V30 4090 H 378.432 2.26874 -3.01343 0
M  V30 4091 H 380.819 2.14213 -2.0297 0
M  V30 4092 H 380.9 0.443705 -2.51922 0
M  V30 4093 H 380.544 1.14968 -4.94717 0
M  V30 4094 H 380.474 2.85207 -4.42679 0
M  V30 4095 H 382.965 1.69574 -3.37718 0
M  V30 4096 H 383.278 2.89759 -7.16421 0
M  V30 4097 H 381.623 2.61232 -6.44036 0
M  V30 4098 H 384.814 2.02485 -4.22039 0
M  V30 4099 H 384.987 2.57312 -5.94722 0
M  V30 4100 N 378.394 1.34581 0.820102 0
M  V30 4101 C 379.619 1.30333 1.61332 0
M  V30 4102 C 380.044 -0.119339 1.87721 0
M  V30 4103 O 379.402 -1.08197 1.45475 0
M  V30 4104 C 379.45 2.10258 2.92957 0
M  V30 4105 O 378.554 1.47404 3.85157 0
M  V30 4106 H 377.895 0.447488 0.490561 0
M  V30 4107 H 380.425 1.77425 1.01889 0
M  V30 4108 H 380.435 2.21718 3.42498 0
M  V30 4109 H 379.11 3.13693 2.73074 0
M  V30 4110 H 377.687 1.44703 3.43679 0
M  V30 4111 N 379.872 -1.04064 1.18357 0
M  V30 4112 C 381.118 -1.77528 0.980397 0
M  V30 4113 C 381.451 -1.87948 -0.48879 0
M  V30 4114 O 380.726 -1.3876 -1.36293 0
M  V30 4115 C 381.009 -3.20797 1.63588 0
M  V30 4116 C 380.862 -3.1832 3.17793 0
M  V30 4117 C 382.181 -4.18911 1.34914 0
M  V30 4118 H 379.3 -0.644443 0.357578 0
M  V30 4119 H 381.942 -1.2156 1.46024 0
M  V30 4120 H 380.092 -3.68586 1.22788 0
M  V30 4121 H 381.764 -2.78521 3.67728 0
M  V30 4122 H 380.007 -2.56351 3.49952 0
M  V30 4123 H 380.678 -4.19489 3.58794 0
M  V30 4124 H 383.154 -3.7967 1.70265 0
M  V30 4125 H 382.03 -5.17374 1.83346 0
M  V30 4126 H 382.291 -4.41262 0.272027 0
M  V30 4127 N 381.35 -0.985608 -1.22978 0
M  V30 4128 C 382.283 -0.47487 -2.23204 0
M  V30 4129 C 383.261 0.460865 -1.55932 0
M  V30 4130 O 384.445 0.388105 -1.84461 0
M  V30 4131 C 381.572 0.312427 -3.37256 0
M  V30 4132 C 380.618 -0.568219 -4.22698 0
M  V30 4133 S 381.451 -2.01919 -4.95973 0
M  V30 4134 C 382.607 -1.24118 -6.1347 0
M  V30 4135 H 382.84 -1.32419 -2.66181 0
M  V30 4136 H 380.373 -0.792005 -1.32539 0
M  V30 4137 H 382.331 0.760645 -4.03391 0
M  V30 4138 H 380.992 1.13693 -2.92801 0
M  V30 4139 H 380.185 0.0371657 -5.03986 0
M  V30 4140 H 379.787 -0.952897 -3.61657 0
M  V30 4141 H 382.079 -0.505121 -6.75614 0
M  V30 4142 H 383.022 -2.02907 -6.78406 0
M  V30 4143 H 383.43 -0.757669 -5.59392 0
M  V30 4144 N 382.828 1.3818 -0.7579 0
M  V30 4145 C 384.053 2.04827 -0.325679 0
M  V30 4146 C 384.478 1.56788 1.03919 0
M  V30 4147 O 383.836 0.721811 1.66312 0
M  V30 4148 C 383.884 3.58774 -0.362447 0
M  V30 4149 O 382.988 4.07372 0.642033 0
M  V30 4150 H 382.329 0.64833 -0.143402 0
M  V30 4151 H 384.859 1.7677 -1.03023 0
M  V30 4152 H 384.869 4.07434 -0.214844 0
M  V30 4153 H 383.544 3.93096 -1.35824 0
M  V30 4154 H 382.121 3.70068 0.458688 0
M  V30 4155 N 384.306 0.507319 1.49211 0
M  V30 4156 C 385.555 -0.0368315 2.01666 0
M  V30 4157 C 385.868 -1.37459 1.39156 0
M  V30 4158 O 387.074 -2.00579 1.82976 0
M  V30 4159 C 385.53 -0.116089 3.59713 0
M  V30 4160 C 385.138 1.2154 4.31198 0
M  V30 4161 C 386.882 -0.610268 4.2009 0
M  V30 4162 C 384.789 1.09796 5.81119 0
M  V30 4163 H 383.719 -0.0175376 0.753796 0
M  V30 4164 H 386.37 0.647691 1.71689 0
M  V30 4165 H 384.752 -0.8652 3.86433 0
M  V30 4166 H 385.926 1.9783 4.16173 0
M  V30 4167 H 384.241 1.64352 3.82593 0
M  V30 4168 H 386.838 -0.715742 5.29888 0
M  V30 4169 H 387.181 -1.61064 3.8388 0
M  V30 4170 H 387.714 0.0824916 3.97714 0
M  V30 4171 H 384.453 2.0728 6.21864 0
M  V30 4172 H 383.973 0.376058 5.9862 0
M  V30 4173 H 385.652 0.779281 6.4229 0
M  V30 4174 N 385.784 -1.5574 0.241426 0
M  V30 4175 C 387.033 -1.97986 -0.385295 0
M  V30 4176 C 387.346 -1.13267 -1.59468 0
M  V30 4177 O 388.552 -1.45501 -2.2922 0
M  V30 4178 C 387.008 -3.52275 -0.736884 0
M  V30 4179 C 386.616 -4.45726 0.450796 0
M  V30 4180 C 388.36 -4.03189 -1.3281 0
M  V30 4181 C 386.267 -5.91352 0.0756662 0
M  V30 4182 H 385.197 -0.739386 -0.147731 0
M  V30 4183 H 387.848 -1.80308 0.340779 0
M  V30 4184 H 386.23 -3.65628 -1.52094 0
M  V30 4185 H 387.404 -4.44131 1.22819 0
M  V30 4186 H 385.719 -4.05264 0.956573 0
M  V30 4187 H 388.316 -5.09505 -1.62201 0
M  V30 4188 H 388.659 -3.50212 -2.25071 0
M  V30 4189 H 389.192 -3.93141 -0.607069 0
M  V30 4190 H 385.931 -6.48354 0.965272 0
M  V30 4191 H 385.451 -5.96095 -0.665635 0
M  V30 4192 H 387.13 -6.46084 -0.344075 0
M  V30 4193 N 387.262 0.0317525 -1.57568 0
M  V30 4194 C 388.539 0.758366 -1.803 0
M  V30 4195 C 388.919 1.93718 -0.838845 0
M  V30 4196 O 388.267 2.28187 0.119571 0
M  V30 4197 C 388.477 1.19392 -3.27943 0
M  V30 4198 C 389.825 1.61094 -3.92854 0
M  V30 4199 O 390.849 1.28857 -3.32076 0
M  V30 4200 O 389.708 2.20918 -4.99858 0
M  V30 4201 H 386.802 0.366514 -0.741348 0
M  V30 4202 H 389.348 0.00873765 -1.69698 0
M  V30 4203 H 388.12 0.352275 -3.89711 0
M  V30 4204 H 387.743 2.00365 -3.43424 0
M  V30 4205 N 388.74 1.54641 0.303973 0
M  V30 4206 C 389.986 1.74038 1.04109 0
M  V30 4207 C 390.319 0.523051 1.87024 0
M  V30 4208 O 389.594 -0.479874 1.88487 0
M  V30 4209 C 389.877 3.02761 1.94955 0
M  V30 4210 C 389.73 4.34787 1.1524 0
M  V30 4211 C 391.049 3.27336 2.94175 0
M  V30 4212 H 388.168 0.63323 0.377079 0
M  V30 4213 H 390.81 1.87354 0.316001 0
M  V30 4214 H 388.96 2.9154 2.56782 0
M  V30 4215 H 390.632 4.57922 0.557236 0
M  V30 4216 H 388.875 4.31407 0.455053 0
M  V30 4217 H 389.546 5.21116 1.8205 0
M  V30 4218 H 392.022 3.38148 2.42477 0
M  V30 4219 H 390.898 4.18726 3.54908 0
M  V30 4220 H 391.159 2.45491 3.67677 0
M  V30 4221 N 390.218 -0.567019 1.47046 0
M  V30 4222 C 391.464 -1.32658 1.53394 0
M  V30 4223 C 391.797 -1.93254 0.19148 0
M  V30 4224 O 391.072 -1.77338 -0.798844 0
M  V30 4225 C 391.355 -2.44412 2.64452 0
M  V30 4226 C 391.208 -1.88749 4.08282 0
M  V30 4227 C 392.527 -3.46387 2.71485 0
M  V30 4228 H 389.646 -0.48098 0.558415 0
M  V30 4229 H 392.288 -0.635481 1.79058 0
M  V30 4230 H 390.438 -3.03363 2.427 0
M  V30 4231 H 392.11 -1.34134 4.41368 0
M  V30 4232 H 390.353 -1.19481 4.17021 0
M  V30 4233 H 391.024 -2.69491 4.81745 0
M  V30 4234 H 393.5 -2.9734 2.91081 0
M  V30 4235 H 392.376 -4.2202 3.50985 0
M  V30 4236 H 392.637 -4.04616 1.78153 0
M  V30 4237 N 391.696 -1.35014 -0.812953 0
M  V30 4238 C 392.659 -1.27292 -1.90602 0
M  V30 4239 C 393.659 -0.185817 -1.59723 0
M  V30 4240 O 394.849 -0.439102 -1.68575 0
M  V30 4241 C 391.981 -0.967676 -3.26877 0
M  V30 4242 H 393.174 -2.24479 -1.9887 0
M  V30 4243 H 390.727 -1.19446 -1.00808 0
M  V30 4244 H 391.462 0.0005954 -3.243 0
M  V30 4245 H 391.247 -1.75412 -3.50675 0
M  V30 4246 H 392.737 -0.939085 -4.06904 0
M  V30 4247 N 393.175 1.03435 -1.18907 0
M  V30 4248 C 394.424 1.76143 -0.982669 0
M  V30 4249 C 394.737 1.89416 0.487953 0
M  V30 4250 O 395.943 2.59041 0.813036 0
M  V30 4251 C 394.399 3.16722 -1.70924 0
M  V30 4252 C 394.007 3.11522 -3.21959 0
M  V30 4253 C 395.751 3.93764 -1.58588 0
M  V30 4254 C 393.658 4.46999 -3.87228 0
M  V30 4255 H 392.588 0.660292 -0.364047 0
M  V30 4256 H 395.239 1.158 -1.42347 0
M  V30 4257 H 393.621 3.775 -1.19623 0
M  V30 4258 H 394.795 2.60158 -3.80335 0
M  V30 4259 H 393.11 2.47978 -3.34508 0
M  V30 4260 H 395.707 4.93963 -2.04707 0
M  V30 4261 H 396.05 4.12794 -0.539142 0
M  V30 4262 H 396.583 3.39576 -2.07203 0
M  V30 4263 H 393.322 4.33174 -4.91976 0
M  V30 4264 H 392.842 4.98441 -3.33642 0
M  V30 4265 H 394.521 5.15898 -3.90459 0
M  V30 4266 N 394.653 0.992116 1.22453 0
M  V30 4267 C 395.586 0.486701 2.22949 0
M  V30 4268 C 396.564 -0.45259 1.56174 0
M  V30 4269 O 397.748 -0.378317 1.84665 0
M  V30 4270 C 394.875 -0.294537 3.37417 0
M  V30 4271 C 393.921 0.590628 4.22391 0
M  V30 4272 S 394.754 2.04546 4.94895 0
M  V30 4273 C 395.91 1.27369 6.12803 0
M  V30 4274 H 396.143 1.33828 2.65475 0
M  V30 4275 H 393.676 0.799023 1.32117 0
M  V30 4276 H 395.634 -0.739241 4.03789 0
M  V30 4277 H 394.295 -1.12139 2.934 0
M  V30 4278 H 393.488 -0.0104375 5.03999 0
M  V30 4279 H 393.09 0.972064 3.61147 0
M  V30 4280 H 395.382 0.540943 6.75337 0
M  V30 4281 H 396.325 2.06502 6.7732 0
M  V30 4282 H 396.733 0.787324 5.58983 0
M  V30 4283 N 396.131 -1.37776 0.765217 0
M  V30 4284 C 397.542 -1.82521 0.392819 0
M  V30 4285 C 397.893 -1.63789 -1.08017 0
M  V30 4286 O 397.018 -1.14542 -1.83601 0
M  V30 4287 C 397.613 -3.31358 0.706214 0
M  V30 4288 C 396.172 -3.74406 0.386952 0
M  V30 4289 C 395.319 -2.60394 0.953422 0
M  V30 4290 H 398.27 -1.2634 0.960412 0
M  V30 4291 H 398.291 -3.80498 -0.0114706 0
M  V30 4292 H 397.803 -3.44959 1.77833 0
M  V30 4293 H 395.904 -3.66377 -0.678112 0
M  V30 4294 H 396.017 -4.70749 0.890636 0
M  V30 4295 H 394.381 -2.51878 0.378064 0
M  V30 4296 H 395.164 -2.76791 2.03081 0
M  V30 4297 N 397.609 -0.515225 -1.4894 0
M  V30 4298 C 398.839 0.0205735 -2.0659 0
M  V30 4299 C 399.247 1.30064 -1.37405 0
M  V30 4300 O 398.59 1.78087 -0.450632 0
M  V30 4301 C 398.652 0.330124 -3.57981 0
M  V30 4302 C 398.316 -0.854295 -4.48944 0
M  V30 4303 C 399.313 -1.7487 -4.89609 0
M  V30 4304 C 396.998 -1.05712 -4.9105 0
M  V30 4305 C 398.992 -2.82996 -5.71132 0
M  V30 4306 C 396.679 -2.14154 -5.72347 0
M  V30 4307 C 397.677 -3.0263 -6.12294 0
M  V30 4308 O 397.365 -4.09198 -6.91962 0
M  V30 4309 H 397.097 -0.0236833 -0.675585 0
M  V30 4310 H 399.651 -0.715956 -1.92518 0
M  V30 4311 H 397.881 1.12044 -3.70112 0
M  V30 4312 H 399.57 0.806233 -3.97812 0
M  V30 4313 H 400.336 -1.60388 -4.57712 0
M  V30 4314 H 396.215 -0.377788 -4.59449 0
M  V30 4315 H 399.759 -3.52083 -6.02232 0
M  V30 4316 H 395.656 -2.28626 -6.03656 0
M  V30 4317 H 396.424 -4.06726 -7.10293 0
M  V30 4318 N 399.087 1.5561 -0.249682 0
M  V30 4319 C 400.317 2.03116 0.377803 0
M  V30 4320 C 400.725 1.12822 1.51881 0
M  V30 4321 O 400.068 0.13562 1.83199 0
M  V30 4322 C 400.13 3.46866 0.944693 0
M  V30 4323 C 399.794 4.56955 -0.0644259 0
M  V30 4324 C 400.791 5.12485 -0.874957 0
M  V30 4325 C 398.476 5.01936 -0.19132 0
M  V30 4326 C 400.47 6.11491 -1.79881 0
M  V30 4327 C 398.157 6.00773 -1.11868 0
M  V30 4328 C 399.155 6.5543 -1.92095 0
M  V30 4329 O 398.843 7.5234 -2.83267 0
M  V30 4330 H 398.575 0.669489 0.0935961 0
M  V30 4331 H 401.129 2.02004 -0.371966 0
M  V30 4332 H 399.359 3.45136 1.74407 0
M  V30 4333 H 401.048 3.77856 1.48255 0
M  V30 4334 H 401.814 4.78564 -0.787523 0
M  V30 4335 H 397.693 4.59055 0.423072 0
M  V30 4336 H 401.237 6.54078 -2.42543 0
M  V30 4337 H 397.134 6.34114 -1.20703 0
M  V30 4338 H 397.902 7.69966 -2.7766 0
M  V30 4339 N 400.565 -0.0233959 1.57583 0
M  V30 4340 C 401.814 -0.712133 1.8871 0
M  V30 4341 C 402.127 -1.76217 0.848944 0
M  V30 4342 O 403.333 -2.50389 1.04964 0
M  V30 4343 C 401.789 -1.3177 3.3491 0
M  V30 4344 C 401.397 -0.303715 4.46969 0
M  V30 4345 C 403.141 -1.98598 3.75179 0
M  V30 4346 C 401.048 -0.917945 5.84233 0
M  V30 4347 H 399.978 -0.269735 0.704101 0
M  V30 4348 H 402.629 0.0333114 1.8347 0
M  V30 4349 H 401.011 -2.11304 3.34913 0
M  V30 4350 H 402.185 0.465325 4.58445 0
M  V30 4351 H 400.5 0.2628 4.1557 0
M  V30 4352 H 403.097 -2.45416 4.75053 0
M  V30 4353 H 403.44 -2.80659 3.07468 0
M  V30 4354 H 403.973 -1.25831 3.77374 0
M  V30 4355 H 400.712 -0.136633 6.55358 0
M  V30 4356 H 400.232 -1.65669 5.76467 0
M  V30 4357 H 401.911 -1.4236 6.31144 0
M  V30 4358 N 402.043 -1.548 -0.295768 0
M  V30 4359 C 403.291 -1.73985 -1.02828 0
M  V30 4360 C 403.612 -0.531406 -1.87619 0
M  V30 4361 O 402.882 0.454221 -1.90561 0
M  V30 4362 H 401.462 -0.641556 -0.382642 0
M  V30 4363 H 404.124 -1.92163 -0.325489 0
M  V30 4364 H 403.22 -2.63129 -1.67838 0
M  V30 4365 N 403.521 0.559213 -1.47345 0
M  V30 4366 C 404.451 1.67622 -1.62558 0
M  V30 4367 C 405.432 1.63331 -0.475087 0
M  V30 4368 O 406.617 1.80983 -0.704182 0
M  V30 4369 C 403.747 3.0626 -1.63774 0
M  V30 4370 C 402.701 3.25397 -2.7803 0
M  V30 4371 C 402.027 4.64801 -2.64318 0
M  V30 4372 C 403.327 3.10965 -4.19641 0
M  V30 4373 H 405.021 1.55146 -2.56067 0
M  V30 4374 H 402.567 0.744961 -1.23233 0
M  V30 4375 H 404.52 3.84247 -1.73008 0
M  V30 4376 H 403.244 3.1969 -0.66825 0
M  V30 4377 H 401.903 2.49817 -2.68304 0
M  V30 4378 H 401.551 4.75028 -1.65401 0
M  V30 4379 H 401.251 4.78555 -3.40968 0
M  V30 4380 H 402.775 5.44926 -2.75478 0
M  V30 4381 H 404.189 3.78772 -4.30354 0
M  V30 4382 H 402.586 3.36229 -4.97062 0
M  V30 4383 H 403.656 2.07736 -4.38148 0
M  V30 4384 N 404.999 1.35443 0.805782 0
M  V30 4385 C 406.245 1.28952 1.56522 0
M  V30 4386 C 406.578 -0.135597 1.93726 0
M  V30 4387 O 405.853 -1.08516 1.61414 0
M  V30 4388 C 406.136 2.19678 2.85331 0
M  V30 4389 C 405.989 3.7081 2.54598 0
M  V30 4390 C 407.308 2.09495 3.8704 0
M  V30 4391 H 404.427 0.469764 0.567883 0
M  V30 4392 H 407.069 1.65851 0.927001 0
M  V30 4393 H 405.219 1.8834 3.39795 0
M  V30 4394 H 406.891 4.12593 2.06312 0
M  V30 4395 H 405.134 3.91051 1.8778 0
M  V30 4396 H 405.805 4.29679 3.46525 0
M  V30 4397 H 408.281 2.37045 3.41978 0
M  V30 4398 H 407.157 2.75173 4.74943 0
M  V30 4399 H 407.418 1.07714 4.28777 0
M  V30 4400 N 406.477 -1.02803 1.19454 0
M  V30 4401 C 407.41 -2.107 0.876396 0
M  V30 4402 C 408.388 -1.61741 -0.166897 0
M  V30 4403 O 409.572 -1.88451 -0.0430195 0
M  V30 4404 C 406.699 -3.37262 0.311758 0
M  V30 4405 C 405.745 -4.05093 1.33424 0
M  V30 4406 S 406.578 -4.50498 2.89503 0
M  V30 4407 C 407.734 -5.80277 2.34584 0
M  V30 4408 H 407.967 -2.37362 1.79016 0
M  V30 4409 H 405.5 -1.15755 1.02177 0
M  V30 4410 H 407.458 -4.10499 -0.00748752 0
M  V30 4411 H 406.119 -3.08693 -0.58032 0
M  V30 4412 H 405.312 -4.9611 0.888302 0
M  V30 4413 H 404.914 -3.3803 1.60037 0
M  V30 4414 H 407.206 -6.54873 1.73633 0
M  V30 4415 H 408.149 -6.29651 3.23952 0
M  V30 4416 H 408.557 -5.3599 1.77131 0
M  V30 4417 N 407.956 -0.998596 -1.21925 0
M  V30 4418 C 409.184 -0.696286 -1.94832 0
M  V30 4419 C 409.599 0.740032 -1.73692 0
M  V30 4420 O 408.956 1.5 -1.03953 0
M  V30 4421 C 409.007 -0.999833 -3.47398 0
M  V30 4422 O 408.728 -2.37972 -3.67833 0
M  V30 4423 C 410.229 -0.716025 -4.37479 0
M  V30 4424 H 407.449 -0.257111 -0.619786 0
M  V30 4425 H 409.993 -1.33491 -1.54921 0
M  V30 4426 H 408.148 -0.406918 -3.85257 0
M  V30 4427 H 408.562 -2.48338 -4.61983 0
M  V30 4428 H 410.036 -0.978642 -5.43256 0
M  V30 4429 H 410.513 0.349968 -4.37803 0
M  V30 4430 H 411.119 -1.29025 -4.05256 0
M  V30 4431 N 409.434 1.37368 -0.772513 0
M  V30 4432 C 410.382 2.32134 -0.147111 0
M  V30 4433 C 411.376 1.54972 0.684106 0
M  V30 4434 O 412.582 1.70363 0.581083 0
M  V30 4435 H 408.957 0.751449 -0.028786 0
M  V30 4436 H 410.928 2.82464 -0.962112 0
M  V30 4437 C 409.677 3.40226 0.71703 0
M  V30 4438 H 409 3.99706 0.0867951 0
M  V30 4439 H 410.44 4.08897 1.12159 0
M  V30 4440 C 408.899 2.80372 1.86797 0
M  V30 4441 O 409.429 2.71183 2.96349 0
M  V30 4442 N 407.635 2.37904 1.66883 0
M  V30 4443 H 407.182 2.45578 0.777759 0
M  V30 4444 H 407.14 1.98202 2.44056 0
M  V30 4445 N 410.912 0.523116 1.48665 0
M  V30 4446 C 411.86 -0.256859 2.31177 0
M  V30 4447 C 412.854 -0.94199 1.40794 0
M  V30 4448 O 414.06 -0.867157 1.57735 0
M  V30 4449 H 410.435 -0.1017 0.745091 0
M  V30 4450 H 412.406 0.458739 2.94853 0
M  V30 4451 C 411.155 -1.29503 3.22683 0
M  V30 4452 H 410.478 -0.777248 3.92172 0
M  V30 4453 H 411.918 -1.81233 3.83315 0
M  V30 4454 C 410.377 -2.32501 2.43813 0
M  V30 4455 O 410.907 -3.3881 2.15803 0
M  V30 4456 N 409.113 -2.05538 2.05432 0
M  V30 4457 H 408.66 -1.19104 2.28412 0
M  V30 4458 H 408.618 -2.74676 1.52973 0
M  V30 4459 N 412.39 -1.55475 0.257931 0
M  V30 4460 C 413.3 -2.2549 -0.647425 0
M  V30 4461 C 414.316 -1.2748 -1.18427 0
M  V30 4462 O 415.492 -1.6038 -1.2182 0
M  V30 4463 C 412.557 -2.94916 -1.82278 0
M  V30 4464 C 411.618 -4.08363 -1.32432 0
M  V30 4465 C 410.851 -4.74469 -2.44366 0
M  V30 4466 O 411.074 -4.39701 -3.63344 0
M  V30 4467 O 410.008 -5.62763 -2.13497 0
M  V30 4468 H 413.834 -3.03593 -0.0807707 0
M  V30 4469 H 411.419 -1.49377 0.0259962 0
M  V30 4470 H 413.301 -3.38606 -2.50846 0
M  V30 4471 H 411.976 -2.19744 -2.37685 0
M  V30 4472 H 410.883 -3.69166 -0.605605 0
M  V30 4473 H 412.216 -4.85385 -0.816211 0
M  V30 4474 N 413.868 0.0150385 -1.57593 0
M  V30 4475 C 415.145 0.7392 -1.81094 0
M  V30 4476 C 415.525 1.92817 -0.859344 0
M  V30 4477 O 414.873 2.28301 0.095362 0
M  V30 4478 C 415.083 1.15907 -3.29191 0
M  V30 4479 C 416.431 1.56918 -3.9454 0
M  V30 4480 O 417.455 1.25328 -3.33424 0
M  V30 4481 O 416.314 2.15604 -5.02173 0
M  V30 4482 H 413.408 0.358631 -0.745193 0
M  V30 4483 H 415.954 -0.00926156 -1.69697 0
M  V30 4484 H 414.726 0.310921 -3.90063 0
M  V30 4485 H 414.349 1.96711 -3.45529 0
M  V30 4486 N 415.346 1.54954 0.287554 0
M  V30 4487 C 416.592 1.75132 1.02257 0
M  V30 4488 C 416.925 0.542858 1.86458 0
M  V30 4489 O 416.2 -0.459856 1.88986 0
M  V30 4490 C 416.483 3.04812 1.91733 0
M  V30 4491 C 416.336 4.35985 1.10622 0
M  V30 4492 C 417.655 3.30438 2.90687 0
M  V30 4493 H 414.774 0.637194 0.370341 0
M  V30 4494 H 417.416 1.87678 0.296111 0
M  V30 4495 H 415.566 2.94247 2.53675 0
M  V30 4496 H 417.238 4.58487 0.508636 0
M  V30 4497 H 415.481 4.31865 0.409271 0
M  V30 4498 H 416.152 5.23017 1.76513 0
M  V30 4499 H 418.628 3.40701 2.38877 0
M  V30 4500 H 417.504 4.22467 3.50447 0
M  V30 4501 H 417.765 2.49377 3.65053 0
M  V30 4502 N 416.824 -0.551391 1.4764 0
M  V30 4503 C 418.049 -1.33837 1.58437 0
M  V30 4504 C 418.474 -1.866 0.237063 0
M  V30 4505 O 417.832 -1.6328 -0.787994 0
M  V30 4506 C 417.88 -2.48014 2.61766 0
M  V30 4507 O 416.984 -3.50419 2.1744 0
M  V30 4508 H 416.325 -0.397299 0.532024 0
M  V30 4509 H 418.855 -0.665759 1.93465 0
M  V30 4510 H 418.865 -2.94503 2.82369 0
M  V30 4511 H 417.54 -2.08969 3.5959 0
M  V30 4512 H 416.117 -3.10196 2.06961 0
M  V30 4513 N 418.302 -1.35869 -0.798587 0
M  V30 4514 C 419.55 -1.29332 -1.55298 0
M  V30 4515 C 419.871 0.129729 -1.94568 0
M  V30 4516 O 419.141 1.06796 -1.6423 0
M  V30 4517 H 417.721 -0.475737 -0.57592 0
M  V30 4518 H 420.383 -1.70062 -0.952093 0
M  V30 4519 H 419.479 -1.91458 -2.46476 0
M  V30 4520 N 419.78 1.02168 -1.19998 0
M  V30 4521 C 420.743 2.08765 -0.94604 0
M  V30 4522 C 421.743 1.60618 0.0763846 0
M  V30 4523 O 422.933 1.73472 -0.159135 0
M  V30 4524 C 420.065 3.38262 -0.423255 0
M  V30 4525 H 421.258 2.32726 -1.89153 0
M  V30 4526 H 418.811 1.1889 -1.01464 0
M  V30 4527 H 419.546 3.19974 0.527938 0
M  V30 4528 H 419.331 3.74532 -1.16053 0
M  V30 4529 H 420.821 4.16759 -0.264911 0
M  V30 4530 N 421.258 1.00505 1.21394 0
M  V30 4531 C 422.505 0.687774 1.90462 0
M  V30 4532 C 422.833 -0.78147 1.7811 0
M  V30 4533 O 422.088 -1.58208 1.1519 0
M  V30 4534 C 422.387 1.0546 3.41486 0
M  V30 4535 C 422.053 2.51812 3.74034 0
M  V30 4536 C 420.715 2.91804 3.82628 0
M  V30 4537 C 423.067 3.46614 3.8924 0
M  V30 4538 C 420.395 4.2556 4.03876 0
M  V30 4539 C 422.747 4.80044 4.11995 0
M  V30 4540 C 421.411 5.19759 4.18816 0
M  V30 4541 H 420.681 0.251674 0.696951 0
M  V30 4542 H 423.328 1.26349 1.43903 0
M  V30 4543 H 421.633 0.397133 3.89782 0
M  V30 4544 H 423.33 0.786976 3.93202 0
M  V30 4545 H 419.92 2.1982 3.67936 0
M  V30 4546 H 424.104 3.16883 3.81967 0
M  V30 4547 H 419.36 4.55901 4.07387 0
M  V30 4548 H 423.534 5.53439 4.22704 0
M  V30 4549 H 421.161 6.23418 4.35033 0
M  V30 4550 N 422.737 -1.36956 0.779787 0
M  V30 4551 C 423.983 -1.99787 0.348281 0
M  V30 4552 C 424.316 -1.61756 -1.07465 0
M  V30 4553 O 423.591 -0.867639 -1.74075 0
M  V30 4554 C 423.874 -3.56597 0.50104 0
M  V30 4555 C 423.727 -4.04513 1.96697 0
M  V30 4556 C 425.046 -4.40008 -0.0898097 0
M  V30 4557 H 422.165 -0.725796 0.128022 0
M  V30 4558 H 424.807 -1.62514 0.984331 0
M  V30 4559 H 422.957 -3.88479 -0.0404347 0
M  V30 4560 H 424.629 -3.83161 2.56876 0
M  V30 4561 H 422.872 -3.56408 2.47297 0
M  V30 4562 H 423.543 -5.1352 2.02486 0
M  V30 4563 H 426.019 -4.14431 0.372293 0
M  V30 4564 H 424.895 -5.4888 0.0471605 0
M  V30 4565 H 425.156 -4.26035 -1.18096 0
M  V30 4566 N 424.215 -0.530993 -1.48385 0
M  V30 4567 C 425.443 -0.00134122 -2.069 0
M  V30 4568 C 425.858 1.2805 -1.3874 0
M  V30 4569 O 425.215 1.76204 -0.475244 0
M  V30 4570 C 425.266 0.225256 -3.60798 0
M  V30 4571 O 424.987 -1.0058 -4.26398 0
M  V30 4572 C 426.488 0.795172 -4.3611 0
M  V30 4573 H 423.708 -0.0339704 -0.67014 0
M  V30 4574 H 426.252 -0.736926 -1.90761 0
M  V30 4575 H 424.407 0.910891 -3.76539 0
M  V30 4576 H 424.821 -0.787165 -5.1856 0
M  V30 4577 H 426.295 0.903143 -5.44562 0
M  V30 4578 H 426.772 1.80031 -4.00606 0
M  V30 4579 H 427.378 0.146069 -4.25049 0
M  V30 4580 N 425.693 1.55336 -0.266172 0
M  V30 4581 C 426.623 2.25146 0.618981 0
M  V30 4582 C 427.604 1.23845 1.16604 0
M  V30 4583 O 428.789 1.52544 1.20183 0
M  V30 4584 C 425.919 2.96572 1.80728 0
M  V30 4585 C 424.873 4.04726 1.39215 0
M  V30 4586 C 424.199 4.63678 2.66283 0
M  V30 4587 C 425.499 5.19407 0.548942 0
M  V30 4588 H 427.193 2.99377 0.0368116 0
M  V30 4589 H 424.739 1.43991 0.0162651 0
M  V30 4590 H 426.692 3.44116 2.43232 0
M  V30 4591 H 425.416 2.19861 2.41514 0
M  V30 4592 H 424.075 3.57979 0.790351 0
M  V30 4593 H 423.723 3.83646 3.25308 0
M  V30 4594 H 423.423 5.367 2.39222 0
M  V30 4595 H 424.947 5.13967 3.29651 0
M  V30 4596 H 426.361 5.63059 1.07876 0
M  V30 4597 H 424.758 5.98936 0.373593 0
M  V30 4598 H 425.828 4.8295 -0.434394 0
M  V30 4599 N 427.171 -0.0066808 1.57599 0
M  V30 4600 C 428.587 -0.36267 1.55425 0
M  V30 4601 C 428.787 -1.75209 0.995187 0
M  V30 4602 O 427.843 -2.44616 0.626058 0
M  V30 4603 C 429.156 -0.244017 2.99708 0
M  V30 4604 C 430.704 -0.319451 3.11366 0
M  V30 4605 C 431.179 -0.229998 4.57422 0
M  V30 4606 N 432.67 -0.288105 4.62303 0
M  V30 4607 C 433.405 -0.242127 5.72889 0
M  V30 4608 N 432.901 -0.147133 6.92644 0
M  V30 4609 N 434.694 -0.293502 5.61333 0
M  V30 4610 H 426.845 0.902314 1.92281 0
M  V30 4611 H 429.108 0.34525 0.882896 0
M  V30 4612 H 428.814 0.711678 3.44424 0
M  V30 4613 H 428.688 -1.02877 3.629 0
M  V30 4614 H 431.075 -1.26559 2.66584 0
M  V30 4615 H 431.156 0.495055 2.50964 0
M  V30 4616 H 430.8 0.712566 5.02877 0
M  V30 4617 H 430.73 -1.0629 5.15761 0
M  V30 4618 H 433.221 -0.363126 3.76151 0
M  V30 4619 H 433.534 -0.117763 7.7271 0
M  V30 4620 H 431.879 -0.112857 6.94908 0
M  V30 4621 H 435.07 -0.365864 4.66668 0
M  V30 4622 H 435.243 -0.254204 6.47501 0
M  V30 4623 N 428.649 -1.55105 -0.279332 0
M  V30 4624 C 429.895 -1.75672 -1.01327 0
M  V30 4625 C 430.228 -0.552739 -1.86168 0
M  V30 4626 O 429.503 0.449827 -1.89227 0
M  V30 4627 C 429.786 -3.05825 -1.90114 0
M  V30 4628 C 429.639 -4.36565 -1.08309 0
M  V30 4629 C 430.958 -3.31975 -2.8893 0
M  V30 4630 H 428.077 -0.639149 -0.366957 0
M  V30 4631 H 430.719 -1.87833 -0.286154 0
M  V30 4632 H 428.869 -2.95588 -2.52111 0
M  V30 4633 H 430.541 -4.58751 -0.484314 0
M  V30 4634 H 428.784 -4.32076 -0.386362 0
M  V30 4635 H 429.455 -5.23946 -1.73737 0
M  V30 4636 H 431.931 -3.41963 -2.37067 0
M  V30 4637 H 430.807 -4.2432 -3.48201 0
M  V30 4638 H 431.068 -2.51309 -3.63725 0
M  V30 4639 N 430.127 0.543554 -1.4793 0
M  V30 4640 C 431.374 1.30008 -1.55255 0
M  V30 4641 C 431.702 1.93245 -0.220612 0
M  V30 4642 O 430.957 1.79141 0.787843 0
M  V30 4643 C 431.256 2.42078 -2.62932 0
M  V30 4644 C 430.922 1.96583 -4.0579 0
M  V30 4645 C 429.584 1.83893 -4.44676 0
M  V30 4646 C 431.936 1.62034 -4.95373 0
M  V30 4647 C 429.264 1.34969 -5.70964 0
M  V30 4648 C 431.616 1.14577 -6.22137 0
M  V30 4649 C 430.28 1.00493 -6.59892 0
M  V30 4650 H 429.55 0.475735 -0.568117 0
M  V30 4651 H 432.197 0.608075 -1.81589 0
M  V30 4652 H 430.502 3.16892 -2.30406 0
M  V30 4653 H 432.199 3.00236 -2.65818 0
M  V30 4654 H 428.789 2.07407 -3.75074 0
M  V30 4655 H 432.973 1.70705 -4.66019 0
M  V30 4656 H 428.229 1.2274 -5.98953 0
M  V30 4657 H 432.403 0.869109 -6.90955 0
M  V30 4658 H 430.03 0.623624 -7.57638 0
M  V30 4659 N 431.605 1.3629 0.791371 0
M  V30 4660 C 433.021 1.16661 1.08914 0
M  V30 4661 C 433.221 -0.0106266 2.01497 0
M  V30 4662 O 432.277 -0.676596 2.43266 0
M  V30 4663 C 433.59 2.47656 1.70549 0
M  V30 4664 C 435.138 2.54002 1.82899 0
M  V30 4665 C 435.613 3.85078 2.47949 0
M  V30 4666 N 437.104 3.86413 2.5542 0
M  V30 4667 C 437.839 4.84572 3.06557 0
M  V30 4668 N 437.335 5.93124 3.58016 0
M  V30 4669 N 439.128 4.71994 3.05251 0
M  V30 4670 H 431.279 2.11668 0.176238 0
M  V30 4671 H 433.542 0.937486 0.140796 0
M  V30 4672 H 433.248 3.34059 1.09989 0
M  V30 4673 H 433.122 2.63319 2.70079 0
M  V30 4674 H 435.509 1.68018 2.42598 0
M  V30 4675 H 435.59 2.42239 0.821808 0
M  V30 4676 H 435.234 4.71467 1.88895 0
M  V30 4677 H 435.164 3.94135 3.49235 0
M  V30 4678 H 437.655 3.07988 2.18979 0
M  V30 4679 H 437.968 6.63999 3.95381 0
M  V30 4680 H 436.313 5.96796 3.56173 0
M  V30 4681 H 439.504 3.86321 2.64336 0
M  V30 4682 H 439.677 5.48653 3.44796 0
M  V30 4683 N 433.083 -1.0153 1.20538 0
M  V30 4684 C 434.329 -1.75408 1.01783 0
M  V30 4685 C 434.662 -1.88943 -0.448814 0
M  V30 4686 O 433.937 -1.4162 -1.33319 0
M  V30 4687 C 434.22 -3.17255 1.70356 0
M  V30 4688 C 434.073 -3.11508 3.24473 0
M  V30 4689 C 435.392 -4.15955 1.43769 0
M  V30 4690 H 432.511 -0.636713 0.371167 0
M  V30 4691 H 435.153 -1.18436 1.4857 0
M  V30 4692 H 433.303 -3.65898 1.30578 0
M  V30 4693 H 434.975 -2.70658 3.73553 0
M  V30 4694 H 433.218 -2.4887 3.55311 0
M  V30 4695 H 433.889 -4.11784 3.67611 0
M  V30 4696 H 436.365 -3.75973 1.7828 0
M  V30 4697 H 435.241 -5.13368 1.94279 0
M  V30 4698 H 435.502 -4.40586 0.365564 0
M  V30 4699 N 434.561 -1.01147 -1.20859 0
M  V30 4700 C 435.808 -0.697865 -1.90095 0
M  V30 4701 C 436.136 0.772014 -1.78522 0
M  V30 4702 O 435.391 1.57595 -1.16027 0
M  V30 4703 C 435.69 -1.0727 -3.40922 0
M  V30 4704 C 435.356 -2.53792 -3.72693 0
M  V30 4705 C 434.018 -2.93829 -3.81075 0
M  V30 4706 C 436.37 -3.48674 -3.87397 0
M  V30 4707 C 433.698 -4.27696 -4.01613 0
M  V30 4708 C 436.05 -4.82223 -4.09444 0
M  V30 4709 C 434.714 -5.21973 -4.16054 0
M  V30 4710 H 433.984 -0.255367 -0.695607 0
M  V30 4711 H 436.631 -1.27111 -1.43231 0
M  V30 4712 H 434.936 -0.417799 -3.89566 0
M  V30 4713 H 436.633 -0.807818 -3.92779 0
M  V30 4714 H 433.223 -2.21768 -3.66765 0
M  V30 4715 H 437.407 -3.18904 -3.80281 0
M  V30 4716 H 432.663 -4.58055 -4.04964 0
M  V30 4717 H 436.837 -5.55672 -4.19763 0
M  V30 4718 H 434.464 -6.25717 -4.31721 0
M  V30 4719 N 436.039 1.36541 -0.78704 0
M  V30 4720 C 437.455 1.52571 -0.46844 0
M  V30 4721 C 437.655 1.7415 1.01361 0
M  V30 4722 O 436.711 1.77163 1.79915 0
M  V30 4723 C 438.024 2.71299 -1.29682 0
M  V30 4724 C 439.572 2.85169 -1.29027 0
M  V30 4725 C 440.047 4.06898 -2.10233 0
M  V30 4726 N 441.538 4.1404 -2.07666 0
M  V30 4727 C 442.273 5.07301 -2.67271 0
M  V30 4728 N 441.769 6.06021 -3.35724 0
M  V30 4729 N 443.562 4.99898 -2.57018 0
M  V30 4730 H 435.713 1.20788 -1.74711 0
M  V30 4731 H 437.976 0.589364 -0.742532 0
M  V30 4732 H 437.682 2.61868 -2.34773 0
M  V30 4733 H 437.556 3.6539 -0.936479 0
M  V30 4734 H 439.943 2.94062 -0.247284 0
M  V30 4735 H 440.024 1.91992 -1.69035 0
M  V30 4736 H 439.668 3.98766 -3.1456 0
M  V30 4737 H 439.598 4.99218 -1.67597 0
M  V30 4738 H 442.089 3.43357 -1.57843 0
M  V30 4739 H 442.402 6.73741 -3.78541 0
M  V30 4740 H 440.747 6.06253 -3.39826 0
M  V30 4741 H 443.938 4.21724 -2.03142 0
M  V30 4742 H 444.111 5.72392 -3.03761 0
M  V30 4743 N 437.518 0.538854 1.48102 0
M  V30 4744 C 438.767 0.0059532 2.01699 0
M  V30 4745 C 439.08 -1.34476 1.42041 0
M  V30 4746 O 440.286 -1.96653 1.87189 0
M  V30 4747 C 438.742 -0.0397627 3.59878 0
M  V30 4748 C 438.35 1.30659 4.28523 0
M  V30 4749 C 440.094 -0.521024 4.2129 0
M  V30 4750 C 438.001 1.22098 5.78659 0
M  V30 4751 H 436.931 -0.00154456 0.753998 0
M  V30 4752 H 439.582 0.683963 1.70277 0
M  V30 4753 H 437.964 -0.783037 3.88181 0
M  V30 4754 H 439.138 2.06613 4.11883 0
M  V30 4755 H 437.453 1.7243 3.79021 0
M  V30 4756 H 440.05 -0.603184 5.31287 0
M  V30 4757 H 440.393 -1.52885 3.8721 0
M  V30 4758 H 440.926 0.166834 3.9745 0
M  V30 4759 H 437.665 2.20424 6.17328 0
M  V30 4760 H 437.185 0.50295 5.97688 0
M  V30 4761 H 438.864 0.915345 6.40492 0
M  V30 4762 N 438.996 -1.55193 0.274407 0
M  V30 4763 C 440.243 -1.99581 -0.342579 0
M  V30 4764 C 440.571 -1.1628 -1.55914 0
M  V30 4765 O 439.826 -0.22029 -1.94456 0
M  V30 4766 C 440.125 -3.49019 -0.769458 0
M  V30 4767 C 439.791 -4.49598 0.342389 0
M  V30 4768 C 438.453 -4.76821 0.647686 0
M  V30 4769 C 440.805 -5.0964 1.09163 0
M  V30 4770 C 438.133 -5.61354 1.70581 0
M  V30 4771 C 440.485 -5.95323 2.13948 0
M  V30 4772 C 439.149 -6.20867 2.45113 0
M  V30 4773 H 438.419 -0.730319 -0.125358 0
M  V30 4774 H 441.066 -1.87529 0.387971 0
M  V30 4775 H 439.371 -3.58544 -1.57967 0
M  V30 4776 H 441.068 -3.8077 -1.25757 0
M  V30 4777 H 437.658 -4.28496 0.094318 0
M  V30 4778 H 441.842 -4.88632 0.869024 0
M  V30 4779 H 437.098 -5.79392 1.9523 0
M  V30 4780 H 441.272 -6.40881 2.72478 0
M  V30 4781 H 438.899 -6.86162 3.27239 0
M  V30 4782 N 440.474 -0.00167713 -1.576 0
M  V30 4783 C 441.421 0.989195 -2.08527 0
M  V30 4784 C 442.391 1.34031 -0.981065 0
M  V30 4785 O 443.576 1.43839 -1.2536 0
M  V30 4786 C 440.716 2.27537 -2.59463 0
M  V30 4787 C 439.829 1.98314 -3.83791 0
M  V30 4788 C 438.964 3.21025 -4.23222 0
M  V30 4789 C 438.003 2.87495 -5.40382 0
M  V30 4790 N 437.14 4.02749 -5.75098 0
M  V30 4791 H 441.98 0.547973 -2.92919 0
M  V30 4792 H 439.517 0.258917 -1.44803 0
M  V30 4793 H 441.475 3.02729 -2.87073 0
M  V30 4794 H 440.105 2.69325 -1.77943 0
M  V30 4795 H 439.157 1.13482 -3.63078 0
M  V30 4796 H 440.469 1.69601 -4.69081 0
M  V30 4797 H 439.623 4.04561 -4.52123 0
M  V30 4798 H 438.362 3.52877 -3.36644 0
M  V30 4799 H 437.367 2.02367 -5.11202 0
M  V30 4800 H 438.592 2.56889 -6.28637 0
M  V30 4801 H 436.538 4.34494 -4.91478 0
M  V30 4802 H 436.455 3.77566 -6.54966 0
M  V30 4803 H 437.723 4.87068 -6.08592 0
M  V30 4804 N 441.952 1.55251 0.271103 0
M  V30 4805 C 443.199 1.75946 1.00245 0
M  V30 4806 C 443.527 0.561611 1.86215 0
M  V30 4807 O 442.782 -0.455832 1.90317 0
M  V30 4808 C 443.081 3.01879 1.91321 0
M  V30 4809 C 442.747 4.34337 1.21086 0
M  V30 4810 C 441.409 4.70338 1.01666 0
M  V30 4811 C 443.761 5.16325 0.71119 0
M  V30 4812 C 441.089 5.8588 0.310099 0
M  V30 4813 C 443.441 6.32597 0.0182157 0
M  V30 4814 C 442.105 6.67236 -0.18768 0
M  V30 4815 H 441.375 0.643833 0.366824 0
M  V30 4816 H 444.022 1.89521 0.27458 0
M  V30 4817 H 442.327 2.83212 2.70736 0
M  V30 4818 H 444.024 3.15088 2.48033 0
M  V30 4819 H 440.614 4.06043 1.37213 0
M  V30 4820 H 444.798 4.88987 0.848844 0
M  V30 4821 H 440.054 6.1124 0.139873 0
M  V30 4822 H 444.228 6.9538 -0.376711 0
M  V30 4823 H 441.855 7.56618 -0.73715 0
M  V30 4824 N 443.43 -0.535701 1.48216 0
M  V30 4825 C 444.655 -1.32149 1.59848 0
M  V30 4826 C 445.08 -1.86338 0.256842 0
M  V30 4827 O 444.438 -1.64107 -0.770632 0
M  V30 4828 C 444.486 -2.45224 2.64381 0
M  V30 4829 O 443.59 -3.48093 2.21144 0
M  V30 4830 H 442.931 -0.391634 0.536208 0
M  V30 4831 H 445.461 -0.645202 1.94161 0
M  V30 4832 H 445.471 -2.91491 2.85476 0
M  V30 4833 H 444.146 -2.05143 3.61786 0
M  V30 4834 H 442.723 -3.07984 2.10239 0
M  V30 4835 N 444.908 -1.36708 -0.784132 0
M  V30 4836 C 446.324 -1.17237 -1.08294 0
M  V30 4837 C 446.524 -5.93947e-05 -2.015 0
M  V30 4838 O 445.58 0.663686 -2.43622 0
M  V30 4839 C 446.893 -2.48557 -1.69233 0
M  V30 4840 C 448.441 -2.54968 -1.8155 0
M  V30 4841 C 448.916 -3.86388 -2.45904 0
M  V30 4842 N 450.407 -3.87762 -2.53367 0
M  V30 4843 C 451.142 -4.86191 -3.03983 0
M  V30 4844 N 450.638 -5.95015 -3.54866 0
M  V30 4845 N 452.431 -4.73606 -3.02743 0
M  V30 4846 H 444.582 -2.11758 -0.16501 0
M  V30 4847 H 446.845 -0.93822 -0.135822 0
M  V30 4848 H 446.551 -3.34638 -1.08215 0
M  V30 4849 H 446.425 -2.64748 -2.68679 0
M  V30 4850 H 448.812 -1.69302 -2.41704 0
M  V30 4851 H 448.893 -2.42672 -0.80895 0
M  V30 4852 H 448.537 -4.72462 -1.86392 0
M  V30 4853 H 448.467 -3.95982 -3.4714 0
M  V30 4854 H 450.958 -3.09145 -2.17343 0
M  V30 4855 H 451.271 -6.66086 -3.91854 0
M  V30 4856 H 449.616 -5.98676 -3.53003 0
M  V30 4857 H 452.807 -3.87717 -2.62284 0
M  V30 4858 H 452.98 -5.50473 -3.41881 0
M  V30 4859 N 446.386 1.0089 -1.21074 0
M  V30 4860 C 447.336 2.0799 -0.934034 0
M  V30 4861 C 448.32 1.60529 0.10919 0
M  V30 4862 O 449.512 1.76722 -0.0992198 0
M  V30 4863 C 446.641 3.39693 -0.496334 0
M  V30 4864 C 445.727 3.93833 -1.57341 0
M  V30 4865 N 446.118 4.21388 -2.7976 0
M  V30 4866 C 444.416 4.22067 -1.44137 0
M  V30 4867 C 445.117 4.65156 -3.49292 0
M  V30 4868 N 444.093 4.67895 -2.76722 0
M  V30 4869 H 447.895 2.27213 -1.86417 0
M  V30 4870 H 445.409 1.18927 -1.10589 0
M  V30 4871 H 447.406 4.15962 -0.279471 0
M  V30 4872 H 446.066 3.21879 0.427084 0
M  V30 4873 H 447.077 4.10061 -3.1634 0
M  V30 4874 H 443.754 4.1341 -0.582947 0
M  V30 4875 H 445.144 4.95231 -4.54088 0
M  V30 4876 N 447.864 1.01787 1.20321 0
M  V30 4877 C 449.089 0.727009 1.9424 0
M  V30 4878 C 449.514 -0.706179 1.74341 0
M  V30 4879 O 448.872 -1.48609 1.03852 0
M  V30 4880 C 448.92 1.06958 3.44372 0
M  V30 4881 O 448.024 0.181983 4.11998 0
M  V30 4882 H 447.365 0.269626 0.606793 0
M  V30 4883 H 449.895 1.36158 1.52716 0
M  V30 4884 H 449.905 1.02182 3.94997 0
M  V30 4885 H 448.58 2.11378 3.58179 0
M  V30 4886 H 447.157 0.287378 3.71791 0
M  V30 4887 N 449.342 -1.36122 0.79427 0
M  V30 4888 C 450.274 -2.28683 0.153903 0
M  V30 4889 C 451.287 -1.49707 -0.639669 0
M  V30 4890 O 452.476 -1.7209 -0.474054 0
M  V30 4891 C 449.576 -3.29202 -0.804921 0
M  V30 4892 C 448.749 -4.37358 -0.060366 0
M  V30 4893 C 447.808 -5.17811 -0.935849 0
M  V30 4894 O 446.834 -5.67853 -0.391309 0
M  V30 4895 N 448.036 -5.34721 -2.25951 0
M  V30 4896 H 450.801 -2.84278 0.949008 0
M  V30 4897 H 448.362 -1.4834 0.648611 0
M  V30 4898 H 450.354 -3.79914 -1.39455 0
M  V30 4899 H 448.924 -2.74212 -1.50088 0
M  V30 4900 H 448.144 -3.87746 0.710382 0
M  V30 4901 H 449.432 -5.06777 0.45324 0
M  V30 4902 H 448.83 -4.95687 -2.72601 0
M  V30 4903 H 447.387 -5.88657 -2.79867 0
M  V30 4904 N 450.82 -0.546701 -1.47814 0
M  V30 4905 C 452.068 -0.0187037 -2.02091 0
M  V30 4906 C 452.389 1.33168 -1.42447 0
M  V30 4907 O 451.659 1.86619 -0.595839 0
M  V30 4908 H 450.239 -0.00392531 -0.74699 0
M  V30 4909 H 452.901 -0.714327 -1.81338 0
M  V30 4910 H 451.997 0.0772219 -3.12004 0
M  V30 4911 N 452.299 1.55045 -0.282633 0
M  V30 4912 C 453.229 2.2579 0.595066 0
M  V30 4913 C 454.21 1.25074 1.15284 0
M  V30 4914 O 455.395 1.5381 1.18559 0
M  V30 4915 C 452.525 2.98472 1.77572 0
M  V30 4916 C 451.479 4.0618 1.34914 0
M  V30 4917 C 450.805 4.66477 2.6135 0
M  V30 4918 C 452.105 5.1996 0.493821 0
M  V30 4919 H 453.799 2.994 0.00505653 0
M  V30 4920 H 451.345 1.44 0.000992001 0
M  V30 4921 H 453.298 3.46677 2.39568 0
M  V30 4922 H 452.022 2.2241 2.39168 0
M  V30 4923 H 450.681 3.58797 0.752338 0
M  V30 4924 H 450.329 3.87074 3.2122 0
M  V30 4925 H 450.029 5.39207 2.33516 0
M  V30 4926 H 451.553 5.17435 3.24181 0
M  V30 4927 H 452.967 5.64172 1.01898 0
M  V30 4928 H 451.364 5.99299 0.310047 0
M  V30 4929 H 452.434 4.82462 -0.485593 0
M  V30 4930 N 453.777 0.010035 1.57597 0
M  V30 4931 C 455.193 -0.346164 1.55801 0
M  V30 4932 C 455.393 -1.74144 1.01371 0
M  V30 4933 O 454.449 -2.43938 0.651968 0
M  V30 4934 C 455.762 -0.212216 2.9995 0
M  V30 4935 C 457.31 -0.286409 3.11687 0
M  V30 4936 C 457.785 -0.18147 4.5764 0
M  V30 4937 N 459.276 -0.239056 4.62583 0
M  V30 4938 C 460.011 -0.181351 5.73113 0
M  V30 4939 N 459.507 -0.073661 6.92761 0
M  V30 4940 N 461.3 -0.233949 5.61613 0
M  V30 4941 H 453.451 0.922657 1.91313 0
M  V30 4942 H 455.714 0.354595 0.879185 0
M  V30 4943 H 455.42 0.748169 3.4365 0
M  V30 4944 H 455.294 -0.990224 3.6397 0
M  V30 4945 H 457.681 -1.23724 2.67911 0
M  V30 4946 H 457.762 0.521645 2.50425 0
M  V30 4947 H 457.406 0.765863 5.02093 0
M  V30 4948 H 457.336 -1.00814 5.1686 0
M  V30 4949 H 459.827 -0.32321 3.76515 0
M  V30 4950 H 460.14 -0.0358003 7.72792 0
M  V30 4951 H 458.485 -0.0391461 6.94989 0
M  V30 4952 H 461.676 -0.316347 4.6703 0
M  V30 4953 H 461.849 -0.185514 6.47734 0
M  V30 4954 N 455.255 -1.55392 -0.262866 0
M  V30 4955 C 456.504 -1.75679 -0.990943 0
M  V30 4956 C 456.817 -0.57097 -1.87081 0
M  V30 4957 O 458.023 -0.656486 -2.63444 0
M  V30 4958 C 456.479 -3.10964 -1.81188 0
M  V30 4959 C 456.087 -4.37146 -0.980188 0
M  V30 4960 C 457.831 -3.40597 -2.53365 0
M  V30 4961 C 455.738 -5.63466 -1.7961 0
M  V30 4962 H 454.668 -0.654868 -0.373716 0
M  V30 4963 H 457.319 -1.81841 -0.246203 0
M  V30 4964 H 455.701 -2.98867 -2.59797 0
M  V30 4965 H 456.875 -4.60187 -0.237558 0
M  V30 4966 H 455.19 -4.14731 -0.372497 0
M  V30 4967 H 457.787 -4.32186 -3.14833 0
M  V30 4968 H 458.13 -2.6119 -3.24169 0
M  V30 4969 H 458.663 -3.53838 -1.81779 0
M  V30 4970 H 455.402 -6.4565 -1.13209 0
M  V30 4971 H 454.922 -5.44552 -2.51443 0
M  V30 4972 H 456.601 -6.02139 -2.36723 0
M  V30 4973 N 456.733 0.527833 -1.48498 0
M  V30 4974 C 457.663 1.64136 -1.66077 0
M  V30 4975 C 458.644 1.62286 -0.509625 0
M  V30 4976 O 459.829 1.79449 -0.742413 0
M  V30 4977 C 456.959 3.02717 -1.70234 0
M  V30 4978 C 455.913 3.19426 -2.8487 0
M  V30 4979 C 455.239 4.5909 -2.74118 0
M  V30 4980 C 456.539 3.01993 -4.26142 0
M  V30 4981 H 458.233 1.4968 -2.593 0
M  V30 4982 H 455.779 0.718654 -1.24785 0
M  V30 4983 H 457.732 3.80491 -1.8112 0
M  V30 4984 H 456.456 3.18201 -0.735911 0
M  V30 4985 H 455.115 2.4407 -2.73542 0
M  V30 4986 H 454.763 4.71413 -1.7544 0
M  V30 4987 H 454.463 4.71214 -3.51042 0
M  V30 4988 H 455.987 5.3896 -2.86974 0
M  V30 4989 H 457.401 3.69558 -4.38292 0
M  V30 4990 H 455.798 3.2561 -5.04082 0
M  V30 4991 H 456.868 1.98396 -4.42456 0
M  V30 4992 N 458.211 1.37122 0.776871 0
M  V30 4993 C 459.459 1.31787 1.53221 0
M  V30 4994 C 459.78 -0.0987589 1.9475 0
M  V30 4995 O 459.05 -1.0417 1.65908 0
M  V30 4996 H 457.63 0.484839 0.568278 0
M  V30 4997 H 460.292 1.71556 0.924917 0
M  V30 4998 H 459.388 1.95355 2.43398 0
M  V30 4999 N 459.689 -1.00246 1.21608 0
M  V30 5000 C 460.919 -1.77373 1.05935 0
M  V30 5001 C 461.327 -1.85059 -0.393686 0
M  V30 5002 O 460.67 -1.31289 -1.28487 0
M  V30 5003 C 460.732 -3.22705 1.58435 0
M  V30 5004 C 460.396 -3.38591 3.06929 0
M  V30 5005 C 461.393 -3.2667 4.04454 0
M  V30 5006 C 459.078 -3.6395 3.46187 0
M  V30 5007 C 461.072 -3.39877 5.39224 0
M  V30 5008 C 458.759 -3.768 4.81108 0
M  V30 5009 C 459.757 -3.6477 5.77436 0
M  V30 5010 O 459.445 -3.77206 7.09909 0
M  V30 5011 H 459.177 -0.56419 0.372378 0
M  V30 5012 H 461.731 -1.26971 1.61454 0
M  V30 5013 H 459.961 -3.74255 0.973147 0
M  V30 5014 H 461.65 -3.81515 1.38568 0
M  V30 5015 H 462.416 -3.06999 3.75468 0
M  V30 5016 H 458.295 -3.72395 2.71741 0
M  V30 5017 H 461.839 -3.30404 6.14393 0
M  V30 5018 H 457.736 -3.95975 5.09779 0
M  V30 5019 H 458.504 -3.94138 7.17355 0
M  V30 5020 N 461.167 -1.02423 -1.1978 0
M  V30 5021 C 462.395 -0.737456 -1.93311 0
M  V30 5022 C 462.81 0.703023 -1.75223 0
M  V30 5023 O 462.167 1.47761 -1.07112 0
M  V30 5024 C 462.218 -1.0733 -3.45199 0
M  V30 5025 O 461.939 -2.4572 -3.62702 0
M  V30 5026 C 463.44 -0.80866 -4.35862 0
M  V30 5027 H 460.66 -0.2702 -0.614193 0
M  V30 5028 H 463.204 -1.36747 -1.52054 0
M  V30 5029 H 461.359 -0.488545 -3.84307 0
M  V30 5030 H 461.773 -2.58081 -4.56612 0
M  V30 5031 H 463.247 -1.09365 -5.41057 0
M  V30 5032 H 463.724 0.257025 -4.38447 0
M  V30 5033 H 464.33 -1.37592 -4.02428 0
M  V30 5034 N 462.645 1.35699 -0.801477 0
M  V30 5035 C 463.575 2.32436 -0.222658 0
M  V30 5036 C 464.556 1.5723 0.649057 0
M  V30 5037 O 465.741 1.85324 0.580387 0
M  V30 5038 C 462.871 3.41469 0.633719 0
M  V30 5039 C 461.825 4.27774 -0.139083 0
M  V30 5040 C 461.151 5.28082 0.838666 0
M  V30 5041 C 462.451 5.04946 -1.33517 0
M  V30 5042 H 464.145 2.81094 -1.03086 0
M  V30 5043 H 461.691 1.35146 -0.497155 0
M  V30 5044 H 463.644 4.08143 1.04868 0
M  V30 5045 H 462.368 2.91408 1.47475 0
M  V30 5046 H 461.027 3.62673 -0.535156 0
M  V30 5047 H 460.675 4.7429 1.67506 0
M  V30 5048 H 460.375 5.86695 0.32594 0
M  V30 5049 H 461.899 5.97628 1.25194 0
M  V30 5050 H 463.313 5.64593 -0.995349 0
M  V30 5051 H 461.71 5.7303 -1.78202 0
M  V30 5052 H 462.78 4.35886 -2.12442 0
M  V30 5053 N 464.123 0.554532 1.47522 0
M  V30 5054 C 465.07 -0.19466 2.29978 0
M  V30 5055 C 466.04 -0.910882 1.38896 0
M  V30 5056 O 467.225 -0.907102 1.67858 0
M  V30 5057 C 464.365 -1.22035 3.22802 0
M  V30 5058 C 463.478 -0.510474 4.28973 0
M  V30 5059 C 462.613 -1.52123 5.08952 0
M  V30 5060 C 461.652 -0.796173 6.069 0
M  V30 5061 N 460.789 -1.75363 6.79847 0
M  V30 5062 H 465.629 0.51461 2.93523 0
M  V30 5063 H 463.166 0.265607 1.44682 0
M  V30 5064 H 465.124 -1.8276 3.7504 0
M  V30 5065 H 463.754 -1.89769 2.61127 0
M  V30 5066 H 462.806 0.211234 3.79813 0
M  V30 5067 H 464.118 0.0576503 4.98767 0
M  V30 5068 H 463.272 -2.20207 5.65326 0
M  V30 5069 H 462.011 -2.12327 4.39054 0
M  V30 5070 H 461.016 -0.101388 5.49707 0
M  V30 5071 H 462.241 -0.199911 6.78806 0
M  V30 5072 H 460.187 -2.3443 6.12682 0
M  V30 5073 H 460.104 -1.23759 7.45801 0
M  V30 5074 H 461.372 -2.4257 7.40797 0
M  V30 5075 N 465.601 -1.54893 0.290851 0
M  V30 5076 C 466.826 -2.04804 -0.32712 0
M  V30 5077 C 467.251 -1.16721 -1.47506 0
M  V30 5078 O 466.609 -0.169107 -1.8051 0
M  V30 5079 C 466.657 -3.52268 -0.770689 0
M  V30 5080 O 465.761 -3.67236 -1.87647 0
M  V30 5081 H 465.102 -0.660789 -0.0652227 0
M  V30 5082 H 467.632 -2.00036 0.429739 0
M  V30 5083 H 467.642 -3.9393 -1.06223 0
M  V30 5084 H 466.317 -4.15843 0.069096 0
M  V30 5085 H 464.894 -3.37479 -1.58626 0
M  V30 5086 N 467.08 -0.0183926 -1.57589 0
M  V30 5087 C 468.32 0.666846 -1.93216 0
M  V30 5088 C 468.684 1.69905 -0.894215 0
M  V30 5089 O 469.885 2.436 -1.13633 0
M  V30 5090 C 468.156 1.27684 -3.33814 0
M  V30 5091 S 469.715 1.98464 -3.91353 0
M  V30 5092 H 466.533 0.219826 -0.676164 0
M  V30 5093 H 469.135 -0.0794893 -1.95338 0
M  V30 5094 H 467.839 0.513006 -4.07181 0
M  V30 5095 H 467.37 2.06071 -3.3511 0
M  V30 5096 H 469.385 3.26189 -3.73918 0
M  V30 5097 N 468.558 1.5553 0.254621 0
M  V30 5098 C 469.521 1.88872 1.29846 0
M  V30 5099 C 470.521 0.764591 1.41459 0
M  V30 5100 O 471.711 1.03265 1.40293 0
M  V30 5101 C 468.843 2.11032 2.67728 0
M  V30 5102 H 470.036 2.82201 1.01502 0
M  V30 5103 H 467.589 1.48303 0.493556 0
M  V30 5104 H 468.324 1.20146 3.01223 0
M  V30 5105 H 468.109 2.92895 2.60682 0
M  V30 5106 H 469.599 2.38038 3.43115 0
M  V30 5107 N 470.036 -0.519951 1.48776 0
M  V30 5108 C 471.261 -1.30447 1.6124 0
M  V30 5109 C 471.686 -1.86055 0.276591 0
M  V30 5110 O 471.044 -1.64915 -0.753183 0
M  V30 5111 C 471.092 -2.42406 2.66967 0
M  V30 5112 O 470.196 -3.45728 2.24824 0
M  V30 5113 H 469.537 -0.385924 0.540332 0
M  V30 5114 H 472.067 -0.624572 1.94834 0
M  V30 5115 H 472.077 -2.88447 2.88552 0
M  V30 5116 H 470.752 -2.01294 3.63941 0
M  V30 5117 H 469.329 -3.05737 2.13494 0
M  V30 5118 N 471.514 -1.37532 -0.769588 0
M  V30 5119 C 472.424 -1.35668 -1.91393 0
M  V30 5120 C 473.44 -0.255954 -1.72107 0
M  V30 5121 O 474.616 -0.491704 -1.95305 0
M  V30 5122 C 471.681 -1.16481 -3.26547 0
M  V30 5123 C 470.742 -2.36212 -3.58472 0
M  V30 5124 C 469.975 -2.17932 -4.87177 0
M  V30 5125 O 470.198 -1.1647 -5.58382 0
M  V30 5126 O 469.132 -3.06167 -5.18214 0
M  V30 5127 H 472.958 -2.32055 -1.95918 0
M  V30 5128 H 470.543 -1.18284 -0.912641 0
M  V30 5129 H 472.425 -1.07778 -4.07384 0
M  V30 5130 H 471.1 -0.231687 -3.2287 0
M  V30 5131 H 470.007 -2.50488 -2.77861 0
M  V30 5132 H 471.34 -3.281 -3.66894 0
M  V30 5133 N 472.992 0.995999 -1.22138 0
M  V30 5134 C 473.922 2.10387 -1.01289 0
M  V30 5135 C 474.903 1.69975 0.0651454 0
M  V30 5136 O 476.088 1.9396 -0.0964628 0
M  V30 5137 C 473.218 3.42312 -0.586517 0
M  V30 5138 C 472.172 3.96558 -1.61014 0
M  V30 5139 C 471.498 5.24494 -1.0397 0
M  V30 5140 C 472.798 4.27595 -2.99933 0
M  V30 5141 H 474.492 2.28086 -1.93951 0
M  V30 5142 H 472.038 1.09607 -0.933928 0
M  V30 5143 H 473.991 4.19223 -0.427793 0
M  V30 5144 H 472.715 3.24431 0.375761 0
M  V30 5145 H 471.374 3.21776 -1.75658 0
M  V30 5146 H 471.022 5.02953 -0.0688703 0
M  V30 5147 H 470.722 5.61755 -1.72352 0
M  V30 5148 H 472.246 6.04042 -0.892494 0
M  V30 5149 H 473.66 4.95315 -2.8868 0
M  V30 5150 H 472.057 4.76021 -3.6541 0
M  V30 5151 H 473.127 3.35498 -3.50099 0
M  V30 5152 N 474.47 1.03057 1.19235 0
M  V30 5153 C 475.718 0.726581 1.88587 0
M  V30 5154 C 476.039 -0.747227 1.80115 0
M  V30 5155 O 475.309 -1.53849 1.21274 0
M  V30 5156 H 473.889 0.265768 0.698124 0
M  V30 5157 H 476.551 1.30516 1.44746 0
M  V30 5158 H 475.647 1.0224 2.94879 0
M  V30 5159 N 475.948 -1.35272 0.808662 0
M  V30 5160 C 477.195 -1.98709 0.390003 0
M  V30 5161 C 477.523 -1.64148 -1.04335 0
M  V30 5162 O 476.778 -0.897797 -1.73891 0
M  V30 5163 C 477.077 -3.53556 0.522798 0
M  V30 5164 C 476.743 -4.0799 1.91977 0
M  V30 5165 C 475.405 -4.22568 2.30195 0
M  V30 5166 C 477.757 -4.37442 2.83361 0
M  V30 5167 C 475.085 -4.63918 3.59162 0
M  V30 5168 C 477.437 -4.80232 4.11776 0
M  V30 5169 C 476.101 -4.93016 4.49991 0
M  V30 5170 H 475.371 -0.727127 0.142712 0
M  V30 5171 H 478.018 -1.6145 1.02985 0
M  V30 5172 H 476.323 -3.91287 -0.200494 0
M  V30 5173 H 478.02 -4.00598 0.179608 0
M  V30 5174 H 474.61 -3.97096 1.61284 0
M  V30 5175 H 478.794 -4.25731 2.55083 0
M  V30 5176 H 474.05 -4.72005 3.88615 0
M  V30 5177 H 478.224 -5.01982 4.82687 0
M  V30 5178 H 475.851 -5.24814 5.49976 0
M  V30 5179 N 477.426 -0.562348 -1.47226 0
M  V30 5180 C 478.356 0.170627 -2.32876 0
M  V30 5181 C 479.337 0.903748 -1.44106 0
M  V30 5182 O 480.522 0.883206 -1.72954 0
M  V30 5183 C 477.652 1.19786 -3.25989 0
M  V30 5184 C 476.606 0.580875 -4.2404 0
M  V30 5185 C 475.932 1.71311 -5.06514 0
M  V30 5186 C 477.232 -0.468714 -5.20193 0
M  V30 5187 H 478.926 -0.544441 -2.94408 0
M  V30 5188 H 476.472 -0.263271 -1.41573 0
M  V30 5189 H 478.425 1.71884 -3.84752 0
M  V30 5190 H 477.149 1.94294 -2.62521 0
M  V30 5191 H 475.808 0.0811538 -3.6651 0
M  V30 5192 H 475.456 2.44736 -4.39447 0
M  V30 5193 H 475.156 1.30604 -5.72902 0
M  V30 5194 H 476.68 2.23725 -5.68137 0
M  V30 5195 H 478.094 -0.0336028 -5.7329 0
M  V30 5196 H 476.491 -0.794957 -5.94811 0
M  V30 5197 H 477.561 -1.36269 -4.65359 0
M  V30 5198 N 478.904 1.54736 -0.299062 0
M  V30 5199 C 479.834 2.26409 0.571085 0
M  V30 5200 C 480.815 1.2629 1.13951 0
M  V30 5201 O 482 1.55059 1.16921 0
M  V30 5202 C 479.13 3.00338 1.74396 0
M  V30 5203 C 478.084 4.07588 1.30599 0
M  V30 5204 C 477.41 4.69222 2.56387 0
M  V30 5205 C 478.71 5.20455 0.438645 0
M  V30 5206 H 480.404 2.99388 -0.0266991 0
M  V30 5207 H 477.95 1.43993 -0.0142812 0
M  V30 5208 H 479.903 3.49198 2.35878 0
M  V30 5209 H 478.627 2.24934 2.36796 0
M  V30 5210 H 477.286 3.59575 0.71424 0
M  V30 5211 H 476.934 3.9046 3.17097 0
M  V30 5212 H 476.634 5.41653 2.27784 0
M  V30 5213 H 478.158 5.20844 3.18675 0
M  V30 5214 H 479.572 5.65221 0.959085 0
M  V30 5215 H 477.969 5.99594 0.246466 0
M  V30 5216 H 479.039 4.8192 -0.536738 0
M  V30 5217 N 480.382 0.0267497 1.57577 0
M  V30 5218 C 481.629 -0.652404 1.91703 0
M  V30 5219 C 481.957 -1.72271 0.902936 0
M  V30 5220 O 481.212 -1.955 -0.0884843 0
M  V30 5221 C 481.511 -1.30914 3.3256 0
M  V30 5222 C 481.177 -0.369441 4.49384 0
M  V30 5223 C 479.839 -0.110791 4.81072 0
M  V30 5224 C 482.191 0.275971 5.20469 0
M  V30 5225 C 479.519 0.801116 5.81205 0
M  V30 5226 C 481.871 1.17592 6.21575 0
M  V30 5227 C 480.535 1.44348 6.51705 0
M  V30 5228 H 479.805 -0.238732 0.70149 0
M  V30 5229 H 482.452 0.0880091 1.91298 0
M  V30 5230 H 480.757 -2.12425 3.29216 0
M  V30 5231 H 482.454 -1.84115 3.56234 0
M  V30 5232 H 479.044 -0.581211 4.24641 0
M  V30 5233 H 483.228 0.0892 4.9622 0
M  V30 5234 H 478.484 1.01614 6.02897 0
M  V30 5235 H 482.658 1.68223 6.75777 0
M  V30 5236 H 480.285 2.15176 7.29111 0
M  V30 5237 N 481.861 -1.55662 -0.24637 0
M  V30 5238 C 483.086 -1.81914 -0.996093 0
M  V30 5239 C 483.511 -0.603875 -1.78143 0
M  V30 5240 O 482.869 0.447091 -1.75701 0
M  V30 5241 C 482.917 -3.05908 -1.90925 0
M  V30 5242 O 482.021 -2.82861 -3.00105 0
M  V30 5243 H 481.362 -0.600481 -0.283406 0
M  V30 5244 H 483.892 -2.02848 -0.267199 0
M  V30 5245 H 483.902 -3.35356 -2.3238 0
M  V30 5246 H 482.577 -3.93999 -1.33183 0
M  V30 5247 H 481.154 -2.64583 -2.62775 0
M  V30 5248 N 483.339 0.512053 -1.4905 0
M  V30 5249 C 484.269 1.62365 -1.67809 0
M  V30 5250 C 485.25 1.61737 -0.526809 0
M  V30 5251 O 486.435 1.78651 -0.761404 0
M  V30 5252 C 483.565 3.00895 -1.73435 0
M  V30 5253 C 482.519 3.16387 -2.88242 0
M  V30 5254 C 481.845 4.56157 -2.78971 0
M  V30 5255 C 483.145 2.97457 -4.29321 0
M  V30 5256 H 484.839 1.46921 -2.60873 0
M  V30 5257 H 482.385 0.705379 -1.2554 0
M  V30 5258 H 484.338 3.78549 -1.85145 0
M  V30 5259 H 483.062 3.17403 -0.769619 0
M  V30 5260 H 481.721 2.41155 -2.76116 0
M  V30 5261 H 481.369 4.69525 -1.8043 0
M  V30 5262 H 481.069 4.67465 -3.5602 0
M  V30 5263 H 482.593 5.35886 -2.92675 0
M  V30 5264 H 484.007 3.64888 -4.42187 0
M  V30 5265 H 482.404 3.20245 -5.07507 0
M  V30 5266 H 483.474 1.93692 -4.44535 0
M  V30 5267 N 484.817 1.37938 0.762283 0
M  V30 5268 C 486.045 1.36883 1.55147 0
M  V30 5269 C 486.46 -0.0435348 1.8875 0
M  V30 5270 O 485.817 -1.00786 1.52146 0
M  V30 5271 C 485.868 2.21624 2.85596 0
M  V30 5272 O 485.589 3.57358 2.5343 0
M  V30 5273 C 487.09 2.28653 3.7978 0
M  V30 5274 H 484.31 0.468521 0.480343 0
M  V30 5275 H 486.854 1.81404 0.944079 0
M  V30 5276 H 485.009 1.80588 3.42734 0
M  V30 5277 H 485.423 4.01883 3.37032 0
M  V30 5278 H 486.897 2.9225 4.68288 0
M  V30 5279 H 487.374 1.29767 4.19592 0
M  V30 5280 H 487.98 2.70043 3.28568 0
M  V30 5281 N 486.295 -0.989507 1.22664 0
M  V30 5282 C 487.228 -2.07805 0.942985 0
M  V30 5283 C 488.206 -1.6219 -0.115356 0
M  V30 5284 O 489.39 -1.88492 0.0169565 0
M  V30 5285 C 486.517 -3.361 0.418898 0
M  V30 5286 C 485.563 -4.00643 1.46244 0
M  V30 5287 S 486.396 -4.41059 3.03689 0
M  V30 5288 C 487.552 -5.7252 2.52927 0
M  V30 5289 H 487.785 -2.31547 1.86476 0
M  V30 5290 H 485.318 -1.12446 1.05808 0
M  V30 5291 H 487.276 -4.10315 0.123114 0
M  V30 5292 H 485.937 -3.10383 -0.481818 0
M  V30 5293 H 485.13 -4.93033 1.04569 0
M  V30 5294 H 484.732 -3.32767 1.7071 0
M  V30 5295 H 487.024 -6.49017 1.94379 0
M  V30 5296 H 487.967 -6.19026 3.4382 0
M  V30 5297 H 488.375 -5.30083 1.94094 0
M  V30 5298 N 487.773 -1.03688 -1.18687 0
M  V30 5299 C 488.736 -0.629115 -2.20397 0
M  V30 5300 C 489.736 0.311495 -1.57754 0
M  V30 5301 O 490.926 0.0974107 -1.73927 0
M  V30 5302 C 488.058 0.0782231 -3.4081 0
M  V30 5303 H 489.251 -1.52915 -2.57987 0
M  V30 5304 H 486.804 -0.828988 -1.32505 0
M  V30 5305 H 487.539 0.992233 -3.08748 0
M  V30 5306 H 487.324 -0.597776 -3.87517 0
M  V30 5307 H 488.814 0.350156 -4.16129 0
M  V30 5308 N 489.251 1.34841 -0.815825 0
M  V30 5309 C 490.5 1.97755 -0.396976 0
M  V30 5310 C 490.813 1.65422 1.04379 0
M  V30 5311 O 492.019 2.21771 1.5662 0
M  V30 5312 C 490.475 3.53818 -0.658869 0
M  V30 5313 C 490.083 3.95051 -2.11278 0
M  V30 5314 C 491.827 4.23397 -0.305834 0
M  V30 5315 C 489.734 5.43997 -2.31994 0
M  V30 5316 H 488.664 0.739985 -0.1447 0
M  V30 5317 H 491.315 1.53781 -1.00118 0
M  V30 5318 H 489.697 3.95997 0.0154112 0
M  V30 5319 H 490.871 3.63998 -2.82564 0
M  V30 5320 H 489.186 3.38388 -2.42657 0
M  V30 5321 H 491.783 5.32899 -0.43854 0
M  V30 5322 H 492.126 4.09508 0.748952 0
M  V30 5323 H 492.659 3.8667 -0.934403 0
M  V30 5324 H 489.398 5.62865 -3.35952 0
M  V30 5325 H 488.918 5.76589 -1.65244 0
M  V30 5326 H 490.597 6.10584 -2.14001 0
M  V30 5327 N 490.729 0.570148 1.46925 0
M  V30 5328 C 491.978 0.0487352 2.01641 0
M  V30 5329 C 492.291 -1.31433 1.44861 0
M  V30 5330 O 493.497 -1.92638 1.91318 0
M  V30 5331 C 491.953 0.0365817 3.59881 0
M  V30 5332 C 491.561 1.39719 4.25655 0
M  V30 5333 C 493.305 -0.431545 4.22301 0
M  V30 5334 C 491.212 1.34345 5.75939 0
M  V30 5335 H 490.142 0.0144492 0.753862 0
M  V30 5336 H 492.793 0.719928 1.68788 0
M  V30 5337 H 491.175 -0.700522 3.89755 0
M  V30 5338 H 492.349 2.15303 4.07408 0
M  V30 5339 H 490.664 1.80431 3.75278 0
M  V30 5340 H 493.261 -0.490354 5.32447 0
M  V30 5341 H 493.604 -1.44638 3.90366 0
M  V30 5342 H 494.137 0.251102 3.97007 0
M  V30 5343 H 490.876 2.33469 6.12513 0
M  V30 5344 H 490.396 0.629615 5.96486 0
M  V30 5345 H 492.075 1.051 6.38407 0
M  V30 5346 N 492.207 -1.54576 0.307264 0
M  V30 5347 C 493.456 -1.99442 -0.300976 0
M  V30 5348 C 493.769 -1.19928 -1.5452 0
M  V30 5349 O 494.975 -1.55092 -2.22842 0
M  V30 5350 C 493.431 -3.55084 -0.586809 0
M  V30 5351 C 493.039 -4.43413 0.639438 0
M  V30 5352 C 494.783 -4.0846 -1.1559 0
M  V30 5353 C 492.69 -5.90499 0.326411 0
M  V30 5354 H 491.62 -0.744986 -0.116238 0
M  V30 5355 H 494.271 -1.787 0.416947 0
M  V30 5356 H 492.653 -3.71749 -1.36449 0
M  V30 5357 H 493.827 -4.38522 1.41545 0
M  V30 5358 H 492.142 -4.00842 1.1276 0
M  V30 5359 H 494.739 -5.15926 -1.40445 0
M  V30 5360 H 495.082 -3.59443 -2.10015 0
M  V30 5361 H 495.615 -3.95362 -0.439778 0
M  V30 5362 H 492.354 -6.43676 1.23939 0
M  V30 5363 H 491.874 -5.98382 -0.412212 0
M  V30 5364 H 493.553 -6.46962 -0.0697393 0
M  V30 5365 N 493.685 -0.035106 -1.57561 0
M  V30 5366 C 494.932 0.642229 -1.92046 0
M  V30 5367 C 495.26 1.7179 -0.91206 0
M  V30 5368 O 494.515 1.95544 0.0781153 0
M  V30 5369 C 494.814 1.29149 -3.3325 0
M  V30 5370 C 494.48 0.345604 -4.49574 0
M  V30 5371 C 493.142 0.0852775 -4.81124 0
M  V30 5372 C 495.494 -0.303569 -5.20315 0
M  V30 5373 C 492.822 -0.831927 -5.80772 0
M  V30 5374 C 495.174 -1.20886 -6.20942 0
M  V30 5375 C 493.838 -1.47802 -6.50931 0
M  V30 5376 H 493.108 0.235008 -0.702746 0
M  V30 5377 H 495.755 -0.0981529 -1.91248 0
M  V30 5378 H 494.06 2.10676 -3.30337 0
M  V30 5379 H 495.757 1.82223 -3.57205 0
M  V30 5380 H 492.347 0.558683 -4.24943 0
M  V30 5381 H 496.531 -0.115515 -4.96166 0
M  V30 5382 H 491.787 -1.0481 -6.02349 0
M  V30 5383 H 495.961 -1.71804 -6.74875 0
M  V30 5384 H 493.588 -2.19039 -7.2796 0
M  V30 5385 N 495.163 1.55791 0.238111 0
M  V30 5386 C 496.126 1.90239 1.27835 0
M  V30 5387 C 497.126 0.779552 1.4064 0
M  V30 5388 O 498.316 1.04747 1.3919 0
M  V30 5389 C 495.448 2.13859 2.65475 0
M  V30 5390 H 496.641 2.83262 0.985034 0
M  V30 5391 H 494.194 1.48818 0.477799 0
M  V30 5392 H 494.929 1.23334 2.99932 0
M  V30 5393 H 494.714 2.95643 2.57561 0
M  V30 5394 H 496.204 2.41664 3.40571 0
M  V30 5395 N 496.642 -0.504142 1.49319 0
M  V30 5396 C 497.87 -1.28256 1.62351 0
M  V30 5397 C 498.285 -1.86502 0.293682 0
M  V30 5398 O 497.642 -1.67678 -0.720449 0
M  V30 5399 C 497.693 -2.41507 2.68992 0
M  V30 5400 O 497.414 -1.85656 3.96817 0
M  V30 5401 C 498.915 -3.32929 2.927 0
M  V30 5402 H 496.135 -0.389115 0.546654 0
M  V30 5403 H 498.679 -0.605531 1.95329 0
M  V30 5404 H 496.834 -3.05046 2.38801 0
M  V30 5405 H 497.248 -2.59981 4.55533 0
M  V30 5406 H 498.722 -4.0868 3.71058 0
M  V30 5407 H 499.199 -3.89733 2.02496 0
M  V30 5408 H 499.805 -2.75158 3.24296 0
M  V30 5409 N 498.12 -1.38341 -0.754957 0
M  V30 5410 C 499.366 -1.34672 -1.51628 0
M  V30 5411 C 499.699 0.0636036 -1.94096 0
M  V30 5412 O 498.974 1.0245 -1.6533 0
M  V30 5413 C 499.257 -2.30116 -2.76981 0
M  V30 5414 C 499.11 -3.80003 -2.4066 0
M  V30 5415 C 500.429 -2.23715 -3.78998 0
M  V30 5416 H 497.548 -0.490517 -0.550056 0
M  V30 5417 H 500.19 -1.69178 -0.864807 0
M  V30 5418 H 498.34 -2.00821 -3.3257 0
M  V30 5419 H 500.012 -4.19966 -1.90856 0
M  V30 5420 H 498.255 -3.97751 -1.73137 0
M  V30 5421 H 498.926 -4.42244 -3.30339 0
M  V30 5422 H 501.402 -2.49574 -3.32945 0
M  V30 5423 H 500.278 -2.9261 -4.64403 0
M  V30 5424 H 500.539 -1.23554 -4.24484 0
M  V30 5425 N 499.598 0.982988 -1.23187 0
M  V30 5426 C 500.531 2.07302 -0.953993 0
M  V30 5427 C 501.509 1.62249 0.106753 0
M  V30 5428 O 502.693 1.88481 -0.0269525 0
M  V30 5429 C 499.82 3.35873 -0.436716 0
M  V30 5430 C 498.866 3.99862 -1.48367 0
M  V30 5431 S 499.699 4.39443 -3.06023 0
M  V30 5432 C 500.855 5.7117 -2.55959 0
M  V30 5433 H 501.088 2.30554 -1.87702 0
M  V30 5434 H 498.621 1.11883 -1.06403 0
M  V30 5435 H 500.579 4.10244 -0.144872 0
M  V30 5436 H 499.24 3.10634 0.465351 0
M  V30 5437 H 498.433 4.92471 -1.07182 0
M  V30 5438 H 498.035 3.31857 -1.72473 0
M  V30 5439 H 500.327 6.47977 -1.97818 0
M  V30 5440 H 501.27 6.17194 -3.47098 0
M  V30 5441 H 501.678 5.29046 -1.96902 0
M  V30 5442 N 501.076 1.04316 1.18135 0
M  V30 5443 C 502.323 0.74802 1.88178 0
M  V30 5444 C 502.651 -0.72441 1.80506 0
M  V30 5445 O 501.906 -1.54463 1.20165 0
M  V30 5446 C 502.205 1.16271 3.37958 0
M  V30 5447 C 501.871 2.63585 3.65833 0
M  V30 5448 C 500.533 3.03829 3.73151 0
M  V30 5449 C 502.885 3.58822 3.78016 0
M  V30 5450 C 500.213 4.38194 3.90132 0
M  V30 5451 C 502.565 4.92909 3.96514 0
M  V30 5452 C 501.229 5.3282 4.02068 0
M  V30 5453 H 500.499 0.27372 0.688592 0
M  V30 5454 H 503.146 1.30863 1.39811 0
M  V30 5455 H 501.451 0.520938 3.88321 0
M  V30 5456 H 503.148 0.911672 3.90499 0
M  V30 5457 H 499.738 2.31414 3.60757 0
M  V30 5458 H 503.922 3.28875 3.71692 0
M  V30 5459 H 499.178 4.68631 3.92677 0
M  V30 5460 H 503.352 5.66606 4.04883 0
M  V30 5461 H 500.979 6.36943 4.14979 0
M  V30 5462 N 502.554 -1.34406 0.822964 0
M  V30 5463 C 503.784 -2.02214 0.423424 0
M  V30 5464 C 504.192 -1.62124 -0.975322 0
M  V30 5465 O 503.535 -0.822452 -1.6426 0
M  V30 5466 C 503.597 -3.56721 0.446107 0
M  V30 5467 C 503.261 -4.20136 1.79819 0
M  V30 5468 C 504.258 -4.4065 2.75904 0
M  V30 5469 C 501.943 -4.56906 2.08669 0
M  V30 5470 C 503.937 -4.9706 3.99012 0
M  V30 5471 C 501.624 -5.13026 3.32036 0
M  V30 5472 C 502.622 -5.33047 4.27024 0
M  V30 5473 O 502.31 -5.87979 5.48211 0
M  V30 5474 H 502.042 -0.654748 0.168169 0
M  V30 5475 H 504.596 -1.72659 1.11257 0
M  V30 5476 H 502.826 -3.85537 -0.299734 0
M  V30 5477 H 504.515 -4.05845 0.0666114 0
M  V30 5478 H 505.281 -4.12607 2.54912 0
M  V30 5479 H 501.16 -4.40626 1.35535 0
M  V30 5480 H 504.704 -5.12603 4.73164 0
M  V30 5481 H 500.601 -5.40498 3.52891 0
M  V30 5482 H 501.369 -6.06413 5.49732 0
M  V30 5483 N 504.032 -0.577932 -1.46621 0
M  V30 5484 C 504.995 0.147805 -2.28723 0
M  V30 5485 C 505.995 0.823325 -1.38123 0
M  V30 5486 O 507.185 0.676011 -1.60548 0
M  V30 5487 C 504.317 1.21853 -3.18378 0
M  V30 5488 H 505.51 -0.573654 -2.94362 0
M  V30 5489 H 503.063 -0.335703 -1.52652 0
M  V30 5490 H 503.798 1.97173 -2.57475 0
M  V30 5491 H 503.583 0.738714 -3.85078 0
M  V30 5492 H 505.073 1.72768 -3.80186 0
M  V30 5493 N 505.51 1.54411 -0.315457 0
M  V30 5494 C 506.42 2.27737 0.56329 0
M  V30 5495 C 507.436 1.31787 1.13614 0
M  V30 5496 O 508.612 1.64791 1.15784 0
M  V30 5497 C 505.677 3.01478 1.71207 0
M  V30 5498 C 504.738 4.12997 1.17185 0
M  V30 5499 C 503.971 4.83212 2.26588 0
M  V30 5500 O 504.194 4.52884 3.46775 0
M  V30 5501 O 503.128 5.70299 1.92463 0
M  V30 5502 H 506.954 3.03683 -0.0319614 0
M  V30 5503 H 504.539 1.49178 -0.0814188 0
M  V30 5504 H 506.421 3.47683 2.38106 0
M  V30 5505 H 505.096 2.28414 2.29366 0
M  V30 5506 H 504.003 3.71159 0.468174 0
M  V30 5507 H 505.336 4.8808 0.635501 0
M  V30 5508 N 506.988 0.0434614 1.5754 0
M  V30 5509 C 507.935 -0.93356 2.11077 0
M  V30 5510 C 508.905 -1.31383 1.01626 0
M  V30 5511 O 510.09 -1.40465 1.29129 0
M  V30 5512 C 507.23 -2.20578 2.65404 0
M  V30 5513 C 506.343 -1.88068 3.88914 0
M  V30 5514 C 505.478 -3.09691 4.31584 0
M  V30 5515 C 504.517 -2.73067 5.47815 0
M  V30 5516 N 503.654 -3.87359 5.85574 0
M  V30 5517 H 508.494 -0.470118 2.94268 0
M  V30 5518 H 506.031 -0.220434 1.45439 0
M  V30 5519 H 507.989 -2.95011 2.94999 0
M  V30 5520 H 506.619 -2.64513 1.85021 0
M  V30 5521 H 505.671 -1.03816 3.6596 0
M  V30 5522 H 506.983 -1.57104 4.73413 0
M  V30 5523 H 506.137 -3.92431 4.62691 0
M  V30 5524 H 504.876 -3.43827 3.45882 0
M  V30 5525 H 503.881 -1.88742 5.16388 0
M  V30 5526 H 505.106 -2.40131 6.35227 0
M  V30 5527 H 503.052 -4.21311 5.02825 0
M  V30 5528 H 502.969 -3.60068 6.64746 0
M  V30 5529 H 504.237 -4.70761 6.21292 0
M  V30 5530 N 508.466 -1.55915 -0.229846 0
M  V30 5531 C 509.714 -1.7819 -0.953565 0
M  V30 5532 C 510.035 -0.610504 -1.85197 0
M  V30 5533 O 509.305 0.372988 -1.92316 0
M  V30 5534 H 507.885 -0.657208 -0.355087 0
M  V30 5535 H 510.547 -1.9337 -0.243693 0
M  V30 5536 H 509.643 -2.70011 -1.56527 0
M  V30 5537 N 509.944 0.496216 -1.49584 0
M  V30 5538 C 511.169 1.27865 -1.63295 0
M  V30 5539 C 511.594 1.85592 -0.306156 0
M  V30 5540 O 510.952 1.66092 0.726851 0
M  V30 5541 C 511 2.38128 -2.7079 0
M  V30 5542 O 510.104 3.42108 -2.30296 0
M  V30 5543 H 509.445 0.377279 -0.546403 0
M  V30 5544 H 511.975 0.593497 -1.95803 0
M  V30 5545 H 511.985 2.8382 -2.93104 0
M  V30 5546 H 510.66 1.95479 -3.67098 0
M  V30 5547 H 509.237 3.02301 -2.18331 0
M  V30 5548 N 511.423 1.38739 0.74761 0
M  V30 5549 C 512.648 1.38702 1.54197 0
M  V30 5550 C 513.073 -0.019664 1.8809 0
M  V30 5551 O 512.431 -1.00333 1.51006 0
M  V30 5552 C 512.479 2.25492 2.814 0
M  V30 5553 O 511.583 1.67613 3.76802 0
M  V30 5554 H 510.924 0.472863 0.466151 0
M  V30 5555 H 513.454 1.82577 0.923413 0
M  V30 5556 H 513.464 2.39561 3.30264 0
M  V30 5557 H 512.139 3.27727 2.56062 0
M  V30 5558 H 510.716 1.62718 3.35526 0
M  V30 5559 N 512.901 -0.976442 1.23707 0
M  V30 5560 C 513.864 -2.0511 1.02287 0
M  V30 5561 C 514.864 -1.60791 -0.0167195 0
M  V30 5562 O 516.054 -1.72761 0.223408 0
M  V30 5563 C 513.186 -3.36458 0.548507 0
M  V30 5564 H 514.379 -2.25545 1.9766 0
M  V30 5565 H 511.932 -1.15042 1.05806 0
M  V30 5566 H 512.667 -3.21713 -0.408818 0
M  V30 5567 H 512.452 -3.69967 1.29874 0
M  V30 5568 H 513.942 -4.15489 0.419406 0
M  V30 5569 N 514.379 -1.04941 -1.1758 0
M  V30 5570 C 515.604 -0.778253 -1.92245 0
M  V30 5571 C 516.029 0.659707 -1.76152 0
M  V30 5572 O 515.387 1.45803 -1.07755 0
M  V30 5573 C 515.435 -1.16051 -3.41416 0
M  V30 5574 O 514.539 -0.291153 -4.11371 0
M  V30 5575 H 513.88 -0.285619 -0.599431 0
M  V30 5576 H 516.41 -1.40159 -1.49052 0
M  V30 5577 H 516.42 -1.12619 -3.92149 0
M  V30 5578 H 515.095 -2.208 -3.52449 0
M  V30 5579 H 513.672 -0.385851 -3.70898 0
M  V30 5580 N 515.857 1.33968 -0.830081 0
M  V30 5581 C 516.804 2.29387 -0.255008 0
M  V30 5582 C 517.774 1.53923 0.624243 0
M  V30 5583 O 518.959 1.82262 0.564372 0
M  V30 5584 C 516.099 3.4034 0.571209 0
M  V30 5585 C 515.212 4.30729 -0.331083 0
M  V30 5586 C 514.347 5.2879 0.505389 0
M  V30 5587 C 513.386 6.10819 -0.395843 0
M  V30 5588 N 512.523 7.00948 0.401979 0
M  V30 5589 H 517.363 2.77972 -1.07404 0
M  V30 5590 H 514.9 1.36785 -0.541133 0
M  V30 5591 H 516.858 4.03361 1.06562 0
M  V30 5592 H 515.488 2.9297 1.35529 0
M  V30 5593 H 514.54 3.68507 -0.943759 0
M  V30 5594 H 515.852 4.88181 -1.02377 0
M  V30 5595 H 515.006 5.97297 1.06399 0
M  V30 5596 H 513.745 4.71894 1.23155 0
M  V30 5597 H 512.75 5.41238 -0.966529 0
M  V30 5598 H 513.975 6.69797 -1.12023 0
M  V30 5599 H 511.921 6.46512 1.11168 0
M  V30 5600 H 511.838 7.55643 -0.232167 0
M  V30 5601 H 513.106 7.73774 0.943102 0
M  V30 5602 N 517.335 0.585699 1.46312 0
M  V30 5603 C 518.582 0.0724211 2.0237 0
M  V30 5604 C 518.91 -1.28868 1.45683 0
M  V30 5605 O 518.165 -1.85853 0.612945 0
M  V30 5606 C 518.464 -0.0401312 3.57377 0
M  V30 5607 C 518.13 1.25376 4.33119 0
M  V30 5608 C 516.792 1.60824 4.5353 0
M  V30 5609 C 519.144 2.10987 4.76586 0
M  V30 5610 C 516.472 2.81676 5.14661 0
M  V30 5611 C 518.824 3.31068 5.39052 0
M  V30 5612 C 517.488 3.66794 5.5769 0
M  V30 5613 H 516.758 0.0265007 0.740526 0
M  V30 5614 H 519.405 0.762935 1.75646 0
M  V30 5615 H 517.71 -0.813791 3.83255 0
M  V30 5616 H 519.407 -0.453078 3.98432 0
M  V30 5617 H 515.997 0.967808 4.1753 0
M  V30 5618 H 520.181 1.84904 4.60569 0
M  V30 5619 H 515.437 3.0949 5.27282 0
M  V30 5620 H 519.611 3.97672 5.71691 0
M  V30 5621 H 517.238 4.60529 6.04828 0
M  V30 5622 N 518.813 -1.54241 0.323641 0
M  V30 5623 C 520.041 -2.04985 -0.280871 0
M  V30 5624 C 520.456 -1.19978 -1.45777 0
M  V30 5625 O 519.813 -0.230471 -1.81039 0
M  V30 5626 C 519.864 -3.54353 -0.715258 0
M  V30 5627 O 519.585 -4.36132 0.414817 0
M  V30 5628 C 521.086 -4.21189 -1.38257 0
M  V30 5629 H 518.306 -0.66851 -0.0577502 0
M  V30 5630 H 520.85 -1.99029 0.469852 0
M  V30 5631 H 519.005 -3.60596 -1.41596 0
M  V30 5632 H 519.419 -5.2445 0.0725227 0
M  V30 5633 H 520.893 -5.27154 -1.63745 0
M  V30 5634 H 521.37 -3.72307 -2.32989 0
M  V30 5635 H 521.976 -4.19085 -0.724447 0
M  V30 5636 N 520.291 -0.0518155 -1.57515 0
M  V30 5637 C 521.516 0.634896 -1.97443 0
M  V30 5638 C 521.941 1.63546 -0.929207 0
M  V30 5639 O 521.299 1.80981 0.107484 0
M  V30 5640 C 521.347 1.29765 -3.36442 0
M  V30 5641 O 520.451 2.41333 -3.34413 0
M  V30 5642 H 519.792 0.164994 -0.643174 0
M  V30 5643 H 522.322 -0.120407 -2.04245 0
M  V30 5644 H 522.332 1.64918 -3.73184 0
M  V30 5645 H 521.007 0.564361 -4.12053 0
M  V30 5646 H 519.584 2.08122 -3.09418 0
M  V30 5647 N 521.769 1.56035 0.221574 0
M  V30 5648 C 523.018 1.78245 0.944016 0
M  V30 5649 C 523.331 0.620371 1.85501 0
M  V30 5650 O 524.537 0.726103 2.6161 0
M  V30 5651 C 522.993 3.15659 1.7288 0
M  V30 5652 C 522.601 4.39591 0.863942 0
M  V30 5653 C 524.345 3.47195 2.44246 0
M  V30 5654 C 522.252 5.6803 1.64607 0
M  V30 5655 H 521.182 0.664547 0.356222 0
M  V30 5656 H 523.833 1.8243 0.197904 0
M  V30 5657 H 522.215 3.0565 2.51781 0
M  V30 5658 H 523.389 4.60655 0.115464 0
M  V30 5659 H 521.704 4.15572 0.262407 0
M  V30 5660 H 524.301 4.40381 3.03263 0
M  V30 5661 H 524.644 2.69693 3.1713 0
M  V30 5662 H 525.177 3.58533 1.72334 0
M  V30 5663 H 521.916 6.48425 0.960507 0
M  V30 5664 H 521.436 5.51027 2.36917 0
M  V30 5665 H 523.115 6.08203 2.20675 0
M  V30 5666 N 523.247 -0.488276 1.49845 0
M  V30 5667 C 524.658 -1.06955 1.53028 0
M  V30 5668 C 525.009 -1.9351 0.323797 0
M  V30 5669 O 524.134 -2.08891 -0.565116 0
M  V30 5670 C 524.729 -1.94643 2.77307 0
M  V30 5671 C 523.288 -2.4791 2.83227 0
M  V30 5672 C 522.435 -1.25833 2.47106 0
M  V30 5673 H 525.386 -0.271626 1.56358 0
M  V30 5674 H 525.407 -2.79496 2.5819 0
M  V30 5675 H 524.919 -1.31621 3.65099 0
M  V30 5676 H 523.02 -3.14535 1.99745 0
M  V30 5677 H 523.133 -2.84193 3.85709 0
M  V30 5678 H 521.497 -1.58764 1.99163 0
M  V30 5679 H 522.28 -0.644993 3.37186 0
M  V30 5680 N 524.725 -1.39134 -0.740242 0
M  V30 5681 C 525.688 -1.37217 -1.83587 0
M  V30 5682 C 526.688 -0.270221 -1.58513 0
M  V30 5683 O 527.878 -0.527843 -1.6601 0
M  V30 5684 C 525.01 -1.13959 -3.21288 0
M  V30 5685 H 526.203 -2.34705 -1.86691 0
M  V30 5686 H 523.756 -1.24622 -0.94335 0
M  V30 5687 H 524.491 -0.17131 -3.23847 0
M  V30 5688 H 524.276 -1.93754 -3.40884 0
M  V30 5689 H 525.766 -1.15346 -4.01354 0
M  V30 5690 N 526.204 0.969867 -1.24223 0
M  V30 5691 C 527.429 1.75289 -1.10853 0
M  V30 5692 C 527.854 1.85091 0.335079 0
M  V30 5693 O 527.212 1.32024 1.24255 0
M  V30 5694 C 527.26 3.15255 -1.75062 0
M  V30 5695 O 526.364 3.99589 -1.01992 0
M  V30 5696 H 525.705 0.538904 -0.387915 0
M  V30 5697 H 528.235 1.21675 -1.64488 0
M  V30 5698 H 528.245 3.65787 -1.80731 0
M  V30 5699 H 526.92 3.07436 -2.801 0
M  V30 5700 H 525.497 3.58077 -1.04094 0
M  V30 5701 N 527.682 1.05563 1.17022 0
M  V30 5702 C 528.929 0.767937 1.87374 0
M  V30 5703 C 529.257 -0.705224 1.81265 0
M  V30 5704 O 528.512 -1.5318 1.21796 0
M  V30 5705 C 528.811 1.19849 3.36706 0
M  V30 5706 C 528.477 2.6745 3.63017 0
M  V30 5707 C 527.139 3.0777 3.69907 0
M  V30 5708 C 529.491 3.62811 3.74189 0
M  V30 5709 C 526.819 4.42307 3.85463 0
M  V30 5710 C 529.171 4.97087 3.91264 0
M  V30 5711 C 527.835 5.37055 3.96394 0
M  V30 5712 H 527.105 0.281008 0.68565 0
M  V30 5713 H 529.752 1.32339 1.38415 0
M  V30 5714 H 528.057 0.562096 3.87747 0
M  V30 5715 H 529.754 0.953038 3.8951 0
M  V30 5716 H 526.344 2.35228 3.58282 0
M  V30 5717 H 530.528 3.32798 3.68183 0
M  V30 5718 H 525.784 4.72769 3.87684 0
M  V30 5719 H 529.958 5.70869 3.9885 0
M  V30 5720 H 527.585 6.41308 4.082 0
M  V30 5721 N 529.16 -1.33526 0.837174 0
M  V30 5722 C 530.406 -1.98541 0.44193 0
M  V30 5723 C 530.761 -1.65124 -0.987517 0
M  V30 5724 O 530.054 -0.919948 -1.6807 0
M  V30 5725 C 530.248 -3.52367 0.597675 0
M  V30 5726 C 530.077 -4.00731 2.04071 0
M  V30 5727 C 528.847 -4.28649 2.67559 0
M  V30 5728 C 531.045 -4.17073 3.00923 0
M  V30 5729 N 529.027 -4.63142 4.02955 0
M  V30 5730 C 530.398 -4.54905 4.21261 0
M  V30 5731 C 532.453 -3.99358 2.97351 0
M  V30 5732 C 531.156 -4.76874 5.38501 0
M  V30 5733 C 533.182 -4.22501 4.1382 0
M  V30 5734 C 532.544 -4.60634 5.32912 0
M  V30 5735 H 528.643 -0.753246 0.210105 0
M  V30 5736 H 531.227 -1.61674 1.08488 0
M  V30 5737 H 529.398 -3.88397 -0.0154658 0
M  V30 5738 H 531.13 -4.04326 0.17404 0
M  V30 5739 H 527.885 -4.20077 2.18706 0
M  V30 5740 H 528.309 -4.84601 4.72748 0
M  V30 5741 H 532.951 -3.68993 2.06408 0
M  V30 5742 H 530.669 -5.06101 6.2999 0
M  V30 5743 H 534.255 -4.10316 4.12471 0
M  V30 5744 H 533.135 -4.78187 6.21536 0
M  V30 5745 N 530.638 -0.59345 -1.46 0
M  V30 5746 C 531.868 -0.0889642 -2.06408 0
M  V30 5747 C 532.276 1.22597 -1.44106 0
M  V30 5748 O 531.619 1.75448 -0.544398 0
M  V30 5749 C 531.681 0.139902 -3.59228 0
M  V30 5750 C 531.345 -1.09107 -4.43784 0
M  V30 5751 C 532.342 -2.00577 -4.79651 0
M  V30 5752 C 530.027 -1.31593 -4.84756 0
M  V30 5753 C 532.021 -3.12873 -5.55328 0
M  V30 5754 C 529.708 -2.44192 -5.60191 0
M  V30 5755 C 530.706 -3.34661 -5.95392 0
M  V30 5756 O 530.394 -4.45302 -6.69299 0
M  V30 5757 H 530.126 -0.0594613 -0.67338 0
M  V30 5758 H 532.68 -0.817 -1.88452 0
M  V30 5759 H 530.91 0.922672 -3.75531 0
M  V30 5760 H 532.599 0.594228 -4.01527 0
M  V30 5761 H 533.365 -1.84425 -4.48567 0
M  V30 5762 H 529.244 -0.620801 -4.56801 0
M  V30 5763 H 532.788 -3.83511 -5.82722 0
M  V30 5764 H 528.685 -2.60303 -5.90688 0
M  V30 5765 H 529.453 -4.43805 -6.87735 0
M  V30 5766 N 532.116 1.54067 -0.331816 0
M  V30 5767 C 533.344 2.05131 0.269996 0
M  V30 5768 C 533.759 1.20749 1.45138 0
M  V30 5769 O 533.116 0.240069 1.80914 0
M  V30 5770 C 533.167 3.54728 0.696456 0
M  V30 5771 O 532.888 4.35906 -0.43794 0
M  V30 5772 C 534.389 4.21916 1.36021 0
M  V30 5773 H 531.609 0.668807 0.0542042 0
M  V30 5774 H 534.153 1.98777 -0.4804 0
M  V30 5775 H 532.308 3.61342 1.39681 0
M  V30 5776 H 532.722 5.24404 -0.100334 0
M  V30 5777 H 534.196 5.28015 1.60947 0
M  V30 5778 H 534.673 3.73538 2.31011 0
M  V30 5779 H 535.279 4.19463 0.702212 0
M  V30 5780 N 533.594 0.0601682 1.57485 0
M  V30 5781 C 534.843 -0.611101 1.9222 0
M  V30 5782 C 535.156 -1.71469 0.941159 0
M  V30 5783 O 536.362 -2.44473 1.18089 0
M  V30 5784 C 534.818 -1.13832 3.41424 0
M  V30 5785 C 534.426 -0.0663596 4.47951 0
M  V30 5786 C 536.17 -1.78432 3.85178 0
M  V30 5787 C 534.077 -0.606965 5.88277 0
M  V30 5788 H 533.007 -0.232033 0.71741 0
M  V30 5789 H 535.658 0.130518 1.83035 0
M  V30 5790 H 534.04 -1.93254 3.45643 0
M  V30 5791 H 535.214 0.707682 4.55333 0
M  V30 5792 H 533.529 0.482715 4.13593 0
M  V30 5793 H 536.126 -2.1989 4.87394 0
M  V30 5794 H 536.469 -2.63966 3.21913 0
M  V30 5795 H 537.002 -1.05651 3.83514 0
M  V30 5796 H 533.741 0.21095 6.5516 0
M  V30 5797 H 533.261 -1.34879 5.84438 0
M  V30 5798 H 534.94 -1.08704 6.37803 0
M  V30 5799 N 535.072 -1.5615 -0.213296 0
M  V30 5800 C 536.318 -1.79812 -0.937849 0
M  V30 5801 C 536.651 -0.631201 -1.83656 0
M  V30 5802 O 535.926 0.369165 -1.90964 0
M  V30 5803 C 536.209 -3.13613 -1.76972 0
M  V30 5804 C 536.062 -4.40766 -0.89695 0
M  V30 5805 C 537.381 -3.43931 -2.7459 0
M  V30 5806 H 534.5 -0.654138 -0.339518 0
M  V30 5807 H 537.142 -1.88877 -0.20623 0
M  V30 5808 H 535.292 -3.06015 -2.39347 0
M  V30 5809 H 536.964 -4.60392 -0.289306 0
M  V30 5810 H 535.207 -4.33326 -0.202756 0
M  V30 5811 H 535.878 -5.30843 -1.51358 0
M  V30 5812 H 538.354 -3.5171 -2.22349 0
M  V30 5813 H 537.23 -4.38706 -3.29891 0
M  V30 5814 H 537.491 -2.6651 -3.52739 0
M  V30 5815 N 536.55 0.480323 -1.50102 0
M  V30 5816 C 537.778 1.25657 -1.64371 0
M  V30 5817 C 538.193 1.86011 -0.323316 0
M  V30 5818 O 537.55 1.68803 0.693682 0
M  V30 5819 C 537.601 2.37197 -2.728 0
M  V30 5820 O 537.322 1.7932 -3.9972 0
M  V30 5821 C 538.823 3.2823 -2.9796 0
M  V30 5822 H 536.043 0.380369 -0.552775 0
M  V30 5823 H 538.587 0.574379 -1.96268 0
M  V30 5824 H 536.742 3.01208 -2.43623 0
M  V30 5825 H 537.156 2.52701 -4.59611 0
M  V30 5826 H 538.63 4.02725 -3.77513 0
M  V30 5827 H 539.107 3.86462 -2.08671 0
M  V30 5828 H 539.713 2.69964 -3.28633 0
M  V30 5829 N 538.028 1.39524 0.732853 0
M  V30 5830 C 538.961 1.32806 1.85574 0
M  V30 5831 C 539.939 0.201354 1.61348 0
M  V30 5832 O 541.123 0.38216 1.84585 0
M  V30 5833 C 538.25 1.06271 3.21596 0
M  V30 5834 C 537.296 2.21161 3.64678 0
M  V30 5835 S 538.129 3.83454 3.73796 0
M  V30 5836 C 539.285 3.59149 5.12604 0
M  V30 5837 H 539.518 2.27838 1.9099 0
M  V30 5838 H 537.051 1.25605 0.897927 0
M  V30 5839 H 539.009 0.916461 4.00139 0
M  V30 5840 H 537.67 0.129223 3.13834 0
M  V30 5841 H 536.863 1.98193 4.63396 0
M  V30 5842 H 536.465 2.32 2.93346 0
M  V30 5843 H 538.757 3.16547 5.99003 0
M  V30 5844 H 539.7 4.57335 5.40602 0
M  V30 5845 H 540.108 2.93203 4.82382 0
M  V30 5846 N 539.506 -0.963266 1.24736 0
M  V30 5847 C 540.734 -1.74166 1.11686 0
M  V30 5848 C 541.149 -1.8589 -0.330187 0
M  V30 5849 O 540.506 -1.35042 -1.2276 0
M  V30 5850 C 540.557 -3.15989 1.75595 0
M  V30 5851 O 540.278 -3.04847 3.14642 0
M  V30 5852 C 541.779 -4.10145 1.68213 0
M  V30 5853 H 538.999 -0.546031 0.389989 0
M  V30 5854 H 541.543 -1.20907 1.64929 0
M  V30 5855 H 539.698 -3.66219 1.26343 0
M  V30 5856 H 540.112 -3.9425 3.4593 0
M  V30 5857 H 541.586 -5.07299 2.17604 0
M  V30 5858 H 542.063 -4.3445 0.644208 0
M  V30 5859 H 542.669 -3.65827 2.16912 0
M  V30 5860 N 540.985 -1.06182 -1.16461 0
M  V30 5861 C 542.213 -0.798583 -1.90867 0
M  V30 5862 C 542.628 0.646921 -1.77371 0
M  V30 5863 O 541.985 1.44279 -1.11758 0
M  V30 5864 C 542.036 -1.18258 -3.4161 0
M  V30 5865 O 541.757 -2.57135 -3.54701 0
M  V30 5866 C 543.258 -0.946917 -4.33069 0
M  V30 5867 H 540.478 -0.289603 -0.605286 0
M  V30 5868 H 543.022 -1.41515 -1.47627 0
M  V30 5869 H 541.177 -0.610562 -3.82558 0
M  V30 5870 H 541.591 -2.72477 -4.4817 0
M  V30 5871 H 543.065 -1.26523 -5.37304 0
M  V30 5872 H 543.542 0.117406 -4.39043 0
M  V30 5873 H 544.148 -1.50326 -3.97847 0
M  V30 5874 N 542.463 1.3308 -0.844243 0
M  V30 5875 C 543.393 2.3161 -0.296493 0
M  V30 5876 C 544.374 1.59215 0.598707 0
M  V30 5877 O 545.559 1.87077 0.521134 0
M  V30 5878 C 542.689 3.43313 0.524762 0
M  V30 5879 C 541.643 4.27115 -0.275106 0
M  V30 5880 C 540.969 5.30483 0.670236 0
M  V30 5881 C 542.269 5.00443 -1.49514 0
M  V30 5882 H 543.963 2.77672 -1.11976 0
M  V30 5883 H 541.509 1.33496 -0.539899 0
M  V30 5884 H 543.462 4.11273 0.918298 0
M  V30 5885 H 542.186 2.95952 1.3813 0
M  V30 5886 H 540.845 3.60787 -0.650267 0
M  V30 5887 H 540.493 4.79379 1.52332 0
M  V30 5888 H 540.193 5.87435 0.139123 0
M  V30 5889 H 541.717 6.01308 1.06117 0
M  V30 5890 H 543.131 5.61141 -1.17447 0
M  V30 5891 H 541.528 5.67071 -1.96343 0
M  V30 5892 H 542.598 4.28906 -2.26202 0
M  V30 5893 N 543.941 0.601185 1.45683 0
M  V30 5894 C 545.189 0.0936957 2.01883 0
M  V30 5895 C 545.51 -1.2779 1.47291 0
M  V30 5896 O 544.78 -1.84279 0.664691 0
M  V30 5897 H 543.36 0.0316466 0.746329 0
M  V30 5898 H 546.022 0.781137 1.78562 0
M  V30 5899 H 545.118 0.0386297 3.12076 0
M  V30 5900 N 545.419 -1.53889 0.339982 0
M  V30 5901 C 546.649 -2.04973 -0.258738 0
M  V30 5902 C 547.057 -1.21485 -1.45045 0
M  V30 5903 O 546.4 -0.2422 -1.82096 0
M  V30 5904 C 546.462 -3.51783 -0.740853 0
M  V30 5905 C 546.126 -4.55802 0.330734 0
M  V30 5906 C 547.123 -5.06512 1.17226 0
M  V30 5907 C 544.808 -4.99966 0.483637 0
M  V30 5908 C 546.802 -5.99963 2.15227 0
M  V30 5909 C 544.489 -5.93229 1.46704 0
M  V30 5910 C 545.487 -6.43115 2.29981 0
M  V30 5911 O 545.175 -7.34545 3.26649 0
M  V30 5912 H 544.907 -0.673807 -0.0544037 0
M  V30 5913 H 547.461 -1.99492 0.489107 0
M  V30 5914 H 545.691 -3.54717 -1.53988 0
M  V30 5915 H 547.38 -3.85857 -1.25973 0
M  V30 5916 H 548.146 -4.73158 1.0652 0
M  V30 5917 H 544.025 -4.6074 -0.15471 0
M  V30 5918 H 547.569 -6.38825 2.80265 0
M  V30 5919 H 543.466 -6.25998 1.57468 0
M  V30 5920 H 544.234 -7.52468 3.22078 0
M  V30 5921 N 546.897 -0.0685191 -1.57451 0
M  V30 5922 C 548.145 0.60016 -1.92983 0
M  V30 5923 C 548.466 1.70348 -0.949028 0
M  V30 5924 O 547.736 1.959 0.00335647 0
M  V30 5925 H 546.316 0.224682 -0.712409 0
M  V30 5926 H 548.978 -0.125605 -1.94495 0
M  V30 5927 H 548.074 1.02759 -2.94698 0
M  V30 5928 N 548.375 1.56261 0.205012 0
M  V30 5929 C 549.652 1.70856 0.952233 0
M  V30 5930 C 550.032 0.620501 2.01775 0
M  V30 5931 O 549.38 -0.370035 2.25484 0
M  V30 5932 C 549.59 3.12807 1.54767 0
M  V30 5933 C 550.938 3.72733 2.0336 0
M  V30 5934 O 551.962 3.15873 1.64629 0
M  V30 5935 O 550.821 4.72501 2.746 0
M  V30 5936 H 547.915 0.696496 0.445895 0
M  V30 5937 H 550.461 1.6857 0.195489 0
M  V30 5938 H 549.233 3.83465 0.779132 0
M  V30 5939 H 548.856 3.1928 2.36951 0
M  V30 5940 N 549.853 -0.472356 1.50355 0
M  V30 5941 C 550.786 -1.58923 1.63764 0
M  V30 5942 C 551.764 -1.55173 0.485793 0
M  V30 5943 O 552.948 -1.74815 0.705132 0
M  V30 5944 C 550.075 -2.97497 1.61905 0
M  V30 5945 C 549.121 -3.19405 2.82635 0
M  V30 5946 S 549.954 -2.99441 4.43954 0
M  V30 5947 C 551.11 -4.40359 4.44786 0
M  V30 5948 H 551.343 -1.47309 2.58239 0
M  V30 5949 H 548.876 -0.659601 1.39602 0
M  V30 5950 H 550.834 -3.77389 1.61518 0
M  V30 5951 H 549.495 -3.06502 0.686683 0
M  V30 5952 H 548.688 -4.20636 2.77636 0
M  V30 5953 H 548.29 -2.47283 2.80583 0
M  V30 5954 H 550.582 -5.32969 4.1827 0
M  V30 5955 H 551.525 -4.50403 5.46391 0
M  V30 5956 H 551.933 -4.22378 3.74509 0
M  V30 5957 N 551.331 -1.39911 -0.725443 0
M  V30 5958 C 552.577 -1.37858 -1.48738 0
M  V30 5959 C 552.91 0.0224187 -1.94187 0
M  V30 5960 O 552.185 0.989204 -1.67466 0
M  V30 5961 C 552.468 -2.3594 -2.72038 0
M  V30 5962 C 552.321 -3.85023 -2.32546 0
M  V30 5963 C 553.64 -2.31704 -3.74167 0
M  V30 5964 H 550.759 -0.502074 -0.539528 0
M  V30 5965 H 553.401 -1.70974 -0.828728 0
M  V30 5966 H 551.551 -2.0783 -3.28236 0
M  V30 5967 H 553.223 -4.2392 -1.81905 0
M  V30 5968 H 551.466 -4.01334 -1.64661 0
M  V30 5969 H 552.137 -4.49152 -3.20884 0
M  V30 5970 H 554.613 -2.5658 -3.27576 0
M  V30 5971 H 553.489 -3.02395 -4.58092 0
M  V30 5972 H 553.75 -1.3253 -4.21768 0
M  V30 5973 N 552.809 0.956637 -1.25245 0
M  V30 5974 C 554.22 1.51569 -1.09012 0
M  V30 5975 C 554.571 1.93322 0.334813 0
M  V30 5976 O 553.696 1.78421 1.22454 0
M  V30 5977 C 554.291 2.75444 -1.97271 0
M  V30 5978 C 552.85 3.27669 -1.8523 0
M  V30 5979 C 551.997 2.00517 -1.91542 0
M  V30 5980 H 554.948 0.773746 -1.3856 0
M  V30 5981 H 554.969 3.4919 -1.51151 0
M  V30 5982 H 554.481 2.45024 -3.00973 0
M  V30 5983 H 552.582 3.62914 -0.844045 0
M  V30 5984 H 552.695 3.9582 -2.69932 0
M  V30 5985 H 551.059 2.15727 -1.35404 0
M  V30 5986 H 551.842 1.72448 -2.96844 0
M  V30 5987 N 554.287 1.06798 1.15896 0
M  V30 5988 C 555.234 0.683314 2.20453 0
M  V30 5989 C 556.204 -0.32255 1.62938 0
M  V30 5990 O 557.389 -0.210276 1.89638 0
M  V30 5991 C 554.529 0.0813266 3.45004 0
M  V30 5992 C 553.642 1.13799 4.16742 0
M  V30 5993 C 552.777 0.501598 5.28826 0
M  V30 5994 C 551.816 1.54144 5.92373 0
M  V30 5995 N 550.953 0.928038 6.9594 0
M  V30 5996 H 555.793 1.57932 2.52708 0
M  V30 5997 H 553.33 0.789544 1.24115 0
M  V30 5998 H 555.288 -0.285274 4.16224 0
M  V30 5999 H 553.918 -0.77806 3.13283 0
M  V30 6000 H 552.97 1.62223 3.44075 0
M  V30 6001 H 554.282 1.92664 4.60089 0
M  V30 6002 H 553.436 0.0823162 6.06644 0
M  V30 6003 H 552.175 -0.318883 4.86656 0
M  V30 6004 H 551.18 1.97056 5.13273 0
M  V30 6005 H 552.405 2.3641 6.36621 0
M  V30 6006 H 550.351 0.12836 6.55874 0
M  V30 6007 H 550.268 1.65401 7.37685 0
M  V30 6008 H 551.536 0.534071 7.77668 0
M  V30 6009 N 555.766 -1.3263 0.851289 0
M  V30 6010 C 556.994 -2.01563 0.466899 0
M  V30 6011 C 557.409 -1.63996 -0.935447 0
M  V30 6012 O 556.766 -0.85957 -1.6099 0
M  V30 6013 C 556.817 -3.56613 0.592433 0
M  V30 6014 O 556.538 -3.92828 1.93954 0
M  V30 6015 C 558.039 -4.42818 0.206612 0
M  V30 6016 H 555.259 -0.645307 0.183902 0
M  V30 6017 H 557.803 -1.69285 1.1473 0
M  V30 6018 H 555.958 -3.87379 -0.0401936 0
M  V30 6019 H 556.372 -4.87545 1.9339 0
M  V30 6020 H 557.846 -5.50918 0.345462 0
M  V30 6021 H 558.323 -4.30844 -0.85264 0
M  V30 6022 H 558.929 -4.17434 0.814176 0
M  V30 6023 N 557.244 -0.608902 -1.45362 0
M  V30 6024 C 558.493 -0.10218 -2.01441 0
M  V30 6025 C 558.806 1.27546 -1.48295 0
M  V30 6026 O 560.012 1.87498 -1.96359 0
M  V30 6027 C 558.468 -0.131985 -3.59658 0
M  V30 6028 C 558.076 -1.50956 -4.21801 0
M  V30 6029 C 559.82 0.319427 -4.23296 0
M  V30 6030 C 557.727 -1.49568 -5.72174 0
M  V30 6031 H 556.657 -0.0344314 -0.753213 0
M  V30 6032 H 559.308 -0.764426 -1.6682 0
M  V30 6033 H 557.69 0.596939 -3.91475 0
M  V30 6034 H 558.864 -2.26029 -4.01556 0
M  V30 6035 H 557.179 -1.90318 -3.70362 0
M  V30 6036 H 559.776 0.349013 -5.3356 0
M  V30 6037 H 560.119 1.34237 -3.94064 0
M  V30 6038 H 560.652 -0.356273 -3.96201 0
M  V30 6039 H 557.391 -2.49626 -6.06108 0
M  V30 6040 H 556.911 -0.787542 -5.94607 0
M  V30 6041 H 558.59 -1.21989 -6.35396 0
M  V30 6042 N 558.722 1.53707 -0.348139 0
M  V30 6043 C 559.685 2.23812 0.494058 0
M  V30 6044 C 560.685 1.23989 1.02388 0
M  V30 6045 O 561.875 1.48395 0.912396 0
M  V30 6046 C 559.007 2.96133 1.68872 0
M  V30 6047 H 560.2 2.99663 -0.119141 0
M  V30 6048 H 557.753 1.55983 -0.0995539 0
M  V30 6049 H 558.488 2.24481 2.34049 0
M  V30 6050 H 558.273 3.69357 1.31596 0
M  V30 6051 H 559.763 3.49475 2.28597 0
M  V30 6052 N 560.2 0.0768682 1.57412 0
M  V30 6053 C 561.448 -0.589918 1.93299 0
M  V30 6054 C 561.769 -1.69842 0.958049 0
M  V30 6055 O 561.039 -1.95899 0.00703261 0
M  V30 6056 H 559.619 -0.220901 0.713591 0
M  V30 6057 H 562.281 0.135917 1.94425 0
M  V30 6058 H 561.377 -1.01195 2.95239 0
M  V30 6059 N 561.678 -1.56367 -0.196722 0
M  V30 6060 C 562.625 -1.94417 -1.24382 0
M  V30 6061 C 563.595 -0.804543 -1.45315 0
M  V30 6062 O 564.78 -1.06256 -1.58475 0
M  V30 6063 C 561.92 -2.28757 -2.58388 0
M  V30 6064 C 561.033 -3.55775 -2.45047 0
M  V30 6065 C 560.168 -3.79445 -3.71746 0
M  V30 6066 C 559.207 -4.99894 -3.53231 0
M  V30 6067 N 558.344 -5.19826 -4.71938 0
M  V30 6068 H 563.184 -2.83691 -0.912338 0
M  V30 6069 H 560.721 -1.40392 -0.439135 0
M  V30 6070 H 562.679 -2.46682 -3.36457 0
M  V30 6071 H 561.309 -1.42625 -2.89582 0
M  V30 6072 H 560.361 -3.45905 -1.58284 0
M  V30 6073 H 561.673 -4.44 -2.27299 0
M  V30 6074 H 560.827 -3.97601 -4.58256 0
M  V30 6075 H 559.566 -2.89546 -3.92446 0
M  V30 6076 H 558.571 -4.81662 -2.65107 0
M  V30 6077 H 559.796 -5.913 -3.33978 0
M  V30 6078 H 557.742 -4.32875 -4.92905 0
M  V30 6079 H 557.659 -6.02228 -4.57009 0
M  V30 6080 H 558.927 -5.42439 -5.59803 0
M  V30 6081 N 563.156 0.464375 -1.50603 0
M  V30 6082 C 564.405 1.21277 -1.61167 0
M  V30 6083 C 564.718 1.92953 -0.320704 0
M  V30 6084 O 565.924 2.69778 -0.30534 0
M  V30 6085 C 564.38 2.20403 -2.84518 0
M  V30 6086 C 563.988 1.54499 -4.20516 0
M  V30 6087 C 565.732 2.95843 -3.0443 0
M  V30 6088 C 563.639 2.51951 -5.35047 0
M  V30 6089 H 562.569 0.456367 -0.600204 0
M  V30 6090 H 565.22 0.48254 -1.77042 0
M  V30 6091 H 563.602 2.96746 -2.62217 0
M  V30 6092 H 564.776 0.83899 -4.53098 0
M  V30 6093 H 563.091 0.913152 -4.06264 0
M  V30 6094 H 565.688 3.6879 -3.87167 0
M  V30 6095 H 566.031 3.55622 -2.16423 0
M  V30 6096 H 566.564 2.26611 -3.26944 0
M  V30 6097 H 563.303 1.96901 -6.25228 0
M  V30 6098 H 562.823 3.20683 -5.06875 0
M  V30 6099 H 564.502 3.13643 -5.65895 0
M  V30 6100 N 564.634 1.40294 0.718013 0
M  V30 6101 C 565.881 1.3844 1.47786 0
M  V30 6102 C 566.209 -0.0140838 1.94495 0
M  V30 6103 O 565.464 -0.998165 1.68331 0
M  V30 6104 C 565.763 2.31814 2.72024 0
M  V30 6105 C 565.429 3.79117 2.44093 0
M  V30 6106 C 564.091 4.19249 2.36185 0
M  V30 6107 C 566.443 4.72212 2.20602 0
M  V30 6108 C 563.771 5.50516 2.02851 0
M  V30 6109 C 566.123 6.03775 1.88781 0
M  V30 6110 C 564.787 6.42953 1.79354 0
M  V30 6111 H 564.057 0.506588 0.540786 0
M  V30 6112 H 566.704 1.72929 0.822663 0
M  V30 6113 H 565.009 1.90501 3.42369 0
M  V30 6114 H 566.706 2.27664 3.30106 0
M  V30 6115 H 563.296 3.47318 2.51133 0
M  V30 6116 H 567.48 4.42026 2.25669 0
M  V30 6117 H 562.736 5.79776 1.94088 0
M  V30 6118 H 566.91 6.75428 1.69617 0
M  V30 6119 H 564.537 7.44584 1.53291 0
M  V30 6120 N 566.112 -0.949982 1.2575 0
M  V30 6121 C 567.36 -1.6918 1.10555 0
M  V30 6122 C 567.681 -1.91773 -0.353298 0
M  V30 6123 O 566.951 -1.50814 -1.25027 0
M  V30 6124 H 565.531 -0.626952 0.406129 0
M  V30 6125 H 568.193 -1.1419 1.57945 0
M  V30 6126 H 567.289 -2.66915 1.61749 0
M  V30 6127 N 567.59 -1.07411 -1.15328 0
M  V30 6128 C 568.815 -0.818856 -1.90551 0
M  V30 6129 C 569.24 0.622194 -1.77512 0
M  V30 6130 O 568.598 1.43484 -1.10824 0
M  V30 6131 C 568.646 -1.23267 -3.38877 0
M  V30 6132 O 567.75 -0.378345 -4.10661 0
M  V30 6133 H 567.091 -0.29827 -0.593238 0
M  V30 6134 H 569.621 -1.43289 -1.46046 0
M  V30 6135 H 569.631 -1.20912 -3.89672 0
M  V30 6136 H 568.306 -2.28226 -3.47686 0
M  V30 6137 H 566.883 -0.464437 -3.69996 0
M  V30 6138 N 569.068 1.32177 -0.85831 0
M  V30 6139 C 570.317 1.96392 -0.459689 0
M  V30 6140 C 570.63 1.68659 0.990632 0
M  V30 6141 O 571.836 2.26641 1.49485 0
M  V30 6142 C 570.292 3.51542 -0.7711 0
M  V30 6143 C 569.9 3.8813 -2.2374 0
M  V30 6144 C 571.644 4.2221 -0.44038 0
M  V30 6145 C 569.551 5.36341 -2.49183 0
M  V30 6146 H 568.481 0.735007 -0.168169 0
M  V30 6147 H 571.132 1.50518 -1.0496 0
M  V30 6148 H 569.514 3.95846 -0.11058 0
M  V30 6149 H 570.688 3.54824 -2.94001 0
M  V30 6150 H 569.003 3.30497 -2.533 0
M  V30 6151 H 571.6 5.31234 -0.607855 0
M  V30 6152 H 571.943 4.11683 0.618291 0
M  V30 6153 H 572.476 3.83502 -1.05695 0
M  V30 6154 H 569.215 5.51892 -3.53689 0
M  V30 6155 H 568.735 5.7104 -1.83504 0
M  V30 6156 H 570.414 6.03466 -2.33318 0
M  V30 6157 N 570.547 0.616602 1.45037 0
M  V30 6158 C 571.787 0.118453 2.04056 0
M  V30 6159 C 572.151 -1.23104 1.47341 0
M  V30 6160 O 573.352 -1.82044 1.97771 0
M  V30 6161 C 571.623 0.0892842 3.57288 0
M  V30 6162 S 573.182 -0.346361 4.37431 0
M  V30 6163 H 570 0.0539728 0.708948 0
M  V30 6164 H 572.602 0.816731 1.77623 0
M  V30 6165 H 571.306 1.07481 3.96076 0
M  V30 6166 H 570.837 -0.630703 3.88311 0
M  V30 6167 H 572.852 -1.59389 4.69904 0
M  V30 6168 N 572.025 -1.5352 0.356285 0
M  V30 6169 C 573.25 -2.06007 -0.239961 0
M  V30 6170 C 573.675 -1.22872 -1.42422 0
M  V30 6171 O 573.033 -0.245516 -1.7963 0
M  V30 6172 C 573.081 -3.5522 -0.620587 0
M  V30 6173 O 572.185 -3.74864 -1.71902 0
M  V30 6174 H 571.526 -0.662961 -0.0371377 0
M  V30 6175 H 574.056 -1.98033 0.514194 0
M  V30 6176 H 574.066 -3.98081 -0.894197 0
M  V30 6177 H 572.741 -4.15175 0.245407 0
M  V30 6178 H 571.318 -3.43904 -1.44169 0
M  V30 6179 N 573.503 -0.0852151 -1.57369 0
M  V30 6180 C 574.433 0.874556 -2.16503 0
M  V30 6181 C 575.414 1.30111 -1.09568 0
M  V30 6182 O 576.599 1.36977 -1.37662 0
M  V30 6183 C 573.729 2.13731 -2.73745 0
M  V30 6184 C 572.683 1.84971 -3.85966 0
M  V30 6185 C 572.009 3.17991 -4.29867 0
M  V30 6186 C 573.309 1.14442 -5.09608 0
M  V30 6187 H 575.003 0.381899 -2.96954 0
M  V30 6188 H 572.549 0.18225 -1.42842 0
M  V30 6189 H 574.502 2.81302 -3.13763 0
M  V30 6190 H 573.226 2.65263 -1.90534 0
M  V30 6191 H 571.885 1.19801 -3.46473 0
M  V30 6192 H 571.533 3.6739 -3.4356 0
M  V30 6193 H 571.233 2.99534 -5.05523 0
M  V30 6194 H 572.757 3.86737 -4.72511 0
M  V30 6195 H 574.171 1.72105 -5.46857 0
M  V30 6196 H 572.568 1.06197 -5.90629 0
M  V30 6197 H 573.638 0.12559 -4.84737 0
M  V30 6198 N 574.981 1.5647 0.188427 0
M  V30 6199 C 576.206 1.85486 0.927891 0
M  V30 6200 C 576.631 0.669575 1.75779 0
M  V30 6201 O 575.989 -0.381573 1.77239 0
M  V30 6202 C 576.037 3.12784 1.7944 0
M  V30 6203 O 575.141 2.93805 2.894 0
M  V30 6204 H 574.482 0.610585 0.260925 0
M  V30 6205 H 577.012 2.037 0.191729 0
M  V30 6206 H 577.022 3.43749 2.19774 0
M  V30 6207 H 575.697 3.98671 1.18468 0
M  V30 6208 H 574.274 2.74153 2.52774 0
M  V30 6209 N 576.459 -0.456382 1.50847 0
M  V30 6210 C 577.707 -1.20497 1.62249 0
M  V30 6211 C 578.028 -1.92156 0.331839 0
M  V30 6212 O 577.298 -1.84751 -0.651443 0
M  V30 6213 H 575.878 -0.447775 0.597918 0
M  V30 6214 H 578.54 -0.525099 1.87693 0
M  V30 6215 H 577.636 -1.94492 2.44089 0
M  V30 6216 N 577.937 -1.40673 -0.710563 0
M  V30 6217 C 579.183 -1.39428 -1.47267 0
M  V30 6218 C 579.516 0.00182129 -1.942 0
M  V30 6219 O 578.791 0.971387 -1.68506 0
M  V30 6220 C 579.074 -2.38812 -2.6952 0
M  V30 6221 C 578.927 -3.87467 -2.28449 0
M  V30 6222 C 580.246 -2.3566 -3.71689 0
M  V30 6223 H 577.365 -0.507768 -0.534173 0
M  V30 6224 H 580.007 -1.71843 -0.810547 0
M  V30 6225 H 578.157 -2.113 -3.26013 0
M  V30 6226 H 579.829 -4.25825 -1.77399 0
M  V30 6227 H 578.072 -4.03058 -1.60395 0
M  V30 6228 H 578.743 -4.5253 -3.16103 0
M  V30 6229 H 581.219 -2.6004 -3.24836 0
M  V30 6230 H 580.095 -3.07237 -4.54859 0
M  V30 6231 H 580.356 -1.36996 -4.20339 0
M  V30 6232 N 579.415 0.9433 -1.26252 0
M  V30 6233 C 580.345 2.05902 -1.10122 0
M  V30 6234 C 581.326 1.70099 -0.00700552 0
M  V30 6235 O 582.511 1.93377 -0.178641 0
M  V30 6236 C 579.641 3.39516 -0.731175 0
M  V30 6237 C 578.595 3.89372 -1.77688 0
M  V30 6238 C 577.921 5.19613 -1.26122 0
M  V30 6239 C 579.221 4.14489 -3.17799 0
M  V30 6240 H 580.915 2.19655 -2.03451 0
M  V30 6241 H 578.461 1.05548 -0.979576 0
M  V30 6242 H 580.414 4.17031 -0.605215 0
M  V30 6243 H 579.138 3.25733 0.23782 0
M  V30 6244 H 577.797 3.14036 -1.89148 0
M  V30 6245 H 577.445 5.02208 -0.282128 0
M  V30 6246 H 577.145 5.53939 -1.96023 0
M  V30 6247 H 578.669 5.99713 -1.14789 0
M  V30 6248 H 580.083 4.82625 -3.09428 0
M  V30 6249 H 578.48 4.60094 -3.85271 0
M  V30 6250 H 579.55 3.20347 -3.64014 0
M  V30 6251 N 580.893 1.08022 1.14757 0
M  V30 6252 C 582.139 0.808705 1.85978 0
M  V30 6253 C 582.472 -0.663764 1.82504 0
M  V30 6254 O 581.747 -1.48765 1.25296 0
M  V30 6255 C 582.03 1.32623 3.34788 0
M  V30 6256 C 581.883 2.86375 3.46856 0
M  V30 6257 C 583.202 0.948291 4.29762 0
M  V30 6258 H 580.321 0.295244 0.675278 0
M  V30 6259 H 582.963 1.33917 1.34783 0
M  V30 6260 H 581.113 0.875002 3.78518 0
M  V30 6261 H 582.785 3.39839 3.11941 0
M  V30 6262 H 581.028 3.24232 2.88194 0
M  V30 6263 H 581.699 3.17658 4.51439 0
M  V30 6264 H 584.175 1.33722 3.94028 0
M  V30 6265 H 583.051 1.33765 5.32352 0
M  V30 6266 H 583.312 -0.145094 4.41862 0
M  V30 6267 N 582.371 -1.3172 0.865308 0
M  V30 6268 C 583.62 -1.96145 0.470098 0
M  V30 6269 C 583.933 -1.69182 -0.981674 0
M  V30 6270 O 585.139 -2.27431 -1.48281 0
M  V30 6271 C 583.595 -3.51129 0.789732 0
M  V30 6272 C 583.203 -3.86938 2.25795 0
M  V30 6273 C 584.947 -4.2197 0.462765 0
M  V30 6274 C 582.854 -5.35012 2.52024 0
M  V30 6275 H 581.784 -0.734105 0.172065 0
M  V30 6276 H 584.435 -1.49959 1.05757 0
M  V30 6277 H 582.817 -3.95781 0.131571 0
M  V30 6278 H 583.991 -3.5326 2.95879 0
M  V30 6279 H 582.306 -3.29149 2.55049 0
M  V30 6280 H 584.903 -5.30904 0.636019 0
M  V30 6281 H 585.246 -4.12005 -0.59645 0
M  V30 6282 H 585.779 -3.82936 1.07727 0
M  V30 6283 H 582.518 -5.50008 3.56611 0
M  V30 6284 H 582.038 -5.70058 1.8653 0
M  V30 6285 H 583.717 -6.0222 2.36515 0
M  V30 6286 N 583.85 -0.624285 -1.44708 0
M  V30 6287 C 584.812 0.0749638 -2.29077 0
M  V30 6288 C 585.812 0.778965 -1.40673 0
M  V30 6289 O 587.003 0.624591 -1.62618 0
M  V30 6290 C 584.135 1.11663 -3.22094 0
M  V30 6291 H 585.327 -0.667013 -2.92388 0
M  V30 6292 H 582.88 -0.384098 -1.51507 0
M  V30 6293 H 583.615 1.88881 -2.63618 0
M  V30 6294 H 583.401 0.61583 -3.87234 0
M  V30 6295 H 584.891 1.60585 -3.8549 0
M  V30 6296 N 585.328 1.53329 -0.364422 0
M  V30 6297 C 586.258 2.28627 0.474543 0
M  V30 6298 C 587.239 1.31009 1.08492 0
M  V30 6299 O 588.424 1.59878 1.10239 0
M  V30 6300 C 585.554 3.07465 1.61501 0
M  V30 6301 C 584.508 4.1276 1.13194 0
M  V30 6302 C 583.834 4.79674 2.36255 0
M  V30 6303 C 585.134 5.21847 0.217507 0
M  V30 6304 H 586.828 2.99005 -0.153656 0
M  V30 6305 H 584.374 1.43803 -0.0753406 0
M  V30 6306 H 586.327 3.58889 2.20855 0
M  V30 6307 H 585.051 2.34775 2.27042 0
M  V30 6308 H 583.71 3.62281 0.56109 0
M  V30 6309 H 583.358 4.03557 3.00251 0
M  V30 6310 H 583.058 5.50827 2.04606 0
M  V30 6311 H 584.582 5.33892 2.96297 0
M  V30 6312 H 585.996 5.6878 0.718493 0
M  V30 6313 H 584.393 6.00099 -0.00806408 0
M  V30 6314 H 585.463 4.7921 -0.740653 0
M  V30 6315 N 586.806 0.0935595 1.57322 0
M  V30 6316 C 588.217 -0.435807 1.81542 0
M  V30 6317 C 588.568 -1.68263 1.00907 0
M  V30 6318 O 587.693 -2.15087 0.237983 0
M  V30 6319 C 588.288 -0.797436 3.29282 0
M  V30 6320 C 586.847 -1.27155 3.54272 0
M  V30 6321 C 585.994 -0.267455 2.76007 0
M  V30 6322 H 588.945 0.31902 1.5546 0
M  V30 6323 H 588.966 -1.6571 3.42521 0
M  V30 6324 H 588.478 0.110206 3.87943 0
M  V30 6325 H 586.579 -2.19696 3.00939 0
M  V30 6326 H 586.692 -1.23445 4.62923 0
M  V30 6327 H 585.056 -0.749282 2.43429 0
M  V30 6328 H 585.839 0.632839 3.37417 0
M  V30 6329 N 588.284 -1.56567 -0.180126 0
M  V30 6330 C 589.53 -1.81761 -0.899497 0
M  V30 6331 C 589.863 -0.670015 -1.82276 0
M  V30 6332 O 589.138 0.328575 -1.91705 0
M  V30 6333 C 589.421 -3.17296 -1.7028 0
M  V30 6334 C 589.274 -4.4257 -0.803255 0
M  V30 6335 C 590.593 -3.49678 -2.67233 0
M  V30 6336 H 587.712 -0.661192 -0.325567 0
M  V30 6337 H 590.354 -1.89272 -0.16612 0
M  V30 6338 H 588.504 -3.11023 -2.32802 0
M  V30 6339 H 590.176 -4.60902 -0.191585 0
M  V30 6340 H 588.419 -4.33658 -0.110796 0
M  V30 6341 H 589.09 -5.33935 -1.40064 0
M  V30 6342 H 591.566 -3.56347 -2.14839 0
M  V30 6343 H 590.442 -4.45605 -3.20511 0
M  V30 6344 H 590.703 -2.73932 -3.47007 0
M  V30 6345 N 589.762 0.448376 -1.51087 0
M  V30 6346 C 591.173 1.0286 -1.5581 0
M  V30 6347 C 591.524 1.92583 -0.374989 0
M  V30 6348 O 590.649 2.10316 0.509533 0
M  V30 6349 C 591.244 1.87223 -2.8237 0
M  V30 6350 C 589.803 2.40314 -2.897 0
M  V30 6351 C 588.95 1.19238 -2.50355 0
M  V30 6352 H 591.901 0.230075 -1.57023 0
M  V30 6353 H 591.922 2.72553 -2.6551 0
M  V30 6354 H 591.434 1.21894 -3.68461 0
M  V30 6355 H 589.535 3.09129 -2.08014 0
M  V30 6356 H 589.648 2.73866 -3.93108 0
M  V30 6357 H 588.012 1.53428 -2.03303 0
M  V30 6358 H 588.795 0.555367 -3.38778 0
M  V30 6359 N 591.24 1.41047 0.703093 0
M  V30 6360 C 592.486 1.40207 1.46526 0
M  V30 6361 C 592.819 0.00847763 1.94198 0
M  V30 6362 O 592.094 -0.962437 1.69019 0
M  V30 6363 C 592.377 2.40238 2.6825 0
M  V30 6364 C 592.23 3.88674 2.26391 0
M  V30 6365 C 593.549 2.37627 3.70434 0
M  V30 6366 H 590.668 0.510594 0.531472 0
M  V30 6367 H 593.31 1.72271 0.801422 0
M  V30 6368 H 591.46 2.13026 3.24888 0
M  V30 6369 H 593.132 4.2676 1.75138 0
M  V30 6370 H 591.375 4.03903 1.58255 0
M  V30 6371 H 592.046 4.542 3.13698 0
M  V30 6372 H 594.522 2.61759 3.23452 0
M  V30 6373 H 593.398 3.09645 4.53223 0
M  V30 6374 H 593.659 1.39223 4.19606 0
M  V30 6375 N 592.718 -0.936591 1.26751 0
M  V30 6376 C 593.967 -1.67778 1.11953 0
M  V30 6377 C 594.28 -1.92694 -0.33589 0
M  V30 6378 O 595.486 -2.64682 -0.604618 0
M  V30 6379 C 593.942 -3.02138 1.95551 0
M  V30 6380 C 593.55 -2.84953 3.45696 0
M  V30 6381 C 595.294 -3.79917 1.89377 0
M  V30 6382 C 593.201 -4.14814 4.21525 0
M  V30 6383 H 592.131 -0.629275 0.415366 0
M  V30 6384 H 594.782 -1.04122 1.51099 0
M  V30 6385 H 593.164 -3.668 1.49243 0
M  V30 6386 H 594.338 -2.29112 3.99805 0
M  V30 6387 H 592.653 -2.20612 3.53156 0
M  V30 6388 H 595.25 -4.76134 2.43312 0
M  V30 6389 H 595.593 -4.07204 0.865464 0
M  V30 6390 H 596.126 -3.22037 2.33532 0
M  V30 6391 H 592.865 -3.92709 5.24843 0
M  V30 6392 H 592.385 -4.70352 3.72195 0
M  V30 6393 H 594.064 -4.83239 4.3022 0
M  V30 6394 N 594.196 -1.08629 -1.14182 0
M  V30 6395 C 595.442 -0.818556 -1.85546 0
M  V30 6396 C 595.775 0.654076 -1.82854 0
M  V30 6397 O 595.05 1.48099 -1.26083 0
M  V30 6398 C 595.333 -1.34397 -3.3408 0
M  V30 6399 C 595.186 -2.8821 -3.45333 0
M  V30 6400 C 596.505 -0.971069 -4.29253 0
M  V30 6401 H 593.624 -0.298821 -0.673702 0
M  V30 6402 H 596.266 -1.34629 -1.34071 0
M  V30 6403 H 594.416 -0.895064 -3.78049 0
M  V30 6404 H 596.088 -3.41488 -3.10134 0
M  V30 6405 H 594.331 -3.25756 -2.86471 0
M  V30 6406 H 595.002 -3.20047 -4.49749 0
M  V30 6407 H 597.478 -1.35809 -3.93313 0
M  V30 6408 H 596.354 -1.36586 -5.31635 0
M  V30 6409 H 596.615 0.121659 -4.41933 0
M  V30 6410 N 595.674 1.31259 -0.872281 0
M  V30 6411 C 596.899 2.0133 -0.498099 0
M  V30 6412 C 597.324 1.65031 0.902568 0
M  V30 6413 O 596.682 0.860164 1.59596 0
M  V30 6414 C 596.73 3.54411 -0.665205 0
M  V30 6415 O 595.834 4.11347 0.294473 0
M  V30 6416 H 595.175 0.633844 -0.197832 0
M  V30 6417 H 597.705 1.67402 -1.17633 0
M  V30 6418 H 597.715 4.04147 -0.559373 0
M  V30 6419 H 596.39 3.80171 -1.68651 0
M  V30 6420 H 594.967 3.72624 0.143403 0
M  V30 6421 N 597.152 0.631951 1.44375 0
M  V30 6422 C 598.1 -0.0846693 2.32446 0
M  V30 6423 C 599.094 -0.834957 1.47393 0
M  V30 6424 O 600.3 -0.747764 1.63733 0
M  V30 6425 H 596.675 -0.0461508 0.750583 0
M  V30 6426 H 598.646 0.67619 2.90638 0
M  V30 6427 C 597.395 -1.05211 3.314 0
M  V30 6428 H 596.718 -0.484203 3.96857 0
M  V30 6429 H 598.158 -1.523 3.95703 0
M  V30 6430 C 596.617 -2.13776 2.60387 0
M  V30 6431 O 597.147 -3.21869 2.4034 0
M  V30 6432 N 595.353 -1.89733 2.20113 0
M  V30 6433 H 594.9 -1.01833 2.36618 0
M  V30 6434 H 594.858 -2.62572 1.72926 0
M  V30 6435 N 598.631 -1.53133 0.372548 0
M  V30 6436 C 599.878 -2.01356 -0.214959 0
M  V30 6437 C 600.206 -1.2596 -1.48204 0
M  V30 6438 O 599.461 -0.343511 -1.92662 0
M  V30 6439 C 599.76 -3.53206 -0.545938 0
M  V30 6440 C 599.426 -4.46511 0.627624 0
M  V30 6441 C 598.088 -4.71737 0.949615 0
M  V30 6442 C 600.44 -5.01666 1.41353 0
M  V30 6443 C 597.768 -5.4937 2.05936 0
M  V30 6444 C 600.12 -5.80511 2.51375 0
M  V30 6445 C 598.784 -6.04022 2.84101 0
M  V30 6446 H 598.054 -0.736813 -0.078659 0
M  V30 6447 H 600.701 -1.84682 0.506447 0
M  V30 6448 H 599.006 -3.67864 -1.34845 0
M  V30 6449 H 600.703 -3.87997 -1.01287 0
M  V30 6450 H 597.293 -4.27029 0.366635 0
M  V30 6451 H 601.477 -4.82117 1.17802 0
M  V30 6452 H 596.733 -5.65803 2.31682 0
M  V30 6453 H 600.907 -6.22255 3.12684 0
M  V30 6454 H 598.534 -6.63962 3.70214 0
M  V30 6455 N 600.109 -0.101901 -1.5727 0
M  V30 6456 C 601.334 0.571759 -1.99363 0
M  V30 6457 C 601.759 1.60507 -0.980768 0
M  V30 6458 O 601.117 1.81231 0.0498517 0
M  V30 6459 C 601.165 1.18996 -3.404 0
M  V30 6460 O 600.269 2.30572 -3.41922 0
M  V30 6461 H 599.61 0.144449 -0.648098 0
M  V30 6462 H 602.14 -0.185325 -2.03759 0
M  V30 6463 H 602.15 1.52962 -3.78241 0
M  V30 6464 H 600.825 0.432984 -4.1364 0
M  V30 6465 H 599.402 1.98173 -3.15883 0
M  V30 6466 N 601.587 1.56661 0.17182 0
M  V30 6467 C 603.003 1.50768 0.52357 0
M  V30 6468 C 603.203 0.806072 1.84675 0
M  V30 6469 O 602.259 0.366233 2.4983 0
M  V30 6470 C 603.572 2.955 0.556793 0
M  V30 6471 C 605.12 3.06303 0.644029 0
M  V30 6472 C 605.595 4.52492 0.708148 0
M  V30 6473 N 607.086 4.56737 0.771051 0
M  V30 6474 C 607.821 5.67196 0.841229 0
M  V30 6475 N 607.317 6.87287 0.872272 0
M  V30 6476 N 609.11 5.55165 0.88021 0
M  V30 6477 H 601.261 2.00679 -0.695817 0
M  V30 6478 H 603.524 0.914219 -0.250814 0
M  V30 6479 H 603.23 3.49986 -0.346774 0
M  V30 6480 H 603.104 3.50119 1.40346 0
M  V30 6481 H 605.491 2.51851 1.53802 0
M  V30 6482 H 605.572 2.5477 -0.229297 0
M  V30 6483 H 605.216 5.07575 -0.181585 0
M  V30 6484 H 605.146 5.01781 1.59761 0
M  V30 6485 H 607.637 3.70274 0.755364 0
M  V30 6486 H 607.95 7.6722 0.92698 0
M  V30 6487 H 606.295 6.89898 0.840557 0
M  V30 6488 H 609.486 4.60263 0.852956 0
M  V30 6489 H 609.659 6.41271 0.931439 0
M  V30 6490 N 603.065 -0.440357 1.51323 0
M  V30 6491 C 604.314 -1.18697 1.63076 0
M  V30 6492 C 604.627 -1.92418 0.35136 0
M  V30 6493 O 605.833 -2.69258 0.348221 0
M  V30 6494 C 604.289 -2.15849 2.87988 0
M  V30 6495 C 603.897 -1.47789 4.22921 0
M  V30 6496 C 605.641 -2.90962 3.09098 0
M  V30 6497 C 603.548 -2.43407 5.38987 0
M  V30 6498 H 602.478 -0.44676 0.607389 0
M  V30 6499 H 605.129 -0.454313 1.77787 0
M  V30 6500 H 603.511 -2.92537 2.66905 0
M  V30 6501 H 604.685 -0.7668 4.54375 0
M  V30 6502 H 603 -0.848404 4.07665 0
M  V30 6503 H 605.597 -3.62584 3.92985 0
M  V30 6504 H 605.94 -3.52133 2.22053 0
M  V30 6505 H 606.473 -2.21381 3.30507 0
M  V30 6506 H 603.212 -1.86929 6.28282 0
M  V30 6507 H 602.732 -3.12579 5.11913 0
M  V30 6508 H 604.411 -3.046 5.70813 0
M  V30 6509 N 604.543 -1.41418 -0.695603 0
M  V30 6510 C 605.773 -1.43921 -1.48224 0
M  V30 6511 C 606.181 -0.0428855 -1.89151 0
M  V30 6512 O 605.524 0.948138 -1.5734 0
M  V30 6513 C 605.586 -2.28466 -2.77567 0
M  V30 6514 C 605.25 -3.76629 -2.58844 0
M  V30 6515 C 606.247 -4.6879 -2.24793 0
M  V30 6516 C 603.932 -4.2067 -2.74485 0
M  V30 6517 C 605.926 -6.02981 -2.06622 0
M  V30 6518 C 603.613 -5.54926 -2.55931 0
M  V30 6519 C 604.611 -6.45897 -2.2205 0
M  V30 6520 O 604.299 -7.77675 -2.03657 0
M  V30 6521 H 604.031 -0.492252 -0.463318 0
M  V30 6522 H 606.585 -1.86347 -0.863952 0
M  V30 6523 H 604.815 -1.80853 -3.41802 0
M  V30 6524 H 606.504 -2.2267 -3.39371 0
M  V30 6525 H 607.27 -4.36055 -2.12323 0
M  V30 6526 H 603.149 -3.50167 -2.9984 0
M  V30 6527 H 606.693 -6.73951 -1.80099 0
M  V30 6528 H 602.59 -5.8724 -2.67991 0
M  V30 6529 H 603.358 -7.88819 -2.1842 0
M  V30 6530 N 606.021 0.929856 -1.27246 0
M  V30 6531 C 606.971 2.01629 -1.06442 0
M  V30 6532 C 607.955 1.60899 0.00687842 0
M  V30 6533 O 609.147 1.75733 -0.211407 0
M  V30 6534 C 606.276 3.35849 -0.711361 0
M  V30 6535 C 605.362 3.8303 -1.82069 0
M  V30 6536 N 605.753 4.02743 -3.05993 0
M  V30 6537 C 604.051 4.12046 -1.70687 0
M  V30 6538 C 604.752 4.42001 -3.78167 0
M  V30 6539 N 603.728 4.4935 -3.05918 0
M  V30 6540 H 607.53 2.14898 -2.00489 0
M  V30 6541 H 605.044 1.11654 -1.17929 0
M  V30 6542 H 607.041 4.13343 -0.543442 0
M  V30 6543 H 605.701 3.23944 0.221517 0
M  V30 6544 H 606.712 3.89112 -3.41778 0
M  V30 6545 H 603.389 4.08866 -0.844681 0
M  V30 6546 H 604.779 4.6535 -4.84664 0
M  V30 6547 N 607.499 1.09233 1.13605 0
M  V30 6548 C 608.431 0.687794 2.18637 0
M  V30 6549 C 609.444 -0.26936 1.60556 0
M  V30 6550 O 610.633 -0.0557162 1.78413 0
M  V30 6551 C 607.733 -0.00751901 3.38899 0
M  V30 6552 C 606.906 0.97067 4.26494 0
M  V30 6553 C 605.965 0.309129 5.25291 0
M  V30 6554 O 604.991 0.956149 5.61112 0
M  V30 6555 N 606.193 -0.937555 5.72879 0
M  V30 6556 H 608.958 1.59141 2.53957 0
M  V30 6557 H 606.519 0.979515 1.28907 0
M  V30 6558 H 608.511 -0.461238 4.02063 0
M  V30 6559 H 607.081 -0.813353 3.01833 0
M  V30 6560 H 606.301 1.603 3.60135 0
M  V30 6561 H 607.589 1.63323 4.81875 0
M  V30 6562 H 606.987 -1.48281 5.4592 0
M  V30 6563 H 605.544 -1.33463 6.3799 0
M  V30 6564 N 608.977 -1.30795 0.87923 0
M  V30 6565 C 609.925 -2.30231 0.331112 0
M  V30 6566 C 610.919 -1.59918 -0.558794 0
M  V30 6567 O 612.125 -1.74441 -0.443866 0
M  V30 6568 H 608.5 -0.746785 0.088409 0
M  V30 6569 H 610.471 -2.73925 1.18353 0
M  V30 6570 C 609.22 -3.44848 -0.444401 0
M  V30 6571 H 608.543 -3.99131 0.231106 0
M  V30 6572 H 609.983 -4.16516 -0.793109 0
M  V30 6573 C 608.442 -2.94329 -1.63926 0
M  V30 6574 O 608.972 -2.93875 -2.73862 0
M  V30 6575 N 607.178 -2.50413 -1.4745 0
M  V30 6576 H 606.725 -2.50982 -0.58015 0
M  V30 6577 H 606.683 -2.16969 -2.27534 0
M  V30 6578 N 610.455 -0.639598 -1.44038 0
M  V30 6579 C 611.387 0.0987684 -2.28987 0
M  V30 6580 C 612.4 0.80058 -1.41755 0
M  V30 6581 O 613.589 0.660611 -1.65826 0
M  V30 6582 C 610.689 1.16242 -3.18341 0
M  V30 6583 C 609.862 0.541447 -4.34036 0
M  V30 6584 C 608.921 1.50017 -5.04362 0
M  V30 6585 O 607.947 1.01403 -5.60095 0
M  V30 6586 N 609.149 2.83441 -5.06598 0
M  V30 6587 H 611.914 -0.630305 -2.92997 0
M  V30 6588 H 609.475 -0.481376 -1.54578 0
M  V30 6589 H 611.467 1.80429 -3.62253 0
M  V30 6590 H 610.037 1.79362 -2.56024 0
M  V30 6591 H 609.257 -0.27923 -3.9321 0
M  V30 6592 H 610.545 0.107379 -5.08687 0
M  V30 6593 H 609.943 3.2551 -4.62666 0
M  V30 6594 H 608.5 3.42966 -5.54272 0
M  V30 6595 N 611.933 1.52934 -0.380664 0
M  V30 6596 C 613.349 1.59571 -0.0302429 0
M  V30 6597 C 613.549 1.39509 1.45394 0
M  V30 6598 O 612.605 1.20777 2.21741 0
M  V30 6599 C 613.918 2.96519 -0.499691 0
M  V30 6600 C 615.466 3.09672 -0.455204 0
M  V30 6601 C 615.941 4.49056 -0.900703 0
M  V30 6602 N 617.432 4.55215 -0.856367 0
M  V30 6603 C 618.167 5.61282 -1.17259 0
M  V30 6604 N 617.663 6.75035 -1.55885 0
M  V30 6605 N 619.456 5.51343 -1.0944 0
M  V30 6606 H 611.607 1.64224 -1.347 0
M  V30 6607 H 613.87 0.771033 -0.551554 0
M  V30 6608 H 613.576 3.16388 -1.53595 0
M  V30 6609 H 613.45 3.77052 0.105789 0
M  V30 6610 H 615.837 2.89504 0.571949 0
M  V30 6611 H 615.918 2.31113 -1.09638 0
M  V30 6612 H 615.562 4.69964 -1.92604 0
M  V30 6613 H 615.492 5.26068 -0.236629 0
M  V30 6614 H 617.983 3.73546 -0.572013 0
M  V30 6615 H 618.296 7.51926 -1.784 0
M  V30 6616 H 616.641 6.76388 -1.59764 0
M  V30 6617 H 619.832 4.61356 -0.791713 0
M  V30 6618 H 620.005 6.33905 -1.34417 0
M  V30 6619 N 613.412 0.11024 1.57214 0
M  V30 6620 C 614.375 -0.828808 2.1369 0
M  V30 6621 C 615.375 -1.20059 1.06969 0
M  V30 6622 O 616.565 -1.12754 1.32786 0
M  V30 6623 C 613.697 -2.11959 2.66994 0
M  V30 6624 H 614.89 -0.338146 2.97988 0
M  V30 6625 H 612.443 -0.138913 1.55681 0
M  V30 6626 H 613.178 -2.65476 1.8626 0
M  V30 6627 H 612.963 -1.86258 3.45037 0
M  V30 6628 H 614.453 -2.79105 3.10629 0
M  V30 6629 N 614.89 -1.56749 -0.16351 0
M  V30 6630 C 616.167 -1.73321 -0.906599 0
M  V30 6631 C 616.547 -0.673779 -2.00059 0
M  V30 6632 O 615.895 0.310121 -2.26386 0
M  V30 6633 C 616.105 -3.168 -1.46419 0
M  V30 6634 C 617.453 -3.77993 -1.93407 0
M  V30 6635 O 618.477 -3.20127 -1.56196 0
M  V30 6636 O 617.336 -4.79615 -2.61976 0
M  V30 6637 H 614.43 -0.708073 -0.427272 0
M  V30 6638 H 616.976 -1.69029 -0.150727 0
M  V30 6639 H 615.748 -3.85396 -0.677189 0
M  V30 6640 H 615.371 -3.2545 -2.28403 0
M  V30 6641 N 616.368 0.432326 -1.51554 0
M  V30 6642 C 617.315 1.52512 -1.7323 0
M  V30 6643 C 618.285 1.55863 -0.5741 0
M  V30 6644 O 619.47 1.72796 -0.809093 0
M  V30 6645 C 616.61 2.90183 -1.86783 0
M  V30 6646 C 615.723 2.96322 -3.14352 0
M  V30 6647 C 614.858 4.25147 -3.18471 0
M  V30 6648 C 613.897 4.25172 -4.40335 0
M  V30 6649 N 613.034 5.45529 -4.41975 0
M  V30 6650 H 617.874 1.33332 -2.66508 0
M  V30 6651 H 615.411 0.647613 -1.32077 0
M  V30 6652 H 617.369 3.70071 -1.92623 0
M  V30 6653 H 615.999 3.0791 -0.969087 0
M  V30 6654 H 615.051 2.09066 -3.17798 0
M  V30 6655 H 616.363 2.92203 -4.04251 0
M  V30 6656 H 615.517 5.13411 -3.23255 0
M  V30 6657 H 614.256 4.31929 -2.2647 0
M  V30 6658 H 613.261 3.353 -4.35723 0
M  V30 6659 H 614.486 4.20049 -5.33606 0
M  V30 6660 H 612.432 5.53024 -3.52847 0
M  V30 6661 H 612.349 5.43311 -5.25689 0
M  V30 6662 H 613.617 6.35812 -4.50958 0
M  V30 6663 N 617.846 1.41785 0.688094 0
M  V30 6664 C 619.262 1.24419 0.999608 0
M  V30 6665 C 619.462 0.138868 2.01021 0
M  V30 6666 O 618.518 -0.494283 2.47615 0
M  V30 6667 C 619.831 2.59625 1.51709 0
M  V30 6668 C 621.379 2.66869 1.63554 0
M  V30 6669 C 621.854 4.0241 2.18702 0
M  V30 6670 N 623.345 4.04295 2.26053 0
M  V30 6671 C 624.08 5.05977 2.69768 0
M  V30 6672 N 623.576 6.18047 3.13033 0
M  V30 6673 N 625.369 4.93336 2.69398 0
M  V30 6674 H 617.52 2.12392 0.0187427 0
M  V30 6675 H 619.783 0.945347 0.0708673 0
M  V30 6676 H 619.489 3.41297 0.849059 0
M  V30 6677 H 619.363 2.82628 2.49803 0
M  V30 6678 H 621.75 1.8555 2.29467 0
M  V30 6679 H 621.831 2.47668 0.639857 0
M  V30 6680 H 621.475 4.8418 1.53402 0
M  V30 6681 H 621.405 4.18955 3.19037 0
M  V30 6682 H 623.896 3.23383 1.9553 0
M  V30 6683 H 624.209 6.91498 3.45038 0
M  V30 6684 H 622.554 6.21572 3.10923 0
M  V30 6685 H 625.745 4.04865 2.34952 0
M  V30 6686 H 625.918 5.72717 3.03148 0
M  V30 6687 N 619.324 -0.923095 1.27737 0
M  V30 6688 C 620.74 -1.19985 1.05241 0
M  V30 6689 C 620.94 -2.00391 -0.21113 0
M  V30 6690 O 619.996 -2.35324 -0.915366 0
M  V30 6691 C 621.309 -1.94352 2.29451 0
M  V30 6692 C 622.857 -2.07273 2.34536 0
M  V30 6693 C 623.332 -2.85046 3.58487 0
M  V30 6694 N 624.823 -2.92612 3.59072 0
M  V30 6695 C 625.558 -3.53266 4.51654 0
M  V30 6696 N 625.054 -4.15274 5.54545 0
M  V30 6697 N 626.847 -3.50714 4.39268 0
M  V30 6698 H 618.998 -0.386042 2.08862 0
M  V30 6699 H 621.261 -0.233407 0.918817 0
M  V30 6700 H 620.967 -1.42692 3.21453 0
M  V30 6701 H 620.841 -2.94947 2.3513 0
M  V30 6702 H 623.228 -2.58117 1.43037 0
M  V30 6703 H 623.309 -1.05884 2.32857 0
M  V30 6704 H 622.953 -2.34884 4.50324 0
M  V30 6705 H 622.883 -3.8673 3.57418 0
M  V30 6706 H 625.374 -2.48547 2.84663 0
M  V30 6707 H 625.687 -4.59507 6.21348 0
M  V30 6708 H 624.032 -4.13806 5.58382 0
M  V30 6709 H 627.223 -3.01475 3.58093 0
M  V30 6710 H 627.396 -3.97693 5.1161 0
M  V30 6711 N 620.802 -1.09834 -1.13024 0
M  V30 6712 C 621.765 -0.745058 -2.16752 0
M  V30 6713 C 622.765 0.227435 -1.59183 0
M  V30 6714 O 623.955 0.0050786 -1.74199 0
M  V30 6715 C 621.087 -0.102543 -3.40746 0
M  V30 6716 H 622.28 -1.66375 -2.49518 0
M  V30 6717 H 619.833 -0.898061 -1.27924 0
M  V30 6718 H 620.568 0.827177 -3.13573 0
M  V30 6719 H 620.353 -0.80235 -3.83803 0
M  V30 6720 H 621.843 0.129082 -4.174 0
M  V30 6721 N 622.28 1.30327 -0.886154 0
M  V30 6722 C 623.212 2.27079 -0.311072 0
M  V30 6723 C 624.225 1.53758 0.53502 0
M  V30 6724 O 625.414 1.74947 0.354378 0
M  V30 6725 C 622.514 3.33965 0.576228 0
M  V30 6726 C 621.687 4.36735 -0.241064 0
M  V30 6727 C 620.746 5.23028 0.576916 0
M  V30 6728 O 619.772 5.692 -0.000802231 0
M  V30 6729 N 620.974 5.49016 1.88579 0
M  V30 6730 H 623.739 2.77065 -1.14259 0
M  V30 6731 H 621.3 1.43519 -0.749258 0
M  V30 6732 H 623.292 3.88618 1.12953 0
M  V30 6733 H 621.862 2.839 1.30842 0
M  V30 6734 H 621.082 3.81932 -0.975805 0
M  V30 6735 H 622.37 5.02451 -0.801272 0
M  V30 6736 H 621.768 5.13288 2.37806 0
M  V30 6737 H 620.325 6.06539 2.38651 0
M  V30 6738 N 623.758 0.647228 1.43697 0
M  V30 6739 C 624.705 -0.0480092 2.3075 0
M  V30 6740 C 625.675 -0.820705 1.44408 0
M  V30 6741 O 626.86 -0.798515 1.73287 0
M  V30 6742 C 624 -1.01259 3.2991 0
M  V30 6743 C 623.113 -0.236629 4.31351 0
M  V30 6744 C 622.248 -1.19447 5.17596 0
M  V30 6745 C 621.287 -0.408595 6.10735 0
M  V30 6746 N 620.424 -1.31772 6.89623 0
M  V30 6747 H 625.264 0.700238 2.89656 0
M  V30 6748 H 622.801 0.357082 1.427 0
M  V30 6749 H 624.759 -1.58538 3.85903 0
M  V30 6750 H 623.389 -1.72778 2.72667 0
M  V30 6751 H 622.441 0.452353 3.77701 0
M  V30 6752 H 623.753 0.374731 4.9739 0
M  V30 6753 H 622.907 -1.83809 5.78186 0
M  V30 6754 H 621.646 -1.83975 4.51669 0
M  V30 6755 H 620.651 0.24841 5.49239 0
M  V30 6756 H 621.876 0.232188 6.78703 0
M  V30 6757 H 619.822 -1.94991 6.2635 0
M  V30 6758 H 619.739 -0.760779 7.52162 0
M  V30 6759 H 621.007 -1.94967 7.54724 0
M  V30 6760 N 625.236 -1.5273 0.388769 0
M  V30 6761 C 626.183 -2.26437 -0.446639 0
M  V30 6762 C 627.153 -1.28025 -1.05824 0
M  V30 6763 O 628.338 -1.56852 -1.08637 0
M  V30 6764 C 625.478 -3.07407 -1.56828 0
M  V30 6765 C 624.591 -4.20747 -0.979589 0
M  V30 6766 C 623.726 -4.89113 -2.07224 0
M  V30 6767 C 622.765 -5.94447 -1.45942 0
M  V30 6768 N 621.902 -6.56411 -2.49135 0
M  V30 6769 H 626.742 -2.97404 0.18837 0
M  V30 6770 H 624.279 -1.46727 0.104725 0
M  V30 6771 H 626.237 -3.52642 -2.22934 0
M  V30 6772 H 624.867 -2.3865 -2.17361 0
M  V30 6773 H 623.919 -3.7983 -0.208151 0
M  V30 6774 H 625.231 -4.9637 -0.491747 0
M  V30 6775 H 624.385 -5.3765 -2.81101 0
M  V30 6776 H 623.124 -4.13013 -2.59368 0
M  V30 6777 H 622.129 -5.4525 -0.705894 0
M  V30 6778 H 623.354 -6.7248 -0.945932 0
M  V30 6779 H 621.3 -5.83152 -3.00449 0
M  V30 6780 H 621.217 -7.27645 -2.05105 0
M  V30 6781 H 622.485 -7.09592 -3.22644 0
M  V30 6782 N 626.714 -0.118576 -1.57153 0
M  V30 6783 C 627.677 0.817464 -2.14127 0
M  V30 6784 C 628.677 1.1949 -1.07604 0
M  V30 6785 O 629.867 1.12048 -1.33382 0
M  V30 6786 C 626.999 2.10541 -2.68115 0
M  V30 6787 H 628.192 0.322339 -2.98163 0
M  V30 6788 H 625.745 0.130655 -1.55753 0
M  V30 6789 H 626.48 2.64485 -1.87665 0
M  V30 6790 H 626.265 1.84425 -3.4602 0
M  V30 6791 H 627.755 2.77453 -3.12105 0
M  V30 6792 N 628.193 1.56834 0.155195 0
M  V30 6793 C 629.609 1.51315 0.50755 0
M  V30 6794 C 629.809 0.825614 1.83809 0
M  V30 6795 O 628.865 0.39271 2.49427 0
M  V30 6796 C 630.178 2.96074 0.52542 0
M  V30 6797 C 631.726 3.06968 0.611505 0
M  V30 6798 C 632.201 4.53218 0.660115 0
M  V30 6799 N 633.692 4.5753 0.722564 0
M  V30 6800 C 634.427 5.68056 0.781023 0
M  V30 6801 N 633.923 6.88173 0.799327 0
M  V30 6802 N 635.716 5.56068 0.821278 0
M  V30 6803 H 627.867 1.9993 -0.717063 0
M  V30 6804 H 630.13 0.911507 -0.260496 0
M  V30 6805 H 629.836 3.49599 -0.383875 0
M  V30 6806 H 629.71 3.51587 1.36624 0
M  V30 6807 H 632.097 2.53468 1.51122 0
M  V30 6808 H 632.178 2.54513 -0.256306 0
M  V30 6809 H 631.822 5.07354 -0.23541 0
M  V30 6810 H 631.752 5.03447 1.5443 0
M  V30 6811 H 634.243 3.71054 0.716049 0
M  V30 6812 H 634.556 7.6816 0.845553 0
M  V30 6813 H 632.901 6.90751 0.767337 0
M  V30 6814 H 636.092 4.61142 0.804091 0
M  V30 6815 H 636.265 6.42223 0.863372 0
M  V30 6816 N 629.671 -0.424282 1.51781 0
M  V30 6817 C 630.601 -1.52305 1.7699 0
M  V30 6818 C 631.582 -1.5839 0.620209 0
M  V30 6819 O 632.767 -1.73908 0.864268 0
M  V30 6820 C 629.897 -2.90271 1.90683 0
M  V30 6821 C 628.851 -2.99043 3.06198 0
M  V30 6822 C 628.177 -4.39116 3.05092 0
M  V30 6823 C 629.477 -2.7192 4.45934 0
M  V30 6824 H 631.171 -1.31461 2.68995 0
M  V30 6825 H 628.717 -0.630985 1.29439 0
M  V30 6826 H 630.67 -3.6711 2.06901 0
M  V30 6827 H 629.394 -3.12376 0.953365 0
M  V30 6828 H 628.053 -2.24646 2.89706 0
M  V30 6829 H 627.701 -4.58207 2.07498 0
M  V30 6830 H 627.401 -4.45912 3.82669 0
M  V30 6831 H 628.925 -5.17911 3.2342 0
M  V30 6832 H 630.339 -3.38487 4.62709 0
M  V30 6833 H 628.736 -2.90111 5.25315 0
M  V30 6834 H 629.806 -1.67445 4.55072 0
M  V30 6835 N 631.149 -1.42148 -0.680565 0
M  V30 6836 C 632.112 -1.4488 -1.77602 0
M  V30 6837 C 633.112 -0.337209 -1.57224 0
M  V30 6838 O 634.302 -0.597778 -1.63622 0
M  V30 6839 C 631.434 -1.27483 -3.16166 0
M  V30 6840 H 632.627 -2.42412 -1.76568 0
M  V30 6841 H 630.18 -1.28511 -0.889645 0
M  V30 6842 H 630.915 -0.30851 -3.22829 0
M  V30 6843 H 630.7 -2.08037 -3.3236 0
M  V30 6844 H 632.19 -1.32265 -3.96101 0
M  V30 6845 N 632.627 0.916307 -1.28225 0
M  V30 6846 C 634.043 1.19425 -1.05876 0
M  V30 6847 C 634.243 2.005 0.2005 0
M  V30 6848 O 633.299 2.35806 0.902873 0
M  V30 6849 C 634.612 1.93133 -2.30478 0
M  V30 6850 C 636.16 2.06026 -2.35632 0
M  V30 6851 C 636.635 2.83141 -3.59994 0
M  V30 6852 N 638.126 2.90704 -3.60618 0
M  V30 6853 C 638.861 3.50865 -4.53521 0
M  V30 6854 N 638.357 4.12327 -5.56739 0
M  V30 6855 N 640.15 3.48379 -4.41122 0
M  V30 6856 H 632.301 0.37496 -2.09064 0
M  V30 6857 H 634.564 0.228531 -0.920042 0
M  V30 6858 H 634.27 1.40985 -3.22205 0
M  V30 6859 H 634.144 2.93696 -2.36691 0
M  V30 6860 H 636.531 2.57355 -1.44404 0
M  V30 6861 H 636.612 1.04647 -2.33415 0
M  V30 6862 H 636.256 2.32492 -4.51564 0
M  V30 6863 H 636.186 3.84829 -3.59464 0
M  V30 6864 H 638.677 2.47034 -2.85977 0
M  V30 6865 H 638.99 4.56205 -6.23776 0
M  V30 6866 H 637.335 4.10839 -5.60568 0
M  V30 6867 H 640.526 2.99572 -3.59686 0
M  V30 6868 H 640.699 3.94974 -5.13712 0
M  V30 6869 N 634.105 1.10431 1.1244 0
M  V30 6870 C 635.354 0.841539 1.83306 0
M  V30 6871 C 635.667 -0.634961 1.85007 0
M  V30 6872 O 636.873 -1.01363 2.51869 0
M  V30 6873 C 635.329 1.45565 3.29149 0
M  V30 6874 C 634.937 2.96544 3.35806 0
M  V30 6875 C 636.681 1.27227 4.04986 0
M  V30 6876 C 634.588 3.5099 4.75983 0
M  V30 6877 H 633.518 0.311156 0.686803 0
M  V30 6878 H 636.169 1.32829 1.26604 0
M  V30 6879 H 634.551 0.896574 3.85717 0
M  V30 6880 H 635.725 3.58766 2.89177 0
M  V30 6881 H 634.04 3.14036 2.73442 0
M  V30 6882 H 636.637 1.65348 5.08492 0
M  V30 6883 H 636.98 0.213834 4.1575 0
M  V30 6884 H 637.513 1.79941 3.54776 0
M  V30 6885 H 634.252 4.56499 4.70413 0
M  V30 6886 H 633.772 2.93535 5.23065 0
M  V30 6887 H 635.451 3.48808 5.44924 0
M  V30 6888 N 635.583 -1.29855 0.893053 0
M  V30 6889 C 636.999 -1.48366 0.588199 0
M  V30 6890 C 637.199 -1.81654 -0.872018 0
M  V30 6891 O 636.255 -1.909 -1.65268 0
M  V30 6892 C 637.568 -2.60136 1.5083 0
M  V30 6893 C 639.116 -2.74014 1.51279 0
M  V30 6894 C 639.591 -3.88905 2.41902 0
M  V30 6895 N 641.082 -3.96228 2.39911 0
M  V30 6896 C 641.817 -4.84458 3.06738 0
M  V30 6897 N 641.313 -5.77426 3.8282 0
M  V30 6898 N 643.106 -4.77894 2.95929 0
M  V30 6899 H 635.257 -1.06522 1.83757 0
M  V30 6900 H 637.52 -0.528495 0.787018 0
M  V30 6901 H 637.226 -2.42383 2.54839 0
M  V30 6902 H 637.1 -3.56793 1.22388 0
M  V30 6903 H 639.487 -2.91167 0.480179 0
M  V30 6904 H 639.568 -1.77952 1.83757 0
M  V30 6905 H 639.212 -3.72508 3.45253 0
M  V30 6906 H 639.142 -4.84322 2.06737 0
M  V30 6907 H 641.633 -3.29728 1.84629 0
M  V30 6908 H 641.946 -6.41529 4.30883 0
M  V30 6909 H 640.291 -5.77332 3.86927 0
M  V30 6910 H 643.482 -4.04248 2.36012 0
M  V30 6911 H 643.655 -5.46444 3.48286 0
M  V30 6912 N 637.061 -0.65484 -1.43351 0
M  V30 6913 C 638.307 -0.169142 -2.02093 0
M  V30 6914 C 638.64 1.21431 -1.51553 0
M  V30 6915 O 637.915 1.81105 -0.709317 0
M  V30 6916 C 638.198 -0.181775 -3.59641 0
M  V30 6917 C 638.051 -1.59926 -4.20409 0
M  V30 6918 C 639.37 0.480945 -4.37464 0
M  V30 6919 H 636.489 -0.0629371 -0.734308 0
M  V30 6920 H 639.131 -0.835833 -1.70628 0
M  V30 6921 H 637.281 0.385918 -3.86578 0
M  V30 6922 H 638.953 -2.21766 -4.04497 0
M  V30 6923 H 637.196 -2.14605 -3.76998 0
M  V30 6924 H 637.867 -1.55994 -5.295 0
M  V30 6925 H 640.343 -0.00208273 -4.161 0
M  V30 6926 H 639.219 0.441384 -5.47122 0
M  V30 6927 H 639.48 1.55533 -4.13838 0
M  V30 6928 N 638.539 1.52521 -0.396863 0
M  V30 6929 C 639.502 2.2527 0.422604 0
M  V30 6930 C 640.502 1.27184 0.983913 0
M  V30 6931 O 641.692 1.51222 0.864723 0
M  V30 6932 C 638.824 3.01356 1.59365 0
M  V30 6933 H 640.017 2.99133 -0.214416 0
M  V30 6934 H 637.57 1.55587 -0.149128 0
M  V30 6935 H 638.305 2.31813 2.26789 0
M  V30 6936 H 638.09 3.73357 1.19779 0
M  V30 6937 H 639.58 3.56571 2.17363 0
M  V30 6938 N 640.017 0.126909 1.57088 0
M  V30 6939 C 640.964 -0.82036 2.15728 0
M  V30 6940 C 641.934 -1.25811 1.08447 0
M  V30 6941 O 643.119 -1.33422 1.36393 0
M  V30 6942 C 640.259 -2.06199 2.76724 0
M  V30 6943 C 639.372 -1.67188 3.98337 0
M  V30 6944 C 638.507 -2.86378 4.47393 0
M  V30 6945 C 637.546 -2.43644 5.61519 0
M  V30 6946 N 636.683 -3.55775 6.05284 0
M  V30 6947 H 641.523 -0.313472 2.96347 0
M  V30 6948 H 639.06 -0.14303 1.46403 0
M  V30 6949 H 641.018 -2.78959 3.10222 0
M  V30 6950 H 639.648 -2.54333 1.98782 0
M  V30 6951 H 638.7 -0.842714 3.70948 0
M  V30 6952 H 640.012 -1.31789 4.81075 0
M  V30 6953 H 639.166 -3.67353 4.82842 0
M  V30 6954 H 637.905 -3.25009 3.63621 0
M  V30 6955 H 636.91 -1.61104 5.25667 0
M  V30 6956 H 638.135 -2.06122 6.47063 0
M  V30 6957 H 636.081 -3.94065 5.24451 0
M  V30 6958 H 635.998 -3.24325 6.82898 0
M  V30 6959 H 637.266 -4.37166 6.45373 0
M  V30 6960 N 641.495 -1.56914 -0.146875 0
M  V30 6961 C 642.723 -1.87515 -0.874394 0
M  V30 6962 C 643.138 -0.715116 -1.74733 0
M  V30 6963 O 642.495 0.315113 -1.79759 0
M  V30 6964 C 642.546 -3.17362 -1.731 0
M  V30 6965 O 642.267 -4.28897 -0.893245 0
M  V30 6966 C 643.768 -3.61479 -2.56609 0
M  V30 6967 H 640.988 -0.621546 -0.252827 0
M  V30 6968 H 643.532 -2.04023 -0.139627 0
M  V30 6969 H 641.687 -3.02608 -2.41883 0
M  V30 6970 H 642.101 -5.03146 -1.48137 0
M  V30 6971 H 643.575 -4.5517 -3.12289 0
M  V30 6972 H 644.052 -2.86773 -3.32653 0
M  V30 6973 H 644.658 -3.78927 -1.93117 0
M  V30 6974 N 642.974 0.416227 -1.52004 0
M  V30 6975 C 644.222 1.16153 -1.65387 0
M  V30 6976 C 644.543 1.91208 -0.382669 0
M  V30 6977 O 643.813 1.86413 0.602231 0
M  V30 6978 H 642.393 0.431765 -0.60958 0
M  V30 6979 H 645.055 0.475151 -1.89019 0
M  V30 6980 H 644.151 1.87952 -2.4916 0
M  V30 6981 N 644.452 1.42507 0.673017 0
M  V30 6982 C 645.677 1.4668 1.46627 0
M  V30 6983 C 646.102 0.080066 1.8793 0
M  V30 6984 O 645.46 -0.921879 1.56112 0
M  V30 6985 C 645.508 2.40091 2.69051 0
M  V30 6986 O 644.612 1.8735 3.67387 0
M  V30 6987 H 643.953 0.496908 0.44043 0
M  V30 6988 H 646.483 1.87215 0.825334 0
M  V30 6989 H 646.493 2.56731 3.17101 0
M  V30 6990 H 645.168 3.4084 2.3833 0
M  V30 6991 H 643.745 1.80274 3.26429 0
M  V30 6992 N 645.93 -0.909495 1.28709 0
M  V30 6993 C 647.155 -1.69801 1.1909 0
M  V30 6994 C 647.58 -1.86479 -0.246388 0
M  V30 6995 O 646.938 -1.37802 -1.17815 0
M  V30 6996 C 646.986 -3.06543 1.89904 0
M  V30 6997 O 646.09 -3.94268 1.2094 0
M  V30 6998 H 645.431 -0.519783 0.413185 0
M  V30 6999 H 647.961 -1.13689 1.70106 0
M  V30 7000 H 647.971 -3.56748 1.97977 0
M  V30 7001 H 646.646 -2.93722 2.94449 0
M  V30 7002 H 645.223 -3.52702 1.2106 0
M  V30 7003 N 647.408 -1.11026 -1.11852 0
M  V30 7004 C 648.356 -0.759643 -2.19846 0
M  V30 7005 C 649.35 0.246964 -1.6759 0
M  V30 7006 O 650.556 0.106693 -1.79684 0
M  V30 7007 H 646.931 -0.22775 -0.716683 0
M  V30 7008 H 648.902 -1.6792 -2.46669 0
M  V30 7009 C 647.651 -0.214364 -3.47039 0
M  V30 7010 H 646.974 -0.980175 -3.87599 0
M  V30 7011 H 648.414 -0.00717047 -4.23999 0
M  V30 7012 C 646.873 1.05436 -3.19976 0
M  V30 7013 O 647.403 2.13483 -3.40276 0
M  V30 7014 N 645.609 0.975436 -2.7374 0
M  V30 7015 H 645.156 0.0960853 -2.57421 0
M  V30 7016 H 645.114 1.82501 -2.5601 0
M  V30 7017 N 648.886 1.2938 -0.899927 0
M  V30 7018 C 649.849 2.25983 -0.382677 0
M  V30 7019 C 650.849 1.53366 0.483259 0
M  V30 7020 O 652.039 1.71798 0.28828 0
M  V30 7021 C 649.171 3.37878 0.452915 0
M  V30 7022 H 650.364 2.73252 -1.23586 0
M  V30 7023 H 647.917 1.40825 -0.678088 0
M  V30 7024 H 648.652 2.95949 1.32608 0
M  V30 7025 H 648.437 3.91742 -0.167562 0
M  V30 7026 H 649.927 4.09746 0.806107 0
M  V30 7027 N 650.364 0.662433 1.43002 0
M  V30 7028 C 651.594 0.187343 2.05749 0
M  V30 7029 C 652.002 -1.15582 1.49791 0
M  V30 7030 O 651.345 -1.72651 0.627487 0
M  V30 7031 C 651.407 0.0316493 3.59486 0
M  V30 7032 C 651.071 1.30156 4.38073 0
M  V30 7033 C 652.068 2.23234 4.69535 0
M  V30 7034 C 649.753 1.54572 4.77926 0
M  V30 7035 C 651.747 3.39012 5.39768 0
M  V30 7036 C 649.434 2.70641 5.47902 0
M  V30 7037 C 650.432 3.62687 5.78746 0
M  V30 7038 O 650.12 4.76728 6.47291 0
M  V30 7039 H 649.852 0.0915214 0.669776 0
M  V30 7040 H 652.406 0.905982 1.8434 0
M  V30 7041 H 650.636 -0.742451 3.79506 0
M  V30 7042 H 652.325 -0.401977 4.03905 0
M  V30 7043 H 653.091 2.05616 4.39257 0
M  V30 7044 H 648.97 0.83804 4.53319 0
M  V30 7045 H 652.514 4.10877 5.63761 0
M  V30 7046 H 648.411 2.88189 5.77596 0
M  V30 7047 H 649.179 4.76113 6.65777 0
M  V30 7048 N 651.842 -1.52309 0.404946 0
M  V30 7049 C 652.772 -2.29805 -0.41376 0
M  V30 7050 C 653.753 -1.3384 -1.0498 0
M  V30 7051 O 654.938 -1.62745 -1.05961 0
M  V30 7052 C 652.068 -3.11639 -1.53292 0
M  V30 7053 C 651.022 -4.15616 -1.02211 0
M  V30 7054 C 650.348 -4.8577 -2.23455 0
M  V30 7055 C 651.648 -5.2224 -0.0790725 0
M  V30 7056 H 653.342 -2.98493 0.232878 0
M  V30 7057 H 650.888 -1.43552 0.113441 0
M  V30 7058 H 652.841 -3.64618 -2.11262 0
M  V30 7059 H 651.565 -2.40712 -2.20738 0
M  V30 7060 H 650.224 -3.63641 -0.46484 0
M  V30 7061 H 649.872 -4.11376 -2.89445 0
M  V30 7062 H 649.572 -5.56058 -1.89929 0
M  V30 7063 H 651.096 -5.4156 -2.82038 0
M  V30 7064 H 652.51 -5.70485 -0.567438 0
M  V30 7065 H 650.907 -5.99867 0.167167 0
M  V30 7066 H 651.977 -4.77078 0.867447 0
M  V30 7067 N 653.32 -0.135238 -1.57019 0
M  V30 7068 C 654.27 0.820408 -2.12728 0
M  V30 7069 C 655.254 1.21735 -1.05211 0
M  V30 7070 O 656.446 1.18574 -1.31413 0
M  V30 7071 C 653.575 2.06414 -2.74314 0
M  V30 7072 C 652.661 1.69083 -3.88937 0
M  V30 7073 N 653.052 1.0251 -4.95303 0
M  V30 7074 C 651.35 1.98434 -3.99425 0
M  V30 7075 C 652.051 0.846749 -5.75504 0
M  V30 7076 N 651.027 1.3769 -5.25873 0
M  V30 7077 H 654.829 0.302426 -2.9234 0
M  V30 7078 H 652.343 0.0667009 -1.62263 0
M  V30 7079 H 654.34 2.75863 -3.12579 0
M  V30 7080 H 653 2.58741 -1.96171 0
M  V30 7081 H 654.011 0.687207 -5.1332 0
M  V30 7082 H 650.688 2.52693 -3.32344 0
M  V30 7083 H 652.078 0.322949 -6.71123 0
M  V30 7084 N 654.798 1.5699 0.138552 0
M  V30 7085 C 656.023 1.88344 0.86841 0
M  V30 7086 C 656.448 0.725159 1.7356 0
M  V30 7087 O 655.806 -0.324992 1.78363 0
M  V30 7088 C 655.854 3.18334 1.69398 0
M  V30 7089 O 654.958 3.02863 2.79907 0
M  V30 7090 H 654.299 0.618577 0.241367 0
M  V30 7091 H 656.829 2.04207 0.126826 0
M  V30 7092 H 656.839 3.50567 2.08726 0
M  V30 7093 H 655.514 4.02238 1.05725 0
M  V30 7094 H 654.091 2.82056 2.43924 0
M  V30 7095 N 656.276 -0.40816 1.52223 0
M  V30 7096 C 657.223 -1.49737 1.75635 0
M  V30 7097 C 658.193 -1.5493 0.598824 0
M  V30 7098 O 659.378 -1.71487 0.83648 0
M  V30 7099 C 656.518 -2.87174 1.91376 0
M  V30 7100 C 655.631 -2.91283 3.19027 0
M  V30 7101 C 654.766 -4.20026 3.25195 0
M  V30 7102 C 653.805 -4.18113 4.47044 0
M  V30 7103 N 652.942 -5.38429 4.50598 0
M  V30 7104 H 657.782 -1.29075 2.68596 0
M  V30 7105 H 655.319 -0.626518 1.33091 0
M  V30 7106 H 657.277 -3.66959 1.98486 0
M  V30 7107 H 655.907 -3.06329 1.01795 0
M  V30 7108 H 654.959 -2.03984 3.21084 0
M  V30 7109 H 656.271 -2.85734 4.08849 0
M  V30 7110 H 655.425 -5.08204 3.31382 0
M  V30 7111 H 654.164 -4.28271 2.33313 0
M  V30 7112 H 653.169 -3.28325 4.41002 0
M  V30 7113 H 654.394 -4.11507 5.40221 0
M  V30 7114 H 652.34 -5.4734 3.616 0
M  V30 7115 H 652.257 -5.34879 5.34266 0
M  V30 7116 H 653.525 -6.28557 4.61016 0
M  V30 7117 N 657.755 -1.42862 -0.66545 0
M  V30 7118 C 659.171 -1.25993 -0.979687 0
M  V30 7119 C 659.371 -0.170831 -2.00775 0
M  V30 7120 O 658.427 0.454827 -2.4837 0
M  V30 7121 C 659.74 -2.62005 -1.47559 0
M  V30 7122 C 661.288 -2.69437 -1.59288 0
M  V30 7123 C 661.763 -4.05838 -2.12272 0
M  V30 7124 N 663.254 -4.0784 -2.19592 0
M  V30 7125 C 663.989 -5.10205 -2.61684 0
M  V30 7126 N 663.485 -6.22949 -3.03161 0
M  V30 7127 N 665.278 -4.9756 -2.61516 0
M  V30 7128 H 657.429 -2.12395 0.0150493 0
M  V30 7129 H 659.692 -0.946355 -0.0558187 0
M  V30 7130 H 659.398 -3.42605 -0.794654 0
M  V30 7131 H 659.272 -2.86566 -2.45275 0
M  V30 7132 H 661.659 -1.89178 -2.26486 0
M  V30 7133 H 661.74 -2.48655 -0.600374 0
M  V30 7134 H 661.384 -4.86559 -1.4568 0
M  V30 7135 H 661.314 -4.23977 -3.12331 0
M  V30 7136 H 663.805 -3.26452 -1.90361 0
M  V30 7137 H 664.118 -6.96899 -3.33993 0
M  V30 7138 H 662.463 -6.2644 -3.00995 0
M  V30 7139 H 665.654 -4.08551 -2.28481 0
M  V30 7140 H 665.827 -5.77468 -2.93999 0
M  V30 7141 N 659.233 0.902656 -1.29189 0
M  V30 7142 C 660.181 2.0278 -1.13943 0
M  V30 7143 C 661.175 1.69308 -0.055787 0
M  V30 7144 O 662.381 1.78707 -0.215371 0
M  V30 7145 H 658.756 0.664595 -0.351877 0
M  V30 7146 H 660.727 2.12778 -2.09208 0
M  V30 7147 C 659.476 3.37657 -0.82966 0
M  V30 7148 H 658.799 3.63913 -1.65551 0
M  V30 7149 H 660.239 4.17078 -0.762998 0
M  V30 7150 C 658.698 3.33648 0.466991 0
M  V30 7151 O 659.228 3.72886 1.49395 0
M  V30 7152 N 657.434 2.86745 0.471761 0
M  V30 7153 H 656.981 2.55009 -0.364406 0
M  V30 7154 H 656.939 2.84446 1.33933 0
M  V30 7155 N 660.711 1.11618 1.11262 0
M  V30 7156 C 661.959 0.864469 1.82678 0
M  V30 7157 C 662.28 -0.611564 1.85162 0
M  V30 7158 O 661.55 -1.44429 1.32352 0
M  V30 7159 H 660.13 0.316821 0.676486 0
M  V30 7160 H 662.792 1.40894 1.34666 0
M  V30 7161 H 661.888 1.23832 2.86482 0
M  V30 7162 N 662.189 -1.289 0.906776 0
M  V30 7163 C 663.119 -2.29932 0.406659 0
M  V30 7164 C 664.1 -1.6189 -0.522061 0
M  V30 7165 O 665.285 -1.8935 -0.431283 0
M  V30 7166 C 662.415 -3.45425 -0.360366 0
M  V30 7167 C 661.369 -4.25316 0.478574 0
M  V30 7168 C 660.695 -5.33076 -0.416373 0
M  V30 7169 C 661.995 -4.92739 1.7322 0
M  V30 7170 H 663.689 -2.72013 1.25097 0
M  V30 7171 H 661.235 -1.30768 0.602977 0
M  V30 7172 H 663.188 -4.15186 -0.721029 0
M  V30 7173 H 661.912 -3.02206 -1.23852 0
M  V30 7174 H 660.571 -3.57273 0.821662 0
M  V30 7175 H 660.219 -4.86101 -1.29287 0
M  V30 7176 H 659.919 -5.8743 0.141309 0
M  V30 7177 H 661.443 -6.05686 -0.773072 0
M  V30 7178 H 662.857 -5.54898 1.44086 0
M  V30 7179 H 661.254 -5.57057 2.23175 0
M  V30 7180 H 662.324 -4.17625 2.46408 0
M  V30 7181 N 663.667 -0.670007 -1.42649 0
M  V30 7182 C 664.597 -0.00258501 -2.335 0
M  V30 7183 C 665.578 0.794364 -1.50412 0
M  V30 7184 O 666.763 0.75248 -1.79029 0
M  V30 7185 C 663.893 0.952748 -3.33976 0
M  V30 7186 C 662.847 0.264733 -4.2718 0
M  V30 7187 C 662.173 1.33267 -5.17826 0
M  V30 7188 C 663.473 -0.853289 -5.15283 0
M  V30 7189 H 665.167 -0.761326 -2.89559 0
M  V30 7190 H 662.713 -0.367561 -1.3923 0
M  V30 7191 H 664.666 1.4287 -3.96442 0
M  V30 7192 H 663.39 1.74285 -2.7621 0
M  V30 7193 H 662.049 -0.190938 -3.66102 0
M  V30 7194 H 661.697 2.11464 -4.5639 0
M  V30 7195 H 661.397 0.877476 -5.81011 0
M  V30 7196 H 662.921 1.80965 -5.83167 0
M  V30 7197 H 664.335 -0.458763 -5.71462 0
M  V30 7198 H 662.732 -1.23398 -5.87276 0
M  V30 7199 H 663.802 -1.70412 -4.53969 0
M  V30 7200 N 665.145 1.52092 -0.413018 0
M  V30 7201 C 666.093 2.28681 0.425199 0
M  V30 7202 C 667.087 1.3353 1.04241 0
M  V30 7203 O 668.293 1.50973 0.980166 0
M  V30 7204 H 664.668 0.735661 0.155906 0
M  V30 7205 H 666.639 2.97418 -0.241926 0
M  V30 7206 C 665.388 3.1235 1.5275 0
M  V30 7207 H 664.711 3.85439 1.06191 0
M  V30 7208 H 666.151 3.69038 2.08774 0
M  V30 7209 C 664.61 2.26161 2.49706 0
M  V30 7210 O 665.14 1.90452 3.53682 0
M  V30 7211 N 663.346 1.89854 2.20008 0
M  V30 7212 H 662.893 2.19092 1.35486 0
M  V30 7213 H 662.851 1.3248 2.85125 0
M  V30 7214 N 666.623 0.143563 1.56945 0
M  V30 7215 C 667.533 -0.810562 2.20152 0
M  V30 7216 C 668.549 -1.27431 1.1848 0
M  V30 7217 O 669.725 -1.33221 1.51044 0
M  V30 7218 C 666.79 -2.03353 2.80799 0
M  V30 7219 C 665.851 -1.61936 3.97587 0
M  V30 7220 C 665.084 -2.78403 4.55332 0
M  V30 7221 O 665.307 -3.94521 4.11958 0
M  V30 7222 O 664.241 -2.54073 5.45647 0
M  V30 7223 H 668.067 -0.30253 3.02189 0
M  V30 7224 H 665.652 -0.0832925 1.49168 0
M  V30 7225 H 667.534 -2.74932 3.19359 0
M  V30 7226 H 666.209 -2.53116 2.01777 0
M  V30 7227 H 665.116 -0.873904 3.6375 0
M  V30 7228 H 666.449 -1.16892 4.78118 0
M  V30 7229 N 668.101 -1.57061 -0.130224 0
M  V30 7230 C 669.064 -1.98593 -1.14426 0
M  V30 7231 C 670.064 -0.874584 -1.34936 0
M  V30 7232 O 671.254 -1.14086 -1.31643 0
M  V30 7233 C 668.386 -2.31639 -2.50112 0
M  V30 7234 H 669.579 -2.89374 -0.787561 0
M  V30 7235 H 667.132 -1.51756 -0.374146 0
M  V30 7236 H 667.867 -1.43703 -2.90723 0
M  V30 7237 H 667.652 -3.12684 -2.36583 0
M  V30 7238 H 669.142 -2.64551 -3.23114 0
M  V30 7239 N 669.579 0.400081 -1.52437 0
M  V30 7240 C 670.509 1.4947 -1.7939 0
M  V30 7241 C 671.49 1.57383 -0.645329 0
M  V30 7242 O 672.675 1.72511 -0.891826 0
M  V30 7243 C 669.805 2.87201 -1.95276 0
M  V30 7244 C 668.759 2.94134 -3.10917 0
M  V30 7245 C 668.085 4.34207 -3.1204 0
M  V30 7246 C 669.385 2.64791 -4.50203 0
M  V30 7247 H 671.079 1.27165 -2.71052 0
M  V30 7248 H 668.625 0.610312 -1.30427 0
M  V30 7249 H 670.578 3.63772 -2.12715 0
M  V30 7250 H 669.302 3.10819 -1.00294 0
M  V30 7251 H 667.961 2.20009 -2.93243 0
M  V30 7252 H 667.609 4.54848 -2.14761 0
M  V30 7253 H 667.309 4.39768 -3.89715 0
M  V30 7254 H 668.833 5.127 -3.31619 0
M  V30 7255 H 670.247 3.31083 -4.68035 0
M  V30 7256 H 668.644 2.81717 -5.29864 0
M  V30 7257 H 669.714 1.60184 -4.57678 0
M  V30 7258 N 671.057 1.43213 0.657864 0
M  V30 7259 C 671.967 1.50448 1.80007 0
M  V30 7260 C 672.983 0.39191 1.69529 0
M  V30 7261 O 674.159 0.645349 1.90781 0
M  V30 7262 C 671.224 1.42062 3.16258 0
M  V30 7263 C 670.285 2.63951 3.38568 0
M  V30 7264 C 669.518 2.55956 4.68318 0
M  V30 7265 O 669.741 1.60473 5.47361 0
M  V30 7266 O 668.675 3.46378 4.92245 0
M  V30 7267 H 672.501 2.4689 1.76858 0
M  V30 7268 H 670.086 1.25163 0.81576 0
M  V30 7269 H 671.968 1.3981 3.97531 0
M  V30 7270 H 670.643 0.487524 3.20008 0
M  V30 7271 H 669.55 2.71776 2.57077 0
M  V30 7272 H 670.883 3.56217 3.39662 0
M  V30 7273 N 672.536 -0.895792 1.29666 0
M  V30 7274 C 673.466 -2.01673 1.17688 0
M  V30 7275 C 674.447 -1.69955 0.0701317 0
M  V30 7276 O 675.632 -1.9258 0.250289 0
M  V30 7277 C 672.762 -3.36568 0.856681 0
M  V30 7278 C 671.716 -3.82509 1.92017 0
M  V30 7279 C 671.042 -5.14574 1.4532 0
M  V30 7280 C 672.342 -4.02409 3.32963 0
M  V30 7281 H 674.036 -2.11953 2.11463 0
M  V30 7282 H 671.582 -1.01839 1.01807 0
M  V30 7283 H 673.535 -4.14498 0.759577 0
M  V30 7284 H 672.259 -3.26391 -0.116763 0
M  V30 7285 H 670.918 -3.068 2.00673 0
M  V30 7286 H 670.566 -5.00815 0.468325 0
M  V30 7287 H 670.266 -5.46283 2.16447 0
M  V30 7288 H 671.79 -5.9504 1.36968 0
M  V30 7289 H 673.204 -4.70808 3.27127 0
M  V30 7290 H 671.601 -4.45478 4.02082 0
M  V30 7291 H 672.671 -3.06616 3.75652 0
M  V30 7292 N 674.014 -1.12206 -1.10668 0
M  V30 7293 C 675.242 -0.898635 -1.86366 0
M  V30 7294 C 675.657 0.551991 -1.80551 0
M  V30 7295 O 675.014 1.38152 -1.19249 0
M  V30 7296 C 675.065 -1.36199 -3.34861 0
M  V30 7297 O 674.786 -2.75576 -3.40573 0
M  V30 7298 C 676.287 -1.17515 -4.2744 0
M  V30 7299 H 673.507 -0.321281 -0.589084 0
M  V30 7300 H 676.051 -1.49142 -1.39918 0
M  V30 7301 H 674.206 -0.81249 -3.78784 0
M  V30 7302 H 674.62 -2.95851 -4.33096 0
M  V30 7303 H 676.094 -1.54827 -5.29842 0
M  V30 7304 H 676.571 -0.115486 -4.39048 0
M  V30 7305 H 677.177 -1.71203 -3.89319 0
M  V30 7306 N 675.492 1.28418 -0.913599 0
M  V30 7307 C 676.74 1.94596 -0.545594 0
M  V30 7308 C 677.061 1.7227 0.913668 0
M  V30 7309 O 676.331 1.06233 1.64595 0
M  V30 7310 H 674.911 0.720065 -0.198783 0
M  V30 7311 H 677.573 1.56404 -1.16292 0
M  V30 7312 H 676.669 3.03202 -0.739911 0
M  V30 7313 N 676.97 0.677563 1.42291 0
M  V30 7314 C 678.198 0.209459 2.05837 0
M  V30 7315 C 678.613 -1.13444 1.50917 0
M  V30 7316 O 677.97 -1.70529 0.65008 0
M  V30 7317 C 678.021 0.138819 3.61233 0
M  V30 7318 O 677.742 1.42962 4.14118 0
M  V30 7319 C 679.243 -0.352449 4.41897 0
M  V30 7320 H 676.463 0.101209 0.663323 0
M  V30 7321 H 679.007 0.925077 1.8238 0
M  V30 7322 H 677.162 -0.527505 3.83792 0
M  V30 7323 H 677.576 1.3048 5.08011 0
M  V30 7324 H 679.05 -0.350778 5.50884 0
M  V30 7325 H 679.527 -1.3882 4.16684 0
M  V30 7326 H 680.133 0.282236 4.24362 0
M  V30 7327 N 678.448 -1.51871 0.421078 0
M  V30 7328 C 679.859 -1.86644 -0.0457991 0
M  V30 7329 C 680.21 -1.33919 -1.43388 0
M  V30 7330 O 679.335 -0.683316 -2.05328 0
M  V30 7331 C 679.93 -3.38681 -0.0898844 0
M  V30 7332 C 678.489 -3.73049 -0.501127 0
M  V30 7333 C 677.636 -2.75485 0.316723 0
M  V30 7334 H 680.587 -1.45327 0.637635 0
M  V30 7335 H 680.608 -3.69636 -0.902734 0
M  V30 7336 H 680.12 -3.77025 0.920513 0
M  V30 7337 H 678.221 -3.40288 -1.51773 0
M  V30 7338 H 678.334 -4.78512 -0.237217 0
M  V30 7339 H 676.698 -2.53725 -0.222663 0
M  V30 7340 H 677.481 -3.16671 1.32569 0
M  V30 7341 N 679.926 -0.151884 -1.56866 0
M  V30 7342 C 680.836 0.798876 -2.20579 0
M  V30 7343 C 681.852 1.268 -1.19154 0
M  V30 7344 O 683.028 1.32418 -1.51748 0
M  V30 7345 C 680.093 2.01861 -2.81874 0
M  V30 7346 C 679.154 1.59825 -3.9844 0
M  V30 7347 C 678.387 2.75984 -4.56802 0
M  V30 7348 O 678.61 3.92331 -4.14044 0
M  V30 7349 O 677.544 2.51175 -5.46987 0
M  V30 7350 H 681.37 0.2865 -3.02346 0
M  V30 7351 H 678.955 0.0753806 -1.4921 0
M  V30 7352 H 680.837 2.73235 -3.20813 0
M  V30 7353 H 679.512 2.52042 -2.03117 0
M  V30 7354 H 678.419 0.854601 -3.64208 0
M  V30 7355 H 679.752 1.14355 -4.78731 0
M  V30 7356 N 681.404 1.57128 0.121893 0
M  V30 7357 C 682.314 2.03425 1.16857 0
M  V30 7358 C 683.33 0.954108 1.45509 0
M  V30 7359 O 684.506 1.26541 1.56682 0
M  V30 7360 C 681.571 2.42685 2.47599 0
M  V30 7361 C 680.632 3.64767 2.2637 0
M  V30 7362 C 679.865 4.02145 3.50878 0
M  V30 7363 O 680.088 3.39897 4.58068 0
M  V30 7364 O 679.022 4.95262 3.42051 0
M  V30 7365 H 682.848 2.92825 0.80544 0
M  V30 7366 H 680.433 1.45654 0.332477 0
M  V30 7367 H 682.315 2.68684 3.24634 0
M  V30 7368 H 680.99 1.56432 2.83392 0
M  V30 7369 H 679.897 3.43922 1.47203 0
M  V30 7370 H 681.23 4.51716 1.95482 0
M  V30 7371 N 682.882 -0.391992 1.52647 0
M  V30 7372 C 683.792 -1.503 1.80131 0
M  V30 7373 C 684.808 -1.59825 0.687882 0
M  V30 7374 O 685.984 -1.76218 0.975149 0
M  V30 7375 C 683.049 -2.85863 1.96171 0
M  V30 7376 C 682.11 -2.86084 3.20085 0
M  V30 7377 C 681.343 -4.15181 3.35351 0
M  V30 7378 O 681.566 -5.09981 2.55491 0
M  V30 7379 O 680.5 -4.22603 4.28591 0
M  V30 7380 H 684.326 -1.30007 2.74466 0
M  V30 7381 H 681.911 -0.579539 1.37701 0
M  V30 7382 H 683.793 -3.66236 2.08445 0
M  V30 7383 H 682.468 -3.06189 1.05025 0
M  V30 7384 H 681.375 -2.04504 3.13256 0
M  V30 7385 H 682.708 -2.7071 4.11068 0
M  V30 7386 N 684.36 -1.4356 -0.65026 0
M  V30 7387 C 685.31 -1.45392 -1.75628 0
M  V30 7388 C 686.294 -0.322006 -1.57645 0
M  V30 7389 O 687.486 -0.565996 -1.67707 0
M  V30 7390 C 684.615 -1.38254 -3.1423 0
M  V30 7391 C 683.701 -2.56487 -3.3775 0
M  V30 7392 N 684.092 -3.81824 -3.31729 0
M  V30 7393 C 682.39 -2.51274 -3.6848 0
M  V30 7394 C 683.091 -4.60497 -3.55412 0
M  V30 7395 N 682.067 -3.91274 -3.77367 0
M  V30 7396 H 685.869 -2.40167 -1.69402 0
M  V30 7397 H 683.383 -1.38254 -0.852037 0
M  V30 7398 H 685.38 -1.3765 -3.9352 0
M  V30 7399 H 684.04 -0.445019 -3.21636 0
M  V30 7400 H 685.051 -4.14069 -3.11074 0
M  V30 7401 H 681.728 -1.66223 -3.82983 0
M  V30 7402 H 683.118 -5.69518 -3.5651 0
M  V30 7403 N 685.838 0.888903 -1.30139 0
M  V30 7404 C 686.771 1.99655 -1.10514 0
M  V30 7405 C 687.749 1.62594 -0.0138934 0
M  V30 7406 O 688.933 1.87762 -0.166689 0
M  V30 7407 C 686.06 3.31708 -0.684655 0
M  V30 7408 C 685.106 3.87755 -1.77619 0
M  V30 7409 S 685.939 4.15532 -3.37777 0
M  V30 7410 C 687.095 5.5061 -2.97622 0
M  V30 7411 H 687.328 2.15996 -2.04287 0
M  V30 7412 H 684.861 1.03682 -1.14409 0
M  V30 7413 H 686.819 4.08039 -0.448782 0
M  V30 7414 H 685.48 3.1323 0.233648 0
M  V30 7415 H 684.673 4.83164 -1.43417 0
M  V30 7416 H 684.275 3.18149 -1.96614 0
M  V30 7417 H 686.567 6.31518 -2.45338 0
M  V30 7418 H 687.51 5.89747 -3.91924 0
M  V30 7419 H 687.918 5.12983 -2.35603 0
M  V30 7420 N 687.317 1.12792 1.10072 0
M  V30 7421 C 688.565 0.883796 1.81751 0
M  V30 7422 C 688.886 -0.591891 1.858 0
M  V30 7423 O 688.156 -1.43017 1.33876 0
M  V30 7424 H 686.736 0.323978 0.673088 0
M  V30 7425 H 689.398 1.42314 1.33164 0
M  V30 7426 H 688.494 1.26863 2.85153 0
M  V30 7427 N 688.795 -1.27931 0.920396 0
M  V30 7428 C 689.742 -2.27085 0.412422 0
M  V30 7429 C 690.712 -1.57858 -0.516725 0
M  V30 7430 O 691.897 -1.85717 -0.437475 0
M  V30 7431 C 689.037 -3.43466 -0.335399 0
M  V30 7432 C 688.15 -4.27425 0.627017 0
M  V30 7433 C 687.285 -5.31016 -0.139916 0
M  V30 7434 C 686.324 -6.06641 0.815683 0
M  V30 7435 N 685.461 -7.02052 0.0818439 0
M  V30 7436 H 690.301 -2.69913 1.26298 0
M  V30 7437 H 687.838 -1.32732 0.634076 0
M  V30 7438 H 689.796 -4.09744 -0.785226 0
M  V30 7439 H 688.426 -3.01611 -1.15025 0
M  V30 7440 H 687.478 -3.6113 1.19537 0
M  V30 7441 H 688.79 -4.79969 1.35763 0
M  V30 7442 H 687.944 -6.03208 -0.649998 0
M  V30 7443 H 686.683 -4.79257 -0.903543 0
M  V30 7444 H 685.688 -5.33294 1.33708 0
M  V30 7445 H 686.913 -6.60489 1.57897 0
M  V30 7446 H 684.859 -6.52634 -0.663671 0
M  V30 7447 H 684.776 -7.52249 0.752163 0
M  V30 7448 H 686.044 -7.78432 -0.407825 0
M  V30 7449 N 690.273 -0.685099 -1.4193 0
M  V30 7450 C 691.501 -0.220372 -2.05723 0
M  V30 7451 C 691.916 1.12642 -1.51516 0
M  V30 7452 O 691.273 1.70182 -0.659114 0
M  V30 7453 C 691.324 -0.157974 -3.61155 0
M  V30 7454 O 691.045 -1.45156 -4.13354 0
M  V30 7455 C 692.546 0.329009 -4.42077 0
M  V30 7456 H 689.766 -0.104725 -0.662777 0
M  V30 7457 H 692.31 -0.934736 -1.81887 0
M  V30 7458 H 690.465 0.507144 -3.84066 0
M  V30 7459 H 690.879 -1.33172 -5.07312 0
M  V30 7460 H 692.353 0.321559 -5.51063 0
M  V30 7461 H 692.83 1.36608 -4.17414 0
M  V30 7462 H 693.436 -0.304737 -4.24207 0
M  V30 7463 N 691.751 1.51645 -0.429126 0
M  V30 7464 C 692.979 2.06433 0.138994 0
M  V30 7465 C 693.394 1.29735 1.37165 0
M  V30 7466 O 692.751 0.354638 1.79021 0
M  V30 7467 C 692.802 3.58439 0.469452 0
M  V30 7468 O 692.523 4.32238 -0.714273 0
M  V30 7469 C 694.024 4.29712 1.08914 0
M  V30 7470 H 691.244 0.6709 0.0115608 0
M  V30 7471 H 693.788 1.9532 -0.605843 0
M  V30 7472 H 691.943 3.69494 1.16419 0
M  V30 7473 H 692.357 5.22704 -0.433633 0
M  V30 7474 H 693.831 5.37182 1.27042 0
M  V30 7475 H 694.308 3.87473 2.06788 0
M  V30 7476 H 694.914 4.2308 0.434028 0
M  V30 7477 N 693.229 0.160201 1.56784 0
M  V30 7478 C 694.454 -0.497373 2.01348 0
M  V30 7479 C 694.879 -1.56757 1.03966 0
M  V30 7480 O 694.237 -1.81292 0.0174455 0
M  V30 7481 C 694.285 -1.0628 3.44582 0
M  V30 7482 O 693.389 -2.17723 3.50244 0
M  V30 7483 H 692.73 -0.120295 0.653012 0
M  V30 7484 H 695.26 0.260821 2.02931 0
M  V30 7485 H 695.27 -1.38819 3.83658 0
M  V30 7486 H 693.945 -0.279166 4.14962 0
M  V30 7487 H 692.522 -1.86313 3.2302 0
M  V30 7488 N 694.707 -1.5719 -0.113559 0
M  V30 7489 C 695.637 -2.03772 -1.14013 0
M  V30 7490 C 696.618 -0.923176 -1.42869 0
M  V30 7491 O 697.803 -1.19325 -1.53216 0
M  V30 7492 C 694.933 -2.44663 -2.4649 0
M  V30 7493 C 693.887 -3.59612 -2.32085 0
M  V30 7494 C 693.213 -3.8642 -3.69573 0
M  V30 7495 C 694.513 -4.91149 -1.7768 0
M  V30 7496 H 696.207 -2.89785 -0.752665 0
M  V30 7497 H 693.753 -1.39412 -0.360609 0
M  V30 7498 H 695.706 -2.75857 -3.18561 0
M  V30 7499 H 694.43 -1.55628 -2.87137 0
M  V30 7500 H 693.089 -3.28636 -1.62461 0
M  V30 7501 H 692.737 -2.94581 -4.07715 0
M  V30 7502 H 692.437 -4.63797 -3.60786 0
M  V30 7503 H 693.961 -4.2007 -4.4314 0
M  V30 7504 H 695.375 -5.20843 -2.39574 0
M  V30 7505 H 693.772 -5.72562 -1.79701 0
M  V30 7506 H 694.842 -4.79301 -0.734776 0
M  V30 7507 N 696.185 0.383891 -1.52853 0
M  V30 7508 C 697.434 1.12563 -1.67369 0
M  V30 7509 C 697.747 1.90982 -0.422533 0
M  V30 7510 O 698.953 2.6778 -0.447914 0
M  V30 7511 C 697.409 2.05011 -2.95801 0
M  V30 7512 C 697.017 1.31991 -4.28115 0
M  V30 7513 C 698.761 2.79289 -3.19684 0
M  V30 7514 C 696.668 2.23235 -5.4765 0
M  V30 7515 H 695.598 0.42391 -0.623552 0
M  V30 7516 H 698.249 0.388016 -1.79351 0
M  V30 7517 H 696.631 2.82429 -2.77578 0
M  V30 7518 H 697.805 0.597633 -4.56908 0
M  V30 7519 H 696.12 0.696517 -4.10533 0
M  V30 7520 H 698.717 3.47749 -4.06171 0
M  V30 7521 H 699.06 3.43649 -2.3497 0
M  V30 7522 H 699.593 2.08962 -3.38496 0
M  V30 7523 H 696.332 1.63482 -6.34786 0
M  V30 7524 H 695.852 2.93364 -5.23161 0
M  V30 7525 H 697.531 2.83205 -5.81725 0
M  V30 7526 N 697.663 1.43903 0.642637 0
M  V30 7527 C 698.573 1.52349 1.78401 0
M  V30 7528 C 699.589 0.409869 1.69104 0
M  V30 7529 O 700.765 0.665548 1.90085 0
M  V30 7530 C 697.83 1.45408 3.14734 0
M  V30 7531 C 696.891 2.67528 3.35749 0
M  V30 7532 C 696.124 2.60909 4.65577 0
M  V30 7533 O 696.347 1.6627 5.45628 0
M  V30 7534 O 695.281 3.5158 4.88544 0
M  V30 7535 H 699.107 2.48752 1.7423 0
M  V30 7536 H 696.692 1.26021 0.802439 0
M  V30 7537 H 698.574 1.44019 3.96026 0
M  V30 7538 H 697.249 0.521437 3.19473 0
M  V30 7539 H 696.156 2.74487 2.5418 0
M  V30 7540 H 697.489 3.598 3.35864 0
M  V30 7541 N 699.141 -0.881989 1.30609 0
M  V30 7542 C 700.366 -1.67236 1.22665 0
M  V30 7543 C 700.791 -1.8696 -0.206777 0
M  V30 7544 O 700.149 -1.4027 -1.14865 0
M  V30 7545 C 700.197 -3.02446 1.96363 0
M  V30 7546 O 699.301 -3.91614 1.29276 0
M  V30 7547 H 698.642 -0.510902 0.424117 0
M  V30 7548 H 701.172 -1.10055 1.72479 0
M  V30 7549 H 701.182 -3.52468 2.055 0
M  V30 7550 H 699.857 -2.8741 3.00613 0
M  V30 7551 H 698.434 -3.50055 1.28514 0
M  V30 7552 N 700.619 -1.13374 -1.09472 0
M  V30 7553 C 701.551 -0.768466 -2.15933 0
M  V30 7554 C 702.564 0.209585 -1.61445 0
M  V30 7555 O 703.753 -0.010539 -1.78497 0
M  V30 7556 C 700.853 -0.118266 -3.38694 0
M  V30 7557 C 700.026 -1.12829 -4.22597 0
M  V30 7558 C 699.085 -0.503875 -5.23782 0
M  V30 7559 O 698.111 -1.16374 -5.57177 0
M  V30 7560 N 699.313 0.724288 -5.75964 0
M  V30 7561 H 702.078 -1.68457 -2.47876 0
M  V30 7562 H 699.639 -1.02668 -1.25183 0
M  V30 7563 H 701.631 0.311698 -4.03498 0
M  V30 7564 H 700.201 0.700769 -3.04644 0
M  V30 7565 H 699.421 -1.73556 -3.53938 0
M  V30 7566 H 700.709 -1.81095 -4.75481 0
M  V30 7567 H 700.107 1.27918 -5.51048 0
M  V30 7568 H 698.664 1.09692 -6.42504 0
M  V30 7569 N 702.098 1.27442 -0.927168 0
M  V30 7570 C 703.048 2.24519 -0.396878 0
M  V30 7571 C 704.032 1.52981 0.498555 0
M  V30 7572 O 705.224 1.7378 0.336087 0
M  V30 7573 C 702.353 3.41514 0.349694 0
M  V30 7574 C 701.439 4.20357 -0.562226 0
M  V30 7575 N 701.83 4.7702 -1.68182 0
M  V30 7576 C 700.128 4.44503 -0.365135 0
M  V30 7577 C 700.829 5.36467 -2.24895 0
M  V30 7578 N 699.805 5.21371 -1.5386 0
M  V30 7579 H 703.607 2.65911 -1.25173 0
M  V30 7580 H 701.121 1.42366 -0.78138 0
M  V30 7581 H 703.118 4.10161 0.746536 0
M  V30 7582 H 701.778 3.01653 1.20148 0
M  V30 7583 H 702.789 4.74985 -2.06421 0
M  V30 7584 H 699.466 4.15111 0.446037 0
M  V30 7585 H 700.856 5.91264 -3.1915 0
M  V30 7586 N 703.576 0.692616 1.41565 0
M  V30 7587 C 704.526 0.00231847 2.28 0
M  V30 7588 C 705.51 -0.755793 1.42044 0
M  V30 7589 O 706.702 -0.631772 1.65341 0
M  V30 7590 C 703.831 -0.935468 3.30309 0
M  V30 7591 C 702.917 -0.173761 4.23744 0
M  V30 7592 N 703.308 0.830872 4.98929 0
M  V30 7593 C 701.606 -0.409666 4.44115 0
M  V30 7594 C 702.307 1.28656 5.67294 0
M  V30 7595 N 701.283 0.613053 5.40132 0
M  V30 7596 H 705.085 0.772635 2.83562 0
M  V30 7597 H 702.599 0.523198 1.53741 0
M  V30 7598 H 704.596 -1.44513 3.91052 0
M  V30 7599 H 703.256 -1.70542 2.76307 0
M  V30 7600 H 704.267 1.21101 5.03542 0
M  V30 7601 H 700.944 -1.15773 4.01127 0
M  V30 7602 H 702.334 2.12006 6.37576 0
M  V30 7603 N 705.054 -1.51416 0.437162 0
M  V30 7604 C 706.004 -2.24599 -0.392311 0
M  V30 7605 C 706.988 -1.2682 -0.990221 0
M  V30 7606 O 708.18 -1.51912 -0.908391 0
M  V30 7607 C 705.309 -3.09134 -1.49301 0
M  V30 7608 C 704.395 -4.14342 -0.904503 0
M  V30 7609 N 704.786 -5.0578 -0.0451511 0
M  V30 7610 C 703.084 -4.30323 -1.1721 0
M  V30 7611 C 703.785 -5.81 0.285344 0
M  V30 7612 N 702.761 -5.42591 -0.330993 0
M  V30 7613 H 706.563 -2.92655 0.270221 0
M  V30 7614 H 704.077 -1.60476 0.249226 0
M  V30 7615 H 706.074 -3.6014 -2.10011 0
M  V30 7616 H 704.734 -2.42622 -2.15788 0
M  V30 7617 H 705.745 -5.16903 0.321271 0
M  V30 7618 H 702.422 -3.75037 -1.83448 0
M  V30 7619 H 703.812 -6.64646 0.984626 0
M  V30 7620 N 706.532 -0.168513 -1.56696 0
M  V30 7621 C 707.462 0.758563 -2.20835 0
M  V30 7622 C 708.443 1.24121 -1.1631 0
M  V30 7623 O 709.628 1.29487 -1.4473 0
M  V30 7624 C 706.758 1.9892 -2.8469 0
M  V30 7625 C 705.712 1.64252 -3.95228 0
M  V30 7626 C 705.038 2.94757 -4.46119 0
M  V30 7627 C 706.338 0.872675 -5.14958 0
M  V30 7628 H 708.032 0.223953 -2.98561 0
M  V30 7629 H 705.578 0.106277 -1.43607 0
M  V30 7630 H 707.531 2.64275 -3.28233 0
M  V30 7631 H 706.255 2.5479 -2.04327 0
M  V30 7632 H 704.914 1.01266 -3.52336 0
M  V30 7633 H 704.562 3.48662 -3.62552 0
M  V30 7634 H 704.262 2.72316 -5.2069 0
M  V30 7635 H 705.786 3.61147 -4.92347 0
M  V30 7636 H 707.2 1.42875 -5.55211 0
M  V30 7637 H 705.597 0.747402 -5.95428 0
M  V30 7638 H 706.667 -0.131535 -4.84722 0
M  V30 7639 N 708.01 1.57248 0.105221 0
M  V30 7640 C 708.94 2.04374 1.12931 0
M  V30 7641 C 709.921 0.93074 1.42377 0
M  V30 7642 O 711.106 1.20136 1.52581 0
M  V30 7643 C 708.236 2.45967 2.45189 0
M  V30 7644 C 707.19 3.60838 2.30174 0
M  V30 7645 C 706.516 3.88374 3.67518 0
M  V30 7646 C 707.816 4.92084 1.75073 0
M  V30 7647 H 709.51 2.9018 0.737287 0
M  V30 7648 H 707.056 1.39601 0.353211 0
M  V30 7649 H 709.009 2.77542 3.17094 0
M  V30 7650 H 707.733 1.57148 2.86308 0
M  V30 7651 H 706.392 3.29493 1.60716 0
M  V30 7652 H 706.04 2.96739 4.06147 0
M  V30 7653 H 705.74 4.65703 3.58321 0
M  V30 7654 H 707.264 4.22415 4.40906 0
M  V30 7655 H 708.678 5.22106 2.36809 0
M  V30 7656 H 707.075 5.73507 1.76662 0
M  V30 7657 H 708.145 4.79684 0.709347 0
M  V30 7658 N 709.488 -0.375779 1.53054 0
M  V30 7659 C 710.438 -1.45965 1.75152 0
M  V30 7660 C 711.422 -1.49059 0.605823 0
M  V30 7661 O 712.614 -1.54472 0.864133 0
M  V30 7662 C 709.743 -2.83524 1.93569 0
M  V30 7663 C 708.829 -2.84949 3.1411 0
M  V30 7664 N 709.22 -2.56029 4.36214 0
M  V30 7665 C 707.518 -3.16113 3.14625 0
M  V30 7666 C 708.219 -2.64873 5.17897 0
M  V30 7667 N 707.195 -2.99159 4.53878 0
M  V30 7668 H 710.997 -1.22454 2.67175 0
M  V30 7669 H 708.511 -0.583867 1.51541 0
M  V30 7670 H 710.508 -3.61578 2.07525 0
M  V30 7671 H 709.168 -3.08008 1.02768 0
M  V30 7672 H 710.179 -2.29808 4.64121 0
M  V30 7673 H 706.856 -3.45977 2.3368 0
M  V30 7674 H 708.246 -2.45947 6.25268 0
M  V30 7675 N 710.966 -1.44241 -0.634997 0
M  V30 7676 C 712.206 -1.48339 -1.40623 0
M  V30 7677 C 712.57 -0.111479 -1.91676 0
M  V30 7678 O 713.771 -0.0271345 -2.68786 0
M  V30 7679 C 712.042 -2.51122 -2.54308 0
M  V30 7680 S 713.601 -2.74237 -3.42548 0
M  V30 7681 H 710.419 -0.524715 -0.479787 0
M  V30 7682 H 713.021 -1.81138 -0.735489 0
M  V30 7683 H 711.725 -3.49511 -2.15106 0
M  V30 7684 H 711.256 -2.19883 -3.26213 0
M  V30 7685 H 713.271 -2.0554 -4.51628 0
M  V30 7686 N 712.444 0.87505 -1.31075 0
M  V30 7687 C 713.374 1.99775 -1.20881 0
M  V30 7688 C 714.355 1.69822 -0.0971612 0
M  V30 7689 O 715.54 1.92158 -0.280895 0
M  V30 7690 C 712.67 3.35163 -0.910118 0
M  V30 7691 C 711.624 3.79406 -1.98078 0
M  V30 7692 C 710.95 5.12197 -1.53488 0
M  V30 7693 C 712.25 3.97061 -3.39323 0
M  V30 7694 H 713.944 2.08562 -2.14808 0
M  V30 7695 H 711.49 1.00207 -1.03415 0
M  V30 7696 H 713.443 4.13237 -0.825423 0
M  V30 7697 H 712.167 3.26536 0.064822 0
M  V30 7698 H 710.826 3.03568 -2.05528 0
M  V30 7699 H 710.474 5.00007 -0.547941 0
M  V30 7700 H 710.174 5.4277 -2.2511 0
M  V30 7701 H 711.698 5.92785 -1.46417 0
M  V30 7702 H 713.112 4.65545 -3.34576 0
M  V30 7703 H 711.509 4.39025 -4.09118 0
M  V30 7704 H 712.579 3.00601 -3.80483 0
M  V30 7705 N 713.922 1.13953 1.08869 0
M  V30 7706 C 714.832 0.835666 2.19212 0
M  V30 7707 C 715.848 -0.182005 1.73045 0
M  V30 7708 O 717.024 -0.0116661 2.01397 0
M  V30 7709 C 714.089 0.312325 3.4529 0
M  V30 7710 C 713.15 1.39196 4.06107 0
M  V30 7711 C 712.383 0.893496 5.26168 0
M  V30 7712 O 712.606 -0.266807 5.69776 0
M  V30 7713 O 711.54 1.67037 5.78258 0
M  V30 7714 H 715.366 1.75769 2.47667 0
M  V30 7715 H 712.951 0.917421 1.17914 0
M  V30 7716 H 714.833 0.0261582 4.21392 0
M  V30 7717 H 713.508 -0.582042 3.18424 0
M  V30 7718 H 712.415 1.73152 3.31616 0
M  V30 7719 H 713.748 2.26068 4.37212 0
M  V30 7720 N 715.4 -1.26948 0.933913 0
M  V30 7721 C 716.347 -2.26635 0.436484 0
M  V30 7722 C 717.317 -1.58397 -0.499953 0
M  V30 7723 O 718.502 -1.86171 -0.417753 0
M  V30 7724 C 715.642 -3.43803 -0.298951 0
M  V30 7725 C 714.755 -4.26736 0.672316 0
M  V30 7726 C 713.89 -5.31134 -0.0835872 0
M  V30 7727 C 712.929 -6.05742 0.879979 0
M  V30 7728 N 712.066 -7.01926 0.156301 0
M  V30 7729 H 716.906 -2.68558 1.29154 0
M  V30 7730 H 714.443 -1.32052 0.648118 0
M  V30 7731 H 716.401 -4.10554 -0.741723 0
M  V30 7732 H 715.031 -3.02814 -1.1182 0
M  V30 7733 H 714.083 -3.59842 1.23361 0
M  V30 7734 H 715.395 -4.78502 1.40846 0
M  V30 7735 H 714.549 -6.03863 -0.585984 0
M  V30 7736 H 713.288 -4.80188 -0.852661 0
M  V30 7737 H 712.293 -5.31846 1.39357 0
M  V30 7738 H 713.518 -6.58777 1.64894 0
M  V30 7739 H 711.464 -6.53301 -0.594413 0
M  V30 7740 H 711.381 -7.51409 0.831906 0
M  V30 7741 H 712.649 -7.78821 -0.325239 0
M  V30 7742 N 716.879 -0.700114 -1.41195 0
M  V30 7743 C 718.107 -0.242179 -2.05478 0
M  V30 7744 C 718.522 1.11029 -1.52702 0
M  V30 7745 O 717.879 1.69473 -0.677127 0
M  V30 7746 C 717.93 -0.196271 -3.60967 0
M  V30 7747 O 717.651 -1.49532 -4.11791 0
M  V30 7748 C 719.152 0.282102 -4.42401 0
M  V30 7749 H 716.372 -0.111749 -0.661629 0
M  V30 7750 H 718.916 -0.953975 -1.80885 0
M  V30 7751 H 717.071 0.46638 -3.84582 0
M  V30 7752 H 717.485 -1.38545 -5.05871 0
M  V30 7753 H 718.959 0.263093 -5.51373 0
M  V30 7754 H 719.436 1.32174 -4.1884 0
M  V30 7755 H 720.042 -0.349712 -4.2386 0
M  V30 7756 N 718.357 1.51182 -0.445186 0
M  V30 7757 C 719.585 2.06568 0.117091 0
M  V30 7758 C 720 1.31182 1.35781 0
M  V30 7759 O 719.357 0.373605 1.78635 0
M  V30 7760 C 719.408 3.58917 0.431408 0
M  V30 7761 O 719.129 4.31456 -0.760078 0
M  V30 7762 C 720.63 4.30843 1.0435 0
M  V30 7763 H 717.85 0.670985 0.00444436 0
M  V30 7764 H 720.394 1.94666 -0.626525 0
M  V30 7765 H 718.549 3.70708 1.12493 0
M  V30 7766 H 718.963 5.22215 -0.489048 0
M  V30 7767 H 720.437 5.38499 1.21337 0
M  V30 7768 H 720.914 3.89644 2.02667 0
M  V30 7769 H 721.52 4.23516 0.38913 0
M  V30 7770 N 719.835 0.176821 1.56605 0
M  V30 7771 C 721.083 -0.465793 1.96659 0
M  V30 7772 C 721.404 -1.63406 1.06412 0
M  V30 7773 O 720.674 -1.95457 0.131603 0
M  V30 7774 H 719.254 -0.175072 0.726195 0
M  V30 7775 H 721.916 0.25929 1.93168 0
M  V30 7776 H 721.012 -0.822138 3.01077 0
M  V30 7777 N 721.313 -1.57302 -0.09688 0
M  V30 7778 C 722.243 -2.0497 -1.11846 0
M  V30 7779 C 723.224 -0.938278 -1.41882 0
M  V30 7780 O 724.409 -1.20943 -1.51942 0
M  V30 7781 C 721.539 -2.47264 -2.43881 0
M  V30 7782 C 720.493 -3.62053 -2.28257 0
M  V30 7783 C 719.819 -3.90318 -3.65453 0
M  V30 7784 C 721.119 -4.93005 -1.72461 0
M  V30 7785 H 722.813 -2.90567 -0.721888 0
M  V30 7786 H 720.359 -1.39786 -0.345803 0
M  V30 7787 H 722.312 -2.7922 -3.15617 0
M  V30 7788 H 721.036 -1.58664 -2.8547 0
M  V30 7789 H 719.695 -3.30341 -1.58967 0
M  V30 7790 H 719.343 -2.98889 -4.04567 0
M  V30 7791 H 719.043 -4.67597 -3.55846 0
M  V30 7792 H 720.567 -4.24747 -4.3866 0
M  V30 7793 H 721.981 -5.23354 -2.34036 0
M  V30 7794 H 720.378 -5.74436 -1.73618 0
M  V30 7795 H 721.448 -4.80053 -0.683898 0
M  V30 7796 N 722.791 0.367657 -1.53252 0
M  V30 7797 C 724.016 1.13566 -1.73544 0
M  V30 7798 C 724.441 1.82329 -0.462344 0
M  V30 7799 O 723.799 1.71655 0.583472 0
M  V30 7800 C 723.847 2.14322 -2.89997 0
M  V30 7801 O 722.951 3.21359 -2.58461 0
M  V30 7802 H 722.292 0.329614 -0.576412 0
M  V30 7803 H 724.822 0.425417 -2.00128 0
M  V30 7804 H 724.832 2.57958 -3.16104 0
M  V30 7805 H 723.507 1.63664 -3.82344 0
M  V30 7806 H 722.084 2.8271 -2.43165 0
M  V30 7807 N 724.269 1.44576 0.627338 0
M  V30 7808 C 725.499 1.50829 1.41189 0
M  V30 7809 C 725.907 0.133083 1.88731 0
M  V30 7810 O 725.25 -0.87199 1.61685 0
M  V30 7811 C 725.312 2.41449 2.66351 0
M  V30 7812 C 724.976 3.88549 2.40579 0
M  V30 7813 C 725.973 4.78981 2.0217 0
M  V30 7814 C 723.658 4.33287 2.54102 0
M  V30 7815 C 725.652 6.12153 1.77618 0
M  V30 7816 C 723.339 5.66505 2.29163 0
M  V30 7817 C 724.337 6.55756 1.9098 0
M  V30 7818 O 724.025 7.86506 1.66321 0
M  V30 7819 H 723.757 0.513797 0.439304 0
M  V30 7820 H 726.311 1.90256 0.774059 0
M  V30 7821 H 724.541 1.96955 3.32784 0
M  V30 7822 H 726.23 2.38608 3.28361 0
M  V30 7823 H 726.996 4.45689 1.91277 0
M  V30 7824 H 722.875 3.64074 2.82792 0
M  V30 7825 H 726.419 6.81776 1.47739 0
M  V30 7826 H 722.316 5.99358 2.39668 0
M  V30 7827 H 723.084 7.98341 1.80536 0
M  V30 7828 N 725.747 -0.868086 1.31537 0
M  V30 7829 C 726.677 -1.99131 1.21939 0
M  V30 7830 C 727.658 -1.69768 0.106166 0
M  V30 7831 O 728.843 -1.92006 0.291081 0
M  V30 7832 C 725.973 -3.34676 0.927879 0
M  V30 7833 C 724.927 -3.7835 2.00088 0
M  V30 7834 C 724.253 -5.11375 1.56203 0
M  V30 7835 C 725.553 -3.95256 3.41424 0
M  V30 7836 H 727.247 -2.07419 2.15911 0
M  V30 7837 H 724.793 -0.996569 1.03945 0
M  V30 7838 H 726.746 -4.12793 0.847327 0
M  V30 7839 H 725.47 -3.26565 -0.0475042 0
M  V30 7840 H 724.129 -3.02474 2.07135 0
M  V30 7841 H 723.777 -4.99709 0.57445 0
M  V30 7842 H 723.477 -5.41568 2.27985 0
M  V30 7843 H 725.001 -5.92001 1.49558 0
M  V30 7844 H 726.415 -4.63764 3.3704 0
M  V30 7845 H 724.812 -4.36849 4.1144 0
M  V30 7846 H 725.882 -2.98579 3.82072 0
M  V30 7847 N 727.225 -1.14528 -1.08264 0
M  V30 7848 C 728.471 -0.91576 -1.80947 0
M  V30 7849 C 728.804 0.55623 -1.86064 0
M  V30 7850 O 728.079 1.41207 -1.33756 0
M  V30 7851 C 728.362 -1.51917 -3.26486 0
M  V30 7852 C 728.215 -3.06111 -3.2957 0
M  V30 7853 C 729.534 -1.19724 -4.23502 0
M  V30 7854 H 726.653 -0.334113 -0.656915 0
M  V30 7855 H 729.295 -1.41547 -1.26746 0
M  V30 7856 H 727.445 -1.0942 -3.72773 0
M  V30 7857 H 729.117 -3.57448 -2.91597 0
M  V30 7858 H 727.36 -3.40483 -2.688 0
M  V30 7859 H 728.031 -3.43438 -4.32151 0
M  V30 7860 H 730.507 -1.56467 -3.85561 0
M  V30 7861 H 729.383 -1.64575 -5.23647 0
M  V30 7862 H 729.644 -0.112771 -4.41956 0
M  V30 7863 N 728.703 1.26451 -0.940633 0
M  V30 7864 C 729.98 1.88947 -0.505811 0
M  V30 7865 C 730.36 1.85011 1.01657 0
M  V30 7866 O 729.708 1.30406 1.87634 0
M  V30 7867 C 729.918 3.32304 -1.06654 0
M  V30 7868 C 731.266 4.09153 -1.13486 0
M  V30 7869 O 732.29 3.41371 -1.01708 0
M  V30 7870 O 731.149 5.30369 -1.31797 0
M  V30 7871 H 728.243 0.810422 -0.164759 0
M  V30 7872 H 730.789 1.34625 -1.03316 0
M  V30 7873 H 729.561 3.29527 -2.11015 0
M  V30 7874 H 729.184 3.94164 -0.521603 0
M  V30 7875 N 730.181 0.707592 1.40822 0
M  V30 7876 C 731.458 0.171172 1.9485 0
M  V30 7877 C 731.838 -1.32143 1.64625 0
M  V30 7878 O 731.186 -2.07372 0.959647 0
M  V30 7879 C 731.396 0.475334 3.45748 0
M  V30 7880 C 732.744 0.409625 4.22619 0
M  V30 7881 O 733.768 0.410934 3.53822 0
M  V30 7882 O 732.627 0.380185 5.45176 0
M  V30 7883 H 729.721 0.022015 0.826707 0
M  V30 7884 H 732.267 0.784577 1.50474 0
M  V30 7885 H 731.039 1.50801 3.61075 0
M  V30 7886 H 730.662 -0.168439 3.97243 0
M  V30 7887 N 731.66 -1.50943 0.453197 0
M  V30 7888 C 733.071 -1.86699 -0.00619892 0
M  V30 7889 C 733.422 -1.3693 -1.40515 0
M  V30 7890 O 732.547 -0.726715 -2.03833 0
M  V30 7891 C 733.142 -3.38795 -0.018025 0
M  V30 7892 C 731.701 -3.74028 -0.421885 0
M  V30 7893 C 730.848 -2.74752 0.375087 0
M  V30 7894 H 733.799 -1.43942 0.668317 0
M  V30 7895 H 733.82 -3.71468 -0.824125 0
M  V30 7896 H 733.332 -3.74988 1.00028 0
M  V30 7897 H 731.433 -3.43431 -1.44521 0
M  V30 7898 H 731.546 -4.78908 -0.135664 0
M  V30 7899 H 729.91 -2.5414 -0.168794 0
M  V30 7900 H 730.693 -3.13787 1.39256 0
M  V30 7901 N 733.138 -0.185124 -1.56509 0
M  V30 7902 C 734.068 0.735098 -2.21627 0
M  V30 7903 C 735.049 1.2288 -1.1762 0
M  V30 7904 O 736.234 1.27945 -1.46095 0
M  V30 7905 C 733.364 1.95889 -2.86783 0
M  V30 7906 C 732.318 1.6005 -3.96948 0
M  V30 7907 C 731.644 2.90009 -4.4922 0
M  V30 7908 C 732.944 0.818008 -5.15855 0
M  V30 7909 H 734.638 0.192274 -2.98782 0
M  V30 7910 H 732.184 0.0910393 -1.43712 0
M  V30 7911 H 734.137 2.60779 -3.31017 0
M  V30 7912 H 732.861 2.52608 -2.07018 0
M  V30 7913 H 731.52 0.975237 -3.5339 0
M  V30 7914 H 731.168 3.44797 -3.6623 0
M  V30 7915 H 730.868 2.66778 -5.23549 0
M  V30 7916 H 732.392 3.55904 -4.9615 0
M  V30 7917 H 733.806 1.36979 -5.56695 0
M  V30 7918 H 732.203 0.684207 -5.96187 0
M  V30 7919 H 733.273 -0.182939 -4.84555 0
M  V30 7920 N 734.616 1.57351 0.0885366 0
M  V30 7921 C 735.546 2.05561 1.10757 0
M  V30 7922 C 736.527 0.945789 1.41382 0
M  V30 7923 O 737.712 1.21747 1.51299 0
M  V30 7924 C 734.842 2.48554 2.42566 0
M  V30 7925 C 733.796 3.63259 2.26334 0
M  V30 7926 C 733.122 3.9225 3.63378 0
M  V30 7927 C 734.422 4.93913 1.69844 0
M  V30 7928 H 736.116 2.90946 0.706468 0
M  V30 7929 H 733.662 1.39968 0.338385 0
M  V30 7930 H 735.615 2.8089 3.14132 0
M  V30 7931 H 734.339 1.60176 2.84625 0
M  V30 7932 H 732.998 3.31179 1.57213 0
M  V30 7933 H 732.646 3.0103 4.02976 0
M  V30 7934 H 732.346 4.69478 3.53362 0
M  V30 7935 H 733.87 4.27067 4.36401 0
M  V30 7936 H 735.284 5.24588 2.31258 0
M  V30 7937 H 733.681 5.75349 1.70569 0
M  V30 7938 H 734.751 4.80409 0.65843 0
M  V30 7939 N 736.094 -0.359525 1.53444 0
M  V30 7940 C 737.319 -1.12644 1.74144 0
M  V30 7941 C 737.744 -1.82082 0.472007 0
M  V30 7942 O 737.102 -1.71962 -0.57436 0
M  V30 7943 C 737.15 -2.12781 2.9113 0
M  V30 7944 O 736.254 -3.19984 2.60162 0
M  V30 7945 H 735.595 -0.326553 0.578152 0
M  V30 7946 H 738.125 -0.414798 2.00351 0
M  V30 7947 H 738.135 -2.56278 3.17467 0
M  V30 7948 H 736.81 -1.61634 3.83207 0
M  V30 7949 H 735.387 -2.81417 2.44661 0
M  V30 7950 N 737.572 -1.44907 -0.619662 0
M  V30 7951 C 738.818 -1.48512 -1.38102 0
M  V30 7952 C 739.151 -0.121686 -1.93818 0
M  V30 7953 O 738.426 0.862256 -1.74343 0
M  V30 7954 C 738.709 -2.55469 -2.53787 0
M  V30 7955 C 738.562 -4.01212 -2.03345 0
M  V30 7956 C 739.881 -2.58821 -3.55949 0
M  V30 7957 H 737 -0.540712 -0.500799 0
M  V30 7958 H 739.642 -1.7665 -0.69962 0
M  V30 7959 H 737.792 -2.31606 -3.11915 0
M  V30 7960 H 739.464 -4.36245 -1.49959 0
M  V30 7961 H 737.707 -4.12443 -1.34438 0
M  V30 7962 H 738.378 -4.71717 -2.86683 0
M  V30 7963 H 740.854 -2.80172 -3.07641 0
M  V30 7964 H 739.73 -3.35542 -4.34399 0
M  V30 7965 H 739.991 -1.63451 -4.10775 0
M  V30 7966 N 739.05 0.861098 -1.31996 0
M  V30 7967 C 740.466 1.14827 -1.10846 0
M  V30 7968 C 740.666 2.0117 0.11528 0
M  V30 7969 O 739.722 2.39423 0.802048 0
M  V30 7970 C 741.035 1.83183 -2.38462 0
M  V30 7971 C 742.583 1.95847 -2.44158 0
M  V30 7972 C 743.058 2.67617 -3.71679 0
M  V30 7973 N 744.549 2.75147 -3.72624 0
M  V30 7974 C 745.284 3.31314 -4.67994 0
M  V30 7975 N 744.78 3.88343 -5.73726 0
M  V30 7976 N 746.573 3.29356 -4.55501 0
M  V30 7977 H 738.724 0.285951 -2.10466 0
M  V30 7978 H 740.987 0.189303 -0.928907 0
M  V30 7979 H 740.693 1.27193 -3.27895 0
M  V30 7980 H 740.567 2.83393 -2.48935 0
M  V30 7981 H 742.954 2.50999 -1.55189 0
M  V30 7982 H 743.035 0.94653 -2.37644 0
M  V30 7983 H 742.679 2.13131 -4.61018 0
M  V30 7984 H 742.609 3.69237 -3.75462 0
M  V30 7985 H 745.1 2.34682 -2.96197 0
M  V30 7986 H 745.413 4.29338 -6.42564 0
M  V30 7987 H 743.758 3.86693 -5.77489 0
M  V30 7988 H 746.949 2.84047 -3.72069 0
M  V30 7989 H 747.122 3.7283 -5.30001 0
M  V30 7990 N 740.528 1.15101 1.07655 0
M  V30 7991 C 741.756 0.947731 1.83918 0
M  V30 7992 C 742.171 -0.503927 1.81951 0
M  V30 7993 O 741.528 -1.34941 1.2287 0
M  V30 7994 C 741.579 1.4503 3.31132 0
M  V30 7995 O 741.3 2.84508 3.33146 0
M  V30 7996 C 742.801 1.28806 4.24174 0
M  V30 7997 H 740.021 0.336786 0.580358 0
M  V30 7998 H 742.565 1.52799 1.35914 0
M  V30 7999 H 740.72 0.912632 3.76497 0
M  V30 8000 H 741.134 3.0723 4.251 0
M  V30 8001 H 742.608 1.6882 5.25551 0
M  V30 8002 H 743.085 0.231851 4.38588 0
M  V30 8003 H 743.691 1.81465 3.84643 0
M  V30 8004 N 742.006 -1.2595 0.947325 0
M  V30 8005 C 743.231 -1.98083 0.614633 0
M  V30 8006 C 743.656 -1.70013 -0.804815 0
M  V30 8007 O 743.014 -0.95175 -1.54309 0
M  V30 8008 C 743.062 -3.4993 0.870706 0
M  V30 8009 O 742.166 -4.12364 -0.0541451 0
M  V30 8010 H 741.507 -0.621232 0.234451 0
M  V30 8011 H 744.037 -1.60259 1.27193 0
M  V30 8012 H 744.047 -4.00198 0.794051 0
M  V30 8013 H 742.722 -3.69691 1.90529 0
M  V30 8014 H 741.299 -3.72826 0.0740917 0
M  V30 8015 N 743.484 -0.715051 -1.40445 0
M  V30 8016 C 744.712 -0.263959 -2.05209 0
M  V30 8017 C 745.127 1.09403 -1.53871 0
M  V30 8018 O 744.484 1.68746 -0.695064 0
M  V30 8019 C 744.535 -0.234545 -3.60738 0
M  V30 8020 O 744.256 -1.53891 -4.10182 0
M  V30 8021 C 745.757 0.235164 -4.42676 0
M  V30 8022 H 742.977 -0.11876 -0.660407 0
M  V30 8023 H 745.521 -0.973107 -1.79864 0
M  V30 8024 H 743.676 0.425563 -3.85055 0
M  V30 8025 H 744.09 -1.43903 -5.04373 0
M  V30 8026 H 745.564 0.204598 -5.51621 0
M  V30 8027 H 746.041 1.27724 -4.20218 0
M  V30 8028 H 746.647 -0.394649 -4.23465 0
M  V30 8029 N 744.962 1.50701 -0.461195 0
M  V30 8030 C 746.211 2.01458 0.0988277 0
M  V30 8031 C 746.524 1.34863 1.41673 0
M  V30 8032 O 747.73 1.76721 2.06111 0
M  V30 8033 C 746.186 3.59186 0.226648 0
M  V30 8034 C 745.794 4.34732 -1.08223 0
M  V30 8035 C 747.538 4.18015 0.73916 0
M  V30 8036 C 745.445 5.8422 -0.918747 0
M  V30 8037 H 744.375 0.7529 0.040709 0
M  V30 8038 H 747.026 1.736 -0.594589 0
M  V30 8039 H 745.408 3.83589 0.983621 0
M  V30 8040 H 746.582 4.22059 -1.84939 0
M  V30 8041 H 744.897 3.87466 -1.52509 0
M  V30 8042 H 747.494 5.27436 0.878347 0
M  V30 8043 H 747.837 3.78746 1.72793 0
M  V30 8044 H 748.37 3.9778 0.0398469 0
M  V30 8045 H 745.109 6.27944 -1.88059 0
M  V30 8046 H 744.629 5.99493 -0.191801 0
M  V30 8047 H 746.308 6.44382 -0.581405 0
M  V30 8048 N 746.441 0.193421 1.56409 0
M  V30 8049 C 747.388 -0.728124 2.19014 0
M  V30 8050 C 748.358 -1.21098 1.13686 0
M  V30 8051 O 749.543 -1.27517 1.4193 0
M  V30 8052 C 746.683 -1.94277 2.8522 0
M  V30 8053 C 745.796 -1.50143 4.05069 0
M  V30 8054 C 744.931 -2.67145 4.59137 0
M  V30 8055 C 743.97 -2.19609 5.71348 0
M  V30 8056 N 743.107 -3.29782 6.19829 0
M  V30 8057 H 747.947 -0.187499 2.9741 0
M  V30 8058 H 745.484 -0.0808064 1.46878 0
M  V30 8059 H 747.442 -2.65551 3.21774 0
M  V30 8060 H 746.072 -2.45673 2.09391 0
M  V30 8061 H 745.124 -0.684624 3.74189 0
M  V30 8062 H 746.436 -1.11266 4.86232 0
M  V30 8063 H 745.59 -3.46544 4.97988 0
M  V30 8064 H 744.329 -3.09295 3.77078 0
M  V30 8065 H 743.334 -1.38664 5.32027 0
M  V30 8066 H 744.559 -1.78492 6.55223 0
M  V30 8067 H 742.505 -3.71466 5.40693 0
M  V30 8068 H 742.422 -2.95069 6.96039 0
M  V30 8069 H 743.69 -4.094 6.63334 0
M  V30 8070 N 747.919 -1.57396 -0.0801906 0
M  V30 8071 C 748.867 -2.04136 -1.11495 0
M  V30 8072 C 749.861 -0.945137 -1.40583 0
M  V30 8073 O 751.067 -1.13028 -1.40088 0
M  V30 8074 H 747.442 -0.65076 -0.37685 0
M  V30 8075 H 749.413 -2.90205 -0.694526 0
M  V30 8076 C 748.162 -2.49399 -2.42272 0
M  V30 8077 H 747.485 -3.33339 -2.20737 0
M  V30 8078 H 748.925 -2.85864 -3.13142 0
M  V30 8079 C 747.384 -1.37341 -3.07635 0
M  V30 8080 O 747.914 -0.710829 -3.95361 0
M  V30 8081 N 746.12 -1.12064 -2.68123 0
M  V30 8082 H 745.667 -1.66126 -1.96875 0
M  V30 8083 H 745.625 -0.372916 -3.12181 0
M  V30 8084 N 749.397 0.351382 -1.53633 0
M  V30 8085 C 750.347 1.4316 -1.77452 0
M  V30 8086 C 751.331 1.48076 -0.62946 0
M  V30 8087 O 752.523 1.53078 -0.888599 0
M  V30 8088 C 749.652 2.80409 -1.98055 0
M  V30 8089 C 748.738 2.79915 -3.18604 0
M  V30 8090 N 749.129 2.49057 -4.40232 0
M  V30 8091 C 747.427 3.11067 -3.19614 0
M  V30 8092 C 748.128 2.566 -5.22045 0
M  V30 8093 N 747.104 2.919 -4.5858 0
M  V30 8094 H 750.906 1.18188 -2.69089 0
M  V30 8095 H 748.42 0.559684 -1.52451 0
M  V30 8096 H 750.417 3.58231 -2.13251 0
M  V30 8097 H 749.077 3.06334 -1.07655 0
M  V30 8098 H 750.088 2.22395 -4.67719 0
M  V30 8099 H 746.765 3.42215 -2.39154 0
M  V30 8100 H 748.155 2.35968 -6.29101 0
M  V30 8101 N 750.875 1.45233 0.611969 0
M  V30 8102 C 751.785 1.56098 1.7513 0
M  V30 8103 C 752.801 0.445646 1.68196 0
M  V30 8104 O 753.977 0.705718 1.88631 0
M  V30 8105 C 751.042 1.52052 3.11579 0
M  V30 8106 C 750.103 2.74589 3.29999 0
M  V30 8107 C 749.336 2.70726 4.59938 0
M  V30 8108 O 749.559 1.77806 5.41979 0
M  V30 8109 O 748.493 3.61864 4.80976 0
M  V30 8110 H 752.319 2.52392 1.68914 0
M  V30 8111 H 749.904 1.27695 0.775528 0
M  V30 8112 H 751.786 1.52387 3.92882 0
M  V30 8113 H 750.461 0.589085 3.18295 0
M  V30 8114 H 749.368 2.79817 2.48301 0
M  V30 8115 H 750.701 3.66843 3.28157 0
M  V30 8116 N 752.353 -0.854086 1.3245 0
M  V30 8117 C 753.6 -1.60831 1.23043 0
M  V30 8118 C 753.928 -1.93389 -0.2076 0
M  V30 8119 O 753.183 -1.5756 -1.16075 0
M  V30 8120 C 753.482 -2.93746 2.03587 0
M  V30 8121 C 753.148 -2.80615 3.52939 0
M  V30 8122 C 751.81 -2.76742 3.93659 0
M  V30 8123 C 754.162 -2.66507 4.4791 0
M  V30 8124 C 751.49 -2.56638 5.27592 0
M  V30 8125 C 753.842 -2.47939 5.81987 0
M  V30 8126 C 752.506 -2.42458 6.21909 0
M  V30 8127 H 751.776 -0.588523 0.450247 0
M  V30 8128 H 754.423 -0.990699 1.63882 0
M  V30 8129 H 752.728 -3.5963 1.55478 0
M  V30 8130 H 754.425 -3.51127 1.93677 0
M  V30 8131 H 751.015 -2.84456 3.20598 0
M  V30 8132 H 755.199 -2.68544 4.1737 0
M  V30 8133 H 750.455 -2.50831 5.57579 0
M  V30 8134 H 754.629 -2.36002 6.55192 0
M  V30 8135 H 752.256 -2.2664 7.2563 0
M  V30 8136 N 753.831 -1.1567 -1.07043 0
M  V30 8137 C 755.08 -0.928039 -1.79082 0
M  V30 8138 C 755.393 0.545968 -1.87826 0
M  V30 8139 O 756.599 0.892308 -2.56418 0
M  V30 8140 C 755.055 -1.61103 -3.21829 0
M  V30 8141 C 754.663 -3.12228 -3.21275 0
M  V30 8142 C 756.407 -1.46404 -3.98455 0
M  V30 8143 C 754.314 -3.733 -4.58695 0
M  V30 8144 H 753.244 -0.34357 -0.671175 0
M  V30 8145 H 755.895 -1.38718 -1.20123 0
M  V30 8146 H 754.277 -1.07958 -3.81 0
M  V30 8147 H 755.451 -3.72155 -2.71731 0
M  V30 8148 H 753.766 -3.26725 -2.58147 0
M  V30 8149 H 756.363 -1.8942 -5.00024 0
M  V30 8150 H 756.706 -0.41195 -4.14257 0
M  V30 8151 H 757.239 -1.96663 -3.45787 0
M  V30 8152 H 753.978 -4.78423 -4.48098 0
M  V30 8153 H 753.498 -3.18157 -5.08465 0
M  V30 8154 H 755.177 -3.7441 -5.27661 0
M  V30 8155 N 755.309 1.25446 -0.953992 0
M  V30 8156 C 756.586 1.884 -0.525823 0
M  V30 8157 C 756.966 1.86079 0.996891 0
M  V30 8158 O 756.314 1.32389 1.8624 0
M  V30 8159 C 756.524 3.31154 -1.10172 0
M  V30 8160 C 757.872 4.07926 -1.17819 0
M  V30 8161 O 758.896 3.40273 -1.05323 0
M  V30 8162 O 757.755 5.28942 -1.37415 0
M  V30 8163 H 754.849 0.808629 -0.173345 0
M  V30 8164 H 757.395 1.33522 -1.04738 0
M  V30 8165 H 756.167 3.27271 -2.14499 0
M  V30 8166 H 755.79 3.93588 -0.56338 0
M  V30 8167 N 756.787 0.722489 1.40064 0
M  V30 8168 C 757.697 0.0755984 2.34478 0
M  V30 8169 C 758.713 -0.736046 1.57665 0
M  V30 8170 O 759.889 -0.667407 1.9002 0
M  V30 8171 C 756.954 -0.830075 3.36616 0
M  V30 8172 C 756.015 -0.00759884 4.29299 0
M  V30 8173 C 755.248 -0.870139 5.26559 0
M  V30 8174 O 755.471 -2.10921 5.2997 0
M  V30 8175 O 754.405 -0.305454 6.01124 0
M  V30 8176 H 758.231 0.854545 2.9143 0
M  V30 8177 H 755.816 0.483032 1.41376 0
M  V30 8178 H 757.698 -1.34864 3.99236 0
M  V30 8179 H 756.373 -1.58805 2.82069 0
M  V30 8180 H 755.28 0.556199 3.69942 0
M  V30 8181 H 756.613 0.712312 4.87018 0
M  V30 8182 N 758.265 -1.50454 0.469181 0
M  V30 8183 C 759.197 -2.26319 -0.362247 0
M  V30 8184 C 760.21 -1.31574 -0.958751 0
M  V30 8185 O 761.399 -1.57099 -0.847482 0
M  V30 8186 C 758.499 -3.02808 -1.52187 0
M  V30 8187 C 757.672 -4.24893 -1.03849 0
M  V30 8188 C 756.731 -4.83691 -2.07194 0
M  V30 8189 O 755.757 -5.44659 -1.65333 0
M  V30 8190 N 756.959 -4.70522 -3.39985 0
M  V30 8191 H 759.724 -2.98312 0.288124 0
M  V30 8192 H 757.285 -1.59099 0.299856 0
M  V30 8193 H 759.277 -3.39023 -2.21011 0
M  V30 8194 H 757.847 -2.33625 -2.07697 0
M  V30 8195 H 757.067 -3.93806 -0.176203 0
M  V30 8196 H 758.355 -5.04053 -0.693435 0
M  V30 8197 H 757.753 -4.2203 -3.76706 0
M  V30 8198 H 756.31 -5.11011 -4.04612 0
M  V30 8199 N 759.743 -0.201713 -1.56304 0
M  V30 8200 C 760.676 0.755976 -2.15314 0
M  V30 8201 C 761.654 1.20497 -1.09175 0
M  V30 8202 O 762.838 1.2913 -1.37323 0
M  V30 8203 C 759.965 2.02177 -2.71739 0
M  V30 8204 C 759.011 1.71436 -3.90528 0
M  V30 8205 S 759.844 0.856624 -5.28604 0
M  V30 8206 C 761 2.13242 -5.88455 0
M  V30 8207 H 761.233 0.254348 -2.9621 0
M  V30 8208 H 758.766 0.0133669 -1.54394 0
M  V30 8209 H 760.724 2.74867 -3.04891 0
M  V30 8210 H 759.385 2.49452 -1.90873 0
M  V30 8211 H 758.578 2.65433 -4.28441 0
M  V30 8212 H 758.18 1.06823 -3.5842 0
M  V30 8213 H 760.472 3.08435 -6.0322 0
M  V30 8214 H 761.415 1.7975 -6.84905 0
M  V30 8215 H 761.823 2.2639 -5.17115 0
M  V30 8216 N 761.222 1.57436 0.0718424 0
M  V30 8217 C 762.469 1.87248 0.771007 0
M  V30 8218 C 762.797 0.793441 1.7758 0
M  V30 8219 O 762.052 -0.210565 1.94564 0
M  V30 8220 C 762.351 3.23723 1.51455 0
M  V30 8221 C 762.017 4.46194 0.649736 0
M  V30 8222 C 760.679 4.79438 0.411409 0
M  V30 8223 C 763.031 5.21176 0.05004 0
M  V30 8224 C 760.359 5.85077 -0.436096 0
M  V30 8225 C 762.711 6.27712 -0.784919 0
M  V30 8226 C 761.375 6.59457 -1.03312 0
M  V30 8227 H 760.645 0.685188 0.282132 0
M  V30 8228 H 763.292 1.91474 0.0317896 0
M  V30 8229 H 761.597 3.15287 2.32597 0
M  V30 8230 H 763.294 3.44023 2.06031 0
M  V30 8231 H 759.884 4.20175 0.84562 0
M  V30 8232 H 764.068 4.95806 0.221282 0
M  V30 8233 H 759.324 6.08071 -0.637136 0
M  V30 8234 H 763.498 6.84974 -1.25635 0
M  V30 8235 H 761.125 7.4114 -1.6916 0
M  V30 8236 N 762.7 -0.34323 1.53817 0
M  V30 8237 C 763.61 -1.44493 1.84821 0
M  V30 8238 C 764.626 -1.57556 0.738381 0
M  V30 8239 O 765.802 -1.73026 1.03072 0
M  V30 8240 C 762.867 -2.79478 2.05166 0
M  V30 8241 C 761.928 -2.75756 3.29025 0
M  V30 8242 C 761.161 -4.04302 3.4839 0
M  V30 8243 O 761.384 -5.01595 2.71586 0
M  V30 8244 O 760.318 -4.08754 4.41819 0
M  V30 8245 H 764.144 -1.21209 2.78464 0
M  V30 8246 H 761.729 -0.535437 1.39476 0
M  V30 8247 H 763.611 -3.59419 2.19991 0
M  V30 8248 H 762.286 -3.02692 1.14713 0
M  V30 8249 H 761.193 -1.94434 3.19603 0
M  V30 8250 H 762.526 -2.57495 4.19472 0
M  V30 8251 N 764.178 -1.45556 -0.604258 0
M  V30 8252 C 765.11 -1.50494 -1.72871 0
M  V30 8253 C 766.123 -0.395368 -1.57926 0
M  V30 8254 O 767.312 -0.662603 -1.65746 0
M  V30 8255 C 764.412 -1.34874 -3.10906 0
M  V30 8256 C 763.585 -2.59564 -3.52058 0
M  V30 8257 C 762.644 -2.38453 -4.6907 0
M  V30 8258 O 761.67 -3.12082 -4.76018 0
M  V30 8259 N 762.872 -1.43229 -5.62553 0
M  V30 8260 H 765.637 -2.4744 -1.69097 0
M  V30 8261 H 763.198 -1.41338 -0.789636 0
M  V30 8262 H 765.19 -1.18556 -3.86945 0
M  V30 8263 H 763.76 -0.461913 -3.09168 0
M  V30 8264 H 762.98 -2.90974 -2.65946 0
M  V30 8265 H 764.268 -3.42441 -3.76313 0
M  V30 8266 H 763.666 -0.824714 -5.59656 0
M  V30 8267 H 762.223 -1.32882 -6.38111 0
M  V30 8268 N 765.656 0.84705 -1.32902 0
M  V30 8269 C 766.604 1.97765 -1.22441 0
M  V30 8270 C 767.598 1.68919 -0.127546 0
M  V30 8271 O 768.804 1.77633 -0.290973 0
M  V30 8272 H 765.179 0.649072 -0.379748 0
M  V30 8273 H 767.15 2.03713 -2.18044 0
M  V30 8274 C 765.899 3.33834 -0.972125 0
M  V30 8275 H 765.222 3.56564 -1.80837 0
M  V30 8276 H 766.662 4.13467 -0.939209 0
M  V30 8277 C 765.121 3.35328 0.325059 0
M  V30 8278 O 765.651 3.78887 1.33445 0
M  V30 8279 N 763.857 2.88488 0.349718 0
M  V30 8280 H 763.404 2.53234 -0.472236 0
M  V30 8281 H 763.362 2.8987 1.21748 0
M  V30 8282 N 767.134 1.16236 1.06428 0
M  V30 8283 C 768.374 0.95369 1.80787 0
M  V30 8284 C 768.738 -0.509495 1.85117 0
M  V30 8285 O 769.939 -0.836822 2.55442 0
M  V30 8286 C 768.21 1.56235 3.21443 0
M  V30 8287 S 769.769 1.49812 4.12434 0
M  V30 8288 H 766.587 0.343004 0.622792 0
M  V30 8289 H 769.189 1.47957 1.27785 0
M  V30 8290 H 767.893 2.62 3.15886 0
M  V30 8291 H 767.424 1.03574 3.79521 0
M  V30 8292 H 769.439 0.49745 4.937 0
M  V30 8293 N 768.612 -1.24939 0.960631 0
M  V30 8294 C 769.545 -2.24116 0.429804 0
M  V30 8295 C 770.523 -1.54972 -0.492188 0
M  V30 8296 O 771.707 -1.83642 -0.42519 0
M  V30 8297 C 768.834 -3.36558 -0.380312 0
M  V30 8298 C 767.88 -4.23757 0.482941 0
M  V30 8299 S 768.713 -4.9994 1.91885 0
M  V30 8300 C 769.869 -6.15846 1.11732 0
M  V30 8301 H 770.102 -2.68795 1.27029 0
M  V30 8302 H 767.635 -1.34108 0.765141 0
M  V30 8303 H 769.593 -4.01777 -0.841764 0
M  V30 8304 H 768.254 -2.90451 -1.19569 0
M  V30 8305 H 767.447 -5.03809 -0.138699 0
M  V30 8306 H 767.049 -3.63504 0.879839 0
M  V30 8307 H 769.341 -6.76495 0.368898 0
M  V30 8308 H 770.284 -6.82356 1.89198 0
M  V30 8309 H 770.692 -5.60805 0.644812 0
M  V30 8310 N 770.09 -0.729906 -1.39679 0
M  V30 8311 C 771 -0.0880322 -2.34435 0
M  V30 8312 C 772.016 0.727674 -1.58053 0
M  V30 8313 O 773.192 0.657321 -1.90371 0
M  V30 8314 C 770.257 0.812211 -3.37052 0
M  V30 8315 C 769.318 -0.0151681 -4.29297 0
M  V30 8316 C 768.551 0.842202 -5.27013 0
M  V30 8317 O 768.774 2.08108 -5.31081 0
M  V30 8318 O 767.708 0.27357 -6.01278 0
M  V30 8319 H 771.534 -0.869989 -2.90972 0
M  V30 8320 H 769.119 -0.490522 -1.41118 0
M  V30 8321 H 771.001 1.32745 -3.99946 0
M  V30 8322 H 769.676 1.57307 -2.82907 0
M  V30 8323 H 768.583 -0.575811 -3.69642 0
M  V30 8324 H 769.916 -0.738129 -4.86634 0
M  V30 8325 N 771.568 1.50203 -0.477153 0
M  V30 8326 C 772.793 2.07263 0.0754986 0
M  V30 8327 C 773.218 1.33801 1.32208 0
M  V30 8328 O 772.576 0.387482 1.77111 0
M  V30 8329 C 772.624 3.59028 0.336348 0
M  V30 8330 O 771.728 3.87339 1.4157 0
M  V30 8331 H 771.069 0.663815 -0.015662 0
M  V30 8332 H 773.599 1.93321 -0.669936 0
M  V30 8333 H 773.609 4.03927 0.575034 0
M  V30 8334 H 772.284 4.11912 -0.574551 0
M  V30 8335 H 770.861 3.54272 1.16385 0
M  V30 8336 N 773.046 0.209999 1.56195 0
M  V30 8337 C 774.271 -0.433064 2.02828 0
M  V30 8338 C 774.696 -1.5337 1.08901 0
M  V30 8339 O 774.054 -1.81144 0.0751132 0
M  V30 8340 C 774.102 -0.952635 3.47789 0
M  V30 8341 O 773.206 -2.0647 3.56993 0
M  V30 8342 H 772.547 -0.0994594 0.656509 0
M  V30 8343 H 775.077 0.32525 2.01998 0
M  V30 8344 H 775.087 -1.26542 3.8788 0
M  V30 8345 H 773.762 -0.147007 4.1564 0
M  V30 8346 H 772.339 -1.75942 3.28784 0
M  V30 8347 N 774.524 -1.57472 -0.0634922 0
M  V30 8348 C 775.457 -1.99571 -1.10664 0
M  V30 8349 C 776.435 -0.874015 -1.37112 0
M  V30 8350 O 777.619 -1.13702 -1.50347 0
M  V30 8351 C 774.746 -2.3395 -2.44918 0
M  V30 8352 C 773.792 -3.56213 -2.34551 0
M  V30 8353 S 774.625 -5.06727 -1.73169 0
M  V30 8354 C 775.781 -5.44316 -3.08984 0
M  V30 8355 H 776.014 -2.87739 -0.747905 0
M  V30 8356 H 773.547 -1.5198 -0.272316 0
M  V30 8357 H 775.505 -2.54431 -3.22141 0
M  V30 8358 H 774.166 -1.46297 -2.7795 0
M  V30 8359 H 773.359 -3.77812 -3.33578 0
M  V30 8360 H 772.961 -3.35406 -1.65466 0
M  V30 8361 H 775.253 -5.42894 -4.05305 0
M  V30 8362 H 776.196 -6.4502 -2.92156 0
M  V30 8363 H 776.604 -4.71781 -3.09972 0
M  V30 8364 N 776.003 0.335068 -1.53997 0
M  V30 8365 C 776.935 1.4327 -1.78903 0
M  V30 8366 C 777.948 1.48347 -0.670598 0
M  V30 8367 O 779.137 1.51277 -0.947494 0
M  V30 8368 C 776.237 2.81878 -1.88144 0
M  V30 8369 C 775.41 3.00141 -3.18174 0
M  V30 8370 C 774.469 4.19041 -3.18263 0
M  V30 8371 O 773.495 4.12751 -3.9195 0
M  V30 8372 N 774.697 5.28004 -2.41231 0
M  V30 8373 H 777.462 1.22272 -2.73623 0
M  V30 8374 H 775.023 0.524996 -1.53152 0
M  V30 8375 H 777.015 3.59609 -1.85644 0
M  V30 8376 H 775.585 2.9598 -1.00572 0
M  V30 8377 H 774.805 2.09808 -3.33728 0
M  V30 8378 H 776.093 3.0923 -4.04047 0
M  V30 8379 H 775.491 5.35986 -1.8093 0
M  V30 8380 H 774.048 6.04196 -2.44521 0
M  V30 8381 N 777.481 1.45874 0.596531 0
M  V30 8382 C 778.429 1.55739 1.72766 0
M  V30 8383 C 779.423 0.426666 1.63939 0
M  V30 8384 O 780.629 0.60301 1.69599 0
M  V30 8385 H 777.004 0.489386 0.570968 0
M  V30 8386 H 778.975 2.50871 1.61575 0
M  V30 8387 C 777.724 1.55174 3.11153 0
M  V30 8388 H 777.047 2.41511 3.1861 0
M  V30 8389 H 778.487 1.66133 3.90097 0
M  V30 8390 C 776.946 0.278001 3.35751 0
M  V30 8391 O 777.476 -0.637557 3.96608 0
M  V30 8392 N 775.682 0.170227 2.90101 0
M  V30 8393 H 775.229 0.916159 2.40758 0
M  V30 8394 H 775.187 -0.68117 3.06932 0
M  V30 8395 N 778.959 -0.83999 1.33349 0
M  V30 8396 C 780.189 -1.62492 1.27593 0
M  V30 8397 C 780.597 -1.88559 -0.155597 0
M  V30 8398 O 779.94 -1.46537 -1.10782 0
M  V30 8399 C 780.002 -2.99984 1.98116 0
M  V30 8400 C 779.666 -2.96892 3.47425 0
M  V30 8401 C 780.663 -2.72688 4.42648 0
M  V30 8402 C 778.348 -3.17063 3.89585 0
M  V30 8403 C 780.342 -2.68681 5.78004 0
M  V30 8404 C 778.029 -3.12682 5.25046 0
M  V30 8405 C 779.027 -2.88522 6.19067 0
M  V30 8406 O 778.715 -2.84042 7.52047 0
M  V30 8407 H 778.447 -0.512358 0.440982 0
M  V30 8408 H 781.001 -1.0545 1.76265 0
M  V30 8409 H 779.231 -3.58875 1.44034 0
M  V30 8410 H 780.92 -3.6084 1.85875 0
M  V30 8411 H 781.686 -2.56856 4.114 0
M  V30 8412 H 777.565 -3.34889 3.16813 0
M  V30 8413 H 781.109 -2.49743 6.51363 0
M  V30 8414 H 777.006 -3.28063 5.55918 0
M  V30 8415 H 777.774 -2.99892 7.61582 0
M  V30 8416 N 780.437 -1.16799 -1.0581 0
M  V30 8417 C 781.848 -0.95945 -1.60161 0
M  V30 8418 C 782.199 0.49543 -1.89842 0
M  V30 8419 O 781.324 1.36957 -1.67546 0
M  V30 8420 C 781.919 -1.73527 -2.90987 0
M  V30 8421 C 780.478 -1.57158 -3.42021 0
M  V30 8422 C 779.625 -1.74089 -2.15843 0
M  V30 8423 H 782.576 -1.31598 -0.886992 0
M  V30 8424 H 782.597 -1.21397 -3.60615 0
M  V30 8425 H 782.109 -2.79411 -2.69353 0
M  V30 8426 H 780.21 -0.537361 -3.68705 0
M  V30 8427 H 780.323 -2.35858 -4.17022 0
M  V30 8428 H 778.687 -1.16874 -2.26302 0
M  V30 8429 H 779.47 -2.81371 -1.96686 0
M  V30 8430 N 781.915 1.24427 -0.967243 0
M  V30 8431 C 783.14 1.9708 -0.646069 0
M  V30 8432 C 783.565 1.71272 0.777665 0
M  V30 8433 O 782.923 0.976179 1.52776 0
M  V30 8434 C 782.971 3.48501 -0.926266 0
M  V30 8435 O 782.075 4.12398 -0.0114653 0
M  V30 8436 H 781.416 0.617423 -0.244304 0
M  V30 8437 H 783.946 1.58215 -1.29727 0
M  V30 8438 H 783.956 3.98885 -0.857619 0
M  V30 8439 H 782.631 3.66613 -1.96386 0
M  V30 8440 H 781.208 3.72661 -0.133396 0
M  V30 8441 N 783.393 0.737304 1.3929 0
M  V30 8442 C 784.621 0.296573 2.04763 0
M  V30 8443 C 785.036 -1.06941 1.55592 0
M  V30 8444 O 784.393 -1.67619 0.721822 0
M  V30 8445 C 784.444 0.291906 3.6032 0
M  V30 8446 O 784.165 1.60397 4.07682 0
M  V30 8447 C 785.666 -0.164708 4.42994 0
M  V30 8448 H 782.886 0.129251 0.658434 0
M  V30 8449 H 785.43 1.0016 1.78293 0
M  V30 8450 H 783.585 -0.364251 3.85684 0
M  V30 8451 H 783.999 1.51909 5.0202 0
M  V30 8452 H 785.473 -0.116814 5.51876 0
M  V30 8453 H 785.95 -1.21022 4.22197 0
M  V30 8454 H 786.556 0.461968 4.22784 0
M  V30 8455 N 784.871 -1.49948 0.485112 0
M  V30 8456 C 786.287 -1.58984 0.140096 0
M  V30 8457 C 786.487 -1.49194 -1.35438 0
M  V30 8458 O 785.543 -1.35765 -2.12894 0
M  V30 8459 C 786.856 -2.92372 0.702769 0
M  V30 8460 C 788.404 -3.05801 0.66745 0
M  V30 8461 C 788.879 -4.41785 1.20791 0
M  V30 8462 N 790.37 -4.48234 1.16792 0
M  V30 8463 C 791.105 -5.51871 1.55646 0
M  V30 8464 N 790.601 -6.62692 2.02016 0
M  V30 8465 N 792.394 -5.42494 1.47161 0
M  V30 8466 H 784.545 -1.54555 1.45693 0
M  V30 8467 H 786.808 -0.731206 0.603359 0
M  V30 8468 H 786.514 -3.05056 1.75025 0
M  V30 8469 H 786.388 -3.76885 0.154205 0
M  V30 8470 H 788.775 -2.92757 -0.371157 0
M  V30 8471 H 788.856 -2.23011 1.25298 0
M  V30 8472 H 788.5 -4.55579 2.24522 0
M  V30 8473 H 788.43 -5.23188 0.598464 0
M  V30 8474 H 790.921 -3.68718 0.827982 0
M  V30 8475 H 791.234 -7.3785 2.29775 0
M  V30 8476 H 789.579 -6.63775 2.05979 0
M  V30 8477 H 792.77 -4.54806 1.10765 0
M  V30 8478 H 792.943 -6.2314 1.77766 0
M  V30 8479 N 786.349 -0.21828 -1.56081 0
M  V30 8480 C 787.574 0.422302 -2.03055 0
M  V30 8481 C 787.999 1.5279 -1.09713 0
M  V30 8482 O 787.357 1.81102 -0.0847187 0
M  V30 8483 C 787.405 0.934177 -3.48289 0
M  V30 8484 O 786.509 2.04574 -3.58083 0
M  V30 8485 H 785.85 0.0959764 -0.657027 0
M  V30 8486 H 788.38 -0.335958 -2.01823 0
M  V30 8487 H 788.39 1.24484 -3.88546 0
M  V30 8488 H 787.065 0.124963 -4.15712 0
M  V30 8489 H 785.642 1.74196 -3.29712 0
M  V30 8490 N 787.827 1.57504 0.0551401 0
M  V30 8491 C 789.238 1.76626 0.604979 0
M  V30 8492 C 789.589 0.845978 1.77024 0
M  V30 8493 O 788.714 0.0341936 2.16373 0
M  V30 8494 C 789.309 3.203 1.10425 0
M  V30 8495 C 787.868 3.4071 1.59981 0
M  V30 8496 C 787.015 2.72258 0.526414 0
M  V30 8497 H 789.966 1.57775 -0.171072 0
M  V30 8498 H 789.987 3.25377 1.97256 0
M  V30 8499 H 789.499 3.87255 0.255939 0
M  V30 8500 H 787.6 2.78892 2.47083 0
M  V30 8501 H 787.713 4.49227 1.66528 0
M  V30 8502 H 786.077 2.35283 0.97539 0
M  V30 8503 H 786.86 3.41879 -0.311991 0
M  V30 8504 N 789.305 -0.326896 1.54172 0
M  V30 8505 C 790.53 -1.08924 1.76494 0
M  V30 8506 C 790.955 -1.81039 0.510523 0
M  V30 8507 O 790.313 -1.73141 -0.537756 0
M  V30 8508 C 790.361 -2.06558 2.95578 0
M  V30 8509 O 789.465 -3.14394 2.6689 0
M  V30 8510 H 788.806 -0.314216 0.584948 0
M  V30 8511 H 791.336 -0.372207 2.01186 0
M  V30 8512 H 791.346 -2.49487 3.22832 0
M  V30 8513 H 790.021 -1.53469 3.86549 0
M  V30 8514 H 788.598 -2.76164 2.50576 0
M  V30 8515 N 790.784 -1.46188 -0.588786 0
M  V30 8516 C 791.714 -1.59148 -1.70863 0
M  V30 8517 C 792.695 -0.442083 -1.64255 0
M  V30 8518 O 793.88 -0.667575 -1.82365 0
M  V30 8519 C 791.01 -1.5757 -3.09498 0
M  V30 8520 C 789.964 -2.71418 -3.30932 0
M  V30 8521 C 789.29 -2.549 -4.70032 0
M  V30 8522 C 790.59 -4.1329 -3.19356 0
M  V30 8523 H 792.284 -2.52889 -1.60274 0
M  V30 8524 H 789.83 -1.21707 -0.769638 0
M  V30 8525 H 791.783 -1.65231 -3.87655 0
M  V30 8526 H 790.507 -0.603705 -3.20972 0
M  V30 8527 H 789.166 -2.63216 -2.55172 0
M  V30 8528 H 788.814 -1.55797 -4.78264 0
M  V30 8529 H 788.514 -3.31257 -4.85327 0
M  V30 8530 H 790.038 -2.64443 -5.50366 0
M  V30 8531 H 791.452 -4.22636 -3.87365 0
M  V30 8532 H 789.849 -4.90187 -3.46175 0
M  V30 8533 H 790.919 -4.33874 -2.16522 0
M  V30 8534 N 792.262 0.832906 -1.33792 0
M  V30 8535 C 793.487 1.62568 -1.28788 0
M  V30 8536 C 793.912 1.87599 0.137246 0
M  V30 8537 O 793.27 1.44436 1.0958 0
M  V30 8538 C 793.318 2.9495 -2.07453 0
M  V30 8539 O 792.422 3.86546 -1.43722 0
M  V30 8540 H 791.763 0.494809 -0.442787 0
M  V30 8541 H 794.293 1.03578 -1.76445 0
M  V30 8542 H 794.303 3.44599 -2.1844 0
M  V30 8543 H 792.978 2.76055 -3.11073 0
M  V30 8544 H 791.555 3.45044 -1.41417 0
M  V30 8545 N 793.74 1.17359 1.05189 0
M  V30 8546 C 794.965 0.98709 1.82404 0
M  V30 8547 C 795.39 -0.459848 1.82392 0
M  V30 8548 O 794.748 -1.32924 1.23292 0
M  V30 8549 C 794.796 1.53276 3.26403 0
M  V30 8550 O 793.9 0.746541 4.05587 0
M  V30 8551 H 793.241 0.35047 0.563974 0
M  V30 8552 H 795.771 1.55856 1.32552 0
M  V30 8553 H 795.781 1.55504 3.77203 0
M  V30 8554 H 794.456 2.58603 3.25726 0
M  V30 8555 H 793.033 0.795671 3.64312 0
M  V30 8556 N 795.218 -1.23913 0.973828 0
M  V30 8557 C 796.168 -2.22892 0.479933 0
M  V30 8558 C 797.152 -1.54726 -0.441434 0
M  V30 8559 O 798.344 -1.74908 -0.271358 0
M  V30 8560 C 795.473 -3.42577 -0.222702 0
M  V30 8561 C 794.559 -4.17981 0.717851 0
M  V30 8562 N 794.95 -4.7045 1.8577 0
M  V30 8563 C 793.248 -4.42841 0.529858 0
M  V30 8564 C 793.949 -5.27751 2.44651 0
M  V30 8565 N 792.925 -5.15302 1.73104 0
M  V30 8566 H 796.727 -2.61083 1.34956 0
M  V30 8567 H 794.241 -1.39368 0.83368 0
M  V30 8568 H 796.238 -4.1265 -0.593793 0
M  V30 8569 H 794.898 -3.05904 -1.0887 0
M  V30 8570 H 795.909 -4.66997 2.23908 0
M  V30 8571 H 792.586 -4.1648 -0.291664 0
M  V30 8572 H 793.976 -5.79011 3.40875 0
M  V30 8573 N 796.696 -0.74468 -1.38897 0
M  V30 8574 C 798.107 -0.36568 -1.83084 0
M  V30 8575 C 798.458 1.10436 -1.62168 0
M  V30 8576 O 797.583 1.85281 -1.11804 0
M  V30 8577 C 798.178 -0.656946 -3.3237 0
M  V30 8578 C 796.737 -0.331329 -3.74939 0
M  V30 8579 C 795.884 -0.914661 -2.61781 0
M  V30 8580 H 798.835 -0.941551 -1.27752 0
M  V30 8581 H 798.856 0.0679546 -3.80439 0
M  V30 8582 H 798.368 -1.72693 -3.47561 0
M  V30 8583 H 796.469 0.732426 -3.6533 0
M  V30 8584 H 796.582 -0.820655 -4.72019 0
M  V30 8585 H 794.946 -0.34063 -2.52412 0
M  V30 8586 H 795.729 -1.98949 -2.79775 0
M  V30 8587 N 798.174 1.49689 -0.493057 0
M  V30 8588 C 799.422 2.02027 0.0541642 0
M  V30 8589 C 799.743 1.37554 1.38217 0
M  V30 8590 O 799.013 0.528174 1.88646 0
M  V30 8591 H 797.593 0.746646 0.0230069 0
M  V30 8592 H 800.255 1.83795 -0.648489 0
M  V30 8593 H 799.351 3.11523 0.189652 0
M  V30 8594 N 799.652 0.226554 1.55963 0
M  V30 8595 C 800.582 -0.676079 2.23498 0
M  V30 8596 C 801.563 -1.19718 1.20837 0
M  V30 8597 O 802.748 -1.24027 1.49436 0
M  V30 8598 C 799.878 -1.88217 2.91876 0
M  V30 8599 C 798.832 -1.4947 4.01052 0
M  V30 8600 C 798.158 -2.77997 4.56751 0
M  V30 8601 C 799.458 -0.680951 5.17842 0
M  V30 8602 H 801.152 -0.112989 2.99187 0
M  V30 8603 H 798.698 -0.0529046 1.43903 0
M  V30 8604 H 800.651 -2.51911 3.37815 0
M  V30 8605 H 799.375 -2.47031 2.13643 0
M  V30 8606 H 798.034 -0.881199 3.55852 0
M  V30 8607 H 797.682 -3.34966 3.75243 0
M  V30 8608 H 797.382 -2.52803 5.30438 0
M  V30 8609 H 798.906 -3.42625 5.05411 0
M  V30 8610 H 800.32 -1.22171 5.60131 0
M  V30 8611 H 798.717 -0.525898 5.97791 0
M  V30 8612 H 799.787 0.311346 4.83899 0
M  V30 8613 N 801.13 -1.57531 -0.0467866 0
M  V30 8614 C 802.358 -1.92696 -0.753371 0
M  V30 8615 C 802.773 -0.824792 -1.69831 0
M  V30 8616 O 802.13 0.200155 -1.81399 0
M  V30 8617 C 802.181 -3.27728 -1.52566 0
M  V30 8618 O 801.902 -4.3371 -0.618674 0
M  V30 8619 C 803.403 -3.77066 -2.33101 0
M  V30 8620 H 800.623 -0.636367 -0.212788 0
M  V30 8621 H 803.167 -2.04498 -0.00959361 0
M  V30 8622 H 801.322 -3.17378 -2.22148 0
M  V30 8623 H 801.736 -5.11548 -1.15839 0
M  V30 8624 H 803.21 -4.74109 -2.82709 0
M  V30 8625 H 803.687 -3.07348 -3.13741 0
M  V30 8626 H 804.293 -3.90442 -1.68628 0
M  V30 8627 N 802.608 0.318715 -1.54344 0
M  V30 8628 C 803.836 1.0755 -1.7675 0
M  V30 8629 C 804.251 1.81543 -0.518422 0
M  V30 8630 O 803.608 1.75198 0.511078 0
M  V30 8631 C 803.659 2.06983 -2.96378 0
M  V30 8632 O 803.38 1.35995 -4.16458 0
M  V30 8633 C 804.881 2.94841 -3.31034 0
M  V30 8634 H 802.101 0.319711 -0.589937 0
M  V30 8635 H 804.645 0.363369 -2.01246 0
M  V30 8636 H 802.8 2.73724 -2.74142 0
M  V30 8637 H 803.214 2.02623 -4.83781 0
M  V30 8638 H 804.688 3.60496 -4.18027 0
M  V30 8639 H 805.165 3.62199 -2.48412 0
M  V30 8640 H 805.771 2.33656 -3.55366 0
M  V30 8641 N 804.086 1.46499 0.581025 0
M  V30 8642 C 805.314 1.5547 1.36517 0
M  V30 8643 C 805.729 0.196407 1.87776 0
M  V30 8644 O 805.086 -0.806577 1.63709 0
M  V30 8645 C 805.137 2.56084 2.55154 0
M  V30 8646 O 804.858 3.86637 2.06018 0
M  V30 8647 C 806.359 2.75011 3.47683 0
M  V30 8648 H 803.579 0.525703 0.416986 0
M  V30 8649 H 806.123 1.9192 0.706177 0
M  V30 8650 H 804.278 2.22633 3.17039 0
M  V30 8651 H 804.692 4.41413 2.83292 0
M  V30 8652 H 806.166 3.49329 4.27403 0
M  V30 8653 H 806.643 1.81978 3.99726 0
M  V30 8654 H 807.249 3.09565 2.91632 0
M  V30 8655 N 805.565 -0.825799 1.34232 0
M  V30 8656 C 806.805 -1.59541 1.27773 0
M  V30 8657 C 807.169 -1.91405 -0.150998 0
M  V30 8658 O 808.37 -2.66644 -0.339728 0
M  V30 8659 C 806.641 -2.86183 2.14089 0
M  V30 8660 S 808.2 -3.76751 2.24953 0
M  V30 8661 H 805.018 -0.546871 0.454371 0
M  V30 8662 H 807.62 -0.975677 1.69413 0
M  V30 8663 H 806.324 -2.60767 3.16905 0
M  V30 8664 H 805.855 -3.53155 1.73335 0
M  V30 8665 H 807.87 -4.75442 1.4202 0
M  V30 8666 N 807.043 -1.17915 -1.04565 0
M  V30 8667 C 808.283 -0.982331 -1.79247 0
M  V30 8668 C 808.647 0.47998 -1.85904 0
M  V30 8669 O 809.848 0.796078 -2.56741 0
M  V30 8670 C 808.119 -1.61329 -3.18916 0
M  V30 8671 S 809.678 -1.56355 -4.09998 0
M  V30 8672 H 806.496 -0.352869 -0.617256 0
M  V30 8673 H 809.098 -1.49971 -1.25415 0
M  V30 8674 H 807.802 -2.66993 -3.11678 0
M  V30 8675 H 807.333 -1.09599 -3.77825 0
M  V30 8676 H 809.348 -0.57593 -4.92846 0
M  V30 8677 N 808.521 1.23394 -0.980386 0
M  V30 8678 C 809.746 1.96384 -0.666935 0
M  V30 8679 C 810.171 1.72087 0.759456 0
M  V30 8680 O 809.529 0.992328 1.51732 0
M  V30 8681 C 809.577 3.47499 -0.963177 0
M  V30 8682 O 808.681 4.12363 -0.0552051 0
M  V30 8683 H 808.022 0.614797 -0.250839 0
M  V30 8684 H 810.552 1.56831 -1.31398 0
M  V30 8685 H 810.562 3.97953 -0.899877 0
M  V30 8686 H 809.237 3.6451 -2.00264 0
M  V30 8687 H 807.814 3.72499 -0.172914 0
M  V30 8688 N 809.999 0.752036 1.385 0
M  V30 8689 C 811.415 0.42946 1.53713 0
M  V30 8690 C 811.615 -1.0576 1.71514 0
M  V30 8691 O 810.671 -1.84366 1.72527 0
M  V30 8692 C 811.984 1.22735 2.74511 0
M  V30 8693 C 813.532 1.21727 2.8836 0
M  V30 8694 C 814.007 1.99809 4.12117 0
M  V30 8695 N 815.498 1.97062 4.19191 0
M  V30 8696 C 816.233 2.54274 5.13938 0
M  V30 8697 N 815.729 3.20193 6.14368 0
M  V30 8698 N 817.522 2.44212 5.06277 0
M  V30 8699 H 809.673 1.71581 1.25195 0
M  V30 8700 H 811.936 0.727293 0.60807 0
M  V30 8701 H 811.642 2.28032 2.67758 0
M  V30 8702 H 811.516 0.843186 3.67655 0
M  V30 8703 H 813.903 0.172367 2.94596 0
M  V30 8704 H 813.984 1.64094 1.96232 0
M  V30 8705 H 813.628 3.0431 4.06642 0
M  V30 8706 H 813.558 1.54837 5.03322 0
M  V30 8707 H 816.049 1.49054 3.47263 0
M  V30 8708 H 816.362 3.61272 6.83156 0
M  V30 8709 H 814.707 3.24287 6.14705 0
M  V30 8710 H 817.898 1.92343 4.26757 0
M  V30 8711 H 818.071 2.89096 5.79937 0
M  V30 8712 N 811.477 -1.49425 0.500989 0
M  V30 8713 C 812.893 -1.58826 0.156951 0
M  V30 8714 C 813.093 -1.50622 -1.33848 0
M  V30 8715 O 812.149 -1.38016 -2.11442 0
M  V30 8716 C 813.462 -2.91611 0.73374 0
M  V30 8717 C 815.01 -3.05076 0.699846 0
M  V30 8718 C 815.485 -4.40479 1.2547 0
M  V30 8719 N 816.976 -4.4697 1.2154 0
M  V30 8720 C 817.711 -5.50189 1.6149 0
M  V30 8721 N 817.207 -6.60512 2.09034 0
M  V30 8722 N 819 -5.40903 1.52907 0
M  V30 8723 H 811.151 -1.53001 1.47324 0
M  V30 8724 H 813.414 -0.724765 0.61108 0
M  V30 8725 H 813.12 -3.03182 1.78251 0
M  V30 8726 H 812.994 -3.767 0.19417 0
M  V30 8727 H 815.381 -2.93134 -0.340085 0
M  V30 8728 H 815.462 -2.2167 1.27656 0
M  V30 8729 H 815.106 -4.53172 2.29341 0
M  V30 8730 H 815.036 -5.22524 0.653921 0
M  V30 8731 H 817.527 -3.67819 0.867043 0
M  V30 8732 H 817.84 -7.35372 2.37588 0
M  V30 8733 H 816.185 -6.61553 2.13008 0
M  V30 8734 H 819.376 -4.53606 1.15583 0
M  V30 8735 H 819.549 -6.21219 1.84365 0
M  V30 8736 N 812.955 -0.234822 -1.55841 0
M  V30 8737 C 814.18 0.400741 -2.03492 0
M  V30 8738 C 814.605 1.51618 -1.11327 0
M  V30 8739 O 813.963 1.81002 -0.103922 0
M  V30 8740 C 814.011 0.897184 -3.49261 0
M  V30 8741 O 813.115 2.00764 -3.60233 0
M  V30 8742 H 812.456 0.0890023 -0.658008 0
M  V30 8743 H 814.986 -0.357345 -2.01455 0
M  V30 8744 H 814.996 1.20356 -3.89844 0
M  V30 8745 H 813.671 0.0808639 -4.15821 0
M  V30 8746 H 812.248 1.70689 -3.31541 0
M  V30 8747 N 814.433 1.57553 0.0384317 0
M  V30 8748 C 815.38 2.05942 1.04194 0
M  V30 8749 C 816.35 0.946637 1.36484 0
M  V30 8750 O 817.535 1.21658 1.46983 0
M  V30 8751 C 814.675 2.53588 2.34066 0
M  V30 8752 C 813.788 3.7862 2.08017 0
M  V30 8753 C 812.923 4.14915 3.31692 0
M  V30 8754 C 811.962 5.32891 3.01155 0
M  V30 8755 N 811.099 5.64662 4.17254 0
M  V30 8756 H 815.939 2.91429 0.622341 0
M  V30 8757 H 813.476 1.44098 0.295684 0
M  V30 8758 H 815.434 2.79276 3.09937 0
M  V30 8759 H 814.064 1.71031 2.73767 0
M  V30 8760 H 813.116 3.60073 1.22686 0
M  V30 8761 H 814.428 4.64613 1.81484 0
M  V30 8762 H 813.582 4.41681 4.15936 0
M  V30 8763 H 812.321 3.27555 3.6133 0
M  V30 8764 H 811.326 5.05887 2.15311 0
M  V30 8765 H 812.551 6.21896 2.72804 0
M  V30 8766 H 810.497 4.80261 4.46861 0
M  V30 8767 H 810.414 6.45145 3.94112 0
M  V30 8768 H 811.682 5.96 5.02399 0
M  V30 8769 N 815.911 -0.310526 1.54511 0
M  V30 8770 C 816.858 -1.38264 1.84802 0
M  V30 8771 C 817.828 -1.50808 0.696141 0
M  V30 8772 O 819.013 -1.6582 0.943846 0
M  V30 8773 C 816.153 -2.74422 2.09252 0
M  V30 8774 C 815.266 -2.70405 3.36906 0
M  V30 8775 C 814.401 -3.98495 3.51248 0
M  V30 8776 C 813.44 -3.88836 4.72729 0
M  V30 8777 N 812.577 -5.08683 4.83928 0
M  V30 8778 H 817.417 -1.11732 2.76261 0
M  V30 8779 H 814.954 -0.540609 1.36806 0
M  V30 8780 H 816.912 -3.53593 2.21422 0
M  V30 8781 H 815.542 -2.99235 1.2107 0
M  V30 8782 H 814.594 -1.83151 3.33406 0
M  V30 8783 H 815.906 -2.59155 4.26193 0
M  V30 8784 H 815.06 -4.861 3.63031 0
M  V30 8785 H 813.799 -4.12567 2.60077 0
M  V30 8786 H 812.804 -2.99615 4.60989 0
M  V30 8787 H 814.029 -3.76318 5.65298 0
M  V30 8788 H 811.975 -5.23236 3.95677 0
M  V30 8789 H 811.892 -4.99819 5.67201 0
M  V30 8790 H 813.16 -5.97966 5.00057 0
M  V30 8791 N 817.389 -1.46805 -0.573248 0
M  V30 8792 C 818.617 -1.56191 -1.3569 0
M  V30 8793 C 819.032 -0.206362 -1.87669 0
M  V30 8794 O 818.389 0.797883 -1.64134 0
M  V30 8795 C 818.44 -2.57433 -2.53792 0
M  V30 8796 O 818.161 -3.87724 -2.03965 0
M  V30 8797 C 819.662 -2.76851 -3.4622 0
M  V30 8798 H 816.882 -0.527907 -0.414192 0
M  V30 8799 H 819.426 -1.92292 -0.695989 0
M  V30 8800 H 817.581 -2.24311 -3.15854 0
M  V30 8801 H 817.995 -4.42909 -2.80948 0
M  V30 8802 H 819.469 -3.5159 -4.25545 0
M  V30 8803 H 819.946 -1.84095 -3.98755 0
M  V30 8804 H 820.552 -3.11107 -2.89987 0
M  V30 8805 N 818.867 0.818669 -1.34668 0
M  V30 8806 C 820.095 1.60674 -1.30351 0
M  V30 8807 C 820.51 1.88408 0.121546 0
M  V30 8808 O 819.867 1.47849 1.06991 0
M  V30 8809 C 819.918 2.94516 -2.09625 0
M  V30 8810 O 819.639 2.6799 -3.46573 0
M  V30 8811 C 821.14 3.8891 -2.12754 0
M  V30 8812 H 818.36 0.499306 -0.448258 0
M  V30 8813 H 820.904 1.01828 -1.77345 0
M  V30 8814 H 819.059 3.49908 -1.66262 0
M  V30 8815 H 819.473 3.53361 -3.87603 0
M  V30 8816 H 820.947 4.79972 -2.72637 0
M  V30 8817 H 821.424 4.24599 -1.12306 0
M  V30 8818 H 822.03 3.39453 -2.56225 0
M  V30 8819 N 820.346 1.18468 1.03938 0
M  V30 8820 C 821.296 0.880799 2.103 0
M  V30 8821 C 822.28 -0.150008 1.60199 0
M  V30 8822 O 823.472 0.054213 1.76917 0
M  V30 8823 C 820.601 0.409723 3.40846 0
M  V30 8824 C 819.687 1.47267 3.9771 0
M  V30 8825 N 820.078 2.68945 4.28371 0
M  V30 8826 C 818.376 1.33349 4.25598 0
M  V30 8827 C 819.077 3.37341 4.73894 0
M  V30 8828 N 818.053 2.64725 4.74786 0
M  V30 8829 H 821.855 1.80574 2.31884 0
M  V30 8830 H 819.369 1.07527 1.21703 0
M  V30 8831 H 821.366 0.17352 4.16539 0
M  V30 8832 H 820.026 -0.508862 3.20688 0
M  V30 8833 H 821.037 3.05801 4.17978 0
M  V30 8834 H 817.714 0.477548 4.1476 0
M  V30 8835 H 819.104 4.41338 5.06627 0
M  V30 8836 N 821.824 -1.22873 0.986916 0
M  V30 8837 C 822.754 -2.2688 0.552064 0
M  V30 8838 C 823.735 -1.64883 -0.418048 0
M  V30 8839 O 824.92 -1.9171 -0.30999 0
M  V30 8840 C 822.05 -3.47018 -0.139959 0
M  V30 8841 C 821.004 -4.21411 0.748091 0
M  V30 8842 C 820.33 -5.34645 -0.0765132 0
M  V30 8843 C 821.63 -4.80726 2.04206 0
M  V30 8844 H 823.324 -2.63507 1.42143 0
M  V30 8845 H 820.87 -1.26668 0.68492 0
M  V30 8846 H 822.823 -4.18931 -0.455527 0
M  V30 8847 H 821.547 -3.0947 -1.04382 0
M  V30 8848 H 820.206 -3.51325 1.04721 0
M  V30 8849 H 819.854 -4.93339 -0.981109 0
M  V30 8850 H 819.554 -5.85342 0.514606 0
M  V30 8851 H 821.078 -6.09377 -0.386313 0
M  V30 8852 H 822.492 -5.44612 1.79083 0
M  V30 8853 H 820.889 -5.41737 2.5815 0
M  V30 8854 H 821.959 -4.01109 2.72469 0
M  V30 8855 N 823.302 -0.75937 -1.38099 0
M  V30 8856 C 824.713 -0.385078 -1.82686 0
M  V30 8857 C 825.064 1.0871 -1.6333 0
M  V30 8858 O 824.189 1.84084 -1.13762 0
M  V30 8859 C 824.784 -0.692161 -3.31654 0
M  V30 8860 C 823.343 -0.371077 -3.74566 0
M  V30 8861 C 822.49 -0.942375 -2.60796 0
M  V30 8862 H 825.441 -0.955048 -1.26746 0
M  V30 8863 H 825.462 0.0276001 -3.8049 0
M  V30 8864 H 824.974 -1.76369 -3.4571 0
M  V30 8865 H 823.075 0.693637 -3.66087 0
M  V30 8866 H 823.188 -0.870672 -4.71122 0
M  V30 8867 H 821.552 -0.367383 -2.52036 0
M  V30 8868 H 822.335 -2.01905 -2.77649 0
M  V30 8869 N 824.78 1.49157 -0.508906 0
M  V30 8870 C 825.728 2.30922 0.278906 0
M  V30 8871 C 826.722 1.39889 0.955382 0
M  V30 8872 O 827.928 1.56901 0.882169 0
M  V30 8873 H 824.303 0.744087 0.108805 0
M  V30 8874 H 826.274 2.95277 -0.430583 0
M  V30 8875 C 825.023 3.21432 1.32576 0
M  V30 8876 H 824.346 3.91413 0.814634 0
M  V30 8877 H 825.786 3.81568 1.84882 0
M  V30 8878 C 824.245 2.41583 2.34817 0
M  V30 8879 O 824.775 2.1256 3.40854 0
M  V30 8880 N 822.981 2.03462 2.07489 0
M  V30 8881 H 822.528 2.27265 1.21278 0
M  V30 8882 H 822.486 1.50345 2.76123 0
M  V30 8883 N 826.258 0.243083 1.55714 0
M  V30 8884 C 827.483 -0.389944 2.03701 0
M  V30 8885 C 827.908 -1.51025 1.12129 0
M  V30 8886 O 827.266 -1.80944 0.11352 0
M  V30 8887 C 827.314 -0.878649 3.49731 0
M  V30 8888 O 826.418 -1.98851 3.61292 0
M  V30 8889 H 825.759 -0.0855115 0.658471 0
M  V30 8890 H 828.289 0.368023 2.01263 0
M  V30 8891 H 828.299 -1.18287 3.90477 0
M  V30 8892 H 826.974 -0.0588107 4.15858 0
M  V30 8893 H 825.551 -1.68928 3.32442 0
M  V30 8894 N 827.736 -1.57571 -0.0300757 0
M  V30 8895 C 828.684 -2.0758 -1.04944 0
M  V30 8896 C 829.678 -0.989384 -1.37505 0
M  V30 8897 O 830.884 -1.17427 -1.36422 0
M  V30 8898 H 827.259 -0.662419 -0.355956 0
M  V30 8899 H 829.23 -2.92268 -0.601848 0
M  V30 8900 C 827.979 -2.5698 -2.34215 0
M  V30 8901 H 827.302 -3.40193 -2.10021 0
M  V30 8902 H 828.742 -2.95682 -3.03888 0
M  V30 8903 C 827.201 -1.47059 -3.03109 0
M  V30 8904 O 827.731 -0.83625 -3.92899 0
M  V30 8905 N 825.937 -1.20538 -2.64422 0
M  V30 8906 H 825.484 -1.72305 -1.9149 0
M  V30 8907 H 825.442 -0.472045 -3.10836 0
M  V30 8908 N 829.214 0.302327 -1.54673 0
M  V30 8909 C 830.144 1.37759 -1.88533 0
M  V30 8910 C 831.125 1.52961 -0.744113 0
M  V30 8911 O 832.31 1.6649 -0.999731 0
M  V30 8912 C 829.44 2.74201 -2.13146 0
M  V30 8913 C 828.394 2.73765 -3.28993 0
M  V30 8914 C 827.72 4.13483 -3.39022 0
M  V30 8915 C 829.02 2.35624 -4.66132 0
M  V30 8916 H 830.714 1.0967 -2.78591 0
M  V30 8917 H 828.26 0.52613 -1.34044 0
M  V30 8918 H 830.213 3.49508 -2.35419 0
M  V30 8919 H 828.937 3.03812 -1.19858 0
M  V30 8920 H 827.596 2.00914 -3.06642 0
M  V30 8921 H 827.244 4.40269 -2.43253 0
M  V30 8922 H 826.944 4.14093 -4.16894 0
M  V30 8923 H 828.468 4.90572 -3.63553 0
M  V30 8924 H 829.882 3.00647 -4.88143 0
M  V30 8925 H 828.279 2.47449 -5.46707 0
M  V30 8926 H 829.349 1.30753 -4.66939 0
M  V30 8927 N 830.692 1.47107 0.565454 0
M  V30 8928 C 832.103 1.47266 1.1476 0
M  V30 8929 C 832.454 0.222841 1.9493 0
M  V30 8930 O 831.579 -0.672862 2.05673 0
M  V30 8931 C 832.174 2.66822 2.08785 0
M  V30 8932 C 830.733 2.69967 2.62288 0
M  V30 8933 C 829.88 2.40236 1.38499 0
M  V30 8934 H 832.831 1.54736 0.352479 0
M  V30 8935 H 832.852 2.43323 2.92531 0
M  V30 8936 H 832.364 3.5777 1.50408 0
M  V30 8937 H 830.465 1.83137 3.24487 0
M  V30 8938 H 830.578 3.70426 3.03845 0
M  V30 8939 H 828.942 1.90648 1.68895 0
M  V30 8940 H 829.725 3.33381 0.819274 0
M  V30 8941 N 832.17 -0.811516 1.35101 0
M  V30 8942 C 833.133 -1.90467 1.27495 0
M  V30 8943 C 834.133 -1.59703 0.187516 0
M  V30 8944 O 835.323 -1.68528 0.440896 0
M  V30 8945 C 832.455 -3.26774 0.971154 0
M  V30 8946 H 833.648 -1.98631 2.2469 0
M  V30 8947 H 831.201 -1.00681 1.19553 0
M  V30 8948 H 831.936 -3.243 0.0028557 0
M  V30 8949 H 831.721 -3.50488 1.75785 0
M  V30 8950 H 833.211 -4.06804 0.943414 0
M  V30 8951 N 833.648 -1.19017 -1.03309 0
M  V30 8952 C 834.876 -1.01534 -1.80273 0
M  V30 8953 C 835.291 0.43605 -1.83696 0
M  V30 8954 O 834.648 1.30288 -1.27794 0
M  V30 8955 C 834.699 -1.5722 -3.25522 0
M  V30 8956 O 834.42 -2.96677 -3.22358 0
M  V30 8957 C 835.921 -1.4446 -4.19102 0
M  V30 8958 H 833.141 -0.358094 -0.567459 0
M  V30 8959 H 835.685 -1.57738 -1.3015 0
M  V30 8960 H 833.84 -1.05174 -3.7285 0
M  V30 8961 H 834.254 -3.22795 -4.13405 0
M  V30 8962 H 835.728 -1.88209 -5.18923 0
M  V30 8963 H 836.205 -0.394471 -4.37425 0
M  V30 8964 H 836.811 -1.95616 -3.77643 0
M  V30 8965 N 835.127 1.22348 -0.993418 0
M  V30 8966 C 836.543 1.43222 -0.704238 0
M  V30 8967 C 836.743 1.88009 0.724909 0
M  V30 8968 O 835.799 2.03429 1.49575 0
M  V30 8969 C 837.112 2.47328 -1.71025 0
M  V30 8970 C 838.66 2.61126 -1.72576 0
M  V30 8971 C 839.135 3.68453 -2.72041 0
M  V30 8972 N 840.626 3.75911 -2.70639 0
M  V30 8973 C 841.361 4.58551 -3.44266 0
M  V30 8974 N 840.857 5.45179 -4.27495 0
M  V30 8975 N 842.65 4.52866 -3.32969 0
M  V30 8976 H 834.801 0.915832 -1.91641 0
M  V30 8977 H 837.064 0.464283 -0.826526 0
M  V30 8978 H 836.77 2.21366 -2.73295 0
M  V30 8979 H 836.644 3.45939 -1.50353 0
M  V30 8980 H 839.031 2.86431 -0.710037 0
M  V30 8981 H 839.112 1.62787 -1.97317 0
M  V30 8982 H 838.756 3.43895 -3.73763 0
M  V30 8983 H 838.686 4.66362 -2.4457 0
M  V30 8984 H 841.177 3.14014 -2.10247 0
M  V30 8985 H 841.49 6.0526 -4.80499 0
M  V30 8986 H 839.835 5.44759 -4.31582 0
M  V30 8987 H 843.026 3.84215 -2.67389 0
M  V30 8988 H 843.199 5.17039 -3.90608 0
M  V30 8989 N 836.605 0.766683 1.37694 0
M  V30 8990 C 837.535 0.163432 2.32927 0
M  V30 8991 C 838.516 -0.688861 1.55527 0
M  V30 8992 O 839.701 -0.627363 1.83787 0
M  V30 8993 C 836.831 -0.720416 3.39746 0
M  V30 8994 C 835.785 0.0301718 4.27989 0
M  V30 8995 C 835.111 -0.972788 5.25776 0
M  V30 8996 C 836.411 1.20623 5.0818 0
M  V30 8997 H 838.105 0.958988 2.83626 0
M  V30 8998 H 835.651 0.462601 1.36367 0
M  V30 8999 H 837.604 -1.15221 4.05342 0
M  V30 9000 H 836.328 -1.54844 2.8756 0
M  V30 9001 H 834.987 0.442685 3.63917 0
M  V30 9002 H 834.635 -1.79522 4.69873 0
M  V30 9003 H 834.335 -0.475145 5.85676 0
M  V30 9004 H 835.859 -1.40362 5.94248 0
M  V30 9005 H 837.273 0.851341 5.66944 0
M  V30 9006 H 835.67 1.63561 5.7738 0
M  V30 9007 H 836.74 2.01281 4.41151 0
M  V30 9008 N 838.083 -1.48885 0.516809 0
M  V30 9009 C 839.499 -1.58651 0.173788 0
M  V30 9010 C 839.699 -1.52033 -1.32243 0
M  V30 9011 O 838.755 -1.40251 -2.09967 0
M  V30 9012 C 840.068 -2.90816 0.764628 0
M  V30 9013 C 841.616 -3.04316 0.732164 0
M  V30 9014 C 842.091 -4.39123 1.30135 0
M  V30 9015 N 843.582 -4.45656 1.26273 0
M  V30 9016 C 844.317 -5.48446 1.67317 0
M  V30 9017 N 843.813 -6.58258 2.16028 0
M  V30 9018 N 845.606 -5.39251 1.58635 0
M  V30 9019 H 837.757 -1.5143 1.48939 0
M  V30 9020 H 840.02 -0.718243 0.618733 0
M  V30 9021 H 839.726 -3.01275 1.81456 0
M  V30 9022 H 839.6 -3.76473 0.234113 0
M  V30 9023 H 841.987 -2.93478 -0.308975 0
M  V30 9024 H 842.068 -2.20303 1.3 0
M  V30 9025 H 841.712 -4.50714 2.34135 0
M  V30 9026 H 841.642 -5.21801 0.709305 0
M  V30 9027 H 844.133 -3.66879 0.906006 0
M  V30 9028 H 844.446 -7.32811 2.45374 0
M  V30 9029 H 842.791 -6.59257 2.20013 0
M  V30 9030 H 845.982 -4.52354 1.20387 0
M  V30 9031 H 846.155 -6.19229 1.90944 0
M  V30 9032 N 839.561 -0.251338 -1.55583 0
M  V30 9033 C 840.786 0.379136 -2.03905 0
M  V30 9034 C 841.211 1.50428 -1.12929 0
M  V30 9035 O 840.569 1.80882 -0.123114 0
M  V30 9036 C 840.617 0.86009 -3.50193 0
M  V30 9037 O 839.721 1.96932 -3.62342 0
M  V30 9038 H 839.062 0.0820183 -0.658915 0
M  V30 9039 H 841.592 -0.378692 -2.01065 0
M  V30 9040 H 841.602 1.16214 -3.91099 0
M  V30 9041 H 840.277 0.0367559 -4.15884 0
M  V30 9042 H 838.854 1.67163 -3.33333 0
M  V30 9043 N 841.039 1.57585 0.0217189 0
M  V30 9044 C 841.972 2.02435 1.05334 0
M  V30 9045 C 842.95 0.91006 1.34747 0
M  V30 9046 O 844.134 1.17648 1.47279 0
M  V30 9047 C 841.261 2.40362 2.38629 0
M  V30 9048 C 840.307 3.62307 2.25025 0
M  V30 9049 S 841.14 5.11141 1.59673 0
M  V30 9050 C 842.296 5.52316 2.94444 0
M  V30 9051 H 842.529 2.89621 0.671354 0
M  V30 9052 H 840.062 1.52648 0.231925 0
M  V30 9053 H 842.02 2.62883 3.15282 0
M  V30 9054 H 840.681 1.53615 2.73973 0
M  V30 9055 H 839.874 3.86523 3.23443 0
M  V30 9056 H 839.476 3.39675 1.56515 0
M  V30 9057 H 841.768 5.53449 3.90768 0
M  V30 9058 H 842.711 6.52539 2.74952 0
M  V30 9059 H 843.119 4.79834 2.97355 0
M  V30 9060 N 842.517 -0.29412 1.54831 0
M  V30 9061 C 843.449 -1.38476 1.82639 0
M  V30 9062 C 844.462 -1.46517 0.709694 0
M  V30 9063 O 845.651 -1.48712 0.987269 0
M  V30 9064 C 842.751 -2.76791 1.95551 0
M  V30 9065 C 841.924 -2.91599 3.26019 0
M  V30 9066 C 840.983 -4.10456 3.29261 0
M  V30 9067 O 840.009 -4.02214 4.02756 0
M  V30 9068 N 841.211 -5.21422 2.55145 0
M  V30 9069 H 843.976 -1.14974 2.76769 0
M  V30 9070 H 841.537 -0.484206 1.5449 0
M  V30 9071 H 843.529 -3.5456 1.95113 0
M  V30 9072 H 842.099 -2.93209 1.08384 0
M  V30 9073 H 841.319 -2.00886 3.39173 0
M  V30 9074 H 842.607 -2.98409 4.12104 0
M  V30 9075 H 842.005 -5.31 1.95078 0
M  V30 9076 H 840.562 -5.97501 2.60454 0
M  V30 9077 N 843.995 -1.47404 -0.557645 0
M  V30 9078 C 844.905 -1.62491 -1.69216 0
M  V30 9079 C 845.921 -0.507764 -1.66426 0
M  V30 9080 O 847.097 -0.775241 -1.85882 0
M  V30 9081 C 844.162 -1.63511 -3.05721 0
M  V30 9082 C 843.223 -2.86648 -3.1958 0
M  V30 9083 C 842.456 -2.87609 -4.49574 0
M  V30 9084 O 842.679 -1.97799 -5.35006 0
M  V30 9085 O 841.613 -3.79465 -4.67215 0
M  V30 9086 H 845.439 -2.58487 -1.59431 0
M  V30 9087 H 843.024 -1.30485 -0.7276 0
M  V30 9088 H 844.906 -1.66863 -3.86956 0
M  V30 9089 H 843.581 -0.706812 -3.15889 0
M  V30 9090 H 842.488 -2.8884 -2.37744 0
M  V30 9091 H 843.821 -3.7877 -3.14316 0
M  V30 9092 N 845.473 0.80434 -1.35529 0
M  V30 9093 C 846.403 1.93086 -1.31301 0
M  V30 9094 C 847.384 1.69068 -0.187044 0
M  V30 9095 O 848.569 1.90399 -0.382359 0
M  V30 9096 C 845.699 3.29867 -1.0865 0
M  V30 9097 C 844.653 3.68373 -2.17911 0
M  V30 9098 C 843.979 5.0334 -1.80423 0
M  V30 9099 C 845.279 3.78516 -3.59893 0
M  V30 9100 H 846.973 1.96882 -2.25561 0
M  V30 9101 H 844.519 0.945841 -1.08581 0
M  V30 9102 H 846.472 4.08281 -1.04331 0
M  V30 9103 H 845.196 3.2642 -0.108359 0
M  V30 9104 H 843.855 2.92247 -2.21331 0
M  V30 9105 H 843.503 4.96399 -0.812213 0
M  V30 9106 H 843.203 5.30074 -2.53565 0
M  V30 9107 H 844.727 5.84191 -1.77633 0
M  V30 9108 H 846.141 4.47155 -3.58783 0
M  V30 9109 H 844.538 4.16721 -4.31814 0
M  V30 9110 H 845.608 2.8001 -3.95882 0
M  V30 9111 N 846.951 1.19563 1.02676 0
M  V30 9112 C 848.176 1.02556 1.80269 0
M  V30 9113 C 848.601 -0.421056 1.83327 0
M  V30 9114 O 847.959 -1.30279 1.26084 0
M  V30 9115 C 848.007 1.60165 3.23078 0
M  V30 9116 O 847.111 0.832404 4.03912 0
M  V30 9117 H 846.452 0.362354 0.556413 0
M  V30 9118 H 848.982 1.58633 1.29216 0
M  V30 9119 H 848.992 1.6347 3.7382 0
M  V30 9120 H 847.667 2.65454 3.20167 0
M  V30 9121 H 846.244 0.872768 3.62543 0
M  V30 9122 N 848.429 -1.21819 0.999893 0
M  V30 9123 C 849.657 -1.94758 0.698359 0
M  V30 9124 C 850.072 -1.73771 -0.738183 0
M  V30 9125 O 849.429 -1.04113 -1.49889 0
M  V30 9126 C 849.48 -3.47292 1.00353 0
M  V30 9127 O 849.201 -3.67579 2.38363 0
M  V30 9128 C 850.702 -4.37403 0.72068 0
M  V30 9129 H 847.922 -0.619512 0.257771 0
M  V30 9130 H 850.466 -1.54778 1.33656 0
M  V30 9131 H 848.621 -3.85213 0.411018 0
M  V30 9132 H 849.035 -4.61719 2.48829 0
M  V30 9133 H 850.509 -5.43151 0.984422 0
M  V30 9134 H 850.986 -4.3784 -0.345309 0
M  V30 9135 H 851.592 -4.05119 1.29456 0
M  V30 9136 N 849.908 -0.773975 -1.37286 0
M  V30 9137 C 851.157 -0.335977 -1.98882 0
M  V30 9138 C 851.47 1.09416 -1.62134 0
M  V30 9139 O 852.676 1.63366 -2.1685 0
M  V30 9140 C 851.132 -0.549756 -3.55676 0
M  V30 9141 C 850.74 -1.9903 -4.01361 0
M  V30 9142 C 852.484 -0.175493 -4.24137 0
M  V30 9143 C 850.391 -2.15156 -5.50874 0
M  V30 9144 H 849.321 -0.121877 -0.744085 0
M  V30 9145 H 851.972 -0.953419 -1.56787 0
M  V30 9146 H 850.354 0.137175 -3.95762 0
M  V30 9147 H 851.528 -2.71237 -3.72515 0
M  V30 9148 H 849.843 -2.32137 -3.4569 0
M  V30 9149 H 852.44 -0.274463 -5.33995 0
M  V30 9150 H 852.783 0.874524 -4.07011 0
M  V30 9151 H 853.316 -0.815058 -3.89361 0
M  V30 9152 H 850.055 -3.18485 -5.72929 0
M  V30 9153 H 849.575 -1.47435 -5.81397 0
M  V30 9154 H 851.254 -1.95124 -6.16876 0
M  V30 9155 N 851.386 1.48609 -0.524698 0
M  V30 9156 C 852.336 2.26505 0.260696 0
M  V30 9157 C 853.32 1.32378 0.914597 0
M  V30 9158 O 854.512 1.5695 0.818277 0
M  V30 9159 C 851.641 3.17313 1.31024 0
M  V30 9160 C 850.727 4.18911 0.661391 0
M  V30 9161 N 851.118 5.05183 -0.24981 0
M  V30 9162 C 849.416 4.36425 0.91922 0
M  V30 9163 C 850.117 5.78348 -0.623598 0
M  V30 9164 N 849.093 5.43598 0.0140839 0
M  V30 9165 H 852.895 2.90582 -0.440388 0
M  V30 9166 H 850.409 1.5875 -0.342364 0
M  V30 9167 H 852.406 3.71772 1.88656 0
M  V30 9168 H 851.066 2.54791 2.01275 0
M  V30 9169 H 852.077 5.1415 -0.622093 0
M  V30 9170 H 848.754 3.85095 1.6127 0
M  V30 9171 H 850.144 6.57775 -1.37046 0
M  V30 9172 N 852.864 0.259585 1.55447 0
M  V30 9173 C 854.113 -0.362163 1.98422 0
M  V30 9174 C 854.426 -1.58135 1.1512 0
M  V30 9175 O 855.632 -2.27506 1.48166 0
M  V30 9176 C 854.088 -0.695722 3.53111 0
M  V30 9177 C 853.696 0.502784 4.4517 0
M  V30 9178 C 855.44 -1.28096 4.04712 0
M  V30 9179 C 853.347 0.144674 5.91223 0
M  V30 9180 H 852.277 -0.139092 0.74106 0
M  V30 9181 H 854.928 0.361798 1.79898 0
M  V30 9182 H 853.31 -1.47816 3.67378 0
M  V30 9183 H 854.484 1.27994 4.42667 0
M  V30 9184 H 852.799 1.0038 4.0412 0
M  V30 9185 H 855.396 -1.56243 5.11363 0
M  V30 9186 H 855.739 -2.20969 3.52815 0
M  V30 9187 H 856.272 -0.561146 3.93822 0
M  V30 9188 H 853.011 1.04087 6.47183 0
M  V30 9189 H 852.531 -0.596023 5.96831 0
M  V30 9190 H 854.21 -0.268651 6.46442 0
M  V30 9191 N 854.342 -1.57594 -0.0133615 0
M  V30 9192 C 855.274 -2.04402 -1.03695 0
M  V30 9193 C 856.287 -0.959546 -1.31516 0
M  V30 9194 O 857.476 -1.23659 -1.28727 0
M  V30 9195 C 854.576 -2.41766 -2.37491 0
M  V30 9196 C 853.749 -3.72785 -2.28802 0
M  V30 9197 C 852.808 -3.97165 -3.45176 0
M  V30 9198 O 851.834 -4.68013 -3.23963 0
M  V30 9199 N 853.036 -3.44021 -4.67579 0
M  V30 9200 H 855.801 -2.92833 -0.637874 0
M  V30 9201 H 853.362 -1.60647 -0.20101 0
M  V30 9202 H 855.354 -2.55201 -3.14093 0
M  V30 9203 H 853.924 -1.58924 -2.69188 0
M  V30 9204 H 853.144 -3.69555 -1.37197 0
M  V30 9205 H 854.432 -4.58704 -2.20154 0
M  V30 9206 H 853.83 -2.86623 -4.87713 0
M  V30 9207 H 852.387 -3.62808 -5.41492 0
M  V30 9208 N 855.82 0.285905 -1.54985 0
M  V30 9209 C 857.068 1.01718 -1.74636 0
M  V30 9210 C 857.389 1.87277 -0.543342 0
M  V30 9211 O 856.659 1.90847 0.442078 0
M  V30 9212 H 855.239 0.378549 -0.643979 0
M  V30 9213 H 857.901 0.313247 -1.92366 0
M  V30 9214 H 856.997 1.66159 -2.64192 0
M  V30 9215 N 857.298 1.47698 0.54982 0
M  V30 9216 C 858.523 1.58579 1.33669 0
M  V30 9217 C 858.948 0.239049 1.86575 0
M  V30 9218 O 858.306 -0.786256 1.63364 0
M  V30 9219 C 858.354 2.62029 2.47736 0
M  V30 9220 O 857.458 2.17813 3.50188 0
M  V30 9221 H 856.799 0.532447 0.396732 0
M  V30 9222 H 859.329 1.93536 0.6637 0
M  V30 9223 H 859.339 2.82682 2.94202 0
M  V30 9224 H 858.014 3.59812 2.08586 0
M  V30 9225 H 856.591 2.07291 3.09976 0
M  V30 9226 N 858.776 -0.797141 1.35954 0
M  V30 9227 C 859.686 -1.94088 1.31784 0
M  V30 9228 C 860.702 -1.72588 0.221227 0
M  V30 9229 O 861.878 -1.96256 0.452255 0
M  V30 9230 C 858.943 -3.28828 1.09878 0
M  V30 9231 C 858.004 -3.63158 2.28942 0
M  V30 9232 C 857.237 -4.91469 2.08072 0
M  V30 9233 O 857.46 -5.60616 1.05196 0
M  V30 9234 O 856.394 -5.24277 2.95664 0
M  V30 9235 H 860.22 -2.00554 2.28061 0
M  V30 9236 H 857.805 -0.936288 1.16422 0
M  V30 9237 H 859.687 -4.09473 0.995485 0
M  V30 9238 H 858.362 -3.23271 0.16659 0
M  V30 9239 H 857.269 -2.82851 2.44839 0
M  V30 9240 H 858.602 -3.7343 3.20641 0
M  V30 9241 N 860.254 -1.20106 -1.0204 0
M  V30 9242 C 861.186 -0.904236 -2.10609 0
M  V30 9243 C 862.199 0.106487 -1.62451 0
M  V30 9244 O 863.388 -0.124035 -1.78069 0
M  V30 9245 C 860.488 -0.333423 -3.37256 0
M  V30 9246 C 859.661 -1.39476 -4.14566 0
M  V30 9247 C 858.72 -0.835961 -5.19517 0
M  V30 9248 O 857.746 -1.51573 -5.48648 0
M  V30 9249 N 858.948 0.356531 -5.79404 0
M  V30 9250 H 861.713 -1.8388 -2.36661 0
M  V30 9251 H 859.274 -1.10422 -1.184 0
M  V30 9252 H 861.266 0.0544571 -4.04663 0
M  V30 9253 H 859.836 0.505608 -3.08484 0
M  V30 9254 H 859.056 -1.95714 -3.42184 0
M  V30 9255 H 860.344 -2.10967 -4.63001 0
M  V30 9256 H 859.742 0.926143 -5.58067 0
M  V30 9257 H 858.299 0.686093 -6.48179 0
M  V30 9258 N 861.732 1.21287 -1.00634 0
M  V30 9259 C 863.143 1.72136 -0.722914 0
M  V30 9260 C 863.494 1.8091 0.759338 0
M  V30 9261 O 862.619 1.46458 1.59308 0
M  V30 9262 C 863.214 3.12633 -1.30561 0
M  V30 9263 C 861.773 3.60833 -1.07127 0
M  V30 9264 C 860.92 2.38326 -1.4176 0
M  V30 9265 H 863.871 1.06445 -1.17708 0
M  V30 9266 H 863.892 3.74174 -0.690937 0
M  V30 9267 H 863.404 3.06215 -2.38441 0
M  V30 9268 H 861.505 3.72599 -0.00968671 0
M  V30 9269 H 861.618 4.46226 -1.74411 0
M  V30 9270 H 859.982 2.40575 -0.836412 0
M  V30 9271 H 860.765 2.34558 -2.50674 0
M  V30 9272 N 863.21 0.781244 1.36873 0
M  V30 9273 C 864.435 0.360398 2.04245 0
M  V30 9274 C 864.86 -1.01242 1.58529 0
M  V30 9275 O 864.218 -1.65063 0.749936 0
M  V30 9276 C 864.266 0.42329 3.58107 0
M  V30 9277 O 863.37 -0.572796 4.08403 0
M  V30 9278 H 862.711 0.154386 0.645803 0
M  V30 9279 H 865.241 1.06008 1.74996 0
M  V30 9280 H 865.251 0.283967 4.07011 0
M  V30 9281 H 863.926 1.42477 3.90734 0
M  V30 9282 H 862.503 -0.395809 3.70793 0
M  V30 9283 N 864.689 -1.48329 0.532571 0
M  V30 9284 C 865.619 -2.32485 -0.217511 0
M  V30 9285 C 866.6 -1.42255 -0.932598 0
M  V30 9286 O 867.785 -1.7114 -0.917873 0
M  V30 9287 C 864.915 -3.23509 -1.26329 0
M  V30 9288 C 863.869 -4.22784 -0.666191 0
M  V30 9289 C 863.195 -5.0296 -1.81482 0
M  V30 9290 C 864.495 -5.21031 0.363813 0
M  V30 9291 H 866.189 -2.95445 0.485014 0
M  V30 9292 H 863.735 -1.42075 0.234694 0
M  V30 9293 H 865.688 -3.81211 -1.79601 0
M  V30 9294 H 864.412 -2.58554 -1.99543 0
M  V30 9295 H 863.071 -3.66272 -0.15498 0
M  V30 9296 H 862.719 -4.34427 -2.5354 0
M  V30 9297 H 862.419 -5.70154 -1.4212 0
M  V30 9298 H 863.943 -5.63514 -2.35126 0
M  V30 9299 H 865.357 -5.73241 -0.0819079 0
M  V30 9300 H 863.754 -5.96292 0.674956 0
M  V30 9301 H 864.824 -4.6801 1.26865 0
M  V30 9302 N 866.167 -0.267825 -1.55308 0
M  V30 9303 C 867.395 0.354587 -2.03839 0
M  V30 9304 C 867.81 1.50007 -1.14644 0
M  V30 9305 O 867.167 1.81752 -0.165055 0
M  V30 9306 C 867.218 0.84254 -3.51544 0
M  V30 9307 O 866.939 -0.257318 -4.37344 0
M  V30 9308 C 868.44 1.53351 -4.15931 0
M  V30 9309 H 865.66 0.0818131 -0.665994 0
M  V30 9310 H 868.204 -0.397795 -2.00594 0
M  V30 9311 H 866.359 1.54503 -3.55257 0
M  V30 9312 H 866.773 0.116593 -5.2437 0
M  V30 9313 H 868.247 1.82643 -5.20908 0
M  V30 9314 H 868.724 2.4626 -3.63666 0
M  V30 9315 H 869.33 0.87506 -4.162 0
M  V30 9316 N 867.645 1.57599 0.00500368 0
M  V30 9317 C 868.873 1.94626 0.702016 0
M  V30 9318 C 869.288 0.86953 1.67585 0
M  V30 9319 O 868.645 -0.15199 1.81866 0
M  V30 9320 C 868.696 3.31658 1.43824 0
M  V30 9321 O 868.417 4.35197 0.503467 0
M  V30 9322 C 869.918 3.83114 2.23021 0
M  V30 9323 H 867.138 0.641785 0.195841 0
M  V30 9324 H 869.682 2.04451 -0.0446287 0
M  V30 9325 H 867.837 3.23156 2.13655 0
M  V30 9326 H 868.251 5.1444 1.02235 0
M  V30 9327 H 869.725 4.81438 2.7004 0
M  V30 9328 H 870.202 3.15559 3.05482 0
M  V30 9329 H 870.808 3.94775 1.58216 0
M  V30 9330 N 869.123 -0.277682 1.55134 0
M  V30 9331 C 870.348 -1.03254 1.7987 0
M  V30 9332 C 870.773 -1.79324 0.567861 0
M  V30 9333 O 870.131 -1.74764 -0.4824 0
M  V30 9334 C 870.179 -1.9705 3.02 0
M  V30 9335 O 869.283 -3.05744 2.76757 0
M  V30 9336 H 868.624 -0.295447 0.594649 0
M  V30 9337 H 871.154 -0.308013 2.02268 0
M  V30 9338 H 871.164 -2.3909 3.30606 0
M  V30 9339 H 869.839 -1.41094 3.91236 0
M  V30 9340 H 868.416 -2.68052 2.59235 0
M  V30 9341 N 870.601 -1.47988 -0.541979 0
M  V30 9342 C 872.017 -1.33843 -0.869383 0
M  V30 9343 C 872.217 -0.340374 -1.98604 0
M  V30 9344 O 871.273 0.242696 -2.51331 0
M  V30 9345 C 872.586 -2.73568 -1.24823 0
M  V30 9346 C 874.134 -2.81967 -1.3588 0
M  V30 9347 C 874.609 -4.22368 -1.77114 0
M  V30 9348 N 876.1 -4.24983 -1.84237 0
M  V30 9349 C 876.835 -5.30547 -2.17503 0
M  V30 9350 N 876.331 -6.46401 -2.49275 0
M  V30 9351 N 878.124 -5.17933 -2.18406 0
M  V30 9352 H 870.275 -2.11503 0.195001 0
M  V30 9353 H 872.538 -0.947681 0.0245862 0
M  V30 9354 H 872.244 -3.48107 -0.501435 0
M  V30 9355 H 872.118 -3.06322 -2.20106 0
M  V30 9356 H 874.505 -2.07692 -2.09638 0
M  V30 9357 H 874.586 -2.52848 -0.387478 0
M  V30 9358 H 874.23 -4.97155 -1.0392 0
M  V30 9359 H 874.16 -4.48922 -2.75275 0
M  V30 9360 H 876.651 -3.41411 -1.62009 0
M  V30 9361 H 876.964 -7.22698 -2.73729 0
M  V30 9362 H 875.309 -6.49696 -2.46821 0
M  V30 9363 H 878.5 -4.26445 -1.93034 0
M  V30 9364 H 878.673 -6.00307 -2.44 0
M  V30 9365 N 872.079 0.78992 -1.36375 0
M  V30 9366 C 873.304 1.58389 -1.33895 0
M  V30 9367 C 873.729 1.8794 0.0774934 0
M  V30 9368 O 873.087 1.4785 1.0493 0
M  V30 9369 C 873.135 2.88201 -2.16732 0
M  V30 9370 O 872.239 3.81778 -1.55946 0
M  V30 9371 H 871.58 0.480471 -0.458305 0
M  V30 9372 H 874.11 0.979119 -1.79651 0
M  V30 9373 H 874.12 3.37475 -2.29292 0
M  V30 9374 H 872.795 2.66019 -3.19698 0
M  V30 9375 H 871.372 3.40371 -1.52323 0
M  V30 9376 N 873.557 1.20646 1.01402 0
M  V30 9377 C 874.782 1.04462 1.79172 0
M  V30 9378 C 875.207 -0.401588 1.83763 0
M  V30 9379 O 874.565 -1.28934 1.27459 0
M  V30 9380 C 874.613 1.63583 3.21361 0
M  V30 9381 O 873.717 0.875198 4.03006 0
M  V30 9382 H 873.058 0.368235 0.552539 0
M  V30 9383 H 875.588 1.59994 1.27526 0
M  V30 9384 H 875.598 1.67426 3.72065 0
M  V30 9385 H 874.273 2.68835 3.17334 0
M  V30 9386 H 872.85 0.911172 3.61597 0
M  V30 9387 N 875.035 -1.20752 1.01276 0
M  V30 9388 C 875.965 -2.25658 0.600064 0
M  V30 9389 C 876.946 -1.65733 -0.38298 0
M  V30 9390 O 878.131 -1.92324 -0.269256 0
M  V30 9391 C 875.261 -3.47237 -0.0663197 0
M  V30 9392 C 874.215 -4.1973 0.83731 0
M  V30 9393 C 873.541 -5.34687 0.0369102 0
M  V30 9394 C 874.841 -4.76286 2.14357 0
M  V30 9395 H 876.535 -2.60432 1.477 0
M  V30 9396 H 874.081 -1.25187 0.711634 0
M  V30 9397 H 876.034 -4.19803 -0.366563 0
M  V30 9398 H 874.758 -3.11615 -0.977944 0
M  V30 9399 H 873.417 -3.49024 1.1215 0
M  V30 9400 H 873.065 -4.95309 -0.876244 0
M  V30 9401 H 872.765 -5.84119 0.63865 0
M  V30 9402 H 874.289 -6.10059 -0.256968 0
M  V30 9403 H 875.703 -5.40691 1.90595 0
M  V30 9404 H 874.1 -5.36139 2.69583 0
M  V30 9405 H 875.17 -3.9524 2.80916 0
M  V30 9406 N 876.513 -0.788492 -1.36457 0
M  V30 9407 C 877.461 -0.174192 -2.31947 0
M  V30 9408 C 878.455 0.665974 -1.5576 0
M  V30 9409 O 879.661 0.561161 -1.71029 0
M  V30 9410 H 876.036 -0.0375538 -0.751062 0
M  V30 9411 H 878.007 -0.995011 -2.81322 0
M  V30 9412 C 876.756 0.677276 -3.4104 0
M  V30 9413 H 876.079 0.0401418 -3.9978 0
M  V30 9414 H 877.519 1.07379 -4.10178 0
M  V30 9415 C 875.978 1.83512 -2.82533 0
M  V30 9416 O 876.508 2.93164 -2.74623 0
M  V30 9417 N 874.714 1.64095 -2.39836 0
M  V30 9418 H 874.261 0.749046 -2.46469 0
M  V30 9419 H 874.219 2.41726 -2.01037 0
M  V30 9420 N 877.991 1.48044 -0.54043 0
M  V30 9421 C 878.921 2.32597 0.205178 0
M  V30 9422 C 879.902 1.42748 0.925041 0
M  V30 9423 O 881.087 1.71624 0.908784 0
M  V30 9424 C 878.217 3.24175 1.24612 0
M  V30 9425 C 877.171 4.23131 0.64376 0
M  V30 9426 C 876.497 5.03915 1.78812 0
M  V30 9427 C 877.797 5.20831 -0.39144 0
M  V30 9428 H 879.491 2.95184 -0.500676 0
M  V30 9429 H 877.037 1.41948 -0.242225 0
M  V30 9430 H 878.99 3.82158 1.77576 0
M  V30 9431 H 877.714 2.59608 1.98169 0
M  V30 9432 H 876.373 3.66349 0.135554 0
M  V30 9433 H 876.021 4.35765 2.51232 0
M  V30 9434 H 875.721 5.709 1.39094 0
M  V30 9435 H 877.245 5.64753 2.32134 0
M  V30 9436 H 878.659 5.73277 0.0515064 0
M  V30 9437 H 877.056 5.95926 -0.706569 0
M  V30 9438 H 878.126 4.6733 -1.29345 0
M  V30 9439 N 879.47 0.276058 1.55163 0
M  V30 9440 C 880.417 -0.611006 2.22565 0
M  V30 9441 C 881.387 -1.14902 1.19945 0
M  V30 9442 O 882.572 -1.19815 1.48489 0
M  V30 9443 C 879.712 -1.78885 2.95117 0
M  V30 9444 C 878.825 -1.2846 4.12458 0
M  V30 9445 C 877.96 -2.42432 4.72652 0
M  V30 9446 C 876.999 -1.89015 5.82185 0
M  V30 9447 N 876.136 -2.96463 6.36439 0
M  V30 9448 H 880.976 -0.0295849 2.97985 0
M  V30 9449 H 878.513 -0.00283607 1.471 0
M  V30 9450 H 880.471 -2.48121 3.35398 0
M  V30 9451 H 879.101 -2.34229 2.22119 0
M  V30 9452 H 878.153 -0.485312 3.77292 0
M  V30 9453 H 879.465 -0.853358 4.91446 0
M  V30 9454 H 878.619 -3.19659 5.15658 0
M  V30 9455 H 877.358 -2.88872 3.92943 0
M  V30 9456 H 876.363 -1.10267 5.38629 0
M  V30 9457 H 877.588 -1.43509 6.63763 0
M  V30 9458 H 875.534 -3.42283 5.59623 0
M  V30 9459 H 875.451 -2.57759 7.10701 0
M  V30 9460 H 876.719 -3.73663 6.84103 0
M  V30 9461 N 880.948 -1.576 0.00335426 0
M  V30 9462 C 881.911 -2.07576 -0.971838 0
M  V30 9463 C 882.911 -0.985796 -1.27038 0
M  V30 9464 O 884.101 -1.24833 -1.21501 0
M  V30 9465 C 881.233 -2.52003 -2.29581 0
M  V30 9466 H 882.426 -2.95008 -0.539481 0
M  V30 9467 H 879.979 -1.54381 -0.244186 0
M  V30 9468 H 880.714 -1.67825 -2.77498 0
M  V30 9469 H 880.499 -3.31609 -2.09231 0
M  V30 9470 H 881.989 -2.90983 -2.99531 0
M  V30 9471 N 882.426 0.269451 -1.5528 0
M  V30 9472 C 883.703 1.02207 -1.66773 0
M  V30 9473 C 884.083 2.04168 -0.536536 0
M  V30 9474 O 883.431 2.23761 0.462956 0
M  V30 9475 C 883.641 1.67569 -3.0614 0
M  V30 9476 C 884.989 2.18599 -3.64005 0
M  V30 9477 O 886.013 1.7755 -3.08795 0
M  V30 9478 O 884.872 2.93903 -4.60742 0
M  V30 9479 H 881.966 0.474314 -0.677462 0
M  V30 9480 H 884.512 0.265026 -1.67618 0
M  V30 9481 H 883.284 0.937029 -3.79915 0
M  V30 9482 H 882.907 2.49951 -3.09209 0
M  V30 9483 N 883.904 1.48273 0.534124 0
M  V30 9484 C 885.181 1.46567 1.29528 0
M  V30 9485 C 885.561 0.17509 2.10373 0
M  V30 9486 O 884.909 -0.843228 2.12372 0
M  V30 9487 C 885.119 2.72519 2.18023 0
M  V30 9488 C 886.467 3.2068 2.78298 0
M  V30 9489 O 887.491 2.73408 2.28313 0
M  V30 9490 O 886.35 4.02924 3.69208 0
M  V30 9491 H 883.444 0.585151 0.584403 0
M  V30 9492 H 885.99 1.60502 0.551119 0
M  V30 9493 H 884.762 3.57965 1.5804 0
M  V30 9494 H 884.385 2.61285 2.99693 0
M  V30 9495 N 885.382 -0.782676 1.36792 0
M  V30 9496 C 886.63 -1.53778 1.31136 0
M  V30 9497 C 886.951 -1.94706 -0.107014 0
M  V30 9498 O 886.221 -1.65465 -1.04872 0
M  V30 9499 H 884.801 -0.570328 0.482426 0
M  V30 9500 H 887.463 -0.932181 1.71162 0
M  V30 9501 H 886.559 -2.44224 1.94321 0
M  V30 9502 N 886.86 -1.21182 -1.00761 0
M  V30 9503 C 887.79 -0.992773 -2.11344 0
M  V30 9504 C 888.771 0.0813618 -1.69905 0
M  V30 9505 O 889.956 -0.0779503 -1.94043 0
M  V30 9506 C 887.086 -0.553826 -3.42856 0
M  V30 9507 C 886.04 -1.57223 -3.98077 0
M  V30 9508 C 885.366 -0.989605 -5.25463 0
M  V30 9509 C 886.666 -2.95839 -4.30438 0
M  V30 9510 H 888.36 -1.91766 -2.29927 0
M  V30 9511 H 885.906 -0.923426 -1.10494 0
M  V30 9512 H 887.859 -0.387771 -4.19612 0
M  V30 9513 H 886.583 0.406702 -3.24058 0
M  V30 9514 H 885.242 -1.7258 -3.23437 0
M  V30 9515 H 884.89 -0.0208743 -5.02996 0
M  V30 9516 H 884.59 -1.66984 -5.63374 0
M  V30 9517 H 886.114 -0.834815 -6.04866 0
M  V30 9518 H 887.528 -2.8394 -4.98047 0
M  V30 9519 H 885.925 -3.60851 -4.79486 0
M  V30 9520 H 886.995 -3.46882 -3.38823 0
M  V30 9521 N 888.338 1.20213 -1.01915 0
M  V30 9522 C 889.754 1.41696 -0.734459 0
M  V30 9523 C 889.954 1.89504 0.684867 0
M  V30 9524 O 889.01 2.06556 1.45227 0
M  V30 9525 C 890.323 2.43644 -1.76233 0
M  V30 9526 C 891.871 2.57406 -1.78076 0
M  V30 9527 C 892.346 3.626 -2.79796 0
M  V30 9528 N 893.837 3.70086 -2.78551 0
M  V30 9529 C 894.572 4.51145 -3.53915 0
M  V30 9530 N 894.068 5.35988 -4.38963 0
M  V30 9531 N 895.861 4.45702 -3.425 0
M  V30 9532 H 888.012 0.874976 -1.93541 0
M  V30 9533 H 890.275 0.446647 -0.836188 0
M  V30 9534 H 889.981 2.15519 -2.77929 0
M  V30 9535 H 889.855 3.42672 -1.57657 0
M  V30 9536 H 892.242 2.8486 -0.770634 0
M  V30 9537 H 892.323 1.58565 -2.00725 0
M  V30 9538 H 891.967 3.35889 -3.80973 0
M  V30 9539 H 891.897 4.61069 -2.54407 0
M  V30 9540 H 894.388 3.09484 -2.1686 0
M  V30 9541 H 894.701 5.94932 -4.9323 0
M  V30 9542 H 893.046 5.35482 -4.4304 0
M  V30 9543 H 896.237 3.78456 -2.75478 0
M  V30 9544 H 896.41 5.08637 -4.01487 0
M  V30 9545 N 889.816 0.795718 1.36037 0
M  V30 9546 C 891.227 0.433379 1.816 0
M  V30 9547 C 891.578 -1.04341 1.66155 0
M  V30 9548 O 890.703 -1.81004 1.18603 0
M  V30 9549 C 891.298 0.77985 3.29703 0
M  V30 9550 C 889.857 0.470256 3.73451 0
M  V30 9551 C 889.004 1.01119 2.58206 0
M  V30 9552 H 891.955 0.988317 1.24169 0
M  V30 9553 H 891.976 0.0732898 3.80429 0
M  V30 9554 H 891.488 1.85473 3.40913 0
M  V30 9555 H 889.589 -0.596332 3.67797 0
M  V30 9556 H 889.702 0.995276 4.68648 0
M  V30 9557 H 888.066 0.434077 2.50974 0
M  V30 9558 H 888.849 2.09196 2.72198 0
M  V30 9559 N 891.294 -1.47756 0.548274 0
M  V30 9560 C 892.242 -2.3158 -0.217584 0
M  V30 9561 C 893.236 -1.42372 -0.917957 0
M  V30 9562 O 894.442 -1.59184 -0.840259 0
M  V30 9563 H 890.817 -0.74671 -0.0890388 0
M  V30 9564 H 892.788 -2.94032 0.508719 0
M  V30 9565 C 891.537 -3.24834 -1.24008 0
M  V30 9566 H 890.86 -3.93435 -0.710572 0
M  V30 9567 H 892.3 -3.86336 -1.74701 0
M  V30 9568 C 890.759 -2.47724 -2.2833 0
M  V30 9569 O 891.289 -2.21522 -3.35098 0
M  V30 9570 N 889.495 -2.08891 -2.02022 0
M  V30 9571 H 889.042 -2.30401 -1.1521 0
M  V30 9572 H 889 -1.57613 -2.7204 0
M  V30 9573 N 892.772 -0.284283 -1.55015 0
M  V30 9574 C 894.012 0.330942 -2.01703 0
M  V30 9575 C 894.376 1.52362 -1.16832 0
M  V30 9576 O 895.577 2.20909 -1.53142 0
M  V30 9577 C 893.848 0.694712 -3.50583 0
M  V30 9578 S 895.407 1.29517 -4.1925 0
M  V30 9579 H 892.225 0.10247 -0.703577 0
M  V30 9580 H 894.827 -0.408257 -1.9119 0
M  V30 9581 H 893.531 -0.182056 -4.09996 0
M  V30 9582 H 893.062 1.46513 -3.65099 0
M  V30 9583 H 895.077 2.58352 -4.23638 0
M  V30 9584 N 894.251 1.57596 -0.0117121 0
M  V30 9585 C 895.198 2.09153 0.975897 0
M  V30 9586 C 896.168 0.989579 1.33404 0
M  V30 9587 O 897.353 1.26273 1.43038 0
M  V30 9588 C 894.493 2.60906 2.2588 0
M  V30 9589 C 893.606 3.85046 1.95866 0
M  V30 9590 C 892.741 4.25257 3.18323 0
M  V30 9591 C 891.78 5.42202 2.84049 0
M  V30 9592 N 890.917 5.77651 3.99079 0
M  V30 9593 H 895.757 2.93261 0.52931 0
M  V30 9594 H 893.294 1.44965 0.249691 0
M  V30 9595 H 895.252 2.88995 3.00895 0
M  V30 9596 H 893.882 1.79654 2.68187 0
M  V30 9597 H 892.934 3.63794 1.11168 0
M  V30 9598 H 894.246 4.70151 1.66611 0
M  V30 9599 H 893.4 4.5469 4.01674 0
M  V30 9600 H 892.139 3.38884 3.50726 0
M  V30 9601 H 891.144 5.1248 1.99107 0
M  V30 9602 H 892.369 6.3026 2.52881 0
M  V30 9603 H 890.315 4.94235 4.31356 0
M  V30 9604 H 890.232 6.57356 3.73388 0
M  V30 9605 H 891.5 6.11681 4.83183 0
M  V30 9606 N 895.729 -0.261212 1.5542 0
M  V30 9607 C 896.957 -1.00916 1.8062 0
M  V30 9608 C 897.372 -1.79494 0.585444 0
M  V30 9609 O 896.729 -1.76974 -0.445702 0
M  V30 9610 C 896.78 -1.95841 3.03856 0
M  V30 9611 O 896.501 -1.20445 4.21218 0
M  V30 9612 C 898.002 -2.82352 3.41749 0
M  V30 9613 H 895.222 -0.297596 0.601397 0
M  V30 9614 H 897.766 -0.288427 2.02456 0
M  V30 9615 H 895.921 -2.63361 2.84112 0
M  V30 9616 H 896.335 -1.84528 4.90968 0
M  V30 9617 H 897.809 -3.44733 4.31118 0
M  V30 9618 H 898.286 -3.5273 2.61683 0
M  V30 9619 H 898.892 -2.20306 3.63793 0
M  V30 9620 N 897.207 -1.48554 -0.526253 0
M  V30 9621 C 898.432 -1.60686 -1.31129 0
M  V30 9622 C 898.857 -0.268701 -1.86171 0
M  V30 9623 O 898.215 0.760167 -1.64594 0
M  V30 9624 C 898.263 -2.65938 -2.43536 0
M  V30 9625 O 897.367 -2.23356 -3.46678 0
M  V30 9626 H 896.708 -0.538691 -0.388211 0
M  V30 9627 H 899.238 -1.94567 -0.632826 0
M  V30 9628 H 899.248 -2.87327 -2.89668 0
M  V30 9629 H 897.923 -3.63085 -2.02835 0
M  V30 9630 H 896.5 -2.12196 -3.06639 0
M  V30 9631 N 898.685 0.775411 -1.37205 0
M  V30 9632 C 899.617 1.89761 -1.28544 0
M  V30 9633 C 900.63 1.61542 -0.201996 0
M  V30 9634 O 901.819 1.72528 -0.457848 0
M  V30 9635 C 898.919 3.24904 -0.963885 0
M  V30 9636 C 898.092 3.80796 -2.15205 0
M  V30 9637 C 897.151 4.94407 -1.80135 0
M  V30 9638 O 896.177 5.10185 -2.52388 0
M  V30 9639 N 897.379 5.75722 -0.743298 0
M  V30 9640 H 900.144 1.97708 -2.25237 0
M  V30 9641 H 897.705 0.954348 -1.30782 0
M  V30 9642 H 899.697 3.9842 -0.710182 0
M  V30 9643 H 898.267 3.12483 -0.085632 0
M  V30 9644 H 897.487 2.99101 -2.56773 0
M  V30 9645 H 898.775 4.1487 -2.94552 0
M  V30 9646 H 898.173 5.65518 -0.143655 0
M  V30 9647 H 896.73 6.4948 -0.549446 0
M  V30 9648 N 900.163 1.21714 1.00117 0
M  V30 9649 C 901.412 1.03087 1.73367 0
M  V30 9650 C 901.725 -0.435532 1.90689 0
M  V30 9651 O 902.931 -0.741291 2.61184 0
M  V30 9652 C 901.387 1.79593 3.11888 0
M  V30 9653 C 900.995 3.30428 3.02525 0
M  V30 9654 C 902.739 1.69386 3.89241 0
M  V30 9655 C 900.646 3.99408 4.3615 0
M  V30 9656 H 899.576 0.382117 0.650002 0
M  V30 9657 H 902.227 1.45486 1.11831 0
M  V30 9658 H 900.609 1.29988 3.74058 0
M  V30 9659 H 901.783 3.87364 2.49571 0
M  V30 9660 H 900.098 3.4122 2.38659 0
M  V30 9661 H 902.695 2.18251 4.8813 0
M  V30 9662 H 903.038 0.652773 4.1115 0
M  V30 9663 H 903.571 2.16489 3.33733 0
M  V30 9664 H 900.31 5.03735 4.19442 0
M  V30 9665 H 899.83 3.47261 4.8905 0
M  V30 9666 H 901.509 4.04537 5.04934 0
M  V30 9667 N 901.641 -1.19671 1.02551 0
M  V30 9668 C 902.869 -1.93233 0.739513 0
M  V30 9669 C 903.284 -1.75298 -0.701158 0
M  V30 9670 O 902.641 -1.07269 -1.47647 0
M  V30 9671 C 902.692 -3.45085 1.07697 0
M  V30 9672 O 902.413 -3.62441 2.46106 0
M  V30 9673 C 903.914 -4.35776 0.813298 0
M  V30 9674 H 901.134 -0.613905 0.270853 0
M  V30 9675 H 903.678 -1.51909 1.36909 0
M  V30 9676 H 901.833 -3.84255 0.492635 0
M  V30 9677 H 902.247 -4.56337 2.58567 0
M  V30 9678 H 903.721 -5.40941 1.09941 0
M  V30 9679 H 904.198 -4.38474 -0.252359 0
M  V30 9680 H 904.804 -4.02282 1.38021 0
M  V30 9681 N 903.119 -0.802921 -1.35613 0
M  V30 9682 C 904.347 -0.39393 -2.03115 0
M  V30 9683 C 904.762 0.993961 -1.60517 0
M  V30 9684 O 904.119 1.63984 -0.800973 0
M  V30 9685 C 904.17 -0.463486 -3.58516 0
M  V30 9686 O 903.891 -1.79666 -3.99565 0
M  V30 9687 C 905.392 -0.0468377 -4.43275 0
M  V30 9688 H 902.612 -0.160519 -0.651517 0
M  V30 9689 H 905.156 -1.08552 -1.73311 0
M  V30 9690 H 903.311 0.179821 -3.86982 0
M  V30 9691 H 903.725 -1.75688 -4.942 0
M  V30 9692 H 905.199 -0.146626 -5.51805 0
M  V30 9693 H 905.676 1.00741 -4.2749 0
M  V30 9694 H 906.282 -0.663158 -4.20098 0
M  V30 9695 N 904.597 1.47463 -0.556102 0
M  V30 9696 C 905.56 2.28478 0.181743 0
M  V30 9697 C 906.56 1.36886 0.843738 0
M  V30 9698 O 907.75 1.59527 0.69977 0
M  V30 9699 C 904.882 3.16534 1.26566 0
M  V30 9700 H 906.075 2.95182 -0.529892 0
M  V30 9701 H 903.628 1.53134 -0.313005 0
M  V30 9702 H 904.363 2.5452 2.00973 0
M  V30 9703 H 904.148 3.83939 0.795798 0
M  V30 9704 H 905.638 3.77579 1.78393 0
M  V30 9705 N 906.075 0.2925 1.54862 0
M  V30 9706 C 907.324 -0.319994 1.99146 0
M  V30 9707 C 907.637 -1.55658 1.18448 0
M  V30 9708 O 908.843 -2.24312 1.52959 0
M  V30 9709 C 907.299 -0.620665 3.54508 0
M  V30 9710 C 906.907 0.597098 4.44003 0
M  V30 9711 C 908.651 -1.19482 4.07338 0
M  V30 9712 C 906.558 0.270049 5.90783 0
M  V30 9713 H 905.488 -0.123342 0.743843 0
M  V30 9714 H 908.139 0.399876 1.7909 0
M  V30 9715 H 906.521 -1.3999 3.7043 0
M  V30 9716 H 907.695 1.37354 4.39853 0
M  V30 9717 H 906.01 1.0893 4.019 0
M  V30 9718 H 908.607 -1.45362 5.14562 0
M  V30 9719 H 908.95 -2.13435 3.57423 0
M  V30 9720 H 909.483 -0.477485 3.94924 0
M  V30 9721 H 906.222 1.17791 6.4483 0
M  V30 9722 H 905.742 -0.469292 5.97961 0
M  V30 9723 H 907.421 -0.131471 6.46866 0
M  V30 9724 N 907.553 -1.57587 0.0200696 0
M  V30 9725 C 908.802 -1.90602 -0.659822 0
M  V30 9726 C 909.115 -0.897216 -1.73808 0
M  V30 9727 O 910.321 -1.11829 -2.47399 0
M  V30 9728 C 908.777 -3.38416 -1.22484 0
M  V30 9729 C 908.385 -4.47637 -0.180339 0
M  V30 9730 C 910.129 -3.80513 -1.88176 0
M  V30 9731 C 908.036 -5.86542 -0.756482 0
M  V30 9732 H 906.966 -0.711272 -0.250216 0
M  V30 9733 H 909.617 -1.83308 0.0838942 0
M  V30 9734 H 907.999 -3.40613 -2.01987 0
M  V30 9735 H 909.173 -4.56987 0.591573 0
M  V30 9736 H 907.488 -4.14687 0.377302 0
M  V30 9737 H 910.085 -4.8164 -2.32222 0
M  V30 9738 H 910.428 -3.15091 -2.72073 0
M  V30 9739 H 910.961 -3.80701 -1.15377 0
M  V30 9740 H 907.7 -6.55485 0.0441468 0
M  V30 9741 H 907.22 -5.80816 -1.49709 0
M  V30 9742 H 908.899 -6.3483 -1.249 0
M  V30 9743 N 909.032 0.252966 -1.55557 0
M  V30 9744 C 910.257 1.0038 -1.8149 0
M  V30 9745 C 910.682 1.78397 -0.596318 0
M  V30 9746 O 910.04 1.7551 0.454535 0
M  V30 9747 C 910.088 1.9222 -3.05096 0
M  V30 9748 O 909.192 3.01302 -2.81587 0
M  V30 9749 H 908.533 0.285949 -0.599274 0
M  V30 9750 H 911.063 0.275795 -2.02733 0
M  V30 9751 H 911.073 2.338 -3.34368 0
M  V30 9752 H 909.748 1.34852 -3.93431 0
M  V30 9753 H 908.325 2.63894 -2.63466 0
M  V30 9754 N 910.51 1.48831 0.518367 0
M  V30 9755 C 911.759 1.5669 1.27008 0
M  V30 9756 C 912.072 0.250934 1.93984 0
M  V30 9757 O 913.278 0.207884 2.70703 0
M  V30 9758 C 911.734 2.76387 2.30517 0
M  V30 9759 C 911.342 4.14673 1.69559 0
M  V30 9760 C 913.086 2.93566 3.06625 0
M  V30 9761 C 910.993 5.25616 2.71076 0
M  V30 9762 H 909.923 0.583362 0.477708 0
M  V30 9763 H 912.574 1.75187 0.546052 0
M  V30 9764 H 910.956 2.51348 3.06006 0
M  V30 9765 H 912.13 4.49779 1.00179 0
M  V30 9766 H 910.445 4.02708 1.05902 0
M  V30 9767 H 913.042 3.7362 3.82508 0
M  V30 9768 H 913.385 2.03462 3.63193 0
M  V30 9769 H 913.918 3.18562 2.38251 0
M  V30 9770 H 910.657 6.17723 2.19313 0
M  V30 9771 H 910.177 4.94985 3.38748 0
M  V30 9772 H 911.856 5.5422 3.3384 0
M  V30 9773 N 911.988 -0.768124 1.37614 0
M  V30 9774 C 913.399 -1.34462 1.29525 0
M  V30 9775 C 913.75 -1.96121 -0.0555168 0
M  V30 9776 O 912.875 -1.94069 -0.957406 0
M  V30 9777 C 913.47 -2.44475 2.34558 0
M  V30 9778 C 912.029 -2.97883 2.30093 0
M  V30 9779 C 911.176 -1.71131 2.18196 0
M  V30 9780 H 914.127 -0.568103 1.48183 0
M  V30 9781 H 914.148 -3.24047 1.99434 0
M  V30 9782 H 913.66 -1.99568 3.32858 0
M  V30 9783 H 911.761 -3.47156 1.35328 0
M  V30 9784 H 911.874 -3.53251 3.23652 0
M  V30 9785 H 910.238 -1.94197 1.64802 0
M  V30 9786 H 911.021 -1.28323 3.18415 0
M  V30 9787 N 913.466 -1.22244 -0.994698 0
M  V30 9788 C 914.694 -1.07218 -1.76952 0
M  V30 9789 C 915.109 0.377388 -1.8499 0
M  V30 9790 O 914.466 1.26157 -1.31874 0
M  V30 9791 C 914.517 -1.67496 -3.20355 0
M  V30 9792 O 914.238 -3.06782 -3.12756 0
M  V30 9793 C 915.739 -1.57721 -4.14294 0
M  V30 9794 H 912.959 -0.375966 -0.555779 0
M  V30 9795 H 915.503 -1.61799 -1.25065 0
M  V30 9796 H 913.658 -1.16982 -3.69315 0
M  V30 9797 H 914.072 -3.35784 -4.02926 0
M  V30 9798 H 915.546 -2.04623 -5.12673 0
M  V30 9799 H 916.023 -0.533434 -4.35949 0
M  V30 9800 H 916.629 -2.07531 -3.71229 0
M  V30 9801 N 914.944 1.19125 -1.03184 0
M  V30 9802 C 916.355 1.70564 -0.759264 0
M  V30 9803 C 916.706 1.8248 0.720794 0
M  V30 9804 O 915.831 1.49804 1.56166 0
M  V30 9805 C 916.426 3.09793 -1.37163 0
M  V30 9806 C 914.985 3.5848 -1.14757 0
M  V30 9807 C 914.132 2.35265 -1.46784 0
M  V30 9808 H 917.083 1.03925 -1.19939 0
M  V30 9809 H 917.104 3.72624 -0.77015 0
M  V30 9810 H 916.616 3.01088 -2.44882 0
M  V30 9811 H 914.717 3.72494 -0.0887182 0
M  V30 9812 H 914.83 4.42426 -1.83836 0
M  V30 9813 H 913.194 2.38747 -0.887254 0
M  V30 9814 H 913.977 2.29188 -2.55593 0
M  V30 9815 N 916.422 0.810101 1.35185 0
M  V30 9816 C 917.833 0.452616 1.81131 0
M  V30 9817 C 918.184 -1.02573 1.67252 0
M  V30 9818 O 917.309 -1.79735 1.20516 0
M  V30 9819 C 917.904 0.814775 3.28857 0
M  V30 9820 C 916.463 0.509839 3.72931 0
M  V30 9821 C 915.61 1.03852 2.57119 0
M  V30 9822 H 918.561 1.00143 1.23114 0
M  V30 9823 H 918.582 0.113635 3.8033 0
M  V30 9824 H 918.094 1.89078 3.38926 0
M  V30 9825 H 916.195 -0.557289 3.68409 0
M  V30 9826 H 916.308 1.04493 4.67566 0
M  V30 9827 H 914.672 0.460671 2.50499 0
M  V30 9828 H 915.455 2.12071 2.69964 0
M  V30 9829 N 917.9 -1.47166 0.563914 0
M  V30 9830 C 918.863 -2.28571 -0.169624 0
M  V30 9831 C 919.863 -1.37331 -0.836467 0
M  V30 9832 O 921.053 -1.59896 -0.6913 0
M  V30 9833 C 918.185 -3.17201 -1.24886 0
M  V30 9834 H 919.378 -2.94896 0.545539 0
M  V30 9835 H 916.931 -1.52966 0.321121 0
M  V30 9836 H 917.666 -2.55582 -1.99621 0
M  V30 9837 H 917.451 -3.84356 -0.775426 0
M  V30 9838 H 918.941 -3.7852 -1.76388 0
M  V30 9839 N 919.378 -0.300708 -1.54705 0
M  V30 9840 C 920.308 0.568675 -2.26469 0
M  V30 9841 C 921.289 1.13817 -1.26411 0
M  V30 9842 O 922.474 1.16756 -1.55183 0
M  V30 9843 C 919.604 1.74077 -3.00524 0
M  V30 9844 C 918.558 1.30165 -4.07727 0
M  V30 9845 C 917.884 2.55888 -4.69495 0
M  V30 9846 C 919.184 0.433106 -5.20501 0
M  V30 9847 H 920.878 -0.0298851 -2.99385 0
M  V30 9848 H 918.424 -0.0158135 -1.43991 0
M  V30 9849 H 920.377 2.35506 -3.49449 0
M  V30 9850 H 919.101 2.36556 -2.25186 0
M  V30 9851 H 917.76 0.710414 -3.59651 0
M  V30 9852 H 917.408 3.16681 -3.90797 0
M  V30 9853 H 917.108 2.27207 -5.41895 0
M  V30 9854 H 918.632 3.18121 -5.21183 0
M  V30 9855 H 920.046 0.95307 -5.65322 0
M  V30 9856 H 918.443 0.240085 -5.9962 0
M  V30 9857 H 919.513 -0.541866 -4.81863 0
M  V30 9858 N 920.856 1.57574 -0.0284266 0
M  V30 9859 C 922.084 1.96071 0.660575 0
M  V30 9860 C 922.499 0.904881 1.65703 0
M  V30 9861 O 921.856 -0.113379 1.82147 0
M  V30 9862 C 921.907 3.34634 1.36756 0
M  V30 9863 O 921.628 4.36167 0.411041 0
M  V30 9864 C 923.129 3.87758 2.14845 0
M  V30 9865 H 920.349 0.645794 0.182183 0
M  V30 9866 H 922.893 2.04311 -0.0879858 0
M  V30 9867 H 921.048 3.27616 2.06753 0
M  V30 9868 H 921.462 5.16493 0.913 0
M  V30 9869 H 922.936 4.87058 2.59767 0
M  V30 9870 H 923.413 3.21967 2.9872 0
M  V30 9871 H 924.019 3.98043 1.49807 0
M  V30 9872 N 922.334 -0.244713 1.55689 0
M  V30 9873 C 923.745 -0.813603 1.6804 0
M  V30 9874 C 924.096 -1.85936 0.626281 0
M  V30 9875 O 923.221 -2.15206 -0.227038 0
M  V30 9876 C 923.816 -1.48252 3.04642 0
M  V30 9877 C 922.375 -1.99908 3.18926 0
M  V30 9878 C 921.522 -0.850958 2.6392 0
M  V30 9879 H 924.473 -0.0204805 1.58687 0
M  V30 9880 H 924.494 -2.35062 2.99209 0
M  V30 9881 H 924.006 -0.721164 3.81341 0
M  V30 9882 H 922.107 -2.78918 2.47054 0
M  V30 9883 H 922.22 -2.19497 4.25862 0
M  V30 9884 H 920.584 -1.25206 2.21801 0
M  V30 9885 H 921.367 -0.10265 3.43146 0
M  V30 9886 N 923.813 -1.49104 -0.510467 0
M  V30 9887 C 924.723 -1.67792 -1.6396 0
M  V30 9888 C 925.739 -0.560454 -1.64727 0
M  V30 9889 O 926.915 -0.833985 -1.83321 0
M  V30 9890 C 923.98 -1.73154 -3.00364 0
M  V30 9891 C 923.041 -2.9667 -3.10299 0
M  V30 9892 C 922.274 -3.01767 -4.40196 0
M  V30 9893 O 922.497 -2.1472 -5.28443 0
M  V30 9894 O 921.431 -3.94137 -4.54906 0
M  V30 9895 H 925.257 -2.63428 -1.51126 0
M  V30 9896 H 922.842 -1.32734 -0.685719 0
M  V30 9897 H 924.724 -1.79089 -3.81451 0
M  V30 9898 H 923.399 -0.806952 -3.1348 0
M  V30 9899 H 922.306 -2.96257 -2.28435 0
M  V30 9900 H 923.639 -3.88578 -3.02106 0
M  V30 9901 N 925.291 0.760815 -1.38019 0
M  V30 9902 C 926.539 1.51673 -1.33566 0
M  V30 9903 C 926.86 1.94852 0.076024 0
M  V30 9904 O 926.13 1.67112 1.02227 0
M  V30 9905 H 924.71 0.562581 -0.491438 0
M  V30 9906 H 927.372 0.904832 -1.72623 0
M  V30 9907 H 926.468 2.41102 -1.98182 0
M  V30 9908 N 926.769 1.22769 0.988202 0
M  V30 9909 C 927.679 1.01844 2.11341 0
M  V30 9910 C 928.695 -0.0346937 1.73965 0
M  V30 9911 O 929.871 0.159061 2.00771 0
M  V30 9912 C 926.936 0.603837 3.41401 0
M  V30 9913 C 925.997 1.73113 3.92849 0
M  V30 9914 C 925.23 1.33621 5.16702 0
M  V30 9915 O 925.453 0.217041 5.69987 0
M  V30 9916 O 924.387 2.15444 5.62021 0
M  V30 9917 H 928.213 1.96127 2.31879 0
M  V30 9918 H 925.798 1.01405 1.09715 0
M  V30 9919 H 927.68 0.383196 4.19654 0
M  V30 9920 H 926.355 -0.310082 3.22211 0
M  V30 9921 H 925.262 2.00634 3.15748 0
M  V30 9922 H 926.595 2.62308 4.1648 0
M  V30 9923 N 928.247 -1.18576 1.03814 0
M  V30 9924 C 929.472 -1.92978 0.759873 0
M  V30 9925 C 929.897 -1.75514 -0.676486 0
M  V30 9926 O 929.255 -1.06359 -1.46824 0
M  V30 9927 C 929.303 -3.42507 1.12788 0
M  V30 9928 O 928.407 -4.1163 0.251886 0
M  V30 9929 H 927.748 -0.602129 0.279886 0
M  V30 9930 H 930.278 -1.50383 1.3873 0
M  V30 9931 H 930.288 -3.93206 1.08872 0
M  V30 9932 H 928.963 -3.5454 2.17427 0
M  V30 9933 H 927.54 -3.7125 0.350441 0
M  V30 9934 N 929.725 -0.817259 -1.34754 0
M  V30 9935 C 931.141 -0.502309 -1.51489 0
M  V30 9936 C 931.341 0.974568 -1.76364 0
M  V30 9937 O 930.397 1.75924 -1.81127 0
M  V30 9938 C 931.71 -1.35693 -2.68343 0
M  V30 9939 C 933.258 -1.35347 -2.82224 0
M  V30 9940 C 933.733 -2.19244 -4.02114 0
M  V30 9941 N 935.224 -2.16837 -4.09311 0
M  V30 9942 C 935.959 -2.78505 -5.01221 0
M  V30 9943 N 935.455 -3.4914 -5.98392 0
M  V30 9944 N 937.248 -2.68089 -4.94049 0
M  V30 9945 H 929.399 -1.77359 -1.16866 0
M  V30 9946 H 931.662 -0.755476 -0.572678 0
M  V30 9947 H 931.368 -2.40548 -2.56573 0
M  V30 9948 H 931.242 -1.01764 -3.63213 0
M  V30 9949 H 933.629 -0.312727 -2.93438 0
M  V30 9950 H 933.71 -1.7327 -1.88179 0
M  V30 9951 H 933.354 -3.23365 -3.9166 0
M  V30 9952 H 933.284 -1.78675 -4.95361 0
M  V30 9953 H 935.775 -1.65452 -3.39756 0
M  V30 9954 H 936.088 -3.93455 -6.65141 0
M  V30 9955 H 934.433 -3.53246 -5.98533 0
M  V30 9956 H 937.624 -2.12485 -4.17094 0
M  V30 9957 H 937.797 -3.16436 -5.65484 0
M  V30 9958 N 931.203 1.46865 -0.571711 0
M  V30 9959 C 932.614 1.86158 -0.142181 0
M  V30 9960 C 932.965 1.47663 1.2919 0
M  V30 9961 O 932.09 0.886393 1.97413 0
M  V30 9962 C 932.685 3.37867 -0.251256 0
M  V30 9963 C 931.244 3.76198 0.123329 0
M  V30 9964 C 930.391 2.70902 -0.592232 0
M  V30 9965 H 933.342 1.38176 -0.780587 0
M  V30 9966 H 933.363 3.76842 0.526331 0
M  V30 9967 H 932.875 3.65853 -1.2951 0
M  V30 9968 H 930.976 3.53829 1.16773 0
M  V30 9969 H 931.089 4.78471 -0.24533 0
M  V30 9970 H 929.453 2.54678 -0.0336927 0
M  V30 9971 H 930.236 3.01729 -1.63751 0
M  V30 9972 N 932.681 0.308908 1.54543 0
M  V30 9973 C 934.092 -0.182144 1.85809 0
M  V30 9974 C 934.443 -1.52796 1.23076 0
M  V30 9975 O 933.568 -2.09775 0.531358 0
M  V30 9976 C 934.163 -0.337275 3.37117 0
M  V30 9977 C 932.722 -0.772545 3.68387 0
M  V30 9978 C 931.869 0.114451 2.77064 0
M  V30 9979 H 934.82 0.529671 1.496 0
M  V30 9980 H 934.841 -1.17058 3.62046 0
M  V30 9981 H 934.353 0.642382 3.82747 0
M  V30 9982 H 932.454 -1.76247 3.2828 0
M  V30 9983 H 932.567 -0.586453 4.75497 0
M  V30 9984 H 930.931 -0.407581 2.51418 0
M  V30 9985 H 931.714 1.09061 3.25516 0
M  V30 9986 N 934.159 -1.57557 0.0367827 0
M  V30 9987 C 935.57 -1.79853 -0.500971 0
M  V30 9988 C 935.921 -0.947749 -1.71791 0
M  V30 9989 O 935.046 -0.160287 -2.15806 0
M  V30 9990 C 935.641 -3.26193 -0.915626 0
M  V30 9991 C 934.2 -3.49457 -1.39845 0
M  V30 9992 C 933.347 -2.74864 -0.366784 0
M  V30 9993 H 936.298 -1.56509 0.262768 0
M  V30 9994 H 936.319 -3.36324 -1.7795 0
M  V30 9995 H 935.831 -3.88089 -0.0297227 0
M  V30 9996 H 933.932 -2.92823 -2.30402 0
M  V30 9997 H 934.045 -4.58172 -1.40054 0
M  V30 9998 H 932.409 -2.4057 -0.836554 0
M  V30 9999 H 933.192 -3.39479 0.510785 0
M  V30 10000 N 935.637 0.236453 -1.55816 0
M  V30 10001 C 936.6 1.27633 -1.90375 0
M  V30 10002 C 937.6 1.40557 -0.781048 0
M  V30 10003 O 938.79 1.39078 -1.04895 0
M  V30 10004 C 935.922 2.65247 -2.14142 0
M  V30 10005 H 937.115 0.982019 -2.83366 0
M  V30 10006 H 934.668 0.476215 -1.48869 0
M  V30 10007 H 935.403 2.99801 -1.23653 0
M  V30 10008 H 935.188 2.57246 -2.95917 0
M  V30 10009 H 936.678 3.40313 -2.42026 0
M  V30 10010 N 937.115 1.49373 0.502552 0
M  V30 10011 C 938.34 1.62752 1.28556 0
M  V30 10012 C 938.765 0.298285 1.8572 0
M  V30 10013 O 938.123 -0.733885 1.65782 0
M  V30 10014 C 938.171 2.69778 2.39274 0
M  V30 10015 O 937.275 2.28843 3.43081 0
M  V30 10016 H 936.616 0.544799 0.379592 0
M  V30 10017 H 939.146 1.9555 0.601792 0
M  V30 10018 H 939.156 2.91899 2.8506 0
M  V30 10019 H 937.831 3.66266 1.97033 0
M  V30 10020 H 936.408 2.17047 3.03224 0
M  V30 10021 N 938.594 -0.753485 1.38421 0
M  V30 10022 C 940.005 -1.33081 1.30944 0
M  V30 10023 C 940.356 -1.96169 -0.0347124 0
M  V30 10024 O 939.481 -1.95073 -0.936768 0
M  V30 10025 C 940.076 -2.41973 2.37138 0
M  V30 10026 C 938.635 -2.95426 2.33239 0
M  V30 10027 C 937.782 -1.68808 2.19998 0
M  V30 10028 H 940.733 -0.552354 1.48777 0
M  V30 10029 H 940.754 -3.21913 2.02859 0
M  V30 10030 H 940.266 -1.96027 3.34956 0
M  V30 10031 H 938.367 -3.45701 1.39003 0
M  V30 10032 H 938.48 -3.49798 3.27381 0
M  V30 10033 H 936.844 -1.92438 1.66852 0
M  V30 10034 H 937.627 -1.24939 3.19758 0
M  V30 10035 N 940.072 -1.23292 -0.981677 0
M  V30 10036 C 941.32 -1.06214 -1.71939 0
M  V30 10037 C 941.641 0.401989 -1.90812 0
M  V30 10038 O 940.911 1.28825 -1.47584 0
M  V30 10039 H 939.491 -0.390042 -0.637084 0
M  V30 10040 H 942.153 -1.54988 -1.18173 0
M  V30 10041 H 941.249 -1.54904 -2.70945 0
M  V30 10042 N 941.55 1.18024 -1.04442 0
M  V30 10043 C 942.961 1.69749 -0.777312 0
M  V30 10044 C 943.312 1.83234 0.701399 0
M  V30 10045 O 942.437 1.51452 1.54568 0
M  V30 10046 C 943.032 3.08321 -1.40441 0
M  V30 10047 C 941.591 3.57243 -1.18553 0
M  V30 10048 C 940.738 2.33695 -1.49271 0
M  V30 10049 H 943.689 1.02647 -1.21035 0
M  V30 10050 H 943.71 3.71787 -0.809628 0
M  V30 10051 H 943.222 2.98474 -2.48062 0
M  V30 10052 H 941.323 3.72379 -0.128221 0
M  V30 10053 H 941.436 4.40451 -1.88519 0
M  V30 10054 H 939.8 2.37792 -0.912526 0
M  V30 10055 H 940.583 2.26464 -2.5801 0
M  V30 10056 N 943.028 0.824394 1.34319 0
M  V30 10057 C 943.976 0.235628 2.31403 0
M  V30 10058 C 944.97 -0.624443 1.57471 0
M  V30 10059 O 946.176 -0.515618 1.72457 0
M  V30 10060 H 942.551 0.0574537 0.749802 0
M  V30 10061 H 944.522 1.06925 2.78585 0
M  V30 10062 C 943.271 -0.586617 3.42716 0
M  V30 10063 H 942.594 0.0658669 3.99746 0
M  V30 10064 H 944.034 -0.964661 4.1288 0
M  V30 10065 C 942.493 -1.75957 2.87299 0
M  V30 10066 O 943.023 -2.8578 2.82299 0
M  V30 10067 N 941.229 -1.57678 2.44102 0
M  V30 10068 H 940.776 -0.683436 2.48369 0
M  V30 10069 H 940.734 -2.36311 2.07375 0
M  V30 10070 N 944.506 -1.46559 0.579492 0
M  V30 10071 C 945.734 -2.06784 0.0693648 0
M  V30 10072 C 946.149 -1.42875 -1.23419 0
M  V30 10073 O 945.506 -0.532919 -1.74546 0
M  V30 10074 C 945.557 -3.61343 -0.106511 0
M  V30 10075 O 945.278 -4.22861 1.14545 0
M  V30 10076 C 946.779 -4.38489 -0.651359 0
M  V30 10077 H 943.999 -0.66866 0.0559848 0
M  V30 10078 H 946.543 -1.88235 0.799245 0
M  V30 10079 H 944.698 -3.7933 -0.786601 0
M  V30 10080 H 945.112 -5.15691 0.95723 0
M  V30 10081 H 946.586 -5.47237 -0.723615 0
M  V30 10082 H 947.063 -4.06309 -1.66763 0
M  V30 10083 H 947.669 -4.253 -0.0062433 0
M  V30 10084 N 945.984 -0.3171 -1.54377 0
M  V30 10085 C 946.932 0.567371 -2.25574 0
M  V30 10086 C 947.926 1.12387 -1.2675 0
M  V30 10087 O 949.132 1.07266 -1.44548 0
M  V30 10088 H 945.507 0.201605 -0.724472 0
M  V30 10089 H 947.478 -0.0554644 -2.98348 0
M  V30 10090 C 946.227 1.71984 -3.02187 0
M  V30 10091 H 945.55 1.30086 -3.78044 0
M  V30 10092 H 946.99 2.31443 -3.5526 0
M  V30 10093 C 945.449 2.6336 -2.10103 0
M  V30 10094 O 945.979 3.64899 -1.67962 0
M  V30 10095 N 944.185 2.3145 -1.75725 0
M  V30 10096 H 943.732 1.48921 -2.10191 0
M  V30 10097 H 943.69 2.92852 -1.14391 0
M  V30 10098 N 947.462 1.57535 -0.0451378 0
M  V30 10099 C 948.711 1.91628 0.629415 0
M  V30 10100 C 949.024 0.924754 1.72359 0
M  V30 10101 O 950.23 1.15751 2.45589 0
M  V30 10102 C 948.686 3.40322 1.17084 0
M  V30 10103 C 948.294 4.47867 0.109101 0
M  V30 10104 C 950.038 3.83458 1.82099 0
M  V30 10105 C 947.945 5.87671 0.663072 0
M  V30 10106 H 946.875 0.715163 0.238868 0
M  V30 10107 H 949.526 1.83151 -0.113046 0
M  V30 10108 H 947.908 3.43783 1.96543 0
M  V30 10109 H 949.082 4.55988 -0.664201 0
M  V30 10110 H 947.397 4.14034 -0.443227 0
M  V30 10111 H 949.994 4.85273 2.2453 0
M  V30 10112 H 950.337 3.19379 2.67026 0
M  V30 10113 H 950.87 3.82488 1.09305 0
M  V30 10114 H 947.609 6.55332 -0.148423 0
M  V30 10115 H 947.129 5.83124 1.4045 0
M  V30 10116 H 948.808 6.36737 1.14785 0
M  V30 10117 N 948.94 -0.228186 1.55939 0
M  V30 10118 C 950.351 -0.795734 1.68893 0
M  V30 10119 C 950.702 -1.85261 0.645967 0
M  V30 10120 O 949.827 -2.15434 -0.2042 0
M  V30 10121 C 950.422 -1.45013 3.06197 0
M  V30 10122 C 948.981 -1.96514 3.21028 0
M  V30 10123 C 948.128 -0.822918 2.64808 0
M  V30 10124 H 951.079 -0.0036485 1.587 0
M  V30 10125 H 951.1 -2.31875 3.01685 0
M  V30 10126 H 950.612 -0.680678 3.82084 0
M  V30 10127 H 948.713 -2.76282 2.49998 0
M  V30 10128 H 948.826 -2.14967 4.28166 0
M  V30 10129 H 947.19 -1.22846 2.23116 0
M  V30 10130 H 947.973 -0.0662493 3.43236 0
M  V30 10131 N 950.418 -1.49637 -0.494624 0
M  V30 10132 C 951.643 -1.63431 -1.27691 0
M  V30 10133 C 952.068 -0.30813 -1.85559 0
M  V30 10134 O 951.426 0.725083 -1.66169 0
M  V30 10135 C 951.474 -2.71043 -2.3784 0
M  V30 10136 O 950.578 -2.3066 -3.41862 0
M  V30 10137 H 949.919 -0.546804 -0.376698 0
M  V30 10138 H 952.449 -1.95866 -0.591413 0
M  V30 10139 H 952.459 -2.93406 -2.83508 0
M  V30 10140 H 951.134 -3.67306 -1.95088 0
M  V30 10141 H 949.711 -2.18652 -3.02069 0
M  V30 10142 N 951.896 0.746133 -1.38819 0
M  V30 10143 C 953.145 1.50085 -1.34749 0
M  V30 10144 C 953.458 1.95516 0.0574786 0
M  V30 10145 O 954.664 2.70601 0.22073 0
M  V30 10146 C 953.12 2.71141 -2.36665 0
M  V30 10147 C 952.728 2.32706 -3.82821 0
M  V30 10148 C 954.472 3.49005 -2.41652 0
M  V30 10149 C 952.379 3.50418 -4.76405 0
M  V30 10150 H 951.309 0.563563 -0.500912 0
M  V30 10151 H 953.96 0.814951 -1.6441 0
M  V30 10152 H 952.342 3.4175 -2.00058 0
M  V30 10153 H 953.516 1.69715 -4.28408 0
M  V30 10154 H 951.831 1.67959 -3.81023 0
M  V30 10155 H 954.428 4.36541 -3.08766 0
M  V30 10156 H 954.771 3.90687 -1.43769 0
M  V30 10157 H 955.304 2.85416 -2.77097 0
M  V30 10158 H 952.043 3.13795 -5.75511 0
M  V30 10159 H 951.563 4.12426 -4.35505 0
M  V30 10160 H 953.242 4.16901 -4.94775 0
M  V30 10161 N 953.375 1.23811 0.975125 0
M  V30 10162 C 954.338 1.02505 2.05001 0
M  V30 10163 C 955.338 -0.0150084 1.60793 0
M  V30 10164 O 956.528 0.225246 1.72738 0
M  V30 10165 C 953.66 0.552087 3.364 0
M  V30 10166 H 954.853 1.979 2.25335 0
M  V30 10167 H 952.406 1.05929 1.1493 0
M  V30 10168 H 953.141 -0.405394 3.21756 0
M  V30 10169 H 952.926 1.30267 3.69828 0
M  V30 10170 H 954.416 0.423828 4.15444 0
M  V30 10171 N 954.853 -1.17469 1.05066 0
M  V30 10172 C 956.078 -1.92162 0.780298 0
M  V30 10173 C 956.503 -1.76222 -0.657832 0
M  V30 10174 O 955.861 -1.0791 -1.45688 0
M  V30 10175 C 955.909 -3.41292 1.16414 0
M  V30 10176 O 955.013 -4.1134 0.295531 0
M  V30 10177 H 954.354 -0.599127 0.286257 0
M  V30 10178 H 956.884 -1.48903 1.40318 0
M  V30 10179 H 956.894 -3.92029 1.13036 0
M  V30 10180 H 955.569 -3.52214 2.21175 0
M  V30 10181 H 954.146 -3.70857 0.389797 0
M  V30 10182 N 956.331 -0.831506 -1.3388 0
M  V30 10183 C 957.279 -0.247896 -2.31275 0
M  V30 10184 C 958.273 0.616083 -1.578 0
M  V30 10185 O 959.479 0.506465 -1.72728 0
M  V30 10186 H 955.854 -0.0614293 -0.749487 0
M  V30 10187 H 957.825 -1.08401 -2.78014 0
M  V30 10188 C 956.574 0.568434 -3.43022 0
M  V30 10189 H 955.897 -0.0870654 -3.99705 0
M  V30 10190 H 957.337 0.942751 -4.13386 0
M  V30 10191 C 955.796 1.74431 -2.88228 0
M  V30 10192 O 956.326 2.84278 -2.83811 0
M  V30 10193 N 954.532 1.56382 -2.44935 0
M  V30 10194 H 954.079 0.670255 -2.48727 0
M  V30 10195 H 954.037 2.35208 -2.08625 0
M  V30 10196 N 957.809 1.4625 -0.587256 0
M  V30 10197 C 959.055 2.02662 -0.0746851 0
M  V30 10198 C 959.388 1.45723 1.28368 0
M  V30 10199 O 958.663 0.624062 1.84216 0
M  V30 10200 C 958.946 3.60097 -0.0138109 0
M  V30 10201 C 958.799 4.27412 -1.4014 0
M  V30 10202 C 960.118 4.34744 0.684491 0
M  V30 10203 H 957.237 0.736444 -0.0286144 0
M  V30 10204 H 959.879 1.74341 -0.755328 0
M  V30 10205 H 958.029 3.84357 0.56583 0
M  V30 10206 H 959.701 4.14401 -2.02656 0
M  V30 10207 H 957.944 3.86598 -1.96785 0
M  V30 10208 H 958.615 5.362 -1.31124 0
M  V30 10209 H 961.091 4.15657 0.192023 0
M  V30 10210 H 959.967 5.44468 0.696127 0
M  V30 10211 H 960.228 4.06132 1.74669 0
M  V30 10212 N 959.287 0.325282 1.54207 0
M  V30 10213 C 960.533 -0.277185 2.00897 0
M  V30 10214 C 960.866 -1.51651 1.21308 0
M  V30 10215 O 960.141 -1.92237 0.295825 0
M  V30 10216 C 960.424 -0.60961 3.54902 0
M  V30 10217 C 960.277 0.640542 4.45216 0
M  V30 10218 C 961.596 -1.42656 4.16338 0
M  V30 10219 H 958.715 -0.0992722 0.730284 0
M  V30 10220 H 961.357 0.442201 1.84783 0
M  V30 10221 H 959.507 -1.22249 3.68765 0
M  V30 10222 H 961.179 1.27878 4.43221 0
M  V30 10223 H 959.422 1.26908 4.14821 0
M  V30 10224 H 960.093 0.363459 5.50802 0
M  V30 10225 H 962.569 -0.908494 4.06061 0
M  V30 10226 H 961.445 -1.62792 5.24204 0
M  V30 10227 H 961.706 -2.42321 3.69774 0
M  V30 10228 N 960.765 -1.57509 0.0534917 0
M  V30 10229 C 961.712 -2.11667 -0.920101 0
M  V30 10230 C 962.682 -1.0246 -1.30733 0
M  V30 10231 O 963.867 -1.30021 -1.39639 0
M  V30 10232 C 961.007 -2.66803 -2.18883 0
M  V30 10233 C 960.12 -3.90104 -1.85588 0
M  V30 10234 C 959.255 -4.33547 -3.06937 0
M  V30 10235 C 958.294 -5.49542 -2.69573 0
M  V30 10236 N 957.431 -5.88029 -3.83623 0
M  V30 10237 H 962.271 -2.94562 -0.451371 0
M  V30 10238 H 959.808 -1.45576 -0.211168 0
M  V30 10239 H 961.766 -2.96871 -2.93127 0
M  V30 10240 H 960.396 -1.86702 -2.63329 0
M  V30 10241 H 959.448 -3.66613 -1.01484 0
M  V30 10242 H 960.76 -4.74404 -1.54087 0
M  V30 10243 H 959.914 -4.6518 -3.89477 0
M  V30 10244 H 958.653 -3.48064 -3.41618 0
M  V30 10245 H 957.658 -5.17579 -1.8545 0
M  V30 10246 H 958.883 -6.36743 -2.36082 0
M  V30 10247 H 956.829 -5.05498 -4.181 0
M  V30 10248 H 956.746 -6.67025 -3.55828 0
M  V30 10249 H 958.014 -6.24277 -4.66796 0
M  V30 10250 N 962.243 0.219913 -1.56058 0
M  V30 10251 C 963.489 0.945463 -1.79412 0
M  V30 10252 C 963.822 1.83922 -0.62341 0
M  V30 10253 O 963.097 1.90806 0.377256 0
M  V30 10254 C 963.38 1.783 -3.1286 0
M  V30 10255 C 963.233 0.915626 -4.40382 0
M  V30 10256 C 964.552 2.76045 -3.42764 0
M  V30 10257 H 961.671 0.342288 -0.652693 0
M  V30 10258 H 964.313 0.214235 -1.88788 0
M  V30 10259 H 962.463 2.40642 -3.04998 0
M  V30 10260 H 964.135 0.30882 -4.60265 0
M  V30 10261 H 962.378 0.221124 -4.33236 0
M  V30 10262 H 963.049 1.53607 -5.30197 0
M  V30 10263 H 965.525 2.23838 -3.50764 0
M  V30 10264 H 964.401 3.31748 -4.37304 0
M  V30 10265 H 964.662 3.53866 -2.65012 0
M  V30 10266 N 963.721 1.49897 0.486681 0
M  V30 10267 C 964.946 1.64106 1.26823 0
M  V30 10268 C 965.371 0.317967 1.85393 0
M  V30 10269 O 964.729 -0.71626 1.66551 0
M  V30 10270 C 964.777 2.72301 2.36399 0
M  V30 10271 O 963.881 2.32469 3.40634 0
M  V30 10272 H 963.222 0.548794 0.373793 0
M  V30 10273 H 965.752 1.96177 0.581017 0
M  V30 10274 H 965.762 2.94906 2.81948 0
M  V30 10275 H 964.437 3.68335 1.93137 0
M  V30 10276 H 963.014 2.20251 3.00905 0
M  V30 10277 N 965.199 -0.738761 1.39212 0
M  V30 10278 C 966.162 -1.83441 1.37412 0
M  V30 10279 C 967.162 -1.58484 0.271908 0
M  V30 10280 O 968.352 -1.65954 0.529609 0
M  V30 10281 C 965.484 -3.21167 1.143 0
M  V30 10282 H 966.677 -1.86441 2.34904 0
M  V30 10283 H 964.23 -0.942023 1.24722 0
M  V30 10284 H 964.965 -3.23829 0.174756 0
M  V30 10285 H 964.75 -3.40678 1.94116 0
M  V30 10286 H 966.24 -4.01231 1.15773 0
M  V30 10287 N 966.677 -1.24326 -0.968545 0
M  V30 10288 C 967.607 -1.05951 -2.08079 0
M  V30 10289 C 968.588 0.0272666 -1.70078 0
M  V30 10290 O 969.773 -0.139644 -1.93697 0
M  V30 10291 C 966.903 -0.662623 -3.4092 0
M  V30 10292 C 965.857 -1.69807 -3.92873 0
M  V30 10293 C 965.183 -1.15628 -5.22048 0
M  V30 10294 C 966.483 -3.09383 -4.20808 0
M  V30 10295 H 968.177 -1.98984 -2.23709 0
M  V30 10296 H 965.723 -0.958112 -1.075 0
M  V30 10297 H 967.676 -0.521071 -4.18166 0
M  V30 10298 H 966.4 0.303399 -3.25188 0
M  V30 10299 H 965.059 -1.82783 -3.17783 0
M  V30 10300 H 964.707 -0.180888 -5.02675 0
M  V30 10301 H 964.407 -1.84822 -5.57776 0
M  V30 10302 H 965.931 -1.02683 -6.01904 0
M  V30 10303 H 967.345 -2.99642 -4.88761 0
M  V30 10304 H 965.742 -3.75923 -4.67763 0
M  V30 10305 H 966.812 -3.57486 -3.27616 0
M  V30 10306 O 968.194 1.10088 -1.18164 0
M  V30 10307 H 968.885 1.70287 -0.923145 0
M  V30 END ATOM
M  V30 BEGIN BOND
M  V30 END BOND
M  V30 END CTAB
M  END
$$$$
