drugbank_target|Q9BYF1 Angiotensin-converting enzyme 2 (DB00608; DB01611; DB05203; DB15643)
 OpenBabel12092119443D

  0  0  0     0  0            999 V3000
M  V30 BEGIN CTAB
M  V30 COUNTS 12856 13026 0 0 0
M  V30 BEGIN ATOM
M  V30 1 H -0.908 1.98254 -0.117106 0
M  V30 2 N 0 1.576 0 0
M  V30 3 C 0.933 2.03868 1.02534 0
M  V30 4 C 1.911 0.928543 1.3348 0
M  V30 5 O 3.095 1.19667 1.45644 0
M  V30 6 C 0.222 2.43627 2.35294 0
M  V30 7 C -0.732 3.65373 2.2001 0
M  V30 8 S 0.101 5.13292 1.52614 0
M  V30 9 C 1.257 5.56322 2.86805 0
M  V30 10 H 1.49 2.90518 0.631377 0
M  V30 11 H -0.977 1.52953 0.210867 0
M  V30 12 H 0.981 2.67203 3.11629 0
M  V30 13 H -0.358 1.57376 2.7183 0
M  V30 14 H -1.165 3.90944 3.18086 0
M  V30 15 H -1.563 3.418 1.51819 0
M  V30 16 H 0.729 5.58782 3.83104 0
M  V30 17 H 1.672 6.56266 2.65933 0
M  V30 18 H 2.08 4.83886 2.90714 0
M  V30 19 N 1.4781 -0.272755 1.55222 0
M  V30 20 C 2.7031 -1.02683 1.80197 0
M  V30 21 C 3.1281 -1.79142 0.573551 0
M  V30 22 O 2.4861 -1.74917 -0.476849 0
M  V30 23 C 2.5341 -1.9609 3.02624 0
M  V30 24 O 1.6381 -3.04863 2.77727 0
M  V30 25 H 0.9791 -0.293557 0.595584 0
M  V30 26 H 3.5091 -0.30159 2.02365 0
M  V30 27 H 3.5191 -2.38039 3.31363 0
M  V30 28 H 2.1941 -1.39851 3.91682 0
M  V30 29 H 0.7711 -2.67228 2.60084 0
M  V30 30 N 2.9562 -1.48159 -0.537278 0
M  V30 31 C 4.1812 -1.59707 -1.32319 0
M  V30 32 C 4.6062 -0.254859 -1.86365 0
M  V30 33 O 3.9642 0.772378 -1.64024 0
M  V30 34 C 4.0122 -2.6412 -2.45505 0
M  V30 35 O 3.1162 -2.20774 -3.48328 0
M  V30 36 H 2.4572 -0.535791 -0.392204 0
M  V30 37 H 4.9872 -1.94092 -0.647268 0
M  V30 38 H 4.9972 -2.85166 -2.91795 0
M  V30 39 H 3.6722 -3.61567 -2.05528 0
M  V30 40 H 2.2492 -2.09911 -3.08207 0
M  V30 41 N 4.4343 0.785586 -1.36625 0
M  V30 42 C 5.6593 1.57963 -1.34397 0
M  V30 43 C 6.0843 1.87964 0.071526 0
M  V30 44 O 5.4423 1.48182 1.0446 0
M  V30 45 C 5.4903 2.87511 -2.17646 0
M  V30 46 O 4.5943 3.81281 -1.57158 0
M  V30 47 H 3.9353 0.479014 -0.459828 0
M  V30 48 H 6.4653 0.973411 -1.79961 0
M  V30 49 H 6.4753 3.36745 -2.30362 0
M  V30 50 H 5.1503 2.65002 -3.20541 0
M  V30 51 H 3.7273 3.39885 -1.53403 0
M  V30 52 N 5.9124 1.20967 1.01018 0
M  V30 53 C 7.1374 1.0503 1.78839 0
M  V30 54 C 7.5624 -0.395752 1.8389 0
M  V30 55 O 6.9204 -1.28529 1.27867 0
M  V30 56 C 6.9684 1.64602 3.2084 0
M  V30 57 O 6.0724 0.887988 4.02726 0
M  V30 58 H 5.4134 0.369987 0.551367 0
M  V30 59 H 7.9434 1.60399 1.27018 0
M  V30 60 H 7.9534 1.68607 3.71532 0
M  V30 61 H 6.6284 2.69841 3.16479 0
M  V30 62 H 5.2054 0.922648 3.61305 0
M  V30 63 N 7.3905 -1.2043 1.01659 0
M  V30 64 C 8.6365 -1.90356 0.716674 0
M  V30 65 C 8.9915 -1.77367 -0.745557 0
M  V30 66 O 8.2845 -1.1471 -1.53467 0
M  V30 67 C 8.4785 -3.40464 1.08714 0
M  V30 68 C 8.3075 -3.6806 2.58384 0
M  V30 69 C 7.0775 -3.86775 3.25167 0
M  V30 70 C 9.2755 -3.70623 3.56572 0
M  V30 71 N 7.2575 -4.01889 4.64067 0
M  V30 72 C 8.6285 -3.91161 4.81034 0
M  V30 73 C 10.6835 -3.53586 3.50544 0
M  V30 74 C 9.3865 -3.96428 6.00198 0
M  V30 75 C 11.4125 -3.60125 4.6911 0
M  V30 76 C 10.7745 -3.81135 5.92381 0
M  V30 77 H 6.8735 -0.716226 0.313918 0
M  V30 78 H 9.4575 -1.44815 1.30141 0
M  V30 79 H 7.6285 -3.84757 0.530745 0
M  V30 80 H 9.3605 -3.97863 0.740763 0
M  V30 81 H 6.1155 -3.85156 2.75594 0
M  V30 82 H 6.5395 -4.13323 5.36184 0
M  V30 83 H 11.1815 -3.36308 2.56235 0
M  V30 84 H 8.8995 -4.12502 6.94887 0
M  V30 85 H 12.4855 -3.4825 4.66062 0
M  V30 86 H 11.3655 -3.86054 6.82592 0
M  V30 87 N 8.8686 -0.792821 -1.36206 0
M  V30 88 C 9.7986 -0.207853 -2.32573 0
M  V30 89 C 10.7796 0.659055 -1.56813 0
M  V30 90 O 11.9646 0.592176 -1.84951 0
M  V30 91 C 9.0946 0.655449 -3.41059 0
M  V30 92 C 8.0486 -0.111842 -4.27854 0
M  V30 93 C 7.3746 0.872274 -5.27537 0
M  V30 94 C 8.6746 -1.30299 -5.05786 0
M  V30 95 H 10.3686 -1.01294 -2.81744 0
M  V30 96 H 7.9146 -0.48854 -1.3546 0
M  V30 97 H 9.8676 1.07464 -4.07467 0
M  V30 98 H 8.5916 1.49328 -2.90463 0
M  V30 99 H 7.2506 -0.512053 -3.63006 0
M  V30 100 H 6.8986 1.70523 -4.73214 0
M  V30 101 H 6.5986 0.363291 -5.86476 0
M  V30 102 H 8.1226 1.28996 -5.96818 0
M  V30 103 H 9.5366 -0.959379 -5.65216 0
M  V30 104 H 7.9336 -1.7455 -5.74154 0
M  V30 105 H 9.0036 -2.09663 -4.37229 0
M  V30 106 N 10.3467 1.47872 -0.545128 0
M  V30 107 C 11.2767 2.32661 0.197793 0
M  V30 108 C 12.2577 1.43041 0.920504 0
M  V30 109 O 13.4427 1.71912 0.90333 0
M  V30 110 C 10.5727 3.24569 1.23582 0
M  V30 111 C 9.5267 4.23333 0.630323 0
M  V30 112 C 8.8527 5.0448 1.77211 0
M  V30 113 C 10.1527 5.20704 -0.407974 0
M  V30 114 H 11.8467 2.95024 -0.510045 0
M  V30 115 H 9.3927 1.4187 -0.246731 0
M  V30 116 H 11.3457 3.8272 1.76362 0
M  V30 117 H 10.0697 2.60236 1.97344 0
M  V30 118 H 8.7287 3.6639 0.123922 0
M  V30 119 H 8.3767 4.36561 2.49847 0
M  V30 120 H 8.0767 5.71339 1.37281 0
M  V30 121 H 9.6007 5.65487 2.3034 0
M  V30 122 H 11.0147 5.7329 0.033305 0
M  V30 123 H 9.4117 5.95699 -0.725486 0
M  V30 124 H 10.4817 4.66917 -1.30828 0
M  V30 125 N 11.8248 0.280983 1.55075 0
M  V30 126 C 12.7548 -0.597469 2.25727 0
M  V30 127 C 13.7358 -1.15417 1.24952 0
M  V30 128 O 14.9208 -1.18722 1.53684 0
M  V30 129 C 12.0508 -1.7789 2.98283 0
M  V30 130 C 11.0048 -1.35347 4.06036 0
M  V30 131 C 10.3308 -2.61846 4.66198 0
M  V30 132 C 11.6308 -0.499354 5.19907 0
M  V30 133 H 13.3248 -0.00824265 2.99399 0
M  V30 134 H 10.8708 -0.0025244 1.44 0
M  V30 135 H 12.8238 -2.39937 3.46422 0
M  V30 136 H 11.5478 -2.39405 2.22155 0
M  V30 137 H 10.2068 -0.756156 3.58717 0
M  V30 138 H 9.8548 -3.21632 3.86732 0
M  V30 139 H 9.5548 -2.3409 5.38958 0
M  V30 140 H 11.0788 -3.24732 5.1709 0
M  V30 141 H 12.4928 -1.02498 5.64063 0
M  V30 142 H 10.8898 -0.316424 5.99265 0
M  V30 143 H 11.9598 0.480459 4.82514 0
M  V30 144 N 13.3029 -1.57598 0.00835791 0
M  V30 145 C 14.5279 -1.95617 -0.689103 0
M  V30 146 C 14.9529 -0.883753 -1.66046 0
M  V30 147 O 14.3109 0.157352 -1.80616 0
M  V30 148 C 14.3589 -3.32736 -1.38994 0
M  V30 149 O 13.4629 -3.27631 -2.50463 0
M  V30 150 H 12.8039 -0.638379 -0.182668 0
M  V30 151 H 15.3339 -2.045 0.064036 0
M  V30 152 H 15.3439 -3.68494 -1.75147 0
M  V30 153 H 14.0189 -4.1034 -0.677778 0
M  V30 154 H 12.5959 -3.03561 -2.16576 0
M  V30 155 N 14.781 0.264519 -1.55364 0
M  V30 156 C 15.711 1.33121 -1.91836 0
M  V30 157 C 16.692 1.51101 -0.781192 0
M  V30 158 O 17.877 1.64003 -1.04003 0
M  V30 159 C 15.007 2.68921 -2.19769 0
M  V30 160 C 13.961 2.65661 -3.35571 0
M  V30 161 C 13.287 4.05093 -3.49004 0
M  V30 162 C 14.587 2.24187 -4.71739 0
M  V30 163 H 16.281 1.02844 -2.81182 0
M  V30 164 H 13.827 0.493286 -1.35287 0
M  V30 165 H 15.78 3.43663 -2.43872 0
M  V30 166 H 14.504 3.00799 -1.27231 0
M  V30 167 H 13.163 1.93377 -3.1145 0
M  V30 168 H 12.811 4.34206 -2.53917 0
M  V30 169 H 12.511 4.03804 -4.26868 0
M  V30 170 H 14.035 4.81561 -3.75408 0
M  V30 171 H 15.449 2.88654 -4.9533 0
M  V30 172 H 13.846 2.34044 -5.52579 0
M  V30 173 H 14.916 1.19327 -4.69988 0
M  V30 174 N 16.2591 1.48442 0.529413 0
M  V30 175 C 17.5051 1.5672 1.28711 0
M  V30 176 C 17.8381 0.2406 1.92704 0
M  V30 177 O 17.1131 -0.753454 1.79313 0
M  V30 178 C 17.3961 2.70587 2.37603 0
M  V30 179 C 17.2491 4.12953 1.78297 0
M  V30 180 C 18.5681 2.80212 3.39366 0
M  V30 181 H 15.6871 0.570474 0.466613 0
M  V30 182 H 18.3291 1.80617 0.589706 0
M  V30 183 H 16.4791 2.50342 2.97088 0
M  V30 184 H 18.1511 4.44639 1.22858 0
M  V30 185 H 16.3941 4.19927 1.0883 0
M  V30 186 H 17.0651 4.88448 2.57144 0
M  V30 187 H 19.5411 2.98553 2.89836 0
M  V30 188 H 18.4171 3.61611 4.12951 0
M  V30 189 H 18.6781 1.88393 3.99951 0
M  V30 190 N 17.7372 -0.778329 1.37039 0
M  V30 191 C 18.7002 -1.87301 1.32102 0
M  V30 192 C 19.7002 -1.59198 0.226405 0
M  V30 193 O 20.8902 -1.67403 0.481861 0
M  V30 194 C 18.0222 -3.24309 1.05055 0
M  V30 195 H 19.2152 -1.93093 2.29467 0
M  V30 196 H 16.7682 -0.977358 1.21973 0
M  V30 197 H 17.5032 -3.24196 0.0819373 0
M  V30 198 H 17.2882 -3.46098 1.84279 0
M  V30 199 H 18.7782 -4.04382 1.04234 0
M  V30 200 N 19.2153 -1.21501 -1.00376 0
M  V30 201 C 20.4613 -1.03452 -1.74429 0
M  V30 202 C 20.7943 0.430764 -1.89362 0
M  V30 203 O 20.0693 1.31962 -1.42886 0
M  V30 204 C 20.3523 -1.73375 -3.15615 0
M  V30 205 C 20.2053 -3.27431 -3.08397 0
M  V30 206 C 21.5243 -1.47732 -4.14564 0
M  V30 207 H 18.6433 -0.377226 -0.633143 0
M  V30 208 H 21.2853 -1.49693 -1.17013 0
M  V30 209 H 19.4353 -1.34064 -3.64636 0
M  V30 210 H 21.1073 -3.76119 -2.67081 0
M  V30 211 H 19.3503 -3.5767 -2.45468 0
M  V30 212 H 20.0213 -3.71524 -4.08258 0
M  V30 213 H 22.4973 -1.8186 -3.74254 0
M  V30 214 H 21.3733 -1.99169 -5.11491 0
M  V30 215 H 21.6343 -0.407589 -4.40217 0
M  V30 216 N 20.6934 1.19889 -1.02296 0
M  V30 217 C 21.9214 1.9339 -0.735399 0
M  V30 218 C 22.3364 1.75148 0.704887 0
M  V30 219 O 21.6934 1.06954 1.47875 0
M  V30 220 C 21.7444 3.45313 -1.06962 0
M  V30 221 O 21.4654 3.62964 -2.45334 0
M  V30 222 C 22.9664 4.35948 -0.804021 0
M  V30 223 H 20.1864 0.61448 -0.269546 0
M  V30 224 H 22.7304 1.522 -1.36585 0
M  V30 225 H 20.8854 3.84359 -0.484455 0
M  V30 226 H 21.2994 4.56886 -2.57595 0
M  V30 227 H 22.7734 5.41174 -1.0879 0
M  V30 228 H 23.2504 4.3842 0.261691 0
M  V30 229 H 23.8564 4.02574 -1.37164 0
M  V30 230 N 22.1715 0.800033 1.35784 0
M  V30 231 C 23.1345 0.211565 2.28221 0
M  V30 232 C 24.1345 -0.59728 1.49296 0
M  V30 233 O 25.3245 -0.416721 1.69142 0
M  V30 234 C 22.4565 -0.705846 3.33513 0
M  V30 235 H 23.6495 1.02677 2.81776 0
M  V30 236 H 21.2025 0.570211 1.45528 0
M  V30 237 H 21.9375 -1.54498 2.85133 0
M  V30 238 H 21.7225 -0.127655 3.91892 0
M  V30 239 H 23.2125 -1.11211 4.02519 0
M  V30 240 N 23.6496 -1.47581 0.552962 0
M  V30 241 C 24.6126 -2.28439 -0.186605 0
M  V30 242 C 25.6126 -1.36706 -0.84665 0
M  V30 243 O 26.8026 -1.59378 -0.703164 0
M  V30 244 C 23.9346 -3.16264 -1.2724 0
M  V30 245 H 25.1276 -2.95294 0.523609 0
M  V30 246 H 22.6806 -1.532 0.309745 0
M  V30 247 H 23.4156 -2.54091 -2.01514 0
M  V30 248 H 23.2006 -3.83769 -0.803968 0
M  V30 249 H 24.6906 -3.77198 -1.79196 0
M  V30 250 N 25.1277 -0.289203 -1.54924 0
M  V30 251 C 26.0597 0.625583 -2.20497 0
M  V30 252 C 27.0727 1.10667 -1.19402 0
M  V30 253 O 28.2617 1.02615 -1.46056 0
M  V30 254 C 25.3617 1.86702 -2.82835 0
M  V30 255 C 24.5347 1.5304 -4.09753 0
M  V30 256 C 23.5937 2.62576 -4.56005 0
M  V30 257 O 22.6197 2.28167 -5.21468 0
M  V30 258 N 23.8217 3.92901 -4.27328 0
M  V30 259 H 26.5867 0.0642801 -2.99631 0
M  V30 260 H 24.1477 -0.110896 -1.6152 0
M  V30 261 H 26.1397 2.59304 -3.10715 0
M  V30 262 H 24.7097 2.33702 -2.07611 0
M  V30 263 H 23.9297 0.637564 -3.8901 0
M  V30 264 H 25.2177 1.28072 -4.92418 0
M  V30 265 H 24.6157 4.23671 -3.74859 0
M  V30 266 H 23.1727 4.61837 -4.59946 0
M  V30 267 N 26.6058 1.57591 -0.0167156 0
M  V30 268 C 27.8308 1.9598 0.67872 0
M  V30 269 C 28.2558 0.892546 1.65575 0
M  V30 270 O 27.6138 -0.147772 1.80697 0
M  V30 271 C 27.6618 3.33468 1.37227 0
M  V30 272 O 26.7658 3.28954 2.48722 0
M  V30 273 H 26.1068 0.639339 0.17928 0
M  V30 274 H 28.6368 2.04463 -0.0748802 0
M  V30 275 H 28.6468 3.69417 1.7319 0
M  V30 276 H 27.3218 4.10694 0.656007 0
M  V30 277 H 25.8988 3.04705 2.14963 0
M  V30 278 N 28.0839 -0.256276 1.55502 0
M  V30 279 C 29.3119 -1.00342 1.8094 0
M  V30 280 C 29.7269 -1.79307 0.59114 0
M  V30 281 O 29.0839 -1.77114 -0.440081 0
M  V30 282 C 29.1349 -1.94875 3.04476 0
M  V30 283 O 28.8559 -1.19107 4.21598 0
M  V30 284 C 30.3569 -2.81266 3.42644 0
M  V30 285 H 27.5769 -0.295685 0.602338 0
M  V30 286 H 30.1209 -0.281998 2.02546 0
M  V30 287 H 28.2759 -2.62457 2.84947 0
M  V30 288 H 28.6899 -1.82969 4.91551 0
M  V30 289 H 30.1639 -3.43362 4.32211 0
M  V30 290 H 30.6409 -3.51897 2.62802 0
M  V30 291 H 31.2469 -2.1915 3.64491 0
M  V30 292 N 29.562 -1.4872 -0.521534 0
M  V30 293 C 30.811 -1.56419 -1.27341 0
M  V30 294 C 31.124 -0.246805 -1.94037 0
M  V30 295 O 32.33 -0.202122 -2.70747 0
M  V30 296 C 30.786 -2.75896 -2.31105 0
M  V30 297 C 30.394 -4.14311 -1.70441 0
M  V30 298 C 32.138 -2.92913 -3.07249 0
M  V30 299 C 30.045 -5.25038 -2.72194 0
M  V30 300 H 28.975 -0.582344 -0.478949 0
M  V30 301 H 31.626 -1.75071 -0.549779 0
M  V30 302 H 30.008 -2.50697 -3.06541 0
M  V30 303 H 31.182 -4.49564 -1.01136 0
M  V30 304 H 29.497 -4.02482 -1.06759 0
M  V30 305 H 32.094 -3.72805 -3.83302 0
M  V30 306 H 32.437 -2.02689 -3.63625 0
M  V30 307 H 32.97 -3.18054 -2.38928 0
M  V30 308 H 29.709 -6.17255 -2.20627 0
M  V30 309 H 29.229 -4.94263 -3.39801 0
M  V30 310 H 30.908 -5.53508 -3.35019 0
M  V30 311 N 31.0401 0.771051 -1.3745 0
M  V30 312 C 31.9501 1.91538 -1.35464 0
M  V30 313 C 32.9661 1.72134 -0.254123 0
M  V30 314 O 34.1421 1.95358 -0.489626 0
M  V30 315 C 31.2071 3.26671 -1.16134 0
M  V30 316 C 30.2681 3.58723 -2.35831 0
M  V30 317 C 29.5011 4.87409 -2.17413 0
M  V30 318 O 29.7241 5.58506 -1.15876 0
M  V30 319 O 28.6581 5.18539 -3.05615 0
M  V30 320 H 32.4841 1.96165 -2.31847 0
M  V30 321 H 30.0691 0.9139 -1.18187 0
M  V30 322 H 31.9511 4.07499 -1.07345 0
M  V30 323 H 30.6261 3.22894 -0.228251 0
M  V30 324 H 29.5331 2.78127 -2.50192 0
M  V30 325 H 30.8661 3.67243 -3.27709 0
M  V30 326 N 32.5182 1.22032 0.997298 0
M  V30 327 C 33.4282 1.00271 2.12092 0
M  V30 328 C 34.4442 -0.047621 1.73935 0
M  V30 329 O 35.6202 0.144136 2.00884 0
M  V30 330 C 32.6852 0.578449 3.4184 0
M  V30 331 C 31.7462 1.70189 3.94125 0
M  V30 332 C 30.9792 1.29778 5.17681 0
M  V30 333 O 31.2022 0.174676 5.70132 0
M  V30 334 O 30.1362 2.11261 5.63607 0
M  V30 335 H 33.9622 1.94398 2.3333 0
M  V30 336 H 31.5472 1.00587 1.10465 0
M  V30 337 H 33.4292 0.351998 4.19927 0
M  V30 338 H 32.1042 -0.334019 3.21972 0
M  V30 339 H 31.0112 1.98282 3.1723 0
M  V30 340 H 32.3442 2.59206 4.18417 0
M  V30 341 N 33.9963 -1.19345 1.0293 0
M  V30 342 C 34.9283 -2.22036 0.56857 0
M  V30 343 C 35.9413 -1.58865 -0.355779 0
M  V30 344 O 37.1303 -1.77851 -0.152103 0
M  V30 345 C 34.2303 -3.38363 -0.190752 0
M  V30 346 C 33.4033 -4.31118 0.738643 0
M  V30 347 C 32.4623 -5.26194 0.0246497 0
M  V30 348 O 31.4883 -5.65461 0.651354 0
M  V30 349 N 32.6903 -5.66971 -1.24594 0
M  V30 350 H 35.4553 -2.6219 1.45177 0
M  V30 351 H 33.0163 -1.34015 0.908381 0
M  V30 352 H 35.0083 -3.98981 -0.677961 0
M  V30 353 H 33.5783 -2.96994 -0.975366 0
M  V30 354 H 32.7983 -3.68276 1.40593 0
M  V30 355 H 34.0863 -4.90001 1.37029 0
M  V30 356 H 33.4843 -5.37104 -1.77583 0
M  V30 357 H 32.0413 -6.2984 -1.67764 0
M  V30 358 N 35.4744 -0.807222 -1.35358 0
M  V30 359 C 36.4374 -0.223665 -2.28106 0
M  V30 360 C 37.4374 0.589354 -1.4961 0
M  V30 361 O 38.6274 0.407745 -1.69361 0
M  V30 362 C 35.7594 0.688149 -3.33882 0
M  V30 363 H 36.9524 -1.04169 -2.81227 0
M  V30 364 H 34.5054 -0.577921 -1.45223 0
M  V30 365 H 35.2404 1.52984 -2.85948 0
M  V30 366 H 35.0254 0.10687 -3.91954 0
M  V30 367 H 36.5154 1.09075 -4.03104 0
M  V30 368 N 36.9525 1.47285 -0.560781 0
M  V30 369 C 37.8995 2.30058 0.18491 0
M  V30 370 C 38.8695 1.39281 0.904986 0
M  V30 371 O 40.0545 1.68241 0.899979 0
M  V30 372 C 37.1945 3.23317 1.20666 0
M  V30 373 C 36.3075 4.29186 0.492285 0
M  V30 374 C 35.4425 5.09592 1.49964 0
M  V30 375 C 34.4815 6.07232 0.770439 0
M  V30 376 N 33.6185 6.80584 1.72479 0
M  V30 377 H 38.4585 2.93302 -0.527048 0
M  V30 378 H 35.9955 1.44568 -0.271738 0
M  V30 379 H 37.9535 3.75811 1.81168 0
M  V30 380 H 36.5835 2.61929 1.88661 0
M  V30 381 H 35.6355 3.7972 -0.227333 0
M  V30 382 H 36.9475 4.98738 -0.0787929 0
M  V30 383 H 36.1015 5.66254 2.17809 0
M  V30 384 H 34.8405 4.3995 2.10464 0
M  V30 385 H 33.8455 5.49745 0.0780846 0
M  V30 386 H 35.0705 6.78884 0.171134 0
M  V30 387 H 33.0165 6.1367 2.3183 0
M  V30 388 H 32.9335 7.46319 1.20596 0
M  V30 389 H 34.2015 7.41818 2.39428 0
M  V30 390 N 38.4306 0.297415 1.54768 0
M  V30 391 C 39.6586 -0.315623 2.04478 0
M  V30 392 C 40.0736 -1.47792 1.17486 0
M  V30 393 O 39.4306 -1.81404 0.19971 0
M  V30 394 C 39.4816 -0.7753 3.53088 0
M  V30 395 O 39.2026 0.340732 4.36773 0
M  V30 396 C 40.7036 -1.45386 4.18781 0
M  V30 397 H 37.9236 -0.0690887 0.667434 0
M  V30 398 H 40.4676 0.436003 1.99798 0
M  V30 399 H 38.6226 -1.47696 3.58141 0
M  V30 400 H 39.0366 -0.0165035 5.24497 0
M  V30 401 H 40.5106 -1.72669 5.24299 0
M  V30 402 H 40.9876 -2.39275 3.68299 0
M  V30 403 H 41.5936 -0.795475 4.17795 0
M  V30 404 N 39.9087 -1.5758 0.0250728 0
M  V30 405 C 41.1557 -1.91633 -0.654444 0
M  V30 406 C 41.4837 -0.901103 -1.72367 0
M  V30 407 O 40.7387 0.0905647 -1.9549 0
M  V30 408 C 41.0377 -3.32421 -1.31268 0
M  V30 409 C 40.7037 -4.49344 -0.374223 0
M  V30 410 C 39.3657 -4.8106 -0.115911 0
M  V30 411 C 41.7177 -5.20498 0.270432 0
M  V30 412 C 39.0457 -5.8129 0.79493 0
M  V30 413 C 41.3977 -6.21699 1.1693 0
M  V30 414 C 40.0617 -6.51859 1.43655 0
M  V30 415 H 39.3317 -0.701236 -0.239478 0
M  V30 416 H 41.9787 -1.91307 0.0859734 0
M  V30 417 H 40.2837 -3.28989 -2.12775 0
M  V30 418 H 41.9807 -3.56038 -1.84494 0
M  V30 419 H 38.5707 -4.24579 -0.58573 0
M  V30 420 H 42.7547 -4.96229 0.0839194 0
M  V30 421 H 38.0107 -6.03005 1.00973 0
M  V30 422 H 42.1847 -6.75955 1.67504 0
M  V30 423 H 39.8117 -7.2934 2.144 0
M  V30 424 N 41.3868 0.248026 -1.55636 0
M  V30 425 C 42.3168 1.31079 -1.93237 0
M  V30 426 C 43.2978 1.50264 -0.797174 0
M  V30 427 O 44.4828 1.62891 -1.05737 0
M  V30 428 C 41.6128 2.66575 -2.22609 0
M  V30 429 C 40.5668 2.62087 -3.3837 0
M  V30 430 C 39.8928 4.01369 -3.53281 0
M  V30 431 C 41.1928 2.19171 -4.7409 0
M  V30 432 H 42.8868 0.998556 -2.82257 0
M  V30 433 H 40.4328 0.47891 -1.35803 0
M  V30 434 H 42.3858 3.41057 -2.47503 0
M  V30 435 H 41.1098 2.99432 -1.30414 0
M  V30 436 H 39.7688 1.90063 -3.13483 0
M  V30 437 H 39.4168 4.31489 -2.58508 0
M  V30 438 H 39.1168 3.99254 -4.31127 0
M  V30 439 H 40.6408 4.77552 -3.80495 0
M  V30 440 H 42.0548 2.83384 -4.98363 0
M  V30 441 H 40.4518 2.2817 -5.5503 0
M  V30 442 H 41.5218 1.14336 -4.71227 0
M  V30 443 N 42.8649 1.48995 0.513639 0
M  V30 444 C 44.1419 1.48338 1.27495 0
M  V30 445 C 44.5219 0.204065 2.10111 0
M  V30 446 O 43.8699 -0.813881 2.13514 0
M  V30 447 C 44.0799 2.75498 2.14247 0
M  V30 448 C 45.4279 3.24484 2.73852 0
M  V30 449 O 46.4519 2.76528 2.24523 0
M  V30 450 O 45.3109 4.07974 3.6362 0
M  V30 451 H 42.4049 0.593149 0.576284 0
M  V30 452 H 44.9509 1.61246 0.528948 0
M  V30 453 H 43.7229 3.60109 1.53092 0
M  V30 454 H 43.3459 2.6539 2.96064 0
M  V30 455 N 44.343 -0.763751 1.37857 0
M  V30 456 C 45.29 -1.87726 1.34267 0
M  V30 457 C 46.26 -1.64807 0.206879 0
M  V30 458 O 47.445 -1.86613 0.397508 0
M  V30 459 C 44.585 -3.24896 1.16346 0
M  V30 460 C 43.698 -3.59716 2.39225 0
M  V30 461 C 42.833 -4.86137 2.14114 0
M  V30 462 C 41.872 -5.13711 3.32817 0
M  V30 463 N 41.009 -6.31323 3.07206 0
M  V30 464 H 45.849 -1.90129 2.29466 0
M  V30 465 H 43.386 -0.929433 1.14017 0
M  V30 466 H 45.344 -4.04036 1.03975 0
M  V30 467 H 43.974 -3.21847 0.247909 0
M  V30 468 H 43.026 -2.75498 2.62307 0
M  V30 469 H 44.338 -3.76027 3.27728 0
M  V30 470 H 43.492 -5.73198 1.9882 0
M  V30 471 H 42.231 -4.71945 1.22961 0
M  V30 472 H 41.236 -4.25123 3.48641 0
M  V30 473 H 42.461 -5.29807 4.24832 0
M  V30 474 H 40.407 -6.18474 2.1869 0
M  V30 475 H 40.324 -6.48087 3.89254 0
M  V30 476 H 41.592 -7.213 2.95546 0
M  V30 477 N 45.8211 -1.22559 -0.990812 0
M  V30 478 C 47.0681 -1.05141 -1.73065 0
M  V30 479 C 47.3961 0.413191 -1.9006 0
M  V30 480 O 46.6511 1.32257 -1.44245 0
M  V30 481 C 46.9501 -1.71011 -3.13831 0
M  V30 482 C 46.6161 -3.20911 -3.16745 0
M  V30 483 C 45.2781 -3.61812 -3.17247 0
M  V30 484 C 47.6301 -4.16846 -3.12872 0
M  V30 485 C 44.9581 -4.97127 -3.1158 0
M  V30 486 C 47.3101 -5.5214 -3.08746 0
M  V30 487 C 45.9741 -5.92419 -3.07565 0
M  V30 488 H 45.2441 -0.384738 -0.633291 0
M  V30 489 H 47.8911 -1.5235 -1.16025 0
M  V30 490 H 46.1961 -1.16133 -3.74193 0
M  V30 491 H 47.8931 -1.55023 -3.69823 0
M  V30 492 H 44.4831 -2.88344 -3.17105 0
M  V30 493 H 48.6671 -3.86263 -3.11632 0
M  V30 494 H 43.9231 -5.27562 -3.09012 0
M  V30 495 H 48.0971 -6.26201 -3.04705 0
M  V30 496 H 45.7241 -6.97236 -3.02929 0
M  V30 497 N 47.2992 1.18797 -1.03562 0
M  V30 498 C 48.2472 2.24297 -0.615905 0
M  V30 499 C 49.2412 1.65643 0.354808 0
M  V30 500 O 50.4472 1.78618 0.22265 0
M  V30 501 H 46.8222 0.729909 -0.180934 0
M  V30 502 H 48.7932 2.5701 -1.5162 0
M  V30 503 C 47.5422 3.47698 0.0104735 0
M  V30 504 H 46.8652 3.93125 -0.727509 0
M  V30 505 H 48.3052 4.23159 0.266995 0
M  V30 506 C 46.7642 3.12489 1.25905 0
M  V30 507 O 47.2942 3.25761 2.35038 0
M  V30 508 N 45.5002 2.6686 1.15039 0
M  V30 509 H 45.0472 2.56261 0.262328 0
M  V30 510 H 45.0052 2.43674 1.98672 0
M  V30 511 N 48.7773 0.814389 1.34928 0
M  V30 512 C 49.7273 0.202752 2.27097 0
M  V30 513 C 50.7113 -0.62799 1.48139 0
M  V30 514 O 51.9033 -0.483969 1.70255 0
M  V30 515 C 49.0323 -0.64146 3.37254 0
M  V30 516 C 48.1183 0.19944 4.23631 0
M  V30 517 N 48.5093 1.26628 4.89693 0
M  V30 518 C 46.8073 -0.0176433 4.45997 0
M  V30 519 C 47.5083 1.78031 5.53787 0
M  V30 520 N 46.4843 1.08553 5.32651 0
M  V30 521 H 50.2863 1.01893 2.75672 0
M  V30 522 H 47.8003 0.656332 1.48546 0
M  V30 523 H 49.7973 -1.09575 4.02243 0
M  V30 524 H 48.4573 -1.4559 2.9023 0
M  V30 525 H 49.4683 1.64901 4.90946 0
M  V30 526 H 46.1453 -0.800601 4.09752 0
M  V30 527 H 47.5353 2.67236 6.16469 0
M  V30 528 N 50.2554 -1.46986 0.568584 0
M  V30 529 C 51.1654 -2.33942 -0.17555 0
M  V30 530 C 52.1814 -1.48891 -0.90041 0
M  V30 531 O 53.3574 -1.81794 -0.86676 0
M  V30 532 C 50.4224 -3.25811 -1.18524 0
M  V30 533 C 49.4834 -4.26757 -0.466582 0
M  V30 534 C 48.7164 -5.14236 -1.42817 0
M  V30 535 O 48.9394 -5.04379 -2.66379 0
M  V30 536 O 47.8734 -5.94412 -0.946453 0
M  V30 537 H 51.6994 -2.98896 0.538036 0
M  V30 538 H 49.2844 -1.4573 0.329097 0
M  V30 539 H 51.1664 -3.82527 -1.76779 0
M  V30 540 H 49.8414 -2.63471 -1.88055 0
M  V30 541 H 48.7484 -3.73769 0.157451 0
M  V30 542 H 50.0814 -4.91843 0.187485 0
M  V30 543 N 51.7335 -0.305618 -1.54608 0
M  V30 544 C 52.6965 0.555591 -2.22364 0
M  V30 545 C 53.6965 1.05768 -1.21119 0
M  V30 546 O 54.8865 0.952972 -1.45822 0
M  V30 547 C 52.0185 1.76974 -2.91364 0
M  V30 548 H 53.2115 -0.0364572 -2.99878 0
M  V30 549 H 50.7645 -0.0565007 -1.56198 0
M  V30 550 H 51.4995 2.40151 -2.17941 0
M  V30 551 H 51.2845 1.41732 -3.65588 0
M  V30 552 H 52.7745 2.38148 -3.43038 0
M  V30 553 N 53.2116 1.57565 -0.0334293 0
M  V30 554 C 54.1216 2.13943 0.962572 0
M  V30 555 C 55.1376 1.09276 1.35406 0
M  V30 556 O 56.3136 1.41355 1.4346 0
M  V30 557 C 53.3786 2.65887 2.22497 0
M  V30 558 C 52.4396 3.85286 1.8935 0
M  V30 559 C 51.6726 4.34743 3.09571 0
M  V30 560 O 51.8956 3.83352 4.22371 0
M  V30 561 O 50.8296 5.26538 2.91618 0
M  V30 562 H 54.6556 2.99333 0.513169 0
M  V30 563 H 52.2406 1.4822 0.18743 0
M  V30 564 H 54.1226 2.99346 2.96598 0
M  V30 565 H 52.7976 1.83578 2.6661 0
M  V30 566 H 51.7046 3.56746 1.1262 0
M  V30 567 H 53.0376 4.68771 1.5005 0
M  V30 568 N 54.6897 -0.239769 1.55765 0
M  V30 569 C 55.9667 -0.990056 1.68693 0
M  V30 570 C 56.3467 -2.03107 0.5754 0
M  V30 571 O 55.6947 -2.24604 -0.42017 0
M  V30 572 C 55.9047 -1.61696 3.09282 0
M  V30 573 C 57.2527 -2.11613 3.6811 0
M  V30 574 O 58.2767 -1.71624 3.12127 0
M  V30 575 O 57.1357 -2.85057 4.66267 0
M  V30 576 H 54.2297 -0.461299 0.686391 0
M  V30 577 H 56.7757 -0.232991 1.68093 0
M  V30 578 H 55.5477 -0.864357 3.81634 0
M  V30 579 H 55.1707 -2.44005 3.13923 0
M  V30 580 N 56.1678 -1.49265 -0.50573 0
M  V30 581 C 57.0978 -1.68495 -1.61653 0
M  V30 582 C 58.0788 -0.53366 -1.61512 0
M  V30 583 O 59.2638 -0.76897 -1.78327 0
M  V30 584 C 56.3938 -1.74709 -3.00157 0
M  V30 585 C 55.3478 -2.89581 -3.15162 0
M  V30 586 C 54.6738 -2.80903 -4.5497 0
M  V30 587 C 55.9738 -4.30578 -2.95634 0
M  V30 588 H 57.6678 -2.61493 -1.45814 0
M  V30 589 H 55.2138 -1.25838 -0.70005 0
M  V30 590 H 57.1668 -1.86748 -3.77761 0
M  V30 591 H 55.8908 -0.783067 -3.17074 0
M  V30 592 H 54.5498 -2.77136 -2.39982 0
M  V30 593 H 54.1978 -1.82419 -4.68756 0
M  V30 594 H 53.8978 -3.57999 -4.65951 0
M  V30 595 H 55.4218 -2.94944 -5.34641 0
M  V30 596 H 56.8358 -4.4373 -3.63011 0
M  V30 597 H 55.2328 -5.0886 -3.18091 0
M  V30 598 H 56.3028 -4.45352 -1.91806 0
M  V30 599 N 57.6459 0.756429 -1.3826 0
M  V30 600 C 58.8929 1.51547 -1.34312 0
M  V30 601 C 59.2209 1.94382 0.0677144 0
M  V30 602 O 58.4759 1.65514 1.04421 0
M  V30 603 C 58.7749 2.78313 -2.24224 0
M  V30 604 C 58.4409 2.54455 -3.72241 0
M  V30 605 C 57.1029 2.47657 -4.12576 0
M  V30 606 C 59.4549 2.3354 -4.65949 0
M  V30 607 C 56.7829 2.17956 -5.44713 0
M  V30 608 C 59.1349 2.05359 -5.9834 0
M  V30 609 C 57.7989 1.97016 -6.37762 0
M  V30 610 H 57.0689 0.55455 -0.491482 0
M  V30 611 H 59.7159 0.870039 -1.70595 0
M  V30 612 H 58.0209 3.47492 -1.80987 0
M  V30 613 H 59.7179 3.36259 -2.18474 0
M  V30 614 H 56.3079 2.60616 -3.40261 0
M  V30 615 H 60.4919 2.37772 -4.35635 0
M  V30 616 H 55.7479 2.10003 -5.74203 0
M  V30 617 H 59.9219 1.88179 -6.70494 0
M  V30 618 H 57.5489 1.73766 -7.40074 0
M  V30 619 N 59.124 1.23083 0.984299 0
M  V30 620 C 60.354 1.08556 1.75781 0
M  V30 621 C 60.762 -0.366171 1.85623 0
M  V30 622 O 60.105 -1.26524 1.33182 0
M  V30 623 C 60.167 1.63208 3.20318 0
M  V30 624 C 59.831 3.11922 3.33997 0
M  V30 625 C 60.828 4.09259 3.2063 0
M  V30 626 C 58.513 3.51552 3.58771 0
M  V30 627 C 60.507 5.4421 3.31835 0
M  V30 628 C 58.194 4.86649 3.69616 0
M  V30 629 C 59.192 5.82787 3.56157 0
M  V30 630 O 58.88 7.15431 3.66626 0
M  V30 631 H 58.612 0.380713 0.5586 0
M  V30 632 H 61.166 1.63321 1.2456 0
M  V30 633 H 59.396 1.0286 3.72769 0
M  V30 634 H 61.085 1.44216 3.79416 0
M  V30 635 H 61.851 3.79984 3.01392 0
M  V30 636 H 57.73 2.77239 3.6832 0
M  V30 637 H 61.274 6.1923 3.21247 0
M  V30 638 H 57.171 5.15601 3.88363 0
M  V30 639 H 57.939 7.23127 3.83445 0
M  V30 640 N 60.6021 -1.18246 1.0419 0
M  V30 641 C 61.5341 -2.2142 0.592088 0
M  V30 642 C 62.5471 -1.59233 -0.338909 0
M  V30 643 O 63.7361 -1.78002 -0.133231 0
M  V30 644 C 60.8361 -3.38546 -0.154854 0
M  V30 645 C 60.0091 -4.3031 0.784328 0
M  V30 646 C 59.0681 -5.26138 0.0804583 0
M  V30 647 O 58.0941 -5.64738 0.711292 0
M  V30 648 N 59.2961 -5.68261 -1.18574 0
M  V30 649 H 62.0611 -2.60636 1.47949 0
M  V30 650 H 59.6221 -1.33044 0.922544 0
M  V30 651 H 61.6141 -3.99678 -0.635606 0
M  V30 652 H 60.1841 -2.98012 -0.943811 0
M  V30 653 H 59.4041 -3.66764 1.44491 0
M  V30 654 H 60.6921 -4.8852 1.42218 0
M  V30 655 H 60.0901 -5.38957 -1.71876 0
M  V30 656 H 58.6471 -6.31584 -1.61074 0
M  V30 657 N 62.0802 -0.821533 -1.34494 0
M  V30 658 C 63.3052 -0.420873 -2.03085 0
M  V30 659 C 63.7302 0.964915 -1.61465 0
M  V30 660 O 63.0882 1.62763 -0.798607 0
M  V30 661 C 63.1362 -0.529414 -3.56693 0
M  V30 662 O 62.2402 0.451302 -4.09923 0
M  V30 663 H 61.5812 -0.173489 -0.640935 0
M  V30 664 H 64.1112 -1.11157 -1.71771 0
M  V30 665 H 64.1212 -0.404671 -4.05988 0
M  V30 666 H 62.7962 -1.54014 -3.86332 0
M  V30 667 H 61.3732 0.285558 -3.71805 0
M  V30 668 N 63.5583 1.46682 -0.576371 0
M  V30 669 C 64.7833 2.07304 -0.0630475 0
M  V30 670 C 65.2083 1.42329 1.2298 0
M  V30 671 O 64.5663 0.504865 1.74129 0
M  V30 672 C 64.6143 3.60472 0.095895 0
M  V30 673 O 63.7183 3.95927 1.15394 0
M  V30 674 H 63.0593 0.661288 -0.0599463 0
M  V30 675 H 65.5893 1.88417 -0.797511 0
M  V30 676 H 65.5993 4.06865 0.304071 0
M  V30 677 H 64.2743 4.07157 -0.84828 0
M  V30 678 H 62.8513 3.61252 0.924724 0
M  V30 679 N 65.0364 0.313813 1.54444 0
M  V30 680 C 65.9664 -0.549454 2.26943 0
M  V30 681 C 66.9474 -1.12741 1.27372 0
M  V30 682 O 68.1324 -1.15436 1.56167 0
M  V30 683 C 65.2624 -1.71523 3.01989 0
M  V30 684 C 64.2164 -1.26703 4.08816 0
M  V30 685 C 63.5424 -2.51898 4.71647 0
M  V30 686 C 64.8424 -0.388962 5.2085 0
M  V30 687 H 66.5364 0.0552661 2.99349 0
M  V30 688 H 64.0824 0.0280207 1.43973 0
M  V30 689 H 66.0354 -2.32535 3.51433 0
M  V30 690 H 64.7594 -2.34639 2.27183 0
M  V30 691 H 63.4184 -0.679896 3.6024 0
M  V30 692 H 63.0664 -3.13356 3.93468 0
M  V30 693 H 62.7664 -2.22605 5.43802 0
M  V30 694 H 64.2904 -3.1369 5.23861 0
M  V30 695 H 65.7044 -0.905107 5.6611 0
M  V30 696 H 64.1014 -0.18924 5.99802 0
M  V30 697 H 65.1714 0.582699 4.81386 0
M  V30 698 N 66.5145 -1.57545 0.0417849 0
M  V30 699 C 67.4775 -2.09885 -0.92093 0
M  V30 700 C 68.4775 -1.01648 -1.24596 0
M  V30 701 O 69.6675 -1.27759 -1.1842 0
M  V30 702 C 66.7995 -2.57527 -2.23367 0
M  V30 703 H 67.9925 -2.96236 -0.467382 0
M  V30 704 H 65.5455 -1.5493 -0.206467 0
M  V30 705 H 66.2805 -1.74542 -2.73323 0
M  V30 706 H 66.0655 -3.36613 -2.01083 0
M  V30 707 H 67.5555 -2.98201 -2.92346 0
M  V30 708 N 67.9926 0.231505 -1.5589 0
M  V30 709 C 69.2176 0.978689 -1.82856 0
M  V30 710 C 69.6426 1.77559 -0.620846 0
M  V30 711 O 69.0006 1.76119 0.430305 0
M  V30 712 C 69.0486 1.87997 -3.07716 0
M  V30 713 O 68.1526 2.97393 -2.85712 0
M  V30 714 H 67.4936 0.277663 -0.603158 0
M  V30 715 H 70.0236 0.24783 -2.03093 0
M  V30 716 H 70.0336 2.2917 -3.37558 0
M  V30 717 H 68.7086 1.29417 -3.95252 0
M  V30 718 H 67.2856 2.60238 -2.67078 0
M  V30 719 N 69.4707 1.49531 0.497807 0
M  V30 720 C 70.7167 1.60388 1.25089 0
M  V30 721 C 71.0717 0.288328 1.90227 0
M  V30 722 O 70.3647 -0.711706 1.77891 0
M  V30 723 C 70.5587 2.70252 2.33878 0
M  V30 724 C 70.3877 4.12363 1.79408 0
M  V30 725 C 69.1577 4.7911 1.60566 0
M  V30 726 C 71.3557 4.97491 1.30412 0
M  V30 727 N 69.3377 6.05525 1.01059 0
M  V30 728 C 70.7087 6.14411 0.830595 0
M  V30 729 C 72.7637 4.83466 1.19015 0
M  V30 730 C 71.4667 7.1885 0.254371 0
M  V30 731 C 73.4927 5.88057 0.627892 0
M  V30 732 C 72.8547 7.04208 0.16461 0
M  V30 733 H 68.9537 0.641246 0.447579 0
M  V30 734 H 71.5377 1.86549 0.557441 0
M  V30 735 H 69.7087 2.45858 3.0068 0
M  V30 736 H 71.4407 2.70613 3.00917 0
M  V30 737 H 68.1957 4.35961 1.85026 0
M  V30 738 H 68.6197 6.73028 0.732236 0
M  V30 739 H 73.2617 3.93978 1.53431 0
M  V30 740 H 70.9797 8.08036 -0.102052 0
M  V30 741 H 74.5657 5.79266 0.542444 0
M  V30 742 H 73.4457 7.83757 -0.263669 0
M  V30 743 N 70.9488 -0.749086 1.3866 0
M  V30 744 C 71.8968 -1.88428 1.36373 0
M  V30 745 C 72.8908 -1.67561 0.248929 0
M  V30 746 O 74.0968 -1.75074 0.41821 0
M  V30 747 H 70.4718 -0.620023 0.42553 0
M  V30 748 H 72.4428 -1.87473 2.32156 0
M  V30 749 C 71.1918 -3.25961 1.21014 0
M  V30 750 H 70.5148 -3.42607 2.06059 0
M  V30 751 H 71.9548 -4.05625 1.23469 0
M  V30 752 C 70.4138 -3.36799 -0.0825941 0
M  V30 753 O 70.9438 -3.87517 -1.05797 0
M  V30 754 N 69.1498 -2.90258 -0.140939 0
M  V30 755 H 68.6968 -2.49174 0.653477 0
M  V30 756 H 68.6548 -2.97889 -1.00545 0
M  V30 757 N 72.4269 -1.23603 -0.977757 0
M  V30 758 C 73.6569 -1.09487 -1.75203 0
M  V30 759 C 74.0649 0.356321 -1.85814 0
M  V30 760 O 73.4079 1.25816 -1.33851 0
M  V30 761 C 73.4699 -1.64905 -3.19447 0
M  V30 762 C 73.1339 -3.13688 -3.32338 0
M  V30 763 C 74.1309 -4.10953 -3.18455 0
M  V30 764 C 71.8159 -3.53449 -3.56902 0
M  V30 765 C 73.8099 -5.45962 -3.28944 0
M  V30 766 C 71.4969 -4.88602 -3.6703 0
M  V30 767 C 72.4949 -5.84668 -3.53062 0
M  V30 768 O 72.1829 -7.17365 -3.62826 0
M  V30 769 H 71.9149 -0.38367 -0.556573 0
M  V30 770 H 74.4689 -1.6398 -1.23693 0
M  V30 771 H 72.6989 -1.04835 -3.72218 0
M  V30 772 H 74.3879 -1.46226 -3.78646 0
M  V30 773 H 75.1539 -3.81577 -2.99372 0
M  V30 774 H 71.0329 -2.79188 -3.66844 0
M  V30 775 H 74.5769 -6.20925 -3.17958 0
M  V30 776 H 70.4739 -5.17653 -3.85623 0
M  V30 777 H 71.2419 -7.2515 -3.79605 0
M  V30 778 N 73.905 1.17692 -1.04816 0
M  V30 779 C 74.853 2.23632 -0.63966 0
M  V30 780 C 75.847 1.6601 0.337219 0
M  V30 781 O 77.053 1.78844 0.203693 0
M  V30 782 H 73.428 0.727949 -0.188665 0
M  V30 783 H 75.399 2.55387 -1.54337 0
M  V30 784 C 74.148 3.4769 -0.0264051 0
M  V30 785 H 73.471 3.92331 -0.769164 0
M  V30 786 H 74.911 4.23418 0.222098 0
M  V30 787 C 73.37 3.13807 1.22584 0
M  V30 788 O 73.9 3.28236 2.31569 0
M  V30 789 N 72.106 2.68065 1.12202 0
M  V30 790 H 71.653 2.56525 0.235133 0
M  V30 791 H 71.611 2.45767 1.96076 0
M  V30 792 N 75.3831 0.828654 1.34056 0
M  V30 793 C 76.6111 0.43262 2.02326 0
M  V30 794 C 77.0261 -0.963147 1.62385 0
M  V30 795 O 76.3831 -1.62425 0.832121 0
M  V30 796 C 76.4341 0.53182 3.57567 0
M  V30 797 O 76.1551 1.87258 3.96063 0
M  V30 798 C 77.6561 0.131422 4.43105 0
M  V30 799 H 74.8761 0.172923 0.648335 0
M  V30 800 H 77.4201 1.1184 1.71208 0
M  V30 801 H 75.5751 -0.105938 3.87255 0
M  V30 802 H 75.9891 1.85087 4.90758 0
M  V30 803 H 77.4631 0.251904 5.51425 0
M  V30 804 H 77.9401 -0.925645 4.29335 0
M  V30 805 H 78.5461 0.743207 4.18756 0
M  V30 806 N 76.8612 -1.46375 0.584142 0
M  V30 807 C 77.8092 -2.32042 -0.161047 0
M  V30 808 C 78.8032 -1.44569 -0.882966 0
M  V30 809 O 80.0092 -1.61186 -0.801191 0
M  V30 810 H 76.3842 -0.748659 -0.0708033 0
M  V30 811 H 78.3552 -2.92704 0.580269 0
M  V30 812 C 77.1042 -3.27762 -1.1605 0
M  V30 813 H 76.4272 -3.95051 -0.614419 0
M  V30 814 H 77.8672 -3.90481 -1.65228 0
M  V30 815 C 76.3262 -2.53218 -2.22221 0
M  V30 816 O 76.8562 -2.29628 -3.29597 0
M  V30 817 N 75.0622 -2.13756 -1.96868 0
M  V30 818 H 74.6092 -2.33142 -1.09557 0
M  V30 819 H 74.5672 -1.642 -2.68115 0
M  V30 820 N 78.3393 -0.321999 -1.54275 0
M  V30 821 C 79.5883 0.281931 -1.9972 0
M  V30 822 C 79.9013 1.53369 -1.21397 0
M  V30 823 O 81.1073 2.21352 -1.57211 0
M  V30 824 C 79.5633 0.5529 -3.55628 0
M  V30 825 C 79.1713 -0.681721 -4.42783 0
M  V30 826 C 80.9153 1.11687 -4.09544 0
M  V30 827 C 78.8223 -0.382742 -5.9016 0
M  V30 828 H 77.7523 0.109124 -0.746062 0
M  V30 829 H 80.4033 -0.43398 -1.78294 0
M  V30 830 H 78.7853 1.32896 -3.73035 0
M  V30 831 H 79.9593 -1.45723 -4.37151 0
M  V30 832 H 78.2743 -1.1658 -3.99748 0
M  V30 833 H 80.8713 1.35515 -5.17242 0
M  V30 834 H 81.2143 2.06575 -3.61431 0
M  V30 835 H 81.7473 0.402032 -3.95763 0
M  V30 836 H 78.4863 -1.30076 -6.42464 0
M  V30 837 H 78.0063 0.355094 -5.98748 0
M  V30 838 H 79.6853 0.00800157 -6.47 0
M  V30 839 N 79.8174 1.5752 -0.0501392 0
M  V30 840 C 81.0454 1.96963 0.633492 0
M  V30 841 C 81.4604 0.927631 1.6444 0
M  V30 842 O 80.8174 -0.0882665 1.82286 0
M  V30 843 C 80.8684 3.36487 1.32132 0
M  V30 844 O 80.5894 4.36693 0.350894 0
M  V30 845 C 82.0904 3.90682 2.09481 0
M  V30 846 H 79.3104 0.648244 0.173266 0
M  V30 847 H 81.8544 2.0417 -0.116134 0
M  V30 848 H 80.0094 3.30434 2.02218 0
M  V30 849 H 80.4234 5.17702 0.841735 0
M  V30 850 H 81.8974 4.90591 2.5303 0
M  V30 851 H 82.3744 3.26053 2.94255 0
M  V30 852 H 82.9804 4.00069 1.44307 0
M  V30 853 N 81.2955 -0.223234 1.56011 0
M  V30 854 C 82.2055 -1.29766 1.95443 0
M  V30 855 C 83.2215 -1.51373 0.858028 0
M  V30 856 O 84.3975 -1.64536 1.16146 0
M  V30 857 C 81.4625 -2.62772 2.26167 0
M  V30 858 C 80.5235 -2.49482 3.49367 0
M  V30 859 C 79.7565 -3.76145 3.78616 0
M  V30 860 O 79.9795 -4.79087 3.09568 0
M  V30 861 O 78.9135 -3.73358 4.72109 0
M  V30 862 H 82.7395 -0.99309 2.87004 0
M  V30 863 H 80.3245 -0.425958 1.43199 0
M  V30 864 H 82.2065 -3.41327 2.47131 0
M  V30 865 H 80.8815 -2.92913 1.37781 0
M  V30 866 H 79.7885 -1.69133 3.33684 0
M  V30 867 H 81.1215 -2.2428 4.38131 0
M  V30 868 N 82.7736 -1.49793 -0.48987 0
M  V30 869 C 83.6836 -1.70036 -1.61632 0
M  V30 870 C 84.6996 -0.583102 -1.63939 0
M  V30 871 O 85.8756 -0.859169 -1.82154 0
M  V30 872 C 82.9406 -1.77277 -2.97949 0
M  V30 873 C 82.0016 -3.00918 -3.06181 0
M  V30 874 C 81.2346 -3.07804 -4.35996 0
M  V30 875 O 81.4576 -2.21982 -5.25433 0
M  V30 876 O 80.3916 -4.00369 -4.49431 0
M  V30 877 H 84.2176 -2.65486 -1.47482 0
M  V30 878 H 81.8026 -1.33666 -0.667362 0
M  V30 879 H 83.6846 -1.84329 -3.78947 0
M  V30 880 H 82.3596 -0.850076 -3.12339 0
M  V30 881 H 81.2666 -2.99377 -2.2433 0
M  V30 882 H 82.5996 -3.92704 -2.96723 0
M  V30 883 N 84.2517 0.741722 -1.39055 0
M  V30 884 C 85.1997 1.87702 -1.3737 0
M  V30 885 C 86.1937 1.67427 -0.257812 0
M  V30 886 O 87.3997 1.7485 -0.427489 0
M  V30 887 H 83.7747 0.617757 -0.428812 0
M  V30 888 H 85.7457 1.86239 -2.33147 0
M  V30 889 C 84.4947 3.25315 -1.22741 0
M  V30 890 H 83.8177 3.41509 -2.07873 0
M  V30 891 H 85.2577 4.04964 -1.25618 0
M  V30 892 C 83.7167 3.36838 0.0647316 0
M  V30 893 O 84.2467 3.88073 1.03741 0
M  V30 894 N 82.4527 2.90329 0.125544 0
M  V30 895 H 81.9997 2.48823 -0.666682 0
M  V30 896 H 81.9577 2.98418 0.989639 0
M  V30 897 N 85.7298 1.2412 0.971189 0
M  V30 898 C 86.9758 1.08041 1.71625 0
M  V30 899 C 87.3088 -0.380407 1.90438 0
M  V30 900 O 86.5838 -1.28127 1.46334 0
M  V30 901 C 86.8668 1.81682 3.10908 0
M  V30 902 C 86.7198 3.35493 2.99608 0
M  V30 903 C 88.0388 1.58671 4.10501 0
M  V30 904 H 85.1578 0.39388 0.622919 0
M  V30 905 H 87.7998 1.52743 1.13003 0
M  V30 906 H 85.9498 1.43684 3.60953 0
M  V30 907 H 87.6218 3.83068 2.57015 0
M  V30 908 H 85.8648 3.64052 2.35899 0
M  V30 909 H 86.5358 3.82217 3.98264 0
M  V30 910 H 89.0118 1.91719 3.69301 0
M  V30 911 H 87.8878 2.1266 5.06031 0
M  V30 912 H 88.1488 0.524161 4.38982 0
M  V30 913 N 87.2079 -1.17134 1.05439 0
M  V30 914 C 88.1399 -2.2078 0.615539 0
M  V30 915 C 89.1529 -1.59584 -0.322001 0
M  V30 916 O 90.3419 -1.78133 -0.114344 0
M  V30 917 C 87.4419 -3.38691 -0.118938 0
M  V30 918 C 86.6149 -4.29454 0.829924 0
M  V30 919 C 85.6739 -5.26024 0.136258 0
M  V30 920 O 84.6999 -5.63952 0.77115 0
M  V30 921 N 85.9019 -5.69487 -1.1254 0
M  V30 922 H 88.6669 -2.59052 1.50705 0
M  V30 923 H 86.2279 -1.32058 0.936603 0
M  V30 924 H 88.2199 -4.00329 -0.593179 0
M  V30 925 H 86.7899 -2.98996 -0.91215 0
M  V30 926 H 86.0099 -3.65211 1.48373 0
M  V30 927 H 87.2979 -4.86984 1.47392 0
M  V30 928 H 86.6959 -5.4075 -1.6615 0
M  V30 929 H 85.2529 -6.33257 -1.54366 0
M  V30 930 N 88.686 -0.835752 -1.33615 0
M  V30 931 C 89.634 -0.255238 -2.31195 0
M  V30 932 C 90.628 0.61107 -1.57995 0
M  V30 933 O 91.834 0.500979 -1.72888 0
M  V30 934 H 88.209 -0.0638085 -0.749288 0
M  V30 935 H 90.18 -1.09283 -2.77669 0
M  V30 936 C 88.929 0.55754 -3.43201 0
M  V30 937 H 88.252 -0.0997553 -3.99676 0
M  V30 938 H 89.692 0.929622 -4.13683 0
M  V30 939 C 88.151 1.73515 -2.88781 0
M  V30 940 O 88.681 2.83376 -2.84712 0
M  V30 941 N 86.887 1.55603 -2.4543 0
M  V30 942 H 86.434 0.662354 -2.48939 0
M  V30 943 H 86.392 2.34545 -2.09371 0
M  V30 944 N 90.1641 1.46063 -0.591896 0
M  V30 945 C 91.0971 2.27452 0.184617 0
M  V30 946 C 92.0751 1.36188 0.888351 0
M  V30 947 O 93.2591 1.65606 0.90039 0
M  V30 948 C 90.3861 3.14162 1.26571 0
M  V30 949 C 89.4321 4.21255 0.666814 0
M  V30 950 S 90.2651 5.33034 -0.513345 0
M  V30 951 C 91.4211 6.23311 0.56872 0
M  V30 952 H 91.6541 2.92963 -0.505939 0
M  V30 953 H 89.1871 1.49676 -0.379014 0
M  V30 954 H 91.1451 3.6468 1.88463 0
M  V30 955 H 89.8061 2.47946 1.92826 0
M  V30 956 H 88.9991 4.81788 1.47974 0
M  V30 957 H 88.6011 3.73797 0.123359 0
M  V30 958 H 90.8931 6.61758 1.45198 0
M  V30 959 H 91.8361 7.081 -7.23824e-05 0
M  V30 960 H 92.2441 5.57646 0.876996 0
M  V30 961 N 91.6422 0.330177 1.54103 0
M  V30 962 C 92.5902 -0.548226 2.26047 0
M  V30 963 C 93.5842 -1.11309 1.27698 0
M  V30 964 O 94.7902 -1.06036 1.45452 0
M  V30 965 H 91.1652 -0.195456 0.726155 0
M  V30 966 H 93.1362 0.0807567 2.98291 0
M  V30 967 C 91.8852 -1.69415 3.03634 0
M  V30 968 H 91.2082 -1.26876 3.79134 0
M  V30 969 H 92.6482 -2.28423 3.5721 0
M  V30 970 C 91.1072 -2.61569 2.12328 0
M  V30 971 O 91.6372 -3.63462 1.7105 0
M  V30 972 N 89.8432 -2.29952 1.77681 0
M  V30 973 H 89.3902 -1.47134 2.11446 0
M  V30 974 H 89.3482 -2.91871 1.16869 0
M  V30 975 N 93.1203 -1.57491 0.0584922 0
M  V30 976 C 94.0683 -2.13148 -0.931168 0
M  V30 977 C 95.0623 -1.06507 -1.31729 0
M  V30 978 O 96.2683 -1.24906 -1.29609 0
M  V30 979 H 92.6433 -0.68137 -0.31818 0
M  V30 980 H 94.6143 -2.95187 -0.436707 0
M  V30 981 C 93.3633 -2.69732 -2.19408 0
M  V30 982 H 92.6863 -3.51454 -1.90578 0
M  V30 983 H 94.1263 -3.12287 -2.86798 0
M  V30 984 C 92.5853 -1.63855 -2.94369 0
M  V30 985 O 93.1153 -1.05565 -3.87581 0
M  V30 986 N 91.3213 -1.35202 -2.57233 0
M  V30 987 H 90.8683 -1.82791 -1.81508 0
M  V30 988 H 90.8263 -0.645922 -3.07693 0
M  V30 989 N 94.5984 0.214957 -1.56127 0
M  V30 990 C 95.5614 1.24997 -1.92116 0
M  V30 991 C 96.5614 1.39467 -0.800344 0
M  V30 992 O 97.7514 1.37619 -1.06802 0
M  V30 993 C 94.8834 2.62271 -2.17777 0
M  V30 994 H 96.0764 0.942875 -2.84693 0
M  V30 995 H 93.6294 0.455654 -1.49511 0
M  V30 996 H 94.3644 2.98068 -1.27773 0
M  V30 997 H 94.1494 2.53143 -2.99434 0
M  V30 998 H 95.6394 3.36946 -2.46693 0
M  V30 999 N 96.0765 1.50051 0.48192 0
M  V30 1000 C 97.3245 1.60181 1.23234 0
M  V30 1001 C 97.6455 0.299176 1.92691 0
M  V30 1002 O 96.9155 -0.682708 1.83619 0
M  V30 1003 H 95.4955 0.590232 0.457859 0
M  V30 1004 H 98.1575 1.86775 0.556881 0
M  V30 1005 H 97.2535 2.40753 1.98607 0
M  V30 1006 N 97.5546 -0.734337 1.39446 0
M  V30 1007 C 98.8316 -1.48579 1.27215 0
M  V30 1008 C 99.2116 -2.1077 -0.117968 0
M  V30 1009 O 98.5596 -1.98646 -1.12924 0
M  V30 1010 C 98.7696 -2.53667 2.39696 0
M  V30 1011 C 100.118 -3.20031 2.79044 0
M  V30 1012 O 101.142 -2.6398 2.39151 0
M  V30 1013 O 100.001 -4.21455 3.47905 0
M  V30 1014 H 97.0946 -0.659816 0.49857 0
M  V30 1015 H 99.6406 -0.768106 1.51322 0
M  V30 1016 H 98.4126 -2.06096 3.32626 0
M  V30 1017 H 98.0356 -3.32994 2.17258 0
M  V30 1018 N 99.0327 -1.24633 -0.964593 0
M  V30 1019 C 99.9797 -1.04144 -2.05968 0
M  V30 1020 C 100.95 0.046262 -1.66036 0
M  V30 1021 O 102.135 -0.108972 -1.90489 0
M  V30 1022 C 99.2747 -0.65563 -3.38815 0
M  V30 1023 C 98.3877 -1.81714 -3.91923 0
M  V30 1024 C 97.5227 -1.37662 -5.13052 0
M  V30 1025 C 96.5617 -2.50788 -5.58365 0
M  V30 1026 N 95.6987 -2.07582 -6.70712 0
M  V30 1027 H 100.539 -1.9787 -2.22827 0
M  V30 1028 H 98.0757 -0.9855 -1.09208 0
M  V30 1029 H 100.034 -0.412954 -4.15151 0
M  V30 1030 H 98.6637 0.244627 -3.21872 0
M  V30 1031 H 97.7157 -2.1734 -3.12198 0
M  V30 1032 H 99.0277 -2.66705 -4.21509 0
M  V30 1033 H 98.1817 -1.093 -5.96773 0
M  V30 1034 H 96.9207 -0.497293 -4.85158 0
M  V30 1035 H 95.9257 -2.79906 -4.73215 0
M  V30 1036 H 97.1507 -3.39283 -5.88272 0
M  V30 1037 H 95.0967 -1.22051 -6.44546 0
M  V30 1038 H 95.0137 -2.86125 -6.99763 0
M  V30 1039 H 96.2817 -1.82369 -7.57867 0
M  V30 1040 N 100.511 1.16574 -1.06058 0
M  V30 1041 C 101.757 1.87565 -0.78683 0
M  V30 1042 C 102.112 1.80012 0.679214 0
M  V30 1043 O 101.405 1.20327 1.49104 0
M  V30 1044 C 101.599 3.36195 -1.21275 0
M  V30 1045 C 101.428 3.58216 -2.71866 0
M  V30 1046 C 100.198 3.7444 -3.39298 0
M  V30 1047 C 102.396 3.57134 -3.70081 0
M  V30 1048 N 100.378 3.84389 -4.78663 0
M  V30 1049 C 101.749 3.73038 -4.9522 0
M  V30 1050 C 103.804 3.40332 -3.63426 0
M  V30 1051 C 102.507 3.73879 -6.14497 0
M  V30 1052 C 104.533 3.42466 -4.82153 0
M  V30 1053 C 103.895 3.58887 -6.06118 0
M  V30 1054 H 99.9938 0.704081 -0.340284 0
M  V30 1055 H 102.578 1.39885 -1.35426 0
M  V30 1056 H 100.749 3.82522 -0.673179 0
M  V30 1057 H 102.481 3.94839 -0.887917 0
M  V30 1058 H 99.2358 3.74662 -2.89699 0
M  V30 1059 H 99.6598 3.93138 -5.51155 0
M  V30 1060 H 104.302 3.26566 -2.68541 0
M  V30 1061 H 102.02 3.86427 -7.09718 0
M  V30 1062 H 105.606 3.30712 -4.78666 0
M  V30 1063 H 104.486 3.60454 -6.9645 0
M  V30 1064 N 101.989 0.842826 1.3317 0
M  V30 1065 C 103.214 0.453129 2.02389 0
M  V30 1066 C 103.639 -0.939105 1.6298 0
M  V30 1067 O 102.997 -1.61472 0.8244 0
M  V30 1068 C 103.045 0.586094 3.55805 0
M  V30 1069 O 102.149 -0.386029 4.10589 0
M  V30 1070 H 101.49 0.183664 0.638094 0
M  V30 1071 H 104.02 1.13875 1.69981 0
M  V30 1072 H 104.03 0.469209 4.05293 0
M  V30 1073 H 102.705 1.6014 3.83833 0
M  V30 1074 H 101.282 -0.226371 3.72212 0
M  V30 1075 N 103.467 -1.45747 0.599634 0
M  V30 1076 C 104.43 -2.28917 -0.113835 0
M  V30 1077 C 105.43 -1.3933 -0.802729 0
M  V30 1078 O 106.62 -1.61534 -0.652103 0
M  V30 1079 C 103.752 -3.20152 -1.17114 0
M  V30 1080 H 104.945 -2.93478 0.617289 0
M  V30 1081 H 102.498 -1.52137 0.358327 0
M  V30 1082 H 103.233 -2.60374 -1.93329 0
M  V30 1083 H 103.018 -3.86133 -0.681468 0
M  V30 1084 H 104.508 -3.82708 -1.67105 0
M  V30 1085 N 104.945 -0.338344 -1.53925 0
M  V30 1086 C 106.192 0.259758 -2.00827 0
M  V30 1087 C 106.52 1.50973 -1.22628 0
M  V30 1088 O 105.775 1.93379 -0.300509 0
M  V30 1089 C 106.074 0.62448 -3.51902 0
M  V30 1090 C 105.74 -0.528006 -4.47798 0
M  V30 1091 C 104.402 -0.844298 -4.73735 0
M  V30 1092 C 106.754 -1.30143 -5.0469 0
M  V30 1093 C 104.082 -1.93648 -5.53821 0
M  V30 1094 C 106.434 -2.38382 -5.85967 0
M  V30 1095 C 105.098 -2.70576 -6.10201 0
M  V30 1096 H 104.368 0.0950523 -0.734878 0
M  V30 1097 H 107.015 -0.465182 -1.85764 0
M  V30 1098 H 105.32 1.43006 -3.64769 0
M  V30 1099 H 107.017 1.09905 -3.85645 0
M  V30 1100 H 103.607 -0.271421 -4.2774 0
M  V30 1101 H 107.791 -1.07033 -4.84621 0
M  V30 1102 H 103.047 -2.19021 -5.70824 0
M  V30 1103 H 107.221 -2.98746 -6.29066 0
M  V30 1104 H 104.848 -3.55333 -6.72044 0
M  V30 1105 N 106.423 1.57458 -0.0668435 0
M  V30 1106 C 107.353 2.15468 0.899764 0
M  V30 1107 C 108.334 1.08042 1.31381 0
M  V30 1108 O 109.519 1.36054 1.38574 0
M  V30 1109 C 106.649 2.71232 2.16911 0
M  V30 1110 C 105.603 3.83781 1.89463 0
M  V30 1111 C 104.929 4.26127 3.22986 0
M  V30 1112 C 106.229 5.08238 1.20381 0
M  V30 1113 H 107.923 2.96488 0.416529 0
M  V30 1114 H 105.469 1.4262 0.198908 0
M  V30 1115 H 107.422 3.10458 2.84945 0
M  V30 1116 H 106.146 1.87426 2.67468 0
M  V30 1117 H 104.805 3.45051 1.23836 0
M  V30 1118 H 104.453 3.39249 3.71374 0
M  V30 1119 H 104.153 5.01993 3.05413 0
M  V30 1120 H 105.677 4.67966 3.92225 0
M  V30 1121 H 107.091 5.44811 1.78475 0
M  V30 1122 H 105.488 5.89349 1.13083 0
M  V30 1123 H 106.558 4.84558 0.182153 0
M  V30 1124 N 107.901 -0.206675 1.56239 0
M  V30 1125 C 108.848 -1.25617 1.93621 0
M  V30 1126 C 109.818 -1.45824 0.795274 0
M  V30 1127 O 111.003 -1.59148 1.05245 0
M  V30 1128 C 108.143 -2.59839 2.27107 0
M  V30 1129 C 107.256 -2.47308 3.54207 0
M  V30 1130 C 106.391 -3.74155 3.7707 0
M  V30 1131 C 105.43 -3.56407 4.97635 0
M  V30 1132 N 104.567 -4.75238 5.1681 0
M  V30 1133 H 109.407 -0.930383 2.83104 0
M  V30 1134 H 106.944 -0.448065 1.4011 0
M  V30 1135 H 108.902 -3.38021 2.44535 0
M  V30 1136 H 107.532 -2.90485 1.40778 0
M  V30 1137 H 106.584 -1.60483 3.4489 0
M  V30 1138 H 107.896 -2.30122 4.42544 0
M  V30 1139 H 107.05 -4.60778 3.94675 0
M  V30 1140 H 105.789 -3.94282 2.87042 0
M  V30 1141 H 104.794 -2.68168 4.79964 0
M  V30 1142 H 106.019 -3.37736 5.89161 0
M  V30 1143 H 103.965 -4.95651 4.29728 0
M  V30 1144 H 103.882 -4.60835 5.99306 0
M  V30 1145 H 105.15 -5.63246 5.38864 0
M  V30 1146 N 109.379 -1.50304 -0.473955 0
M  V30 1147 C 110.289 -1.7174 -1.5982 0
M  V30 1148 C 111.305 -0.600457 -1.63311 0
M  V30 1149 O 112.481 -0.878441 -1.81233 0
M  V30 1150 C 109.546 -1.80427 -2.96052 0
M  V30 1151 C 108.607 -3.04148 -3.02972 0
M  V30 1152 C 107.84 -3.12411 -4.32706 0
M  V30 1153 O 108.063 -2.27542 -5.23049 0
M  V30 1154 O 106.997 -4.05113 -4.45159 0
M  V30 1155 H 110.823 -2.67035 -1.44657 0
M  V30 1156 H 108.408 -1.34366 -0.653148 0
M  V30 1157 H 110.29 -1.88338 -3.7697 0
M  V30 1158 H 108.965 -0.883156 -3.11419 0
M  V30 1159 H 107.872 -3.0174 -2.21142 0
M  V30 1160 H 109.205 -3.95829 -2.92541 0
M  V30 1161 N 110.857 0.726932 -1.39834 0
M  V30 1162 C 111.789 1.85147 -1.35104 0
M  V30 1163 C 112.802 1.60736 -0.258392 0
M  V30 1164 O 113.991 1.70821 -0.517931 0
M  V30 1165 C 111.091 3.21332 -1.07697 0
M  V30 1166 C 110.264 3.73033 -2.28396 0
M  V30 1167 C 109.323 4.87802 -1.97322 0
M  V30 1168 O 108.349 5.01043 -2.70083 0
M  V30 1169 N 109.551 5.72768 -0.944273 0
M  V30 1170 H 112.316 1.89706 -2.32017 0
M  V30 1171 H 109.877 0.908006 -1.3404 0
M  V30 1172 H 111.869 3.95691 -0.849144 0
M  V30 1173 H 110.439 3.11992 -0.194909 0
M  V30 1174 H 109.659 2.89934 -2.6708 0
M  V30 1175 H 110.947 4.0431 -3.08887 0
M  V30 1176 H 110.345 5.64669 -0.341427 0
M  V30 1177 H 108.902 6.4716 -0.776346 0
M  V30 1178 N 112.336 1.25143 0.95797 0
M  V30 1179 C 113.561 1.12521 1.74223 0
M  V30 1180 C 113.986 -0.317402 1.85403 0
M  V30 1181 O 113.344 -1.2299 1.33204 0
M  V30 1182 C 113.392 1.78062 3.1357 0
M  V30 1183 O 112.496 1.058 3.98598 0
M  V30 1184 H 111.837 0.39304 0.535178 0
M  V30 1185 H 114.367 1.65641 1.201 0
M  V30 1186 H 114.377 1.84213 3.64046 0
M  V30 1187 H 113.052 2.83021 3.04749 0
M  V30 1188 H 111.629 1.07506 3.57067 0
M  V30 1189 N 113.814 -1.1601 1.06675 0
M  V30 1190 C 115.042 -1.90527 0.806667 0
M  V30 1191 C 115.457 -1.77643 -0.639396 0
M  V30 1192 O 114.814 -1.12369 -1.43803 0
M  V30 1193 C 114.865 -3.41106 1.19705 0
M  V30 1194 O 114.586 -3.53608 2.58636 0
M  V30 1195 C 116.087 -4.32663 0.965266 0
M  V30 1196 H 113.307 -0.604053 0.292166 0
M  V30 1197 H 115.851 -1.47026 1.4214 0
M  V30 1198 H 114.006 -3.82296 0.626774 0
M  V30 1199 H 114.42 -4.47011 2.74375 0
M  V30 1200 H 115.894 -5.36763 1.288 0
M  V30 1201 H 116.371 -4.39089 -0.0987936 0
M  V30 1202 H 116.977 -3.97206 1.52011 0
M  V30 1203 N 115.292 -0.849877 -1.32721 0
M  V30 1204 C 116.222 -0.306308 -2.31482 0
M  V30 1205 C 117.203 0.591952 -1.59468 0
M  V30 1206 O 118.388 0.513199 -1.87296 0
M  V30 1207 C 115.518 0.510204 -3.43532 0
M  V30 1208 C 114.472 -0.293209 -4.26994 0
M  V30 1209 C 113.798 0.647743 -5.30762 0
M  V30 1210 C 115.098 -1.51634 -4.99804 0
M  V30 1211 H 116.792 -1.13153 -2.77195 0
M  V30 1212 H 114.338 -0.545553 -1.33266 0
M  V30 1213 H 116.291 0.900856 -4.11658 0
M  V30 1214 H 115.015 1.36874 -2.96535 0
M  V30 1215 H 113.674 -0.665555 -3.60508 0
M  V30 1216 H 113.322 1.50299 -4.8002 0
M  V30 1217 H 113.022 0.11422 -5.87489 0
M  V30 1218 H 114.546 1.03567 -6.01753 0
M  V30 1219 H 115.96 -1.19824 -5.60638 0
M  V30 1220 H 114.357 -1.98745 -5.66234 0
M  V30 1221 H 115.427 -2.28018 -4.27943 0
M  V30 1222 N 116.77 1.45427 -0.607355 0
M  V30 1223 C 117.733 2.28974 0.101693 0
M  V30 1224 C 118.733 1.39754 0.795329 0
M  V30 1225 O 119.923 1.61878 0.643527 0
M  V30 1226 C 117.055 3.20768 1.15414 0
M  V30 1227 H 118.248 2.93147 -0.632844 0
M  V30 1228 H 115.801 1.51945 -0.366391 0
M  V30 1229 H 116.536 2.61395 1.91945 0
M  V30 1230 H 116.321 3.86489 0.66098 0
M  V30 1231 H 117.811 3.83589 1.65073 0
M  V30 1232 N 118.248 0.346503 1.53744 0
M  V30 1233 C 119.18 -0.543316 2.22667 0
M  V30 1234 C 120.193 -1.06159 1.23427 0
M  V30 1235 O 121.382 -0.971235 1.49764 0
M  V30 1236 C 118.482 -1.76076 2.89569 0
M  V30 1237 C 117.655 -1.37727 4.15151 0
M  V30 1238 C 116.714 -2.45471 4.65436 0
M  V30 1239 O 115.74 -2.08655 5.29577 0
M  V30 1240 N 116.942 -3.7677 4.41616 0
M  V30 1241 H 119.707 0.0469703 2.99663 0
M  V30 1242 H 117.268 0.170766 1.60997 0
M  V30 1243 H 119.26 -2.47593 3.20125 0
M  V30 1244 H 117.83 -2.25835 2.16142 0
M  V30 1245 H 117.05 -0.492746 3.91108 0
M  V30 1246 H 118.338 -1.09708 4.96832 0
M  V30 1247 H 117.736 -4.09467 3.90325 0
M  V30 1248 H 116.293 -4.44448 4.7677 0
M  V30 1249 N 119.726 -1.57421 0.075193 0
M  V30 1250 C 120.659 -2.08528 -0.926904 0
M  V30 1251 C 121.637 -0.991171 -1.28898 0
M  V30 1252 O 122.821 -1.26479 -1.39769 0
M  V30 1253 C 119.948 -2.54576 -2.23402 0
M  V30 1254 C 118.994 -3.75454 -2.02327 0
M  V30 1255 S 119.827 -5.19989 -1.27951 0
M  V30 1256 C 120.983 -5.69372 -2.59935 0
M  V30 1257 H 121.216 -2.932 -0.492048 0
M  V30 1258 H 118.749 -1.53785 -0.137651 0
M  V30 1259 H 120.707 -2.81767 -2.98526 0
M  V30 1260 H 119.368 -1.70166 -2.64012 0
M  V30 1261 H 118.561 -4.05675 -2.99071 0
M  V30 1262 H 118.163 -3.48654 -1.35339 0
M  V30 1263 H 120.455 -5.76424 -3.56008 0
M  V30 1264 H 121.398 -6.68207 -2.34319 0
M  V30 1265 H 121.806 -4.97205 -2.67296 0
M  V30 1266 N 121.204 0.198386 -1.56346 0
M  V30 1267 C 122.434 0.934215 -1.84271 0
M  V30 1268 C 122.842 1.77496 -0.655125 0
M  V30 1269 O 122.185 1.7961 0.385488 0
M  V30 1270 C 122.247 1.88278 -3.06254 0
M  V30 1271 C 121.911 1.22431 -4.40295 0
M  V30 1272 C 122.908 0.602839 -5.16393 0
M  V30 1273 C 120.593 1.22915 -4.87029 0
M  V30 1274 C 122.587 -0.0050083 -6.374 0
M  V30 1275 C 120.274 0.617465 -6.07973 0
M  V30 1276 C 121.272 0.00146341 -6.83 0
M  V30 1277 O 120.96 -0.600642 -8.01653 0
M  V30 1278 H 120.692 0.278245 -0.616081 0
M  V30 1279 H 123.246 0.211626 -2.04307 0
M  V30 1280 H 121.476 2.64498 -2.82095 0
M  V30 1281 H 123.165 2.48612 -3.20853 0
M  V30 1282 H 123.931 0.591265 -4.81382 0
M  V30 1283 H 119.81 1.69801 -4.28589 0
M  V30 1284 H 123.354 -0.48643 -6.95902 0
M  V30 1285 H 119.251 0.62653 -6.42452 0
M  V30 1286 H 120.019 -0.497225 -8.16988 0
M  V30 1287 N 122.682 1.50554 0.465978 0
M  V30 1288 C 124.093 1.54599 1.04671 0
M  V30 1289 C 124.444 0.352488 1.93008 0
M  V30 1290 O 123.569 -0.534044 2.09707 0
M  V30 1291 C 124.164 2.80166 1.90505 0
M  V30 1292 C 122.723 2.86876 2.43678 0
M  V30 1293 C 121.87 2.48947 1.22151 0
M  V30 1294 H 124.821 1.56744 0.248384 0
M  V30 1295 H 124.842 2.62311 2.75633 0
M  V30 1296 H 124.354 3.67013 1.26186 0
M  V30 1297 H 122.455 2.04393 3.11536 0
M  V30 1298 H 122.568 3.89885 2.78436 0
M  V30 1299 H 120.932 2.01498 1.5579 0
M  V30 1300 H 121.715 3.38107 0.594866 0
M  V30 1301 N 124.16 -0.719506 1.40217 0
M  V30 1302 C 125.09 -1.8465 1.42922 0
M  V30 1303 C 126.071 -1.67599 0.29062 0
M  V30 1304 O 127.256 -1.87688 0.498677 0
M  V30 1305 C 124.386 -3.22565 1.28722 0
M  V30 1306 C 123.34 -3.54281 2.40144 0
M  V30 1307 C 122.666 -4.91298 2.11023 0
M  V30 1308 C 123.966 -3.55676 3.82481 0
M  V30 1309 H 125.66 -1.82644 2.37237 0
M  V30 1310 H 123.206 -0.877305 1.1419 0
M  V30 1311 H 125.159 -4.01095 1.29232 0
M  V30 1312 H 123.883 -3.25137 0.308811 0
M  V30 1313 H 122.542 -2.78088 2.38877 0
M  V30 1314 H 122.19 -4.90468 1.11582 0
M  V30 1315 H 121.89 -5.13485 2.8567 0
M  V30 1316 H 123.414 -5.72166 2.13209 0
M  V30 1317 H 124.828 -4.24254 3.85592 0
M  V30 1318 H 123.225 -3.89388 4.56614 0
M  V30 1319 H 124.295 -2.55144 4.12346 0
M  V30 1320 N 125.638 -1.25649 -0.95132 0
M  V30 1321 C 126.57 -1.02112 -2.05197 0
M  V30 1322 C 127.583 0.0150571 -1.62793 0
M  V30 1323 O 128.772 -0.223874 -1.77091 0
M  V30 1324 C 125.872 -0.522361 -3.3485 0
M  V30 1325 C 125.045 -1.62546 -4.06076 0
M  V30 1326 C 124.104 -1.12649 -5.14001 0
M  V30 1327 O 123.13 -1.82156 -5.39266 0
M  V30 1328 N 124.332 0.03047 -5.80492 0
M  V30 1329 H 127.097 -1.96885 -2.25957 0
M  V30 1330 H 124.658 -1.16899 -1.1201 0
M  V30 1331 H 126.65 -0.172961 -4.0433 0
M  V30 1332 H 125.22 0.33151 -3.10837 0
M  V30 1333 H 124.44 -2.14628 -3.30649 0
M  V30 1334 H 125.728 -2.36644 -4.50419 0
M  V30 1335 H 125.126 0.611169 -5.62389 0
M  V30 1336 H 123.683 0.320875 -6.5101 0
M  V30 1337 N 127.117 1.15442 -1.07289 0
M  V30 1338 C 128.027 2.23786 -0.704057 0
M  V30 1339 C 129.043 1.7166 0.284413 0
M  V30 1340 O 130.219 2.00972 0.131205 0
M  V30 1341 C 127.284 3.46535 -0.106792 0
M  V30 1342 C 126.345 4.13654 -1.14842 0
M  V30 1343 C 125.578 5.30544 -0.57956 0
M  V30 1344 O 125.801 5.67187 0.604585 0
M  V30 1345 O 124.735 5.87154 -1.32414 0
M  V30 1346 H 128.561 2.57664 -1.60757 0
M  V30 1347 H 126.146 1.23152 -0.845803 0
M  V30 1348 H 128.028 4.20804 0.224048 0
M  V30 1349 H 126.703 3.14407 0.770049 0
M  V30 1350 H 125.61 3.4131 -1.5316 0
M  V30 1351 H 126.943 4.49861 -1.99714 0
M  V30 1352 N 128.595 0.856903 1.32268 0
M  V30 1353 C 129.844 0.457599 1.96441 0
M  V30 1354 C 130.157 -0.992426 1.68553 0
M  V30 1355 O 131.363 -1.49727 2.26482 0
M  V30 1356 C 129.819 0.767358 3.51624 0
M  V30 1357 C 129.427 2.23326 3.88367 0
M  V30 1358 C 131.171 0.435887 4.22256 0
M  V30 1359 C 129.078 2.48613 5.36606 0
M  V30 1360 H 128.008 0.167387 0.735185 0
M  V30 1361 H 130.659 1.048 1.5063 0
M  V30 1362 H 129.041 0.106367 3.95857 0
M  V30 1363 H 130.215 2.93623 3.55137 0
M  V30 1364 H 128.53 2.52948 3.30766 0
M  V30 1365 H 131.127 0.602202 5.31298 0
M  V30 1366 H 131.47 -0.622672 4.11617 0
M  V30 1367 H 132.003 1.05286 3.83614 0
M  V30 1368 H 128.742 3.53101 5.52268 0
M  V30 1369 H 128.262 1.82896 5.71235 0
M  V30 1370 H 129.941 2.32676 6.03714 0
M  V30 1371 N 130.073 -1.45103 0.615059 0
M  V30 1372 C 131.005 -2.28786 -0.13762 0
M  V30 1373 C 132.018 -1.40376 -0.824525 0
M  V30 1374 O 133.207 -1.64681 -0.688662 0
M  V30 1375 C 130.307 -3.16322 -1.21628 0
M  V30 1376 C 129.48 -4.33054 -0.615039 0
M  V30 1377 C 128.539 -5.01743 -1.58556 0
M  V30 1378 O 127.565 -5.58293 -1.10895 0
M  V30 1379 N 128.767 -5.01714 -2.91998 0
M  V30 1380 H 131.532 -2.94025 0.580483 0
M  V30 1381 H 129.093 -1.55373 0.45507 0
M  V30 1382 H 131.085 -3.59139 -1.86552 0
M  V30 1383 H 129.655 -2.52943 -1.83681 0
M  V30 1384 H 128.875 -3.93627 0.21245 0
M  V30 1385 H 130.163 -5.08431 -0.193704 0
M  V30 1386 H 129.561 -4.57075 -3.33316 0
M  V30 1387 H 128.118 -5.48371 -3.52325 0
M  V30 1388 N 131.551 -0.354651 -1.53558 0
M  V30 1389 C 132.499 0.512195 -2.26891 0
M  V30 1390 C 133.493 1.09263 -1.29452 0
M  V30 1391 O 134.699 1.03709 -1.47121 0
M  V30 1392 H 131.074 0.183878 -0.729173 0
M  V30 1393 H 133.045 -0.128202 -2.98124 0
M  V30 1394 C 131.794 1.64563 -3.06291 0
M  V30 1395 H 131.117 1.20829 -3.81104 0
M  V30 1396 H 132.557 2.22711 -3.60799 0
M  V30 1397 C 131.016 2.58158 -2.16462 0
M  V30 1398 O 131.546 3.60695 -1.76811 0
M  V30 1399 N 129.752 2.27096 -1.81317 0
M  V30 1400 H 129.299 1.43751 -2.1376 0
M  V30 1401 H 129.257 2.89975 -1.21498 0
M  V30 1402 N 133.029 1.57378 -0.0835403 0
M  V30 1403 C 133.959 2.1641 0.87686 0
M  V30 1404 C 134.94 1.09429 1.30228 0
M  V30 1405 O 136.125 1.37516 1.37124 0
M  V30 1406 C 133.255 2.73517 2.14022 0
M  V30 1407 C 132.209 3.85769 1.85381 0
M  V30 1408 C 131.535 4.29529 3.18448 0
M  V30 1409 C 132.835 5.09486 1.14984 0
M  V30 1410 H 134.529 2.96914 0.385059 0
M  V30 1411 H 132.075 1.42823 0.18377 0
M  V30 1412 H 134.028 3.13463 2.81636 0
M  V30 1413 H 132.752 1.90252 2.65465 0
M  V30 1414 H 131.411 3.46345 1.20169 0
M  V30 1415 H 131.059 3.43169 3.67755 0
M  V30 1416 H 130.759 5.05204 3.00071 0
M  V30 1417 H 132.283 4.72099 3.8724 0
M  V30 1418 H 133.697 5.46674 1.72687 0
M  V30 1419 H 132.094 5.90515 1.06826 0
M  V30 1420 H 133.164 4.84724 0.130749 0
M  V30 1421 N 134.507 -0.190092 1.56449 0
M  V30 1422 C 135.735 -0.925772 1.85033 0
M  V30 1423 C 136.15 -1.76638 0.666658 0
M  V30 1424 O 135.507 -1.78822 -0.364565 0
M  V30 1425 C 135.558 -1.81786 3.12468 0
M  V30 1426 O 135.279 -1.01118 4.26271 0
M  V30 1427 C 136.78 -2.6648 3.54265 0
M  V30 1428 H 134 -0.269872 0.614337 0
M  V30 1429 H 136.544 -0.195837 2.0356 0
M  V30 1430 H 134.699 -2.50136 2.95822 0
M  V30 1431 H 135.113 -1.61956 4.98869 0
M  V30 1432 H 136.587 -3.24722 4.46385 0
M  V30 1433 H 137.064 -3.40434 2.77491 0
M  V30 1434 H 137.67 -2.03493 3.73458 0
M  V30 1435 N 135.985 -1.50799 -0.457987 0
M  V30 1436 C 137.231 -1.62683 -1.21088 0
M  V30 1437 C 137.564 -0.332268 -1.91336 0
M  V30 1438 O 136.839 0.667043 -1.82704 0
M  V30 1439 C 137.122 -2.81615 -2.24422 0
M  V30 1440 C 136.975 -4.20989 -1.58392 0
M  V30 1441 C 138.294 -2.96085 -3.2561 0
M  V30 1442 H 135.413 -0.592087 -0.438864 0
M  V30 1443 H 138.055 -1.83225 -0.50286 0
M  V30 1444 H 136.205 -2.64231 -2.84806 0
M  V30 1445 H 137.877 -4.49994 -1.01504 0
M  V30 1446 H 136.12 -4.24641 -0.886704 0
M  V30 1447 H 136.791 -5.0016 -2.33547 0
M  V30 1448 H 139.267 -3.12042 -2.75262 0
M  V30 1449 H 138.143 -3.80902 -3.95228 0
M  V30 1450 H 138.404 -2.0726 -3.90507 0
M  V30 1451 N 137.463 0.71206 -1.40597 0
M  V30 1452 C 138.41 1.82613 -1.41142 0
M  V30 1453 C 139.38 1.63925 -0.267903 0
M  V30 1454 O 140.565 1.85009 -0.466495 0
M  V30 1455 C 137.705 3.20354 -1.28324 0
M  V30 1456 C 136.818 3.50589 -2.52411 0
M  V30 1457 C 135.953 4.77855 -2.32009 0
M  V30 1458 C 134.992 5.01005 -3.51654 0
M  V30 1459 N 134.129 6.19487 -3.30425 0
M  V30 1460 H 138.969 1.81482 -2.36365 0
M  V30 1461 H 136.506 0.886475 -1.17388 0
M  V30 1462 H 138.464 3.99899 -1.18899 0
M  V30 1463 H 137.094 3.20705 -0.367189 0
M  V30 1464 H 136.146 2.65573 -2.72351 0
M  V30 1465 H 137.458 3.63604 -3.41458 0
M  V30 1466 H 136.612 5.65424 -2.19956 0
M  V30 1467 H 135.351 4.67056 -1.40392 0
M  V30 1468 H 134.356 4.1189 -3.64179 0
M  V30 1469 H 135.581 5.13674 -4.44202 0
M  V30 1470 H 133.527 6.09932 -2.41494 0
M  V30 1471 H 133.444 6.33194 -4.13039 0
M  V30 1472 H 134.712 7.09834 -3.22113 0
M  V30 1473 N 138.941 1.26152 0.944643 0
M  V30 1474 C 139.871 1.09902 2.06019 0
M  V30 1475 C 140.852 0.00519538 1.70099 0
M  V30 1476 O 142.037 0.176583 1.93396 0
M  V30 1477 C 139.167 0.727562 3.39594 0
M  V30 1478 C 138.121 1.77274 3.89561 0
M  V30 1479 C 137.447 1.25569 5.19747 0
M  V30 1480 C 138.747 3.17357 4.14827 0
M  V30 1481 H 140.441 2.03217 2.19871 0
M  V30 1482 H 137.987 0.978452 1.05652 0
M  V30 1483 H 139.94 0.600777 4.17095 0
M  V30 1484 H 138.664 -0.241287 3.25707 0
M  V30 1485 H 137.323 1.88814 3.14237 0
M  V30 1486 H 136.971 0.276783 5.02238 0
M  V30 1487 H 136.671 1.95433 5.54148 0
M  V30 1488 H 138.195 1.1415 5.99835 0
M  V30 1489 H 139.609 3.08914 4.82954 0
M  V30 1490 H 138.006 3.84781 4.60504 0
M  V30 1491 H 139.076 3.63673 3.20734 0
M  V30 1492 N 140.419 -1.14872 1.07899 0
M  V30 1493 C 141.351 -2.19425 0.662231 0
M  V30 1494 C 142.364 -1.60231 -0.288079 0
M  V30 1495 O 143.553 -1.78336 -0.076534 0
M  V30 1496 C 140.653 -3.38867 -0.0470695 0
M  V30 1497 C 139.826 -4.27597 0.920831 0
M  V30 1498 C 138.885 -5.25616 0.247805 0
M  V30 1499 O 137.911 -5.62189 0.890599 0
M  V30 1500 N 139.113 -5.71746 -1.00435 0
M  V30 1501 H 141.878 -2.55797 1.56166 0
M  V30 1502 H 139.439 -1.30042 0.964404 0
M  V30 1503 H 141.431 -4.01497 -0.50813 0
M  V30 1504 H 140.001 -3.00864 -0.848523 0
M  V30 1505 H 139.221 -3.61982 1.56087 0
M  V30 1506 H 140.509 -4.83748 1.57688 0
M  V30 1507 H 139.907 -5.44153 -1.54642 0
M  V30 1508 H 138.464 -6.36389 -1.40899 0
M  V30 1509 N 141.898 -0.863906 -1.31812 0
M  V30 1510 C 142.828 -0.330843 -2.31144 0
M  V30 1511 C 143.809 0.575005 -1.60087 0
M  V30 1512 O 144.994 0.493304 -1.8783 0
M  V30 1513 C 142.124 0.47374 -3.44054 0
M  V30 1514 C 141.078 -0.338481 -4.26659 0
M  V30 1515 C 140.404 0.591412 -5.31419 0
M  V30 1516 C 141.704 -1.56926 -4.98168 0
M  V30 1517 H 143.398 -1.16086 -2.75979 0
M  V30 1518 H 140.944 -0.559657 -1.32679 0
M  V30 1519 H 142.897 0.857143 -4.12591 0
M  V30 1520 H 141.621 1.33721 -2.9797 0
M  V30 1521 H 140.28 -0.703754 -3.59782 0
M  V30 1522 H 139.928 1.45199 -4.81587 0
M  V30 1523 H 139.628 0.0519022 -5.87577 0
M  V30 1524 H 141.152 0.97179 -6.02817 0
M  V30 1525 H 142.566 -1.25764 -5.59336 0
M  V30 1526 H 140.963 -2.04739 -5.64094 0
M  V30 1527 H 142.033 -2.32544 -4.25501 0
M  V30 1528 N 143.376 1.44774 -0.622745 0
M  V30 1529 C 144.308 2.28856 0.125485 0
M  V30 1530 C 145.321 1.40811 0.817069 0
M  V30 1531 O 146.51 1.65044 0.679918 0
M  V30 1532 C 143.61 3.16963 1.19949 0
M  V30 1533 C 142.783 4.33374 0.592064 0
M  V30 1534 C 141.842 5.02577 1.55893 0
M  V30 1535 O 140.868 5.58873 1.07933 0
M  V30 1536 N 142.07 5.03256 2.89334 0
M  V30 1537 H 144.835 2.93713 -0.596068 0
M  V30 1538 H 142.396 1.55129 -0.463303 0
M  V30 1539 H 144.388 3.60123 1.84644 0
M  V30 1540 H 142.958 2.53913 1.82337 0
M  V30 1541 H 142.178 3.93509 -0.233322 0
M  V30 1542 H 143.466 5.08527 0.166738 0
M  V30 1543 H 142.864 4.58836 3.30887 0
M  V30 1544 H 141.421 5.50232 3.49412 0
M  V30 1545 N 144.854 0.36279 1.53368 0
M  V30 1546 C 145.817 -0.472679 2.24273 0
M  V30 1547 C 146.817 -1.012 1.24961 0
M  V30 1548 O 148.007 -0.898194 1.49259 0
M  V30 1549 C 145.139 -1.66039 2.97731 0
M  V30 1550 H 146.332 0.14773 2.99536 0
M  V30 1551 H 143.885 0.114434 1.55881 0
M  V30 1552 H 144.62 -2.31896 2.26704 0
M  V30 1553 H 144.405 -1.28066 3.70596 0
M  V30 1554 H 145.895 -2.25252 3.51641 0
M  V30 1555 N 146.332 -1.57332 0.0918853 0
M  V30 1556 C 147.262 -2.16872 -0.865371 0
M  V30 1557 C 148.243 -1.10118 -1.29646 0
M  V30 1558 O 149.428 -1.38242 -1.36392 0
M  V30 1559 C 146.558 -2.74649 -2.12569 0
M  V30 1560 C 145.512 -3.86747 -1.83333 0
M  V30 1561 C 144.838 -4.31212 -3.16166 0
M  V30 1562 C 146.138 -5.10089 -1.1228 0
M  V30 1563 H 147.832 -2.97114 -0.369307 0
M  V30 1564 H 145.378 -1.42918 -0.176194 0
M  V30 1565 H 147.331 -3.14952 -2.7997 0
M  V30 1566 H 146.055 -1.91657 -2.64452 0
M  V30 1567 H 144.714 -3.46978 -1.18331 0
M  V30 1568 H 144.362 -3.45115 -3.6593 0
M  V30 1569 H 144.062 -5.06788 -2.97388 0
M  V30 1570 H 145.586 -4.74146 -3.84731 0
M  V30 1571 H 147 -5.47582 -1.69785 0
M  V30 1572 H 145.397 -5.91073 -1.03693 0
M  V30 1573 H 146.467 -4.84786 -0.105041 0
M  V30 1574 N 147.81 0.181792 -1.56548 0
M  V30 1575 C 148.742 1.24956 -1.92142 0
M  V30 1576 C 149.755 1.41022 -0.813422 0
M  V30 1577 O 150.944 1.41212 -1.09186 0
M  V30 1578 C 148.044 2.61981 -2.14987 0
M  V30 1579 C 147.217 2.6735 -3.46183 0
M  V30 1580 C 146.276 3.85664 -3.5798 0
M  V30 1581 O 145.302 3.72148 -4.30691 0
M  V30 1582 N 146.504 5.01683 -2.92053 0
M  V30 1583 H 149.269 0.947329 -2.84334 0
M  V30 1584 H 146.83 0.371629 -1.57577 0
M  V30 1585 H 148.822 3.3958 -2.20154 0
M  V30 1586 H 147.392 2.84637 -1.2923 0
M  V30 1587 H 146.612 1.75925 -3.52766 0
M  V30 1588 H 147.9 2.67939 -4.32534 0
M  V30 1589 H 147.298 5.15564 -2.32832 0
M  V30 1590 H 145.855 5.77181 -3.0283 0
M  V30 1591 N 149.288 1.51039 0.449983 0
M  V30 1592 C 150.22 1.67617 1.56324 0
M  V30 1593 C 151.233 0.557083 1.52972 0
M  V30 1594 O 152.422 0.830989 1.57977 0
M  V30 1595 C 149.522 1.66402 2.95235 0
M  V30 1596 C 148.695 2.9469 3.23229 0
M  V30 1597 C 147.754 2.85832 4.41799 0
M  V30 1598 O 146.78 3.59785 4.41071 0
M  V30 1599 N 147.982 2.00821 5.44657 0
M  V30 1600 H 150.747 2.63648 1.42512 0
M  V30 1601 H 148.308 1.48767 0.638737 0
M  V30 1602 H 150.3 1.58062 3.72557 0
M  V30 1603 H 148.87 0.780182 3.02708 0
M  V30 1604 H 148.09 3.16996 2.34323 0
M  V30 1605 H 149.378 3.79636 3.38754 0
M  V30 1606 H 148.776 1.40091 5.48079 0
M  V30 1607 H 147.333 1.98368 6.20881 0
M  V30 1608 N 150.766 -0.704594 1.40972 0
M  V30 1609 C 151.714 -1.83994 1.42299 0
M  V30 1610 C 152.708 -1.66684 0.302111 0
M  V30 1611 O 153.914 -1.73655 0.473697 0
M  V30 1612 H 150.289 -0.606171 0.44504 0
M  V30 1613 H 152.26 -1.79992 2.38003 0
M  V30 1614 C 151.009 -3.21946 1.31323 0
M  V30 1615 H 150.332 -3.35878 2.16855 0
M  V30 1616 H 151.772 -4.01491 1.36311 0
M  V30 1617 C 150.231 -3.36891 0.0245977 0
M  V30 1618 O 150.761 -3.90687 -0.934153 0
M  V30 1619 N 148.967 -2.90559 -0.0485243 0
M  V30 1620 H 148.514 -2.46968 0.732419 0
M  V30 1621 H 148.472 -3.00937 -0.910171 0
M  V30 1622 N 152.244 -1.26651 -0.937939 0
M  V30 1623 C 153.492 -1.12165 -1.68118 0
M  V30 1624 C 153.813 0.334983 -1.92101 0
M  V30 1625 O 153.083 1.23583 -1.52 0
M  V30 1626 H 151.663 -0.412093 -0.623048 0
M  V30 1627 H 154.325 -1.59027 -1.12678 0
M  V30 1628 H 153.421 -1.64289 -2.6536 0
M  V30 1629 N 153.722 1.14298 -1.08507 0
M  V30 1630 C 154.947 1.8976 -0.837001 0
M  V30 1631 C 155.372 1.78097 0.605228 0
M  V30 1632 O 154.73 1.12188 1.4242 0
M  V30 1633 C 154.778 3.37685 -1.26495 0
M  V30 1634 O 153.882 4.10281 -0.417514 0
M  V30 1635 H 153.223 0.590365 -0.303917 0
M  V30 1636 H 155.753 1.44672 -1.44676 0
M  V30 1637 H 155.763 3.88501 -1.24625 0
M  V30 1638 H 154.438 3.45492 -2.31534 0
M  V30 1639 H 153.015 3.69536 -0.499722 0
M  V30 1640 N 155.201 0.870884 1.31352 0
M  V30 1641 C 156.426 0.495957 2.01383 0
M  V30 1642 C 156.851 -0.904324 1.64935 0
M  V30 1643 O 156.209 -1.59687 0.858466 0
M  V30 1644 C 156.257 0.661433 3.54482 0
M  V30 1645 O 155.361 -0.298851 4.11316 0
M  V30 1646 H 154.702 0.197158 0.634054 0
M  V30 1647 H 157.232 1.17455 1.67527 0
M  V30 1648 H 157.242 0.555072 4.04207 0
M  V30 1649 H 155.917 1.68246 3.8035 0
M  V30 1650 H 154.494 -0.147368 3.72609 0
M  V30 1651 N 156.679 -1.44442 0.630414 0
M  V30 1652 C 157.925 -2.02351 0.134816 0
M  V30 1653 C 158.258 -1.4947 -1.23986 0
M  V30 1654 O 157.533 -0.678475 -1.82283 0
M  V30 1655 C 157.816 -3.59898 0.120707 0
M  V30 1656 C 157.669 -4.23063 1.52767 0
M  V30 1657 C 158.988 -4.36585 -0.555127 0
M  V30 1658 H 156.107 -0.73527 0.0504646 0
M  V30 1659 H 158.749 -1.72022 0.806751 0
M  V30 1660 H 156.899 -3.85868 -0.451477 0
M  V30 1661 H 158.571 -4.08202 2.14869 0
M  V30 1662 H 156.814 -3.80586 2.08175 0
M  V30 1663 H 157.485 -5.32071 1.46984 0
M  V30 1664 H 159.961 -4.16044 -0.0685429 0
M  V30 1665 H 158.837 -5.46294 -0.534185 0
M  V30 1666 H 159.098 -4.11138 -1.62535 0
M  V30 1667 N 158.157 -0.370918 -1.53173 0
M  V30 1668 C 159.087 0.464847 -2.28826 0
M  V30 1669 C 160.068 1.07936 -1.31468 0
M  V30 1670 O 161.253 1.0956 -1.60344 0
M  V30 1671 C 158.383 1.60196 -3.08147 0
M  V30 1672 C 157.337 1.11443 -4.13237 0
M  V30 1673 C 156.663 2.3422 -4.80672 0
M  V30 1674 C 157.963 0.195384 -5.21934 0
M  V30 1675 H 159.657 -0.166329 -2.98938 0
M  V30 1676 H 157.203 -0.0814359 -1.4377 0
M  V30 1677 H 159.156 2.19332 -3.59822 0
M  V30 1678 H 157.88 2.26045 -2.35735 0
M  V30 1679 H 156.539 0.545727 -3.62515 0
M  V30 1680 H 156.187 2.98537 -4.04827 0
M  V30 1681 H 155.887 2.02269 -5.51689 0
M  V30 1682 H 157.411 2.94032 -5.35143 0
M  V30 1683 H 158.825 0.694375 -5.69079 0
M  V30 1684 H 157.222 -0.0335027 -6.00091 0
M  V30 1685 H 158.292 -0.760961 -4.78892 0
M  V30 1686 N 159.635 1.57281 -0.100228 0
M  V30 1687 C 160.86 1.99302 0.573881 0
M  V30 1688 C 161.285 0.979059 1.60611 0
M  V30 1689 O 160.643 -0.0517803 1.81226 0
M  V30 1690 C 160.691 3.40274 1.19358 0
M  V30 1691 O 159.795 3.41676 2.30935 0
M  V30 1692 H 159.136 0.647944 0.145138 0
M  V30 1693 H 161.666 2.03779 -0.183156 0
M  V30 1694 H 161.676 3.78078 1.53365 0
M  V30 1695 H 160.351 4.13594 0.437385 0
M  V30 1696 H 158.928 3.15672 1.98509 0
M  V30 1697 N 161.113 -0.173488 1.56642 0
M  V30 1698 C 162.023 -1.23482 1.99473 0
M  V30 1699 C 163.039 -1.48567 0.905752 0
M  V30 1700 O 164.215 -1.60758 1.21321 0
M  V30 1701 C 161.28 -2.55444 2.34413 0
M  V30 1702 C 160.341 -2.38241 3.57127 0
M  V30 1703 C 159.574 -3.63909 3.90392 0
M  V30 1704 O 159.797 -4.68996 3.24653 0
M  V30 1705 O 158.731 -3.58149 4.83749 0
M  V30 1706 H 162.557 -0.901279 2.90018 0
M  V30 1707 H 160.142 -0.380185 1.44482 0
M  V30 1708 H 162.024 -3.33292 2.57865 0
M  V30 1709 H 160.699 -2.88382 1.4703 0
M  V30 1710 H 159.606 -1.58431 3.38896 0
M  V30 1711 H 160.939 -2.10228 4.45045 0
M  V30 1712 N 162.591 -1.51276 -0.441967 0
M  V30 1713 C 163.868 -1.54252 -1.20273 0
M  V30 1714 C 164.248 -0.30408 -2.08898 0
M  V30 1715 O 163.596 0.711084 -2.17154 0
M  V30 1716 C 163.806 -2.85406 -2.00859 0
M  V30 1717 C 165.154 -3.37181 -2.58059 0
M  V30 1718 O 166.178 -2.86925 -2.11074 0
M  V30 1719 O 165.037 -4.24858 -3.43741 0
M  V30 1720 H 162.131 -0.619969 -0.547328 0
M  V30 1721 H 164.677 -1.63586 -0.451413 0
M  V30 1722 H 163.449 -3.67003 -1.35736 0
M  V30 1723 H 163.072 -2.79213 -2.83065 0
M  V30 1724 N 164.069 0.697108 -1.41344 0
M  V30 1725 C 165.016 1.81106 -1.43071 0
M  V30 1726 C 165.986 1.63632 -0.285275 0
M  V30 1727 O 167.171 1.84504 -0.486091 0
M  V30 1728 C 164.311 3.18975 -1.31715 0
M  V30 1729 C 163.424 3.47892 -2.56115 0
M  V30 1730 C 162.559 4.75367 -2.37064 0
M  V30 1731 C 161.598 4.97247 -3.56948 0
M  V30 1732 N 160.735 6.15947 -3.36977 0
M  V30 1733 H 165.575 1.78965 -2.38276 0
M  V30 1734 H 163.112 0.873975 -1.18322 0
M  V30 1735 H 165.07 3.98615 -1.23133 0
M  V30 1736 H 163.7 3.20297 -0.401183 0
M  V30 1737 H 162.752 2.62669 -2.75153 0
M  V30 1738 H 164.064 3.59962 -3.45295 0
M  V30 1739 H 163.218 5.63059 -2.25941 0
M  V30 1740 H 161.957 4.65541 -1.45338 0
M  V30 1741 H 160.962 4.08004 -3.68527 0
M  V30 1742 H 162.187 5.08934 -4.49626 0
M  V30 1743 H 160.133 6.07336 -2.47949 0
M  V30 1744 H 160.05 6.28777 -4.19732 0
M  V30 1745 H 161.318 7.06377 -3.29623 0
M  V30 1746 N 165.547 1.27147 0.931209 0
M  V30 1747 C 166.772 1.16191 1.71797 0
M  V30 1748 C 167.197 -0.278004 1.86034 0
M  V30 1749 O 166.555 -1.20137 1.35782 0
M  V30 1750 C 166.603 1.84673 3.09723 0
M  V30 1751 O 165.707 1.14231 3.96264 0
M  V30 1752 H 165.048 0.404303 0.526721 0
M  V30 1753 H 167.578 1.68152 1.1656 0
M  V30 1754 H 167.588 1.91893 3.60057 0
M  V30 1755 H 166.263 2.89421 2.98677 0
M  V30 1756 H 164.84 1.15056 3.54706 0
M  V30 1757 N 167.025 -1.13721 1.09112 0
M  V30 1758 C 167.972 -2.19031 0.727591 0
M  V30 1759 C 168.942 -1.63555 -0.289656 0
M  V30 1760 O 170.127 -1.90023 -0.172026 0
M  V30 1761 C 167.267 -3.4477 0.15082 0
M  V30 1762 C 166.38 -4.14365 1.22172 0
M  V30 1763 C 165.515 -5.27709 0.608042 0
M  V30 1764 C 164.554 -5.89147 1.66047 0
M  V30 1765 N 163.691 -6.93929 1.06806 0
M  V30 1766 H 168.531 -2.49475 1.62991 0
M  V30 1767 H 166.068 -1.22499 0.81439 0
M  V30 1768 H 168.026 -4.16714 -0.201358 0
M  V30 1769 H 166.656 -3.14787 -0.714783 0
M  V30 1770 H 165.708 -3.40737 1.69122 0
M  V30 1771 H 167.02 -4.56114 2.01895 0
M  V30 1772 H 166.174 -6.06355 0.204523 0
M  V30 1773 H 164.913 -4.872 -0.220769 0
M  V30 1774 H 163.918 -5.09198 2.07357 0
M  V30 1775 H 165.143 -6.31729 2.49189 0
M  V30 1776 H 163.089 -6.55483 0.260476 0
M  V30 1777 H 163.006 -7.34202 1.8023 0
M  V30 1778 H 164.274 -7.76434 0.690644 0
M  V30 1779 N 168.503 -0.877838 -1.30888 0
M  V30 1780 C 169.919 -0.570844 -1.49042 0
M  V30 1781 C 170.119 0.893159 -1.80624 0
M  V30 1782 O 169.175 1.67485 -1.88958 0
M  V30 1783 C 170.488 -1.47784 -2.61878 0
M  V30 1784 C 172.036 -1.48071 -2.75761 0
M  V30 1785 C 172.511 -2.37347 -3.91702 0
M  V30 1786 N 174.002 -2.35271 -3.99001 0
M  V30 1787 C 174.737 -3.01063 -4.88004 0
M  V30 1788 N 174.233 -3.76055 -5.81854 0
M  V30 1789 N 176.026 -2.90332 -4.81315 0
M  V30 1790 H 168.177 -1.82502 -1.0866 0
M  V30 1791 H 170.44 -0.780797 -0.537644 0
M  V30 1792 H 170.146 -2.51993 -2.45341 0
M  V30 1793 H 170.02 -1.18215 -3.58197 0
M  V30 1794 H 172.407 -0.446166 -2.91708 0
M  V30 1795 H 172.488 -1.81668 -1.80085 0
M  V30 1796 H 172.132 -3.40883 -3.76512 0
M  V30 1797 H 172.062 -2.01071 -4.86701 0
M  V30 1798 H 174.553 -1.80768 -3.3186 0
M  V30 1799 H 174.866 -4.23366 -6.46514 0
M  V30 1800 H 173.211 -3.80163 -5.81808 0
M  V30 1801 H 176.402 -2.31278 -4.06974 0
M  V30 1802 H 176.575 -3.41885 -5.50471 0
M  V30 1803 N 169.982 1.44106 -0.638065 0
M  V30 1804 C 170.912 2.33448 0.0494287 0
M  V30 1805 C 171.893 1.48606 0.827672 0
M  V30 1806 O 173.078 1.77308 0.792173 0
M  V30 1807 C 170.208 3.31771 1.02691 0
M  V30 1808 C 169.162 4.26485 0.359823 0
M  V30 1809 C 168.488 5.14729 1.44769 0
M  V30 1810 C 169.788 5.17056 -0.738296 0
M  V30 1811 H 171.482 2.91183 -0.696636 0
M  V30 1812 H 169.028 1.40014 -0.336456 0
M  V30 1813 H 170.981 3.93161 1.51666 0
M  V30 1814 H 169.705 2.7226 1.80395 0
M  V30 1815 H 168.364 3.66437 -0.10934 0
M  V30 1816 H 168.012 4.51566 2.21578 0
M  V30 1817 H 167.712 5.78913 1.00668 0
M  V30 1818 H 169.236 5.78991 1.93911 0
M  V30 1819 H 170.65 5.72342 -0.331354 0
M  V30 1820 H 169.047 5.89879 -1.10286 0
M  V30 1821 H 170.117 4.57652 -1.60258 0
M  V30 1822 N 171.46 0.379036 1.52974 0
M  V30 1823 C 172.408 -0.476033 2.27677 0
M  V30 1824 C 173.402 -1.0719 1.31174 0
M  V30 1825 O 174.608 -1.01355 1.48752 0
M  V30 1826 H 170.983 -0.172255 0.732006 0
M  V30 1827 H 172.954 0.175615 2.97883 0
M  V30 1828 C 171.703 -1.5967 3.0887 0
M  V30 1829 H 171.026 -1.1475 3.82978 0
M  V30 1830 H 172.466 -2.16943 3.64296 0
M  V30 1831 C 170.925 -2.54682 2.20542 0
M  V30 1832 O 171.455 -3.57836 1.82527 0
M  V30 1833 N 169.661 -2.24183 1.84907 0
M  V30 1834 H 169.208 -1.40333 2.1602 0
M  V30 1835 H 169.166 -2.88006 1.26096 0
M  V30 1836 N 172.938 -1.57226 0.108567 0
M  V30 1837 C 174.166 -1.99179 -0.559954 0
M  V30 1838 C 174.581 -0.988022 -1.60884 0
M  V30 1839 O 173.938 0.0205512 -1.82488 0
M  V30 1840 C 173.989 -3.41159 -1.19552 0
M  V30 1841 O 173.71 -4.37694 -0.188577 0
M  V30 1842 C 175.211 -3.98188 -1.94837 0
M  V30 1843 H 172.431 -0.654228 -0.149088 0
M  V30 1844 H 174.975 -2.03598 0.19183 0
M  V30 1845 H 173.13 -3.37711 -1.89815 0
M  V30 1846 H 173.544 -5.20469 -0.649014 0
M  V30 1847 H 175.018 -4.99644 -2.34648 0
M  V30 1848 H 175.495 -3.3675 -2.81951 0
M  V30 1849 H 176.101 -4.0515 -1.2936 0
M  V30 1850 N 174.416 0.165178 -1.56732 0
M  V30 1851 C 175.665 0.879143 -1.81532 0
M  V30 1852 C 175.978 1.83144 -0.686842 0
M  V30 1853 O 177.184 2.58823 -0.819944 0
M  V30 1854 C 175.64 1.61388 -3.21686 0
M  V30 1855 C 175.248 0.704904 -4.4242 0
M  V30 1856 C 176.992 2.3157 -3.55774 0
M  V30 1857 C 174.899 1.44022 -5.73595 0
M  V30 1858 H 173.829 0.332033 -0.676957 0
M  V30 1859 H 176.48 0.132008 -1.83025 0
M  V30 1860 H 174.862 2.40599 -3.14529 0
M  V30 1861 H 176.036 -0.0506815 -4.60772 0
M  V30 1862 H 174.351 0.112419 -4.16248 0
M  V30 1863 H 176.948 2.8719 -4.51028 0
M  V30 1864 H 177.291 3.07201 -2.8095 0
M  V30 1865 H 177.824 1.59297 -3.64513 0
M  V30 1866 H 174.563 0.72612 -6.51466 0
M  V30 1867 H 174.083 2.16898 -5.5921 0
M  V30 1868 H 175.762 1.98606 -6.15764 0
M  V30 1869 N 175.894 1.51508 0.433938 0
M  V30 1870 C 176.824 1.76016 1.53429 0
M  V30 1871 C 177.805 0.610112 1.58782 0
M  V30 1872 O 178.99 0.853177 1.74455 0
M  V30 1873 C 176.12 1.88831 2.9148 0
M  V30 1874 C 175.074 3.04288 3.00987 0
M  V30 1875 C 174.4 3.0229 4.4105 0
M  V30 1876 C 175.7 4.44193 2.74754 0
M  V30 1877 H 177.394 2.68152 1.33171 0
M  V30 1878 H 174.94 1.29035 0.639214 0
M  V30 1879 H 176.893 2.04559 3.6842 0
M  V30 1880 H 175.617 0.933455 3.12976 0
M  V30 1881 H 174.276 2.8827 2.26486 0
M  V30 1882 H 173.924 2.04576 4.59519 0
M  V30 1883 H 173.624 3.79822 4.4834 0
M  V30 1884 H 175.148 3.20116 5.1996 0
M  V30 1885 H 176.562 4.60544 3.41426 0
M  V30 1886 H 174.959 5.23457 2.9345 0
M  V30 1887 H 176.029 4.53996 1.70339 0
M  V30 1888 N 177.372 -0.689602 1.41712 0
M  V30 1889 C 178.32 -1.82475 1.44242 0
M  V30 1890 C 179.314 -1.66354 0.319774 0
M  V30 1891 O 180.52 -1.73143 0.492089 0
M  V30 1892 H 176.895 -0.601416 0.451445 0
M  V30 1893 H 178.866 -1.77458 2.39899 0
M  V30 1894 C 177.615 -3.20535 1.3473 0
M  V30 1895 H 176.938 -3.33559 2.20405 0
M  V30 1896 H 178.378 -4.00023 1.40562 0
M  V30 1897 C 176.837 -3.36846 0.0603281 0
M  V30 1898 O 177.367 -3.91656 -0.892663 0
M  V30 1899 N 175.573 -2.90595 -0.0177039 0
M  V30 1900 H 175.12 -2.46178 0.758572 0
M  V30 1901 H 175.078 -3.01886 -0.878201 0
M  V30 1902 N 178.85 -1.27639 -0.924453 0
M  V30 1903 C 180.078 -1.16989 -1.70649 0
M  V30 1904 C 180.493 0.272869 -1.86818 0
M  V30 1905 O 179.85 1.18549 -1.38753 0
M  V30 1906 C 179.901 -1.85229 -3.10439 0
M  V30 1907 O 179.622 -3.23868 -2.95028 0
M  V30 1908 C 181.123 -1.80746 -4.04779 0
M  V30 1909 H 178.343 -0.406595 -0.53378 0
M  V30 1910 H 180.887 -1.68569 -1.15778 0
M  V30 1911 H 179.042 -1.37545 -3.6216 0
M  V30 1912 H 179.456 -3.57889 -3.83426 0
M  V30 1913 H 180.93 -2.33101 -5.00368 0
M  V30 1914 H 181.407 -0.777499 -4.32263 0
M  V30 1915 H 182.013 -2.28059 -3.58984 0
M  V30 1916 N 180.328 1.1314 -1.09713 0
M  V30 1917 C 181.261 2.17735 -0.683137 0
M  V30 1918 C 182.239 1.59582 0.311841 0
M  V30 1919 O 183.423 1.87298 0.212514 0
M  V30 1920 C 180.55 3.38699 -0.00684324 0
M  V30 1921 C 179.596 4.1546 -0.964102 0
M  V30 1922 S 180.429 4.74733 -2.47767 0
M  V30 1923 C 181.585 5.9904 -1.81387 0
M  V30 1924 H 181.818 2.52515 -1.56918 0
M  V30 1925 H 179.351 1.24484 -0.913404 0
M  V30 1926 H 181.309 4.08765 0.377044 0
M  V30 1927 H 179.97 3.02214 0.85589 0
M  V30 1928 H 179.163 5.02093 -0.43803 0
M  V30 1929 H 178.765 3.51066 -1.28953 0
M  V30 1930 H 181.057 6.67846 -1.13967 0
M  V30 1931 H 182 6.56261 -2.65947 0
M  V30 1932 H 182.408 5.4976 -1.28155 0
M  V30 1933 N 181.806 0.884767 1.30421 0
M  V30 1934 C 183.031 0.517288 2.00845 0
M  V30 1935 C 183.456 -0.886779 1.65885 0
M  V30 1936 O 182.814 -1.58768 0.875354 0
M  V30 1937 C 182.862 0.698994 3.5376 0
M  V30 1938 O 181.966 -0.255208 4.1161 0
M  V30 1939 H 181.307 0.203872 0.631927 0
M  V30 1940 H 183.837 1.19225 1.66272 0
M  V30 1941 H 183.847 0.597912 4.03595 0
M  V30 1942 H 182.522 1.72271 3.78544 0
M  V30 1943 H 181.099 -0.10784 3.72744 0
M  V30 1944 N 183.284 -1.43765 0.645699 0
M  V30 1945 C 184.512 -2.06253 0.163556 0
M  V30 1946 C 184.927 -1.48352 -1.16778 0
M  V30 1947 O 184.284 -0.611932 -1.71935 0
M  V30 1948 C 184.335 -3.61453 0.0583186 0
M  V30 1949 O 184.056 -4.172 1.33702 0
M  V30 1950 C 185.557 -4.41002 -0.450795 0
M  V30 1951 H 182.777 -0.665413 0.0864077 0
M  V30 1952 H 185.321 -1.84396 0.884222 0
M  V30 1953 H 183.476 -3.82522 -0.612865 0
M  V30 1954 H 183.89 -5.10791 1.19131 0
M  V30 1955 H 185.364 -5.49966 -0.473403 0
M  V30 1956 H 185.841 -4.13488 -1.48068 0
M  V30 1957 H 186.447 -4.24886 0.187637 0
M  V30 1958 N 184.763 -0.387143 -1.52771 0
M  V30 1959 C 186.012 0.19697 -2.00736 0
M  V30 1960 C 186.325 1.48082 -1.27793 0
M  V30 1961 O 187.531 2.14485 -1.66458 0
M  V30 1962 C 185.987 0.401568 -3.57653 0
M  V30 1963 C 185.595 -0.868907 -4.39493 0
M  V30 1964 C 187.339 0.942164 -4.13912 0
M  V30 1965 C 185.246 -0.632705 -5.88006 0
M  V30 1966 H 184.176 0.0773827 -0.750019 0
M  V30 1967 H 186.827 -0.50921 -1.76293 0
M  V30 1968 H 185.209 1.16954 -3.78335 0
M  V30 1969 H 186.383 -1.64133 -4.30577 0
M  V30 1970 H 184.698 -1.33429 -3.94443 0
M  V30 1971 H 187.295 1.13455 -5.22525 0
M  V30 1972 H 187.638 1.9106 -3.69867 0
M  V30 1973 H 188.171 0.233814 -3.97112 0
M  V30 1974 H 184.91 -1.57208 -6.36369 0
M  V30 1975 H 184.43 0.100825 -5.99715 0
M  V30 1976 H 186.109 -0.26642 -6.46451 0
M  V30 1977 N 186.241 1.57166 -0.116904 0
M  V30 1978 C 187.471 1.99184 0.548586 0
M  V30 1979 C 187.879 0.995436 1.60897 0
M  V30 1980 O 187.222 -0.0201293 1.83689 0
M  V30 1981 C 187.284 3.37611 1.23526 0
M  V30 1982 C 186.948 4.55857 0.323077 0
M  V30 1983 C 187.945 5.18056 -0.437476 0
M  V30 1984 C 185.63 5.01751 0.234761 0
M  V30 1985 C 187.624 6.24536 -1.2741 0
M  V30 1986 C 185.311 6.08093 -0.605496 0
M  V30 1987 C 186.309 6.69352 -1.35856 0
M  V30 1988 O 185.997 7.7364 -2.18487 0
M  V30 1989 H 185.729 0.659148 0.149999 0
M  V30 1990 H 188.283 2.0443 -0.199428 0
M  V30 1991 H 186.513 3.29113 2.0303 0
M  V30 1992 H 188.202 3.63932 1.79745 0
M  V30 1993 H 188.968 4.83516 -0.379105 0
M  V30 1994 H 184.847 4.53817 0.810601 0
M  V30 1995 H 188.391 6.72281 -1.86237 0
M  V30 1996 H 184.288 6.42063 -0.665268 0
M  V30 1997 H 185.056 7.90727 -2.11406 0
M  V30 1998 N 187.719 -0.156864 1.56817 0
M  V30 1999 C 188.944 -0.890331 1.87318 0
M  V30 2000 C 189.369 -1.74394 0.704855 0
M  V30 2001 O 188.727 -1.77972 -0.345786 0
M  V30 2002 C 188.775 -1.73102 3.16336 0
M  V30 2003 O 187.879 -2.83422 2.99576 0
M  V30 2004 H 187.22 -0.24857 0.615718 0
M  V30 2005 H 189.75 -0.150649 2.04045 0
M  V30 2006 H 189.76 -2.12803 3.48107 0
M  V30 2007 H 188.435 -1.10412 4.00976 0
M  V30 2008 H 187.012 -2.47199 2.7919 0
M  V30 2009 N 189.197 -1.51736 -0.425897 0
M  V30 2010 C 190.425 -1.68794 -1.1965 0
M  V30 2011 C 190.84 -0.390164 -1.84725 0
M  V30 2012 O 190.197 0.632376 -1.71194 0
M  V30 2013 C 190.248 -2.81174 -2.27208 0
M  V30 2014 O 189.969 -4.05925 -1.64793 0
M  V30 2015 C 191.47 -3.09599 -3.17275 0
M  V30 2016 H 188.69 -0.566128 -0.360194 0
M  V30 2017 H 191.234 -1.98211 -0.503249 0
M  V30 2018 H 189.389 -2.54324 -2.9223 0
M  V30 2019 H 189.803 -4.68423 -2.35967 0
M  V30 2020 H 191.277 -3.91786 -3.88854 0
M  V30 2021 H 191.754 -2.22468 -3.78688 0
M  V30 2022 H 192.36 -3.38151 -2.57941 0
M  V30 2023 N 190.675 0.682077 -1.42076 0
M  V30 2024 C 191.923 1.4393 -1.41876 0
M  V30 2025 C 192.244 1.94971 -0.0335599 0
M  V30 2026 O 191.514 1.72591 0.926773 0
M  V30 2027 H 190.094 0.534085 -0.522267 0
M  V30 2028 H 192.756 0.806427 -1.77434 0
M  V30 2029 H 191.852 2.29588 -2.11414 0
M  V30 2030 N 192.153 1.28127 0.917671 0
M  V30 2031 C 193.1 1.11717 2.0196 0
M  V30 2032 C 194.07 0.0153929 1.66093 0
M  V30 2033 O 195.255 0.179596 1.89953 0
M  V30 2034 C 192.395 0.780927 3.36148 0
M  V30 2035 C 191.508 1.96135 3.84909 0
M  V30 2036 C 190.643 1.56609 5.0759 0
M  V30 2037 C 189.682 2.71339 5.48673 0
M  V30 2038 N 188.819 2.32332 6.62545 0
M  V30 2039 H 193.659 2.06003 2.15329 0
M  V30 2040 H 191.196 1.02535 1.05475 0
M  V30 2041 H 193.154 0.56675 4.13333 0
M  V30 2042 H 191.784 -0.124998 3.22558 0
M  V30 2043 H 190.836 2.28777 3.03916 0
M  V30 2044 H 192.148 2.82165 4.1132 0
M  V30 2045 H 191.302 1.31374 5.92305 0
M  V30 2046 H 190.041 0.677014 4.82978 0
M  V30 2047 H 189.046 2.97276 4.62501 0
M  V30 2048 H 190.271 3.60882 5.75274 0
M  V30 2049 H 188.217 1.45889 6.39572 0
M  V30 2050 H 188.134 3.11899 6.88662 0
M  V30 2051 H 189.402 2.10371 7.50576 0
M  V30 2052 N 193.631 -1.12557 1.10312 0
M  V30 2053 C 194.877 -1.84311 0.846011 0
M  V30 2054 C 195.21 -1.83805 -0.626859 0
M  V30 2055 O 194.485 -1.28268 -1.46211 0
M  V30 2056 C 194.768 -3.32048 1.39341 0
M  V30 2057 C 194.621 -3.41016 2.93305 0
M  V30 2058 C 195.94 -4.27764 1.03468 0
M  V30 2059 H 193.059 -0.669192 0.30879 0
M  V30 2060 H 195.701 -1.32057 1.36605 0
M  V30 2061 H 193.851 -3.76678 0.951087 0
M  V30 2062 H 195.523 -3.05031 3.46055 0
M  V30 2063 H 193.766 -2.81603 3.29973 0
M  V30 2064 H 194.437 -4.44948 3.26689 0
M  V30 2065 H 196.913 -3.91253 1.41633 0
M  V30 2066 H 195.789 -5.29549 1.44463 0
M  V30 2067 H 196.05 -4.42064 -0.0560404 0
M  V30 2068 N 195.109 -0.891671 -1.2995 0
M  V30 2069 C 196.349 -0.520296 -1.97667 0
M  V30 2070 C 196.713 0.914797 -1.68806 0
M  V30 2071 O 197.914 1.39263 -2.29911 0
M  V30 2072 C 196.185 -0.795222 -3.48441 0
M  V30 2073 S 197.744 -0.526953 -4.35624 0
M  V30 2074 H 194.562 -0.19333 -0.684211 0
M  V30 2075 H 197.164 -1.15238 -1.57926 0
M  V30 2076 H 195.868 -1.83805 -3.66938 0
M  V30 2077 H 195.399 -0.15095 -3.9311 0
M  V30 2078 H 197.414 0.631533 -4.92165 0
M  V30 2079 N 196.587 1.43421 -0.653314 0
M  V30 2080 C 197.535 2.32546 0.0501531 0
M  V30 2081 C 198.529 1.48617 0.812985 0
M  V30 2082 O 199.735 1.64825 0.723375 0
M  V30 2083 H 196.11 0.751185 0.0350032 0
M  V30 2084 H 198.081 2.89602 -0.719261 0
M  V30 2085 C 196.83 3.32925 1.00279 0
M  V30 2086 H 196.153 3.97532 0.425236 0
M  V30 2087 H 197.593 3.9792 1.46409 0
M  V30 2088 C 196.052 2.63532 2.09886 0
M  V30 2089 O 196.582 2.45092 3.18265 0
M  V30 2090 N 194.788 2.22905 1.86445 0
M  V30 2091 H 194.335 2.38103 0.98309 0
M  V30 2092 H 194.293 1.76805 2.59976 0
M  V30 2093 N 198.065 0.39524 1.52563 0
M  V30 2094 C 199.476 -0.0774719 1.86539 0
M  V30 2095 C 199.827 -1.45641 1.31466 0
M  V30 2096 O 198.952 -2.06459 0.648367 0
M  V30 2097 C 199.547 -0.147356 3.38479 0
M  V30 2098 C 198.106 -0.564373 3.72145 0
M  V30 2099 C 197.253 0.269919 2.75983 0
M  V30 2100 H 200.204 0.612876 1.46388 0
M  V30 2101 H 200.225 -0.965343 3.68051 0
M  V30 2102 H 199.737 0.856387 3.78534 0
M  V30 2103 H 197.838 -1.57527 3.37663 0
M  V30 2104 H 197.951 -0.318402 4.78041 0
M  V30 2105 H 196.315 -0.265696 2.5331 0
M  V30 2106 H 197.098 1.27175 3.18875 0
M  V30 2107 N 199.544 -1.57102 0.125237 0
M  V30 2108 C 200.821 -1.86953 -0.575142 0
M  V30 2109 C 201.201 -1.02749 -1.84407 0
M  V30 2110 O 200.549 -0.108144 -2.28244 0
M  V30 2111 C 200.759 -3.38198 -0.861583 0
M  V30 2112 C 202.107 -4.06937 -1.21192 0
M  V30 2113 O 203.131 -3.43252 -0.951645 0
M  V30 2114 O 201.99 -5.19364 -1.70068 0
M  V30 2115 H 199.084 -0.774147 -0.290906 0
M  V30 2116 H 201.63 -1.68942 0.160211 0
M  V30 2117 H 200.402 -3.91282 0.0373647 0
M  V30 2118 H 200.025 -3.61661 -1.65188 0
M  V30 2119 N 201.022 0.148545 -1.56898 0
M  V30 2120 C 201.97 1.20265 -1.99096 0
M  V30 2121 C 202.964 1.44559 -0.883123 0
M  V30 2122 O 204.17 1.4487 -1.0683 0
M  V30 2123 H 200.545 0.404786 -0.63376 0
M  V30 2124 H 202.516 0.82004 -2.86911 0
M  V30 2125 C 201.265 2.52886 -2.3863 0
M  V30 2126 H 200.588 2.35021 -3.23427 0
M  V30 2127 H 202.028 3.25274 -2.7198 0
M  V30 2128 C 200.487 3.13315 -1.23837 0
M  V30 2129 O 201.017 3.98077 -0.538268 0
M  V30 2130 N 199.223 2.72742 -1.00301 0
M  V30 2131 H 198.77 2.03912 -1.5741 0
M  V30 2132 H 198.728 3.13507 -0.236838 0
M  V30 2133 N 202.5 1.5196 0.417844 0
M  V30 2134 C 203.911 1.57851 0.997 0
M  V30 2135 C 204.262 0.413714 1.91789 0
M  V30 2136 O 203.387 -0.467057 2.113 0
M  V30 2137 C 203.982 2.86085 1.81496 0
M  V30 2138 C 202.541 2.94483 2.34428 0
M  V30 2139 C 201.688 2.52707 1.14169 0
M  V30 2140 H 204.639 1.57455 0.198392 0
M  V30 2141 H 204.66 2.70947 2.67148 0
M  V30 2142 H 204.172 3.70842 1.14446 0
M  V30 2143 H 202.273 2.142 3.04875 0
M  V30 2144 H 202.386 3.98546 2.65891 0
M  V30 2145 H 200.75 2.06353 1.49301 0
M  V30 2146 H 201.533 3.39828 0.486999 0
M  V30 2147 N 203.978 -0.674533 1.42435 0
M  V30 2148 C 204.91 -1.80005 1.41883 0
M  V30 2149 C 205.923 -1.59667 0.31787 0
M  V30 2150 O 207.112 -1.68781 0.580973 0
M  V30 2151 C 204.212 -3.17114 1.19549 0
M  V30 2152 C 203.385 -3.64299 2.42084 0
M  V30 2153 C 202.444 -4.80142 2.15291 0
M  V30 2154 O 201.47 -4.90673 2.88493 0
M  V30 2155 N 202.672 -5.68869 1.1562 0
M  V30 2156 H 205.437 -1.80964 2.38898 0
M  V30 2157 H 202.998 -0.857633 1.37318 0
M  V30 2158 H 204.99 -3.92267 0.995417 0
M  V30 2159 H 203.56 -3.11053 0.310569 0
M  V30 2160 H 202.78 -2.79822 2.77657 0
M  V30 2161 H 204.068 -3.92567 3.23679 0
M  V30 2162 H 203.466 -5.63012 0.550765 0
M  V30 2163 H 202.023 -6.43833 1.016 0
M  V30 2164 N 205.456 -1.28612 -0.910864 0
M  V30 2165 C 206.366 -1.14643 -2.0468 0
M  V30 2166 C 207.382 -0.0723121 -1.7385 0
M  V30 2167 O 208.558 -0.282178 -1.99413 0
M  V30 2168 C 205.623 -0.812561 -3.37044 0
M  V30 2169 C 204.684 -1.96935 -3.81465 0
M  V30 2170 C 203.917 -1.65131 -5.07511 0
M  V30 2171 O 204.14 -0.567013 -5.67575 0
M  V30 2172 O 203.074 -2.49585 -5.47714 0
M  V30 2173 H 206.9 -2.1001 -2.19384 0
M  V30 2174 H 204.485 -1.07958 -1.03274 0
M  V30 2175 H 206.367 -0.640441 -4.16505 0
M  V30 2176 H 205.042 0.111426 -3.23508 0
M  V30 2177 H 203.949 -2.19664 -3.02818 0
M  V30 2178 H 205.282 -2.87414 -3.99567 0
M  V30 2179 N 206.934 1.1197 -1.10907 0
M  V30 2180 C 208.174 1.85224 -0.864378 0
M  V30 2181 C 208.538 1.82411 0.599178 0
M  V30 2182 O 209.739 2.51057 0.960416 0
M  V30 2183 C 208.01 3.2868 -1.40371 0
M  V30 2184 S 209.569 4.1925 -1.29518 0
M  V30 2185 H 206.387 0.63878 -0.312219 0
M  V30 2186 H 208.989 1.3485 -1.41548 0
M  V30 2187 H 207.693 3.28289 -2.46281 0
M  V30 2188 H 207.224 3.84121 -0.849402 0
M  V30 2189 H 209.239 4.95539 -0.256059 0
M  V30 2190 N 208.412 0.89855 1.29475 0
M  V30 2191 C 209.342 0.39201 2.30186 0
M  V30 2192 C 210.323 -0.532359 1.61555 0
M  V30 2193 O 211.508 -0.443331 1.89072 0
M  V30 2194 C 208.638 -0.382353 3.45189 0
M  V30 2195 C 207.592 0.451483 4.25612 0
M  V30 2196 C 206.918 -0.450307 5.328 0
M  V30 2197 C 208.218 1.70079 4.93832 0
M  V30 2198 H 209.912 1.23362 2.72804 0
M  V30 2199 H 207.458 0.594638 1.31149 0
M  V30 2200 H 209.411 -0.747451 4.14718 0
M  V30 2201 H 208.135 -1.25774 3.01411 0
M  V30 2202 H 206.794 0.798897 3.57789 0
M  V30 2203 H 206.442 -1.32379 4.85268 0
M  V30 2204 H 206.142 0.103902 5.87508 0
M  V30 2205 H 207.666 -0.811623 6.05182 0
M  V30 2206 H 209.08 1.40549 5.55805 0
M  V30 2207 H 207.477 2.19623 5.58467 0
M  V30 2208 H 208.547 2.43744 4.19186 0
M  V30 2209 N 209.89 -1.43072 0.660911 0
M  V30 2210 C 210.82 -2.33497 -0.0122829 0
M  V30 2211 C 211.801 -1.49903 -0.803925 0
M  V30 2212 O 212.986 -1.78546 -0.763864 0
M  V30 2213 C 210.116 -3.33363 -0.973994 0
M  V30 2214 C 209.07 -4.27003 -0.291928 0
M  V30 2215 C 208.396 -5.16967 -1.36562 0
M  V30 2216 C 209.696 -5.15816 0.820462 0
M  V30 2217 H 211.39 -2.90038 0.742873 0
M  V30 2218 H 208.936 -1.39461 0.358688 0
M  V30 2219 H 210.889 -3.95524 -1.45392 0
M  V30 2220 H 209.613 -2.75095 -1.7604 0
M  V30 2221 H 208.272 -3.66217 0.167623 0
M  V30 2222 H 207.92 -4.55034 -2.14366 0
M  V30 2223 H 207.62 -5.80441 -0.914454 0
M  V30 2224 H 209.144 -5.82003 -1.84675 0
M  V30 2225 H 210.558 -5.71742 0.422366 0
M  V30 2226 H 208.955 -5.8805 1.19656 0
M  V30 2227 H 210.025 -4.55045 1.67518 0
M  V30 2228 N 211.368 -0.403325 -1.52352 0
M  V30 2229 C 212.298 0.416205 -2.29761 0
M  V30 2230 C 213.279 1.05123 -1.33728 0
M  V30 2231 O 214.464 1.06134 -1.62632 0
M  V30 2232 C 211.594 1.53624 -3.11475 0
M  V30 2233 C 210.548 1.02653 -4.15507 0
M  V30 2234 C 209.874 2.23971 -4.85532 0
M  V30 2235 C 211.174 0.08463 -5.22231 0
M  V30 2236 H 212.868 -0.229701 -2.98518 0
M  V30 2237 H 210.414 -0.111913 -1.43564 0
M  V30 2238 H 212.367 2.1165 -3.64393 0
M  V30 2239 H 211.091 2.20994 -2.40477 0
M  V30 2240 H 209.75 0.46871 -3.63591 0
M  V30 2241 H 209.398 2.89883 -4.11068 0
M  V30 2242 H 209.098 1.90521 -5.55856 0
M  V30 2243 H 210.622 2.82614 -5.41259 0
M  V30 2244 H 212.036 0.573509 -5.70424 0
M  V30 2245 H 210.433 -0.160783 -5.99885 0
M  V30 2246 H 211.503 -0.86237 -4.7717 0
M  V30 2247 N 212.846 1.57033 -0.133567 0
M  V30 2248 C 213.756 2.19632 0.824564 0
M  V30 2249 C 214.772 1.17666 1.28182 0
M  V30 2250 O 215.948 1.50193 1.3418 0
M  V30 2251 C 213.013 2.79499 2.05137 0
M  V30 2252 C 212.074 3.96548 1.64464 0
M  V30 2253 C 211.307 4.5355 2.81297 0
M  V30 2254 O 211.53 4.09438 3.97136 0
M  V30 2255 O 210.464 5.44018 2.57542 0
M  V30 2256 H 214.29 3.01991 0.321766 0
M  V30 2257 H 211.875 1.49112 0.0927889 0
M  V30 2258 H 213.757 3.17602 2.7696 0
M  V30 2259 H 212.432 2.00162 2.54395 0
M  V30 2260 H 211.339 3.63186 0.897048 0
M  V30 2261 H 212.672 4.77364 1.19934 0
M  V30 2262 N 214.325 -0.140222 1.56975 0
M  V30 2263 C 215.736 -0.699596 1.73097 0
M  V30 2264 C 216.087 -1.8134 0.749022 0
M  V30 2265 O 215.212 -2.16241 -0.0828503 0
M  V30 2266 C 215.807 -1.27582 3.1386 0
M  V30 2267 C 214.366 -1.78169 3.31561 0
M  V30 2268 C 213.513 -0.672855 2.69013 0
M  V30 2269 H 216.464 0.0855115 1.58469 0
M  V30 2270 H 216.485 -2.14561 3.14235 0
M  V30 2271 H 215.997 -0.464955 3.85305 0
M  V30 2272 H 214.098 -2.61801 2.65124 0
M  V30 2273 H 214.211 -1.90574 4.39566 0
M  V30 2274 H 212.575 -1.10118 2.29665 0
M  V30 2275 H 213.358 0.126679 3.43066 0
M  V30 2276 N 215.803 -1.52179 -0.40978 0
M  V30 2277 C 217.051 -1.65878 -1.15451 0
M  V30 2278 C 217.372 -0.390771 -1.91044 0
M  V30 2279 O 216.642 0.594323 -1.86667 0
M  V30 2280 H 215.222 -0.611405 -0.429177 0
M  V30 2281 H 217.884 -1.89219 -0.467134 0
M  V30 2282 H 216.98 -2.49954 -1.86894 0
M  V30 2283 N 217.281 0.66697 -1.42791 0
M  V30 2284 C 218.211 1.79218 -1.49677 0
M  V30 2285 C 219.192 1.66405 -0.352623 0
M  V30 2286 O 220.377 1.85708 -0.567993 0
M  V30 2287 C 217.507 3.17565 -1.40605 0
M  V30 2288 C 216.461 3.45124 -2.53127 0
M  V30 2289 C 215.787 4.83127 -2.29112 0
M  V30 2290 C 217.087 3.41236 -3.95418 0
M  V30 2291 H 218.781 1.73713 -2.43853 0
M  V30 2292 H 216.327 0.83432 -1.17367 0
M  V30 2293 H 218.28 3.96022 -1.44029 0
M  V30 2294 H 217.004 3.23767 -0.429271 0
M  V30 2295 H 215.663 2.69031 -2.49034 0
M  V30 2296 H 215.311 4.85988 -1.29709 0
M  V30 2297 H 215.011 5.02528 -3.04531 0
M  V30 2298 H 216.535 5.63859 -2.34297 0
M  V30 2299 H 217.949 4.09651 -4.01073 0
M  V30 2300 H 216.346 3.72173 -4.70752 0
M  V30 2301 H 217.416 2.39665 -4.21532 0
M  V30 2302 N 218.759 1.29093 0.90403 0
M  V30 2303 C 219.707 1.13727 2.02901 0
M  V30 2304 C 220.701 0.0539853 1.69314 0
M  V30 2305 O 221.907 0.213469 1.7873 0
M  V30 2306 H 218.282 0.35117 0.664969 0
M  V30 2307 H 220.253 2.08982 2.13001 0
M  V30 2308 C 219.002 0.826066 3.37745 0
M  V30 2309 H 218.325 1.65164 3.64089 0
M  V30 2310 H 219.765 0.758559 4.17159 0
M  V30 2311 C 218.224 -0.470541 3.33598 0
M  V30 2312 O 218.754 -1.49792 3.72727 0
M  V30 2313 N 216.96 -0.474812 2.86695 0
M  V30 2314 H 216.507 0.361692 2.55048 0
M  V30 2315 H 216.465 -1.34236 2.84303 0
M  V30 2316 N 220.237 -1.11381 1.11499 0
M  V30 2317 C 221.147 -2.21019 0.786628 0
M  V30 2318 C 222.163 -1.72597 -0.220507 0
M  V30 2319 O 223.339 -2.01321 -0.0565251 0
M  V30 2320 C 220.404 -3.459 0.235333 0
M  V30 2321 C 219.465 -4.09107 1.30115 0
M  V30 2322 C 218.698 -5.28027 0.776068 0
M  V30 2323 O 218.921 -5.6904 -0.393661 0
M  V30 2324 O 217.855 -5.81835 1.54114 0
M  V30 2325 H 221.681 -2.51521 1.70209 0
M  V30 2326 H 219.266 -1.19928 0.890928 0
M  V30 2327 H 221.148 -4.21346 -0.067715 0
M  V30 2328 H 219.823 -3.17049 -0.652828 0
M  V30 2329 H 218.73 -3.35391 1.65722 0
M  V30 2330 H 220.063 -4.42139 2.16273 0
M  V30 2331 N 221.715 -0.905404 -1.28997 0
M  V30 2332 C 222.964 -0.530191 -1.94607 0
M  V30 2333 C 223.277 0.929185 -1.72121 0
M  V30 2334 O 224.483 1.41218 -2.31883 0
M  V30 2335 C 222.939 -0.897333 -3.48534 0
M  V30 2336 C 222.547 -2.37587 -3.79811 0
M  V30 2337 C 224.291 -0.592304 -4.20347 0
M  V30 2338 C 222.198 -2.68357 -5.27009 0
M  V30 2339 H 221.128 -0.194558 -0.728466 0
M  V30 2340 H 223.779 -1.10318 -1.46636 0
M  V30 2341 H 222.161 -0.253214 -3.9519 0
M  V30 2342 H 223.335 -3.06602 -3.43994 0
M  V30 2343 H 221.65 -2.6505 -3.2115 0
M  V30 2344 H 224.247 -0.798975 -5.28697 0
M  V30 2345 H 224.59 0.469474 -4.13644 0
M  V30 2346 H 225.123 -1.19452 -3.79442 0
M  V30 2347 H 221.862 -3.73355 -5.38782 0
M  V30 2348 H 221.382 -2.03971 -5.64053 0
M  V30 2349 H 223.061 -2.54922 -5.94663 0
M  V30 2350 N 223.193 1.4272 -0.668489 0
M  V30 2351 C 224.126 2.28111 0.0637898 0
M  V30 2352 C 225.104 1.40705 0.814912 0
M  V30 2353 O 226.288 1.70146 0.81134 0
M  V30 2354 C 223.415 3.20429 1.0974 0
M  V30 2355 C 222.461 4.24197 0.442579 0
M  V30 2356 S 223.294 5.29563 -0.795173 0
M  V30 2357 C 224.45 6.25449 0.237516 0
M  V30 2358 H 224.683 2.8987 -0.660521 0
M  V30 2359 H 222.216 1.47456 -0.457821 0
M  V30 2360 H 224.174 3.74158 1.68868 0
M  V30 2361 H 222.835 2.57818 1.79411 0
M  V30 2362 H 222.028 4.88954 1.22227 0
M  V30 2363 H 221.63 3.73925 -0.0749554 0
M  V30 2364 H 223.922 6.68524 1.09915 0
M  V30 2365 H 224.865 7.07104 -0.375421 0
M  V30 2366 H 225.273 5.61511 0.580167 0
M  V30 2367 N 224.671 0.411399 1.52136 0
M  V30 2368 C 225.634 -0.401089 2.25663 0
M  V30 2369 C 226.634 -0.971732 1.28117 0
M  V30 2370 O 227.824 -0.850254 1.52041 0
M  V30 2371 C 224.956 -1.56483 3.02863 0
M  V30 2372 H 226.149 0.24295 2.98914 0
M  V30 2373 H 223.702 0.163968 1.55438 0
M  V30 2374 H 224.437 -2.24567 2.33967 0
M  V30 2375 H 224.222 -1.16211 3.74483 0
M  V30 2376 H 225.712 -2.13951 3.58629 0
M  V30 2377 N 226.149 -1.5696 0.141893 0
M  V30 2378 C 227.097 -2.17784 -0.816874 0
M  V30 2379 C 228.091 -1.1334 -1.25899 0
M  V30 2380 O 229.297 -1.316 -1.22806 0
M  V30 2381 H 225.672 -0.697278 -0.281615 0
M  V30 2382 H 227.643 -2.97087 -0.279621 0
M  V30 2383 C 226.392 -2.80983 -2.04802 0
M  V30 2384 H 225.715 -3.61062 -1.7168 0
M  V30 2385 H 227.155 -3.2705 -2.69841 0
M  V30 2386 C 225.614 -1.79228 -2.8527 0
M  V30 2387 O 226.144 -1.25962 -3.8144 0
M  V30 2388 N 224.35 -1.48647 -2.49704 0
M  V30 2389 H 223.897 -1.92155 -1.71564 0
M  V30 2390 H 223.855 -0.808115 -3.03837 0
M  V30 2391 N 227.627 0.131896 -1.57047 0
M  V30 2392 C 228.852 0.860418 -1.8871 0
M  V30 2393 C 229.277 1.73251 -0.73251 0
M  V30 2394 O 228.635 1.785 0.317429 0
M  V30 2395 C 228.683 1.68047 -3.19049 0
M  V30 2396 O 227.787 2.7862 -3.04047 0
M  V30 2397 H 227.128 0.238743 -0.619595 0
M  V30 2398 H 229.658 0.118169 -2.04258 0
M  V30 2399 H 229.668 2.07238 -3.51449 0
M  V30 2400 H 228.343 1.04018 -4.02682 0
M  V30 2401 H 226.92 2.42726 -2.83088 0
M  V30 2402 N 229.106 1.52395 0.401703 0
M  V30 2403 C 230.036 1.79231 1.49661 0
M  V30 2404 C 231.017 0.643654 1.57452 0
M  V30 2405 O 232.202 0.889989 1.72606 0
M  V30 2406 C 229.332 1.94971 2.87409 0
M  V30 2407 C 228.286 3.10604 2.94465 0
M  V30 2408 C 227.612 3.11577 4.34538 0
M  V30 2409 C 228.912 4.49921 2.6527 0
M  V30 2410 H 230.606 2.70917 1.27454 0
M  V30 2411 H 228.152 1.30362 0.6117 0
M  V30 2412 H 230.105 2.12328 3.63999 0
M  V30 2413 H 228.829 0.999632 3.10926 0
M  V30 2414 H 227.488 2.93009 2.20321 0
M  V30 2415 H 227.136 2.14277 4.55076 0
M  V30 2416 H 226.836 3.89247 4.40183 0
M  V30 2417 H 228.36 3.31073 5.13053 0
M  V30 2418 H 229.774 4.67683 3.31581 0
M  V30 2419 H 228.171 5.29564 2.82281 0
M  V30 2420 H 229.241 4.57507 1.60671 0
M  V30 2421 N 230.584 -0.659388 1.43143 0
M  V30 2422 C 231.861 -1.41627 1.34912 0
M  V30 2423 C 232.241 -2.11099 -0.00607785 0
M  V30 2424 O 231.589 -2.04353 -1.02236 0
M  V30 2425 C 231.799 -2.40604 2.52805 0
M  V30 2426 C 233.147 -3.04789 2.95616 0
M  V30 2427 O 234.171 -2.50932 2.52807 0
M  V30 2428 O 233.03 -4.02421 3.69756 0
M  V30 2429 H 230.124 -0.63246 0.532844 0
M  V30 2430 H 232.67 -0.686814 1.5518 0
M  V30 2431 H 231.442 -1.88174 3.43083 0
M  V30 2432 H 231.065 -3.21009 2.34604 0
M  V30 2433 N 232.062 -1.29571 -0.897171 0
M  V30 2434 C 233.292 -1.20408 -1.67886 0
M  V30 2435 C 233.7 0.237429 -1.87704 0
M  V30 2436 O 233.043 1.17048 -1.41582 0
M  V30 2437 C 233.105 -1.84887 -3.08314 0
M  V30 2438 C 232.769 -3.34189 -3.11716 0
M  V30 2439 C 233.766 -4.30374 -2.91675 0
M  V30 2440 C 231.451 -3.75431 -3.33701 0
M  V30 2441 C 233.445 -5.65776 -2.93557 0
M  V30 2442 C 231.132 -5.10955 -3.35214 0
M  V30 2443 C 232.13 -6.05938 -3.15164 0
M  V30 2444 O 231.818 -7.38987 -3.1647 0
M  V30 2445 H 231.55 -0.418289 -0.531046 0
M  V30 2446 H 234.104 -1.71514 -1.13014 0
M  V30 2447 H 232.334 -1.28295 -3.64798 0
M  V30 2448 H 234.023 -1.70011 -3.6858 0
M  V30 2449 H 234.789 -3.99844 -2.74499 0
M  V30 2450 H 230.668 -3.01953 -3.48347 0
M  V30 2451 H 234.212 -6.39889 -2.77826 0
M  V30 2452 H 230.109 -5.4113 -3.51922 0
M  V30 2453 H 230.877 -7.47823 -3.3272 0
M  V30 2454 N 233.54 1.10788 -1.12088 0
M  V30 2455 C 234.488 2.19111 -0.780587 0
M  V30 2456 C 235.482 1.67818 0.230961 0
M  V30 2457 O 236.688 1.79777 0.0895427 0
M  V30 2458 H 233.063 0.714477 -0.234578 0
M  V30 2459 H 235.034 2.45055 -1.70266 0
M  V30 2460 C 233.783 3.46818 -0.24747 0
M  V30 2461 H 233.106 3.86646 -1.01712 0
M  V30 2462 H 234.546 4.23973 -0.0476291 0
M  V30 2463 C 233.005 3.20968 1.02378 0
M  V30 2464 O 233.535 3.42298 2.10226 0
M  V30 2465 N 231.741 2.74658 0.949271 0
M  V30 2466 H 231.288 2.57501 0.0715173 0
M  V30 2467 H 231.246 2.57739 1.80049 0
M  V30 2468 N 235.018 0.912232 1.28515 0
M  V30 2469 C 235.928 0.404506 2.31086 0
M  V30 2470 C 236.944 -0.50707 1.66448 0
M  V30 2471 O 238.12 -0.393624 1.97516 0
M  V30 2472 C 235.185 -0.348572 3.44943 0
M  V30 2473 C 234.246 0.59604 4.25142 0
M  V30 2474 C 233.479 -0.121194 5.33562 0
M  V30 2475 O 233.702 -1.34317 5.5436 0
M  V30 2476 O 232.636 0.542716 5.99448 0
M  V30 2477 H 236.462 1.25579 2.76521 0
M  V30 2478 H 234.047 0.676998 1.33181 0
M  V30 2479 H 235.929 -0.77395 4.14232 0
M  V30 2480 H 234.604 -1.17571 3.01594 0
M  V30 2481 H 233.511 1.07079 3.58448 0
M  V30 2482 H 234.844 1.38995 4.72167 0
M  V30 2483 N 236.496 -1.42363 0.676048 0
M  V30 2484 C 237.912 -1.55811 0.345718 0
M  V30 2485 C 238.112 -1.65544 -1.14879 0
M  V30 2486 O 237.168 -1.62306 -1.93424 0
M  V30 2487 C 238.481 -2.80746 1.07713 0
M  V30 2488 C 240.029 -2.9452 1.05958 0
M  V30 2489 C 240.504 -4.22318 1.77233 0
M  V30 2490 N 241.995 -4.29233 1.74108 0
M  V30 2491 C 242.73 -5.26935 2.26113 0
M  V30 2492 N 242.226 -6.30783 2.86505 0
M  V30 2493 N 244.019 -5.18741 2.1648 0
M  V30 2494 H 236.17 -1.34289 1.6456 0
M  V30 2495 H 238.433 -0.646506 0.69335 0
M  V30 2496 H 238.139 -2.79696 2.13221 0
M  V30 2497 H 238.013 -3.71676 0.64316 0
M  V30 2498 H 240.4 -2.95097 0.0128255 0
M  V30 2499 H 240.481 -2.04817 1.53244 0
M  V30 2500 H 240.125 -4.22502 2.81877 0
M  V30 2501 H 240.055 -5.10958 1.27396 0
M  V30 2502 H 242.546 -3.54814 1.30059 0
M  V30 2503 H 242.859 -7.01691 3.23805 0
M  V30 2504 H 241.204 -6.31341 2.90575 0
M  V30 2505 H 244.395 -4.36533 1.68987 0
M  V30 2506 H 244.568 -5.94721 2.57316 0
M  V30 2507 N 237.974 -0.419461 -1.51915 0
M  V30 2508 C 238.904 0.391813 -2.30189 0
M  V30 2509 C 239.885 1.03699 -1.34836 0
M  V30 2510 O 241.07 1.04403 -1.63748 0
M  V30 2511 C 238.2 1.50312 -3.13087 0
M  V30 2512 C 237.154 0.9824 -4.16573 0
M  V30 2513 C 236.48 2.18809 -4.8788 0
M  V30 2514 C 237.78 0.0292356 -5.22292 0
M  V30 2515 H 239.474 -0.26135 -2.98257 0
M  V30 2516 H 237.02 -0.127134 -1.43438 0
M  V30 2517 H 238.973 2.07773 -3.66617 0
M  V30 2518 H 237.697 2.18431 -2.42807 0
M  V30 2519 H 236.356 0.430119 -3.64068 0
M  V30 2520 H 236.004 2.85507 -4.14119 0
M  V30 2521 H 235.704 1.84615 -5.57845 0
M  V30 2522 H 237.228 2.76858 -5.44226 0
M  V30 2523 H 238.642 0.512976 -5.71 0
M  V30 2524 H 237.039 -0.2244 -5.9968 0
M  V30 2525 H 238.109 -0.912931 -4.76228 0
M  V30 2526 N 239.452 1.56882 -0.150215 0
M  V30 2527 C 240.698 1.97299 0.494427 0
M  V30 2528 C 241.053 1.0338 1.62266 0
M  V30 2529 O 240.346 0.0694497 1.91474 0
M  V30 2530 C 240.54 3.41801 1.04437 0
M  V30 2531 C 240.369 4.49691 -0.0290451 0
M  V30 2532 C 239.139 5.03095 -0.47156 0
M  V30 2533 C 241.337 5.07693 -0.821703 0
M  V30 2534 N 239.319 5.94593 -1.52749 0
M  V30 2535 C 240.69 5.95431 -1.72805 0
M  V30 2536 C 242.745 4.90256 -0.869134 0
M  V30 2537 C 241.448 6.67599 -2.67777 0
M  V30 2538 C 243.474 5.63127 -1.8067 0
M  V30 2539 C 242.836 6.50576 -2.70057 0
M  V30 2540 H 238.935 0.76755 0.149639 0
M  V30 2541 H 241.519 1.93145 -0.24556 0
M  V30 2542 H 239.69 3.46541 1.75396 0
M  V30 2543 H 241.422 3.69272 1.6559 0
M  V30 2544 H 238.177 4.73543 -0.0732101 0
M  V30 2545 H 238.601 6.45047 -2.05531 0
M  V30 2546 H 243.243 4.22363 -0.192134 0
M  V30 2547 H 240.961 7.34717 -3.36476 0
M  V30 2548 H 244.547 5.51629 -1.84924 0
M  V30 2549 H 243.427 7.05974 -3.41424 0
M  V30 2550 N 240.93 -0.123565 1.57115 0
M  V30 2551 C 241.893 -1.13583 1.99076 0
M  V30 2552 C 242.893 -1.34564 0.880296 0
M  V30 2553 O 244.083 -1.31158 1.14644 0
M  V30 2554 C 241.215 -2.49128 2.32698 0
M  V30 2555 H 242.408 -0.775287 2.89706 0
M  V30 2556 H 239.961 -0.36771 1.51913 0
M  V30 2557 H 240.696 -2.90111 1.44934 0
M  V30 2558 H 240.481 -2.35255 3.13684 0
M  V30 2559 H 241.971 -3.2199 2.65918 0
M  V30 2560 N 242.408 -1.52605 -0.393616 0
M  V30 2561 C 243.654 -1.68624 -1.13743 0
M  V30 2562 C 244.009 -0.418687 -1.87789 0
M  V30 2563 O 243.302 0.58747 -1.82371 0
M  V30 2564 C 243.496 -2.85721 -2.14705 0
M  V30 2565 C 243.325 -4.23742 -1.50575 0
M  V30 2566 C 242.095 -4.89033 -1.2718 0
M  V30 2567 C 244.293 -5.05293 -0.958311 0
M  V30 2568 N 242.275 -6.11048 -0.591058 0
M  V30 2569 C 243.646 -6.18673 -0.405367 0
M  V30 2570 C 245.701 -4.90517 -0.854274 0
M  V30 2571 C 244.404 -7.18895 0.241434 0
M  V30 2572 C 246.43 -5.90986 -0.221301 0
M  V30 2573 C 245.792 -7.03669 0.320894 0
M  V30 2574 H 241.891 -0.670556 -0.402342 0
M  V30 2575 H 244.475 -1.89946 -0.427607 0
M  V30 2576 H 242.646 -2.65987 -2.83029 0
M  V30 2577 H 244.378 -2.90699 -2.8156 0
M  V30 2578 H 241.133 -4.47672 -1.54554 0
M  V30 2579 H 241.557 -6.76474 -0.266862 0
M  V30 2580 H 246.199 -4.03612 -1.25926 0
M  V30 2581 H 243.917 -8.05413 0.658448 0
M  V30 2582 H 247.503 -5.81626 -0.142111 0
M  V30 2583 H 246.383 -7.80078 0.802956 0
M  V30 2584 N 243.887 0.651787 -1.4349 0
M  V30 2585 C 244.797 1.79368 -1.5121 0
M  V30 2586 C 245.813 1.69361 -0.399093 0
M  V30 2587 O 246.989 1.90505 -0.653431 0
M  V30 2588 C 244.054 3.15653 -1.43401 0
M  V30 2589 C 243.115 3.37446 -2.65384 0
M  V30 2590 C 242.348 4.67229 -2.57939 0
M  V30 2591 O 242.571 5.46676 -1.62792 0
M  V30 2592 O 241.505 4.90773 -3.48462 0
M  V30 2593 H 245.331 1.7581 -2.47638 0
M  V30 2594 H 242.916 0.810447 -1.25507 0
M  V30 2595 H 244.798 3.96935 -1.41494 0
M  V30 2596 H 243.473 3.19798 -0.501085 0
M  V30 2597 H 242.38 2.55923 -2.72863 0
M  V30 2598 H 243.713 3.38148 -3.57654 0
M  V30 2599 N 245.365 1.30045 0.890287 0
M  V30 2600 C 246.59 1.21598 1.68014 0
M  V30 2601 C 247.015 -0.218678 1.86825 0
M  V30 2602 O 246.373 -1.15756 1.39536 0
M  V30 2603 C 246.421 1.94434 3.03691 0
M  V30 2604 O 245.525 1.2678 3.92429 0
M  V30 2605 H 244.866 0.420856 0.513592 0
M  V30 2606 H 247.396 1.71775 1.11151 0
M  V30 2607 H 247.406 2.03251 3.5377 0
M  V30 2608 H 246.081 2.98777 2.89318 0
M  V30 2609 H 244.658 1.26282 3.50866 0
M  V30 2610 N 246.843 -1.10192 1.12674 0
M  V30 2611 C 248.089 -1.82658 0.894847 0
M  V30 2612 C 248.444 -1.83666 -0.573107 0
M  V30 2613 O 247.737 -1.28816 -1.41835 0
M  V30 2614 C 247.931 -3.28552 1.4067 0
M  V30 2615 C 247.76 -3.41756 2.92289 0
M  V30 2616 C 246.53 -3.54021 3.60551 0
M  V30 2617 C 248.728 -3.34949 3.90274 0
M  V30 2618 N 246.71 -3.55827 5.0026 0
M  V30 2619 C 248.081 -3.43531 5.16127 0
M  V30 2620 C 250.136 -3.18565 3.8265 0
M  V30 2621 C 248.839 -3.37416 6.3525 0
M  V30 2622 C 250.865 -3.13772 5.01299 0
M  V30 2623 C 250.227 -3.22938 6.26012 0
M  V30 2624 H 246.326 -0.683044 0.380756 0
M  V30 2625 H 248.91 -1.31752 1.43351 0
M  V30 2626 H 247.081 -3.77946 0.895055 0
M  V30 2627 H 248.813 -3.88991 1.11661 0
M  V30 2628 H 245.568 -3.57135 3.1105 0
M  V30 2629 H 245.992 -3.60335 5.73138 0
M  V30 2630 H 250.634 -3.10354 2.87124 0
M  V30 2631 H 248.352 -3.44391 7.3104 0
M  V30 2632 H 251.938 -3.02242 4.97133 0
M  V30 2633 H 250.818 -3.19235 7.16281 0
M  V30 2634 N 248.321 -0.919034 -1.28029 0
M  V30 2635 C 249.737 -0.617972 -1.4715 0
M  V30 2636 C 249.937 0.835242 -1.83374 0
M  V30 2637 O 248.993 1.61388 -1.94191 0
M  V30 2638 C 250.306 -1.56041 -2.57044 0
M  V30 2639 C 251.854 -1.56769 -2.7091 0
M  V30 2640 C 252.329 -2.49688 -3.83953 0
M  V30 2641 N 253.82 -2.47845 -3.91314 0
M  V30 2642 C 254.555 -3.16437 -4.78179 0
M  V30 2643 N 254.051 -3.94376 -5.69596 0
M  V30 2644 N 255.844 -3.05498 -4.71834 0
M  V30 2645 H 247.995 -1.85866 -1.02798 0
M  V30 2646 H 250.258 -0.797506 -0.512531 0
M  V30 2647 H 249.964 -2.59671 -2.372 0
M  V30 2648 H 249.838 -1.29551 -3.54255 0
M  V30 2649 H 252.225 -0.538745 -2.90141 0
M  V30 2650 H 252.306 -1.87305 -1.74214 0
M  V30 2651 H 251.95 -3.52688 -3.65477 0
M  V30 2652 H 251.88 -2.16453 -4.80058 0
M  V30 2653 H 254.371 -1.91234 -3.25941 0
M  V30 2654 H 254.684 -4.43721 -6.32718 0
M  V30 2655 H 253.029 -3.98481 -5.69419 0
M  V30 2656 H 256.22 -2.44108 -3.99411 0
M  V30 2657 H 256.393 -3.59225 -5.39316 0
M  V30 2658 N 249.799 1.42003 -0.683588 0
M  V30 2659 C 251.024 2.06265 -0.216647 0
M  V30 2660 C 251.449 1.51059 1.12083 0
M  V30 2661 O 250.807 0.632638 1.69904 0
M  V30 2662 C 250.855 3.60191 -0.171759 0
M  V30 2663 O 249.959 4.03396 0.857069 0
M  V30 2664 H 249.3 0.65502 -0.108834 0
M  V30 2665 H 251.83 1.81982 -0.935077 0
M  V30 2666 H 251.84 4.08 0.0014303 0
M  V30 2667 H 250.515 3.99743 -1.14796 0
M  V30 2668 H 249.092 3.67117 0.654208 0
M  V30 2669 N 251.277 0.427512 1.51691 0
M  V30 2670 C 252.187 -0.39527 2.31246 0
M  V30 2671 C 253.203 -1.03674 1.39742 0
M  V30 2672 O 254.379 -1.03425 1.72816 0
M  V30 2673 C 251.444 -1.48706 3.13189 0
M  V30 2674 C 250.505 -0.866743 4.20459 0
M  V30 2675 C 249.738 -1.90651 4.98486 0
M  V30 2676 O 249.961 -3.12733 4.77026 0
M  V30 2677 O 248.895 -1.5025 5.82845 0
M  V30 2678 H 252.721 0.253918 3.02637 0
M  V30 2679 H 250.306 0.190274 1.48183 0
M  V30 2680 H 252.188 -2.12047 3.64162 0
M  V30 2681 H 250.863 -2.12051 2.44573 0
M  V30 2682 H 249.77 -0.195544 3.73589 0
M  V30 2683 H 251.103 -0.276934 4.9142 0
M  V30 2684 N 252.755 -1.56801 0.158532 0
M  V30 2685 C 254.001 -1.96781 -0.490405 0
M  V30 2686 C 254.334 -1.04397 -1.63753 0
M  V30 2687 O 253.609 -0.0885805 -1.94298 0
M  V30 2688 C 253.892 -3.4635 -0.985594 0
M  V30 2689 C 253.745 -4.49512 0.160824 0
M  V30 2690 C 255.064 -3.98697 -1.86355 0
M  V30 2691 H 252.183 -0.715482 -0.176788 0
M  V30 2692 H 254.825 -1.88451 0.242088 0
M  V30 2693 H 252.975 -3.53579 -1.60978 0
M  V30 2694 H 254.647 -4.54353 0.797537 0
M  V30 2695 H 252.89 -4.26013 0.818256 0
M  V30 2696 H 253.561 -5.51531 -0.227569 0
M  V30 2697 H 256.037 -3.94019 -1.33746 0
M  V30 2698 H 254.913 -5.03792 -2.17909 0
M  V30 2699 H 255.174 -3.41744 -2.8047 0
M  V30 2700 N 254.233 0.115231 -1.57178 0
M  V30 2701 C 255.481 0.820727 -1.84685 0
M  V30 2702 C 255.802 1.80237 -0.744279 0
M  V30 2703 O 255.072 1.94529 0.231375 0
M  V30 2704 H 253.652 0.306084 -0.681411 0
M  V30 2705 H 256.314 0.101656 -1.94635 0
M  V30 2706 H 255.41 1.36366 -2.80733 0
M  V30 2707 N 255.711 1.52812 0.385517 0
M  V30 2708 C 256.658 1.77838 1.47113 0
M  V30 2709 C 257.628 0.621757 1.54024 0
M  V30 2710 O 258.813 0.861846 1.70226 0
M  V30 2711 C 255.953 1.95618 2.84302 0
M  V30 2712 C 255.066 3.23316 2.86515 0
M  V30 2713 C 254.201 3.31394 4.15152 0
M  V30 2714 C 253.24 4.53201 4.1143 0
M  V30 2715 N 252.377 4.58542 5.3168 0
M  V30 2716 H 257.217 2.70482 1.25073 0
M  V30 2717 H 254.754 1.34006 0.606692 0
M  V30 2718 H 256.712 2.03912 3.63972 0
M  V30 2719 H 255.342 1.06331 3.04784 0
M  V30 2720 H 254.394 3.24076 1.99195 0
M  V30 2721 H 255.706 4.13045 2.79634 0
M  V30 2722 H 254.86 3.3889 5.03228 0
M  V30 2723 H 253.599 2.39645 4.24761 0
M  V30 2724 H 252.604 4.45827 3.21742 0
M  V30 2725 H 253.829 5.46271 4.03442 0
M  V30 2726 H 251.775 3.69686 5.41912 0
M  V30 2727 H 251.692 5.42148 5.26889 0
M  V30 2728 H 252.96 4.70296 6.21644 0
M  V30 2729 N 257.189 -0.644168 1.43834 0
M  V30 2730 C 258.121 -1.76955 1.45669 0
M  V30 2731 C 259.134 -1.58956 0.351666 0
M  V30 2732 O 260.323 -1.6751 0.616644 0
M  V30 2733 C 257.423 -3.14507 1.26248 0
M  V30 2734 C 256.596 -3.59083 2.49757 0
M  V30 2735 C 255.655 -4.75467 2.25427 0
M  V30 2736 O 254.681 -4.84444 2.98836 0
M  V30 2737 N 255.883 -5.66289 1.27661 0
M  V30 2738 H 258.648 -1.75856 2.42682 0
M  V30 2739 H 256.209 -0.828312 1.39106 0
M  V30 2740 H 258.201 -3.90067 1.0784 0
M  V30 2741 H 256.771 -3.10325 0.376478 0
M  V30 2742 H 255.991 -2.7387 2.8353 0
M  V30 2743 H 257.279 -3.85613 3.31934 0
M  V30 2744 H 256.677 -5.61718 0.670064 0
M  V30 2745 H 255.234 -6.41533 1.15234 0
M  V30 2746 N 258.668 -1.30515 -0.883378 0
M  V30 2747 C 259.598 -1.19607 -2.00541 0
M  V30 2748 C 260.579 -0.086346 -1.69881 0
M  V30 2749 O 261.764 -0.268654 -1.92333 0
M  V30 2750 C 258.894 -0.888758 -3.35736 0
M  V30 2751 C 257.848 -1.95659 -3.8066 0
M  V30 2752 C 257.174 -1.50224 -5.13164 0
M  V30 2753 C 258.474 -3.36788 -3.99213 0
M  V30 2754 H 260.168 -2.13476 -2.09925 0
M  V30 2755 H 257.714 -1.02775 -1.00863 0
M  V30 2756 H 259.667 -0.799094 -4.13754 0
M  V30 2757 H 258.391 0.0856125 -3.26488 0
M  V30 2758 H 257.05 -2.03591 -3.04871 0
M  V30 2759 H 256.698 -0.516092 -5.00345 0
M  V30 2760 H 256.398 -2.2165 -5.44192 0
M  V30 2761 H 257.922 -1.42639 -5.93706 0
M  V30 2762 H 259.336 -3.31605 -4.67665 0
M  V30 2763 H 257.733 -4.06314 -4.41621 0
M  V30 2764 H 258.803 -3.78561 -3.03017 0
M  V30 2765 N 260.146 1.09593 -1.13257 0
M  V30 2766 C 261.562 1.33775 -0.870423 0
M  V30 2767 C 261.762 1.95327 0.494926 0
M  V30 2768 O 260.818 2.19853 1.2418 0
M  V30 2769 C 262.131 2.25106 -1.99369 0
M  V30 2770 C 263.679 2.3862 -2.02558 0
M  V30 2771 C 264.154 3.33285 -3.14142 0
M  V30 2772 N 265.645 3.40857 -3.13641 0
M  V30 2773 C 266.38 4.14101 -3.96621 0
M  V30 2774 N 265.876 4.90157 -4.8961 0
M  V30 2775 N 267.669 4.09808 -3.84726 0
M  V30 2776 H 259.82 0.680136 -2.01216 0
M  V30 2777 H 262.083 0.362133 -0.876107 0
M  V30 2778 H 261.789 1.87103 -2.97801 0
M  V30 2779 H 261.663 3.25481 -1.90635 0
M  V30 2780 H 264.05 2.75887 -1.0474 0
M  V30 2781 H 264.131 1.38028 -2.15364 0
M  V30 2782 H 263.775 2.96741 -4.12198 0
M  V30 2783 H 263.705 4.33776 -2.98574 0
M  V30 2784 H 266.196 2.86624 -2.46282 0
M  V30 2785 H 266.509 5.4347 -5.49418 0
M  V30 2786 H 264.854 4.89251 -4.93617 0
M  V30 2787 H 268.045 3.4949 -3.11408 0
M  V30 2788 H 268.218 4.66629 -4.49623 0
M  V30 2789 N 261.624 0.925811 1.2754 0
M  V30 2790 C 263.035 0.610102 1.7645 0
M  V30 2791 C 263.386 -0.874723 1.75622 0
M  V30 2792 O 262.511 -1.68444 1.35851 0
M  V30 2793 C 263.106 1.10073 3.20421 0
M  V30 2794 C 261.665 0.835723 3.67005 0
M  V30 2795 C 260.812 1.26054 2.46993 0
M  V30 2796 H 263.763 1.10579 1.13833 0
M  V30 2797 H 263.784 0.447557 3.77859 0
M  V30 2798 H 263.296 2.18143 3.20991 0
M  V30 2799 H 261.397 -0.231249 3.71882 0
M  V30 2800 H 261.51 1.45193 4.56569 0
M  V30 2801 H 259.874 0.679111 2.45479 0
M  V30 2802 H 260.657 2.34984 2.50275 0
M  V30 2803 N 263.102 -1.41638 0.69111 0
M  V30 2804 C 264.032 -2.3347 0.037248 0
M  V30 2805 C 265.013 -1.51575 -0.771947 0
M  V30 2806 O 266.198 -1.80126 -0.72582 0
M  V30 2807 C 263.328 -3.35354 -0.903064 0
M  V30 2808 C 262.282 -4.27526 -0.201288 0
M  V30 2809 C 261.608 -5.19747 -1.25565 0
M  V30 2810 C 262.908 -5.13959 0.929689 0
M  V30 2811 H 264.602 -2.88397 0.804227 0
M  V30 2812 H 262.148 -1.38669 0.388189 0
M  V30 2813 H 264.101 -3.98519 -1.36969 0
M  V30 2814 H 262.825 -2.78767 -1.70166 0
M  V30 2815 H 261.484 -3.65779 0.245265 0
M  V30 2816 H 261.132 -4.59479 -2.04666 0
M  V30 2817 H 260.832 -5.8225 -0.791128 0
M  V30 2818 H 262.356 -5.85789 -1.72288 0
M  V30 2819 H 263.77 -5.70718 0.543546 0
M  V30 2820 H 262.167 -5.85379 1.32103 0
M  V30 2821 H 263.237 -4.51389 1.77133 0
M  V30 2822 N 264.58 -0.43555 -1.51462 0
M  V30 2823 C 265.81 0.130053 -2.0619 0
M  V30 2824 C 266.218 1.37164 -1.30317 0
M  V30 2825 O 265.561 1.80225 -0.355598 0
M  V30 2826 C 265.623 0.519418 -3.55728 0
M  V30 2827 C 265.287 -0.615119 -4.52841 0
M  V30 2828 C 266.284 -1.48671 -4.9819 0
M  V30 2829 C 263.969 -0.795341 -4.95963 0
M  V30 2830 C 265.963 -2.52324 -5.8533 0
M  V30 2831 C 263.65 -1.83514 -5.82894 0
M  V30 2832 C 264.648 -2.69748 -6.27475 0
M  V30 2833 O 264.336 -3.71944 -7.1268 0
M  V30 2834 H 264.068 0.0121612 -0.675891 0
M  V30 2835 H 266.622 -0.6129 -1.96043 0
M  V30 2836 H 264.852 1.31505 -3.63653 0
M  V30 2837 H 266.541 1.01597 -3.92979 0
M  V30 2838 H 267.307 -1.359 -4.65571 0
M  V30 2839 H 263.186 -0.133713 -4.60806 0
M  V30 2840 H 266.73 -3.19665 -6.20048 0
M  V30 2841 H 262.627 -1.96306 -6.14926 0
M  V30 2842 H 263.395 -3.68503 -7.30854 0
M  V30 2843 N 266.058 1.56714 -0.166846 0
M  V30 2844 C 266.968 2.21331 0.777791 0
M  V30 2845 C 267.984 1.20358 1.25658 0
M  V30 2846 O 269.16 1.53005 1.30964 0
M  V30 2847 C 266.225 2.83787 1.99163 0
M  V30 2848 C 265.286 3.99947 1.56016 0
M  V30 2849 C 264.519 4.59415 2.71613 0
M  V30 2850 O 264.742 4.17769 3.88362 0
M  V30 2851 O 263.676 5.49359 2.45945 0
M  V30 2852 H 267.502 3.02605 0.257636 0
M  V30 2853 H 265.087 1.49275 0.0611393 0
M  V30 2854 H 266.969 3.23405 2.70161 0
M  V30 2855 H 265.644 2.05513 2.50092 0
M  V30 2856 H 264.551 3.65007 0.819809 0
M  V30 2857 H 265.884 4.79801 1.09782 0
M  V30 2858 N 267.536 -0.106894 1.57237 0
M  V30 2859 C 268.446 -1.14911 2.0453 0
M  V30 2860 C 269.462 -1.44592 0.96795 0
M  V30 2861 O 270.638 -1.55468 1.2803 0
M  V30 2862 C 267.703 -2.45272 2.45036 0
M  V30 2863 C 266.764 -2.22879 3.66911 0
M  V30 2864 C 265.997 -3.47024 4.05475 0
M  V30 2865 O 266.22 -4.54804 3.44252 0
M  V30 2866 O 265.154 -3.3731 4.98504 0
M  V30 2867 H 268.98 -0.777461 2.9358 0
M  V30 2868 H 266.565 -0.318563 1.45964 0
M  V30 2869 H 268.447 -3.22055 2.71769 0
M  V30 2870 H 267.122 -2.81886 1.59129 0
M  V30 2871 H 266.029 -1.43915 3.45311 0
M  V30 2872 H 267.362 -1.91163 4.53561 0
M  V30 2873 N 269.014 -1.53014 -0.377408 0
M  V30 2874 C 270.244 -1.72265 -1.14054 0
M  V30 2875 C 270.652 -0.44601 -1.83868 0
M  V30 2876 O 269.995 0.590095 -1.73964 0
M  V30 2877 C 270.057 -2.82492 -2.22348 0
M  V30 2878 C 269.721 -4.23233 -1.72402 0
M  V30 2879 C 270.718 -5.05992 -1.19448 0
M  V30 2880 C 268.403 -4.696 -1.78273 0
M  V30 2881 C 270.397 -6.33203 -0.730268 0
M  V30 2882 C 268.084 -5.96792 -1.31464 0
M  V30 2883 C 269.082 -6.78424 -0.789297 0
M  V30 2884 O 268.77 -8.0323 -0.328077 0
M  V30 2885 H 268.502 -0.579873 -0.347453 0
M  V30 2886 H 271.056 -2.00502 -0.445882 0
M  V30 2887 H 269.286 -2.49702 -2.95272 0
M  V30 2888 H 270.975 -2.90034 -2.83963 0
M  V30 2889 H 271.741 -4.71349 -1.14259 0
M  V30 2890 H 267.62 -4.06142 -2.18106 0
M  V30 2891 H 271.164 -6.96868 -0.319542 0
M  V30 2892 H 267.061 -6.30937 -1.36342 0
M  V30 2893 H 267.829 -8.1727 -0.448493 0
M  V30 2894 N 270.492 0.636531 -1.44174 0
M  V30 2895 C 271.738 1.39826 -1.4689 0
M  V30 2896 C 272.071 1.93947 -0.0990585 0
M  V30 2897 O 271.346 1.73325 0.882544 0
M  V30 2898 C 271.629 2.56751 -2.5249 0
M  V30 2899 C 271.482 2.08014 -3.98811 0
M  V30 2900 C 272.801 3.58946 -2.54649 0
M  V30 2901 H 269.92 0.507075 -0.53483 0
M  V30 2902 H 272.562 0.720188 -1.75822 0
M  V30 2903 H 270.712 3.14597 -2.2795 0
M  V30 2904 H 272.384 1.5504 -4.34466 0
M  V30 2905 H 270.627 1.39242 -4.10846 0
M  V30 2906 H 271.298 2.92169 -4.68339 0
M  V30 2907 H 273.774 3.1089 -2.76563 0
M  V30 2908 H 272.65 4.38286 -3.3045 0
M  V30 2909 H 272.911 4.12655 -1.58646 0
M  V30 2910 N 271.97 1.30982 0.876444 0
M  V30 2911 C 273.216 1.20474 1.63138 0
M  V30 2912 C 273.549 -0.238096 1.92735 0
M  V30 2913 O 272.824 -1.1692 1.55435 0
M  V30 2914 C 273.107 2.04244 2.96574 0
M  V30 2915 C 272.96 3.56793 2.73896 0
M  V30 2916 C 274.279 1.88684 3.97601 0
M  V30 2917 H 271.398 0.439001 0.591985 0
M  V30 2918 H 274.04 1.60704 1.01361 0
M  V30 2919 H 272.19 1.70063 3.493 0
M  V30 2920 H 273.862 4.01077 2.27892 0
M  V30 2921 H 272.105 3.80548 2.08245 0
M  V30 2922 H 272.776 4.10706 3.68815 0
M  V30 2923 H 275.252 2.18584 3.54062 0
M  V30 2924 H 274.128 2.4961 4.88862 0
M  V30 2925 H 274.389 0.848343 4.33884 0
M  V30 2926 N 273.449 -1.08991 1.13837 0
M  V30 2927 C 274.379 -2.17771 0.842507 0
M  V30 2928 C 275.36 -1.6892 -0.20001 0
M  V30 2929 O 276.545 -1.94113 -0.0579731 0
M  V30 2930 C 273.675 -3.4589 0.312644 0
M  V30 2931 C 272.629 -4.08099 1.28992 0
M  V30 2932 C 271.955 -5.31098 0.619623 0
M  V30 2933 C 273.255 -4.50077 2.65005 0
M  V30 2934 H 274.949 -2.42777 1.75213 0
M  V30 2935 H 272.495 -1.16682 0.843875 0
M  V30 2936 H 274.448 -4.21297 0.0933043 0
M  V30 2937 H 273.172 -3.20419 -0.632382 0
M  V30 2938 H 271.831 -3.34717 1.49533 0
M  V30 2939 H 271.479 -5.0191 -0.33102 0
M  V30 2940 H 271.179 -5.73674 1.27167 0
M  V30 2941 H 272.703 -6.09224 0.409669 0
M  V30 2942 H 274.117 -5.16688 2.48407 0
M  V30 2943 H 272.514 -5.03553 3.26427 0
M  V30 2944 H 273.584 -3.62257 3.22332 0
M  V30 2945 N 274.927 -0.932562 -1.27047 0
M  V30 2946 C 275.874 -0.434072 -2.26681 0
M  V30 2947 C 276.844 0.501639 -1.58344 0
M  V30 2948 O 278.029 0.419734 -1.86126 0
M  V30 2949 C 275.169 0.30261 -3.43771 0
M  V30 2950 C 274.282 -0.667774 -4.26808 0
M  V30 2951 C 273.417 0.0892393 -5.31125 0
M  V30 2952 C 272.456 -0.873532 -6.05835 0
M  V30 2953 N 271.593 -0.148832 -7.01942 0
M  V30 2954 H 276.433 -1.28868 -2.68695 0
M  V30 2955 H 273.97 -0.646713 -1.32121 0
M  V30 2956 H 275.928 0.746092 -4.10474 0
M  V30 2957 H 274.558 1.12142 -3.02695 0
M  V30 2958 H 273.61 -1.22978 -3.59973 0
M  V30 2959 H 274.922 -1.40337 -4.78651 0
M  V30 2960 H 274.076 0.592409 -6.03801 0
M  V30 2961 H 272.815 0.85777 -4.80097 0
M  V30 2962 H 271.82 -1.38791 -5.31994 0
M  V30 2963 H 273.045 -1.64193 -6.58952 0
M  V30 2964 H 270.991 0.601365 -6.53238 0
M  V30 2965 H 270.908 -0.82391 -7.51497 0
M  V30 2966 H 272.176 0.333527 -7.78786 0
M  V30 2967 N 276.405 1.4127 -0.698611 0
M  V30 2968 C 277.353 2.32588 -0.023855 0
M  V30 2969 C 278.347 1.51128 0.765292 0
M  V30 2970 O 279.553 1.67043 0.670571 0
M  V30 2971 H 275.928 0.751918 0.0110871 0
M  V30 2972 H 277.899 2.87167 -0.811031 0
M  V30 2973 C 276.648 3.35947 0.896369 0
M  V30 2974 H 275.971 3.98684 0.298548 0
M  V30 2975 H 277.411 4.02376 1.33676 0
M  V30 2976 C 275.87 2.70076 2.01396 0
M  V30 2977 O 276.4 2.55093 3.10307 0
M  V30 2978 N 274.606 2.28724 1.79259 0
M  V30 2979 H 274.153 2.4111 0.906841 0
M  V30 2980 H 274.111 1.84986 2.54219 0
M  V30 2981 N 277.883 0.443576 1.51229 0
M  V30 2982 C 278.793 -0.370721 2.31652 0
M  V30 2983 C 279.809 -1.02186 1.40833 0
M  V30 2984 O 280.985 -1.01586 1.73903 0
M  V30 2985 C 278.05 -1.45376 3.14749 0
M  V30 2986 C 277.111 -0.822099 4.21355 0
M  V30 2987 C 276.344 -1.85353 5.0048 0
M  V30 2988 O 276.567 -3.07656 4.80316 0
M  V30 2989 O 275.501 -1.4406 5.84406 0
M  V30 2990 H 279.327 0.286002 3.0235 0
M  V30 2991 H 276.912 0.20598 1.47973 0
M  V30 2992 H 278.794 -2.08173 3.66391 0
M  V30 2993 H 277.469 -2.09445 2.46809 0
M  V30 2994 H 276.376 -0.155909 3.73775 0
M  V30 2995 H 277.709 -0.224797 4.91686 0
M  V30 2996 N 279.361 -1.56624 0.175154 0
M  V30 2997 C 280.294 -2.14 -0.792412 0
M  V30 2998 C 281.272 -1.07114 -1.22333 0
M  V30 2999 O 282.456 -1.35112 -1.31442 0
M  V30 3000 C 279.583 -2.68268 -2.0676 0
M  V30 3001 C 278.629 -3.87562 -1.7804 0
M  V30 3002 S 279.462 -5.27074 -0.946222 0
M  V30 3003 C 280.618 -5.8475 -2.23199 0
M  V30 3004 H 280.851 -2.95736 -0.304588 0
M  V30 3005 H 278.384 -1.54349 -0.0395705 0
M  V30 3006 H 280.342 -3.00182 -2.80002 0
M  V30 3007 H 279.003 -1.86612 -2.52656 0
M  V30 3008 H 278.196 -4.23874 -2.72666 0
M  V30 3009 H 277.798 -3.56555 -1.12891 0
M  V30 3010 H 280.09 -5.97898 -3.18629 0
M  V30 3011 H 281.033 -6.81756 -1.91349 0
M  V30 3012 H 281.441 -5.13198 -2.35134 0
M  V30 3013 N 280.839 0.0985539 -1.57292 0
M  V30 3014 C 281.802 1.10402 -2.00858 0
M  V30 3015 C 282.802 1.33146 -0.901593 0
M  V30 3016 O 283.992 1.29318 -1.16716 0
M  V30 3017 C 281.124 2.45394 -2.36632 0
M  V30 3018 H 282.317 0.729099 -2.90902 0
M  V30 3019 H 279.87 0.343495 -1.52479 0
M  V30 3020 H 280.605 2.87769 -1.49531 0
M  V30 3021 H 280.39 2.30235 -3.17387 0
M  V30 3022 H 281.88 3.17718 -2.71007 0
M  V30 3023 N 282.317 1.53212 0.369288 0
M  V30 3024 C 283.733 1.42902 0.710712 0
M  V30 3025 C 283.933 0.565135 1.93413 0
M  V30 3026 O 282.989 0.0461484 2.52458 0
M  V30 3027 C 284.302 2.86042 0.927382 0
M  V30 3028 C 285.85 2.9565 1.02762 0
M  V30 3029 C 286.325 4.39843 1.27679 0
M  V30 3030 N 287.816 4.43256 1.34457 0
M  V30 3031 C 288.551 5.51929 1.55439 0
M  V30 3032 N 288.047 6.70655 1.73762 0
M  V30 3033 N 289.84 5.39502 1.57779 0
M  V30 3034 H 281.991 2.07888 -0.435457 0
M  V30 3035 H 284.254 0.938661 -0.132739 0
M  V30 3036 H 283.96 3.51557 0.100287 0
M  V30 3037 H 283.834 3.29472 1.83653 0
M  V30 3038 H 286.221 2.30291 1.84527 0
M  V30 3039 H 286.302 2.5562 0.0959504 0
M  V30 3040 H 285.946 5.05774 0.464175 0
M  V30 3041 H 285.876 4.77443 2.22162 0
M  V30 3042 H 288.367 3.5769 1.21926 0
M  V30 3043 H 288.68 7.49248 1.89335 0
M  V30 3044 H 287.025 6.73648 1.70948 0
M  V30 3045 H 290.216 4.45713 1.43029 0
M  V30 3046 H 290.389 6.2426 1.7379 0
M  V30 3047 N 283.795 -0.628877 1.44509 0
M  V30 3048 C 284.758 -1.72263 1.51188 0
M  V30 3049 C 285.758 -1.55907 0.39367 0
M  V30 3050 O 286.948 -1.61361 0.656377 0
M  V30 3051 C 284.08 -3.11365 1.38798 0
M  V30 3052 H 285.273 -1.67714 2.4862 0
M  V30 3053 H 282.826 -0.842737 1.31634 0
M  V30 3054 H 283.561 -3.21507 0.424693 0
M  V30 3055 H 283.346 -3.24644 2.19884 0
M  V30 3056 H 284.836 -3.91075 1.46458 0
M  V30 3057 N 285.273 -1.31445 -0.869486 0
M  V30 3058 C 286.221 -1.19067 -1.99814 0
M  V30 3059 C 287.215 -0.0988569 -1.69111 0
M  V30 3060 O 288.421 -0.260781 -1.78101 0
M  V30 3061 H 284.796 -0.368677 -0.655425 0
M  V30 3062 H 286.767 -2.14555 -2.07385 0
M  V30 3063 C 285.516 -0.915323 -3.35436 0
M  V30 3064 H 284.839 -1.74759 -3.59582 0
M  V30 3065 H 286.279 -0.868895 -4.15001 0
M  V30 3066 C 284.738 0.381928 -3.34728 0
M  V30 3067 O 285.268 1.39857 -3.76567 0
M  V30 3068 N 283.474 0.398633 -2.87853 0
M  V30 3069 H 283.021 -0.429186 -2.54 0
M  V30 3070 H 282.979 1.26651 -2.87762 0
M  V30 3071 N 286.751 1.08385 -1.14413 0
M  V30 3072 C 287.701 2.13509 -0.79987 0
M  V30 3073 C 288.685 1.5951 0.211059 0
M  V30 3074 O 289.877 1.76995 0.0133694 0
M  V30 3075 C 287.006 3.42162 -0.279297 0
M  V30 3076 C 286.092 4.03042 -1.31976 0
M  V30 3077 N 286.483 4.38327 -2.52395 0
M  V30 3078 C 284.781 4.30379 -1.17004 0
M  V30 3079 C 285.482 4.86428 -3.19003 0
M  V30 3080 N 284.458 4.84547 -2.46405 0
M  V30 3081 H 288.26 2.38609 -1.7159 0
M  V30 3082 H 285.774 1.2572 -1.02802 0
M  V30 3083 H 287.771 4.16898 -0.0143688 0
M  V30 3084 H 286.431 3.18511 0.630923 0
M  V30 3085 H 287.442 4.29349 -2.89621 0
M  V30 3086 H 284.119 4.16281 -0.318854 0
M  V30 3087 H 285.509 5.23107 -4.21674 0
M  V30 3088 N 288.23 0.939286 1.26551 0
M  V30 3089 C 289.46 0.601663 1.97645 0
M  V30 3090 C 289.868 -0.827206 1.70159 0
M  V30 3091 O 289.211 -1.56291 0.965338 0
M  V30 3092 C 289.273 0.761725 3.51337 0
M  V30 3093 C 288.937 2.16487 4.0247 0
M  V30 3094 C 289.934 3.14016 4.14355 0
M  V30 3095 C 287.619 2.48494 4.36527 0
M  V30 3096 C 289.613 4.41654 4.59587 0
M  V30 3097 C 287.3 3.76364 4.81449 0
M  V30 3098 C 288.298 4.72758 4.92939 0
M  V30 3099 O 287.986 5.98352 5.36871 0
M  V30 3100 H 287.718 0.225758 0.637189 0
M  V30 3101 H 290.272 1.26178 1.62075 0
M  V30 3102 H 288.502 0.0444808 3.86674 0
M  V30 3103 H 290.191 0.427442 4.03643 0
M  V30 3104 H 290.957 2.90613 3.8829 0
M  V30 3105 H 286.836 1.74202 4.26819 0
M  V30 3106 H 290.38 5.16896 4.68471 0
M  V30 3107 H 286.277 3.99582 5.06956 0
M  V30 3108 H 287.045 6.01507 5.55096 0
M  V30 3109 N 289.708 -1.40897 0.706093 0
M  V30 3110 C 290.618 -2.3455 0.0482286 0
M  V30 3111 C 291.634 -1.56796 -0.754396 0
M  V30 3112 O 292.81 -1.89228 -0.689538 0
M  V30 3113 C 289.875 -3.35625 -0.869303 0
M  V30 3114 C 288.936 -4.29261 -0.0576994 0
M  V30 3115 C 288.169 -5.25508 -0.931531 0
M  V30 3116 O 288.392 -5.27472 -2.17092 0
M  V30 3117 O 287.326 -6.00727 -0.375587 0
M  V30 3118 H 291.152 -2.92407 0.820476 0
M  V30 3119 H 288.737 -1.4193 0.4665 0
M  V30 3120 H 290.619 -3.97635 -1.39514 0
M  V30 3121 H 289.294 -2.80196 -1.62086 0
M  V30 3122 H 288.201 -3.70566 0.512988 0
M  V30 3123 H 289.534 -4.87817 0.655426 0
M  V30 3124 N 291.186 -0.45159 -1.50991 0
M  V30 3125 C 292.463 0.170707 -1.94854 0
M  V30 3126 C 292.843 1.58788 -1.39103 0
M  V30 3127 O 292.191 2.20913 -0.583921 0
M  V30 3128 C 292.401 0.133929 -3.48743 0
M  V30 3129 C 293.749 0.33248 -4.23296 0
M  V30 3130 O 294.773 0.211403 -3.55572 0
M  V30 3131 O 293.632 0.57486 -5.43468 0
M  V30 3132 H 290.726 0.122264 -0.817912 0
M  V30 3133 H 293.272 -0.510594 -1.61836 0
M  V30 3134 H 292.044 -0.856283 -3.81816 0
M  V30 3135 H 291.667 0.857529 -3.88242 0
M  V30 3136 N 292.664 1.56529 -0.183458 0
M  V30 3137 C 293.894 2.01331 0.463612 0
M  V30 3138 C 294.302 1.06278 1.5653 0
M  V30 3139 O 293.645 0.0577976 1.83609 0
M  V30 3140 C 293.707 3.42547 1.09096 0
M  V30 3141 C 293.371 4.56817 0.129442 0
M  V30 3142 C 294.368 5.15734 -0.656807 0
M  V30 3143 C 292.053 5.02295 0.02174 0
M  V30 3144 C 294.047 6.1857 -1.53784 0
M  V30 3145 C 291.734 6.04978 -0.862864 0
M  V30 3146 C 292.732 6.62988 -1.64123 0
M  V30 3147 O 292.42 7.63677 -2.51103 0
M  V30 3148 H 292.152 0.664917 0.121907 0
M  V30 3149 H 294.706 2.034 -0.285954 0
M  V30 3150 H 292.936 3.37428 1.88889 0
M  V30 3151 H 294.625 3.71228 1.64148 0
M  V30 3152 H 295.391 4.81473 -0.583839 0
M  V30 3153 H 291.27 4.56847 0.617392 0
M  V30 3154 H 294.814 6.63777 -2.14583 0
M  V30 3155 H 290.711 6.38663 -0.93699 0
M  V30 3156 H 291.479 7.81049 -2.44753 0
M  V30 3157 N 294.142 -0.090211 1.57342 0
M  V30 3158 C 295.39 -0.791241 1.85967 0
M  V30 3159 C 295.711 -1.7903 0.772859 0
M  V30 3160 O 294.981 -1.94872 -0.200398 0
M  V30 3161 H 293.561 -0.295205 0.686195 0
M  V30 3162 H 296.223 -0.0706782 1.94772 0
M  V30 3163 H 295.319 -1.31882 2.82867 0
M  V30 3164 N 295.62 -1.53406 -0.361157 0
M  V30 3165 C 296.897 -1.60411 -1.11927 0
M  V30 3166 C 297.277 -0.414385 -2.06993 0
M  V30 3167 O 296.625 0.594976 -2.20618 0
M  V30 3168 C 296.835 -2.95652 -1.85448 0
M  V30 3169 C 298.183 -3.50386 -2.39823 0
M  V30 3170 O 299.207 -2.97711 -1.95568 0
M  V30 3171 O 298.066 -4.42482 -3.20737 0
M  V30 3172 H 295.16 -0.64811 -0.513695 0
M  V30 3173 H 297.706 -1.65749 -0.364065 0
M  V30 3174 H 296.478 -3.73682 -1.16091 0
M  V30 3175 H 296.101 -2.93825 -2.67866 0
M  V30 3176 N 297.098 0.621204 -1.44841 0
M  V30 3177 C 298.328 1.40548 -1.51426 0
M  V30 3178 C 298.736 1.88673 -0.141083 0
M  V30 3179 O 298.079 1.62053 0.865128 0
M  V30 3180 C 298.141 2.65325 -2.42576 0
M  V30 3181 C 297.805 2.3893 -3.89566 0
M  V30 3182 C 298.802 2.00138 -4.79834 0
M  V30 3183 C 296.487 2.52263 -4.3436 0
M  V30 3184 C 298.481 1.75021 -6.129 0
M  V30 3185 C 296.168 2.2676 -5.67471 0
M  V30 3186 C 297.166 1.88199 -6.56559 0
M  V30 3187 O 296.854 1.62986 -7.87204 0
M  V30 3188 H 296.586 0.437122 -0.515655 0
M  V30 3189 H 299.14 0.765987 -1.90583 0
M  V30 3190 H 297.37 3.31947 -1.98364 0
M  V30 3191 H 299.059 3.27347 -2.39998 0
M  V30 3192 H 299.825 1.89386 -4.46495 0
M  V30 3193 H 295.704 2.81246 -3.65269 0
M  V30 3194 H 299.248 1.44848 -6.82396 0
M  V30 3195 H 295.145 2.37125 -6.00368 0
M  V30 3196 H 295.913 1.7715 -7.991 0
M  V30 3197 N 298.576 1.31904 0.862503 0
M  V30 3198 C 299.822 1.23207 1.61838 0
M  V30 3199 C 300.177 -0.206062 1.91293 0
M  V30 3200 O 299.47 -1.14162 1.53875 0
M  V30 3201 C 299.664 2.01713 2.95037 0
M  V30 3202 C 299.493 3.53014 2.78588 0
M  V30 3203 C 298.263 4.22359 2.77382 0
M  V30 3204 C 300.461 4.47819 2.52909 0
M  V30 3205 N 298.443 5.59766 2.52062 0
M  V30 3206 C 299.814 5.72947 2.36922 0
M  V30 3207 C 301.869 4.37162 2.38314 0
M  V30 3208 C 300.572 6.88623 2.07823 0
M  V30 3209 C 302.598 5.5263 2.10604 0
M  V30 3210 C 301.96 6.76752 1.95411 0
M  V30 3211 H 298.059 0.505984 0.596242 0
M  V30 3212 H 300.643 1.66179 1.01452 0
M  V30 3213 H 298.814 1.61098 3.53415 0
M  V30 3214 H 300.546 1.84975 3.59953 0
M  V30 3215 H 297.301 3.74401 2.90036 0
M  V30 3216 H 297.725 6.32135 2.42352 0
M  V30 3217 H 302.367 3.41857 2.48784 0
M  V30 3218 H 300.085 7.83948 1.9609 0
M  V30 3219 H 303.671 5.46307 2.00101 0
M  V30 3220 H 302.551 7.6459 1.74274 0
M  V30 3221 N 300.054 -1.07777 1.14986 0
M  V30 3222 C 301.47 -1.32373 0.891596 0
M  V30 3223 C 301.67 -1.9609 -0.463788 0
M  V30 3224 O 300.726 -2.21801 -1.20667 0
M  V30 3225 C 302.039 -2.21905 2.02925 0
M  V30 3226 C 303.587 -2.35367 2.06329 0
M  V30 3227 C 304.062 -3.28245 3.19405 0
M  V30 3228 N 305.553 -3.35824 3.19024 0
M  V30 3229 C 306.288 -4.07739 4.03158 0
M  V30 3230 N 305.784 -4.82306 4.97346 0
M  V30 3231 N 307.577 -4.03635 3.91197 0
M  V30 3232 H 299.728 -0.648039 2.02273 0
M  V30 3233 H 301.991 -0.348149 0.881757 0
M  V30 3234 H 301.697 -1.82342 3.0074 0
M  V30 3235 H 301.571 -3.22407 1.95789 0
M  V30 3236 H 303.958 -2.74186 1.09116 0
M  V30 3237 H 304.039 -1.34585 2.17533 0
M  V30 3238 H 303.683 -2.90146 4.16867 0
M  V30 3239 H 303.613 -4.28971 3.05437 0
M  V30 3240 H 306.104 -2.8267 2.50811 0
M  V30 3241 H 306.417 -5.34661 5.57994 0
M  V30 3242 H 304.762 -4.81337 5.01338 0
M  V30 3243 H 307.953 -3.44491 3.16928 0
M  V30 3244 H 308.126 -4.59417 4.5699 0
M  V30 3245 N 301.532 -0.945985 -1.26051 0
M  V30 3246 C 302.78 -0.594941 -1.93145 0
M  V30 3247 C 303.101 0.86953 -1.7454 0
M  V30 3248 O 302.371 1.61838 -1.10387 0
M  V30 3249 H 300.951 -0.217044 -0.714773 0
M  V30 3250 H 303.613 -1.20235 -1.53393 0
M  V30 3251 H 302.709 -0.816835 -3.01221 0
M  V30 3252 N 303.011 1.40521 -0.713556 0
M  V30 3253 C 304.288 1.94775 -0.17943 0
M  V30 3254 C 304.668 1.65184 1.31444 0
M  V30 3255 O 304.016 0.968429 2.06963 0
M  V30 3256 C 304.226 3.45543 -0.489986 0
M  V30 3257 C 305.574 4.22442 -0.427536 0
M  V30 3258 O 306.598 3.53644 -0.425929 0
M  V30 3259 O 305.457 5.4501 -0.403292 0
M  V30 3260 H 302.551 0.826606 -0.0255192 0
M  V30 3261 H 305.097 1.5014 -0.790949 0
M  V30 3262 H 303.869 3.60432 -1.5233 0
M  V30 3263 H 303.492 3.97311 0.151598 0
M  V30 3264 N 304.489 0.459591 1.5075 0
M  V30 3265 C 305.719 -0.0972338 2.06371 0
M  V30 3266 C 306.127 -1.35074 1.32483 0
M  V30 3267 O 305.47 -1.79637 0.384226 0
M  V30 3268 C 305.532 -0.462759 3.56509 0
M  V30 3269 C 305.196 0.687084 4.51805 0
M  V30 3270 C 306.193 1.56578 4.95761 0
M  V30 3271 C 303.878 0.874144 4.94635 0
M  V30 3272 C 305.872 2.61604 5.81242 0
M  V30 3273 C 303.559 1.92765 5.79901 0
M  V30 3274 C 304.557 2.79697 6.23104 0
M  V30 3275 O 304.245 3.83235 7.06673 0
M  V30 3276 H 303.977 -0.00140687 0.675999 0
M  V30 3277 H 306.531 0.644011 1.95043 0
M  V30 3278 H 304.761 -1.25703 3.65699 0
M  V30 3279 H 306.45 -0.953323 3.94546 0
M  V30 3280 H 307.216 1.4329 4.6335 0
M  V30 3281 H 303.095 0.207006 4.60535 0
M  V30 3282 H 306.639 3.29489 6.14884 0
M  V30 3283 H 302.536 2.06064 6.11725 0
M  V30 3284 H 303.304 3.80084 7.24899 0
M  V30 3285 N 305.967 -1.56429 0.191757 0
M  V30 3286 C 306.877 -2.22541 -0.742481 0
M  V30 3287 C 307.893 -1.22342 -1.23727 0
M  V30 3288 O 309.069 -1.55069 -1.28513 0
M  V30 3289 C 306.134 -2.8692 -1.94623 0
M  V30 3290 C 305.195 -4.02378 -1.49633 0
M  V30 3291 C 304.428 -4.63678 -2.6427 0
M  V30 3292 O 304.651 -4.23895 -3.81666 0
M  V30 3293 O 303.585 -5.53202 -2.37174 0
M  V30 3294 H 307.411 -3.02977 -0.209462 0
M  V30 3295 H 304.996 -1.49353 -0.0373832 0
M  V30 3296 H 306.878 -3.27663 -2.64982 0
M  V30 3297 H 305.553 -2.09466 -2.46791 0
M  V30 3298 H 304.46 -3.66265 -0.761636 0
M  V30 3299 H 305.793 -4.81487 -1.02134 0
M  V30 3300 N 307.445 0.0818655 -1.57387 0
M  V30 3301 C 308.691 0.784074 -1.8703 0
M  V30 3302 C 309.024 1.77729 -0.782689 0
M  V30 3303 O 308.299 1.93384 0.208051 0
M  V30 3304 C 308.582 1.50105 -3.27323 0
M  V30 3305 C 308.435 0.524925 -4.46727 0
M  V30 3306 C 309.754 2.44843 -3.65705 0
M  V30 3307 H 306.873 0.283582 -0.680257 0
M  V30 3308 H 309.515 0.0474352 -1.89941 0
M  V30 3309 H 307.665 2.12897 -3.24972 0
M  V30 3310 H 309.337 -0.0970111 -4.61198 0
M  V30 3311 H 307.58 -0.160606 -4.33503 0
M  V30 3312 H 308.251 1.064 -5.41648 0
M  V30 3313 H 310.727 1.92135 -3.69085 0
M  V30 3314 H 309.603 2.92018 -4.64776 0
M  V30 3315 H 309.864 3.29197 -2.95096 0
M  V30 3316 N 308.923 1.53595 0.353017 0
M  V30 3317 C 309.871 1.81605 1.45335 0
M  V30 3318 C 310.865 0.685923 1.54892 0
M  V30 3319 O 312.071 0.869095 1.57628 0
M  V30 3320 H 308.446 0.575204 0.484401 0
M  V30 3321 H 310.417 2.73679 1.18921 0
M  V30 3322 C 309.166 2.03406 2.81995 0
M  V30 3323 H 308.489 2.89814 2.75405 0
M  V30 3324 H 309.929 2.26975 3.58132 0
M  V30 3325 C 308.388 0.816794 3.26849 0
M  V30 3326 O 308.918 0.0115856 4.01698 0
M  V30 3327 N 307.124 0.636682 2.8354 0
M  V30 3328 H 306.671 1.2931 2.22793 0
M  V30 3329 H 306.629 -0.176336 3.13905 0
M  V30 3330 N 310.401 -0.613514 1.45168 0
M  V30 3331 C 311.649 -1.36997 1.48581 0
M  V30 3332 C 311.97 -1.94589 0.126545 0
M  V30 3333 O 311.24 -1.76816 -0.843372 0
M  V30 3334 H 309.82 -0.508558 0.547154 0
M  V30 3335 H 312.482 -0.720853 1.81079 0
M  V30 3336 H 311.578 -2.1924 2.22127 0
M  V30 3337 N 311.879 -1.3236 -0.855495 0
M  V30 3338 C 313.125 -1.23054 -1.612 0
M  V30 3339 C 313.458 0.207404 -1.93089 0
M  V30 3340 O 312.733 1.14432 -1.57275 0
M  V30 3341 C 313.016 -2.08937 -2.93287 0
M  V30 3342 C 312.869 -3.61105 -2.68185 0
M  V30 3343 C 314.188 -1.94986 -3.94549 0
M  V30 3344 H 311.307 -0.448364 -0.584926 0
M  V30 3345 H 313.949 -1.62297 -0.987917 0
M  V30 3346 H 312.099 -1.75599 -3.46551 0
M  V30 3347 H 313.771 -4.04652 -2.21483 0
M  V30 3348 H 312.014 -3.83813 -2.02164 0
M  V30 3349 H 312.685 -4.16522 -3.62234 0
M  V30 3350 H 315.161 -2.24189 -3.5054 0
M  V30 3351 H 314.037 -2.57356 -4.84829 0
M  V30 3352 H 314.298 -0.917263 -4.3248 0
M  V30 3353 N 313.357 1.07166 -1.15556 0
M  V30 3354 C 314.634 1.76546 -0.842069 0
M  V30 3355 C 315.014 2.00453 0.661939 0
M  V30 3356 O 314.362 1.62452 1.60691 0
M  V30 3357 C 314.572 3.07266 -1.65495 0
M  V30 3358 C 315.92 3.81578 -1.86234 0
M  V30 3359 O 316.944 3.17083 -1.62287 0
M  V30 3360 O 315.803 4.97419 -2.26355 0
M  V30 3361 H 312.897 0.766756 -0.309862 0
M  V30 3362 H 315.443 1.13514 -1.26145 0
M  V30 3363 H 314.215 2.85494 -2.67598 0
M  V30 3364 H 313.838 3.7803 -1.23203 0
M  V30 3365 N 314.835 0.952656 1.25548 0
M  V30 3366 C 316.083 0.605176 1.92826 0
M  V30 3367 C 316.404 -0.860261 1.74999 0
M  V30 3368 O 315.674 -1.6125 1.11244 0
M  V30 3369 H 314.254 0.220832 0.713612 0
M  V30 3370 H 316.916 1.21047 1.52754 0
M  V30 3371 H 316.012 0.832798 3.00784 0
M  V30 3372 N 316.313 -1.40141 0.720998 0
M  V30 3373 C 317.543 -2.04798 0.27226 0
M  V30 3374 C 317.951 -1.54442 -1.09289 0
M  V30 3375 O 317.294 -0.698342 -1.69908 0
M  V30 3376 C 317.356 -3.59048 0.18027 0
M  V30 3377 C 317.02 -4.32317 1.48159 0
M  V30 3378 C 318.017 -4.59902 2.42458 0
M  V30 3379 C 315.702 -4.71125 1.74202 0
M  V30 3380 C 317.696 -5.25288 3.61042 0
M  V30 3381 C 315.383 -5.36242 2.93066 0
M  V30 3382 C 316.381 -5.63254 3.86308 0
M  V30 3383 O 316.069 -6.27024 5.03086 0
M  V30 3384 H 315.801 -0.665419 0.119139 0
M  V30 3385 H 318.355 -1.80436 0.981432 0
M  V30 3386 H 316.585 -3.82251 -0.58489 0
M  V30 3387 H 318.274 -4.05221 -0.234618 0
M  V30 3388 H 319.04 -4.30379 2.23604 0
M  V30 3389 H 314.919 -4.49466 1.02477 0
M  V30 3390 H 318.463 -5.46289 4.33837 0
M  V30 3391 H 314.36 -5.65185 3.11826 0
M  V30 3392 H 315.128 -6.4552 5.03235 0
M  V30 3393 N 317.792 -0.46758 -1.50504 0
M  V30 3394 C 319.069 0.15003 -1.95024 0
M  V30 3395 C 319.449 1.57304 -1.40779 0
M  V30 3396 O 318.797 2.20281 -0.607319 0
M  V30 3397 C 319.007 0.0969324 -3.48865 0
M  V30 3398 C 320.355 0.287565 -4.23625 0
M  V30 3399 O 321.379 0.173678 -3.55776 0
M  V30 3400 O 320.238 0.517186 -5.44047 0
M  V30 3401 H 317.332 0.113582 -0.819163 0
M  V30 3402 H 319.878 -0.52773 -1.61286 0
M  V30 3403 H 318.65 -0.896732 -3.80886 0
M  V30 3404 H 318.273 0.816303 -3.8913 0
M  V30 3405 N 319.27 1.56325 -0.20005 0
M  V30 3406 C 320.5 2.01811 0.442232 0
M  V30 3407 C 320.908 1.07932 1.55394 0
M  V30 3408 O 320.251 0.0772685 1.83537 0
M  V30 3409 C 320.313 3.43685 1.05457 0
M  V30 3410 C 319.977 4.56928 0.0809833 0
M  V30 3411 C 320.974 5.15009 -0.711471 0
M  V30 3412 C 318.659 5.0229 -0.0315364 0
M  V30 3413 C 320.653 6.16904 -1.60336 0
M  V30 3414 C 318.34 6.04028 -0.926981 0
M  V30 3415 C 319.338 6.6121 -1.71146 0
M  V30 3416 O 319.026 7.60971 -2.59189 0
M  V30 3417 H 318.758 0.666173 0.114848 0
M  V30 3418 H 321.312 2.03085 -0.307511 0
M  V30 3419 H 319.542 3.39413 1.85299 0
M  V30 3420 H 321.231 3.72948 1.60201 0
M  V30 3421 H 321.997 4.80827 -0.634873 0
M  V30 3422 H 317.876 4.57476 0.568902 0
M  V30 3423 H 321.42 6.61464 -2.21611 0
M  V30 3424 H 317.317 6.37634 -1.00468 0
M  V30 3425 H 318.085 7.7841 -2.53023 0
M  V30 3426 N 320.748 -0.0735177 1.57428 0
M  V30 3427 C 321.973 -0.789787 1.91774 0
M  V30 3428 C 322.398 -1.70413 0.796306 0
M  V30 3429 O 321.756 -1.79555 -0.250961 0
M  V30 3430 C 321.804 -1.5609 3.25067 0
M  V30 3431 O 320.908 -2.67144 3.14178 0
M  V30 3432 H 320.249 -0.215582 0.628029 0
M  V30 3433 H 322.779 -0.0422781 2.04556 0
M  V30 3434 H 322.789 -1.94052 3.58898 0
M  V30 3435 H 321.464 -0.890015 4.06265 0
M  V30 3436 H 320.041 -2.32052 2.91901 0
M  V30 3437 N 322.226 -1.5378 -0.344866 0
M  V30 3438 C 323.642 -1.44015 -0.687888 0
M  V30 3439 C 323.842 -0.595834 -1.92489 0
M  V30 3440 O 322.898 -0.0863064 -2.52352 0
M  V30 3441 C 324.211 -2.87481 -0.881758 0
M  V30 3442 C 325.759 -2.97247 -0.980459 0
M  V30 3443 C 326.234 -4.41819 -1.20665 0
M  V30 3444 N 327.725 -4.45339 -1.27389 0
M  V30 3445 C 328.46 -5.54333 -1.46639 0
M  V30 3446 N 327.956 -6.73335 -1.63071 0
M  V30 3447 N 329.749 -5.41944 -1.49176 0
M  V30 3448 H 321.9 -2.07169 0.468475 0
M  V30 3449 H 324.163 -0.93643 0.147655 0
M  V30 3450 H 323.869 -3.51672 -0.0443444 0
M  V30 3451 H 323.743 -3.32352 -1.78388 0
M  V30 3452 H 326.13 -2.33197 -1.8084 0
M  V30 3453 H 326.211 -2.5574 -0.0552713 0
M  V30 3454 H 325.855 -5.06449 -0.383652 0
M  V30 3455 H 325.785 -4.80917 -2.14539 0
M  V30 3456 H 328.276 -3.59585 -1.1622 0
M  V30 3457 H 328.589 -7.52165 -1.77391 0
M  V30 3458 H 326.934 -6.76282 -1.60209 0
M  V30 3459 H 330.125 -4.47932 -1.3592 0
M  V30 3460 H 330.298 -6.26946 -1.63837 0
M  V30 3461 N 323.704 0.605807 -1.45491 0
M  V30 3462 C 324.952 1.36207 -1.49305 0
M  V30 3463 C 325.273 1.94519 -0.136863 0
M  V30 3464 O 324.543 1.77261 0.833983 0
M  V30 3465 H 323.123 0.50565 -0.549843 0
M  V30 3466 H 325.785 0.711239 -1.81459 0
M  V30 3467 H 324.881 2.18058 -2.23287 0
M  V30 3468 N 325.182 1.32811 0.848464 0
M  V30 3469 C 326.114 1.18095 1.96433 0
M  V30 3470 C 327.127 0.114354 1.62398 0
M  V30 3471 O 328.316 0.363892 1.74751 0
M  V30 3472 C 325.416 0.786798 3.2964 0
M  V30 3473 C 324.589 1.943 3.91875 0
M  V30 3474 C 323.648 1.53138 5.03423 0
M  V30 3475 O 322.674 2.24432 5.23086 0
M  V30 3476 N 323.876 0.430915 5.78898 0
M  V30 3477 H 326.641 2.14218 2.09597 0
M  V30 3478 H 324.202 1.2543 1.02367 0
M  V30 3479 H 326.194 0.493715 4.01677 0
M  V30 3480 H 324.764 -0.0834541 3.12489 0
M  V30 3481 H 323.984 2.40224 3.12547 0
M  V30 3482 H 325.272 2.71689 4.30189 0
M  V30 3483 H 324.67 -0.162333 5.65467 0
M  V30 3484 H 323.227 0.197466 6.51501 0
M  V30 3485 N 326.66 -1.06551 1.16123 0
M  V30 3486 C 327.59 -2.15935 0.88851 0
M  V30 3487 C 328.571 -1.69306 -0.164135 0
M  V30 3488 O 329.756 -1.94193 -0.0167857 0
M  V30 3489 C 326.886 -3.45149 0.385942 0
M  V30 3490 C 325.84 -4.05271 1.3762 0
M  V30 3491 C 325.166 -5.29664 0.732137 0
M  V30 3492 C 326.466 -4.44355 2.74493 0
M  V30 3493 H 328.16 -2.39006 1.80323 0
M  V30 3494 H 325.706 -1.14866 0.868435 0
M  V30 3495 H 327.659 -4.21004 0.182647 0
M  V30 3496 H 326.383 -3.21689 -0.564274 0
M  V30 3497 H 325.042 -3.3147 1.56599 0
M  V30 3498 H 324.69 -5.02499 -0.224483 0
M  V30 3499 H 324.39 -5.70848 1.39307 0
M  V30 3500 H 325.914 -6.08218 0.538802 0
M  V30 3501 H 327.328 -5.11303 2.59311 0
M  V30 3502 H 325.725 -4.96515 3.37035 0
M  V30 3503 H 326.795 -3.55339 3.29943 0
M  V30 3504 N 328.138 -0.959301 -1.25041 0
M  V30 3505 C 329.387 -0.612254 -1.92183 0
M  V30 3506 C 329.7 0.855347 -1.75907 0
M  V30 3507 O 330.906 1.31256 -2.37664 0
M  V30 3508 C 329.362 -1.04435 -3.44414 0
M  V30 3509 C 328.97 -2.53482 -3.69393 0
M  V30 3510 C 330.714 -0.770055 -4.17457 0
M  V30 3511 C 328.621 -2.90468 -5.15153 0
M  V30 3512 H 327.551 -0.225279 -0.719559 0
M  V30 3513 H 330.202 -1.16438 -1.41825 0
M  V30 3514 H 328.584 -0.4206 -3.9376 0
M  V30 3515 H 329.758 -3.20916 -3.30681 0
M  V30 3516 H 328.073 -2.78432 -3.0962 0
M  V30 3517 H 330.67 -1.02249 -5.24832 0
M  V30 3518 H 331.013 0.293611 -4.15263 0
M  V30 3519 H 331.546 -1.35437 -3.74034 0
M  V30 3520 H 328.285 -3.95871 -5.22462 0
M  V30 3521 H 327.805 -2.27711 -5.54894 0
M  V30 3522 H 329.484 -2.79914 -5.83315 0
M  V30 3523 N 329.616 1.39756 -0.72842 0
M  V30 3524 C 330.526 2.34444 -0.0855374 0
M  V30 3525 C 331.542 1.57976 0.729356 0
M  V30 3526 O 332.718 1.90301 0.659346 0
M  V30 3527 C 329.783 3.36965 0.815798 0
M  V30 3528 C 328.844 4.29299 -0.0105996 0
M  V30 3529 C 328.077 5.26923 0.84781 0
M  V30 3530 O 328.3 5.30859 2.08673 0
M  V30 3531 O 327.234 6.01249 0.279969 0
M  V30 3532 H 331.06 2.91065 -0.866892 0
M  V30 3533 H 328.645 1.4117 -0.48902 0
M  V30 3534 H 330.527 3.99804 1.33171 0
M  V30 3535 H 329.202 2.82739 1.57608 0
M  V30 3536 H 328.109 3.69703 -0.571877 0
M  V30 3537 H 329.442 4.86712 -0.73295 0
M  V30 3538 N 331.094 0.475555 1.50254 0
M  V30 3539 C 332.371 -0.139685 1.95101 0
M  V30 3540 C 332.751 -1.56555 1.41611 0
M  V30 3541 O 332.099 -2.19956 0.618993 0
M  V30 3542 C 332.309 -0.0784298 3.48912 0
M  V30 3543 C 333.657 -0.265095 4.23772 0
M  V30 3544 O 334.681 -0.154808 3.55863 0
M  V30 3545 O 333.54 -0.488327 5.44314 0
M  V30 3546 H 330.634 -0.109236 0.819754 0
M  V30 3547 H 333.18 0.536276 1.61004 0
M  V30 3548 H 331.952 0.916918 3.80405 0
M  V30 3549 H 331.575 -0.795655 3.89558 0
M  V30 3550 N 332.573 -1.56217 0.208337 0
M  V30 3551 C 333.819 -1.98242 -0.427552 0
M  V30 3552 C 334.152 -1.09554 -1.60348 0
M  V30 3553 O 333.427 -0.15035 -1.93918 0
M  V30 3554 C 333.71 -3.4931 -0.874907 0
M  V30 3555 C 333.563 -4.48773 0.303751 0
M  V30 3556 C 334.882 -4.04424 -1.73577 0
M  V30 3557 H 332.001 -0.720744 -0.153936 0
M  V30 3558 H 334.643 -1.87586 0.30192 0
M  V30 3559 H 332.793 -3.58522 -1.49648 0
M  V30 3560 H 334.465 -4.51586 0.941682 0
M  V30 3561 H 332.708 -4.23194 0.953375 0
M  V30 3562 H 333.379 -5.51976 -0.0519883 0
M  V30 3563 H 335.855 -3.98075 -1.21143 0
M  V30 3564 H 334.731 -5.1047 -2.01771 0
M  V30 3565 H 334.992 -3.50494 -2.69456 0
M  V30 3566 N 334.051 0.0651679 -1.57465 0
M  V30 3567 C 334.961 1.09448 -2.07505 0
M  V30 3568 C 335.977 1.41974 -1.00595 0
M  V30 3569 O 337.153 1.52018 -1.32107 0
M  V30 3570 C 334.218 2.38689 -2.51453 0
M  V30 3571 C 333.279 2.13073 -3.72691 0
M  V30 3572 C 332.512 3.36152 -4.14533 0
M  V30 3573 O 332.735 4.45517 -3.56189 0
M  V30 3574 O 331.669 3.23974 -5.07272 0
M  V30 3575 H 335.495 0.69935 -2.95538 0
M  V30 3576 H 333.08 0.279752 -1.46757 0
M  V30 3577 H 334.962 3.14736 -2.80212 0
M  V30 3578 H 333.637 2.77568 -1.66546 0
M  V30 3579 H 332.544 1.34709 -3.49005 0
M  V30 3580 H 333.877 1.79071 -4.5847 0
M  V30 3581 N 335.529 1.53961 0.336706 0
M  V30 3582 C 336.479 1.7881 1.41461 0
M  V30 3583 C 337.463 0.643561 1.47469 0
M  V30 3584 O 338.655 0.903166 1.52223 0
M  V30 3585 C 335.784 2.00722 2.78506 0
M  V30 3586 C 334.87 3.2126 2.76862 0
M  V30 3587 N 335.261 4.42588 2.44845 0
M  V30 3588 C 333.559 3.22568 3.08004 0
M  V30 3589 C 334.26 5.2447 2.51607 0
M  V30 3590 N 333.236 4.61344 2.87511 0
M  V30 3591 H 337.038 2.70205 1.15615 0
M  V30 3592 H 334.552 1.52978 0.545112 0
M  V30 3593 H 336.549 2.1666 3.5618 0
M  V30 3594 H 335.209 1.10573 3.05293 0
M  V30 3595 H 336.22 4.69819 2.17922 0
M  V30 3596 H 332.897 2.42409 3.39918 0
M  V30 3597 H 334.287 6.31324 2.29955 0
M  V30 3598 N 337.007 -0.598083 1.45811 0
M  V30 3599 C 338.235 -1.38322 1.53866 0
M  V30 3600 C 338.65 -1.87992 0.174479 0
M  V30 3601 O 338.007 -1.62756 -0.825627 0
M  V30 3602 C 338.058 -2.58125 2.53089 0
M  V30 3603 O 337.779 -2.10516 3.84206 0
M  V30 3604 C 339.28 -3.50869 2.70935 0
M  V30 3605 H 336.5 -0.423093 0.520801 0
M  V30 3606 H 339.044 -0.728527 1.91083 0
M  V30 3607 H 337.199 -3.19615 2.18917 0
M  V30 3608 H 337.613 -2.88425 4.38077 0
M  V30 3609 H 339.087 -4.31451 3.44317 0
M  V30 3610 H 339.564 -4.01822 1.77301 0
M  V30 3611 H 340.17 -2.95225 3.06141 0
M  V30 3612 N 338.485 -1.33259 -0.841409 0
M  V30 3613 C 339.732 -1.24572 -1.5965 0
M  V30 3614 C 340.06 0.189137 -1.93578 0
M  V30 3615 O 339.315 1.14566 -1.5866 0
M  V30 3616 C 339.614 -2.06381 -2.9179 0
M  V30 3617 C 339.28 -3.556 -2.77235 0
M  V30 3618 C 337.942 -3.96282 -2.72973 0
M  V30 3619 C 340.294 -4.50433 -2.62221 0
M  V30 3620 C 337.622 -5.30017 -2.51592 0
M  V30 3621 C 339.974 -5.84327 -2.42374 0
M  V30 3622 C 338.638 -6.24194 -2.36512 0
M  V30 3623 H 337.908 -0.455842 -0.5842 0
M  V30 3624 H 340.555 -1.6482 -0.975016 0
M  V30 3625 H 338.86 -1.58903 -3.5813 0
M  V30 3626 H 340.557 -1.97019 -3.49263 0
M  V30 3627 H 337.147 -3.23298 -2.81384 0
M  V30 3628 H 341.331 -4.19914 -2.64549 0
M  V30 3629 H 336.587 -5.59947 -2.45499 0
M  V30 3630 H 340.761 -6.57414 -2.29739 0
M  V30 3631 H 338.388 -7.27759 -2.19706 0
M  V30 3632 N 339.963 1.05934 -1.16686 0
M  V30 3633 C 340.873 2.17014 -0.891183 0
M  V30 3634 C 341.889 1.73453 0.137907 0
M  V30 3635 O 343.065 2.01361 -0.039592 0
M  V30 3636 C 340.13 3.44384 -0.400099 0
M  V30 3637 C 339.191 4.02433 -1.49486 0
M  V30 3638 C 338.424 5.23723 -1.02711 0
M  V30 3639 O 338.647 5.7027 0.121716 0
M  V30 3640 O 337.581 5.7382 -1.81699 0
M  V30 3641 H 341.407 2.43113 -1.82015 0
M  V30 3642 H 338.992 1.15541 -0.947132 0
M  V30 3643 H 340.874 4.21189 -0.133392 0
M  V30 3644 H 339.549 3.19802 0.500817 0
M  V30 3645 H 338.456 3.27102 -1.81535 0
M  V30 3646 H 339.789 4.31317 -2.37121 0
M  V30 3647 N 341.441 0.965919 1.2453 0
M  V30 3648 C 342.351 0.502154 2.29163 0
M  V30 3649 C 343.367 -0.436017 1.68448 0
M  V30 3650 O 344.543 -0.309497 1.99008 0
M  V30 3651 C 341.608 -0.201956 3.46111 0
M  V30 3652 C 340.669 0.775821 4.22232 0
M  V30 3653 C 339.902 0.105217 5.33596 0
M  V30 3654 O 340.125 -1.10683 5.59558 0
M  V30 3655 O 339.059 0.796475 5.96607 0
M  V30 3656 H 342.885 1.37194 2.70946 0
M  V30 3657 H 340.47 0.732875 1.30189 0
M  V30 3658 H 342.352 -0.597564 4.17142 0
M  V30 3659 H 341.027 -1.04673 3.06309 0
M  V30 3660 H 339.934 1.22185 3.53584 0
M  V30 3661 H 341.267 1.58896 4.65846 0
M  V30 3662 N 342.919 -1.39368 0.735821 0
M  V30 3663 C 344.168 -1.99733 0.281004 0
M  V30 3664 C 344.481 -1.59055 -1.13846 0
M  V30 3665 O 345.687 -2.12262 -1.69284 0
M  V30 3666 C 344.143 -3.57057 0.451462 0
M  V30 3667 C 343.751 -4.06697 1.87886 0
M  V30 3668 C 345.495 -4.2446 0.0584616 0
M  V30 3669 C 343.402 -5.56598 1.99883 0
M  V30 3670 H 342.332 -0.747163 0.101311 0
M  V30 3671 H 344.983 -1.59357 0.909819 0
M  V30 3672 H 343.365 -3.95234 -0.246263 0
M  V30 3673 H 344.539 -3.79853 2.60861 0
M  V30 3674 H 342.854 -3.5196 2.22515 0
M  V30 3675 H 345.451 -5.34549 0.127099 0
M  V30 3676 H 345.794 -4.04444 -0.986433 0
M  V30 3677 H 346.327 -3.9146 0.707374 0
M  V30 3678 H 343.066 -5.81494 3.02564 0
M  V30 3679 H 342.586 -5.85242 1.31346 0
M  V30 3680 H 344.265 -6.22022 1.78039 0
M  V30 3681 N 344.397 -0.483516 -1.5 0
M  V30 3682 C 345.344 0.304164 -2.28787 0
M  V30 3683 C 346.314 0.976114 -1.34392 0
M  V30 3684 O 347.499 0.986156 -1.63339 0
M  V30 3685 C 344.639 1.37298 -3.16612 0
M  V30 3686 C 343.752 0.714561 -4.26049 0
M  V30 3687 C 342.887 1.76232 -5.01114 0
M  V30 3688 C 341.926 1.08483 -6.0241 0
M  V30 3689 N 341.063 2.076 -6.70706 0
M  V30 3690 H 345.903 -0.373981 -2.95644 0
M  V30 3691 H 343.44 -0.196275 -1.45785 0
M  V30 3692 H 345.398 2.00445 -3.65893 0
M  V30 3693 H 344.028 2.02012 -2.51776 0
M  V30 3694 H 343.08 -0.0297798 -3.80388 0
M  V30 3695 H 344.392 0.180383 -4.98474 0
M  V30 3696 H 343.546 2.46929 -5.54176 0
M  V30 3697 H 342.285 2.33033 -4.28424 0
M  V30 3698 H 341.29 0.363545 -5.48597 0
M  V30 3699 H 342.515 0.523551 -6.77079 0
M  V30 3700 H 340.461 2.63394 -6.00799 0
M  V30 3701 H 340.378 1.59201 -7.39047 0
M  V30 3702 H 341.646 2.77639 -7.2838 0
M  V30 3703 N 345.875 1.56104 -0.216619 0
M  V30 3704 C 347.286 1.844 0.292128 0
M  V30 3705 C 347.637 1.13788 1.59833 0
M  V30 3706 O 346.762 0.405888 2.12559 0
M  V30 3707 C 347.357 3.3452 0.53681 0
M  V30 3708 C 345.916 3.63151 0.989876 0
M  V30 3709 C 345.063 2.77255 0.0502302 0
M  V30 3710 H 348.014 1.52481 -0.439926 0
M  V30 3711 H 348.035 3.54459 1.38345 0
M  V30 3712 H 347.547 3.85885 -0.414031 0
M  V30 3713 H 345.648 3.17238 1.95425 0
M  V30 3714 H 345.761 4.71177 0.867698 0
M  V30 3715 H 344.125 2.48555 0.556117 0
M  V30 3716 H 344.908 3.31416 -0.89544 0
M  V30 3717 N 347.353 -0.0568162 1.57498 0
M  V30 3718 C 348.283 -1.06593 2.0775 0
M  V30 3719 C 349.264 -1.39448 0.974082 0
M  V30 3720 O 350.449 -1.48815 1.24771 0
M  V30 3721 C 347.579 -2.37509 2.5339 0
M  V30 3722 C 346.533 -2.1897 3.67745 0
M  V30 3723 C 345.859 -3.55402 3.99492 0
M  V30 3724 C 347.159 -1.59859 4.97235 0
M  V30 3725 H 348.853 -0.647706 2.9231 0
M  V30 3726 H 346.399 -0.310116 1.40621 0
M  V30 3727 H 348.352 -3.08409 2.87162 0
M  V30 3728 H 347.076 -2.8134 1.65878 0
M  V30 3729 H 345.735 -1.50508 3.3428 0
M  V30 3730 H 345.383 -3.9683 3.09088 0
M  V30 3731 H 345.083 -3.43831 4.76502 0
M  V30 3732 H 346.607 -4.27708 4.35773 0
M  V30 3733 H 348.021 -2.20642 5.29141 0
M  V30 3734 H 346.418 -1.58942 5.78669 0
M  V30 3735 H 347.488 -0.561506 4.81638 0
M  V30 3736 N 348.832 -1.54138 -0.328536 0
M  V30 3737 C 350.062 -1.75807 -1.08516 0
M  V30 3738 C 350.47 -0.50428 -1.82356 0
M  V30 3739 O 349.813 0.534451 -1.75754 0
M  V30 3740 C 349.875 -2.89423 -2.13248 0
M  V30 3741 C 349.539 -4.28504 -1.5885 0
M  V30 3742 C 350.536 -5.09536 -1.03289 0
M  V30 3743 C 348.221 -4.75034 -1.63243 0
M  V30 3744 C 350.215 -6.35206 -0.52845 0
M  V30 3745 C 347.902 -6.00672 -1.12411 0
M  V30 3746 C 348.9 -6.80592 -0.573062 0
M  V30 3747 O 348.588 -8.03867 -0.0723692 0
M  V30 3748 H 348.32 -0.590633 -0.328829 0
M  V30 3749 H 350.874 -2.01819 -0.381868 0
M  V30 3750 H 349.104 -2.5897 -2.87178 0
M  V30 3751 H 350.793 -2.98921 -2.74592 0
M  V30 3752 H 351.559 -4.74745 -0.99206 0
M  V30 3753 H 347.438 -4.12875 -2.05074 0
M  V30 3754 H 350.982 -6.97532 -0.0976774 0
M  V30 3755 H 346.879 -6.34955 -1.162 0
M  V30 3756 H 347.647 -8.18283 -0.188258 0
M  V30 3757 N 350.31 0.590341 -1.46126 0
M  V30 3758 C 351.22 1.72793 -1.58681 0
M  V30 3759 C 352.236 1.67516 -0.470566 0
M  V30 3760 O 353.412 1.87562 -0.733642 0
M  V30 3761 C 350.477 3.09287 -1.5666 0
M  V30 3762 C 349.538 3.25886 -2.79458 0
M  V30 3763 C 348.771 4.55869 -2.77524 0
M  V30 3764 O 348.994 5.3928 -1.85832 0
M  V30 3765 O 347.928 4.75552 -3.68964 0
M  V30 3766 H 351.754 1.65149 -2.54872 0
M  V30 3767 H 349.339 0.756486 -1.28832 0
M  V30 3768 H 351.221 3.90577 -1.58202 0
M  V30 3769 H 349.896 3.17385 -0.636271 0
M  V30 3770 H 348.803 2.44119 -2.83472 0
M  V30 3771 H 350.136 3.22675 -3.71674 0
M  V30 3772 N 351.788 1.33704 0.83433 0
M  V30 3773 C 352.738 1.20899 1.93306 0
M  V30 3774 C 353.722 0.110783 1.60518 0
M  V30 3775 O 354.914 0.339331 1.73717 0
M  V30 3776 C 352.043 0.955018 3.29749 0
M  V30 3777 C 351.129 2.09587 3.68692 0
M  V30 3778 N 351.52 3.34621 3.79292 0
M  V30 3779 C 349.818 2.00358 3.98463 0
M  V30 3780 C 350.519 4.09472 4.13167 0
M  V30 3781 N 349.495 3.37954 4.25779 0
M  V30 3782 H 353.297 2.15665 1.99664 0
M  V30 3783 H 350.811 1.25777 1.02732 0
M  V30 3784 H 352.808 0.844208 4.08263 0
M  V30 3785 H 351.468 0.0159317 3.24696 0
M  V30 3786 H 352.479 3.69313 3.63082 0
M  V30 3787 H 349.156 1.14137 4.01596 0
M  V30 3788 H 350.546 5.17391 4.28668 0
M  V30 3789 N 353.266 -1.05314 1.17247 0
M  V30 3790 C 354.196 -2.1498 0.911362 0
M  V30 3791 C 355.177 -1.69471 -0.146169 0
M  V30 3792 O 356.362 -1.942 0.003812 0
M  V30 3793 C 353.492 -3.4472 0.422528 0
M  V30 3794 C 352.446 -4.03789 1.4191 0
M  V30 3795 C 351.772 -5.28858 0.788274 0
M  V30 3796 C 353.072 -4.41418 2.7919 0
M  V30 3797 H 354.766 -2.3708 1.82848 0
M  V30 3798 H 352.312 -1.13938 0.880569 0
M  V30 3799 H 354.265 -4.20787 0.227289 0
M  V30 3800 H 352.989 -3.22269 -0.530123 0
M  V30 3801 H 351.648 -3.2979 1.60106 0
M  V30 3802 H 351.296 -5.02709 -0.171173 0
M  V30 3803 H 350.996 -5.69338 1.45353 0
M  V30 3804 H 352.52 -6.07612 0.603282 0
M  V30 3805 H 353.934 -5.08524 2.64719 0
M  V30 3806 H 352.331 -4.92913 3.42282 0
M  V30 3807 H 353.401 -3.51819 3.33693 0
M  V30 3808 N 354.744 -0.972509 -1.24016 0
M  V30 3809 C 355.694 -0.477561 -2.22942 0
M  V30 3810 C 356.678 0.44308 -1.54679 0
M  V30 3811 O 357.87 0.273219 -1.74879 0
M  V30 3812 C 354.999 0.226348 -3.42553 0
M  V30 3813 C 354.085 -0.713403 -4.18057 0
M  V30 3814 N 354.476 -1.8527 -4.70647 0
M  V30 3815 C 352.774 -0.525145 -4.42898 0
M  V30 3816 C 353.475 -2.44089 -5.28011 0
M  V30 3817 N 352.451 -1.72556 -5.15486 0
M  V30 3818 H 356.253 -1.34678 -2.61226 0
M  V30 3819 H 353.767 -0.832196 -1.39457 0
M  V30 3820 H 355.764 0.598184 -4.12586 0
M  V30 3821 H 354.424 1.09195 -3.05788 0
M  V30 3822 H 355.435 -2.2341 -4.67235 0
M  V30 3823 H 352.112 0.296096 -4.16449 0
M  V30 3824 H 353.502 -3.40259 -5.79374 0
M  V30 3825 N 356.222 1.38976 -0.743202 0
M  V30 3826 C 357.185 2.28901 -0.117014 0
M  V30 3827 C 358.185 1.46698 0.658503 0
M  V30 3828 O 359.375 1.67274 0.486305 0
M  V30 3829 C 356.507 3.30309 0.84315 0
M  V30 3830 H 357.7 2.8578 -0.909373 0
M  V30 3831 H 355.253 1.47761 -0.509547 0
M  V30 3832 H 355.988 2.785 1.66157 0
M  V30 3833 H 355.773 3.91029 0.289594 0
M  V30 3834 H 357.263 3.97577 1.2776 0
M  V30 3835 N 357.7 0.491464 1.49741 0
M  V30 3836 C 358.93 -0.0534375 2.06531 0
M  V30 3837 C 359.338 -1.32233 1.35318 0
M  V30 3838 O 358.681 -1.78781 0.422243 0
M  V30 3839 C 358.743 -0.387034 3.57411 0
M  V30 3840 C 358.407 0.782764 4.50246 0
M  V30 3841 C 359.404 1.67059 4.92329 0
M  V30 3842 C 357.089 0.978866 4.9267 0
M  V30 3843 C 359.083 2.73874 5.75562 0
M  V30 3844 C 356.77 2.05022 5.75682 0
M  V30 3845 C 357.768 2.92851 6.17031 0
M  V30 3846 O 357.456 3.98138 6.98385 0
M  V30 3847 H 357.188 0.0129324 0.675876 0
M  V30 3848 H 359.742 0.685238 1.93633 0
M  V30 3849 H 357.972 -1.17918 3.68283 0
M  V30 3850 H 359.661 -0.869419 3.96479 0
M  V30 3851 H 360.427 1.53086 4.60206 0
M  V30 3852 H 356.306 0.304646 4.59992 0
M  V30 3853 H 359.85 3.42458 6.07757 0
M  V30 3854 H 355.747 2.18993 6.07217 0
M  V30 3855 H 356.515 3.95374 7.16674 0
M  V30 3856 N 359.178 -1.55987 0.224894 0
M  V30 3857 C 360.424 -1.98684 -0.406502 0
M  V30 3858 C 360.757 -1.11248 -1.59177 0
M  V30 3859 O 360.032 -0.170909 -1.93748 0
M  V30 3860 C 360.315 -3.50218 -0.837808 0
M  V30 3861 C 360.168 -4.48426 0.351332 0
M  V30 3862 C 361.487 -4.06243 -1.69278 0
M  V30 3863 H 358.606 -0.722337 -0.146283 0
M  V30 3864 H 361.248 -1.87255 0.321799 0
M  V30 3865 H 359.398 -3.60089 -1.45837 0
M  V30 3866 H 361.07 -4.50562 0.989526 0
M  V30 3867 H 359.313 -4.22159 0.998207 0
M  V30 3868 H 359.984 -5.52 0.00655905 0
M  V30 3869 H 362.46 -3.99337 -1.16914 0
M  V30 3870 H 361.336 -5.12581 -1.96346 0
M  V30 3871 H 361.597 -3.53332 -2.65723 0
M  V30 3872 N 360.656 0.0484629 -1.57525 0
M  V30 3873 C 362.072 0.40375 -1.54409 0
M  V30 3874 C 362.272 1.77786 -0.948384 0
M  V30 3875 O 361.328 2.46189 -0.560983 0
M  V30 3876 C 362.641 0.323394 -2.98956 0
M  V30 3877 C 364.189 0.401892 -3.10409 0
M  V30 3878 C 364.664 0.351195 -4.56652 0
M  V30 3879 N 366.155 0.410576 -4.61377 0
M  V30 3880 C 366.89 0.393933 -5.72045 0
M  V30 3881 N 366.386 0.330724 -6.9201 0
M  V30 3882 N 368.179 0.442227 -5.60358 0
M  V30 3883 H 360.33 -0.851016 -1.94606 0
M  V30 3884 H 362.593 -0.321721 -0.89174 0
M  V30 3885 H 362.299 -0.62011 -3.4619 0
M  V30 3886 H 362.173 1.12463 -3.60044 0
M  V30 3887 H 364.56 1.33582 -2.63134 0
M  V30 3888 H 364.641 -0.428342 -2.52188 0
M  V30 3889 H 364.285 -0.578987 -5.04589 0
M  V30 3890 H 364.215 1.19928 -5.12762 0
M  V30 3891 H 366.706 0.462729 -3.75056 0
M  V30 3892 H 367.019 0.322592 -7.72126 0
M  V30 3893 H 365.364 0.29706 -6.94365 0
M  V30 3894 H 368.555 0.489464 -4.65534 0
M  V30 3895 H 368.728 0.425788 -6.466 0
M  V30 3896 N 362.134 1.5431 0.320358 0
M  V30 3897 C 363.097 1.83195 1.3774 0
M  V30 3898 C 364.097 0.703906 1.44575 0
M  V30 3899 O 365.287 0.972214 1.44546 0
M  V30 3900 C 362.419 1.99487 2.76438 0
M  V30 3901 H 363.612 2.77642 1.1338 0
M  V30 3902 H 361.165 1.46076 0.556012 0
M  V30 3903 H 361.9 1.07262 3.06048 0
M  V30 3904 H 361.685 2.81575 2.7287 0
M  V30 3905 H 363.175 2.23271 3.52902 0
M  V30 3906 N 363.613 -0.582584 1.46437 0
M  V30 3907 C 364.56 -1.69164 1.5701 0
M  V30 3908 C 365.53 -1.60847 0.414403 0
M  V30 3909 O 366.715 -1.80058 0.631171 0
M  V30 3910 C 363.855 -3.075 1.56646 0
M  V30 3911 C 362.968 -3.2644 2.82951 0
M  V30 3912 C 362.103 -4.55026 2.7409 0
M  V30 3913 C 361.142 -4.6731 3.95333 0
M  V30 3914 N 360.279 -5.87221 3.84858 0
M  V30 3915 H 365.119 -1.59464 2.51744 0
M  V30 3916 H 362.656 -0.777186 1.24893 0
M  V30 3917 H 364.614 -3.8757 1.5442 0
M  V30 3918 H 363.244 -3.16096 0.654439 0
M  V30 3919 H 362.296 -2.39974 2.95155 0
M  V30 3920 H 363.608 -3.31385 3.72808 0
M  V30 3921 H 362.762 -5.43324 2.6997 0
M  V30 3922 H 361.501 -4.52519 1.81873 0
M  V30 3923 H 360.506 -3.77429 3.99784 0
M  V30 3924 H 361.731 -4.71595 4.88646 0
M  V30 3925 H 359.677 -5.85712 2.95427 0
M  V30 3926 H 359.594 -5.93435 4.6837 0
M  V30 3927 H 360.862 -6.7795 3.84713 0
M  V30 3928 N 365.091 -1.34144 -0.827227 0
M  V30 3929 C 366.021 -1.28005 -1.95287 0
M  V30 3930 C 367.002 -0.158321 -1.69362 0
M  V30 3931 O 368.187 -0.349987 -1.9102 0
M  V30 3932 C 365.317 -1.03036 -3.31664 0
M  V30 3933 C 364.271 -2.11628 -3.72019 0
M  V30 3934 C 363.597 -1.71854 -5.0633 0
M  V30 3935 C 364.897 -3.53417 -3.8457 0
M  V30 3936 H 366.591 -2.22187 -2.00682 0
M  V30 3937 H 364.137 -1.0696 -0.964135 0
M  V30 3938 H 366.09 -0.973863 -4.09993 0
M  V30 3939 H 364.814 -0.0529391 -3.26557 0
M  V30 3940 H 363.473 -2.16339 -2.95961 0
M  V30 3941 H 363.121 -0.727841 -4.97706 0
M  V30 3942 H 362.821 -2.44531 -5.34302 0
M  V30 3943 H 364.345 -1.67692 -5.87122 0
M  V30 3944 H 365.759 -3.51142 -4.5318 0
M  V30 3945 H 364.156 -4.24679 -4.2399 0
M  V30 3946 H 365.226 -3.91072 -2.86689 0
M  V30 3947 N 366.569 1.04691 -1.17803 0
M  V30 3948 C 367.502 2.12068 -0.842765 0
M  V30 3949 C 368.48 1.61455 0.192608 0
M  V30 3950 O 369.664 1.88359 0.072995 0
M  V30 3951 C 366.791 3.37715 -0.258063 0
M  V30 3952 C 365.837 4.07164 -1.26962 0
M  V30 3953 S 366.67 4.55047 -2.82299 0
M  V30 3954 C 367.826 5.83935 -2.25323 0
M  V30 3955 H 368.059 2.4018 -1.75217 0
M  V30 3956 H 365.592 1.17366 -1.00323 0
M  V30 3957 H 367.55 4.10435 0.0727935 0
M  V30 3958 H 366.211 3.0773 0.629357 0
M  V30 3959 H 365.404 4.9746 -0.809263 0
M  V30 3960 H 365.006 3.40533 -1.54639 0
M  V30 3961 H 367.298 6.57552 -1.63192 0
M  V30 3962 H 368.241 6.34725 -3.13894 0
M  V30 3963 H 368.649 5.3874 -1.68582 0
M  V30 3964 N 368.047 0.979072 1.23499 0
M  V30 3965 C 368.995 0.510604 2.26926 0
M  V30 3966 C 369.989 -0.431691 1.63807 0
M  V30 3967 O 371.195 -0.30573 1.77385 0
M  V30 3968 H 367.57 0.146688 0.737554 0
M  V30 3969 H 369.541 1.39466 2.63803 0
M  V30 3970 C 368.29 -0.172658 3.47271 0
M  V30 3971 H 367.613 0.543331 3.96091 0
M  V30 3972 H 369.053 -0.464101 4.21452 0
M  V30 3973 C 367.512 -1.40345 3.06276 0
M  V30 3974 O 368.042 -2.49978 3.14442 0
M  V30 3975 N 366.248 -1.27362 2.61203 0
M  V30 3976 H 365.795 -0.381584 2.54758 0
M  V30 3977 H 365.753 -2.09822 2.34141 0
M  V30 3978 N 369.525 -1.3858 0.750561 0
M  V30 3979 C 370.488 -2.28836 0.129152 0
M  V30 3980 C 371.488 -1.47045 -0.650714 0
M  V30 3981 O 372.678 -1.6753 -0.477428 0
M  V30 3982 C 369.81 -3.30751 -0.825622 0
M  V30 3983 H 371.003 -2.85294 0.924516 0
M  V30 3984 H 368.556 -1.47489 0.517376 0
M  V30 3985 H 369.291 -2.79378 -1.64677 0
M  V30 3986 H 369.076 -3.91177 -0.268852 0
M  V30 3987 H 370.566 -3.98249 -1.2565 0
M  V30 3988 N 371.003 -0.499398 -1.49478 0
M  V30 3989 C 372.233 0.0424839 -2.06556 0
M  V30 3990 C 372.641 1.31514 -1.36018 0
M  V30 3991 O 371.984 1.78555 -0.431718 0
M  V30 3992 C 372.046 0.368074 -3.57611 0
M  V30 3993 C 371.71 -0.806631 -4.49825 0
M  V30 3994 C 372.707 -1.69667 -4.91436 0
M  V30 3995 C 370.392 -1.00498 -4.92144 0
M  V30 3996 C 372.386 -2.76923 -5.74101 0
M  V30 3997 C 370.073 -2.08072 -5.74586 0
M  V30 3998 C 371.071 -2.96119 -6.15469 0
M  V30 3999 O 370.759 -4.01836 -6.96264 0
M  V30 4000 H 370.491 -0.0165165 -0.675798 0
M  V30 4001 H 373.045 -0.695497 -1.93267 0
M  V30 4002 H 371.275 1.15963 -3.68903 0
M  V30 4003 H 372.964 0.848381 -3.96935 0
M  V30 4004 H 373.73 -1.55524 -4.59388 0
M  V30 4005 H 369.609 -0.329036 -4.59824 0
M  V30 4006 H 373.153 -3.45676 -6.05932 0
M  V30 4007 H 369.05 -2.22211 -6.06047 0
M  V30 4008 H 369.818 -3.9917 -7.14567 0
M  V30 4009 N 372.481 1.55866 -0.233164 0
M  V30 4010 C 373.892 1.847 0.272554 0
M  V30 4011 C 374.243 1.15477 1.58617 0
M  V30 4012 O 373.368 0.42841 2.12117 0
M  V30 4013 C 373.963 3.35071 0.501299 0
M  V30 4014 C 372.522 3.6418 0.951304 0
M  V30 4015 C 371.669 2.77292 0.0208209 0
M  V30 4016 H 374.62 1.52005 -0.456074 0
M  V30 4017 H 374.641 3.55906 1.34577 0
M  V30 4018 H 374.153 3.85424 -0.454936 0
M  V30 4019 H 372.254 3.19293 1.92049 0
M  V30 4020 H 372.367 4.72071 0.817675 0
M  V30 4021 H 370.731 2.49131 0.529723 0
M  V30 4022 H 371.514 3.30448 -0.93054 0
M  V30 4023 N 373.959 -0.0401083 1.57549 0
M  V30 4024 C 375.184 -0.748931 1.93406 0
M  V30 4025 C 375.609 -1.68686 0.832274 0
M  V30 4026 O 374.967 -1.80047 -0.212818 0
M  V30 4027 C 375.015 -1.4916 3.28304 0
M  V30 4028 O 374.119 -2.6042 3.19774 0
M  V30 4029 H 373.46 -0.202212 0.63246 0
M  V30 4030 H 375.99 0.00112086 2.046 0
M  V30 4031 H 376 -1.86395 3.62934 0
M  V30 4032 H 374.675 -0.80364 4.08062 0
M  V30 4033 H 373.252 -2.25808 2.96758 0
M  V30 4034 N 375.437 -1.54477 -0.31217 0
M  V30 4035 C 376.667 -1.76948 -1.06645 0
M  V30 4036 C 377.075 -0.523593 -1.81811 0
M  V30 4037 O 376.418 0.51578 -1.76311 0
M  V30 4038 C 376.48 -2.91668 -2.10166 0
M  V30 4039 C 376.144 -4.30165 -1.54296 0
M  V30 4040 C 377.141 -5.10603 -0.978793 0
M  V30 4041 C 374.826 -4.76738 -1.58196 0
M  V30 4042 C 376.82 -6.3573 -0.461048 0
M  V30 4043 C 374.507 -6.01831 -1.06034 0
M  V30 4044 C 375.505 -6.81161 -0.500844 0
M  V30 4045 O 375.193 -8.03899 0.0128958 0
M  V30 4046 H 374.925 -0.594088 -0.322546 0
M  V30 4047 H 377.479 -2.02213 -0.360441 0
M  V30 4048 H 375.709 -2.62001 -2.84416 0
M  V30 4049 H 377.398 -3.01817 -2.71406 0
M  V30 4050 H 378.164 -4.75771 -0.941651 0
M  V30 4051 H 374.043 -4.15027 -2.00683 0
M  V30 4052 H 377.587 -6.97596 -0.0236894 0
M  V30 4053 H 373.484 -6.36152 -1.09459 0
M  V30 4054 H 374.252 -8.18437 -0.101457 0
M  V30 4055 N 376.915 0.57481 -1.46744 0
M  V30 4056 C 378.164 1.32898 -1.51727 0
M  V30 4057 C 378.477 1.948 -0.176692 0
M  V30 4058 O 379.683 2.71299 -0.104385 0
M  V30 4059 C 378.139 2.40901 -2.67385 0
M  V30 4060 C 377.747 1.85266 -4.07898 0
M  V30 4061 C 379.491 3.17609 -2.81646 0
M  V30 4062 C 377.398 2.90945 -5.14883 0
M  V30 4063 H 376.328 0.499631 -0.564699 0
M  V30 4064 H 378.979 0.612536 -1.72975 0
M  V30 4065 H 377.361 3.15379 -2.39483 0
M  V30 4066 H 378.535 1.17278 -4.45626 0
M  V30 4067 H 376.85 1.21199 -3.98371 0
M  V30 4068 H 379.447 3.96493 -3.58744 0
M  V30 4069 H 379.79 3.70696 -1.89448 0
M  V30 4070 H 380.323 2.50239 -3.09233 0
M  V30 4071 H 377.062 2.42736 -6.089 0
M  V30 4072 H 376.582 3.57398 -4.81691 0
M  V30 4073 H 378.261 3.54755 -5.41071 0
M  V30 4074 N 378.394 1.34581 0.820102 0
M  V30 4075 C 379.619 1.30333 1.61332 0
M  V30 4076 C 380.044 -0.119339 1.87721 0
M  V30 4077 O 379.402 -1.08197 1.45475 0
M  V30 4078 C 379.45 2.10258 2.92957 0
M  V30 4079 O 378.554 1.47404 3.85157 0
M  V30 4080 H 377.895 0.447488 0.490561 0
M  V30 4081 H 380.425 1.77425 1.01889 0
M  V30 4082 H 380.435 2.21718 3.42498 0
M  V30 4083 H 379.11 3.13693 2.73074 0
M  V30 4084 H 377.687 1.44703 3.43679 0
M  V30 4085 N 379.872 -1.04064 1.18357 0
M  V30 4086 C 381.283 -1.58719 0.98312 0
M  V30 4087 C 381.634 -1.90556 -0.467193 0
M  V30 4088 O 380.759 -1.69561 -1.34454 0
M  V30 4089 C 381.354 -2.88379 1.77828 0
M  V30 4090 C 379.913 -3.3965 1.62218 0
M  V30 4091 C 379.06 -2.13235 1.77274 0
M  V30 4092 H 382.011 -0.867359 1.32901 0
M  V30 4093 H 382.032 -3.58773 1.26737 0
M  V30 4094 H 381.544 -2.65176 2.83379 0
M  V30 4095 H 379.645 -3.67866 0.592036 0
M  V30 4096 H 379.758 -4.13475 2.42023 0
M  V30 4097 H 378.122 -2.24542 1.20221 0
M  V30 4098 H 378.905 -1.92487 2.8426 0
M  V30 4099 N 381.35 -0.985608 -1.22978 0
M  V30 4100 C 382.599 -0.652881 -1.90841 0
M  V30 4101 C 382.912 0.817842 -1.77681 0
M  V30 4102 O 384.118 1.26185 -2.40395 0
M  V30 4103 C 382.574 -1.11717 -3.42122 0
M  V30 4104 C 382.182 -2.6126 -3.63933 0
M  V30 4105 C 383.926 -0.85843 -4.1573 0
M  V30 4106 C 381.833 -3.0133 -5.08876 0
M  V30 4107 H 380.763 -0.240491 -0.714619 0
M  V30 4108 H 383.414 -1.1942 -1.39324 0
M  V30 4109 H 381.796 -0.504027 -3.92779 0
M  V30 4110 H 382.97 -3.27858 -3.23799 0
M  V30 4111 H 381.285 -2.84937 -3.03644 0
M  V30 4112 H 383.882 -1.13359 -5.22546 0
M  V30 4113 H 384.225 0.205461 -4.15793 0
M  V30 4114 H 384.758 -1.43341 -3.71077 0
M  V30 4115 H 381.497 -4.06864 -5.13947 0
M  V30 4116 H 381.017 -2.3943 -5.49939 0
M  V30 4117 H 382.696 -2.92224 -5.77247 0
M  V30 4118 N 382.828 1.3818 -0.7579 0
M  V30 4119 C 384.076 1.99624 -0.315361 0
M  V30 4120 C 384.397 1.60464 1.10799 0
M  V30 4121 O 383.667 0.863507 1.75842 0
M  V30 4122 H 382.247 0.73831 -0.113611 0
M  V30 4123 H 384.909 1.68878 -0.972952 0
M  V30 4124 H 384.005 3.09754 -0.381931 0
M  V30 4125 N 384.306 0.507319 1.49211 0
M  V30 4126 C 385.546 -0.0332372 2.04373 0
M  V30 4127 C 385.91 -1.33694 1.37804 0
M  V30 4128 O 387.111 -1.96213 1.83722 0
M  V30 4129 C 385.382 -0.17599 3.56966 0
M  V30 4130 S 386.941 -0.669882 4.33657 0
M  V30 4131 H 383.759 0.00123603 0.710999 0
M  V30 4132 H 386.361 0.682725 1.83191 0
M  V30 4133 H 385.065 0.778053 4.02957 0
M  V30 4134 H 384.596 -0.917005 3.82563 0
M  V30 4135 H 386.611 -1.93806 4.56786 0
M  V30 4136 N 385.784 -1.5574 0.241426 0
M  V30 4137 C 386.714 -2.24133 -0.654722 0
M  V30 4138 C 387.695 -1.21974 -1.1856 0
M  V30 4139 O 388.88 -1.50612 -1.22595 0
M  V30 4140 C 386.01 -2.93659 -1.85423 0
M  V30 4141 C 384.964 -4.0246 -1.45636 0
M  V30 4142 C 384.29 -4.59383 -2.73626 0
M  V30 4143 C 385.59 -5.18468 -0.631506 0
M  V30 4144 H 387.284 -2.99281 -0.0844353 0
M  V30 4145 H 384.83 -1.43947 -0.0391707 0
M  V30 4146 H 386.783 -3.40203 -2.48676 0
M  V30 4147 H 385.507 -2.15991 -2.44981 0
M  V30 4148 H 384.166 -3.56676 -0.847202 0
M  V30 4149 H 383.814 -3.78422 -3.3137 0
M  V30 4150 H 383.514 -5.32826 -2.4773 0
M  V30 4151 H 385.038 -5.08658 -3.37786 0
M  V30 4152 H 386.452 -5.61272 -1.1682 0
M  V30 4153 H 384.849 -5.98266 -0.468831 0
M  V30 4154 H 385.919 -4.8358 0.357506 0
M  V30 4155 N 387.262 0.0317525 -1.57568 0
M  V30 4156 C 388.673 0.578692 -1.77505 0
M  V30 4157 C 389.024 1.75749 -0.872164 0
M  V30 4158 O 388.149 2.16298 -0.0663106 0
M  V30 4159 C 388.744 1.05658 -3.21904 0
M  V30 4160 C 387.303 1.54906 -3.43047 0
M  V30 4161 C 386.45 0.485939 -2.73009 0
M  V30 4162 H 389.401 -0.194475 -1.57504 0
M  V30 4163 H 389.422 1.92404 -3.28269 0
M  V30 4164 H 388.934 0.198422 -3.87592 0
M  V30 4165 H 387.035 2.42915 -2.82529 0
M  V30 4166 H 387.148 1.59841 -4.5165 0
M  V30 4167 H 385.512 0.940354 -2.36705 0
M  V30 4168 H 386.295 -0.362709 -3.41379 0
M  V30 4169 N 388.74 1.54641 0.303973 0
M  V30 4170 C 389.703 1.84646 1.35789 0
M  V30 4171 C 390.703 0.7192 1.4382 0
M  V30 4172 O 391.893 0.987491 1.43507 0
M  V30 4173 C 389.025 2.02407 2.74307 0
M  V30 4174 H 390.218 2.78829 1.10429 0
M  V30 4175 H 387.771 1.46658 0.540487 0
M  V30 4176 H 388.506 1.10502 3.04893 0
M  V30 4177 H 388.291 2.84453 2.69868 0
M  V30 4178 H 389.781 2.27002 3.50514 0
M  V30 4179 N 390.218 -0.567019 1.47046 0
M  V30 4180 C 391.168 -1.67018 1.55207 0
M  V30 4181 C 392.152 -1.55543 0.411714 0
M  V30 4182 O 393.344 -1.64192 0.661064 0
M  V30 4183 C 390.473 -3.05801 1.56014 0
M  V30 4184 C 389.559 -3.22515 2.75399 0
M  V30 4185 N 389.95 -3.09329 4.00186 0
M  V30 4186 C 388.248 -3.53493 2.71954 0
M  V30 4187 C 388.949 -3.2847 4.80086 0
M  V30 4188 N 387.925 -3.54352 4.12233 0
M  V30 4189 H 391.727 -1.55377 2.4947 0
M  V30 4190 H 389.241 -0.771503 1.42904 0
M  V30 4191 H 391.238 -3.84996 1.59949 0
M  V30 4192 H 389.898 -3.18561 0.628396 0
M  V30 4193 H 390.909 -2.86863 4.31196 0
M  V30 4194 H 387.586 -3.7284 1.87873 0
M  V30 4195 H 388.976 -3.23326 5.88991 0
M  V30 4196 N 391.696 -1.35014 -0.812953 0
M  V30 4197 C 392.626 -1.30069 -1.93919 0
M  V30 4198 C 393.607 -0.176275 -1.69184 0
M  V30 4199 O 394.792 -0.370227 -1.90638 0
M  V30 4200 C 391.922 -1.06547 -3.30552 0
M  V30 4201 C 390.876 -2.15561 -3.69753 0
M  V30 4202 C 390.202 -1.77214 -5.04479 0
M  V30 4203 C 391.502 -3.57476 -3.808 0
M  V30 4204 H 393.196 -2.24303 -1.98314 0
M  V30 4205 H 390.742 -1.07977 -0.952736 0
M  V30 4206 H 392.695 -1.01729 -4.08937 0
M  V30 4207 H 391.419 -0.0875719 -3.26483 0
M  V30 4208 H 390.078 -2.19466 -2.9365 0
M  V30 4209 H 389.726 -0.780589 -4.96906 0
M  V30 4210 H 389.426 -2.50184 -5.31678 0
M  V30 4211 H 390.95 -1.7391 -5.8531 0
M  V30 4212 H 392.364 -3.55929 -4.4943 0
M  V30 4213 H 390.761 -4.29152 -4.19462 0
M  V30 4214 H 391.831 -3.94091 -2.82525 0
M  V30 4215 N 393.175 1.03435 -1.18907 0
M  V30 4216 C 394.105 2.13503 -0.945448 0
M  V30 4217 C 395.086 1.69682 0.119189 0
M  V30 4218 O 396.271 1.94169 -0.034707 0
M  V30 4219 C 393.401 3.44004 -0.477316 0
M  V30 4220 C 392.355 4.0148 -1.48316 0
M  V30 4221 C 391.681 5.27537 -0.872311 0
M  V30 4222 C 392.981 4.36921 -2.86177 0
M  V30 4223 H 394.675 2.34141 -1.86597 0
M  V30 4224 H 392.221 1.12523 -0.898584 0
M  V30 4225 H 394.174 4.20372 -0.294204 0
M  V30 4226 H 392.898 3.23072 0.478786 0
M  V30 4227 H 391.557 3.27201 -1.65332 0
M  V30 4228 H 391.205 5.02917 0.0911752 0
M  V30 4229 H 390.905 5.66954 -1.54393 0
M  V30 4230 H 392.429 6.06576 -0.699871 0
M  V30 4231 H 393.843 5.04248 -2.72776 0
M  V30 4232 H 392.24 4.87405 -3.50081 0
M  V30 4233 H 393.31 3.46466 -3.39248 0
M  V30 4234 N 394.653 0.992116 1.22453 0
M  V30 4235 C 395.901 0.666215 1.90804 0
M  V30 4236 C 396.222 -0.804152 1.77647 0
M  V30 4237 O 395.492 -1.57629 1.16318 0
M  V30 4238 H 394.072 0.243423 0.706225 0
M  V30 4239 H 396.734 1.25845 1.48825 0
M  V30 4240 H 395.83 0.928069 2.97982 0
M  V30 4241 N 396.131 -1.37776 0.765217 0
M  V30 4242 C 397.408 -1.93975 0.251596 0
M  V30 4243 C 397.788 -1.69949 -1.25222 0
M  V30 4244 O 397.136 -1.04457 -2.03226 0
M  V30 4245 C 397.346 -3.43487 0.617895 0
M  V30 4246 C 398.694 -4.20564 0.584029 0
M  V30 4247 O 399.718 -3.5182 0.556888 0
M  V30 4248 O 398.577 -5.43138 0.605291 0
M  V30 4249 H 395.671 -0.82509 0.0561806 0
M  V30 4250 H 398.217 -1.47101 0.846128 0
M  V30 4251 H 396.989 -3.5453 1.65602 0
M  V30 4252 H 396.612 -3.976 -0.00403411 0
M  V30 4253 N 397.609 -0.515225 -1.4894 0
M  V30 4254 C 398.542 0.302518 -2.26186 0
M  V30 4255 C 399.52 0.957895 -1.31389 0
M  V30 4256 O 400.704 0.985198 -1.60705 0
M  V30 4257 C 397.831 1.42719 -3.07163 0
M  V30 4258 C 396.877 0.884736 -4.17223 0
M  V30 4259 S 397.71 -0.235767 -5.34981 0
M  V30 4260 C 398.866 0.891731 -6.19515 0
M  V30 4261 H 399.099 -0.353076 -2.95196 0
M  V30 4262 H 396.632 -0.300753 -1.51443 0
M  V30 4263 H 398.59 2.07152 -3.54398 0
M  V30 4264 H 397.251 2.05445 -2.37595 0
M  V30 4265 H 396.444 1.72801 -4.73451 0
M  V30 4266 H 396.046 0.317362 -3.72651 0
M  V30 4267 H 398.338 1.79377 -6.53322 0
M  V30 4268 H 399.281 0.367751 -7.07144 0
M  V30 4269 H 399.689 1.16548 -5.52338 0
M  V30 4270 N 399.087 1.5561 -0.249682 0
M  V30 4271 C 400.333 2.00044 0.367952 0
M  V30 4272 C 400.688 1.1349 1.55363 0
M  V30 4273 O 399.981 0.191079 1.90645 0
M  V30 4274 C 400.175 3.4775 0.824887 0
M  V30 4275 C 400.004 4.48596 -0.314973 0
M  V30 4276 C 398.774 4.99077 -0.790555 0
M  V30 4277 C 400.972 5.0144 -1.14291 0
M  V30 4278 N 398.954 5.83675 -1.90254 0
M  V30 4279 C 400.325 5.83236 -2.10322 0
M  V30 4280 C 402.38 4.83736 -1.17916 0
M  V30 4281 C 401.083 6.49217 -3.09692 0
M  V30 4282 C 403.109 5.50497 -2.16117 0
M  V30 4283 C 402.471 6.32084 -3.10884 0
M  V30 4284 H 398.57 0.775512 0.100522 0
M  V30 4285 H 401.154 1.91193 -0.367896 0
M  V30 4286 H 399.325 3.56994 1.53002 0
M  V30 4287 H 401.057 3.79056 1.4177 0
M  V30 4288 H 397.812 4.72119 -0.374218 0
M  V30 4289 H 398.236 6.30671 -2.46137 0
M  V30 4290 H 402.878 4.20286 -0.460352 0
M  V30 4291 H 400.596 7.11832 -3.8252 0
M  V30 4292 H 404.182 5.38752 -2.19631 0
M  V30 4293 H 403.062 6.82832 -3.8563 0
M  V30 4294 N 400.565 -0.0233959 1.57583 0
M  V30 4295 C 401.813 -0.711654 1.89156 0
M  V30 4296 C 402.134 -1.75591 0.848096 0
M  V30 4297 O 401.404 -1.95547 -0.117566 0
M  V30 4298 H 399.984 -0.265835 0.698098 0
M  V30 4299 H 402.646 0.0119948 1.94896 0
M  V30 4300 H 401.742 -1.19766 2.88206 0
M  V30 4301 N 402.043 -1.548 -0.295768 0
M  V30 4302 C 403.459 -1.4613 -0.641722 0
M  V30 4303 C 403.659 -0.656771 -1.90496 0
M  V30 4304 O 402.715 -0.166547 -2.5195 0
M  V30 4305 C 404.028 -2.90141 -0.789852 0
M  V30 4306 C 405.576 -3.00216 -0.885396 0
M  V30 4307 C 406.051 -4.45434 -1.06548 0
M  V30 4308 N 407.542 -4.49166 -1.13156 0
M  V30 4309 C 408.277 -5.58717 -1.28929 0
M  V30 4310 N 407.773 -6.78182 -1.41567 0
M  V30 4311 N 409.566 -5.46415 -1.31859 0
M  V30 4312 H 401.717 -2.05574 0.534147 0
M  V30 4313 H 403.98 -0.931259 0.177372 0
M  V30 4314 H 403.686 -3.51635 0.0675598 0
M  V30 4315 H 403.56 -3.37859 -1.67724 0
M  V30 4316 H 405.947 -2.38833 -1.73329 0
M  V30 4317 H 406.028 -2.55787 0.0261185 0
M  V30 4318 H 405.672 -5.07413 -0.222335 0
M  V30 4319 H 405.602 -4.87499 -1.9913 0
M  V30 4320 H 408.093 -3.631 -1.04721 0
M  V30 4321 H 408.406 -7.57428 -1.53372 0
M  V30 4322 H 406.751 -6.81037 -1.38613 0
M  V30 4323 H 409.942 -4.5203 -1.21601 0
M  V30 4324 H 410.115 -6.31841 -1.43808 0
M  V30 4325 N 403.521 0.559213 -1.47345 0
M  V30 4326 C 404.768 1.31648 -1.53867 0
M  V30 4327 C 405.096 1.93468 -0.200104 0
M  V30 4328 O 404.351 1.78295 0.806799 0
M  V30 4329 C 404.65 2.44853 -2.6035 0
M  V30 4330 C 404.316 2.00876 -4.03683 0
M  V30 4331 C 402.978 1.88599 -4.42701 0
M  V30 4332 C 405.33 1.67279 -4.93626 0
M  V30 4333 C 402.658 1.41017 -5.69501 0
M  V30 4334 C 405.01 1.21169 -6.20887 0
M  V30 4335 C 403.674 1.07487 -6.58789 0
M  V30 4336 H 402.944 0.481734 -0.56304 0
M  V30 4337 H 405.591 0.627301 -1.80934 0
M  V30 4338 H 403.896 3.19318 -2.27032 0
M  V30 4339 H 405.593 3.03039 -2.62619 0
M  V30 4340 H 402.183 2.11374 -3.72853 0
M  V30 4341 H 406.367 1.75638 -4.64182 0
M  V30 4342 H 401.623 1.29086 -5.97618 0
M  V30 4343 H 405.797 0.942345 -6.89995 0
M  V30 4344 H 403.424 0.703946 -7.56934 0
M  V30 4345 N 404.999 1.35443 0.805782 0
M  V30 4346 C 406.245 1.2996 1.56467 0
M  V30 4347 C 406.6 -0.124742 1.91995 0
M  V30 4348 O 405.893 -1.07533 1.58579 0
M  V30 4349 C 406.087 2.14045 2.86216 0
M  V30 4350 C 405.916 3.64512 2.63365 0
M  V30 4351 C 404.686 4.33744 2.59219 0
M  V30 4352 C 406.884 4.58142 2.33688 0
M  V30 4353 N 404.866 5.69953 2.28094 0
M  V30 4354 C 406.237 5.8248 2.12408 0
M  V30 4355 C 408.292 4.46877 2.19558 0
M  V30 4356 C 406.995 6.96818 1.78429 0
M  V30 4357 C 409.021 5.61065 1.86976 0
M  V30 4358 C 408.383 6.84431 1.66532 0
M  V30 4359 H 404.482 0.530817 0.574245 0
M  V30 4360 H 407.066 1.70333 0.943126 0
M  V30 4361 H 405.237 1.75942 3.46264 0
M  V30 4362 H 406.969 2.00075 3.51784 0
M  V30 4363 H 403.724 3.86365 2.73896 0
M  V30 4364 H 404.148 6.41845 2.15323 0
M  V30 4365 H 408.79 3.52102 2.34061 0
M  V30 4366 H 406.508 7.91559 1.62664 0
M  V30 4367 H 410.094 5.54302 1.7675 0
M  V30 4368 H 408.974 7.71294 1.41688 0
M  V30 4369 N 406.477 -1.02803 1.19454 0
M  V30 4370 C 407.705 -1.79841 1.02297 0
M  V30 4371 C 408.12 -1.83879 -0.428259 0
M  V30 4372 O 407.477 -1.28345 -1.29745 0
M  V30 4373 C 407.528 -3.24852 1.58598 0
M  V30 4374 O 407.249 -3.21097 2.98041 0
M  V30 4375 C 408.75 -4.18485 1.46236 0
M  V30 4376 H 405.97 -0.565936 0.360496 0
M  V30 4377 H 408.514 -1.2948 1.58288 0
M  V30 4378 H 406.669 -3.72401 1.06753 0
M  V30 4379 H 407.083 -4.12033 3.24545 0
M  V30 4380 H 408.557 -5.18121 1.90407 0
M  V30 4381 H 409.034 -4.37254 0.41301 0
M  V30 4382 H 409.64 -3.76811 1.97215 0
M  V30 4383 N 407.956 -0.998596 -1.21925 0
M  V30 4384 C 408.904 -0.546641 -2.26085 0
M  V30 4385 C 409.898 0.405576 -1.64473 0
M  V30 4386 O 411.104 0.277471 -1.77849 0
M  V30 4387 H 407.479 -0.158403 -0.735127 0
M  V30 4388 H 409.45 -1.43645 -2.61551 0
M  V30 4389 C 408.199 0.117388 -3.47502 0
M  V30 4390 H 407.522 -0.606277 -3.95176 0
M  V30 4391 H 408.962 0.396993 -4.22137 0
M  V30 4392 C 407.421 1.35455 -3.0847 0
M  V30 4393 O 407.951 2.44944 -3.18379 0
M  V30 4394 N 406.157 1.23191 -2.63196 0
M  V30 4395 H 405.704 0.341006 -2.55333 0
M  V30 4396 H 405.662 2.06071 -2.37449 0
M  V30 4397 N 409.434 1.37368 -0.772513 0
M  V30 4398 C 410.364 2.32856 -0.173304 0
M  V30 4399 C 411.345 1.55818 0.682262 0
M  V30 4400 O 412.53 1.84052 0.619566 0
M  V30 4401 C 409.66 3.40048 0.706007 0
M  V30 4402 C 408.614 4.27973 -0.0483144 0
M  V30 4403 C 407.94 5.26184 0.950491 0
M  V30 4404 C 409.24 5.07665 -1.22776 0
M  V30 4405 H 410.934 2.83217 -0.971002 0
M  V30 4406 H 408.48 1.3617 -0.468377 0
M  V30 4407 H 410.433 4.05827 1.13501 0
M  V30 4408 H 409.157 2.88214 1.53623 0
M  V30 4409 H 407.816 3.63726 -0.458107 0
M  V30 4410 H 407.464 4.7063 1.77529 0
M  V30 4411 H 407.164 5.85872 0.450314 0
M  V30 4412 H 408.688 5.94838 1.37842 0
M  V30 4413 H 410.102 5.66578 -0.875366 0
M  V30 4414 H 408.499 5.76681 -1.66007 0
M  V30 4415 H 409.569 4.40294 -2.03149 0
M  V30 4416 N 410.912 0.523116 1.48665 0
M  V30 4417 C 412.142 -0.00961724 2.06598 0
M  V30 4418 C 412.55 -1.29333 1.38093 0
M  V30 4419 O 411.893 -1.77846 0.46007 0
M  V30 4420 C 411.955 -0.311135 3.58151 0
M  V30 4421 C 411.619 0.878092 4.48485 0
M  V30 4422 C 412.616 1.77464 4.88674 0
M  V30 4423 C 410.301 1.08315 4.90483 0
M  V30 4424 C 412.295 2.86021 5.69623 0
M  V30 4425 C 409.982 2.17187 5.71203 0
M  V30 4426 C 410.98 3.05873 6.10681 0
M  V30 4427 O 410.668 4.12862 6.89783 0
M  V30 4428 H 410.4 0.0272658 0.67545 0
M  V30 4429 H 412.954 0.726156 1.92136 0
M  V30 4430 H 411.184 -1.10079 3.70701 0
M  V30 4431 H 412.873 -0.785125 3.98234 0
M  V30 4432 H 413.639 1.62813 4.56855 0
M  V30 4433 H 409.518 0.402149 4.59243 0
M  V30 4434 H 413.062 3.55272 6.00356 0
M  V30 4435 H 408.959 2.31824 6.02435 0
M  V30 4436 H 409.727 4.10487 7.08126 0
M  V30 4437 N 412.39 -1.55475 0.257931 0
M  V30 4438 C 413.615 -2.04064 -0.370488 0
M  V30 4439 C 414.04 -1.13565 -1.49948 0
M  V30 4440 O 413.398 -0.130781 -1.80828 0
M  V30 4441 C 413.446 -3.50554 -0.845237 0
M  V30 4442 O 412.55 -3.63173 -1.95394 0
M  V30 4443 H 411.891 -0.659257 -0.0792243 0
M  V30 4444 H 414.421 -2.00903 0.387212 0
M  V30 4445 H 414.431 -3.91588 -1.14555 0
M  V30 4446 H 413.106 -4.15896 -0.0191259 0
M  V30 4447 H 411.683 -3.34039 -1.65748 0
M  V30 4448 N 413.868 0.0150385 -1.57593 0
M  V30 4449 C 414.798 1.01047 -2.10503 0
M  V30 4450 C 415.779 1.36816 -1.01071 0
M  V30 4451 O 416.964 1.45455 -1.28672 0
M  V30 4452 C 414.094 2.30708 -2.59598 0
M  V30 4453 C 413.048 2.09142 -3.73421 0
M  V30 4454 C 412.374 3.44685 -4.08774 0
M  V30 4455 C 413.674 1.46619 -5.01298 0
M  V30 4456 H 415.368 0.569978 -2.93925 0
M  V30 4457 H 412.914 0.272724 -1.41394 0
M  V30 4458 H 414.867 3.00687 -2.95238 0
M  V30 4459 H 413.591 2.76843 -1.73279 0
M  V30 4460 H 412.25 1.41592 -3.38153 0
M  V30 4461 H 411.898 3.88495 -3.195 0
M  V30 4462 H 411.598 3.31077 -4.8545 0
M  V30 4463 H 413.122 4.16004 -4.4696 0
M  V30 4464 H 414.536 2.06535 -5.34805 0
M  V30 4465 H 412.933 1.43544 -5.82679 0
M  V30 4466 H 414.003 0.433611 -4.82957 0
M  V30 4467 N 415.346 1.54954 0.287554 0
M  V30 4468 C 416.574 1.78881 1.03967 0
M  V30 4469 C 416.989 0.554894 1.80462 0
M  V30 4470 O 416.346 -0.475676 1.76192 0
M  V30 4471 C 416.397 3.00488 2.0097 0
M  V30 4472 O 416.118 4.19113 1.27577 0
M  V30 4473 C 417.619 3.36907 2.88112 0
M  V30 4474 H 414.839 0.596259 0.307761 0
M  V30 4475 H 417.383 2.01937 0.322749 0
M  V30 4476 H 415.538 2.79601 2.68145 0
M  V30 4477 H 415.952 4.87765 1.92835 0
M  V30 4478 H 417.426 4.25205 3.52001 0
M  V30 4479 H 417.903 2.55659 3.57121 0
M  V30 4480 H 418.509 3.60001 2.26449 0
M  V30 4481 N 416.824 -0.551391 1.4764 0
M  V30 4482 C 418.07 -1.31024 1.54792 0
M  V30 4483 C 418.403 -1.9304 0.211967 0
M  V30 4484 O 417.678 -1.78175 -0.77999 0
M  V30 4485 C 417.961 -2.41593 2.67029 0
M  V30 4486 C 417.814 -1.84408 4.10261 0
M  V30 4487 C 419.133 -3.43488 2.75143 0
M  V30 4488 H 416.252 -0.475031 0.563485 0
M  V30 4489 H 418.894 -0.616454 1.79722 0
M  V30 4490 H 417.044 -3.00772 2.45904 0
M  V30 4491 H 418.716 -1.29445 4.42766 0
M  V30 4492 H 416.959 -1.15051 4.18265 0
M  V30 4493 H 417.63 -2.64367 4.84576 0
M  V30 4494 H 420.106 -2.94236 2.94218 0
M  V30 4495 H 418.982 -4.18274 3.55441 0
M  V30 4496 H 419.243 -4.02703 1.82435 0
M  V30 4497 N 418.302 -1.35869 -0.798587 0
M  V30 4498 C 419.713 -1.26498 -1.37314 0
M  V30 4499 C 420.064 0.0991899 -1.95949 0
M  V30 4500 O 419.189 1.0004 -1.91888 0
M  V30 4501 C 419.784 -2.29054 -2.49639 0
M  V30 4502 C 418.343 -2.234 -3.02935 0
M  V30 4503 C 417.49 -2.14329 -1.75949 0
M  V30 4504 H 420.441 -1.46881 -0.600971 0
M  V30 4505 H 420.462 -1.92166 -3.28409 0
M  V30 4506 H 419.974 -3.2833 -2.06933 0
M  V30 4507 H 418.075 -1.27562 -3.50084 0
M  V30 4508 H 418.188 -3.15703 -3.60372 0
M  V30 4509 H 416.552 -1.60435 -1.9782 0
M  V30 4510 H 417.335 -3.15477 -1.35384 0
M  V30 4511 N 419.78 1.02168 -1.19998 0
M  V30 4512 C 421.027 1.75685 -1.00702 0
M  V30 4513 C 421.355 1.88947 0.461426 0
M  V30 4514 O 420.61 1.40832 1.35885 0
M  V30 4515 C 420.909 3.18081 -1.62969 0
M  V30 4516 C 420.575 3.24809 -3.12746 0
M  V30 4517 C 419.237 3.26352 -3.53621 0
M  V30 4518 C 421.589 3.23379 -4.08749 0
M  V30 4519 C 418.917 3.2413 -4.89036 0
M  V30 4520 C 421.269 3.22698 -5.44104 0
M  V30 4521 C 419.933 3.22542 -5.84399 0
M  V30 4522 H 419.203 0.642877 -0.368496 0
M  V30 4523 H 421.85 1.19865 -1.49348 0
M  V30 4524 H 420.155 3.77027 -1.06573 0
M  V30 4525 H 421.852 3.73648 -1.45561 0
M  V30 4526 H 418.442 3.2434 -2.80181 0
M  V30 4527 H 422.626 3.21361 -3.78207 0
M  V30 4528 H 417.882 3.22338 -5.19527 0
M  V30 4529 H 422.056 3.20543 -6.18244 0
M  V30 4530 H 419.683 3.20575 -6.89301 0
M  V30 4531 N 421.258 1.00505 1.21394 0
M  V30 4532 C 422.506 0.686415 1.90086 0
M  V30 4533 C 422.827 -0.785264 1.7849 0
M  V30 4534 O 422.097 -1.56387 1.17983 0
M  V30 4535 H 420.677 0.2509 0.703604 0
M  V30 4536 H 423.339 1.27417 1.47482 0
M  V30 4537 H 422.435 0.959621 2.96981 0
M  V30 4538 N 422.737 -1.36956 0.779787 0
M  V30 4539 C 423.669 -2.28833 0.129639 0
M  V30 4540 C 424.682 -1.4902 -0.655511 0
M  V30 4541 O 425.871 -1.71578 -0.492279 0
M  V30 4542 C 422.971 -3.2833 -0.839792 0
M  V30 4543 C 422.144 -4.3727 -0.10675 0
M  V30 4544 C 421.203 -5.16789 -0.990717 0
M  V30 4545 O 420.229 -5.67406 -0.451516 0
M  V30 4546 N 421.431 -5.32294 -2.3161 0
M  V30 4547 H 424.196 -2.85268 0.918803 0
M  V30 4548 H 421.757 -1.49019 0.632841 0
M  V30 4549 H 423.749 -3.78413 -1.43477 0
M  V30 4550 H 422.319 -2.72605 -1.52988 0
M  V30 4551 H 421.539 -3.88478 0.669216 0
M  V30 4552 H 422.827 -5.07229 0.399464 0
M  V30 4553 H 422.225 -4.92768 -2.77843 0
M  V30 4554 H 420.782 -5.85656 -2.86095 0
M  V30 4555 N 424.215 -0.530993 -1.48385 0
M  V30 4556 C 425.162 0.231223 -2.29639 0
M  V30 4557 C 426.132 0.932864 -1.37429 0
M  V30 4558 O 427.317 0.933692 -1.66394 0
M  V30 4559 C 424.457 1.27155 -3.2082 0
M  V30 4560 C 423.57 0.578655 -4.28107 0
M  V30 4561 C 422.705 1.602 -5.06467 0
M  V30 4562 C 421.744 0.892625 -6.05556 0
M  V30 4563 N 420.881 1.86157 -6.76971 0
M  V30 4564 H 425.721 -0.467848 -2.94305 0
M  V30 4565 H 423.258 -0.242556 -1.45086 0
M  V30 4566 H 425.216 1.88703 -3.72085 0
M  V30 4567 H 423.846 1.939 -2.58075 0
M  V30 4568 H 422.898 -0.150782 -3.80101 0
M  V30 4569 H 424.21 0.0217065 -4.98795 0
M  V30 4570 H 423.364 2.29173 -5.61751 0
M  V30 4571 H 422.103 2.19285 -4.35621 0
M  V30 4572 H 421.108 0.188829 -5.49476 0
M  V30 4573 H 422.333 0.307878 -6.78402 0
M  V30 4574 H 420.279 2.44147 -6.08875 0
M  V30 4575 H 420.196 1.35608 -7.43738 0
M  V30 4576 H 421.464 2.54325 -7.36844 0
M  V30 4577 N 425.693 1.55336 -0.266172 0
M  V30 4578 C 427.104 1.85236 0.233315 0
M  V30 4579 C 427.455 1.18816 1.56132 0
M  V30 4580 O 426.58 0.473307 2.11161 0
M  V30 4581 C 427.175 3.36059 0.430113 0
M  V30 4582 C 425.734 3.66116 0.873842 0
M  V30 4583 C 424.881 2.77274 -0.0380016 0
M  V30 4584 H 427.832 1.51004 -0.488214 0
M  V30 4585 H 427.853 3.58681 1.26998 0
M  V30 4586 H 427.365 3.84373 -0.536588 0
M  V30 4587 H 425.466 3.23295 1.85233 0
M  V30 4588 H 425.579 4.73699 0.717358 0
M  V30 4589 H 423.943 2.50198 0.476759 0
M  V30 4590 H 424.726 3.284 -1.00042 0
M  V30 4591 N 427.171 -0.0066808 1.57599 0
M  V30 4592 C 428.119 -1.01851 2.09115 0
M  V30 4593 C 429.113 -1.36021 1.00969 0
M  V30 4594 O 430.319 -1.34663 1.19439 0
M  V30 4595 H 426.694 -0.346083 0.667631 0
M  V30 4596 H 428.665 -0.558394 2.93129 0
M  V30 4597 C 427.414 -2.30374 2.60429 0
M  V30 4598 H 426.737 -2.04947 3.43273 0
M  V30 4599 H 428.177 -2.99466 3.00161 0
M  V30 4600 C 426.636 -3.00893 1.51542 0
M  V30 4601 O 427.166 -3.91614 0.894484 0
M  V30 4602 N 425.372 -2.62603 1.2445 0
M  V30 4603 H 424.919 -1.88911 1.75129 0
M  V30 4604 H 424.877 -3.10101 0.518137 0
M  V30 4605 N 428.649 -1.55105 -0.279332 0
M  V30 4606 C 429.898 -1.74618 -1.00952 0
M  V30 4607 C 430.211 -0.551096 -1.87676 0
M  V30 4608 O 431.417 -0.628507 -2.64125 0
M  V30 4609 C 429.873 -3.09025 -1.84476 0
M  V30 4610 C 429.481 -4.36081 -1.0265 0
M  V30 4611 C 431.225 -3.37891 -2.56963 0
M  V30 4612 C 429.132 -5.6153 -1.85576 0
M  V30 4613 H 428.062 -0.650868 -0.38064 0
M  V30 4614 H 430.713 -1.81569 -0.265475 0
M  V30 4615 H 429.095 -2.96095 -2.62952 0
M  V30 4616 H 430.269 -4.59909 -0.286354 0
M  V30 4617 H 428.584 -4.14312 -0.416464 0
M  V30 4618 H 431.181 -4.28822 -3.19399 0
M  V30 4619 H 431.524 -2.57737 -3.26921 0
M  V30 4620 H 432.057 -3.5189 -1.85522 0
M  V30 4621 H 428.796 -6.44413 -1.2005 0
M  V30 4622 H 428.316 -5.41854 -2.57204 0
M  V30 4623 H 429.995 -5.99594 -2.43096 0
M  V30 4624 N 430.127 0.543554 -1.4793 0
M  V30 4625 C 431.404 1.30458 -1.4574 0
M  V30 4626 C 431.784 2.1048 -0.161692 0
M  V30 4627 O 431.132 2.11831 0.856734 0
M  V30 4628 C 431.342 2.19754 -2.71126 0
M  V30 4629 C 432.69 2.80334 -3.18901 0
M  V30 4630 O 433.714 2.30049 -2.71948 0
M  V30 4631 O 432.573 3.71766 -4.00565 0
M  V30 4632 H 429.667 0.588117 -0.581418 0
M  V30 4633 H 432.213 0.561328 -1.60147 0
M  V30 4634 H 430.985 1.60316 -3.56952 0
M  V30 4635 H 430.608 3.01351 -2.59371 0
M  V30 4636 N 431.605 1.3629 0.791371 0
M  V30 4637 C 432.851 1.30605 1.55146 0
M  V30 4638 C 433.184 -0.115042 1.93859 0
M  V30 4639 O 432.459 -1.06798 1.62556 0
M  V30 4640 C 432.742 2.22692 2.82985 0
M  V30 4641 C 432.595 3.73489 2.50651 0
M  V30 4642 C 433.914 2.13588 3.84796 0
M  V30 4643 H 431.033 0.475761 0.562868 0
M  V30 4644 H 433.675 1.66825 0.909358 0
M  V30 4645 H 431.825 1.91933 3.37778 0
M  V30 4646 H 433.497 4.14758 2.01924 0
M  V30 4647 H 431.74 3.93021 1.83622 0
M  V30 4648 H 432.411 4.3333 3.41949 0
M  V30 4649 H 434.887 2.40659 3.39445 0
M  V30 4650 H 433.763 2.80195 4.71998 0
M  V30 4651 H 434.024 1.12256 4.27611 0
M  V30 4652 N 433.083 -1.0153 1.20538 0
M  V30 4653 C 434.311 -1.78746 1.04199 0
M  V30 4654 C 434.726 -1.84323 -0.408733 0
M  V30 4655 O 434.083 -1.29714 -1.28377 0
M  V30 4656 C 434.134 -3.23152 1.62035 0
M  V30 4657 O 433.855 -3.17918 3.0143 0
M  V30 4658 C 435.356 -4.16911 1.50666 0
M  V30 4659 H 432.576 -0.56208 0.366479 0
M  V30 4660 H 435.12 -1.27794 1.59653 0
M  V30 4661 H 433.275 -3.71248 1.10697 0
M  V30 4662 H 433.689 -4.08567 3.28897 0
M  V30 4663 H 435.163 -5.16072 1.95892 0
M  V30 4664 H 435.64 -4.36791 0.459363 0
M  V30 4665 H 436.246 -3.74698 2.01201 0
M  V30 4666 N 434.561 -1.01147 -1.20859 0
M  V30 4667 C 435.838 -0.613136 -1.85742 0
M  V30 4668 C 436.218 0.909004 -1.90526 0
M  V30 4669 O 435.566 1.79862 -1.40932 0
M  V30 4670 C 435.776 -1.255 -3.25654 0
M  V30 4671 C 437.124 -1.3672 -4.01986 0
M  V30 4672 O 438.148 -1.21082 -3.34989 0
M  V30 4673 O 437.007 -1.6194 -5.21956 0
M  V30 4674 H 434.101 -0.210878 -0.799662 0
M  V30 4675 H 436.647 -1.10853 -1.2849 0
M  V30 4676 H 435.419 -2.29532 -3.16908 0
M  V30 4677 H 435.042 -0.746369 -3.90532 0
M  V30 4678 N 436.039 1.36541 -0.78704 0
M  V30 4679 C 437.002 2.28413 -0.189778 0
M  V30 4680 C 438.002 1.48719 0.611499 0
M  V30 4681 O 439.192 1.68737 0.432842 0
M  V30 4682 C 436.324 3.32824 0.737638 0
M  V30 4683 H 437.517 2.82743 -0.999831 0
M  V30 4684 H 435.07 1.46065 -0.556298 0
M  V30 4685 H 435.805 2.83646 1.57212 0
M  V30 4686 H 435.59 3.91752 0.165044 0
M  V30 4687 H 437.08 4.0144 1.15047 0
M  V30 4688 N 437.518 0.538854 1.48102 0
M  V30 4689 C 438.451 -0.266495 2.26639 0
M  V30 4690 C 439.429 -0.93687 1.32897 0
M  V30 4691 O 440.613 -0.959507 1.62252 0
M  V30 4692 C 437.74 -1.37814 3.09394 0
M  V30 4693 C 436.786 -0.818247 4.18577 0
M  V30 4694 S 437.619 0.320848 5.34538 0
M  V30 4695 C 438.775 -0.793059 6.20855 0
M  V30 4696 H 439.008 0.399994 2.94597 0
M  V30 4697 H 436.541 0.324808 1.50945 0
M  V30 4698 H 438.499 -2.01488 3.57649 0
M  V30 4699 H 437.16 -2.01639 2.40833 0
M  V30 4700 H 436.353 -1.65247 4.7614 0
M  V30 4701 H 435.955 -0.258036 3.73109 0
M  V30 4702 H 438.247 -1.68961 6.56093 0
M  V30 4703 H 439.19 -0.255204 7.0764 0
M  V30 4704 H 439.598 -1.07746 5.54122 0
M  V30 4705 N 438.996 -1.55193 0.274407 0
M  V30 4706 C 440.242 -1.99877 -0.343086 0
M  V30 4707 C 440.575 -1.16256 -1.55558 0
M  V30 4708 O 439.85 -0.232462 -1.93106 0
M  V30 4709 C 440.133 -3.52706 -0.725965 0
M  V30 4710 C 439.986 -4.47081 0.493818 0
M  V30 4711 C 441.305 -4.11422 -1.56268 0
M  V30 4712 H 438.424 -0.726625 -0.123229 0
M  V30 4713 H 441.066 -1.86136 0.38121 0
M  V30 4714 H 439.216 -3.64546 -1.34307 0
M  V30 4715 H 440.888 -4.47186 1.13237 0
M  V30 4716 H 439.131 -4.1877 1.13201 0
M  V30 4717 H 439.802 -5.51699 0.18217 0
M  V30 4718 H 442.278 -4.02855 -1.04151 0
M  V30 4719 H 441.154 -5.18568 -1.79939 0
M  V30 4720 H 441.415 -3.61607 -2.54348 0
M  V30 4721 N 440.474 -0.00167713 -1.576 0
M  V30 4722 C 441.751 0.719951 -1.81868 0
M  V30 4723 C 442.131 1.91895 -0.879747 0
M  V30 4724 O 441.479 2.28389 0.0711423 0
M  V30 4725 C 441.689 1.12409 -3.30402 0
M  V30 4726 C 443.037 1.52724 -3.96182 0
M  V30 4727 O 444.061 1.21784 -3.34734 0
M  V30 4728 O 442.92 2.10265 -5.04431 0
M  V30 4729 H 440.014 0.350707 -0.748955 0
M  V30 4730 H 442.56 -0.0272597 -1.69678 0
M  V30 4731 H 441.332 0.269532 -3.90371 0
M  V30 4732 H 440.955 1.93035 -3.47596 0
M  V30 4733 N 441.952 1.55251 0.271103 0
M  V30 4734 C 442.884 1.84675 1.35749 0
M  V30 4735 C 443.897 0.731366 1.45447 0
M  V30 4736 O 445.086 1.00924 1.4723 0
M  V30 4737 C 442.186 1.99638 2.73857 0
M  V30 4738 C 441.359 3.30312 2.86727 0
M  V30 4739 C 440.418 3.35318 4.05522 0
M  V30 4740 O 439.444 4.08682 3.96191 0
M  V30 4741 N 440.646 2.62857 5.17577 0
M  V30 4742 H 443.411 2.78445 1.10853 0
M  V30 4743 H 440.972 1.55191 0.461218 0
M  V30 4744 H 442.964 2.00355 3.51625 0
M  V30 4745 H 441.534 1.12725 2.91568 0
M  V30 4746 H 440.754 3.42118 1.95829 0
M  V30 4747 H 442.042 4.16488 2.92258 0
M  V30 4748 H 441.44 2.02939 5.28046 0
M  V30 4749 H 439.997 2.69295 5.93568 0
M  V30 4750 N 443.43 -0.535701 1.48216 0
M  V30 4751 C 444.393 -1.623 1.61838 0
M  V30 4752 C 445.393 -1.53087 0.492024 0
M  V30 4753 O 446.583 -1.5686 0.757668 0
M  V30 4754 C 443.715 -3.01907 1.58319 0
M  V30 4755 H 444.908 -1.51564 2.58783 0
M  V30 4756 H 442.461 -0.757317 1.36727 0
M  V30 4757 H 443.196 -3.18155 0.628299 0
M  V30 4758 H 442.981 -3.10003 2.40085 0
M  V30 4759 H 444.471 -3.80969 1.71033 0
M  V30 4760 N 444.908 -1.36708 -0.784132 0
M  V30 4761 C 446.154 -1.32433 -1.54379 0
M  V30 4762 C 446.509 0.0941816 -1.92169 0
M  V30 4763 O 445.802 1.04997 -1.60269 0
M  V30 4764 C 445.996 -2.18571 -2.82774 0
M  V30 4765 C 445.825 -3.68656 -2.57533 0
M  V30 4766 C 444.595 -4.37813 -2.52286 0
M  V30 4767 C 446.793 -4.61802 -2.2637 0
M  V30 4768 N 444.775 -5.7351 -2.18997 0
M  V30 4769 C 446.146 -5.85785 -2.03115 0
M  V30 4770 C 448.201 -4.50313 -2.12421 0
M  V30 4771 C 446.904 -6.99569 -1.67321 0
M  V30 4772 C 448.93 -5.63969 -1.78026 0
M  V30 4773 C 448.292 -6.86994 -1.55622 0
M  V30 4774 H 444.391 -0.539886 -0.565727 0
M  V30 4775 H 446.975 -1.71812 -0.915908 0
M  V30 4776 H 445.146 -1.81429 -3.43421 0
M  V30 4777 H 446.878 -2.05646 -3.48557 0
M  V30 4778 H 443.633 -3.90674 -2.67714 0
M  V30 4779 H 444.057 -6.45189 -2.05084 0
M  V30 4780 H 448.699 -3.55781 -2.28429 0
M  V30 4781 H 446.417 -7.94047 -1.5005 0
M  V30 4782 H 450.003 -5.57044 -1.67909 0
M  V30 4783 H 448.883 -7.7345 -1.294 0
M  V30 4784 N 446.386 1.0089 -1.21074 0
M  V30 4785 C 447.663 1.71834 -0.934469 0
M  V30 4786 C 448.043 2.0368 0.554753 0
M  V30 4787 O 447.391 1.70742 1.51854 0
M  V30 4788 C 447.601 2.98061 -1.8155 0
M  V30 4789 C 448.949 3.7117 -2.06199 0
M  V30 4790 O 449.973 3.08034 -1.78867 0
M  V30 4791 O 448.832 4.84721 -2.52404 0
M  V30 4792 H 445.926 0.749253 -0.35007 0
M  V30 4793 H 448.472 1.06668 -1.31985 0
M  V30 4794 H 447.244 2.70908 -2.82355 0
M  V30 4795 H 446.867 3.70968 -1.43068 0
M  V30 4796 N 447.864 1.01787 1.20321 0
M  V30 4797 C 448.827 0.593972 2.2137 0
M  V30 4798 C 449.827 -0.336553 1.57239 0
M  V30 4799 O 451.017 -0.125069 1.7375 0
M  V30 4800 C 448.149 -0.132433 3.40643 0
M  V30 4801 H 449.342 1.48791 2.60387 0
M  V30 4802 H 446.895 0.807803 1.33807 0
M  V30 4803 H 447.63 -1.04123 3.0713 0
M  V30 4804 H 447.415 0.53605 3.88418 0
M  V30 4805 H 448.905 -0.416314 4.1552 0
M  V30 4806 N 449.342 -1.36122 0.79427 0
M  V30 4807 C 450.274 -2.28683 0.153903 0
M  V30 4808 C 451.287 -1.49707 -0.639669 0
M  V30 4809 O 452.476 -1.7209 -0.474054 0
M  V30 4810 C 449.576 -3.29202 -0.804921 0
M  V30 4811 C 448.749 -4.37358 -0.060366 0
M  V30 4812 C 447.808 -5.17811 -0.935849 0
M  V30 4813 O 446.834 -5.67853 -0.391309 0
M  V30 4814 N 448.036 -5.34721 -2.25951 0
M  V30 4815 H 450.801 -2.84278 0.949008 0
M  V30 4816 H 448.362 -1.4834 0.648611 0
M  V30 4817 H 450.354 -3.79914 -1.39455 0
M  V30 4818 H 448.924 -2.74212 -1.50088 0
M  V30 4819 H 448.144 -3.87746 0.710382 0
M  V30 4820 H 449.432 -5.06777 0.45324 0
M  V30 4821 H 448.83 -4.95687 -2.72601 0
M  V30 4822 H 447.387 -5.88657 -2.79867 0
M  V30 4823 N 450.82 -0.546701 -1.47814 0
M  V30 4824 C 452.236 -0.205717 -1.58269 0
M  V30 4825 C 452.436 1.29153 -1.54667 0
M  V30 4826 O 451.492 2.07098 -1.44453 0
M  V30 4827 C 452.805 -0.823065 -2.89216 0
M  V30 4828 C 454.353 -0.793328 -3.02779 0
M  V30 4829 C 454.828 -1.38955 -4.36412 0
M  V30 4830 N 456.319 -1.35227 -4.43021 0
M  V30 4831 C 457.054 -1.78333 -5.44963 0
M  V30 4832 N 456.55 -2.29246 -6.53772 0
M  V30 4833 N 458.343 -1.69467 -5.35945 0
M  V30 4834 H 450.494 -1.5196 -1.48398 0
M  V30 4835 H 452.757 -0.633078 -0.705632 0
M  V30 4836 H 452.463 -1.8749 -2.97558 0
M  V30 4837 H 452.337 -0.309915 -3.75925 0
M  V30 4838 H 454.724 0.249784 -2.94041 0
M  V30 4839 H 454.805 -1.34412 -2.17639 0
M  V30 4840 H 454.449 -2.43168 -4.45906 0
M  V30 4841 H 454.379 -0.814291 -5.20266 0
M  V30 4842 H 456.87 -0.979739 -3.64979 0
M  V30 4843 H 457.183 -2.60089 -7.27718 0
M  V30 4844 H 455.528 -2.3325 -6.5469 0
M  V30 4845 H 458.719 -1.29477 -4.49837 0
M  V30 4846 H 458.892 -2.03381 -6.15256 0
M  V30 4847 N 452.299 1.55045 -0.282633 0
M  V30 4848 C 453.548 1.98938 0.332667 0
M  V30 4849 C 453.861 1.17455 1.56409 0
M  V30 4850 O 455.067 1.51527 2.25282 0
M  V30 4851 C 453.523 3.54105 0.643226 0
M  V30 4852 C 453.131 4.44374 -0.568814 0
M  V30 4853 C 454.875 4.06569 1.22074 0
M  V30 4854 C 452.782 5.90943 -0.232426 0
M  V30 4855 H 451.712 0.743043 0.128075 0
M  V30 4856 H 454.363 1.79341 -0.388464 0
M  V30 4857 H 452.745 3.69532 1.42346 0
M  V30 4858 H 453.919 4.40718 -1.34551 0
M  V30 4859 H 452.234 4.02585 -1.06369 0
M  V30 4860 H 454.831 5.13626 1.48635 0
M  V30 4861 H 455.174 3.56057 2.15707 0
M  V30 4862 H 455.707 3.94612 0.502621 0
M  V30 4863 H 452.446 6.45567 -1.13683 0
M  V30 4864 H 451.966 5.9765 0.507357 0
M  V30 4865 H 453.645 6.4677 0.172657 0
M  V30 4866 N 453.777 0.010035 1.57597 0
M  V30 4867 C 455.024 -0.6727 1.91 0
M  V30 4868 C 455.352 -1.73219 0.884614 0
M  V30 4869 O 454.607 -1.95395 -0.109215 0
M  V30 4870 C 454.906 -1.34434 3.31153 0
M  V30 4871 C 454.572 -0.417083 4.48967 0
M  V30 4872 C 453.234 -0.161809 4.80928 0
M  V30 4873 C 455.586 0.220753 5.20732 0
M  V30 4874 C 452.914 0.739426 5.82022 0
M  V30 4875 C 455.266 1.10993 6.22787 0
M  V30 4876 C 453.93 1.37428 6.532 0
M  V30 4877 H 453.2 -0.246158 0.698918 0
M  V30 4878 H 455.847 0.0677145 1.9138 0
M  V30 4879 H 454.152 -2.15905 3.26944 0
M  V30 4880 H 455.849 -1.87883 3.54261 0
M  V30 4881 H 452.439 -0.626217 4.24001 0
M  V30 4882 H 456.623 0.0365643 4.96287 0
M  V30 4883 H 451.879 0.952139 6.03941 0
M  V30 4884 H 456.053 1.61046 6.77523 0
M  V30 4885 H 453.68 2.0743 7.31353 0
M  V30 4886 N 455.255 -1.55392 -0.262866 0
M  V30 4887 C 456.202 -1.88966 -1.32516 0
M  V30 4888 C 457.172 -0.742187 -1.48596 0
M  V30 4889 O 458.357 -0.99439 -1.62839 0
M  V30 4890 C 455.497 -2.17592 -2.67858 0
M  V30 4891 C 454.61 -3.45061 -2.59917 0
M  V30 4892 C 453.745 -3.63336 -3.87505 0
M  V30 4893 C 452.784 -4.84462 -3.74116 0
M  V30 4894 N 451.921 -4.99342 -4.93561 0
M  V30 4895 H 456.761 -2.79566 -1.03184 0
M  V30 4896 H 454.298 -1.38404 -0.498285 0
M  V30 4897 H 456.256 -2.3219 -3.46617 0
M  V30 4898 H 454.886 -1.30215 -2.95371 0
M  V30 4899 H 453.938 -3.38881 -1.72812 0
M  V30 4900 H 455.25 -4.3396 -2.45926 0
M  V30 4901 H 454.404 -3.77807 -4.74707 0
M  V30 4902 H 453.143 -2.72641 -4.04374 0
M  V30 4903 H 452.148 -4.69985 -2.85297 0
M  V30 4904 H 453.373 -5.76603 -3.58757 0
M  V30 4905 H 451.319 -4.1158 -5.10821 0
M  V30 4906 H 451.236 -5.82303 -4.82141 0
M  V30 4907 H 452.504 -5.18208 -5.82306 0
M  V30 4908 N 456.733 0.527833 -1.48498 0
M  V30 4909 C 457.643 1.65907 -1.65867 0
M  V30 4910 C 458.659 1.6537 -0.541192 0
M  V30 4911 O 459.835 1.84282 -0.812534 0
M  V30 4912 C 456.9 3.02364 -1.69637 0
M  V30 4913 C 455.961 3.1374 -2.93028 0
M  V30 4914 C 455.194 4.43688 -2.96609 0
M  V30 4915 O 455.417 5.30913 -2.08538 0
M  V30 4916 O 454.351 4.59475 -3.88802 0
M  V30 4917 H 458.177 1.5419 -2.61647 0
M  V30 4918 H 455.762 0.701163 -1.31924 0
M  V30 4919 H 457.644 3.83515 -1.74625 0
M  V30 4920 H 456.319 3.14401 -0.770312 0
M  V30 4921 H 455.226 2.31877 -2.93571 0
M  V30 4922 H 456.559 3.06621 -3.85026 0
M  V30 4923 N 458.211 1.37122 0.776871 0
M  V30 4924 C 459.174 1.32301 1.8716 0
M  V30 4925 C 460.174 0.228099 1.59174 0
M  V30 4926 O 461.364 0.483642 1.67352 0
M  V30 4927 C 458.496 1.054 3.24197 0
M  V30 4928 H 459.689 2.29673 1.92848 0
M  V30 4929 H 457.242 1.22077 0.97606 0
M  V30 4930 H 457.977 0.0853872 3.24188 0
M  V30 4931 H 457.762 1.84648 3.45901 0
M  V30 4932 H 459.252 1.04664 4.04271 0
M  V30 4933 N 459.689 -1.00246 1.21608 0
M  V30 4934 C 460.599 -2.12515 0.993709 0
M  V30 4935 C 461.615 -1.73913 -0.0549939 0
M  V30 4936 O 462.791 -2.00943 0.135619 0
M  V30 4937 C 459.856 -3.42083 0.563953 0
M  V30 4938 C 458.917 -3.94843 1.68516 0
M  V30 4939 C 458.15 -5.18226 1.27582 0
M  V30 4940 O 458.373 -5.70201 0.150506 0
M  V30 4941 O 457.307 -5.64497 2.0887 0
M  V30 4942 H 461.133 -2.34152 1.93407 0
M  V30 4943 H 458.718 -1.10891 1.00118 0
M  V30 4944 H 460.6 -4.20073 0.334194 0
M  V30 4945 H 459.275 -3.21828 -0.347665 0
M  V30 4946 H 458.182 -3.18068 1.96935 0
M  V30 4947 H 459.515 -4.19512 2.5743 0
M  V30 4948 N 461.167 -1.02423 -1.1978 0
M  V30 4949 C 462.114 -0.601023 -2.22837 0
M  V30 4950 C 463.084 0.382801 -1.61629 0
M  V30 4951 O 464.269 0.280514 -1.88727 0
M  V30 4952 C 461.409 0.0467755 -3.45068 0
M  V30 4953 C 460.522 -0.98253 -4.20678 0
M  V30 4954 C 459.657 -0.304982 -5.30324 0
M  V30 4955 C 458.696 -1.32052 -5.97686 0
M  V30 4956 N 457.833 -0.669105 -6.98904 0
M  V30 4957 H 462.673 -1.48444 -2.58396 0
M  V30 4958 H 460.21 -0.742936 -1.2696 0
M  V30 4959 H 462.168 0.439556 -4.14878 0
M  V30 4960 H 460.798 0.893796 -3.10179 0
M  V30 4961 H 459.85 -1.49341 -3.49859 0
M  V30 4962 H 461.162 -1.75455 -4.66923 0
M  V30 4963 H 460.316 0.142893 -6.06532 0
M  V30 4964 H 459.055 0.499283 -4.85138 0
M  V30 4965 H 458.06 -1.7787 -5.20233 0
M  V30 4966 H 459.285 -2.1262 -6.44957 0
M  V30 4967 H 457.231 0.115152 -6.55899 0
M  V30 4968 H 457.148 -1.37908 -7.43315 0
M  V30 4969 H 458.416 -0.245076 -7.79115 0
M  V30 4970 N 462.645 1.35699 -0.801477 0
M  V30 4971 C 463.892 1.98913 -0.379459 0
M  V30 4972 C 464.22 1.63592 1.05204 0
M  V30 4973 O 463.475 0.888563 1.74365 0
M  V30 4974 C 463.774 3.53828 -0.504041 0
M  V30 4975 C 463.44 4.09002 -1.8981 0
M  V30 4976 C 462.102 4.23783 -2.27951 0
M  V30 4977 C 464.454 4.38939 -2.81038 0
M  V30 4978 C 461.782 4.65816 -3.56696 0
M  V30 4979 C 464.134 4.82409 -4.09224 0
M  V30 4980 C 462.798 4.95395 -4.4737 0
M  V30 4981 H 462.068 0.727874 -0.138854 0
M  V30 4982 H 464.715 1.61994 -1.02128 0
M  V30 4983 H 463.02 3.91175 0.221242 0
M  V30 4984 H 464.717 4.00687 -0.158361 0
M  V30 4985 H 461.307 3.97946 -1.59176 0
M  V30 4986 H 465.491 4.27077 -2.52821 0
M  V30 4987 H 460.747 4.74059 -3.86106 0
M  V30 4988 H 464.921 5.04535 -4.80018 0
M  V30 4989 H 462.548 5.27724 -5.47185 0
M  V30 4990 N 464.123 0.554532 1.47522 0
M  V30 4991 C 465.37 0.029479 2.02479 0
M  V30 4992 C 465.698 -1.31929 1.42916 0
M  V30 4993 O 464.953 -1.87112 0.573385 0
M  V30 4994 C 465.252 -0.115927 3.57212 0
M  V30 4995 C 464.918 1.16161 4.3568 0
M  V30 4996 C 463.58 1.51168 4.56839 0
M  V30 4997 C 465.932 2.0083 4.80954 0
M  V30 4998 C 463.26 2.70696 5.2052 0
M  V30 4999 C 465.612 3.19559 5.45953 0
M  V30 5000 C 464.276 3.54882 5.65345 0
M  V30 5001 H 463.546 0.0107871 0.740921 0
M  V30 5002 H 466.193 0.725506 1.77225 0
M  V30 5003 H 464.498 -0.894902 3.81443 0
M  V30 5004 H 466.195 -0.53749 3.97381 0
M  V30 5005 H 462.785 0.879026 4.19489 0
M  V30 5006 H 466.969 1.75093 4.64388 0
M  V30 5007 H 462.225 2.98236 5.33728 0
M  V30 5008 H 466.399 3.85456 5.79997 0
M  V30 5009 H 464.026 4.47596 6.1446 0
M  V30 5010 N 465.601 -1.54893 0.290851 0
M  V30 5011 C 466.847 -2.0023 -0.321867 0
M  V30 5012 C 467.18 -1.179 -1.54316 0
M  V30 5013 O 466.455 -0.25293 -1.92848 0
M  V30 5014 C 466.738 -3.53456 -0.688515 0
M  V30 5015 C 466.591 -4.46532 0.541209 0
M  V30 5016 C 467.91 -4.13057 -1.51895 0
M  V30 5017 H 465.029 -0.727891 -0.115515 0
M  V30 5018 H 467.671 -1.85722 0.400931 0
M  V30 5019 H 465.821 -3.6595 -1.30433 0
M  V30 5020 H 467.493 -4.4596 1.17973 0
M  V30 5021 H 465.736 -4.17545 1.17636 0
M  V30 5022 H 466.407 -5.51475 0.240675 0
M  V30 5023 H 468.883 -4.03937 -0.99872 0
M  V30 5024 H 467.759 -5.20448 -1.74429 0
M  V30 5025 H 468.02 -3.64284 -2.50498 0
M  V30 5026 N 467.08 -0.0183926 -1.57589 0
M  V30 5027 C 468.305 0.676634 -1.96052 0
M  V30 5028 C 468.73 1.6548 -0.894307 0
M  V30 5029 O 468.088 1.80712 0.145849 0
M  V30 5030 C 468.136 1.36872 -3.33614 0
M  V30 5031 O 467.24 2.48372 -3.29219 0
M  V30 5032 H 466.581 0.1786 -0.63953 0
M  V30 5033 H 469.111 -0.077056 -2.04455 0
M  V30 5034 H 469.121 1.72797 -3.69601 0
M  V30 5035 H 467.796 0.651636 -4.10763 0
M  V30 5036 H 466.373 2.14639 -3.04934 0
M  V30 5037 N 468.558 1.5553 0.254621 0
M  V30 5038 C 469.804 1.77262 0.985193 0
M  V30 5039 C 470.137 0.582286 1.85265 0
M  V30 5040 O 469.412 -0.419666 1.89919 0
M  V30 5041 C 469.695 3.0881 1.85225 0
M  V30 5042 C 469.548 4.38233 1.0135 0
M  V30 5043 C 470.867 3.3653 2.83612 0
M  V30 5044 H 467.986 0.644906 0.356742 0
M  V30 5045 H 470.628 1.88264 0.256236 0
M  V30 5046 H 468.778 2.99562 2.47376 0
M  V30 5047 H 470.45 4.59463 0.411269 0
M  V30 5048 H 468.693 4.32636 0.317574 0
M  V30 5049 H 469.364 5.26644 1.65379 0
M  V30 5050 H 471.84 3.45691 2.31596 0
M  V30 5051 H 470.716 4.29805 3.41407 0
M  V30 5052 H 470.977 2.57064 3.59681 0
M  V30 5053 N 470.036 -0.519951 1.48776 0
M  V30 5054 C 471.284 -1.2727 1.56993 0
M  V30 5055 C 471.605 -1.9339 0.25004 0
M  V30 5056 O 470.875 -1.81822 -0.729216 0
M  V30 5057 H 469.455 -0.472732 0.578389 0
M  V30 5058 H 472.117 -0.604234 1.85297 0
M  V30 5059 H 471.213 -2.04669 2.3562 0
M  V30 5060 N 471.514 -1.37532 -0.769588 0
M  V30 5061 C 472.444 -1.36172 -1.89682 0
M  V30 5062 C 473.425 -0.23001 -1.68538 0
M  V30 5063 O 474.61 -0.43069 -1.89364 0
M  V30 5064 C 471.74 -1.1701 -3.26995 0
M  V30 5065 C 470.694 -2.27216 -3.62708 0
M  V30 5066 C 470.02 -1.93174 -4.98586 0
M  V30 5067 C 471.32 -3.6941 -3.69234 0
M  V30 5068 H 473.014 -2.30499 -1.91078 0
M  V30 5069 H 470.56 -1.10953 -0.917902 0
M  V30 5070 H 472.513 -1.14688 -4.05493 0
M  V30 5071 H 471.237 -0.191395 -3.26039 0
M  V30 5072 H 469.896 -2.28697 -2.86519 0
M  V30 5073 H 469.544 -0.938281 -4.94171 0
M  V30 5074 H 469.244 -2.66973 -5.23449 0
M  V30 5075 H 470.768 -1.92443 -5.79481 0
M  V30 5076 H 472.182 -3.70047 -4.37879 0
M  V30 5077 H 470.579 -4.4228 -4.05597 0
M  V30 5078 H 471.649 -4.0288 -2.69844 0
M  V30 5079 N 472.992 0.995999 -1.22138 0
M  V30 5080 C 474.403 1.54961 -1.04135 0
M  V30 5081 C 474.754 1.92159 0.396147 0
M  V30 5082 O 473.879 1.74435 1.28069 0
M  V30 5083 C 474.474 2.81581 -1.88408 0
M  V30 5084 C 473.033 3.33396 -1.74712 0
M  V30 5085 C 472.18 2.06509 -1.85066 0
M  V30 5086 H 475.131 0.817436 -1.36028 0
M  V30 5087 H 475.152 3.53822 -1.39966 0
M  V30 5088 H 474.664 2.54476 -2.93025 0
M  V30 5089 H 472.765 3.65416 -0.728159 0
M  V30 5090 H 472.878 4.04208 -2.57202 0
M  V30 5091 H 471.242 2.19925 -1.28472 0
M  V30 5092 H 472.025 1.81804 -2.91208 0
M  V30 5093 N 474.47 1.03057 1.19235 0
M  V30 5094 C 475.418 0.606391 2.24557 0
M  V30 5095 C 476.412 -0.361826 1.65491 0
M  V30 5096 O 477.618 -0.23022 1.78522 0
M  V30 5097 H 473.993 0.177838 0.730669 0
M  V30 5098 H 475.964 1.50529 2.5765 0
M  V30 5099 C 474.713 -0.0252127 3.47691 0
M  V30 5100 H 474.036 0.710838 3.9343 0
M  V30 5101 H 475.476 -0.284931 4.23042 0
M  V30 5102 C 473.935 -1.27229 3.11953 0
M  V30 5103 O 474.465 -2.36416 3.24762 0
M  V30 5104 N 472.671 -1.16169 2.6637 0
M  V30 5105 H 472.218 -0.273189 2.56147 0
M  V30 5106 H 472.176 -1.99703 2.42829 0
M  V30 5107 N 475.948 -1.35272 0.808662 0
M  V30 5108 C 476.881 -2.27595 0.165994 0
M  V30 5109 C 477.859 -1.48189 -0.669241 0
M  V30 5110 O 479.043 -1.77444 -0.636073 0
M  V30 5111 C 476.17 -3.29843 -0.769505 0
M  V30 5112 C 475.216 -4.26498 -0.0136267 0
M  V30 5113 S 476.049 -5.18878 1.32384 0
M  V30 5114 C 477.205 -6.24666 0.392838 0
M  V30 5115 H 477.438 -2.81755 0.948756 0
M  V30 5116 H 474.971 -1.42103 0.603828 0
M  V30 5117 H 476.929 -3.89247 -1.30374 0
M  V30 5118 H 475.59 -2.74558 -1.52567 0
M  V30 5119 H 474.783 -4.98769 -0.724227 0
M  V30 5120 H 474.385 -3.71274 0.450713 0
M  V30 5121 H 476.677 -6.7619 -0.4211 0
M  V30 5122 H 477.62 -6.99741 1.0848 0
M  V30 5123 H 478.028 -5.64499 -0.0123908 0
M  V30 5124 N 477.426 -0.562348 -1.47226 0
M  V30 5125 C 478.654 -0.0452275 -2.06851 0
M  V30 5126 C 479.069 1.25078 -1.41424 0
M  V30 5127 O 478.426 1.75156 -0.512513 0
M  V30 5128 C 478.477 0.148674 -3.61194 0
M  V30 5129 O 478.198 -1.09602 -4.24169 0
M  V30 5130 C 479.699 0.702488 -4.37699 0
M  V30 5131 H 476.919 -0.0481775 -0.669268 0
M  V30 5132 H 479.463 -0.777223 -1.89155 0
M  V30 5133 H 477.618 0.830817 -3.78386 0
M  V30 5134 H 478.032 -0.896982 -5.16773 0
M  V30 5135 H 479.506 0.78743 -5.46355 0
M  V30 5136 H 479.983 1.71493 -4.04335 0
M  V30 5137 H 480.589 0.0558772 -4.25263 0
M  V30 5138 N 478.904 1.54736 -0.299062 0
M  V30 5139 C 479.836 2.20891 0.61153 0
M  V30 5140 C 480.849 1.20104 1.09904 0
M  V30 5141 O 482.038 1.46707 1.01683 0
M  V30 5142 C 479.138 2.84018 1.84897 0
M  V30 5143 C 478.311 4.10719 1.50428 0
M  V30 5144 C 477.37 4.57667 2.59667 0
M  V30 5145 O 476.396 5.2291 2.24842 0
M  V30 5146 N 477.598 4.29821 3.90172 0
M  V30 5147 H 480.363 2.99666 0.0452001 0
M  V30 5148 H 477.924 1.61446 -0.121178 0
M  V30 5149 H 479.916 3.1236 2.5732 0
M  V30 5150 H 478.486 2.09095 2.32375 0
M  V30 5151 H 477.706 3.89408 0.612781 0
M  V30 5152 H 478.994 4.93223 1.24934 0
M  V30 5153 H 478.392 3.77549 4.21276 0
M  V30 5154 H 476.949 4.62877 4.58899 0
M  V30 5155 N 480.382 0.0267497 1.57577 0
M  V30 5156 C 481.63 -0.651116 1.91324 0
M  V30 5157 C 481.951 -1.72804 0.90353 0
M  V30 5158 O 481.221 -1.95822 -0.0552946 0
M  V30 5159 H 479.801 -0.243491 0.706202 0
M  V30 5160 H 482.463 0.0739935 1.94759 0
M  V30 5161 H 481.559 -1.10536 2.9187 0
M  V30 5162 N 481.861 -1.55662 -0.24637 0
M  V30 5163 C 483.108 -1.77519 -0.974335 0
M  V30 5164 C 483.436 -0.591165 -1.85298 0
M  V30 5165 O 482.691 0.425497 -1.91018 0
M  V30 5166 C 482.99 -3.04885 -1.86494 0
M  V30 5167 C 482.656 -4.36209 -1.14161 0
M  V30 5168 C 481.318 -4.71896 -0.941701 0
M  V30 5169 C 483.67 -5.17391 -0.628957 0
M  V30 5170 C 480.998 -5.86299 -0.216852 0
M  V30 5171 C 483.35 -6.32546 0.0824273 0
M  V30 5172 C 482.014 -6.66853 0.293807 0
M  V30 5173 H 481.284 -0.649588 -0.356535 0
M  V30 5174 H 483.931 -1.89934 -0.244394 0
M  V30 5175 H 482.236 -2.87484 -2.66196 0
M  V30 5176 H 483.933 -3.18994 -2.42989 0
M  V30 5177 H 480.523 -4.08174 -1.30736 0
M  V30 5178 H 484.707 -4.90276 -0.770943 0
M  V30 5179 H 479.963 -6.11385 -0.0426124 0
M  V30 5180 H 484.137 -6.94693 0.487292 0
M  V30 5181 H 481.764 -7.55349 0.857428 0
M  V30 5182 N 483.339 0.512053 -1.4905 0
M  V30 5183 C 484.585 1.26613 -1.59187 0
M  V30 5184 C 484.94 1.90494 -0.270163 0
M  V30 5185 O 484.233 1.77204 0.728648 0
M  V30 5186 C 484.427 2.36446 -2.68008 0
M  V30 5187 C 484.256 1.83334 -4.10632 0
M  V30 5188 C 483.026 1.65131 -4.77556 0
M  V30 5189 C 485.224 1.35153 -4.96224 0
M  V30 5190 N 483.206 1.06833 -6.04533 0
M  V30 5191 C 484.577 0.889186 -6.13591 0
M  V30 5192 C 486.632 1.23623 -4.82309 0
M  V30 5193 C 485.335 0.322953 -7.18575 0
M  V30 5194 C 487.361 0.683978 -5.87431 0
M  V30 5195 C 486.723 0.2318 -7.04018 0
M  V30 5196 H 482.822 0.453678 -0.636946 0
M  V30 5197 H 485.406 0.575217 -1.86009 0
M  V30 5198 H 483.577 3.03012 -2.42978 0
M  V30 5199 H 485.309 3.03485 -2.67729 0
M  V30 5200 H 482.064 1.89178 -4.34176 0
M  V30 5201 H 482.488 0.796425 -6.72299 0
M  V30 5202 H 487.13 1.57184 -3.92496 0
M  V30 5203 H 484.848 -0.024943 -8.08096 0
M  V30 5204 H 488.434 0.597694 -5.78722 0
M  V30 5205 H 487.314 -0.188869 -7.83973 0
M  V30 5206 N 484.817 1.37938 0.762283 0
M  V30 5207 C 485.727 1.36681 1.90671 0
M  V30 5208 C 486.743 0.265078 1.71969 0
M  V30 5209 O 487.919 0.502055 1.95042 0
M  V30 5210 C 484.984 1.18211 3.25925 0
M  V30 5211 C 484.045 2.3811 3.57214 0
M  V30 5212 C 483.278 2.20512 4.86014 0
M  V30 5213 O 483.501 1.19429 5.57757 0
M  V30 5214 O 482.435 3.08911 5.16583 0
M  V30 5215 H 486.261 2.33091 1.94685 0
M  V30 5216 H 483.846 1.18767 0.906356 0
M  V30 5217 H 485.728 1.09937 4.06807 0
M  V30 5218 H 484.403 0.248807 3.22742 0
M  V30 5219 H 483.31 2.51958 2.76529 0
M  V30 5220 H 484.643 3.30041 3.65149 0
M  V30 5221 N 486.295 -0.989507 1.22664 0
M  V30 5222 C 487.243 -2.10148 0.997035 0
M  V30 5223 C 488.237 -1.6929 -0.0609783 0
M  V30 5224 O 489.443 -1.79766 0.0917523 0
M  V30 5225 H 485.818 -0.687256 0.305259 0
M  V30 5226 H 487.789 -2.26685 1.94053 0
M  V30 5227 C 486.538 -3.4257 0.595085 0
M  V30 5228 H 485.861 -3.74453 1.40089 0
M  V30 5229 H 487.301 -4.21344 0.473869 0
M  V30 5230 C 485.76 -3.29638 -0.695725 0
M  V30 5231 O 486.29 -3.61709 -1.74727 0
M  V30 5232 N 484.496 -2.82814 -0.668173 0
M  V30 5233 H 484.043 -2.56914 0.18787 0
M  V30 5234 H 484.001 -2.74544 -1.5321 0
M  V30 5235 N 487.773 -1.03688 -1.18687 0
M  V30 5236 C 488.998 -0.757819 -1.93059 0
M  V30 5237 C 489.423 0.678353 -1.75442 0
M  V30 5238 O 488.781 1.46938 -1.06203 0
M  V30 5239 C 488.829 -1.12423 -3.42627 0
M  V30 5240 O 487.933 -0.247505 -4.11657 0
M  V30 5241 H 487.274 -0.279245 -0.602427 0
M  V30 5242 H 489.804 -1.3857 -1.5053 0
M  V30 5243 H 489.814 -1.08454 -3.93322 0
M  V30 5244 H 488.489 -2.17049 -3.54771 0
M  V30 5245 H 487.066 -0.34649 -3.71287 0
M  V30 5246 N 489.251 1.34841 -0.815825 0
M  V30 5247 C 490.184 2.27504 -0.178062 0
M  V30 5248 C 491.162 1.48542 0.661373 0
M  V30 5249 O 492.346 1.77779 0.626653 0
M  V30 5250 C 489.473 3.30246 0.752002 0
M  V30 5251 C 488.519 4.26499 -0.00899172 0
M  V30 5252 S 489.352 5.18169 -1.35134 0
M  V30 5253 C 490.508 6.24449 -0.42596 0
M  V30 5254 H 490.741 2.81248 -0.963684 0
M  V30 5255 H 488.274 1.41781 -0.611355 0
M  V30 5256 H 490.232 3.89933 1.28308 0
M  V30 5257 H 488.893 2.75363 1.51109 0
M  V30 5258 H 488.086 4.99146 0.697766 0
M  V30 5259 H 487.688 3.7103 -0.470396 0
M  V30 5260 H 489.98 6.76404 0.385234 0
M  V30 5261 H 490.923 6.99156 -1.1219 0
M  V30 5262 H 491.331 5.64497 -0.0175461 0
M  V30 5263 N 490.729 0.570148 1.46925 0
M  V30 5264 C 491.659 -0.158274 2.32963 0
M  V30 5265 C 492.64 -0.896093 1.44583 0
M  V30 5266 O 493.825 -0.874022 1.7342 0
M  V30 5267 C 490.955 -1.18055 3.26619 0
M  V30 5268 C 489.909 -0.558379 4.24342 0
M  V30 5269 C 489.235 -1.68623 5.07415 0
M  V30 5270 C 490.535 0.496295 5.19937 0
M  V30 5271 H 492.229 0.560046 2.94115 0
M  V30 5272 H 489.775 0.270775 1.41431 0
M  V30 5273 H 491.728 -1.69841 3.85658 0
M  V30 5274 H 490.452 -1.92899 2.63548 0
M  V30 5275 H 489.111 -0.0617157 3.66548 0
M  V30 5276 H 488.759 -2.42402 4.40738 0
M  V30 5277 H 488.459 -1.27564 5.73586 0
M  V30 5278 H 489.983 -2.20709 5.69315 0
M  V30 5279 H 491.397 0.0640052 5.73264 0
M  V30 5280 H 489.794 0.82649 5.94381 0
M  V30 5281 H 490.864 1.38735 4.6463 0
M  V30 5282 N 492.207 -1.54576 0.307264 0
M  V30 5283 C 493.435 -2.04675 -0.302597 0
M  V30 5284 C 493.85 -1.18425 -1.47041 0
M  V30 5285 O 493.207 -0.211257 -1.81273 0
M  V30 5286 C 493.258 -3.53575 -0.752801 0
M  V30 5287 O 492.979 -4.36547 0.368536 0
M  V30 5288 C 494.48 -4.19699 -1.42717 0
M  V30 5289 H 491.7 -0.66786 -0.0648374 0
M  V30 5290 H 494.244 -1.99516 0.448716 0
M  V30 5291 H 492.399 -3.59074 -1.45412 0
M  V30 5292 H 492.813 -5.24497 0.0168937 0
M  V30 5293 H 494.287 -5.25388 -1.69327 0
M  V30 5294 H 494.764 -3.69815 -2.36925 0
M  V30 5295 H 495.37 -4.18293 -0.768856 0
M  V30 5296 N 493.685 -0.035106 -1.57561 0
M  V30 5297 C 494.962 0.681212 -1.83354 0
M  V30 5298 C 495.342 1.89986 -0.920252 0
M  V30 5299 O 494.69 2.28489 0.0226815 0
M  V30 5300 C 494.9 1.05376 -3.32712 0
M  V30 5301 C 496.248 1.44286 -3.99333 0
M  V30 5302 O 497.272 1.14656 -3.37242 0
M  V30 5303 O 496.131 1.99518 -5.08778 0
M  V30 5304 H 493.225 0.334741 -0.756226 0
M  V30 5305 H 495.771 -0.0632448 -1.69582 0
M  V30 5306 H 494.543 0.186668 -3.90854 0
M  V30 5307 H 494.166 1.85619 -3.51613 0
M  V30 5308 N 495.163 1.55791 0.238111 0
M  V30 5309 C 496.574 1.68383 0.806472 0
M  V30 5310 C 496.925 0.634157 1.85669 0
M  V30 5311 O 496.05 -0.217913 2.153 0
M  V30 5312 C 496.645 3.05268 1.46959 0
M  V30 5313 C 495.204 3.1977 1.98555 0
M  V30 5314 C 494.351 2.64279 0.839763 0
M  V30 5315 H 497.302 1.58694 0.0137535 0
M  V30 5316 H 497.323 3.00203 2.33792 0
M  V30 5317 H 496.835 3.81643 0.704993 0
M  V30 5318 H 494.936 2.48234 2.77868 0
M  V30 5319 H 495.049 4.26788 2.17689 0
M  V30 5320 H 493.413 2.22329 1.24265 0
M  V30 5321 H 494.196 3.43187 0.0881032 0
M  V30 5322 N 496.642 -0.504142 1.49319 0
M  V30 5323 C 497.89 -1.25598 1.58334 0
M  V30 5324 C 498.211 -1.93114 0.270538 0
M  V30 5325 O 497.481 -1.82585 -0.709891 0
M  V30 5326 H 496.061 -0.466571 0.58337 0
M  V30 5327 H 498.723 -0.584547 1.85928 0
M  V30 5328 H 497.819 -2.02159 2.37778 0
M  V30 5329 N 498.12 -1.38341 -0.754957 0
M  V30 5330 C 499.068 -1.35573 -1.89005 0
M  V30 5331 C 500.062 -0.241824 -1.67665 0
M  V30 5332 O 501.268 -0.410785 -1.7525 0
M  V30 5333 H 497.643 -0.422898 -0.621821 0
M  V30 5334 H 499.614 -2.31359 -1.88455 0
M  V30 5335 C 498.363 -1.19631 -3.26471 0
M  V30 5336 H 497.686 -2.04605 -3.43477 0
M  V30 5337 H 499.126 -1.21748 -4.06144 0
M  V30 5338 C 497.585 0.0968705 -3.36761 0
M  V30 5339 O 498.115 1.07439 -3.87066 0
M  V30 5340 N 496.321 0.153242 -2.90196 0
M  V30 5341 H 495.868 -0.642908 -2.49448 0
M  V30 5342 H 495.826 1.01807 -2.9746 0
M  V30 5343 N 499.598 0.982988 -1.23187 0
M  V30 5344 C 500.844 1.72648 -1.06398 0
M  V30 5345 C 501.177 1.90066 0.398561 0
M  V30 5346 O 500.452 1.45105 1.29518 0
M  V30 5347 C 500.735 3.12627 -1.78707 0
M  V30 5348 C 500.588 3.02795 -3.32618 0
M  V30 5349 C 501.907 4.11997 -1.54747 0
M  V30 5350 H 499.026 0.626649 -0.387918 0
M  V30 5351 H 501.668 1.14455 -1.51658 0
M  V30 5352 H 499.818 3.62308 -1.40234 0
M  V30 5353 H 501.49 2.60659 -3.80598 0
M  V30 5354 H 499.733 2.39362 -3.61785 0
M  V30 5355 H 500.404 4.01893 -3.78399 0
M  V30 5356 H 502.88 3.71114 -1.88186 0
M  V30 5357 H 501.756 5.08037 -2.07821 0
M  V30 5358 H 502.017 4.39462 -0.482249 0
M  V30 5359 N 501.076 1.04316 1.18135 0
M  V30 5360 C 502.008 0.594444 2.21357 0
M  V30 5361 C 503.021 -0.337215 1.59269 0
M  V30 5362 O 504.21 -0.131337 1.78016 0
M  V30 5363 C 501.31 -0.151251 3.38562 0
M  V30 5364 C 500.483 0.788907 4.30227 0
M  V30 5365 C 499.542 0.0860572 5.2613 0
M  V30 5366 O 498.568 0.717302 5.64662 0
M  V30 5367 N 499.77 -1.17969 5.68387 0
M  V30 5368 H 502.535 1.48227 2.60478 0
M  V30 5369 H 500.096 0.92396 1.32946 0
M  V30 5370 H 502.088 -0.631352 3.99745 0
M  V30 5371 H 500.658 -0.940639 2.98112 0
M  V30 5372 H 499.878 1.44882 3.6661 0
M  V30 5373 H 501.166 1.42738 4.88368 0
M  V30 5374 H 500.564 -1.71302 5.3914 0
M  V30 5375 H 499.121 -1.60402 6.31755 0
M  V30 5376 N 502.554 -1.34406 0.822964 0
M  V30 5377 C 503.501 -2.29519 0.24284 0
M  V30 5378 C 504.471 -1.5359 -0.632397 0
M  V30 5379 O 505.656 -1.8196 -0.57403 0
M  V30 5380 C 502.796 -3.40032 -0.58925 0
M  V30 5381 C 501.909 -4.30899 0.308236 0
M  V30 5382 C 501.044 -5.28515 -0.533425 0
M  V30 5383 C 500.083 -6.1102 0.363444 0
M  V30 5384 N 499.22 -7.00725 -0.439147 0
M  V30 5385 H 504.06 -2.78537 1.05929 0
M  V30 5386 H 501.597 -1.3707 0.533872 0
M  V30 5387 H 503.555 -4.0279 -1.087 0
M  V30 5388 H 502.185 -2.92248 -1.37081 0
M  V30 5389 H 501.237 -3.69002 0.924203 0
M  V30 5390 H 502.549 -4.88717 0.997862 0
M  V30 5391 H 501.703 -5.96725 -1.09565 0
M  V30 5392 H 500.442 -4.71235 -1.25656 0
M  V30 5393 H 499.447 -5.41743 0.937812 0
M  V30 5394 H 500.672 -6.70381 1.08469 0
M  V30 5395 H 498.618 -6.45913 -1.14595 0
M  V30 5396 H 498.535 -7.55756 0.19209 0
M  V30 5397 H 499.803 -7.73263 -0.984124 0
M  V30 5398 N 504.032 -0.577932 -1.46621 0
M  V30 5399 C 504.995 0.147805 -2.28723 0
M  V30 5400 C 505.995 0.823325 -1.38123 0
M  V30 5401 O 507.185 0.676011 -1.60548 0
M  V30 5402 C 504.317 1.21853 -3.18378 0
M  V30 5403 H 505.51 -0.573654 -2.94362 0
M  V30 5404 H 503.063 -0.335703 -1.52652 0
M  V30 5405 H 503.798 1.97173 -2.57475 0
M  V30 5406 H 503.583 0.738714 -3.85078 0
M  V30 5407 H 505.073 1.72768 -3.80186 0
M  V30 5408 N 505.51 1.54411 -0.315457 0
M  V30 5409 C 506.756 2.00716 0.289972 0
M  V30 5410 C 507.089 1.2034 1.5242 0
M  V30 5411 O 506.364 0.283579 1.92422 0
M  V30 5412 C 506.647 3.54507 0.632196 0
M  V30 5413 C 506.5 4.45615 -0.61218 0
M  V30 5414 C 507.819 4.15421 1.45305 0
M  V30 5415 H 504.938 0.729637 0.10392 0
M  V30 5416 H 507.58 1.8506 -0.430427 0
M  V30 5417 H 505.73 3.67979 1.24595 0
M  V30 5418 H 507.402 4.44026 -1.25053 0
M  V30 5419 H 505.645 4.15621 -1.24264 0
M  V30 5420 H 506.316 5.51022 -0.328379 0
M  V30 5421 H 508.792 4.05474 0.934331 0
M  V30 5422 H 507.668 5.23157 1.66127 0
M  V30 5423 H 507.929 3.68223 2.44671 0
M  V30 5424 N 506.988 0.0434614 1.5754 0
M  V30 5425 C 508.228 -0.636023 1.94253 0
M  V30 5426 C 508.592 -1.68461 0.921132 0
M  V30 5427 O 509.793 -2.41762 1.17494 0
M  V30 5428 C 508.064 -1.22357 3.35803 0
M  V30 5429 S 509.623 -1.92213 3.94461 0
M  V30 5430 H 506.441 -0.209041 0.679575 0
M  V30 5431 H 509.043 0.110556 1.95187 0
M  V30 5432 H 507.747 -0.448162 4.07946 0
M  V30 5433 H 507.278 -2.00713 3.38346 0
M  V30 5434 H 509.293 -3.20199 3.79061 0
M  V30 5435 N 508.466 -1.55915 -0.229846 0
M  V30 5436 C 509.416 -1.8813 -1.28807 0
M  V30 5437 C 510.4 -0.743621 -1.42685 0
M  V30 5438 O 511.592 -1.00588 -1.4564 0
M  V30 5439 C 508.721 -2.19431 -2.64017 0
M  V30 5440 C 507.807 -3.39569 -2.54074 0
M  V30 5441 N 508.198 -4.58404 -2.13774 0
M  V30 5442 C 506.496 -3.43019 -2.85051 0
M  V30 5443 C 507.197 -5.40557 -2.1488 0
M  V30 5444 N 506.173 -4.80054 -2.55047 0
M  V30 5445 H 509.975 -2.77527 -0.967261 0
M  V30 5446 H 507.489 -1.5637 -0.438433 0
M  V30 5447 H 509.486 -2.40681 -3.40409 0
M  V30 5448 H 508.146 -1.31341 -2.9695 0
M  V30 5449 H 509.157 -4.83716 -1.8504 0
M  V30 5450 H 505.834 -2.65249 -3.22411 0
M  V30 5451 H 507.224 -6.45666 -1.85918 0
M  V30 5452 N 509.944 0.496216 -1.49584 0
M  V30 5453 C 511.355 1.07765 -1.52459 0
M  V30 5454 C 511.706 1.93679 -0.31353 0
M  V30 5455 O 510.831 2.08588 0.576186 0
M  V30 5456 C 511.426 1.96111 -2.76271 0
M  V30 5457 C 509.985 2.49409 -2.81908 0
M  V30 5458 C 509.132 1.27142 -2.46435 0
M  V30 5459 H 512.083 0.279914 -1.56212 0
M  V30 5460 H 512.104 2.80862 -2.56704 0
M  V30 5461 H 511.616 1.33555 -3.64396 0
M  V30 5462 H 509.717 3.1559 -1.98074 0
M  V30 5463 H 509.83 2.86234 -3.84196 0
M  V30 5464 H 508.194 1.59818 -1.98319 0
M  V30 5465 H 508.977 0.662866 -3.3684 0
M  V30 5466 N 511.423 1.38739 0.74761 0
M  V30 5467 C 512.651 1.38521 1.53686 0
M  V30 5468 C 513.066 -0.0235129 1.88785 0
M  V30 5469 O 512.423 -0.991662 1.53207 0
M  V30 5470 C 512.474 2.24641 2.83229 0
M  V30 5471 O 512.195 3.60026 2.49625 0
M  V30 5472 C 513.696 2.32669 3.77333 0
M  V30 5473 H 510.916 0.473589 0.475347 0
M  V30 5474 H 513.46 1.82395 0.924786 0
M  V30 5475 H 511.615 1.84213 3.40799 0
M  V30 5476 H 512.029 4.05435 3.3275 0
M  V30 5477 H 513.503 2.97201 4.65162 0
M  V30 5478 H 513.98 1.3421 4.18192 0
M  V30 5479 H 514.586 2.73512 3.25685 0
M  V30 5480 N 512.901 -0.976442 1.23707 0
M  V30 5481 C 513.864 -2.0511 1.02287 0
M  V30 5482 C 514.864 -1.60791 -0.0167195 0
M  V30 5483 O 516.054 -1.72761 0.223408 0
M  V30 5484 C 513.186 -3.36458 0.548507 0
M  V30 5485 H 514.379 -2.25545 1.9766 0
M  V30 5486 H 511.932 -1.15042 1.05806 0
M  V30 5487 H 512.667 -3.21713 -0.408818 0
M  V30 5488 H 512.452 -3.69967 1.29874 0
M  V30 5489 H 513.942 -4.15489 0.419406 0
M  V30 5490 N 514.379 -1.04941 -1.1758 0
M  V30 5491 C 515.625 -0.768896 -1.88307 0
M  V30 5492 C 515.98 0.696361 -1.79356 0
M  V30 5493 O 515.273 1.50245 -1.18899 0
M  V30 5494 C 515.467 -1.18062 -3.37337 0
M  V30 5495 C 515.296 -2.68436 -3.60794 0
M  V30 5496 C 514.066 -3.35709 -3.77661 0
M  V30 5497 C 516.264 -3.66657 -3.60649 0
M  V30 5498 N 514.246 -4.74974 -3.88939 0
M  V30 5499 C 515.617 -4.91638 -3.77747 0
M  V30 5500 C 517.672 -3.60162 -3.43785 0
M  V30 5501 C 516.375 -6.10902 -3.79726 0
M  V30 5502 C 518.401 -4.78863 -3.47051 0
M  V30 5503 C 517.763 -6.02666 -3.64654 0
M  V30 5504 H 513.862 -0.33355 -0.707296 0
M  V30 5505 H 516.446 -1.34085 -1.41171 0
M  V30 5506 H 514.617 -0.636648 -3.83147 0
M  V30 5507 H 516.349 -0.8502 -3.95669 0
M  V30 5508 H 513.104 -2.8611 -3.77409 0
M  V30 5509 H 513.528 -5.47378 -3.98379 0
M  V30 5510 H 518.17 -2.65412 -3.29114 0
M  V30 5511 H 515.888 -7.05998 -3.93182 0
M  V30 5512 H 519.474 -4.75488 -3.35265 0
M  V30 5513 H 518.354 -6.92979 -3.67083 0
M  V30 5514 N 515.857 1.33968 -0.830081 0
M  V30 5515 C 517.134 1.92554 -0.343858 0
M  V30 5516 C 517.514 1.7573 1.16971 0
M  V30 5517 O 516.862 1.14035 1.98011 0
M  V30 5518 C 517.072 3.40147 -0.781073 0
M  V30 5519 C 518.42 4.17299 -0.78402 0
M  V30 5520 O 519.444 3.48762 -0.724112 0
M  V30 5521 O 518.303 5.39631 -0.863739 0
M  V30 5522 H 515.397 0.821469 -0.0954827 0
M  V30 5523 H 517.943 1.42897 -0.915348 0
M  V30 5524 H 516.715 3.46225 -1.82329 0
M  V30 5525 H 516.338 3.97166 -0.18567 0
M  V30 5526 N 517.335 0.585699 1.46312 0
M  V30 5527 C 518.265 -0.133556 2.33118 0
M  V30 5528 C 519.246 -0.880707 1.45525 0
M  V30 5529 O 520.431 -0.855579 1.74337 0
M  V30 5530 C 517.561 -1.14585 3.27853 0
M  V30 5531 C 516.515 -0.513341 4.2491 0
M  V30 5532 C 515.841 -1.63231 5.09175 0
M  V30 5533 C 517.141 0.551413 5.19381 0
M  V30 5534 H 518.835 0.59121 2.93505 0
M  V30 5535 H 516.381 0.285761 1.41136 0
M  V30 5536 H 518.334 -1.65741 3.87438 0
M  V30 5537 H 517.058 -1.90093 2.65579 0
M  V30 5538 H 515.717 -0.0228349 3.66593 0
M  V30 5539 H 515.365 -2.37713 4.43285 0
M  V30 5540 H 515.065 -1.21473 5.74907 0
M  V30 5541 H 516.589 -2.14658 5.71624 0
M  V30 5542 H 518.003 0.124804 5.73164 0
M  V30 5543 H 516.4 0.889486 5.93471 0
M  V30 5544 H 517.47 1.43655 4.63132 0
M  V30 5545 N 518.813 -1.54241 0.323641 0
M  V30 5546 C 520.061 -2.00174 -0.278359 0
M  V30 5547 C 520.382 -1.2134 -1.52648 0
M  V30 5548 O 519.652 -0.315244 -1.93347 0
M  V30 5549 H 518.232 -0.739463 -0.105845 0
M  V30 5550 H 520.894 -1.89864 0.440204 0
M  V30 5551 H 519.99 -3.07486 -0.5347 0
M  V30 5552 N 520.291 -0.0518155 -1.57515 0
M  V30 5553 C 521.238 0.922352 -2.11569 0
M  V30 5554 C 522.208 1.30842 -1.02321 0
M  V30 5555 O 523.393 1.39778 -1.29872 0
M  V30 5556 C 520.533 2.19167 -2.6657 0
M  V30 5557 C 519.646 1.86003 -3.89906 0
M  V30 5558 C 518.781 3.07398 -4.33221 0
M  V30 5559 C 517.82 2.70158 -5.49255 0
M  V30 5560 N 516.957 3.84248 -5.8762 0
M  V30 5561 H 521.797 0.454506 -2.94514 0
M  V30 5562 H 519.334 0.212718 -1.45554 0
M  V30 5563 H 521.292 2.93443 -2.96559 0
M  V30 5564 H 519.922 2.63528 -1.86421 0
M  V30 5565 H 518.974 1.01874 -3.66505 0
M  V30 5566 H 520.286 1.54592 -4.74239 0
M  V30 5567 H 519.44 3.89972 -4.64765 0
M  V30 5568 H 518.179 3.41988 -3.477 0
M  V30 5569 H 517.184 1.86001 -5.17382 0
M  V30 5570 H 518.409 2.36759 -6.36492 0
M  V30 5571 H 516.355 4.18638 -5.05053 0
M  V30 5572 H 516.272 3.56538 -6.66646 0
M  V30 5573 H 517.54 4.6746 -6.2378 0
M  V30 5574 N 521.769 1.56035 0.221574 0
M  V30 5575 C 523.017 1.78693 0.944102 0
M  V30 5576 C 523.338 0.620317 1.8487 0
M  V30 5577 O 522.608 -0.362784 1.92512 0
M  V30 5578 H 521.188 0.659082 0.351597 0
M  V30 5579 H 523.85 1.93497 0.233435 0
M  V30 5580 H 522.946 2.70837 1.55093 0
M  V30 5581 N 523.247 -0.488276 1.49845 0
M  V30 5582 C 524.524 -1.24959 1.50481 0
M  V30 5583 C 524.904 -2.09735 0.239698 0
M  V30 5584 O 524.252 -2.14865 -0.777524 0
M  V30 5585 C 524.462 -2.0954 2.79095 0
M  V30 5586 C 525.81 -2.68305 3.29086 0
M  V30 5587 O 526.834 -2.19797 2.80299 0
M  V30 5588 O 525.693 -3.56643 4.14087 0
M  V30 5589 H 522.787 -0.566133 0.602845 0
M  V30 5590 H 525.333 -0.501504 1.6212 0
M  V30 5591 H 524.105 -1.46958 3.62656 0
M  V30 5592 H 523.728 -2.91517 2.70377 0
M  V30 5593 N 524.725 -1.39134 -0.740242 0
M  V30 5594 C 525.972 -1.36071 -1.49969 0
M  V30 5595 C 526.3 0.0450245 -1.94448 0
M  V30 5596 O 525.555 1.02482 -1.66721 0
M  V30 5597 C 525.854 -2.27457 -2.75678 0
M  V30 5598 C 525.52 -3.75185 -2.50094 0
M  V30 5599 C 524.182 -4.15439 -2.42825 0
M  V30 5600 C 526.534 -4.68643 -2.28086 0
M  V30 5601 C 523.862 -5.4722 -2.11584 0
M  V30 5602 C 526.214 -6.00695 -1.98363 0
M  V30 5603 C 524.878 -6.40018 -1.8956 0
M  V30 5604 H 524.148 -0.497921 -0.548777 0
M  V30 5605 H 526.795 -1.71599 -0.85007 0
M  V30 5606 H 525.1 -1.8503 -3.45356 0
M  V30 5607 H 526.797 -2.22384 -3.33686 0
M  V30 5608 H 523.387 -3.43279 -2.56627 0
M  V30 5609 H 527.571 -4.3838 -2.32672 0
M  V30 5610 H 522.827 -5.76615 -2.03287 0
M  V30 5611 H 527.001 -6.72644 -1.80341 0
M  V30 5612 H 524.628 -7.42051 -1.65117 0
M  V30 5613 N 526.204 0.969867 -1.24223 0
M  V30 5614 C 527.62 1.23809 -1.00716 0
M  V30 5615 C 527.82 1.99469 0.285358 0
M  V30 5616 O 526.876 2.31764 1.00207 0
M  V30 5617 C 528.189 2.02734 -2.2208 0
M  V30 5618 C 529.737 2.15834 -2.26681 0
M  V30 5619 C 530.212 2.98154 -3.47661 0
M  V30 5620 N 531.703 3.05737 -3.47964 0
M  V30 5621 C 532.438 3.69785 -4.38231 0
M  V30 5622 N 531.934 4.35569 -5.3875 0
M  V30 5623 N 533.727 3.66775 -4.25949 0
M  V30 5624 H 525.878 0.463294 -2.07286 0
M  V30 5625 H 528.141 0.267348 -0.909521 0
M  V30 5626 H 527.847 1.54524 -3.15935 0
M  V30 5627 H 527.721 3.0347 -2.24021 0
M  V30 5628 H 530.108 2.63248 -1.33359 0
M  V30 5629 H 530.189 1.14453 -2.28767 0
M  V30 5630 H 529.833 2.51435 -4.41297 0
M  V30 5631 H 529.763 3.99729 -3.42818 0
M  V30 5632 H 532.254 2.58941 -2.75242 0
M  V30 5633 H 532.567 4.82251 -6.03866 0
M  V30 5634 H 530.912 4.34244 -5.42639 0
M  V30 5635 H 534.103 3.14558 -3.46657 0
M  V30 5636 H 534.276 4.16407 -4.96497 0
M  V30 5637 N 527.682 1.05563 1.17022 0
M  V30 5638 C 528.931 0.763036 1.8671 0
M  V30 5639 C 529.244 -0.712857 1.82147 0
M  V30 5640 O 530.45 -1.11955 2.47343 0
M  V30 5641 C 528.906 1.31474 3.35026 0
M  V30 5642 C 528.514 2.82034 3.48081 0
M  V30 5643 C 530.258 1.09935 4.10018 0
M  V30 5644 C 528.165 3.30486 4.90442 0
M  V30 5645 H 527.095 0.281747 0.699382 0
M  V30 5646 H 529.746 1.2734 1.32124 0
M  V30 5647 H 528.128 0.732171 3.89173 0
M  V30 5648 H 529.302 3.46178 3.04133 0
M  V30 5649 H 527.617 3.02156 2.86515 0
M  V30 5650 H 530.214 1.43632 5.15048 0
M  V30 5651 H 530.557 0.0373072 4.16283 0
M  V30 5652 H 531.09 1.64732 3.62089 0
M  V30 5653 H 527.829 4.36137 4.89352 0
M  V30 5654 H 527.349 2.71086 5.35044 0
M  V30 5655 H 529.028 3.25382 5.59227 0
M  V30 5656 N 529.16 -1.33526 0.837174 0
M  V30 5657 C 530.09 -2.31764 0.284206 0
M  V30 5658 C 531.071 -1.58896 -0.607142 0
M  V30 5659 O 532.256 -1.86798 -0.531047 0
M  V30 5660 C 529.386 -3.43029 -0.542962 0
M  V30 5661 C 528.34 -4.27255 0.252451 0
M  V30 5662 C 527.666 -5.3012 -0.69836 0
M  V30 5663 C 528.966 -5.01229 1.46858 0
M  V30 5664 H 530.66 -2.78262 1.10502 0
M  V30 5665 H 528.206 -1.3378 0.532812 0
M  V30 5666 H 530.159 -4.1078 -0.940096 0
M  V30 5667 H 528.883 -2.95216 -1.39697 0
M  V30 5668 H 527.542 -3.61127 0.631124 0
M  V30 5669 H 527.19 -4.78564 -1.54872 0
M  V30 5670 H 526.89 -5.87353 -0.170274 0
M  V30 5671 H 528.414 -6.00737 -1.09305 0
M  V30 5672 H 529.828 -5.61756 1.14469 0
M  V30 5673 H 528.225 -5.68104 1.93333 0
M  V30 5674 H 529.295 -4.301 2.23924 0
M  V30 5675 N 530.638 -0.59345 -1.46 0
M  V30 5676 C 531.571 0.182196 -2.27472 0
M  V30 5677 C 532.549 0.886901 -1.36282 0
M  V30 5678 O 533.733 0.898627 -1.65701 0
M  V30 5679 C 530.86 1.26236 -3.14296 0
M  V30 5680 C 529.906 0.662331 -4.21326 0
M  V30 5681 S 530.739 -0.519017 -5.32979 0
M  V30 5682 C 531.895 0.562086 -6.23371 0
M  V30 5683 H 532.128 -0.509056 -2.92909 0
M  V30 5684 H 529.661 -0.380607 -1.49635 0
M  V30 5685 H 531.619 1.88075 -3.64881 0
M  V30 5686 H 530.28 1.92562 -2.48151 0
M  V30 5687 H 529.473 1.47461 -4.81945 0
M  V30 5688 H 529.075 0.119381 -3.73809 0
M  V30 5689 H 531.367 1.44494 -6.61912 0
M  V30 5690 H 532.31 -0.00760776 -7.081 0
M  V30 5691 H 532.718 0.871061 -5.57739 0
M  V30 5692 N 532.116 1.54067 -0.331816 0
M  V30 5693 C 533.356 2.02625 0.26876 0
M  V30 5694 C 533.72 1.21462 1.48697 0
M  V30 5695 O 534.921 1.59863 2.16096 0
M  V30 5696 C 533.192 3.52554 0.586577 0
M  V30 5697 S 534.751 4.23035 1.16563 0
M  V30 5698 H 531.569 0.706395 0.0807862 0
M  V30 5699 H 534.171 1.89844 -0.466856 0
M  V30 5700 H 532.875 4.09242 -0.308046 0
M  V30 5701 H 532.406 3.69432 1.35217 0
M  V30 5702 H 534.421 4.31382 2.45203 0
M  V30 5703 N 533.594 0.0601682 1.57485 0
M  V30 5704 C 534.822 -0.620937 1.97363 0
M  V30 5705 C 535.237 -1.63846 0.938082 0
M  V30 5706 O 534.594 -1.82339 -0.0766578 0
M  V30 5707 C 534.645 -1.29987 3.37321 0
M  V30 5708 O 534.366 -0.323081 4.36907 0
M  V30 5709 C 535.867 -2.06989 3.92008 0
M  V30 5710 H 533.087 -0.169135 0.649334 0
M  V30 5711 H 535.631 0.129132 2.04092 0
M  V30 5712 H 533.786 -2.0011 3.31715 0
M  V30 5713 H 534.2 -0.808754 5.18227 0
M  V30 5714 H 535.674 -2.49901 4.92192 0
M  V30 5715 H 536.151 -2.92173 3.2792 0
M  V30 5716 H 536.757 -1.41757 4.0098 0
M  V30 5717 N 535.072 -1.5615 -0.213296 0
M  V30 5718 C 536.019 -1.93086 -1.26437 0
M  V30 5719 C 536.989 -0.789086 -1.4616 0
M  V30 5720 O 538.174 -1.04569 -1.59593 0
M  V30 5721 C 535.314 -2.26003 -2.608 0
M  V30 5722 C 534.427 -3.53156 -2.48807 0
M  V30 5723 C 533.562 -3.7548 -3.7575 0
M  V30 5724 C 532.601 -4.96119 -3.58514 0
M  V30 5725 N 531.738 -5.14791 -4.77425 0
M  V30 5726 H 536.578 -2.82707 -0.942376 0
M  V30 5727 H 534.115 -1.39919 -0.454001 0
M  V30 5728 H 536.073 -2.431 -3.39055 0
M  V30 5729 H 534.703 -1.39546 -2.91079 0
M  V30 5730 H 533.755 -3.44207 -1.61944 0
M  V30 5731 H 535.067 -4.41565 -2.31996 0
M  V30 5732 H 534.221 -3.92718 -4.62447 0
M  V30 5733 H 532.96 -2.85368 -3.95495 0
M  V30 5734 H 531.965 -4.78823 -2.70201 0
M  V30 5735 H 533.19 -5.87724 -3.40231 0
M  V30 5736 H 531.136 -4.27623 -4.97468 0
M  V30 5737 H 531.053 -5.97347 -4.63371 0
M  V30 5738 H 532.321 -5.36471 -5.65525 0
M  V30 5739 N 536.55 0.480323 -1.50102 0
M  V30 5740 C 537.796 1.23489 -1.60867 0
M  V30 5741 C 538.129 1.91809 -0.303827 0
M  V30 5742 O 537.404 1.81694 0.694092 0
M  V30 5743 C 537.687 2.28578 -2.78252 0
M  V30 5744 C 537.54 1.64624 -4.18592 0
M  V30 5745 C 538.859 3.2997 -2.91218 0
M  V30 5746 H 535.978 0.447605 -0.585507 0
M  V30 5747 H 538.62 0.530005 -1.82458 0
M  V30 5748 H 536.77 2.88697 -2.59974 0
M  V30 5749 H 538.442 1.08173 -4.48438 0
M  V30 5750 H 536.685 0.949645 -4.23278 0
M  V30 5751 H 537.356 2.40946 -4.96638 0
M  V30 5752 H 539.832 2.79864 -3.07921 0
M  V30 5753 H 538.708 4.00839 -3.74993 0
M  V30 5754 H 538.969 3.93541 -2.0144 0
M  V30 5755 N 538.028 1.39524 0.732853 0
M  V30 5756 C 539.256 1.40143 1.52209 0
M  V30 5757 C 539.671 -0.00348836 1.888 0
M  V30 5758 O 539.028 -0.975357 1.5425 0
M  V30 5759 C 539.079 2.27632 2.8083 0
M  V30 5760 O 538.8 3.62654 2.45792 0
M  V30 5761 C 540.301 2.36658 3.74844 0
M  V30 5762 H 537.521 0.478604 0.470297 0
M  V30 5763 H 540.065 1.83366 0.905388 0
M  V30 5764 H 538.22 1.87818 3.38826 0
M  V30 5765 H 538.634 4.08941 3.28431 0
M  V30 5766 H 540.108 3.02118 4.61984 0
M  V30 5767 H 540.585 1.38638 4.16745 0
M  V30 5768 H 541.191 2.76951 3.22766 0
M  V30 5769 N 539.506 -0.963266 1.24736 0
M  V30 5770 C 540.439 -2.05758 0.986852 0
M  V30 5771 C 541.417 -1.62398 -0.0809272 0
M  V30 5772 O 542.601 -1.88414 0.0569347 0
M  V30 5773 C 539.728 -3.35135 0.490095 0
M  V30 5774 C 538.774 -3.97451 1.54709 0
M  V30 5775 S 539.607 -4.34519 3.12976 0
M  V30 5776 C 540.763 -5.67026 2.65014 0
M  V30 5777 H 540.996 -2.27539 1.91346 0
M  V30 5778 H 538.529 -1.10176 1.08169 0
M  V30 5779 H 540.487 -4.09962 0.21012 0
M  V30 5780 H 539.148 -3.11335 -0.415873 0
M  V30 5781 H 538.341 -4.90704 1.15003 0
M  V30 5782 H 537.943 -3.29071 1.77731 0
M  V30 5783 H 540.235 -6.44748 2.08102 0
M  V30 5784 H 541.178 -6.11594 3.56873 0
M  V30 5785 H 541.586 -5.25847 2.05294 0
M  V30 5786 N 540.985 -1.06182 -1.16461 0
M  V30 5787 C 542.262 -0.691364 -1.82974 0
M  V30 5788 C 542.642 0.827377 -1.9421 0
M  V30 5789 O 541.99 1.73723 -1.48434 0
M  V30 5790 C 542.2 -1.39199 -3.20038 0
M  V30 5791 C 543.548 -1.53647 -3.95825 0
M  V30 5792 O 544.572 -1.35181 -3.29552 0
M  V30 5793 O 543.431 -1.83932 -5.14618 0
M  V30 5794 H 540.525 -0.244605 -0.789998 0
M  V30 5795 H 543.071 -1.16203 -1.23673 0
M  V30 5796 H 541.843 -2.42766 -3.06888 0
M  V30 5797 H 541.466 -0.911335 -3.87015 0
M  V30 5798 N 542.463 1.3308 -0.844243 0
M  V30 5799 C 543.74 1.92178 -0.364261 0
M  V30 5800 C 544.12 1.76961 1.15101 0
M  V30 5801 O 543.468 1.16128 1.9679 0
M  V30 5802 C 543.678 3.393 -0.817106 0
M  V30 5803 C 545.026 4.16444 -0.828236 0
M  V30 5804 O 546.05 3.47975 -0.761062 0
M  V30 5805 O 544.909 5.38685 -0.920926 0
M  V30 5806 H 542.003 0.820411 -0.10419 0
M  V30 5807 H 544.549 1.41918 -0.930453 0
M  V30 5808 H 543.321 3.44272 -1.85991 0
M  V30 5809 H 542.944 3.96947 -0.227785 0
M  V30 5810 N 543.941 0.601185 1.45683 0
M  V30 5811 C 545.188 0.0938811 2.02282 0
M  V30 5812 C 545.516 -1.27315 1.47041 0
M  V30 5813 O 544.771 -1.85193 0.632623 0
M  V30 5814 C 545.07 -0.00222425 3.574 0
M  V30 5815 C 544.736 1.29963 4.31764 0
M  V30 5816 C 543.398 1.65625 4.51798 0
M  V30 5817 C 545.75 2.1603 4.74321 0
M  V30 5818 C 543.078 2.87119 5.11644 0
M  V30 5819 C 545.43 3.36766 5.3551 0
M  V30 5820 C 544.094 3.72689 5.53768 0
M  V30 5821 H 543.364 0.0343535 0.740203 0
M  V30 5822 H 546.011 0.781522 1.74827 0
M  V30 5823 H 544.316 -0.773096 3.84097 0
M  V30 5824 H 546.013 -0.410794 3.9889 0
M  V30 5825 H 542.603 1.01204 4.1648 0
M  V30 5826 H 546.787 1.89778 4.58582 0
M  V30 5827 H 542.043 3.15065 5.2397 0
M  V30 5828 H 546.217 4.03713 5.67441 0
M  V30 5829 H 543.844 4.66918 5.99909 0
M  V30 5830 N 545.419 -1.53889 0.339982 0
M  V30 5831 C 546.349 -2.27843 -0.510856 0
M  V30 5832 C 547.33 -1.29267 -1.10563 0
M  V30 5833 O 548.515 -1.58104 -1.12768 0
M  V30 5834 C 545.645 -3.04857 -1.66372 0
M  V30 5835 C 544.599 -4.10907 -1.19746 0
M  V30 5836 C 543.925 -4.75855 -2.43857 0
M  V30 5837 C 545.225 -5.21435 -0.300501 0
M  V30 5838 H 546.919 -2.99212 0.106067 0
M  V30 5839 H 544.465 -1.43904 0.0524533 0
M  V30 5840 H 546.418 -3.5533 -2.26537 0
M  V30 5841 H 545.142 -2.31133 -2.30749 0
M  V30 5842 H 543.801 -3.61342 -0.618654 0
M  V30 5843 H 543.449 -3.9873 -3.06633 0
M  V30 5844 H 543.149 -5.47502 -2.13343 0
M  V30 5845 H 544.673 -5.2911 -3.04754 0
M  V30 5846 H 546.087 -5.67565 -0.80889 0
M  V30 5847 H 544.484 -6.00036 -0.0874076 0
M  V30 5848 H 545.554 -4.80328 0.664321 0
M  V30 5849 N 546.897 -0.0685191 -1.57451 0
M  V30 5850 C 548.125 0.610462 -1.97689 0
M  V30 5851 C 548.54 1.63346 -0.946758 0
M  V30 5852 O 547.897 1.82377 0.0669868 0
M  V30 5853 C 547.948 1.28196 -3.38006 0
M  V30 5854 O 547.669 0.299906 -4.37072 0
M  V30 5855 C 549.17 2.04907 -3.931 0
M  V30 5856 H 546.39 0.165689 -0.650222 0
M  V30 5857 H 548.934 -0.139953 -2.04021 0
M  V30 5858 H 547.089 1.98348 -3.32771 0
M  V30 5859 H 547.503 0.78126 -5.18649 0
M  V30 5860 H 548.977 2.47287 -4.93511 0
M  V30 5861 H 549.454 2.9043 -3.29465 0
M  V30 5862 H 550.06 1.39629 -4.01726 0
M  V30 5863 N 548.375 1.56261 0.205012 0
M  V30 5864 C 549.338 1.92908 1.23771 0
M  V30 5865 C 550.338 0.809208 1.38955 0
M  V30 5866 O 551.528 1.07676 1.36936 0
M  V30 5867 C 548.66 2.19442 2.60879 0
M  V30 5868 H 549.853 2.85287 0.924728 0
M  V30 5869 H 547.406 1.49798 0.446125 0
M  V30 5870 H 548.141 1.29668 2.97248 0
M  V30 5871 H 547.926 3.0104 2.51232 0
M  V30 5872 H 549.416 2.48833 3.35368 0
M  V30 5873 N 549.853 -0.472356 1.50355 0
M  V30 5874 C 550.803 -1.56809 1.65514 0
M  V30 5875 C 551.787 -1.5261 0.509801 0
M  V30 5876 O 552.979 -1.59655 0.764145 0
M  V30 5877 C 550.108 -2.9526 1.75146 0
M  V30 5878 C 549.194 -3.04348 2.95353 0
M  V30 5879 N 549.585 -2.83253 4.19048 0
M  V30 5880 C 547.883 -3.35482 2.93884 0
M  V30 5881 C 548.584 -2.97273 5.00003 0
M  V30 5882 N 547.56 -3.27418 4.33934 0
M  V30 5883 H 551.362 -1.39197 2.58846 0
M  V30 5884 H 548.876 -0.67906 1.47521 0
M  V30 5885 H 550.873 -3.74044 1.8411 0
M  V30 5886 H 549.533 -3.1392 0.829717 0
M  V30 5887 H 550.544 -2.5886 4.48567 0
M  V30 5888 H 547.221 -3.60138 2.11204 0
M  V30 5889 H 548.611 -2.85214 6.08361 0
M  V30 5890 N 551.331 -1.39911 -0.725443 0
M  V30 5891 C 552.281 -1.35878 -1.83088 0
M  V30 5892 C 553.265 -0.237989 -1.5913 0
M  V30 5893 O 554.457 -0.476302 -1.70471 0
M  V30 5894 C 551.586 -1.21403 -3.21117 0
M  V30 5895 C 550.672 -2.38223 -3.50871 0
M  V30 5896 N 551.063 -3.63703 -3.51502 0
M  V30 5897 C 549.361 -2.31388 -3.81281 0
M  V30 5898 C 550.062 -4.4101 -3.79322 0
M  V30 5899 N 549.038 -3.7072 -3.97577 0
M  V30 5900 H 552.84 -2.3085 -1.81895 0
M  V30 5901 H 550.354 -1.33543 -0.924125 0
M  V30 5902 H 552.351 -1.16597 -4.00263 0
M  V30 5903 H 551.011 -0.273902 -3.23543 0
M  V30 5904 H 552.022 -3.96998 -3.32586 0
M  V30 5905 H 548.699 -1.45689 -3.91256 0
M  V30 5906 H 550.089 -5.49819 -3.86198 0
M  V30 5907 N 552.809 0.956637 -1.25245 0
M  V30 5908 C 553.719 2.0868 -1.0719 0
M  V30 5909 C 554.735 1.73997 -0.00959074 0
M  V30 5910 O 555.911 2.00301 -0.210104 0
M  V30 5911 C 552.976 3.39754 -0.690526 0
M  V30 5912 C 552.037 3.88316 -1.83055 0
M  V30 5913 C 551.27 5.13134 -1.46728 0
M  V30 5914 O 551.493 5.6925 -0.362029 0
M  V30 5915 O 550.427 5.56356 -2.29677 0
M  V30 5916 H 554.253 2.26813 -2.01965 0
M  V30 5917 H 551.838 1.07098 -1.04165 0
M  V30 5918 H 553.72 4.18543 -0.489871 0
M  V30 5919 H 552.395 3.22896 0.227981 0
M  V30 5920 H 551.302 3.1054 -2.08604 0
M  V30 5921 H 552.635 4.09669 -2.72822 0
M  V30 5922 N 554.287 1.06798 1.15896 0
M  V30 5923 C 555.22 0.627503 2.19403 0
M  V30 5924 C 556.198 -0.352352 1.58736 0
M  V30 5925 O 557.382 -0.260111 1.86697 0
M  V30 5926 C 554.509 -0.079356 3.38607 0
M  V30 5927 C 553.555 0.858057 4.17779 0
M  V30 5928 S 554.388 2.35605 4.80885 0
M  V30 5929 C 555.544 1.66083 6.03463 0
M  V30 5930 H 555.777 1.50441 2.56427 0
M  V30 5931 H 553.31 0.881427 1.26768 0
M  V30 5932 H 555.268 -0.48095 4.07673 0
M  V30 5933 H 553.929 -0.932524 2.99938 0
M  V30 5934 H 553.122 0.310108 5.03045 0
M  V30 5935 H 552.724 1.19977 3.54234 0
M  V30 5936 H 555.016 0.969337 6.7053 0
M  V30 5937 H 555.959 2.49159 6.62816 0
M  V30 5938 H 556.367 1.14122 5.52844 0
M  V30 5939 N 555.766 -1.3263 0.851289 0
M  V30 5940 C 557.014 -1.96978 0.452128 0
M  V30 5941 C 557.335 -1.67715 -0.99482 0
M  V30 5942 O 556.605 -0.98259 -1.69476 0
M  V30 5943 H 555.185 -0.72873 0.164202 0
M  V30 5944 H 557.847 -1.61774 1.08698 0
M  V30 5945 H 556.943 -3.06387 0.594407 0
M  V30 5946 N 557.244 -0.608902 -1.45362 0
M  V30 5947 C 558.194 0.130616 -2.27626 0
M  V30 5948 C 559.178 0.837323 -1.37396 0
M  V30 5949 O 560.37 0.727096 -1.61376 0
M  V30 5950 C 557.499 1.12646 -3.24293 0
M  V30 5951 C 556.585 0.42052 -4.2201 0
M  V30 5952 N 556.976 -0.538569 -5.02925 0
M  V30 5953 C 555.274 0.667901 -4.40971 0
M  V30 5954 C 555.975 -0.953625 -5.7383 0
M  V30 5955 N 554.951 -0.297097 -5.42788 0
M  V30 5956 H 558.753 -0.605996 -2.87585 0
M  V30 5957 H 556.267 -0.432672 -1.5653 0
M  V30 5958 H 558.264 1.67066 -3.81961 0
M  V30 5959 H 556.924 1.86361 -2.65894 0
M  V30 5960 H 557.935 -0.915375 -5.09746 0
M  V30 5961 H 554.612 1.38963 -3.93695 0
M  V30 5962 H 556.002 -1.74473 -6.48852 0
M  V30 5963 N 558.722 1.53707 -0.348139 0
M  V30 5964 C 559.971 2.0017 0.247992 0
M  V30 5965 C 560.284 1.23983 1.51286 0
M  V30 5966 O 561.49 1.60946 2.18652 0
M  V30 5967 C 559.946 3.56515 0.492459 0
M  V30 5968 C 559.554 4.41562 -0.756777 0
M  V30 5969 C 561.298 4.11381 1.0472 0
M  V30 5970 C 559.205 5.89426 -0.482856 0
M  V30 5971 H 558.135 0.747806 0.0964452 0
M  V30 5972 H 560.786 1.77532 -0.464179 0
M  V30 5973 H 559.168 3.75236 1.26545 0
M  V30 5974 H 560.342 4.34615 -1.53122 0
M  V30 5975 H 558.657 3.97711 -1.23348 0
M  V30 5976 H 561.254 5.19468 1.26717 0
M  V30 5977 H 561.597 3.64885 2.00411 0
M  V30 5978 H 562.13 3.96389 0.334801 0
M  V30 5979 H 558.869 6.40164 -1.40962 0
M  V30 5980 H 558.389 5.99264 0.253416 0
M  V30 5981 H 560.068 6.4692 -0.101816 0
M  V30 5982 N 560.2 0.0768682 1.57412 0
M  V30 5983 C 561.132 -0.918248 2.10002 0
M  V30 5984 C 562.145 -1.25808 1.03325 0
M  V30 5985 O 563.334 -1.21438 1.30824 0
M  V30 5986 C 560.434 -2.23263 2.54964 0
M  V30 5987 C 559.607 -2.07088 3.8527 0
M  V30 5988 C 558.666 -3.21876 4.16272 0
M  V30 5989 O 557.692 -2.96643 4.8579 0
M  V30 5990 N 558.894 -4.4712 3.70221 0
M  V30 5991 H 561.659 -0.469209 2.96004 0
M  V30 5992 H 559.22 -0.108725 1.61535 0
M  V30 5993 H 561.212 -2.9897 2.72762 0
M  V30 5994 H 559.782 -2.59649 1.74072 0
M  V30 5995 H 559.002 -1.15818 3.76802 0
M  V30 5996 H 560.29 -1.93537 4.70554 0
M  V30 5997 H 559.688 -4.70506 3.1407 0
M  V30 5998 H 558.245 -5.19837 3.93209 0
M  V30 5999 N 561.678 -1.56367 -0.196722 0
M  V30 6000 C 562.908 -1.84371 -0.932254 0
M  V30 6001 C 563.316 -0.657013 -1.77426 0
M  V30 6002 O 562.659 0.383576 -1.79651 0
M  V30 6003 C 562.721 -3.06454 -1.87952 0
M  V30 6004 C 562.385 -4.40425 -1.21962 0
M  V30 6005 C 563.382 -5.16457 -0.597343 0
M  V30 6006 C 561.067 -4.8716 -1.22396 0
M  V30 6007 C 563.061 -6.37399 0.0117913 0
M  V30 6008 C 560.748 -6.08038 -0.610995 0
M  V30 6009 C 561.746 -6.83 0.00580487 0
M  V30 6010 O 561.434 -8.01589 0.609173 0
M  V30 6011 H 561.166 -0.616377 -0.277589 0
M  V30 6012 H 563.72 -2.04329 -0.209452 0
M  V30 6013 H 561.95 -2.82377 -2.64197 0
M  V30 6014 H 563.639 -3.21118 -2.48271 0
M  V30 6015 H 564.405 -4.81445 -0.586142 0
M  V30 6016 H 560.284 -4.2877 -1.69345 0
M  V30 6017 H 563.828 -6.9585 0.493836 0
M  V30 6018 H 559.725 -6.42519 -0.619693 0
M  V30 6019 H 560.493 -8.16935 0.505919 0
M  V30 6020 N 563.156 0.464375 -1.50603 0
M  V30 6021 C 564.433 1.22549 -1.5245 0
M  V30 6022 C 564.813 2.09327 -0.273035 0
M  V30 6023 O 564.161 2.16074 0.743242 0
M  V30 6024 C 564.371 2.05074 -2.82393 0
M  V30 6025 C 565.719 2.63036 -3.33313 0
M  V30 6026 O 566.743 2.1531 -2.8376 0
M  V30 6027 O 565.602 3.5001 -4.19709 0
M  V30 6028 H 562.696 0.556471 -0.611775 0
M  V30 6029 H 565.242 0.475648 -1.62898 0
M  V30 6030 H 564.014 1.41169 -3.64948 0
M  V30 6031 H 563.637 2.87179 -2.7498 0
M  V30 6032 N 564.634 1.40294 0.718013 0
M  V30 6033 C 565.567 1.34767 1.84155 0
M  V30 6034 C 566.545 0.218455 1.61126 0
M  V30 6035 O 567.729 0.401716 1.8417 0
M  V30 6036 C 564.856 1.09676 3.20451 0
M  V30 6037 C 563.902 2.25016 3.62312 0
M  V30 6038 S 564.735 3.87397 3.69707 0
M  V30 6039 C 565.891 3.64565 5.08766 0
M  V30 6040 H 566.124 2.29851 1.88562 0
M  V30 6041 H 563.657 1.2655 0.884555 0
M  V30 6042 H 565.615 0.95885 3.99144 0
M  V30 6043 H 564.276 0.162502 3.13679 0
M  V30 6044 H 563.469 2.03097 4.61268 0
M  V30 6045 H 563.071 2.35098 2.90869 0
M  V30 6046 H 565.363 3.22882 5.95612 0
M  V30 6047 H 566.306 4.63043 5.35721 0
M  V30 6048 H 566.714 2.98303 4.79245 0
M  V30 6049 N 566.112 -0.949982 1.2575 0
M  V30 6050 C 567.075 -2.02894 1.06615 0
M  V30 6051 C 568.075 -1.60791 0.0173905 0
M  V30 6052 O 569.265 -1.72249 0.260003 0
M  V30 6053 C 566.397 -3.35219 0.619751 0
M  V30 6054 H 567.59 -2.21302 2.02399 0
M  V30 6055 H 565.143 -1.12772 1.08223 0
M  V30 6056 H 565.878 -3.22508 -0.340486 0
M  V30 6057 H 565.663 -3.67129 1.37692 0
M  V30 6058 H 567.153 -4.14505 0.507443 0
M  V30 6059 N 567.59 -1.07411 -1.15328 0
M  V30 6060 C 568.82 -0.817595 -1.89734 0
M  V30 6061 C 569.228 0.63297 -1.78298 0
M  V30 6062 O 568.571 1.44594 -1.13306 0
M  V30 6063 C 568.633 -1.14748 -3.40695 0
M  V30 6064 C 568.297 -2.59876 -3.75917 0
M  V30 6065 C 569.294 -3.58122 -3.76888 0
M  V30 6066 C 566.979 -2.95469 -4.06206 0
M  V30 6067 C 568.973 -4.89996 -4.07655 0
M  V30 6068 C 566.66 -4.2754 -4.36638 0
M  V30 6069 C 567.658 -5.24614 -4.37344 0
M  V30 6070 O 567.346 -6.54312 -4.67045 0
M  V30 6071 H 567.078 -0.295175 -0.608151 0
M  V30 6072 H 569.632 -1.43409 -1.47048 0
M  V30 6073 H 567.862 -0.47395 -3.83785 0
M  V30 6074 H 569.551 -0.873397 -3.96392 0
M  V30 6075 H 570.317 -3.31966 -3.53587 0
M  V30 6076 H 566.196 -2.20558 -4.04815 0
M  V30 6077 H 569.74 -5.65759 -4.08121 0
M  V30 6078 H 565.637 -4.53449 -4.59407 0
M  V30 6079 H 566.405 -6.59473 -4.84807 0
M  V30 6080 N 569.068 1.32177 -0.85831 0
M  V30 6081 C 570.031 2.27086 -0.310588 0
M  V30 6082 C 571.031 1.51751 0.531806 0
M  V30 6083 O 572.221 1.70794 0.34279 0
M  V30 6084 C 569.353 3.36266 0.560179 0
M  V30 6085 H 570.546 2.77045 -1.1483 0
M  V30 6086 H 568.099 1.42911 -0.632942 0
M  V30 6087 H 568.834 2.9158 1.41956 0
M  V30 6088 H 568.619 3.92077 -0.0428473 0
M  V30 6089 H 570.109 4.06974 0.936056 0
M  V30 6090 N 570.547 0.616602 1.45037 0
M  V30 6091 C 571.51 -0.0871112 2.29034 0
M  V30 6092 C 572.51 -0.786414 1.40258 0
M  V30 6093 O 573.7 -0.633207 1.62284 0
M  V30 6094 C 570.832 -1.13369 3.21497 0
M  V30 6095 H 572.025 0.651497 2.92738 0
M  V30 6096 H 569.578 0.376058 1.51709 0
M  V30 6097 H 570.313 -1.90277 2.62612 0
M  V30 6098 H 570.098 -0.636358 3.86902 0
M  V30 6099 H 571.588 -1.62627 3.84633 0
M  V30 6100 N 572.025 -1.5352 0.356285 0
M  V30 6101 C 572.957 -2.23009 -0.529127 0
M  V30 6102 C 573.97 -1.241 -1.05371 0
M  V30 6103 O 575.159 -1.50379 -0.961679 0
M  V30 6104 C 572.259 -2.90685 -1.74229 0
M  V30 6105 C 571.432 -4.16019 -1.35081 0
M  V30 6106 C 570.491 -4.66989 -2.42502 0
M  V30 6107 O 569.517 -5.30895 -2.05279 0
M  V30 6108 N 570.719 -4.44006 -3.7395 0
M  V30 6109 H 573.484 -2.99627 0.0660501 0
M  V30 6110 H 571.045 -1.60885 0.181014 0
M  V30 6111 H 573.037 -3.21695 -2.4555 0
M  V30 6112 H 571.607 -2.17575 -2.24454 0
M  V30 6113 H 570.827 -3.91414 -0.467833 0
M  V30 6114 H 572.115 -4.9752 -1.06542 0
M  V30 6115 H 571.513 -3.92924 -4.06973 0
M  V30 6116 H 570.07 -4.7959 -4.41403 0
M  V30 6117 N 573.503 -0.0852151 -1.57369 0
M  V30 6118 C 574.914 0.445428 -1.81309 0
M  V30 6119 C 575.265 1.68795 -1.00013 0
M  V30 6120 O 574.39 2.15211 -0.226573 0
M  V30 6121 C 574.985 0.814887 -3.28854 0
M  V30 6122 C 573.544 1.29032 -3.53592 0
M  V30 6123 C 572.691 0.282089 -2.75861 0
M  V30 6124 H 575.642 -0.310771 -1.55627 0
M  V30 6125 H 575.663 1.67524 -3.41637 0
M  V30 6126 H 575.175 -0.0896309 -3.87996 0
M  V30 6127 H 573.276 2.21289 -2.9977 0
M  V30 6128 H 573.389 1.25898 -4.62262 0
M  V30 6129 H 571.753 0.762182 -2.43029 0
M  V30 6130 H 572.536 -0.614936 -3.37748 0
M  V30 6131 N 574.981 1.5647 0.188427 0
M  V30 6132 C 576.228 1.81013 0.907779 0
M  V30 6133 C 576.556 0.65953 1.82977 0
M  V30 6134 O 575.811 -0.354308 1.92466 0
M  V30 6135 C 576.11 3.11596 1.7505 0
M  V30 6136 C 575.776 4.40145 0.978922 0
M  V30 6137 C 574.438 4.75066 0.765912 0
M  V30 6138 C 576.79 5.19369 0.436498 0
M  V30 6139 C 574.118 5.867 -0.00089868 0
M  V30 6140 C 576.47 6.31805 -0.317136 0
M  V30 6141 C 575.134 6.65303 -0.541103 0
M  V30 6142 H 574.404 0.662373 0.33218 0
M  V30 6143 H 577.051 1.9071 0.173732 0
M  V30 6144 H 575.356 2.97165 2.55343 0
M  V30 6145 H 577.053 3.27793 2.30983 0
M  V30 6146 H 573.643 4.12745 1.15497 0
M  V30 6147 H 577.827 4.92799 0.588449 0
M  V30 6148 H 573.083 6.11122 -0.184329 0
M  V30 6149 H 577.257 6.92406 -0.744788 0
M  V30 6150 H 574.884 7.51646 -1.13718 0
M  V30 6151 N 576.459 -0.456382 1.50847 0
M  V30 6152 C 577.389 -1.56025 1.73719 0
M  V30 6153 C 578.37 -1.5967 0.586473 0
M  V30 6154 O 579.555 -1.75702 0.827185 0
M  V30 6155 C 576.685 -2.94251 1.84483 0
M  V30 6156 C 575.639 -3.05471 2.99786 0
M  V30 6157 C 574.965 -4.45489 2.95709 0
M  V30 6158 C 576.265 -2.81318 4.40065 0
M  V30 6159 H 577.959 -1.37138 2.66146 0
M  V30 6160 H 575.505 -0.658299 1.28072 0
M  V30 6161 H 577.458 -3.71417 1.99067 0
M  V30 6162 H 576.182 -3.14328 0.886891 0
M  V30 6163 H 574.841 -2.30741 2.84876 0
M  V30 6164 H 574.489 -4.62505 1.97732 0
M  V30 6165 H 574.189 -4.53929 3.73125 0
M  V30 6166 H 575.713 -5.24655 3.12362 0
M  V30 6167 H 577.127 -3.48226 4.55425 0
M  V30 6168 H 575.524 -3.01188 5.19043 0
M  V30 6169 H 576.594 -1.7706 4.51418 0
M  V30 6170 N 577.937 -1.40673 -0.710563 0
M  V30 6171 C 578.867 -1.44095 -1.83736 0
M  V30 6172 C 579.848 -0.301286 -1.67411 0
M  V30 6173 O 581.033 -0.510618 -1.87367 0
M  V30 6174 C 578.163 -1.30773 -3.21738 0
M  V30 6175 C 577.117 -2.42395 -3.52745 0
M  V30 6176 C 576.443 -2.14147 -4.89944 0
M  V30 6177 C 577.743 -3.84738 -3.53234 0
M  V30 6178 H 579.437 -2.38396 -1.81129 0
M  V30 6179 H 576.983 -1.14746 -0.870017 0
M  V30 6180 H 578.936 -1.31783 -4.00264 0
M  V30 6181 H 577.66 -0.329507 -3.24934 0
M  V30 6182 H 576.319 -2.40643 -2.76562 0
M  V30 6183 H 575.967 -1.14703 -4.89747 0
M  V30 6184 H 575.667 -2.88934 -5.11655 0
M  V30 6185 H 577.191 -2.16848 -5.70797 0
M  V30 6186 H 578.605 -3.88286 -4.2179 0
M  V30 6187 H 577.002 -4.59085 -3.86473 0
M  V30 6188 H 578.072 -4.13962 -2.52514 0
M  V30 6189 N 579.415 0.9433 -1.26252 0
M  V30 6190 C 580.831 1.21644 -1.03319 0
M  V30 6191 C 581.031 2.0003 0.242983 0
M  V30 6192 O 580.087 2.33838 0.952688 0
M  V30 6193 C 581.4 1.97978 -2.2633 0
M  V30 6194 C 582.948 2.10978 -2.31209 0
M  V30 6195 C 583.423 2.90713 -3.53907 0
M  V30 6196 N 584.914 2.98287 -3.54371 0
M  V30 6197 C 585.649 3.60406 -4.45976 0
M  V30 6198 N 585.145 4.24043 -5.47868 0
M  V30 6199 N 586.938 3.57658 -4.33633 0
M  V30 6200 H 579.089 0.419221 -2.08222 0
M  V30 6201 H 581.352 0.247995 -0.914988 0
M  V30 6202 H 581.058 1.47788 -3.19142 0
M  V30 6203 H 580.932 2.9865 -2.30408 0
M  V30 6204 H 583.319 2.6036 -1.38913 0
M  V30 6205 H 583.4 1.09575 -2.31143 0
M  V30 6206 H 583.044 2.42018 -4.46531 0
M  V30 6207 H 582.974 3.92367 -3.5122 0
M  V30 6208 H 585.465 2.53044 -2.80673 0
M  V30 6209 H 585.778 4.69334 -6.13959 0
M  V30 6210 H 584.123 4.22637 -5.51728 0
M  V30 6211 H 587.314 3.07134 -3.53251 0
M  V30 6212 H 587.487 4.05782 -5.05218 0
M  V30 6213 N 580.893 1.08022 1.14757 0
M  V30 6214 C 581.841 0.701088 2.21783 0
M  V30 6215 C 582.835 -0.291311 1.66876 0
M  V30 6216 O 584.041 -0.154296 1.79337 0
M  V30 6217 H 580.416 0.208668 0.722469 0
M  V30 6218 H 582.387 1.61321 2.51034 0
M  V30 6219 C 581.136 0.122278 3.47485 0
M  V30 6220 H 580.459 0.877065 3.90061 0
M  V30 6221 H 581.899 -0.105248 4.23869 0
M  V30 6222 C 580.358 -1.13883 3.17068 0
M  V30 6223 O 580.888 -2.22429 3.34497 0
M  V30 6224 N 579.094 -1.04767 2.71058 0
M  V30 6225 H 578.641 -0.164302 2.57075 0
M  V30 6226 H 578.599 -1.89224 2.51081 0
M  V30 6227 N 582.371 -1.3172 0.865308 0
M  V30 6228 C 583.619 -1.96487 0.472995 0
M  V30 6229 C 583.94 -1.68761 -0.976975 0
M  V30 6230 O 583.21 -1.00051 -1.68424 0
M  V30 6231 H 581.79 -0.726947 0.171922 0
M  V30 6232 H 584.452 -1.60612 1.10407 0
M  V30 6233 H 583.548 -3.0574 0.62687 0
M  V30 6234 N 583.85 -0.624285 -1.44708 0
M  V30 6235 C 584.812 0.0749638 -2.29077 0
M  V30 6236 C 585.812 0.778965 -1.40673 0
M  V30 6237 O 587.003 0.624591 -1.62618 0
M  V30 6238 C 584.135 1.11663 -3.22094 0
M  V30 6239 H 585.327 -0.667013 -2.92388 0
M  V30 6240 H 582.88 -0.384098 -1.51507 0
M  V30 6241 H 583.615 1.88881 -2.63618 0
M  V30 6242 H 583.401 0.61583 -3.87234 0
M  V30 6243 H 584.891 1.60585 -3.8549 0
M  V30 6244 N 585.328 1.53329 -0.364422 0
M  V30 6245 C 586.276 2.27212 0.497737 0
M  V30 6246 C 587.27 1.30146 1.08437 0
M  V30 6247 O 588.476 1.47778 1.0277 0
M  V30 6248 H 584.851 0.730329 0.179232 0
M  V30 6249 H 586.822 2.98037 -0.147182 0
M  V30 6250 C 585.571 3.07333 1.6261 0
M  V30 6251 H 584.894 3.81866 1.184 0
M  V30 6252 H 586.334 3.62209 2.20409 0
M  V30 6253 C 584.793 2.18102 2.56775 0
M  V30 6254 O 585.323 1.79104 3.59562 0
M  V30 6255 N 583.529 1.82759 2.25937 0
M  V30 6256 H 583.076 2.14671 1.42387 0
M  V30 6257 H 583.034 1.23342 2.89196 0
M  V30 6258 N 586.806 0.0935595 1.57322 0
M  V30 6259 C 587.716 -0.880192 2.17462 0
M  V30 6260 C 588.732 -1.31135 1.14366 0
M  V30 6261 O 589.908 -1.37958 1.46729 0
M  V30 6262 C 586.973 -2.12184 2.74188 0
M  V30 6263 C 586.034 -1.74503 3.92234 0
M  V30 6264 C 585.267 -2.92748 4.46245 0
M  V30 6265 O 585.49 -4.07427 3.99198 0
M  V30 6266 O 584.424 -2.71303 5.37288 0
M  V30 6267 H 588.25 -0.398516 3.01074 0
M  V30 6268 H 585.835 -0.130707 1.48827 0
M  V30 6269 H 587.717 -2.84953 3.10451 0
M  V30 6270 H 586.392 -2.59407 1.93623 0
M  V30 6271 H 585.299 -0.989186 3.60785 0
M  V30 6272 H 586.632 -1.32044 4.74157 0
M  V30 6273 N 588.284 -1.56567 -0.180126 0
M  V30 6274 C 589.532 -1.81133 -0.896392 0
M  V30 6275 C 589.853 -0.669114 -1.83161 0
M  V30 6276 O 589.123 0.311616 -1.93406 0
M  V30 6277 H 587.703 -0.668172 -0.333999 0
M  V30 6278 H 590.365 -1.94048 -0.182051 0
M  V30 6279 H 589.461 -2.74854 -1.47857 0
M  V30 6280 N 589.762 0.448376 -1.51087 0
M  V30 6281 C 591.009 1.19872 -1.63209 0
M  V30 6282 C 591.337 1.91451 -0.343062 0
M  V30 6283 O 590.592 1.83789 0.672321 0
M  V30 6284 C 590.891 2.24866 -2.77795 0
M  V30 6285 C 590.557 1.70378 -4.17471 0
M  V30 6286 C 589.219 1.55241 -4.55471 0
M  V30 6287 C 591.571 1.30203 -5.04675 0
M  V30 6288 C 588.899 0.983844 -5.78392 0
M  V30 6289 C 591.251 0.747798 -6.28165 0
M  V30 6290 C 589.915 0.583233 -6.64947 0
M  V30 6291 H 589.185 0.438642 -0.597222 0
M  V30 6292 H 591.832 0.49136 -1.85089 0
M  V30 6293 H 590.137 3.01598 -2.50092 0
M  V30 6294 H 591.834 2.82723 -2.84374 0
M  V30 6295 H 588.424 1.83134 -3.87505 0
M  V30 6296 H 592.608 1.40723 -4.75932 0
M  V30 6297 H 587.864 0.844007 -6.05546 0
M  V30 6298 H 592.038 0.427927 -6.95084 0
M  V30 6299 H 589.665 0.140532 -7.6007 0
M  V30 6300 N 591.24 1.41047 0.703093 0
M  V30 6301 C 592.19 1.38774 1.80903 0
M  V30 6302 C 593.174 0.263275 1.58731 0
M  V30 6303 O 594.366 0.503362 1.69692 0
M  V30 6304 C 591.495 1.26497 3.19145 0
M  V30 6305 C 590.581 2.43775 3.47037 0
M  V30 6306 N 590.972 3.69249 3.45672 0
M  V30 6307 C 589.27 2.37425 3.77552 0
M  V30 6308 C 589.971 4.46989 3.72258 0
M  V30 6309 N 588.947 3.76998 3.91629 0
M  V30 6310 H 592.749 2.33714 1.78199 0
M  V30 6311 H 590.263 1.34996 0.902762 0
M  V30 6312 H 592.26 1.2295 3.98358 0
M  V30 6313 H 590.92 0.32534 3.23066 0
M  V30 6314 H 591.931 4.02239 3.26228 0
M  V30 6315 H 588.608 1.51895 3.88888 0
M  V30 6316 H 589.998 5.55894 3.77402 0
M  V30 6317 N 592.718 -0.936591 1.26751 0
M  V30 6318 C 593.628 -2.06949 1.10496 0
M  V30 6319 C 594.644 -1.7396 0.037271 0
M  V30 6320 O 595.82 -1.99941 0.241944 0
M  V30 6321 C 592.885 -3.38612 0.744491 0
M  V30 6322 C 591.946 -3.85355 1.89209 0
M  V30 6323 C 591.179 -5.10735 1.54873 0
M  V30 6324 O 591.402 -5.68602 0.452546 0
M  V30 6325 O 590.336 -5.52632 2.38499 0
M  V30 6326 H 594.162 -2.23571 2.05547 0
M  V30 6327 H 591.747 -1.05428 1.05855 0
M  V30 6328 H 593.629 -4.17711 0.556396 0
M  V30 6329 H 592.304 -3.23218 -0.176582 0
M  V30 6330 H 591.211 -3.07182 2.13518 0
M  V30 6331 H 592.544 -4.05277 2.79305 0
M  V30 6332 N 594.196 -1.08629 -1.14182 0
M  V30 6333 C 595.159 -0.722027 -2.1753 0
M  V30 6334 C 596.159 0.244305 -1.58933 0
M  V30 6335 O 597.349 0.0235545 -1.74184 0
M  V30 6336 C 594.481 -0.0663966 -3.40835 0
M  V30 6337 H 595.674 -1.63719 -2.51269 0
M  V30 6338 H 593.227 -0.884442 -1.28869 0
M  V30 6339 H 593.962 0.860389 -3.12678 0
M  V30 6340 H 593.747 -0.761598 -3.84632 0
M  V30 6341 H 595.237 0.173346 -4.1724 0
M  V30 6342 N 595.674 1.31259 -0.872281 0
M  V30 6343 C 596.92 1.96913 -0.485083 0
M  V30 6344 C 597.253 1.68774 0.960667 0
M  V30 6345 O 596.528 0.985495 1.67685 0
M  V30 6346 C 596.811 3.52299 -0.745502 0
M  V30 6347 C 596.664 3.90002 -2.24095 0
M  V30 6348 C 597.983 4.39582 -0.213516 0
M  V30 6349 H 595.102 0.715252 -0.177716 0
M  V30 6350 H 597.744 1.55347 -1.09395 0
M  V30 6351 H 595.894 3.87835 -0.227276 0
M  V30 6352 H 597.566 3.64555 -2.82661 0
M  V30 6353 H 595.809 3.38526 -2.71261 0
M  V30 6354 H 596.48 4.98352 -2.37381 0
M  V30 6355 H 598.956 4.10882 -0.656902 0
M  V30 6356 H 597.832 5.47251 -0.42516 0
M  V30 6357 H 598.093 4.33158 0.884666 0
M  V30 6358 N 597.152 0.631951 1.44375 0
M  V30 6359 C 598.4 0.136497 2.01639 0
M  V30 6360 C 598.721 -1.24637 1.49969 0
M  V30 6361 O 597.991 -1.82827 0.70363 0
M  V30 6362 H 596.571 0.0474703 0.74549 0
M  V30 6363 H 599.233 0.818837 1.76865 0
M  V30 6364 H 598.329 0.104817 3.11924 0
M  V30 6365 N 598.631 -1.53133 0.372548 0
M  V30 6366 C 599.541 -2.29671 -0.478379 0
M  V30 6367 C 600.557 -1.35913 -1.08644 0
M  V30 6368 O 601.733 -1.68975 -1.09588 0
M  V30 6369 C 598.798 -3.07625 -1.599 0
M  V30 6370 C 597.859 -4.17061 -1.01776 0
M  V30 6371 C 597.092 -4.91289 -2.08497 0
M  V30 6372 O 597.315 -4.65442 -3.29727 0
M  V30 6373 O 596.249 -5.7705 -1.71164 0
M  V30 6374 H 600.075 -3.03355 0.144649 0
M  V30 6375 H 597.66 -1.48773 0.136729 0
M  V30 6376 H 599.542 -3.56281 -2.25038 0
M  V30 6377 H 598.217 -2.3677 -2.2073 0
M  V30 6378 H 597.124 -3.72641 -0.330098 0
M  V30 6379 H 598.457 -4.90102 -0.453915 0
M  V30 6380 N 600.109 -0.101901 -1.5727 0
M  V30 6381 C 601.358 0.559922 -1.93772 0
M  V30 6382 C 601.671 1.68913 -0.98629 0
M  V30 6383 O 602.877 2.41256 -1.24529 0
M  V30 6384 C 601.333 1.04739 -3.44322 0
M  V30 6385 C 600.941 -0.05243 -4.47969 0
M  V30 6386 C 602.685 1.68157 -3.89774 0
M  V30 6387 C 600.592 0.450781 -5.8968 0
M  V30 6388 H 599.522 0.212931 -0.723309 0
M  V30 6389 H 602.173 -0.179001 -1.82625 0
M  V30 6390 H 600.555 1.84021 -3.50645 0
M  V30 6391 H 601.729 -0.828157 -4.53297 0
M  V30 6392 H 600.044 -0.592202 -4.12167 0
M  V30 6393 H 602.641 2.0689 -4.93052 0
M  V30 6394 H 602.984 2.55338 -3.28798 0
M  V30 6395 H 603.517 0.954453 -3.8618 0
M  V30 6396 H 600.256 -0.38458 -6.54371 0
M  V30 6397 H 599.776 1.19336 -5.87809 0
M  V30 6398 H 601.455 0.917555 -6.40461 0
M  V30 6399 N 601.587 1.56661 0.17182 0
M  V30 6400 C 602.52 1.91474 1.24149 0
M  V30 6401 C 603.498 0.777485 1.42807 0
M  V30 6402 O 604.682 1.03075 1.57822 0
M  V30 6403 C 601.809 2.16523 2.60453 0
M  V30 6404 C 600.855 3.39209 2.58533 0
M  V30 6405 S 601.688 4.93594 2.07665 0
M  V30 6406 C 602.844 5.21737 3.45747 0
M  V30 6407 H 603.077 2.81903 0.944346 0
M  V30 6408 H 600.61 1.49743 0.376364 0
M  V30 6409 H 602.568 2.31635 3.38903 0
M  V30 6410 H 601.229 1.26802 2.87368 0
M  V30 6411 H 600.422 3.53935 3.58812 0
M  V30 6412 H 600.024 3.2321 1.88178 0
M  V30 6413 H 602.316 5.13684 4.41741 0
M  V30 6414 H 603.259 6.23361 3.35896 0
M  V30 6415 H 603.667 4.49307 3.41736 0
M  V30 6416 N 603.065 -0.440357 1.51323 0
M  V30 6417 C 604.29 -1.21716 1.67928 0
M  V30 6418 C 604.715 -1.84328 0.374826 0
M  V30 6419 O 604.073 -1.68675 -0.664706 0
M  V30 6420 C 604.121 -2.27914 2.79442 0
M  V30 6421 O 603.225 -3.33325 2.42834 0
M  V30 6422 H 602.566 -0.35674 0.560029 0
M  V30 6423 H 605.096 -0.520417 1.97871 0
M  V30 6424 H 605.106 -2.72746 3.03436 0
M  V30 6425 H 603.781 -1.8172 3.741 0
M  V30 6426 H 602.358 -2.9399 2.294 0
M  V30 6427 N 604.543 -1.41418 -0.695603 0
M  V30 6428 C 605.473 -1.46035 -1.82197 0
M  V30 6429 C 606.454 -0.319025 -1.67082 0
M  V30 6430 O 607.639 -0.530462 -1.86815 0
M  V30 6431 C 604.769 -1.34179 -3.20333 0
M  V30 6432 C 603.723 -2.46123 -3.50154 0
M  V30 6433 C 603.049 -2.19332 -4.87645 0
M  V30 6434 C 604.349 -3.88463 -3.49133 0
M  V30 6435 H 606.043 -2.40303 -1.78591 0
M  V30 6436 H 603.589 -1.15663 -0.857797 0
M  V30 6437 H 605.542 -1.36021 -3.98844 0
M  V30 6438 H 604.266 -0.363952 -3.24566 0
M  V30 6439 H 602.925 -2.43563 -2.73994 0
M  V30 6440 H 602.573 -1.19891 -4.88503 0
M  V30 6441 H 602.273 -2.94344 -5.08562 0
M  V30 6442 H 603.797 -2.22889 -5.68465 0
M  V30 6443 H 605.211 -3.92738 -4.17648 0
M  V30 6444 H 603.608 -4.63158 -3.81582 0
M  V30 6445 H 604.678 -4.16617 -2.48109 0
M  V30 6446 N 606.021 0.929856 -1.27246 0
M  V30 6447 C 607.246 1.71674 -1.16374 0
M  V30 6448 C 607.671 1.86064 0.276024 0
M  V30 6449 O 607.029 1.3591 1.19992 0
M  V30 6450 C 607.077 3.09526 -1.85003 0
M  V30 6451 O 606.181 3.96142 -1.14653 0
M  V30 6452 H 605.522 0.52629 -0.404863 0
M  V30 6453 H 608.052 1.16381 -1.68276 0
M  V30 6454 H 608.062 3.59852 -1.92276 0
M  V30 6455 H 606.737 2.98369 -2.89739 0
M  V30 6456 H 605.314 3.54584 -1.15433 0
M  V30 6457 N 607.499 1.09233 1.13605 0
M  V30 6458 C 608.462 0.733553 2.17144 0
M  V30 6459 C 609.462 -0.235873 1.59061 0
M  V30 6460 O 610.652 -0.0143167 1.74194 0
M  V30 6461 C 607.784 0.084471 3.40795 0
M  V30 6462 H 608.977 1.65049 2.50397 0
M  V30 6463 H 606.53 0.891264 1.28399 0
M  V30 6464 H 607.265 -0.843795 3.1313 0
M  V30 6465 H 607.05 0.781985 3.84223 0
M  V30 6466 H 608.54 -0.151216 4.17326 0
M  V30 6467 N 608.977 -1.30795 0.87923 0
M  V30 6468 C 609.94 -2.26563 0.346676 0
M  V30 6469 C 610.94 -1.52578 -0.507597 0
M  V30 6470 O 612.13 -1.71318 -0.315575 0
M  V30 6471 C 609.262 -3.37115 -0.506611 0
M  V30 6472 H 610.455 -2.75183 1.19223 0
M  V30 6473 H 608.008 -1.41886 0.655598 0
M  V30 6474 H 608.743 -2.93802 -1.37299 0
M  V30 6475 H 608.528 -3.91959 0.105218 0
M  V30 6476 H 610.018 -4.08412 -0.871192 0
M  V30 6477 N 610.455 -0.639598 -1.44038 0
M  V30 6478 C 611.683 -0.154811 -2.0632 0
M  V30 6479 C 612.098 1.17406 -1.47856 0
M  V30 6480 O 611.455 1.72193 -0.604638 0
M  V30 6481 C 611.506 -0.0429958 -3.61474 0
M  V30 6482 O 611.227 -1.31932 -4.17763 0
M  V30 6483 C 612.728 0.469486 -4.40807 0
M  V30 6484 H 609.948 -0.0835862 -0.665773 0
M  V30 6485 H 612.492 -0.876397 -1.84769 0
M  V30 6486 H 610.647 0.629075 -3.82258 0
M  V30 6487 H 611.061 -1.16965 -5.11292 0
M  V30 6488 H 612.535 0.496712 -5.49761 0
M  V30 6489 H 613.012 1.49819 -4.12857 0
M  V30 6490 H 613.618 -0.169624 -4.24962 0
M  V30 6491 N 611.933 1.52934 -0.380664 0
M  V30 6492 C 613.344 1.86457 0.0952684 0
M  V30 6493 C 613.695 1.3007 1.46889 0
M  V30 6494 O 612.82 0.628636 2.07068 0
M  V30 6495 C 613.415 3.38323 0.179648 0
M  V30 6496 C 611.974 3.71589 0.599858 0
M  V30 6497 C 611.121 2.76228 -0.243572 0
M  V30 6498 H 614.072 1.46966 -0.59888 0
M  V30 6499 H 614.093 3.67113 1.00042 0
M  V30 6500 H 613.605 3.79333 -0.820228 0
M  V30 6501 H 611.706 3.36144 1.60742 0
M  V30 6502 H 611.819 4.77715 0.364003 0
M  V30 6503 H 610.183 2.53045 0.289855 0
M  V30 6504 H 610.966 3.20074 -1.24127 0
M  V30 6505 N 613.412 0.11024 1.57214 0
M  V30 6506 C 614.359 -0.843195 2.14846 0
M  V30 6507 C 615.329 -1.26954 1.07107 0
M  V30 6508 O 616.514 -1.34861 1.34971 0
M  V30 6509 C 613.654 -2.09123 2.74521 0
M  V30 6510 C 612.767 -1.71404 3.96541 0
M  V30 6511 C 611.902 -2.91107 4.44331 0
M  V30 6512 C 610.941 -2.49586 5.58903 0
M  V30 6513 N 610.078 -3.62175 6.01477 0
M  V30 6514 H 614.918 -0.344886 2.95998 0
M  V30 6515 H 612.455 -0.15855 1.46243 0
M  V30 6516 H 614.413 -2.82234 3.07246 0
M  V30 6517 H 613.043 -2.56427 1.96074 0
M  V30 6518 H 612.095 -0.88201 3.70033 0
M  V30 6519 H 613.407 -1.36884 4.7965 0
M  V30 6520 H 612.561 -3.72454 4.78919 0
M  V30 6521 H 611.3 -3.28848 3.60153 0
M  V30 6522 H 610.305 -1.6667 5.23929 0
M  V30 6523 H 611.53 -2.12973 6.4484 0
M  V30 6524 H 609.476 -3.99605 5.20242 0
M  V30 6525 H 609.393 -3.3155 6.79419 0
M  V30 6526 H 610.661 -4.43987 6.407 0
M  V30 6527 N 614.89 -1.56749 -0.16351 0
M  V30 6528 C 615.84 -1.93424 -1.20712 0
M  V30 6529 C 616.824 -0.803469 -1.39403 0
M  V30 6530 O 618.016 -1.06675 -1.41243 0
M  V30 6531 C 615.145 -2.30431 -2.54473 0
M  V30 6532 C 614.231 -3.5004 -2.39443 0
M  V30 6533 N 614.622 -4.67058 -1.9414 0
M  V30 6534 C 612.92 -3.548 -2.70246 0
M  V30 6535 C 613.621 -5.49184 -1.9176 0
M  V30 6536 N 612.597 -4.9044 -2.34457 0
M  V30 6537 H 616.399 -2.8138 -0.848681 0
M  V30 6538 H 613.913 -1.58089 -0.371717 0
M  V30 6539 H 615.91 -2.54903 -3.29894 0
M  V30 6540 H 614.57 -1.43818 -2.91112 0
M  V30 6541 H 615.581 -4.91128 -1.64357 0
M  V30 6542 H 612.258 -2.78685 -3.10871 0
M  V30 6543 H 613.648 -6.5297 -1.58366 0
M  V30 6544 N 616.368 0.432326 -1.51554 0
M  V30 6545 C 617.298 1.53242 -1.76179 0
M  V30 6546 C 618.279 1.58717 -0.611801 0
M  V30 6547 O 619.464 1.74364 -0.855033 0
M  V30 6548 C 616.594 2.91278 -1.89141 0
M  V30 6549 C 615.548 3.00663 -3.04608 0
M  V30 6550 C 614.874 4.40728 -3.02759 0
M  V30 6551 C 616.174 2.74281 -4.44485 0
M  V30 6552 H 617.868 1.32886 -2.68294 0
M  V30 6553 H 615.414 0.637841 -1.29103 0
M  V30 6554 H 617.367 3.68203 -2.04951 0
M  V30 6555 H 616.091 3.12877 -0.936785 0
M  V30 6556 H 614.75 2.26179 -2.88511 0
M  V30 6557 H 614.398 4.59301 -2.05065 0
M  V30 6558 H 614.098 4.47936 -3.80299 0
M  V30 6559 H 615.622 5.19619 -3.20669 0
M  V30 6560 H 617.036 3.40936 -4.60907 0
M  V30 6561 H 615.433 2.92893 -5.23769 0
M  V30 6562 H 616.503 1.69856 -4.54177 0
M  V30 6563 N 617.846 1.41785 0.688094 0
M  V30 6564 C 618.793 1.44221 1.80191 0
M  V30 6565 C 619.763 0.295688 1.63447 0
M  V30 6566 O 620.948 0.49783 1.84191 0
M  V30 6567 C 618.088 1.33743 3.1813 0
M  V30 6568 C 617.201 2.58325 3.46254 0
M  V30 6569 C 616.336 2.40086 4.73848 0
M  V30 6570 C 615.375 3.60107 4.94964 0
M  V30 6571 N 614.512 3.40892 6.13789 0
M  V30 6572 H 619.352 2.39411 1.77444 0
M  V30 6573 H 616.889 1.18876 0.866423 0
M  V30 6574 H 618.847 1.25669 3.97823 0
M  V30 6575 H 617.477 0.42157 3.20035 0
M  V30 6576 H 616.529 2.7682 2.60912 0
M  V30 6577 H 617.841 3.4758 3.57756 0
M  V30 6578 H 616.995 2.29522 5.61609 0
M  V30 6579 H 615.734 1.483 4.64606 0
M  V30 6580 H 614.739 3.71118 4.05649 0
M  V30 6581 H 615.964 4.52857 5.06061 0
M  V30 6582 H 613.91 2.51812 6.05745 0
M  V30 6583 H 613.827 4.23727 6.26092 0
M  V30 6584 H 615.095 3.34114 7.04264 0
M  V30 6585 N 619.324 -0.923095 1.27737 0
M  V30 6586 C 620.549 -1.71054 1.17283 0
M  V30 6587 C 620.974 -1.86208 -0.266153 0
M  V30 6588 O 620.332 -1.36545 -1.1927 0
M  V30 6589 C 620.38 -3.0854 1.86642 0
M  V30 6590 O 619.484 -3.95528 1.16752 0
M  V30 6591 H 618.825 -0.524136 0.407649 0
M  V30 6592 H 621.355 -1.15487 1.6889 0
M  V30 6593 H 621.365 -3.58828 1.94182 0
M  V30 6594 H 620.04 -2.96828 2.91317 0
M  V30 6595 H 618.617 -3.53967 1.17312 0
M  V30 6596 N 620.802 -1.09834 -1.13024 0
M  V30 6597 C 622.051 -0.831806 -1.83749 0
M  V30 6598 C 622.364 0.644763 -1.84668 0
M  V30 6599 O 623.57 1.02697 -2.51327 0
M  V30 6600 C 622.026 -1.43817 -3.29916 0
M  V30 6601 C 621.634 -2.94759 -3.37374 0
M  V30 6602 C 623.378 -1.25077 -4.05655 0
M  V30 6603 C 621.285 -3.48461 -4.77838 0
M  V30 6604 H 620.215 -0.30751 -0.688443 0
M  V30 6605 H 622.866 -1.32156 -1.27307 0
M  V30 6606 H 621.248 -0.876106 -3.86187 0
M  V30 6607 H 622.422 -3.57228 -2.91076 0
M  V30 6608 H 620.737 -3.12581 -2.75103 0
M  V30 6609 H 623.334 -1.62649 -5.09362 0
M  V30 6610 H 623.677 -0.191782 -4.15858 0
M  V30 6611 H 624.21 -1.78057 -3.55725 0
M  V30 6612 H 620.949 -4.53998 -4.72828 0
M  V30 6613 H 620.469 -2.90757 -5.24615 0
M  V30 6614 H 622.148 -3.45914 -5.46766 0
M  V30 6615 N 622.28 1.30327 -0.886154 0
M  V30 6616 C 623.528 1.9571 -0.504195 0
M  V30 6617 C 623.849 1.70294 0.950003 0
M  V30 6618 O 623.119 1.02718 1.66811 0
M  V30 6619 H 621.699 0.72412 -0.183465 0
M  V30 6620 H 624.361 1.58835 -1.12949 0
M  V30 6621 H 623.457 3.04704 -0.675431 0
M  V30 6622 N 623.758 0.647228 1.43697 0
M  V30 6623 C 624.688 -0.0345631 2.33474 0
M  V30 6624 C 625.669 -0.818193 1.4913 0
M  V30 6625 O 626.854 -0.780867 1.77809 0
M  V30 6626 C 623.984 -1.00576 3.32418 0
M  V30 6627 C 622.938 -0.33266 4.26705 0
M  V30 6628 C 622.264 -1.41489 5.1564 0
M  V30 6629 C 623.564 0.771204 5.16575 0
M  V30 6630 H 625.258 0.715163 2.90733 0
M  V30 6631 H 622.804 0.345364 1.39797 0
M  V30 6632 H 624.757 -1.49159 3.94119 0
M  V30 6633 H 623.481 -1.78657 2.73403 0
M  V30 6634 H 622.14 0.13267 3.6636 0
M  V30 6635 H 621.788 -2.18698 4.52968 0
M  V30 6636 H 621.488 -0.969799 5.79542 0
M  V30 6637 H 623.012 -1.9022 5.80214 0
M  V30 6638 H 624.426 0.36779 5.72119 0
M  V30 6639 H 622.823 1.1404 5.89165 0
M  V30 6640 H 623.893 1.63169 4.56622 0
M  V30 6641 N 625.236 -1.5273 0.388769 0
M  V30 6642 C 626.166 -2.29353 -0.438111 0
M  V30 6643 C 627.147 -1.32719 -1.06394 0
M  V30 6644 O 628.332 -1.61612 -1.07681 0
M  V30 6645 C 625.462 -3.09995 -1.56589 0
M  V30 6646 C 624.416 -4.14509 -1.06613 0
M  V30 6647 C 623.742 -4.83372 -2.28594 0
M  V30 6648 C 625.042 -5.22127 -0.134459 0
M  V30 6649 H 626.736 -2.98723 0.201206 0
M  V30 6650 H 624.282 -1.43665 0.0982089 0
M  V30 6651 H 626.235 -3.62357 -2.15118 0
M  V30 6652 H 624.959 -2.38357 -2.23279 0
M  V30 6653 H 623.618 -3.63128 -0.503383 0
M  V30 6654 H 623.266 -4.08283 -2.93792 0
M  V30 6655 H 622.966 -5.54012 -1.95817 0
M  V30 6656 H 624.49 -5.38538 -2.87766 0
M  V30 6657 H 625.904 -5.69851 -0.627914 0
M  V30 6658 H 624.301 -6.00011 0.103534 0
M  V30 6659 H 625.371 -4.77971 0.816798 0
M  V30 6660 N 626.714 -0.118576 -1.57153 0
M  V30 6661 C 627.939 0.550582 -1.99958 0
M  V30 6662 C 628.364 1.59458 -0.997736 0
M  V30 6663 O 627.722 1.81274 0.0306269 0
M  V30 6664 C 627.77 1.15379 -3.41643 0
M  V30 6665 O 626.874 2.26932 -3.44348 0
M  V30 6666 H 626.215 0.137567 -0.649593 0
M  V30 6667 H 628.745 -0.206926 -2.03551 0
M  V30 6668 H 628.755 1.48942 -3.79843 0
M  V30 6669 H 627.43 0.389087 -4.14076 0
M  V30 6670 H 626.007 1.94812 -3.17967 0
M  V30 6671 N 628.193 1.56834 0.155195 0
M  V30 6672 C 629.604 1.72421 0.716082 0
M  V30 6673 C 629.955 0.731685 1.82046 0
M  V30 6674 O 629.08 -0.103481 2.16152 0
M  V30 6675 C 629.675 3.12629 1.30571 0
M  V30 6676 C 628.234 3.29846 1.81325 0
M  V30 6677 C 627.381 2.68359 0.698494 0
M  V30 6678 H 630.332 1.58544 -0.0703861 0
M  V30 6679 H 630.353 3.12174 2.1755 0
M  V30 6680 H 629.865 3.84844 0.501701 0
M  V30 6681 H 627.966 2.62614 2.64319 0
M  V30 6682 H 628.079 4.37727 1.9476 0
M  V30 6683 H 626.443 2.28604 1.12305 0
M  V30 6684 H 627.226 3.43171 -0.0939366 0
M  V30 6685 N 629.671 -0.424282 1.51781 0
M  V30 6686 C 630.948 -1.18464 1.55646 0
M  V30 6687 C 631.328 -2.08529 0.328438 0
M  V30 6688 O 630.676 -2.17969 -0.685693 0
M  V30 6689 C 630.886 -1.97514 2.87731 0
M  V30 6690 C 632.234 -2.54106 3.40169 0
M  V30 6691 O 633.258 -2.07711 2.89369 0
M  V30 6692 O 632.117 -3.38759 4.28841 0
M  V30 6693 H 629.211 -0.540055 0.626314 0
M  V30 6694 H 631.757 -0.432291 1.64102 0
M  V30 6695 H 630.529 -1.31444 3.68562 0
M  V30 6696 H 630.152 -2.79787 2.82498 0
M  V30 6697 N 631.149 -1.42148 -0.680565 0
M  V30 6698 C 632.396 -1.4231 -1.44063 0
M  V30 6699 C 632.724 -0.037488 -1.94464 0
M  V30 6700 O 631.979 0.953184 -1.70918 0
M  V30 6701 C 632.278 -2.38945 -2.65782 0
M  V30 6702 C 631.944 -3.85455 -2.33956 0
M  V30 6703 C 630.606 -4.25364 -2.24987 0
M  V30 6704 C 632.958 -4.77895 -2.08004 0
M  V30 6705 C 630.286 -5.55701 -1.88184 0
M  V30 6706 C 632.638 -6.08568 -1.72706 0
M  V30 6707 C 631.302 -6.47482 -1.62244 0
M  V30 6708 H 630.572 -0.520748 -0.527164 0
M  V30 6709 H 633.219 -1.7505 -0.776524 0
M  V30 6710 H 631.524 -1.99511 -3.37198 0
M  V30 6711 H 633.221 -2.36336 -3.23954 0
M  V30 6712 H 629.811 -3.53855 -2.41836 0
M  V30 6713 H 633.995 -4.47854 -2.1387 0
M  V30 6714 H 629.251 -5.84718 -1.78648 0
M  V30 6715 H 633.425 -6.79688 -1.5165 0
M  V30 6716 H 631.052 -7.48387 -1.33496 0
M  V30 6717 N 632.627 0.916307 -1.28225 0
M  V30 6718 C 633.559 2.02303 -1.07732 0
M  V30 6719 C 634.572 1.62773 -0.0298421 0
M  V30 6720 O 635.761 1.76406 -0.272626 0
M  V30 6721 C 632.861 3.33282 -0.614504 0
M  V30 6722 C 632.034 4.01439 -1.73682 0
M  V30 6723 C 631.093 5.10698 -1.26781 0
M  V30 6724 O 630.119 5.34038 -1.96958 0
M  V30 6725 N 631.321 5.80355 -0.129624 0
M  V30 6726 H 634.086 2.20442 -2.03041 0
M  V30 6727 H 631.647 1.08744 -1.19943 0
M  V30 6728 H 633.639 4.03699 -0.284397 0
M  V30 6729 H 632.209 3.11633 0.245664 0
M  V30 6730 H 631.429 3.24604 -2.23665 0
M  V30 6731 H 632.717 4.43721 -2.48976 0
M  V30 6732 H 632.115 5.6386 0.455847 0
M  V30 6733 H 630.672 6.51647 0.141224 0
M  V30 6734 N 634.105 1.10431 1.1244 0
M  V30 6735 C 635.015 0.765502 2.21759 0
M  V30 6736 C 636.031 -0.236966 1.72379 0
M  V30 6737 O 637.207 -0.0757329 2.01258 0
M  V30 6738 C 634.272 0.202316 3.46109 0
M  V30 6739 C 633.333 1.26205 4.1033 0
M  V30 6740 C 632.566 0.725648 5.28744 0
M  V30 6741 O 632.789 -0.447942 5.68638 0
M  V30 6742 O 631.723 1.48555 5.83279 0
M  V30 6743 H 635.549 1.67801 2.53133 0
M  V30 6744 H 633.134 0.879443 1.20773 0
M  V30 6745 H 635.016 -0.107918 4.21262 0
M  V30 6746 H 633.691 -0.683052 3.16411 0
M  V30 6747 H 632.598 1.62514 3.36957 0
M  V30 6748 H 633.931 2.12044 4.44183 0
M  V30 6749 N 635.583 -1.29855 0.893053 0
M  V30 6750 C 636.86 -1.90694 0.435336 0
M  V30 6751 C 637.24 -1.8111 -1.08454 0
M  V30 6752 O 636.588 -1.23352 -1.92345 0
M  V30 6753 C 636.798 -3.36033 0.942472 0
M  V30 6754 C 638.146 -4.13083 0.982226 0
M  V30 6755 O 639.17 -3.4491 0.889686 0
M  V30 6756 O 638.029 -5.34896 1.12022 0
M  V30 6757 H 635.123 -0.815978 0.134567 0
M  V30 6758 H 637.669 -1.38367 0.982484 0
M  V30 6759 H 636.441 -3.37132 1.9864 0
M  V30 6760 H 636.064 -3.95828 0.374952 0
M  V30 6761 N 637.061 -0.65484 -1.43351 0
M  V30 6762 C 638.009 0.0476784 -2.32551 0
M  V30 6763 C 639.003 0.811403 -1.48703 0
M  V30 6764 O 640.209 0.721621 -1.64902 0
M  V30 6765 H 636.584 0.0342038 -0.751222 0
M  V30 6766 H 638.555 -0.722342 -2.89525 0
M  V30 6767 C 637.304 0.999251 -3.33032 0
M  V30 6768 H 636.627 0.421005 -3.97577 0
M  V30 6769 H 638.067 1.45986 -3.98076 0
M  V30 6770 C 636.526 2.09606 -2.63756 0
M  V30 6771 O 637.056 3.18004 -2.4543 0
M  V30 6772 N 635.262 1.86207 -2.23103 0
M  V30 6773 H 634.809 0.980555 -2.38208 0
M  V30 6774 H 634.767 2.59787 -1.77081 0
M  V30 6775 N 638.539 1.52521 -0.396863 0
M  V30 6776 C 639.449 2.30403 0.44178 0
M  V30 6777 C 640.465 1.37625 1.06468 0
M  V30 6778 O 641.641 1.70697 1.06886 0
M  V30 6779 C 638.706 3.1013 1.54986 0
M  V30 6780 C 637.767 4.18628 0.951279 0
M  V30 6781 C 637 4.94543 2.00655 0
M  V30 6782 O 637.223 4.70629 3.22281 0
M  V30 6783 O 636.157 5.797 1.61962 0
M  V30 6784 H 639.983 3.03087 -0.192892 0
M  V30 6785 H 637.568 1.48537 -0.16038 0
M  V30 6786 H 639.45 3.59816 2.19341 0
M  V30 6787 H 638.125 2.40251 2.16935 0
M  V30 6788 H 637.032 3.73119 0.270773 0
M  V30 6789 H 638.365 4.90763 0.375887 0
M  V30 6790 N 640.017 0.126909 1.57088 0
M  V30 6791 C 641.245 -0.53667 1.99819 0
M  V30 6792 C 641.66 -1.5972 1.00673 0
M  V30 6793 O 641.017 -1.825 0.000747365 0
M  V30 6794 C 641.068 -1.15563 3.42531 0
M  V30 6795 O 640.789 -0.137483 4.37884 0
M  V30 6796 C 642.29 -1.90176 4.00435 0
M  V30 6797 H 639.51 -0.141443 0.655923 0
M  V30 6798 H 642.054 0.215578 2.03361 0
M  V30 6799 H 640.209 -1.85861 3.39904 0
M  V30 6800 H 640.623 -0.588229 5.21191 0
M  V30 6801 H 642.097 -2.28801 5.02349 0
M  V30 6802 H 642.574 -2.78002 3.40017 0
M  V30 6803 H 643.18 -1.24623 4.06632 0
M  V30 6804 N 641.495 -1.56914 -0.146875 0
M  V30 6805 C 642.405 -2.0154 -1.20079 0
M  V30 6806 C 643.421 -0.930838 -1.47008 0
M  V30 6807 O 644.597 -1.24032 -1.58676 0
M  V30 6808 C 641.662 -2.38715 -2.51428 0
M  V30 6809 C 640.723 -3.6112 -2.32145 0
M  V30 6810 C 639.956 -3.96512 -3.57231 0
M  V30 6811 O 640.179 -3.32566 -4.63418 0
M  V30 6812 O 639.113 -4.89758 -3.49887 0
M  V30 6813 H 642.939 -2.91506 -0.851924 0
M  V30 6814 H 640.524 -1.45106 -0.355607 0
M  V30 6815 H 642.406 -2.63485 -3.28867 0
M  V30 6816 H 641.081 -1.51903 -2.85845 0
M  V30 6817 H 639.988 -3.41536 -1.52656 0
M  V30 6818 H 641.321 -4.48549 -2.02644 0
M  V30 6819 N 642.974 0.416227 -1.52004 0
M  V30 6820 C 644.223 1.16088 -1.64944 0
M  V30 6821 C 644.536 1.91835 -0.381928 0
M  V30 6822 O 645.742 2.6867 -0.391013 0
M  V30 6823 C 644.198 2.1124 -2.91386 0
M  V30 6824 C 643.806 1.41042 -4.25219 0
M  V30 6825 C 645.55 2.86008 -3.13688 0
M  V30 6826 C 643.457 2.34801 -5.42791 0
M  V30 6827 H 642.387 0.437041 -0.61442 0
M  V30 6828 H 645.038 0.425971 -1.78487 0
M  V30 6829 H 643.42 2.88254 -2.71525 0
M  V30 6830 H 644.594 0.694416 -4.55538 0
M  V30 6831 H 642.909 0.78344 -4.08964 0
M  V30 6832 H 645.506 3.56286 -3.98703 0
M  V30 6833 H 645.849 3.48556 -2.27628 0
M  V30 6834 H 646.382 2.16095 -3.33988 0
M  V30 6835 H 643.121 1.7691 -6.31176 0
M  V30 6836 H 642.641 3.04395 -5.16821 0
M  V30 6837 H 644.32 2.9548 -5.75587 0
M  V30 6838 N 644.452 1.42507 0.673017 0
M  V30 6839 C 645.4 1.46362 1.80779 0
M  V30 6840 C 646.394 0.339166 1.6597 0
M  V30 6841 O 647.6 0.512262 1.72557 0
M  V30 6842 H 643.975 0.458433 0.596107 0
M  V30 6843 H 645.946 2.41953 1.74646 0
M  V30 6844 C 644.695 1.38462 3.18941 0
M  V30 6845 H 644.018 2.24283 3.30964 0
M  V30 6846 H 645.458 1.45221 3.98355 0
M  V30 6847 C 643.917 0.0996354 3.36753 0
M  V30 6848 O 644.447 -0.846894 3.92671 0
M  V30 6849 N 642.653 0.016211 2.90595 0
M  V30 6850 H 642.2 0.78725 2.45276 0
M  V30 6851 H 642.158 -0.84291 3.0289 0
M  V30 6852 N 645.93 -0.909495 1.28709 0
M  V30 6853 C 647.177 -1.65905 1.16111 0
M  V30 6854 C 647.505 -1.92334 -0.289436 0
M  V30 6855 O 646.76 -1.52495 -1.22653 0
M  V30 6856 C 647.059 -3.02117 1.90945 0
M  V30 6857 C 646.725 -2.95332 3.40719 0
M  V30 6858 C 645.387 -2.93189 3.81567 0
M  V30 6859 C 647.739 -2.85264 4.36204 0
M  V30 6860 C 645.067 -2.78784 5.16233 0
M  V30 6861 C 647.419 -2.724 5.70948 0
M  V30 6862 C 646.083 -2.68617 6.11066 0
M  V30 6863 H 645.353 -0.60709 0.42488 0
M  V30 6864 H 648 -1.05932 1.59533 0
M  V30 6865 H 646.305 -3.65901 1.40085 0
M  V30 6866 H 648.002 -3.59026 1.7861 0
M  V30 6867 H 644.592 -2.97797 3.08245 0
M  V30 6868 H 648.776 -2.86005 4.05605 0
M  V30 6869 H 644.032 -2.74254 5.46438 0
M  V30 6870 H 648.206 -2.63579 6.44592 0
M  V30 6871 H 645.833 -2.57213 7.15364 0
M  V30 6872 N 647.408 -1.11026 -1.11852 0
M  V30 6873 C 648.338 -0.786812 -2.19844 0
M  V30 6874 C 649.319 0.242935 -1.68356 0
M  V30 6875 O 650.504 0.107355 -1.93903 0
M  V30 6876 C 647.634 -0.224516 -3.46574 0
M  V30 6877 C 646.588 -1.18564 -4.1125 0
M  V30 6878 C 645.914 -0.484261 -5.32503 0
M  V30 6879 C 647.214 -2.53465 -4.56676 0
M  V30 6880 H 648.908 -1.68978 -2.47158 0
M  V30 6881 H 646.454 -0.813906 -1.18792 0
M  V30 6882 H 648.407 0.0139435 -4.21398 0
M  V30 6883 H 647.131 0.713722 -3.18706 0
M  V30 6884 H 645.79 -1.40966 -3.38414 0
M  V30 6885 H 645.438 0.458646 -5.00905 0
M  V30 6886 H 645.138 -1.12526 -5.76725 0
M  V30 6887 H 646.662 -0.254492 -6.10069 0
M  V30 6888 H 648.076 -2.35177 -5.22843 0
M  V30 6889 H 646.473 -3.13507 -5.11697 0
M  V30 6890 H 647.543 -3.13008 -3.70343 0
M  V30 6891 N 648.886 1.2938 -0.899927 0
M  V30 6892 C 649.816 2.30144 -0.39446 0
M  V30 6893 C 650.797 1.61611 0.530639 0
M  V30 6894 O 651.982 1.89119 0.441319 0
M  V30 6895 C 649.112 3.45229 0.37868 0
M  V30 6896 C 648.066 4.25564 -0.456012 0
M  V30 6897 C 647.392 5.32848 0.444637 0
M  V30 6898 C 648.692 4.93651 -1.70605 0
M  V30 6899 H 650.386 2.72673 -1.23653 0
M  V30 6900 H 647.932 1.31086 -0.596034 0
M  V30 6901 H 649.885 4.14797 0.743037 0
M  V30 6902 H 648.609 3.01545 1.25453 0
M  V30 6903 H 647.268 3.57704 -0.802704 0
M  V30 6904 H 646.916 4.85408 1.31863 0
M  V30 6905 H 646.616 5.87497 -0.110154 0
M  V30 6906 H 648.14 6.05268 0.805182 0
M  V30 6907 H 649.554 5.55655 -1.41141 0
M  V30 6908 H 647.951 5.58233 -2.20217 0
M  V30 6909 H 649.021 4.18926 -2.4419 0
M  V30 6910 N 650.364 0.662433 1.43002 0
M  V30 6911 C 651.311 -0.0235324 2.30788 0
M  V30 6912 C 652.281 -0.805342 1.4527 0
M  V30 6913 O 653.466 -0.78009 1.74124 0
M  V30 6914 C 650.606 -0.977545 3.30965 0
M  V30 6915 C 649.719 -0.190865 4.31578 0
M  V30 6916 C 648.854 -1.13951 5.18834 0
M  V30 6917 C 647.893 -0.343796 6.11134 0
M  V30 6918 N 647.03 -1.2445 6.90982 0
M  V30 6919 H 651.87 0.730921 2.88897 0
M  V30 6920 H 649.407 0.372197 1.42313 0
M  V30 6921 H 651.365 -1.54437 3.87563 0
M  V30 6922 H 649.995 -1.69877 2.74484 0
M  V30 6923 H 649.047 0.492388 3.772 0
M  V30 6924 H 650.359 0.427464 4.96965 0
M  V30 6925 H 649.513 -1.77666 5.80103 0
M  V30 6926 H 648.252 -1.79174 4.53595 0
M  V30 6927 H 647.257 0.30665 5.48944 0
M  V30 6928 H 648.482 0.304161 6.78419 0
M  V30 6929 H 646.428 -1.88336 6.28383 0
M  V30 6930 H 646.345 -0.680959 7.52927 0
M  V30 6931 H 647.613 -1.86952 7.56749 0
M  V30 6932 N 651.842 -1.52309 0.404946 0
M  V30 6933 C 652.774 -2.24579 -0.45791 0
M  V30 6934 C 653.787 -1.2739 -1.01369 0
M  V30 6935 O 654.976 -1.53363 -0.91335 0
M  V30 6936 C 652.076 -2.9608 -1.64893 0
M  V30 6937 C 651.249 -4.20106 -1.21777 0
M  V30 6938 C 650.308 -4.74468 -2.27523 0
M  V30 6939 O 649.334 -5.37157 -1.88285 0
M  V30 6940 N 650.536 -4.55678 -3.59635 0
M  V30 6941 H 653.301 -2.99265 0.161341 0
M  V30 6942 H 650.862 -1.60228 0.232107 0
M  V30 6943 H 652.854 -3.29344 -2.35191 0
M  V30 6944 H 651.424 -2.24606 -2.17419 0
M  V30 6945 H 650.644 -3.92704 -0.343071 0
M  V30 6946 H 651.932 -5.00658 -0.906596 0
M  V30 6947 H 651.33 -4.05673 -3.94266 0
M  V30 6948 H 649.887 -4.9339 -4.25922 0
M  V30 6949 N 653.32 -0.135238 -1.57019 0
M  V30 6950 C 654.283 0.794707 -2.14981 0
M  V30 6951 C 655.283 1.18342 -1.08866 0
M  V30 6952 O 656.473 1.10627 -1.34563 0
M  V30 6953 C 653.605 2.07685 -2.70333 0
M  V30 6954 H 654.798 0.290696 -2.98488 0
M  V30 6955 H 652.351 0.114128 -1.55883 0
M  V30 6956 H 653.086 2.6248 -1.9046 0
M  V30 6957 H 652.871 1.80745 -3.47957 0
M  V30 6958 H 654.361 2.74127 -3.1503 0
M  V30 6959 N 654.798 1.5699 0.138552 0
M  V30 6960 C 655.728 2.01933 1.17241 0
M  V30 6961 C 656.709 0.90033 1.44319 0
M  V30 6962 O 657.894 1.16872 1.55095 0
M  V30 6963 C 655.024 2.40711 2.50351 0
M  V30 6964 C 653.978 3.55874 2.37776 0
M  V30 6965 C 653.304 3.80491 3.75674 0
M  V30 6966 C 654.604 4.8826 1.85472 0
M  V30 6967 H 656.298 2.88551 0.798672 0
M  V30 6968 H 653.844 1.3882 0.382743 0
M  V30 6969 H 655.797 2.70754 3.22909 0
M  V30 6970 H 654.521 1.5104 2.89576 0
M  V30 6971 H 653.18 3.2601 1.67669 0
M  V30 6972 H 652.828 2.88057 4.12349 0
M  V30 6973 H 652.528 4.57998 3.68119 0
M  V30 6974 H 654.052 4.12967 4.49767 0
M  V30 6975 H 655.466 5.16965 2.4783 0
M  V30 6976 H 653.863 5.69631 1.88787 0
M  V30 6977 H 654.933 4.78071 0.810935 0
M  V30 6978 N 656.276 -0.40816 1.52223 0
M  V30 6979 C 657.504 -1.17672 1.70179 0
M  V30 6980 C 657.919 -1.84257 0.411696 0
M  V30 6981 O 657.276 -1.7192 -0.612354 0
M  V30 6982 C 657.327 -2.23911 2.83806 0
M  V30 6983 O 657.048 -1.60044 4.0782 0
M  V30 6984 C 658.549 -3.1364 3.13281 0
M  V30 6985 H 655.769 -0.353562 0.570293 0
M  V30 6986 H 658.313 -0.480083 1.98785 0
M  V30 6987 H 656.468 -2.89242 2.57717 0
M  V30 6988 H 656.882 -2.30484 4.71145 0
M  V30 6989 H 658.356 -3.84255 3.96298 0
M  V30 6990 H 658.833 -3.76066 2.26872 0
M  V30 6991 H 659.439 -2.53977 3.41139 0
M  V30 6992 N 657.755 -1.42862 -0.66545 0
M  V30 6993 C 659.004 -1.43119 -1.42126 0
M  V30 6994 C 659.317 -0.0545297 -1.95524 0
M  V30 6995 O 660.523 0.0654747 -2.71421 0
M  V30 6996 C 658.979 -2.51797 -2.5715 0
M  V30 6997 C 658.587 -3.95514 -2.10411 0
M  V30 6998 C 660.331 -2.61233 -3.346 0
M  V30 6999 C 658.238 -4.95682 -3.22573 0
M  V30 7000 H 657.168 -0.532349 -0.533966 0
M  V30 7001 H 659.819 -1.68806 -0.719506 0
M  V30 7002 H 658.201 -2.19292 -3.29738 0
M  V30 7003 H 659.375 -4.3742 -1.44915 0
M  V30 7004 H 657.69 -3.90012 -1.45874 0
M  V30 7005 H 660.287 -3.33248 -4.18151 0
M  V30 7006 H 660.63 -1.65896 -3.81817 0
M  V30 7007 H 661.163 -2.9298 -2.69087 0
M  V30 7008 H 657.902 -5.92529 -2.80338 0
M  V30 7009 H 657.422 -4.58399 -3.86821 0
M  V30 7010 H 659.101 -5.17828 -3.87896 0
M  V30 7011 N 659.233 0.902656 -1.29189 0
M  V30 7012 C 660.479 1.65532 -1.17163 0
M  V30 7013 C 660.812 1.92216 0.276879 0
M  V30 7014 O 660.087 1.53048 1.20027 0
M  V30 7015 C 660.37 3.00629 -1.98228 0
M  V30 7016 C 660.223 2.81029 -3.51202 0
M  V30 7017 C 661.542 4.01321 -1.80635 0
M  V30 7018 H 658.661 0.60071 -0.426985 0
M  V30 7019 H 661.303 1.04578 -1.5863 0
M  V30 7020 H 659.453 3.52656 -1.62991 0
M  V30 7021 H 661.125 2.35927 -3.96404 0
M  V30 7022 H 659.368 2.1587 -3.76275 0
M  V30 7023 H 660.039 3.77014 -4.03192 0
M  V30 7024 H 662.515 3.58394 -2.11406 0
M  V30 7025 H 661.391 4.93792 -2.3971 0
M  V30 7026 H 661.652 4.35505 -0.760754 0
M  V30 7027 N 660.711 1.11618 1.11262 0
M  V30 7028 C 661.959 0.864469 1.82678 0
M  V30 7029 C 662.28 -0.611564 1.85162 0
M  V30 7030 O 661.55 -1.44429 1.32352 0
M  V30 7031 H 660.13 0.316821 0.676486 0
M  V30 7032 H 662.792 1.40894 1.34666 0
M  V30 7033 H 661.888 1.23832 2.86482 0
M  V30 7034 N 662.189 -1.289 0.906776 0
M  V30 7035 C 663.417 -1.99401 0.551969 0
M  V30 7036 C 663.832 -1.67816 -0.865048 0
M  V30 7037 O 663.189 -0.927078 -1.57199 0
M  V30 7038 C 663.24 -3.53779 0.743152 0
M  V30 7039 O 662.961 -3.84248 2.1044 0
M  V30 7040 C 664.462 -4.41543 0.39424 0
M  V30 7041 H 661.682 -0.636926 0.211106 0
M  V30 7042 H 664.226 -1.64266 1.21807 0
M  V30 7043 H 662.381 -3.87201 0.124143 0
M  V30 7044 H 662.795 -4.78904 2.13895 0
M  V30 7045 H 664.269 -5.48957 0.578814 0
M  V30 7046 H 664.746 -4.34073 -0.669137 0
M  V30 7047 H 665.352 -4.13605 0.990491 0
M  V30 7048 N 663.667 -0.670007 -1.42649 0
M  V30 7049 C 664.597 -0.00258501 -2.335 0
M  V30 7050 C 665.578 0.794364 -1.50412 0
M  V30 7051 O 666.763 0.75248 -1.79029 0
M  V30 7052 C 663.893 0.952748 -3.33976 0
M  V30 7053 C 662.847 0.264733 -4.2718 0
M  V30 7054 C 662.173 1.33267 -5.17826 0
M  V30 7055 C 663.473 -0.853289 -5.15283 0
M  V30 7056 H 665.167 -0.761326 -2.89559 0
M  V30 7057 H 662.713 -0.367561 -1.3923 0
M  V30 7058 H 664.666 1.4287 -3.96442 0
M  V30 7059 H 663.39 1.74285 -2.7621 0
M  V30 7060 H 662.049 -0.190938 -3.66102 0
M  V30 7061 H 661.697 2.11464 -4.5639 0
M  V30 7062 H 661.397 0.877476 -5.81011 0
M  V30 7063 H 662.921 1.80965 -5.83167 0
M  V30 7064 H 664.335 -0.458763 -5.71462 0
M  V30 7065 H 662.732 -1.23398 -5.87276 0
M  V30 7066 H 663.802 -1.70412 -4.53969 0
M  V30 7067 N 665.145 1.52092 -0.413018 0
M  V30 7068 C 666.556 1.86617 0.0556967 0
M  V30 7069 C 666.907 1.33156 1.44097 0
M  V30 7070 O 666.032 0.672417 2.05688 0
M  V30 7071 C 666.627 3.38628 0.107844 0
M  V30 7072 C 665.186 3.72778 0.520904 0
M  V30 7073 C 664.333 2.75649 -0.302109 0
M  V30 7074 H 667.284 1.45663 -0.629919 0
M  V30 7075 H 667.305 3.69152 0.922324 0
M  V30 7076 H 666.817 3.77508 -0.900506 0
M  V30 7077 H 664.918 3.39478 1.53575 0
M  V30 7078 H 665.031 4.7838 0.262591 0
M  V30 7079 H 663.395 2.53603 0.236115 0
M  V30 7080 H 664.178 3.17369 -1.30888 0
M  V30 7081 N 666.623 0.143563 1.56945 0
M  V30 7082 C 667.87 -0.508407 1.96014 0
M  V30 7083 C 668.198 -1.65099 1.02824 0
M  V30 7084 O 667.453 -1.95618 0.0567764 0
M  V30 7085 C 667.752 -1.05885 3.41355 0
M  V30 7086 C 667.418 -0.0350809 4.50886 0
M  V30 7087 C 666.08 0.246362 4.80569 0
M  V30 7088 C 668.432 0.661282 5.16988 0
M  V30 7089 C 665.76 1.23003 5.73661 0
M  V30 7090 C 668.112 1.63375 6.11139 0
M  V30 7091 C 666.776 1.92292 6.39203 0
M  V30 7092 H 666.046 -0.186039 0.717266 0
M  V30 7093 H 668.693 0.229667 1.90118 0
M  V30 7094 H 666.998 -1.87419 3.44066 0
M  V30 7095 H 668.695 -1.57183 3.6891 0
M  V30 7096 H 665.285 -0.264622 4.27782 0
M  V30 7097 H 669.469 0.457038 4.94191 0
M  V30 7098 H 664.725 1.46056 5.93698 0
M  V30 7099 H 668.899 2.17887 6.61436 0
M  V30 7100 H 666.526 2.68666 7.11142 0
M  V30 7101 N 668.101 -1.57061 -0.130224 0
M  V30 7102 C 669.329 -1.88432 -0.854456 0
M  V30 7103 C 669.744 -0.733608 -1.73964 0
M  V30 7104 O 669.101 0.296029 -1.80083 0
M  V30 7105 C 669.152 -3.1918 -1.69724 0
M  V30 7106 O 668.873 -4.2982 -0.847705 0
M  V30 7107 C 670.374 -3.6418 -2.5276 0
M  V30 7108 H 667.594 -0.624193 -0.246221 0
M  V30 7109 H 670.138 -2.04159 -0.11798 0
M  V30 7110 H 668.293 -3.05156 -2.3866 0
M  V30 7111 H 668.707 -5.04689 -1.42792 0
M  V30 7112 H 670.181 -4.58457 -3.07443 0
M  V30 7113 H 670.658 -2.90285 -3.29592 0
M  V30 7114 H 671.264 -3.80954 -1.89087 0
M  V30 7115 N 669.579 0.400081 -1.52437 0
M  V30 7116 C 670.809 1.16598 -1.70553 0
M  V30 7117 C 671.217 1.8451 -0.418665 0
M  V30 7118 O 670.56 1.73069 0.615855 0
M  V30 7119 C 670.622 2.26517 -2.7916 0
M  V30 7120 C 670.286 1.78666 -4.20628 0
M  V30 7121 C 671.283 1.26946 -5.04163 0
M  V30 7122 C 668.968 1.85225 -4.66902 0
M  V30 7123 C 670.962 0.824187 -6.32049 0
M  V30 7124 C 668.649 1.40309 -5.94774 0
M  V30 7125 C 669.647 0.889922 -6.77178 0
M  V30 7126 O 669.335 0.447281 -8.02655 0
M  V30 7127 H 669.067 0.356023 -0.574651 0
M  V30 7128 H 671.621 0.475598 -1.99818 0
M  V30 7129 H 669.851 2.98946 -2.45292 0
M  V30 7130 H 671.54 2.88237 -2.85787 0
M  V30 7131 H 672.306 1.21244 -4.69601 0
M  V30 7132 H 668.185 2.24111 -4.02859 0
M  V30 7133 H 671.729 0.422958 -6.96317 0
M  V30 7134 H 667.626 1.45693 -6.28843 0
M  V30 7135 H 668.394 0.569768 -8.16514 0
M  V30 7136 N 671.057 1.43213 0.657864 0
M  V30 7137 C 671.99 1.42456 1.78273 0
M  V30 7138 C 672.968 0.286598 1.60054 0
M  V30 7139 O 674.152 0.479467 1.823 0
M  V30 7140 C 671.279 1.23169 3.15511 0
M  V30 7141 C 670.325 2.40181 3.52442 0
M  V30 7142 S 671.158 4.02729 3.52944 0
M  V30 7143 C 672.314 3.85816 4.92846 0
M  V30 7144 H 672.547 2.37642 1.78644 0
M  V30 7145 H 670.08 1.30188 0.830084 0
M  V30 7146 H 672.038 1.12728 3.94719 0
M  V30 7147 H 670.699 0.295398 3.12708 0
M  V30 7148 H 669.892 2.22478 4.52239 0
M  V30 7149 H 669.494 2.47224 2.80636 0
M  V30 7150 H 671.786 3.47853 5.81381 0
M  V30 7151 H 672.729 4.85348 5.15599 0
M  V30 7152 H 673.137 3.18361 4.66162 0
M  V30 7153 N 672.536 -0.895792 1.29666 0
M  V30 7154 C 673.466 -2.01673 1.17688 0
M  V30 7155 C 674.447 -1.69955 0.0701317 0
M  V30 7156 O 675.632 -1.9258 0.250289 0
M  V30 7157 C 672.762 -3.36568 0.856681 0
M  V30 7158 C 671.716 -3.82509 1.92017 0
M  V30 7159 C 671.042 -5.14574 1.4532 0
M  V30 7160 C 672.342 -4.02409 3.32963 0
M  V30 7161 H 674.036 -2.11953 2.11463 0
M  V30 7162 H 671.582 -1.01839 1.01807 0
M  V30 7163 H 673.535 -4.14498 0.759577 0
M  V30 7164 H 672.259 -3.26391 -0.116763 0
M  V30 7165 H 670.918 -3.068 2.00673 0
M  V30 7166 H 670.566 -5.00815 0.468325 0
M  V30 7167 H 670.266 -5.46283 2.16447 0
M  V30 7168 H 671.79 -5.9504 1.36968 0
M  V30 7169 H 673.204 -4.70808 3.27127 0
M  V30 7170 H 671.601 -4.45478 4.02082 0
M  V30 7171 H 672.671 -3.06616 3.75652 0
M  V30 7172 N 674.014 -1.12206 -1.10668 0
M  V30 7173 C 674.924 -0.800686 -2.20513 0
M  V30 7174 C 675.94 0.209512 -1.72734 0
M  V30 7175 O 677.116 0.043705 -2.01353 0
M  V30 7176 C 674.181 -0.257353 -3.45744 0
M  V30 7177 C 673.242 -1.32718 -4.0827 0
M  V30 7178 C 672.475 -0.809674 -5.27522 0
M  V30 7179 O 672.698 0.35742 -5.69279 0
M  V30 7180 O 671.632 -1.57816 -5.80842 0
M  V30 7181 H 675.458 -1.71807 -2.50432 0
M  V30 7182 H 673.043 -0.898546 -1.19359 0
M  V30 7183 H 674.925 0.0408849 -4.2138 0
M  V30 7184 H 673.6 0.632627 -3.17458 0
M  V30 7185 H 672.507 -1.67855 -3.34329 0
M  V30 7186 H 673.84 -2.19083 -4.40753 0
M  V30 7187 N 675.492 1.28418 -0.913599 0
M  V30 7188 C 676.439 2.27301 -0.400373 0
M  V30 7189 C 677.409 1.57582 0.52509 0
M  V30 7190 O 678.594 1.85482 0.447318 0
M  V30 7191 C 675.734 3.43284 0.35361 0
M  V30 7192 C 674.847 4.27752 -0.604341 0
M  V30 7193 C 673.982 5.30934 0.168075 0
M  V30 7194 C 673.021 6.07065 -0.783499 0
M  V30 7195 N 672.158 7.02086 -0.0446112 0
M  V30 7196 H 676.998 2.70579 -1.24865 0
M  V30 7197 H 674.535 1.33067 -0.627028 0
M  V30 7198 H 676.493 4.09322 0.806945 0
M  V30 7199 H 675.123 3.00997 1.16623 0
M  V30 7200 H 674.175 3.61759 -1.17621 0
M  V30 7201 H 675.487 4.80682 -1.33216 0
M  V30 7202 H 674.641 6.02855 0.681979 0
M  V30 7203 H 673.38 4.78771 0.928947 0
M  V30 7204 H 672.385 5.33995 -1.30878 0
M  V30 7205 H 673.61 6.61317 -1.54392 0
M  V30 7206 H 671.556 6.52273 0.698272 0
M  V30 7207 H 671.473 7.52637 -0.712258 0
M  V30 7208 H 672.741 7.78205 0.449102 0
M  V30 7209 N 676.97 0.677563 1.42291 0
M  V30 7210 C 678.216 0.209962 2.02313 0
M  V30 7211 C 678.571 -1.1714 1.52631 0
M  V30 7212 O 677.864 -1.7756 0.719938 0
M  V30 7213 C 678.058 0.187229 3.56909 0
M  V30 7214 C 677.887 1.56484 4.21595 0
M  V30 7215 C 676.657 2.16329 4.56651 0
M  V30 7216 C 678.855 2.50805 4.49 0
M  V30 7217 N 676.837 3.46842 5.06531 0
M  V30 7218 C 678.208 3.65976 5.00461 0
M  V30 7219 C 680.263 2.493 4.30992 0
M  V30 7220 C 678.966 4.79899 5.35807 0
M  V30 7221 C 680.992 3.62322 4.67415 0
M  V30 7222 C 680.354 4.76221 5.19031 0
M  V30 7223 H 676.453 0.121815 0.772454 0
M  V30 7224 H 679.037 0.891148 1.73109 0
M  V30 7225 H 677.208 -0.46338 3.85626 0
M  V30 7226 H 678.94 -0.293512 4.03634 0
M  V30 7227 H 675.695 1.6879 4.42501 0
M  V30 7228 H 676.119 4.13694 5.35898 0
M  V30 7229 H 680.761 1.62467 3.90339 0
M  V30 7230 H 678.479 5.67406 5.75392 0
M  V30 7231 H 682.065 3.62388 4.55155 0
M  V30 7232 H 680.945 5.62228 5.46689 0
M  V30 7233 N 678.448 -1.51871 0.421078 0
M  V30 7234 C 679.864 -1.59435 0.0725398 0
M  V30 7235 C 680.064 -1.43315 -1.41644 0
M  V30 7236 O 679.12 -1.26614 -2.18461 0
M  V30 7237 C 680.433 -2.9509 0.578132 0
M  V30 7238 C 681.981 -3.08356 0.537149 0
M  V30 7239 C 682.456 -4.4651 1.01945 0
M  V30 7240 N 683.947 -4.52784 0.976758 0
M  V30 7241 C 684.682 -5.57976 1.32099 0
M  V30 7242 N 684.178 -6.70664 1.73727 0
M  V30 7243 N 685.971 -5.48248 1.2402 0
M  V30 7244 H 678.122 -1.60595 1.39007 0
M  V30 7245 H 680.385 -0.756138 0.571803 0
M  V30 7246 H 680.091 -3.12205 1.61929 0
M  V30 7247 H 679.965 -3.772 -0.00578374 0
M  V30 7248 H 682.352 -2.90919 -0.494991 0
M  V30 7249 H 682.433 -2.28125 1.15727 0
M  V30 7250 H 682.077 -4.64692 2.04997 0
M  V30 7251 H 682.007 -5.25256 0.376023 0
M  V30 7252 H 684.498 -3.71898 0.670851 0
M  V30 7253 H 684.811 -7.46932 1.98274 0
M  V30 7254 H 683.156 -6.71914 1.77641 0
M  V30 7255 H 686.347 -4.59095 0.913756 0
M  V30 7256 H 686.52 -6.30119 1.51176 0
M  V30 7257 N 679.926 -0.151884 -1.56866 0
M  V30 7258 C 681.172 0.492327 -1.97352 0
M  V30 7259 C 681.527 1.62156 -1.03553 0
M  V30 7260 O 680.82 1.91467 -0.0714872 0
M  V30 7261 C 681.014 1.04074 -3.41911 0
M  V30 7262 C 680.843 -0.0338306 -4.49687 0
M  V30 7263 C 679.613 -0.476914 -5.03044 0
M  V30 7264 C 681.811 -0.827105 -5.07606 0
M  V30 7265 N 679.793 -1.53382 -5.9443 0
M  V30 7266 C 681.164 -1.73439 -5.95247 0
M  V30 7267 C 683.219 -0.874351 -4.90163 0
M  V30 7268 C 681.922 -2.68488 -6.67313 0
M  V30 7269 C 683.948 -1.81269 -5.62935 0
M  V30 7270 C 683.31 -2.70749 -6.50288 0
M  V30 7271 H 679.409 0.148822 -0.767708 0
M  V30 7272 H 681.993 -0.247615 -1.93119 0
M  V30 7273 H 680.164 1.75027 -3.46728 0
M  V30 7274 H 681.896 1.65197 -3.69448 0
M  V30 7275 H 678.651 -0.0782493 -4.73535 0
M  V30 7276 H 679.075 -2.06217 -6.44828 0
M  V30 7277 H 683.717 -0.196628 -4.22343 0
M  V30 7278 H 681.435 -3.37257 -7.34359 0
M  V30 7279 H 685.021 -1.85511 -5.51432 0
M  V30 7280 H 683.901 -3.42175 -7.0561 0
M  V30 7281 N 681.404 1.57128 0.121893 0
M  V30 7282 C 682.337 1.95327 1.17995 0
M  V30 7283 C 683.315 0.822524 1.40262 0
M  V30 7284 O 684.499 1.08044 1.54463 0
M  V30 7285 C 681.626 2.24699 2.53432 0
M  V30 7286 C 680.672 3.47263 2.4761 0
M  V30 7287 S 681.505 4.99951 1.91857 0
M  V30 7288 C 682.661 5.32473 3.28973 0
M  V30 7289 H 682.894 2.84765 0.854182 0
M  V30 7290 H 680.427 1.50864 0.328534 0
M  V30 7291 H 682.385 2.423 3.31362 0
M  V30 7292 H 681.046 1.3588 2.83188 0
M  V30 7293 H 680.239 3.65171 3.4737 0
M  V30 7294 H 679.841 3.29034 1.778 0
M  V30 7295 H 682.133 5.27478 4.25175 0
M  V30 7296 H 683.076 6.33732 3.15895 0
M  V30 7297 H 683.484 4.59952 3.27268 0
M  V30 7298 N 682.882 -0.391992 1.52647 0
M  V30 7299 C 684.128 -1.139 1.67793 0
M  V30 7300 C 684.461 -1.89711 0.41514 0
M  V30 7301 O 683.736 -1.85431 -0.586979 0
M  V30 7302 C 684.019 -2.11966 2.91105 0
M  V30 7303 C 683.872 -1.39939 4.27478 0
M  V30 7304 C 685.191 -3.1243 3.09961 0
M  V30 7305 H 682.31 -0.412707 0.610608 0
M  V30 7306 H 684.952 -0.422725 1.85238 0
M  V30 7307 H 683.102 -2.73048 2.76364 0
M  V30 7308 H 684.774 -0.818439 4.53982 0
M  V30 7309 H 683.017 -0.701246 4.28095 0
M  V30 7310 H 683.688 -2.1158 5.09841 0
M  V30 7311 H 686.164 -2.61435 3.23714 0
M  V30 7312 H 685.04 -3.78294 3.97725 0
M  V30 7313 H 685.301 -3.81127 2.24042 0
M  V30 7314 N 684.36 -1.4356 -0.65026 0
M  V30 7315 C 685.607 -1.45333 -1.41012 0
M  V30 7316 C 685.935 -0.0787282 -1.94341 0
M  V30 7317 O 685.19 0.916715 -1.72901 0
M  V30 7318 C 685.489 -2.44528 -2.60654 0
M  V30 7319 C 685.155 -3.90331 -2.25727 0
M  V30 7320 C 683.817 -4.3004 -2.15914 0
M  V30 7321 C 686.169 -4.822 -1.97821 0
M  V30 7322 C 683.497 -5.59568 -1.76354 0
M  V30 7323 C 685.849 -6.12095 -1.59759 0
M  V30 7324 C 684.513 -6.50778 -1.48473 0
M  V30 7325 H 683.783 -0.531813 -0.516 0
M  V30 7326 H 686.43 -1.76657 -0.739219 0
M  V30 7327 H 684.735 -2.06619 -3.3289 0
M  V30 7328 H 686.432 -2.43155 -3.18868 0
M  V30 7329 H 683.022 -3.58905 -2.34276 0
M  V30 7330 H 687.206 -4.5229 -2.04322 0
M  V30 7331 H 682.462 -5.88376 -1.66205 0
M  V30 7332 H 686.636 -6.82751 -1.37198 0
M  V30 7333 H 684.263 -7.5105 -1.17591 0
M  V30 7334 N 685.838 0.888903 -1.30139 0
M  V30 7335 C 686.785 1.99422 -1.16188 0
M  V30 7336 C 687.755 1.66017 -0.0523869 0
M  V30 7337 O 688.94 1.89506 -0.221864 0
M  V30 7338 C 686.08 3.34325 -0.855612 0
M  V30 7339 C 685.193 3.80445 -2.0466 0
M  V30 7340 C 684.328 5.03975 -1.67876 0
M  V30 7341 C 683.367 5.42492 -2.83493 0
M  V30 7342 N 682.504 6.57206 -2.47032 0
M  V30 7343 H 687.344 2.10687 -2.10749 0
M  V30 7344 H 684.881 1.03165 -1.04859 0
M  V30 7345 H 686.839 4.11968 -0.658681 0
M  V30 7346 H 685.469 3.22756 0.0531155 0
M  V30 7347 H 684.521 2.98745 -2.3549 0
M  V30 7348 H 685.833 4.04933 -2.91257 0
M  V30 7349 H 684.987 5.89232 -1.44535 0
M  V30 7350 H 683.726 4.8135 -0.784431 0
M  V30 7351 H 682.731 4.55764 -3.07505 0
M  V30 7352 H 683.956 5.67093 -3.73607 0
M  V30 7353 H 681.902 6.36164 -1.601 0
M  V30 7354 H 681.819 6.81543 -3.27161 0
M  V30 7355 H 683.087 7.45704 -2.27038 0
M  V30 7356 N 687.317 1.12792 1.10072 0
M  V30 7357 C 688.565 0.883796 1.81751 0
M  V30 7358 C 688.886 -0.591891 1.858 0
M  V30 7359 O 688.156 -1.43017 1.33876 0
M  V30 7360 H 686.736 0.323978 0.673088 0
M  V30 7361 H 689.398 1.42314 1.33164 0
M  V30 7362 H 688.494 1.26863 2.85153 0
M  V30 7363 N 688.795 -1.27931 0.920396 0
M  V30 7364 C 689.705 -2.30824 0.419212 0
M  V30 7365 C 690.721 -1.66767 -0.496461 0
M  V30 7366 O 691.897 -1.97763 -0.38104 0
M  V30 7367 C 688.962 -3.45158 -0.326601 0
M  V30 7368 C 688.023 -4.24754 0.623098 0
M  V30 7369 C 687.256 -5.33629 -0.0872172 0
M  V30 7370 O 687.479 -5.55204 -1.30784 0
M  V30 7371 O 686.413 -5.99091 0.580875 0
M  V30 7372 H 690.239 -2.75716 1.27337 0
M  V30 7373 H 687.824 -1.32747 0.685465 0
M  V30 7374 H 689.706 -4.14716 -0.747559 0
M  V30 7375 H 688.381 -3.02336 -1.15648 0
M  V30 7376 H 687.288 -3.57759 1.09359 0
M  V30 7377 H 688.621 -4.71272 1.41998 0
M  V30 7378 N 690.273 -0.685099 -1.4193 0
M  V30 7379 C 691.522 -0.208816 -2.00616 0
M  V30 7380 C 691.835 1.19506 -1.54847 0
M  V30 7381 O 693.041 1.76826 -2.06021 0
M  V30 7382 C 691.497 -0.322446 -3.58453 0
M  V30 7383 C 691.105 -1.73102 -4.13206 0
M  V30 7384 C 692.849 0.0945979 -4.24395 0
M  V30 7385 C 690.756 -1.79687 -5.63442 0
M  V30 7386 H 689.686 -0.0743092 -0.750329 0
M  V30 7387 H 692.337 -0.851778 -1.62533 0
M  V30 7388 H 690.719 0.388588 -3.94089 0
M  V30 7389 H 691.893 -2.46997 -3.8901 0
M  V30 7390 H 690.208 -2.09682 -3.59753 0
M  V30 7391 H 692.805 0.0656937 -5.3466 0
M  V30 7392 H 693.148 1.1316 -4.00625 0
M  V30 7393 H 693.681 -0.56579 -3.93756 0
M  V30 7394 H 690.42 -2.81404 -5.92024 0
M  V30 7395 H 689.94 -1.10162 -5.89597 0
M  V30 7396 H 691.619 -1.55498 -6.28036 0
M  V30 7397 N 691.751 1.51645 -0.429126 0
M  V30 7398 C 693.162 1.86665 0.0359003 0
M  V30 7399 C 693.513 1.34677 1.42676 0
M  V30 7400 O 692.638 0.694195 2.04963 0
M  V30 7401 C 693.233 3.38724 0.0719221 0
M  V30 7402 C 691.792 3.7331 0.481336 0
M  V30 7403 C 690.939 2.75313 -0.331329 0
M  V30 7404 H 693.89 1.44987 -0.645333 0
M  V30 7405 H 693.911 3.7011 0.883118 0
M  V30 7406 H 693.423 3.76532 -0.940495 0
M  V30 7407 H 691.524 3.41088 1.49966 0
M  V30 7408 H 691.637 4.78631 0.211837 0
M  V30 7409 H 690.001 2.53839 0.209204 0
M  V30 7410 H 690.784 3.15963 -1.34247 0
M  V30 7411 N 693.229 0.160201 1.56784 0
M  V30 7412 C 694.176 -0.774416 2.1742 0
M  V30 7413 C 695.146 -1.23483 1.11091 0
M  V30 7414 O 696.331 -1.30499 1.39193 0
M  V30 7415 C 693.471 -2.00283 2.81035 0
M  V30 7416 C 692.584 -1.58701 4.01793 0
M  V30 7417 C 691.719 -2.76824 4.53367 0
M  V30 7418 C 690.758 -2.31679 5.66561 0
M  V30 7419 N 689.895 -3.42856 6.12694 0
M  V30 7420 H 694.735 -0.250542 2.96945 0
M  V30 7421 H 692.272 -0.111943 1.46673 0
M  V30 7422 H 694.23 -2.72316 3.16069 0
M  V30 7423 H 692.86 -2.5006 2.04132 0
M  V30 7424 H 691.912 -0.76384 3.72652 0
M  V30 7425 H 693.224 -1.21555 4.83762 0
M  V30 7426 H 692.378 -3.57029 4.90525 0
M  V30 7427 H 691.117 -3.17223 3.70433 0
M  V30 7428 H 690.122 -1.49917 5.28966 0
M  V30 7429 H 691.347 -1.9235 6.5129 0
M  V30 7430 H 689.293 -3.82852 5.32692 0
M  V30 7431 H 689.21 -3.09767 6.89624 0
M  V30 7432 H 690.478 -4.23379 6.545 0
M  V30 7433 N 694.707 -1.5719 -0.113559 0
M  V30 7434 C 695.984 -1.76117 -0.850999 0
M  V30 7435 C 696.364 -0.737085 -1.97814 0
M  V30 7436 O 695.712 0.237942 -2.27258 0
M  V30 7437 C 695.922 -3.21298 -1.36266 0
M  V30 7438 C 697.27 -3.83955 -1.81283 0
M  V30 7439 O 698.294 -3.24934 -1.45933 0
M  V30 7440 O 697.153 -4.87707 -2.46585 0
M  V30 7441 H 694.247 -0.721308 -0.404529 0
M  V30 7442 H 696.793 -1.69423 -0.0968756 0
M  V30 7443 H 695.565 -3.87355 -0.554235 0
M  V30 7444 H 695.188 -3.32552 -2.17933 0
M  V30 7445 N 696.185 0.383891 -1.52853 0
M  V30 7446 C 697.117 1.48889 -1.74255 0
M  V30 7447 C 698.13 1.50405 -0.623063 0
M  V30 7448 O 699.319 1.54215 -0.898887 0
M  V30 7449 C 696.419 2.87721 -1.79081 0
M  V30 7450 C 695.592 3.10111 -3.08464 0
M  V30 7451 C 694.651 4.28954 -3.0477 0
M  V30 7452 O 693.677 4.25012 -3.78621 0
M  V30 7453 N 694.879 5.35411 -2.24311 0
M  V30 7454 H 697.644 1.30915 -2.69595 0
M  V30 7455 H 695.205 0.573454 -1.51404 0
M  V30 7456 H 697.197 3.65333 -1.7411 0
M  V30 7457 H 695.767 2.99029 -0.911052 0
M  V30 7458 H 694.987 2.20319 -3.26884 0
M  V30 7459 H 696.275 3.21928 -3.94005 0
M  V30 7460 H 695.673 5.41471 -1.63787 0
M  V30 7461 H 694.23 6.1167 -2.25175 0
M  V30 7462 N 697.663 1.43903 0.642637 0
M  V30 7463 C 698.909 1.47291 1.40275 0
M  V30 7464 C 699.264 0.0996024 1.92142 0
M  V30 7465 O 698.557 -0.883423 1.70018 0
M  V30 7466 C 698.751 2.45907 2.59354 0
M  V30 7467 C 698.58 3.92691 2.19143 0
M  V30 7468 C 697.35 4.6097 2.06966 0
M  V30 7469 C 699.548 4.82231 1.78768 0
M  V30 7470 N 697.53 5.9263 1.60196 0
M  V30 7471 C 698.901 6.03246 1.43159 0
M  V30 7472 C 700.956 4.69397 1.66045 0
M  V30 7473 C 699.659 7.12851 0.961014 0
M  V30 7474 C 701.685 5.79016 1.20392 0
M  V30 7475 C 701.047 6.99164 0.857271 0
M  V30 7476 H 697.146 0.594055 0.50855 0
M  V30 7477 H 699.73 1.80153 0.738434 0
M  V30 7478 H 697.901 2.15054 3.23429 0
M  V30 7479 H 699.633 2.39665 3.26102 0
M  V30 7480 H 696.388 4.15622 2.27058 0
M  V30 7481 H 696.812 6.62547 1.39143 0
M  V30 7482 H 701.454 3.76954 1.91482 0
M  V30 7483 H 699.172 8.05113 0.694148 0
M  V30 7484 H 702.758 5.71109 1.11023 0
M  V30 7485 H 701.638 7.82544 0.509408 0
M  V30 7486 N 699.141 -0.881989 1.30609 0
M  V30 7487 C 700.074 -1.99066 1.11571 0
M  V30 7488 C 701.052 -1.62584 0.022516 0
M  V30 7489 O 702.236 -1.87671 0.176644 0
M  V30 7490 C 699.363 -3.3134 0.702237 0
M  V30 7491 C 698.409 -3.86807 1.79673 0
M  V30 7492 S 699.242 -4.13735 3.39976 0
M  V30 7493 C 700.398 -5.49024 3.00538 0
M  V30 7494 H 700.631 -2.1491 2.05429 0
M  V30 7495 H 698.164 -1.03074 1.14957 0
M  V30 7496 H 700.122 -4.07796 0.470415 0
M  V30 7497 H 698.783 -3.13349 -0.217034 0
M  V30 7498 H 697.976 -4.82397 1.45977 0
M  V30 7499 H 697.578 -3.17102 1.98298 0
M  V30 7500 H 699.87 -6.30208 2.48684 0
M  V30 7501 H 700.813 -5.8766 3.95046 0
M  V30 7502 H 701.221 -5.11726 2.3832 0
M  V30 7503 N 700.619 -1.13374 -1.09472 0
M  V30 7504 C 701.566 -0.810682 -2.16094 0
M  V30 7505 C 702.536 0.227003 -1.64541 0
M  V30 7506 O 703.721 0.0993538 -1.90541 0
M  V30 7507 C 700.861 -0.282336 -3.43943 0
M  V30 7508 C 699.974 -1.37902 -4.09398 0
M  V30 7509 C 699.109 -0.809066 -5.25002 0
M  V30 7510 C 698.148 -1.88419 -5.82379 0
M  V30 7511 N 697.285 -1.33221 -6.89345 0
M  V30 7512 H 702.125 -1.72397 -2.43071 0
M  V30 7513 H 699.662 -0.860564 -1.19301 0
M  V30 7514 H 701.62 0.0421189 -4.17179 0
M  V30 7515 H 700.25 0.594083 -3.17286 0
M  V30 7516 H 699.302 -1.82008 -3.34032 0
M  V30 7517 H 700.614 -2.19161 -4.48074 0
M  V30 7518 H 699.768 -0.435867 -6.05132 0
M  V30 7519 H 698.507 0.0346058 -4.87688 0
M  V30 7520 H 697.512 -2.26646 -5.00911 0
M  V30 7521 H 698.737 -2.73125 -6.21755 0
M  V30 7522 H 696.683 -0.510535 -6.5401 0
M  V30 7523 H 696.6 -2.08129 -7.26786 0
M  V30 7524 H 697.868 -0.986565 -7.73232 0
M  V30 7525 N 702.098 1.27442 -0.927168 0
M  V30 7526 C 703.045 2.26863 -0.424459 0
M  V30 7527 C 704.015 1.5813 0.508346 0
M  V30 7528 O 705.2 1.85946 0.42762 0
M  V30 7529 C 702.34 3.43639 0.31718 0
M  V30 7530 C 701.453 4.27087 -0.649675 0
M  V30 7531 C 700.588 5.31082 0.111753 0
M  V30 7532 C 699.627 6.062 -0.847843 0
M  V30 7533 N 698.764 7.01999 -0.119074 0
M  V30 7534 H 703.604 2.69239 -1.27728 0
M  V30 7535 H 701.141 1.32394 -0.641106 0
M  V30 7536 H 703.099 4.10155 0.763486 0
M  V30 7537 H 701.729 3.02217 1.13424 0
M  V30 7538 H 700.781 3.60491 -1.21451 0
M  V30 7539 H 702.093 4.79242 -1.38307 0
M  V30 7540 H 701.247 6.03544 0.618 0
M  V30 7541 H 699.986 4.7973 0.878114 0
M  V30 7542 H 698.991 5.32577 -1.36534 0
M  V30 7543 H 700.216 6.59642 -1.61398 0
M  V30 7544 H 698.162 6.52977 0.629051 0
M  V30 7545 H 698.079 7.5184 -0.792046 0
M  V30 7546 H 699.347 7.78638 0.366537 0
M  V30 7547 N 703.576 0.692616 1.41565 0
M  V30 7548 C 704.822 0.231408 2.02079 0
M  V30 7549 C 705.177 -1.15514 1.53864 0
M  V30 7550 O 704.47 -1.76786 0.73873 0
M  V30 7551 C 704.664 0.225073 3.56691 0
M  V30 7552 C 704.493 1.60947 4.19912 0
M  V30 7553 C 703.263 2.2116 4.54331 0
M  V30 7554 C 705.461 2.55553 4.46315 0
M  V30 7555 N 703.443 3.52195 5.02824 0
M  V30 7556 C 704.814 3.71263 4.96552 0
M  V30 7557 C 706.869 2.53857 4.28323 0
M  V30 7558 C 705.572 4.85555 5.30687 0
M  V30 7559 C 707.598 3.67259 4.63546 0
M  V30 7560 C 706.96 4.81699 5.13951 0
M  V30 7561 H 703.059 0.130001 0.771119 0
M  V30 7562 H 705.643 0.909459 1.72154 0
M  V30 7563 H 703.814 -0.422453 3.86096 0
M  V30 7564 H 705.546 -0.250685 4.03923 0
M  V30 7565 H 702.301 1.73474 4.40685 0
M  V30 7566 H 702.725 4.19354 5.3148 0
M  V30 7567 H 707.367 1.66598 3.88594 0
M  V30 7568 H 705.085 5.73477 5.69341 0
M  V30 7569 H 708.671 3.67195 4.51286 0
M  V30 7570 H 707.551 5.67995 5.40695 0
M  V30 7571 N 705.054 -1.51416 0.437162 0
M  V30 7572 C 706.3 -2.03035 -0.121818 0
M  V30 7573 C 706.655 -1.31551 -1.404 0
M  V30 7574 O 705.948 -0.421623 -1.86903 0
M  V30 7575 C 706.142 -3.55203 -0.39564 0
M  V30 7576 C 705.971 -4.4143 0.858452 0
M  V30 7577 C 704.741 -4.85751 1.39192 0
M  V30 7578 C 706.939 -4.83808 1.74454 0
M  V30 7579 N 704.921 -5.5619 2.59857 0
M  V30 7580 C 706.292 -5.53312 2.79724 0
M  V30 7581 C 708.347 -4.65795 1.75897 0
M  V30 7582 C 707.05 -6.06713 3.86383 0
M  V30 7583 C 709.076 -5.20112 2.81492 0
M  V30 7584 C 708.438 -5.89562 3.85482 0
M  V30 7585 H 704.537 -0.781981 -0.00541671 0
M  V30 7586 H 707.121 -1.85296 0.597792 0
M  V30 7587 H 705.292 -3.72958 -1.08429 0
M  V30 7588 H 707.024 -3.93489 -0.945963 0
M  V30 7589 H 703.779 -4.64058 0.945879 0
M  V30 7590 H 704.203 -5.96037 3.21044 0
M  V30 7591 H 708.845 -4.11562 0.968306 0
M  V30 7592 H 706.563 -6.6 4.66288 0
M  V30 7593 H 710.149 -5.08026 2.83551 0
M  V30 7594 H 709.029 -6.30838 4.65847 0
M  V30 7595 N 706.532 -0.168513 -1.56696 0
M  V30 7596 C 707.442 0.775435 -2.21414 0
M  V30 7597 C 708.458 1.25529 -1.20492 0
M  V30 7598 O 709.634 1.30801 -1.53144 0
M  V30 7599 C 706.699 1.9886 -2.83999 0
M  V30 7600 C 705.76 1.5559 -4.00113 0
M  V30 7601 C 704.993 2.71124 -4.59704 0
M  V30 7602 O 705.216 3.87917 -4.18182 0
M  V30 7603 O 704.15 2.4536 -5.4962 0
M  V30 7604 H 707.976 0.254416 -3.02632 0
M  V30 7605 H 705.561 0.0595507 -1.49281 0
M  V30 7606 H 707.443 2.69816 -3.23693 0
M  V30 7607 H 706.118 2.49874 -2.05779 0
M  V30 7608 H 705.025 0.815924 -3.65094 0
M  V30 7609 H 706.358 1.09271 -4.79917 0
M  V30 7610 N 708.01 1.57248 0.105221 0
M  V30 7611 C 708.943 1.96567 1.15916 0
M  V30 7612 C 709.921 0.837355 1.39381 0
M  V30 7613 O 711.105 1.09676 1.53308 0
M  V30 7614 C 708.232 2.27375 2.51035 0
M  V30 7615 C 707.278 3.49869 2.43913 0
M  V30 7616 S 708.111 5.01958 1.86543 0
M  V30 7617 C 709.267 5.35932 3.23307 0
M  V30 7618 H 709.5 2.85655 0.823931 0
M  V30 7619 H 707.033 1.51204 0.312515 0
M  V30 7620 H 708.991 2.45801 3.28774 0
M  V30 7621 H 707.652 1.38876 2.81731 0
M  V30 7622 H 706.845 3.68835 3.43477 0
M  V30 7623 H 706.447 3.30901 1.743 0
M  V30 7624 H 708.739 5.31958 4.19556 0
M  V30 7625 H 709.682 6.37047 3.09155 0
M  V30 7626 H 710.09 4.63397 3.22372 0
M  V30 7627 N 709.488 -0.375779 1.53054 0
M  V30 7628 C 710.435 -1.45978 1.78771 0
M  V30 7629 C 711.405 -1.53625 0.631552 0
M  V30 7630 O 712.59 -1.69674 0.872667 0
M  V30 7631 C 709.73 -2.8305 1.97425 0
M  V30 7632 C 708.843 -2.84451 3.25134 0
M  V30 7633 C 707.978 -4.13034 3.34031 0
M  V30 7634 C 707.017 -4.08536 4.55812 0
M  V30 7635 N 706.154 -5.2875 4.61918 0
M  V30 7636 H 710.994 -1.23349 2.71273 0
M  V30 7637 H 708.531 -0.598147 1.3439 0
M  V30 7638 H 710.489 -3.62666 2.06225 0
M  V30 7639 H 709.119 -3.04101 1.0827 0
M  V30 7640 H 708.171 -1.97127 3.25338 0
M  V30 7641 H 709.483 -2.76998 4.14818 0
M  V30 7642 H 708.637 -5.0106 3.42087 0
M  V30 7643 H 707.376 -4.23226 2.42345 0
M  V30 7644 H 706.381 -3.18897 4.47867 0
M  V30 7645 H 707.606 -3.99955 5.48828 0
M  V30 7646 H 705.552 -5.39547 3.73129 0
M  V30 7647 H 705.469 -5.23426 5.45492 0
M  V30 7648 H 706.737 -6.18637 4.74245 0
M  V30 7649 N 710.966 -1.44241 -0.634997 0
M  V30 7650 C 712.382 -1.28043 -0.952742 0
M  V30 7651 C 712.582 -0.21338 -2.00367 0
M  V30 7652 O 711.638 0.402042 -2.49279 0
M  V30 7653 C 712.951 -2.65076 -1.41968 0
M  V30 7654 C 714.499 -2.72755 -1.53537 0
M  V30 7655 C 714.974 -4.10249 -2.03616 0
M  V30 7656 N 716.465 -4.12406 -2.10892 0
M  V30 7657 C 717.2 -5.15641 -2.50803 0
M  V30 7658 N 716.696 -6.29239 -2.89879 0
M  V30 7659 N 718.489 -5.02995 -2.50903 0
M  V30 7660 H 710.64 -2.12315 0.060098 0
M  V30 7661 H 712.903 -0.947326 -0.0357325 0
M  V30 7662 H 712.609 -3.44213 -0.721804 0
M  V30 7663 H 712.483 -2.91704 -2.39141 0
M  V30 7664 H 714.87 -1.93939 -2.22422 0
M  V30 7665 H 714.951 -2.49872 -0.547496 0
M  V30 7666 H 714.595 -4.8954 -1.35327 0
M  V30 7667 H 714.525 -4.30507 -3.03268 0
M  V30 7668 H 717.016 -3.30417 -1.83393 0
M  V30 7669 H 717.329 -7.03827 -3.19135 0
M  V30 7670 H 715.674 -6.32683 -2.8764 0
M  V30 7671 H 718.865 -4.13306 -2.19763 0
M  V30 7672 H 719.038 -5.83574 -2.81683 0
M  V30 7673 N 712.444 0.87505 -1.31075 0
M  V30 7674 C 713.354 2.01441 -1.20244 0
M  V30 7675 C 714.37 1.73584 -0.120227 0
M  V30 7676 O 715.546 1.98559 -0.337063 0
M  V30 7677 C 712.611 3.34675 -0.905199 0
M  V30 7678 C 711.672 3.75889 -2.0738 0
M  V30 7679 C 710.905 5.02764 -1.79064 0
M  V30 7680 O 711.128 5.65795 -0.723318 0
M  V30 7681 O 710.062 5.40623 -2.64594 0
M  V30 7682 H 713.888 2.13509 -2.1598 0
M  V30 7683 H 711.473 1.00257 -1.10765 0
M  V30 7684 H 713.355 4.1458 -0.755057 0
M  V30 7685 H 712.03 3.23692 0.0221695 0
M  V30 7686 H 710.937 2.96645 -2.27931 0
M  V30 7687 H 712.27 3.91489 -2.98324 0
M  V30 7688 N 713.922 1.13953 1.08869 0
M  V30 7689 C 715.171 0.899431 1.80536 0
M  V30 7690 C 715.484 -0.575781 1.86933 0
M  V30 7691 O 716.69 -0.932988 2.54966 0
M  V30 7692 C 715.146 1.55963 3.24351 0
M  V30 7693 C 714.754 3.07077 3.26202 0
M  V30 7694 C 716.498 1.40046 4.00733 0
M  V30 7695 C 714.405 3.65955 4.64576 0
M  V30 7696 H 713.335 0.332849 0.676556 0
M  V30 7697 H 715.986 1.3679 1.22314 0
M  V30 7698 H 714.368 1.01883 3.82669 0
M  V30 7699 H 715.542 3.67785 2.77617 0
M  V30 7700 H 713.857 3.22576 2.63312 0
M  V30 7701 H 716.454 1.81441 5.02974 0
M  V30 7702 H 716.797 0.345993 4.1486 0
M  V30 7703 H 717.33 1.91137 3.48872 0
M  V30 7704 H 714.069 4.71234 4.55652 0
M  V30 7705 H 713.589 3.10027 5.13462 0
M  V30 7706 H 715.268 3.65968 5.33551 0
M  V30 7707 N 715.4 -1.26948 0.933913 0
M  V30 7708 C 716.646 -1.94374 0.57848 0
M  V30 7709 C 716.979 -1.73166 -0.879048 0
M  V30 7710 O 716.254 -1.06438 -1.62792 0
M  V30 7711 C 716.537 -3.4834 0.912739 0
M  V30 7712 C 716.39 -3.78866 2.42448 0
M  V30 7713 C 717.709 -4.38062 0.423003 0
M  V30 7714 H 714.828 -0.705959 0.211639 0
M  V30 7715 H 717.47 -1.49951 1.16682 0
M  V30 7716 H 715.62 -3.86309 0.412058 0
M  V30 7717 H 717.292 -3.50654 2.99733 0
M  V30 7718 H 715.535 -3.25198 2.87104 0
M  V30 7719 H 716.206 -4.86458 2.60887 0
M  V30 7720 H 718.682 -4.0728 0.852191 0
M  V30 7721 H 717.558 -5.44599 0.685776 0
M  V30 7722 H 717.819 -4.36886 -0.676994 0
M  V30 7723 N 716.879 -0.700114 -1.41195 0
M  V30 7724 C 718.127 -0.232546 -2.00758 0
M  V30 7725 C 718.448 1.1734 -1.55745 0
M  V30 7726 O 717.718 1.79262 -0.790058 0
M  V30 7727 H 716.298 -0.0829845 -0.742376 0
M  V30 7728 H 718.96 -0.902289 -1.72756 0
M  V30 7729 H 718.056 -0.253521 -3.11069 0
M  V30 7730 N 718.357 1.51182 -0.445186 0
M  V30 7731 C 719.603 2.02452 0.11882 0
M  V30 7732 C 719.936 1.32824 1.41673 0
M  V30 7733 O 719.211 0.445637 1.89326 0
M  V30 7734 C 719.494 3.5859 0.329475 0
M  V30 7735 C 719.347 4.38823 -0.987638 0
M  V30 7736 C 720.666 4.26241 1.09575 0
M  V30 7737 H 717.785 0.735819 0.0417092 0
M  V30 7738 H 720.427 1.80747 -0.585718 0
M  V30 7739 H 718.577 3.77214 0.9296 0
M  V30 7740 H 720.249 4.3183 -1.62235 0
M  V30 7741 H 718.492 4.03594 -1.59041 0
M  V30 7742 H 719.163 5.46257 -0.794192 0
M  V30 7743 H 721.639 4.11934 0.587328 0
M  V30 7744 H 720.515 5.35354 1.21191 0
M  V30 7745 H 720.776 3.87635 2.12584 0
M  V30 7746 N 719.835 0.176821 1.56605 0
M  V30 7747 C 721.081 -0.467406 1.9734 0
M  V30 7748 C 721.414 -1.62523 1.06301 0
M  V30 7749 O 720.689 -1.94182 0.11125 0
M  V30 7750 C 720.972 -0.945106 3.47476 0
M  V30 7751 C 720.825 0.213273 4.49294 0
M  V30 7752 C 722.144 -1.8169 4.00845 0
M  V30 7753 H 719.263 -0.168426 0.717497 0
M  V30 7754 H 721.905 0.264065 1.88156 0
M  V30 7755 H 720.055 -1.56841 3.55434 0
M  V30 7756 H 721.727 0.850508 4.53392 0
M  V30 7757 H 719.97 0.867918 4.25029 0
M  V30 7758 H 720.641 -0.163187 5.51759 0
M  V30 7759 H 723.117 -1.29139 3.95553 0
M  V30 7760 H 721.993 -2.12015 5.06301 0
M  V30 7761 H 722.254 -2.76463 3.44994 0
M  V30 7762 N 721.313 -1.57302 -0.09688 0
M  V30 7763 C 722.223 -2.05258 -1.13606 0
M  V30 7764 C 723.239 -0.977137 -1.43972 0
M  V30 7765 O 724.415 -1.29018 -1.54649 0
M  V30 7766 C 721.48 -2.46593 -2.43706 0
M  V30 7767 C 720.541 -3.68322 -2.20538 0
M  V30 7768 C 719.774 -4.07676 -3.44435 0
M  V30 7769 O 719.997 -3.47141 -4.52603 0
M  V30 7770 O 718.931 -5.00641 -3.34129 0
M  V30 7771 H 722.757 -2.94069 -0.758752 0
M  V30 7772 H 720.342 -1.46164 -0.309263 0
M  V30 7773 H 722.224 -2.73814 -3.20318 0
M  V30 7774 H 720.899 -1.6092 -2.80867 0
M  V30 7775 H 719.806 -3.4622 -1.41713 0
M  V30 7776 H 721.139 -4.54769 -1.88271 0
M  V30 7777 N 722.791 0.367657 -1.53252 0
M  V30 7778 C 724.202 0.944563 -1.61043 0
M  V30 7779 C 724.553 1.90325 -0.476546 0
M  V30 7780 O 723.678 2.12721 0.397333 0
M  V30 7781 C 724.273 1.71992 -2.91898 0
M  V30 7782 C 722.832 2.2462 -3.02031 0
M  V30 7783 C 721.979 1.05799 -2.56324 0
M  V30 7784 H 724.93 0.146516 -1.58022 0
M  V30 7785 H 724.951 2.58095 -2.79584 0
M  V30 7786 H 724.463 1.02192 -3.74404 0
M  V30 7787 H 722.564 2.97668 -2.24108 0
M  V30 7788 H 722.677 2.52644 -4.07073 0
M  V30 7789 H 721.041 1.42435 -2.1115 0
M  V30 7790 H 721.824 0.375008 -3.41246 0
M  V30 7791 N 724.269 1.44576 0.627338 0
M  V30 7792 C 725.515 1.47777 1.38888 0
M  V30 7793 C 725.848 0.111406 1.9388 0
M  V30 7794 O 725.123 -0.87149 1.73883 0
M  V30 7795 C 725.406 2.54119 2.55138 0
M  V30 7796 C 725.259 4.00128 2.0547 0
M  V30 7797 C 726.578 2.56929 3.57317 0
M  V30 7798 H 723.697 0.538048 0.50366 0
M  V30 7799 H 726.339 1.76277 0.708978 0
M  V30 7800 H 724.489 2.29948 3.13139 0
M  V30 7801 H 726.161 4.35444 1.5227 0
M  V30 7802 H 724.404 4.11724 1.36623 0
M  V30 7803 H 725.075 4.7019 2.89181 0
M  V30 7804 H 727.551 2.78536 3.09122 0
M  V30 7805 H 726.427 3.33234 4.36173 0
M  V30 7806 H 726.688 1.6127 4.11636 0
M  V30 7807 N 725.747 -0.868086 1.31537 0
M  V30 7808 C 727.158 -1.437 1.19195 0
M  V30 7809 C 727.509 -1.95169 -0.200842 0
M  V30 7810 O 726.634 -1.86432 -1.09872 0
M  V30 7811 C 727.229 -2.612 2.15778 0
M  V30 7812 C 725.788 -3.1413 2.07363 0
M  V30 7813 C 724.935 -1.86845 2.049 0
M  V30 7814 H 727.886 -0.676457 1.43561 0
M  V30 7815 H 727.907 -3.37948 1.74847 0
M  V30 7816 H 727.419 -2.23709 3.17137 0
M  V30 7817 H 725.52 -3.56238 1.09204 0
M  V30 7818 H 725.633 -3.76285 2.96557 0
M  V30 7819 H 723.997 -2.05886 1.49943 0
M  V30 7820 H 724.78 -1.51589 3.08019 0
M  V30 7821 N 727.225 -1.14528 -1.08264 0
M  V30 7822 C 728.175 -0.802141 -2.13424 0
M  V30 7823 C 729.159 0.209362 -1.59532 0
M  V30 7824 O 730.351 0.0114859 -1.76996 0
M  V30 7825 C 727.48 -0.282938 -3.42132 0
M  V30 7826 C 726.566 -1.32405 -4.02902 0
M  V30 7827 N 726.957 -2.52861 -4.38058 0
M  V30 7828 C 725.255 -1.17462 -4.30254 0
M  V30 7829 C 725.956 -3.1952 -4.86088 0
M  V30 7830 N 724.932 -2.46921 -4.84284 0
M  V30 7831 H 728.734 -1.71843 -2.38426 0
M  V30 7832 H 726.248 -1.02936 -1.2561 0
M  V30 7833 H 728.245 -0.0188053 -4.16896 0
M  V30 7834 H 726.905 0.627533 -3.18578 0
M  V30 7835 H 727.916 -2.90078 -4.2904 0
M  V30 7836 H 724.593 -0.323283 -4.16246 0
M  V30 7837 H 725.983 -4.2223 -5.22658 0
M  V30 7838 N 728.703 1.26451 -0.940633 0
M  V30 7839 C 729.98 1.88947 -0.505811 0
M  V30 7840 C 730.36 1.85011 1.01657 0
M  V30 7841 O 729.708 1.30406 1.87634 0
M  V30 7842 C 729.918 3.32304 -1.06654 0
M  V30 7843 C 731.266 4.09153 -1.13486 0
M  V30 7844 O 732.29 3.41371 -1.01708 0
M  V30 7845 O 731.149 5.30369 -1.31797 0
M  V30 7846 H 728.243 0.810422 -0.164759 0
M  V30 7847 H 730.789 1.34625 -1.03316 0
M  V30 7848 H 729.561 3.29527 -2.11015 0
M  V30 7849 H 729.184 3.94164 -0.521603 0
M  V30 7850 N 730.181 0.707592 1.40822 0
M  V30 7851 C 731.091 0.0507246 2.34545 0
M  V30 7852 C 732.107 -0.752727 1.56876 0
M  V30 7853 O 733.283 -0.687524 1.89302 0
M  V30 7854 C 730.348 -0.865731 3.35717 0
M  V30 7855 C 729.409 -0.0531313 4.29267 0
M  V30 7856 C 728.642 -0.925939 5.25606 0
M  V30 7857 O 728.865 -2.16531 5.27703 0
M  V30 7858 O 727.799 -0.369194 6.00767 0
M  V30 7859 H 731.625 0.823587 2.9232 0
M  V30 7860 H 729.21 0.46801 1.4188 0
M  V30 7861 H 731.092 -1.39091 3.97783 0
M  V30 7862 H 729.767 -1.61788 2.80368 0
M  V30 7863 H 728.674 0.516931 3.70511 0
M  V30 7864 H 730.007 0.660617 4.87747 0
M  V30 7865 N 731.66 -1.50943 0.453197 0
M  V30 7866 C 732.888 -2.06628 -0.106135 0
M  V30 7867 C 733.303 -1.31901 -1.35084 0
M  V30 7868 O 732.66 -0.383074 -1.78434 0
M  V30 7869 C 732.711 -3.5914 -0.412368 0
M  V30 7870 O 732.432 -4.31047 0.782948 0
M  V30 7871 C 733.933 -4.31391 -1.02064 0
M  V30 7872 H 731.153 -0.670999 -0.000885896 0
M  V30 7873 H 733.697 -1.94331 0.63684 0
M  V30 7874 H 731.852 -3.71299 -1.10526 0
M  V30 7875 H 732.266 -5.21948 0.516736 0
M  V30 7876 H 733.74 -5.39135 -1.1848 0
M  V30 7877 H 734.217 -3.90714 -2.00598 0
M  V30 7878 H 734.823 -4.23716 -0.366664 0
M  V30 7879 N 733.138 -0.185124 -1.56509 0
M  V30 7880 C 734.368 0.461469 -2.0138 0
M  V30 7881 C 734.776 1.56417 -1.06445 0
M  V30 7882 O 734.119 1.83603 -0.0597515 0
M  V30 7883 C 734.181 1.08731 -3.42663 0
M  V30 7884 C 733.845 0.124581 -4.5683 0
M  V30 7885 C 734.842 -0.662295 -5.15664 0
M  V30 7886 C 732.527 0.0163947 -5.02297 0
M  V30 7887 C 734.521 -1.54442 -6.18406 0
M  V30 7888 C 732.208 -0.869301 -6.04885 0
M  V30 7889 C 733.206 -1.64828 -6.62813 0
M  V30 7890 O 732.894 -2.51915 -7.63409 0
M  V30 7891 H 732.626 0.1212 -0.665046 0
M  V30 7892 H 735.18 -0.288119 -2.03369 0
M  V30 7893 H 733.41 1.8853 -3.37629 0
M  V30 7894 H 735.099 1.63753 -3.71403 0
M  V30 7895 H 735.865 -0.588963 -4.81411 0
M  V30 7896 H 731.744 0.61253 -4.56913 0
M  V30 7897 H 735.288 -2.15289 -6.63548 0
M  V30 7898 H 731.185 -0.943786 -6.38563 0
M  V30 7899 H 731.953 -2.45584 -7.80789 0
M  V30 7900 N 734.616 1.57351 0.0885366 0
M  V30 7901 C 735.856 1.88248 0.796362 0
M  V30 7902 C 736.22 0.776915 1.75579 0
M  V30 7903 O 737.421 0.968485 2.50747 0
M  V30 7904 C 735.692 3.24385 1.50031 0
M  V30 7905 S 737.251 3.76991 2.24551 0
M  V30 7906 H 734.069 0.659697 0.265181 0
M  V30 7907 H 736.671 1.95428 0.0531843 0
M  V30 7908 H 735.375 4.02764 0.788 0
M  V30 7909 H 734.906 3.20361 2.28325 0
M  V30 7910 H 736.921 3.50933 3.508 0
M  V30 7911 N 736.094 -0.359525 1.53444 0
M  V30 7912 C 737.371 -1.11756 1.6053 0
M  V30 7913 C 737.751 -2.06949 0.416587 0
M  V30 7914 O 737.099 -2.20681 -0.592628 0
M  V30 7915 C 737.309 -1.85133 2.95849 0
M  V30 7916 C 738.657 -2.3945 3.50641 0
M  V30 7917 O 739.681 -1.95251 2.97918 0
M  V30 7918 O 738.54 -3.20266 4.42823 0
M  V30 7919 H 735.634 -0.513005 0.648656 0
M  V30 7920 H 738.18 -0.362301 1.65787 0
M  V30 7921 H 736.952 -1.15694 3.73806 0
M  V30 7922 H 736.575 -2.67554 2.9411 0
M  V30 7923 N 737.572 -1.44907 -0.619662 0
M  V30 7924 C 738.983 -1.42905 -1.20146 0
M  V30 7925 C 739.334 -0.150341 -1.95623 0
M  V30 7926 O 738.459 0.748732 -2.03034 0
M  V30 7927 C 739.054 -2.58889 -2.18545 0
M  V30 7928 C 737.613 -2.60046 -2.72127 0
M  V30 7929 C 736.76 -2.3493 -1.4732 0
M  V30 7930 H 739.711 -1.53321 -0.409666 0
M  V30 7931 H 739.732 -2.32298 -3.0136 0
M  V30 7932 H 739.244 -3.51941 -1.63583 0
M  V30 7933 H 737.345 -1.70968 -3.3106 0
M  V30 7934 H 737.458 -3.58893 -3.17384 0
M  V30 7935 H 735.822 -1.84248 -1.75855 0
M  V30 7936 H 736.605 -3.3011 -0.942442 0
M  V30 7937 N 739.05 0.861098 -1.31996 0
M  V30 7938 C 740.013 1.95068 -1.20338 0
M  V30 7939 C 741.013 1.60289 -0.128114 0
M  V30 7940 O 742.203 1.70048 -0.378044 0
M  V30 7941 C 739.335 3.30153 -0.849205 0
M  V30 7942 H 740.528 2.06833 -2.17164 0
M  V30 7943 H 738.081 1.05049 -1.15734 0
M  V30 7944 H 738.816 3.24087 0.117508 0
M  V30 7945 H 738.601 3.56771 -1.62655 0
M  V30 7946 H 740.091 4.10025 -0.791782 0
M  V30 7947 N 740.528 1.15101 1.07655 0
M  V30 7948 C 741.753 0.948177 1.84457 0
M  V30 7949 C 742.178 -0.498432 1.81376 0
M  V30 7950 O 741.536 -1.35509 1.20445 0
M  V30 7951 C 741.584 1.46318 3.29581 0
M  V30 7952 O 740.688 0.660342 4.07079 0
M  V30 7953 H 740.029 0.338428 0.571281 0
M  V30 7954 H 742.559 1.5301 1.35828 0
M  V30 7955 H 742.569 1.47468 3.80417 0
M  V30 7956 H 741.244 2.51635 3.31138 0
M  V30 7957 H 739.821 0.718216 3.65918 0
M  V30 7958 N 742.006 -1.2595 0.947325 0
M  V30 7959 C 742.936 -2.28521 0.479604 0
M  V30 7960 C 743.917 -1.63469 -0.470293 0
M  V30 7961 O 745.102 -1.90627 -0.370824 0
M  V30 7962 C 742.232 -3.46397 -0.250289 0
M  V30 7963 C 741.186 -4.23578 0.613643 0
M  V30 7964 C 740.512 -5.34131 -0.246568 0
M  V30 7965 C 741.812 -4.86979 1.88809 0
M  V30 7966 H 743.506 -2.67895 1.33688 0
M  V30 7967 H 741.052 -1.28783 0.644274 0
M  V30 7968 H 743.005 -4.17269 -0.588576 0
M  V30 7969 H 741.729 -3.05993 -1.14175 0
M  V30 7970 H 740.388 -3.54478 0.93491 0
M  V30 7971 H 740.036 -4.89968 -1.13756 0
M  V30 7972 H 739.736 -5.86683 0.328123 0
M  V30 7973 H 741.26 -6.07839 -0.579986 0
M  V30 7974 H 742.674 -5.50034 1.61666 0
M  V30 7975 H 741.071 -5.49675 2.40784 0
M  V30 7976 H 742.141 -4.09575 2.5957 0
M  V30 7977 N 743.484 -0.715051 -1.40445 0
M  V30 7978 C 744.731 -0.254328 -2.00897 0
M  V30 7979 C 745.059 1.15228 -1.56693 0
M  V30 7980 O 744.314 1.7958 -0.777786 0
M  V30 7981 C 744.613 -0.281791 -3.56287 0
M  V30 7982 C 744.279 -1.63862 -4.20071 0
M  V30 7983 C 742.941 -2.01003 -4.37208 0
M  V30 7984 C 745.293 -2.53039 -4.55654 0
M  V30 7985 C 742.621 -3.26869 -4.8721 0
M  V30 7986 C 744.973 -3.78256 -5.07055 0
M  V30 7987 C 743.637 -4.15515 -5.22401 0
M  V30 7988 H 742.907 -0.0930652 -0.735133 0
M  V30 7989 H 745.554 -0.917977 -1.68064 0
M  V30 7990 H 743.859 0.465428 -3.89026 0
M  V30 7991 H 745.556 0.0925158 -4.00893 0
M  V30 7992 H 742.146 -1.33979 -4.07121 0
M  V30 7993 H 746.33 -2.2562 -4.42051 0
M  V30 7994 H 741.586 -3.55706 -4.97276 0
M  V30 7995 H 745.76 -4.47528 -5.33565 0
M  V30 7996 H 743.387 -5.13114 -5.60909 0
M  V30 7997 N 744.962 1.50701 -0.461195 0
M  V30 7998 C 745.912 2.25195 0.35653 0
M  V30 7999 C 746.896 1.2838 0.96992 0
M  V30 8000 O 748.088 1.53338 0.884108 0
M  V30 8001 C 745.217 3.11471 1.44364 0
M  V30 8002 C 744.303 4.15729 0.83847 0
M  V30 8003 N 744.694 5.05788 -0.0353198 0
M  V30 8004 C 742.992 4.32133 1.1035 0
M  V30 8005 C 743.693 5.80472 -0.37774 0
M  V30 8006 N 742.669 5.43049 0.24463 0
M  V30 8007 H 746.471 2.92188 -0.316746 0
M  V30 8008 H 743.985 1.60059 -0.274725 0
M  V30 8009 H 745.982 3.63436 2.04255 0
M  V30 8010 H 744.642 2.46025 2.11901 0
M  V30 8011 H 745.653 5.16326 -0.403465 0
M  V30 8012 H 742.33 3.77908 1.77458 0
M  V30 8013 H 743.72 6.62996 -1.09024 0
M  V30 8014 N 746.441 0.193421 1.56409 0
M  V30 8015 C 747.687 -0.446449 1.97825 0
M  V30 8016 C 748.02 -1.61386 1.08019 0
M  V30 8017 O 747.295 -1.94053 0.131839 0
M  V30 8018 C 747.578 -0.908199 3.48459 0
M  V30 8019 C 747.431 0.260914 4.49043 0
M  V30 8020 C 748.75 -1.77428 4.0275 0
M  V30 8021 H 745.869 -0.160807 0.719243 0
M  V30 8022 H 748.511 0.284006 1.87865 0
M  V30 8023 H 746.661 -1.53062 3.57077 0
M  V30 8024 H 748.333 0.898548 4.52464 0
M  V30 8025 H 746.576 0.912949 4.24085 0
M  V30 8026 H 747.247 -0.104657 5.51901 0
M  V30 8027 H 749.723 -1.24936 3.96901 0
M  V30 8028 H 748.599 -2.06633 5.08521 0
M  V30 8029 H 748.86 -2.72788 3.47907 0
M  V30 8030 N 747.919 -1.57396 -0.0801906 0
M  V30 8031 C 749.144 -1.91437 -0.797909 0
M  V30 8032 C 749.569 -0.789075 -1.70749 0
M  V30 8033 O 748.927 0.25857 -1.79447 0
M  V30 8034 C 748.975 -3.24402 -1.57467 0
M  V30 8035 O 748.079 -3.13043 -2.68473 0
M  V30 8036 H 747.42 -0.627109 -0.218243 0
M  V30 8037 H 749.95 -2.04537 -0.050949 0
M  V30 8038 H 749.96 -3.58072 -1.95571 0
M  V30 8039 H 748.635 -4.05884 -0.907229 0
M  V30 8040 H 747.212 -2.90915 -2.33287 0
M  V30 8041 N 749.397 0.351382 -1.53633 0
M  V30 8042 C 750.345 1.45142 -1.8176 0
M  V30 8043 C 751.339 1.54819 -0.687571 0
M  V30 8044 O 752.545 1.57536 -0.870772 0
M  V30 8045 H 748.92 0.483789 -0.575719 0
M  V30 8046 H 750.891 1.1863 -2.73806 0
M  V30 8047 C 749.64 2.81779 -2.03706 0
M  V30 8048 H 748.963 2.75097 -2.90107 0
M  V30 8049 H 750.403 3.5789 -2.27356 0
M  V30 8050 C 748.862 3.26762 -0.820271 0
M  V30 8051 O 749.392 4.01697 -0.0158603 0
M  V30 8052 N 747.598 2.83472 -0.639699 0
M  V30 8053 H 747.145 2.22655 -1.29547 0
M  V30 8054 H 747.103 3.13924 0.172995 0
M  V30 8055 N 750.875 1.45233 0.611969 0
M  V30 8056 C 752.152 1.39495 1.37115 0
M  V30 8057 C 752.532 0.0633303 2.11005 0
M  V30 8058 O 751.88 -0.954617 2.07604 0
M  V30 8059 C 752.09 2.60579 2.32163 0
M  V30 8060 C 753.438 3.05477 2.94905 0
M  V30 8061 O 754.462 2.60921 2.42485 0
M  V30 8062 O 753.321 3.82787 3.90047 0
M  V30 8063 H 750.415 0.55335 0.614599 0
M  V30 8064 H 752.961 1.57355 0.635423 0
M  V30 8065 H 751.733 3.49085 1.76793 0
M  V30 8066 H 751.356 2.45031 3.13122 0
M  V30 8067 N 752.353 -0.854086 1.3245 0
M  V30 8068 C 753.583 -1.63836 1.25862 0
M  V30 8069 C 753.991 -1.88383 -0.175588 0
M  V30 8070 O 753.334 -1.45353 -1.1233 0
M  V30 8071 C 753.396 -3.02068 1.94923 0
M  V30 8072 C 753.06 -3.0056 3.44257 0
M  V30 8073 C 754.057 -2.77368 4.39731 0
M  V30 8074 C 751.742 -3.21177 3.862 0
M  V30 8075 C 753.736 -2.74797 5.75122 0
M  V30 8076 C 751.423 -3.18234 5.217 0
M  V30 8077 C 752.421 -2.95072 6.15972 0
M  V30 8078 O 752.109 -2.92003 7.48992 0
M  V30 8079 H 751.841 -0.517007 0.435523 0
M  V30 8080 H 754.395 -1.07314 1.75137 0
M  V30 8081 H 752.625 -3.60382 1.40219 0
M  V30 8082 H 754.314 -3.62791 1.82037 0
M  V30 8083 H 755.08 -2.61205 4.08653 0
M  V30 8084 H 750.959 -3.38231 3.13243 0
M  V30 8085 H 754.503 -2.56638 6.48678 0
M  V30 8086 H 750.4 -3.33941 5.52407 0
M  V30 8087 H 751.168 -3.07953 7.58358 0
M  V30 8088 N 753.831 -1.1567 -1.07043 0
M  V30 8089 C 755.056 -0.957946 -1.83952 0
M  V30 8090 C 755.481 0.488807 -1.81638 0
M  V30 8091 O 754.839 1.34869 -1.21162 0
M  V30 8092 C 754.887 -1.48064 -3.288 0
M  V30 8093 O 753.991 -0.681921 -4.06723 0
M  V30 8094 H 753.332 -0.341453 -0.569479 0
M  V30 8095 H 755.862 -1.53728 -1.35015 0
M  V30 8096 H 755.872 -1.49484 -3.7963 0
M  V30 8097 H 754.547 -2.53388 -3.29799 0
M  V30 8098 H 753.124 -0.737612 -3.65532 0
M  V30 8099 N 755.309 1.25446 -0.953992 0
M  V30 8100 C 756.556 1.93143 -0.608429 0
M  V30 8101 C 756.884 1.74727 0.854451 0
M  V30 8102 O 756.139 1.0855 1.62836 0
M  V30 8103 C 756.438 3.45555 -0.912496 0
M  V30 8104 C 756.104 3.84126 -2.36131 0
M  V30 8105 C 754.766 3.94367 -2.75732 0
M  V30 8106 C 757.118 4.0324 -3.30223 0
M  V30 8107 C 754.446 4.21127 -4.08496 0
M  V30 8108 C 756.798 4.31493 -4.62598 0
M  V30 8109 C 755.462 4.3995 -5.01996 0
M  V30 8110 H 754.732 0.706762 -0.22264 0
M  V30 8111 H 757.379 1.49005 -1.20291 0
M  V30 8112 H 755.684 3.91091 -0.235618 0
M  V30 8113 H 757.381 3.9612 -0.623714 0
M  V30 8114 H 753.971 3.76711 -2.04418 0
M  V30 8115 H 758.155 3.94744 -3.00817 0
M  V30 8116 H 753.411 4.2589 -4.38665 0
M  V30 8117 H 757.585 4.45227 -5.35486 0
M  V30 8118 H 755.212 4.60439 -6.04896 0
M  V30 8119 N 756.787 0.722489 1.40064 0
M  V30 8120 C 758.036 0.261932 1.99992 0
M  V30 8121 C 758.349 -1.15358 1.57961 0
M  V30 8122 O 759.555 -1.71301 2.10637 0
M  V30 8123 C 758.011 0.41737 3.57472 0
M  V30 8124 C 757.619 1.83997 4.08472 0
M  V30 8125 C 759.363 0.0179561 4.24496 0
M  V30 8126 C 757.27 1.94563 5.5848 0
M  V30 8127 H 756.2 0.0941768 0.748095 0
M  V30 8128 H 758.851 0.894572 1.60218 0
M  V30 8129 H 757.233 -0.283965 3.94981 0
M  V30 8130 H 758.407 2.57224 3.82325 0
M  V30 8131 H 756.722 2.19147 3.54067 0
M  V30 8132 H 759.319 0.076085 5.34646 0
M  V30 8133 H 759.662 -1.02498 4.03485 0
M  V30 8134 H 760.195 0.669988 3.92117 0
M  V30 8135 H 756.934 2.97001 5.84355 0
M  V30 8136 H 756.454 1.25756 5.86469 0
M  V30 8137 H 758.133 1.72095 6.23692 0
M  V30 8138 N 758.265 -1.50454 0.469181 0
M  V30 8139 C 759.681 -1.59124 0.123226 0
M  V30 8140 C 759.881 -1.47749 -1.37013 0
M  V30 8141 O 758.937 -1.335 -2.14322 0
M  V30 8142 C 760.25 -2.93101 0.67172 0
M  V30 8143 C 761.798 -3.06491 0.634978 0
M  V30 8144 C 762.273 -4.43041 1.16098 0
M  V30 8145 N 763.764 -4.49448 1.12031 0
M  V30 8146 C 764.499 -5.53491 1.49784 0
M  V30 8147 N 763.995 -6.64798 1.94976 0
M  V30 8148 N 765.788 -5.44025 1.41399 0
M  V30 8149 H 757.939 -1.56091 1.44046 0
M  V30 8150 H 760.202 -0.737564 0.59557 0
M  V30 8151 H 759.908 -3.06895 1.7178 0
M  V30 8152 H 759.782 -3.77027 0.114222 0
M  V30 8153 H 762.169 -2.92346 -0.402187 0
M  V30 8154 H 762.25 -2.24328 1.22926 0
M  V30 8155 H 761.894 -4.57935 2.19677 0
M  V30 8156 H 761.824 -5.23794 0.542939 0
M  V30 8157 H 764.315 -3.69575 0.788828 0
M  V30 8158 H 764.628 -7.40246 2.21936 0
M  V30 8159 H 762.973 -6.65923 1.98927 0
M  V30 8160 H 766.164 -4.55955 1.05935 0
M  V30 8161 H 766.337 -6.2499 1.71147 0
M  V30 8162 N 759.743 -0.201713 -1.56304 0
M  V30 8163 C 760.973 0.440084 -2.01858 0
M  V30 8164 C 761.381 1.55279 -1.08098 0
M  V30 8165 O 760.724 1.83529 -0.0792216 0
M  V30 8166 C 760.786 1.05091 -3.43797 0
M  V30 8167 C 760.45 0.0761208 -4.56937 0
M  V30 8168 C 761.447 -0.716951 -5.14933 0
M  V30 8169 C 759.132 -0.0368815 -5.02286 0
M  V30 8170 C 761.126 -1.60993 -6.16733 0
M  V30 8171 C 758.813 -0.933409 -6.03929 0
M  V30 8172 C 759.811 -1.71849 -6.61027 0
M  V30 8173 O 759.499 -2.59998 -7.60695 0
M  V30 8174 H 759.231 0.114139 -0.666294 0
M  V30 8175 H 761.785 -0.309672 -2.03052 0
M  V30 8176 H 760.015 1.84938 -3.3961 0
M  V30 8177 H 761.704 1.59804 -3.73118 0
M  V30 8178 H 762.47 -0.63999 -4.80759 0
M  V30 8179 H 758.349 0.564034 -4.57537 0
M  V30 8180 H 761.893 -2.22315 -6.61227 0
M  V30 8181 H 757.79 -1.01146 -6.37526 0
M  V30 8182 H 758.558 -2.53851 -7.7814 0
M  V30 8183 N 761.222 1.57436 0.0718424 0
M  V30 8184 C 762.452 1.91196 0.782795 0
M  V30 8185 C 762.86 0.795927 1.71644 0
M  V30 8186 O 762.203 -0.239604 1.82131 0
M  V30 8187 C 762.265 3.20421 1.63005 0
M  V30 8188 C 761.929 4.48724 0.865782 0
M  V30 8189 C 762.926 5.19571 0.185051 0
M  V30 8190 C 760.611 4.95345 0.832971 0
M  V30 8191 C 762.605 6.3529 -0.518264 0
M  V30 8192 C 760.292 6.1097 0.125884 0
M  V30 8193 C 761.29 6.80794 -0.548533 0
M  V30 8194 O 760.978 7.94213 -1.24423 0
M  V30 8195 H 760.71 0.636486 0.227731 0
M  V30 8196 H 763.264 2.05348 0.0464187 0
M  V30 8197 H 761.494 3.02478 2.40923 0
M  V30 8198 H 763.183 3.39831 2.21968 0
M  V30 8199 H 763.949 4.8458 0.201707 0
M  V30 8200 H 759.828 4.40871 1.34737 0
M  V30 8201 H 763.372 6.89725 -1.04523 0
M  V30 8202 H 759.269 6.45411 0.107155 0
M  V30 8203 H 760.037 8.10331 -1.1535 0
M  V30 8204 N 762.7 -0.34323 1.53817 0
M  V30 8205 C 763.928 -1.10348 1.75017 0
M  V30 8206 C 764.343 -1.82345 0.489475 0
M  V30 8207 O 763.7 -1.74362 -0.538886 0
M  V30 8208 C 763.751 -2.11672 2.93048 0
M  V30 8209 O 763.472 -1.42603 4.14241 0
M  V30 8210 C 764.973 -3.0007 3.26301 0
M  V30 8211 H 762.193 -0.329056 0.584776 0
M  V30 8212 H 764.737 -0.395339 2.00642 0
M  V30 8213 H 762.892 -2.78051 2.69753 0
M  V30 8214 H 763.306 -2.10294 4.80496 0
M  V30 8215 H 764.78 -3.67101 4.12239 0
M  V30 8216 H 765.257 -3.66105 2.42618 0
M  V30 8217 H 765.863 -2.3928 3.51604 0
M  V30 8218 N 764.178 -1.45556 -0.604258 0
M  V30 8219 C 765.594 -1.30035 -0.925368 0
M  V30 8220 C 765.794 -0.255833 -1.99869 0
M  V30 8221 O 764.85 0.349076 -2.50075 0
M  V30 8222 C 766.163 -2.68028 -1.36314 0
M  V30 8223 C 767.711 -2.75951 -1.47717 0
M  V30 8224 C 768.186 -4.14476 -1.94868 0
M  V30 8225 N 769.677 -4.16787 -2.02097 0
M  V30 8226 C 770.412 -5.20845 -2.39809 0
M  V30 8227 N 769.908 -6.35246 -2.76467 0
M  V30 8228 N 771.701 -5.08204 -2.40177 0
M  V30 8229 H 763.852 -2.1214 0.10512 0
M  V30 8230 H 766.115 -0.947871 -0.0156303 0
M  V30 8231 H 765.821 -3.45667 -0.648628 0
M  V30 8232 H 765.695 -2.96711 -2.329 0
M  V30 8233 H 768.082 -1.98613 -2.18258 0
M  V30 8234 H 768.163 -2.50977 -0.494371 0
M  V30 8235 H 767.807 -4.923 -1.24912 0
M  V30 8236 H 767.737 -4.36843 -2.94068 0
M  V30 8237 H 770.228 -3.34233 -1.76343 0
M  V30 8238 H 770.541 -7.10438 -3.04134 0
M  V30 8239 H 768.886 -6.38642 -2.74155 0
M  V30 8240 H 772.077 -4.17874 -2.10947 0
M  V30 8241 H 772.25 -5.89417 -2.69242 0
M  V30 8242 N 765.656 0.84705 -1.32902 0
M  V30 8243 C 766.884 1.63403 -1.26913 0
M  V30 8244 C 767.299 1.88108 0.161483 0
M  V30 8245 O 766.656 1.45546 1.10103 0
M  V30 8246 C 766.707 2.98896 -2.03331 0
M  V30 8247 O 766.428 2.75281 -3.40811 0
M  V30 8248 C 767.929 3.93335 -2.04457 0
M  V30 8249 H 765.149 0.508701 -0.437566 0
M  V30 8250 H 767.693 1.05567 -1.75145 0
M  V30 8251 H 765.848 3.53356 -1.58802 0
M  V30 8252 H 766.262 3.61504 -3.8002 0
M  V30 8253 H 767.736 4.85647 -2.62394 0
M  V30 8254 H 768.213 4.26885 -1.03274 0
M  V30 8255 H 768.819 3.44812 -2.48967 0
M  V30 8256 N 767.134 1.16236 1.06428 0
M  V30 8257 C 768.064 0.890807 2.1584 0
M  V30 8258 C 769.045 -0.162333 1.69324 0
M  V30 8259 O 770.23 -0.0147191 1.94194 0
M  V30 8260 C 767.36 0.389615 3.45108 0
M  V30 8261 C 766.314 1.38051 4.05125 0
M  V30 8262 C 765.64 0.737773 5.29586 0
M  V30 8263 C 766.94 2.74965 4.44062 0
M  V30 8264 H 768.634 1.80577 2.38814 0
M  V30 8265 H 766.18 0.869657 1.14774 0
M  V30 8266 H 768.133 0.187127 4.20984 0
M  V30 8267 H 766.857 -0.560851 3.21748 0
M  V30 8268 H 765.516 1.56952 3.31303 0
M  V30 8269 H 765.164 -0.219135 5.02522 0
M  V30 8270 H 764.864 1.39914 5.70699 0
M  V30 8271 H 766.388 0.545275 6.0816 0
M  V30 8272 H 767.802 2.59855 5.11027 0
M  V30 8273 H 766.199 3.37563 4.96156 0
M  V30 8274 H 767.269 3.30321 3.54987 0
M  V30 8275 N 768.612 -1.24939 0.960631 0
M  V30 8276 C 769.842 -1.96595 0.635123 0
M  V30 8277 C 770.25 -1.71538 -0.798206 0
M  V30 8278 O 769.593 -0.991727 -1.5463 0
M  V30 8279 C 769.655 -3.49994 0.821248 0
M  V30 8280 C 769.319 -3.98738 2.23287 0
M  V30 8281 C 770.316 -4.08965 3.21004 0
M  V30 8282 C 768.001 -4.32247 2.55867 0
M  V30 8283 C 769.995 -4.52025 4.49391 0
M  V30 8284 C 767.682 -4.74991 3.84482 0
M  V30 8285 C 768.68 -4.84844 4.81056 0
M  V30 8286 O 768.368 -5.26638 6.07378 0
M  V30 8287 H 768.1 -0.633265 0.23654 0
M  V30 8288 H 770.654 -1.5991 1.28911 0
M  V30 8289 H 768.884 -3.86543 0.110105 0
M  V30 8290 H 770.573 -4.02859 0.495892 0
M  V30 8291 H 771.339 -3.83302 2.97161 0
M  V30 8292 H 767.218 -4.23801 1.81421 0
M  V30 8293 H 770.762 -4.5963 5.24773 0
M  V30 8294 H 766.659 -5.00101 4.08129 0
M  V30 8295 H 767.427 -5.44807 6.10842 0
M  V30 8296 N 770.09 -0.729906 -1.39679 0
M  V30 8297 C 771.022 -0.0470588 -2.29152 0
M  V30 8298 C 772.035 0.708808 -1.4656 0
M  V30 8299 O 773.224 0.553815 -1.69691 0
M  V30 8300 C 770.324 0.957612 -3.25089 0
M  V30 8301 C 769.497 0.264321 -4.36601 0
M  V30 8302 C 768.556 1.17638 -5.12882 0
M  V30 8303 O 767.582 0.655777 -5.6541 0
M  V30 8304 N 768.784 2.50649 -5.23598 0
M  V30 8305 H 771.549 -0.815364 -2.88395 0
M  V30 8306 H 769.11 -0.578707 -1.51204 0
M  V30 8307 H 771.102 1.57026 -3.72995 0
M  V30 8308 H 769.672 1.62716 -2.66912 0
M  V30 8309 H 768.892 -0.528732 -3.90638 0
M  V30 8310 H 770.18 -0.216344 -5.0834 0
M  V30 8311 H 769.578 2.95427 -4.82431 0
M  V30 8312 H 768.135 3.07022 -5.74961 0
M  V30 8313 N 771.568 1.50203 -0.477153 0
M  V30 8314 C 772.815 2.02358 0.0757385 0
M  V30 8315 C 773.143 1.3587 1.39174 0
M  V30 8316 O 772.398 0.475415 1.89838 0
M  V30 8317 C 772.697 3.56127 0.301325 0
M  V30 8318 C 772.363 4.41126 -0.933725 0
M  V30 8319 C 771.025 4.64075 -1.27233 0
M  V30 8320 C 773.377 4.90737 -1.75576 0
M  V30 8321 C 770.705 5.33878 -2.43292 0
M  V30 8322 C 773.057 5.61816 -2.90768 0
M  V30 8323 C 771.721 5.83016 -3.25036 0
M  V30 8324 H 770.991 0.740482 0.0277147 0
M  V30 8325 H 773.638 1.80754 -0.632467 0
M  V30 8326 H 771.943 3.76279 1.09183 0
M  V30 8327 H 773.64 3.94053 0.743184 0
M  V30 8328 H 770.23 4.23489 -0.659935 0
M  V30 8329 H 774.414 4.72856 -1.50734 0
M  V30 8330 H 769.67 5.48499 -2.70109 0
M  V30 8331 H 773.844 5.99237 -3.54807 0
M  V30 8332 H 771.471 6.36881 -4.15074 0
M  V30 8333 N 773.046 0.209999 1.56195 0
M  V30 8334 C 773.978 -0.736967 2.17029 0
M  V30 8335 C 774.991 -1.16599 1.13616 0
M  V30 8336 O 776.18 -1.09914 1.40646 0
M  V30 8337 C 773.28 -2.00852 2.72969 0
M  V30 8338 C 772.453 -1.73691 4.01435 0
M  V30 8339 C 771.512 -2.85439 4.42053 0
M  V30 8340 O 770.538 -2.54405 5.09183 0
M  V30 8341 N 771.74 -4.14135 4.06783 0
M  V30 8342 H 774.505 -0.216656 2.98916 0
M  V30 8343 H 772.066 0.0285672 1.61875 0
M  V30 8344 H 774.058 -2.74778 2.97118 0
M  V30 8345 H 772.628 -2.43963 1.95451 0
M  V30 8346 H 771.848 -0.834676 3.85262 0
M  V30 8347 H 773.136 -1.52961 4.85263 0
M  V30 8348 H 772.534 -4.42196 3.52816 0
M  V30 8349 H 771.091 -4.84642 4.35851 0
M  V30 8350 N 774.524 -1.57472 -0.0634922 0
M  V30 8351 C 775.771 -1.87654 -0.761066 0
M  V30 8352 C 776.099 -0.802847 -1.77157 0
M  V30 8353 O 775.354 0.200244 -1.94673 0
M  V30 8354 C 775.653 -3.24521 -1.49736 0
M  V30 8355 C 775.319 -4.46532 -0.626065 0
M  V30 8356 C 773.981 -4.7965 -0.385978 0
M  V30 8357 C 776.333 -5.21195 -0.0224001 0
M  V30 8358 C 773.661 -5.84837 0.467118 0
M  V30 8359 C 776.013 -6.27286 0.818198 0
M  V30 8360 C 774.677 -6.58899 1.06808 0
M  V30 8361 H 773.947 -0.686675 -0.278494 0
M  V30 8362 H 776.594 -1.91488 -0.0216348 0
M  V30 8363 H 774.899 -3.16516 -2.30921 0
M  V30 8364 H 776.596 -3.45111 -2.04204 0
M  V30 8365 H 773.186 -4.20618 -0.823325 0
M  V30 8366 H 777.37 -4.95917 -0.194985 0
M  V30 8367 H 772.626 -6.07725 0.669375 0
M  V30 8368 H 776.8 -6.84298 1.29265 0
M  V30 8369 H 774.427 -7.40233 1.73088 0
M  V30 8370 N 776.003 0.335068 -1.53997 0
M  V30 8371 C 776.935 1.4327 -1.78903 0
M  V30 8372 C 777.948 1.48347 -0.670598 0
M  V30 8373 O 779.137 1.51277 -0.947494 0
M  V30 8374 C 776.237 2.81878 -1.88144 0
M  V30 8375 C 775.41 3.00141 -3.18174 0
M  V30 8376 C 774.469 4.19041 -3.18263 0
M  V30 8377 O 773.495 4.12751 -3.9195 0
M  V30 8378 N 774.697 5.28004 -2.41231 0
M  V30 8379 H 777.462 1.22272 -2.73623 0
M  V30 8380 H 775.023 0.524996 -1.53152 0
M  V30 8381 H 777.015 3.59609 -1.85644 0
M  V30 8382 H 775.585 2.9598 -1.00572 0
M  V30 8383 H 774.805 2.09808 -3.33728 0
M  V30 8384 H 776.093 3.0923 -4.04047 0
M  V30 8385 H 775.491 5.35986 -1.8093 0
M  V30 8386 H 774.048 6.04196 -2.44521 0
M  V30 8387 N 777.481 1.45874 0.596531 0
M  V30 8388 C 778.391 1.57947 1.73464 0
M  V30 8389 C 779.407 0.463461 1.67714 0
M  V30 8390 O 780.583 0.725685 1.87872 0
M  V30 8391 C 777.648 1.55348 3.09948 0
M  V30 8392 C 776.709 2.78074 3.27068 0
M  V30 8393 C 775.942 2.75589 4.57041 0
M  V30 8394 O 776.165 1.83545 5.40063 0
M  V30 8395 O 775.099 3.66945 4.77111 0
M  V30 8396 H 778.925 2.54169 1.66228 0
M  V30 8397 H 776.51 1.2851 0.76194 0
M  V30 8398 H 778.392 1.56545 3.91244 0
M  V30 8399 H 777.067 0.622811 3.17652 0
M  V30 8400 H 775.974 2.82435 2.45319 0
M  V30 8401 H 777.307 3.70303 3.24248 0
M  V30 8402 N 778.959 -0.83999 1.33349 0
M  V30 8403 C 779.922 -1.93128 1.23426 0
M  V30 8404 C 780.922 -1.60065 0.153599 0
M  V30 8405 O 782.112 -1.69425 0.405049 0
M  V30 8406 C 779.244 -3.28761 0.901622 0
M  V30 8407 H 780.437 -2.03352 2.20427 0
M  V30 8408 H 777.99 -1.03194 1.17391 0
M  V30 8409 H 778.725 -3.24233 -0.0659337 0
M  V30 8410 H 778.51 -3.54138 1.68311 0
M  V30 8411 H 780 -4.08714 0.856913 0
M  V30 8412 N 780.437 -1.16799 -1.0581 0
M  V30 8413 C 781.367 -0.902241 -2.15364 0
M  V30 8414 C 782.348 0.153351 -1.69407 0
M  V30 8415 O 783.533 0.00442032 -1.94199 0
M  V30 8416 C 780.663 -0.407911 -3.44896 0
M  V30 8417 C 779.617 -1.40197 -4.04387 0
M  V30 8418 C 778.943 -0.765848 -5.29187 0
M  V30 8419 C 780.243 -2.77316 -4.42598 0
M  V30 8420 H 781.937 -1.81841 -2.37853 0
M  V30 8421 H 779.483 -0.875731 -1.14311 0
M  V30 8422 H 781.436 -0.20945 -4.20879 0
M  V30 8423 H 780.16 0.54378 -3.22041 0
M  V30 8424 H 778.819 -1.58707 -3.30466 0
M  V30 8425 H 778.467 0.192482 -5.02632 0
M  V30 8426 H 778.167 -1.42939 -5.69949 0
M  V30 8427 H 779.691 -0.577519 -6.07863 0
M  V30 8428 H 781.105 -2.62561 -5.09642 0
M  V30 8429 H 779.502 -3.4019 -4.94359 0
M  V30 8430 H 780.572 -3.32199 -3.53231 0
M  V30 8431 N 781.915 1.24427 -0.967243 0
M  V30 8432 C 783.155 1.9423 -0.636723 0
M  V30 8433 C 783.519 1.73939 0.812971 0
M  V30 8434 O 784.72 2.37773 1.25369 0
M  V30 8435 C 782.991 3.43105 -1.00067 0
M  V30 8436 S 784.55 4.31728 -0.784633 0
M  V30 8437 H 781.368 0.671527 -0.233607 0
M  V30 8438 H 783.97 1.50806 -1.2441 0
M  V30 8439 H 782.674 3.5538 -2.05264 0
M  V30 8440 H 782.205 3.91521 -0.384054 0
M  V30 8441 H 784.22 4.95046 0.338244 0
M  V30 8442 N 783.393 0.737304 1.3929 0
M  V30 8443 C 784.325 0.0592106 2.29124 0
M  V30 8444 C 785.338 -0.701026 1.46934 0
M  V30 8445 O 786.527 -0.544808 1.69983 0
M  V30 8446 C 783.627 -0.940358 3.25592 0
M  V30 8447 C 782.8 -0.241163 4.36735 0
M  V30 8448 C 781.859 -1.14916 5.13498 0
M  V30 8449 O 780.885 -0.625783 5.6575 0
M  V30 8450 N 782.087 -2.47869 5.2492 0
M  V30 8451 H 784.852 0.830647 2.87959 0
M  V30 8452 H 782.413 0.586718 1.50895 0
M  V30 8453 H 784.405 -1.55046 3.73822 0
M  V30 8454 H 782.975 -1.61299 2.67771 0
M  V30 8455 H 782.195 0.549441 3.90352 0
M  V30 8456 H 783.483 0.243299 5.08218 0
M  V30 8457 H 782.881 -2.92864 4.83991 0
M  V30 8458 H 781.438 -3.03969 5.76581 0
M  V30 8459 N 784.871 -1.49948 0.485112 0
M  V30 8460 C 785.834 -2.27351 -0.290546 0
M  V30 8461 C 786.834 -1.32704 -0.908087 0
M  V30 8462 O 788.024 -1.56007 -0.775085 0
M  V30 8463 C 785.156 -3.10135 -1.41524 0
M  V30 8464 H 786.349 -2.97374 0.388454 0
M  V30 8465 H 783.902 -1.54453 0.239586 0
M  V30 8466 H 784.637 -2.44641 -2.12888 0
M  V30 8467 H 784.422 -3.79705 -0.978074 0
M  V30 8468 H 785.912 -3.68638 -1.96204 0
M  V30 8469 N 786.349 -0.21828 -1.56081 0
M  V30 8470 C 787.312 0.679633 -2.18892 0
M  V30 8471 C 788.312 1.12405 -1.14986 0
M  V30 8472 O 789.502 1.03339 -1.40238 0
M  V30 8473 C 786.634 1.93063 -2.80962 0
M  V30 8474 H 787.827 0.132066 -2.99609 0
M  V30 8475 H 785.38 0.0313374 -1.56269 0
M  V30 8476 H 786.115 2.52015 -2.04106 0
M  V30 8477 H 785.9 1.62046 -3.57048 0
M  V30 8478 H 787.39 2.57043 -3.29118 0
M  V30 8479 N 787.827 1.57504 0.0551401 0
M  V30 8480 C 788.774 2.04825 1.06373 0
M  V30 8481 C 789.744 0.932108 1.37481 0
M  V30 8482 O 790.929 1.20093 1.48265 0
M  V30 8483 C 788.069 2.51091 2.36743 0
M  V30 8484 C 787.182 3.76392 2.12021 0
M  V30 8485 C 786.317 4.11373 3.36074 0
M  V30 8486 C 785.356 5.29666 3.0679 0
M  V30 8487 N 784.493 5.60205 4.2322 0
M  V30 8488 H 789.333 2.90753 0.653216 0
M  V30 8489 H 786.87 1.43776 0.310951 0
M  V30 8490 H 788.828 2.75973 3.12881 0
M  V30 8491 H 787.458 1.68118 2.75565 0
M  V30 8492 H 786.51 3.58751 1.26498 0
M  V30 8493 H 787.822 4.62662 1.86401 0
M  V30 8494 H 786.976 4.37245 4.20597 0
M  V30 8495 H 785.715 3.23704 3.64784 0
M  V30 8496 H 784.72 5.03574 2.20664 0
M  V30 8497 H 785.945 6.18968 2.79385 0
M  V30 8498 H 783.891 4.75495 4.5193 0
M  V30 8499 H 783.808 6.40928 4.00933 0
M  V30 8500 H 785.076 5.90637 5.08692 0
M  V30 8501 N 789.305 -0.326896 1.54172 0
M  V30 8502 C 790.255 -1.40319 1.79707 0
M  V30 8503 C 791.239 -1.47056 0.652938 0
M  V30 8504 O 792.431 -1.51645 0.91284 0
M  V30 8505 C 789.56 -2.77222 2.02491 0
M  V30 8506 C 788.646 -2.74811 3.23016 0
M  V30 8507 N 789.037 -2.42022 4.44138 0
M  V30 8508 C 787.335 -3.05943 3.24522 0
M  V30 8509 C 788.036 -2.48263 5.26061 0
M  V30 8510 N 787.012 -2.84567 4.63166 0
M  V30 8511 H 790.814 -1.13892 2.70935 0
M  V30 8512 H 788.328 -0.53536 1.53322 0
M  V30 8513 H 790.325 -3.54793 2.18923 0
M  V30 8514 H 788.985 -3.04582 1.12515 0
M  V30 8515 H 789.996 -2.14926 4.71197 0
M  V30 8516 H 786.673 -3.38367 2.44569 0
M  V30 8517 H 788.063 -2.2593 6.32776 0
M  V30 8518 N 790.784 -1.46188 -0.588786 0
M  V30 8519 C 791.694 -1.58865 -1.72624 0
M  V30 8520 C 792.71 -0.472348 -1.67466 0
M  V30 8521 O 793.886 -0.735638 -1.87484 0
M  V30 8522 C 790.951 -1.56989 -3.0912 0
M  V30 8523 C 790.012 -2.79804 -3.25589 0
M  V30 8524 C 789.245 -2.78009 -4.55573 0
M  V30 8525 O 789.468 -1.86406 -5.39082 0
M  V30 8526 O 788.402 -3.6947 -4.75159 0
M  V30 8527 H 792.228 -2.55047 -1.64878 0
M  V30 8528 H 789.813 -1.28912 -0.755115 0
M  V30 8529 H 791.695 -1.58618 -3.90408 0
M  V30 8530 H 790.37 -0.639648 -3.17317 0
M  V30 8531 H 789.277 -2.83732 -2.43818 0
M  V30 8532 H 790.61 -3.72017 -3.22279 0
M  V30 8533 N 792.262 0.832906 -1.33792 0
M  V30 8534 C 793.51 1.58539 -1.25338 0
M  V30 8535 C 793.831 1.94175 0.179204 0
M  V30 8536 O 793.101 1.61458 1.10941 0
M  V30 8537 H 791.681 0.58784 -0.460926 0
M  V30 8538 H 794.343 0.995064 -1.67584 0
M  V30 8539 H 793.439 2.51268 -1.85123 0
M  V30 8540 N 793.74 1.17359 1.05189 0
M  V30 8541 C 795.151 0.96793 1.5965 0
M  V30 8542 C 795.502 -0.485355 1.90102 0
M  V30 8543 O 794.627 -1.36066 1.6827 0
M  V30 8544 C 795.222 1.75068 2.90063 0
M  V30 8545 C 793.781 1.58969 3.41183 0
M  V30 8546 C 792.928 1.75231 2.14917 0
M  V30 8547 H 795.879 1.32067 0.880001 0
M  V30 8548 H 795.9 1.23308 3.59966 0
M  V30 8549 H 795.412 2.80835 2.67868 0
M  V30 8550 H 793.513 0.556906 3.68415 0
M  V30 8551 H 793.626 2.38067 4.15766 0
M  V30 8552 H 791.99 1.18073 2.25679 0
M  V30 8553 H 792.773 2.8241 1.95191 0
M  V30 8554 N 795.218 -1.23913 0.973828 0
M  V30 8555 C 796.148 -2.27453 0.527969 0
M  V30 8556 C 797.129 -1.6443 -0.435513 0
M  V30 8557 O 798.314 -1.9137 -0.330306 0
M  V30 8558 C 795.444 -3.4685 -0.176757 0
M  V30 8559 C 794.398 -4.22181 0.703352 0
M  V30 8560 C 793.724 -5.34534 -0.133215 0
M  V30 8561 C 795.024 -4.82865 1.99096 0
M  V30 8562 H 796.718 -2.65 1.3934 0
M  V30 8563 H 794.264 -1.27388 0.671446 0
M  V30 8564 H 796.217 -4.18424 -0.499934 0
M  V30 8565 H 794.941 -3.08346 -1.07659 0
M  V30 8566 H 793.6 -3.52416 1.00989 0
M  V30 8567 H 793.248 -4.92271 -1.03338 0
M  V30 8568 H 792.948 -5.85855 0.452494 0
M  V30 8569 H 794.472 -6.08933 -0.450924 0
M  V30 8570 H 795.886 -5.46481 1.73297 0
M  V30 8571 H 794.283 -5.44444 2.52389 0
M  V30 8572 H 795.353 -4.03977 2.68199 0
M  V30 8573 N 796.696 -0.74468 -1.38897 0
M  V30 8574 C 797.646 -0.0869375 -2.27834 0
M  V30 8575 C 798.63 0.702553 -1.44751 0
M  V30 8576 O 799.822 0.569972 -1.67572 0
M  V30 8577 C 796.951 0.812232 -3.33553 0
M  V30 8578 C 796.037 0.0163713 -4.24097 0
M  V30 8579 N 796.428 -1.01547 -4.95502 0
M  V30 8580 C 794.726 0.244554 -4.45329 0
M  V30 8581 C 795.427 -1.49622 -5.62128 0
M  V30 8582 N 794.403 -0.813097 -5.37485 0
M  V30 8583 H 798.205 -0.877345 -2.80499 0
M  V30 8584 H 795.719 -0.579898 -1.51694 0
M  V30 8585 H 797.716 1.299 -3.96146 0
M  V30 8586 H 796.376 1.60169 -2.82446 0
M  V30 8587 H 797.387 -1.39707 -4.98701 0
M  V30 8588 H 794.064 1.00806 -4.05147 0
M  V30 8589 H 795.454 -2.35523 -6.29268 0
M  V30 8590 N 798.174 1.49689 -0.493057 0
M  V30 8591 C 799.121 2.28976 0.28959 0
M  V30 8592 C 800.091 1.35011 0.967536 0
M  V30 8593 O 801.276 1.63964 0.975736 0
M  V30 8594 C 798.416 3.1748 1.35279 0
M  V30 8595 C 797.529 4.26496 0.687418 0
M  V30 8596 C 796.664 5.02226 1.73038 0
M  V30 8597 C 795.703 6.03089 1.04645 0
M  V30 8598 N 794.84 6.72014 2.03325 0
M  V30 8599 H 799.68 2.954 -0.392798 0
M  V30 8600 H 797.217 1.45657 -0.205554 0
M  V30 8601 H 799.175 3.67162 1.98111 0
M  V30 8602 H 797.805 2.53057 2.00405 0
M  V30 8603 H 796.857 3.80362 -0.0540001 0
M  V30 8604 H 798.169 4.98578 0.14864 0
M  V30 8605 H 797.323 5.55737 2.43395 0
M  V30 8606 H 796.062 4.29899 2.303 0
M  V30 8607 H 795.067 5.48817 0.328606 0
M  V30 8608 H 796.292 6.77398 0.480428 0
M  V30 8609 H 794.238 6.02464 2.59564 0
M  V30 8610 H 794.155 7.40046 1.54492 0
M  V30 8611 H 795.423 7.30133 2.72995 0
M  V30 8612 N 799.652 0.226554 1.55963 0
M  V30 8613 C 800.892 -0.405574 2.00336 0
M  V30 8614 C 801.256 -1.56593 1.11097 0
M  V30 8615 O 802.457 -2.26441 1.44838 0
M  V30 8616 C 800.728 -0.82435 3.47763 0
M  V30 8617 S 802.287 -1.44988 4.14154 0
M  V30 8618 H 799.105 -0.128512 0.699289 0
M  V30 8619 H 801.707 0.337017 1.92573 0
M  V30 8620 H 800.411 0.0297636 4.10389 0
M  V30 8621 H 799.942 -1.59963 3.5941 0
M  V30 8622 H 801.957 -2.73897 4.13757 0
M  V30 8623 N 801.13 -1.57531 -0.0467866 0
M  V30 8624 C 802.407 -1.79568 -0.775536 0
M  V30 8625 C 802.787 -0.820322 -1.94509 0
M  V30 8626 O 802.135 0.14134 -2.28062 0
M  V30 8627 C 802.345 -3.26789 -1.22516 0
M  V30 8628 C 803.693 -3.91299 -1.64835 0
M  V30 8629 O 804.717 -3.30831 -1.3202 0
M  V30 8630 O 803.576 -4.97727 -2.25677 0
M  V30 8631 H 800.67 -0.737817 -0.373572 0
M  V30 8632 H 803.216 -1.69682 -0.0249302 0
M  V30 8633 H 801.988 -3.89357 -0.389446 0
M  V30 8634 H 801.611 -3.41496 -2.03633 0
M  V30 8635 N 802.608 0.318715 -1.54344 0
M  V30 8636 C 803.857 1.05363 -1.71993 0
M  V30 8637 C 804.17 1.89018 -0.503155 0
M  V30 8638 O 805.376 2.65639 -0.561085 0
M  V30 8639 C 803.832 1.92281 -3.0423 0
M  V30 8640 C 803.44 1.13715 -4.33328 0
M  V30 8641 C 805.184 2.65479 -3.31242 0
M  V30 8642 C 803.091 1.99806 -5.56625 0
M  V30 8643 H 802.021 0.397081 -0.64097 0
M  V30 8644 H 804.672 0.311598 -1.80835 0
M  V30 8645 H 803.054 2.70402 -2.89307 0
M  V30 8646 H 804.228 0.403305 -4.59032 0
M  V30 8647 H 802.543 0.521769 -4.13118 0
M  V30 8648 H 805.14 3.30209 -4.20555 0
M  V30 8649 H 805.483 3.33374 -2.49334 0
M  V30 8650 H 806.016 1.94417 -3.47054 0
M  V30 8651 H 802.755 1.36411 -6.41149 0
M  V30 8652 H 802.275 2.70911 -5.35133 0
M  V30 8653 H 803.954 2.58277 -5.93213 0
M  V30 8654 N 804.086 1.46499 0.581025 0
M  V30 8655 C 805.311 1.55708 1.37002 0
M  V30 8656 C 805.736 0.19942 1.8704 0
M  V30 8657 O 805.094 -0.820731 1.61659 0
M  V30 8658 C 805.142 2.56716 2.53238 0
M  V30 8659 O 804.246 2.10336 3.54729 0
M  V30 8660 H 803.587 0.523912 0.407937 0
M  V30 8661 H 806.117 1.92085 0.704602 0
M  V30 8662 H 806.127 2.76378 3.00132 0
M  V30 8663 H 804.802 3.55307 2.16171 0
M  V30 8664 H 803.379 2.00669 3.14303 0
M  V30 8665 N 805.565 -0.825799 1.34232 0
M  V30 8666 C 806.513 -1.95792 1.25572 0
M  V30 8667 C 807.507 -1.68695 0.154404 0
M  V30 8668 O 808.713 -1.77147 0.319196 0
M  V30 8669 H 805.088 -0.642949 0.390027 0
M  V30 8670 H 807.059 -2.00219 2.21258 0
M  V30 8671 C 805.808 -3.32245 1.02511 0
M  V30 8672 H 805.131 -3.53642 1.86487 0
M  V30 8673 H 806.571 -4.1192 1.00487 0
M  V30 8674 C 805.03 -3.35803 -0.27167 0
M  V30 8675 O 805.56 -3.80962 -1.274 0
M  V30 8676 N 803.766 -2.89008 -0.303778 0
M  V30 8677 H 803.313 -2.52451 0.512464 0
M  V30 8678 H 803.271 -2.9177 -1.17121 0
M  V30 8679 N 807.043 -1.17915 -1.04565 0
M  V30 8680 C 808.268 -0.996749 -1.81878 0
M  V30 8681 C 808.693 0.450169 -1.82634 0
M  V30 8682 O 808.051 1.32268 -1.23995 0
M  V30 8683 C 808.099 -1.55005 -3.25585 0
M  V30 8684 O 807.203 -0.76804 -4.05185 0
M  V30 8685 H 806.544 -0.353456 -0.562108 0
M  V30 8686 H 809.074 -1.56557 -1.31723 0
M  V30 8687 H 809.084 -1.57503 -3.76373 0
M  V30 8688 H 807.759 -2.60327 -3.2435 0
M  V30 8689 H 806.336 -0.81498 -3.63885 0
M  V30 8690 N 808.521 1.23394 -0.980386 0
M  V30 8691 C 809.749 1.95844 -0.667286 0
M  V30 8692 C 810.164 1.72574 0.765735 0
M  V30 8693 O 809.521 1.01715 1.51526 0
M  V30 8694 C 809.572 3.48844 -0.948151 0
M  V30 8695 O 809.293 3.71325 -2.32485 0
M  V30 8696 C 810.794 4.38494 -0.651002 0
M  V30 8697 H 808.014 0.623535 -0.247882 0
M  V30 8698 H 810.558 1.56885 -1.31176 0
M  V30 8699 H 808.713 3.85819 -0.349681 0
M  V30 8700 H 809.127 4.65619 -2.41452 0
M  V30 8701 H 810.601 5.44648 -0.897887 0
M  V30 8702 H 811.078 4.37236 0.414922 0
M  V30 8703 H 811.684 4.07127 -1.22995 0
M  V30 8704 N 809.999 0.752036 1.385 0
M  V30 8705 C 810.909 0.125318 2.34265 0
M  V30 8706 C 811.925 -0.702437 1.59191 0
M  V30 8707 O 813.101 -0.626951 1.91393 0
M  V30 8708 C 810.166 -0.758486 3.38301 0
M  V30 8709 C 809.227 0.0834636 4.29219 0
M  V30 8710 C 808.46 -0.758252 5.28286 0
M  V30 8711 O 808.683 -1.99632 5.34325 0
M  V30 8712 O 807.617 -0.177878 6.01637 0
M  V30 8713 H 811.443 0.91617 2.89551 0
M  V30 8714 H 809.028 0.512911 1.4032 0
M  V30 8715 H 810.91 -1.26365 4.02007 0
M  V30 8716 H 809.585 -1.52786 2.85374 0
M  V30 8717 H 808.492 0.634545 3.68679 0
M  V30 8718 H 809.825 0.815455 4.85398 0
M  V30 8719 N 811.477 -1.49425 0.500989 0
M  V30 8720 C 812.44 -2.27646 -0.266416 0
M  V30 8721 C 813.44 -1.3366 -0.893961 0
M  V30 8722 O 814.63 -1.5682 -0.758495 0
M  V30 8723 C 811.762 -3.11618 -1.38227 0
M  V30 8724 H 812.955 -2.96945 0.419973 0
M  V30 8725 H 810.508 -1.5419 0.255954 0
M  V30 8726 H 811.243 -2.46885 -2.10281 0
M  V30 8727 H 811.028 -3.80721 -0.937746 0
M  V30 8728 H 812.518 -3.70698 -1.92283 0
M  V30 8729 N 812.955 -0.234822 -1.55841 0
M  V30 8730 C 814.203 0.392483 -1.98252 0
M  V30 8731 C 814.524 1.59344 -1.12404 0
M  V30 8732 O 813.794 1.94834 -0.204055 0
M  V30 8733 H 812.374 0.147999 -0.732192 0
M  V30 8734 H 815.036 -0.330804 -1.92072 0
M  V30 8735 H 814.132 0.709829 -3.03921 0
M  V30 8736 N 814.433 1.57553 0.0384317 0
M  V30 8737 C 815.365 2.02726 1.06934 0
M  V30 8738 C 816.378 0.938502 1.33026 0
M  V30 8739 O 817.567 1.21595 1.30678 0
M  V30 8740 C 814.667 2.37958 2.41308 0
M  V30 8741 C 813.84 3.69098 2.34703 0
M  V30 8742 C 812.899 3.91623 3.51451 0
M  V30 8743 O 811.925 4.628 3.31368 0
M  V30 8744 N 813.127 3.36538 4.72993 0
M  V30 8745 H 815.892 2.91781 0.684381 0
M  V30 8746 H 813.453 1.60307 0.226542 0
M  V30 8747 H 815.445 2.50172 3.18113 0
M  V30 8748 H 814.015 1.54621 2.71682 0
M  V30 8749 H 813.235 3.67325 1.43059 0
M  V30 8750 H 814.523 4.55144 2.27424 0
M  V30 8751 H 813.921 2.78828 4.92211 0
M  V30 8752 H 812.478 3.54148 5.47195 0
M  V30 8753 N 815.911 -0.310526 1.54511 0
M  V30 8754 C 816.858 -1.38264 1.84802 0
M  V30 8755 C 817.828 -1.50808 0.696141 0
M  V30 8756 O 819.013 -1.6582 0.943846 0
M  V30 8757 C 816.153 -2.74422 2.09252 0
M  V30 8758 C 815.266 -2.70405 3.36906 0
M  V30 8759 C 814.401 -3.98495 3.51248 0
M  V30 8760 C 813.44 -3.88836 4.72729 0
M  V30 8761 N 812.577 -5.08683 4.83928 0
M  V30 8762 H 817.417 -1.11732 2.76261 0
M  V30 8763 H 814.954 -0.540609 1.36806 0
M  V30 8764 H 816.912 -3.53593 2.21422 0
M  V30 8765 H 815.542 -2.99235 1.2107 0
M  V30 8766 H 814.594 -1.83151 3.33406 0
M  V30 8767 H 815.906 -2.59155 4.26193 0
M  V30 8768 H 815.06 -4.861 3.63031 0
M  V30 8769 H 813.799 -4.12567 2.60077 0
M  V30 8770 H 812.804 -2.99615 4.60989 0
M  V30 8771 H 814.029 -3.76318 5.65298 0
M  V30 8772 H 811.975 -5.23236 3.95677 0
M  V30 8773 H 811.892 -4.99819 5.67201 0
M  V30 8774 H 813.16 -5.97966 5.00057 0
M  V30 8775 N 817.389 -1.46805 -0.573248 0
M  V30 8776 C 818.319 -1.60951 -1.69165 0
M  V30 8777 C 819.3 -0.45948 -1.63777 0
M  V30 8778 O 820.485 -0.68688 -1.81647 0
M  V30 8779 C 817.615 -1.60844 -3.07809 0
M  V30 8780 C 816.569 -2.74913 -3.28035 0
M  V30 8781 C 815.895 -2.59871 -4.67302 0
M  V30 8782 C 817.195 -4.16654 -3.14955 0
M  V30 8783 H 818.889 -2.54574 -1.57582 0
M  V30 8784 H 816.435 -1.22516 -0.756686 0
M  V30 8785 H 818.388 -1.69334 -3.85881 0
M  V30 8786 H 817.112 -0.637714 -3.20314 0
M  V30 8787 H 815.771 -2.65908 -2.52366 0
M  V30 8788 H 815.419 -1.60861 -4.76585 0
M  V30 8789 H 815.119 -3.36386 -4.81786 0
M  V30 8790 H 816.643 -2.70265 -5.4753 0
M  V30 8791 H 818.057 -4.26721 -3.82861 0
M  V30 8792 H 816.454 -4.93831 -3.40956 0
M  V30 8793 H 817.524 -4.36146 -2.11908 0
M  V30 8794 N 818.867 0.818669 -1.34668 0
M  V30 8795 C 820.114 1.57512 -1.27264 0
M  V30 8796 C 820.442 1.93871 0.156254 0
M  V30 8797 O 819.697 1.60582 1.11857 0
M  V30 8798 C 819.996 2.88245 -2.11304 0
M  V30 8799 C 819.662 2.71159 -3.60255 0
M  V30 8800 C 818.324 2.66207 -4.00858 0
M  V30 8801 C 820.676 2.54538 -4.54819 0
M  V30 8802 C 818.004 2.4256 -5.34211 0
M  V30 8803 C 820.356 2.32421 -5.88356 0
M  V30 8804 C 819.02 2.25884 -6.28118 0
M  V30 8805 H 818.29 0.576378 -0.465692 0
M  V30 8806 H 820.937 0.9469 -1.66451 0
M  V30 8807 H 819.242 3.55381 -1.64958 0
M  V30 8808 H 820.939 3.45869 -2.02919 0
M  V30 8809 H 817.529 2.75856 -3.28027 0
M  V30 8810 H 821.713 2.57384 -4.24343 0
M  V30 8811 H 816.969 2.35959 -5.64033 0
M  V30 8812 H 821.143 2.18548 -6.61218 0
M  V30 8813 H 818.77 2.07322 -7.31383 0
M  V30 8814 N 820.346 1.18468 1.03938 0
M  V30 8815 C 821.294 0.909286 2.14091 0
M  V30 8816 C 822.288 -0.130928 1.68893 0
M  V30 8817 O 823.494 0.0173403 1.79992 0
M  V30 8818 H 819.869 0.27658 0.699291 0
M  V30 8819 H 821.84 1.84514 2.34515 0
M  V30 8820 C 820.589 0.452922 3.44737 0
M  V30 8821 H 819.912 1.24485 3.79926 0
M  V30 8822 H 821.352 0.299238 4.22943 0
M  V30 8823 C 819.811 -0.831435 3.26479 0
M  V30 8824 O 820.341 -1.89535 3.54174 0
M  V30 8825 N 818.547 -0.784545 2.79809 0
M  V30 8826 H 818.094 0.0814746 2.57471 0
M  V30 8827 H 818.052 -1.64431 2.67973 0
M  V30 8828 N 821.824 -1.22873 0.986916 0
M  V30 8829 C 822.757 -2.23154 0.477245 0
M  V30 8830 C 823.735 -1.55981 -0.459206 0
M  V30 8831 O 824.919 -1.84503 -0.386141 0
M  V30 8832 C 822.046 -3.37289 -0.308838 0
M  V30 8833 C 821.092 -4.22637 0.572717 0
M  V30 8834 S 821.925 -4.95758 2.02446 0
M  V30 8835 C 823.081 -6.13338 1.2477 0
M  V30 8836 H 823.314 -2.6604 1.32702 0
M  V30 8837 H 820.847 -1.32455 0.793415 0
M  V30 8838 H 822.805 -4.03472 -0.756351 0
M  V30 8839 H 821.466 -2.92922 -1.13381 0
M  V30 8840 H 820.659 -5.0399 -0.0318024 0
M  V30 8841 H 820.261 -3.61555 0.956746 0
M  V30 8842 H 822.553 -6.7556 0.51231 0
M  V30 8843 H 823.496 -6.78189 2.03629 0
M  V30 8844 H 823.904 -5.59311 0.763622 0
M  V30 8845 N 823.302 -0.75937 -1.38099 0
M  V30 8846 C 824.232 -0.151077 -2.33011 0
M  V30 8847 C 825.213 0.697099 -1.5516 0
M  V30 8848 O 826.398 0.637101 -1.83452 0
M  V30 8849 C 823.528 0.738423 -3.39359 0
M  V30 8850 C 822.482 -0.0074741 -4.27999 0
M  V30 8851 C 821.808 1.00066 -5.25253 0
M  V30 8852 C 823.108 -1.17926 -5.08813 0
M  V30 8853 H 824.802 -0.943933 -2.84131 0
M  V30 8854 H 822.348 -0.455362 -1.36611 0
M  V30 8855 H 824.301 1.17369 -4.04725 0
M  V30 8856 H 823.025 1.56366 -2.86735 0
M  V30 8857 H 821.684 -0.423379 -3.64147 0
M  V30 8858 H 821.332 1.82012 -4.68914 0
M  V30 8859 H 821.032 0.506199 -5.85416 0
M  V30 8860 H 822.556 1.43512 -5.93495 0
M  V30 8861 H 823.97 -0.821262 -5.67387 0
M  V30 8862 H 822.367 -1.60497 -5.78239 0
M  V30 8863 H 823.437 -1.98938 -4.42212 0
M  V30 8864 N 824.78 1.49157 -0.508906 0
M  V30 8865 C 826.196 1.58741 -0.165372 0
M  V30 8866 C 826.396 1.5133 1.33047 0
M  V30 8867 O 825.452 1.39135 2.10707 0
M  V30 8868 C 826.765 2.91217 -0.749194 0
M  V30 8869 C 828.313 3.047 -0.716015 0
M  V30 8870 C 828.788 4.39807 -1.27804 0
M  V30 8871 N 830.279 4.46319 -1.23908 0
M  V30 8872 C 831.014 5.49325 -1.64406 0
M  V30 8873 N 830.51 6.59395 -2.12534 0
M  V30 8874 N 832.303 5.40084 -1.55773 0
M  V30 8875 H 824.454 1.52217 -1.48134 0
M  V30 8876 H 826.717 0.721514 -0.614915 0
M  V30 8877 H 826.423 3.02233 -1.79856 0
M  V30 8878 H 826.297 3.76592 -0.214144 0
M  V30 8879 H 828.684 2.9331 0.324535 0
M  V30 8880 H 828.765 2.2099 -1.2883 0
M  V30 8881 H 828.409 4.5195 -2.31741 0
M  V30 8882 H 828.339 5.2217 -0.681623 0
M  V30 8883 H 830.83 3.67354 -0.886537 0
M  V30 8884 H 831.143 7.34102 -2.41485 0
M  V30 8885 H 829.488 6.60414 -2.16513 0
M  V30 8886 H 832.679 4.52986 -1.17987 0
M  V30 8887 H 832.852 6.20233 -1.87657 0
M  V30 8888 N 826.258 0.243083 1.55714 0
M  V30 8889 C 827.188 -0.652336 2.24203 0
M  V30 8890 C 828.169 -1.1843 1.221 0
M  V30 8891 O 829.354 -1.22435 1.50743 0
M  V30 8892 C 826.484 -1.85111 2.93856 0
M  V30 8893 C 825.438 -1.45208 4.02615 0
M  V30 8894 C 824.764 -2.73137 4.59674 0
M  V30 8895 C 826.064 -0.625988 5.18535 0
M  V30 8896 H 827.758 -0.0812504 2.9929 0
M  V30 8897 H 825.304 -0.0376388 1.43951 0
M  V30 8898 H 827.257 -2.48314 3.40468 0
M  V30 8899 H 825.981 -2.44751 2.16251 0
M  V30 8900 H 824.64 -0.843406 3.56766 0
M  V30 8901 H 824.288 -3.30967 3.78774 0
M  V30 8902 H 823.988 -2.47163 5.33089 0
M  V30 8903 H 825.512 -3.37245 5.09017 0
M  V30 8904 H 826.926 -1.16223 5.61396 0
M  V30 8905 H 825.323 -0.462465 5.98315 0
M  V30 8906 H 826.393 0.362652 4.83542 0
M  V30 8907 N 827.736 -1.57571 -0.0300757 0
M  V30 8908 C 828.984 -1.88852 -0.719666 0
M  V30 8909 C 829.305 -0.840645 -1.75949 0
M  V30 8910 O 828.575 0.125854 -1.95495 0
M  V30 8911 H 827.155 -0.696965 -0.268792 0
M  V30 8912 H 829.817 -1.949 0.00373285 0
M  V30 8913 H 828.913 -2.87695 -1.20987 0
M  V30 8914 N 829.214 0.302327 -1.54673 0
M  V30 8915 C 830.161 1.37282 -1.85532 0
M  V30 8916 C 831.131 1.50437 -0.704129 0
M  V30 8917 O 832.316 1.65317 -0.952627 0
M  V30 8918 C 829.456 2.73309 -2.10704 0
M  V30 8919 C 828.569 2.68614 -3.38335 0
M  V30 8920 C 827.704 3.96626 -3.53357 0
M  V30 8921 C 826.743 3.86324 -4.74784 0
M  V30 8922 N 825.88 5.06109 -4.86619 0
M  V30 8923 H 830.72 1.10265 -2.76849 0
M  V30 8924 H 828.257 0.533346 -1.37091 0
M  V30 8925 H 830.215 3.52414 -2.23294 0
M  V30 8926 H 828.845 2.98589 -1.22656 0
M  V30 8927 H 827.897 1.81381 -3.34373 0
M  V30 8928 H 829.209 2.56891 -4.27561 0
M  V30 8929 H 828.363 4.84168 -3.65604 0
M  V30 8930 H 827.102 4.11182 -2.62261 0
M  V30 8931 H 826.107 2.97166 -4.62572 0
M  V30 8932 H 827.332 3.73315 -5.67286 0
M  V30 8933 H 825.278 5.2113 -3.98446 0
M  V30 8934 H 825.195 4.96804 -5.69844 0
M  V30 8935 H 826.463 5.95306 -5.03221 0
M  V30 8936 N 830.692 1.47107 0.565454 0
M  V30 8937 C 831.917 1.57153 1.35343 0
M  V30 8938 C 832.342 0.219247 1.86818 0
M  V30 8939 O 831.7 -0.803539 1.62521 0
M  V30 8940 C 831.748 2.59387 2.50501 0
M  V30 8941 O 830.852 2.14086 3.52478 0
M  V30 8942 H 830.193 0.528209 0.402357 0
M  V30 8943 H 832.723 1.92821 0.684189 0
M  V30 8944 H 832.733 2.79546 2.97184 0
M  V30 8945 H 831.408 3.57579 2.12391 0
M  V30 8946 H 829.985 2.03991 3.12157 0
M  V30 8947 N 832.17 -0.811516 1.35101 0
M  V30 8948 C 833.08 -1.95475 1.29718 0
M  V30 8949 C 834.096 -1.72813 0.202909 0
M  V30 8950 O 835.272 -1.96725 0.431414 0
M  V30 8951 C 832.337 -3.29975 1.06385 0
M  V30 8952 C 831.398 -3.65566 2.25077 0
M  V30 8953 C 830.631 -4.93648 2.02848 0
M  V30 8954 O 830.854 -5.617 0.992442 0
M  V30 8955 O 829.788 -5.27384 2.90087 0
M  V30 8956 H 833.614 -2.02961 2.25921 0
M  V30 8957 H 831.199 -0.948583 1.15422 0
M  V30 8958 H 833.081 -4.10506 0.951999 0
M  V30 8959 H 831.756 -3.2343 0.132294 0
M  V30 8960 H 830.663 -2.85432 2.41825 0
M  V30 8961 H 831.996 -3.7681 3.16662 0
M  V30 8962 N 833.648 -1.19017 -1.03309 0
M  V30 8963 C 835.059 -0.993206 -1.5809 0
M  V30 8964 C 835.41 0.45505 -1.9085 0
M  V30 8965 O 834.535 1.33372 -1.70414 0
M  V30 8966 C 835.13 -1.79661 -2.87241 0
M  V30 8967 C 833.689 -1.64377 -3.38611 0
M  V30 8968 C 832.836 -1.78628 -2.12102 0
M  V30 8969 H 835.787 -1.3345 -0.858879 0
M  V30 8970 H 835.808 -1.29019 -3.57958 0
M  V30 8971 H 835.32 -2.85061 -2.63366 0
M  V30 8972 H 833.421 -0.615447 -3.67482 0
M  V30 8973 H 833.534 -2.44651 -4.11926 0
M  V30 8974 H 831.898 -1.21648 -2.23772 0
M  V30 8975 H 832.681 -2.8548 -1.90673 0
M  V30 8976 N 835.127 1.22348 -0.993418 0
M  V30 8977 C 836.373 1.91689 -0.680217 0
M  V30 8978 C 836.728 1.75912 0.779269 0
M  V30 8979 O 836.021 1.11761 1.55628 0
M  V30 8980 C 836.215 3.42477 -1.02197 0
M  V30 8981 C 836.044 3.72923 -2.51313 0
M  V30 8982 C 834.814 3.9291 -3.17726 0
M  V30 8983 C 837.012 3.7736 -3.49434 0
M  V30 8984 N 834.994 4.10672 -4.56313 0
M  V30 8985 C 836.365 4.00269 -4.73481 0
M  V30 8986 C 838.42 3.60211 -3.43733 0
M  V30 8987 C 837.123 4.0781 -5.92523 0
M  V30 8988 C 839.149 3.69011 -4.62152 0
M  V30 8989 C 838.511 3.92371 -5.85 0
M  V30 8990 H 834.61 0.722086 -0.300193 0
M  V30 8991 H 837.194 1.47273 -1.27353 0
M  V30 8992 H 835.365 3.85699 -0.457223 0
M  V30 8993 H 837.097 3.99204 -0.664702 0
M  V30 8994 H 833.852 3.90345 -2.68193 0
M  V30 8995 H 834.276 4.2348 -5.28199 0
M  V30 8996 H 838.918 3.41137 -2.49771 0
M  V30 8997 H 836.636 4.25688 -6.86888 0
M  V30 8998 H 840.222 3.5708 -4.59331 0
M  V30 8999 H 839.102 3.9901 -6.75101 0
M  V30 9000 N 836.605 0.766683 1.37694 0
M  V30 9001 C 837.833 0.339939 2.04088 0
M  V30 9002 C 838.248 -1.03617 1.57826 0
M  V30 9003 O 837.605 -1.6605 0.757214 0
M  V30 9004 C 837.656 0.368269 3.59619 0
M  V30 9005 O 837.377 1.69009 4.04188 0
M  V30 9006 C 838.878 -0.0707053 4.43244 0
M  V30 9007 H 836.098 0.143189 0.655544 0
M  V30 9008 H 838.642 1.03919 1.76128 0
M  V30 9009 H 836.797 -0.282359 3.8637 0
M  V30 9010 H 837.211 1.62523 4.98685 0
M  V30 9011 H 838.685 0.000273538 5.52 0
M  V30 9012 H 839.162 -1.1204 4.24669 0
M  V30 9013 H 839.768 0.551543 4.21709 0
M  V30 9014 N 838.083 -1.48885 0.516809 0
M  V30 9015 C 839.013 -2.32241 -0.242157 0
M  V30 9016 C 839.994 -1.41258 -0.947633 0
M  V30 9017 O 841.179 -1.70156 -0.935973 0
M  V30 9018 C 838.309 -3.22151 -1.29754 0
M  V30 9019 C 837.263 -4.22053 -0.710995 0
M  V30 9020 C 836.589 -5.01007 -1.86806 0
M  V30 9021 C 837.889 -5.21388 0.30853 0
M  V30 9022 H 839.583 -2.95943 0.453651 0
M  V30 9023 H 837.129 -1.42316 0.219612 0
M  V30 9024 H 839.082 -3.79284 -1.83634 0
M  V30 9025 H 837.806 -2.56423 -2.02274 0
M  V30 9026 H 836.465 -3.66087 -0.193819 0
M  V30 9027 H 836.113 -4.31713 -2.58133 0
M  V30 9028 H 835.813 -5.68615 -1.48159 0
M  V30 9029 H 837.337 -5.60989 -2.4109 0
M  V30 9030 H 838.751 -5.73122 -0.142703 0
M  V30 9031 H 837.148 -5.96975 0.611673 0
M  V30 9032 H 838.218 -4.69329 1.21894 0
M  V30 9033 N 839.561 -0.251338 -1.55583 0
M  V30 9034 C 840.524 0.63305 -2.20284 0
M  V30 9035 C 841.524 1.09941 -1.17344 0
M  V30 9036 O 842.714 1.00341 -1.42399 0
M  V30 9037 C 839.846 1.8706 -2.84993 0
M  V30 9038 H 841.039 0.0684846 -2.99822 0
M  V30 9039 H 838.592 -0.00181653 -1.563 0
M  V30 9040 H 839.327 2.47629 -2.09405 0
M  V30 9041 H 839.112 1.54436 -3.60405 0
M  V30 9042 H 840.602 2.50004 -3.34496 0
M  V30 9043 N 841.039 1.57585 0.0217189 0
M  V30 9044 C 841.969 2.10073 1.01939 0
M  V30 9045 C 842.95 1.0049 1.37243 0
M  V30 9046 O 844.135 1.28055 1.45999 0
M  V30 9047 C 841.265 2.58618 2.31806 0
M  V30 9048 C 840.219 3.72531 2.10724 0
M  V30 9049 C 839.545 4.07309 3.46415 0
M  V30 9050 C 840.845 5.00672 1.48743 0
M  V30 9051 H 842.539 2.9368 0.582432 0
M  V30 9052 H 840.085 1.41277 0.278715 0
M  V30 9053 H 842.038 2.9396 3.01936 0
M  V30 9054 H 840.762 1.72104 2.77575 0
M  V30 9055 H 839.421 3.37549 1.43025 0
M  V30 9056 H 839.069 3.17851 3.89846 0
M  V30 9057 H 838.769 4.84042 3.33132 0
M  V30 9058 H 840.293 4.45192 4.17895 0
M  V30 9059 H 841.707 5.33925 2.088 0
M  V30 9060 H 840.104 5.82065 1.46013 0
M  V30 9061 H 841.174 4.82769 0.45408 0
M  V30 9062 N 842.517 -0.29412 1.54831 0
M  V30 9063 C 843.427 -1.3854 1.89325 0
M  V30 9064 C 844.443 -1.55127 0.788133 0
M  V30 9065 O 845.619 -1.6966 1.08524 0
M  V30 9066 C 842.684 -2.72809 2.13954 0
M  V30 9067 C 841.745 -2.65148 3.37631 0
M  V30 9068 C 840.978 -3.93014 3.61076 0
M  V30 9069 O 841.201 -4.927 2.87406 0
M  V30 9070 O 840.135 -3.94491 4.54599 0
M  V30 9071 H 843.961 -1.12289 2.82179 0
M  V30 9072 H 841.546 -0.490793 1.41108 0
M  V30 9073 H 843.428 -3.52238 2.31315 0
M  V30 9074 H 842.103 -2.9889 1.24285 0
M  V30 9075 H 841.01 -1.84168 3.25627 0
M  V30 9076 H 842.343 -2.4402 4.27452 0
M  V30 9077 N 843.995 -1.47404 -0.557645 0
M  V30 9078 C 844.943 -1.60265 -1.68576 0
M  V30 9079 C 845.937 -0.469982 -1.6275 0
M  V30 9080 O 847.143 -0.647764 -1.67941 0
M  V30 9081 H 843.518 -0.504353 -0.557792 0
M  V30 9082 H 845.489 -2.55066 -1.54867 0
M  V30 9083 C 844.238 -1.63369 -3.0693 0
M  V30 9084 H 843.561 -2.49874 -3.12095 0
M  V30 9085 H 845.001 -1.76417 -3.85556 0
M  V30 9086 C 843.46 -0.366921 -3.34896 0
M  V30 9087 O 843.99 0.53218 -3.98159 0
M  V30 9088 N 842.196 -0.247082 -2.89548 0
M  V30 9089 H 841.743 -0.979669 -2.38244 0
M  V30 9090 H 841.701 0.599552 -3.0863 0
M  V30 9091 N 845.473 0.80434 -1.35529 0
M  V30 9092 C 846.719 1.56385 -1.29118 0
M  V30 9093 C 847.052 1.9374 0.133536 0
M  V30 9094 O 846.327 1.6153 1.08344 0
M  V30 9095 C 846.61 2.85097 -2.19981 0
M  V30 9096 C 846.463 2.54204 -3.7108 0
M  V30 9097 C 847.782 3.86817 -2.09907 0
M  V30 9098 H 844.901 0.567382 -0.470368 0
M  V30 9099 H 847.543 0.925235 -1.6595 0
M  V30 9100 H 845.693 3.39594 -1.88701 0
M  V30 9101 H 847.365 2.05872 -4.12813 0
M  V30 9102 H 845.608 1.87364 -3.91251 0
M  V30 9103 H 846.279 3.46068 -4.30048 0
M  V30 9104 H 848.755 3.41725 -2.37409 0
M  V30 9105 H 847.631 4.7465 -2.75678 0
M  V30 9106 H 847.892 4.28663 -1.08171 0
M  V30 9107 N 846.951 1.19563 1.02676 0
M  V30 9108 C 848.197 1.00105 1.76371 0
M  V30 9109 C 848.53 -0.466823 1.88506 0
M  V30 9110 O 847.805 -1.34665 1.40341 0
M  V30 9111 C 848.088 1.67321 3.18866 0
M  V30 9112 C 847.941 3.21486 3.1459 0
M  V30 9113 C 849.26 1.39794 4.17308 0
M  V30 9114 H 846.379 0.365075 0.640226 0
M  V30 9115 H 849.021 1.47433 1.19848 0
M  V30 9116 H 847.171 1.27081 3.67128 0
M  V30 9117 H 848.843 3.70953 2.7421 0
M  V30 9118 H 847.086 3.5292 2.52249 0
M  V30 9119 H 847.757 3.63665 4.15273 0
M  V30 9120 H 850.233 1.74685 3.77657 0
M  V30 9121 H 849.109 1.89371 5.15199 0
M  V30 9122 H 849.37 0.323505 4.40915 0
M  V30 9123 N 848.429 -1.21819 0.999893 0
M  V30 9124 C 849.677 -1.90375 0.678351 0
M  V30 9125 C 849.998 -1.78155 -0.792824 0
M  V30 9126 O 849.268 -1.17319 -1.56885 0
M  V30 9127 H 847.848 -0.704661 0.247915 0
M  V30 9128 H 850.51 -1.48021 1.2679 0
M  V30 9129 H 849.606 -2.97385 0.947023 0
M  V30 9130 N 849.908 -0.773975 -1.37286 0
M  V30 9131 C 850.871 -0.167974 -2.28584 0
M  V30 9132 C 851.871 0.625662 -1.48129 0
M  V30 9133 O 853.061 0.448924 -1.68316 0
M  V30 9134 C 850.193 0.769364 -3.32105 0
M  V30 9135 H 851.386 -0.972806 -2.83684 0
M  V30 9136 H 848.939 -0.542335 -1.46589 0
M  V30 9137 H 849.674 1.59912 -2.82132 0
M  V30 9138 H 849.459 0.202419 -3.91577 0
M  V30 9139 H 850.949 1.18872 -4.00324 0
M  V30 9140 N 851.386 1.48609 -0.524698 0
M  V30 9141 C 852.333 2.29539 0.240956 0
M  V30 9142 C 853.303 1.37033 0.938681 0
M  V30 9143 O 854.488 1.65996 0.940737 0
M  V30 9144 C 851.628 3.20278 1.28514 0
M  V30 9145 C 850.741 4.27858 0.596798 0
M  V30 9146 C 849.876 5.05784 1.62346 0
M  V30 9147 C 848.915 6.05173 0.918287 0
M  V30 9148 N 848.052 6.76176 1.89025 0
M  V30 9149 H 852.892 2.945 -0.455368 0
M  V30 9150 H 850.429 1.45188 -0.236403 0
M  V30 9151 H 852.387 3.71281 1.90279 0
M  V30 9152 H 851.017 2.57251 1.94992 0
M  V30 9153 H 850.069 3.80162 -0.134668 0
M  V30 9154 H 851.381 4.98782 0.0428506 0
M  V30 9155 H 850.535 5.60775 2.31553 0
M  V30 9156 H 849.274 4.34687 2.2113 0
M  V30 9157 H 848.279 5.49391 0.21212 0
M  V30 9158 H 849.504 6.78265 0.336633 0
M  V30 9159 H 847.45 6.07834 2.46726 0
M  V30 9160 H 847.367 7.43157 1.3876 0
M  V30 9161 H 848.635 7.35759 2.57446 0
M  V30 9162 N 852.864 0.259585 1.55447 0
M  V30 9163 C 853.812 -0.6507 2.23313 0
M  V30 9164 C 854.806 -1.17014 1.22491 0
M  V30 9165 O 856.012 -1.12557 1.40467 0
M  V30 9166 H 852.387 -0.228354 0.71649 0
M  V30 9167 H 854.358 -0.0553039 2.98349 0
M  V30 9168 C 853.107 -1.83081 2.95596 0
M  V30 9169 H 852.43 -1.44027 3.72956 0
M  V30 9170 H 853.87 -2.44469 3.46426 0
M  V30 9171 C 852.329 -2.70976 2.00184 0
M  V30 9172 O 852.859 -3.70882 1.54304 0
M  V30 9173 N 851.065 -2.37813 1.67014 0
M  V30 9174 H 850.612 -1.5662 2.04519 0
M  V30 9175 H 850.57 -2.96896 1.03443 0
M  V30 9176 N 854.342 -1.57594 -0.0133615 0
M  V30 9177 C 855.275 -2.02991 -1.04259 0
M  V30 9178 C 856.253 -0.917193 -1.34262 0
M  V30 9179 O 857.437 -1.18428 -1.46653 0
M  V30 9180 C 854.564 -2.41624 -2.37351 0
M  V30 9181 C 853.61 -3.63495 -2.231 0
M  V30 9182 S 854.443 -5.1198 -1.5696 0
M  V30 9183 C 855.599 -5.5387 -2.91511 0
M  V30 9184 H 855.832 -2.89973 -0.655985 0
M  V30 9185 H 853.365 -1.52769 -0.223827 0
M  V30 9186 H 855.323 -2.64551 -3.13884 0
M  V30 9187 H 853.984 -1.55065 -2.73155 0
M  V30 9188 H 853.177 -3.88233 -3.21389 0
M  V30 9189 H 852.779 -3.405 -1.54711 0
M  V30 9190 H 855.071 -5.55514 -3.87828 0
M  V30 9191 H 856.014 -6.53988 -2.71488 0
M  V30 9192 H 856.422 -4.81404 -2.94806 0
M  V30 9193 N 855.82 0.285905 -1.54985 0
M  V30 9194 C 856.768 1.37302 -1.87752 0
M  V30 9195 C 857.762 1.51763 -0.752616 0
M  V30 9196 O 858.968 1.53701 -0.936805 0
M  V30 9197 H 855.343 0.458935 -0.59572 0
M  V30 9198 H 857.314 1.0691 -2.78591 0
M  V30 9199 C 856.063 2.72885 -2.15474 0
M  V30 9200 H 855.386 2.62545 -3.01513 0
M  V30 9201 H 856.826 3.47925 -2.42331 0
M  V30 9202 C 855.285 3.22989 -0.958124 0
M  V30 9203 O 855.815 4.01268 -0.186219 0
M  V30 9204 N 854.021 2.80503 -0.759354 0
M  V30 9205 H 853.568 2.16961 -1.38874 0
M  V30 9206 H 853.526 3.14375 0.0396937 0
M  V30 9207 N 857.298 1.47698 0.54982 0
M  V30 9208 C 858.544 1.54931 1.30859 0
M  V30 9209 C 858.877 0.214021 1.93017 0
M  V30 9210 O 858.152 -0.778093 1.78258 0
M  V30 9211 C 858.435 2.67286 2.41309 0
M  V30 9212 C 858.288 4.10457 1.83971 0
M  V30 9213 C 859.607 2.75509 3.43195 0
M  V30 9214 H 856.726 0.56399 0.474431 0
M  V30 9215 H 859.368 1.79787 0.614541 0
M  V30 9216 H 857.518 2.46224 3.0051 0
M  V30 9217 H 859.19 4.42903 1.28974 0
M  V30 9218 H 857.433 4.18387 1.14606 0
M  V30 9219 H 858.104 4.84857 2.63851 0
M  V30 9220 H 860.58 2.94531 2.93923 0
M  V30 9221 H 859.456 3.55886 4.17895 0
M  V30 9222 H 859.717 1.82863 4.02509 0
M  V30 9223 N 858.776 -0.797141 1.35954 0
M  V30 9224 C 860.192 -1.09408 1.16198 0
M  V30 9225 C 860.392 -2.01491 -0.0191682 0
M  V30 9226 O 859.448 -2.42977 -0.686902 0
M  V30 9227 C 860.761 -1.71597 2.46931 0
M  V30 9228 C 862.309 -1.83974 2.53224 0
M  V30 9229 C 862.784 -2.49579 3.84024 0
M  V30 9230 N 864.275 -2.57055 3.85327 0
M  V30 9231 C 865.01 -3.08608 4.83268 0
M  V30 9232 N 864.506 -3.60527 5.91601 0
M  V30 9233 N 866.299 -3.07249 4.70696 0
M  V30 9234 H 858.45 -0.185209 2.11591 0
M  V30 9235 H 860.713 -0.144768 0.936881 0
M  V30 9236 H 860.419 -1.11404 3.3359 0
M  V30 9237 H 860.293 -2.71193 2.62172 0
M  V30 9238 H 862.68 -2.43308 1.66988 0
M  V30 9239 H 862.761 -0.83207 2.41889 0
M  V30 9240 H 862.405 -1.90892 4.70662 0
M  V30 9241 H 862.335 -3.50902 3.92651 0
M  V30 9242 H 864.826 -2.20283 3.07057 0
M  V30 9243 H 865.139 -3.98192 6.62317 0
M  V30 9244 H 863.484 -3.587 5.95281 0
M  V30 9245 H 866.675 -2.65972 3.85197 0
M  V30 9246 H 866.848 -3.47119 5.47186 0
M  V30 9247 N 860.254 -1.20106 -1.0204 0
M  V30 9248 C 861.665 -1.00992 -1.57027 0
M  V30 9249 C 862.016 0.434782 -1.91322 0
M  V30 9250 O 861.141 1.31557 -1.71819 0
M  V30 9251 C 861.736 -1.82697 -2.85319 0
M  V30 9252 C 860.295 -1.67959 -3.36848 0
M  V30 9253 C 859.442 -1.80868 -2.10195 0
M  V30 9254 H 862.393 -1.34354 -0.844676 0
M  V30 9255 H 862.414 -1.32809 -3.5657 0
M  V30 9256 H 861.926 -2.87839 -2.60328 0
M  V30 9257 H 860.027 -0.654389 -3.66809 0
M  V30 9258 H 860.14 -2.49006 -4.09308 0
M  V30 9259 H 858.504 -1.24015 -2.22469 0
M  V30 9260 H 859.287 -2.87486 -1.87635 0
M  V30 9261 N 861.732 1.21287 -1.00634 0
M  V30 9262 C 862.662 2.25973 -0.588089 0
M  V30 9263 C 863.643 1.65527 0.391764 0
M  V30 9264 O 864.828 1.92179 0.279452 0
M  V30 9265 C 861.958 3.47197 0.0847336 0
M  V30 9266 C 860.912 4.20168 -0.815039 0
M  V30 9267 C 860.238 5.34699 -0.00855393 0
M  V30 9268 C 861.538 4.77416 -2.11828 0
M  V30 9269 H 863.232 2.61212 -1.46317 0
M  V30 9270 H 860.778 1.25563 -0.704985 0
M  V30 9271 H 862.731 4.19602 0.388821 0
M  V30 9272 H 861.455 3.11092 0.994456 0
M  V30 9273 H 860.114 3.49614 -1.10297 0
M  V30 9274 H 859.762 4.94837 0.902499 0
M  V30 9275 H 859.462 5.84449 -0.607664 0
M  V30 9276 H 860.986 6.09914 0.289317 0
M  V30 9277 H 862.4 5.41694 -1.87725 0
M  V30 9278 H 860.797 5.37561 -2.66736 0
M  V30 9279 H 861.867 3.96724 -2.78816 0
M  V30 9280 N 863.21 0.781244 1.36873 0
M  V30 9281 C 864.14 0.188128 2.32741 0
M  V30 9282 C 865.121 -0.672326 1.56249 0
M  V30 9283 O 866.306 -0.607835 1.84442 0
M  V30 9284 C 863.436 -0.684341 3.40491 0
M  V30 9285 C 862.39 0.0755641 4.27933 0
M  V30 9286 C 861.716 -0.916968 5.26779 0
M  V30 9287 C 863.016 1.26006 5.06873 0
M  V30 9288 H 864.71 0.989016 2.82593 0
M  V30 9289 H 862.256 0.477038 1.35869 0
M  V30 9290 H 864.209 -1.10915 4.06541 0
M  V30 9291 H 862.933 -1.51785 2.89187 0
M  V30 9292 H 861.592 0.481258 3.63427 0
M  V30 9293 H 861.24 -1.74528 4.71751 0
M  V30 9294 H 860.94 -0.413 5.86147 0
M  V30 9295 H 862.464 -1.34052 5.95703 0
M  V30 9296 H 863.878 0.911425 5.66009 0
M  V30 9297 H 862.275 1.69676 5.75613 0
M  V30 9298 H 863.345 2.05948 4.38991 0
M  V30 9299 N 864.689 -1.48329 0.532571 0
M  V30 9300 C 865.637 -2.31336 -0.242133 0
M  V30 9301 C 866.631 -1.41391 -0.933006 0
M  V30 9302 O 867.837 -1.58284 -0.857096 0
M  V30 9303 H 864.212 -0.745724 -0.0969536 0
M  V30 9304 H 866.183 -2.94555 0.477504 0
M  V30 9305 C 864.932 -3.23501 -1.27446 0
M  V30 9306 H 864.255 -3.92659 -0.752261 0
M  V30 9307 H 865.695 -3.84461 -1.78789 0
M  V30 9308 C 864.154 -2.45288 -2.30944 0
M  V30 9309 O 864.684 -2.17955 -3.37429 0
M  V30 9310 N 862.89 -2.06737 -2.04226 0
M  V30 9311 H 862.437 -2.29166 -1.17647 0
M  V30 9312 H 862.395 -1.54719 -2.73696 0
M  V30 9313 N 866.167 -0.267825 -1.55308 0
M  V30 9314 C 867.397 0.354073 -2.03543 0
M  V30 9315 C 867.805 1.50554 -1.14586 0
M  V30 9316 O 867.148 1.83028 -0.156991 0
M  V30 9317 C 867.21 0.904148 -3.47945 0
M  V30 9318 C 866.874 -0.11775 -4.56848 0
M  V30 9319 C 867.871 -0.934707 -5.11429 0
M  V30 9320 C 865.556 -0.249885 -5.01678 0
M  V30 9321 C 867.55 -1.87005 -6.0935 0
M  V30 9322 C 865.237 -1.18872 -5.99427 0
M  V30 9323 C 866.235 -1.99731 -6.53144 0
M  V30 9324 O 865.923 -2.92028 -7.48983 0
M  V30 9325 H 865.655 0.0857765 -0.670536 0
M  V30 9326 H 868.209 -0.395515 -2.01556 0
M  V30 9327 H 866.439 1.70368 -3.47148 0
M  V30 9328 H 868.128 1.43835 -3.79561 0
M  V30 9329 H 868.894 -0.84332 -4.77612 0
M  V30 9330 H 864.773 0.369469 -4.59517 0
M  V30 9331 H 868.317 -2.5016 -6.51203 0
M  V30 9332 H 864.214 -1.28095 -6.32663 0
M  V30 9333 H 864.982 -2.86627 -7.66673 0
M  V30 9334 N 867.645 1.57599 0.00500368 0
M  V30 9335 C 868.892 1.90349 0.690895 0
M  V30 9336 C 869.22 0.868045 1.74055 0
M  V30 9337 O 868.475 -0.127855 1.95282 0
M  V30 9338 C 868.774 3.29855 1.37588 0
M  V30 9339 C 868.44 4.48548 0.459906 0
M  V30 9340 C 867.102 4.80752 0.207693 0
M  V30 9341 C 869.454 5.20919 -0.171054 0
M  V30 9342 C 866.782 5.82701 -0.683855 0
M  V30 9343 C 869.134 6.23818 -1.05045 0
M  V30 9344 C 867.798 6.54481 -1.31189 0
M  V30 9345 H 867.068 0.696538 0.252816 0
M  V30 9346 H 869.715 1.91436 -0.0494495 0
M  V30 9347 H 868.02 3.24869 2.19015 0
M  V30 9348 H 869.717 3.52452 1.91255 0
M  V30 9349 H 866.307 4.23384 0.666648 0
M  V30 9350 H 870.491 4.96299 0.0107942 0
M  V30 9351 H 865.747 6.04822 -0.894467 0
M  V30 9352 H 869.921 6.79029 -1.54574 0
M  V30 9353 H 867.548 7.33299 -2.00442 0
M  V30 9354 N 869.123 -0.277682 1.55134 0
M  V30 9355 C 870.033 -1.36524 1.90783 0
M  V30 9356 C 871.049 -1.54283 0.804542 0
M  V30 9357 O 872.225 -1.68499 1.10318 0
M  V30 9358 C 869.29 -2.70524 2.16835 0
M  V30 9359 C 868.351 -2.61552 3.40424 0
M  V30 9360 C 867.584 -3.89162 3.65224 0
M  V30 9361 O 867.807 -4.89624 2.92616 0
M  V30 9362 O 866.741 -3.89647 4.58758 0
M  V30 9363 H 870.567 -1.0929 2.83354 0
M  V30 9364 H 868.152 -0.475799 1.41621 0
M  V30 9365 H 870.034 -3.49765 2.35038 0
M  V30 9366 H 868.709 -2.97555 1.27448 0
M  V30 9367 H 867.616 -1.80704 3.27562 0
M  V30 9368 H 868.949 -2.39472 4.30016 0
M  V30 9369 N 870.601 -1.47988 -0.541979 0
M  V30 9370 C 872.012 -1.49073 -1.12402 0
M  V30 9371 C 872.363 -0.253825 -1.94551 0
M  V30 9372 O 871.488 0.640056 -2.06718 0
M  V30 9373 C 872.083 -2.7011 -2.04514 0
M  V30 9374 C 870.642 -2.74105 -2.5796 0
M  V30 9375 C 869.789 -2.42409 -1.3466 0
M  V30 9376 H 872.74 -1.55277 -0.327818 0
M  V30 9377 H 872.761 -2.47946 -2.88623 0
M  V30 9378 H 872.273 -3.60117 -1.44697 0
M  V30 9379 H 870.374 -1.88276 -3.21532 0
M  V30 9380 H 870.487 -3.75213 -2.97913 0
M  V30 9381 H 868.851 -1.9331 -1.65841 0
M  V30 9382 H 869.634 -3.34642 -0.766133 0
M  V30 9383 N 872.079 0.78992 -1.36375 0
M  V30 9384 C 873.009 1.91683 -1.33341 0
M  V30 9385 C 873.99 1.68861 -0.204965 0
M  V30 9386 O 875.175 1.89982 -0.402531 0
M  V30 9387 C 872.305 3.28696 -1.12143 0
M  V30 9388 C 871.259 3.66041 -2.21806 0
M  V30 9389 C 870.585 5.01399 -1.85751 0
M  V30 9390 C 871.885 3.74677 -3.63888 0
M  V30 9391 H 873.579 1.94478 -2.27637 0
M  V30 9392 H 871.125 0.934271 -1.09578 0
M  V30 9393 H 873.078 4.07151 -1.08656 0
M  V30 9394 H 871.802 3.26287 -0.142974 0
M  V30 9395 H 870.461 2.89883 -2.24418 0
M  V30 9396 H 870.109 4.9551 -0.864817 0
M  V30 9397 H 869.809 5.27355 -2.59173 0
M  V30 9398 H 871.333 5.82274 -1.83819 0
M  V30 9399 H 872.747 4.43324 -3.63506 0
M  V30 9400 H 871.144 4.12118 -4.3621 0
M  V30 9401 H 872.214 2.75795 -3.9883 0
M  V30 9402 N 873.557 1.20646 1.01402 0
M  V30 9403 C 874.804 1.01819 1.7504 0
M  V30 9404 C 875.132 -0.449386 1.89237 0
M  V30 9405 O 874.387 -1.34985 1.41695 0
M  V30 9406 C 874.686 1.64991 3.17037 0
M  V30 9407 C 874.352 3.14808 3.22811 0
M  V30 9408 C 873.014 3.55692 3.24094 0
M  V30 9409 C 875.366 4.108 3.2077 0
M  V30 9410 C 872.694 4.9109 3.2101 0
M  V30 9411 C 875.046 5.46147 3.19227 0
M  V30 9412 C 873.71 5.86441 3.18815 0
M  V30 9413 H 872.98 0.372582 0.640518 0
M  V30 9414 H 875.627 1.50108 1.18911 0
M  V30 9415 H 873.932 1.08971 3.76341 0
M  V30 9416 H 875.629 1.47937 3.72714 0
M  V30 9417 H 872.219 2.8224 3.2255 0
M  V30 9418 H 876.403 3.80246 3.18946 0
M  V30 9419 H 871.659 5.21569 3.19023 0
M  V30 9420 H 875.833 6.20272 3.166 0
M  V30 9421 H 873.46 6.91328 3.16179 0
M  V30 9422 N 875.035 -1.20752 1.01276 0
M  V30 9423 C 876.263 -1.94006 0.718976 0
M  V30 9424 C 876.678 -1.74544 -0.719711 0
M  V30 9425 O 876.035 -1.05697 -1.48776 0
M  V30 9426 C 876.086 -3.46208 1.04031 0
M  V30 9427 O 875.807 -3.65031 2.42248 0
M  V30 9428 C 877.308 -4.36614 0.767032 0
M  V30 9429 H 874.528 -0.616743 0.264327 0
M  V30 9430 H 877.072 -1.53352 1.3529 0
M  V30 9431 H 875.227 -3.84756 0.451852 0
M  V30 9432 H 875.641 -4.59054 2.53712 0
M  V30 9433 H 877.115 -5.42076 1.04198 0
M  V30 9434 H 877.592 -4.38182 -0.298851 0
M  V30 9435 H 878.198 -4.03723 1.33746 0
M  V30 9436 N 876.513 -0.788492 -1.36457 0
M  V30 9437 C 877.759 -0.370067 -2.00005 0
M  V30 9438 C 878.114 1.0464 -1.61456 0
M  V30 9439 O 877.407 1.71277 -0.85876 0
M  V30 9440 C 877.601 -0.470255 -3.54293 0
M  V30 9441 C 877.43 -1.89492 -4.07827 0
M  V30 9442 C 876.2 -2.51932 -4.38016 0
M  V30 9443 C 878.398 -2.85692 -4.2765 0
M  V30 9444 N 876.38 -3.85997 -4.77368 0
M  V30 9445 C 877.751 -4.04588 -4.69796 0
M  V30 9446 C 879.806 -2.8276 -4.09818 0
M  V30 9447 C 878.509 -5.2096 -4.95977 0
M  V30 9448 C 880.535 -3.98319 -4.37145 0
M  V30 9449 C 879.897 -5.1596 -4.79547 0
M  V30 9450 H 875.996 -0.182813 -0.760331 0
M  V30 9451 H 878.58 -1.02589 -1.6548 0
M  V30 9452 H 876.751 0.155476 -3.88089 0
M  V30 9453 H 878.483 -0.0281643 -4.0469 0
M  V30 9454 H 875.238 -2.0342 -4.27688 0
M  V30 9455 H 875.662 -4.54971 -5.01329 0
M  V30 9456 H 880.304 -1.92971 -3.76194 0
M  V30 9457 H 878.022 -6.11335 -5.28483 0
M  V30 9458 H 881.608 -3.97411 -4.24919 0
M  V30 9459 H 880.488 -6.03893 -5.00283 0
M  V30 9460 N 877.991 1.48044 -0.54043 0
M  V30 9461 C 878.921 2.32597 0.205178 0
M  V30 9462 C 879.902 1.42748 0.925041 0
M  V30 9463 O 881.087 1.71624 0.908784 0
M  V30 9464 C 878.217 3.24175 1.24612 0
M  V30 9465 C 877.171 4.23131 0.64376 0
M  V30 9466 C 876.497 5.03915 1.78812 0
M  V30 9467 C 877.797 5.20831 -0.39144 0
M  V30 9468 H 879.491 2.95184 -0.500676 0
M  V30 9469 H 877.037 1.41948 -0.242225 0
M  V30 9470 H 878.99 3.82158 1.77576 0
M  V30 9471 H 877.714 2.59608 1.98169 0
M  V30 9472 H 876.373 3.66349 0.135554 0
M  V30 9473 H 876.021 4.35765 2.51232 0
M  V30 9474 H 875.721 5.709 1.39094 0
M  V30 9475 H 877.245 5.64753 2.32134 0
M  V30 9476 H 878.659 5.73277 0.0515064 0
M  V30 9477 H 877.056 5.95926 -0.706569 0
M  V30 9478 H 878.126 4.6733 -1.29345 0
M  V30 9479 N 879.47 0.276058 1.55163 0
M  V30 9480 C 880.417 -0.611006 2.22565 0
M  V30 9481 C 881.387 -1.14902 1.19945 0
M  V30 9482 O 882.572 -1.19815 1.48489 0
M  V30 9483 C 879.712 -1.78885 2.95117 0
M  V30 9484 C 878.825 -1.2846 4.12458 0
M  V30 9485 C 877.96 -2.42432 4.72652 0
M  V30 9486 C 876.999 -1.89015 5.82185 0
M  V30 9487 N 876.136 -2.96463 6.36439 0
M  V30 9488 H 880.976 -0.0295849 2.97985 0
M  V30 9489 H 878.513 -0.00283607 1.471 0
M  V30 9490 H 880.471 -2.48121 3.35398 0
M  V30 9491 H 879.101 -2.34229 2.22119 0
M  V30 9492 H 878.153 -0.485312 3.77292 0
M  V30 9493 H 879.465 -0.853358 4.91446 0
M  V30 9494 H 878.619 -3.19659 5.15658 0
M  V30 9495 H 877.358 -2.88872 3.92943 0
M  V30 9496 H 876.363 -1.10267 5.38629 0
M  V30 9497 H 877.588 -1.43509 6.63763 0
M  V30 9498 H 875.534 -3.42283 5.59623 0
M  V30 9499 H 875.451 -2.57759 7.10701 0
M  V30 9500 H 876.719 -3.73663 6.84103 0
M  V30 9501 N 880.948 -1.576 0.00335426 0
M  V30 9502 C 882.225 -1.81945 -0.718015 0
M  V30 9503 C 882.605 -0.881788 -1.91801 0
M  V30 9504 O 881.953 0.0687118 -2.28397 0
M  V30 9505 C 882.163 -3.30521 -1.12058 0
M  V30 9506 C 883.511 -3.96345 -1.52303 0
M  V30 9507 O 884.535 -3.34864 -1.21428 0
M  V30 9508 O 883.394 -5.04655 -2.09728 0
M  V30 9509 H 880.488 -0.749328 -0.34991 0
M  V30 9510 H 883.034 -1.69675 0.0290654 0
M  V30 9511 H 881.806 -3.90399 -0.265378 0
M  V30 9512 H 881.429 -3.47802 -1.92665 0
M  V30 9513 N 882.426 0.269451 -1.5528 0
M  V30 9514 C 883.358 1.35553 -1.84819 0
M  V30 9515 C 884.371 1.45369 -0.732914 0
M  V30 9516 O 885.56 1.47122 -1.0108 0
M  V30 9517 C 882.66 2.73645 -1.9993 0
M  V30 9518 C 881.833 2.86376 -3.30617 0
M  V30 9519 C 880.892 4.05165 -3.35749 0
M  V30 9520 O 879.918 3.95756 -4.09104 0
M  V30 9521 N 881.12 5.17297 -2.63408 0
M  V30 9522 H 883.885 1.10557 -2.78563 0
M  V30 9523 H 881.446 0.459566 -1.5524 0
M  V30 9524 H 883.438 3.51411 -2.00729 0
M  V30 9525 H 882.008 2.91448 -1.13035 0
M  V30 9526 H 881.228 1.95465 -3.42326 0
M  V30 9527 H 882.516 2.91815 -4.16799 0
M  V30 9528 H 881.914 5.2783 -2.03501 0
M  V30 9529 H 880.471 5.93281 -2.69927 0
M  V30 9530 N 883.904 1.48273 0.534124 0
M  V30 9531 C 884.852 1.62926 1.66005 0
M  V30 9532 C 885.846 0.495814 1.61982 0
M  V30 9533 O 887.052 0.6744 1.66889 0
M  V30 9534 H 883.427 0.513163 0.549698 0
M  V30 9535 H 885.398 2.57498 1.50789 0
M  V30 9536 C 884.147 1.68231 3.04292 0
M  V30 9537 H 883.47 2.54807 3.0808 0
M  V30 9538 H 884.91 1.82528 3.827 0
M  V30 9539 C 883.369 0.420154 3.3427 0
M  V30 9540 O 883.899 -0.468769 3.98955 0
M  V30 9541 N 882.105 0.293115 2.89118 0
M  V30 9542 H 881.652 1.01745 2.36655 0
M  V30 9543 H 881.61 -0.550376 3.09545 0
M  V30 9544 N 885.382 -0.782676 1.36792 0
M  V30 9545 C 886.329 -1.89558 1.31667 0
M  V30 9546 C 887.299 -1.65076 0.184147 0
M  V30 9547 O 888.484 -1.87143 0.371753 0
M  V30 9548 C 885.624 -3.26469 1.11858 0
M  V30 9549 C 884.737 -3.62978 2.34245 0
M  V30 9550 C 883.872 -4.89041 2.07394 0
M  V30 9551 C 882.911 -5.18249 3.25706 0
M  V30 9552 N 882.048 -6.35497 2.98476 0
M  V30 9553 H 886.888 -1.93274 2.26824 0
M  V30 9554 H 884.425 -0.945057 1.12726 0
M  V30 9555 H 886.383 -4.05431 0.983968 0
M  V30 9556 H 885.013 -3.22158 0.203531 0
M  V30 9557 H 884.065 -2.79087 2.58485 0
M  V30 9558 H 885.377 -3.80507 3.22514 0
M  V30 9559 H 884.531 -5.75883 1.90901 0
M  V30 9560 H 883.27 -4.73594 1.16446 0
M  V30 9561 H 882.275 -4.29887 3.4275 0
M  V30 9562 H 883.5 -5.35611 4.1749 0
M  V30 9563 H 881.446 -6.21429 2.10146 0
M  V30 9564 H 881.363 -6.5339 3.80286 0
M  V30 9565 H 882.631 -7.25304 2.85577 0
M  V30 9566 N 886.86 -1.21182 -1.00761 0
M  V30 9567 C 887.808 -0.965728 -2.11604 0
M  V30 9568 C 888.802 0.0861028 -1.69181 0
M  V30 9569 O 890.008 -0.0650558 -1.79882 0
M  V30 9570 H 886.383 -0.295023 -0.691712 0
M  V30 9571 H 888.354 -1.90667 -2.2954 0
M  V30 9572 C 887.103 -0.544164 -3.43415 0
M  V30 9573 H 886.426 -1.34515 -3.76491 0
M  V30 9574 H 887.866 -0.411268 -4.22001 0
M  V30 9575 C 886.325 0.744583 -3.28569 0
M  V30 9576 O 886.855 1.80078 -3.59075 0
M  V30 9577 N 885.061 0.710083 -2.81791 0
M  V30 9578 H 884.608 -0.14971 -2.57165 0
M  V30 9579 H 884.566 1.57268 -2.72239 0
M  V30 9580 N 888.338 1.20213 -1.01915 0
M  V30 9581 C 889.563 1.94163 -0.729076 0
M  V30 9582 C 889.988 1.74416 0.704323 0
M  V30 9583 O 889.346 1.0401 1.48498 0
M  V30 9584 C 889.394 3.44258 -1.07324 0
M  V30 9585 O 888.498 4.11979 -0.186367 0
M  V30 9586 H 887.839 0.606506 -0.270272 0
M  V30 9587 H 890.369 1.52571 -1.3632 0
M  V30 9588 H 890.379 3.94888 -1.02603 0
M  V30 9589 H 889.054 3.57954 -2.11759 0
M  V30 9590 H 887.631 3.7176 -0.291334 0
M  V30 9591 N 889.816 0.795718 1.36037 0
M  V30 9592 C 891.063 0.371024 1.99072 0
M  V30 9593 C 891.391 -1.05896 1.63145 0
M  V30 9594 O 890.646 -1.7474 0.881163 0
M  V30 9595 C 890.945 0.489038 3.54038 0
M  V30 9596 C 890.611 1.88075 4.09803 0
M  V30 9597 C 889.273 2.26152 4.24745 0
M  V30 9598 C 891.625 2.79174 4.40126 0
M  V30 9599 C 888.953 3.54718 4.67324 0
M  V30 9600 C 891.305 4.07175 4.8414 0
M  V30 9601 C 889.969 4.45266 4.97287 0
M  V30 9602 H 889.239 0.135767 0.728456 0
M  V30 9603 H 891.886 1.0144 1.62426 0
M  V30 9604 H 890.191 -0.237823 3.91078 0
M  V30 9605 H 891.888 0.141374 4.00751 0
M  V30 9606 H 888.478 1.57488 3.98617 0
M  V30 9607 H 892.662 2.51009 4.28145 0
M  V30 9608 H 887.918 3.84093 4.75691 0
M  V30 9609 H 892.092 4.77875 5.06565 0
M  V30 9610 H 889.719 5.44943 5.30038 0
M  V30 9611 N 891.294 -1.47756 0.548274 0
M  V30 9612 C 892.54 -2.02789 0.0209265 0
M  V30 9613 C 892.873 -1.42268 -1.32187 0
M  V30 9614 O 892.148 -0.575001 -1.85806 0
M  V30 9615 C 892.431 -3.60007 -0.0816674 0
M  V30 9616 C 892.284 -4.30977 1.28759 0
M  V30 9617 C 893.603 -4.32777 -0.799515 0
M  V30 9618 H 890.722 -0.736944 0.00907884 0
M  V30 9619 H 893.364 -1.76282 0.708839 0
M  V30 9620 H 891.514 -3.82722 -0.667537 0
M  V30 9621 H 893.186 -4.19629 1.91597 0
M  V30 9622 H 891.429 -3.9168 1.86466 0
M  V30 9623 H 892.1 -5.39488 1.16861 0
M  V30 9624 H 894.576 -4.15001 -0.30216 0
M  V30 9625 H 893.452 -5.42431 -0.840239 0
M  V30 9626 H 893.713 -4.01358 -1.85375 0
M  V30 9627 N 892.772 -0.284283 -1.55015 0
M  V30 9628 C 894.02 0.329212 -1.99401 0
M  V30 9629 C 894.341 1.55687 -1.17416 0
M  V30 9630 O 893.611 1.94087 -0.265937 0
M  V30 9631 H 892.191 0.12463 -0.73653 0
M  V30 9632 H 894.853 -0.391743 -1.90922 0
M  V30 9633 H 893.949 0.61278 -3.06025 0
M  V30 9634 N 894.251 1.57596 -0.0117121 0
M  V30 9635 C 895.497 1.92189 0.665966 0
M  V30 9636 C 895.852 0.887145 1.70726 0
M  V30 9637 O 895.145 -0.099151 1.91343 0
M  V30 9638 C 895.339 3.31296 1.34082 0
M  V30 9639 C 895.168 4.48205 0.366406 0
M  V30 9640 C 893.938 5.05293 -0.0274458 0
M  V30 9641 C 896.136 5.12951 -0.37219 0
M  V30 9642 N 894.118 6.0572 -0.998846 0
M  V30 9643 C 895.489 6.08318 -1.1979 0
M  V30 9644 C 897.544 4.95998 -0.434768 0
M  V30 9645 C 896.247 6.88555 -2.0805 0
M  V30 9646 C 898.273 5.7683 -1.30464 0
M  V30 9647 C 897.635 6.71798 -2.11816 0
M  V30 9648 H 893.734 0.751422 0.216537 0
M  V30 9649 H 896.318 1.94556 -0.0748079 0
M  V30 9650 H 894.489 3.2978 2.05182 0
M  V30 9651 H 896.221 3.53285 1.97413 0
M  V30 9652 H 892.976 4.72354 0.343382 0
M  V30 9653 H 893.4 6.60619 -1.48027 0
M  V30 9654 H 898.042 4.22417 0.179925 0
M  V30 9655 H 895.76 7.61453 -2.70581 0
M  V30 9656 H 899.346 5.6575 -1.35712 0
M  V30 9657 H 898.226 7.33256 -2.78037 0
M  V30 9658 N 895.729 -0.261212 1.5542 0
M  V30 9659 C 896.954 -1.01341 1.80955 0
M  V30 9660 C 897.379 -1.78711 0.586849 0
M  V30 9661 O 896.737 -1.75266 -0.463837 0
M  V30 9662 C 896.785 -1.93835 3.04073 0
M  V30 9663 O 895.889 -3.02791 2.79985 0
M  V30 9664 H 895.23 -0.289123 0.597749 0
M  V30 9665 H 897.76 -0.286543 2.02584 0
M  V30 9666 H 897.77 -2.3557 3.33123 0
M  V30 9667 H 896.445 -1.36936 3.9271 0
M  V30 9668 H 895.022 -2.65287 2.62063 0
M  V30 9669 N 897.207 -1.48554 -0.526253 0
M  V30 9670 C 898.435 -1.60429 -1.30652 0
M  V30 9671 C 898.85 -0.265963 -1.86917 0
M  V30 9672 O 898.207 0.745262 -1.6659 0
M  V30 9673 C 898.258 -2.65377 -2.45473 0
M  V30 9674 O 897.979 -3.94017 -1.91527 0
M  V30 9675 C 899.48 -2.87726 -3.37237 0
M  V30 9676 H 896.7 -0.540817 -0.397187 0
M  V30 9677 H 899.244 -1.94409 -0.634461 0
M  V30 9678 H 897.399 -2.34246 -3.08557 0
M  V30 9679 H 897.813 -4.51623 -2.66715 0
M  V30 9680 H 899.287 -3.64951 -4.14144 0
M  V30 9681 H 899.764 -1.96688 -3.92696 0
M  V30 9682 H 900.37 -3.20176 -2.79942 0
M  V30 9683 N 898.685 0.775411 -1.37205 0
M  V30 9684 C 899.962 1.5229 -1.22748 0
M  V30 9685 C 900.342 2.10327 0.180487 0
M  V30 9686 O 899.69 1.95206 1.18772 0
M  V30 9687 C 899.9 2.60671 -2.3206 0
M  V30 9688 C 901.248 3.28173 -2.6942 0
M  V30 9689 O 902.272 2.70963 -2.31208 0
M  V30 9690 O 901.131 4.31598 -3.3524 0
M  V30 9691 H 898.225 0.674326 -0.478762 0
M  V30 9692 H 900.771 0.812691 -1.48975 0
M  V30 9693 H 899.543 2.1588 -3.26361 0
M  V30 9694 H 899.166 3.39296 -2.07277 0
M  V30 9695 N 900.163 1.21714 1.00117 0
M  V30 9696 C 901.409 1.04829 1.74306 0
M  V30 9697 C 901.764 -0.413387 1.87907 0
M  V30 9698 O 901.057 -1.30258 1.40512 0
M  V30 9699 C 901.251 1.68345 3.15269 0
M  V30 9700 C 901.08 3.20537 3.15414 0
M  V30 9701 C 899.85 3.896 3.21776 0
M  V30 9702 C 902.048 4.17576 3.00224 0
M  V30 9703 N 900.03 5.28949 3.11587 0
M  V30 9704 C 901.401 5.43701 2.97974 0
M  V30 9705 C 903.456 4.08575 2.84554 0
M  V30 9706 C 902.159 6.61861 2.8166 0
M  V30 9707 C 904.185 5.26375 2.69598 0
M  V30 9708 C 903.547 6.51414 2.68028 0
M  V30 9709 H 899.646 0.437964 0.647852 0
M  V30 9710 H 902.23 1.54128 1.18965 0
M  V30 9711 H 900.401 1.21607 3.68872 0
M  V30 9712 H 902.133 1.44629 3.77974 0
M  V30 9713 H 898.888 3.40548 3.29126 0
M  V30 9714 H 899.312 6.01945 3.09825 0
M  V30 9715 H 903.954 3.12696 2.84571 0
M  V30 9716 H 901.672 7.57896 2.8039 0
M  V30 9717 H 905.258 5.21235 2.58468 0
M  V30 9718 H 904.138 7.41033 2.56593 0
M  V30 9719 N 901.641 -1.19671 1.02551 0
M  V30 9720 C 902.866 -1.93774 0.739363 0
M  V30 9721 C 903.291 -1.74787 -0.695064 0
M  V30 9722 O 902.649 -1.04796 -1.47944 0
M  V30 9723 C 902.697 -3.43684 1.09149 0
M  V30 9724 O 901.801 -4.11874 0.208213 0
M  V30 9725 H 901.142 -0.605064 0.273484 0
M  V30 9726 H 903.672 -1.51846 1.37128 0
M  V30 9727 H 903.682 -3.94339 1.04695 0
M  V30 9728 H 902.357 -3.56826 2.13654 0
M  V30 9729 H 900.934 -3.716 0.311045 0
M  V30 9730 N 903.119 -0.802921 -1.35613 0
M  V30 9731 C 904.53 -0.443004 -1.81368 0
M  V30 9732 C 904.881 1.03459 -1.66706 0
M  V30 9733 O 904.006 1.80372 -1.19561 0
M  V30 9734 C 904.601 -0.797324 -3.29284 0
M  V30 9735 C 903.16 -0.490055 -3.73196 0
M  V30 9736 C 902.307 -1.02487 -2.57666 0
M  V30 9737 H 905.258 -0.994888 -1.23643 0
M  V30 9738 H 905.279 -0.0934638 -3.80385 0
M  V30 9739 H 904.791 -1.87278 -3.39924 0
M  V30 9740 H 902.892 0.576818 -3.68108 0
M  V30 9741 H 903.005 -1.02012 -4.68114 0
M  V30 9742 H 901.369 -0.44738 -2.5074 0
M  V30 9743 H 902.152 -2.10636 -2.71085 0
M  V30 9744 N 904.597 1.47463 -0.556102 0
M  V30 9745 C 905.827 2.06568 -0.0364056 0
M  V30 9746 C 906.235 1.40939 1.26225 0
M  V30 9747 O 905.578 0.499572 1.76777 0
M  V30 9748 C 905.64 3.58755 0.231278 0
M  V30 9749 C 905.304 4.46417 -0.977776 0
M  V30 9750 C 906.301 4.846 -1.88305 0
M  V30 9751 C 903.986 4.87948 -1.19214 0
M  V30 9752 C 905.98 5.63111 -2.98639 0
M  V30 9753 C 903.667 5.66224 -2.29857 0
M  V30 9754 C 904.665 6.03716 -3.194 0
M  V30 9755 O 904.353 6.80415 -4.28125 0
M  V30 9756 H 904.085 0.674675 -0.042305 0
M  V30 9757 H 906.639 1.9047 -0.768775 0
M  V30 9758 H 904.869 3.73061 1.01794 0
M  V30 9759 H 906.558 3.99884 0.696221 0
M  V30 9760 H 907.324 4.53115 -1.72949 0
M  V30 9761 H 903.203 4.58233 -0.504347 0
M  V30 9762 H 906.747 5.92293 -3.68557 0
M  V30 9763 H 902.644 5.97121 -2.45186 0
M  V30 9764 H 903.412 6.98807 -4.26159 0
M  V30 9765 N 906.075 0.2925 1.54862 0
M  V30 9766 C 907.038 -0.574423 2.21885 0
M  V30 9767 C 908.038 -1.06791 1.20218 0
M  V30 9768 O 909.228 -0.9653 1.45009 0
M  V30 9769 C 906.36 -1.79438 2.89853 0
M  V30 9770 H 907.553 0.0110319 2.99898 0
M  V30 9771 H 905.106 0.043256 1.5624 0
M  V30 9772 H 905.841 -2.4199 2.15897 0
M  V30 9773 H 905.626 -1.44827 3.64373 0
M  V30 9774 H 907.116 -2.41048 3.41007 0
M  V30 9775 N 907.553 -1.57587 0.0200696 0
M  V30 9776 C 908.83 -1.82696 -0.698677 0
M  V30 9777 C 909.21 -0.902082 -1.90855 0
M  V30 9778 O 908.558 0.0444834 -2.28457 0
M  V30 9779 C 908.768 -3.31691 -1.08546 0
M  V30 9780 C 910.116 -3.97938 -1.4809 0
M  V30 9781 O 911.14 -3.36133 -1.17869 0
M  V30 9782 O 909.999 -5.06851 -2.04364 0
M  V30 9783 H 907.093 -0.752997 -0.341942 0
M  V30 9784 H 909.639 -1.69635 0.04706 0
M  V30 9785 H 908.411 -3.90659 -0.223956 0
M  V30 9786 H 908.034 -3.49825 -1.88965 0
M  V30 9787 N 909.032 0.252966 -1.55557 0
M  V30 9788 C 909.964 1.33585 -1.86246 0
M  V30 9789 C 910.977 1.44584 -0.748291 0
M  V30 9790 O 912.166 1.46042 -1.02635 0
M  V30 9791 C 909.266 2.71509 -2.02821 0
M  V30 9792 C 908.439 2.82853 -3.33636 0
M  V30 9793 C 907.498 4.01581 -3.40028 0
M  V30 9794 O 906.524 3.91394 -4.13278 0
M  V30 9795 N 907.726 5.14474 -2.6888 0
M  V30 9796 H 910.491 1.07596 -2.7972 0
M  V30 9797 H 908.052 0.443075 -1.55719 0
M  V30 9798 H 910.044 3.49262 -2.04445 0
M  V30 9799 H 908.614 2.90232 -1.1612 0
M  V30 9800 H 907.834 1.91823 -3.4438 0
M  V30 9801 H 909.122 2.87378 -4.19871 0
M  V30 9802 H 908.52 5.25641 -2.09087 0
M  V30 9803 H 907.077 5.90385 -2.76204 0
M  V30 9804 N 910.51 1.48831 0.518367 0
M  V30 9805 C 911.735 1.61379 1.30275 0
M  V30 9806 C 912.16 0.278571 1.86026 0
M  V30 9807 O 911.518 -0.751427 1.64995 0
M  V30 9808 C 911.566 2.67225 2.42122 0
M  V30 9809 O 910.67 2.25192 3.45489 0
M  V30 9810 H 910.011 0.540742 0.385349 0
M  V30 9811 H 912.541 1.949 0.622498 0
M  V30 9812 H 912.551 2.88859 2.8814 0
M  V30 9813 H 911.226 3.64155 2.00907 0
M  V30 9814 H 909.803 2.13819 3.05509 0
M  V30 9815 N 911.988 -0.768124 1.37614 0
M  V30 9816 C 913.237 -1.5221 1.32345 0
M  V30 9817 C 913.55 -1.95399 -0.0885761 0
M  V30 9818 O 914.756 -2.70216 -0.263752 0
M  V30 9819 C 913.212 -2.74872 2.32322 0
M  V30 9820 C 912.82 -2.38767 3.79071 0
M  V30 9821 C 914.564 -3.52805 2.36069 0
M  V30 9822 C 912.471 -3.57953 4.7077 0
M  V30 9823 H 911.401 -0.571461 0.491883 0
M  V30 9824 H 914.052 -0.841004 1.63093 0
M  V30 9825 H 912.434 -3.44889 1.94596 0
M  V30 9826 H 913.608 -1.7651 4.25654 0
M  V30 9827 H 911.923 -1.74 3.78303 0
M  V30 9828 H 914.52 -4.41397 3.01782 0
M  V30 9829 H 914.863 -3.92925 1.37535 0
M  V30 9830 H 915.396 -2.89788 2.72521 0
M  V30 9831 H 912.135 -3.22911 5.70446 0
M  V30 9832 H 911.655 -4.19302 4.28889 0
M  V30 9833 H 913.334 -4.2472 4.8808 0
M  V30 9834 N 913.466 -1.22244 -0.994698 0
M  V30 9835 C 914.413 -0.990906 -2.08446 0
M  V30 9836 C 915.383 0.086737 -1.65873 0
M  V30 9837 O 916.568 -0.0624882 -1.90698 0
M  V30 9838 C 913.708 -0.572813 -3.40313 0
M  V30 9839 C 912.821 -1.72103 -3.96238 0
M  V30 9840 C 911.956 -1.2511 -5.16257 0
M  V30 9841 C 910.995 -2.37098 -5.64315 0
M  V30 9842 N 910.132 -1.91164 -6.75574 0
M  V30 9843 H 914.972 -1.92377 -2.27585 0
M  V30 9844 H 912.509 -0.958576 -1.11578 0
M  V30 9845 H 914.467 -0.311594 -4.16035 0
M  V30 9846 H 913.097 0.323044 -3.21179 0
M  V30 9847 H 912.149 -2.09662 -3.17405 0
M  V30 9848 H 913.461 -2.56347 -4.27888 0
M  V30 9849 H 912.615 -0.947152 -5.99261 0
M  V30 9850 H 911.354 -0.378836 -4.86226 0
M  V30 9851 H 910.359 -2.68283 -4.799 0
M  V30 9852 H 911.584 -3.24837 -5.96371 0
M  V30 9853 H 909.53 -1.06298 -6.47331 0
M  V30 9854 H 909.447 -2.68975 -7.06533 0
M  V30 9855 H 910.715 -1.63833 -7.62088 0
M  V30 9856 N 914.944 1.19125 -1.03184 0
M  V30 9857 C 916.19 1.89163 -0.731111 0
M  V30 9858 C 916.523 1.79604 0.738662 0
M  V30 9859 O 915.798 1.19037 1.53819 0
M  V30 9860 C 916.081 3.39986 -1.18666 0
M  V30 9861 C 915.934 3.58401 -2.71788 0
M  V30 9862 C 917.253 4.33316 -0.769772 0
M  V30 9863 H 914.372 0.686908 -0.267069 0
M  V30 9864 H 917.014 1.40205 -1.28229 0
M  V30 9865 H 915.164 3.81813 -0.717736 0
M  V30 9866 H 916.836 3.25727 -3.26649 0
M  V30 9867 H 915.079 3.01355 -3.12038 0
M  V30 9868 H 915.75 4.64189 -2.98719 0
M  V30 9869 H 918.226 3.9922 -1.17314 0
M  V30 9870 H 917.102 5.37427 -1.11637 0
M  V30 9871 H 917.363 4.40884 0.327681 0
M  V30 9872 N 916.422 0.810101 1.35185 0
M  V30 9873 C 917.838 0.494269 1.51754 0
M  V30 9874 C 918.038 -0.983907 1.75845 0
M  V30 9875 O 917.094 -1.76882 1.80191 0
M  V30 9876 C 918.407 1.34268 2.69059 0
M  V30 9877 C 919.955 1.33848 2.82938 0
M  V30 9878 C 920.43 2.17109 4.03271 0
M  V30 9879 N 921.921 2.14664 4.10456 0
M  V30 9880 C 922.656 2.75843 5.02691 0
M  V30 9881 N 922.152 3.45962 6.00235 0
M  V30 9882 N 923.945 2.65465 4.95464 0
M  V30 9883 H 916.096 1.76736 1.17805 0
M  V30 9884 H 918.359 0.752429 0.576676 0
M  V30 9885 H 918.065 2.39183 2.57845 0
M  V30 9886 H 917.939 0.998362 3.63748 0
M  V30 9887 H 920.326 0.29716 2.936 0
M  V30 9888 H 920.407 1.72269 1.89095 0
M  V30 9889 H 920.051 3.21283 3.93369 0
M  V30 9890 H 919.981 1.76046 4.96302 0
M  V30 9891 H 922.472 1.63648 3.40628 0
M  V30 9892 H 922.785 3.89922 6.67219 0
M  V30 9893 H 921.13 3.50067 6.00398 0
M  V30 9894 H 924.321 2.1027 4.18215 0
M  V30 9895 H 924.494 3.13433 5.67154 0
M  V30 9896 N 917.9 -1.47166 0.563914 0
M  V30 9897 C 919.149 -2.0166 0.0401871 0
M  V30 9898 C 919.462 -1.44303 -1.32046 0
M  V30 9899 O 920.668 -1.905 -1.93448 0
M  V30 9900 C 919.124 -3.59894 0.0213257 0
M  V30 9901 C 918.732 -4.26244 1.37914 0
M  V30 9902 C 920.476 -4.22114 -0.449442 0
M  V30 9903 C 918.383 -5.76503 1.31902 0
M  V30 9904 H 917.313 -0.753916 0.0112534 0
M  V30 9905 H 919.964 -1.69091 0.712766 0
M  V30 9906 H 918.346 -3.89454 -0.717038 0
M  V30 9907 H 919.52 -4.08317 2.13574 0
M  V30 9908 H 917.835 -3.76039 1.78839 0
M  V30 9909 H 920.432 -5.32234 -0.51292 0
M  V30 9910 H 920.775 -3.89749 -1.46291 0
M  V30 9911 H 921.308 -3.9711 0.23427 0
M  V30 9912 H 918.047 -6.13498 2.3087 0
M  V30 9913 H 917.567 -5.96748 0.604324 0
M  V30 9914 H 919.246 -6.38846 1.02392 0
M  V30 9915 N 919.378 -0.300708 -1.54705 0
M  V30 9916 C 920.603 0.314073 -2.05008 0
M  V30 9917 C 921.028 1.46759 -1.17657 0
M  V30 9918 O 920.386 1.80398 -0.180598 0
M  V30 9919 C 920.434 0.748243 -3.52752 0
M  V30 9920 O 919.538 1.85305 -3.68424 0
M  V30 9921 H 918.879 0.0610139 -0.661191 0
M  V30 9922 H 921.409 -0.442467 -1.99758 0
M  V30 9923 H 921.419 1.03713 -3.94598 0
M  V30 9924 H 920.094 -0.095573 -4.1579 0
M  V30 9925 H 918.671 1.56473 -3.38483 0
M  V30 9926 N 920.856 1.57574 -0.0284266 0
M  V30 9927 C 921.786 2.1321 0.952039 0
M  V30 9928 C 922.767 1.04806 1.33977 0
M  V30 9929 O 923.952 1.32635 1.41851 0
M  V30 9930 C 921.082 2.65862 2.23461 0
M  V30 9931 C 920.036 3.79047 1.98765 0
M  V30 9932 C 919.362 4.18124 3.33281 0
M  V30 9933 C 920.662 5.05151 1.32739 0
M  V30 9934 H 922.356 2.95385 0.488705 0
M  V30 9935 H 919.902 1.42092 0.233628 0
M  V30 9936 H 921.855 3.03417 2.92431 0
M  V30 9937 H 920.579 1.80848 2.71959 0
M  V30 9938 H 919.238 3.41929 1.32213 0
M  V30 9939 H 918.886 3.30092 3.79537 0
M  V30 9940 H 918.586 4.94396 3.17563 0
M  V30 9941 H 920.11 4.58262 4.0352 0
M  V30 9942 H 921.524 5.40297 1.91708 0
M  V30 9943 H 919.921 5.86416 1.27421 0
M  V30 9944 H 920.991 4.83969 0.300261 0
M  V30 9945 N 922.334 -0.244713 1.55689 0
M  V30 9946 C 923.281 -1.30301 1.905 0
M  V30 9947 C 924.251 -1.4772 0.759478 0
M  V30 9948 O 925.436 -1.61667 1.01333 0
M  V30 9949 C 922.576 -2.653 2.20703 0
M  V30 9950 C 921.689 -2.55872 3.48071 0
M  V30 9951 C 920.824 -3.83238 3.67834 0
M  V30 9952 C 919.863 -3.68436 4.88796 0
M  V30 9953 N 919 -4.877 5.05068 0
M  V30 9954 H 923.84 -0.999143 2.80751 0
M  V30 9955 H 921.377 -0.482099 1.38976 0
M  V30 9956 H 923.335 -3.43884 2.36219 0
M  V30 9957 H 921.965 -2.93831 1.33653 0
M  V30 9958 H 921.017 -1.68846 3.40874 0
M  V30 9959 H 922.329 -2.40845 4.36801 0
M  V30 9960 H 921.483 -4.70266 3.83321 0
M  V30 9961 H 920.222 -4.01165 2.77341 0
M  V30 9962 H 919.227 -2.79793 4.73282 0
M  V30 9963 H 920.452 -3.52003 5.8075 0
M  V30 9964 H 918.398 -5.05983 4.17513 0
M  V30 9965 H 918.315 -4.75312 5.8789 0
M  V30 9966 H 919.583 -5.76219 5.24969 0
M  V30 9967 N 923.813 -1.49104 -0.510467 0
M  V30 9968 C 925.038 -1.62068 -1.29417 0
M  V30 9969 C 925.463 -0.288432 -1.85875 0
M  V30 9970 O 924.821 0.742667 -1.65391 0
M  V30 9971 C 924.869 -2.68506 -2.40701 0
M  V30 9972 O 923.973 -2.27021 -3.4429 0
M  V30 9973 H 923.314 -0.542778 -0.382476 0
M  V30 9974 H 925.844 -1.95228 -0.612154 0
M  V30 9975 H 925.854 -2.90383 -2.86604 0
M  V30 9976 H 924.529 -3.65216 -1.98973 0
M  V30 9977 H 923.106 -2.15436 -3.04371 0
M  V30 9978 N 925.291 0.760815 -1.38019 0
M  V30 9979 C 926.254 1.85604 -1.34476 0
M  V30 9980 C 927.254 1.58897 -0.24666 0
M  V30 9981 O 928.444 1.66776 -0.50314 0
M  V30 9982 C 925.576 3.22945 -1.09176 0
M  V30 9983 H 926.769 1.90155 -2.31908 0
M  V30 9984 H 924.322 0.961746 -1.23208 0
M  V30 9985 H 925.057 3.24066 -0.123216 0
M  V30 9986 H 924.842 3.43723 -1.88672 0
M  V30 9987 H 926.332 4.03022 -1.09375 0
M  V30 9988 N 926.769 1.22769 0.988202 0
M  V30 9989 C 927.699 1.02627 2.09738 0
M  V30 9990 C 928.68 -0.0543211 1.70013 0
M  V30 9991 O 929.865 0.108811 1.93895 0
M  V30 9992 C 926.995 0.608302 3.41931 0
M  V30 9993 C 925.949 1.63536 3.95525 0
M  V30 9994 C 925.275 1.07308 5.23822 0
M  V30 9995 C 926.575 3.02649 4.25677 0
M  V30 9996 H 928.269 1.954 2.26847 0
M  V30 9997 H 925.815 0.940888 1.09011 0
M  V30 9998 H 927.768 0.454478 4.18942 0
M  V30 9999 H 926.492 -0.355095 3.24664 0
M  V30 10000 H 925.151 1.77704 3.20651 0
M  V30 10001 H 924.799 0.100894 5.02899 0
M  V30 10002 H 924.499 1.75925 5.60646 0
M  V30 10003 H 926.023 0.930938 6.03462 0
M  V30 10004 H 927.437 2.91828 4.93467 0
M  V30 10005 H 925.834 3.68434 4.73684 0
M  V30 10006 H 926.904 3.52228 3.33262 0
M  V30 10007 N 928.247 -1.18576 1.03814 0
M  V30 10008 C 929.495 -1.88121 0.738574 0
M  V30 10009 C 929.816 -1.80587 -0.735744 0
M  V30 10010 O 929.086 -1.22251 -1.53074 0
M  V30 10011 H 927.666 -0.696417 0.270208 0
M  V30 10012 H 930.328 -1.43912 1.31435 0
M  V30 10013 H 929.424 -2.94222 1.04115 0
M  V30 10014 N 929.725 -0.817259 -1.34754 0
M  V30 10015 C 931.002 -0.325468 -1.92873 0
M  V30 10016 C 931.382 1.18643 -1.74606 0
M  V30 10017 O 930.73 1.9909 -1.1214 0
M  V30 10018 C 930.94 -0.74858 -3.40877 0
M  V30 10019 C 932.288 -0.744165 -4.18028 0
M  V30 10020 O 933.312 -0.690799 -3.49437 0
M  V30 10021 O 932.171 -0.812207 -5.40431 0
M  V30 10022 H 929.265 -0.0876397 -0.822343 0
M  V30 10023 H 931.811 -0.901671 -1.43764 0
M  V30 10024 H 930.583 -1.79017 -3.47949 0
M  V30 10025 H 930.206 -0.147764 -3.97325 0
M  V30 10026 N 931.203 1.46865 -0.571711 0
M  V30 10027 C 932.15 2.30189 0.167808 0
M  V30 10028 C 933.12 1.3995 0.89461 0
M  V30 10029 O 934.305 1.68905 0.887451 0
M  V30 10030 C 931.445 3.24205 1.1826 0
M  V30 10031 C 930.558 4.2954 0.460376 0
M  V30 10032 C 929.693 5.10693 1.46173 0
M  V30 10033 C 928.732 6.07788 0.725291 0
M  V30 10034 N 927.869 6.81847 1.67417 0
M  V30 10035 H 932.709 2.92902 -0.548831 0
M  V30 10036 H 930.246 1.44362 -0.282474 0
M  V30 10037 H 932.204 3.77147 1.7837 0
M  V30 10038 H 930.834 2.63324 1.86709 0
M  V30 10039 H 929.886 3.79541 -0.255546 0
M  V30 10040 H 931.198 4.98665 -0.115855 0
M  V30 10041 H 930.352 5.67857 2.13595 0
M  V30 10042 H 929.091 4.41502 2.07188 0
M  V30 10043 H 928.096 5.49787 0.037228 0
M  V30 10044 H 929.321 6.78993 0.120678 0
M  V30 10045 H 927.267 6.15376 2.27263 0
M  V30 10046 H 927.184 7.47195 1.15046 0
M  V30 10047 H 928.452 7.43577 2.33908 0
M  V30 10048 N 932.681 0.308908 1.54543 0
M  V30 10049 C 933.644 -0.550857 2.22482 0
M  V30 10050 C 934.644 -1.0551 1.21344 0
M  V30 10051 O 935.834 -0.949866 1.46025 0
M  V30 10052 C 932.966 -1.76354 2.9174 0
M  V30 10053 H 934.159 0.0428395 2.99869 0
M  V30 10054 H 931.712 0.059825 1.56185 0
M  V30 10055 H 932.447 -2.39686 2.18451 0
M  V30 10056 H 932.232 -1.40954 3.65889 0
M  V30 10057 H 933.722 -2.37417 3.43545 0
M  V30 10058 N 934.159 -1.57557 0.0367827 0
M  V30 10059 C 935.389 -1.96134 -0.649225 0
M  V30 10060 C 935.797 -0.912279 -1.65753 0
M  V30 10061 O 935.14 0.113569 -1.83349 0
M  V30 10062 C 935.202 -3.30889 -1.40545 0
M  V30 10063 C 934.866 -4.53622 -0.554609 0
M  V30 10064 C 935.863 -5.19611 0.17331 0
M  V30 10065 C 933.548 -4.99907 -0.48976 0
M  V30 10066 C 935.542 -6.3021 0.95467 0
M  V30 10067 C 933.229 -6.10386 0.295299 0
M  V30 10068 C 934.227 -6.75398 1.01621 0
M  V30 10069 O 933.915 -7.83755 1.78839 0
M  V30 10070 H 933.647 -0.650662 -0.183344 0
M  V30 10071 H 936.201 -2.05179 0.0951512 0
M  V30 10072 H 934.431 -3.18356 -2.19513 0
M  V30 10073 H 936.12 -3.54315 -1.9803 0
M  V30 10074 H 936.886 -4.84819 0.132589 0
M  V30 10075 H 932.765 -4.49105 -1.04046 0
M  V30 10076 H 936.309 -6.80886 1.51789 0
M  V30 10077 H 932.206 -6.44616 0.33771 0
M  V30 10078 H 932.974 -8.0046 1.70898 0
M  V30 10079 N 935.637 0.236453 -1.55816 0
M  V30 10080 C 936.547 1.31418 -1.94336 0
M  V30 10081 C 937.563 1.52095 -0.845164 0
M  V30 10082 O 938.739 1.65515 -1.14746 0
M  V30 10083 C 935.804 2.6468 -2.23932 0
M  V30 10084 C 934.865 2.52435 -3.47239 0
M  V30 10085 C 934.098 3.79342 -3.75414 0
M  V30 10086 O 934.321 4.81694 -3.05495 0
M  V30 10087 O 933.255 3.77347 -4.68927 0
M  V30 10088 H 937.081 1.01739 -2.86152 0
M  V30 10089 H 934.666 0.438084 -1.42833 0
M  V30 10090 H 936.548 3.4341 -2.44228 0
M  V30 10091 H 935.223 2.94071 -1.35292 0
M  V30 10092 H 934.13 1.71955 -3.32238 0
M  V30 10093 H 935.463 2.27987 -4.36214 0
M  V30 10094 N 937.115 1.49373 0.502552 0
M  V30 10095 C 938.361 1.5999 1.25597 0
M  V30 10096 C 938.716 0.282287 1.90318 0
M  V30 10097 O 938.009 -0.71735 1.77664 0
M  V30 10098 C 938.203 2.69508 2.34735 0
M  V30 10099 C 938.032 4.11791 1.80716 0
M  V30 10100 C 936.802 4.78598 1.62087 0
M  V30 10101 C 939 4.97074 1.31991 0
M  V30 10102 N 936.982 6.05201 1.02981 0
M  V30 10103 C 938.353 6.14144 0.850098 0
M  V30 10104 C 940.408 4.83086 1.20549 0
M  V30 10105 C 939.111 7.18766 0.277192 0
M  V30 10106 C 941.137 5.87855 0.64656 0
M  V30 10107 C 940.499 7.04152 0.186968 0
M  V30 10108 H 936.598 0.639822 0.449613 0
M  V30 10109 H 939.182 1.86371 0.563361 0
M  V30 10110 H 937.353 2.44902 3.01459 0
M  V30 10111 H 939.085 2.69656 3.01774 0
M  V30 10112 H 935.84 4.35372 1.8641 0
M  V30 10113 H 936.264 6.72793 0.753601 0
M  V30 10114 H 940.906 3.93489 1.54681 0
M  V30 10115 H 938.624 8.08064 -0.0763971 0
M  V30 10116 H 942.21 5.79091 0.560832 0
M  V30 10117 H 941.09 7.83836 -0.238784 0
M  V30 10118 N 938.594 -0.753485 1.38421 0
M  V30 10119 C 939.542 -1.8886 1.35774 0
M  V30 10120 C 940.536 -1.67639 0.243608 0
M  V30 10121 O 941.742 -1.75206 0.412649 0
M  V30 10122 H 938.117 -0.62137 0.42356 0
M  V30 10123 H 940.088 -1.88209 2.3156 0
M  V30 10124 C 938.837 -3.26344 1.19979 0
M  V30 10125 H 938.16 -3.43259 2.04971 0
M  V30 10126 H 939.6 -4.06015 1.22181 0
M  V30 10127 C 938.059 -3.36771 -0.0932867 0
M  V30 10128 O 938.589 -3.8718 -1.07027 0
M  V30 10129 N 936.795 -2.90212 -0.150154 0
M  V30 10130 H 936.342 -2.4938 0.645562 0
M  V30 10131 H 936.3 -2.97569 -1.0149 0
M  V30 10132 N 940.072 -1.23292 -0.981677 0
M  V30 10133 C 941.349 -0.972514 -1.6971 0
M  V30 10134 C 941.729 0.509244 -2.04866 0
M  V30 10135 O 941.077 1.48013 -1.74082 0
M  V30 10136 C 941.287 -1.88144 -2.93943 0
M  V30 10137 C 942.635 -2.14416 -3.66485 0
M  V30 10138 O 943.659 -1.85684 -3.03974 0
M  V30 10139 O 942.518 -2.63139 -4.78978 0
M  V30 10140 H 939.612 -0.366673 -0.741269 0
M  V30 10141 H 942.158 -1.34328 -1.03701 0
M  V30 10142 H 940.93 -2.8832 -2.64551 0
M  V30 10143 H 940.553 -1.51296 -3.67689 0
M  V30 10144 N 941.55 1.18024 -1.04442 0
M  V30 10145 C 942.498 2.23834 -0.632557 0
M  V30 10146 C 943.492 1.65902 0.342488 0
M  V30 10147 O 944.698 1.78778 0.20937 0
M  V30 10148 H 941.073 0.728544 -0.186353 0
M  V30 10149 H 943.044 2.55876 -1.53526 0
M  V30 10150 C 941.793 3.47697 -0.0153661 0
M  V30 10151 H 941.116 3.92574 -0.756704 0
M  V30 10152 H 942.556 4.23345 0.235541 0
M  V30 10153 C 941.015 3.13416 1.23579 0
M  V30 10154 O 941.545 3.27499 2.3261 0
M  V30 10155 N 939.751 2.67708 1.13053 0
M  V30 10156 H 939.298 2.56449 0.243277 0
M  V30 10157 H 939.256 2.45143 1.96855 0
M  V30 10158 N 943.028 0.824394 1.34319 0
M  V30 10159 C 943.938 0.24932 2.33271 0
M  V30 10160 C 944.954 -0.617066 1.62691 0
M  V30 10161 O 946.13 -0.524616 1.94447 0
M  V30 10162 C 943.195 -0.578094 3.41846 0
M  V30 10163 C 942.256 0.310866 4.28173 0
M  V30 10164 C 941.489 -0.477153 5.31563 0
M  V30 10165 O 941.712 -1.71028 5.44156 0
M  V30 10166 O 940.646 0.141287 6.01734 0
M  V30 10167 H 944.472 1.06837 2.84288 0
M  V30 10168 H 942.057 0.58657 1.37403 0
M  V30 10169 H 943.939 -1.04878 4.0814 0
M  V30 10170 H 942.614 -1.37444 2.93071 0
M  V30 10171 H 941.521 0.829081 3.64797 0
M  V30 10172 H 942.854 1.07161 4.80393 0
M  V30 10173 N 944.506 -1.46559 0.579492 0
M  V30 10174 C 945.439 -2.27287 -0.203894 0
M  V30 10175 C 946.417 -1.3543 -0.899865 0
M  V30 10176 O 947.601 -1.64836 -0.914398 0
M  V30 10177 C 944.728 -3.13077 -1.2923 0
M  V30 10178 C 943.774 -4.20675 -0.702505 0
M  V30 10179 S 944.607 -5.3345 0.468136 0
M  V30 10180 C 945.763 -6.22806 -0.621544 0
M  V30 10181 H 945.996 -2.93382 0.481083 0
M  V30 10182 H 943.529 -1.49992 0.366311 0
M  V30 10183 H 945.487 -3.63069 -1.91548 0
M  V30 10184 H 944.148 -2.46302 -1.94921 0
M  V30 10185 H 943.341 -4.80516 -1.52053 0
M  V30 10186 H 942.943 -3.73678 -0.155046 0
M  V30 10187 H 945.235 -6.60503 -1.50803 0
M  V30 10188 H 946.178 -7.08075 -0.059961 0
M  V30 10189 H 946.586 -5.56882 -0.924242 0
M  V30 10190 N 945.984 -0.3171 -1.54377 0
M  V30 10191 C 947.214 0.289138 -2.04567 0
M  V30 10192 C 947.622 1.46833 -1.19318 0
M  V30 10193 O 946.965 1.82436 -0.215141 0
M  V30 10194 C 947.027 0.792994 -3.50645 0
M  V30 10195 C 946.691 -0.263033 -4.56242 0
M  V30 10196 C 947.688 -1.09694 -5.08196 0
M  V30 10197 C 945.373 -0.409364 -5.00629 0
M  V30 10198 C 947.367 -2.06297 -6.03092 0
M  V30 10199 C 945.054 -1.37882 -5.95342 0
M  V30 10200 C 946.052 -2.20409 -6.46459 0
M  V30 10201 O 945.74 -3.15708 -7.39313 0
M  V30 10202 H 945.472 0.0644005 -0.672925 0
M  V30 10203 H 948.026 -0.459438 -2.00196 0
M  V30 10204 H 946.256 1.59237 -3.52392 0
M  V30 10205 H 947.945 1.31687 -3.83944 0
M  V30 10206 H 948.711 -0.994842 -4.74687 0
M  V30 10207 H 944.59 0.223091 -4.6046 0
M  V30 10208 H 948.134 -2.70751 -6.42915 0
M  V30 10209 H 944.031 -1.48158 -6.28267 0
M  V30 10210 H 944.799 -3.10873 -7.57166 0
M  V30 10211 N 947.462 1.57535 -0.0451378 0
M  V30 10212 C 948.392 2.14208 0.929372 0
M  V30 10213 C 949.373 1.06221 1.32858 0
M  V30 10214 O 950.558 1.34132 1.40436 0
M  V30 10215 C 947.688 2.68217 2.20629 0
M  V30 10216 C 946.642 3.81134 1.94734 0
M  V30 10217 C 945.968 4.21636 3.28828 0
M  V30 10218 C 947.268 5.06531 1.27374 0
M  V30 10219 H 948.962 2.95886 0.457348 0
M  V30 10220 H 946.508 1.42332 0.218544 0
M  V30 10221 H 948.461 3.06502 2.89196 0
M  V30 10222 H 947.185 1.83722 2.70026 0
M  V30 10223 H 945.844 3.43312 1.28579 0
M  V30 10224 H 945.492 3.34099 3.76014 0
M  V30 10225 H 945.192 4.97736 3.12302 0
M  V30 10226 H 946.716 4.62516 3.98637 0
M  V30 10227 H 948.13 5.423 1.85967 0
M  V30 10228 H 946.527 5.87735 1.21194 0
M  V30 10229 H 947.597 4.84261 0.248913 0
M  V30 10230 N 948.94 -0.228186 1.55939 0
M  V30 10231 C 950.187 -0.953552 1.78644 0
M  V30 10232 C 950.515 -1.84596 0.61275 0
M  V30 10233 O 949.77 -1.91502 -0.403175 0
M  V30 10234 C 950.069 -1.82924 3.0704 0
M  V30 10235 C 949.735 -1.09062 4.37511 0
M  V30 10236 C 948.397 -0.886565 4.72962 0
M  V30 10237 C 950.749 -0.568533 5.1809 0
M  V30 10238 C 948.077 -0.148413 5.86512 0
M  V30 10239 C 950.429 0.156243 6.32407 0
M  V30 10240 C 949.093 0.371612 6.66465 0
M  V30 10241 H 948.363 -0.348929 0.653704 0
M  V30 10242 H 951.01 -0.222211 1.90206 0
M  V30 10243 H 949.315 -2.62823 2.90571 0
M  V30 10244 H 951.012 -2.3925 3.21808 0
M  V30 10245 H 947.602 -1.25963 4.09672 0
M  V30 10246 H 951.786 -0.713673 4.91142 0
M  V30 10247 H 947.042 0.0287418 6.11393 0
M  V30 10248 H 951.216 0.568333 6.94077 0
M  V30 10249 H 948.843 0.945522 7.54297 0
M  V30 10250 N 950.418 -1.49637 -0.494624 0
M  V30 10251 C 951.834 -1.36541 -0.826361 0
M  V30 10252 C 952.034 -0.403386 -1.97421 0
M  V30 10253 O 951.09 0.162614 -2.51976 0
M  V30 10254 C 952.403 -2.77401 -1.16057 0
M  V30 10255 C 953.951 -2.86148 -1.26841 0
M  V30 10256 C 954.426 -4.27789 -1.63587 0
M  V30 10257 N 955.917 -4.3063 -1.70624 0
M  V30 10258 C 956.652 -5.37198 -2.00514 0
M  V30 10259 N 956.148 -6.54004 -2.28584 0
M  V30 10260 N 957.941 -5.2462 -2.01818 0
M  V30 10261 H 950.092 -2.10776 0.26219 0
M  V30 10262 H 952.355 -0.946419 0.0547235 0
M  V30 10263 H 952.061 -3.49526 -0.390434 0
M  V30 10264 H 951.935 -3.1317 -2.10249 0
M  V30 10265 H 954.322 -2.14256 -2.02925 0
M  V30 10266 H 954.403 -2.53953 -0.30684 0
M  V30 10267 H 954.047 -5.00209 -0.880507 0
M  V30 10268 H 953.977 -4.57453 -2.60854 0
M  V30 10269 H 956.468 -3.46393 -1.51065 0
M  V30 10270 H 956.781 -7.31041 -2.50598 0
M  V30 10271 H 955.126 -6.57219 -2.26027 0
M  V30 10272 H 958.317 -4.32371 -1.79369 0
M  V30 10273 H 958.49 -6.07765 -2.24778 0
M  V30 10274 N 951.896 0.746133 -1.38819 0
M  V30 10275 C 953.121 1.54049 -1.38866 0
M  V30 10276 C 953.546 1.88092 0.0176624 0
M  V30 10277 O 952.904 1.51113 1.00173 0
M  V30 10278 C 952.952 2.8116 -2.25791 0
M  V30 10279 O 952.056 3.76623 -1.68014 0
M  V30 10280 H 951.397 0.465648 -0.473359 0
M  V30 10281 H 953.927 0.921469 -1.82675 0
M  V30 10282 H 953.937 3.30009 -2.39913 0
M  V30 10283 H 952.612 2.55713 -3.27999 0
M  V30 10284 H 951.189 3.35352 -1.63074 0
M  V30 10285 N 953.375 1.23811 0.975125 0
M  V30 10286 C 954.6 1.10109 1.75757 0
M  V30 10287 C 955.025 -0.342922 1.84948 0
M  V30 10288 O 954.383 -1.24814 1.31496 0
M  V30 10289 C 954.431 1.73724 3.15994 0
M  V30 10290 O 953.535 1.00297 4.00018 0
M  V30 10291 H 952.876 0.385627 0.540544 0
M  V30 10292 H 955.406 1.63971 1.22372 0
M  V30 10293 H 955.416 1.79178 3.6655 0
M  V30 10294 H 954.091 2.78794 3.0862 0
M  V30 10295 H 952.668 1.02575 3.58515 0
M  V30 10296 N 954.853 -1.17469 1.05066 0
M  V30 10297 C 956.099 -1.87976 0.761113 0
M  V30 10298 C 956.432 -1.80756 -0.709995 0
M  V30 10299 O 955.707 -1.21469 -1.51906 0
M  V30 10300 C 955.99 -3.38055 1.2406 0
M  V30 10301 C 955.843 -3.54032 2.77455 0
M  V30 10302 C 957.162 -4.32036 0.838612 0
M  V30 10303 H 954.281 -0.682573 0.277963 0
M  V30 10304 H 956.923 -1.38147 1.30443 0
M  V30 10305 H 955.073 -3.80622 0.778388 0
M  V30 10306 H 956.745 -3.20489 3.3179 0
M  V30 10307 H 954.988 -2.96352 3.16793 0
M  V30 10308 H 955.659 -4.59377 3.06066 0
M  V30 10309 H 958.135 -3.97303 1.23651 0
M  V30 10310 H 957.011 -5.35583 1.20173 0
M  V30 10311 H 957.272 -4.41349 -0.257498 0
M  V30 10312 N 956.331 -0.831506 -1.3388 0
M  V30 10313 C 957.294 -0.264773 -2.27666 0
M  V30 10314 C 958.294 0.562273 -1.50649 0
M  V30 10315 O 959.484 0.377131 -1.70069 0
M  V30 10316 C 956.616 0.627814 -3.35069 0
M  V30 10317 H 957.809 -1.09225 -2.79303 0
M  V30 10318 H 955.362 -0.604021 -1.44157 0
M  V30 10319 H 956.097 1.47802 -2.88661 0
M  V30 10320 H 955.882 0.0361552 -3.92083 0
M  V30 10321 H 957.372 1.01786 -4.05005 0
M  V30 10322 N 957.809 1.4625 -0.587256 0
M  V30 10323 C 959.039 2.06444 -0.0802135 0
M  V30 10324 C 959.447 1.43585 1.23207 0
M  V30 10325 O 958.79 0.536956 1.75677 0
M  V30 10326 C 958.852 3.59165 0.155129 0
M  V30 10327 C 958.516 4.44243 -1.07225 0
M  V30 10328 C 959.513 4.80497 -1.98542 0
M  V30 10329 C 957.198 4.8531 -1.29537 0
M  V30 10330 C 959.192 5.56649 -3.10516 0
M  V30 10331 C 956.879 5.61221 -2.41815 0
M  V30 10332 C 957.877 5.96805 -3.32134 0
M  V30 10333 O 957.565 6.71181 -4.42461 0
M  V30 10334 H 957.297 0.673626 -0.0566063 0
M  V30 10335 H 959.851 1.88797 -0.809004 0
M  V30 10336 H 958.081 3.75137 0.938583 0
M  V30 10337 H 959.77 4.01271 0.611243 0
M  V30 10338 H 960.536 4.49345 -1.82522 0
M  V30 10339 H 956.415 4.5706 -0.601431 0
M  V30 10340 H 959.959 5.84343 -3.81037 0
M  V30 10341 H 955.856 5.91786 -2.57797 0
M  V30 10342 H 956.624 6.8961 -4.40886 0
M  V30 10343 N 959.287 0.325282 1.54207 0
M  V30 10344 C 960.25 -0.527228 2.23054 0
M  V30 10345 C 961.25 -1.04217 1.22456 0
M  V30 10346 O 962.44 -0.934325 1.47024 0
M  V30 10347 C 959.572 -1.7325 2.93594 0
M  V30 10348 H 960.765 0.0746423 2.99807 0
M  V30 10349 H 958.318 0.0763872 1.56113 0
M  V30 10350 H 959.053 -2.37356 2.20981 0
M  V30 10351 H 958.838 -1.37065 3.67363 0
M  V30 10352 H 960.328 -2.3376 3.46043 0
M  V30 10353 N 960.765 -1.57509 0.0534917 0
M  V30 10354 C 961.698 -2.0723 -0.955554 0
M  V30 10355 C 962.676 -0.973313 -1.30251 0
M  V30 10356 O 963.86 -1.24541 -1.41498 0
M  V30 10357 C 960.987 -2.51473 -2.2689 0
M  V30 10358 C 960.033 -3.7263 -2.07482 0
M  V30 10359 S 960.866 -5.18177 -1.35104 0
M  V30 10360 C 962.022 -5.65736 -2.67757 0
M  V30 10361 H 962.255 -2.92494 -0.532407 0
M  V30 10362 H 959.788 -1.53581 -0.158831 0
M  V30 10363 H 961.746 -2.77626 -3.02381 0
M  V30 10364 H 960.407 -1.66511 -2.66332 0
M  V30 10365 H 959.6 -4.01515 -3.04633 0
M  V30 10366 H 959.202 -3.46756 -1.4013 0
M  V30 10367 H 961.494 -5.71463 -3.63918 0
M  V30 10368 H 962.437 -6.64914 -2.43506 0
M  V30 10369 H 962.845 -4.93475 -2.74123 0
M  V30 10370 N 962.243 0.219913 -1.56058 0
M  V30 10371 C 963.659 0.569685 -1.49086 0
M  V30 10372 C 963.859 1.87066 -0.748903 0
M  V30 10373 O 962.915 2.50838 -0.289235 0
M  V30 10374 C 964.228 0.647397 -2.93648 0
M  V30 10375 C 965.776 0.737914 -3.04177 0
M  V30 10376 C 966.251 0.846957 -4.50101 0
M  V30 10377 N 967.742 0.911136 -4.5415 0
M  V30 10378 C 968.477 1.01525 -5.64341 0
M  V30 10379 N 967.973 1.0832 -6.8428 0
M  V30 10380 N 969.766 1.05051 -5.52196 0
M  V30 10381 H 961.917 -0.633778 -2.02724 0
M  V30 10382 H 964.18 -0.222583 -0.921499 0
M  V30 10383 H 963.886 -0.238987 -3.50887 0
M  V30 10384 H 963.76 1.51046 -3.45637 0
M  V30 10385 H 966.147 1.61474 -2.47002 0
M  V30 10386 H 966.228 -0.150845 -2.55355 0
M  V30 10387 H 965.872 -0.0254166 -5.07894 0
M  V30 10388 H 965.802 1.75116 -4.96631 0
M  V30 10389 H 968.293 0.868869 -3.67776 0
M  V30 10390 H 968.606 1.16247 -7.64007 0
M  V30 10391 H 966.951 1.05231 -6.86987 0
M  V30 10392 H 970.142 0.994086 -4.57423 0
M  V30 10393 H 970.315 1.12819 -6.38103 0
M  V30 10394 N 963.721 1.49897 0.486681 0
M  V30 10395 C 964.653 1.63755 1.60365 0
M  V30 10396 C 965.666 0.519614 1.54285 0
M  V30 10397 O 966.855 0.792219 1.59957 0
M  V30 10398 C 963.955 1.59153 2.99205 0
M  V30 10399 C 963.128 2.8672 3.30319 0
M  V30 10400 C 962.187 2.74974 4.48638 0
M  V30 10401 O 961.213 3.48922 4.49714 0
M  V30 10402 N 962.415 1.87479 5.49392 0
M  V30 10403 H 965.18 2.60094 1.48899 0
M  V30 10404 H 962.741 1.47166 0.674825 0
M  V30 10405 H 964.733 1.4893 3.76301 0
M  V30 10406 H 963.303 0.706133 3.0452 0
M  V30 10407 H 962.523 3.11188 2.41983 0
M  V30 10408 H 963.811 3.71262 3.47911 0
M  V30 10409 H 963.209 1.26684 5.51333 0
M  V30 10410 H 961.766 1.83169 6.25534 0
M  V30 10411 N 965.199 -0.738761 1.39212 0
M  V30 10412 C 966.429 -1.5258 1.39295 0
M  V30 10413 C 966.837 -1.89194 -0.0153 0
M  V30 10414 O 966.18 -1.5435 -0.996073 0
M  V30 10415 C 966.242 -2.84462 2.19822 0
M  V30 10416 C 965.906 -2.70303 3.68491 0
M  V30 10417 C 966.903 -2.39102 4.61656 0
M  V30 10418 C 964.588 -2.87291 4.1203 0
M  V30 10419 C 966.582 -2.25066 5.96342 0
M  V30 10420 C 964.269 -2.72874 5.46793 0
M  V30 10421 C 965.267 -2.41807 6.38763 0
M  V30 10422 O 964.955 -2.27475 7.71045 0
M  V30 10423 H 964.687 -0.478236 0.477772 0
M  V30 10424 H 967.241 -0.920846 1.83602 0
M  V30 10425 H 965.471 -3.47202 1.70257 0
M  V30 10426 H 967.16 -3.46058 2.12129 0
M  V30 10427 H 967.926 -2.25632 4.2932 0
M  V30 10428 H 963.805 -3.10466 3.40781 0
M  V30 10429 H 967.349 -2.00739 6.68094 0
M  V30 10430 H 963.246 -2.85922 5.78722 0
M  V30 10431 H 964.014 -2.42574 7.81729 0
M  V30 10432 N 966.677 -1.24326 -0.968545 0
M  V30 10433 C 967.924 -1.08245 -1.71141 0
M  V30 10434 C 968.252 0.378842 -1.90775 0
M  V30 10435 O 967.507 1.29634 -1.46607 0
M  V30 10436 C 967.806 -1.76644 -3.10695 0
M  V30 10437 C 967.472 -3.26572 -3.10905 0
M  V30 10438 C 966.134 -3.67475 -3.10669 0
M  V30 10439 C 968.486 -4.22422 -3.05302 0
M  V30 10440 C 965.814 -5.02666 -3.02562 0
M  V30 10441 C 968.166 -5.57619 -2.98737 0
M  V30 10442 C 966.83 -5.9787 -2.9683 0
M  V30 10443 H 966.1 -0.396098 -0.626249 0
M  V30 10444 H 968.747 -1.54418 -1.13258 0
M  V30 10445 H 967.052 -1.22864 -3.72037 0
M  V30 10446 H 968.749 -1.61668 -3.66967 0
M  V30 10447 H 965.339 -2.94017 -3.11852 0
M  V30 10448 H 969.523 -3.91821 -3.04614 0
M  V30 10449 H 964.779 -5.3305 -2.99446 0
M  V30 10450 H 968.953 -6.31595 -2.93361 0
M  V30 10451 H 966.58 -7.02587 -2.90303 0
M  V30 10452 N 968.156 1.1691 -1.05688 0
M  V30 10453 C 969.086 2.23275 -0.683402 0
M  V30 10454 C 970.067 1.6704 0.321206 0
M  V30 10455 O 971.252 1.93191 0.197691 0
M  V30 10456 C 968.382 3.47244 -0.0626006 0
M  V30 10457 C 967.336 4.16333 -0.992513 0
M  V30 10458 C 966.662 5.34182 -0.23533 0
M  V30 10459 C 967.962 4.68002 -2.31886 0
M  V30 10460 H 969.656 2.54771 -1.57264 0
M  V30 10461 H 967.202 1.2246 -0.757606 0
M  V30 10462 H 969.155 4.20874 0.210503 0
M  V30 10463 H 967.879 3.1503 0.861616 0
M  V30 10464 H 966.538 3.44622 -1.25026 0
M  V30 10465 H 966.186 4.9822 0.69181 0
M  V30 10466 H 965.886 5.81346 -0.855002 0
M  V30 10467 H 967.41 6.10592 0.0303717 0
M  V30 10468 H 968.824 5.33244 -2.10531 0
M  V30 10469 H 967.221 5.25764 -2.89296 0
M  V30 10470 H 968.291 3.84541 -2.95391 0
M  V30 10471 N 969.634 0.838594 1.33437 0
M  V30 10472 C 970.581 0.269609 2.2922 0
M  V30 10473 C 971.551 -0.614429 1.54318 0
M  V30 10474 O 972.736 -0.552756 1.82618 0
M  V30 10475 C 969.876 -0.549527 3.40697 0
M  V30 10476 C 968.989 0.358502 4.3051 0
M  V30 10477 C 968.124 -0.471709 5.29101 0
M  V30 10478 C 967.163 0.434728 6.10554 0
M  V30 10479 N 966.3 -0.357339 7.0119 0
M  V30 10480 H 971.14 1.09172 2.77282 0
M  V30 10481 H 968.677 0.549832 1.36438 0
M  V30 10482 H 970.635 -1.03992 4.04032 0
M  V30 10483 H 969.265 -1.33661 2.93828 0
M  V30 10484 H 968.317 0.967204 3.67899 0
M  V30 10485 H 969.629 1.05483 4.87519 0
M  V30 10486 H 968.783 -1.02594 5.97963 0
M  V30 10487 H 967.522 -1.20147 4.72669 0
M  V30 10488 H 966.527 1.00097 5.40611 0
M  V30 10489 H 967.752 1.16285 6.6907 0
M  V30 10490 H 965.698 -1.07049 6.47207 0
M  V30 10491 H 965.615 0.280277 7.5548 0
M  V30 10492 H 966.883 -0.893814 7.74359 0
M  V30 10493 N 971.112 -1.45937 0.595003 0
M  V30 10494 C 972.358 -2.0262 0.0854317 0
M  V30 10495 C 972.691 -1.46402 -1.27594 0
M  V30 10496 O 971.966 -0.633823 -1.83883 0
M  V30 10497 C 972.249 -3.60085 0.0329075 0
M  V30 10498 C 972.102 -4.26663 1.42405 0
M  V30 10499 C 973.421 -4.35101 -0.661426 0
M  V30 10500 H 970.54 -0.736282 0.0325196 0
M  V30 10501 H 973.182 -1.73938 0.764563 0
M  V30 10502 H 971.332 -3.84652 -0.545439 0
M  V30 10503 H 973.004 -4.13321 2.04851 0
M  V30 10504 H 971.247 -3.85549 1.98833 0
M  V30 10505 H 971.918 -5.35497 1.33965 0
M  V30 10506 H 974.394 -4.15753 -0.169977 0
M  V30 10507 H 973.27 -5.44829 -0.667243 0
M  V30 10508 H 973.531 -4.07053 -1.72513 0
M  V30 10509 N 972.59 -0.333456 -1.54032 0
M  V30 10510 C 973.537 0.527981 -2.2468 0
M  V30 10511 C 974.507 1.10371 -1.24127 0
M  V30 10512 O 975.692 1.14221 -1.52834 0
M  V30 10513 C 972.832 1.67808 -3.01553 0
M  V30 10514 C 971.945 1.13064 -4.16942 0
M  V30 10515 C 971.08 2.24722 -4.81325 0
M  V30 10516 C 970.119 1.67277 -5.88799 0
M  V30 10517 N 969.256 2.72638 -6.47003 0
M  V30 10518 H 974.096 -0.0810308 -2.9789 0
M  V30 10519 H 971.633 -0.051761 -1.47009 0
M  V30 10520 H 973.591 2.35502 -3.44376 0
M  V30 10521 H 972.221 2.25823 -2.30659 0
M  V30 10522 H 971.273 0.344948 -3.78833 0
M  V30 10523 H 972.585 0.670373 -4.94275 0
M  V30 10524 H 971.739 3.00301 -5.27166 0
M  V30 10525 H 970.478 2.74089 -4.03394 0
M  V30 10526 H 969.483 0.902002 -5.4235 0
M  V30 10527 H 970.708 1.18775 -6.68632 0
M  V30 10528 H 968.654 3.21277 -5.71941 0
M  V30 10529 H 968.571 2.31204 -7.19778 0
M  V30 10530 H 969.839 3.48015 -6.97499 0
M  V30 10531 N 974.068 1.57479 -0.061844 0
M  V30 10532 C 975.016 2.13346 0.926629 0
M  V30 10533 C 976.01 1.06787 1.31502 0
M  V30 10534 O 977.216 1.25181 1.29343 0
M  V30 10535 H 973.591 0.682046 0.316729 0
M  V30 10536 H 975.562 2.95279 0.430424 0
M  V30 10537 C 974.311 2.70198 2.18834 0
M  V30 10538 H 973.634 3.51859 1.89829 0
M  V30 10539 H 975.074 3.12897 2.86132 0
M  V30 10540 C 973.533 1.64481 2.9402 0
M  V30 10541 O 974.063 1.0639 3.87355 0
M  V30 10542 N 972.269 1.35749 2.56944 0
M  V30 10543 H 971.816 1.83177 1.81119 0
M  V30 10544 H 971.774 0.652469 3.07555 0
M  V30 10545 N 975.546 -0.211634 1.56173 0
M  V30 10546 C 976.478 -1.286 1.89723 0
M  V30 10547 C 977.491 -1.42549 0.786361 0
M  V30 10548 O 978.68 -1.4327 1.06471 0
M  V30 10549 C 975.78 -2.66036 2.09948 0
M  V30 10550 C 974.953 -2.73908 3.41018 0
M  V30 10551 C 974.012 -3.92425 3.50555 0
M  V30 10552 O 973.038 -3.803 4.2351 0
M  V30 10553 N 974.24 -5.07165 2.82426 0
M  V30 10554 H 977.005 -1.00142 2.82474 0
M  V30 10555 H 974.566 -0.401633 1.56839 0
M  V30 10556 H 976.558 -3.43719 2.13634 0
M  V30 10557 H 975.128 -2.87052 1.23774 0
M  V30 10558 H 974.348 -1.82625 3.49345 0
M  V30 10559 H 975.636 -2.76145 4.27342 0
M  V30 10560 H 975.034 -5.19913 2.2295 0
M  V30 10561 H 973.591 -5.82855 2.9176 0
M  V30 10562 N 977.024 -1.50153 -0.478725 0
M  V30 10563 C 977.957 -1.63089 -1.59616 0
M  V30 10564 C 978.935 -0.479211 -1.55378 0
M  V30 10565 O 980.119 -0.697715 -1.75112 0
M  V30 10566 C 977.246 -1.60643 -2.9818 0
M  V30 10567 C 976.292 -2.81279 -3.206 0
M  V30 10568 S 977.125 -4.42681 -3.0132 0
M  V30 10569 C 978.281 -4.42915 -4.42241 0
M  V30 10570 H 978.514 -2.57612 -1.48402 0
M  V30 10571 H 976.047 -1.39321 -0.665513 0
M  V30 10572 H 978.005 -1.59917 -3.7807 0
M  V30 10573 H 976.666 -0.673684 -3.0679 0
M  V30 10574 H 975.859 -2.7585 -4.21809 0
M  V30 10575 H 975.461 -2.79533 -2.4847 0
M  V30 10576 H 977.753 -4.16007 -5.34737 0
M  V30 10577 H 978.696 -5.44477 -4.52715 0
M  V30 10578 H 979.104 -3.72715 -4.23962 0
M  V30 10579 N 978.502 0.731368 -1.39602 0
M  V30 10580 C 979.751 1.48647 -1.36334 0
M  V30 10581 C 980.064 1.95565 0.0367383 0
M  V30 10582 O 981.27 2.7082 0.192017 0
M  V30 10583 C 979.726 2.68616 -2.39528 0
M  V30 10584 C 979.334 2.28632 -3.85268 0
M  V30 10585 C 981.078 3.46422 -2.45341 0
M  V30 10586 C 978.985 3.45345 -4.80095 0
M  V30 10587 H 977.915 0.558218 -0.506861 0
M  V30 10588 H 980.566 0.797467 -1.65266 0
M  V30 10589 H 978.948 3.39609 -2.03671 0
M  V30 10590 H 980.122 1.65162 -4.30184 0
M  V30 10591 H 978.437 1.63909 -3.82783 0
M  V30 10592 H 981.034 4.33241 -3.13379 0
M  V30 10593 H 981.377 3.8914 -1.47904 0
M  V30 10594 H 981.91 2.82461 -2.80108 0
M  V30 10595 H 978.649 3.07674 -5.78807 0
M  V30 10596 H 978.169 4.07784 -4.39855 0
M  V30 10597 H 979.848 4.1163 -4.99169 0
M  V30 10598 N 979.98 1.24838 0.961938 0
M  V30 10599 C 980.91 1.07053 2.07514 0
M  V30 10600 C 981.891 -0.0182465 1.7009 0
M  V30 10601 O 983.076 0.149915 1.9362 0
M  V30 10602 C 980.206 0.680693 3.40564 0
M  V30 10603 C 979.16 1.71889 3.91967 0
M  V30 10604 C 978.486 1.18395 5.21428 0
M  V30 10605 C 979.786 3.1161 4.19161 0
M  V30 10606 H 981.48 2.00167 2.22651 0
M  V30 10607 H 979.026 0.963799 1.0699 0
M  V30 10608 H 980.979 0.54324 4.17884 0
M  V30 10609 H 979.703 -0.28615 3.25344 0
M  V30 10610 H 978.362 1.84465 3.16809 0
M  V30 10611 H 978.01 0.207543 5.02572 0
M  V30 10612 H 977.71 1.87778 5.56788 0
M  V30 10613 H 979.234 1.05873 6.01351 0
M  V30 10614 H 980.648 3.0223 4.87165 0
M  V30 10615 H 979.045 3.78398 4.65763 0
M  V30 10616 H 980.115 3.59218 3.25715 0
M  V30 10617 N 981.458 -1.16348 1.06306 0
M  V30 10618 C 982.705 -1.86881 0.779852 0
M  V30 10619 C 983.033 -1.8171 -0.693668 0
M  V30 10620 O 982.288 -1.22769 -1.52401 0
M  V30 10621 C 982.587 -3.35936 1.21991 0
M  V30 10622 C 982.253 -3.61307 2.69756 0
M  V30 10623 C 980.915 -3.6794 3.10119 0
M  V30 10624 C 983.267 -3.71871 3.65187 0
M  V30 10625 C 980.595 -3.82639 4.44752 0
M  V30 10626 C 982.947 -3.88091 4.99568 0
M  V30 10627 C 981.611 -3.92967 5.39568 0
M  V30 10628 H 980.881 -0.683847 0.285368 0
M  V30 10629 H 983.528 -1.37569 1.33218 0
M  V30 10630 H 981.833 -3.87381 0.586774 0
M  V30 10631 H 983.53 -3.88895 0.977821 0
M  V30 10632 H 980.12 -3.56777 2.37504 0
M  V30 10633 H 984.304 -3.66057 3.35136 0
M  V30 10634 H 979.56 -3.84666 4.75228 0
M  V30 10635 H 983.734 -3.95207 5.73397 0
M  V30 10636 H 981.361 -4.04109 6.43895 0
M  V30 10637 N 982.937 -0.845659 -1.3299 0
M  V30 10638 C 984.185 -0.443774 -1.97168 0
M  V30 10639 C 984.506 1.00192 -1.67292 0
M  V30 10640 O 983.776 1.69891 -0.975397 0
M  V30 10641 H 982.356 -0.161111 -0.729419 0
M  V30 10642 H 985.018 -1.08011 -1.62233 0
M  V30 10643 H 984.114 -0.581414 -3.06637 0
M  V30 10644 N 984.415 1.45619 -0.602734 0
M  V30 10645 C 985.325 2.34288 0.120902 0
M  V30 10646 C 986.341 1.50952 0.865414 0
M  V30 10647 O 987.517 1.83768 0.824094 0
M  V30 10648 C 984.582 3.28489 1.10888 0
M  V30 10649 C 983.643 4.2773 0.366853 0
M  V30 10650 C 982.876 5.17429 1.30776 0
M  V30 10651 O 983.099 5.10459 2.54535 0
M  V30 10652 O 982.033 5.96459 0.807464 0
M  V30 10653 H 985.859 2.97559 -0.60765 0
M  V30 10654 H 983.444 1.44922 -0.363019 0
M  V30 10655 H 985.326 3.86549 1.67803 0
M  V30 10656 H 984.001 2.67789 1.81854 0
M  V30 10657 H 982.908 3.73299 -0.244643 0
M  V30 10658 H 984.241 4.91271 -0.302226 0
M  V30 10659 N 985.893 0.34162 1.53853 0
M  V30 10660 C 986.803 -0.524555 2.2866 0
M  V30 10661 C 987.819 -1.1136 1.33697 0
M  V30 10662 O 988.995 -1.1297 1.66732 0
M  V30 10663 C 986.06 -1.66065 3.04341 0
M  V30 10664 C 985.121 -1.10158 4.14926 0
M  V30 10665 C 984.354 -2.18353 4.86988 0
M  V30 10666 O 984.577 -3.39038 4.58704 0
M  V30 10667 O 983.511 -1.82756 5.73484 0
M  V30 10668 H 987.337 0.0835014 3.03585 0
M  V30 10669 H 984.922 0.106727 1.49018 0
M  V30 10670 H 986.804 -2.3217 3.51674 0
M  V30 10671 H 985.479 -2.25456 2.32275 0
M  V30 10672 H 984.386 -0.405109 3.719 0
M  V30 10673 H 985.719 -0.552567 4.89088 0
M  V30 10674 N 987.371 -1.57444 0.0701946 0
M  V30 10675 C 988.648 -1.84826 -0.6402 0
M  V30 10676 C 989.028 -0.962344 -1.87889 0
M  V30 10677 O 988.376 -0.0282209 -2.28483 0
M  V30 10678 C 988.586 -3.34976 -0.979382 0
M  V30 10679 C 989.934 -4.02448 -1.35355 0
M  V30 10680 O 990.958 -3.39713 -1.07116 0
M  V30 10681 O 989.817 -5.13096 -1.88136 0
M  V30 10682 H 986.911 -0.763494 -0.317813 0
M  V30 10683 H 989.457 -1.69399 0.101004 0
M  V30 10684 H 988.229 -3.91173 -0.0995576 0
M  V30 10685 H 987.852 -3.5566 -1.7774 0
M  V30 10686 N 988.849 0.203349 -1.56283 0
M  V30 10687 C 990.095 0.926381 -1.80405 0
M  V30 10688 C 990.428 1.8325 -0.642883 0
M  V30 10689 O 989.703 1.91196 0.356998 0
M  V30 10690 C 989.986 1.74972 -3.14733 0
M  V30 10691 C 989.839 0.868866 -4.41328 0
M  V30 10692 C 991.158 2.72394 -3.45672 0
M  V30 10693 H 988.277 0.335346 -0.656286 0
M  V30 10694 H 990.919 0.1942 -1.89005 0
M  V30 10695 H 989.069 2.37394 -3.07533 0
M  V30 10696 H 990.741 0.259986 -4.60567 0
M  V30 10697 H 988.984 0.175161 -4.33446 0
M  V30 10698 H 989.655 1.47975 -5.31796 0
M  V30 10699 H 992.131 2.20105 -3.53119 0
M  V30 10700 H 991.007 3.27091 -4.40798 0
M  V30 10701 H 991.268 3.51035 -2.6875 0
M  V30 10702 N 990.327 1.50405 0.470755 0
M  V30 10703 C 991.743 1.37838 0.804534 0
M  V30 10704 C 991.943 0.434743 1.96754 0
M  V30 10705 O 990.999 -0.122507 2.52203 0
M  V30 10706 C 992.312 2.79212 1.11629 0
M  V30 10707 C 993.86 2.88129 1.22272 0
M  V30 10708 C 994.335 4.30337 1.5676 0
M  V30 10709 N 995.826 4.3329 1.63751 0
M  V30 10710 C 996.561 5.4032 1.91942 0
M  V30 10711 N 996.057 6.57558 2.18151 0
M  V30 10712 N 997.85 5.27764 1.93446 0
M  V30 10713 H 990.001 2.10332 -0.295689 0
M  V30 10714 H 992.264 0.945429 -0.0697733 0
M  V30 10715 H 991.97 3.50103 0.334778 0
M  V30 10716 H 991.844 3.16475 2.0524 0
M  V30 10717 H 994.231 2.17457 1.9949 0
M  V30 10718 H 994.312 2.54409 0.2664 0
M  V30 10719 H 993.956 5.01547 0.800817 0
M  V30 10720 H 993.886 4.61545 2.53543 0
M  V30 10721 H 996.377 3.48752 1.45535 0
M  V30 10722 H 996.69 7.34935 2.38936 0
M  V30 10723 H 995.035 6.60732 2.15542 0
M  V30 10724 H 998.226 4.35169 1.72468 0
M  V30 10725 H 998.399 6.11264 2.15081 0
M  V30 10726 N 991.805 -0.723954 1.39988 0
M  V30 10727 C 993.051 -1.48591 1.38017 0
M  V30 10728 C 993.384 -1.94189 -0.0203522 0
M  V30 10729 O 992.659 -1.67572 -0.987422 0
M  V30 10730 C 992.942 -2.71786 2.36229 0
M  V30 10731 C 992.795 -2.32136 3.8527 0
M  V30 10732 C 994.114 -3.73921 2.32102 0
M  V30 10733 H 991.233 -0.538993 0.502648 0
M  V30 10734 H 993.875 -0.826908 1.71062 0
M  V30 10735 H 992.025 -3.28015 2.0818 0
M  V30 10736 H 993.697 -1.81454 4.24113 0
M  V30 10737 H 991.94 -1.64234 4.01509 0
M  V30 10738 H 992.611 -3.20406 4.49493 0
M  V30 10739 H 995.087 -3.27303 2.56928 0
M  V30 10740 H 993.963 -4.5777 3.02882 0
M  V30 10741 H 994.224 -4.21627 1.32979 0
M  V30 10742 N 993.283 -1.25346 -0.955304 0
M  V30 10743 C 994.246 -1.05754 -2.03344 0
M  V30 10744 C 995.246 -0.0105743 -1.60797 0
M  V30 10745 O 996.436 -0.252699 -1.72357 0
M  V30 10746 C 993.568 -0.605536 -3.35479 0
M  V30 10747 H 994.761 -2.01459 -2.22158 0
M  V30 10748 H 992.314 -1.07744 -1.1323 0
M  V30 10749 H 993.049 0.354154 -3.2236 0
M  V30 10750 H 992.834 -1.36134 -3.67709 0
M  V30 10751 H 994.324 -0.489867 -4.14717 0
M  V30 10752 N 994.761 1.15782 -1.06922 0
M  V30 10753 C 995.709 2.22441 -0.679893 0
M  V30 10754 C 996.703 1.66591 0.307221 0
M  V30 10755 O 997.909 1.79182 0.171402 0
M  V30 10756 H 994.284 0.724427 -0.201765 0
M  V30 10757 H 996.255 2.52562 -1.58918 0
M  V30 10758 C 995.004 3.47586 -0.0891142 0
M  V30 10759 H 994.327 3.9088 -0.839805 0
M  V30 10760 H 995.767 4.2375 0.14569 0
M  V30 10761 C 994.226 3.15967 1.16903 0
M  V30 10762 O 994.756 3.32359 2.25611 0
M  V30 10763 N 992.962 2.70046 1.07349 0
M  V30 10764 H 992.509 2.56907 0.188825 0
M  V30 10765 H 992.467 2.49264 1.91611 0
M  V30 10766 N 996.239 0.8527 1.3254 0
M  V30 10767 C 997.169 0.311234 2.31416 0
M  V30 10768 C 998.15 -0.588557 1.59593 0
M  V30 10769 O 999.335 -0.509211 1.87405 0
M  V30 10770 C 996.465 -0.502892 3.4364 0
M  V30 10771 C 995.419 0.302296 4.26931 0
M  V30 10772 C 994.745 -0.636445 5.30899 0
M  V30 10773 C 996.045 1.52697 4.99481 0
M  V30 10774 H 997.739 1.13742 2.76953 0
M  V30 10775 H 995.285 0.548389 1.33149 0
M  V30 10776 H 997.238 -0.892092 4.11849 0
M  V30 10777 H 995.962 -1.36242 2.96826 0
M  V30 10778 H 994.621 0.673226 3.60365 0
M  V30 10779 H 994.269 -1.49277 4.80339 0
M  V30 10780 H 993.969 -0.101716 5.87512 0
M  V30 10781 H 995.493 -1.02286 6.01972 0
M  V30 10782 H 996.907 1.21017 5.60382 0
M  V30 10783 H 995.304 1.9995 5.65809 0
M  V30 10784 H 996.374 2.28929 4.27457 0
M  V30 10785 N 997.718 -1.45297 0.610449 0
M  V30 10786 C 998.665 -2.30553 -0.106718 0
M  V30 10787 C 999.635 -1.42272 -0.85719 0
M  V30 10788 O 1000.82 -1.71199 -0.842357 0
M  V30 10789 C 997.96 -3.27226 -1.09623 0
M  V30 10790 C 997.073 -4.3061 -0.346329 0
M  V30 10791 C 996.208 -5.14389 -1.32581 0
M  V30 10792 C 995.247 -6.09497 -0.563892 0
M  V30 10793 N 994.384 -6.86047 -1.4928 0
M  V30 10794 H 999.224 -2.91344 0.626296 0
M  V30 10795 H 996.761 -1.43563 0.32065 0
M  V30 10796 H 998.719 -3.81744 -1.68308 0
M  V30 10797 H 997.349 -2.68182 -1.79662 0
M  V30 10798 H 996.401 -3.7873 0.356084 0
M  V30 10799 H 997.713 -4.98183 0.248026 0
M  V30 10800 H 996.867 -5.73321 -1.98464 0
M  V30 10801 H 995.606 -4.4684 -1.9541 0
M  V30 10802 H 994.611 -5.49693 0.108551 0
M  V30 10803 H 995.836 -6.79074 0.0593872 0
M  V30 10804 H 993.782 -6.21185 -2.10868 0
M  V30 10805 H 993.699 -7.49983 -0.951953 0
M  V30 10806 H 994.967 -7.49518 -2.14112 0
M  V30 10807 N 999.196 -0.349774 -1.5367 0
M  V30 10808 C 1000.61 0.132815 -1.86227 0
M  V30 10809 C 1000.96 1.49479 -1.27084 0
M  V30 10810 O 1000.08 2.08292 -0.58679 0
M  V30 10811 C 1000.68 0.247775 -3.37893 0
M  V30 10812 C 999.237 0.674603 -3.70305 0
M  V30 10813 C 998.384 -0.187869 -2.76663 0
M  V30 10814 H 1001.33 -0.569148 -1.48143 0
M  V30 10815 H 1001.36 1.07418 -3.65023 0
M  V30 10816 H 1000.87 -0.743635 -3.80909 0
M  V30 10817 H 998.969 1.67481 -3.32837 0
M  V30 10818 H 999.082 0.460177 -4.76885 0
M  V30 10819 H 997.446 0.340779 -2.5241 0
M  V30 10820 H 998.229 -1.17653 -3.2251 0
M  V30 10821 N 1000.67 1.57404 -0.0785433 0
M  V30 10822 C 1002.09 1.57158 0.2781 0
M  V30 10823 C 1002.29 1.08847 1.69572 0
M  V30 10824 O 1001.35 0.757407 2.40873 0
M  V30 10825 C 1002.66 3.00589 0.0816067 0
M  V30 10826 C 1004.21 3.12637 0.150627 0
M  V30 10827 C 1004.68 4.57997 -0.0176685 0
M  V30 10828 N 1006.17 4.63185 0.0377145 0
M  V30 10829 C 1006.91 5.7336 -0.0679907 0
M  V30 10830 N 1006.4 6.92426 -0.227598 0
M  V30 10831 N 1008.2 5.62099 -0.0104424 0
M  V30 10832 H 1000.35 1.87121 -1.00496 0
M  V30 10833 H 1002.61 0.862937 -0.392484 0
M  V30 10834 H 1002.32 3.40072 -0.896869 0
M  V30 10835 H 1002.19 3.67931 0.831046 0
M  V30 10836 H 1004.58 2.73037 1.11959 0
M  V30 10837 H 1004.66 2.4792 -0.630028 0
M  V30 10838 H 1004.3 4.98288 -0.983431 0
M  V30 10839 H 1004.23 5.20754 0.782475 0
M  V30 10840 H 1006.72 3.77564 0.159208 0
M  V30 10841 H 1007.04 7.72217 -0.300217 0
M  V30 10842 H 1005.38 6.94502 -0.263049 0
M  V30 10843 H 1008.57 4.67964 0.112999 0
M  V30 10844 H 1008.75 6.47928 -0.0962747 0
M  V30 10845 N 1002.15 -0.195058 1.56388 0
M  V30 10846 C 1003.4 -0.913626 1.79821 0
M  V30 10847 C 1003.71 -1.84422 0.651767 0
M  V30 10848 O 1004.92 -2.6034 0.770402 0
M  V30 10849 C 1003.38 -1.67497 3.18548 0
M  V30 10850 C 1002.98 -0.789205 4.40994 0
M  V30 10851 C 1004.73 -2.38318 3.5129 0
M  V30 10852 C 1002.63 -1.54942 5.70742 0
M  V30 10853 H 1001.56 -0.344891 0.670497 0
M  V30 10854 H 1004.22 -0.166912 1.82739 0
M  V30 10855 H 1002.6 -2.46557 3.0988 0
M  V30 10856 H 1003.77 -0.0372595 4.60785 0
M  V30 10857 H 1002.09 -0.191834 4.15958 0
M  V30 10858 H 1004.68 -2.95745 4.45465 0
M  V30 10859 H 1005.03 -3.12507 2.75037 0
M  V30 10860 H 1005.56 -1.66224 3.61406 0
M  V30 10861 H 1002.3 -0.85031 6.49962 0
M  V30 10862 H 1001.82 -2.2753 5.54969 0
M  V30 10863 H 1003.5 -2.1032 6.11861 0
M  V30 10864 N 1003.63 -1.50653 -0.462772 0
M  V30 10865 C 1004.85 -1.66103 -1.24196 0
M  V30 10866 C 1005.28 -0.347421 -1.84864 0
M  V30 10867 O 1004.64 0.689673 -1.6767 0
M  V30 10868 C 1004.69 -2.76027 -2.32037 0
M  V30 10869 O 1003.79 -2.37859 -3.36893 0
M  V30 10870 H 1003.13 -0.554672 -0.365014 0
M  V30 10871 H 1005.66 -1.97076 -0.549734 0
M  V30 10872 H 1005.67 -2.99354 -2.77221 0
M  V30 10873 H 1004.35 -3.71361 -1.87253 0
M  V30 10874 H 1002.92 -2.2501 -2.97363 0
M  V30 10875 N 1005.11 0.71652 -1.4037 0
M  V30 10876 C 1006.36 1.47638 -1.38597 0
M  V30 10877 C 1006.68 1.94496 0.0120141 0
M  V30 10878 O 1005.94 1.68437 0.996373 0
M  V30 10879 C 1006.24 2.71777 -2.32103 0
M  V30 10880 C 1005.9 2.43689 -3.79376 0
M  V30 10881 C 1004.57 2.35739 -4.195 0
M  V30 10882 C 1006.92 2.20099 -4.72447 0
M  V30 10883 C 1004.25 2.02265 -5.50732 0
M  V30 10884 C 1006.6 1.88138 -6.03976 0
M  V30 10885 C 1005.26 1.78669 -6.43143 0
M  V30 10886 H 1004.53 0.540246 -0.507163 0
M  V30 10887 H 1007.18 0.820822 -1.73017 0
M  V30 10888 H 1005.48 3.42166 -1.90865 0
M  V30 10889 H 1007.18 3.29864 -2.28015 0
M  V30 10890 H 1003.77 2.50763 -3.47585 0
M  V30 10891 H 1007.95 2.25198 -4.42266 0
M  V30 10892 H 1003.21 1.93471 -5.79982 0
M  V30 10893 H 1007.38 1.68898 -6.75608 0
M  V30 10894 H 1005.01 1.52498 -7.44747 0
M  V30 10895 N 1006.59 1.25851 0.948643 0
M  V30 10896 C 1007.53 1.06559 2.06756 0
M  V30 10897 C 1008.53 -0.00528632 1.69399 0
M  V30 10898 O 1009.73 0.150806 1.79367 0
M  V30 10899 H 1006.11 0.327689 0.676848 0
M  V30 10900 H 1008.08 2.01401 2.20182 0
M  V30 10901 C 1006.83 0.707392 3.40428 0
M  V30 10902 H 1006.15 1.52324 3.69645 0
M  V30 10903 H 1007.59 0.612142 4.19558 0
M  V30 10904 C 1006.05 -0.58697 3.31747 0
M  V30 10905 O 1006.58 -1.62741 3.67258 0
M  V30 10906 N 1004.79 -0.574828 2.84858 0
M  V30 10907 H 1004.33 0.272236 2.56157 0
M  V30 10908 H 1004.29 -1.441 2.79432 0
M  V30 10909 N 1008.06 -1.15214 1.07534 0
M  V30 10910 C 1009.31 -1.86043 0.799629 0
M  V30 10911 C 1009.64 -1.82435 -0.674356 0
M  V30 10912 O 1008.89 -1.24379 -1.51091 0
M  V30 10913 C 1009.19 -3.34623 1.25547 0
M  V30 10914 C 1008.86 -3.58425 2.73573 0
M  V30 10915 C 1007.52 -3.6463 3.14004 0
M  V30 10916 C 1009.87 -3.67977 3.6911 0
M  V30 10917 C 1007.2 -3.779 4.48786 0
M  V30 10918 C 1009.55 -3.82771 5.03656 0
M  V30 10919 C 1008.22 -3.87222 5.43705 0
M  V30 10920 H 1007.49 -0.680781 0.292605 0
M  V30 10921 H 1010.13 -1.36149 1.34669 0
M  V30 10922 H 1008.44 -3.86737 0.627828 0
M  V30 10923 H 1010.14 -3.87836 1.01901 0
M  V30 10924 H 1006.73 -3.54238 2.41275 0
M  V30 10925 H 1010.91 -3.62482 3.39 0
M  V30 10926 H 1006.17 -3.79604 4.79281 0
M  V30 10927 H 1010.34 -3.89104 5.77556 0
M  V30 10928 H 1007.97 -3.97256 6.48145 0
M  V30 10929 N 1009.54 -0.859717 -1.32086 0
M  V30 10930 C 1010.79 -0.465581 -1.97075 0
M  V30 10931 C 1011.12 0.979917 -1.68012 0
M  V30 10932 O 1010.37 1.70337 -0.96353 0
M  V30 10933 C 1010.67 -0.657397 -3.51302 0
M  V30 10934 C 1010.34 -2.07413 -4.00363 0
M  V30 10935 C 1009 -2.4616 -4.13472 0
M  V30 10936 C 1011.35 -2.99855 -4.26305 0
M  V30 10937 C 1008.68 -3.76611 -4.49868 0
M  V30 10938 C 1011.03 -4.2981 -4.64161 0
M  V30 10939 C 1009.7 -4.68485 -4.75476 0
M  V30 10940 H 1008.97 -0.170368 -0.721149 0
M  V30 10941 H 1011.61 -1.09074 -1.57401 0
M  V30 10942 H 1009.92 0.0509638 -3.91767 0
M  V30 10943 H 1011.61 -0.332416 -3.9962 0
M  V30 10944 H 1008.2 -1.76327 -3.90649 0
M  V30 10945 H 1012.39 -2.7115 -4.15682 0
M  V30 10946 H 1007.64 -4.06352 -4.56824 0
M  V30 10947 H 1011.82 -5.015 -4.83188 0
M  V30 10948 H 1009.45 -5.69612 -5.03435 0
M  V30 10949 N 1011.02 1.44971 -0.618145 0
M  V30 10950 C 1012.27 2.02458 -0.117656 0
M  V30 10951 C 1012.6 1.48413 1.25248 0
M  V30 10952 O 1011.87 0.662997 1.82851 0
M  V30 10953 C 1012.16 3.59987 -0.0901897 0
M  V30 10954 C 1012.01 4.24343 -1.49175 0
M  V30 10955 C 1013.33 4.36099 0.592121 0
M  V30 10956 H 1010.45 0.735672 -0.0442291 0
M  V30 10957 H 1013.09 1.727 -0.792138 0
M  V30 10958 H 1011.24 3.85471 0.484175 0
M  V30 10959 H 1012.91 4.10009 -2.114 0
M  V30 10960 H 1011.16 3.82337 -2.04941 0
M  V30 10961 H 1011.83 5.33298 -1.42468 0
M  V30 10962 H 1014.3 4.1597 0.103813 0
M  V30 10963 H 1013.18 5.45822 0.580481 0
M  V30 10964 H 1013.44 4.09746 1.66015 0
M  V30 10965 N 1012.5 0.357919 1.53482 0
M  V30 10966 C 1013.73 -0.23514 2.05559 0
M  V30 10967 C 1014.14 -1.43068 1.23195 0
M  V30 10968 O 1013.5 -1.80481 0.270741 0
M  V30 10969 C 1013.55 -0.636147 3.55859 0
M  V30 10970 O 1013.27 0.511864 4.35099 0
M  V30 10971 C 1014.77 -1.28841 4.24164 0
M  V30 10972 H 1011.99 -0.0428446 0.669631 0
M  V30 10973 H 1014.54 0.51407 1.97933 0
M  V30 10974 H 1012.69 -1.33528 3.63661 0
M  V30 10975 H 1013.1 0.189328 5.24158 0
M  V30 10976 H 1014.58 -1.51962 5.30671 0
M  V30 10977 H 1015.06 -2.24638 3.77405 0
M  V30 10978 H 1015.66 -0.630914 4.20594 0
M  V30 10979 N 1013.98 -1.5736 0.0868897 0
M  V30 10980 C 1014.94 -2.12436 -0.860439 0
M  V30 10981 C 1015.94 -1.05175 -1.21634 0
M  V30 10982 O 1017.13 -1.31098 -1.14713 0
M  V30 10983 C 1014.26 -2.63818 -2.159 0
M  V30 10984 H 1015.45 -2.97453 -0.382346 0
M  V30 10985 H 1013.01 -1.55458 -0.162009 0
M  V30 10986 H 1013.74 -1.82298 -2.68212 0
M  V30 10987 H 1013.53 -3.42234 -1.91359 0
M  V30 10988 H 1015.02 -3.06452 -2.83685 0
M  V30 10989 N 1015.45 0.186762 -1.56489 0
M  V30 10990 C 1016.87 0.750675 -1.70944 0
M  V30 10991 C 1017.22 1.83483 -0.694858 0
M  V30 10992 O 1016.34 2.159 0.147009 0
M  V30 10993 C 1016.94 1.36843 -3.09934 0
M  V30 10994 C 1015.5 1.87934 -3.26125 0
M  V30 10995 C 1014.64 0.75242 -2.66897 0
M  V30 10996 H 1017.59 -0.0384292 -1.58653 0
M  V30 10997 H 1017.61 2.23795 -3.07727 0
M  V30 10998 H 1017.13 0.579135 -3.83755 0
M  V30 10999 H 1015.23 2.69556 -2.57235 0
M  V30 11000 H 1015.34 2.0354 -4.33715 0
M  V30 11001 H 1013.7 1.16888 -2.26295 0
M  V30 11002 H 1014.49 -0.0247769 -3.43291 0
M  V30 11003 N 1016.93 1.50896 0.454776 0
M  V30 11004 C 1017.88 1.70947 1.55067 0
M  V30 11005 C 1018.85 0.550899 1.56698 0
M  V30 11006 O 1020.03 0.783352 1.73978 0
M  V30 11007 C 1017.17 1.82455 2.92924 0
M  V30 11008 C 1016.29 3.09919 3.00956 0
M  V30 11009 C 1015.42 3.12125 4.29827 0
M  V30 11010 C 1014.46 4.33975 4.31662 0
M  V30 11011 N 1013.6 4.33828 5.5203 0
M  V30 11012 H 1018.44 2.645 1.37273 0
M  V30 11013 H 1015.98 1.31101 0.667148 0
M  V30 11014 H 1017.93 1.87108 3.72889 0
M  V30 11015 H 1016.56 0.92327 3.09315 0
M  V30 11016 H 1015.62 3.14659 2.13761 0
M  V30 11017 H 1016.93 3.99869 2.98172 0
M  V30 11018 H 1016.08 3.15598 5.18154 0
M  V30 11019 H 1014.82 2.20033 4.35243 0
M  V30 11020 H 1013.83 4.30697 3.41731 0
M  V30 11021 H 1015.05 5.27312 4.27924 0
M  V30 11022 H 1013 3.44598 5.58201 0
M  V30 11023 H 1012.91 5.17566 5.51055 0
M  V30 11024 H 1014.18 4.4147 6.42437 0
M  V30 11025 N 1018.41 -0.709066 1.40748 0
M  V30 11026 C 1019.36 -1.84445 1.41714 0
M  V30 11027 C 1020.35 -1.66779 0.296818 0
M  V30 11028 O 1021.56 -1.73805 0.468181 0
M  V30 11029 H 1017.93 -0.607581 0.443114 0
M  V30 11030 H 1019.9 -1.80747 2.3743 0
M  V30 11031 C 1018.65 -3.22362 1.303 0
M  V30 11032 H 1017.98 -3.36565 2.15787 0
M  V30 11033 H 1019.42 -4.01922 1.35036 0
M  V30 11034 C 1017.88 -3.36897 0.0139015 0
M  V30 11035 O 1018.41 -3.90389 -0.946553 0
M  V30 11036 N 1016.61 -2.90543 -0.0577491 0
M  V30 11037 H 1016.16 -2.472 0.724574 0
M  V30 11038 H 1016.12 -3.00647 -0.919721 0
M  V30 11039 N 1019.89 -1.26353 -0.941956 0
M  V30 11040 C 1021.14 -1.12017 -1.69056 0
M  V30 11041 C 1021.47 0.335856 -1.91274 0
M  V30 11042 O 1020.74 1.24677 -1.49285 0
M  V30 11043 C 1021.03 -1.88889 -3.06583 0
M  V30 11044 C 1020.88 -3.42394 -2.91696 0
M  V30 11045 C 1022.2 -1.68209 -4.06686 0
M  V30 11046 H 1019.32 -0.408311 -0.613556 0
M  V30 11047 H 1021.96 -1.55339 -1.09407 0
M  V30 11048 H 1020.11 -1.5207 -3.57501 0
M  V30 11049 H 1021.78 -3.88962 -2.48005 0
M  V30 11050 H 1020.02 -3.69459 -2.27338 0
M  V30 11051 H 1020.7 -3.91408 -3.89235 0
M  V30 11052 H 1023.17 -2.00286 -3.64726 0
M  V30 11053 H 1022.05 -2.24412 -5.00929 0
M  V30 11054 H 1022.31 -0.626474 -4.37639 0
M  V30 11055 N 1021.37 1.14642 -1.08144 0
M  V30 11056 C 1022.59 1.90025 -0.830972 0
M  V30 11057 C 1023.02 1.77904 0.610879 0
M  V30 11058 O 1022.38 1.11735 1.42776 0
M  V30 11059 C 1022.42 3.38085 -1.25422 0
M  V30 11060 O 1021.53 4.10412 -0.404486 0
M  V30 11061 H 1020.87 0.591327 -0.302041 0
M  V30 11062 H 1023.4 1.4513 -1.44216 0
M  V30 11063 H 1023.41 3.88894 -1.23391 0
M  V30 11064 H 1022.08 3.46226 -2.30435 0
M  V30 11065 H 1020.66 3.69693 -0.487987 0
M  V30 11066 N 1022.85 0.866709 1.31628 0
M  V30 11067 C 1024.12 0.396828 1.91532 0
M  V30 11068 C 1024.5 -1.12081 1.78889 0
M  V30 11069 O 1023.85 -1.94791 1.19452 0
M  V30 11070 C 1024.06 0.874578 3.37864 0
M  V30 11071 C 1025.41 0.8988 4.14978 0
M  V30 11072 O 1026.43 0.820014 3.46633 0
M  V30 11073 O 1025.29 1.01223 5.37044 0
M  V30 11074 H 1022.39 0.1181 0.818524 0
M  V30 11075 H 1024.93 0.954407 1.40318 0
M  V30 11076 H 1023.7 1.91807 3.41066 0
M  V30 11077 H 1023.33 0.295126 3.96503 0
M  V30 11078 N 1024.32 -1.44642 0.625825 0
M  V30 11079 C 1025.57 -2.01308 0.125682 0
M  V30 11080 C 1025.89 -1.49773 -1.25807 0
M  V30 11081 O 1027.09 -1.98533 -1.85194 0
M  V30 11082 C 1025.55 -3.59479 0.17395 0
M  V30 11083 C 1025.16 -4.20011 1.55868 0
M  V30 11084 C 1026.9 -4.2364 -0.270005 0
M  V30 11085 C 1024.81 -5.7039 1.56235 0
M  V30 11086 H 1023.74 -0.75276 0.0432194 0
M  V30 11087 H 1026.39 -1.65916 0.783842 0
M  V30 11088 H 1024.77 -3.92145 -0.551212 0
M  V30 11089 H 1025.94 -3.98891 2.307 0
M  V30 11090 H 1024.26 -3.68116 1.94627 0
M  V30 11091 H 1026.86 -5.33931 -0.28672 0
M  V30 11092 H 1027.2 -3.95603 -1.29629 0
M  V30 11093 H 1027.73 -3.95759 0.402487 0
M  V30 11094 H 1024.47 -6.03154 2.56683 0
M  V30 11095 H 1023.99 -5.93648 0.856881 0
M  V30 11096 H 1025.67 -6.33929 1.29396 0
M  V30 11097 N 1025.8 -0.366053 -1.5329 0
M  V30 11098 C 1027.05 0.224614 -2.00445 0
M  V30 11099 C 1027.36 1.49829 -1.2574 0
M  V30 11100 O 1028.57 2.16759 -1.63487 0
M  V30 11101 C 1027.03 0.450818 -3.57065 0
M  V30 11102 C 1026.63 -0.808257 -4.40649 0
M  V30 11103 C 1028.38 0.999116 -4.12575 0
M  V30 11104 C 1026.28 -0.551612 -5.88822 0
M  V30 11105 H 1025.21 0.0877114 -0.748881 0
M  V30 11106 H 1027.87 -0.484866 -1.76978 0
M  V30 11107 H 1026.25 1.22157 -3.76688 0
M  V30 11108 H 1027.42 -1.58184 -4.32798 0
M  V30 11109 H 1025.74 -1.27981 -3.96245 0
M  V30 11110 H 1028.33 1.20646 -5.20911 0
M  V30 11111 H 1028.68 1.96139 -3.67199 0
M  V30 11112 H 1029.21 0.288518 -3.96752 0
M  V30 11113 H 1025.95 -1.48423 -6.38475 0
M  V30 11114 H 1025.47 0.183462 -5.99519 0
M  V30 11115 H 1027.15 -0.177307 -6.46757 0
M  V30 11116 N 1027.28 1.57312 -0.0952337 0
M  V30 11117 C 1028.69 1.81589 0.433875 0
M  V30 11118 C 1029.04 1.01086 1.68155 0
M  V30 11119 O 1028.17 0.240272 2.15062 0
M  V30 11120 C 1028.76 3.29366 0.793931 0
M  V30 11121 C 1027.32 3.54407 1.26778 0
M  V30 11122 C 1026.47 2.76035 0.264518 0
M  V30 11123 H 1029.42 1.55426 -0.320675 0
M  V30 11124 H 1029.44 3.42697 1.65345 0
M  V30 11125 H 1028.95 3.87932 -0.114334 0
M  V30 11126 H 1027.05 3.01173 2.19376 0
M  V30 11127 H 1027.17 4.63055 1.22952 0
M  V30 11128 H 1025.53 2.43509 0.746691 0
M  V30 11129 H 1026.31 3.37349 -0.636429 0
M  V30 11130 N 1028.76 -0.17846 1.56586 0
M  V30 11131 C 1030.17 -0.529957 1.50544 0
M  V30 11132 C 1030.37 -1.85015 0.798237 0
M  V30 11133 O 1029.43 -2.49983 0.355639 0
M  V30 11134 C 1030.74 -0.569314 2.95261 0
M  V30 11135 C 1032.29 -0.657008 3.06027 0
M  V30 11136 C 1032.77 -0.727323 4.52188 0
M  V30 11137 N 1034.26 -0.790406 4.56406 0
M  V30 11138 C 1034.99 -0.865265 5.66834 0
M  V30 11139 N 1034.49 -0.901398 6.86911 0
M  V30 11140 N 1036.28 -0.903736 5.54787 0
M  V30 11141 H 1028.43 0.687304 2.00972 0
M  V30 11142 H 1030.69 0.246936 0.915274 0
M  V30 11143 H 1030.4 0.331934 3.5013 0
M  V30 11144 H 1030.27 -1.41828 3.4952 0
M  V30 11145 H 1032.66 -1.54868 2.51197 0
M  V30 11146 H 1032.74 0.218495 2.54865 0
M  V30 11147 H 1032.39 0.160067 5.07648 0
M  V30 11148 H 1032.32 -1.61887 5.01099 0
M  V30 11149 H 1034.81 -0.771054 3.6995 0
M  V30 11150 H 1035.12 -0.959494 7.6682 0
M  V30 11151 H 1033.47 -0.869795 6.89536 0
M  V30 11152 H 1036.66 -0.872459 4.59898 0
M  V30 11153 H 1036.83 -0.958615 6.4087 0
M  V30 11154 N 1030.24 -1.51135 -0.446768 0
M  V30 11155 C 1031.46 -1.67129 -1.21965 0
M  V30 11156 C 1031.88 -0.36467 -1.85245 0
M  V30 11157 O 1031.24 0.655908 -1.70306 0
M  V30 11158 C 1031.29 -2.78016 -2.31061 0
M  V30 11159 O 1031.01 -4.03615 -1.70371 0
M  V30 11160 C 1032.51 -3.05197 -3.21511 0
M  V30 11161 H 1029.73 -0.561111 -0.367961 0
M  V30 11162 H 1032.27 -1.97499 -0.530517 0
M  V30 11163 H 1030.43 -2.50272 -2.95707 0
M  V30 11164 H 1030.84 -4.65126 -2.424 0
M  V30 11165 H 1032.32 -3.8639 -3.94216 0
M  V30 11166 H 1032.79 -2.17228 -3.81718 0
M  V30 11167 H 1033.4 -3.34565 -2.62577 0
M  V30 11168 N 1031.71 0.701592 -1.41122 0
M  V30 11169 C 1032.62 1.84548 -1.44841 0
M  V30 11170 C 1033.64 1.70654 -0.339594 0
M  V30 11171 O 1034.82 1.92675 -0.586378 0
M  V30 11172 C 1031.88 3.20477 -1.3227 0
M  V30 11173 C 1030.94 3.46524 -2.53415 0
M  V30 11174 C 1030.17 4.75968 -2.41434 0
M  V30 11175 O 1030.4 5.52037 -1.43566 0
M  V30 11176 O 1029.33 5.02664 -3.31078 0
M  V30 11177 H 1033.16 1.84367 -2.41335 0
M  V30 11178 H 1030.74 0.853863 -1.22595 0
M  V30 11179 H 1032.62 4.01642 -1.2752 0
M  V30 11180 H 1031.3 3.21355 -0.388889 0
M  V30 11181 H 1030.21 2.65313 -2.63742 0
M  V30 11182 H 1031.54 3.50455 -3.45604 0
M  V30 11183 N 1033.19 1.2685 0.935242 0
M  V30 11184 C 1034.44 1.12912 1.6846 0
M  V30 11185 C 1034.77 -0.325708 1.91449 0
M  V30 11186 O 1034.05 -1.23884 1.49944 0
M  V30 11187 C 1034.33 1.90513 3.05576 0
M  V30 11188 C 1034.18 3.43936 2.89876 0
M  V30 11189 C 1035.5 1.70363 4.05789 0
M  V30 11190 H 1032.62 0.411559 0.611382 0
M  V30 11191 H 1035.26 1.55917 1.08582 0
M  V30 11192 H 1033.41 1.53963 3.5669 0
M  V30 11193 H 1035.08 3.90272 2.45939 0
M  V30 11194 H 1033.33 3.70659 2.25376 0
M  V30 11195 H 1034 3.93467 3.87153 0
M  V30 11196 H 1036.47 2.02217 3.63659 0
M  V30 11197 H 1035.35 2.27066 4.99732 0
M  V30 11198 H 1035.61 0.649674 4.373 0
M  V30 11199 N 1034.67 -1.14067 1.0875 0
M  V30 11200 C 1035.58 -2.22871 0.732498 0
M  V30 11201 C 1036.6 -1.72008 -0.26253 0
M  V30 11202 O 1037.77 -2.01123 -0.105601 0
M  V30 11203 C 1034.84 -3.46371 0.150913 0
M  V30 11204 C 1033.9 -4.12158 1.201 0
M  V30 11205 C 1033.13 -5.29763 0.647075 0
M  V30 11206 O 1033.35 -5.67911 -0.532307 0
M  V30 11207 O 1032.29 -5.8542 1.3988 0
M  V30 11208 H 1036.11 -2.55596 1.64025 0
M  V30 11209 H 1033.7 -1.22065 0.861417 0
M  V30 11210 H 1035.58 -4.21055 -0.170442 0
M  V30 11211 H 1034.26 -3.15362 -0.729948 0
M  V30 11212 H 1033.16 -3.39332 1.57494 0
M  V30 11213 H 1034.5 -4.47282 2.05426 0
M  V30 11214 N 1036.15 -0.873678 -1.31166 0
M  V30 11215 C 1037.1 -0.330288 -2.28424 0
M  V30 11216 C 1038.07 0.573299 -1.55893 0
M  V30 11217 O 1039.25 0.504143 -1.84019 0
M  V30 11218 C 1036.39 0.459004 -3.42034 0
M  V30 11219 C 1035.5 -0.472519 -4.29408 0
M  V30 11220 C 1034.64 0.331261 -5.30166 0
M  V30 11221 C 1033.68 -0.596453 -6.09187 0
M  V30 11222 N 1032.81 0.171305 -7.01891 0
M  V30 11223 H 1037.65 -1.16485 -2.7429 0
M  V30 11224 H 1035.19 -0.585813 -1.34932 0
M  V30 11225 H 1037.15 0.932432 -4.06647 0
M  V30 11226 H 1035.78 1.25824 -2.97268 0
M  V30 11227 H 1034.83 -1.06441 -3.65205 0
M  V30 11228 H 1036.14 -1.18372 -4.84551 0
M  V30 11229 H 1035.3 0.867038 -6.00473 0
M  V30 11230 H 1034.04 1.07573 -4.75688 0
M  V30 11231 H 1033.04 -1.14395 -5.37767 0
M  V30 11232 H 1034.27 -1.33983 -6.65752 0
M  V30 11233 H 1032.21 0.89852 -6.49817 0
M  V30 11234 H 1032.13 -0.480481 -7.54472 0
M  V30 11235 H 1033.4 0.688192 -7.76456 0
M  V30 11236 N 1037.63 1.44308 -0.633487 0
M  V30 11237 C 1038.59 2.2912 0.060376 0
M  V30 11238 C 1039.59 1.41166 0.769992 0
M  V30 11239 O 1040.78 1.63012 0.614224 0
M  V30 11240 C 1037.91 3.22798 1.0961 0
M  V30 11241 H 1039.1 2.91958 -0.685617 0
M  V30 11242 H 1036.66 1.51259 -0.393738 0
M  V30 11243 H 1037.39 2.64815 1.87199 0
M  V30 11244 H 1037.18 3.87618 0.591161 0
M  V30 11245 H 1038.67 3.86504 1.58127 0
M  V30 11246 N 1039.1 0.374177 1.53094 0
M  V30 11247 C 1040.35 -0.213981 2.00562 0
M  V30 11248 C 1040.67 -1.4916 1.26533 0
M  V30 11249 O 1041.87 -2.15889 1.64634 0
M  V30 11250 C 1040.33 -0.431876 3.57299 0
M  V30 11251 C 1039.94 0.831615 4.40214 0
M  V30 11252 C 1041.68 -0.977222 4.13099 0
M  V30 11253 C 1039.59 0.582831 5.88521 0
M  V30 11254 H 1038.52 -0.0837386 0.749336 0
M  V30 11255 H 1041.17 0.494245 1.76719 0
M  V30 11256 H 1039.55 -1.20158 3.7733 0
M  V30 11257 H 1040.72 1.60477 4.31953 0
M  V30 11258 H 1039.04 1.30081 3.9556 0
M  V30 11259 H 1041.64 -1.17881 5.21544 0
M  V30 11260 H 1041.98 -1.94189 3.68234 0
M  V30 11261 H 1042.51 -0.267473 3.969 0
M  V30 11262 H 1039.25 1.51807 6.37679 0
M  V30 11263 H 1038.77 -0.151666 5.99608 0
M  V30 11264 H 1040.45 0.211604 6.46654 0
M  V30 11265 N 1040.58 -1.57259 0.103575 0
M  V30 11266 C 1042 -1.57581 -0.253062 0
M  V30 11267 C 1042.2 -1.11531 -1.67819 0
M  V30 11268 O 1041.25 -0.795632 -2.39637 0
M  V30 11269 C 1042.57 -3.00681 -0.0337753 0
M  V30 11270 C 1044.12 -3.12837 -0.10087 0
M  V30 11271 C 1044.59 -4.57911 0.0905295 0
M  V30 11272 N 1046.08 -4.63186 0.0359789 0
M  V30 11273 C 1046.82 -5.73179 0.159199 0
M  V30 11274 N 1046.31 -6.91976 0.337728 0
M  V30 11275 N 1048.11 -5.62011 0.0998662 0
M  V30 11276 H 1040.26 -1.85499 1.0346 0
M  V30 11277 H 1042.52 -0.856584 0.406163 0
M  V30 11278 H 1042.23 -3.38602 0.950858 0
M  V30 11279 H 1042.1 -3.69207 -0.772406 0
M  V30 11280 H 1044.49 -2.74783 -1.07601 0
M  V30 11281 H 1044.57 -2.46886 0.66939 0
M  V30 11282 H 1044.21 -4.9666 1.06258 0
M  V30 11283 H 1044.14 -5.21933 -0.699528 0
M  V30 11284 H 1046.63 -3.7777 -0.099121 0
M  V30 11285 H 1046.95 -7.71641 0.423032 0
M  V30 11286 H 1045.29 -6.93996 0.373504 0
M  V30 11287 H 1048.48 -4.68084 -0.0385356 0
M  V30 11288 H 1048.65 -6.47693 0.199342 0
M  V30 11289 N 1042.06 0.170153 -1.56679 0
M  V30 11290 C 1042.99 1.23945 -1.91606 0
M  V30 11291 C 1043.97 1.42725 -0.779004 0
M  V30 11292 O 1045.16 1.57712 -1.03243 0
M  V30 11293 C 1042.28 2.60222 -2.168 0
M  V30 11294 C 1041.33 2.58172 -3.39484 0
M  V30 11295 S 1042.16 2.0714 -4.93815 0
M  V30 11296 C 1043.32 3.45192 -5.22105 0
M  V30 11297 H 1043.55 0.941345 -2.82004 0
M  V30 11298 H 1041.08 0.374771 -1.49783 0
M  V30 11299 H 1043.04 3.38656 -2.31996 0
M  V30 11300 H 1041.7 2.87232 -1.27107 0
M  V30 11301 H 1040.9 3.58435 -3.54317 0
M  V30 11302 H 1040.5 1.87834 -3.2341 0
M  V30 11303 H 1042.79 4.41194 -5.14154 0
M  V30 11304 H 1043.73 3.35233 -6.23718 0
M  V30 11305 H 1044.14 3.41257 -4.49671 0
M  V30 11306 N 1043.54 1.5137 0.438746 0
M  V30 11307 C 1044.76 1.68058 1.21537 0
M  V30 11308 C 1045.19 0.376787 1.84288 0
M  V30 11309 O 1044.55 -0.662911 1.68746 0
M  V30 11310 C 1044.59 2.79684 2.27616 0
M  V30 11311 O 1043.7 2.43189 3.33066 0
M  V30 11312 H 1043.04 0.560408 0.356144 0
M  V30 11313 H 1045.57 1.97926 0.518311 0
M  V30 11314 H 1045.58 3.03726 2.72423 0
M  V30 11315 H 1044.25 3.74293 1.81321 0
M  V30 11316 H 1042.83 2.29713 2.93746 0
M  V30 11317 N 1045.02 -0.694098 1.41492 0
M  V30 11318 C 1046.43 -1.00487 1.23994 0
M  V30 11319 C 1046.63 -2.01078 0.130346 0
M  V30 11320 O 1045.69 -2.47403 -0.504775 0
M  V30 11321 C 1047 -1.52808 2.58979 0
M  V30 11322 C 1048.55 -1.64684 2.66173 0
M  V30 11323 C 1049.02 -2.20406 4.01479 0
M  V30 11324 N 1050.52 -2.27765 4.03333 0
M  V30 11325 C 1051.25 -2.7191 5.04829 0
M  V30 11326 N 1050.75 -3.1565 6.16714 0
M  V30 11327 N 1052.54 -2.71487 4.9219 0
M  V30 11328 H 1044.69 -0.027746 2.12382 0
M  V30 11329 H 1046.95 -0.0748741 0.945039 0
M  V30 11330 H 1046.66 -0.863519 3.40934 0
M  V30 11331 H 1046.53 -2.50998 2.81566 0
M  V30 11332 H 1048.92 -2.30251 1.84576 0
M  V30 11333 H 1049 -0.65035 2.47395 0
M  V30 11334 H 1048.65 -1.55454 4.83525 0
M  V30 11335 H 1048.58 -3.2081 4.17599 0
M  V30 11336 H 1051.07 -1.96899 3.22551 0
M  V30 11337 H 1051.38 -3.47966 6.90029 0
M  V30 11338 H 1049.72 -3.13555 6.20248 0
M  V30 11339 H 1052.92 -2.36666 4.03865 0
M  V30 11340 H 1053.09 -3.05573 5.71427 0
M  V30 11341 N 1046.49 -1.27344 -0.928501 0
M  V30 11342 C 1047.72 -1.16557 -1.7155 0
M  V30 11343 C 1048.14 0.274044 -1.86093 0
M  V30 11344 O 1047.5 1.19847 -1.36038 0
M  V30 11345 C 1047.55 -1.85332 -3.09329 0
M  V30 11346 O 1046.65 -1.15074 -3.9602 0
M  V30 11347 H 1046 -0.405423 -0.525859 0
M  V30 11348 H 1048.53 -1.68399 -1.16202 0
M  V30 11349 H 1048.54 -1.92659 -3.59648 0
M  V30 11350 H 1047.21 -2.90056 -2.98061 0
M  V30 11351 H 1045.79 -1.1581 -3.54461 0
M  V30 11352 N 1047.97 1.13488 -1.09353 0
M  V30 11353 C 1049.39 1.36739 -0.823086 0
M  V30 11354 C 1049.59 1.93476 0.562963 0
M  V30 11355 O 1048.64 2.15374 1.31796 0
M  V30 11356 C 1049.96 2.31943 -1.91371 0
M  V30 11357 C 1051.51 2.4556 -1.94085 0
M  V30 11358 C 1051.98 3.44072 -3.02289 0
M  V30 11359 N 1053.47 3.51622 -3.01524 0
M  V30 11360 C 1054.21 4.27724 -3.8189 0
M  V30 11361 N 1053.7 5.06987 -4.72161 0
M  V30 11362 N 1055.5 4.23018 -3.70152 0
M  V30 11363 H 1047.65 0.75012 -1.98713 0
M  V30 11364 H 1049.91 0.392564 -0.862901 0
M  V30 11365 H 1049.62 1.97408 -2.91072 0
M  V30 11366 H 1049.49 3.31952 -1.79131 0
M  V30 11367 H 1051.88 2.79382 -0.950234 0
M  V30 11368 H 1051.96 1.45479 -2.10403 0
M  V30 11369 H 1051.6 3.10981 -4.01564 0
M  V30 11370 H 1051.53 4.43956 -2.83214 0
M  V30 11371 H 1054.02 2.95066 -2.36103 0
M  V30 11372 H 1054.34 5.6236 -5.30067 0
M  V30 11373 H 1052.68 5.06222 -4.76197 0
M  V30 11374 H 1055.87 3.60171 -2.98989 0
M  V30 11375 H 1056.04 4.82075 -4.33022 0
M  V30 11376 N 1049.45 0.880621 1.30701 0
M  V30 11377 C 1050.7 0.492957 1.95583 0
M  V30 11378 C 1051.01 -0.961863 1.70316 0
M  V30 11379 O 1052.22 -1.45617 2.29146 0
M  V30 11380 C 1050.68 0.830656 3.50183 0
M  V30 11381 C 1050.28 2.30295 3.84276 0
M  V30 11382 C 1052.03 0.511979 4.21401 0
M  V30 11383 C 1049.93 2.58251 5.32034 0
M  V30 11384 H 1048.86 0.18062 0.732047 0
M  V30 11385 H 1051.52 1.075 1.48715 0
M  V30 11386 H 1049.9 0.177752 3.95601 0
M  V30 11387 H 1051.07 2.99981 3.49783 0
M  V30 11388 H 1049.39 2.58873 3.2615 0
M  V30 11389 H 1051.98 0.697935 5.30125 0
M  V30 11390 H 1052.33 -0.548327 4.12673 0
M  V30 11391 H 1052.86 1.12189 3.81652 0
M  V30 11392 H 1049.6 3.63005 5.45809 0
M  V30 11393 H 1049.12 1.9317 5.67843 0
M  V30 11394 H 1050.8 2.43527 5.99419 0
M  V30 11395 N 1050.93 -1.4397 0.641131 0
M  V30 11396 C 1051.88 -2.32495 -0.0698668 0
M  V30 11397 C 1052.87 -1.47922 -0.825555 0
M  V30 11398 O 1054.08 -1.64206 -0.737323 0
M  V30 11399 H 1050.45 -0.750861 -0.0413706 0
M  V30 11400 H 1052.42 -2.90201 0.694682 0
M  V30 11401 C 1051.17 -3.32063 -1.03098 0
M  V30 11402 H 1050.5 -3.97157 -0.458923 0
M  V30 11403 H 1051.94 -3.96664 -1.49778 0
M  V30 11404 C 1050.39 -2.61743 -2.12113 0
M  V30 11405 O 1050.92 -2.42385 -3.20332 0
M  V30 11406 N 1049.13 -2.21316 -1.88328 0
M  V30 11407 H 1048.68 -2.37261 -1.00324 0
M  V30 11408 H 1048.64 -1.74594 -2.61465 0
M  V30 11409 N 1052.41 -0.382291 -1.52893 0
M  V30 11410 C 1053.68 0.259354 -1.93873 0
M  V30 11411 C 1054.06 1.64964 -1.3172 0
M  V30 11412 O 1053.41 2.23345 -0.482611 0
M  V30 11413 C 1053.62 0.292765 -3.4777 0
M  V30 11414 C 1054.97 0.525095 -4.21341 0
M  V30 11415 O 1055.99 0.373272 -3.54239 0
M  V30 11416 O 1054.85 0.822004 -5.40283 0
M  V30 11417 H 1051.95 0.159422 -0.811489 0
M  V30 11418 H 1054.49 -0.436289 -1.63996 0
M  V30 11419 H 1053.27 -0.681341 -3.85323 0
M  V30 11420 H 1052.89 1.03362 -3.8393 0
M  V30 11421 N 1053.89 1.57202 -0.111913 0
M  V30 11422 C 1054.85 2.13778 0.826534 0
M  V30 11423 C 1055.85 1.07097 1.19945 0
M  V30 11424 O 1057.04 1.32906 1.12613 0
M  V30 11425 C 1054.17 2.6722 2.11675 0
M  V30 11426 H 1055.36 2.98023 0.334975 0
M  V30 11427 H 1052.92 1.55696 0.137256 0
M  V30 11428 H 1053.65 1.86542 2.65278 0
M  V30 11429 H 1053.44 3.45235 1.8589 0
M  V30 11430 H 1054.93 3.10926 2.78774 0
M  V30 11431 N 1055.36 -0.161842 1.56767 0
M  V30 11432 C 1056.61 -0.876925 1.82527 0
M  V30 11433 C 1056.94 -1.81831 0.690492 0
M  V30 11434 O 1056.19 -1.9304 -0.32159 0
M  V30 11435 C 1056.49 -1.69736 3.14522 0
M  V30 11436 C 1056.16 -0.904075 4.41743 0
M  V30 11437 C 1054.82 -0.685168 4.76297 0
M  V30 11438 C 1057.17 -0.348282 5.20035 0
M  V30 11439 C 1054.5 0.10048 5.86614 0
M  V30 11440 C 1056.85 0.424327 6.31175 0
M  V30 11441 C 1055.52 0.653948 6.64289 0
M  V30 11442 H 1054.79 -0.320889 0.667915 0
M  V30 11443 H 1057.43 -0.141338 1.90978 0
M  V30 11444 H 1055.74 -2.50262 3.01456 0
M  V30 11445 H 1057.44 -2.25386 3.31666 0
M  V30 11446 H 1054.03 -1.08474 4.14646 0
M  V30 11447 H 1058.21 -0.504721 4.93727 0
M  V30 11448 H 1053.47 0.288029 6.10721 0
M  V30 11449 H 1057.64 0.862203 6.91042 0
M  V30 11450 H 1055.27 1.26459 7.49608 0
M  V30 11451 N 1056.84 -1.516 -0.430713 0
M  V30 11452 C 1058.26 -1.39923 -0.767706 0
M  V30 11453 C 1058.46 -0.486756 -1.95532 0
M  V30 11454 O 1057.51 0.0555965 -2.52439 0
M  V30 11455 C 1058.83 -2.82074 -1.04187 0
M  V30 11456 C 1060.37 -2.9127 -1.1459 0
M  V30 11457 C 1060.85 -4.34342 -1.45295 0
M  V30 11458 N 1062.34 -4.37479 -1.52206 0
M  V30 11459 C 1063.08 -5.45219 -1.77549 0
M  V30 11460 N 1062.57 -6.6311 -2.0064 0
M  V30 11461 N 1064.36 -5.32707 -1.79386 0
M  V30 11462 H 1056.52 -2.09474 0.351351 0
M  V30 11463 H 1058.78 -0.943247 0.0948151 0
M  V30 11464 H 1058.48 -3.50868 -0.241837 0
M  V30 11465 H 1058.36 -3.21805 -1.96777 0
M  V30 11466 H 1060.75 -2.2267 -1.93655 0
M  V30 11467 H 1060.83 -2.55026 -0.198854 0
M  V30 11468 H 1060.47 -5.03494 -0.667559 0
M  V30 11469 H 1060.4 -4.68105 -2.41217 0
M  V30 11470 H 1062.89 -3.52488 -1.36237 0
M  V30 11471 H 1063.2 -7.41012 -2.19366 0
M  V30 11472 H 1061.55 -6.66214 -1.97948 0
M  V30 11473 H 1064.74 -4.39589 -1.60869 0
M  V30 11474 H 1064.91 -6.16752 -1.98799 0
M  V30 11475 N 1058.32 0.686584 -1.41858 0
M  V30 11476 C 1059.25 1.81264 -1.47193 0
M  V30 11477 C 1060.23 1.66875 -0.329657 0
M  V30 11478 O 1061.42 1.86473 -0.542347 0
M  V30 11479 C 1058.55 3.19472 -1.36216 0
M  V30 11480 C 1057.5 3.4858 -2.48347 0
M  V30 11481 C 1056.83 4.86239 -2.22432 0
M  V30 11482 C 1058.13 3.46653 -3.90678 0
M  V30 11483 H 1059.82 1.77057 -2.41436 0
M  V30 11484 H 1057.37 0.850415 -1.16206 0
M  V30 11485 H 1059.32 3.97969 -1.38558 0
M  V30 11486 H 1058.04 3.24327 -0.384611 0
M  V30 11487 H 1056.7 2.72437 -2.45303 0
M  V30 11488 H 1056.35 4.8773 -1.22999 0
M  V30 11489 H 1056.05 5.06677 -2.97577 0
M  V30 11490 H 1057.57 5.67034 -2.26505 0
M  V30 11491 H 1058.99 4.15139 -3.95389 0
M  V30 11492 H 1057.38 3.78625 -4.65578 0
M  V30 11493 H 1058.45 2.45451 -4.18189 0
M  V30 11494 N 1059.8 1.27835 0.921735 0
M  V30 11495 C 1060.75 1.1092 2.04449 0
M  V30 11496 C 1061.74 0.0306469 1.69372 0
M  V30 11497 O 1062.95 0.188818 1.79007 0
M  V30 11498 H 1059.32 0.341973 0.669745 0
M  V30 11499 H 1061.29 2.06026 2.1586 0
M  V30 11500 C 1060.04 0.779443 3.38851 0
M  V30 11501 H 1059.36 1.60131 3.66331 0
M  V30 11502 H 1060.8 0.700999 4.18165 0
M  V30 11503 C 1059.26 -0.51647 3.32918 0
M  V30 11504 O 1059.79 -1.54914 3.70627 0
M  V30 11505 N 1058 -0.514276 2.86013 0
M  V30 11506 H 1057.55 0.32651 2.55522 0
M  V30 11507 H 1057.5 -1.38141 2.82426 0
M  V30 11508 N 1061.28 -1.12907 1.09954 0
M  V30 11509 C 1062.55 -1.80602 0.751148 0
M  V30 11510 C 1062.93 -1.96826 -0.763077 0
M  V30 11511 O 1062.28 -1.54066 -1.68749 0
M  V30 11512 C 1062.49 -3.15289 1.49646 0
M  V30 11513 C 1063.84 -3.9056 1.66578 0
M  V30 11514 O 1064.86 -3.24929 1.45943 0
M  V30 11515 O 1063.72 -5.08292 2.00752 0
M  V30 11516 H 1060.82 -0.781529 0.270446 0
M  V30 11517 H 1063.36 -1.19786 1.20206 0
M  V30 11518 H 1062.13 -2.9874 2.52725 0
M  V30 11519 H 1061.76 -3.83809 1.03808 0
M  V30 11520 N 1062.75 -0.88754 -1.30232 0
M  V30 11521 C 1063.7 -0.345765 -2.30016 0
M  V30 11522 C 1064.7 0.5486 -1.60271 0
M  V30 11523 O 1065.9 0.43275 -1.74721 0
M  V30 11524 H 1062.28 -0.0931623 -0.746207 0
M  V30 11525 H 1064.25 -1.20095 -2.73166 0
M  V30 11526 C 1063 0.422435 -3.45124 0
M  V30 11527 H 1062.32 -0.256516 -3.98976 0
M  V30 11528 H 1063.76 0.766572 -4.17013 0
M  V30 11529 C 1062.22 1.62049 -2.95367 0
M  V30 11530 O 1062.75 2.71985 -2.95613 0
M  V30 11531 N 1060.95 1.45852 -2.51347 0
M  V30 11532 H 1060.5 0.564158 -2.51346 0
M  V30 11533 H 1060.46 2.26148 -2.18413 0
M  V30 11534 N 1064.23 1.43628 -0.648757 0
M  V30 11535 C 1065.46 2.06732 -0.166284 0
M  V30 11536 C 1065.88 1.48281 1.15734 0
M  V30 11537 O 1065.24 0.591018 1.71396 0
M  V30 11538 C 1065.29 3.60502 -0.0838732 0
M  V30 11539 O 1064.39 4.01186 0.955185 0
M  V30 11540 H 1063.73 0.657479 -0.0928285 0
M  V30 11541 H 1066.26 1.84208 -0.890421 0
M  V30 11542 H 1066.27 4.07875 0.100923 0
M  V30 11543 H 1064.95 4.02424 -1.05014 0
M  V30 11544 H 1063.53 3.65412 0.743537 0
M  V30 11545 N 1065.71 0.390394 1.52688 0
M  V30 11546 C 1066.64 -0.43567 2.294 0
M  V30 11547 C 1067.62 -1.06253 1.32832 0
M  V30 11548 O 1068.81 -1.07509 1.61726 0
M  V30 11549 C 1065.94 -1.56259 3.10162 0
M  V30 11550 C 1064.89 -1.06172 4.14622 0
M  V30 11551 C 1064.22 -2.2808 4.83615 0
M  V30 11552 C 1065.52 -0.128902 5.22141 0
M  V30 11553 H 1067.21 0.204384 2.98702 0
M  V30 11554 H 1064.76 0.0997377 1.43654 0
M  V30 11555 H 1066.71 -2.14732 3.62585 0
M  V30 11556 H 1065.43 -2.23025 2.38595 0
M  V30 11557 H 1064.09 -0.499518 3.63181 0
M  V30 11558 H 1063.74 -2.93358 4.08595 0
M  V30 11559 H 1063.44 -1.95227 5.5422 0
M  V30 11560 H 1064.96 -2.87193 5.38844 0
M  V30 11561 H 1066.38 -0.621849 5.69917 0
M  V30 11562 H 1064.78 0.109919 5.99999 0
M  V30 11563 H 1065.85 0.821884 4.77884 0
M  V30 11564 N 1067.19 -1.57141 0.120249 0
M  V30 11565 C 1068.1 -2.18925 -0.843155 0
M  V30 11566 C 1069.11 -1.16575 -1.29175 0
M  V30 11567 O 1070.29 -1.4905 -1.35448 0
M  V30 11568 C 1067.36 -2.7775 -2.075 0
M  V30 11569 C 1066.42 -3.95139 -1.6782 0
M  V30 11570 C 1065.65 -4.51149 -2.85132 0
M  V30 11571 O 1065.87 -4.06056 -4.00593 0
M  V30 11572 O 1064.81 -5.41815 -2.62145 0
M  V30 11573 H 1068.63 -3.01707 -0.347357 0
M  V30 11574 H 1066.22 -1.49028 -0.105427 0
M  V30 11575 H 1068.1 -3.15243 -2.79643 0
M  V30 11576 H 1066.77 -1.97998 -2.56083 0
M  V30 11577 H 1065.68 -3.62412 -0.927807 0
M  V30 11578 H 1067.01 -4.7633 -1.23977 0
M  V30 11579 N 1068.67 0.153526 -1.5685 0
M  V30 11580 C 1069.91 0.867232 -1.8299 0
M  V30 11581 C 1070.24 1.81462 -0.700125 0
M  V30 11582 O 1069.5 1.93207 0.311348 0
M  V30 11583 C 1069.8 1.68066 -3.15418 0
M  V30 11584 C 1069.46 0.880635 -4.42217 0
M  V30 11585 C 1068.12 0.659899 -4.76654 0
M  V30 11586 C 1070.48 0.320698 -5.20212 0
M  V30 11587 C 1067.8 -0.131588 -5.86552 0
M  V30 11588 C 1070.16 -0.457794 -6.30941 0
M  V30 11589 C 1068.82 -0.689168 -6.63933 0
M  V30 11590 H 1068.09 0.317343 -0.669608 0
M  V30 11591 H 1070.74 0.131208 -1.9105 0
M  V30 11592 H 1069.04 2.4866 -3.02779 0
M  V30 11593 H 1070.74 2.23623 -3.32857 0
M  V30 11594 H 1067.33 1.06274 -4.15215 0
M  V30 11595 H 1071.51 0.47853 -4.93988 0
M  V30 11596 H 1066.77 -0.320413 -6.1056 0
M  V30 11597 H 1070.94 -0.898839 -6.90575 0
M  V30 11598 H 1068.57 -1.30433 -7.48927 0
M  V30 11599 N 1070.14 1.51827 0.422667 0
M  V30 11600 C 1071.07 1.77152 1.52117 0
M  V30 11601 C 1072.06 0.621895 1.58324 0
M  V30 11602 O 1073.24 0.866118 1.73816 0
M  V30 11603 C 1070.37 1.90991 2.90068 0
M  V30 11604 C 1069.32 3.06516 2.98717 0
M  V30 11605 C 1068.65 3.05559 4.38791 0
M  V30 11606 C 1069.95 4.46223 2.71445 0
M  V30 11607 H 1071.64 2.69135 1.31175 0
M  V30 11608 H 1069.19 1.29507 0.629607 0
M  V30 11609 H 1071.14 2.07291 3.6689 0
M  V30 11610 H 1069.87 0.956688 3.12274 0
M  V30 11611 H 1068.53 2.89945 2.24338 0
M  V30 11612 H 1068.17 2.07985 4.57986 0
M  V30 11613 H 1067.87 3.83144 4.45505 0
M  V30 11614 H 1069.4 3.23971 5.17566 0
M  V30 11615 H 1070.81 4.63069 3.37994 0
M  V30 11616 H 1069.21 5.25623 2.89552 0
M  V30 11617 H 1070.28 4.5525 1.6696 0
M  V30 11618 N 1071.62 -0.679052 1.4222 0
M  V30 11619 C 1072.87 -1.43627 1.42182 0
M  V30 11620 C 1073.19 -1.94964 0.0377095 0
M  V30 11621 O 1072.46 -1.72788 -0.923098 0
M  V30 11622 H 1071.04 -0.532972 0.523402 0
M  V30 11623 H 1073.7 -0.802649 1.77605 0
M  V30 11624 H 1072.8 -2.29137 2.11902 0
M  V30 11625 N 1073.1 -1.28322 -0.914942 0
M  V30 11626 C 1074.35 -1.14785 -1.65853 0
M  V30 11627 C 1074.66 0.303135 -1.93237 0
M  V30 11628 O 1075.87 0.559606 -2.6567 0
M  V30 11629 C 1074.32 -2.00652 -2.98776 0
M  V30 11630 C 1073.93 -3.50483 -2.79044 0
M  V30 11631 C 1075.68 -1.95798 -3.76648 0
M  V30 11632 C 1073.58 -4.28505 -4.076 0
M  V30 11633 H 1072.51 -0.425987 -0.622135 0
M  V30 11634 H 1075.16 -1.52844 -1.01543 0
M  V30 11635 H 1073.55 -1.55447 -3.64214 0
M  V30 11636 H 1074.72 -4.03636 -2.22293 0
M  V30 11637 H 1073.04 -3.5685 -2.14586 0
M  V30 11638 H 1075.63 -2.51359 -4.71935 0
M  V30 11639 H 1075.98 -0.934455 -4.05677 0
M  V30 11640 H 1076.51 -2.38965 -3.18026 0
M  V30 11641 H 1073.25 -5.31433 -3.83744 0
M  V30 11642 H 1072.77 -3.80125 -4.63966 0
M  V30 11643 H 1074.45 -4.3836 -4.75867 0
M  V30 11644 N 1074.58 1.12322 -1.10551 0
M  V30 11645 C 1075.51 2.17819 -0.713263 0
M  V30 11646 C 1076.52 1.6086 0.250604 0
M  V30 11647 O 1077.71 1.78466 0.0348909 0
M  V30 11648 C 1074.81 3.38885 -0.0320325 0
M  V30 11649 C 1073.99 4.25332 -1.02038 0
M  V30 11650 C 1073.04 5.24895 -0.370412 0
M  V30 11651 O 1072.07 5.59958 -1.02157 0
M  V30 11652 N 1073.27 5.73934 0.870633 0
M  V30 11653 H 1076.04 2.52083 -1.62094 0
M  V30 11654 H 1073.6 1.27755 -0.994492 0
M  V30 11655 H 1075.59 4.02574 0.414285 0
M  V30 11656 H 1074.16 3.02762 0.778072 0
M  V30 11657 H 1073.38 3.5824 -1.64492 0
M  V30 11658 H 1074.67 4.79936 -1.68936 0
M  V30 11659 H 1074.07 5.47614 1.419 0
M  V30 11660 H 1072.62 6.39504 1.26008 0
M  V30 11661 N 1076.06 0.894434 1.2976 0
M  V30 11662 C 1077.47 0.566892 1.77885 0
M  V30 11663 C 1077.82 -0.917289 1.73437 0
M  V30 11664 O 1076.94 -1.71707 1.31703 0
M  V30 11665 C 1077.54 1.02227 3.2301 0
M  V30 11666 C 1076.1 0.745978 3.68934 0
M  V30 11667 C 1075.24 1.19993 2.49994 0
M  V30 11668 H 1078.2 1.0777 1.16496 0
M  V30 11669 H 1078.22 0.355281 3.78838 0
M  V30 11670 H 1077.73 2.1025 3.26215 0
M  V30 11671 H 1075.83 -0.321866 3.71207 0
M  V30 11672 H 1075.94 1.34017 4.59974 0
M  V30 11673 H 1074.31 0.619047 2.47063 0
M  V30 11674 H 1075.09 2.28811 2.55931 0
M  V30 11675 N 1077.53 -1.43282 0.656365 0
M  V30 11676 C 1078.76 -2.06125 0.178879 0
M  V30 11677 C 1079.18 -1.49216 -1.15672 0
M  V30 11678 O 1078.53 -0.624693 -1.71475 0
M  V30 11679 C 1078.59 -3.614 0.0851785 0
M  V30 11680 O 1078.31 -4.16194 1.36798 0
M  V30 11681 C 1079.81 -4.41325 -0.41801 0
M  V30 11682 H 1077.03 -0.664753 0.0913504 0
M  V30 11683 H 1079.57 -1.83733 0.897901 0
M  V30 11684 H 1077.73 -3.82966 -0.584421 0
M  V30 11685 H 1078.14 -5.09892 1.22924 0
M  V30 11686 H 1079.61 -5.50303 -0.432519 0
M  V30 11687 H 1080.09 -4.14577 -1.44991 0
M  V30 11688 H 1080.7 -4.24735 0.219208 0
M  V30 11689 N 1079.01 -0.398486 -1.52479 0
M  V30 11690 C 1079.94 0.423498 -2.29627 0
M  V30 11691 C 1080.92 1.05547 -1.33394 0
M  V30 11692 O 1082.11 1.0665 -1.62294 0
M  V30 11693 C 1079.24 1.54612 -3.10986 0
M  V30 11694 C 1078.19 1.03971 -4.15179 0
M  V30 11695 C 1077.52 2.25512 -4.84818 0
M  V30 11696 C 1078.82 0.10121 -5.22202 0
M  V30 11697 H 1080.51 -0.220222 -2.98589 0
M  V30 11698 H 1078.06 -0.107355 -1.43599 0
M  V30 11699 H 1080.01 2.12806 -3.63719 0
M  V30 11700 H 1078.74 2.21756 -2.39774 0
M  V30 11701 H 1077.4 0.480251 -3.63441 0
M  V30 11702 H 1077.04 2.91187 -4.10145 0
M  V30 11703 H 1076.74 1.92285 -5.55248 0
M  V30 11704 H 1078.27 2.84331 -5.40359 0
M  V30 11705 H 1079.68 0.591617 -5.70239 0
M  V30 11706 H 1078.08 -0.141737 -5.99933 0
M  V30 11707 H 1079.15 -0.847216 -4.77441 0
M  V30 11708 N 1080.49 1.57075 -0.12858 0
M  V30 11709 C 1081.74 1.95134 0.526046 0
M  V30 11710 C 1082.06 1.01337 1.66601 0
M  V30 11711 O 1081.33 0.0714361 1.9577 0
M  V30 11712 H 1079.91 0.720468 0.19732 0
M  V30 11713 H 1082.57 1.93874 -0.199767 0
M  V30 11714 H 1081.67 2.98406 0.914332 0
M  V30 11715 N 1081.97 -0.145205 1.5693 0
M  V30 11716 C 1083.38 -0.705089 1.72874 0
M  V30 11717 C 1083.73 -1.81577 0.743261 0
M  V30 11718 O 1082.86 -2.16214 -0.0897153 0
M  V30 11719 C 1083.45 -1.28578 3.13454 0
M  V30 11720 C 1082.01 -1.79221 3.30994 0
M  V30 11721 C 1081.16 -0.681392 2.68798 0
M  V30 11722 H 1084.11 0.0804798 1.58496 0
M  V30 11723 H 1084.13 -2.15558 3.13552 0
M  V30 11724 H 1083.64 -0.477186 3.85155 0
M  V30 11725 H 1081.74 -2.62642 2.64292 0
M  V30 11726 H 1081.86 -1.91969 4.38959 0
M  V30 11727 H 1080.22 -1.10847 2.29314 0
M  V30 11728 H 1081 0.115786 3.43105 0
M  V30 11729 N 1083.45 -1.52049 -0.414609 0
M  V30 11730 C 1084.86 -1.58062 -0.993638 0
M  V30 11731 C 1085.21 -0.417795 -1.917 0
M  V30 11732 O 1084.33 0.462558 -2.11399 0
M  V30 11733 C 1084.93 -2.86471 -1.80886 0
M  V30 11734 C 1083.49 -2.94981 -2.33801 0
M  V30 11735 C 1082.64 -2.52949 -1.13631 0
M  V30 11736 H 1085.59 -1.57497 -0.19504 0
M  V30 11737 H 1085.61 -2.71515 -2.66571 0
M  V30 11738 H 1085.12 -3.71085 -1.13657 0
M  V30 11739 H 1083.22 -2.14849 -3.04419 0
M  V30 11740 H 1083.33 -3.99111 -2.65042 0
M  V30 11741 H 1081.7 -2.0667 -1.48861 0
M  V30 11742 H 1082.48 -3.39931 -0.479765 0
M  V30 11743 N 1084.93 0.6715 -1.42579 0
M  V30 11744 C 1085.87 1.80623 -1.46554 0
M  V30 11745 C 1086.87 1.65934 -0.340932 0
M  V30 11746 O 1088.07 1.72502 -0.514098 0
M  V30 11747 H 1084.45 0.595619 -0.459067 0
M  V30 11748 H 1086.42 1.74388 -2.42139 0
M  V30 11749 C 1085.17 3.18794 -1.38801 0
M  V30 11750 H 1084.49 3.30725 -2.24635 0
M  V30 11751 H 1085.93 3.98201 -1.45645 0
M  V30 11752 C 1084.39 3.36742 -0.103219 0
M  V30 11753 O 1084.92 3.92761 0.842715 0
M  V30 11754 N 1083.13 2.90594 -0.0193034 0
M  V30 11755 H 1082.67 2.45192 -0.78986 0
M  V30 11756 H 1082.63 3.0298 0.839686 0
M  V30 11757 N 1086.4 1.28806 0.908124 0
M  V30 11758 C 1087.34 1.09018 2.01613 0
M  V30 11759 C 1088.35 0.0402059 1.6275 0
M  V30 11760 O 1089.54 0.283853 1.76229 0
M  V30 11761 C 1086.64 0.635712 3.32884 0
M  V30 11762 C 1085.81 1.76235 4.00325 0
M  V30 11763 C 1084.87 1.3003 5.09881 0
M  V30 11764 O 1083.9 2.00354 5.32773 0
M  V30 11765 N 1085.1 0.166575 5.80261 0
M  V30 11766 H 1087.86 2.0444 2.19144 0
M  V30 11767 H 1085.42 1.20633 1.07978 0
M  V30 11768 H 1087.42 0.310097 4.0351 0
M  V30 11769 H 1085.99 -0.225816 3.11783 0
M  V30 11770 H 1085.21 2.25727 3.23173 0
M  V30 11771 H 1086.49 2.51796 4.42127 0
M  V30 11772 H 1085.89 -0.419934 5.64139 0
M  V30 11773 H 1084.45 -0.0997281 6.51724 0
M  V30 11774 N 1087.88 -1.11734 1.11145 0
M  V30 11775 C 1089.29 -1.64928 0.874959 0
M  V30 11776 C 1089.64 -1.87012 -0.593375 0
M  V30 11777 O 1088.77 -1.60206 -1.45475 0
M  V30 11778 C 1089.36 -2.99608 1.58178 0
M  V30 11779 C 1087.92 -3.49723 1.39179 0
M  V30 11780 C 1087.07 -2.24595 1.62642 0
M  V30 11781 H 1090.02 -0.954154 1.26813 0
M  V30 11782 H 1090.04 -3.66434 1.02501 0
M  V30 11783 H 1089.55 -2.83504 2.65042 0
M  V30 11784 H 1087.65 -3.70998 0.345111 0
M  V30 11785 H 1087.77 -4.28711 2.13878 0
M  V30 11786 H 1086.13 -2.32067 1.04961 0
M  V30 11787 H 1086.91 -2.11036 2.70774 0
M  V30 11788 N 1089.36 -0.901303 -1.29284 0
M  V30 11789 C 1090.77 -0.576317 -1.77582 0
M  V30 11790 C 1091.12 0.908078 -1.73921 0
M  V30 11791 O 1090.25 1.71006 -1.32611 0
M  V30 11792 C 1090.84 -1.03938 -3.22463 0
M  V30 11793 C 1089.4 -0.765533 -3.68533 0
M  V30 11794 C 1088.55 -1.21318 -2.49354 0
M  V30 11795 H 1091.5 -1.08386 -1.15923 0
M  V30 11796 H 1091.52 -0.375367 -3.78644 0
M  V30 11797 H 1091.03 -2.11977 -3.25096 0
M  V30 11798 H 1089.13 0.302176 -3.71373 0
M  V30 11799 H 1089.25 -1.36454 -4.59257 0
M  V30 11800 H 1087.61 -0.632141 -2.46731 0
M  V30 11801 H 1088.39 -2.30165 -2.54714 0
M  V30 11802 N 1090.84 1.42931 -0.663954 0
M  V30 11803 C 1092.08 2.01982 -0.182007 0
M  V30 11804 C 1092.42 1.52323 1.20463 0
M  V30 11805 O 1091.69 0.720834 1.80649 0
M  V30 11806 C 1091.97 3.59518 -0.204671 0
M  V30 11807 C 1091.83 4.19382 -1.62599 0
M  V30 11808 C 1093.15 4.37762 0.45308 0
M  V30 11809 H 1090.27 0.733892 -0.0676115 0
M  V30 11810 H 1092.91 1.70092 -0.84668 0
M  V30 11811 H 1091.06 3.86816 0.361295 0
M  V30 11812 H 1092.73 4.03076 -2.24337 0
M  V30 11813 H 1090.97 3.75623 -2.17001 0
M  V30 11814 H 1091.64 5.28496 -1.59362 0
M  V30 11815 H 1094.12 4.1609 -0.0285774 0
M  V30 11816 H 1093 5.47392 0.406538 0
M  V30 11817 H 1093.26 4.1482 1.52895 0
M  V30 11818 N 1092.32 0.406567 1.52266 0
M  V30 11819 C 1093.54 -0.172101 2.06685 0
M  V30 11820 C 1093.97 -1.38306 1.27488 0
M  V30 11821 O 1093.32 -1.78726 0.304441 0
M  V30 11822 C 1093.37 -0.503463 3.57068 0
M  V30 11823 O 1092.48 -1.59485 3.80314 0
M  V30 11824 H 1091.82 -0.0153209 0.663823 0
M  V30 11825 H 1094.35 0.579025 1.96236 0
M  V30 11826 H 1094.36 -0.762833 4.00805 0
M  V30 11827 H 1093.03 0.381775 4.14144 0
M  V30 11828 H 1091.61 -1.32784 3.48458 0
M  V30 11829 N 1093.79 -1.57004 0.136909 0
M  V30 11830 C 1095.04 -1.94972 -0.51662 0
M  V30 11831 C 1095.36 -1.02367 -1.66674 0
M  V30 11832 O 1096.56 -1.29873 -2.38423 0
M  V30 11833 C 1095.02 -3.4657 -0.970435 0
M  V30 11834 C 1094.63 -4.47741 0.152204 0
M  V30 11835 C 1096.37 -3.93423 -1.59432 0
M  V30 11836 C 1094.28 -5.90537 -0.319315 0
M  V30 11837 H 1093.21 -0.727873 -0.196766 0
M  V30 11838 H 1095.86 -1.82181 0.219637 0
M  V30 11839 H 1094.24 -3.54657 -1.76165 0
M  V30 11840 H 1095.41 -4.5134 0.928925 0
M  V30 11841 H 1093.73 -4.10746 0.683867 0
M  V30 11842 H 1096.33 -4.97539 -1.95856 0
M  V30 11843 H 1096.67 -3.34404 -2.47951 0
M  V30 11844 H 1097.2 -3.8821 -0.868193 0
M  V30 11845 H 1093.94 -6.53352 0.530248 0
M  V30 11846 H 1093.46 -5.90321 -1.06213 0
M  V30 11847 H 1095.14 -6.42346 -0.774662 0
M  V30 11848 N 1095.27 0.136881 -1.57004 0
M  V30 11849 C 1096.52 0.844147 -1.85056 0
M  V30 11850 C 1096.87 1.78328 -0.722278 0
M  V30 11851 O 1096.17 1.89557 0.279059 0
M  V30 11852 C 1096.36 1.64711 -3.17183 0
M  V30 11853 C 1096.19 0.787229 -4.42756 0
M  V30 11854 C 1094.96 0.448938 -5.03302 0
M  V30 11855 C 1097.16 0.112947 -5.14176 0
M  V30 11856 N 1095.14 -0.423481 -6.12438 0
M  V30 11857 C 1096.51 -0.619195 -6.169 0
M  V30 11858 C 1098.57 0.0346687 -4.97888 0
M  V30 11859 C 1097.27 -1.42224 -7.05099 0
M  V30 11860 C 1099.29 -0.755143 -5.86559 0
M  V30 11861 C 1098.66 -1.47553 -6.88772 0
M  V30 11862 H 1094.76 0.286398 -0.727668 0
M  V30 11863 H 1097.34 0.108903 -1.94395 0
M  V30 11864 H 1095.51 2.35352 -3.08972 0
M  V30 11865 H 1097.24 2.29833 -3.33105 0
M  V30 11866 H 1094 0.787068 -4.67014 0
M  V30 11867 H 1094.42 -0.851013 -6.7163 0
M  V30 11868 H 1099.06 0.577271 -4.18841 0
M  V30 11869 H 1096.78 -1.97606 -7.83567 0
M  V30 11870 H 1100.37 -0.817835 -5.76023 0
M  V30 11871 H 1099.25 -2.07687 -7.56198 0
M  V30 11872 N 1096.75 1.52266 0.40654 0
M  V30 11873 C 1097.68 1.78755 1.50229 0
M  V30 11874 C 1098.66 0.638652 1.57655 0
M  V30 11875 O 1099.85 0.884505 1.72888 0
M  V30 11876 C 1096.98 1.94057 2.88026 0
M  V30 11877 C 1095.93 3.09667 2.95449 0
M  V30 11878 C 1095.26 3.10196 4.35526 0
M  V30 11879 C 1096.56 4.49077 2.66697 0
M  V30 11880 H 1098.25 2.70511 1.28313 0
M  V30 11881 H 1095.8 1.30167 0.615836 0
M  V30 11882 H 1097.75 2.11171 3.64671 0
M  V30 11883 H 1096.47 0.989755 3.11242 0
M  V30 11884 H 1095.13 2.92308 2.2125 0
M  V30 11885 H 1094.78 2.12831 4.55754 0
M  V30 11886 H 1094.48 3.87847 4.41416 0
M  V30 11887 H 1096 3.29443 5.14101 0
M  V30 11888 H 1097.42 4.66628 3.33064 0
M  V30 11889 H 1095.82 5.28665 2.8396 0
M  V30 11890 H 1096.89 4.56995 1.62122 0
M  V30 11891 N 1098.23 -0.663929 1.42933 0
M  V30 11892 C 1099.48 -1.41973 1.43271 0
M  V30 11893 C 1099.79 -1.95518 0.0566103 0
M  V30 11894 O 1101 -2.71428 -0.0625862 0
M  V30 11895 C 1099.45 -2.56882 2.52071 0
M  V30 11896 C 1099.06 -2.0999 3.95737 0
M  V30 11897 C 1100.8 -3.34322 2.61589 0
M  V30 11898 C 1098.71 -3.22046 4.96025 0
M  V30 11899 H 1097.64 -0.5334 0.532917 0
M  V30 11900 H 1100.29 -0.717709 1.68882 0
M  V30 11901 H 1098.67 -3.29504 2.19643 0
M  V30 11902 H 1099.85 -1.44449 4.37574 0
M  V30 11903 H 1098.16 -1.45459 3.90168 0
M  V30 11904 H 1100.76 -4.17796 3.33692 0
M  V30 11905 H 1101.1 -3.8164 1.66302 0
M  V30 11906 H 1101.64 -2.68775 2.93266 0
M  V30 11907 H 1098.38 -2.79708 5.92827 0
M  V30 11908 H 1097.9 -3.86333 4.5881 0
M  V30 11909 H 1099.57 -3.87345 5.1824 0
M  V30 11910 N 1099.71 -1.29285 -0.901281 0
M  V30 11911 C 1100.95 -1.17339 -1.65407 0
M  V30 11912 C 1101.29 0.274834 -1.92245 0
M  V30 11913 O 1100.56 1.19865 -1.53176 0
M  V30 11914 C 1100.84 -1.98547 -3.00418 0
M  V30 11915 C 1100.7 -3.51501 -2.80655 0
M  V30 11916 C 1102.02 -1.81062 -4.01129 0
M  V30 11917 H 1099.13 -0.427624 -0.600255 0
M  V30 11918 H 1101.78 -1.58741 -1.0441 0
M  V30 11919 H 1099.93 -1.63366 -3.52482 0
M  V30 11920 H 1101.6 -3.96655 -2.35505 0
M  V30 11921 H 1099.84 -3.76504 -2.15469 0
M  V30 11922 H 1100.51 -4.03593 -3.76585 0
M  V30 11923 H 1102.99 -2.11788 -3.58169 0
M  V30 11924 H 1101.86 -2.40235 -4.93536 0
M  V30 11925 H 1102.13 -0.765388 -4.35424 0
M  V30 11926 N 1101.18 1.11143 -1.11736 0
M  V30 11927 C 1102.43 1.82948 -0.868127 0
M  V30 11928 C 1102.76 1.84813 0.606182 0
M  V30 11929 O 1102.01 1.29901 1.4637 0
M  V30 11930 C 1102.31 3.29733 -1.3788 0
M  V30 11931 C 1101.98 3.48025 -2.86687 0
M  V30 11932 C 1100.64 3.52725 -3.2732 0
M  V30 11933 C 1102.99 3.54024 -3.82513 0
M  V30 11934 C 1100.32 3.60983 -4.62502 0
M  V30 11935 C 1102.67 3.63814 -5.17515 0
M  V30 11936 C 1101.34 3.66776 -5.57702 0
M  V30 11937 H 1100.61 0.669452 -0.31767 0
M  V30 11938 H 1103.25 1.31057 -1.3963 0
M  V30 11939 H 1101.56 3.8414 -0.77093 0
M  V30 11940 H 1103.26 3.83787 -1.16225 0
M  V30 11941 H 1099.85 3.45039 -2.54256 0
M  V30 11942 H 1104.03 3.4965 -3.52219 0
M  V30 11943 H 1099.29 3.61554 -4.9304 0
M  V30 11944 H 1103.46 3.674 -5.916 0
M  V30 11945 H 1101.09 3.72927 -6.62442 0
M  V30 11946 N 1102.66 0.908147 1.28804 0
M  V30 11947 C 1103.91 0.53734 1.94826 0
M  V30 11948 C 1104.23 -0.920962 1.71882 0
M  V30 11949 O 1103.5 -1.65043 1.05534 0
M  V30 11950 H 1102.08 0.195729 0.720902 0
M  V30 11951 H 1104.74 1.15628 1.56895 0
M  V30 11952 H 1103.84 0.727052 3.03513 0
M  V30 11953 N 1104.14 -1.42577 0.671525 0
M  V30 11954 C 1105.39 -2.01882 0.192716 0
M  V30 11955 C 1105.72 -1.52959 -1.19654 0
M  V30 11956 O 1104.99 -0.730404 -1.80265 0
M  V30 11957 C 1105.28 -3.59404 0.223734 0
M  V30 11958 C 1105.13 -4.18514 1.64821 0
M  V30 11959 C 1106.45 -4.37996 -0.429858 0
M  V30 11960 H 1103.57 -0.733523 0.0715026 0
M  V30 11961 H 1106.21 -1.69641 0.855689 0
M  V30 11962 H 1104.36 -3.87003 -0.340776 0
M  V30 11963 H 1106.03 -4.01881 2.26472 0
M  V30 11964 H 1104.28 -3.74467 2.1899 0
M  V30 11965 H 1104.95 -5.27643 1.62162 0
M  V30 11966 H 1107.42 -4.16069 0.0506433 0
M  V30 11967 H 1106.3 -5.476 -0.377503 0
M  V30 11968 H 1106.56 -4.15625 -1.50693 0
M  V30 11969 N 1105.62 -0.414636 -1.52048 0
M  V30 11970 C 1106.86 0.159585 -2.02171 0
M  V30 11971 C 1107.2 1.44321 -1.29943 0
M  V30 11972 O 1106.47 1.90185 -0.407402 0
M  V30 11973 C 1106.76 0.401655 -3.57853 0
M  V30 11974 C 1106.61 -0.899026 -4.40724 0
M  V30 11975 C 1107.93 1.1814 -4.23947 0
M  V30 11976 H 1105.05 0.0565257 -0.734829 0
M  V30 11977 H 1107.69 -0.549183 -1.8189 0
M  V30 11978 H 1105.84 1.00541 -3.75265 0
M  V30 11979 H 1107.51 -1.53502 -4.35011 0
M  V30 11980 H 1105.75 -1.50877 -4.06717 0
M  V30 11981 H 1106.42 -0.683974 -5.47746 0
M  V30 11982 H 1108.9 0.670203 -4.10667 0
M  V30 11983 H 1107.78 1.31953 -5.32804 0
M  V30 11984 H 1108.04 2.2035 -3.83273 0
M  V30 11985 N 1107.1 1.56929 -0.145233 0
M  V30 11986 C 1108.03 2.12449 0.833107 0
M  V30 11987 C 1109.01 1.0476 1.24355 0
M  V30 11988 O 1110.19 1.32579 1.33997 0
M  V30 11989 C 1107.32 2.64274 2.11842 0
M  V30 11990 C 1106.36 3.84093 1.85404 0
M  V30 11991 S 1107.2 5.25172 1.04663 0
M  V30 11992 C 1108.35 5.80384 2.34318 0
M  V30 11993 H 1108.59 2.951 0.360969 0
M  V30 11994 H 1106.12 1.54246 0.0690187 0
M  V30 11995 H 1108.08 2.94783 2.8568 0
M  V30 11996 H 1106.74 1.81756 2.56171 0
M  V30 11997 H 1105.93 4.18593 2.80706 0
M  V30 11998 H 1105.53 3.54336 1.19675 0
M  V30 11999 H 1107.83 5.91709 3.29981 0
M  V30 12000 H 1108.77 6.7798 2.04325 0
M  V30 12001 H 1109.18 5.08617 2.44885 0
M  V30 12002 N 1108.58 -0.128553 1.57075 0
M  V30 12003 C 1109.82 -0.836355 1.83982 0
M  V30 12004 C 1110.14 -1.80862 0.728971 0
M  V30 12005 O 1109.41 -1.94326 -0.247859 0
M  V30 12006 H 1107.99 -0.31185 0.678792 0
M  V30 12007 H 1110.66 -0.118153 1.94542 0
M  V30 12008 H 1109.75 -1.38741 2.79567 0
M  V30 12009 N 1110.05 -1.5248 -0.398459 0
M  V30 12010 C 1111.3 -1.67309 -1.1461 0
M  V30 12011 C 1111.63 -0.407095 -1.89885 0
M  V30 12012 O 1110.91 0.594834 -1.85181 0
M  V30 12013 C 1111.19 -2.90204 -2.13198 0
M  V30 12014 C 1111.04 -4.26881 -1.4175 0
M  V30 12015 C 1112.36 -3.08634 -3.13741 0
M  V30 12016 H 1109.48 -0.608853 -0.415292 0
M  V30 12017 H 1112.12 -1.85057 -0.430573 0
M  V30 12018 H 1110.27 -2.75204 -2.74218 0
M  V30 12019 H 1111.95 -4.53631 -0.837676 0
M  V30 12020 H 1110.19 -4.27793 -0.719387 0
M  V30 12021 H 1110.86 -5.08939 -2.1374 0
M  V30 12022 H 1113.34 -3.22603 -2.62805 0
M  V30 12023 H 1112.21 -3.96117 -3.79977 0
M  V30 12024 H 1112.47 -2.22425 -3.82073 0
M  V30 12025 N 1111.53 0.65634 -1.43283 0
M  V30 12026 C 1112.78 1.41212 -1.44021 0
M  V30 12027 C 1113.09 1.95485 -0.0669783 0
M  V30 12028 O 1114.3 2.71457 0.0481909 0
M  V30 12029 C 1112.76 2.55541 -2.5343 0
M  V30 12030 C 1112.36 2.07889 -3.96845 0
M  V30 12031 C 1114.11 3.3293 -2.63359 0
M  V30 12032 C 1112.01 3.19411 -4.97726 0
M  V30 12033 H 1110.94 0.530566 -0.535739 0
M  V30 12034 H 1113.6 0.708743 -1.6926 0
M  V30 12035 H 1111.98 3.28335 -2.21387 0
M  V30 12036 H 1113.15 1.42127 -4.38334 0
M  V30 12037 H 1111.47 1.43388 -3.90933 0
M  V30 12038 H 1114.06 4.1602 -3.35903 0
M  V30 12039 H 1114.41 3.80753 -1.68324 0
M  V30 12040 H 1114.94 2.67216 -2.94687 0
M  V30 12041 H 1111.68 2.7656 -5.94302 0
M  V30 12042 H 1111.2 3.83895 -4.60853 0
M  V30 12043 H 1112.88 3.84591 -5.20287 0
M  V30 12044 N 1113.01 1.29761 0.894412 0
M  V30 12045 C 1114.26 1.18214 1.64782 0
M  V30 12046 C 1114.59 -0.264635 1.92388 0
M  V30 12047 O 1113.86 -1.19051 1.53809 0
M  V30 12048 C 1114.15 2.00138 2.99361 0
M  V30 12049 C 1114 3.52984 2.78787 0
M  V30 12050 C 1115.32 1.83187 4.00163 0
M  V30 12051 H 1112.44 0.430802 0.597979 0
M  V30 12052 H 1115.08 1.59292 1.03566 0
M  V30 12053 H 1113.23 1.65233 3.51611 0
M  V30 12054 H 1114.9 3.97898 2.33398 0
M  V30 12055 H 1113.14 3.77642 2.13469 0
M  V30 12056 H 1113.82 4.05585 3.7444 0
M  V30 12057 H 1116.29 2.13684 3.57041 0
M  V30 12058 H 1115.17 2.42849 4.92255 0
M  V30 12059 H 1115.43 0.788469 4.35012 0
M  V30 12060 N 1114.49 -1.10549 1.12324 0
M  V30 12061 C 1115.73 -1.82755 0.879117 0
M  V30 12062 C 1116.07 -1.84905 -0.593604 0
M  V30 12063 O 1115.34 -1.30884 -1.43873 0
M  V30 12064 C 1115.62 -3.29481 1.45308 0
M  V30 12065 C 1115.48 -3.3567 2.99408 0
M  V30 12066 C 1116.8 -4.25828 1.11167 0
M  V30 12067 H 1113.92 -0.663513 0.32081 0
M  V30 12068 H 1116.56 -1.29572 1.38965 0
M  V30 12069 H 1114.71 -3.74902 1.01887 0
M  V30 12070 H 1116.38 -2.98739 3.515 0
M  V30 12071 H 1114.62 -2.75606 3.34998 0
M  V30 12072 H 1115.29 -4.38983 3.34661 0
M  V30 12073 H 1117.77 -3.88635 1.48667 0
M  V30 12074 H 1116.65 -5.26857 1.53991 0
M  V30 12075 H 1116.91 -4.42094 0.0237046 0
M  V30 12076 N 1115.97 -0.914965 -1.28321 0
M  V30 12077 C 1117.21 -0.547665 -1.94538 0
M  V30 12078 C 1117.53 0.911834 -1.72368 0
M  V30 12079 O 1116.8 1.64481 -1.06408 0
M  V30 12080 H 1115.38 -0.199549 -0.719853 0
M  V30 12081 H 1118.05 -1.16459 -1.5628 0
M  V30 12082 H 1117.14 -0.743138 -3.03124 0
M  V30 12083 N 1117.44 1.42219 -0.679077 0
M  V30 12084 C 1118.69 2.00703 -0.200309 0
M  V30 12085 C 1119.01 1.54339 1.20161 0
M  V30 12086 O 1120.21 2.0527 1.77698 0
M  V30 12087 C 1118.67 3.58586 -0.307248 0
M  V30 12088 C 1118.28 4.13937 -1.71349 0
M  V30 12089 C 1120.02 4.24351 0.112588 0
M  V30 12090 C 1117.93 5.64198 -1.77297 0
M  V30 12091 H 1116.86 0.750638 -0.0711279 0
M  V30 12092 H 1119.51 1.62893 -0.844881 0
M  V30 12093 H 1117.89 3.93921 0.40529 0
M  V30 12094 H 1119.06 3.90054 -2.45346 0
M  V30 12095 H 1117.38 3.60639 -2.08155 0
M  V30 12096 H 1119.98 5.34627 0.0883578 0
M  V30 12097 H 1120.32 4.00142 1.14857 0
M  V30 12098 H 1120.85 3.93992 -0.549093 0
M  V30 12099 H 1117.59 5.93211 -2.78892 0
M  V30 12100 H 1117.11 5.90058 -1.07662 0
M  V30 12101 H 1118.79 6.2869 -1.52835 0
M  V30 12102 N 1118.92 0.422693 1.51826 0
M  V30 12103 C 1120.17 -0.148861 2.02253 0
M  V30 12104 C 1120.5 -1.43629 1.30707 0
M  V30 12105 O 1119.78 -1.89967 0.417482 0
M  V30 12106 C 1120.06 -0.382672 3.58061 0
M  V30 12107 C 1119.91 0.922386 4.40241 0
M  V30 12108 C 1121.23 -1.1589 4.24567 0
M  V30 12109 H 1118.35 -0.0526279 0.735119 0
M  V30 12110 H 1120.99 0.558821 1.81596 0
M  V30 12111 H 1119.14 -0.985495 3.75793 0
M  V30 12112 H 1120.81 1.55806 4.34191 0
M  V30 12113 H 1119.06 1.53032 4.05911 0
M  V30 12114 H 1119.73 0.713012 5.47376 0
M  V30 12115 H 1122.2 -0.648415 4.11017 0
M  V30 12116 H 1121.08 -1.29125 5.33496 0
M  V30 12117 H 1121.34 -2.18315 3.84436 0
M  V30 12118 N 1120.4 -1.5685 0.153553 0
M  V30 12119 C 1121.65 -1.95509 -0.495911 0
M  V30 12120 C 1121.96 -1.04129 -1.65579 0
M  V30 12121 O 1123.17 -1.32394 -2.37032 0
M  V30 12122 C 1121.62 -3.47579 -0.933622 0
M  V30 12123 C 1121.23 -4.47555 0.199684 0
M  V30 12124 C 1122.98 -3.95092 -1.55251 0
M  V30 12125 C 1120.88 -5.90843 -0.256663 0
M  V30 12126 H 1119.81 -0.729919 -0.189035 0
M  V30 12127 H 1122.46 -1.81938 0.238947 0
M  V30 12128 H 1120.85 -3.56506 -1.72394 0
M  V30 12129 H 1122.02 -4.50329 0.976744 0
M  V30 12130 H 1120.33 -4.09997 0.727394 0
M  V30 12131 H 1122.93 -4.99588 -1.90567 0
M  V30 12132 H 1123.27 -3.37015 -2.4439 0
M  V30 12133 H 1123.81 -3.89109 -0.826969 0
M  V30 12134 H 1120.55 -6.52753 0.599515 0
M  V30 12135 H 1120.07 -5.91414 -0.999458 0
M  V30 12136 H 1121.75 -6.43131 -0.70649 0
M  V30 12137 N 1121.88 0.120221 -1.57141 0
M  V30 12138 C 1122.81 1.14876 -2.03287 0
M  V30 12139 C 1123.79 1.43259 -0.917112 0
M  V30 12140 O 1124.97 1.53721 -1.18674 0
M  V30 12141 C 1122.1 2.47525 -2.43616 0
M  V30 12142 C 1121.06 2.33607 -3.58625 0
M  V30 12143 C 1120.38 3.71207 -3.84849 0
M  V30 12144 C 1121.68 1.79761 -4.90391 0
M  V30 12145 H 1123.38 0.764943 -2.89463 0
M  V30 12146 H 1120.92 0.366516 -1.39258 0
M  V30 12147 H 1122.88 3.19728 -2.74504 0
M  V30 12148 H 1121.6 2.87794 -1.54409 0
M  V30 12149 H 1120.26 1.63853 -3.27945 0
M  V30 12150 H 1119.91 4.0896 -2.9285 0
M  V30 12151 H 1119.61 3.62749 -4.62263 0
M  V30 12152 H 1121.13 4.44917 -4.18188 0
M  V30 12153 H 1122.55 2.4178 -5.19822 0
M  V30 12154 H 1120.94 1.82126 -5.71795 0
M  V30 12155 H 1122.01 0.755087 -4.78985 0
M  V30 12156 N 1123.36 1.52689 0.390367 0
M  V30 12157 C 1124.61 1.6689 1.13272 0
M  V30 12158 C 1124.92 0.414433 1.91159 0
M  V30 12159 O 1126.12 0.436559 2.67967 0
M  V30 12160 C 1124.58 2.94929 2.06264 0
M  V30 12161 C 1124.19 4.27551 1.33805 0
M  V30 12162 C 1125.93 3.18497 2.80642 0
M  V30 12163 C 1123.84 5.46698 2.25554 0
M  V30 12164 H 1122.77 0.621749 0.426549 0
M  V30 12165 H 1125.42 1.79185 0.395615 0
M  V30 12166 H 1123.8 2.76378 2.83604 0
M  V30 12167 H 1124.98 4.56651 0.616997 0
M  V30 12168 H 1123.29 4.10234 0.713913 0
M  V30 12169 H 1125.89 4.04693 3.49467 0
M  V30 12170 H 1126.23 2.33511 3.44642 0
M  V30 12171 H 1126.76 3.37607 2.10395 0
M  V30 12172 H 1123.5 6.34088 1.66171 0
M  V30 12173 H 1123.02 5.21913 2.95579 0
M  V30 12174 H 1124.7 5.80519 2.85668 0
M  V30 12175 N 1124.83 -0.648732 1.43629 0
M  V30 12176 C 1126.08 -1.40857 1.45483 0
M  V30 12177 C 1126.41 -1.94332 0.0807963 0
M  V30 12178 O 1125.66 -1.72999 -0.914875 0
M  V30 12179 C 1125.96 -2.60394 2.44806 0
M  V30 12180 C 1125.63 -2.25311 3.90571 0
M  V30 12181 C 1124.29 -2.15456 4.3027 0
M  V30 12182 C 1126.64 -1.97307 4.8241 0
M  V30 12183 C 1123.97 -1.75759 5.59755 0
M  V30 12184 C 1126.32 -1.59108 6.12264 0
M  V30 12185 C 1124.99 -1.47781 6.50936 0
M  V30 12186 H 1124.26 -0.515434 0.532362 0
M  V30 12187 H 1126.9 -0.737339 1.76736 0
M  V30 12188 H 1125.21 -3.3267 2.06973 0
M  V30 12189 H 1126.91 -3.18609 2.43494 0
M  V30 12190 H 1123.5 -2.33894 3.59154 0
M  V30 12191 H 1127.68 -2.0384 4.52507 0
M  V30 12192 H 1122.94 -1.65579 5.88552 0
M  V30 12193 H 1127.11 -1.36472 6.82897 0
M  V30 12194 H 1124.74 -1.16792 7.51175 0
M  V30 12195 N 1126.31 -1.30234 -0.887518 0
M  V30 12196 C 1127.54 -1.21829 -1.67229 0
M  V30 12197 C 1127.96 0.219251 -1.87523 0
M  V30 12198 O 1127.31 1.14526 -1.42091 0
M  V30 12199 C 1127.36 -1.94044 -3.05007 0
M  V30 12200 O 1127.08 -3.32185 -2.85631 0
M  V30 12201 C 1128.59 -1.92265 -3.99436 0
M  V30 12202 H 1125.81 -0.421716 -0.521916 0
M  V30 12203 H 1128.35 -1.71816 -1.10903 0
M  V30 12204 H 1126.5 -1.47861 -3.58072 0
M  V30 12205 H 1126.92 -3.68724 -3.73018 0
M  V30 12206 H 1128.39 -2.47336 -4.93486 0
M  V30 12207 H 1128.87 -0.900984 -4.29859 0
M  V30 12208 H 1129.48 -2.38247 -3.52305 0
M  V30 12209 N 1127.79 1.09952 -1.12909 0
M  V30 12210 C 1129.04 1.81657 -0.885729 0
M  V30 12211 C 1129.36 1.85863 0.589913 0
M  V30 12212 O 1128.63 1.34028 1.42875 0
M  V30 12213 H 1127.21 0.672743 -0.324694 0
M  V30 12214 H 1129.87 1.33013 -1.42456 0
M  V30 12215 H 1128.97 2.85018 -1.27167 0
M  V30 12216 N 1129.27 0.921757 1.27833 0
M  V30 12217 C 1130.52 0.55493 1.93916 0
M  V30 12218 C 1130.83 -0.907191 1.7329 0
M  V30 12219 O 1132.04 -1.38253 2.33663 0
M  V30 12220 C 1130.49 0.941644 3.47363 0
M  V30 12221 C 1130.1 2.42404 3.76755 0
M  V30 12222 C 1131.84 0.645785 4.19559 0
M  V30 12223 C 1129.75 2.75046 5.23549 0
M  V30 12224 H 1128.68 0.203818 0.72593 0
M  V30 12225 H 1131.33 1.12176 1.4522 0
M  V30 12226 H 1129.71 0.303519 3.94835 0
M  V30 12227 H 1130.89 3.10957 3.40062 0
M  V30 12228 H 1129.2 2.69118 3.17749 0
M  V30 12229 H 1131.8 0.866237 5.27637 0
M  V30 12230 H 1132.14 -0.41676 4.14209 0
M  V30 12231 H 1132.68 1.24274 3.7789 0
M  V30 12232 H 1129.42 3.80186 5.33984 0
M  V30 12233 H 1128.94 2.11138 5.6141 0
M  V30 12234 H 1130.61 2.62474 5.91368 0
M  V30 12235 N 1130.75 -1.41857 0.686609 0
M  V30 12236 C 1132.16 -1.55549 0.357288 0
M  V30 12237 C 1132.36 -1.66394 -1.13646 0
M  V30 12238 O 1131.42 -1.63739 -1.92213 0
M  V30 12239 C 1132.73 -2.79938 1.09796 0
M  V30 12240 C 1134.28 -2.93724 1.08143 0
M  V30 12241 C 1134.75 -4.20989 1.80367 0
M  V30 12242 N 1136.25 -4.27927 1.77293 0
M  V30 12243 C 1136.98 -5.2524 2.30022 0
M  V30 12244 N 1136.48 -6.28636 2.91185 0
M  V30 12245 N 1138.27 -5.17118 2.20329 0
M  V30 12246 H 1130.42 -1.33063 1.65554 0
M  V30 12247 H 1132.68 -0.641335 0.698135 0
M  V30 12248 H 1132.39 -2.78104 2.15293 0
M  V30 12249 H 1132.26 -3.71188 0.670763 0
M  V30 12250 H 1134.65 -2.9508 0.0347554 0
M  V30 12251 H 1134.73 -2.03673 1.54761 0
M  V30 12252 H 1134.38 -4.20395 2.85009 0
M  V30 12253 H 1134.31 -5.09997 1.3119 0
M  V30 12254 H 1136.8 -3.53838 1.32692 0
M  V30 12255 H 1137.11 -6.99265 3.29011 0
M  V30 12256 H 1135.45 -6.29164 2.95259 0
M  V30 12257 H 1138.65 -4.35265 1.72226 0
M  V30 12258 H 1138.82 -5.92792 2.61728 0
M  V30 12259 N 1132.22 -0.430739 -1.51599 0
M  V30 12260 C 1133.5 0.197543 -1.946 0
M  V30 12261 C 1133.88 1.6069 -1.36901 0
M  V30 12262 O 1133.23 2.21697 -0.553422 0
M  V30 12263 C 1133.44 0.181976 -3.48525 0
M  V30 12264 C 1134.79 0.390783 -4.22798 0
M  V30 12265 O 1135.81 0.260384 -3.55247 0
M  V30 12266 O 1134.67 0.649701 -5.42624 0
M  V30 12267 H 1131.76 0.133524 -0.81615 0
M  V30 12268 H 1134.31 -0.488243 -1.62525 0
M  V30 12269 H 1133.08 -0.803584 -3.8296 0
M  V30 12270 H 1132.71 0.910952 -3.87024 0
M  V30 12271 N 1133.7 1.56767 -0.161869 0
M  V30 12272 C 1135.12 1.58412 0.194403 0
M  V30 12273 C 1135.32 1.17682 1.63564 0
M  V30 12274 O 1134.37 0.884024 2.36519 0
M  V30 12275 C 1135.69 3.00599 -0.0778438 0
M  V30 12276 C 1137.24 3.12996 -0.015307 0
M  V30 12277 C 1137.71 4.57259 -0.260418 0
M  V30 12278 N 1139.2 4.62733 -0.207863 0
M  V30 12279 C 1139.94 5.72193 -0.371821 0
M  V30 12280 N 1139.43 6.90246 -0.594318 0
M  V30 12281 N 1141.23 5.61253 -0.308384 0
M  V30 12282 H 1133.38 1.81531 -1.10274 0
M  V30 12283 H 1135.64 0.840919 -0.437675 0
M  V30 12284 H 1135.35 3.3484 -1.07587 0
M  V30 12285 H 1135.22 3.71819 0.634845 0
M  V30 12286 H 1137.61 2.78588 0.97329 0
M  V30 12287 H 1137.69 2.44232 -0.760559 0
M  V30 12288 H 1137.33 4.92375 -1.24618 0
M  V30 12289 H 1137.26 5.2417 0.505334 0
M  V30 12290 H 1139.75 3.77878 -0.0411541 0
M  V30 12291 H 1140.07 7.6954 -0.70913 0
M  V30 12292 H 1138.41 6.92131 -0.630819 0
M  V30 12293 H 1141.6 4.67905 -0.135217 0
M  V30 12294 H 1141.77 6.46507 -0.439592 0
M  V30 12295 N 1135.18 -0.111886 1.57202 0
M  V30 12296 C 1136.13 -1.13688 2.00858 0
M  V30 12297 C 1137.1 -1.40752 0.881939 0
M  V30 12298 O 1138.28 -1.52498 1.14669 0
M  V30 12299 C 1135.42 -2.45641 2.42393 0
M  V30 12300 C 1134.54 -2.25452 3.68504 0
M  V30 12301 C 1133.67 -3.50686 3.9899 0
M  V30 12302 C 1132.71 -3.25685 5.18262 0
M  V30 12303 N 1131.85 -4.4314 5.44583 0
M  V30 12304 H 1136.69 -0.757611 2.88209 0
M  V30 12305 H 1134.22 -0.362582 1.42561 0
M  V30 12306 H 1136.18 -3.22627 2.64514 0
M  V30 12307 H 1134.81 -2.81447 1.58074 0
M  V30 12308 H 1133.86 -1.39349 3.53958 0
M  V30 12309 H 1135.18 -2.0296 4.55641 0
M  V30 12310 H 1134.33 -4.36087 4.21797 0
M  V30 12311 H 1133.07 -3.76216 3.10343 0
M  V30 12312 H 1132.07 -2.38675 4.95292 0
M  V30 12313 H 1133.3 -3.01518 6.08493 0
M  V30 12314 H 1131.24 -4.68778 4.58893 0
M  V30 12315 H 1131.16 -4.23778 6.26058 0
M  V30 12316 H 1132.43 -5.29654 5.71915 0
M  V30 12317 N 1136.66 -1.52894 -0.382264 0
M  V30 12318 C 1137.61 -1.78151 -1.46734 0
M  V30 12319 C 1138.58 -0.625034 -1.53891 0
M  V30 12320 O 1139.76 -0.865467 -1.70042 0
M  V30 12321 C 1136.9 -1.96223 -2.83885 0
M  V30 12322 C 1136.01 -3.23925 -2.85826 0
M  V30 12323 C 1135.15 -3.32277 -4.14446 0
M  V30 12324 C 1134.19 -4.54076 -4.10465 0
M  V30 12325 N 1133.32 -4.59672 -5.30703 0
M  V30 12326 H 1138.16 -2.70748 -1.24497 0
M  V30 12327 H 1135.7 -1.34135 -0.603838 0
M  V30 12328 H 1137.66 -2.04686 -3.63537 0
M  V30 12329 H 1136.29 -1.0698 -3.04557 0
M  V30 12330 H 1135.34 -3.245 -1.98505 0
M  V30 12331 H 1136.65 -4.1364 -2.78754 0
M  V30 12332 H 1135.81 -3.3996 -5.02506 0
M  V30 12333 H 1134.55 -2.40548 -4.2425 0
M  V30 12334 H 1133.55 -4.46511 -3.20793 0
M  V30 12335 H 1134.78 -5.47128 -4.02278 0
M  V30 12336 H 1132.72 -3.70838 -5.41124 0
M  V30 12337 H 1132.64 -5.43268 -5.25734 0
M  V30 12338 H 1133.91 -4.71618 -6.20642 0
M  V30 12339 N 1138.14 0.641106 -1.43971 0
M  V30 12340 C 1139.08 1.75352 -1.50068 0
M  V30 12341 C 1140.05 1.62386 -0.349266 0
M  V30 12342 O 1141.24 1.82455 -0.558118 0
M  V30 12343 C 1138.38 3.13561 -1.4413 0
M  V30 12344 C 1137.49 3.37574 -2.6957 0
M  V30 12345 C 1136.63 4.65698 -2.55535 0
M  V30 12346 C 1135.67 4.82857 -3.76186 0
M  V30 12347 N 1134.8 6.02249 -3.60888 0
M  V30 12348 H 1139.64 1.69477 -2.45116 0
M  V30 12349 H 1137.18 0.826871 -1.2166 0
M  V30 12350 H 1139.14 3.93476 -1.38681 0
M  V30 12351 H 1137.77 3.18476 -0.526563 0
M  V30 12352 H 1136.82 2.5167 -2.85248 0
M  V30 12353 H 1138.13 3.46135 -3.59154 0
M  V30 12354 H 1137.29 5.53759 -2.47862 0
M  V30 12355 H 1136.03 4.59479 -1.63495 0
M  V30 12356 H 1135.03 3.93229 -3.84254 0
M  V30 12357 H 1136.26 4.90898 -4.6925 0
M  V30 12358 H 1134.2 5.97138 -2.71591 0
M  V30 12359 H 1134.12 6.11822 -4.44083 0
M  V30 12360 H 1135.39 6.92898 -3.57088 0
M  V30 12361 N 1139.62 1.30703 0.880598 0
M  V30 12362 C 1140.56 1.17369 2.00817 0
M  V30 12363 C 1141.56 0.0845159 1.69189 0
M  V30 12364 O 1142.76 0.245673 1.78316 0
M  V30 12365 H 1139.14 0.363107 0.658527 0
M  V30 12366 H 1141.11 2.12789 2.09197 0
M  V30 12367 C 1139.86 0.886851 3.362 0
M  V30 12368 H 1139.18 1.71704 3.61051 0
M  V30 12369 H 1140.62 0.83368 4.15723 0
M  V30 12370 C 1139.08 -0.410293 3.34392 0
M  V30 12371 O 1139.61 -1.43044 3.75368 0
M  V30 12372 N 1137.82 -0.423023 2.87505 0
M  V30 12373 H 1137.36 0.407637 2.54354 0
M  V30 12374 H 1137.32 -1.29086 2.86678 0
M  V30 12375 N 1141.09 -1.09351 1.1349 0
M  V30 12376 C 1142.04 -2.16008 0.812981 0
M  V30 12377 C 1143.01 -1.64566 -0.225252 0
M  V30 12378 O 1144.2 -1.90552 -0.0973261 0
M  V30 12379 C 1141.34 -3.43913 0.285996 0
M  V30 12380 C 1140.45 -4.09251 1.38338 0
M  V30 12381 C 1139.58 -5.24916 0.814652 0
M  V30 12382 C 1138.62 -5.82178 1.89038 0
M  V30 12383 N 1137.76 -6.89203 1.33955 0
M  V30 12384 H 1142.6 -2.42887 1.72655 0
M  V30 12385 H 1140.14 -1.19209 0.861833 0
M  V30 12386 H 1142.09 -4.17183 -0.0376794 0
M  V30 12387 H 1140.72 -3.17349 -0.590707 0
M  V30 12388 H 1139.78 -3.33838 1.82363 0
M  V30 12389 H 1141.09 -4.4784 2.19638 0
M  V30 12390 H 1140.24 -6.05086 0.442306 0
M  V30 12391 H 1138.98 -4.87691 -0.029416 0
M  V30 12392 H 1137.99 -5.00669 2.27179 0
M  V30 12393 H 1139.21 -6.21464 2.73787 0
M  V30 12394 H 1137.16 -6.53956 0.517494 0
M  V30 12395 H 1137.07 -7.26565 2.08902 0
M  V30 12396 H 1138.34 -7.73126 0.994793 0
M  V30 12397 N 1142.57 -0.928524 -1.27343 0
M  V30 12398 C 1143.53 -0.43292 -2.25074 0
M  V30 12399 C 1144.53 0.448976 -1.54405 0
M  V30 12400 O 1145.72 0.249939 -1.72398 0
M  V30 12401 C 1142.86 0.377539 -3.38803 0
M  V30 12402 H 1144.05 -1.29642 -2.70431 0
M  V30 12403 H 1141.6 -0.709289 -1.3928 0
M  V30 12404 H 1142.34 1.25982 -2.98829 0
M  V30 12405 H 1142.12 -0.254782 -3.91271 0
M  V30 12406 H 1143.61 0.714634 -4.1144 0
M  V30 12407 N 1144.05 1.41491 -0.694123 0
M  V30 12408 C 1145.47 1.55358 -0.365532 0
M  V30 12409 C 1145.67 1.66994 1.12762 0
M  V30 12410 O 1144.72 1.64756 1.91342 0
M  V30 12411 C 1146.03 2.79352 -1.11279 0
M  V30 12412 C 1147.58 2.93147 -1.097 0
M  V30 12413 C 1148.06 4.20027 -1.82597 0
M  V30 12414 N 1149.55 4.26981 -1.7956 0
M  V30 12415 C 1150.28 5.24013 -2.32805 0
M  V30 12416 N 1149.78 6.27083 -2.94515 0
M  V30 12417 N 1151.57 5.15943 -2.23069 0
M  V30 12418 H 1143.72 1.32183 -1.66257 0
M  V30 12419 H 1145.99 0.637624 -0.701527 0
M  V30 12420 H 1145.69 2.76958 -2.16765 0
M  V30 12421 H 1145.57 3.70827 -0.690439 0
M  V30 12422 H 1147.95 2.95057 -0.0504037 0
M  V30 12423 H 1148.03 2.02849 -1.55839 0
M  V30 12424 H 1147.68 4.18878 -2.87235 0
M  V30 12425 H 1147.61 5.09294 -1.33893 0
M  V30 12426 H 1150.1 3.53129 -1.34567 0
M  V30 12427 H 1150.41 6.97511 -3.32714 0
M  V30 12428 H 1148.76 6.27589 -2.98592 0
M  V30 12429 H 1151.95 4.34346 -1.74532 0
M  V30 12430 H 1152.12 5.91396 -2.64868 0
M  V30 12431 N 1145.53 0.438773 1.51369 0
M  V30 12432 C 1146.75 -0.128221 2.07003 0
M  V30 12433 C 1147.18 -1.3557 1.30393 0
M  V30 12434 O 1146.54 -1.7804 0.342283 0
M  V30 12435 C 1146.58 -0.42761 3.58056 0
M  V30 12436 O 1145.69 -1.51382 3.83611 0
M  V30 12437 H 1145.03 -0.00123679 0.663999 0
M  V30 12438 H 1147.56 0.62052 1.94963 0
M  V30 12439 H 1147.57 -0.677645 4.02333 0
M  V30 12440 H 1146.24 0.469535 4.13241 0
M  V30 12441 H 1144.82 -1.25363 3.51196 0
M  V30 12442 N 1147.01 -1.56678 0.170181 0
M  V30 12443 C 1148.25 -1.9646 -0.474125 0
M  V30 12444 C 1148.57 -1.05719 -1.63855 0
M  V30 12445 O 1147.84 -0.123316 -1.95511 0
M  V30 12446 H 1146.42 -0.725446 -0.178149 0
M  V30 12447 H 1149.09 -1.93276 0.251099 0
M  V30 12448 H 1148.18 -3.00726 -0.834894 0
M  V30 12449 N 1148.48 0.103547 -1.57259 0
M  V30 12450 C 1149.39 1.14475 -2.04774 0
M  V30 12451 C 1150.41 1.44385 -0.971025 0
M  V30 12452 O 1151.59 1.55195 -1.28361 0
M  V30 12453 C 1148.65 2.4475 -2.45558 0
M  V30 12454 C 1147.71 2.22098 -3.67384 0
M  V30 12455 C 1146.94 3.4616 -4.06213 0
M  V30 12456 O 1147.17 4.5407 -3.45219 0
M  V30 12457 O 1146.1 3.36248 -4.9922 0
M  V30 12458 H 1149.93 0.771211 -2.93745 0
M  V30 12459 H 1147.51 0.315456 -1.46032 0
M  V30 12460 H 1149.39 3.21476 -2.72454 0
M  V30 12461 H 1148.07 2.81547 -1.59728 0
M  V30 12462 H 1146.98 1.43179 -3.45616 0
M  V30 12463 H 1148.31 1.90197 -4.53967 0
M  V30 12464 N 1149.96 1.53094 0.37415 0
M  V30 12465 C 1150.91 1.79585 1.47824 0
M  V30 12466 C 1151.9 0.664513 1.55822 0
M  V30 12467 O 1153.11 0.84729 1.58811 0
M  V30 12468 H 1149.48 0.568474 0.492282 0
M  V30 12469 H 1151.46 2.72014 1.22681 0
M  V30 12470 C 1150.2 1.995 2.84772 0
M  V30 12471 H 1149.53 2.85991 2.79373 0
M  V30 12472 H 1150.97 2.22018 3.61226 0
M  V30 12473 C 1149.43 0.771673 3.27943 0
M  V30 12474 O 1149.96 -0.0437737 4.01676 0
M  V30 12475 N 1148.16 0.597547 2.8439 0
M  V30 12476 H 1147.71 1.26227 2.24554 0
M  V30 12477 H 1147.67 -0.219578 3.13632 0
M  V30 12478 N 1151.44 -0.633461 1.44309 0
M  V30 12479 C 1152.85 -1.21504 1.41752 0
M  V30 12480 C 1153.2 -1.95758 0.131667 0
M  V30 12481 O 1152.33 -2.02311 -0.768072 0
M  V30 12482 C 1152.92 -2.21005 2.56792 0
M  V30 12483 C 1151.48 -2.74596 2.57438 0
M  V30 12484 C 1150.63 -1.49555 2.33513 0
M  V30 12485 H 1153.58 -0.424277 1.52923 0
M  V30 12486 H 1153.6 -3.03563 2.29412 0
M  V30 12487 H 1153.11 -1.66934 3.50364 0
M  V30 12488 H 1151.21 -3.32676 1.67801 0
M  V30 12489 H 1151.33 -3.20794 3.55849 0
M  V30 12490 H 1149.69 -1.77605 1.82561 0
M  V30 12491 H 1150.47 -0.973899 3.29196 0
M  V30 12492 N 1152.92 -1.31168 -0.873655 0
M  V30 12493 C 1154.15 -1.23416 -1.65686 0
M  V30 12494 C 1154.56 0.203534 -1.88102 0
M  V30 12495 O 1153.9 1.14476 -1.4367 0
M  V30 12496 C 1153.96 -1.90418 -3.04929 0
M  V30 12497 C 1153.63 -3.39757 -3.05637 0
M  V30 12498 C 1154.62 -4.35565 -2.83865 0
M  V30 12499 C 1152.31 -3.81389 -3.26875 0
M  V30 12500 C 1154.3 -5.70979 -2.83304 0
M  V30 12501 C 1151.99 -5.16918 -3.25943 0
M  V30 12502 C 1152.99 -6.11524 -3.04184 0
M  V30 12503 O 1152.67 -7.44575 -3.0309 0
M  V30 12504 H 1152.41 -0.4278 -0.523415 0
M  V30 12505 H 1154.96 -1.73525 -1.09902 0
M  V30 12506 H 1153.19 -1.34854 -3.62424 0
M  V30 12507 H 1154.88 -1.76631 -3.65453 0
M  V30 12508 H 1155.65 -4.0473 -2.67243 0
M  V30 12509 H 1151.52 -3.08187 -3.42844 0
M  V30 12510 H 1155.07 -6.44796 -2.66239 0
M  V30 12511 H 1150.97 -5.47389 -3.42104 0
M  V30 12512 H 1151.73 -7.53703 -3.19177 0
M  V30 12513 N 1154.4 1.08748 -1.14068 0
M  V30 12514 C 1155.36 2.1375 -0.827266 0
M  V30 12515 C 1156.36 1.59936 0.166496 0
M  V30 12516 O 1157.55 1.74092 -0.0614305 0
M  V30 12517 C 1154.68 3.40106 -0.232557 0
M  V30 12518 H 1155.87 2.42985 -1.7578 0
M  V30 12519 H 1153.43 1.24402 -0.946244 0
M  V30 12520 H 1154.16 3.16503 0.706859 0
M  V30 12521 H 1153.95 3.8046 -0.948293 0
M  V30 12522 H 1155.44 4.17589 -0.0303662 0
M  V30 12523 N 1155.87 0.935264 1.26849 0
M  V30 12524 C 1157.1 0.595704 1.98661 0
M  V30 12525 C 1157.52 -0.821001 1.69237 0
M  V30 12526 O 1156.88 -1.55211 0.936982 0
M  V30 12527 C 1156.93 0.837275 3.50745 0
M  V30 12528 O 1156.03 -0.0934914 4.12294 0
M  V30 12529 H 1155.38 0.228512 0.623441 0
M  V30 12530 H 1157.91 1.25658 1.61466 0
M  V30 12531 H 1157.92 0.755827 4.00938 0
M  V30 12532 H 1156.59 1.86993 3.71492 0
M  V30 12533 H 1155.17 0.0385124 3.7288 0
M  V30 12534 N 1157.35 -1.41121 0.701616 0
M  V30 12535 C 1158.6 -2.00359 0.232214 0
M  V30 12536 C 1158.91 -1.56231 -1.17691 0
M  V30 12537 O 1160.12 -2.08071 -1.74409 0
M  V30 12538 C 1158.58 -3.58052 0.364257 0
M  V30 12539 C 1158.18 -4.11158 1.77913 0
M  V30 12540 C 1159.93 -4.24476 -0.0450628 0
M  V30 12541 C 1157.84 -5.61306 1.8625 0
M  V30 12542 H 1156.77 -0.749411 0.0830609 0
M  V30 12543 H 1159.42 -1.61528 0.870689 0
M  V30 12544 H 1157.8 -3.94515 -0.342569 0
M  V30 12545 H 1158.97 -3.86101 2.5152 0
M  V30 12546 H 1157.29 -3.57282 2.13866 0
M  V30 12547 H 1159.88 -5.347 -0.00329209 0
M  V30 12548 H 1160.23 -4.01919 -1.08477 0
M  V30 12549 H 1160.76 -3.93069 0.611704 0
M  V30 12550 H 1157.5 -5.88699 2.88294 0
M  V30 12551 H 1157.02 -5.88271 1.17036 0
M  V30 12552 H 1158.7 -6.26179 1.62817 0
M  V30 12553 N 1158.83 -0.446794 -1.51134 0
M  V30 12554 C 1160.11 0.176892 -1.94798 0
M  V30 12555 C 1160.49 1.59229 -1.38598 0
M  V30 12556 O 1159.84 2.21097 -0.576905 0
M  V30 12557 C 1160.05 0.145 -3.48699 0
M  V30 12558 C 1161.39 0.345917 -4.23189 0
M  V30 12559 O 1162.42 0.222691 -3.55503 0
M  V30 12560 O 1161.28 0.592112 -5.43283 0
M  V30 12561 H 1158.37 0.12486 -0.81752 0
M  V30 12562 H 1160.92 -0.505453 -1.61998 0
M  V30 12563 H 1159.69 -0.844156 -3.82086 0
M  V30 12564 H 1159.31 0.869851 -3.87968 0
M  V30 12565 N 1160.31 1.56586 -0.178487 0
M  V30 12566 C 1161.56 1.96273 0.464745 0
M  V30 12567 C 1161.87 1.0675 1.63902 0
M  V30 12568 O 1163.08 1.36148 2.34896 0
M  V30 12569 C 1161.53 3.49021 0.878207 0
M  V30 12570 C 1161.14 4.4718 -0.270861 0
M  V30 12571 C 1162.88 3.97512 1.48946 0
M  V30 12572 C 1160.79 5.91176 0.162632 0
M  V30 12573 H 1159.72 0.732834 0.177398 0
M  V30 12574 H 1162.37 1.81534 -0.267861 0
M  V30 12575 H 1160.75 3.59203 1.667 0
M  V30 12576 H 1161.93 4.48718 -1.04826 0
M  V30 12577 H 1160.24 4.08788 -0.792529 0
M  V30 12578 H 1162.84 5.02556 1.82595 0
M  V30 12579 H 1163.18 3.40861 2.38997 0
M  V30 12580 H 1163.72 3.90376 0.76496 0
M  V30 12581 H 1160.46 6.51716 -0.703286 0
M  V30 12582 H 1159.98 5.9293 0.905243 0
M  V30 12583 H 1161.65 6.44174 0.604084 0
M  V30 12584 N 1161.79 -0.095206 1.57312 0
M  V30 12585 C 1163.01 -0.81614 1.90667 0
M  V30 12586 C 1163.44 -1.71494 0.772746 0
M  V30 12587 O 1162.79 -1.79192 -0.275682 0
M  V30 12588 C 1162.84 -1.60555 3.22885 0
M  V30 12589 O 1161.95 -2.71448 3.10467 0
M  V30 12590 H 1161.29 -0.224217 0.624998 0
M  V30 12591 H 1163.82 -0.070464 2.04479 0
M  V30 12592 H 1163.83 -1.98979 3.5619 0
M  V30 12593 H 1162.5 -0.945918 4.05 0
M  V30 12594 H 1161.08 -2.36053 2.88675 0
M  V30 12595 N 1163.26 -1.53291 -0.366026 0
M  V30 12596 C 1164.21 -1.79697 -1.44836 0
M  V30 12597 C 1165.18 -0.641321 -1.5322 0
M  V30 12598 O 1166.37 -0.883453 -1.69115 0
M  V30 12599 C 1163.51 -1.99223 -2.81788 0
M  V30 12600 C 1162.62 -3.26938 -2.82375 0
M  V30 12601 C 1161.75 -3.36654 -4.10898 0
M  V30 12602 C 1160.79 -4.58404 -4.05626 0
M  V30 12603 N 1159.93 -4.65275 -5.25798 0
M  V30 12604 H 1164.77 -2.72053 -1.21619 0
M  V30 12605 H 1162.31 -1.34768 -0.589577 0
M  V30 12606 H 1164.27 -2.0853 -3.61346 0
M  V30 12607 H 1162.9 -1.10204 -3.03406 0
M  V30 12608 H 1161.95 -3.26587 -1.95052 0
M  V30 12609 H 1163.26 -4.16573 -2.74351 0
M  V30 12610 H 1162.41 -3.4527 -4.98872 0
M  V30 12611 H 1161.15 -2.45035 -4.21674 0
M  V30 12612 H 1160.16 -4.49888 -3.16039 0
M  V30 12613 H 1161.38 -5.51364 -3.96453 0
M  V30 12614 H 1159.33 -3.76557 -5.3716 0
M  V30 12615 H 1159.25 -5.48814 -5.19942 0
M  V30 12616 H 1160.51 -4.78175 -6.15605 0
M  V30 12617 N 1164.74 0.6258 -1.44643 0
M  V30 12618 C 1165.99 1.38251 -1.47414 0
M  V30 12619 C 1166.31 1.94689 -0.110043 0
M  V30 12620 O 1165.58 1.76095 0.858333 0
M  V30 12621 H 1164.16 0.513179 -0.542823 0
M  V30 12622 H 1166.82 0.736179 -1.80462 0
M  V30 12623 H 1165.92 2.21115 -2.2026 0
M  V30 12624 N 1166.22 1.31629 0.866686 0
M  V30 12625 C 1167.13 1.21524 2.00671 0
M  V30 12626 C 1168.15 0.131277 1.73504 0
M  V30 12627 O 1169.32 0.349699 1.98341 0
M  V30 12628 C 1166.39 0.926491 3.34091 0
M  V30 12629 C 1165.45 2.09769 3.7456 0
M  V30 12630 C 1164.68 1.82262 5.01614 0
M  V30 12631 O 1164.9 0.759329 5.65323 0
M  V30 12632 O 1163.84 2.68031 5.38928 0
M  V30 12633 H 1167.66 2.17335 2.1213 0
M  V30 12634 H 1165.25 1.11401 0.995499 0
M  V30 12635 H 1167.13 0.78144 4.14091 0
M  V30 12636 H 1165.81 -0.00155829 3.237 0
M  V30 12637 H 1164.71 2.29816 2.95187 0
M  V30 12638 H 1166.05 3.0081 3.89582 0
M  V30 12639 N 1167.7 -1.08142 1.14644 0
M  V30 12640 C 1168.65 -2.17229 0.831513 0
M  V30 12641 C 1169.64 -1.68311 -0.19173 0
M  V30 12642 O 1170.85 -1.79937 -0.0475596 0
M  V30 12643 H 1167.22 -0.708807 0.25119 0
M  V30 12644 H 1169.19 -2.41014 1.75939 0
M  V30 12645 C 1167.94 -3.46146 0.328347 0
M  V30 12646 H 1167.27 -3.84166 1.10708 0
M  V30 12647 H 1168.71 -4.23747 0.146568 0
M  V30 12648 C 1167.16 -3.2327 -0.948594 0
M  V30 12649 O 1167.69 -3.47111 -2.0218 0
M  V30 12650 N 1165.9 -2.76799 -0.884909 0
M  V30 12651 H 1165.45 -2.57597 -0.011399 0
M  V30 12652 H 1165.41 -2.61871 -1.73985 0
M  V30 12653 N 1169.18 -0.941978 -1.26351 0
M  V30 12654 C 1170.13 -0.443011 -2.28342 0
M  V30 12655 C 1171.12 0.48013 -1.62453 0
M  V30 12656 O 1172.33 0.358255 -1.76399 0
M  V30 12657 H 1168.7 -0.124728 -0.741584 0
M  V30 12658 H 1170.67 -1.31573 -2.67827 0
M  V30 12659 C 1169.42 0.275675 -3.46605 0
M  V30 12660 H 1168.74 -0.425504 -3.97529 0
M  V30 12661 H 1170.18 0.589012 -4.19889 0
M  V30 12662 C 1168.64 1.49376 -3.01974 0
M  V30 12663 O 1169.17 2.59203 -3.06883 0
M  V30 12664 N 1167.38 1.35061 -2.57307 0
M  V30 12665 H 1166.93 0.457045 -2.53513 0
M  V30 12666 H 1166.88 2.16681 -2.27809 0
M  V30 12667 N 1170.66 1.40747 -0.709091 0
M  V30 12668 C 1172.07 1.83955 -0.318968 0
M  V30 12669 C 1172.42 1.59304 1.14527 0
M  V30 12670 O 1171.54 1.07052 1.88066 0
M  V30 12671 C 1172.14 3.33934 -0.572147 0
M  V30 12672 C 1170.7 3.75661 -0.235802 0
M  V30 12673 C 1169.84 2.64024 -0.847743 0
M  V30 12674 H 1172.79 1.30107 -0.908734 0
M  V30 12675 H 1172.82 3.80143 0.164752 0
M  V30 12676 H 1172.33 3.51844 -1.63791 0
M  V30 12677 H 1170.43 3.63348 0.825164 0
M  V30 12678 H 1170.54 4.73955 -0.700263 0
M  V30 12679 H 1168.91 2.53197 -0.276283 0
M  V30 12680 H 1169.69 2.84748 -1.91765 0
M  V30 12681 N 1172.13 0.454803 1.50895 0
M  V30 12682 C 1173.38 -0.105562 2.01824 0
M  V30 12683 C 1173.7 -1.41673 1.33992 0
M  V30 12684 O 1172.97 -1.89929 0.479994 0
M  V30 12685 H 1171.55 -0.0420011 0.745818 0
M  V30 12686 H 1174.21 0.601504 1.85386 0
M  V30 12687 H 1173.31 -0.268872 3.1094 0
M  V30 12688 N 1173.61 -1.56489 0.186789 0
M  V30 12689 C 1174.86 -1.97341 -0.454158 0
M  V30 12690 C 1175.19 -1.07337 -1.622 0
M  V30 12691 O 1174.44 -0.1107 -1.95387 0
M  V30 12692 C 1174.74 -3.44145 -0.964315 0
M  V30 12693 C 1174.41 -4.50812 0.0892734 0
M  V30 12694 C 1173.07 -4.79707 0.378794 0
M  V30 12695 C 1175.42 -5.14968 0.8036 0
M  V30 12696 C 1172.75 -5.70051 1.38776 0
M  V30 12697 C 1175.1 -6.06402 1.80166 0
M  V30 12698 C 1173.76 -6.33657 2.09847 0
M  V30 12699 H 1173.03 -0.722124 -0.166188 0
M  V30 12700 H 1175.68 -1.89412 0.282008 0
M  V30 12701 H 1173.99 -3.49103 -1.7786 0
M  V30 12702 H 1175.68 -3.73104 -1.4695 0
M  V30 12703 H 1172.27 -4.28349 -0.146552 0
M  V30 12704 H 1176.46 -4.92743 0.593147 0
M  V30 12705 H 1171.71 -5.89445 1.62373 0
M  V30 12706 H 1175.89 -6.55176 2.36045 0
M  V30 12707 H 1173.51 -7.03462 2.88175 0
M  V30 12708 N 1175.09 0.086862 -1.5736 0
M  V30 12709 C 1176.02 1.13117 -1.99342 0
M  V30 12710 C 1177.03 1.35849 -0.897151 0
M  V30 12711 O 1178.22 1.34356 -1.17519 0
M  V30 12712 C 1175.32 2.48511 -2.30425 0
M  V30 12713 C 1174.5 2.45942 -3.61706 0
M  V30 12714 C 1173.56 3.63327 -3.80631 0
M  V30 12715 O 1172.58 3.45443 -4.52392 0
M  V30 12716 N 1173.78 4.83118 -3.21835 0
M  V30 12717 H 1176.55 0.773782 -2.89539 0
M  V30 12718 H 1174.11 0.275731 -1.59535 0
M  V30 12719 H 1176.1 3.25656 -2.40272 0
M  V30 12720 H 1174.67 2.76308 -1.46194 0
M  V30 12721 H 1173.89 1.54287 -3.62752 0
M  V30 12722 H 1175.18 2.41313 -4.47935 0
M  V30 12723 H 1174.58 5.00552 -2.6356 0
M  V30 12724 H 1173.13 5.57827 -3.37154 0
M  V30 12725 N 1176.57 1.53483 0.357892 0
M  V30 12726 C 1177.52 1.81143 1.45911 0
M  V30 12727 C 1178.51 0.681002 1.55109 0
M  V30 12728 O 1179.72 0.864086 1.57904 0
M  V30 12729 H 1176.09 0.573663 0.486225 0
M  V30 12730 H 1178.06 2.733 1.19789 0
M  V30 12731 C 1176.81 2.02509 2.8264 0
M  V30 12732 H 1176.13 2.88938 2.76324 0
M  V30 12733 H 1177.57 2.25837 3.58851 0
M  V30 12734 C 1176.03 0.806412 3.27106 0
M  V30 12735 O 1176.56 -0.00116809 4.017 0
M  V30 12736 N 1174.77 0.627677 2.8374 0
M  V30 12737 H 1174.32 1.28601 2.23203 0
M  V30 12738 H 1174.27 -0.186301 3.13848 0
M  V30 12739 N 1178.05 -0.61812 1.44973 0
M  V30 12740 C 1179.27 -1.40429 1.51945 0
M  V30 12741 C 1179.69 -1.88215 0.148556 0
M  V30 12742 O 1179.05 -1.61603 -0.847978 0
M  V30 12743 C 1179.1 -2.61588 2.49507 0
M  V30 12744 O 1178.82 -2.15791 3.81269 0
M  V30 12745 C 1180.32 -3.5457 2.66074 0
M  V30 12746 H 1177.54 -0.43023 0.514921 0
M  V30 12747 H 1180.08 -0.754791 1.90061 0
M  V30 12748 H 1178.24 -3.22602 2.14492 0
M  V30 12749 H 1178.65 -2.94434 4.34061 0
M  V30 12750 H 1180.13 -4.36155 3.38338 0
M  V30 12751 H 1180.6 -4.04227 1.71746 0
M  V30 12752 H 1181.21 -2.99416 3.02043 0
M  V30 12753 N 1179.52 -1.32087 -0.859693 0
M  V30 12754 C 1180.8 -1.12984 -1.59668 0
M  V30 12755 C 1181.18 0.311661 -2.08787 0
M  V30 12756 O 1180.53 1.30746 -1.87397 0
M  V30 12757 C 1180.74 -2.15305 -2.74672 0
M  V30 12758 C 1182.09 -2.48371 -3.44379 0
M  V30 12759 O 1183.11 -2.13811 -2.84891 0
M  V30 12760 O 1181.97 -3.07594 -4.51717 0
M  V30 12761 H 1179.06 -0.435657 -0.702945 0
M  V30 12762 H 1181.61 -1.43601 -0.90426 0
M  V30 12763 H 1180.38 -3.12223 -2.35866 0
M  V30 12764 H 1180 -1.85653 -3.51594 0
M  V30 12765 N 1181 1.07532 -1.15215 0
M  V30 12766 C 1182.28 1.76813 -0.83646 0
M  V30 12767 C 1182.66 2.00242 0.6683 0
M  V30 12768 O 1182.01 1.61941 1.61206 0
M  V30 12769 C 1182.22 3.0779 -1.64519 0
M  V30 12770 C 1183.56 3.82168 -1.85022 0
M  V30 12771 O 1184.59 3.17596 -1.61279 0
M  V30 12772 O 1183.45 4.98135 -2.24775 0
M  V30 12773 H 1180.54 0.767736 -0.307426 0
M  V30 12774 H 1183.09 1.13914 -1.25784 0
M  V30 12775 H 1181.86 2.86342 -2.6669 0
M  V30 12776 H 1181.48 3.78419 -1.22002 0
M  V30 12777 N 1182.48 0.948665 1.2585 0
M  V30 12778 C 1183.73 0.601125 1.93686 0
M  V30 12779 C 1184.06 -0.858779 1.7418 0
M  V30 12780 O 1183.33 -1.61539 1.0833 0
M  V30 12781 C 1183.62 0.95333 3.47252 0
M  V30 12782 C 1183.47 2.46853 3.7601 0
M  V30 12783 C 1184.79 0.474098 4.37539 0
M  V30 12784 H 1181.91 0.219864 0.703441 0
M  V30 12785 H 1184.55 1.18424 1.48579 0
M  V30 12786 H 1182.7 0.457114 3.85801 0
M  V30 12787 H 1184.37 3.03804 3.47132 0
M  V30 12788 H 1182.62 2.9088 3.21825 0
M  V30 12789 H 1183.29 2.66547 4.83381 0
M  V30 12790 H 1185.76 0.899664 4.06258 0
M  V30 12791 H 1184.64 0.749287 5.43762 0
M  V30 12792 H 1184.9 -0.625961 4.37646 0
M  V30 12793 N 1183.96 -1.40369 0.716545 0
M  V30 12794 C 1184.89 -2.29186 0.0251905 0
M  V30 12795 C 1185.9 -1.45877 -0.722761 0
M  V30 12796 O 1187.09 -1.69155 -0.569982 0
M  V30 12797 C 1184.19 -3.24161 -0.988589 0
M  V30 12798 C 1183.37 -4.36329 -0.30597 0
M  V30 12799 C 1182.42 -5.11736 -1.22527 0
M  V30 12800 O 1181.45 -5.64758 -0.7097 0
M  V30 12801 N 1182.65 -5.21183 -2.55634 0
M  V30 12802 H 1185.42 -2.8916 0.787808 0
M  V30 12803 H 1182.98 -1.51749 0.564253 0
M  V30 12804 H 1184.97 -3.71479 -1.60578 0
M  V30 12805 H 1183.54 -2.65347 -1.65256 0
M  V30 12806 H 1182.76 -3.91125 0.491432 0
M  V30 12807 H 1184.05 -5.08523 0.167827 0
M  V30 12808 H 1183.45 -4.7959 -3.00017 0
M  V30 12809 H 1182 -5.72005 -3.12495 0
M  V30 12810 N 1185.44 -0.462799 -1.50652 0
M  V30 12811 C 1186.66 0.0929761 -2.06691 0
M  V30 12812 C 1187.08 1.34241 -1.32758 0
M  V30 12813 O 1186.44 1.78187 -0.394427 0
M  V30 12814 C 1186.49 0.389492 -3.59396 0
M  V30 12815 O 1186.21 -0.810379 -4.3054 0
M  V30 12816 C 1187.71 0.993147 -4.32032 0
M  V30 12817 H 1184.93 -0.00338664 -0.670991 0
M  V30 12818 H 1187.47 -0.649201 -1.93922 0
M  V30 12819 H 1185.63 1.08159 -3.71995 0
M  V30 12820 H 1186.04 -0.54996 -5.21609 0
M  V30 12821 H 1187.52 1.15044 -5.39878 0
M  V30 12822 H 1187.99 1.98106 -3.91983 0
M  V30 12823 H 1188.6 0.339677 -4.23941 0
M  V30 12824 N 1186.91 1.56388 -0.195085 0
M  V30 12825 C 1188.14 2.02406 0.452399 0
M  V30 12826 C 1188.56 1.07432 1.54402 0
M  V30 12827 O 1187.92 0.0578246 1.81208 0
M  V30 12828 C 1187.97 3.46864 0.985778 0
M  V30 12829 O 1187.07 3.55007 2.09867 0
M  V30 12830 H 1186.42 0.65553 0.105719 0
M  V30 12831 H 1188.95 2.02299 -0.30596 0
M  V30 12832 H 1188.96 3.86655 1.30238 0
M  V30 12833 H 1187.63 4.15481 0.186662 0
M  V30 12834 H 1186.21 3.2709 1.79071 0
M  V30 12835 N 1188.39 -0.0785156 1.57404 0
M  V30 12836 C 1189.64 -0.778938 1.86919 0
M  V30 12837 C 1189.97 -1.77915 0.785906 0
M  V30 12838 O 1189.22 -1.94473 -0.218811 0
M  V30 12839 C 1189.52 -1.52826 3.23078 0
M  V30 12840 C 1189.19 -0.668645 4.45915 0
M  V30 12841 C 1187.85 -0.43173 4.79259 0
M  V30 12842 C 1190.2 -0.0721327 5.2115 0
M  V30 12843 C 1187.53 0.41129 5.85257 0
M  V30 12844 C 1189.88 0.758303 6.28039 0
M  V30 12845 C 1188.55 1.00515 6.59889 0
M  V30 12846 H 1187.82 -0.285034 0.683986 0
M  V30 12847 H 1190.46 -0.039906 1.91458 0
M  V30 12848 H 1188.77 -2.33931 3.14299 0
M  V30 12849 H 1190.46 -2.07488 3.43147 0
M  V30 12850 H 1187.05 -0.863424 4.19813 0
M  V30 12851 H 1191.24 -0.242297 4.95708 0
M  V30 12852 H 1186.49 0.611354 6.08336 0
M  V30 12853 H 1190.67 1.2273 6.855 0
M  V30 12854 H 1188.3 1.66017 7.41851 0
M  V30 12855 O 1189.91 -1.59964 -0.222233 0
M  V30 12856 H 1190.6 -1.73389 -0.863473 0
M  V30 END ATOM
M  V30 BEGIN BOND
M  V30 END BOND
M  V30 END CTAB
M  END
$$$$
