drugbank_target|P61024 Cyclin-dependent kinases regulatory subunit 1 (DB00472; DB02681)
 OpenBabel12092120553D

  0  0  0     0  0            999 V3000
M  V30 BEGIN CTAB
M  V30 COUNTS 1359 1382 0 0 0
M  V30 BEGIN ATOM
M  V30 1 H -0.908 1.98254 -0.117106 0
M  V30 2 N 0 1.576 0 0
M  V30 3 C 0.933 2.03868 1.02534 0
M  V30 4 C 1.911 0.928543 1.3348 0
M  V30 5 O 3.095 1.19667 1.45644 0
M  V30 6 C 0.222 2.43627 2.35294 0
M  V30 7 C -0.732 3.65373 2.2001 0
M  V30 8 S 0.101 5.13292 1.52614 0
M  V30 9 C 1.257 5.56322 2.86805 0
M  V30 10 H 1.49 2.90518 0.631377 0
M  V30 11 H -0.977 1.52953 0.210867 0
M  V30 12 H 0.981 2.67203 3.11629 0
M  V30 13 H -0.358 1.57376 2.7183 0
M  V30 14 H -1.165 3.90944 3.18086 0
M  V30 15 H -1.563 3.418 1.51819 0
M  V30 16 H 0.729 5.58782 3.83104 0
M  V30 17 H 1.672 6.56266 2.65933 0
M  V30 18 H 2.08 4.83886 2.90714 0
M  V30 19 N 1.4781 -0.272755 1.55222 0
M  V30 20 C 2.7031 -1.02683 1.80197 0
M  V30 21 C 3.1281 -1.79142 0.573551 0
M  V30 22 O 2.4861 -1.74917 -0.476849 0
M  V30 23 C 2.5341 -1.9609 3.02624 0
M  V30 24 O 1.6381 -3.04863 2.77727 0
M  V30 25 H 0.9791 -0.293557 0.595584 0
M  V30 26 H 3.5091 -0.30159 2.02365 0
M  V30 27 H 3.5191 -2.38039 3.31363 0
M  V30 28 H 2.1941 -1.39851 3.91682 0
M  V30 29 H 0.7711 -2.67228 2.60084 0
M  V30 30 N 2.9562 -1.48159 -0.537278 0
M  V30 31 C 3.9062 -1.5854 -1.63857 0
M  V30 32 C 4.8902 -0.442969 -1.54682 0
M  V30 33 O 6.0822 -0.69401 -1.62827 0
M  V30 34 C 3.2112 -1.62144 -3.02596 0
M  V30 35 C 2.2972 -2.81841 -3.16901 0
M  V30 36 N 2.6882 -4.06337 -3.01204 0
M  V30 37 C 0.9862 -2.79021 -3.47942 0
M  V30 38 C 1.6872 -4.86606 -3.18731 0
M  V30 39 N 0.6632 -4.19288 -3.45974 0
M  V30 40 H 4.4652 -2.5255 -1.50319 0
M  V30 41 H 1.9792 -1.4443 -0.742555 0
M  V30 42 H 3.9762 -1.67674 -3.81695 0
M  V30 43 H 2.6362 -0.69245 -3.17231 0
M  V30 44 H 3.6472 -4.36888 -2.78117 0
M  V30 45 H 0.3242 -1.95347 -3.6898 0
M  V30 46 H 1.7142 -5.95385 -3.11394 0
M  V30 47 N 4.4343 0.785586 -1.36625 0
M  V30 48 C 5.3813 1.89838 -1.31264 0
M  V30 49 C 6.3513 1.65115 -0.180633 0
M  V30 50 O 7.5363 1.87222 -0.36777 0
M  V30 51 C 4.6763 3.26706 -1.11163 0
M  V30 52 C 3.7893 3.63476 -2.33472 0
M  V30 53 C 2.9243 4.89481 -2.06353 0
M  V30 54 C 1.9633 5.18941 -3.24602 0
M  V30 55 N 1.1003 6.36131 -2.97123 0
M  V30 56 H 5.9403 1.93756 -2.26413 0
M  V30 57 H 3.4773 0.947454 -1.12524 0
M  V30 58 H 5.4353 4.05639 -0.975337 0
M  V30 59 H 4.0653 3.222 -0.196674 0
M  V30 60 H 3.1173 2.79636 -2.57891 0
M  V30 61 H 4.4293 3.81193 -3.21704 0
M  V30 62 H 3.5833 5.76288 -1.89675 0
M  V30 63 H 2.3223 4.73841 -1.15437 0
M  V30 64 H 1.3273 4.30615 -3.41834 0
M  V30 65 H 2.5523 5.36498 -4.16349 0
M  V30 66 H 0.4983 6.21875 -2.08823 0
M  V30 67 H 0.4153 6.54198 -3.78894 0
M  V30 68 H 1.6833 7.2591 -2.84033 0
M  V30 69 N 5.9124 1.20967 1.01018 0
M  V30 70 C 6.8444 0.922059 2.09835 0
M  V30 71 C 7.8574 -0.0927106 1.62536 0
M  V30 72 O 9.0464 0.139127 1.77957 0
M  V30 73 C 6.1464 0.362004 3.36961 0
M  V30 74 C 5.3194 1.42986 4.13369 0
M  V30 75 C 4.3784 0.879976 5.1879 0
M  V30 76 O 3.4044 1.56219 5.47343 0
M  V30 77 N 4.6064 -0.307396 5.79686 0
M  V30 78 H 7.3714 1.8588 2.35093 0
M  V30 79 H 4.9324 1.11422 1.1746 0
M  V30 80 H 6.9244 -0.0201474 4.04695 0
M  V30 81 H 5.4944 -0.479437 3.08902 0
M  V30 82 H 4.7144 1.98608 3.40512 0
M  V30 83 H 6.0024 2.14885 4.61196 0
M  V30 84 H 5.4004 -0.878796 5.58832 0
M  V30 85 H 3.9574 -0.631115 6.48737 0
M  V30 86 N 7.3905 -1.2043 1.01659 0
M  V30 87 C 8.6395 -1.89118 0.701237 0
M  V30 88 C 8.9525 -1.79705 -0.772358 0
M  V30 89 O 10.1585 -2.43528 -1.20026 0
M  V30 90 C 8.6145 -3.39168 1.20388 0
M  V30 91 C 8.2225 -3.57166 2.70438 0
M  V30 92 C 9.9665 -4.1341 0.963953 0
M  V30 93 C 7.8735 -5.01042 3.14183 0
M  V30 94 H 6.8035 -0.708267 0.2586 0
M  V30 95 H 9.4545 -1.36239 1.22927 0
M  V30 96 H 7.8365 -3.91369 0.603824 0
M  V30 97 H 9.0105 -3.15351 3.35992 0
M  V30 98 H 7.3255 -2.96294 2.92572 0
M  V30 99 H 9.9225 -5.19491 1.26621 0
M  V30 100 H 10.2655 -4.16181 -0.099578 0
M  V30 101 H 10.7985 -3.67309 1.52738 0
M  V30 102 H 7.5375 -5.03426 4.19812 0
M  V30 103 H 7.0575 -5.43668 2.53348 0
M  V30 104 H 8.7365 -5.69623 3.0682 0
M  V30 105 N 8.8686 -0.792821 -1.36206 0
M  V30 106 C 10.0986 -0.378275 -2.03107 0
M  V30 107 C 10.5066 1.01119 -1.59911 0
M  V30 108 O 9.8496 1.66052 -0.785658 0
M  V30 109 C 9.9116 -0.366535 -3.57627 0
M  V30 110 C 9.5756 -1.70416 -4.24037 0
M  V30 111 C 10.5726 -2.6602 -4.46687 0
M  V30 112 C 8.2576 -1.98439 -4.6144 0
M  V30 113 C 10.2516 -3.8784 -5.05825 0
M  V30 114 C 7.9386 -3.20525 -5.20295 0
M  V30 115 C 8.9366 -4.15044 -5.42427 0
M  V30 116 O 8.6246 -5.34978 -6.00045 0
M  V30 117 H 8.3566 -0.153543 -0.658332 0
M  V30 118 H 10.9106 -1.07383 -1.75094 0
M  V30 119 H 9.1406 0.385539 -3.84773 0
M  V30 120 H 10.8296 0.0238088 -4.05893 0
M  V30 121 H 11.5956 -2.45658 -4.18183 0
M  V30 122 H 7.4746 -1.25686 -4.43536 0
M  V30 123 H 11.0186 -4.61628 -5.23015 0
M  V30 124 H 6.9156 -3.40764 -5.48225 0
M  V30 125 H 7.6836 -5.36088 -6.18508 0
M  V30 126 N 10.3467 1.47872 -0.545128 0
M  V30 127 C 11.5767 2.06589 -0.0210534 0
M  V30 128 C 11.9847 1.39997 1.27269 0
M  V30 129 O 11.3277 0.486421 1.77143 0
M  V30 130 C 11.3897 3.58574 0.257933 0
M  V30 131 C 11.0537 4.47132 -0.944573 0
M  V30 132 C 12.0507 4.85986 -1.84699 0
M  V30 133 C 9.7357 4.88821 -1.15584 0
M  V30 134 C 11.7297 5.65314 -2.94446 0
M  V30 135 C 9.4167 5.67916 -2.25642 0
M  V30 136 C 10.4147 6.06073 -3.14905 0
M  V30 137 O 10.1027 6.83578 -4.23057 0
M  V30 138 H 9.8347 0.674971 -0.0372899 0
M  V30 139 H 12.3887 1.91037 -0.754599 0
M  V30 140 H 10.6187 3.72295 1.04564 0
M  V30 141 H 12.3077 3.99356 0.72592 0
M  V30 142 H 13.0737 4.54388 -1.69577 0
M  V30 143 H 8.9527 4.58595 -0.470279 0
M  V30 144 H 12.4967 5.95016 -3.64145 0
M  V30 145 H 8.3937 5.98927 -2.40742 0
M  V30 146 H 9.1617 7.01954 -4.20954 0
M  V30 147 N 11.8248 0.280983 1.55075 0
M  V30 148 C 13.0498 -0.340154 2.04592 0
M  V30 149 C 13.4748 -1.48246 1.15779 0
M  V30 150 O 12.8328 -1.80614 0.15761 0
M  V30 151 C 12.8808 -0.793104 3.5177 0
M  V30 152 O 11.9848 -1.89981 3.66034 0
M  V30 153 H 11.3258 -0.0694289 0.66036 0
M  V30 154 H 13.8558 0.416993 2.00306 0
M  V30 155 H 13.8658 -1.08729 3.93245 0
M  V30 156 H 12.5408 0.0426163 4.15878 0
M  V30 157 H 11.1178 -1.60771 3.36463 0
M  V30 158 N 13.3029 -1.57598 0.00835791 0
M  V30 159 C 14.5799 -1.82172 -0.712235 0
M  V30 160 C 14.9599 -0.887873 -1.9152 0
M  V30 161 O 14.3079 0.06146 -2.28417 0
M  V30 162 C 14.5179 -3.30875 -1.11008 0
M  V30 163 C 15.8659 -3.96826 -1.51044 0
M  V30 164 O 16.8899 -3.35248 -1.20364 0
M  V30 165 O 15.7489 -5.05318 -2.08125 0
M  V30 166 H 12.8429 -0.750435 -0.347529 0
M  V30 167 H 15.3889 -1.69665 0.0344523 0
M  V30 168 H 14.1609 -3.90481 -0.252982 0
M  V30 169 H 13.7839 -3.48412 -1.9156 0
M  V30 170 N 14.781 0.264519 -1.55364 0
M  V30 171 C 15.728 1.32717 -1.88825 0
M  V30 172 C 16.698 1.48675 -0.740605 0
M  V30 173 O 17.883 1.62945 -0.992657 0
M  V30 174 C 15.023 2.68089 -2.17307 0
M  V30 175 C 14.136 2.60284 -3.44785 0
M  V30 176 C 13.271 3.87892 -3.62924 0
M  V30 177 C 12.31 3.74631 -4.84064 0
M  V30 178 N 11.447 4.94092 -4.98816 0
M  V30 179 H 16.287 1.03481 -2.79456 0
M  V30 180 H 13.824 0.499757 -1.3835 0
M  V30 181 H 15.782 3.46864 -2.31821 0
M  V30 182 H 14.412 2.95509 -1.299 0
M  V30 183 H 13.464 1.73173 -3.38697 0
M  V30 184 H 14.776 2.46388 -4.33698 0
M  V30 185 H 13.93 4.75109 -3.77302 0
M  V30 186 H 12.669 4.04664 -2.7221 0
M  V30 187 H 11.674 2.85797 -4.69681 0
M  V30 188 H 12.899 3.5937 -5.76221 0
M  V30 189 H 10.845 5.11259 -4.11036 0
M  V30 190 H 10.762 4.8276 -5.81789 0
M  V30 191 H 12.03 5.82857 -5.17588 0
M  V30 192 N 16.2591 1.48442 0.529413 0
M  V30 193 C 17.4891 1.59919 1.30804 0
M  V30 194 C 17.8971 0.258792 1.87422 0
M  V30 195 O 17.2401 -0.762096 1.67146 0
M  V30 196 C 17.3021 2.58693 2.49636 0
M  V30 197 C 16.9661 4.03745 2.14101 0
M  V30 198 C 17.9631 4.9141 1.6974 0
M  V30 199 C 15.6481 4.49285 2.24607 0
M  V30 200 C 17.6421 6.22645 1.36351 0
M  V30 201 C 15.3291 5.8054 1.9083 0
M  V30 202 C 16.3271 6.67043 1.46773 0
M  V30 203 O 16.0151 7.95856 1.1344 0
M  V30 204 H 15.7471 0.541981 0.404021 0
M  V30 205 H 18.3011 1.95 0.645309 0
M  V30 206 H 16.5311 2.18734 3.18892 0
M  V30 207 H 18.2201 2.59999 3.11698 0
M  V30 208 H 18.9861 4.57465 1.61094 0
M  V30 209 H 14.8651 3.82142 2.57854 0
M  V30 210 H 18.4091 6.90119 1.01891 0
M  V30 211 H 14.3061 6.14022 1.99117 0
M  V30 212 H 15.0741 8.08613 1.26832 0
M  V30 213 N 17.7372 -0.778329 1.37039 0
M  V30 214 C 19.0142 -1.52551 1.22424 0
M  V30 215 C 19.3942 -2.10288 -0.184964 0
M  V30 216 O 18.7422 -1.94953 -1.19187 0
M  V30 217 C 18.9522 -2.61164 2.31504 0
M  V30 218 C 20.3002 -3.28746 2.68721 0
M  V30 219 O 21.3242 -2.71455 2.30631 0
M  V30 220 O 20.1832 -4.3231 3.3432 0
M  V30 221 H 17.2772 -0.675343 0.477326 0
M  V30 222 H 19.8232 -0.815859 1.48801 0
M  V30 223 H 18.5952 -2.16574 3.25901 0
M  V30 224 H 18.2182 -3.39737 2.06554 0
M  V30 225 N 19.2153 -1.21501 -1.00376 0
M  V30 226 C 20.4923 -0.941745 -1.71437 0
M  V30 227 C 20.8723 0.546114 -2.03914 0
M  V30 228 O 20.2203 1.51128 -1.71384 0
M  V30 229 C 20.4303 -1.82812 -2.97289 0
M  V30 230 C 21.7783 -2.07771 -3.70292 0
M  V30 231 O 22.8023 -1.80171 -3.07273 0
M  V30 232 O 21.6613 -2.54456 -4.83647 0
M  V30 233 H 18.7553 -0.353243 -0.747762 0
M  V30 234 H 21.3013 -1.32436 -1.06108 0
M  V30 235 H 20.0733 -2.83501 -2.69709 0
M  V30 236 H 19.6963 -1.4464 -3.70358 0
M  V30 237 N 20.6934 1.19889 -1.02296 0
M  V30 238 C 21.6034 2.26571 -0.608508 0
M  V30 239 C 22.6194 1.70299 0.356964 0
M  V30 240 O 23.7954 2.00235 0.216326 0
M  V30 241 C 20.8604 3.46677 0.0402814 0
M  V30 242 C 19.9214 4.18153 -0.97194 0
M  V30 243 C 19.1544 5.32525 -0.354016 0
M  V30 244 O 19.3774 5.64112 0.844604 0
M  V30 245 O 18.3114 5.92242 -1.07391 0
M  V30 246 H 22.1374 2.64251 -1.49684 0
M  V30 247 H 19.7224 1.26629 -0.792809 0
M  V30 248 H 21.6044 4.19475 0.402324 0
M  V30 249 H 20.2794 3.10858 0.902707 0
M  V30 250 H 19.1864 3.47499 -1.38546 0
M  V30 251 H 20.5194 4.57927 -1.80454 0
M  V30 252 N 22.1715 0.800033 1.35784 0
M  V30 253 C 23.0815 0.207204 2.33683 0
M  V30 254 C 24.0975 -0.64631 1.61551 0
M  V30 255 O 25.2735 -0.559604 1.93469 0
M  V30 256 C 22.3385 -0.639659 3.40748 0
M  V30 257 C 21.3995 0.233585 4.28664 0
M  V30 258 C 20.6325 -0.572954 5.30616 0
M  V30 259 O 20.8555 -1.80816 5.40982 0
M  V30 260 O 19.7895 0.0327285 6.01891 0
M  V30 261 H 23.6155 1.01692 2.86169 0
M  V30 262 H 21.2005 0.561691 1.38439 0
M  V30 263 H 23.0825 -1.12223 4.06182 0
M  V30 264 H 21.7575 -1.42708 2.90544 0
M  V30 265 H 20.6645 0.763147 3.66233 0
M  V30 266 H 21.9975 0.984784 4.82248 0
M  V30 267 N 23.6496 -1.47581 0.552962 0
M  V30 268 C 24.8966 -2.02482 0.0273243 0
M  V30 269 C 25.2246 -1.42776 -1.32081 0
M  V30 270 O 24.4796 -0.571393 -1.87173 0
M  V30 271 C 24.7786 -3.57199 -0.119728 0
M  V30 272 C 24.4446 -4.35804 1.15697 0
M  V30 273 C 23.1066 -4.57 1.50681 0
M  V30 274 C 25.4586 -4.81167 2.00319 0
M  V30 275 C 22.7866 -5.20807 2.70142 0
M  V30 276 C 25.1386 -5.46293 3.18978 0
M  V30 277 C 23.8026 -5.65722 3.54281 0
M  V30 278 H 23.0726 -0.740933 0.00999866 0
M  V30 279 H 25.7196 -1.77302 0.72362 0
M  V30 280 H 24.0246 -3.81348 -0.89896 0
M  V30 281 H 25.7216 -3.97324 -0.541718 0
M  V30 282 H 22.3116 -4.19582 0.874561 0
M  V30 283 H 26.4956 -4.64574 1.74599 0
M  V30 284 H 21.7516 -5.34045 2.97668 0
M  V30 285 H 25.9256 -5.80407 3.84838 0
M  V30 286 H 23.5526 -6.14936 4.46942 0
M  V30 287 N 25.1277 -0.289203 -1.54924 0
M  V30 288 C 26.0377 0.601863 -2.26748 0
M  V30 289 C 27.0537 1.15834 -1.2984 0
M  V30 290 O 28.2297 1.18564 -1.62802 0
M  V30 291 C 25.2947 1.76299 -2.98529 0
M  V30 292 C 24.3557 1.24178 -4.10948 0
M  V30 293 C 23.5887 2.34757 -4.79296 0
M  V30 294 O 23.8117 3.54411 -4.46933 0
M  V30 295 O 22.7457 2.02115 -5.66951 0
M  V30 296 H 26.5717 0.0195879 -3.03694 0
M  V30 297 H 24.1567 -0.0560868 -1.49295 0
M  V30 298 H 26.0387 2.43973 -3.43592 0
M  V30 299 H 24.7137 2.33209 -2.24488 0
M  V30 300 H 23.6207 0.531104 -3.70311 0
M  V30 301 H 24.9537 0.718252 -4.86931 0
M  V30 302 N 26.6058 1.57591 -0.0167156 0
M  V30 303 C 27.8358 1.95292 0.674149 0
M  V30 304 C 28.2438 0.891097 1.66901 0
M  V30 305 O 27.5868 -0.136908 1.83189 0
M  V30 306 C 27.6488 3.29072 1.44747 0
M  V30 307 C 27.3128 4.52879 0.612331 0
M  V30 308 C 28.3098 5.1979 -0.107126 0
M  V30 309 C 25.9948 4.99242 0.553381 0
M  V30 310 C 27.9888 6.31375 -0.874339 0
M  V30 311 C 25.6758 6.10713 -0.217546 0
M  V30 312 C 26.6738 6.76637 -0.930123 0
M  V30 313 O 26.3618 7.85969 -1.68844 0
M  V30 314 H 26.0938 0.648275 0.191615 0
M  V30 315 H 28.6478 2.05284 -0.0690148 0
M  V30 316 H 26.8778 3.15535 2.2355 0
M  V30 317 H 28.5668 3.51764 2.02526 0
M  V30 318 H 29.3328 4.84948 -0.0708392 0
M  V30 319 H 25.2118 4.47744 1.09757 0
M  V30 320 H 28.7558 6.82764 -1.43106 0
M  V30 321 H 24.6528 6.44994 -0.255593 0
M  V30 322 H 25.4208 8.02571 -1.6069 0
M  V30 323 N 28.0839 -0.256276 1.55502 0
M  V30 324 C 29.4999 -0.604325 1.47716 0
M  V30 325 C 29.6999 -1.88763 0.705039 0
M  V30 326 O 28.7559 -2.51445 0.230613 0
M  V30 327 C 30.0689 -0.715756 2.92057 0
M  V30 328 C 31.6169 -0.808706 3.02372 0
M  V30 329 C 32.0919 -0.951777 4.48001 0
M  V30 330 N 33.5829 -1.01688 4.519 0
M  V30 331 C 34.3179 -1.14668 5.61817 0
M  V30 332 N 33.8139 -1.24261 6.81565 0
M  V30 333 N 35.6069 -1.1791 5.49594 0
M  V30 334 H 27.7579 0.586291 2.04148 0
M  V30 335 H 30.0209 0.201015 0.926443 0
M  V30 336 H 29.7269 0.157027 3.51349 0
M  V30 337 H 29.6009 -1.59071 3.42018 0
M  V30 338 H 31.9879 -1.67195 2.43166 0
M  V30 339 H 32.0689 0.0912063 2.55637 0
M  V30 340 H 31.7129 -0.0931291 5.07815 0
M  V30 341 H 31.6429 -1.86659 4.92408 0
M  V30 342 H 34.1339 -0.954468 3.65648 0
M  V30 343 H 34.4469 -1.34046 7.61086 0
M  V30 344 H 32.7919 -1.21236 6.84344 0
M  V30 345 H 35.9829 -1.10057 4.54978 0
M  V30 346 H 36.1559 -1.27681 6.35296 0
M  V30 347 N 29.562 -1.4872 -0.521534 0
M  V30 348 C 30.512 -1.60269 -1.62166 0
M  V30 349 C 31.496 -0.45935 -1.54204 0
M  V30 350 O 32.688 -0.711241 -1.62081 0
M  V30 351 C 29.817 -1.65344 -3.00859 0
M  V30 352 C 28.903 -2.85187 -3.13894 0
M  V30 353 N 29.294 -4.09509 -2.96877 0
M  V30 354 C 27.592 -2.82695 -3.44963 0
M  V30 355 C 28.293 -4.89959 -3.13552 0
M  V30 356 N 27.269 -4.22934 -3.41508 0
M  V30 357 H 31.071 -2.5413 -1.47632 0
M  V30 358 H 28.585 -1.45209 -0.727194 0
M  V30 359 H 30.582 -1.71713 -3.79895 0
M  V30 360 H 29.242 -0.726058 -3.16478 0
M  V30 361 H 30.253 -4.39814 -2.73467 0
M  V30 362 H 26.93 -1.99249 -3.66887 0
M  V30 363 H 28.32 -5.98654 -3.05061 0
M  V30 364 N 31.0401 0.771051 -1.3745 0
M  V30 365 C 32.2861 1.5319 -1.32894 0
M  V30 366 C 32.6191 1.94008 0.0862511 0
M  V30 367 O 31.8941 1.64124 1.04373 0
M  V30 368 C 32.1771 2.79648 -2.26868 0
M  V30 369 C 32.0301 2.45079 -3.77169 0
M  V30 370 C 33.3491 3.81583 -2.19277 0
M  V30 371 H 30.4681 0.555744 -0.484064 0
M  V30 372 H 33.1101 0.884492 -1.68157 0
M  V30 373 H 31.2601 3.34891 -1.96926 0
M  V30 374 H 32.9321 1.95745 -4.1771 0
M  V30 375 H 31.1751 1.77767 -3.95704 0
M  V30 376 H 31.8461 3.35478 -4.38359 0
M  V30 377 H 34.3221 3.35835 -2.45671 0
M  V30 378 H 33.1981 4.67787 -2.87171 0
M  V30 379 H 33.4591 4.25897 -1.18592 0
M  V30 380 N 32.5182 1.22032 0.997298 0
M  V30 381 C 33.4512 0.929735 2.08401 0
M  V30 382 C 34.4292 -0.125681 1.62114 0
M  V30 383 O 35.6132 0.00495409 1.88499 0
M  V30 384 C 32.7402 0.397488 3.3636 0
M  V30 385 C 31.7862 1.4369 4.01566 0
M  V30 386 S 32.6192 3.00874 4.42984 0
M  V30 387 C 33.7752 2.49276 5.74119 0
M  V30 388 H 34.0082 1.84998 2.32729 0
M  V30 389 H 31.5412 1.0509 1.13117 0
M  V30 390 H 33.4992 0.0969846 4.10385 0
M  V30 391 H 32.1602 -0.501571 3.10069 0
M  V30 392 H 31.3532 1.01427 4.93689 0
M  V30 393 H 30.9552 1.68588 3.33847 0
M  V30 394 H 33.2472 1.90242 6.50242 0
M  V30 395 H 34.1902 3.39872 6.21203 0
M  V30 396 H 34.5982 1.90714 5.31308 0
M  V30 397 N 33.9963 -1.19345 1.0293 0
M  V30 398 C 34.9263 -2.2481 0.631105 0
M  V30 399 C 35.9073 -1.66245 -0.360104 0
M  V30 400 O 37.0923 -1.92677 -0.242726 0
M  V30 401 C 34.2223 -3.47295 -0.0184607 0
M  V30 402 C 33.1763 -4.18536 0.895073 0
M  V30 403 C 32.5023 -5.34586 0.110592 0
M  V30 404 C 33.8023 -4.73287 2.209 0
M  V30 405 H 35.4963 -2.58372 1.51275 0
M  V30 406 H 33.0423 -1.24194 0.728818 0
M  V30 407 H 34.9953 -4.20268 -0.308675 0
M  V30 408 H 33.7193 -3.12933 -0.934907 0
M  V30 409 H 32.3783 -3.47446 1.16949 0
M  V30 410 H 32.0263 -4.96469 -0.807902 0
M  V30 411 H 31.7263 -5.83183 0.719087 0
M  V30 412 H 33.2503 -6.10355 -0.172871 0
M  V30 413 H 34.6643 -5.38013 1.98028 0
M  V30 414 H 33.0613 -5.32373 2.76946 0
M  V30 415 H 34.1313 -3.91331 2.86336 0
M  V30 416 N 35.4744 -0.807222 -1.35358 0
M  V30 417 C 36.8854 -0.44876 -1.81226 0
M  V30 418 C 37.2364 1.02929 -1.67033 0
M  V30 419 O 36.3614 1.79991 -1.20133 0
M  V30 420 C 36.9564 -0.807774 -3.2903 0
M  V30 421 C 35.5154 -0.501901 -3.73039 0
M  V30 422 C 34.6624 -1.03304 -2.57339 0
M  V30 423 H 37.6134 -0.998808 -1.23327 0
M  V30 424 H 37.6344 -0.10554 -3.80354 0
M  V30 425 H 37.1464 -1.88357 -3.39328 0
M  V30 426 H 35.2474 0.565128 -3.68289 0
M  V30 427 H 35.3604 -1.03497 -4.67787 0
M  V30 428 H 33.7244 -0.455339 -2.50597 0
M  V30 429 H 34.5074 -2.11496 -2.70415 0
M  V30 430 N 36.9525 1.47285 -0.560781 0
M  V30 431 C 37.8995 2.30058 0.18491 0
M  V30 432 C 38.8695 1.39281 0.904986 0
M  V30 433 O 40.0545 1.68241 0.899979 0
M  V30 434 C 37.1945 3.23317 1.20666 0
M  V30 435 C 36.3075 4.29186 0.492285 0
M  V30 436 C 35.4425 5.09592 1.49964 0
M  V30 437 C 34.4815 6.07232 0.770439 0
M  V30 438 N 33.6185 6.80584 1.72479 0
M  V30 439 H 38.4585 2.93302 -0.527048 0
M  V30 440 H 35.9955 1.44568 -0.271738 0
M  V30 441 H 37.9535 3.75811 1.81168 0
M  V30 442 H 36.5835 2.61929 1.88661 0
M  V30 443 H 35.6355 3.7972 -0.227333 0
M  V30 444 H 36.9475 4.98738 -0.0787929 0
M  V30 445 H 36.1015 5.66254 2.17809 0
M  V30 446 H 34.8405 4.3995 2.10464 0
M  V30 447 H 33.8455 5.49745 0.0780846 0
M  V30 448 H 35.0705 6.78884 0.171134 0
M  V30 449 H 33.0165 6.1367 2.3183 0
M  V30 450 H 32.9335 7.46319 1.20596 0
M  V30 451 H 34.2015 7.41818 2.39428 0
M  V30 452 N 38.4306 0.297415 1.54768 0
M  V30 453 C 39.7076 -0.365847 1.92148 0
M  V30 454 C 40.0876 -1.71975 1.22424 0
M  V30 455 O 39.4356 -2.25666 0.358739 0
M  V30 456 C 39.6456 -0.484056 3.45627 0
M  V30 457 C 40.9936 -0.756594 4.17805 0
M  V30 458 O 42.0176 -0.568007 3.51642 0
M  V30 459 O 40.8766 -1.11863 5.34929 0
M  V30 460 H 37.9706 -0.203919 0.801465 0
M  V30 461 H 40.5166 0.34521 1.66152 0
M  V30 462 H 39.2886 0.467865 3.88493 0
M  V30 463 H 38.9116 -1.24372 3.77647 0
M  V30 464 N 39.9087 -1.5758 0.0250728 0
M  V30 465 C 41.1577 -1.90811 -0.653767 0
M  V30 466 C 41.4707 -0.90273 -1.73523 0
M  V30 467 O 42.6767 -1.12614 -2.47043 0
M  V30 468 C 41.1327 -3.38804 -1.21409 0
M  V30 469 C 40.7407 -4.47692 -0.166126 0
M  V30 470 C 42.4847 -3.81108 -1.86967 0
M  V30 471 C 40.3917 -5.86779 -0.737856 0
M  V30 472 H 39.3217 -0.712063 -0.247956 0
M  V30 473 H 41.9727 -1.83281 0.0897137 0
M  V30 474 H 40.3547 -3.41252 -2.00905 0
M  V30 475 H 41.5287 -4.56797 0.606079 0
M  V30 476 H 39.8437 -4.14565 0.390466 0
M  V30 477 H 42.4407 -4.82375 -2.30692 0
M  V30 478 H 42.7837 -3.15953 -2.71071 0
M  V30 479 H 43.3167 -3.81065 -1.14167 0
M  V30 480 H 40.0557 -6.55468 0.0649577 0
M  V30 481 H 39.5757 -5.81288 -1.47864 0
M  V30 482 H 41.2547 -6.35223 -1.22884 0
M  V30 483 N 41.3868 0.248026 -1.55636 0
M  V30 484 C 42.3498 1.29044 -1.89421 0
M  V30 485 C 43.3498 1.41134 -0.770581 0
M  V30 486 O 44.5398 1.39854 -1.03858 0
M  V30 487 C 41.6718 2.66831 -2.12165 0
M  V30 488 H 42.8648 1.00305 -2.82629 0
M  V30 489 H 40.4178 0.487265 -1.48511 0
M  V30 490 H 41.1528 3.00711 -1.21422 0
M  V30 491 H 40.9378 2.59438 -2.93997 0
M  V30 492 H 42.4278 3.42103 -2.3949 0
M  V30 493 N 42.8649 1.48995 0.513639 0
M  V30 494 C 43.8119 1.6473 1.61656 0
M  V30 495 C 44.7819 0.488984 1.58739 0
M  V30 496 O 45.9669 0.714478 1.76918 0
M  V30 497 C 43.1069 1.7082 2.99858 0
M  V30 498 C 42.2199 2.9787 3.12885 0
M  V30 499 C 41.3549 2.95017 4.41744 0
M  V30 500 C 40.3939 4.16702 4.48359 0
M  V30 501 N 39.5309 4.11832 5.68629 0
M  V30 502 H 44.3709 2.58909 1.47547 0
M  V30 503 H 41.9079 1.28382 0.71808 0
M  V30 504 H 43.8659 1.72331 3.79944 0
M  V30 505 H 42.4959 0.801181 3.12699 0
M  V30 506 H 41.5479 3.06029 2.25944 0
M  V30 507 H 42.8599 3.8786 3.13633 0
M  V30 508 H 42.0139 2.95021 5.30139 0
M  V30 509 H 40.7529 2.02784 4.43542 0
M  V30 510 H 39.7579 4.16955 3.58369 0
M  V30 511 H 40.9829 5.10113 4.48287 0
M  V30 512 H 38.9289 3.22428 5.71293 0
M  V30 513 H 38.8459 4.95543 5.7094 0
M  V30 514 H 40.1139 4.1592 6.59266 0
M  V30 515 N 44.343 -0.763751 1.37857 0
M  V30 516 C 45.273 -1.89103 1.36975 0
M  V30 517 C 46.254 -1.68439 0.237152 0
M  V30 518 O 47.439 -1.8918 0.438713 0
M  V30 519 C 44.569 -3.26496 1.18395 0
M  V30 520 C 43.523 -3.61741 2.28751 0
M  V30 521 C 42.849 -4.97762 1.95286 0
M  V30 522 C 44.149 -3.67665 3.70972 0
M  V30 523 H 45.843 -1.90099 2.31307 0
M  V30 524 H 43.389 -0.91319 1.11341 0
M  V30 525 H 45.342 -4.05003 1.16406 0
M  V30 526 H 44.066 -3.25955 0.205215 0
M  V30 527 H 42.725 -2.85547 2.29909 0
M  V30 528 H 42.373 -4.93769 0.959221 0
M  V30 529 H 42.073 -5.22313 2.69189 0
M  V30 530 H 43.597 -5.7866 1.94898 0
M  V30 531 H 45.011 -4.36307 3.719 0
M  V30 532 H 43.408 -4.03718 4.43995 0
M  V30 533 H 44.478 -2.68134 4.0402 0
M  V30 534 N 45.8211 -1.22559 -0.990812 0
M  V30 535 C 47.0671 -1.05297 -1.73322 0
M  V30 536 C 47.4001 0.410655 -1.89808 0
M  V30 537 O 46.6751 1.30439 -1.44277 0
M  V30 538 C 46.9581 -1.76713 -3.13759 0
M  V30 539 C 46.8111 -3.30684 -3.04907 0
M  V30 540 C 48.1301 -1.52121 -4.12974 0
M  V30 541 H 45.2491 -0.38392 -0.629106 0
M  V30 542 H 47.8911 -1.50926 -1.15418 0
M  V30 543 H 46.0411 -1.37924 -3.63193 0
M  V30 544 H 47.7131 -3.7893 -2.63077 0
M  V30 545 H 45.9561 -3.60253 -2.41661 0
M  V30 546 H 46.6271 -3.75833 -4.04294 0
M  V30 547 H 49.1031 -1.85819 -3.72304 0
M  V30 548 H 47.9791 -2.04582 -5.0935 0
M  V30 549 H 48.2401 -0.454257 -4.3976 0
M  V30 550 N 47.2992 1.18797 -1.03562 0
M  V30 551 C 48.7102 1.70322 -0.764676 0
M  V30 552 C 49.0612 1.82708 0.714996 0
M  V30 553 O 48.1862 1.50299 1.55689 0
M  V30 554 C 48.7812 3.09356 -1.38145 0
M  V30 555 C 47.3402 3.58114 -1.15895 0
M  V30 556 C 46.4872 2.34798 -1.4753 0
M  V30 557 H 49.4382 1.03543 -1.20268 0
M  V30 558 H 49.4592 3.72378 -0.781977 0
M  V30 559 H 48.9712 3.00309 -2.45837 0
M  V30 560 H 47.0722 3.72464 -0.100544 0
M  V30 561 H 47.1852 4.4184 -1.8524 0
M  V30 562 H 45.5492 2.38464 -0.894829 0
M  V30 563 H 46.3322 2.28375 -2.56319 0
M  V30 564 N 48.7773 0.814389 1.34928 0
M  V30 565 C 49.7243 0.22822 2.29669 0
M  V30 566 C 50.6943 -0.642164 1.53184 0
M  V30 567 O 51.8793 -0.585605 1.81591 0
M  V30 568 C 49.0193 -0.61089 3.3965 0
M  V30 569 C 48.1323 0.280792 4.31086 0
M  V30 570 C 47.2673 -0.567067 5.28165 0
M  V30 571 C 46.3063 0.324531 6.11239 0
M  V30 572 N 45.4433 -0.483756 7.00431 0
M  V30 573 H 50.2833 1.04153 2.79206 0
M  V30 574 H 47.8203 0.525133 1.37407 0
M  V30 575 H 49.7783 -1.11263 4.0209 0
M  V30 576 H 48.4083 -1.38939 2.91369 0
M  V30 577 H 47.4603 0.900688 3.69583 0
M  V30 578 H 48.7723 0.966723 4.89342 0
M  V30 579 H 47.9263 -1.13363 5.96015 0
M  V30 580 H 46.6653 -1.28654 4.70425 0
M  V30 581 H 45.6703 0.903298 5.42329 0
M  V30 582 H 46.8953 1.04198 6.71059 0
M  V30 583 H 44.8413 -1.18706 6.45171 0
M  V30 584 H 44.7583 0.143965 7.55863 0
M  V30 585 H 46.0263 -1.03334 7.7262 0
M  V30 586 N 50.2554 -1.46986 0.568584 0
M  V30 587 C 51.4834 -2.0683 0.0539956 0
M  V30 588 C 51.8984 -1.41953 -1.24478 0
M  V30 589 O 51.2554 -0.519933 -1.74937 0
M  V30 590 C 51.3064 -3.61254 -0.133362 0
M  V30 591 O 51.0274 -4.237 1.11399 0
M  V30 592 C 52.5284 -4.37992 -0.683927 0
M  V30 593 H 49.7484 -0.669058 0.0510141 0
M  V30 594 H 52.2924 -1.88824 0.785234 0
M  V30 595 H 50.4474 -3.78735 -0.81477 0
M  V30 596 H 50.8614 -5.16388 0.91888 0
M  V30 597 H 52.3354 -5.46684 -0.764263 0
M  V30 598 H 52.8124 -4.05058 -1.69778 0
M  V30 599 H 53.4184 -4.25283 -0.0378494 0
M  V30 600 N 51.7335 -0.305618 -1.54608 0
M  V30 601 C 52.6835 0.583595 -2.20405 0
M  V30 602 C 53.6675 1.09539 -1.17856 0
M  V30 603 O 54.8595 1.0354 -1.43557 0
M  V30 604 C 51.9885 1.75277 -2.95183 0
M  V30 605 C 51.0745 1.25672 -4.05052 0
M  V30 606 N 51.4655 0.478998 -5.03527 0
M  V30 607 C 49.7635 1.53704 -4.18678 0
M  V30 608 C 50.4645 0.214269 -5.81305 0
M  V30 609 N 49.4405 0.795374 -5.3775 0
M  V30 610 H 53.2425 -0.0180946 -2.93894 0
M  V30 611 H 50.7565 -0.110601 -1.62023 0
M  V30 612 H 52.7535 2.4014 -3.40791 0
M  V30 613 H 51.4135 2.35812 -2.23211 0
M  V30 614 H 52.4245 0.123473 -5.17753 0
M  V30 615 H 49.1015 2.14954 -3.57912 0
M  V30 616 H 50.4915 -0.410656 -6.70644 0
M  V30 617 N 53.2116 1.57565 -0.0334293 0
M  V30 618 C 54.1416 2.13511 0.945265 0
M  V30 619 C 55.1226 1.05231 1.33643 0
M  V30 620 O 56.3076 1.33084 1.41429 0
M  V30 621 C 53.4376 2.6657 2.22616 0
M  V30 622 C 52.3916 3.79676 1.97561 0
M  V30 623 C 51.7176 4.1918 3.31952 0
M  V30 624 C 53.0176 5.0557 1.31135 0
M  V30 625 H 54.7116 2.95538 0.479325 0
M  V30 626 H 52.2576 1.42166 0.229115 0
M  V30 627 H 54.2106 3.04344 2.91466 0
M  V30 628 H 52.9346 1.8171 2.71384 0
M  V30 629 H 51.5936 3.42347 1.31127 0
M  V30 630 H 51.2416 3.31296 3.78487 0
M  V30 631 H 50.9416 4.95402 3.15992 0
M  V30 632 H 52.4656 4.59541 4.02063 0
M  V30 633 H 53.8796 5.40903 1.89992 0
M  V30 634 H 52.2766 5.86818 1.25559 0
M  V30 635 H 53.3466 4.84062 0.284894 0
M  V30 636 N 54.6897 -0.239769 1.55765 0
M  V30 637 C 55.6227 -1.32356 1.85895 0
M  V30 638 C 56.6007 -1.46053 0.714662 0
M  V30 639 O 57.7847 -1.62154 0.961157 0
M  V30 640 C 54.9117 -2.6962 2.04994 0
M  V30 641 C 53.9577 -2.73036 3.27648 0
M  V30 642 S 54.7907 -2.28929 4.84099 0
M  V30 643 C 55.9467 -3.68103 5.06212 0
M  V30 644 H 56.1797 -1.06601 2.77531 0
M  V30 645 H 53.7127 -0.441112 1.47965 0
M  V30 646 H 55.6707 -3.48653 2.16682 0
M  V30 647 H 54.3317 -2.92609 1.14188 0
M  V30 648 H 53.5247 -3.7386 3.38 0
M  V30 649 H 53.1267 -2.02052 3.14723 0
M  V30 650 H 55.4187 -4.63656 4.93993 0
M  V30 651 H 56.3617 -3.6268 6.08168 0
M  V30 652 H 56.7697 -3.60947 4.34025 0
M  V30 653 N 56.1678 -1.49265 -0.50573 0
M  V30 654 C 57.3928 -1.62478 -1.28902 0
M  V30 655 C 57.8178 -0.294332 -1.85783 0
M  V30 656 O 57.1758 0.737412 -1.65626 0
M  V30 657 C 57.2238 -2.69268 -2.39848 0
M  V30 658 O 56.3278 -2.28113 -3.43567 0
M  V30 659 H 55.6688 -0.54399 -0.380751 0
M  V30 660 H 58.1988 -1.95421 -0.605952 0
M  V30 661 H 58.2088 -2.91291 -2.85681 0
M  V30 662 H 56.8838 -3.65846 -1.97812 0
M  V30 663 H 55.4608 -2.16401 -3.03685 0
M  V30 664 N 57.6459 0.756429 -1.3826 0
M  V30 665 C 58.5559 1.9009 -1.37488 0
M  V30 666 C 59.5719 1.71855 -0.272366 0
M  V30 667 O 60.7479 1.94827 -0.510318 0
M  V30 668 C 57.8129 3.25421 -1.19592 0
M  V30 669 C 56.8739 3.56202 -2.39622 0
M  V30 670 C 56.1069 4.85075 -2.2257 0
M  V30 671 O 56.3299 5.57246 -1.21793 0
M  V30 672 O 55.2639 5.15269 -3.11098 0
M  V30 673 H 59.0899 1.93695 -2.33914 0
M  V30 674 H 56.6749 0.901313 -1.1915 0
M  V30 675 H 58.5569 4.06337 -1.11661 0
M  V30 676 H 57.2319 3.22634 -0.262486 0
M  V30 677 H 56.1389 2.75458 -2.53128 0
M  V30 678 H 57.4719 3.63747 -3.31586 0
M  V30 679 N 59.124 1.23083 0.984299 0
M  V30 680 C 60.349 1.088 1.76571 0
M  V30 681 C 60.774 -0.356657 1.84688 0
M  V30 682 O 60.132 -1.25788 1.30565 0
M  V30 683 C 60.18 1.71371 3.17277 0
M  V30 684 O 59.284 0.973213 4.00752 0
M  V30 685 H 58.625 0.381599 0.543395 0
M  V30 686 H 61.155 1.63057 1.23587 0
M  V30 687 H 61.165 1.76449 3.67872 0
M  V30 688 H 59.84 2.76493 3.10684 0
M  V30 689 H 58.417 0.999078 3.59267 0
M  V30 690 N 60.6021 -1.18246 1.0419 0
M  V30 691 C 61.5121 -2.25574 0.644476 0
M  V30 692 C 62.5281 -1.70845 -0.329826 0
M  V30 693 O 63.7041 -2.00554 -0.184443 0
M  V30 694 C 60.7691 -3.46697 0.014877 0
M  V30 695 C 59.8301 -4.16554 1.03834 0
M  V30 696 C 59.0631 -5.31894 0.438692 0
M  V30 697 O 59.2861 -5.65385 -0.754752 0
M  V30 698 O 58.2201 -5.90459 1.168 0
M  V30 699 H 62.0461 -2.61836 1.53869 0
M  V30 700 H 59.6311 -1.25352 0.812854 0
M  V30 701 H 61.5131 -4.20062 -0.335538 0
M  V30 702 H 60.1881 -3.12255 -0.853138 0
M  V30 703 H 59.0951 -3.45251 1.44057 0
M  V30 704 H 60.4281 -4.54998 1.87716 0
M  V30 705 N 62.0802 -0.821533 -1.34494 0
M  V30 706 C 63.3262 -0.418729 -1.99043 0
M  V30 707 C 63.6812 1.00672 -1.6396 0
M  V30 708 O 62.9742 1.69132 -0.900271 0
M  V30 709 C 63.1682 -0.556512 -3.53041 0
M  V30 710 C 62.9972 -1.9938 -4.03085 0
M  V30 711 C 61.7672 -2.62539 -4.31742 0
M  V30 712 C 63.9652 -2.96035 -4.20556 0
M  V30 713 N 61.9472 -3.97523 -4.67813 0
M  V30 714 C 63.3182 -4.15924 -4.59791 0
M  V30 715 C 65.3732 -2.9267 -4.02801 0
M  V30 716 C 64.0762 -5.32899 -4.83126 0
M  V30 717 C 66.1022 -4.08861 -4.27302 0
M  V30 718 C 65.4642 -5.275 -4.66822 0
M  V30 719 H 61.5632 -0.201299 -0.755647 0
M  V30 720 H 64.1472 -1.06594 -1.62929 0
M  V30 721 H 62.3182 0.0607924 -3.88352 0
M  V30 722 H 64.0502 -0.126842 -4.04501 0
M  V30 723 H 60.8052 -2.13789 -4.22601 0
M  V30 724 H 61.2292 -4.67061 -4.90085 0
M  V30 725 H 65.8712 -2.02088 -3.71376 0
M  V30 726 H 63.5892 -6.24041 -5.13418 0
M  V30 727 H 67.1752 -4.07654 -4.15101 0
M  V30 728 H 66.0552 -6.15913 -4.85408 0
M  V30 729 N 63.5583 1.46682 -0.576371 0
M  V30 730 C 64.9743 1.57822 -0.237562 0
M  V30 731 C 65.1743 1.57237 1.26011 0
M  V30 732 O 64.2303 1.48596 2.04146 0
M  V30 733 C 65.5433 2.87499 -0.881168 0
M  V30 734 C 67.0913 3.01119 -0.85417 0
M  V30 735 C 67.5663 4.33524 -1.4772 0
M  V30 736 N 69.0573 4.40207 -1.44125 0
M  V30 737 C 69.7923 5.4126 -1.89276 0
M  V30 738 N 69.2883 6.49021 -2.42371 0
M  V30 739 N 71.0813 5.32422 -1.80231 0
M  V30 740 H 63.2323 1.45306 -1.54919 0
M  V30 741 H 65.4953 0.692733 -0.647167 0
M  V30 742 H 65.2013 2.9372 -1.93447 0
M  V30 743 H 65.0753 3.75224 -0.385592 0
M  V30 744 H 67.4623 2.94485 0.190491 0
M  V30 745 H 67.5433 2.14887 -1.3877 0
M  V30 746 H 67.1873 4.40916 -2.52103 0
M  V30 747 H 67.1173 5.1852 -0.918947 0
M  V30 748 H 69.6083 3.62931 -1.05307 0
M  V30 749 H 69.9213 7.2233 -2.74698 0
M  V30 750 H 68.2663 6.49858 -2.46393 0
M  V30 751 H 71.4573 4.47137 -1.38514 0
M  V30 752 H 71.6303 6.11034 -2.15735 0
M  V30 753 N 65.0364 0.313813 1.54444 0
M  V30 754 C 65.9844 -0.572171 2.25453 0
M  V30 755 C 66.9784 -1.12657 1.2651 0
M  V30 756 O 68.1844 -1.07573 1.44319 0
M  V30 757 H 64.5594 -0.203146 0.724041 0
M  V30 758 H 66.5304 0.0491145 2.9836 0
M  V30 759 C 65.2794 -1.72626 3.0182 0
M  V30 760 H 64.6024 -1.30891 3.77767 0
M  V30 761 H 66.0424 -2.32199 3.54767 0
M  V30 762 C 64.5014 -2.63806 2.09542 0
M  V30 763 O 65.0314 -3.65256 1.67185 0
M  V30 764 N 63.2374 -2.31824 1.75232 0
M  V30 765 H 62.7844 -1.49368 2.09873 0
M  V30 766 H 62.7424 -2.93095 1.13767 0
M  V30 767 N 66.5145 -1.57545 0.0417849 0
M  V30 768 C 67.4445 -2.14009 -0.933929 0
M  V30 769 C 68.4255 -1.05938 -1.33083 0
M  V30 770 O 69.6105 -1.33833 -1.40721 0
M  V30 771 C 66.7405 -2.67747 -2.21199 0
M  V30 772 C 65.6945 -3.80718 -1.95544 0
M  V30 773 C 65.0205 -4.20935 -3.29724 0
M  V30 774 C 66.3205 -5.06258 -1.28452 0
M  V30 775 H 68.0145 -2.95788 -0.463645 0
M  V30 776 H 65.5605 -1.42285 -0.221573 0
M  V30 777 H 67.5135 -3.05886 -2.89848 0
M  V30 778 H 66.2375 -1.83147 -2.70416 0
M  V30 779 H 64.8965 -3.43037 -1.2931 0
M  V30 780 H 64.5445 -3.33298 -3.76724 0
M  V30 781 H 64.2445 -4.9707 -3.13361 0
M  V30 782 H 65.7685 -4.61666 -3.9962 0
M  V30 783 H 67.1825 -5.41903 -1.8712 0
M  V30 784 H 65.5795 -5.87475 -1.22445 0
M  V30 785 H 66.6495 -4.84207 -0.259219 0
M  V30 786 N 67.9926 0.231505 -1.5589 0
M  V30 787 C 69.2406 0.955461 -1.78088 0
M  V30 788 C 69.5616 1.85262 -0.608533 0
M  V30 789 O 68.8316 1.92277 0.375035 0
M  V30 790 H 67.4116 0.355787 -0.656829 0
M  V30 791 H 70.0736 0.245751 -1.93344 0
M  V30 792 H 69.1696 1.56814 -2.69844 0
M  V30 793 N 69.4707 1.49531 0.497807 0
M  V30 794 C 70.7167 1.59415 1.25358 0
M  V30 795 C 71.0497 0.281422 1.9215 0
M  V30 796 O 70.3247 -0.715249 1.80871 0
M  V30 797 C 70.6077 2.75566 2.3181 0
M  V30 798 C 70.4607 4.16642 1.69498 0
M  V30 799 C 71.7797 2.87347 3.33346 0
M  V30 800 H 68.8987 0.580244 0.454408 0
M  V30 801 H 71.5407 1.81827 0.551262 0
M  V30 802 H 69.6907 2.56587 2.91711 0
M  V30 803 H 71.3627 4.47145 1.13399 0
M  V30 804 H 69.6057 4.22141 0.998978 0
M  V30 805 H 70.2767 4.93792 2.46725 0
M  V30 806 H 72.7527 3.04634 2.83438 0
M  V30 807 H 71.6287 3.70289 4.05188 0
M  V30 808 H 71.8897 1.96834 3.95865 0
M  V30 809 N 70.9488 -0.749086 1.3866 0
M  V30 810 C 71.8808 -1.87273 1.32142 0
M  V30 811 C 72.8938 -1.61127 0.232787 0
M  V30 812 O 74.0828 -1.71623 0.49069 0
M  V30 813 C 71.1828 -3.23005 1.02571 0
M  V30 814 C 70.3558 -3.7662 2.22433 0
M  V30 815 C 69.4148 -4.90879 1.89537 0
M  V30 816 O 68.4408 -5.05276 2.62078 0
M  V30 817 N 69.6428 -5.74198 0.853031 0
M  V30 818 H 72.4078 -1.93373 2.28969 0
M  V30 819 H 69.9688 -0.929216 1.32579 0
M  V30 820 H 71.9608 -3.96992 0.786085 0
M  V30 821 H 70.5308 -3.12262 0.145249 0
M  V30 822 H 69.7508 -2.94147 2.62434 0
M  V30 823 H 71.0388 -4.09173 3.02415 0
M  V30 824 H 70.4368 -5.6514 0.25155 0
M  V30 825 H 68.9938 -6.48313 0.67329 0
M  V30 826 N 72.4269 -1.23603 -0.977757 0
M  V30 827 C 73.3589 -0.977369 -2.07317 0
M  V30 828 C 74.3719 0.0495845 -1.62724 0
M  V30 829 O 75.5609 -0.186261 -1.77526 0
M  V30 830 C 72.6609 -0.451216 -3.35883 0
M  V30 831 C 71.8339 -1.53896 -4.09432 0
M  V30 832 C 70.8929 -1.01721 -5.16274 0
M  V30 833 O 69.9189 -1.70676 -5.43009 0
M  V30 834 N 71.1209 0.153594 -5.80297 0
M  V30 835 H 73.8859 -1.92047 -2.30082 0
M  V30 836 H 71.4469 -1.14497 -1.14465 0
M  V30 837 H 73.4389 -0.0871574 -4.04606 0
M  V30 838 H 72.0089 0.397368 -3.10064 0
M  V30 839 H 71.2289 -2.07566 -3.35127 0
M  V30 840 H 72.5169 -2.27037 -4.55337 0
M  V30 841 H 71.9149 0.730323 -5.60966 0
M  V30 842 H 70.4719 0.458892 -6.50183 0
M  V30 843 N 73.905 1.17692 -1.04816 0
M  V30 844 C 75.13 1.92327 -0.776207 0
M  V30 845 C 75.555 1.76082 0.661581 0
M  V30 846 O 74.913 1.076 1.45917 0
M  V30 847 C 74.961 3.41539 -1.15687 0
M  V30 848 O 74.065 4.11402 -0.286775 0
M  V30 849 H 73.406 0.599735 -0.284981 0
M  V30 850 H 75.936 1.49201 -1.4 0
M  V30 851 H 75.946 3.92269 -1.12202 0
M  V30 852 H 74.621 3.52684 -2.20425 0
M  V30 853 H 73.198 3.70939 -0.381903 0
M  V30 854 N 75.3831 0.828654 1.34056 0
M  V30 855 C 76.3151 0.212052 2.28217 0
M  V30 856 C 77.3281 -0.601362 1.51286 0
M  V30 857 O 78.5171 -0.430104 1.73241 0
M  V30 858 C 75.6171 -0.72088 3.31144 0
M  V30 859 C 74.7901 0.0509587 4.3737 0
M  V30 860 C 73.8491 -0.803766 5.20025 0
M  V30 861 O 72.8751 -0.246667 5.68665 0
M  V30 862 N 74.0771 -2.1227 5.40298 0
M  V30 863 H 76.8421 1.02105 2.81771 0
M  V30 864 H 74.4031 0.686153 1.46641 0
M  V30 865 H 76.3951 -1.29742 3.8334 0
M  V30 866 H 74.9651 -1.43061 2.77943 0
M  V30 867 H 74.1851 0.808831 3.85813 0
M  V30 868 H 75.4731 0.582065 5.0546 0
M  V30 869 H 74.8711 -2.59898 5.02464 0
M  V30 870 H 73.4281 -2.64796 5.95589 0
M  V30 871 N 76.8612 -1.46375 0.584142 0
M  V30 872 C 78.1092 -2.01978 0.0701287 0
M  V30 873 C 78.4302 -1.4579 -1.295 0
M  V30 874 O 77.7002 -0.64314 -1.85042 0
M  V30 875 H 76.2802 -0.746648 0.0229345 0
M  V30 876 H 78.9422 -1.79461 0.760245 0
M  V30 877 H 78.0382 -3.121 0.0022064 0
M  V30 878 N 78.3393 -0.321999 -1.54275 0
M  V30 879 C 79.5853 0.274234 -2.01543 0
M  V30 880 C 79.9403 1.499 -1.20614 0
M  V30 881 O 79.2333 1.89546 -0.279804 0
M  V30 882 C 79.4273 0.661769 -3.5122 0
M  V30 883 C 79.2563 -0.523892 -4.46638 0
M  V30 884 C 78.0263 -1.02251 -4.94846 0
M  V30 885 C 80.2243 -1.37558 -4.95563 0
M  V30 886 N 78.2063 -2.17274 -5.74165 0
M  V30 887 C 79.5773 -2.37301 -5.7279 0
M  V30 888 C 81.6323 -1.40353 -4.77709 0
M  V30 889 C 80.3353 -3.3964 -6.34064 0
M  V30 890 C 82.3613 -2.41562 -5.39817 0
M  V30 891 C 81.7233 -3.40031 -6.16894 0
M  V30 892 H 77.8223 0.0642367 -0.779357 0
M  V30 893 H 80.4063 -0.456683 -1.89268 0
M  V30 894 H 78.5773 1.36182 -3.63743 0
M  V30 895 H 80.3093 1.23934 -3.85256 0
M  V30 896 H 77.0643 -0.594046 -4.6986 0
M  V30 897 H 77.4883 -2.75289 -6.18502 0
M  V30 898 H 82.1303 -0.655907 -4.17681 0
M  V30 899 H 79.8483 -4.15309 -6.93213 0
M  V30 900 H 83.4343 -2.44524 -5.2792 0
M  V30 901 H 82.3143 -4.17063 -6.64099 0
M  V30 902 N 79.8174 1.5752 -0.0501392 0
M  V30 903 C 81.0634 1.92936 0.624798 0
M  V30 904 C 81.3964 0.928685 1.70555 0
M  V30 905 O 80.6714 -0.0454779 1.94447 0
M  V30 906 C 80.9544 3.38737 1.22185 0
M  V30 907 C 80.8074 4.49552 0.149218 0
M  V30 908 C 82.1264 3.84913 2.13378 0
M  V30 909 H 79.2454 0.701604 0.225657 0
M  V30 910 H 81.8874 1.89671 -0.111693 0
M  V30 911 H 80.0374 3.4165 1.84953 0
M  V30 912 H 81.7094 4.58768 -0.482648 0
M  V30 913 H 79.9524 4.30638 -0.522841 0
M  V30 914 H 80.6234 5.48653 0.606966 0
M  V30 915 H 83.0994 3.8387 1.60572 0
M  V30 916 H 81.9754 4.87584 2.52097 0
M  V30 917 H 82.2364 3.21611 3.03346 0
M  V30 918 N 81.2955 -0.223234 1.56011 0
M  V30 919 C 82.2455 -1.28008 1.88674 0
M  V30 920 C 83.2295 -1.42369 0.749663 0
M  V30 921 O 84.4215 -1.45212 1.01205 0
M  V30 922 C 81.5505 -2.63084 2.20548 0
M  V30 923 C 80.6365 -2.52632 3.40643 0
M  V30 924 N 81.0275 -2.11829 4.59306 0
M  V30 925 C 79.3255 -2.83594 3.44224 0
M  V30 926 C 80.0265 -2.12587 5.41463 0
M  V30 927 N 79.0025 -2.5301 4.81131 0
M  V30 928 H 82.8045 -0.955487 2.77935 0
M  V30 929 H 80.3185 -0.431801 1.56554 0
M  V30 930 H 82.3155 -3.39385 2.42122 0
M  V30 931 H 80.9755 -2.96391 1.32599 0
M  V30 932 H 81.9865 -1.82988 4.84496 0
M  V30 933 H 78.6635 -3.21284 2.66614 0
M  V30 934 H 80.0535 -1.83179 6.46448 0
M  V30 935 N 82.7736 -1.49793 -0.48987 0
M  V30 936 C 84.0036 -1.6333 -1.26518 0
M  V30 937 C 84.4116 -0.308392 -1.8667 0
M  V30 938 O 83.7546 0.717512 -1.69108 0
M  V30 939 C 83.8166 -2.6522 -2.4269 0
M  V30 940 C 83.4806 -4.09279 -2.03321 0
M  V30 941 C 84.4776 -4.95738 -1.56652 0
M  V30 942 C 82.1626 -4.55082 -2.12616 0
M  V30 943 C 84.1566 -6.26041 -1.19795 0
M  V30 944 C 81.8436 -5.85396 -1.75371 0
M  V30 945 C 82.8416 -6.707 -1.29036 0
M  V30 946 O 82.5296 -7.98584 -0.92299 0
M  V30 947 H 82.2616 -0.552502 -0.389509 0
M  V30 948 H 84.8156 -1.96642 -0.593381 0
M  V30 949 H 83.0456 -2.27112 -3.12981 0
M  V30 950 H 84.7346 -2.68171 -3.04695 0
M  V30 951 H 85.5006 -4.61575 -1.48908 0
M  V30 952 H 81.3796 -3.88844 -2.47631 0
M  V30 953 H 84.9236 -6.92578 -0.835582 0
M  V30 954 H 80.8206 -6.19085 -1.82768 0
M  V30 955 H 81.5886 -8.11692 -1.05349 0
M  V30 956 N 84.2517 0.741722 -1.39055 0
M  V30 957 C 85.1847 1.86416 -1.31622 0
M  V30 958 C 86.1627 1.61473 -0.191076 0
M  V30 959 O 87.3467 1.84825 -0.370399 0
M  V30 960 C 84.4737 3.22266 -1.04221 0
M  V30 961 C 83.5197 3.66079 -2.18834 0
M  V30 962 S 84.3527 3.7623 -3.81066 0
M  V30 963 C 85.5087 5.14881 -3.55877 0
M  V30 964 H 85.7417 1.92437 -2.26617 0
M  V30 965 H 83.2747 0.905907 -1.25031 0
M  V30 966 H 85.2327 4.00714 -0.890964 0
M  V30 967 H 83.8937 3.1391 -0.109237 0
M  V30 968 H 83.0867 4.64648 -1.95238 0
M  V30 969 H 82.6887 2.94817 -2.30128 0
M  V30 970 H 84.9807 6.01006 -3.12726 0
M  V30 971 H 85.9237 5.43503 -4.53884 0
M  V30 972 H 86.3317 4.84239 -2.90126 0
M  V30 973 N 85.7298 1.2412 0.971189 0
M  V30 974 C 86.9788 1.07284 1.70801 0
M  V30 975 C 87.2918 -0.388902 1.91695 0
M  V30 976 O 88.4978 -0.677379 2.62914 0
M  V30 977 C 86.9538 1.87145 3.07416 0
M  V30 978 C 86.5618 3.37707 2.94377 0
M  V30 979 C 88.3058 1.78828 3.84995 0
M  V30 980 C 86.2128 4.09925 4.26281 0
M  V30 981 H 85.1428 0.397854 0.64049 0
M  V30 982 H 87.7938 1.4817 1.0825 0
M  V30 983 H 86.1758 1.39071 3.70777 0
M  V30 984 H 87.3498 3.93335 2.4005 0
M  V30 985 H 85.6648 3.46938 2.30267 0
M  V30 986 H 88.2618 2.30089 4.82662 0
M  V30 987 H 88.6048 0.75284 4.09436 0
M  V30 988 H 89.1378 2.24563 3.28354 0
M  V30 989 H 85.8768 5.13813 4.07033 0
M  V30 990 H 85.3968 3.59083 4.80437 0
M  V30 991 H 87.0758 4.1673 4.94919 0
M  V30 992 N 87.2079 -1.17134 1.05439 0
M  V30 993 C 88.1579 -2.1919 0.627675 0
M  V30 994 C 89.1419 -1.57328 -0.337147 0
M  V30 995 O 90.3339 -1.76329 -0.153976 0
M  V30 996 C 87.4629 -3.43299 0.00651435 0
M  V30 997 C 86.5489 -4.12255 0.995312 0
M  V30 998 N 86.9399 -4.56997 2.16765 0
M  V30 999 C 85.2379 -4.38316 0.824336 0
M  V30 1000 C 85.9389 -5.10239 2.7934 0
M  V30 1001 N 84.9149 -5.02595 2.07122 0
M  V30 1002 H 88.7169 -2.5149 1.52086 0
M  V30 1003 H 86.2309 -1.33491 0.924868 0
M  V30 1004 H 88.2279 -4.15693 -0.316965 0
M  V30 1005 H 86.8879 -3.1249 -0.882033 0
M  V30 1006 H 87.8989 -4.51006 2.54587 0
M  V30 1007 H 84.5759 -4.17498 -0.0129526 0
M  V30 1008 H 85.9659 -5.54961 3.78772 0
M  V30 1009 N 88.686 -0.835752 -1.33615 0
M  V30 1010 C 89.596 -0.269088 -2.33052 0
M  V30 1011 C 90.612 0.603251 -1.63208 0
M  V30 1012 O 91.788 0.508112 -1.94885 0
M  V30 1013 C 88.853 0.549091 -3.42324 0
M  V30 1014 C 87.914 -0.347156 -4.27894 0
M  V30 1015 C 87.147 0.43207 -5.31948 0
M  V30 1016 O 87.37 1.66409 -5.45586 0
M  V30 1017 O 86.304 -0.192298 -6.01593 0
M  V30 1018 H 90.13 -1.09243 -2.83372 0
M  V30 1019 H 87.715 -0.598198 -1.36901 0
M  V30 1020 H 89.597 1.01414 -4.09015 0
M  V30 1021 H 88.272 1.34955 -2.94226 0
M  V30 1022 H 87.179 -0.859979 -3.64081 0
M  V30 1023 H 88.512 -1.1123 -4.79467 0
M  V30 1024 N 90.1641 1.46063 -0.591896 0
M  V30 1025 C 91.5751 1.85944 -0.167822 0
M  V30 1026 C 91.9261 1.49429 1.27143 0
M  V30 1027 O 91.0511 0.913515 1.96173 0
M  V30 1028 C 91.6461 3.37489 -0.297794 0
M  V30 1029 C 90.2051 3.76332 0.0714732 0
M  V30 1030 C 89.3521 2.7006 -0.629509 0
M  V30 1031 H 92.3031 1.37087 -0.799555 0
M  V30 1032 H 92.3241 3.77532 0.474349 0
M  V30 1033 H 91.8361 3.64034 -1.3454 0
M  V30 1034 H 89.9371 3.55405 1.11886 0
M  V30 1035 H 90.0501 4.78088 -0.311245 0
M  V30 1036 H 88.4141 2.54607 -0.0687867 0
M  V30 1037 H 89.1971 2.99444 -1.67894 0
M  V30 1038 N 91.6422 0.330177 1.54103 0
M  V30 1039 C 92.5522 -0.541534 2.28264 0
M  V30 1040 C 93.5682 -1.12351 1.32866 0
M  V30 1041 O 94.7442 -1.14206 1.65888 0
M  V30 1042 C 91.8092 -1.68322 3.03098 0
M  V30 1043 C 90.8702 -1.13238 4.14096 0
M  V30 1044 C 90.1032 -2.21966 4.85352 0
M  V30 1045 O 90.3262 -3.42437 4.56172 0
M  V30 1046 O 89.2602 -1.87013 5.7211 0
M  V30 1047 H 93.0862 0.060938 3.03639 0
M  V30 1048 H 90.6712 0.09565 1.49093 0
M  V30 1049 H 92.5532 -2.34777 3.49939 0
M  V30 1050 H 91.2282 -2.27176 2.30593 0
M  V30 1051 H 90.1352 -0.432736 3.71589 0
M  V30 1052 H 91.4682 -0.588898 4.88664 0
M  V30 1053 N 93.1203 -1.57491 0.0584922 0
M  V30 1054 C 94.5313 -1.80526 -0.476138 0
M  V30 1055 C 94.8823 -0.971334 -1.70469 0
M  V30 1056 O 94.0073 -0.190012 -2.15564 0
M  V30 1057 C 94.6023 -3.27424 -0.870587 0
M  V30 1058 C 93.1613 -3.51351 -1.35015 0
M  V30 1059 C 92.3083 -2.75343 -0.32887 0
M  V30 1060 H 95.2593 -1.56133 0.284312 0
M  V30 1061 H 95.2803 -3.38745 -1.73299 0
M  V30 1062 H 94.7923 -3.88093 0.0237627 0
M  V30 1063 H 92.8933 -2.95971 -2.26345 0
M  V30 1064 H 93.0063 -4.60059 -1.33726 0
M  V30 1065 H 91.3703 -2.417 -0.803321 0
M  V30 1066 H 92.1533 -3.38743 0.557521 0
M  V30 1067 N 94.5984 0.214957 -1.56127 0
M  V30 1068 C 95.5484 1.27006 -1.8935 0
M  V30 1069 C 96.5324 1.41969 -0.757202 0
M  V30 1070 O 97.7244 1.44673 -1.01973 0
M  V30 1071 C 94.8534 2.61911 -2.2194 0
M  V30 1072 C 93.9394 2.50822 -3.41978 0
M  V30 1073 N 94.3304 2.09391 -4.60423 0
M  V30 1074 C 92.6284 2.81765 -3.45723 0
M  V30 1075 C 93.3294 2.09712 -5.42582 0
M  V30 1076 N 92.3054 2.50454 -4.82466 0
M  V30 1077 H 96.1074 0.940734 -2.78437 0
M  V30 1078 H 93.6214 0.423492 -1.56781 0
M  V30 1079 H 95.6184 3.38096 -2.43919 0
M  V30 1080 H 94.2784 2.95684 -1.34169 0
M  V30 1081 H 95.2894 1.80416 -4.85459 0
M  V30 1082 H 91.9664 3.19865 -2.68314 0
M  V30 1083 H 93.3564 1.79748 -6.4741 0
M  V30 1084 N 96.0765 1.50051 0.48192 0
M  V30 1085 C 97.3255 1.59741 1.23149 0
M  V30 1086 C 97.6385 0.298163 1.93314 0
M  V30 1087 O 98.8445 0.273835 2.70116 0
M  V30 1088 C 97.3005 2.81926 2.23708 0
M  V30 1089 C 96.9085 4.18685 1.59396 0
M  V30 1090 C 98.6525 3.00956 2.99375 0
M  V30 1091 C 96.5595 5.3207 2.58178 0
M  V30 1092 H 95.4895 0.594838 0.46334 0
M  V30 1093 H 98.1405 1.76467 0.503169 0
M  V30 1094 H 96.5225 2.58736 2.99786 0
M  V30 1095 H 97.6965 4.52088 0.891811 0
M  V30 1096 H 96.0115 4.05171 0.960503 0
M  V30 1097 H 98.6085 3.82836 3.73283 0
M  V30 1098 H 98.9515 2.12258 3.58123 0
M  V30 1099 H 99.4845 3.24277 2.30411 0
M  V30 1100 H 96.2235 6.22888 2.04184 0
M  V30 1101 H 95.7435 5.03098 3.26577 0
M  V30 1102 H 97.4225 5.62196 3.20225 0
M  V30 1103 N 97.5546 -0.734337 1.39446 0
M  V30 1104 C 98.4846 -1.86155 1.40955 0
M  V30 1105 C 99.4656 -1.67898 0.272827 0
M  V30 1106 O 100.651 -1.88207 0.478743 0
M  V30 1107 C 97.7806 -3.23912 1.25294 0
M  V30 1108 C 96.7346 -3.56808 2.36373 0
M  V30 1109 C 96.0606 -4.93508 2.058 0
M  V30 1110 C 97.3606 -3.59713 3.78687 0
M  V30 1111 H 99.0546 -1.8515 2.35287 0
M  V30 1112 H 96.6006 -0.889367 1.13253 0
M  V30 1113 H 98.5536 -4.02443 1.2497 0
M  V30 1114 H 97.2776 -3.25446 0.274308 0
M  V30 1115 H 95.9366 -2.80606 2.35914 0
M  V30 1116 H 95.5846 -4.91623 1.06374 0
M  V30 1117 H 95.2846 -5.16486 2.80208 0
M  V30 1118 H 96.8086 -5.74396 2.07128 0
M  V30 1119 H 98.2226 -4.2832 3.81071 0
M  V30 1120 H 96.6196 -3.94209 4.52459 0
M  V30 1121 H 97.6896 -2.59504 4.09617 0
M  V30 1122 N 99.0327 -1.24633 -0.964593 0
M  V30 1123 C 99.9627 -1.06611 -2.07741 0
M  V30 1124 C 100.944 0.0218666 -1.70086 0
M  V30 1125 O 102.129 -0.145793 -1.93652 0
M  V30 1126 C 99.2587 -0.673444 -3.40708 0
M  V30 1127 C 98.2127 -1.71054 -3.92332 0
M  V30 1128 C 97.5387 -1.17285 -5.21678 0
M  V30 1129 C 98.8387 -3.10718 -4.19824 0
M  V30 1130 H 100.533 -1.99693 -2.23076 0
M  V30 1131 H 98.0787 -0.96152 -1.07195 0
M  V30 1132 H 100.032 -0.534345 -4.17998 0
M  V30 1133 H 98.7557 0.293073 -3.25282 0
M  V30 1134 H 97.4147 -1.83791 -3.17201 0
M  V30 1135 H 97.0627 -0.196847 -5.02615 0
M  V30 1136 H 96.7627 -1.86592 -5.57187 0
M  V30 1137 H 98.2867 -1.04593 -6.01575 0
M  V30 1138 H 99.7007 -3.01192 -4.87808 0
M  V30 1139 H 98.0977 -3.77406 -4.66567 0
M  V30 1140 H 99.1677 -3.58524 -3.26479 0
M  V30 1141 N 100.511 1.16574 -1.06058 0
M  V30 1142 C 101.758 1.87047 -0.775873 0
M  V30 1143 C 102.086 1.81562 0.697534 0
M  V30 1144 O 101.341 1.22445 1.52662 0
M  V30 1145 C 101.64 3.36195 -1.21275 0
M  V30 1146 C 101.306 3.6188 -2.68986 0
M  V30 1147 C 99.9678 3.68599 -3.09335 0
M  V30 1148 C 102.32 3.72648 -3.64394 0
M  V30 1149 C 99.6478 3.83584 -4.43937 0
M  V30 1150 C 102 3.89154 -4.98741 0
M  V30 1151 C 100.664 3.94114 -5.3873 0
M  V30 1152 H 99.9338 0.684452 -0.283912 0
M  V30 1153 H 102.581 1.37853 -1.32925 0
M  V30 1154 H 100.886 3.87505 -0.578528 0
M  V30 1155 H 102.583 3.89103 -0.969542 0
M  V30 1156 H 99.1728 3.57281 -2.36744 0
M  V30 1157 H 103.357 3.66769 -3.34356 0
M  V30 1158 H 98.6128 3.85677 -4.74409 0
M  V30 1159 H 102.787 3.96427 -5.72554 0
M  V30 1160 H 100.414 4.05478 -6.43033 0
M  V30 1161 N 101.989 0.842826 1.3317 0
M  V30 1162 C 103.405 0.531128 1.50503 0
M  V30 1163 C 103.605 -0.940734 1.78192 0
M  V30 1164 O 102.661 -1.72436 1.84451 0
M  V30 1165 C 103.974 1.40789 2.65705 0
M  V30 1166 C 105.522 1.40708 2.79589 0
M  V30 1167 C 105.997 2.26878 3.97857 0
M  V30 1168 N 107.488 2.24609 4.05099 0
M  V30 1169 C 108.223 2.88019 4.95815 0
M  V30 1170 N 107.719 3.60496 5.9162 0
M  V30 1171 N 109.512 2.77469 4.88843 0
M  V30 1172 H 101.663 1.79557 1.1346 0
M  V30 1173 H 103.926 0.766267 0.558156 0
M  V30 1174 H 103.632 2.454 2.51936 0
M  V30 1175 H 103.506 1.08677 3.61205 0
M  V30 1176 H 105.893 0.368668 2.92788 0
M  V30 1177 H 105.974 1.76829 1.84838 0
M  V30 1178 H 105.618 3.3078 3.85418 0
M  V30 1179 H 105.548 1.88096 4.91861 0
M  V30 1180 H 108.039 1.71906 3.36536 0
M  V30 1181 H 108.352 4.06076 6.57512 0
M  V30 1182 H 106.697 3.64604 5.91683 0
M  V30 1183 H 109.888 2.20406 4.12963 0
M  V30 1184 H 110.061 3.2717 5.59342 0
M  V30 1185 N 103.467 -1.45747 0.599634 0
M  V30 1186 C 104.883 -1.57424 0.26264 0
M  V30 1187 C 105.083 -1.59222 -1.23493 0
M  V30 1188 O 104.139 -1.51825 -2.01756 0
M  V30 1189 C 105.452 -2.86061 0.926795 0
M  V30 1190 C 107 -2.99722 0.901967 0
M  V30 1191 C 107.475 -4.31119 1.54598 0
M  V30 1192 N 108.966 -4.37858 1.5111 0
M  V30 1193 C 109.701 -5.3818 1.97863 0
M  V30 1194 N 109.197 -6.45083 2.52666 0
M  V30 1195 N 110.99 -5.29487 1.88679 0
M  V30 1196 H 103.141 -1.42823 1.57211 0
M  V30 1197 H 105.404 -0.68235 0.658105 0
M  V30 1198 H 105.11 -2.90605 1.98095 0
M  V30 1199 H 104.984 -3.74563 0.445238 0
M  V30 1200 H 107.371 -2.9475 -0.143617 0
M  V30 1201 H 107.452 -2.12652 1.42171 0
M  V30 1202 H 107.096 -4.36849 2.59085 0
M  V30 1203 H 107.026 -5.16992 1.00132 0
M  V30 1204 H 109.517 -3.61209 1.11068 0
M  V30 1205 H 109.83 -7.17869 2.86155 0
M  V30 1206 H 108.175 -6.45856 2.56701 0
M  V30 1207 H 111.366 -4.44877 1.4561 0
M  V30 1208 H 111.539 -6.07524 2.25429 0
M  V30 1209 N 104.945 -0.338344 -1.53925 0
M  V30 1210 C 106.356 0.146651 -1.86123 0
M  V30 1211 C 106.707 1.5042 -1.2597 0
M  V30 1212 O 105.832 2.08723 -0.571294 0
M  V30 1213 C 106.427 0.272879 -3.37699 0
M  V30 1214 C 104.986 0.702103 -3.69794 0
M  V30 1215 C 104.133 -0.167304 -2.76795 0
M  V30 1216 H 107.084 -0.558123 -1.48562 0
M  V30 1217 H 107.105 1.10128 -3.64214 0
M  V30 1218 H 106.617 -0.715307 -3.81451 0
M  V30 1219 H 104.718 1.6995 -3.31584 0
M  V30 1220 H 104.831 0.495604 -4.7653 0
M  V30 1221 H 103.195 0.359527 -2.5215 0
M  V30 1222 H 103.978 -1.15253 -3.23375 0
M  V30 1223 N 106.423 1.57458 -0.0668435 0
M  V30 1224 C 107.353 2.15468 0.899764 0
M  V30 1225 C 108.334 1.08042 1.31381 0
M  V30 1226 O 109.519 1.36054 1.38574 0
M  V30 1227 C 106.649 2.71232 2.16911 0
M  V30 1228 C 105.603 3.83781 1.89463 0
M  V30 1229 C 104.929 4.26127 3.22986 0
M  V30 1230 C 106.229 5.08238 1.20381 0
M  V30 1231 H 107.923 2.96488 0.416529 0
M  V30 1232 H 105.469 1.4262 0.198908 0
M  V30 1233 H 107.422 3.10458 2.84945 0
M  V30 1234 H 106.146 1.87426 2.67468 0
M  V30 1235 H 104.805 3.45051 1.23836 0
M  V30 1236 H 104.453 3.39249 3.71374 0
M  V30 1237 H 104.153 5.01993 3.05413 0
M  V30 1238 H 105.677 4.67966 3.92225 0
M  V30 1239 H 107.091 5.44811 1.78475 0
M  V30 1240 H 105.488 5.89349 1.13083 0
M  V30 1241 H 106.558 4.84558 0.182153 0
M  V30 1242 N 107.901 -0.206675 1.56239 0
M  V30 1243 C 109.312 -0.772383 1.69974 0
M  V30 1244 C 109.663 -1.84353 0.671436 0
M  V30 1245 O 108.788 -2.15695 -0.174491 0
M  V30 1246 C 109.383 -1.40779 3.08167 0
M  V30 1247 C 107.942 -1.92072 3.23706 0
M  V30 1248 C 107.089 -0.786347 2.65917 0
M  V30 1249 H 110.04 0.0182223 1.5869 0
M  V30 1250 H 110.061 -2.27696 3.04852 0
M  V30 1251 H 109.573 -0.627958 3.82986 0
M  V30 1252 H 107.674 -2.7281 2.53782 0
M  V30 1253 H 107.787 -2.09046 4.31087 0
M  V30 1254 H 106.151 -1.1976 2.24788 0
M  V30 1255 H 106.934 -0.0189416 3.43295 0
M  V30 1256 N 109.379 -1.50304 -0.473955 0
M  V30 1257 C 110.326 -1.68959 -1.57231 0
M  V30 1258 C 111.296 -0.530899 -1.57387 0
M  V30 1259 O 112.481 -0.761133 -1.74961 0
M  V30 1260 C 109.621 -1.7871 -2.95223 0
M  V30 1261 C 108.734 -3.06061 -3.04878 0
M  V30 1262 C 107.869 -3.06626 -4.33767 0
M  V30 1263 C 106.908 -4.28443 -4.37154 0
M  V30 1264 N 106.045 -4.26763 -5.5751 0
M  V30 1265 H 110.885 -2.6273 -1.40631 0
M  V30 1266 H 108.422 -1.30241 -0.683789 0
M  V30 1267 H 110.38 -1.82344 -3.75242 0
M  V30 1268 H 109.01 -0.883806 -3.10465 0
M  V30 1269 H 108.062 -3.11911 -2.17751 0
M  V30 1270 H 109.374 -3.96039 -3.0324 0
M  V30 1271 H 108.528 -3.08973 -5.22131 0
M  V30 1272 H 107.267 -2.14473 -4.3801 0
M  V30 1273 H 106.272 -4.2631 -3.47188 0
M  V30 1274 H 107.497 -5.2182 -4.34605 0
M  V30 1275 H 105.443 -3.37462 -5.62544 0
M  V30 1276 H 105.36 -5.10507 -5.57601 0
M  V30 1277 H 106.628 -4.33253 -6.48006 0
M  V30 1278 N 110.857 0.726932 -1.39834 0
M  V30 1279 C 111.804 1.841 -1.39197 0
M  V30 1280 C 112.774 1.642 -0.250502 0
M  V30 1281 O 113.959 1.85494 -0.446846 0
M  V30 1282 C 111.099 3.21697 -1.24919 0
M  V30 1283 C 110.212 3.53247 -2.48678 0
M  V30 1284 C 109.347 4.80289 -2.26928 0
M  V30 1285 C 108.386 5.04707 -3.4632 0
M  V30 1286 N 107.523 6.22956 -3.23836 0
M  V30 1287 H 112.363 1.83979 -2.34427 0
M  V30 1288 H 109.9 0.898876 -1.16442 0
M  V30 1289 H 111.858 4.01137 -1.1465 0
M  V30 1290 H 110.488 3.21076 -0.333153 0
M  V30 1291 H 109.54 2.68447 -2.69519 0
M  V30 1292 H 110.852 3.67205 -3.37582 0
M  V30 1293 H 110.006 5.67725 -2.13947 0
M  V30 1294 H 108.745 4.68519 -1.35431 0
M  V30 1295 H 107.75 4.1573 -3.5979 0
M  V30 1296 H 108.975 5.18357 -4.38729 0
M  V30 1297 H 106.921 6.12459 -2.35011 0
M  V30 1298 H 106.838 6.37539 -4.063 0
M  V30 1299 H 108.106 7.1321 -3.14566 0
M  V30 1300 N 112.336 1.25143 0.95797 0
M  V30 1301 C 113.747 1.08851 1.51685 0
M  V30 1302 C 114.098 -0.33687 1.93286 0
M  V30 1303 O 113.223 -1.22644 1.7829 0
M  V30 1304 C 113.818 1.96978 2.75654 0
M  V30 1305 C 112.377 1.84881 3.27866 0
M  V30 1306 C 111.524 1.91329 2.0072 0
M  V30 1307 H 114.475 1.38478 0.77522 0
M  V30 1308 H 114.496 1.5078 3.4935 0
M  V30 1309 H 114.008 3.00712 2.45345 0
M  V30 1310 H 112.109 0.840182 3.63004 0
M  V30 1311 H 112.222 2.6951 3.96107 0
M  V30 1312 H 110.586 1.35174 2.15871 0
M  V30 1313 H 111.369 2.96661 1.72764 0
M  V30 1314 N 113.814 -1.1601 1.06675 0
M  V30 1315 C 114.761 -2.20525 0.680967 0
M  V30 1316 C 115.731 -1.62904 -0.324283 0
M  V30 1317 O 116.916 -1.89615 -0.212294 0
M  V30 1318 C 114.056 -3.45013 0.0776551 0
M  V30 1319 C 113.169 -4.16863 1.13355 0
M  V30 1320 C 112.304 -5.2888 0.49597 0
M  V30 1321 C 111.343 -5.92537 1.53513 0
M  V30 1322 N 110.48 -6.96038 0.920631 0
M  V30 1323 H 115.32 -2.52876 1.57663 0
M  V30 1324 H 112.857 -1.24199 0.788223 0
M  V30 1325 H 114.815 -4.16193 -0.289704 0
M  V30 1326 H 113.445 -3.132 -0.781393 0
M  V30 1327 H 112.497 -3.44248 1.61857 0
M  V30 1328 H 113.809 -4.60294 1.92174 0
M  V30 1329 H 112.963 -6.06653 0.0758604 0
M  V30 1330 H 111.702 -4.86622 -0.324062 0
M  V30 1331 H 110.707 -5.13482 1.9651 0
M  V30 1332 H 111.932 -6.36873 2.35733 0
M  V30 1333 H 109.878 -6.55888 0.12138 0
M  V30 1334 H 109.795 -7.3786 1.64616 0
M  V30 1335 H 111.063 -7.77725 0.525795 0
M  V30 1336 N 115.292 -0.849877 -1.32721 0
M  V30 1337 C 116.239 -0.289033 -2.28983 0
M  V30 1338 C 117.209 0.601324 -1.54833 0
M  V30 1339 O 118.394 0.537253 -1.8308 0
M  V30 1340 C 115.534 0.520623 -3.4115 0
M  V30 1341 C 114.647 -0.394989 -4.3019 0
M  V30 1342 C 113.782 0.426834 -5.29482 0
M  V30 1343 C 112.821 -0.486476 -6.10164 0
M  V30 1344 N 111.958 0.297879 -7.01468 0
M  V30 1345 H 116.798 -1.11519 -2.76347 0
M  V30 1346 H 114.335 -0.56138 -1.35967 0
M  V30 1347 H 116.293 1.00563 -4.04899 0
M  V30 1348 H 114.923 1.31165 -2.9495 0
M  V30 1349 H 113.975 -0.99836 -3.67065 0
M  V30 1350 H 115.287 -1.09612 -4.86607 0
M  V30 1351 H 114.441 0.975205 -5.98811 0
M  V30 1352 H 113.18 1.16136 -4.73671 0
M  V30 1353 H 112.185 -1.04677 -5.39743 0
M  V30 1354 H 113.41 -1.21953 -6.6806 0
M  V30 1355 H 111.356 1.01558 -6.48091 0
M  V30 1356 H 111.273 -0.344318 -7.55216 0
M  V30 1357 H 112.541 0.828131 -7.75089 0
M  V30 1358 O 116.809 1.43148 -0.747716 0
M  V30 1359 H 117.5 1.91307 -0.303544 0
M  V30 END ATOM
M  V30 BEGIN BOND
M  V30 END BOND
M  V30 END CTAB
M  END
$$$$
